
  -OEChem-04052322173D

 88 97  0     1  0  0  0  0  0999 V2000
  -21.7932  -34.5863   18.7350 C   0  0  0  0  0  0  0  0  0  0  0  0
  -22.2106  -33.5928   17.8551 C   0  0  0  0  0  0  0  0  0  0  0  0
  -22.9194  -10.1435   19.9298 C   0  0  0  0  0  0  0  0  0  0  0  0
  -23.8446   -9.8358   22.1404 C   0  0  0  0  0  0  0  0  0  0  0  0
  -22.3784  -34.6897   19.9962 C   0  0  0  0  0  0  0  0  0  0  0  0
  -23.2143  -32.7028   18.2356 C   0  0  0  0  0  0  0  0  0  0  0  0
  -25.2874  -25.9061   17.3277 C   0  0  0  0  0  0  0  0  0  0  0  0
  -22.1389   -8.9997   20.0973 C   0  0  0  0  0  0  0  0  0  0  0  0
  -23.0640   -8.6920   22.3079 C   0  0  0  0  0  0  0  0  0  0  0  0
  -26.4062  -25.1618   16.9562 C   0  0  0  0  0  0  0  0  0  0  0  0
  -23.1461   -5.4553   21.3344 C   0  0  0  0  0  0  0  0  0  0  0  0
  -23.7602   -4.3248   21.8732 C   0  0  0  0  0  0  0  0  0  0  0  0
  -27.2897  -25.3861   19.1897 C   0  0  0  0  0  0  0  0  0  0  0  0
  -28.3706  -20.2638   18.1289 C   0  0  0  0  0  0  0  0  0  0  0  0
  -29.9125  -21.8352   19.1239 C   0  0  0  0  0  0  0  0  0  0  0  0
  -22.1992   -4.3556   23.7169 C   0  0  0  0  0  0  0  0  0  0  0  0
  -23.7723  -10.5615   20.9513 C   0  0  0  0  0  0  0  0  0  0  0  0
  -28.9470  -20.0746   20.4675 C   0  0  0  0  0  0  0  0  0  0  0  0
  -24.2308  -13.0660   21.1089 C   0  0  0  0  0  0  0  0  0  0  0  0
  -23.3831  -33.7944   20.3960 C   0  0  0  0  0  0  0  0  0  0  0  0
  -25.1663  -26.4061   18.6322 C   0  0  0  0  0  0  0  0  0  0  0  0
  -23.8145  -32.7951   19.5029 C   0  0  0  0  0  0  0  0  0  0  0  0
  -26.1671  -26.1343   19.5759 C   0  0  0  0  0  0  0  0  0  0  0  0
  -29.2064  -21.3744   18.0127 C   0  0  0  0  0  0  0  0  0  0  0  0
  -28.2409  -19.6139   19.3563 C   0  0  0  0  0  0  0  0  0  0  0  0
  -29.7829  -21.1853   20.3513 C   0  0  0  0  0  0  0  0  0  0  0  0
  -22.2111   -8.2740   21.2863 C   0  0  0  0  0  0  0  0  0  0  0  0
  -27.4089  -24.9041   17.8864 C   0  0  0  0  0  0  0  0  0  0  0  0
  -22.0585   -6.0360   21.9868 C   0  0  0  0  0  0  0  0  0  0  0  0
  -23.2867   -3.7749   23.0645 C   0  0  0  0  0  0  0  0  0  0  0  0
  -21.5851   -5.4862   23.1781 C   0  0  0  0  0  0  0  0  0  0  0  0
  -24.5793  -11.7427   20.7787 C   0  0  0  0  0  0  0  0  0  0  0  0
  -25.3297  -13.8094   20.7534 C   0  0  0  0  0  0  0  0  0  0  0  0
  -29.6164  -18.4027   22.1520 C   0  0  0  0  0  0  0  0  0  0  0  0
  -28.8114  -19.3942   21.7521 C   0  0  0  0  0  0  0  0  0  0  0  0
  -23.0220  -13.5777   21.6856 C   0  0  0  0  0  0  0  0  0  0  0  0
  -24.9680  -29.3088   19.9125 C   0  0  0  0  0  0  0  0  0  0  0  0
  -24.4602  -27.6420   22.6487 C   0  0  0  0  0  0  0  0  0  0  0  0
  -24.8579  -24.7301   24.3835 C   0  0  0  0  0  0  0  0  0  0  0  0
  -30.8568  -14.5721   20.6302 C   0  0  0  0  0  0  0  0  0  0  0  0
  -24.0190  -33.9751   21.7516 C   0  0  0  0  0  0  0  0  0  0  0  0
  -23.9405  -27.1846   19.0246 C   0  0  0  0  0  0  0  0  0  0  0  0
  -26.0752  -26.6313   20.9948 C   0  0  0  0  0  0  0  0  0  0  0  0
  -29.4857  -17.6956   23.4720 C   0  0  0  0  0  0  0  0  0  0  0  0
  -24.8142  -32.7585   22.2184 C   0  0  0  0  0  0  0  0  0  0  0  0
  -30.7646  -16.8695   23.5593 C   0  0  0  0  0  0  0  0  0  0  0  0
  -29.4292  -12.5494   18.0714 C   0  0  0  0  0  0  0  0  0  0  0  0
  -25.7123  -32.2455   21.0972 C   0  0  0  0  0  0  0  0  0  0  0  0
  -28.0144  -12.2635   18.5778 C   0  0  0  0  0  0  0  0  0  0  0  0
  -30.4417  -12.5824   19.2141 C   0  0  0  0  0  0  0  0  0  0  0  0
  -28.6857  -13.2137   20.8239 C   0  0  0  0  0  0  0  0  0  0  0  0
  -24.8831  -31.7953   19.8884 C   0  0  1  0  0  0  0  0  0  0  0  0
  -30.7568  -17.8310   21.3390 C   0  0  2  0  0  0  0  0  0  0  0  0
  -24.1652  -28.0811   20.2383 C   0  0  1  0  0  0  0  0  0  0  0  0
  -27.6204  -13.2260   19.7143 C   0  0  2  0  0  0  0  0  0  0  0  0
  -31.1209  -16.5488   22.1074 C   0  0  2  0  0  0  0  0  0  0  0  0
  -27.3353  -18.4266   19.4399 C   0  0  0  0  0  0  0  0  0  0  0  0
  -30.5558  -21.7105   21.5190 C   0  0  0  0  0  0  0  0  0  0  0  0
  -31.9393  -18.7985   21.2692 C   0  0  0  0  0  0  0  0  0  0  0  0
  -24.3703  -23.6817   26.6106 C   0  0  0  0  0  0  0  0  0  0  0  0
  -26.7402  -29.2397   23.8972 C   0  0  0  0  0  0  0  0  0  0  0  0
  -26.8346  -27.5387   25.7319 C   0  0  0  0  0  0  0  0  0  0  0  0
  -24.7672  -28.8931   25.3943 C   0  0  0  0  0  0  0  0  0  0  0  0
  -23.1862  -22.6199   23.1543 C   0  0  0  0  0  0  0  0  0  0  0  0
  -29.3464  -22.0781   16.6847 C   0  0  0  0  0  0  0  0  0  0  0  0
  -28.3222  -23.1939   16.5090 C   0  0  0  0  0  0  0  0  0  1  0  0
  -25.3426  -27.0750   23.7344 C   0  0  1  0  0  0  0  0  0  0  0  0
  -23.8781  -23.8949   25.1876 C   0  0  2  0  0  0  0  0  0  0  0  0
  -25.9241  -28.1788   24.6623 C   0  0  0  0  0  0  0  0  0  0  0  0
  -25.8037  -11.6476   20.2536 N   0  0  0  0  0  0  0  0  0  0  0  0
  -26.2342  -12.9207   20.2511 N   0  0  0  0  0  0  0  0  0  0  0  0
  -24.8604  -27.3932   21.3282 N   0  0  0  0  0  0  0  0  0  0  0  0
  -30.0098  -13.5152   20.2578 N   0  0  0  0  0  0  0  0  0  0  0  0
  -25.6008  -15.1299   20.8245 N   0  0  0  0  0  0  0  0  0  0  0  0
  -21.9931  -12.6759   21.9899 N   0  0  0  0  0  0  0  0  0  0  0  0
  -24.2959  -30.4956   20.1341 N   0  0  0  0  0  0  0  0  0  0  0  0
  -24.5424  -26.0717   24.4283 N   0  0  0  0  0  0  0  0  0  0  0  0
  -30.3683  -15.4135   21.6223 N   0  0  0  0  0  0  0  0  0  0  0  0
  -23.6901  -22.5608   24.5506 N   0  3  0  0  0  0  0  0  0  0  0  0
  -22.8526  -14.8004   21.9088 O   0  0  0  0  0  0  0  0  0  0  0  0
  -26.1129  -29.1882   19.4926 O   0  0  0  0  0  0  0  0  0  0  0  0
  -23.4491  -28.2761   22.9606 O   0  0  0  0  0  0  0  0  0  0  0  0
  -25.8103  -24.2418   23.7793 O   0  0  0  0  0  0  0  0  0  0  0  0
  -31.9639  -14.7557   20.1128 O   0  0  0  0  0  0  0  0  0  0  0  0
  -21.4494   -7.1579   21.4501 O   0  0  0  0  0  0  0  0  0  0  0  0
  -28.5023  -24.1785   17.5262 O   0  0  0  0  0  0  0  0  0  1  0  0
  -23.8756   -2.6884   23.5810 F   0  0  0  0  0  0  0  0  0  0  0  0
  -20.5399   -6.0390   23.8088 F   0  0  0  0  0  0  0  0  0  0  0  0
  1  2  1  0  0  0  0
  1  5  2  0  0  0  0
  2  6  2  0  0  0  0
  3  8  2  0  0  0  0
  3 17  1  0  0  0  0
  4  9  1  0  0  0  0
  4 17  2  0  0  0  0
  5 20  1  0  0  0  0
  6 22  1  0  0  0  0
  7 10  2  0  0  0  0
  7 21  1  0  0  0  0
  8 27  1  0  0  0  0
  9 27  2  0  0  0  0
 10 28  1  0  0  0  0
 11 12  2  0  0  0  0
 11 29  1  0  0  0  0
 12 30  1  0  0  0  0
 13 23  1  0  0  0  0
 13 28  2  0  0  0  0
 14 24  1  0  0  0  0
 14 25  2  0  0  0  0
 15 24  2  0  0  0  0
 15 26  1  0  0  0  0
 16 30  2  0  0  0  0
 16 31  1  0  0  0  0
 17 32  1  0  0  0  0
 18 25  1  0  0  0  0
 18 26  2  0  0  0  0
 18 35  1  0  0  0  0
 19 32  1  0  0  0  0
 19 33  2  0  0  0  0
 19 36  1  0  0  0  0
 20 22  2  0  0  0  0
 20 41  1  0  0  0  0
 21 23  2  0  0  0  0
 21 42  1  0  0  0  0
 22 52  1  0  0  0  0
 23 43  1  0  0  0  0
 24 65  1  0  0  0  0
 25 57  1  0  0  0  0
 26 58  1  0  0  0  0
 27 85  1  0  0  0  0
 28 86  1  0  0  0  0
 29 31  2  0  0  0  0
 29 85  1  0  0  0  0
 30 87  1  0  0  0  0
 31 88  1  0  0  0  0
 32 70  2  0  0  0  0
 33 71  1  0  0  0  0
 33 74  1  0  0  0  0
 34 35  2  0  0  0  0
 34 44  1  0  0  0  0
 34 53  1  0  0  0  0
 36 75  1  0  0  0  0
 36 80  2  0  0  0  0
 37 54  1  0  0  0  0
 37 76  1  0  0  0  0
 37 81  2  0  0  0  0
 38 67  1  0  0  0  0
 38 72  1  0  0  0  0
 38 82  2  0  0  0  0
 39 68  1  0  0  0  0
 39 77  1  0  0  0  0
 39 83  2  0  0  0  0
 40 73  1  0  0  0  0
 40 78  1  0  0  0  0
 40 84  2  0  0  0  0
 41 45  1  0  0  0  0
 42 54  1  0  0  0  0
 43 72  1  0  0  0  0
 44 46  1  0  0  0  0
 45 48  1  0  0  0  0
 46 56  1  0  0  0  0
 47 49  1  0  0  0  0
 47 50  1  0  0  0  0
 48 52  1  0  0  0  0
 49 55  1  0  0  0  0
 50 73  1  0  0  0  0
 51 55  1  0  0  0  0
 51 73  1  0  0  0  0
 52 76  1  0  0  0  0
 53 56  1  0  0  0  0
 53 59  1  0  0  0  0
 54 72  1  0  0  0  0
 55 71  1  0  0  0  0
 56 78  1  0  0  0  0
 60 68  1  0  0  0  0
 61 69  1  0  0  0  0
 62 69  1  0  0  0  0
 63 69  1  0  0  0  0
 64 79  1  0  0  0  0
 65 66  1  0  0  0  0
 66 86  1  0  0  0  0
 67 69  1  0  0  0  0
 67 77  1  0  0  0  0
 68 79  1  0  0  0  0
 70 71  1  0  0  0  0
M  CHG  1  79   1
M  ISO  4  40 100  66 101  78 100  86 101
M  END
> <Batch ID>
0163

> <Smiles>
CNC(C)C(=O)NC(C(=O)N1Cc2cc([101O:1][101CH2:1]Cc3cc(C)c(C=C4CCC([100NH:0][100C:0](=O)N5CCCC(n6nc(-c7ccc(Oc8ccc(F)cc8F)cc7)c(C(N)=O)c6N)C5)C4C)c(C)c3)ccc2CC1C(=O)NC1CCCc2ccccc21)C(C)(C)C

> <Shape>
0.308

> <Color>
0.202

> <Negative vol penalty>
0.000

$$$$

  -OEChem-04052322173D

 95105  0     1  0  0  0  0  0999 V2000
  -20.9524  -33.2376   14.9480 C   0  0  0  0  0  0  0  0  0  0  0  0
  -21.8287  -32.1741   15.1390 C   0  0  0  0  0  0  0  0  0  0  0  0
  -20.9846  -13.5891   23.4970 C   0  0  0  0  0  0  0  0  0  0  0  0
  -19.9260  -15.3248   22.1916 C   0  0  0  0  0  0  0  0  0  0  0  0
  -21.0355  -34.3634   15.7662 C   0  0  0  0  0  0  0  0  0  0  0  0
  -22.7895  -32.2364   16.1476 C   0  0  0  0  0  0  0  0  0  0  0  0
  -24.8685  -27.5837   19.5441 C   0  0  0  0  0  0  0  0  0  0  0  0
  -20.1165  -13.8559   24.5556 C   0  0  0  0  0  0  0  0  0  0  0  0
  -19.0579  -15.5915   23.2502 C   0  0  0  0  0  0  0  0  0  0  0  0
  -26.0134  -26.7934   19.4520 C   0  0  0  0  0  0  0  0  0  0  0  0
  -16.9156  -13.1546   25.3895 C   0  0  0  0  0  0  0  0  0  0  0  0
  -16.3267  -12.0672   26.0347 C   0  0  0  0  0  0  0  0  0  0  0  0
  -27.1185  -28.2184   21.0543 C   0  0  0  0  0  0  0  0  0  0  0  0
  -17.3512  -12.7464   28.1147 C   0  0  0  0  0  0  0  0  0  0  0  0
  -20.8894  -14.3236   22.3149 C   0  0  0  0  0  0  0  0  0  0  0  0
  -28.4609  -14.0767   18.8129 C   0  0  0  0  0  0  0  0  0  0  0  0
  -21.9314  -12.8336   20.5256 C   0  0  0  0  0  0  0  0  0  0  0  0
  -21.9915  -34.4355   16.7916 C   0  0  0  0  0  0  0  0  0  0  0  0
  -24.8436  -28.7054   20.3851 C   0  0  0  0  0  0  0  0  0  0  0  0
  -22.8864  -33.3649   16.9794 C   0  0  0  0  0  0  0  0  0  0  0  0
  -25.9711  -29.0198   21.1572 C   0  0  0  0  0  0  0  0  0  0  0  0
  -29.4385  -14.2247   19.7968 C   0  0  0  0  0  0  0  0  0  0  0  0
  -28.0732  -12.8016   18.4012 C   0  0  0  0  0  0  0  0  0  0  0  0
  -30.0284  -13.0977   20.3690 C   0  0  0  0  0  0  0  0  0  0  0  0
  -28.6631  -11.6745   18.9735 C   0  0  0  0  0  0  0  0  0  0  0  0
  -29.6407  -11.8226   19.9574 C   0  0  0  0  0  0  0  0  0  0  0  0
  -19.1531  -14.8571   24.4323 C   0  0  0  0  0  0  0  0  0  0  0  0
  -27.1396  -27.1124   20.2050 C   0  0  0  0  0  0  0  0  0  0  0  0
  -17.7223  -14.0379   26.1069 C   0  0  0  0  0  0  0  0  0  0  0  0
  -16.5444  -11.8631   27.3973 C   0  0  0  0  0  0  0  0  0  0  0  0
  -17.9401  -13.8338   27.4694 C   0  0  0  0  0  0  0  0  0  0  0  0
  -21.7862  -14.0489   21.2212 C   0  0  0  0  0  0  0  0  0  0  0  0
  -22.9013  -13.0889   19.5872 C   0  0  0  0  0  0  0  0  0  0  0  0
  -27.8397  -15.2633   18.2105 C   0  0  0  0  0  0  0  0  0  0  0  0
  -21.2504  -11.5856   20.7111 C   0  0  0  0  0  0  0  0  0  0  0  0
  -24.4694  -31.8311   19.9450 C   0  0  0  0  0  0  0  0  0  0  0  0
  -24.4725  -31.8933   23.1883 C   0  0  0  0  0  0  0  0  0  0  0  0
  -25.3934  -30.3967   26.1138 C   0  0  0  0  0  0  0  0  0  0  0  0
  -22.0740  -35.6931   17.6201 C   0  0  0  0  0  0  0  0  0  0  0  0
  -23.5918  -29.5322   20.4933 C   0  0  0  0  0  0  0  0  0  0  0  0
  -25.9887  -30.2017   22.0905 C   0  0  0  0  0  0  0  0  0  0  0  0
  -22.8756  -35.5225   18.9080 C   0  0  0  0  0  0  0  0  0  0  0  0
  -25.0137  -17.4419   18.1153 C   0  0  0  0  0  0  0  0  0  0  0  0
  -24.1855  -34.7924   18.6288 C   0  0  0  0  0  0  0  0  0  0  0  0
  -29.3267  -22.7903   19.5208 C   0  0  0  0  0  0  0  0  0  0  0  0
  -27.0877  -22.8093   20.6967 C   0  0  0  0  0  0  0  0  0  0  0  0
  -23.9373  -16.6642   18.8746 C   0  0  0  0  0  0  0  0  0  0  0  0
  -29.4448  -24.2971   19.7294 C   0  0  0  0  0  0  0  0  0  0  0  0
  -27.2117  -24.3161   20.9015 C   0  0  0  0  0  0  0  0  0  0  0  0
  -28.6394  -16.2987   20.8652 C   0  0  0  0  0  0  0  0  0  0  0  0
  -26.4008  -17.2103   18.7092 C   0  0  0  0  0  0  0  0  0  0  0  0
  -25.7105  -15.0068   19.5883 C   0  0  0  0  0  0  0  0  0  0  0  0
  -28.9594  -17.7279   21.2750 C   0  0  0  0  0  0  0  0  0  0  0  0
  -30.7202  -17.8644   19.5044 C   0  0  0  0  0  0  0  0  0  0  0  0
  -29.8573  -15.5920   20.2418 C   0  0  2  0  0  0  0  0  0  0  0  0
  -23.9260  -33.3846   18.0789 C   0  0  1  0  0  0  0  0  0  0  0  0
  -23.8530  -30.9494   20.9940 C   0  0  1  0  0  0  0  0  0  0  0  0
  -28.4640  -22.1352   20.6085 C   0  0  0  0  0  0  0  0  0  0  0  0
  -30.4343  -16.4223   19.0655 C   0  0  2  0  0  0  0  0  0  0  0  0
  -24.3038  -15.1726   18.9901 C   0  0  1  0  0  0  0  0  0  0  0  0
  -28.0744  -24.9632   19.8200 C   0  0  0  0  0  0  0  0  0  1  0  0
  -27.0244  -12.6384   17.3457 C   0  0  0  0  0  0  0  0  0  0  0  0
  -31.0768  -13.2560   21.4250 C   0  0  0  0  0  0  0  0  0  0  0  0
  -28.2474  -10.3064   18.5324 C   0  0  0  0  0  0  0  0  0  0  0  0
  -30.2731  -10.6136   20.5716 C   0  0  0  0  0  0  0  0  0  0  0  0
  -31.7235  -15.8055   18.5103 C   0  0  0  0  0  0  0  0  0  0  0  0
  -25.2879  -30.7040   28.6022 C   0  0  0  0  0  0  0  0  0  0  0  0
  -26.6872  -33.9854   23.0214 C   0  0  0  0  0  0  0  0  0  0  0  0
  -27.1841  -33.5508   25.4364 C   0  0  0  0  0  0  0  0  0  0  0  0
  -24.9523  -34.4396   24.7644 C   0  0  0  0  0  0  0  0  0  0  0  0
  -23.8389  -27.9040   26.4723 C   0  0  0  0  0  0  0  0  0  0  0  0
  -28.3152  -20.6372   20.3492 C   0  0  0  0  0  0  0  0  0  0  0  0
  -29.6648  -19.9439   20.3836 C   0  0  0  0  0  0  0  0  0  0  0  0
  -25.5327  -32.0325   24.2539 C   0  0  1  0  0  0  0  0  0  0  0  0
  -24.6135  -30.0977   27.3814 C   0  0  2  0  0  0  0  0  0  0  0  0
  -26.0897  -33.4809   24.3501 C   0  0  0  0  0  0  0  0  0  0  0  0
  -22.5989  -15.0051   20.7638 N   0  0  0  0  0  0  0  0  0  0  0  0
  -23.2642  -14.3908   19.7708 N   0  0  0  0  0  0  0  0  0  0  0  0
  -26.6884  -15.7800   18.8098 N   0  0  0  0  0  0  0  0  0  0  0  0
  -24.7426  -30.9831   22.1566 N   0  0  0  0  0  0  0  0  0  0  0  0
  -23.4707  -12.3245   18.6312 N   0  0  0  0  0  0  0  0  0  0  0  0
  -20.0658  -11.3584   19.9974 N   0  0  0  0  0  0  0  0  0  0  0  0
  -23.5491  -32.4857   19.1487 N   0  0  0  0  0  0  0  0  0  0  0  0
  -24.9362  -31.5383   25.4902 N   0  0  0  0  0  0  0  0  0  0  0  0
  -29.4724  -18.5055   20.0802 N   0  3  2  0  0  0  0  0  0  0  0  0
  -24.5044  -28.6257   27.5873 N   0  3  0  0  0  0  0  0  0  0  0  0
  -28.3845  -15.7090   17.2018 O   0  0  0  0  0  0  0  0  0  0  0  0
  -21.6710  -10.7049   21.4991 O   0  0  0  0  0  0  0  0  0  0  0  0
  -25.6895  -31.9128   19.8651 O   0  0  0  0  0  0  0  0  0  0  0  0
  -23.4394  -32.5622   23.2721 O   0  0  0  0  0  0  0  0  0  0  0  0
  -26.3184  -29.6905   25.7186 O   0  0  0  0  0  0  0  0  0  0  0  0
  -18.3056  -15.1175   25.4651 O   0  0  0  0  0  0  0  0  0  0  0  0
  -28.2586  -26.3431   20.1166 O   0  0  0  0  0  0  0  0  0  1  0  0
  -15.9776  -10.8196   28.0171 F   0  0  0  0  0  0  0  0  0  0  0  0
  -18.7132  -14.6797   28.1641 F   0  0  0  0  0  0  0  0  0  0  0  0
  1  2  1  0  0  0  0
  1  5  2  0  0  0  0
  2  6  2  0  0  0  0
  3  8  2  0  0  0  0
  3 15  1  0  0  0  0
  4  9  1  0  0  0  0
  4 15  2  0  0  0  0
  5 18  1  0  0  0  0
  6 20  1  0  0  0  0
  7 10  2  0  0  0  0
  7 19  1  0  0  0  0
  8 27  1  0  0  0  0
  9 27  2  0  0  0  0
 10 28  1  0  0  0  0
 11 12  2  0  0  0  0
 11 29  1  0  0  0  0
 12 30  1  0  0  0  0
 13 21  1  0  0  0  0
 13 28  2  0  0  0  0
 14 30  2  0  0  0  0
 14 31  1  0  0  0  0
 15 32  1  0  0  0  0
 16 22  2  0  0  0  0
 16 23  1  0  0  0  0
 16 34  1  0  0  0  0
 17 32  1  0  0  0  0
 17 33  2  0  0  0  0
 17 35  1  0  0  0  0
 18 20  2  0  0  0  0
 18 39  1  0  0  0  0
 19 21  2  0  0  0  0
 19 40  1  0  0  0  0
 20 56  1  0  0  0  0
 21 41  1  0  0  0  0
 22 24  1  0  0  0  0
 22 55  1  0  0  0  0
 23 25  2  0  0  0  0
 23 62  1  0  0  0  0
 24 26  2  0  0  0  0
 24 63  1  0  0  0  0
 25 26  1  0  0  0  0
 25 64  1  0  0  0  0
 26 65  1  0  0  0  0
 27 92  1  0  0  0  0
 28 93  1  0  0  0  0
 29 31  2  0  0  0  0
 29 92  1  0  0  0  0
 30 94  1  0  0  0  0
 31 95  1  0  0  0  0
 32 77  2  0  0  0  0
 33 78  1  0  0  0  0
 33 81  1  0  0  0  0
 34 79  1  0  0  0  0
 34 87  2  0  0  0  0
 35 82  1  0  0  0  0
 35 88  2  0  0  0  0
 36 57  1  0  0  0  0
 36 83  1  0  0  0  0
 36 89  2  0  0  0  0
 37 74  1  0  0  0  0
 37 80  1  0  0  0  0
 37 90  2  0  0  0  0
 38 75  1  0  0  0  0
 38 84  1  0  0  0  0
 38 91  2  0  0  0  0
 39 42  1  0  0  0  0
 40 57  1  0  0  0  0
 41 80  1  0  0  0  0
 42 44  1  0  0  0  0
 43 47  1  0  0  0  0
 43 51  1  0  0  0  0
 44 56  1  0  0  0  0
 45 48  1  0  0  0  0
 45 58  1  0  0  0  0
 46 49  1  0  0  0  0
 46 58  1  0  0  0  0
 47 60  1  0  0  0  0
 48 61  1  0  0  0  0
 49 61  1  0  0  0  0
 50 53  1  0  0  0  0
 50 55  1  0  0  0  0
 51 79  1  0  0  0  0
 52 60  1  0  0  0  0
 52 79  1  0  0  0  0
 53 85  1  0  0  0  0
 54 59  1  0  0  0  0
 54 85  1  0  0  0  0
 55 59  1  0  0  0  0
 56 83  1  0  0  0  0
 57 80  1  0  0  0  0
 58 72  1  0  0  0  0
 59 66  1  0  0  0  0
 60 78  1  0  0  0  0
 61 93  1  0  0  0  0
 67 75  1  0  0  0  0
 68 76  1  0  0  0  0
 69 76  1  0  0  0  0
 70 76  1  0  0  0  0
 71 86  1  0  0  0  0
 72 73  1  0  0  0  0
 73 85  1  0  0  0  0
 74 76  1  0  0  0  0
 74 84  1  0  0  0  0
 75 86  1  0  0  0  0
 77 78  1  0  0  0  0
M  CHG  2  85   1  86   1
M  ISO  4  16 100  34 100  61 101  93 101
M  END
> <Batch ID>
0163

> <Smiles>
CNC(C)C(=O)NC(C(=O)N1Cc2cc([101O:1][101CH:1]3CCC(CCN4CCC(c5c(C)c(C)c(C)c(C)[100c:0]5[100C:0](=O)N5CCCC(n6nc(-c7ccc(Oc8ccc(F)cc8F)cc7)c(C(N)=O)c6N)C5)C(C)C4)CC3)ccc2CC1C(=O)NC1CCCc2ccccc21)C(C)(C)C

> <Shape>
0.263

> <Color>
0.095

> <Negative vol penalty>
0.000

$$$$

  -OEChem-04052322173D

 86 95  0     1  0  0  0  0  0999 V2000
  -16.1551  -27.5458   25.9504 C   0  0  0  0  0  0  0  0  0  0  0  0
  -17.2143  -26.6727   25.7244 C   0  0  0  0  0  0  0  0  0  0  0  0
  -22.9080  -17.1242   19.4459 C   0  0  0  0  0  0  0  0  0  0  0  0
  -22.1641  -14.8419   19.7196 C   0  0  0  0  0  0  0  0  0  0  0  0
  -16.0988  -28.7622   25.2713 C   0  0  0  0  0  0  0  0  0  0  0  0
  -18.2174  -27.0150   24.8183 C   0  0  0  0  0  0  0  0  0  0  0  0
  -24.1707  -25.6363   25.2223 C   0  0  0  0  0  0  0  0  0  0  0  0
  -21.8272  -17.3751   18.6007 C   0  0  0  0  0  0  0  0  0  0  0  0
  -21.0832  -15.0928   18.8744 C   0  0  0  0  0  0  0  0  0  0  0  0
  -24.9425  -24.6318   24.6400 C   0  0  0  0  0  0  0  0  0  0  0  0
  -18.0540  -16.5767   19.0809 C   0  0  0  0  0  0  0  0  0  0  0  0
  -16.8014  -16.1081   19.4767 C   0  0  0  0  0  0  0  0  0  0  0  0
  -25.6011  -26.1591   22.8928 C   0  0  0  0  0  0  0  0  0  0  0  0
  -27.5225  -21.7927   21.7195 C   0  0  0  0  0  0  0  0  0  0  0  0
  -16.6720  -14.7626   17.4741 C   0  0  0  0  0  0  0  0  0  0  0  0
  -23.0765  -15.8575   20.0053 C   0  0  0  0  0  0  0  0  0  0  0  0
  -24.2329  -15.7521   22.2767 C   0  0  0  0  0  0  0  0  0  0  0  0
  -17.1067  -29.1238   24.3636 C   0  0  0  0  0  0  0  0  0  0  0  0
  -24.0995  -26.9087   24.6372 C   0  0  0  0  0  0  0  0  0  0  0  0
  -18.1738  -28.2368   24.1254 C   0  0  0  0  0  0  0  0  0  0  0  0
  -24.8298  -27.1788   23.4710 C   0  0  0  0  0  0  0  0  0  0  0  0
  -29.1972  -20.7788   20.3039 C   0  0  0  0  0  0  0  0  0  0  0  0
  -28.1956  -20.6579   21.2672 C   0  0  0  0  0  0  0  0  0  0  0  0
  -27.8507  -23.0485   21.2085 C   0  0  0  0  0  0  0  0  0  0  0  0
  -29.5256  -22.0345   19.7929 C   0  0  0  0  0  0  0  0  0  0  0  0
  -28.8523  -23.1693   20.2452 C   0  0  0  0  0  0  0  0  0  0  0  0
  -20.9147  -16.3595   18.3149 C   0  0  0  0  0  0  0  0  0  0  0  0
  -25.6556  -24.8923   23.4735 C   0  0  0  0  0  0  0  0  0  0  0  0
  -18.6157  -16.1384   17.8816 C   0  0  0  0  0  0  0  0  0  0  0  0
  -16.1103  -15.2010   18.6733 C   0  0  0  0  0  0  0  0  0  0  0  0
  -17.9247  -15.2314   17.0783 C   0  0  0  0  0  0  0  0  0  0  0  0
  -24.1931  -15.5975   20.8780 C   0  0  0  0  0  0  0  0  0  0  0  0
  -25.5071  -15.3780   22.6274 C   0  0  0  0  0  0  0  0  0  0  0  0
  -23.2096  -16.1942   23.1783 C   0  0  0  0  0  0  0  0  0  0  0  0
  -21.7694  -28.6813   23.3993 C   0  0  0  0  0  0  0  0  0  0  0  0
  -24.1045  -30.9253   23.2142 C   0  0  0  0  0  0  0  0  0  0  0  0
  -27.4395  -31.6288   23.0415 C   0  0  0  0  0  0  0  0  0  0  0  0
  -30.6775  -15.3042   19.8673 C   0  0  0  0  0  0  0  0  0  0  0  0
  -16.9781  -30.4285   23.6179 C   0  0  0  0  0  0  0  0  0  0  0  0
  -23.2837  -27.9892   25.2925 C   0  0  0  0  0  0  0  0  0  0  0  0
  -24.8031  -28.5341   22.8147 C   0  0  0  0  0  0  0  0  0  0  0  0
  -18.2759  -30.8809   22.9537 C   0  0  0  0  0  0  0  0  0  0  0  0
  -29.1061  -12.5520   21.2486 C   0  0  0  0  0  0  0  0  0  0  0  0
  -18.9266  -29.7204   22.2076 C   0  0  0  0  0  0  0  0  0  0  0  0
  -27.6662  -13.0228   21.4537 C   0  0  0  0  0  0  0  0  0  0  0  0
  -30.7033  -18.8447   20.9440 C   0  0  0  0  0  0  0  0  0  0  0  0
  -28.9791  -18.5521   19.1158 C   0  0  0  0  0  0  0  0  0  0  0  0
  -29.6585  -13.0470   19.9166 C   0  0  0  0  0  0  0  0  0  0  0  0
  -31.4129  -17.5886   20.4440 C   0  0  0  0  0  0  0  0  0  0  0  0
  -29.7280  -17.3046   18.6562 C   0  0  0  0  0  0  0  0  0  0  0  0
  -28.1613  -15.0146   19.9531 C   0  0  0  0  0  0  0  0  0  0  0  0
  -29.9278  -19.5428   19.8135 C   0  0  0  0  0  0  0  0  0  0  0  0
  -19.2939  -28.5834   23.1686 C   0  0  1  0  0  0  0  0  0  0  0  0
  -22.8753  -29.0979   24.3274 C   0  0  1  0  0  0  0  0  0  0  0  0
  -27.5564  -14.5493   21.2927 C   0  0  1  0  0  0  0  0  0  0  0  0
  -27.8252  -19.3252   21.8310 C   0  0  0  0  0  0  0  0  0  0  0  0
  -30.5996  -22.1641   18.7592 C   0  0  0  0  0  0  0  0  0  0  0  0
  -29.2029  -24.5174   19.6995 C   0  0  0  0  0  0  0  0  0  0  0  0
  -29.0400  -33.5531   22.8611 C   0  0  0  0  0  0  0  0  0  0  0  0
  -23.4161  -31.2174   20.2560 C   0  0  0  0  0  0  0  0  0  0  0  0
  -25.6017  -32.3956   19.9353 C   0  0  0  0  0  0  0  0  0  0  0  0
  -23.8686  -33.3735   21.4396 C   0  0  0  0  0  0  0  0  0  0  0  0
  -28.7186  -30.9578   25.6246 C   0  0  0  0  0  0  0  0  0  0  0  0
  -27.1140  -24.2476   21.7090 C   0  0  0  0  0  0  0  0  0  1  0  0
  -25.1341  -31.3140   22.1809 C   0  0  1  0  0  0  0  0  0  0  0  0
  -28.3012  -32.6178   23.8055 C   0  0  2  0  0  0  0  0  0  0  0  0
  -24.5043  -32.0489   20.9640 C   0  0  0  0  0  0  0  0  0  0  0  0
  -25.3502  -15.1595   20.3745 N   0  0  0  0  0  0  0  0  0  0  0  0
  -26.1289  -15.0357   21.4628 N   0  0  0  0  0  0  0  0  0  0  0  0
  -23.9858  -29.5557   23.4899 N   0  0  0  0  0  0  0  0  0  0  0  0
  -29.5300  -14.4995   19.7999 N   0  0  0  0  0  0  0  0  0  0  0  0
  -30.4865  -16.6912   19.7549 N   0  0  0  0  0  0  0  0  0  0  0  0
  -26.1450  -15.3117   23.8153 N   0  0  0  0  0  0  0  0  0  0  0  0
  -21.9579  -16.5397   22.6508 N   0  0  0  0  0  0  0  0  0  0  0  0
  -20.5009  -28.9083   23.8981 N   0  0  0  0  0  0  0  0  0  0  0  0
  -26.1488  -32.0887   22.8870 N   0  0  0  0  0  0  0  0  0  0  0  0
  -29.3074  -31.8957   24.6344 N   0  3  0  0  0  0  0  0  0  0  0  0
  -23.4046  -16.2960   24.4133 O   0  0  0  0  0  0  0  0  0  0  0  0
  -22.0465  -28.1915   22.3107 O   0  0  0  0  0  0  0  0  0  0  0  0
  -23.4353  -31.8050   23.7619 O   0  0  0  0  0  0  0  0  0  0  0  0
  -27.8693  -30.5572   22.6203 O   0  0  0  0  0  0  0  0  0  0  0  0
  -31.8039  -14.8166   20.0237 O   0  0  0  0  0  0  0  0  0  0  0  0
  -19.8598  -16.6041   17.4904 O   0  0  0  0  0  0  0  0  0  0  0  0
  -26.4146  -23.9064   22.8986 O   0  0  0  0  0  0  0  0  0  1  0  0
  -14.9081  -14.7498   19.0543 F   0  0  0  0  0  0  0  0  0  0  0  0
  -18.4597  -14.8058   15.9257 F   0  0  0  0  0  0  0  0  0  0  0  0
  1  2  1  0  0  0  0
  1  5  2  0  0  0  0
  2  6  2  0  0  0  0
  3  8  2  0  0  0  0
  3 16  1  0  0  0  0
  4  9  1  0  0  0  0
  4 16  2  0  0  0  0
  5 18  1  0  0  0  0
  6 20  1  0  0  0  0
  7 10  2  0  0  0  0
  7 19  1  0  0  0  0
  8 27  1  0  0  0  0
  9 27  2  0  0  0  0
 10 28  1  0  0  0  0
 11 12  2  0  0  0  0
 11 29  1  0  0  0  0
 12 30  1  0  0  0  0
 13 21  1  0  0  0  0
 13 28  2  0  0  0  0
 14 23  2  0  0  0  0
 14 24  1  0  0  0  0
 15 30  2  0  0  0  0
 15 31  1  0  0  0  0
 16 32  1  0  0  0  0
 17 32  1  0  0  0  0
 17 33  2  0  0  0  0
 17 34  1  0  0  0  0
 18 20  2  0  0  0  0
 18 39  1  0  0  0  0
 19 21  2  0  0  0  0
 19 40  1  0  0  0  0
 20 53  1  0  0  0  0
 21 41  1  0  0  0  0
 22 23  1  0  0  0  0
 22 25  2  0  0  0  0
 22 52  1  0  0  0  0
 23 56  1  0  0  0  0
 24 26  2  0  0  0  0
 24 64  1  0  0  0  0
 25 26  1  0  0  0  0
 25 57  1  0  0  0  0
 26 58  1  0  0  0  0
 27 83  1  0  0  0  0
 28 84  1  0  0  0  0
 29 31  2  0  0  0  0
 29 83  1  0  0  0  0
 30 85  1  0  0  0  0
 31 86  1  0  0  0  0
 32 68  2  0  0  0  0
 33 69  1  0  0  0  0
 33 73  1  0  0  0  0
 34 74  1  0  0  0  0
 34 78  2  0  0  0  0
 35 54  1  0  0  0  0
 35 75  1  0  0  0  0
 35 79  2  0  0  0  0
 36 65  1  0  0  0  0
 36 70  1  0  0  0  0
 36 80  2  0  0  0  0
 37 66  1  0  0  0  0
 37 76  1  0  0  0  0
 37 81  2  0  0  0  0
 38 71  1  0  0  0  0
 38 72  1  0  0  0  0
 38 82  2  0  0  0  0
 39 42  1  0  0  0  0
 40 54  1  0  0  0  0
 41 70  1  0  0  0  0
 42 44  1  0  0  0  0
 43 45  1  0  0  0  0
 43 48  1  0  0  0  0
 44 53  1  0  0  0  0
 45 55  1  0  0  0  0
 46 49  1  0  0  0  0
 46 52  1  0  0  0  0
 47 50  1  0  0  0  0
 47 52  1  0  0  0  0
 48 71  1  0  0  0  0
 49 72  1  0  0  0  0
 50 72  1  0  0  0  0
 51 55  1  0  0  0  0
 51 71  1  0  0  0  0
 53 75  1  0  0  0  0
 54 70  1  0  0  0  0
 55 69  1  0  0  0  0
 59 66  1  0  0  0  0
 60 67  1  0  0  0  0
 61 67  1  0  0  0  0
 62 67  1  0  0  0  0
 63 77  1  0  0  0  0
 64 84  1  0  0  0  0
 65 67  1  0  0  0  0
 65 76  1  0  0  0  0
 66 77  1  0  0  0  0
 68 69  1  0  0  0  0
M  CHG  1  77   1
M  ISO  4  38 100  64 101  72 100  84 101
M  END
> <Batch ID>
0163

> <Smiles>
CNC(C)C(=O)NC(C(=O)N1Cc2cc([101O:1][101CH2:1]c3cc(C)c(C4CC[100N:0]([100C:0](=O)N5CCCC(n6nc(-c7ccc(Oc8ccc(F)cc8F)cc7)c(C(N)=O)c6N)C5)CC4)c(C)c3C)ccc2CC1C(=O)NC1CCCc2ccccc21)C(C)(C)C

> <Shape>
0.220

> <Color>
0.079

> <Negative vol penalty>
0.000

$$$$

  -OEChem-04052322173D

 93104  0     1  0  0  0  0  0999 V2000
  -30.0016  -17.5963   15.7485 C   0  0  0  0  0  0  0  0  0  0  0  0
  -30.1711  -16.9018   16.9420 C   0  0  0  0  0  0  0  0  0  0  0  0
  -25.4444  -27.2741   19.4391 C   0  0  0  0  0  0  0  0  0  0  0  0
  -27.2517  -27.7492   20.9705 C   0  0  0  0  0  0  0  0  0  0  0  0
  -28.8024  -18.2606   15.4942 C   0  0  0  0  0  0  0  0  0  0  0  0
  -29.1419  -16.8720   17.8823 C   0  0  0  0  0  0  0  0  0  0  0  0
  -28.3798  -12.2403   19.7826 C   0  0  0  0  0  0  0  0  0  0  0  0
  -24.9551  -28.5684   19.6150 C   0  0  0  0  0  0  0  0  0  0  0  0
  -26.7623  -29.0436   21.1464 C   0  0  0  0  0  0  0  0  0  0  0  0
  -29.2730  -11.7970   20.7569 C   0  0  0  0  0  0  0  0  0  0  0  0
  -24.2911  -30.5575   22.8876 C   0  0  0  0  0  0  0  0  0  0  0  0
  -24.2234  -31.0534   24.1895 C   0  0  0  0  0  0  0  0  0  0  0  0
  -27.6729  -12.3610   22.4718 C   0  0  0  0  0  0  0  0  0  0  0  0
  -25.7162  -32.8532   23.5816 C   0  0  0  0  0  0  0  0  0  0  0  0
  -26.5927  -26.8645   20.1169 C   0  0  0  0  0  0  0  0  0  0  0  0
  -28.0289  -25.0935   18.9729 C   0  0  0  0  0  0  0  0  0  0  0  0
  -27.7544  -18.2309   16.4276 C   0  0  0  0  0  0  0  0  0  0  0  0
  -27.1286  -12.7583   20.1468 C   0  0  0  0  0  0  0  0  0  0  0  0
  -27.9280  -17.5377   17.6408 C   0  0  0  0  0  0  0  0  0  0  0  0
  -26.7646  -12.8079   21.5001 C   0  0  0  0  0  0  0  0  0  0  0  0
  -25.6140  -29.4531   20.4686 C   0  0  0  0  0  0  0  0  0  0  0  0
  -28.9208  -11.8599   22.1020 C   0  0  0  0  0  0  0  0  0  0  0  0
  -25.0714  -31.2094   21.9326 C   0  0  0  0  0  0  0  0  0  0  0  0
  -24.9359  -32.2012   24.5366 C   0  0  0  0  0  0  0  0  0  0  0  0
  -25.7839  -32.3572   22.2797 C   0  0  0  0  0  0  0  0  0  0  0  0
  -27.0984  -25.5275   19.9361 C   0  0  0  0  0  0  0  0  0  0  0  0
  -28.1755  -23.7501   19.2180 C   0  0  0  0  0  0  0  0  0  0  0  0
  -28.7007  -25.8383   17.9484 C   0  0  0  0  0  0  0  0  0  0  0  0
  -25.6830  -15.5701   19.8182 C   0  0  0  0  0  0  0  0  0  0  0  0
  -23.1482  -13.9734   21.0623 C   0  0  0  0  0  0  0  0  0  0  0  0
  -22.0071  -11.3619   22.9398 C   0  0  0  0  0  0  0  0  0  0  0  0
  -28.8357  -19.4941   22.7671 C   0  0  0  0  0  0  0  0  0  0  0  0
  -26.4940  -19.0035   16.1288 C   0  0  0  0  0  0  0  0  0  0  0  0
  -26.1658  -13.2077   19.0821 C   0  0  0  0  0  0  0  0  0  0  0  0
  -25.4254  -13.3365   21.9422 C   0  0  0  0  0  0  0  0  0  0  0  0
  -25.3144  -18.6106   17.0144 C   0  0  0  0  0  0  0  0  0  0  0  0
  -25.5137  -20.6347   22.1838 C   0  0  0  0  0  0  0  0  0  0  0  0
  -25.7463  -18.5323   18.4753 C   0  0  0  0  0  0  0  0  0  0  0  0
  -25.7069  -21.9757   21.4736 C   0  0  0  0  0  0  0  0  0  0  0  0
  -31.1952  -12.2388   26.4508 C   0  0  0  0  0  0  0  0  0  0  0  0
  -31.4520  -10.8827   25.8580 C   0  0  0  0  0  0  0  0  0  0  0  0
  -34.1807  -18.7946   23.0209 C   0  0  0  0  0  0  0  0  0  0  0  0
  -33.4190  -16.8367   24.4432 C   0  0  0  0  0  0  0  0  0  0  0  0
  -32.7005  -14.3432   21.6122 C   0  0  0  0  0  0  0  0  0  0  0  0
  -26.5819  -20.4018   23.2500 C   0  0  0  0  0  0  0  0  0  0  0  0
  -28.1647  -21.8710   22.0625 C   0  0  0  0  0  0  0  0  0  0  0  0
  -26.8257  -17.4615   18.6748 C   0  0  1  0  0  0  0  0  0  0  0  0
  -25.1222  -14.1937   19.5979 C   0  0  1  0  0  0  0  0  0  0  0  0
  -33.4113  -18.3795   24.2846 C   0  0  2  0  0  0  0  0  0  0  0  0
  -33.4919  -18.1869   21.7704 C   0  0  2  0  0  0  0  0  0  0  0  0
  -32.8871  -16.1488   23.1959 C   0  0  2  0  0  0  0  0  0  0  0  0
  -32.7745  -15.7262   20.8981 C   0  0  1  0  0  0  0  0  0  0  0  0
  -32.0102  -19.0571   24.2424 C   0  0  1  0  0  0  0  0  0  0  0  0
  -32.1327  -18.9452   21.6473 C   0  0  2  0  0  0  0  0  0  0  0  0
  -27.1442  -22.1257   20.9400 C   0  0  2  0  0  0  0  0  0  0  0  0
  -31.2348  -18.8750   22.9082 C   0  0  2  0  0  0  0  0  0  0  0  0
  -32.9509  -14.6253   23.1107 C   0  0  1  0  0  0  0  0  0  0  0  0
  -33.5617  -16.6219   21.8900 C   0  0  1  0  0  0  0  0  0  0  0  0
  -31.0996  -12.0423   24.9558 C   0  0  0  0  0  0  0  0  0  0  0  0
  -33.3237  -15.6324   19.4816 C   0  0  0  0  0  0  0  0  0  0  0  0
  -31.1479  -18.6673   25.4487 C   0  0  0  0  0  0  0  0  0  0  0  0
  -31.3523  -18.6532   20.3631 C   0  0  0  0  0  0  0  0  0  0  0  0
  -35.0744  -16.2134   21.8262 C   0  0  0  0  0  0  0  0  0  0  0  0
  -19.8869  -10.3398   23.8101 C   0  0  0  0  0  0  0  0  0  0  0  0
  -22.9526  -16.1756   23.1652 C   0  0  0  0  0  0  0  0  0  0  0  0
  -21.4941  -14.6567   24.5194 C   0  0  0  0  0  0  0  0  0  0  0  0
  -20.7546  -15.4024   22.2567 C   0  0  0  0  0  0  0  0  0  0  0  0
  -22.4998   -8.8262   21.4954 C   0  0  0  0  0  0  0  0  0  0  0  0
  -29.7328  -12.0577   24.3285 C   0  0  0  0  0  0  0  0  0  1  0  0
  -32.1959  -12.6274   24.0913 C   0  0  0  0  0  0  0  0  0  0  0  0
  -22.6266  -13.7148   22.4551 C   0  0  1  0  0  0  0  0  0  0  0  0
  -20.9116  -10.3421   22.6864 C   0  0  2  0  0  0  0  0  0  0  0  0
  -21.9831  -14.9791   23.0912 C   0  0  0  0  0  0  0  0  0  0  0  0
  -26.6830  -24.5397   20.7335 N   0  0  0  0  0  0  0  0  0  0  0  0
  -27.3556  -23.4717   20.2718 N   0  0  0  0  0  0  0  0  0  0  0  0
  -24.5212  -13.7697   20.8641 N   0  0  0  0  0  0  0  0  0  0  0  0
  -27.9219  -20.5572   22.6788 N   0  0  0  0  0  0  0  0  0  0  0  0
  -28.9245  -22.7915   18.6327 N   0  0  0  0  0  0  0  0  0  0  0  0
  -28.4345  -27.2097   17.8358 N   0  0  0  0  0  0  0  0  0  0  0  0
  -26.2323  -16.1416   18.6864 N   0  0  0  0  0  0  0  0  0  0  0  0
  -21.7232  -12.5743   22.3475 N   0  0  0  0  0  0  0  0  0  0  0  0
  -30.1761  -19.8560   22.8219 N   0  0  0  0  0  0  0  0  0  0  0  0
  -21.4926   -8.9741   22.5773 N   0  3  0  0  0  0  0  0  0  0  0  0
  -29.5005  -25.3002   17.1457 O   0  0  0  0  0  0  0  0  0  0  0  0
  -25.6206  -16.0767   20.9323 O   0  0  0  0  0  0  0  0  0  0  0  0
  -22.3650  -14.3357   20.1808 O   0  0  0  0  0  0  0  0  0  0  0  0
  -23.0122  -11.1096   23.6005 O   0  0  0  0  0  0  0  0  0  0  0  0
  -28.4834  -18.3099   22.7898 O   0  0  0  0  0  0  0  0  0  0  0  0
  -25.1369  -30.7163   20.6403 O   0  0  0  0  0  0  0  0  0  0  0  0
  -29.7989  -11.4246   23.0636 O   0  0  0  0  0  0  0  0  0  1  0  0
  -31.9471  -14.0156   23.9039 O   0  0  0  0  0  0  0  0  0  0  0  0
  -24.8695  -32.6782   25.7865 F   0  0  0  0  0  0  0  0  0  0  0  0
  -26.5343  -32.9885   21.3663 F   0  0  0  0  0  0  0  0  0  0  0  0
  1  2  1  0  0  0  0
  1  5  2  0  0  0  0
  2  6  2  0  0  0  0
  3  8  2  0  0  0  0
  3 15  1  0  0  0  0
  4  9  1  0  0  0  0
  4 15  2  0  0  0  0
  5 17  1  0  0  0  0
  6 19  1  0  0  0  0
  7 10  2  0  0  0  0
  7 18  1  0  0  0  0
  8 21  1  0  0  0  0
  9 21  2  0  0  0  0
 10 22  1  0  0  0  0
 11 12  2  0  0  0  0
 11 23  1  0  0  0  0
 12 24  1  0  0  0  0
 13 20  1  0  0  0  0
 13 22  2  0  0  0  0
 14 24  2  0  0  0  0
 14 25  1  0  0  0  0
 15 26  1  0  0  0  0
 16 26  1  0  0  0  0
 16 27  2  0  0  0  0
 16 28  1  0  0  0  0
 17 19  2  0  0  0  0
 17 33  1  0  0  0  0
 18 20  2  0  0  0  0
 18 34  1  0  0  0  0
 19 47  1  0  0  0  0
 20 35  1  0  0  0  0
 21 89  1  0  0  0  0
 22 90  1  0  0  0  0
 23 25  2  0  0  0  0
 23 89  1  0  0  0  0
 24 92  1  0  0  0  0
 25 93  1  0  0  0  0
 26 74  2  0  0  0  0
 27 75  1  0  0  0  0
 27 78  1  0  0  0  0
 28 79  1  0  0  0  0
 28 84  2  0  0  0  0
 29 48  1  0  0  0  0
 29 80  1  0  0  0  0
 29 85  2  0  0  0  0
 30 71  1  0  0  0  0
 30 76  1  0  0  0  0
 30 86  2  0  0  0  0
 31 72  1  0  0  0  0
 31 81  1  0  0  0  0
 31 87  2  0  0  0  0
 32 77  1  0  0  0  0
 32 82  1  0  0  0  0
 32 88  2  0  0  0  0
 33 36  1  0  0  0  0
 34 48  1  0  0  0  0
 35 76  1  0  0  0  0
 36 38  1  0  0  0  0
 37 39  1  0  0  0  0
 37 45  1  0  0  0  0
 38 47  1  0  0  0  0
 39 55  1  0  0  0  0
 40 41  1  0  0  0  0
 40 59  1  0  0  0  0
 41 59  1  0  0  0  0
 42 49  1  0  0  0  0
 42 50  1  0  0  0  0
 43 49  1  0  0  0  0
 43 51  1  0  0  0  0
 44 52  1  0  0  0  0
 44 57  1  0  0  0  0
 45 77  1  0  0  0  0
 46 55  1  0  0  0  0
 46 77  1  0  0  0  0
 47 80  1  0  0  0  0
 48 76  1  0  0  0  0
 49 53  1  0  0  0  0
 50 54  1  0  0  0  0
 50 58  1  0  0  0  0
 51 57  1  0  0  0  0
 51 58  1  0  0  0  0
 52 58  1  0  0  0  0
 52 60  1  0  0  0  0
 53 56  1  0  0  0  0
 53 61  1  0  0  0  0
 54 56  1  0  0  0  0
 54 62  1  0  0  0  0
 55 75  1  0  0  0  0
 56 82  1  0  0  0  0
 57 91  1  0  0  0  0
 58 63  1  0  0  0  0
 59 69  1  0  0  0  0
 59 70  1  0  0  0  0
 64 72  1  0  0  0  0
 65 73  1  0  0  0  0
 66 73  1  0  0  0  0
 67 73  1  0  0  0  0
 68 83  1  0  0  0  0
 69 90  1  0  0  0  0
 70 91  1  0  0  0  0
 71 73  1  0  0  0  0
 71 81  1  0  0  0  0
 72 83  1  0  0  0  0
 74 75  1  0  0  0  0
M  CHG  1  83   1
M  ISO  4  32 100  69 101  82 100  90 101
M  END
> <Batch ID>
0163

> <Smiles>
CNC(C)C(=O)NC(C(=O)N1Cc2cc([101O:1][101CH2:1]C3(COC4CC(C)C5(C)C4CC4CC5C(C)C([100NH:0][100C:0](=O)N5CCCC(n6nc(-c7ccc(Oc8ccc(F)cc8F)cc7)c(C(N)=O)c6N)C5)C4C)CC3)ccc2CC1C(=O)NC1CCCc2ccccc21)C(C)(C)C

> <Shape>
0.207

> <Color>
0.078

> <Negative vol penalty>
0.000

$$$$

  -OEChem-04052322173D

 89 98  0     1  0  0  0  0  0999 V2000
  -23.2888  -22.7656   18.2836 C   0  0  0  0  0  0  0  0  0  0  0  0
  -24.4409  -22.0008   18.1317 C   0  0  0  0  0  0  0  0  0  0  0  0
  -25.0614  -28.9459   22.0394 C   0  0  0  0  0  0  0  0  0  0  0  0
  -24.7758  -30.6068   20.3081 C   0  0  0  0  0  0  0  0  0  0  0  0
  -22.3669  -22.4452   19.2793 C   0  0  0  0  0  0  0  0  0  0  0  0
  -24.6724  -20.9156   18.9762 C   0  0  0  0  0  0  0  0  0  0  0  0
  -27.4154  -15.6372   17.5204 C   0  0  0  0  0  0  0  0  0  0  0  0
  -24.5633  -29.8441   22.9832 C   0  0  0  0  0  0  0  0  0  0  0  0
  -24.2778  -31.5050   21.2520 C   0  0  0  0  0  0  0  0  0  0  0  0
  -28.7179  -15.1751   17.7040 C   0  0  0  0  0  0  0  0  0  0  0  0
  -23.7031  -31.8232   25.9101 C   0  0  0  0  0  0  0  0  0  0  0  0
  -24.3821  -31.9342   27.1234 C   0  0  0  0  0  0  0  0  0  0  0  0
  -33.6141  -20.1236   19.5417 C   0  0  0  0  0  0  0  0  0  0  0  0
  -28.0276  -14.0495   19.7228 C   0  0  0  0  0  0  0  0  0  0  0  0
  -34.2551  -17.9792   20.4516 C   0  0  0  0  0  0  0  0  0  0  0  0
  -26.3767  -32.6190   25.9446 C   0  0  0  0  0  0  0  0  0  0  0  0
  -25.1677  -29.3273   20.7018 C   0  0  0  0  0  0  0  0  0  0  0  0
  -24.9468  -27.4758   18.9608 C   0  0  0  0  0  0  0  0  0  0  0  0
  -22.5825  -21.3497   20.1302 C   0  0  0  0  0  0  0  0  0  0  0  0
  -26.4099  -15.3173   18.4440 C   0  0  0  0  0  0  0  0  0  0  0  0
  -23.7532  -20.5810   19.9851 C   0  0  0  0  0  0  0  0  0  0  0  0
  -32.2759  -19.7305   19.5581 C   0  0  0  0  0  0  0  0  0  0  0  0
  -26.7126  -14.5065   19.5472 C   0  0  0  0  0  0  0  0  0  0  0  0
  -34.6037  -19.2479   19.9885 C   0  0  0  0  0  0  0  0  0  0  0  0
  -32.9169  -17.5861   20.4679 C   0  0  0  0  0  0  0  0  0  0  0  0
  -24.1715  -31.1236   22.5895 C   0  0  0  0  0  0  0  0  0  0  0  0
  -29.0249  -14.3836   18.8068 C   0  0  0  0  0  0  0  0  0  0  0  0
  -24.3610  -32.1101   24.7139 C   0  0  0  0  0  0  0  0  0  0  0  0
  -31.9273  -18.4618   20.0212 C   0  0  0  0  0  0  0  0  0  0  0  0
  -25.7189  -32.3321   27.1407 C   0  0  0  0  0  0  0  0  0  0  0  0
  -25.6977  -32.5080   24.7312 C   0  0  0  0  0  0  0  0  0  0  0  0
  -25.6826  -28.4001   19.7265 C   0  0  0  0  0  0  0  0  0  0  0  0
  -25.8902  -26.8384   18.1926 C   0  0  0  0  0  0  0  0  0  0  0  0
  -32.5578  -15.3689   20.0436 C   0  0  0  0  0  0  0  0  0  0  0  0
  -23.5368  -27.2167   18.9454 C   0  0  0  0  0  0  0  0  0  0  0  0
  -24.5357  -16.9925   20.3894 C   0  0  0  0  0  0  0  0  0  0  0  0
  -23.1695  -14.1004   20.9293 C   0  0  0  0  0  0  0  0  0  0  0  0
  -23.4775  -10.7016   20.9092 C   0  0  0  0  0  0  0  0  0  0  0  0
  -30.7685  -24.4498   17.4728 C   0  0  0  0  0  0  0  0  0  0  0  0
  -21.5806  -21.0707   21.2225 C   0  0  0  0  0  0  0  0  0  0  0  0
  -25.0039  -15.8014   18.2173 C   0  0  0  0  0  0  0  0  0  0  0  0
  -25.6648  -14.1179   20.5570 C   0  0  0  0  0  0  0  0  0  0  0  0
  -21.7177  -19.6786   21.8337 C   0  0  0  0  0  0  0  0  0  0  0  0
  -30.7604  -27.9053   17.3839 C   0  0  0  0  0  0  0  0  0  0  0  0
  -23.1798  -19.3731   22.1433 C   0  0  0  0  0  0  0  0  0  0  0  0
  -29.3789  -28.2793   17.9204 C   0  0  0  0  0  0  0  0  0  0  0  0
  -31.1553  -21.9729   19.9290 C   0  0  0  0  0  0  0  0  0  0  0  0
  -31.3979  -21.0534   17.5827 C   0  0  0  0  0  0  0  0  0  0  0  0
  -31.3589  -26.7491   18.1767 C   0  0  0  0  0  0  0  0  0  0  0  0
  -30.1040  -22.9583   19.4105 C   0  0  0  0  0  0  0  0  0  0  0  0
  -30.3260  -22.0388   17.1262 C   0  0  0  0  0  0  0  0  0  0  0  0
  -29.1108  -25.8875   18.7438 C   0  0  0  0  0  0  0  0  0  0  0  0
  -31.2141  -20.6975   19.0691 C   0  0  0  0  0  0  0  0  0  0  0  0
  -24.0277  -19.3812   20.8656 C   0  0  1  0  0  0  0  0  0  0  0  0
  -24.1722  -15.8407   19.4956 C   0  0  1  0  0  0  0  0  0  0  0  0
  -28.4543  -27.0501   17.9720 C   0  0  1  0  0  0  0  0  0  0  0  0
  -36.0350  -19.6665   19.9698 C   0  0  0  0  0  0  0  0  0  0  0  0
  -22.2042   -8.6051   21.4389 C   0  0  0  0  0  0  0  0  0  0  0  0
  -23.6116  -14.5876   23.9088 C   0  0  0  0  0  0  0  0  0  0  0  0
  -23.2206  -12.1450   24.2951 C   0  0  0  0  0  0  0  0  0  0  0  0
  -21.4044  -13.5607   23.3359 C   0  0  0  0  0  0  0  0  0  0  0  0
  -23.6544   -9.7492   18.1127 C   0  0  0  0  0  0  0  0  0  0  0  0
  -29.8761  -18.3581   21.2202 C   0  0  0  0  0  0  0  0  0  0  0  0
  -32.2254  -13.9520   20.4280 C   0  0  0  0  0  0  0  0  0  0  0  0
  -30.7260  -13.7257   20.3330 C   0  0  0  0  0  0  0  0  0  1  0  0
  -23.4042  -12.9726   21.9050 C   0  0  1  0  0  0  0  0  0  0  0  0
  -22.5745   -9.6116   20.3607 C   0  0  2  0  0  0  0  0  0  0  0  0
  -22.9306  -13.3252   23.3434 C   0  0  0  0  0  0  0  0  0  0  0  0
  -26.9923  -28.3568   19.4682 N   0  0  0  0  0  0  0  0  0  0  0  0
  -32.5822  -16.3089   20.9341 N   0  0  0  0  0  0  0  0  0  0  0  0
  -27.0870  -27.3975   18.5318 N   0  0  0  0  0  0  0  0  0  0  0  0
  -24.3063  -14.6211   20.2949 N   0  0  0  0  0  0  0  0  0  0  0  0
  -30.4500  -25.6033   18.2052 N   0  0  0  0  0  0  0  0  0  0  0  0
  -30.3049  -23.2264   17.9797 N   0  0  0  0  0  0  0  0  0  0  0  0
  -25.8043  -25.8596   17.2668 N   0  0  0  0  0  0  0  0  0  0  0  0
  -22.7111  -27.9623   19.7979 N   0  0  0  0  0  0  0  0  0  0  0  0
  -23.8353  -18.1537   20.1236 N   0  0  0  0  0  0  0  0  0  0  0  0
  -22.7558  -11.7971   21.3338 N   0  0  0  0  0  0  0  0  0  0  0  0
  -23.2552   -8.8840   19.2524 N   0  3  0  0  0  0  0  0  0  0  0  0
  -23.0261  -26.3383   18.2097 O   0  0  0  0  0  0  0  0  0  0  0  0
  -25.3874  -16.8387   21.2569 O   0  0  0  0  0  0  0  0  0  0  0  0
  -22.0192  -14.4996   20.7318 O   0  0  0  0  0  0  0  0  0  0  0  0
  -24.7005  -10.5908   20.9596 O   0  0  0  0  0  0  0  0  0  0  0  0
  -31.4274  -24.5087   16.4271 O   0  0  0  0  0  0  0  0  0  0  0  0
  -23.6853  -32.0002   23.5102 O   0  0  0  0  0  0  0  0  0  0  0  0
  -30.6186  -18.0772   20.0363 O   0  0  0  0  0  0  0  0  0  0  0  0
  -30.3044  -13.9287   18.9900 O   0  0  0  0  0  0  0  0  0  1  0  0
  -26.3703  -32.4401   28.3061 F   0  0  0  0  0  0  0  0  0  0  0  0
  -26.3347  -32.7861   23.5855 F   0  0  0  0  0  0  0  0  0  0  0  0
  1  2  1  0  0  0  0
  1  5  2  0  0  0  0
  2  6  2  0  0  0  0
  3  8  2  0  0  0  0
  3 17  1  0  0  0  0
  4  9  1  0  0  0  0
  4 17  2  0  0  0  0
  5 19  1  0  0  0  0
  6 21  1  0  0  0  0
  7 10  2  0  0  0  0
  7 20  1  0  0  0  0
  8 26  1  0  0  0  0
  9 26  2  0  0  0  0
 10 27  1  0  0  0  0
 11 12  2  0  0  0  0
 11 28  1  0  0  0  0
 12 30  1  0  0  0  0
 13 22  2  0  0  0  0
 13 24  1  0  0  0  0
 14 23  1  0  0  0  0
 14 27  2  0  0  0  0
 15 24  2  0  0  0  0
 15 25  1  0  0  0  0
 16 30  2  0  0  0  0
 16 31  1  0  0  0  0
 17 32  1  0  0  0  0
 18 32  1  0  0  0  0
 18 33  2  0  0  0  0
 18 35  1  0  0  0  0
 19 21  2  0  0  0  0
 19 40  1  0  0  0  0
 20 23  2  0  0  0  0
 20 41  1  0  0  0  0
 21 54  1  0  0  0  0
 22 29  1  0  0  0  0
 22 53  1  0  0  0  0
 23 42  1  0  0  0  0
 24 57  1  0  0  0  0
 25 29  2  0  0  0  0
 25 70  1  0  0  0  0
 26 85  1  0  0  0  0
 27 87  1  0  0  0  0
 28 31  2  0  0  0  0
 28 85  1  0  0  0  0
 29 86  1  0  0  0  0
 30 88  1  0  0  0  0
 31 89  1  0  0  0  0
 32 69  2  0  0  0  0
 33 71  1  0  0  0  0
 33 75  1  0  0  0  0
 34 64  1  0  0  0  0
 34 70  2  0  0  0  0
 35 76  1  0  0  0  0
 35 80  2  0  0  0  0
 36 55  1  0  0  0  0
 36 77  1  0  0  0  0
 36 81  2  0  0  0  0
 37 66  1  0  0  0  0
 37 72  1  0  0  0  0
 37 82  2  0  0  0  0
 38 67  1  0  0  0  0
 38 78  1  0  0  0  0
 38 83  2  0  0  0  0
 39 73  1  0  0  0  0
 39 74  1  0  0  0  0
 39 84  2  0  0  0  0
 40 43  1  0  0  0  0
 41 55  1  0  0  0  0
 42 72  1  0  0  0  0
 43 45  1  0  0  0  0
 44 46  1  0  0  0  0
 44 49  1  0  0  0  0
 45 54  1  0  0  0  0
 46 56  1  0  0  0  0
 47 50  1  0  0  0  0
 47 53  1  0  0  0  0
 48 51  1  0  0  0  0
 48 53  1  0  0  0  0
 49 73  1  0  0  0  0
 50 74  1  0  0  0  0
 51 74  1  0  0  0  0
 52 56  1  0  0  0  0
 52 73  1  0  0  0  0
 54 77  1  0  0  0  0
 55 72  1  0  0  0  0
 56 71  1  0  0  0  0
 58 67  1  0  0  0  0
 59 68  1  0  0  0  0
 60 68  1  0  0  0  0
 61 68  1  0  0  0  0
 62 79  1  0  0  0  0
 63 86  1  0  0  0  0
 64 65  1  0  0  0  0
 65 87  1  0  0  0  0
 66 68  1  0  0  0  0
 66 78  1  0  0  0  0
 67 79  1  0  0  0  0
 69 71  1  0  0  0  0
M  CHG  1  79   1
M  ISO  4  39 100  65 101  74 100  87 101
M  END
> <Batch ID>
0163

> <Smiles>
CNC(C)C(=O)NC(C(=O)N1Cc2cc([101O:1][101CH2:1]C=CNc3cc(C)cc(C4CC[100N:0]([100C:0](=O)N5CCCC(n6nc(-c7ccc(Oc8ccc(F)cc8F)cc7)c(C(N)=O)c6N)C5)CC4)c3OC)ccc2CC1C(=O)NC1CCCc2ccccc21)C(C)(C)C

> <Shape>
0.251

> <Color>
0.070

> <Negative vol penalty>
0.000

$$$$

  -OEChem-04052322173D

 88 97  0     1  0  0  0  0  0999 V2000
  -31.7888  -31.9773   23.5567 C   0  0  0  0  0  0  0  0  0  0  0  0
  -31.7165  -30.5880   23.5433 C   0  0  0  0  0  0  0  0  0  0  0  0
  -23.0495   -9.8962   19.8779 C   0  0  0  0  0  0  0  0  0  0  0  0
  -23.9218   -9.7095   22.1232 C   0  0  0  0  0  0  0  0  0  0  0  0
  -30.7462  -32.7232   24.1048 C   0  0  0  0  0  0  0  0  0  0  0  0
  -30.6018  -29.9439   24.0790 C   0  0  0  0  0  0  0  0  0  0  0  0
  -28.0325  -24.7570   22.0787 C   0  0  0  0  0  0  0  0  0  0  0  0
  -22.3228   -8.7200   20.0623 C   0  0  0  0  0  0  0  0  0  0  0  0
  -23.1950   -8.5333   22.3077 C   0  0  0  0  0  0  0  0  0  0  0  0
  -28.1413  -23.4328   22.5010 C   0  0  0  0  0  0  0  0  0  0  0  0
  -20.0033   -7.6613   22.9955 C   0  0  0  0  0  0  0  0  0  0  0  0
  -19.3053   -7.5139   24.1940 C   0  0  0  0  0  0  0  0  0  0  0  0
  -27.2158  -18.4469   19.3509 C   0  0  0  0  0  0  0  0  0  0  0  0
  -29.9299  -17.6992   19.1904 C   0  0  0  0  0  0  0  0  0  0  0  0
  -26.1432  -23.6975   23.8263 C   0  0  0  0  0  0  0  0  0  0  0  0
  -20.5881   -5.5293   24.6970 C   0  0  0  0  0  0  0  0  0  0  0  0
  -23.8491  -10.3910   20.9083 C   0  0  0  0  0  0  0  0  0  0  0  0
  -28.0017  -18.3758   20.4938 C   0  0  0  0  0  0  0  0  0  0  0  0
  -24.1760  -12.9195   20.9925 C   0  0  0  0  0  0  0  0  0  0  0  0
  -29.6139  -32.0882   24.6388 C   0  0  0  0  0  0  0  0  0  0  0  0
  -26.9826  -25.5661   22.5364 C   0  0  0  0  0  0  0  0  0  0  0  0
  -29.5437  -30.6820   24.6360 C   0  0  0  0  0  0  0  0  0  0  0  0
  -29.3498  -18.0018   20.4174 C   0  0  0  0  0  0  0  0  0  0  0  0
  -26.0219  -25.0310   23.4064 C   0  0  0  0  0  0  0  0  0  0  0  0
  -27.7956  -18.1377   18.1187 C   0  0  0  0  0  0  0  0  0  0  0  0
  -29.1438  -17.7657   18.0389 C   0  0  0  0  0  0  0  0  0  0  0  0
  -22.3955   -8.0386   21.2772 C   0  0  0  0  0  0  0  0  0  0  0  0
  -27.1983  -22.9037   23.3772 C   0  0  0  0  0  0  0  0  0  0  0  0
  -20.9937   -6.7427   22.6476 C   0  0  0  0  0  0  0  0  0  0  0  0
  -19.5977   -6.4479   25.0448 C   0  0  0  0  0  0  0  0  0  0  0  0
  -21.2861   -5.6767   23.4983 C   0  0  0  0  0  0  0  0  0  0  0  0
  -24.6004  -11.6056   20.7181 C   0  0  0  0  0  0  0  0  0  0  0  0
  -25.2463  -13.7061   20.6430 C   0  0  0  0  0  0  0  0  0  0  0  0
  -27.6547  -18.6236   21.8898 C   0  0  0  0  0  0  0  0  0  0  0  0
  -26.5413  -19.2045   22.3478 C   0  0  0  0  0  0  0  0  0  0  0  0
  -22.9260  -13.3872   21.5165 C   0  0  0  0  0  0  0  0  0  0  0  0
  -26.7925  -28.2489   24.2305 C   0  0  0  0  0  0  0  0  0  0  0  0
  -23.6379  -28.0200   23.5107 C   0  0  0  0  0  0  0  0  0  0  0  0
  -21.0035  -26.0369   22.6308 C   0  0  0  0  0  0  0  0  0  0  0  0
  -30.7292  -14.7470   20.6511 C   0  0  0  0  0  0  0  0  0  0  0  0
  -28.5333  -32.9352   25.2631 C   0  0  0  0  0  0  0  0  0  0  0  0
  -26.8643  -26.9846   22.0505 C   0  0  0  0  0  0  0  0  0  0  0  0
  -24.8643  -25.8518   23.9111 C   0  0  0  0  0  0  0  0  0  0  0  0
  -28.8089  -18.1404   22.7336 C   0  0  0  0  0  0  0  0  0  0  0  0
  -27.2184  -32.1884   25.4718 C   0  0  0  0  0  0  0  0  0  0  0  0
  -29.4831  -12.5705   18.1238 C   0  0  0  0  0  0  0  0  0  0  0  0
  -27.4743  -30.8222   26.1002 C   0  0  0  0  0  0  0  0  0  0  0  0
  -28.0698  -12.2292   18.5993 C   0  0  0  0  0  0  0  0  0  0  0  0
  -30.4577  -12.6931   19.2931 C   0  0  0  0  0  0  0  0  0  0  0  0
  -28.6243  -13.2861   20.8296 C   0  0  0  0  0  0  0  0  0  0  0  0
  -28.3399  -29.9475   25.1852 C   0  0  1  0  0  0  0  0  0  0  0  0
  -26.0441  -27.8695   22.9841 C   0  0  1  0  0  0  0  0  0  0  0  0
  -27.5938  -13.2072   19.6903 C   0  0  2  0  0  0  0  0  0  0  0  0
  -30.0250  -18.0400   21.7722 C   0  0  2  0  0  0  0  0  0  0  0  0
  -26.9514  -18.2103   16.8876 C   0  0  0  0  0  0  0  0  0  0  0  0
  -29.7681  -17.4376   16.7214 C   0  0  0  0  0  0  0  0  0  0  0  0
  -30.9130  -19.2892   21.8808 C   0  0  0  0  0  0  0  0  0  0  0  0
  -24.9839  -18.6735   24.2079 C   0  0  0  0  0  0  0  0  0  0  0  0
  -18.5419  -26.1295   22.1519 C   0  0  0  0  0  0  0  0  0  0  0  0
  -23.0675  -28.2481   26.4994 C   0  0  0  0  0  0  0  0  0  0  0  0
  -20.7566  -27.3947   26.0527 C   0  0  0  0  0  0  0  0  0  0  0  0
  -21.5077  -29.5460   25.0376 C   0  0  0  0  0  0  0  0  0  0  0  0
  -21.3879  -25.0668   19.8613 C   0  0  0  0  0  0  0  0  0  0  0  0
  -30.8488  -16.7823   22.0662 C   0  0  0  0  0  0  0  0  0  0  0  0
  -26.0883  -20.9292   24.1021 C   0  0  0  0  0  0  0  0  0  1  0  0
  -26.2496  -19.4334   23.8114 C   0  0  2  0  0  0  0  0  0  0  0  0
  -22.4389  -27.3674   24.1552 C   0  0  1  0  0  0  0  0  0  0  0  0
  -19.9405  -26.1915   21.5581 C   0  0  2  0  0  0  0  0  0  0  0  0
  -21.9654  -28.1239   25.4284 C   0  0  0  0  0  0  0  0  0  0  0  0
  -25.8434  -11.5563   20.2317 N   0  0  0  0  0  0  0  0  0  0  0  0
  -26.2091  -12.8490   20.1976 N   0  0  0  0  0  0  0  0  0  0  0  0
  -24.7956  -27.2352   23.4122 N   0  0  0  0  0  0  0  0  0  0  0  0
  -29.9481  -13.6364   20.2913 N   0  0  0  0  0  0  0  0  0  0  0  0
  -25.4483  -15.0405   20.6763 N   0  0  0  0  0  0  0  0  0  0  0  0
  -21.9351  -12.4444   21.8222 N   0  0  0  0  0  0  0  0  0  0  0  0
  -27.5439  -29.4020   24.1066 N   0  0  0  0  0  0  0  0  0  0  0  0
  -21.4239  -27.2584   23.1129 N   0  0  0  0  0  0  0  0  0  0  0  0
  -30.1692  -15.5945   21.5992 N   0  0  0  0  0  0  0  0  0  0  0  0
  -20.0683  -25.1084   20.5424 N   0  3  0  0  0  0  0  0  0  0  0  0
  -22.6887  -14.6063   21.6925 O   0  0  0  0  0  0  0  0  0  0  0  0
  -26.6944  -27.5482   25.2311 O   0  0  0  0  0  0  0  0  0  0  0  0
  -23.5484  -29.1807   23.1030 O   0  0  0  0  0  0  0  0  0  0  0  0
  -21.4166  -24.9420   23.0064 O   0  0  0  0  0  0  0  0  0  0  0  0
  -31.8407  -14.9700   20.1595 O   0  0  0  0  0  0  0  0  0  0  0  0
  -21.6864   -6.8909   21.4577 O   0  0  0  0  0  0  0  0  0  0  0  0
  -27.3025  -21.6116   23.7914 O   0  0  0  0  0  0  0  0  0  1  0  0
  -18.9284   -6.3073   26.1965 F   0  0  0  0  0  0  0  0  0  0  0  0
  -22.2374   -4.7917   23.1701 F   0  0  0  0  0  0  0  0  0  0  0  0
  1  2  1  0  0  0  0
  1  5  2  0  0  0  0
  2  6  2  0  0  0  0
  3  8  2  0  0  0  0
  3 17  1  0  0  0  0
  4  9  1  0  0  0  0
  4 17  2  0  0  0  0
  5 20  1  0  0  0  0
  6 22  1  0  0  0  0
  7 10  2  0  0  0  0
  7 21  1  0  0  0  0
  8 27  1  0  0  0  0
  9 27  2  0  0  0  0
 10 28  1  0  0  0  0
 11 12  2  0  0  0  0
 11 29  1  0  0  0  0
 12 30  1  0  0  0  0
 13 18  1  0  0  0  0
 13 25  2  0  0  0  0
 14 23  1  0  0  0  0
 14 26  2  0  0  0  0
 15 24  1  0  0  0  0
 15 28  2  0  0  0  0
 16 30  2  0  0  0  0
 16 31  1  0  0  0  0
 17 32  1  0  0  0  0
 18 23  2  0  0  0  0
 18 34  1  0  0  0  0
 19 32  1  0  0  0  0
 19 33  2  0  0  0  0
 19 36  1  0  0  0  0
 20 22  2  0  0  0  0
 20 41  1  0  0  0  0
 21 24  2  0  0  0  0
 21 42  1  0  0  0  0
 22 51  1  0  0  0  0
 23 54  1  0  0  0  0
 24 43  1  0  0  0  0
 25 26  1  0  0  0  0
 25 55  1  0  0  0  0
 26 56  1  0  0  0  0
 27 85  1  0  0  0  0
 28 86  1  0  0  0  0
 29 31  2  0  0  0  0
 29 85  1  0  0  0  0
 30 87  1  0  0  0  0
 31 88  1  0  0  0  0
 32 70  2  0  0  0  0
 33 71  1  0  0  0  0
 33 74  1  0  0  0  0
 34 35  2  0  0  0  0
 34 44  1  0  0  0  0
 35 66  1  0  0  0  0
 36 75  1  0  0  0  0
 36 80  2  0  0  0  0
 37 52  1  0  0  0  0
 37 76  1  0  0  0  0
 37 81  2  0  0  0  0
 38 67  1  0  0  0  0
 38 72  1  0  0  0  0
 38 82  2  0  0  0  0
 39 68  1  0  0  0  0
 39 77  1  0  0  0  0
 39 83  2  0  0  0  0
 40 73  1  0  0  0  0
 40 78  1  0  0  0  0
 40 84  2  0  0  0  0
 41 45  1  0  0  0  0
 42 52  1  0  0  0  0
 43 72  1  0  0  0  0
 44 54  1  0  0  0  0
 45 47  1  0  0  0  0
 46 48  1  0  0  0  0
 46 49  1  0  0  0  0
 47 51  1  0  0  0  0
 48 53  1  0  0  0  0
 49 73  1  0  0  0  0
 50 53  1  0  0  0  0
 50 73  1  0  0  0  0
 51 76  1  0  0  0  0
 52 72  1  0  0  0  0
 53 71  1  0  0  0  0
 54 57  1  0  0  0  0
 54 64  1  0  0  0  0
 58 66  1  0  0  0  0
 59 68  1  0  0  0  0
 60 69  1  0  0  0  0
 61 69  1  0  0  0  0
 62 69  1  0  0  0  0
 63 79  1  0  0  0  0
 64 78  1  0  0  0  0
 65 66  1  0  0  0  0
 65 86  1  0  0  0  0
 67 69  1  0  0  0  0
 67 77  1  0  0  0  0
 68 79  1  0  0  0  0
 70 71  1  0  0  0  0
M  CHG  1  79   1
M  ISO  4  40 100  65 101  78 100  86 101
M  END
> <Batch ID>
0163

> <Smiles>
CNC(C)C(=O)NC(C(=O)N1Cc2cc([101O:1][101CH2:1]C(C)C=C3CC(C)(C[100NH:0][100C:0](=O)N4CCCC(n5nc(-c6ccc(Oc7ccc(F)cc7F)cc6)c(C(N)=O)c5N)C4)c4cc(C)c(C)cc43)ccc2CC1C(=O)NC1CCCc2ccccc21)C(C)(C)C

> <Shape>
0.294

> <Color>
0.205

> <Negative vol penalty>
0.000

$$$$

  -OEChem-04052322173D

 92102  0     1  0  0  0  0  0999 V2000
  -28.8707  -37.6777   21.6937 C   0  0  0  0  0  0  0  0  0  0  0  0
  -28.9358  -36.6345   20.7756 C   0  0  0  0  0  0  0  0  0  0  0  0
  -25.2217  -12.7312   21.7077 C   0  0  0  0  0  0  0  0  0  0  0  0
  -26.6830  -11.6396   20.1233 C   0  0  0  0  0  0  0  0  0  0  0  0
  -28.5715  -37.4117   23.0292 C   0  0  0  0  0  0  0  0  0  0  0  0
  -28.7028  -35.3245   21.1928 C   0  0  0  0  0  0  0  0  0  0  0  0
  -25.9555  -29.1304   18.8687 C   0  0  0  0  0  0  0  0  0  0  0  0
  -24.1110  -12.2386   21.0226 C   0  0  0  0  0  0  0  0  0  0  0  0
  -25.5723  -11.1470   19.4383 C   0  0  0  0  0  0  0  0  0  0  0  0
  -26.2859  -27.7806   18.7557 C   0  0  0  0  0  0  0  0  0  0  0  0
  -20.8945  -10.9702   19.9000 C   0  0  0  0  0  0  0  0  0  0  0  0
  -19.8577  -10.4217   20.6549 C   0  0  0  0  0  0  0  0  0  0  0  0
  -25.6996  -27.4494   21.0721 C   0  0  0  0  0  0  0  0  0  0  0  0
  -21.3804   -8.7718   21.5475 C   0  0  0  0  0  0  0  0  0  0  0  0
  -26.5078  -12.4317   21.2580 C   0  0  0  0  0  0  0  0  0  0  0  0
  -28.3437  -12.3219   23.0257 C   0  0  0  0  0  0  0  0  0  0  0  0
  -28.3252  -36.0989   23.4611 C   0  0  0  0  0  0  0  0  0  0  0  0
  -25.5043  -29.6529   20.0893 C   0  0  0  0  0  0  0  0  0  0  0  0
  -28.4014  -35.0406   22.5356 C   0  0  0  0  0  0  0  0  0  0  0  0
  -25.3617  -28.8056   21.1973 C   0  0  0  0  0  0  0  0  0  0  0  0
  -27.6108  -18.7317   16.3363 C   0  0  0  0  0  0  0  0  0  0  0  0
  -26.9154  -18.5673   15.1276 C   0  0  0  0  0  0  0  0  0  0  0  0
  -26.0764  -17.4722   14.9323 C   0  0  0  0  0  0  0  0  0  0  0  0
  -25.9191  -16.5311   15.9440 C   0  0  0  0  0  0  0  0  0  0  0  0
  -26.5956  -16.6863   17.1545 C   0  0  0  0  0  0  0  0  0  0  0  0
  -27.4419  -17.7878   17.3686 C   0  0  0  0  0  0  0  0  0  0  0  0
  -24.2863  -11.4465   19.8879 C   0  0  0  0  0  0  0  0  0  0  0  0
  -26.1607  -26.9405   19.8582 C   0  0  0  0  0  0  0  0  0  0  0  0
  -22.1743  -10.4194   19.9688 C   0  0  0  0  0  0  0  0  0  0  0  0
  -20.1006   -9.3226   21.4786 C   0  0  0  0  0  0  0  0  0  0  0  0
  -22.4172   -9.3203   20.7925 C   0  0  0  0  0  0  0  0  0  0  0  0
  -27.6555  -12.9407   21.9649 C   0  0  0  0  0  0  0  0  0  0  0  0
  -29.3481  -13.2031   23.3437 C   0  0  0  0  0  0  0  0  0  0  0  0
  -28.0972  -11.0631   23.6663 C   0  0  0  0  0  0  0  0  0  0  0  0
  -26.5670  -31.8610   22.1139 C   0  0  0  0  0  0  0  0  0  0  0  0
  -23.7394  -31.2992   23.6011 C   0  0  0  0  0  0  0  0  0  0  0  0
  -21.1460  -29.1580   24.1808 C   0  0  0  0  0  0  0  0  0  0  0  0
  -28.6079  -16.7937   19.2880 C   0  0  0  0  0  0  0  0  0  0  0  0
  -28.0522  -35.8552   24.9242 C   0  0  0  0  0  0  0  0  0  0  0  0
  -25.1266  -31.1055   20.1876 C   0  0  0  0  0  0  0  0  0  0  0  0
  -28.5303  -19.9172   16.4800 C   0  0  0  0  0  0  0  0  0  0  0  0
  -24.8625  -29.3129   22.5246 C   0  0  0  0  0  0  0  0  0  0  0  0
  -27.4497  -34.4822   25.2109 C   0  0  0  0  0  0  0  0  0  0  0  0
  -29.4491  -19.7846   17.6901 C   0  0  0  0  0  0  0  0  0  0  0  0
  -28.4424  -17.4081   22.9074 C   0  0  0  0  0  0  0  0  0  0  0  0
  -28.2148  -33.3963   24.4611 C   0  0  0  0  0  0  0  0  0  0  0  0
  -29.6174  -16.5837   23.4177 C   0  0  0  0  0  0  0  0  0  0  0  0
  -28.8940  -21.6975   21.0494 C   0  0  0  0  0  0  0  0  0  0  0  0
  -27.2439  -22.8011   19.6367 C   0  0  0  0  0  0  0  0  0  0  0  0
  -28.7047  -17.9861   21.5197 C   0  0  0  0  0  0  0  0  0  0  0  0
  -30.2458  -16.0952   21.0071 C   0  0  0  0  0  0  0  0  0  0  0  0
  -28.1305  -33.6090   22.9448 C   0  0  1  0  0  0  0  0  0  0  0  0
  -25.1667  -31.6379   21.6167 C   0  0  1  0  0  0  0  0  0  0  0  0
  -28.2450  -21.6458   19.6570 C   0  0  2  0  0  0  0  0  0  0  0  0
  -28.4419  -23.0228   21.6850 C   0  0  2  0  0  0  0  0  0  0  0  0
  -27.9204  -23.8579   20.5073 C   0  0  2  0  0  0  0  0  0  0  0  0
  -30.0670  -15.5083   22.4176 C   0  0  2  0  0  0  0  0  0  0  0  0
  -28.6757  -19.2928   18.9211 C   0  0  1  0  0  0  0  0  0  0  0  0
  -27.0494  -19.5762   14.0271 C   0  0  0  0  0  0  0  0  0  0  0  0
  -25.3307  -17.3181   13.6434 C   0  0  0  0  0  0  0  0  0  0  0  0
  -24.9926  -15.3735   15.7306 C   0  0  0  0  0  0  0  0  0  0  0  0
  -26.1420  -15.7566   18.2394 C   0  0  0  0  0  0  0  0  0  0  0  0
  -29.5515  -23.7043   22.4724 C   0  0  0  0  0  0  0  0  0  0  0  0
  -19.0020  -28.9642   25.4705 C   0  0  0  0  0  0  0  0  0  0  0  0
  -25.3262  -30.8081   26.1606 C   0  0  0  0  0  0  0  0  0  0  0  0
  -23.2916  -29.7177   27.1299 C   0  0  0  0  0  0  0  0  0  0  0  0
  -23.2222  -32.1233   26.4736 C   0  0  0  0  0  0  0  0  0  0  0  0
  -19.5497  -28.8581   21.7068 C   0  0  0  0  0  0  0  0  0  0  0  0
  -27.6110  -20.3152   19.3452 C   0  0  0  0  0  0  0  0  0  0  0  0
  -26.9691  -24.9711   20.9184 C   0  0  0  0  0  0  0  0  0  1  0  0
  -23.2660  -30.3483   24.6738 C   0  0  1  0  0  0  0  0  0  0  0  0
  -19.6425  -29.3654   24.1508 C   0  0  2  0  0  0  0  0  0  0  0  0
  -23.7878  -30.7399   26.0851 C   0  0  0  0  0  0  0  0  0  0  0  0
  -28.1784  -14.1236   21.6314 N   0  0  0  0  0  0  0  0  0  0  0  0
  -29.2058  -14.2553   22.4877 N   0  0  0  0  0  0  0  0  0  0  0  0
  -28.1127  -17.9467   18.6336 N   0  0  0  0  0  0  0  0  0  0  0  0
  -24.5120  -30.7421   22.5722 N   0  0  0  0  0  0  0  0  0  0  0  0
  -29.1602  -16.9746   20.5663 N   0  0  0  0  0  0  0  0  0  0  0  0
  -30.3303  -13.1729   24.2694 N   0  0  0  0  0  0  0  0  0  0  0  0
  -27.0240  -10.2827   23.2152 N   0  0  0  0  0  0  0  0  0  0  0  0
  -26.8443  -33.1738   22.4441 N   0  0  0  0  0  0  0  0  0  0  0  0
  -21.8119  -30.3024   24.5658 N   0  0  0  0  0  0  0  0  0  0  0  0
  -19.0289  -28.5511   23.0639 N   0  3  0  0  0  0  0  0  0  0  0  0
  -28.7976  -10.6503   24.6216 O   0  0  0  0  0  0  0  0  0  0  0  0
  -27.3382  -30.9120   22.1935 O   0  0  0  0  0  0  0  0  0  0  0  0
  -23.4290  -32.4911   23.6696 O   0  0  0  0  0  0  0  0  0  0  0  0
  -21.6765  -28.0867   23.8953 O   0  0  0  0  0  0  0  0  0  0  0  0
  -28.5935  -15.6820   18.7429 O   0  0  0  0  0  0  0  0  0  0  0  0
  -23.2027  -10.9655   19.2193 O   0  0  0  0  0  0  0  0  0  0  0  0
  -26.4859  -25.6115   19.7499 O   0  0  0  0  0  0  0  0  0  1  0  0
  -19.1053   -8.7970   22.2047 F   0  0  0  0  0  0  0  0  0  0  0  0
  -23.6448   -8.7876   20.8636 F   0  0  0  0  0  0  0  0  0  0  0  0
  1  2  1  0  0  0  0
  1  5  2  0  0  0  0
  2  6  2  0  0  0  0
  3  8  2  0  0  0  0
  3 15  1  0  0  0  0
  4  9  1  0  0  0  0
  4 15  2  0  0  0  0
  5 17  1  0  0  0  0
  6 19  1  0  0  0  0
  7 10  2  0  0  0  0
  7 18  1  0  0  0  0
  8 27  1  0  0  0  0
  9 27  2  0  0  0  0
 10 28  1  0  0  0  0
 11 12  2  0  0  0  0
 11 29  1  0  0  0  0
 12 30  1  0  0  0  0
 13 20  1  0  0  0  0
 13 28  2  0  0  0  0
 14 30  2  0  0  0  0
 14 31  1  0  0  0  0
 15 32  1  0  0  0  0
 16 32  1  0  0  0  0
 16 33  2  0  0  0  0
 16 34  1  0  0  0  0
 17 19  2  0  0  0  0
 17 39  1  0  0  0  0
 18 20  2  0  0  0  0
 18 40  1  0  0  0  0
 19 52  1  0  0  0  0
 20 42  1  0  0  0  0
 21 22  1  0  0  0  0
 21 26  2  0  0  0  0
 21 41  1  0  0  0  0
 22 23  2  0  0  0  0
 22 59  1  0  0  0  0
 23 24  1  0  0  0  0
 23 60  1  0  0  0  0
 24 25  2  0  0  0  0
 24 61  1  0  0  0  0
 25 26  1  0  0  0  0
 25 62  1  0  0  0  0
 26 76  1  0  0  0  0
 27 89  1  0  0  0  0
 28 90  1  0  0  0  0
 29 31  2  0  0  0  0
 29 89  1  0  0  0  0
 30 91  1  0  0  0  0
 31 92  1  0  0  0  0
 32 74  2  0  0  0  0
 33 75  1  0  0  0  0
 33 79  1  0  0  0  0
 34 80  1  0  0  0  0
 34 84  2  0  0  0  0
 35 53  1  0  0  0  0
 35 81  1  0  0  0  0
 35 85  2  0  0  0  0
 36 71  1  0  0  0  0
 36 77  1  0  0  0  0
 36 86  2  0  0  0  0
 37 72  1  0  0  0  0
 37 82  1  0  0  0  0
 37 87  2  0  0  0  0
 38 76  1  0  0  0  0
 38 78  1  0  0  0  0
 38 88  2  0  0  0  0
 39 43  1  0  0  0  0
 40 53  1  0  0  0  0
 41 44  1  0  0  0  0
 42 77  1  0  0  0  0
 43 46  1  0  0  0  0
 44 58  1  0  0  0  0
 45 47  1  0  0  0  0
 45 50  1  0  0  0  0
 46 52  1  0  0  0  0
 47 57  1  0  0  0  0
 48 54  1  0  0  0  0
 48 55  1  0  0  0  0
 49 54  1  0  0  0  0
 49 56  1  0  0  0  0
 50 78  1  0  0  0  0
 51 57  1  0  0  0  0
 51 78  1  0  0  0  0
 52 81  1  0  0  0  0
 53 77  1  0  0  0  0
 54 69  1  0  0  0  0
 55 56  1  0  0  0  0
 55 63  1  0  0  0  0
 56 70  1  0  0  0  0
 57 75  1  0  0  0  0
 58 69  1  0  0  0  0
 58 76  1  0  0  0  0
 64 72  1  0  0  0  0
 65 73  1  0  0  0  0
 66 73  1  0  0  0  0
 67 73  1  0  0  0  0
 68 83  1  0  0  0  0
 70 90  1  0  0  0  0
 71 73  1  0  0  0  0
 71 82  1  0  0  0  0
 72 83  1  0  0  0  0
 74 75  1  0  0  0  0
M  CHG  1  83   1
M  ISO  4  38 100  70 101  76 100  90 101
M  END
> <Batch ID>
0163

> <Smiles>
CNC(C)C(=O)NC(C(=O)N1Cc2cc([101O:1][101CH2:1]C3CC(CC4CCc5c(C)c(C)c(C)c(C)c5[100N:0]4[100C:0](=O)N4CCCC(n5nc(-c6ccc(Oc7ccc(F)cc7F)cc6)c(C(N)=O)c5N)C4)CC3C)ccc2CC1C(=O)NC1CCCc2ccccc21)C(C)(C)C

> <Shape>
0.258

> <Color>
0.062

> <Negative vol penalty>
0.000

$$$$

  -OEChem-04052322173D

 86 95  0     1  0  0  0  0  0999 V2000
  -14.1175  -30.5586   15.7938 C   0  0  0  0  0  0  0  0  0  0  0  0
  -14.5264  -29.2923   15.3879 C   0  0  0  0  0  0  0  0  0  0  0  0
  -23.1949   -9.8161   19.9281 C   0  0  0  0  0  0  0  0  0  0  0  0
  -23.5433  -10.0025   22.3115 C   0  0  0  0  0  0  0  0  0  0  0  0
  -14.9001  -31.2897   16.6866 C   0  0  0  0  0  0  0  0  0  0  0  0
  -15.7188  -28.7569   15.8736 C   0  0  0  0  0  0  0  0  0  0  0  0
  -18.7049  -22.4983   17.6707 C   0  0  0  0  0  0  0  0  0  0  0  0
  -22.4232   -8.6719   20.1304 C   0  0  0  0  0  0  0  0  0  0  0  0
  -22.7716   -8.8583   22.5138 C   0  0  0  0  0  0  0  0  0  0  0  0
  -19.8449  -21.7367   17.4174 C   0  0  0  0  0  0  0  0  0  0  0  0
  -23.1679   -5.5099   22.2646 C   0  0  0  0  0  0  0  0  0  0  0  0
  -23.6527   -4.5500   23.1529 C   0  0  0  0  0  0  0  0  0  0  0  0
  -24.7040  -17.5719   17.2562 C   0  0  0  0  0  0  0  0  0  0  0  0
  -21.0757  -23.0582   19.0167 C   0  0  0  0  0  0  0  0  0  0  0  0
  -21.6792   -4.8188   24.5204 C   0  0  0  0  0  0  0  0  0  0  0  0
  -23.7550  -10.4814   21.0187 C   0  0  0  0  0  0  0  0  0  0  0  0
  -24.1029  -12.9965   20.7719 C   0  0  0  0  0  0  0  0  0  0  0  0
  -16.0978  -30.7590   17.1910 C   0  0  0  0  0  0  0  0  0  0  0  0
  -18.7447  -23.5543   18.5924 C   0  0  0  0  0  0  0  0  0  0  0  0
  -16.5188  -29.4821   16.7729 C   0  0  0  0  0  0  0  0  0  0  0  0
  -25.7703  -18.1560   16.5725 C   0  0  0  0  0  0  0  0  0  0  0  0
  -19.9342  -23.8300   19.2818 C   0  0  0  0  0  0  0  0  0  0  0  0
  -23.4872  -18.2463   17.3576 C   0  0  0  0  0  0  0  0  0  0  0  0
  -25.6198  -19.4145   15.9903 C   0  0  0  0  0  0  0  0  0  0  0  0
  -24.4031  -20.0890   16.0917 C   0  0  0  0  0  0  0  0  0  0  0  0
  -23.3367  -19.5048   16.7753 C   0  0  0  0  0  0  0  0  0  0  0  0
  -22.2115   -8.1930   21.4232 C   0  0  0  0  0  0  0  0  0  0  0  0
  -21.0313  -22.0184   18.0883 C   0  0  0  0  0  0  0  0  0  0  0  0
  -21.9387   -6.1244   22.5043 C   0  0  0  0  0  0  0  0  0  0  0  0
  -22.9084   -4.2044   24.2808 C   0  0  0  0  0  0  0  0  0  0  0  0
  -21.1944   -5.7788   23.6322 C   0  0  0  0  0  0  0  0  0  0  0  0
  -24.5527  -11.6631   20.8103 C   0  0  0  0  0  0  0  0  0  0  0  0
  -25.2388  -13.7357   20.5489 C   0  0  0  0  0  0  0  0  0  0  0  0
  -22.7769  -13.5201   20.9244 C   0  0  0  0  0  0  0  0  0  0  0  0
  -18.2998  -26.6971   18.4236 C   0  0  0  0  0  0  0  0  0  0  0  0
  -18.5960  -26.5197   21.6490 C   0  0  0  0  0  0  0  0  0  0  0  0
  -19.7937  -24.8271   24.3596 C   0  0  0  0  0  0  0  0  0  0  0  0
  -30.0140  -14.6689   18.0508 C   0  0  0  0  0  0  0  0  0  0  0  0
  -16.9339  -31.6061   18.1172 C   0  0  0  0  0  0  0  0  0  0  0  0
  -17.4993  -24.3493   18.8741 C   0  0  0  0  0  0  0  0  0  0  0  0
  -20.0240  -24.9399   20.2959 C   0  0  0  0  0  0  0  0  0  0  0  0
  -17.9955  -30.8135   18.8756 C   0  0  0  0  0  0  0  0  0  0  0  0
  -30.1159  -12.4267   20.6801 C   0  0  0  0  0  0  0  0  0  0  0  0
  -18.7440  -29.8814   17.9282 C   0  0  0  0  0  0  0  0  0  0  0  0
  -28.6426  -12.1274   20.9575 C   0  0  0  0  0  0  0  0  0  0  0  0
  -28.0459  -17.7729   17.6184 C   0  0  0  0  0  0  0  0  0  0  0  0
  -26.8690  -15.8781   16.4245 C   0  0  0  0  0  0  0  0  0  0  0  0
  -30.3866  -12.4968   19.1814 C   0  0  0  0  0  0  0  0  0  0  0  0
  -29.3525  -16.9884   17.5267 C   0  0  0  0  0  0  0  0  0  0  0  0
  -28.2015  -15.1377   16.3581 C   0  0  0  0  0  0  0  0  0  0  0  0
  -28.0607  -13.2034   18.7286 C   0  0  0  0  0  0  0  0  0  0  0  0
  -27.0830  -17.4012   16.4776 C   0  0  0  0  0  0  0  0  0  0  0  0
  -17.7935  -28.8570   17.2969 C   0  0  1  0  0  0  0  0  0  0  0  0
  -17.7902  -25.7299   19.4543 C   0  0  1  0  0  0  0  0  0  0  0  0
  -27.7293  -13.1318   20.2327 C   0  0  1  0  0  0  0  0  0  0  0  0
  -22.3609  -17.5982   18.0943 C   0  0  0  0  0  0  0  0  0  0  0  0
  -26.7650  -20.0387   15.2574 C   0  0  0  0  0  0  0  0  0  0  0  0
  -24.2415  -21.4388   15.4666 C   0  0  0  0  0  0  0  0  0  0  0  0
  -19.9109  -24.9479   26.8634 C   0  0  0  0  0  0  0  0  0  0  0  0
  -20.7648  -28.6559   21.4419 C   0  0  0  0  0  0  0  0  0  0  0  0
  -21.4829  -28.0527   23.7633 C   0  0  0  0  0  0  0  0  0  0  0  0
  -19.1903  -28.9505   23.3625 C   0  0  0  0  0  0  0  0  0  0  0  0
  -18.3039  -22.2885   24.6677 C   0  0  0  0  0  0  0  0  0  0  0  0
  -22.0309  -20.2262   16.8863 C   0  0  0  0  0  0  0  0  0  1  0  0
  -19.7469  -26.5978   22.6228 C   0  0  1  0  0  0  0  0  0  0  0  0
  -19.1349  -24.4220   25.6659 C   0  0  2  0  0  0  0  0  0  0  0  0
  -20.2954  -28.0445   22.7771 C   0  0  0  0  0  0  0  0  0  0  0  0
  -25.8714  -11.5582   20.6262 N   0  0  0  0  0  0  0  0  0  0  0  0
  -26.2601  -12.8352   20.4699 N   0  0  0  0  0  0  0  0  0  0  0  0
  -18.7810  -25.6928   20.5319 N   0  0  0  0  0  0  0  0  0  0  0  0
  -29.4955  -13.4560   18.5292 N   0  0  0  0  0  0  0  0  0  0  0  0
  -29.1059  -15.5496   17.4403 N   0  0  0  0  0  0  0  0  0  0  0  0
  -25.4536  -15.0617   20.4145 N   0  0  0  0  0  0  0  0  0  0  0  0
  -21.7251  -12.6210   21.1477 N   0  0  0  0  0  0  0  0  0  0  0  0
  -17.4898  -27.8014   18.2392 N   0  0  0  0  0  0  0  0  0  0  0  0
  -19.2700  -26.0037   23.8669 N   0  0  0  0  0  0  0  0  0  0  0  0
  -19.0601  -22.9372   25.7697 N   0  3  0  0  0  0  0  0  0  0  0  0
  -22.5296  -14.7475   20.8480 O   0  0  0  0  0  0  0  0  0  0  0  0
  -19.3508  -26.4599   17.8399 O   0  0  0  0  0  0  0  0  0  0  0  0
  -17.5679  -27.1628   21.8749 O   0  0  0  0  0  0  0  0  0  0  0  0
  -20.6863  -24.1679   23.8312 O   0  0  0  0  0  0  0  0  0  0  0  0
  -31.2128  -14.9526   18.1656 O   0  0  0  0  0  0  0  0  0  0  0  0
  -21.4584   -7.0767   21.6210 O   0  0  0  0  0  0  0  0  0  0  0  0
  -22.1539  -21.2715   17.8407 O   0  0  0  0  0  0  0  0  0  1  0  0
  -23.3733   -3.2814   25.1329 F   0  0  0  0  0  0  0  0  0  0  0  0
  -20.0123   -6.3647   23.8671 F   0  0  0  0  0  0  0  0  0  0  0  0
  1  2  1  0  0  0  0
  1  5  2  0  0  0  0
  2  6  2  0  0  0  0
  3  8  2  0  0  0  0
  3 16  1  0  0  0  0
  4  9  1  0  0  0  0
  4 16  2  0  0  0  0
  5 18  1  0  0  0  0
  6 20  1  0  0  0  0
  7 10  2  0  0  0  0
  7 19  1  0  0  0  0
  8 27  1  0  0  0  0
  9 27  2  0  0  0  0
 10 28  1  0  0  0  0
 11 12  2  0  0  0  0
 11 29  1  0  0  0  0
 12 30  1  0  0  0  0
 13 21  1  0  0  0  0
 13 23  2  0  0  0  0
 14 22  1  0  0  0  0
 14 28  2  0  0  0  0
 15 30  2  0  0  0  0
 15 31  1  0  0  0  0
 16 32  1  0  0  0  0
 17 32  1  0  0  0  0
 17 33  2  0  0  0  0
 17 34  1  0  0  0  0
 18 20  2  0  0  0  0
 18 39  1  0  0  0  0
 19 22  2  0  0  0  0
 19 40  1  0  0  0  0
 20 53  1  0  0  0  0
 21 24  2  0  0  0  0
 21 52  1  0  0  0  0
 22 41  1  0  0  0  0
 23 26  1  0  0  0  0
 23 56  1  0  0  0  0
 24 25  1  0  0  0  0
 24 57  1  0  0  0  0
 25 26  2  0  0  0  0
 25 58  1  0  0  0  0
 26 64  1  0  0  0  0
 27 83  1  0  0  0  0
 28 84  1  0  0  0  0
 29 31  2  0  0  0  0
 29 83  1  0  0  0  0
 30 85  1  0  0  0  0
 31 86  1  0  0  0  0
 32 68  2  0  0  0  0
 33 69  1  0  0  0  0
 33 73  1  0  0  0  0
 34 74  1  0  0  0  0
 34 78  2  0  0  0  0
 35 54  1  0  0  0  0
 35 75  1  0  0  0  0
 35 79  2  0  0  0  0
 36 65  1  0  0  0  0
 36 70  1  0  0  0  0
 36 80  2  0  0  0  0
 37 66  1  0  0  0  0
 37 76  1  0  0  0  0
 37 81  2  0  0  0  0
 38 71  1  0  0  0  0
 38 72  1  0  0  0  0
 38 82  2  0  0  0  0
 39 42  1  0  0  0  0
 40 54  1  0  0  0  0
 41 70  1  0  0  0  0
 42 44  1  0  0  0  0
 43 45  1  0  0  0  0
 43 48  1  0  0  0  0
 44 53  1  0  0  0  0
 45 55  1  0  0  0  0
 46 49  1  0  0  0  0
 46 52  1  0  0  0  0
 47 50  1  0  0  0  0
 47 52  1  0  0  0  0
 48 71  1  0  0  0  0
 49 72  1  0  0  0  0
 50 72  1  0  0  0  0
 51 55  1  0  0  0  0
 51 71  1  0  0  0  0
 53 75  1  0  0  0  0
 54 70  1  0  0  0  0
 55 69  1  0  0  0  0
 59 66  1  0  0  0  0
 60 67  1  0  0  0  0
 61 67  1  0  0  0  0
 62 67  1  0  0  0  0
 63 77  1  0  0  0  0
 64 84  1  0  0  0  0
 65 67  1  0  0  0  0
 65 76  1  0  0  0  0
 66 77  1  0  0  0  0
 68 69  1  0  0  0  0
M  CHG  1  77   1
M  ISO  4  38 100  64 101  72 100  84 101
M  END
> <Batch ID>
0163

> <Smiles>
CNC(C)C(=O)NC(C(=O)N1Cc2cc([101O:1][101CH2:1]c3c(C)cc(C4CC[100N:0]([100C:0](=O)N5CCCC(n6nc(-c7ccc(Oc8ccc(F)cc8F)cc7)c(C(N)=O)c6N)C5)CC4)c(C)c3C)ccc2CC1C(=O)NC1CCCc2ccccc21)C(C)(C)C

> <Shape>
0.199

> <Color>
0.190

> <Negative vol penalty>
0.000

$$$$

  -OEChem-04052322173D

 88 97  0     1  0  0  0  0  0999 V2000
  -29.4404  -36.3999   22.8259 C   0  0  0  0  0  0  0  0  0  0  0  0
  -29.6158  -35.0484   22.5461 C   0  0  0  0  0  0  0  0  0  0  0  0
  -27.4424   -7.3914   23.5944 C   0  0  0  0  0  0  0  0  0  0  0  0
  -26.4201   -6.7521   21.5008 C   0  0  0  0  0  0  0  0  0  0  0  0
  -28.2547  -36.8411   23.4117 C   0  0  0  0  0  0  0  0  0  0  0  0
  -28.6059  -34.1372   22.8531 C   0  0  0  0  0  0  0  0  0  0  0  0
  -27.1047  -29.1054   19.7015 C   0  0  0  0  0  0  0  0  0  0  0  0
  -26.5247   -6.5994   24.2844 C   0  0  0  0  0  0  0  0  0  0  0  0
  -25.5024   -5.9600   22.1908 C   0  0  0  0  0  0  0  0  0  0  0  0
  -27.4236  -27.7594   19.8759 C   0  0  0  0  0  0  0  0  0  0  0  0
  -22.6561   -6.4108   23.9590 C   0  0  0  0  0  0  0  0  0  0  0  0
  -21.3158   -6.4937   23.5816 C   0  0  0  0  0  0  0  0  0  0  0  0
  -25.3427  -27.4248   21.0493 C   0  0  0  0  0  0  0  0  0  0  0  0
  -29.3300  -23.2370   21.1874 C   0  0  0  0  0  0  0  0  0  0  0  0
  -27.4815  -21.4116   20.1708 C   0  0  0  0  0  0  0  0  0  0  0  0
  -21.3208   -4.1378   23.0462 C   0  0  0  0  0  0  0  0  0  0  0  0
  -27.3900   -7.4679   22.2026 C   0  0  0  0  0  0  0  0  0  0  0  0
  -29.5957   -7.8949   20.9941 C   0  0  0  0  0  0  0  0  0  0  0  0
  -27.2258  -35.9362   23.7171 C   0  0  0  0  0  0  0  0  0  0  0  0
  -25.9054  -29.6245   20.2100 C   0  0  0  0  0  0  0  0  0  0  0  0
  -27.4058  -34.5666   23.4448 C   0  0  0  0  0  0  0  0  0  0  0  0
  -25.0098  -28.7771   20.8778 C   0  0  0  0  0  0  0  0  0  0  0  0
  -28.2450  -23.6884   20.4361 C   0  0  0  0  0  0  0  0  0  0  0  0
  -29.4909  -21.8729   21.4304 C   0  0  0  0  0  0  0  0  0  0  0  0
  -27.3207  -22.7758   19.9278 C   0  0  0  0  0  0  0  0  0  0  0  0
  -25.5547   -5.8837   23.5826 C   0  0  0  0  0  0  0  0  0  0  0  0
  -26.5438  -26.9195   20.5524 C   0  0  0  0  0  0  0  0  0  0  0  0
  -23.3288   -5.1913   23.8798 C   0  0  0  0  0  0  0  0  0  0  0  0
  -28.5666  -20.9602   20.9221 C   0  0  0  0  0  0  0  0  0  0  0  0
  -20.6482   -5.3572   23.1253 C   0  0  0  0  0  0  0  0  0  0  0  0
  -22.6611   -4.0549   23.4235 C   0  0  0  0  0  0  0  0  0  0  0  0
  -28.3374   -8.2863   21.4893 C   0  0  0  0  0  0  0  0  0  0  0  0
  -30.0990   -9.0272   20.4017 C   0  0  0  0  0  0  0  0  0  0  0  0
  -30.2511   -6.6215   21.0635 C   0  0  0  0  0  0  0  0  0  0  0  0
  -25.1540  -31.8477   22.3540 C   0  0  0  0  0  0  0  0  0  0  0  0
  -22.1324  -31.2553   21.3336 C   0  0  0  0  0  0  0  0  0  0  0  0
  -19.9409  -29.0849   19.8730 C   0  0  0  0  0  0  0  0  0  0  0  0
  -29.3292  -14.6886   21.2643 C   0  0  0  0  0  0  0  0  0  0  0  0
  -25.9809  -36.4537   24.3932 C   0  0  0  0  0  0  0  0  0  0  0  0
  -25.5639  -31.0727   19.9902 C   0  0  0  0  0  0  0  0  0  0  0  0
  -23.7001  -29.2806   21.4252 C   0  0  0  0  0  0  0  0  0  0  0  0
  -24.8097  -35.4760   24.3437 C   0  0  0  0  0  0  0  0  0  0  0  0
  -28.7216  -13.0498   18.2201 C   0  0  0  0  0  0  0  0  0  0  0  0
  -25.2696  -34.0723   24.7246 C   0  0  0  0  0  0  0  0  0  0  0  0
  -28.6759  -11.5885   18.6660 C   0  0  0  0  0  0  0  0  0  0  0  0
  -30.2017  -18.0733   20.0272 C   0  0  0  0  0  0  0  0  0  0  0  0
  -27.6880  -17.7853   19.9374 C   0  0  0  0  0  0  0  0  0  0  0  0
  -28.0199  -13.9749   19.2159 C   0  0  0  0  0  0  0  0  0  0  0  0
  -30.2668  -16.9622   21.0739 C   0  0  0  0  0  0  0  0  0  0  0  0
  -27.8103  -16.6842   20.9882 C   0  0  0  0  0  0  0  0  0  0  0  0
  -28.4601  -12.3786   21.0529 C   0  0  0  0  0  0  0  0  0  0  0  0
  -26.3235  -33.5510   23.7403 C   0  0  1  0  0  0  0  0  0  0  0  0
  -24.5517  -31.6077   20.9985 C   0  0  1  0  0  0  0  0  0  0  0  0
  -29.2084  -11.4319   20.1016 C   0  0  1  0  0  0  0  0  0  0  0  0
  -28.8468  -18.7817   20.0025 C   0  0  0  0  0  0  0  0  0  0  0  0
  -26.1511  -23.2350   19.1207 C   0  0  0  0  0  0  0  0  0  0  0  0
  -30.6335  -21.9570   23.6756 C   0  0  0  0  0  0  0  0  0  0  0  0
  -32.0043  -21.7434   21.5708 C   0  0  0  0  0  0  0  0  0  0  0  0
  -17.5307  -28.8682   19.2087 C   0  0  0  0  0  0  0  0  0  0  0  0
  -21.3729  -30.7865   24.2514 C   0  0  0  0  0  0  0  0  0  0  0  0
  -19.2765  -29.6739   23.4543 C   0  0  0  0  0  0  0  0  0  0  0  0
  -19.6878  -32.0776   22.9293 C   0  0  0  0  0  0  0  0  0  0  0  0
  -20.6373  -28.7628   17.0147 C   0  0  0  0  0  0  0  0  0  0  0  0
  -28.0940  -25.1533   20.1872 C   0  0  0  0  0  0  0  0  0  1  0  0
  -30.6576  -21.4073   22.2375 C   0  0  0  0  0  0  0  0  0  0  0  0
  -21.0353  -30.3006   21.7382 C   0  0  1  0  0  0  0  0  0  0  0  0
  -18.9258  -29.2748   18.7604 C   0  0  2  0  0  0  0  0  0  0  0  0
  -20.3686  -30.7003   23.0848 C   0  0  0  0  0  0  0  0  0  0  0  0
  -28.0585   -9.5673   21.2338 N   0  0  0  0  0  0  0  0  0  0  0  0
  -29.1486   -9.9906   20.5717 N   0  0  0  0  0  0  0  0  0  0  0  0
  -23.4143  -30.7057   21.1904 N   0  0  0  0  0  0  0  0  0  0  0  0
  -28.5331  -13.7611   20.5756 N   0  0  0  0  0  0  0  0  0  0  0  0
  -29.1330  -16.0457   20.9571 N   0  0  0  0  0  0  0  0  0  0  0  0
  -31.2573   -9.2829   19.7572 N   0  0  0  0  0  0  0  0  0  0  0  0
  -29.5927   -5.5655   21.7082 N   0  0  0  0  0  0  0  0  0  0  0  0
  -25.6950  -33.1092   22.5139 N   0  0  0  0  0  0  0  0  0  0  0  0
  -20.1124  -30.2376   20.6101 N   0  0  0  0  0  0  0  0  0  0  0  0
  -19.2969  -28.4518   17.5747 N   0  3  0  0  0  0  0  0  0  0  0  0
  -31.3938   -6.4304   20.5827 O   0  0  0  0  0  0  0  0  0  0  0  0
  -25.1285  -30.9551   23.1931 O   0  0  0  0  0  0  0  0  0  0  0  0
  -21.8607  -32.4436   21.1445 O   0  0  0  0  0  0  0  0  0  0  0  0
  -20.5207  -28.0195   20.0711 O   0  0  0  0  0  0  0  0  0  0  0  0
  -30.1674  -14.3289   22.1004 O   0  0  0  0  0  0  0  0  0  0  0  0
  -24.6592   -5.1105   24.2555 O   0  0  0  0  0  0  0  0  0  0  0  0
  -28.7103  -19.6169   21.1502 O   0  0  0  0  0  0  0  0  0  0  0  0
  -26.8551  -25.5961   20.7259 O   0  0  0  0  0  0  0  0  0  1  0  0
  -19.3607   -5.4366   22.7645 F   0  0  0  0  0  0  0  0  0  0  0  0
  -23.3018   -2.8804   23.3464 F   0  0  0  0  0  0  0  0  0  0  0  0
  1  2  1  0  0  0  0
  1  5  2  0  0  0  0
  2  6  2  0  0  0  0
  3  8  2  0  0  0  0
  3 17  1  0  0  0  0
  4  9  1  0  0  0  0
  4 17  2  0  0  0  0
  5 19  1  0  0  0  0
  6 21  1  0  0  0  0
  7 10  2  0  0  0  0
  7 20  1  0  0  0  0
  8 26  1  0  0  0  0
  9 26  2  0  0  0  0
 10 27  1  0  0  0  0
 11 12  2  0  0  0  0
 11 28  1  0  0  0  0
 12 30  1  0  0  0  0
 13 22  1  0  0  0  0
 13 27  2  0  0  0  0
 14 23  1  0  0  0  0
 14 24  2  0  0  0  0
 15 25  1  0  0  0  0
 15 29  2  0  0  0  0
 16 30  2  0  0  0  0
 16 31  1  0  0  0  0
 17 32  1  0  0  0  0
 18 32  1  0  0  0  0
 18 33  2  0  0  0  0
 18 34  1  0  0  0  0
 19 21  2  0  0  0  0
 19 39  1  0  0  0  0
 20 22  2  0  0  0  0
 20 40  1  0  0  0  0
 21 52  1  0  0  0  0
 22 41  1  0  0  0  0
 23 25  2  0  0  0  0
 23 64  1  0  0  0  0
 24 29  1  0  0  0  0
 24 65  1  0  0  0  0
 25 56  1  0  0  0  0
 26 84  1  0  0  0  0
 27 86  1  0  0  0  0
 28 31  2  0  0  0  0
 28 84  1  0  0  0  0
 29 85  1  0  0  0  0
 30 87  1  0  0  0  0
 31 88  1  0  0  0  0
 32 69  2  0  0  0  0
 33 70  1  0  0  0  0
 33 74  1  0  0  0  0
 34 75  1  0  0  0  0
 34 79  2  0  0  0  0
 35 53  1  0  0  0  0
 35 76  1  0  0  0  0
 35 80  2  0  0  0  0
 36 66  1  0  0  0  0
 36 71  1  0  0  0  0
 36 81  2  0  0  0  0
 37 67  1  0  0  0  0
 37 77  1  0  0  0  0
 37 82  2  0  0  0  0
 38 72  1  0  0  0  0
 38 73  1  0  0  0  0
 38 83  2  0  0  0  0
 39 42  1  0  0  0  0
 40 53  1  0  0  0  0
 41 71  1  0  0  0  0
 42 44  1  0  0  0  0
 43 45  1  0  0  0  0
 43 48  1  0  0  0  0
 44 52  1  0  0  0  0
 45 54  1  0  0  0  0
 46 49  1  0  0  0  0
 46 55  1  0  0  0  0
 47 50  1  0  0  0  0
 47 55  1  0  0  0  0
 48 72  1  0  0  0  0
 49 73  1  0  0  0  0
 50 73  1  0  0  0  0
 51 54  1  0  0  0  0
 51 72  1  0  0  0  0
 52 76  1  0  0  0  0
 53 71  1  0  0  0  0
 54 70  1  0  0  0  0
 55 85  1  0  0  0  0
 57 65  1  0  0  0  0
 58 65  1  0  0  0  0
 59 67  1  0  0  0  0
 60 68  1  0  0  0  0
 61 68  1  0  0  0  0
 62 68  1  0  0  0  0
 63 78  1  0  0  0  0
 64 86  1  0  0  0  0
 66 68  1  0  0  0  0
 66 77  1  0  0  0  0
 67 78  1  0  0  0  0
 69 70  1  0  0  0  0
M  CHG  1  78   1
M  ISO  4  38 100  64 101  73 100  86 101
M  END
> <Batch ID>
0163

> <Smiles>
CNC(C)C(=O)NC(C(=O)N1Cc2cc([101O:1][101CH2:1]c3cc(C(C)C)c(OC4CC[100N:0]([100C:0](=O)N5CCCC(n6nc(-c7ccc(Oc8ccc(F)cc8F)cc7)c(C(N)=O)c6N)C5)CC4)cc3C)ccc2CC1C(=O)NC1CCCc2ccccc21)C(C)(C)C

> <Shape>
0.268

> <Color>
0.070

> <Negative vol penalty>
0.000

$$$$

  -OEChem-04052322173D

 94104  0     1  0  0  0  0  0999 V2000
  -22.6475  -19.6764   24.2723 C   0  0  0  0  0  0  0  0  0  0  0  0
  -23.5943  -20.4025   23.5569 C   0  0  0  0  0  0  0  0  0  0  0  0
  -26.3134  -12.9293   18.9655 C   0  0  0  0  0  0  0  0  0  0  0  0
  -25.9293  -13.0223   21.3489 C   0  0  0  0  0  0  0  0  0  0  0  0
  -21.4306  -20.2654   24.6129 C   0  0  0  0  0  0  0  0  0  0  0  0
  -23.3242  -21.7178   23.1807 C   0  0  0  0  0  0  0  0  0  0  0  0
  -27.3303  -26.3342   22.7982 C   0  0  0  0  0  0  0  0  0  0  0  0
  -25.2038  -12.0969   18.8191 C   0  0  0  0  0  0  0  0  0  0  0  0
  -24.8196  -12.1899   21.2026 C   0  0  0  0  0  0  0  0  0  0  0  0
  -28.0150  -26.8950   21.7210 C   0  0  0  0  0  0  0  0  0  0  0  0
  -24.2195   -8.8894   20.7813 C   0  0  0  0  0  0  0  0  0  0  0  0
  -24.0766   -7.8352   21.6834 C   0  0  0  0  0  0  0  0  0  0  0  0
  -26.3144  -28.5956   21.5332 C   0  0  0  0  0  0  0  0  0  0  0  0
  -21.9569   -8.7413   22.4066 C   0  0  0  0  0  0  0  0  0  0  0  0
  -26.6762  -13.3920   20.2304 C   0  0  0  0  0  0  0  0  0  0  0  0
  -29.1564  -13.9579   20.0406 C   0  0  0  0  0  0  0  0  0  0  0  0
  -21.1493  -21.5917   24.2490 C   0  0  0  0  0  0  0  0  0  0  0  0
  -26.1247  -26.8943   23.2447 C   0  0  0  0  0  0  0  0  0  0  0  0
  -22.1018  -22.3246   23.5156 C   0  0  0  0  0  0  0  0  0  0  0  0
  -25.6176  -28.0414   22.6178 C   0  0  0  0  0  0  0  0  0  0  0  0
  -26.3612  -23.8256   16.9196 C   0  0  0  0  0  0  0  0  0  0  0  0
  -25.5871  -22.6521   16.9734 C   0  0  0  0  0  0  0  0  0  0  0  0
  -25.9830  -24.8609   16.0512 C   0  0  0  0  0  0  0  0  0  0  0  0
  -24.4720  -22.5235   16.1313 C   0  0  0  0  0  0  0  0  0  0  0  0
  -24.8665  -24.7249   15.2270 C   0  0  0  0  0  0  0  0  0  0  0  0
  -24.1127  -23.5557   15.2653 C   0  0  0  0  0  0  0  0  0  0  0  0
  -24.4569  -11.7272   19.9376 C   0  0  0  0  0  0  0  0  0  0  0  0
  -27.5056  -28.0242   21.0865 C   0  0  0  0  0  0  0  0  0  0  0  0
  -23.2310   -9.8696   20.6918 C   0  0  0  0  0  0  0  0  0  0  0  0
  -22.9454   -7.7611   22.4961 C   0  0  0  0  0  0  0  0  0  0  0  0
  -22.0998   -9.7955   21.5045 C   0  0  0  0  0  0  0  0  0  0  0  0
  -27.8227  -14.2514   20.3823 C   0  0  0  0  0  0  0  0  0  0  0  0
  -29.8547  -15.0916   20.3776 C   0  0  0  0  0  0  0  0  0  0  0  0
  -29.7142  -12.7670   19.4695 C   0  0  0  0  0  0  0  0  0  0  0  0
  -23.1213  -25.8757   23.4584 C   0  0  0  0  0  0  0  0  0  0  0  0
  -22.6786  -28.7102   24.9723 C   0  0  0  0  0  0  0  0  0  0  0  0
  -23.7650  -32.1236   24.5413 C   0  0  0  0  0  0  0  0  0  0  0  0
  -27.7453  -20.8051   21.0449 C   0  0  0  0  0  0  0  0  0  0  0  0
  -19.8009  -22.1700   24.5986 C   0  0  0  0  0  0  0  0  0  0  0  0
  -25.4120  -26.2931   24.4250 C   0  0  0  0  0  0  0  0  0  0  0  0
  -27.5554  -24.0249   17.8186 C   0  0  0  0  0  0  0  0  0  0  0  0
  -25.9625  -21.4983   17.8720 C   0  0  0  0  0  0  0  0  0  0  0  0
  -24.3378  -28.6930   23.0717 C   0  0  0  0  0  0  0  0  0  0  0  0
  -19.7431  -23.6913   24.4870 C   0  0  0  0  0  0  0  0  0  0  0  0
  -28.0827  -22.7236   18.4235 C   0  0  0  0  0  0  0  0  0  0  0  0
  -29.7748  -18.7937   23.3981 C   0  0  0  0  0  0  0  0  0  0  0  0
  -20.3749  -24.1549   23.1783 C   0  0  0  0  0  0  0  0  0  0  0  0
  -29.5523  -17.3682   22.8955 C   0  0  0  0  0  0  0  0  0  0  0  0
  -28.5866  -19.6978   23.0839 C   0  0  0  0  0  0  0  0  0  0  0  0
  -27.9844  -18.2899   21.1425 C   0  0  0  0  0  0  0  0  0  0  0  0
  -26.8016  -26.8940   17.3396 C   0  0  0  0  0  0  0  0  0  0  0  0
  -28.8286  -27.3378   16.0436 C   0  0  0  0  0  0  0  0  0  0  0  0
  -26.7740  -26.1475   16.0014 C   0  0  1  0  0  0  0  0  0  0  0  0
  -21.8556  -23.7619   23.1109 C   0  0  1  0  0  0  0  0  0  0  0  0
  -23.9276  -26.6425   24.4681 C   0  0  1  0  0  0  0  0  0  0  0  0
  -28.2583  -25.9859   15.6419 C   0  0  1  0  0  0  0  0  0  0  0  0
  -29.1828  -17.3646   21.4019 C   0  0  2  0  0  0  0  0  0  0  0  0
  -26.9291  -21.8980   18.9909 C   0  0  2  0  0  0  0  0  0  0  0  0
  -23.6529  -21.2684   16.1398 C   0  0  0  0  0  0  0  0  0  0  0  0
  -24.4761  -25.8351   14.3022 C   0  0  0  0  0  0  0  0  0  0  0  0
  -22.9182  -23.4079   14.3758 C   0  0  0  0  0  0  0  0  0  0  0  0
  -28.5016  -25.6719   14.1727 C   0  0  0  0  0  0  0  0  0  0  0  0
  -24.0540  -33.9679   26.2184 C   0  0  0  0  0  0  0  0  0  0  0  0
  -29.4219  -29.6857   17.6146 C   0  0  0  0  0  0  0  0  0  0  0  0
  -19.8371  -29.4863   24.1766 C   0  0  0  0  0  0  0  0  0  0  0  0
  -20.5193  -31.8890   24.3498 C   0  0  0  0  0  0  0  0  0  0  0  0
  -20.5998  -30.4229   26.3664 C   0  0  0  0  0  0  0  0  0  0  0  0
  -27.8089  -19.5996   18.8211 C   0  0  0  0  0  0  0  0  0  0  0  0
  -26.5817  -32.5626   23.7462 C   0  0  0  0  0  0  0  0  0  0  0  0
  -27.3875  -29.2384   19.0450 C   0  0  0  0  0  0  0  0  0  1  0  0
  -22.3165  -30.1096   24.5370 C   0  0  1  0  0  0  0  0  0  0  0  0
  -24.7497  -32.8810   25.4138 C   0  0  2  0  0  0  0  0  0  0  0  0
  -28.0256  -29.0872   17.6687 C   0  0  2  0  0  0  0  0  0  0  0  0
  -20.8321  -30.4591   24.8402 C   0  0  0  0  0  0  0  0  0  0  0  0
  -27.6797  -15.4756   20.8971 N   0  0  0  0  0  0  0  0  0  0  0  0
  -28.9327  -15.9613   20.8814 N   0  0  0  0  0  0  0  0  0  0  0  0
  -23.6744  -28.0643   24.2259 N   0  0  0  0  0  0  0  0  0  0  0  0
  -28.2296  -19.6421   21.6660 N   0  0  0  0  0  0  0  0  0  0  0  0
  -31.1612  -15.4194   20.2892 N   0  0  0  0  0  0  0  0  0  0  0  0
  -28.8552  -11.6967   19.1848 N   0  0  0  0  0  0  0  0  0  0  0  0
  -22.6540  -24.6593   23.9182 N   0  0  0  0  0  0  0  0  0  0  0  0
  -23.2819  -30.9982   25.1748 N   0  0  0  0  0  0  0  0  0  0  0  0
  -27.4242  -20.7160   19.6820 N   0  0  0  0  0  0  0  0  0  0  0  0
  -28.1304  -27.6302   17.3520 N   0  3  1  0  0  0  0  0  0  0  0  0
  -25.8021  -33.5191   24.5735 N   0  3  0  0  0  0  0  0  0  0  0  0
  -30.9407  -12.6490   19.2342 O   0  0  0  0  0  0  0  0  0  0  0  0
  -22.9356  -26.3530   22.3451 O   0  0  0  0  0  0  0  0  0  0  0  0
  -22.1043  -28.2113   25.9433 O   0  0  0  0  0  0  0  0  0  0  0  0
  -23.4526  -32.4954   23.4123 O   0  0  0  0  0  0  0  0  0  0  0  0
  -27.6168  -21.8653   21.6706 O   0  0  0  0  0  0  0  0  0  0  0  0
  -23.3739  -10.9151   19.7951 O   0  0  0  0  0  0  0  0  0  0  0  0
  -28.1716  -28.5733   20.0344 O   0  0  0  0  0  0  0  0  0  1  0  0
  -22.8076   -6.7479   23.3613 F   0  0  0  0  0  0  0  0  0  0  0  0
  -21.1463  -10.7336   21.4222 F   0  0  0  0  0  0  0  0  0  0  0  0
  1  2  1  0  0  0  0
  1  5  2  0  0  0  0
  2  6  2  0  0  0  0
  3  8  2  0  0  0  0
  3 15  1  0  0  0  0
  4  9  1  0  0  0  0
  4 15  2  0  0  0  0
  5 17  1  0  0  0  0
  6 19  1  0  0  0  0
  7 10  2  0  0  0  0
  7 18  1  0  0  0  0
  8 27  1  0  0  0  0
  9 27  2  0  0  0  0
 10 28  1  0  0  0  0
 11 12  2  0  0  0  0
 11 29  1  0  0  0  0
 12 30  1  0  0  0  0
 13 20  1  0  0  0  0
 13 28  2  0  0  0  0
 14 30  2  0  0  0  0
 14 31  1  0  0  0  0
 15 32  1  0  0  0  0
 16 32  1  0  0  0  0
 16 33  2  0  0  0  0
 16 34  1  0  0  0  0
 17 19  2  0  0  0  0
 17 39  1  0  0  0  0
 18 20  2  0  0  0  0
 18 40  1  0  0  0  0
 19 54  1  0  0  0  0
 20 43  1  0  0  0  0
 21 22  1  0  0  0  0
 21 23  2  0  0  0  0
 21 41  1  0  0  0  0
 22 24  2  0  0  0  0
 22 42  1  0  0  0  0
 23 25  1  0  0  0  0
 23 53  1  0  0  0  0
 24 26  1  0  0  0  0
 24 59  1  0  0  0  0
 25 26  2  0  0  0  0
 25 60  1  0  0  0  0
 26 61  1  0  0  0  0
 27 91  1  0  0  0  0
 28 92  1  0  0  0  0
 29 31  2  0  0  0  0
 29 91  1  0  0  0  0
 30 93  1  0  0  0  0
 31 94  1  0  0  0  0
 32 75  2  0  0  0  0
 33 76  1  0  0  0  0
 33 79  1  0  0  0  0
 34 80  1  0  0  0  0
 34 86  2  0  0  0  0
 35 55  1  0  0  0  0
 35 81  1  0  0  0  0
 35 87  2  0  0  0  0
 36 71  1  0  0  0  0
 36 77  1  0  0  0  0
 36 88  2  0  0  0  0
 37 72  1  0  0  0  0
 37 82  1  0  0  0  0
 37 89  2  0  0  0  0
 38 78  1  0  0  0  0
 38 83  1  0  0  0  0
 38 90  2  0  0  0  0
 39 44  1  0  0  0  0
 40 55  1  0  0  0  0
 41 45  1  0  0  0  0
 42 58  1  0  0  0  0
 43 77  1  0  0  0  0
 44 47  1  0  0  0  0
 45 58  1  0  0  0  0
 46 48  1  0  0  0  0
 46 49  1  0  0  0  0
 47 54  1  0  0  0  0
 48 57  1  0  0  0  0
 49 78  1  0  0  0  0
 50 57  1  0  0  0  0
 50 78  1  0  0  0  0
 51 53  1  0  0  0  0
 51 84  1  0  0  0  0
 52 56  1  0  0  0  0
 52 84  1  0  0  0  0
 53 56  1  0  0  0  0
 54 81  1  0  0  0  0
 55 77  1  0  0  0  0
 56 62  1  0  0  0  0
 57 76  1  0  0  0  0
 58 83  1  0  0  0  0
 63 72  1  0  0  0  0
 64 73  1  0  0  0  0
 65 74  1  0  0  0  0
 66 74  1  0  0  0  0
 67 74  1  0  0  0  0
 68 83  1  0  0  0  0
 69 85  1  0  0  0  0
 70 73  1  0  0  0  0
 70 92  1  0  0  0  0
 71 74  1  0  0  0  0
 71 82  1  0  0  0  0
 72 85  1  0  0  0  0
 73 84  1  0  0  0  0
 75 76  1  0  0  0  0
M  CHG  2  84   1  85   1
M  ISO  4  38 100  70 101  83 100  92 101
M  END
> <Batch ID>
0163

> <Smiles>
CNC(C)C(=O)NC(C(=O)N1Cc2cc([101O:1][101CH2:1]C(C)N3CC(C)C(c4c(C)c(C)c(C)c5c4CCC([100N:0](C)[100C:0](=O)N4CCCC(n6nc(-c7ccc(Oc8ccc(F)cc8F)cc7)c(C(N)=O)c6N)C4)C5)C3)ccc2CC1C(=O)NC1CCCc2ccccc21)C(C)(C)C

> <Shape>
0.204

> <Color>
0.061

> <Negative vol penalty>
0.000

$$$$

  -OEChem-04052322173D

 89 98  0     1  0  0  0  0  0999 V2000
  -20.5802  -28.8612   23.9757 C   0  0  0  0  0  0  0  0  0  0  0  0
  -21.5238  -27.8440   24.0779 C   0  0  0  0  0  0  0  0  0  0  0  0
  -23.4361   -9.6506   19.9680 C   0  0  0  0  0  0  0  0  0  0  0  0
  -23.6035  -10.0706   22.3413 C   0  0  0  0  0  0  0  0  0  0  0  0
  -19.2782  -28.5649   23.5744 C   0  0  0  0  0  0  0  0  0  0  0  0
  -21.1656  -26.5298   23.7799 C   0  0  0  0  0  0  0  0  0  0  0  0
  -24.6954  -22.2502   21.1853 C   0  0  0  0  0  0  0  0  0  0  0  0
  -22.7169   -8.4835   20.2252 C   0  0  0  0  0  0  0  0  0  0  0  0
  -22.8843   -8.9034   22.5985 C   0  0  0  0  0  0  0  0  0  0  0  0
  -25.4387  -21.1979   21.7182 C   0  0  0  0  0  0  0  0  0  0  0  0
  -19.6554   -7.9073   22.5488 C   0  0  0  0  0  0  0  0  0  0  0  0
  -18.6356   -7.9723   23.4982 C   0  0  0  0  0  0  0  0  0  0  0  0
  -23.6060  -19.6909   21.2829 C   0  0  0  0  0  0  0  0  0  0  0  0
  -19.7590   -6.2906   24.8199 C   0  0  0  0  0  0  0  0  0  0  0  0
  -23.8794  -10.4442   21.0260 C   0  0  0  0  0  0  0  0  0  0  0  0
  -24.1034  -12.9439   20.5688 C   0  0  0  0  0  0  0  0  0  0  0  0
  -18.9065  -27.2478   23.2620 C   0  0  0  0  0  0  0  0  0  0  0  0
  -23.3955  -22.0325   20.7064 C   0  0  0  0  0  0  0  0  0  0  0  0
  -19.8571  -26.2154   23.3753 C   0  0  0  0  0  0  0  0  0  0  0  0
  -22.8493  -20.7416   20.7421 C   0  0  0  0  0  0  0  0  0  0  0  0
  -26.3323  -19.6169   26.7583 C   0  0  0  0  0  0  0  0  0  0  0  0
  -25.4353  -18.8638   25.9612 C   0  0  0  0  0  0  0  0  0  0  0  0
  -22.4410   -8.1099   21.5404 C   0  0  0  0  0  0  0  0  0  0  0  0
  -24.8929  -19.9186   21.7697 C   0  0  0  0  0  0  0  0  0  0  0  0
  -20.7270   -7.0339   22.7349 C   0  0  0  0  0  0  0  0  0  0  0  0
  -18.6874   -7.1639   24.6338 C   0  0  0  0  0  0  0  0  0  0  0  0
  -20.7788   -6.2256   23.8705 C   0  0  0  0  0  0  0  0  0  0  0  0
  -24.6229  -11.6496   20.7610 C   0  0  0  0  0  0  0  0  0  0  0  0
  -27.6082  -19.3259   26.3286 C   0  0  0  0  0  0  0  0  0  0  0  0
  -26.1904  -18.1353   25.0688 C   0  0  0  0  0  0  0  0  0  0  0  0
  -25.2093  -13.7292   20.3527 C   0  0  0  0  0  0  0  0  0  0  0  0
  -22.7428  -13.3958   20.5843 C   0  0  0  0  0  0  0  0  0  0  0  0
  -20.5076  -23.1052   21.4894 C   0  0  0  0  0  0  0  0  0  0  0  0
  -19.6057  -21.4563   18.8456 C   0  0  0  0  0  0  0  0  0  0  0  0
  -20.2557  -18.9307   16.6443 C   0  0  0  0  0  0  0  0  0  0  0  0
  -30.3242  -15.3221   21.4537 C   0  0  0  0  0  0  0  0  0  0  0  0
  -17.4748  -26.9693   22.8782 C   0  0  0  0  0  0  0  0  0  0  0  0
  -22.6169  -23.1730   20.1101 C   0  0  0  0  0  0  0  0  0  0  0  0
  -21.4657  -20.4514   20.2224 C   0  0  0  0  0  0  0  0  0  0  0  0
  -17.2748  -25.6068   22.2193 C   0  0  0  0  0  0  0  0  0  0  0  0
  -30.0301  -12.4901   19.4914 C   0  0  0  0  0  0  0  0  0  0  0  0
  -18.0024  -24.5214   23.0062 C   0  0  0  0  0  0  0  0  0  0  0  0
  -28.5548  -12.1112   19.6214 C   0  0  0  0  0  0  0  0  0  0  0  0
  -28.6497  -18.2105   23.0487 C   0  0  0  0  0  0  0  0  0  0  0  0
  -28.7684  -16.3064   24.7104 C   0  0  0  0  0  0  0  0  0  0  0  0
  -30.5988  -12.9403   20.8325 C   0  0  0  0  0  0  0  0  0  0  0  0
  -29.8190  -17.5894   22.2884 C   0  0  0  0  0  0  0  0  0  0  0  0
  -29.9357  -15.7299   23.9145 C   0  0  0  0  0  0  0  0  0  0  0  0
  -28.3742  -13.7088   21.5910 C   0  0  0  0  0  0  0  0  0  0  0  0
  -19.5134  -24.7811   23.0367 C   0  0  1  0  0  0  0  0  0  0  0  0
  -21.1095  -22.9384   20.1228 C   0  0  1  0  0  0  0  0  0  0  0  0
  -27.7457  -13.2549   20.2584 C   0  0  2  0  0  0  0  0  0  0  0  0
  -28.6817  -17.8334   24.5399 C   0  0  0  0  0  0  0  0  0  0  0  0
  -25.9690  -20.5452   27.8489 C   0  0  0  0  0  0  0  0  0  0  0  0
  -28.9130  -19.8297   26.8078 C   0  0  0  0  0  0  0  0  0  0  0  0
  -23.3299  -20.2382   25.7831 C   0  0  0  0  0  0  0  0  0  0  0  0
  -23.4584  -18.3374   27.4340 C   0  0  0  0  0  0  0  0  0  0  0  0
  -25.0336  -15.9528   24.5893 C   0  0  0  0  0  0  0  0  0  0  0  0
  -19.3173  -17.8006   14.6097 C   0  0  0  0  0  0  0  0  0  0  0  0
  -17.5466  -20.0318   20.5895 C   0  0  0  0  0  0  0  0  0  0  0  0
  -17.3204  -18.3052   18.7906 C   0  0  0  0  0  0  0  0  0  0  0  0
  -16.7213  -20.6805   18.3196 C   0  0  0  0  0  0  0  0  0  0  0  0
  -22.6267  -19.6327   15.0182 C   0  0  0  0  0  0  0  0  0  0  0  0
  -24.8866  -17.8360   22.9181 C   0  0  0  0  0  0  0  0  0  1  0  0
  -23.9617  -18.8564   26.0676 C   0  0  0  0  0  0  0  0  0  0  0  0
  -25.7693  -17.1866   24.0157 C   0  0  1  0  0  0  0  0  0  0  0  0
  -19.1548  -20.0422   18.5696 C   0  0  1  0  0  0  0  0  0  0  0  0
  -20.2447  -18.8893   15.1269 C   0  0  2  0  0  0  0  0  0  0  0  0
  -17.7111  -19.7705   19.0790 C   0  0  0  0  0  0  0  0  0  0  0  0
  -25.9552  -11.6107   20.6744 N   0  0  0  0  0  0  0  0  0  0  0  0
  -27.5098  -18.4239   25.3015 N   0  0  0  0  0  0  0  0  0  0  0  0
  -26.2822  -12.8902   20.4254 N   0  0  0  0  0  0  0  0  0  0  0  0
  -20.7416  -21.6006   19.6546 N   0  0  0  0  0  0  0  0  0  0  0  0
  -29.7994  -14.0216   21.4080 N   0  0  0  0  0  0  0  0  0  0  0  0
  -29.8894  -16.1450   22.5058 N   0  0  0  0  0  0  0  0  0  0  0  0
  -25.3590  -15.0486   20.1094 N   0  0  0  0  0  0  0  0  0  0  0  0
  -21.7295  -12.4569   20.8212 N   0  0  0  0  0  0  0  0  0  0  0  0
  -20.1174  -24.3990   21.7782 N   0  0  0  0  0  0  0  0  0  0  0  0
  -19.3332  -19.8290   17.1375 N   0  0  0  0  0  0  0  0  0  0  0  0
  -21.6158  -18.6253   14.6059 N   0  3  0  0  0  0  0  0  0  0  0  0
  -22.4336  -14.5938   20.3775 O   0  0  0  0  0  0  0  0  0  0  0  0
  -20.4035  -22.1319   22.2267 O   0  0  0  0  0  0  0  0  0  0  0  0
  -18.9774  -22.3979   18.3553 O   0  0  0  0  0  0  0  0  0  0  0  0
  -21.0050  -18.2329   17.3243 O   0  0  0  0  0  0  0  0  0  0  0  0
  -31.1276  -15.7277   20.6047 O   0  0  0  0  0  0  0  0  0  0  0  0
  -21.7390   -6.9712   21.7918 O   0  0  0  0  0  0  0  0  0  0  0  0
  -25.6208  -18.8831   22.2934 O   0  0  0  0  0  0  0  0  0  1  0  0
  -17.7088   -7.2275   25.5462 F   0  0  0  0  0  0  0  0  0  0  0  0
  -21.8063   -5.3855   24.0553 F   0  0  0  0  0  0  0  0  0  0  0  0
  1  2  1  0  0  0  0
  1  5  2  0  0  0  0
  2  6  2  0  0  0  0
  3  8  2  0  0  0  0
  3 15  1  0  0  0  0
  4  9  1  0  0  0  0
  4 15  2  0  0  0  0
  5 17  1  0  0  0  0
  6 19  1  0  0  0  0
  7 10  2  0  0  0  0
  7 18  1  0  0  0  0
  8 23  1  0  0  0  0
  9 23  2  0  0  0  0
 10 24  1  0  0  0  0
 11 12  2  0  0  0  0
 11 25  1  0  0  0  0
 12 26  1  0  0  0  0
 13 20  1  0  0  0  0
 13 24  2  0  0  0  0
 14 26  2  0  0  0  0
 14 27  1  0  0  0  0
 15 28  1  0  0  0  0
 16 28  1  0  0  0  0
 16 31  2  0  0  0  0
 16 32  1  0  0  0  0
 17 19  2  0  0  0  0
 17 37  1  0  0  0  0
 18 20  2  0  0  0  0
 18 38  1  0  0  0  0
 19 50  1  0  0  0  0
 20 39  1  0  0  0  0
 21 22  1  0  0  0  0
 21 29  2  0  0  0  0
 21 54  1  0  0  0  0
 22 30  2  0  0  0  0
 22 65  1  0  0  0  0
 23 86  1  0  0  0  0
 24 87  1  0  0  0  0
 25 27  2  0  0  0  0
 25 86  1  0  0  0  0
 26 88  1  0  0  0  0
 27 89  1  0  0  0  0
 28 70  2  0  0  0  0
 29 55  1  0  0  0  0
 29 71  1  0  0  0  0
 30 66  1  0  0  0  0
 30 71  1  0  0  0  0
 31 72  1  0  0  0  0
 31 76  1  0  0  0  0
 32 77  1  0  0  0  0
 32 81  2  0  0  0  0
 33 51  1  0  0  0  0
 33 78  1  0  0  0  0
 33 82  2  0  0  0  0
 34 67  1  0  0  0  0
 34 73  1  0  0  0  0
 34 83  2  0  0  0  0
 35 68  1  0  0  0  0
 35 79  1  0  0  0  0
 35 84  2  0  0  0  0
 36 74  1  0  0  0  0
 36 75  1  0  0  0  0
 36 85  2  0  0  0  0
 37 40  1  0  0  0  0
 38 51  1  0  0  0  0
 39 73  1  0  0  0  0
 40 42  1  0  0  0  0
 41 43  1  0  0  0  0
 41 46  1  0  0  0  0
 42 50  1  0  0  0  0
 43 52  1  0  0  0  0
 44 47  1  0  0  0  0
 44 53  1  0  0  0  0
 45 48  1  0  0  0  0
 45 53  1  0  0  0  0
 46 74  1  0  0  0  0
 47 75  1  0  0  0  0
 48 75  1  0  0  0  0
 49 52  1  0  0  0  0
 49 74  1  0  0  0  0
 50 78  1  0  0  0  0
 51 73  1  0  0  0  0
 52 72  1  0  0  0  0
 53 71  1  0  0  0  0
 56 65  1  0  0  0  0
 57 65  1  0  0  0  0
 58 66  1  0  0  0  0
 59 68  1  0  0  0  0
 60 69  1  0  0  0  0
 61 69  1  0  0  0  0
 62 69  1  0  0  0  0
 63 80  1  0  0  0  0
 64 66  1  0  0  0  0
 64 87  1  0  0  0  0
 67 69  1  0  0  0  0
 67 79  1  0  0  0  0
 68 80  1  0  0  0  0
 70 72  1  0  0  0  0
M  CHG  1  80   1
M  ISO  4  36 100  64 101  75 100  87 101
M  END
> <Batch ID>
0163

> <Smiles>
CNC(C)C(=O)NC(C(=O)N1Cc2cc([101O:1][101CH2:1]C(C)c3c(C(C)C)c(C)c(C)n3C3CC[100N:0]([100C:0](=O)N4CCCC(n5nc(-c6ccc(Oc7ccc(F)cc7F)cc6)c(C(N)=O)c5N)C4)CC3)ccc2CC1C(=O)NC1CCCc2ccccc21)C(C)(C)C

> <Shape>
0.187

> <Color>
0.153

> <Negative vol penalty>
0.000

$$$$

  -OEChem-04052322173D

 88 99  0     1  0  0  0  0  0999 V2000
  -18.8045  -24.8744   21.6968 C   0  0  0  0  0  0  0  0  0  0  0  0
  -20.0697  -25.0934   21.1614 C   0  0  0  0  0  0  0  0  0  0  0  0
  -26.6519  -11.2606   21.1482 C   0  0  0  0  0  0  0  0  0  0  0  0
  -25.6167  -12.7849   19.5856 C   0  0  0  0  0  0  0  0  0  0  0  0
  -18.0304  -25.9548   22.1180 C   0  0  0  0  0  0  0  0  0  0  0  0
  -20.5612  -26.3933   21.0459 C   0  0  0  0  0  0  0  0  0  0  0  0
  -25.3720  -26.7942   22.5757 C   0  0  0  0  0  0  0  0  0  0  0  0
  -25.4035  -10.7104   21.4386 C   0  0  0  0  0  0  0  0  0  0  0  0
  -24.3682  -12.2346   19.8759 C   0  0  0  0  0  0  0  0  0  0  0  0
  -26.3588  -26.3507   21.6964 C   0  0  0  0  0  0  0  0  0  0  0  0
  -23.2597   -8.5125   20.0223 C   0  0  0  0  0  0  0  0  0  0  0  0
  -23.1614   -7.1223   20.0792 C   0  0  0  0  0  0  0  0  0  0  0  0
  -30.6710  -22.2118   18.3365 C   0  0  0  0  0  0  0  0  0  0  0  0
  -26.7718  -28.6292   21.0202 C   0  0  0  0  0  0  0  0  0  0  0  0
  -22.4356   -7.2678   22.3790 C   0  0  0  0  0  0  0  0  0  0  0  0
  -26.7585  -12.2979   20.2218 C   0  0  0  0  0  0  0  0  0  0  0  0
  -28.9478  -12.4533   18.9216 C   0  0  0  0  0  0  0  0  0  0  0  0
  -18.5166  -27.2678   22.0166 C   0  0  0  0  0  0  0  0  0  0  0  0
  -25.0696  -28.1598   22.6761 C   0  0  0  0  0  0  0  0  0  0  0  0
  -19.7924  -27.4924   21.4650 C   0  0  0  0  0  0  0  0  0  0  0  0
  -30.2558  -21.5117   17.2038 C   0  0  0  0  0  0  0  0  0  0  0  0
  -25.7825  -29.0877   21.9034 C   0  0  0  0  0  0  0  0  0  0  0  0
  -29.2771  -22.0522   16.3697 C   0  0  0  0  0  0  0  0  0  0  0  0
  -29.1288  -23.9928   17.8012 C   0  0  0  0  0  0  0  0  0  0  0  0
  -30.1075  -23.4523   18.6353 C   0  0  0  0  0  0  0  0  0  0  0  0
  -28.7135  -23.2927   16.6684 C   0  0  0  0  0  0  0  0  0  0  0  0
  -24.2617  -11.1974   20.8024 C   0  0  0  0  0  0  0  0  0  0  0  0
  -27.0569  -27.2680   20.9163 C   0  0  0  0  0  0  0  0  0  0  0  0
  -22.9460   -9.2804   21.1437 C   0  0  0  0  0  0  0  0  0  0  0  0
  -22.7494   -6.4999   21.2576 C   0  0  0  0  0  0  0  0  0  0  0  0
  -22.5340   -8.6580   22.3221 C   0  0  0  0  0  0  0  0  0  0  0  0
  -28.0477  -12.8671   19.9218 C   0  0  0  0  0  0  0  0  0  0  0  0
  -30.0160  -13.3077   19.0461 C   0  0  0  0  0  0  0  0  0  0  0  0
  -28.8289  -11.3916   17.9654 C   0  0  0  0  0  0  0  0  0  0  0  0
  -22.4865  -29.9310   22.1341 C   0  0  0  0  0  0  0  0  0  0  0  0
  -24.3199  -32.2931   23.3917 C   0  0  0  0  0  0  0  0  0  0  0  0
  -27.4452  -33.4919   24.0565 C   0  0  0  0  0  0  0  0  0  0  0  0
  -31.9149  -18.5766   19.7197 C   0  0  0  0  0  0  0  0  0  0  0  0
  -17.6243  -28.4071   22.4416 C   0  0  0  0  0  0  0  0  0  0  0  0
  -24.0209  -28.6246   23.6490 C   0  0  0  0  0  0  0  0  0  0  0  0
  -25.5099  -30.5665   21.9887 C   0  0  0  0  0  0  0  0  0  0  0  0
  -18.3691  -29.7260   22.6311 C   0  0  0  0  0  0  0  0  0  0  0  0
  -31.1992  -16.6230   22.6473 C   0  0  0  0  0  0  0  0  0  0  0  0
  -27.3726  -20.9908   14.9840 C   0  0  0  0  0  0  0  0  0  0  0  0
  -28.3293  -19.8897   15.3192 C   0  0  0  0  0  0  0  0  0  0  0  0
  -19.3056  -29.9841   21.4550 C   0  0  0  0  0  0  0  0  0  0  0  0
  -30.3455  -15.4692   22.1312 C   0  0  0  0  0  0  0  0  0  0  0  0
  -27.0304  -25.4334   18.2455 C   0  0  0  0  0  0  0  0  0  0  0  0
  -30.9123  -17.9013   21.8712 C   0  0  0  0  0  0  0  0  0  0  0  0
  -32.2998  -19.7566   17.4933 C   0  0  0  0  0  0  0  0  0  0  0  0
  -30.3857  -18.8362   17.6164 C   0  0  0  0  0  0  0  0  0  0  0  0
  -30.3069  -16.5976   19.8495 C   0  0  0  0  0  0  0  0  0  0  0  0
  -30.9179  -20.0935   16.8843 C   0  0  0  0  0  0  0  0  0  0  0  0
  -28.8351  -21.2970   15.1570 C   0  0  0  0  0  0  0  0  0  0  0  0
  -28.5257  -25.3232   18.1244 C   0  0  1  0  0  0  0  0  0  0  0  0
  -20.3703  -28.8859   21.3464 C   0  0  1  0  0  0  0  0  0  0  0  0
  -23.4397  -29.9898   23.2941 C   0  0  1  0  0  0  0  0  0  0  0  0
  -30.5485  -15.2845   20.6205 C   0  0  2  0  0  0  0  0  0  0  0  0
  -27.8847  -25.5214   19.4731 C   0  0  1  0  0  0  0  0  0  1  0  0
  -30.5714  -24.1800   19.8551 C   0  0  0  0  0  0  0  0  0  0  0  0
  -27.6633  -23.8720   15.7734 C   0  0  0  0  0  0  0  0  0  0  0  0
  -28.6256  -35.4665   25.0592 C   0  0  0  0  0  0  0  0  0  0  0  0
  -23.7241  -33.9212   20.8809 C   0  0  0  0  0  0  0  0  0  0  0  0
  -25.6354  -35.4214   21.4844 C   0  0  0  0  0  0  0  0  0  0  0  0
  -23.6714  -35.2312   23.0106 C   0  0  0  0  0  0  0  0  0  0  0  0
  -28.7134  -31.8207   26.1440 C   0  0  0  0  0  0  0  0  0  0  0  0
  -25.2951  -33.3013   22.8337 C   0  0  1  0  0  0  0  0  0  0  0  0
  -28.0505  -34.0825   25.3172 C   0  0  2  0  0  0  0  0  0  0  0  0
  -24.5856  -34.4408   22.0491 C   0  0  0  0  0  0  0  0  0  0  0  0
  -28.5044  -13.9037   20.6296 N   0  0  0  0  0  0  0  0  0  0  0  0
  -29.7031  -14.1484   20.0735 N   0  0  0  0  0  0  0  0  0  0  0  0
  -24.4708  -30.9709   22.9501 N   0  0  0  0  0  0  0  0  0  0  0  0
  -31.0681  -17.7147   20.4256 N   0  0  0  0  0  0  0  0  0  0  0  0
  -31.5994  -18.8705   18.4126 N   0  0  0  0  0  0  0  0  0  0  0  0
  -31.1830  -13.4144   18.3759 N   0  0  0  0  0  0  0  0  0  0  0  0
  -27.6653  -10.6105   17.9756 N   0  0  0  0  0  0  0  0  0  0  0  0
  -21.4088  -29.0894   22.3336 N   0  0  0  0  0  0  0  0  0  0  0  0
  -26.0964  -33.7622   23.9624 N   0  0  0  0  0  0  0  0  0  0  0  0
  -29.1435  -33.2068   25.8264 N   0  3  0  0  0  0  0  0  0  0  0  0
  -29.7351  -11.1325   17.1376 O   0  0  0  0  0  0  0  0  0  0  0  0
  -22.7112  -30.6009   21.1329 O   0  0  0  0  0  0  0  0  0  0  0  0
  -23.4606  -32.6635   24.1954 O   0  0  0  0  0  0  0  0  0  0  0  0
  -28.1040  -32.8578   23.2352 O   0  0  0  0  0  0  0  0  0  0  0  0
  -32.9074  -19.0947   20.2484 O   0  0  0  0  0  0  0  0  0  0  0  0
  -23.0434  -10.6605   21.0853 O   0  0  0  0  0  0  0  0  0  0  0  0
  -28.0341  -26.8315   20.0443 O   0  0  0  0  0  0  0  0  0  1  0  0
  -22.6535   -5.1650   21.3116 F   0  0  0  0  0  0  0  0  0  0  0  0
  -22.2301   -9.3905   23.4023 F   0  0  0  0  0  0  0  0  0  0  0  0
  1  2  1  0  0  0  0
  1  5  2  0  0  0  0
  2  6  2  0  0  0  0
  3  8  2  0  0  0  0
  3 16  1  0  0  0  0
  4  9  1  0  0  0  0
  4 16  2  0  0  0  0
  5 18  1  0  0  0  0
  6 20  1  0  0  0  0
  7 10  2  0  0  0  0
  7 19  1  0  0  0  0
  8 27  1  0  0  0  0
  9 27  2  0  0  0  0
 10 28  1  0  0  0  0
 11 12  2  0  0  0  0
 11 29  1  0  0  0  0
 12 30  1  0  0  0  0
 13 21  1  0  0  0  0
 13 25  2  0  0  0  0
 14 22  1  0  0  0  0
 14 28  2  0  0  0  0
 15 30  2  0  0  0  0
 15 31  1  0  0  0  0
 16 32  1  0  0  0  0
 17 32  1  0  0  0  0
 17 33  2  0  0  0  0
 17 34  1  0  0  0  0
 18 20  2  0  0  0  0
 18 39  1  0  0  0  0
 19 22  2  0  0  0  0
 19 40  1  0  0  0  0
 20 56  1  0  0  0  0
 21 23  2  0  0  0  0
 21 53  1  0  0  0  0
 22 41  1  0  0  0  0
 23 26  1  0  0  0  0
 23 54  1  0  0  0  0
 24 25  1  0  0  0  0
 24 26  2  0  0  0  0
 24 55  1  0  0  0  0
 25 60  1  0  0  0  0
 26 61  1  0  0  0  0
 27 85  1  0  0  0  0
 28 86  1  0  0  0  0
 29 31  2  0  0  0  0
 29 85  1  0  0  0  0
 30 87  1  0  0  0  0
 31 88  1  0  0  0  0
 32 70  2  0  0  0  0
 33 71  1  0  0  0  0
 33 75  1  0  0  0  0
 34 76  1  0  0  0  0
 34 80  2  0  0  0  0
 35 57  1  0  0  0  0
 35 77  1  0  0  0  0
 35 81  2  0  0  0  0
 36 67  1  0  0  0  0
 36 72  1  0  0  0  0
 36 82  2  0  0  0  0
 37 68  1  0  0  0  0
 37 78  1  0  0  0  0
 37 83  2  0  0  0  0
 38 73  1  0  0  0  0
 38 74  1  0  0  0  0
 38 84  2  0  0  0  0
 39 42  1  0  0  0  0
 40 57  1  0  0  0  0
 41 72  1  0  0  0  0
 42 46  1  0  0  0  0
 43 47  1  0  0  0  0
 43 49  1  0  0  0  0
 44 45  1  0  0  0  0
 44 54  1  0  0  0  0
 45 54  1  0  0  0  0
 46 56  1  0  0  0  0
 47 58  1  0  0  0  0
 48 55  1  0  0  0  0
 48 59  1  0  0  0  0
 49 73  1  0  0  0  0
 50 53  1  0  0  0  0
 50 74  1  0  0  0  0
 51 53  1  0  0  0  0
 51 74  1  0  0  0  0
 52 58  1  0  0  0  0
 52 73  1  0  0  0  0
 55 59  1  0  0  0  0
 56 77  1  0  0  0  0
 57 72  1  0  0  0  0
 58 71  1  0  0  0  0
 59 86  1  0  0  0  0
 62 68  1  0  0  0  0
 63 69  1  0  0  0  0
 64 69  1  0  0  0  0
 65 69  1  0  0  0  0
 66 79  1  0  0  0  0
 67 69  1  0  0  0  0
 67 78  1  0  0  0  0
 68 79  1  0  0  0  0
 70 71  1  0  0  0  0
M  CHG  1  79   1
M  ISO  4  38 100  59 101  74 100  86 101
M  END
> <Batch ID>
0163

> <Smiles>
CNC(C)C(=O)NC(C(=O)N1Cc2cc([101O:1][101CH:1]3CC3c3c(C)cc(C4C[100N:0]([100C:0](=O)N5CCCC(n6nc(-c7ccc(Oc8ccc(F)cc8F)cc7)c(C(N)=O)c6N)C5)C4)c(C4CC4)c3C)ccc2CC1C(=O)NC1CCCc2ccccc21)C(C)(C)C

> <Shape>
0.341

> <Color>
0.097

> <Negative vol penalty>
0.000

$$$$

  -OEChem-04052322173D

 85 94  0     1  0  0  0  0  0999 V2000
  -17.0021  -28.4428   24.5143 C   0  0  0  0  0  0  0  0  0  0  0  0
  -17.7682  -27.4808   23.8638 C   0  0  0  0  0  0  0  0  0  0  0  0
  -28.2886  -11.0700   22.9165 C   0  0  0  0  0  0  0  0  0  0  0  0
  -26.8039  -12.6174   21.8038 C   0  0  0  0  0  0  0  0  0  0  0  0
  -17.1975  -29.7945   24.2339 C   0  0  0  0  0  0  0  0  0  0  0  0
  -18.7295  -27.8700   22.9316 C   0  0  0  0  0  0  0  0  0  0  0  0
  -23.1116  -25.3994   23.5130 C   0  0  0  0  0  0  0  0  0  0  0  0
  -27.1982  -10.2711   23.2606 C   0  0  0  0  0  0  0  0  0  0  0  0
  -25.7134  -11.8186   22.1479 C   0  0  0  0  0  0  0  0  0  0  0  0
  -23.1768  -24.0950   23.0249 C   0  0  0  0  0  0  0  0  0  0  0  0
  -24.2785   -8.9605   21.0556 C   0  0  0  0  0  0  0  0  0  0  0  0
  -23.3289   -8.7021   20.0672 C   0  0  0  0  0  0  0  0  0  0  0  0
  -26.3025  -21.0246   19.9508 C   0  0  0  0  0  0  0  0  0  0  0  0
  -24.3154  -24.8957   21.0547 C   0  0  0  0  0  0  0  0  0  0  0  0
  -21.6267   -9.7417   21.4307 C   0  0  0  0  0  0  0  0  0  0  0  0
  -28.0914  -12.2432   22.1882 C   0  0  0  0  0  0  0  0  0  0  0  0
  -30.0008  -12.9824   20.6665 C   0  0  0  0  0  0  0  0  0  0  0  0
  -18.1684  -30.2009   23.3050 C   0  0  0  0  0  0  0  0  0  0  0  0
  -23.6390  -26.4648   22.7694 C   0  0  0  0  0  0  0  0  0  0  0  0
  -18.9372  -29.2284   22.6376 C   0  0  0  0  0  0  0  0  0  0  0  0
  -26.0569  -20.6657   21.2761 C   0  0  0  0  0  0  0  0  0  0  0  0
  -24.2579  -26.2123   21.5368 C   0  0  0  0  0  0  0  0  0  0  0  0
  -27.6031  -21.3100   19.5351 C   0  0  0  0  0  0  0  0  0  0  0  0
  -27.1118  -20.5924   22.1858 C   0  0  0  0  0  0  0  0  0  0  0  0
  -28.6580  -21.2366   20.4447 C   0  0  0  0  0  0  0  0  0  0  0  0
  -28.4124  -20.8778   21.7701 C   0  0  0  0  0  0  0  0  0  0  0  0
  -25.9106  -10.6454   22.8763 C   0  0  0  0  0  0  0  0  0  0  0  0
  -23.7761  -23.8434   21.7942 C   0  0  0  0  0  0  0  0  0  0  0  0
  -23.9022   -9.6095   22.2316 C   0  0  0  0  0  0  0  0  0  0  0  0
  -22.0030   -9.0927   20.2547 C   0  0  0  0  0  0  0  0  0  0  0  0
  -22.5764  -10.0001   22.4191 C   0  0  0  0  0  0  0  0  0  0  0  0
  -29.2174  -13.0691   21.8329 C   0  0  0  0  0  0  0  0  0  0  0  0
  -30.9349  -13.9798   20.8053 C   0  0  0  0  0  0  0  0  0  0  0  0
  -29.8937  -12.0810   19.5567 C   0  0  0  0  0  0  0  0  0  0  0  0
  -22.4321  -29.0909   21.4462 C   0  0  0  0  0  0  0  0  0  0  0  0
  -25.5492  -29.7420   20.8279 C   0  0  0  0  0  0  0  0  0  0  0  0
  -28.7189  -28.5639   20.3676 C   0  0  0  0  0  0  0  0  0  0  0  0
  -30.9843  -19.1215   23.8730 C   0  0  0  0  0  0  0  0  0  0  0  0
  -18.3107  -31.6711   23.0001 C   0  0  0  0  0  0  0  0  0  0  0  0
  -23.5845  -27.8626   23.3222 C   0  0  0  0  0  0  0  0  0  0  0  0
  -24.8573  -27.3186   20.7090 C   0  0  0  0  0  0  0  0  0  0  0  0
  -19.6081  -32.0200   22.2753 C   0  0  0  0  0  0  0  0  0  0  0  0
  -33.3140  -16.4430   24.1464 C   0  0  0  0  0  0  0  0  0  0  0  0
  -19.8545  -31.0492   21.1248 C   0  0  0  0  0  0  0  0  0  0  0  0
  -32.5990  -15.2668   23.4793 C   0  0  0  0  0  0  0  0  0  0  0  0
  -24.3635  -18.9823   22.2460 C   0  0  0  0  0  0  0  0  0  0  0  0
  -23.8747  -19.3530   20.8808 C   0  0  0  0  0  0  0  0  0  0  0  0
  -32.3404  -17.3312   24.9180 C   0  0  0  0  0  0  0  0  0  0  0  0
  -30.4730  -16.6375   23.4670 C   0  0  0  0  0  0  0  0  0  0  0  0
  -20.0068  -29.6124   21.6384 C   0  0  1  0  0  0  0  0  0  0  0  0
  -23.6959  -28.9363   22.2441 C   0  0  1  0  0  0  0  0  0  0  0  0
  -31.4054  -15.7446   22.6305 C   0  0  2  0  0  0  0  0  0  0  0  0
  -24.6590  -20.3659   21.6955 C   0  0  0  0  0  0  0  0  0  0  0  0
  -27.8396  -21.6907   18.1102 C   0  0  0  0  0  0  0  0  0  0  0  0
  -26.8477  -20.2071   23.6073 C   0  0  0  0  0  0  0  0  0  0  0  0
  -30.0519  -21.5418   19.9952 C   0  0  0  0  0  0  0  0  0  0  0  0
  -31.0487  -29.3324   19.8396 C   0  0  0  0  0  0  0  0  0  0  0  0
  -24.7625  -30.1090   17.9028 C   0  0  0  0  0  0  0  0  0  0  0  0
  -27.1858  -29.9265   17.3006 C   0  0  0  0  0  0  0  0  0  0  0  0
  -26.4024  -31.7909   18.7610 C   0  0  0  0  0  0  0  0  0  0  0  0
  -29.7655  -27.5342   22.9373 C   0  0  0  0  0  0  0  0  0  0  0  0
  -29.5448  -20.7989   22.7447 C   0  0  0  0  0  0  0  0  0  0  0  0
  -23.9138  -21.5185   22.2756 C   0  0  0  0  0  0  0  0  0  1  0  0
  -26.4991  -29.4429   19.6934 C   0  0  1  0  0  0  0  0  0  0  0  0
  -30.0520  -29.0086   20.9416 C   0  0  2  0  0  0  0  0  0  0  0  0
  -26.1995  -30.2965   18.4289 C   0  0  0  0  0  0  0  0  0  0  0  0
  -29.6189  -14.0444   22.6524 N   0  0  0  0  0  0  0  0  0  0  0  0
  -30.6649  -14.5796   22.0001 N   0  0  0  0  0  0  0  0  0  0  0  0
  -24.7736  -28.6690   21.2894 N   0  0  0  0  0  0  0  0  0  0  0  0
  -31.2330  -17.7512   24.0560 N   0  0  0  0  0  0  0  0  0  0  0  0
  -31.9527  -14.3933   20.0208 N   0  0  0  0  0  0  0  0  0  0  0  0
  -28.8766  -11.1169   19.5747 N   0  0  0  0  0  0  0  0  0  0  0  0
  -21.3237  -29.4151   22.2051 N   0  0  0  0  0  0  0  0  0  0  0  0
  -27.8442  -29.6209   20.2296 N   0  0  0  0  0  0  0  0  0  0  0  0
  -29.9201  -19.4332   23.0357 N   0  0  0  0  0  0  0  0  0  0  0  0
  -30.6309  -27.9354   21.7984 N   0  3  0  0  0  0  0  0  0  0  0  0
  -30.6870  -12.1184   18.5857 O   0  0  0  0  0  0  0  0  0  0  0  0
  -22.4607  -28.9296   20.2318 O   0  0  0  0  0  0  0  0  0  0  0  0
  -25.5023  -30.8838   21.2923 O   0  0  0  0  0  0  0  0  0  0  0  0
  -28.4789  -27.3964   20.0679 O   0  0  0  0  0  0  0  0  0  0  0  0
  -31.6639  -20.0020   24.4114 O   0  0  0  0  0  0  0  0  0  0  0  0
  -24.8463   -9.8660   23.2117 O   0  0  0  0  0  0  0  0  0  0  0  0
  -23.8405  -22.5713   21.3151 O   0  0  0  0  0  0  0  0  0  1  0  0
  -21.0915   -8.8459   19.3047 F   0  0  0  0  0  0  0  0  0  0  0  0
  -22.2092  -10.6249   23.5463 F   0  0  0  0  0  0  0  0  0  0  0  0
  1  2  1  0  0  0  0
  1  5  2  0  0  0  0
  2  6  2  0  0  0  0
  3  8  2  0  0  0  0
  3 16  1  0  0  0  0
  4  9  1  0  0  0  0
  4 16  2  0  0  0  0
  5 18  1  0  0  0  0
  6 20  1  0  0  0  0
  7 10  2  0  0  0  0
  7 19  1  0  0  0  0
  8 27  1  0  0  0  0
  9 27  2  0  0  0  0
 10 28  1  0  0  0  0
 11 12  2  0  0  0  0
 11 29  1  0  0  0  0
 12 30  1  0  0  0  0
 13 21  1  0  0  0  0
 13 23  2  0  0  0  0
 14 22  1  0  0  0  0
 14 28  2  0  0  0  0
 15 30  2  0  0  0  0
 15 31  1  0  0  0  0
 16 32  1  0  0  0  0
 17 32  1  0  0  0  0
 17 33  2  0  0  0  0
 17 34  1  0  0  0  0
 18 20  2  0  0  0  0
 18 39  1  0  0  0  0
 19 22  2  0  0  0  0
 19 40  1  0  0  0  0
 20 50  1  0  0  0  0
 21 24  2  0  0  0  0
 21 53  1  0  0  0  0
 22 41  1  0  0  0  0
 23 25  1  0  0  0  0
 23 54  1  0  0  0  0
 24 26  1  0  0  0  0
 24 55  1  0  0  0  0
 25 26  2  0  0  0  0
 25 56  1  0  0  0  0
 26 62  1  0  0  0  0
 27 82  1  0  0  0  0
 28 83  1  0  0  0  0
 29 31  2  0  0  0  0
 29 82  1  0  0  0  0
 30 84  1  0  0  0  0
 31 85  1  0  0  0  0
 32 67  2  0  0  0  0
 33 68  1  0  0  0  0
 33 71  1  0  0  0  0
 34 72  1  0  0  0  0
 34 77  2  0  0  0  0
 35 51  1  0  0  0  0
 35 73  1  0  0  0  0
 35 78  2  0  0  0  0
 36 64  1  0  0  0  0
 36 69  1  0  0  0  0
 36 79  2  0  0  0  0
 37 65  1  0  0  0  0
 37 74  1  0  0  0  0
 37 80  2  0  0  0  0
 38 70  1  0  0  0  0
 38 75  1  0  0  0  0
 38 81  2  0  0  0  0
 39 42  1  0  0  0  0
 40 51  1  0  0  0  0
 41 69  1  0  0  0  0
 42 44  1  0  0  0  0
 43 45  1  0  0  0  0
 43 48  1  0  0  0  0
 44 50  1  0  0  0  0
 45 52  1  0  0  0  0
 46 47  1  0  0  0  0
 46 53  1  0  0  0  0
 47 53  1  0  0  0  0
 48 70  1  0  0  0  0
 49 52  1  0  0  0  0
 49 70  1  0  0  0  0
 50 73  1  0  0  0  0
 51 69  1  0  0  0  0
 52 68  1  0  0  0  0
 53 63  1  0  0  0  0
 57 65  1  0  0  0  0
 58 66  1  0  0  0  0
 59 66  1  0  0  0  0
 60 66  1  0  0  0  0
 61 76  1  0  0  0  0
 62 75  1  0  0  0  0
 63 83  1  0  0  0  0
 64 66  1  0  0  0  0
 64 74  1  0  0  0  0
 65 76  1  0  0  0  0
 67 68  1  0  0  0  0
M  CHG  1  76   1
M  ISO  4  38 100  63 101  75 100  83 101
M  END
> <Batch ID>
0163

> <Smiles>
CNC(C)C(=O)NC(C(=O)N1Cc2cc([101O:1][101CH2:1]C3(c4cc(C)c(C)c(C[100NH:0][100C:0](=O)N5CCCC(n6nc(-c7ccc(Oc8ccc(F)cc8F)cc7)c(C(N)=O)c6N)C5)c4C)CC3)ccc2CC1C(=O)NC1CCCc2ccccc21)C(C)(C)C

> <Shape>
0.227

> <Color>
0.084

> <Negative vol penalty>
0.000

$$$$

  -OEChem-04052322173D

 88 98  0     1  0  0  0  0  0999 V2000
  -29.8642  -31.6582   13.2443 C   0  0  0  0  0  0  0  0  0  0  0  0
  -30.0990  -31.0519   14.4742 C   0  0  0  0  0  0  0  0  0  0  0  0
  -22.9827  -10.0154   19.9378 C   0  0  0  0  0  0  0  0  0  0  0  0
  -24.0697   -9.5460   22.0437 C   0  0  0  0  0  0  0  0  0  0  0  0
  -28.8689  -32.6272   13.1247 C   0  0  0  0  0  0  0  0  0  0  0  0
  -29.3391  -31.4151   15.5856 C   0  0  0  0  0  0  0  0  0  0  0  0
  -27.7779  -27.4109   18.2641 C   0  0  0  0  0  0  0  0  0  0  0  0
  -22.2739   -8.8182   20.0367 C   0  0  0  0  0  0  0  0  0  0  0  0
  -23.3609   -8.3487   22.1427 C   0  0  0  0  0  0  0  0  0  0  0  0
  -28.7092  -26.8066   19.1073 C   0  0  0  0  0  0  0  0  0  0  0  0
  -20.2491   -7.3633   23.0180 C   0  0  0  0  0  0  0  0  0  0  0  0
  -19.6712   -7.0540   24.2492 C   0  0  0  0  0  0  0  0  0  0  0  0
  -27.7526  -27.9729   20.9898 C   0  0  0  0  0  0  0  0  0  0  0  0
  -32.1088  -20.9175   22.1133 C   0  0  0  0  0  0  0  0  0  0  0  0
  -20.9909   -5.0334   24.3610 C   0  0  0  0  0  0  0  0  0  0  0  0
  -23.8806  -10.3793   20.9413 C   0  0  0  0  0  0  0  0  0  0  0  0
  -24.2220  -12.8784   21.3232 C   0  0  0  0  0  0  0  0  0  0  0  0
  -28.0900  -32.9955   14.2330 C   0  0  0  0  0  0  0  0  0  0  0  0
  -26.8322  -28.3107   18.7766 C   0  0  0  0  0  0  0  0  0  0  0  0
  -28.3333  -32.3909   15.4810 C   0  0  0  0  0  0  0  0  0  0  0  0
  -26.8087  -28.5854   20.1514 C   0  0  0  0  0  0  0  0  0  0  0  0
  -31.0042  -23.0661   22.1136 C   0  0  0  0  0  0  0  0  0  0  0  0
  -32.1528  -22.2984   21.9218 C   0  0  0  0  0  0  0  0  0  0  0  0
  -29.8113  -22.4529   22.4969 C   0  0  0  0  0  0  0  0  0  0  0  0
  -29.7673  -21.0719   22.6883 C   0  0  0  0  0  0  0  0  0  0  0  0
  -30.9160  -20.3042   22.4965 C   0  0  0  0  0  0  0  0  0  0  0  0
  -22.4630   -7.9848   21.1392 C   0  0  0  0  0  0  0  0  0  0  0  0
  -28.6986  -27.0898   20.4700 C   0  0  0  0  0  0  0  0  0  0  0  0
  -21.1979   -6.5077   22.4582 C   0  0  0  0  0  0  0  0  0  0  0  0
  -20.0421   -5.8890   24.9207 C   0  0  0  0  0  0  0  0  0  0  0  0
  -21.5688   -5.3427   23.1297 C   0  0  0  0  0  0  0  0  0  0  0  0
  -24.6135  -11.6157   20.8394 C   0  0  0  0  0  0  0  0  0  0  0  0
  -25.2554  -13.7143   20.9771 C   0  0  0  0  0  0  0  0  0  0  0  0
  -23.0307  -13.2614   22.0230 C   0  0  0  0  0  0  0  0  0  0  0  0
  -26.1807  -31.3869   18.3114 C   0  0  0  0  0  0  0  0  0  0  0  0
  -23.6502  -30.7407   20.2352 C   0  0  0  0  0  0  0  0  0  0  0  0
  -22.2853  -28.7673   22.6621 C   0  0  0  0  0  0  0  0  0  0  0  0
  -30.7159  -14.7987   20.5874 C   0  0  0  0  0  0  0  0  0  0  0  0
  -27.0573  -34.0818   14.0657 C   0  0  0  0  0  0  0  0  0  0  0  0
  -25.8172  -28.9337   17.8578 C   0  0  0  0  0  0  0  0  0  0  0  0
  -25.8011  -29.5285   20.7545 C   0  0  0  0  0  0  0  0  0  0  0  0
  -26.0446  -34.1404   15.2064 C   0  0  0  0  0  0  0  0  0  0  0  0
  -29.2221  -12.9584   17.9307 C   0  0  0  0  0  0  0  0  0  0  0  0
  -26.7541  -34.0640   16.5546 C   0  0  0  0  0  0  0  0  0  0  0  0
  -27.8610  -12.5442   18.4927 C   0  0  0  0  0  0  0  0  0  0  0  0
  -30.7382  -16.8321   23.7282 C   0  0  0  0  0  0  0  0  0  0  0  0
  -31.5486  -25.0814   20.5911 C   0  0  0  0  0  0  0  0  0  0  0  0
  -30.3067  -12.9369   19.0055 C   0  0  0  0  0  0  0  0  0  0  0  0
  -31.1743  -18.2795   23.9548 C   0  0  0  0  0  0  0  0  0  0  0  0
  -28.6342  -13.3065   20.7774 C   0  0  0  0  0  0  0  0  0  0  0  0
  -30.5586  -17.9738   21.6341 C   0  0  0  0  0  0  0  0  0  0  0  0
  -31.0531  -24.5335   21.9090 C   0  0  1  0  0  0  0  0  0  0  0  0
  -27.5134  -32.7401   16.7041 C   0  0  1  0  0  0  0  0  0  0  0  0
  -25.2283  -30.2288   18.4085 C   0  0  1  0  0  0  0  0  0  0  0  0
  -27.4969  -13.3668   19.7433 C   0  0  2  0  0  0  0  0  0  0  0  0
  -30.9796  -16.6330   22.2381 C   0  0  2  0  0  0  0  0  0  0  0  0
  -30.0930  -25.1766   20.9324 C   0  0  1  0  0  0  0  0  0  1  0  0
  -33.4440  -22.9286   21.5120 C   0  0  0  0  0  0  0  0  0  0  0  0
  -28.5779  -23.2753   22.7025 C   0  0  0  0  0  0  0  0  0  0  0  0
  -28.4869  -20.4147   23.0990 C   0  0  0  0  0  0  0  0  0  0  0  0
  -20.2167  -28.5095   24.0593 C   0  0  0  0  0  0  0  0  0  0  0  0
  -24.5443  -33.0748   21.9852 C   0  0  0  0  0  0  0  0  0  0  0  0
  -23.0660  -32.1887   23.8013 C   0  0  0  0  0  0  0  0  0  0  0  0
  -22.0730  -32.9215   21.6334 C   0  0  0  0  0  0  0  0  0  0  0  0
  -21.7247  -26.0846   21.5449 C   0  0  0  0  0  0  0  0  0  0  0  0
  -23.4033  -30.7734   21.7242 C   0  0  1  0  0  0  0  0  0  0  0  0
  -20.9237  -28.1056   22.7748 C   0  0  2  0  0  0  0  0  0  0  0  0
  -23.2920  -32.2233   22.2747 C   0  0  0  0  0  0  0  0  0  0  0  0
  -25.8028  -11.6423   20.2320 N   0  0  0  0  0  0  0  0  0  0  0  0
  -26.1674  -12.9320   20.3318 N   0  0  0  0  0  0  0  0  0  0  0  0
  -30.8924  -18.9382   22.6810 N   0  0  3  0  0  0  0  0  0  0  0  0
  -24.8334  -30.1174   19.8141 N   0  0  0  0  0  0  0  0  0  0  0  0
  -29.9000  -13.7369   20.1633 N   0  0  0  0  0  0  0  0  0  0  0  0
  -25.4638  -15.0348   21.1647 N   0  0  0  0  0  0  0  0  0  0  0  0
  -22.0715  -12.2772   22.2979 N   0  0  0  0  0  0  0  0  0  0  0  0
  -26.5980  -31.6658   17.0240 N   0  0  0  0  0  0  0  0  0  0  0  0
  -22.2208  -29.9523   21.9601 N   0  0  0  0  0  0  0  0  0  0  0  0
  -30.2540  -15.5097   21.6883 N   0  0  0  0  0  0  0  0  0  0  0  0
  -21.0660  -26.6222   22.7631 N   0  3  0  0  0  0  0  0  0  0  0  0
  -22.8154  -14.4448   22.3792 O   0  0  0  0  0  0  0  0  0  0  0  0
  -26.5113  -31.9842   19.3291 O   0  0  0  0  0  0  0  0  0  0  0  0
  -22.8202  -31.2430   19.4734 O   0  0  0  0  0  0  0  0  0  0  0  0
  -23.3036  -28.2833   23.1513 O   0  0  0  0  0  0  0  0  0  0  0  0
  -31.7748  -15.0948   20.0233 O   0  0  0  0  0  0  0  0  0  0  0  0
  -21.7713   -6.8166   21.2362 O   0  0  0  0  0  0  0  0  0  0  0  0
  -29.6069  -26.5018   21.2952 O   0  0  0  0  0  0  0  0  0  1  0  0
  -19.4881   -5.5929   26.1038 F   0  0  0  0  0  0  0  0  0  0  0  0
  -22.4807   -4.5174   22.5975 F   0  0  0  0  0  0  0  0  0  0  0  0
  1  2  1  0  0  0  0
  1  5  2  0  0  0  0
  2  6  2  0  0  0  0
  3  8  2  0  0  0  0
  3 16  1  0  0  0  0
  4  9  1  0  0  0  0
  4 16  2  0  0  0  0
  5 18  1  0  0  0  0
  6 20  1  0  0  0  0
  7 10  2  0  0  0  0
  7 19  1  0  0  0  0
  8 27  1  0  0  0  0
  9 27  2  0  0  0  0
 10 28  1  0  0  0  0
 11 12  2  0  0  0  0
 11 29  1  0  0  0  0
 12 30  1  0  0  0  0
 13 21  1  0  0  0  0
 13 28  2  0  0  0  0
 14 23  2  0  0  0  0
 14 26  1  0  0  0  0
 15 30  2  0  0  0  0
 15 31  1  0  0  0  0
 16 32  1  0  0  0  0
 17 32  1  0  0  0  0
 17 33  2  0  0  0  0
 17 34  1  0  0  0  0
 18 20  2  0  0  0  0
 18 39  1  0  0  0  0
 19 21  2  0  0  0  0
 19 40  1  0  0  0  0
 20 53  1  0  0  0  0
 21 41  1  0  0  0  0
 22 23  1  0  0  0  0
 22 24  2  0  0  0  0
 22 52  1  0  0  0  0
 23 58  1  0  0  0  0
 24 25  1  0  0  0  0
 24 59  1  0  0  0  0
 25 26  2  0  0  0  0
 25 60  1  0  0  0  0
 26 71  1  0  0  0  0
 27 85  1  0  0  0  0
 28 86  1  0  0  0  0
 29 31  2  0  0  0  0
 29 85  1  0  0  0  0
 30 87  1  0  0  0  0
 31 88  1  0  0  0  0
 32 69  2  0  0  0  0
 33 70  1  0  0  0  0
 33 74  1  0  0  0  0
 34 75  1  0  0  0  0
 34 80  2  0  0  0  0
 35 54  1  0  0  0  0
 35 76  1  0  0  0  0
 35 81  2  0  0  0  0
 36 66  1  0  0  0  0
 36 72  1  0  0  0  0
 36 82  2  0  0  0  0
 37 67  1  0  0  0  0
 37 77  1  0  0  0  0
 37 83  2  0  0  0  0
 38 73  1  0  0  0  0
 38 78  1  0  0  0  0
 38 84  2  0  0  0  0
 39 42  1  0  0  0  0
 40 54  1  0  0  0  0
 41 72  1  0  0  0  0
 42 44  1  0  0  0  0
 43 45  1  0  0  0  0
 43 48  1  0  0  0  0
 44 53  1  0  0  0  0
 45 55  1  0  0  0  0
 46 49  1  0  0  0  0
 46 56  1  0  0  0  0
 47 52  1  0  0  0  0
 47 57  1  0  0  0  0
 48 73  1  0  0  0  0
 49 71  1  0  0  0  0
 50 55  1  0  0  0  0
 50 73  1  0  0  0  0
 51 56  1  0  0  0  0
 51 71  1  0  0  0  0
 52 57  1  0  0  0  0
 53 76  1  0  0  0  0
 54 72  1  0  0  0  0
 55 70  1  0  0  0  0
 56 78  1  0  0  0  0
 57 86  1  0  0  0  0
 61 67  1  0  0  0  0
 62 68  1  0  0  0  0
 63 68  1  0  0  0  0
 64 68  1  0  0  0  0
 65 79  1  0  0  0  0
 66 68  1  0  0  0  0
 66 77  1  0  0  0  0
 67 79  1  0  0  0  0
 69 70  1  0  0  0  0
M  CHG  1  79   1
M  ISO  4  38 100  57 101  78 100  86 101
M  END
> <Batch ID>
0163

> <Smiles>
CNC(C)C(=O)NC(C(=O)N1Cc2cc([101O:1][101CH:1]3CC3c3c(C)cc(N4CCC([100NH:0][100C:0](=O)N5CCCC(n6nc(-c7ccc(Oc8ccc(F)cc8F)cc7)c(C(N)=O)c6N)C5)C4)c(C)c3C)ccc2CC1C(=O)NC1CCCc2ccccc21)C(C)(C)C

> <Shape>
0.315

> <Color>
0.187

> <Negative vol penalty>
0.000

$$$$

  -OEChem-04052322173D

 93103  0     1  0  0  0  0  0999 V2000
  -26.6422  -33.8588   25.7827 C   0  0  0  0  0  0  0  0  0  0  0  0
  -27.0764  -32.7018   25.1438 C   0  0  0  0  0  0  0  0  0  0  0  0
  -26.3311  -13.3675   21.1815 C   0  0  0  0  0  0  0  0  0  0  0  0
  -26.7452  -13.2426   18.8046 C   0  0  0  0  0  0  0  0  0  0  0  0
  -25.3132  -33.9726   26.1889 C   0  0  0  0  0  0  0  0  0  0  0  0
  -26.1822  -31.6574   24.9117 C   0  0  0  0  0  0  0  0  0  0  0  0
  -26.5811  -29.7620   20.2326 C   0  0  0  0  0  0  0  0  0  0  0  0
  -25.8844  -12.0462   21.1732 C   0  0  0  0  0  0  0  0  0  0  0  0
  -26.2985  -11.9212   18.7962 C   0  0  0  0  0  0  0  0  0  0  0  0
  -27.6454  -28.8962   19.9850 C   0  0  0  0  0  0  0  0  0  0  0  0
  -23.0753  -10.3724   20.3179 C   0  0  0  0  0  0  0  0  0  0  0  0
  -21.9037  -10.0807   21.0164 C   0  0  0  0  0  0  0  0  0  0  0  0
  -26.1593  -27.0110   20.2232 C   0  0  0  0  0  0  0  0  0  0  0  0
  -23.1217   -8.5290   22.4113 C   0  0  0  0  0  0  0  0  0  0  0  0
  -26.7614  -13.9658   19.9972 C   0  0  0  0  0  0  0  0  0  0  0  0
  -28.5400  -15.7820   20.2107 C   0  0  0  0  0  0  0  0  0  0  0  0
  -24.4000  -32.9329   25.9530 C   0  0  0  0  0  0  0  0  0  0  0  0
  -25.2980  -29.2576   20.4886 C   0  0  0  0  0  0  0  0  0  0  0  0
  -24.8401  -31.7568   25.3163 C   0  0  0  0  0  0  0  0  0  0  0  0
  -25.0799  -27.8726   20.4712 C   0  0  0  0  0  0  0  0  0  0  0  0
  -30.7467  -26.1741   19.2288 C   0  0  0  0  0  0  0  0  0  0  0  0
  -31.2327  -25.3966   20.2740 C   0  0  0  0  0  0  0  0  0  0  0  0
  -31.1902  -25.9411   17.9318 C   0  0  0  0  0  0  0  0  0  0  0  0
  -25.8681  -11.3230   19.9806 C   0  0  0  0  0  0  0  0  0  0  0  0
  -27.4352  -27.5204   19.9831 C   0  0  0  0  0  0  0  0  0  0  0  0
  -24.2701   -9.7423   20.6660 C   0  0  0  0  0  0  0  0  0  0  0  0
  -21.9269   -9.1590   22.0631 C   0  0  0  0  0  0  0  0  0  0  0  0
  -24.2932   -8.8206   21.7128 C   0  0  0  0  0  0  0  0  0  0  0  0
  -27.2225  -15.3309   20.0051 C   0  0  0  0  0  0  0  0  0  0  0  0
  -32.1537  -24.4064   19.9720 C   0  0  0  0  0  0  0  0  0  0  0  0
  -32.1133  -24.9267   17.7346 C   0  0  0  0  0  0  0  0  0  0  0  0
  -28.4523  -17.1499   20.1227 C   0  0  0  0  0  0  0  0  0  0  0  0
  -30.1020  -22.5807   17.0551 C   0  0  0  0  0  0  0  0  0  0  0  0
  -29.7363  -15.0317   20.4590 C   0  0  0  0  0  0  0  0  0  0  0  0
  -23.2875  -29.3839   22.9474 C   0  0  0  0  0  0  0  0  0  0  0  0
  -21.2770  -27.9019   20.8776 C   0  0  0  0  0  0  0  0  0  0  0  0
  -20.8964  -25.9558   18.1001 C   0  0  0  0  0  0  0  0  0  0  0  0
  -26.5420  -21.7524   17.6101 C   0  0  0  0  0  0  0  0  0  0  0  0
  -22.9848  -33.0825   26.4525 C   0  0  0  0  0  0  0  0  0  0  0  0
  -24.1550  -30.2058   20.7275 C   0  0  0  0  0  0  0  0  0  0  0  0
  -23.7173  -27.2812   20.7202 C   0  0  0  0  0  0  0  0  0  0  0  0
  -22.0115  -32.0823   25.8340 C   0  0  0  0  0  0  0  0  0  0  0  0
  -31.9933  -23.5543   13.3819 C   0  0  0  0  0  0  0  0  0  0  0  0
  -24.4101  -20.1881   19.9944 C   0  0  0  0  0  0  0  0  0  0  0  0
  -22.6057  -30.6775   25.8532 C   0  0  0  0  0  0  0  0  0  0  0  0
  -25.0568  -18.8206   20.2217 C   0  0  0  0  0  0  0  0  0  0  0  0
  -30.5254  -23.1454   13.4913 C   0  0  0  0  0  0  0  0  0  0  0  0
  -32.8214  -22.9155   14.4990 C   0  0  0  0  0  0  0  0  0  0  0  0
  -28.6363  -22.8029   15.1763 C   0  0  0  0  0  0  0  0  0  0  0  0
  -24.5352  -20.6369   18.5401 C   0  0  0  0  0  0  0  0  0  0  0  0
  -26.5564  -19.2606   18.2326 C   0  0  0  0  0  0  0  0  0  0  0  0
  -23.8942  -30.6121   25.0245 C   0  0  1  0  0  0  0  0  0  0  0  0
  -28.6344  -22.7306   16.7024 C   0  0  1  0  0  0  0  0  0  0  0  0
  -22.9957  -29.5653   21.4847 C   0  0  1  0  0  0  0  0  0  0  0  0
  -26.5048  -18.7908   19.6965 C   0  0  2  0  0  0  0  0  0  0  0  0
  -29.9657  -23.4813   14.8692 C   0  0  1  0  0  0  0  0  0  0  0  0
  -32.2705  -23.2176   15.8996 C   0  0  1  0  0  0  0  0  0  0  0  0
  -30.7749  -25.6219   21.6761 C   0  0  0  0  0  0  0  0  0  0  0  0
  -30.6877  -26.7581   16.7888 C   0  0  0  0  0  0  0  0  0  0  0  0
  -32.7114  -23.5390   21.0526 C   0  0  0  0  0  0  0  0  0  0  0  0
  -34.1480  -24.8511   16.2486 C   0  0  0  0  0  0  0  0  0  0  0  0
  -19.1331  -24.8804   16.6747 C   0  0  0  0  0  0  0  0  0  0  0  0
  -20.8691  -25.7546   23.0067 C   0  0  0  0  0  0  0  0  0  0  0  0
  -19.9024  -24.2770   21.2317 C   0  0  0  0  0  0  0  0  0  0  0  0
  -18.7874  -26.4352   21.7991 C   0  0  0  0  0  0  0  0  0  0  0  0
  -21.7321  -27.4858   15.7084 C   0  0  0  0  0  0  0  0  0  0  0  0
  -29.7494  -27.2620   19.4993 C   0  0  0  0  0  0  0  0  0  1  0  0
  -32.6288  -24.6305   16.3642 C   0  0  2  0  0  0  0  0  0  0  0  0
  -20.9720  -26.4657   20.5268 C   0  0  1  0  0  0  0  0  0  0  0  0
  -20.0086  -26.1072   16.8780 C   0  0  2  0  0  0  0  0  0  0  0  0
  -20.1589  -25.7439   21.6383 C   0  0  0  0  0  0  0  0  0  0  0  0
  -26.3608  -16.3310   19.8019 N   0  0  0  0  0  0  0  0  0  0  0  0
  -32.6081  -24.1506   18.7247 N   0  0  0  0  0  0  0  0  0  0  0  0
  -27.1386  -17.4242   19.8795 N   0  0  0  0  0  0  0  0  0  0  0  0
  -30.8231  -23.0192   15.9435 N   0  0  0  0  0  0  0  0  0  0  0  0
  -22.6331  -28.2491   20.9551 N   0  0  0  0  0  0  0  0  0  0  0  0
  -25.9329  -20.5872   18.1044 N   0  0  0  0  0  0  0  0  0  0  0  0
  -29.3714  -18.1327   20.2304 N   0  0  0  0  0  0  0  0  0  0  0  0
  -29.6483  -13.6342   20.5179 N   0  0  0  0  0  0  0  0  0  0  0  0
  -23.5844  -30.5586   23.6118 N   0  0  0  0  0  0  0  0  0  0  0  0
  -20.3112  -26.4946   19.2264 N   0  0  0  0  0  0  0  0  0  0  0  0
  -27.8704  -21.6197   17.2249 N   0  0  0  0  0  0  0  0  0  0  0  0
  -20.8387  -26.3000   15.6554 N   0  3  0  0  0  0  0  0  0  0  0  0
  -30.5396  -22.1992   18.1304 O   0  0  0  0  0  0  0  0  0  0  0  0
  -30.8474  -15.5851   20.6401 O   0  0  0  0  0  0  0  0  0  0  0  0
  -23.2448  -28.2615   23.4373 O   0  0  0  0  0  0  0  0  0  0  0  0
  -20.3462  -28.6885   21.0687 O   0  0  0  0  0  0  0  0  0  0  0  0
  -21.9972  -25.4107   18.0603 O   0  0  0  0  0  0  0  0  0  0  0  0
  -25.9476  -22.8323   17.5238 O   0  0  0  0  0  0  0  0  0  0  0  0
  -25.4325  -10.0335   19.9721 O   0  0  0  0  0  0  0  0  0  0  0  0
  -28.4725  -26.6730   19.7423 O   0  0  0  0  0  0  0  0  0  1  0  0
  -20.8020   -8.8802   22.7348 F   0  0  0  0  0  0  0  0  0  0  0  0
  -25.4383   -8.2130   22.0526 F   0  0  0  0  0  0  0  0  0  0  0  0
  1  2  1  0  0  0  0
  1  5  2  0  0  0  0
  2  6  2  0  0  0  0
  3  8  2  0  0  0  0
  3 15  1  0  0  0  0
  4  9  1  0  0  0  0
  4 15  2  0  0  0  0
  5 17  1  0  0  0  0
  6 19  1  0  0  0  0
  7 10  2  0  0  0  0
  7 18  1  0  0  0  0
  8 24  1  0  0  0  0
  9 24  2  0  0  0  0
 10 25  1  0  0  0  0
 11 12  2  0  0  0  0
 11 26  1  0  0  0  0
 12 27  1  0  0  0  0
 13 20  1  0  0  0  0
 13 25  2  0  0  0  0
 14 27  2  0  0  0  0
 14 28  1  0  0  0  0
 15 29  1  0  0  0  0
 16 29  1  0  0  0  0
 16 32  2  0  0  0  0
 16 34  1  0  0  0  0
 17 19  2  0  0  0  0
 17 39  1  0  0  0  0
 18 20  2  0  0  0  0
 18 40  1  0  0  0  0
 19 52  1  0  0  0  0
 20 41  1  0  0  0  0
 21 22  1  0  0  0  0
 21 23  2  0  0  0  0
 21 67  1  0  0  0  0
 22 30  2  0  0  0  0
 22 58  1  0  0  0  0
 23 31  1  0  0  0  0
 23 59  1  0  0  0  0
 24 90  1  0  0  0  0
 25 91  1  0  0  0  0
 26 28  2  0  0  0  0
 26 90  1  0  0  0  0
 27 92  1  0  0  0  0
 28 93  1  0  0  0  0
 29 72  2  0  0  0  0
 30 60  1  0  0  0  0
 30 73  1  0  0  0  0
 31 68  1  0  0  0  0
 31 73  2  0  0  0  0
 32 74  1  0  0  0  0
 32 78  1  0  0  0  0
 33 53  1  0  0  0  0
 33 75  1  0  0  0  0
 33 84  2  0  0  0  0
 34 79  1  0  0  0  0
 34 85  2  0  0  0  0
 35 54  1  0  0  0  0
 35 80  1  0  0  0  0
 35 86  2  0  0  0  0
 36 69  1  0  0  0  0
 36 76  1  0  0  0  0
 36 87  2  0  0  0  0
 37 70  1  0  0  0  0
 37 81  1  0  0  0  0
 37 88  2  0  0  0  0
 38 77  1  0  0  0  0
 38 82  1  0  0  0  0
 38 89  2  0  0  0  0
 39 42  1  0  0  0  0
 40 54  1  0  0  0  0
 41 76  1  0  0  0  0
 42 45  1  0  0  0  0
 43 47  1  0  0  0  0
 43 48  1  0  0  0  0
 44 46  1  0  0  0  0
 44 50  1  0  0  0  0
 45 52  1  0  0  0  0
 46 55  1  0  0  0  0
 47 56  1  0  0  0  0
 48 57  1  0  0  0  0
 49 53  1  0  0  0  0
 49 56  1  0  0  0  0
 50 77  1  0  0  0  0
 51 55  1  0  0  0  0
 51 77  1  0  0  0  0
 52 80  1  0  0  0  0
 53 82  1  0  0  0  0
 54 76  1  0  0  0  0
 55 74  1  0  0  0  0
 56 75  1  0  0  0  0
 57 68  1  0  0  0  0
 57 75  1  0  0  0  0
 61 68  1  0  0  0  0
 62 70  1  0  0  0  0
 63 71  1  0  0  0  0
 64 71  1  0  0  0  0
 65 71  1  0  0  0  0
 66 83  1  0  0  0  0
 67 91  1  0  0  0  0
 69 71  1  0  0  0  0
 69 81  1  0  0  0  0
 70 83  1  0  0  0  0
 72 74  1  0  0  0  0
M  CHG  1  83   1
M  ISO  4  38 100  67 101  82 100  91 101
M  END
> <Batch ID>
0163

> <Smiles>
CNC(C)C(=O)NC(C(=O)N1Cc2cc([101O:1][101CH2:1]c3c(C)c(C)nc(C(C)C4CCCC5CC([100NH:0][100C:0](=O)N6CCCC(n7nc(-c8ccc(Oc9ccc(F)cc9F)cc8)c(C(N)=O)c7N)C6)C(=O)N54)c3C)ccc2CC1C(=O)NC1CCCc2ccccc21)C(C)(C)C

> <Shape>
0.271

> <Color>
0.078

> <Negative vol penalty>
0.000

$$$$

  -OEChem-04052322173D

 84 93  0     1  0  0  0  0  0999 V2000
  -28.4735  -36.5959   26.3971 C   0  0  0  0  0  0  0  0  0  0  0  0
  -29.1139  -35.8579   25.4069 C   0  0  0  0  0  0  0  0  0  0  0  0
  -24.5382   -9.7446   19.8054 C   0  0  0  0  0  0  0  0  0  0  0  0
  -24.6910   -9.9041   22.2113 C   0  0  0  0  0  0  0  0  0  0  0  0
  -27.4950  -35.9964   27.1889 C   0  0  0  0  0  0  0  0  0  0  0  0
  -28.7769  -34.5194   25.2085 C   0  0  0  0  0  0  0  0  0  0  0  0
  -28.2388  -29.6072   20.0223 C   0  0  0  0  0  0  0  0  0  0  0  0
  -29.1540  -22.2546   18.0287 C   0  0  0  0  0  0  0  0  0  0  0  0
  -24.2852   -8.3771   19.9121 C   0  0  0  0  0  0  0  0  0  0  0  0
  -24.4379   -8.5365   22.3180 C   0  0  0  0  0  0  0  0  0  0  0  0
  -28.6667  -28.3171   19.7122 C   0  0  0  0  0  0  0  0  0  0  0  0
  -23.4746   -5.1549   23.2426 C   0  0  0  0  0  0  0  0  0  0  0  0
  -22.5562   -4.7378   24.2060 C   0  0  0  0  0  0  0  0  0  0  0  0
  -28.8556  -23.5953   18.2451 C   0  0  0  0  0  0  0  0  0  0  0  0
  -26.9051  -27.4087   21.0872 C   0  0  0  0  0  0  0  0  0  0  0  0
  -20.8387   -6.0630   23.1424 C   0  0  0  0  0  0  0  0  0  0  0  0
  -24.7412  -10.5081   20.9550 C   0  0  0  0  0  0  0  0  0  0  0  0
  -24.0567  -12.9627   20.8366 C   0  0  0  0  0  0  0  0  0  0  0  0
  -27.1389  -34.6526   26.9938 C   0  0  0  0  0  0  0  0  0  0  0  0
  -27.1457  -29.8083   20.8774 C   0  0  0  0  0  0  0  0  0  0  0  0
  -27.7936  -33.9009   25.9994 C   0  0  0  0  0  0  0  0  0  0  0  0
  -30.3989  -21.7569   18.3974 C   0  0  0  0  0  0  0  0  0  0  0  0
  -26.4637  -28.7023   21.4046 C   0  0  0  0  0  0  0  0  0  0  0  0
  -24.2350   -7.7730   21.1684 C   0  0  0  0  0  0  0  0  0  0  0  0
  -28.0017  -27.2176   20.2469 C   0  0  0  0  0  0  0  0  0  0  0  0
  -23.0751   -6.0261   22.2291 C   0  0  0  0  0  0  0  0  0  0  0  0
  -21.2382   -5.1918   24.1559 C   0  0  0  0  0  0  0  0  0  0  0  0
  -21.7571   -6.4801   22.1790 C   0  0  0  0  0  0  0  0  0  0  0  0
  -25.0032  -11.9207   20.8454 C   0  0  0  0  0  0  0  0  0  0  0  0
  -29.8288  -24.3903   18.8287 C   0  0  0  0  0  0  0  0  0  0  0  0
  -31.3031  -22.6343   18.9740 C   0  0  0  0  0  0  0  0  0  0  0  0
  -24.8066  -14.1068   20.7140 C   0  0  0  0  0  0  0  0  0  0  0  0
  -22.6273  -12.9019   20.9310 C   0  0  0  0  0  0  0  0  0  0  0  0
  -26.7345  -31.2083   23.7013 C   0  0  0  0  0  0  0  0  0  0  0  0
  -23.6060  -30.5765   23.1221 C   0  0  0  0  0  0  0  0  0  0  0  0
  -21.2879  -28.6737   21.4934 C   0  0  0  0  0  0  0  0  0  0  0  0
  -28.9684  -16.6040   17.8789 C   0  0  0  0  0  0  0  0  0  0  0  0
  -26.1088  -34.0347   27.9058 C   0  0  0  0  0  0  0  0  0  0  0  0
  -26.6799  -31.2059   21.1808 C   0  0  0  0  0  0  0  0  0  0  0  0
  -25.2721  -28.8640   22.3114 C   0  0  0  0  0  0  0  0  0  0  0  0
  -25.5446  -32.7163   27.3826 C   0  0  0  0  0  0  0  0  0  0  0  0
  -29.7849  -14.8560   21.0865 C   0  0  0  0  0  0  0  0  0  0  0  0
  -26.6707  -31.8087   26.8978 C   0  0  0  0  0  0  0  0  0  0  0  0
  -28.5515  -13.9708   21.2568 C   0  0  0  0  0  0  0  0  0  0  0  0
  -30.4029  -19.4256   19.3897 C   0  0  0  0  0  0  0  0  0  0  0  0
  -30.0393  -19.7404   16.9041 C   0  0  0  0  0  0  0  0  0  0  0  0
  -30.0658  -15.1369   19.6150 C   0  0  0  0  0  0  0  0  0  0  0  0
  -30.7100  -17.9473   19.1349 C   0  0  0  0  0  0  0  0  0  0  0  0
  -30.3798  -18.2661   16.7060 C   0  0  0  0  0  0  0  0  0  0  0  0
  -27.6725  -14.8587   19.0501 C   0  0  0  0  0  0  0  0  0  0  0  0
  -30.7308  -20.2953   18.1627 C   0  0  0  0  0  0  0  0  0  0  0  0
  -27.4381  -32.4535   25.7373 C   0  0  1  0  0  0  0  0  0  0  0  0
  -25.8742  -31.2999   22.4729 C   0  0  1  0  0  0  0  0  0  0  0  0
  -27.3397  -14.5700   20.5231 C   0  0  1  0  0  0  0  0  0  0  0  0
  -32.6542  -22.1548   19.3928 C   0  0  0  0  0  0  0  0  0  0  0  0
  -18.8089  -28.3693   21.2497 C   0  0  0  0  0  0  0  0  0  0  0  0
  -23.5108  -29.1953   25.8411 C   0  0  0  0  0  0  0  0  0  0  0  0
  -21.3630  -28.1165   25.1400 C   0  0  0  0  0  0  0  0  0  0  0  0
  -21.5103  -30.6006   25.3142 C   0  0  0  0  0  0  0  0  0  0  0  0
  -21.3811  -29.2791   18.5979 C   0  0  0  0  0  0  0  0  0  0  0  0
  -29.5418  -25.8336   19.0771 C   0  0  0  0  0  0  0  0  0  1  0  0
  -22.6781  -29.4204   23.4076 C   0  0  1  0  0  0  0  0  0  0  0  0
  -20.0508  -29.0535   20.6998 C   0  0  2  0  0  0  0  0  0  0  0  0
  -22.2892  -29.3298   24.9102 C   0  0  0  0  0  0  0  0  0  0  0  0
  -26.2587  -12.3636   20.7368 N   0  0  0  0  0  0  0  0  0  0  0  0
  -31.0492  -23.9428   19.2001 N   0  0  0  0  0  0  0  0  0  0  0  0
  -26.1062  -13.6965   20.6586 N   0  0  0  0  0  0  0  0  0  0  0  0
  -24.8588  -30.2506   22.5834 N   0  0  0  0  0  0  0  0  0  0  0  0
  -28.8829  -15.6739   18.9284 N   0  0  0  0  0  0  0  0  0  0  0  0
  -30.0584  -17.4869   17.9015 N   0  0  0  0  0  0  0  0  0  0  0  0
  -24.4747  -15.4137   20.6492 N   0  0  0  0  0  0  0  0  0  0  0  0
  -22.0186  -11.6453   21.0522 N   0  0  0  0  0  0  0  0  0  0  0  0
  -26.6883  -32.3310   24.5056 N   0  0  0  0  0  0  0  0  0  0  0  0
  -21.5427  -29.5757   22.5047 N   0  0  0  0  0  0  0  0  0  0  0  0
  -20.2106  -28.6599   19.2714 N   0  3  0  0  0  0  0  0  0  0  0  0
  -21.9101  -13.9303   20.8920 O   0  0  0  0  0  0  0  0  0  0  0  0
  -27.3905  -30.1935   23.9052 O   0  0  0  0  0  0  0  0  0  0  0  0
  -23.2303  -31.7268   23.3612 O   0  0  0  0  0  0  0  0  0  0  0  0
  -21.9587  -27.6747   21.2437 O   0  0  0  0  0  0  0  0  0  0  0  0
  -28.1198  -16.6444   16.9794 O   0  0  0  0  0  0  0  0  0  0  0  0
  -23.9878   -6.4387   21.2729 O   0  0  0  0  0  0  0  0  0  0  0  0
  -28.4207  -25.9485   19.9442 O   0  0  0  0  0  0  0  0  0  1  0  0
  -20.3560   -4.7900   25.0803 F   0  0  0  0  0  0  0  0  0  0  0  0
  -21.3671   -7.3162   21.2071 F   0  0  0  0  0  0  0  0  0  0  0  0
  1  2  1  0  0  0  0
  1  5  2  0  0  0  0
  2  6  2  0  0  0  0
  3  9  2  0  0  0  0
  3 17  1  0  0  0  0
  4 10  1  0  0  0  0
  4 17  2  0  0  0  0
  5 19  1  0  0  0  0
  6 21  1  0  0  0  0
  7 11  2  0  0  0  0
  7 20  1  0  0  0  0
  8 14  2  0  0  0  0
  8 22  1  0  0  0  0
  9 24  1  0  0  0  0
 10 24  2  0  0  0  0
 11 25  1  0  0  0  0
 12 13  2  0  0  0  0
 12 26  1  0  0  0  0
 13 27  1  0  0  0  0
 14 30  1  0  0  0  0
 15 23  1  0  0  0  0
 15 25  2  0  0  0  0
 16 27  2  0  0  0  0
 16 28  1  0  0  0  0
 17 29  1  0  0  0  0
 18 29  1  0  0  0  0
 18 32  2  0  0  0  0
 18 33  1  0  0  0  0
 19 21  2  0  0  0  0
 19 38  1  0  0  0  0
 20 23  2  0  0  0  0
 20 39  1  0  0  0  0
 21 52  1  0  0  0  0
 22 31  2  0  0  0  0
 22 51  1  0  0  0  0
 23 40  1  0  0  0  0
 24 81  1  0  0  0  0
 25 82  1  0  0  0  0
 26 28  2  0  0  0  0
 26 81  1  0  0  0  0
 27 83  1  0  0  0  0
 28 84  1  0  0  0  0
 29 65  2  0  0  0  0
 30 61  1  0  0  0  0
 30 66  2  0  0  0  0
 31 55  1  0  0  0  0
 31 66  1  0  0  0  0
 32 67  1  0  0  0  0
 32 71  1  0  0  0  0
 33 72  1  0  0  0  0
 33 76  2  0  0  0  0
 34 53  1  0  0  0  0
 34 73  1  0  0  0  0
 34 77  2  0  0  0  0
 35 62  1  0  0  0  0
 35 68  1  0  0  0  0
 35 78  2  0  0  0  0
 36 63  1  0  0  0  0
 36 74  1  0  0  0  0
 36 79  2  0  0  0  0
 37 69  1  0  0  0  0
 37 70  1  0  0  0  0
 37 80  2  0  0  0  0
 38 41  1  0  0  0  0
 39 53  1  0  0  0  0
 40 68  1  0  0  0  0
 41 43  1  0  0  0  0
 42 44  1  0  0  0  0
 42 47  1  0  0  0  0
 43 52  1  0  0  0  0
 44 54  1  0  0  0  0
 45 48  1  0  0  0  0
 45 51  1  0  0  0  0
 46 49  1  0  0  0  0
 46 51  1  0  0  0  0
 47 69  1  0  0  0  0
 48 70  1  0  0  0  0
 49 70  1  0  0  0  0
 50 54  1  0  0  0  0
 50 69  1  0  0  0  0
 52 73  1  0  0  0  0
 53 68  1  0  0  0  0
 54 67  1  0  0  0  0
 56 63  1  0  0  0  0
 57 64  1  0  0  0  0
 58 64  1  0  0  0  0
 59 64  1  0  0  0  0
 60 75  1  0  0  0  0
 61 82  1  0  0  0  0
 62 64  1  0  0  0  0
 62 74  1  0  0  0  0
 63 75  1  0  0  0  0
 65 67  1  0  0  0  0
M  CHG  1  75   1
M  ISO  4  37 100  61 101  70 100  82 101
M  END
> <Batch ID>
0163

> <Smiles>
CNC(C)C(=O)NC(C(=O)N1Cc2cc([101O:1][101CH2:1]c3ccc(C4CC[100N:0]([100C:0](=O)N5CCCC(n6nc(-c7ccc(Oc8ccc(F)cc8F)cc7)c(C(N)=O)c6N)C5)CC4)c(C)n3)ccc2CC1C(=O)NC1CCCc2ccccc21)C(C)(C)C

> <Shape>
0.326

> <Color>
0.121

> <Negative vol penalty>
0.000

$$$$

  -OEChem-04052322173D

 93103  0     1  0  0  0  0  0999 V2000
  -19.4251  -34.9972   17.4646 C   0  0  0  0  0  0  0  0  0  0  0  0
  -19.9592  -33.7614   17.1137 C   0  0  0  0  0  0  0  0  0  0  0  0
  -24.0477  -10.3196   20.4481 C   0  0  0  0  0  0  0  0  0  0  0  0
  -21.9077  -10.1048   21.5488 C   0  0  0  0  0  0  0  0  0  0  0  0
  -20.1452  -35.8564   18.2935 C   0  0  0  0  0  0  0  0  0  0  0  0
  -21.2141  -33.3846   17.5908 C   0  0  0  0  0  0  0  0  0  0  0  0
  -24.9052  -27.5917   19.6241 C   0  0  0  0  0  0  0  0  0  0  0  0
  -24.3416   -8.9923   20.7605 C   0  0  0  0  0  0  0  0  0  0  0  0
  -22.2016   -8.7775   21.8611 C   0  0  0  0  0  0  0  0  0  0  0  0
  -26.1146  -26.9437   19.3770 C   0  0  0  0  0  0  0  0  0  0  0  0
  -22.1934   -5.7887   20.2839 C   0  0  0  0  0  0  0  0  0  0  0  0
  -21.1944   -4.8385   20.0730 C   0  0  0  0  0  0  0  0  0  0  0  0
  -27.2332  -28.4764   20.8666 C   0  0  0  0  0  0  0  0  0  0  0  0
  -21.2354   -4.2741   22.4218 C   0  0  0  0  0  0  0  0  0  0  0  0
  -22.8308  -10.8759   20.8423 C   0  0  0  0  0  0  0  0  0  0  0  0
  -21.8836  -12.7262   19.3636 C   0  0  0  0  0  0  0  0  0  0  0  0
  -21.4053  -35.4860   18.7888 C   0  0  0  0  0  0  0  0  0  0  0  0
  -24.8525  -28.6955   20.4874 C   0  0  0  0  0  0  0  0  0  0  0  0
  -21.9522  -34.2403   18.4261 C   0  0  0  0  0  0  0  0  0  0  0  0
  -26.0214  -29.1350   21.1250 C   0  0  0  0  0  0  0  0  0  0  0  0
  -29.4977  -24.2466   20.3045 C   0  0  0  0  0  0  0  0  0  0  0  0
  -30.0772  -23.5574   19.2293 C   0  0  0  0  0  0  0  0  0  0  0  0
  -27.7813  -22.5765   20.4488 C   0  0  0  0  0  0  0  0  0  0  0  0
  -28.3513  -23.7594   20.9219 C   0  0  0  0  0  0  0  0  0  0  0  0
  -29.5154  -22.3748   18.7618 C   0  0  0  0  0  0  0  0  0  0  0  0
  -28.3600  -21.8882   19.3753 C   0  0  0  0  0  0  0  0  0  0  0  0
  -23.4185   -8.2213   21.4669 C   0  0  0  0  0  0  0  0  0  0  0  0
  -27.2794  -27.3878   19.9961 C   0  0  0  0  0  0  0  0  0  0  0  0
  -22.7135   -5.9816   21.5638 C   0  0  0  0  0  0  0  0  0  0  0  0
  -20.7153   -4.0812   21.1419 C   0  0  0  0  0  0  0  0  0  0  0  0
  -22.2345   -5.2243   22.6327 C   0  0  0  0  0  0  0  0  0  0  0  0
  -22.5269  -12.2471   20.5205 C   0  0  0  0  0  0  0  0  0  0  0  0
  -21.8350  -14.0879   19.5367 C   0  0  0  0  0  0  0  0  0  0  0  0
  -21.3752  -12.0049   18.2335 C   0  0  0  0  0  0  0  0  0  0  0  0
  -24.0648  -31.7583   20.1667 C   0  0  0  0  0  0  0  0  0  0  0  0
  -24.4569  -31.7933   23.3865 C   0  0  0  0  0  0  0  0  0  0  0  0
  -25.8969  -30.3922   26.1452 C   0  0  0  0  0  0  0  0  0  0  0  0
  -24.0016  -18.8162   20.8696 C   0  0  0  0  0  0  0  0  0  0  0  0
  -22.1668  -36.4680   19.6435 C   0  0  0  0  0  0  0  0  0  0  0  0
  -23.5353  -29.3670   20.7642 C   0  0  0  0  0  0  0  0  0  0  0  0
  -26.0148  -30.3029   22.0761 C   0  0  0  0  0  0  0  0  0  0  0  0
  -23.3263  -35.8371   20.4102 C   0  0  0  0  0  0  0  0  0  0  0  0
  -22.8116  -16.9398   23.5901 C   0  0  0  0  0  0  0  0  0  0  0  0
  -24.1484  -34.9393   19.4910 C   0  0  0  0  0  0  0  0  0  0  0  0
  -22.5771  -15.5769   22.9394 C   0  0  0  0  0  0  0  0  0  0  0  0
  -26.8254  -20.6580   21.7561 C   0  0  0  0  0  0  0  0  0  0  0  0
  -31.2102  -25.6292   19.4266 C   0  0  0  0  0  0  0  0  0  0  0  0
  -24.0982  -17.5995   23.0907 C   0  0  0  0  0  0  0  0  0  0  0  0
  -25.5866  -20.0477   22.4124 C   0  0  0  0  0  0  0  0  0  0  0  0
  -24.1162  -21.2884   20.8696 C   0  0  0  0  0  0  0  0  0  0  0  0
  -23.9509  -16.3417   20.9657 C   0  0  0  0  0  0  0  0  0  0  0  0
  -26.5267  -22.0248   21.1067 C   0  0  2  0  0  0  0  0  0  0  0  0
  -23.2996  -33.7854   18.9435 C   0  0  1  0  0  0  0  0  0  0  0  0
  -23.6885  -30.8009   21.2619 C   0  0  1  0  0  0  0  0  0  0  0  0
  -25.3114  -21.9268   20.1443 C   0  0  2  0  0  0  0  0  0  0  0  0
  -22.6355  -15.6800   21.4050 C   0  0  1  0  0  0  0  0  0  0  0  0
  -31.3250  -24.2439   18.7301 C   0  0  0  0  0  0  0  0  0  0  0  0
  -30.2822  -25.4844   20.6654 C   0  0  2  0  0  0  0  0  0  0  0  0
  -27.7338  -24.4508   22.0920 C   0  0  0  0  0  0  0  0  0  0  0  0
  -30.1305  -21.5996   17.6442 C   0  0  0  0  0  0  0  0  0  0  0  0
  -27.7373  -20.6159   18.8892 C   0  0  0  0  0  0  0  0  0  0  0  0
  -24.8985  -23.2980   19.5985 C   0  0  0  0  0  0  0  0  0  0  0  0
  -32.5911  -23.4948   19.1695 C   0  0  0  0  0  0  0  0  0  0  0  0
  -31.3613  -24.4603   17.2081 C   0  0  0  0  0  0  0  0  0  0  0  0
  -31.0900  -25.2799   21.9545 C   0  0  0  0  0  0  0  0  0  0  0  0
  -26.0612  -30.6641   28.6344 C   0  0  0  0  0  0  0  0  0  0  0  0
  -26.3752  -34.1348   23.0018 C   0  0  0  0  0  0  0  0  0  0  0  0
  -27.2108  -33.7421   25.3290 C   0  0  0  0  0  0  0  0  0  0  0  0
  -24.8252  -34.3654   24.9509 C   0  0  0  0  0  0  0  0  0  0  0  0
  -24.6996  -27.7297   26.6314 C   0  0  0  0  0  0  0  0  0  0  0  0
  -29.4299  -26.7578   20.7926 C   0  0  0  0  0  0  0  0  0  1  0  0
  -25.6159  -32.0484   24.3196 C   0  0  1  0  0  0  0  0  0  0  0  0
  -25.3181  -29.9922   27.4903 C   0  0  2  0  0  0  0  0  0  0  0  0
  -26.0076  -33.5518   24.3810 C   0  0  0  0  0  0  0  0  0  0  0  0
  -22.8631  -13.2249   21.3660 N   0  0  0  0  0  0  0  0  0  0  0  0
  -22.4294  -14.3321   20.7398 N   0  0  0  0  0  0  0  0  0  0  0  0
  -24.7034  -30.9302   22.3094 N   0  0  0  0  0  0  0  0  0  0  0  0
  -24.1267  -17.6389   21.6220 N   0  0  0  0  0  0  0  0  0  0  0  0
  -24.4749  -19.9991   21.4567 N   0  0  0  0  0  0  0  0  0  0  0  0
  -21.3425  -15.0882   18.7757 N   0  0  0  0  0  0  0  0  0  0  0  0
  -21.5075  -10.6098   18.2168 N   0  0  0  0  0  0  0  0  0  0  0  0
  -23.1355  -32.7575   19.9489 N   0  0  0  0  0  0  0  0  0  0  0  0
  -25.2368  -31.4767   25.6072 N   0  0  0  0  0  0  0  0  0  0  0  0
  -25.4075  -28.5160   27.6743 N   0  3  0  0  0  0  0  0  0  0  0  0
  -20.8348  -12.5821   17.2597 O   0  0  0  0  0  0  0  0  0  0  0  0
  -25.1209  -31.6029   19.5648 O   0  0  0  0  0  0  0  0  0  0  0  0
  -23.3709  -32.3342   23.6092 O   0  0  0  0  0  0  0  0  0  0  0  0
  -26.8427  -29.8041   25.6255 O   0  0  0  0  0  0  0  0  0  0  0  0
  -23.4963  -18.8117   19.7401 O   0  0  0  0  0  0  0  0  0  0  0  0
  -23.7048   -6.9260   21.7717 O   0  0  0  0  0  0  0  0  0  0  0  0
  -28.4735  -26.7510   19.7536 O   0  0  0  0  0  0  0  0  0  1  0  0
  -19.7549   -3.1697   20.9395 F   0  0  0  0  0  0  0  0  0  0  0  0
  -22.7294   -5.4060   23.8647 F   0  0  0  0  0  0  0  0  0  0  0  0
  1  2  1  0  0  0  0
  1  5  2  0  0  0  0
  2  6  2  0  0  0  0
  3  8  2  0  0  0  0
  3 15  1  0  0  0  0
  4  9  1  0  0  0  0
  4 15  2  0  0  0  0
  5 17  1  0  0  0  0
  6 19  1  0  0  0  0
  7 10  2  0  0  0  0
  7 18  1  0  0  0  0
  8 27  1  0  0  0  0
  9 27  2  0  0  0  0
 10 28  1  0  0  0  0
 11 12  2  0  0  0  0
 11 29  1  0  0  0  0
 12 30  1  0  0  0  0
 13 20  1  0  0  0  0
 13 28  2  0  0  0  0
 14 30  2  0  0  0  0
 14 31  1  0  0  0  0
 15 32  1  0  0  0  0
 16 32  1  0  0  0  0
 16 33  2  0  0  0  0
 16 34  1  0  0  0  0
 17 19  2  0  0  0  0
 17 39  1  0  0  0  0
 18 20  2  0  0  0  0
 18 40  1  0  0  0  0
 19 53  1  0  0  0  0
 20 41  1  0  0  0  0
 21 22  2  0  0  0  0
 21 24  1  0  0  0  0
 21 58  1  0  0  0  0
 22 25  1  0  0  0  0
 22 57  1  0  0  0  0
 23 24  2  0  0  0  0
 23 26  1  0  0  0  0
 23 52  1  0  0  0  0
 24 59  1  0  0  0  0
 25 26  2  0  0  0  0
 25 60  1  0  0  0  0
 26 61  1  0  0  0  0
 27 90  1  0  0  0  0
 28 91  1  0  0  0  0
 29 31  2  0  0  0  0
 29 90  1  0  0  0  0
 30 92  1  0  0  0  0
 31 93  1  0  0  0  0
 32 75  2  0  0  0  0
 33 76  1  0  0  0  0
 33 80  1  0  0  0  0
 34 81  1  0  0  0  0
 34 85  2  0  0  0  0
 35 54  1  0  0  0  0
 35 82  1  0  0  0  0
 35 86  2  0  0  0  0
 36 72  1  0  0  0  0
 36 77  1  0  0  0  0
 36 87  2  0  0  0  0
 37 73  1  0  0  0  0
 37 83  1  0  0  0  0
 37 88  2  0  0  0  0
 38 78  1  0  0  0  0
 38 79  1  0  0  0  0
 38 89  2  0  0  0  0
 39 42  1  0  0  0  0
 40 54  1  0  0  0  0
 41 77  1  0  0  0  0
 42 44  1  0  0  0  0
 43 45  1  0  0  0  0
 43 48  1  0  0  0  0
 44 53  1  0  0  0  0
 45 56  1  0  0  0  0
 46 49  1  0  0  0  0
 46 52  1  0  0  0  0
 47 57  1  0  0  0  0
 47 58  1  0  0  0  0
 48 78  1  0  0  0  0
 49 79  1  0  0  0  0
 50 55  1  0  0  0  0
 50 79  1  0  0  0  0
 51 56  1  0  0  0  0
 51 78  1  0  0  0  0
 52 55  1  0  0  0  0
 53 82  1  0  0  0  0
 54 77  1  0  0  0  0
 55 62  1  0  0  0  0
 56 76  1  0  0  0  0
 57 63  1  0  0  0  0
 57 64  1  0  0  0  0
 58 65  1  0  0  0  0
 58 71  1  0  0  0  0
 66 73  1  0  0  0  0
 67 74  1  0  0  0  0
 68 74  1  0  0  0  0
 69 74  1  0  0  0  0
 70 84  1  0  0  0  0
 71 91  1  0  0  0  0
 72 74  1  0  0  0  0
 72 83  1  0  0  0  0
 73 84  1  0  0  0  0
 75 76  1  0  0  0  0
M  CHG  1  84   1
M  ISO  4  38 100  71 101  79 100  91 101
M  END
> <Batch ID>
0163

> <Smiles>
CNC(C)C(=O)NC(C(=O)N1Cc2cc([101O:1][101CH2:1]C3(C)CC(C)(C)c4c(C)c(C)c(C5CC[100N:0]([100C:0](=O)N6CCCC(n7nc(-c8ccc(Oc9ccc(F)cc9F)cc8)c(C(N)=O)c7N)C6)CC5C)c(C)c43)ccc2CC1C(=O)NC1CCCc2ccccc21)C(C)(C)C

> <Shape>
0.264

> <Color>
0.090

> <Negative vol penalty>
0.000

$$$$

  -OEChem-04052322173D

 88 97  0     1  0  0  0  0  0999 V2000
  -27.3397  -32.5711   24.0601 C   0  0  0  0  0  0  0  0  0  0  0  0
  -26.5131  -31.4826   23.8004 C   0  0  0  0  0  0  0  0  0  0  0  0
  -22.5381  -16.7145   20.0269 C   0  0  0  0  0  0  0  0  0  0  0  0
  -24.1326  -18.1610   21.1235 C   0  0  0  0  0  0  0  0  0  0  0  0
  -28.4643  -32.7957   23.2672 C   0  0  0  0  0  0  0  0  0  0  0  0
  -26.8101  -30.6187   22.7469 C   0  0  0  0  0  0  0  0  0  0  0  0
  -26.3425  -25.7450   24.0403 C   0  0  0  0  0  0  0  0  0  0  0  0
  -23.5262  -15.7422   19.8727 C   0  0  0  0  0  0  0  0  0  0  0  0
  -25.1207  -17.1886   20.9693 C   0  0  0  0  0  0  0  0  0  0  0  0
  -25.0513  -25.2220   24.0956 C   0  0  0  0  0  0  0  0  0  0  0  0
  -25.0255  -13.3894   21.7831 C   0  0  0  0  0  0  0  0  0  0  0  0
  -24.6904  -12.0705   22.0892 C   0  0  0  0  0  0  0  0  0  0  0  0
  -25.3657  -24.2313   21.9187 C   0  0  0  0  0  0  0  0  0  0  0  0
  -19.6871  -27.8115   21.2322 C   0  0  0  0  0  0  0  0  0  0  0  0
  -25.2022  -11.4141   19.8211 C   0  0  0  0  0  0  0  0  0  0  0  0
  -22.8413  -17.9240   20.6523 C   0  0  0  0  0  0  0  0  0  0  0  0
  -20.9381  -19.0795   21.8973 C   0  0  0  0  0  0  0  0  0  0  0  0
  -28.7806  -31.9286   22.2094 C   0  0  0  0  0  0  0  0  0  0  0  0
  -27.1524  -25.5238   22.9171 C   0  0  0  0  0  0  0  0  0  0  0  0
  -27.9393  -30.8327   21.9382 C   0  0  0  0  0  0  0  0  0  0  0  0
  -26.6677  -24.7504   21.8527 C   0  0  0  0  0  0  0  0  0  0  0  0
  -19.4219  -26.4512   23.1978 C   0  0  0  0  0  0  0  0  0  0  0  0
  -19.5543  -26.5574   21.8178 C   0  0  0  0  0  0  0  0  0  0  0  0
  -24.8175  -15.9792   20.3439 C   0  0  0  0  0  0  0  0  0  0  0  0
  -24.5617  -24.4674   23.0335 C   0  0  0  0  0  0  0  0  0  0  0  0
  -25.4488  -13.7207   20.4959 C   0  0  0  0  0  0  0  0  0  0  0  0
  -24.7788  -11.0828   21.1083 C   0  0  0  0  0  0  0  0  0  0  0  0
  -25.5372  -12.7330   19.5150 C   0  0  0  0  0  0  0  0  0  0  0  0
  -21.8212  -18.9290   20.8114 C   0  0  0  0  0  0  0  0  0  0  0  0
  -19.6814  -28.9196   22.0641 C   0  0  0  0  0  0  0  0  0  0  0  0
  -19.4283  -27.6202   23.9417 C   0  0  0  0  0  0  0  0  0  0  0  0
  -20.1736  -20.1724   21.5693 C   0  0  0  0  0  0  0  0  0  0  0  0
  -20.8196  -18.3010   23.0955 C   0  0  0  0  0  0  0  0  0  0  0  0
  -28.5174  -27.3877   20.7339 C   0  0  0  0  0  0  0  0  0  0  0  0
  -29.8706  -24.6025   19.7674 C   0  0  0  0  0  0  0  0  0  0  0  0
  -29.7220  -21.1949   19.6556 C   0  0  0  0  0  0  0  0  0  0  0  0
  -19.6799  -25.3591   19.6054 C   0  0  0  0  0  0  0  0  0  0  0  0
  -29.9806  -32.2391   21.3503 C   0  0  0  0  0  0  0  0  0  0  0  0
  -28.5526  -26.0724   22.8844 C   0  0  0  0  0  0  0  0  0  0  0  0
  -27.5046  -24.4670   20.6329 C   0  0  0  0  0  0  0  0  0  0  0  0
  -30.4327  -31.0637   20.4876 C   0  0  0  0  0  0  0  0  0  0  0  0
  -19.7683  -22.7217   17.2152 C   0  0  0  0  0  0  0  0  0  0  0  0
  -29.2364  -30.4183   19.7955 C   0  0  0  0  0  0  0  0  0  0  0  0
  -20.2376  -21.5122   18.0270 C   0  0  0  0  0  0  0  0  0  0  0  0
  -21.0033  -30.5566   20.5615 C   0  0  0  0  0  0  0  0  0  0  0  0
  -20.4542  -24.0094   17.6680 C   0  0  0  0  0  0  0  0  0  0  0  0
  -20.8306  -23.0802   19.9183 C   0  0  0  0  0  0  0  0  0  0  0  0
  -28.2418  -29.8590   20.8200 C   0  0  1  0  0  0  0  0  0  0  0  0
  -19.8224  -30.2756   21.4579 C   0  0  2  0  0  0  0  0  0  0  0  0
  -29.1048  -26.2167   21.4696 C   0  0  1  0  0  0  0  0  0  0  0  0
  -20.9431  -31.1720   21.9278 C   0  0  2  0  0  0  0  0  0  0  0  0
  -20.1193  -21.7702   19.5420 C   0  0  2  0  0  0  0  0  0  0  0  0
  -19.2898  -27.5694   25.4283 C   0  0  0  0  0  0  0  0  0  0  0  0
  -20.7096  -32.6358   22.0796 C   0  0  0  0  0  0  0  0  0  0  0  0
  -18.0593  -24.3281   23.3672 C   0  0  0  0  0  0  0  0  0  0  0  0
  -30.9517  -19.1977   18.7629 C   0  0  0  0  0  0  0  0  0  0  0  0
  -22.4948  -22.1405   24.4498 C   0  0  0  0  0  0  0  0  0  0  0  0
  -28.8116  -25.2040   16.9697 C   0  0  0  0  0  0  0  0  0  0  0  0
  -29.2226  -22.8071   16.3746 C   0  0  0  0  0  0  0  0  0  0  0  0
  -31.1320  -24.2729   17.0291 C   0  0  0  0  0  0  0  0  0  0  0  0
  -30.1586  -20.1043   22.3720 C   0  0  0  0  0  0  0  0  0  0  0  0
  -21.5718  -24.5174   24.6554 C   0  0  0  0  0  0  0  0  0  0  0  0
  -19.2756  -25.1039   23.8666 C   0  0  1  0  0  0  0  0  0  0  0  0
  -29.4922  -23.5106   18.7960 C   0  0  1  0  0  0  0  0  0  0  0  0
  -30.7644  -20.1310   19.9490 C   0  0  2  0  0  0  0  0  0  0  0  0
  -22.7832  -23.6341   24.3746 C   0  0  2  0  0  0  0  0  0  1  0  0
  -29.6479  -23.9554   17.3144 C   0  0  0  0  0  0  0  0  0  0  0  0
  -21.6357  -19.8523   19.8642 N   0  0  0  0  0  0  0  0  0  0  0  0
  -19.5550  -28.8560   23.4085 N   0  0  0  0  0  0  0  0  0  0  0  0
  -20.6273  -20.5934   20.3540 N   0  0  0  0  0  0  0  0  0  0  0  0
  -28.8647  -25.0305   20.6454 N   0  0  0  0  0  0  0  0  0  0  0  0
  -20.2970  -24.1898   19.1128 N   0  0  0  0  0  0  0  0  0  0  0  0
  -19.1641  -20.8046   22.2047 N   0  0  0  0  0  0  0  0  0  0  0  0
  -21.6840  -17.2122   23.2732 N   0  0  0  0  0  0  0  0  0  0  0  0
  -19.5564  -25.4048   20.9937 N   0  0  0  0  0  0  0  0  0  0  0  0
  -28.7218  -28.6039   21.3572 N   0  0  0  0  0  0  0  0  0  0  0  0
  -30.2938  -22.3466   19.1578 N   0  0  0  0  0  0  0  0  0  0  0  0
  -30.3555  -19.3164   21.1280 N   0  3  0  0  0  0  0  0  0  0  0  0
  -20.4767  -24.2427   23.6922 N   0  3  0  0  0  0  0  0  0  0  0  0
  -19.9613  -18.5533   23.9748 O   0  0  0  0  0  0  0  0  0  0  0  0
  -27.9239  -27.2018   19.6780 O   0  0  0  0  0  0  0  0  0  0  0  0
  -31.0184  -25.0540   19.7526 O   0  0  0  0  0  0  0  0  0  0  0  0
  -28.5203  -21.0202   19.8452 O   0  0  0  0  0  0  0  0  0  0  0  0
  -19.2652  -26.2417   18.8497 O   0  0  0  0  0  0  0  0  0  0  0  0
  -25.7819  -15.0305   20.1938 O   0  0  0  0  0  0  0  0  0  0  0  0
  -23.3015  -23.9563   23.0847 O   0  0  0  0  0  0  0  0  0  1  0  0
  -24.4585   -9.8160   21.4028 F   0  0  0  0  0  0  0  0  0  0  0  0
  -25.9444  -13.0450   18.2770 F   0  0  0  0  0  0  0  0  0  0  0  0
  1  2  1  0  0  0  0
  1  5  2  0  0  0  0
  2  6  2  0  0  0  0
  3  8  2  0  0  0  0
  3 16  1  0  0  0  0
  4  9  1  0  0  0  0
  4 16  2  0  0  0  0
  5 18  1  0  0  0  0
  6 20  1  0  0  0  0
  7 10  2  0  0  0  0
  7 19  1  0  0  0  0
  8 24  1  0  0  0  0
  9 24  2  0  0  0  0
 10 25  1  0  0  0  0
 11 12  2  0  0  0  0
 11 26  1  0  0  0  0
 12 27  1  0  0  0  0
 13 21  1  0  0  0  0
 13 25  2  0  0  0  0
 14 23  2  0  0  0  0
 14 30  1  0  0  0  0
 15 27  2  0  0  0  0
 15 28  1  0  0  0  0
 16 29  1  0  0  0  0
 17 29  1  0  0  0  0
 17 32  2  0  0  0  0
 17 33  1  0  0  0  0
 18 20  2  0  0  0  0
 18 38  1  0  0  0  0
 19 21  2  0  0  0  0
 19 39  1  0  0  0  0
 20 48  1  0  0  0  0
 21 40  1  0  0  0  0
 22 23  1  0  0  0  0
 22 31  2  0  0  0  0
 22 63  1  0  0  0  0
 23 75  1  0  0  0  0
 24 85  1  0  0  0  0
 25 86  1  0  0  0  0
 26 28  2  0  0  0  0
 26 85  1  0  0  0  0
 27 87  1  0  0  0  0
 28 88  1  0  0  0  0
 29 68  2  0  0  0  0
 30 49  1  0  0  0  0
 30 69  2  0  0  0  0
 31 53  1  0  0  0  0
 31 69  1  0  0  0  0
 32 70  1  0  0  0  0
 32 73  1  0  0  0  0
 33 74  1  0  0  0  0
 33 80  2  0  0  0  0
 34 50  1  0  0  0  0
 34 76  1  0  0  0  0
 34 81  2  0  0  0  0
 35 64  1  0  0  0  0
 35 71  1  0  0  0  0
 35 82  2  0  0  0  0
 36 65  1  0  0  0  0
 36 77  1  0  0  0  0
 36 83  2  0  0  0  0
 37 72  1  0  0  0  0
 37 75  1  0  0  0  0
 37 84  2  0  0  0  0
 38 41  1  0  0  0  0
 39 50  1  0  0  0  0
 40 71  1  0  0  0  0
 41 43  1  0  0  0  0
 42 44  1  0  0  0  0
 42 46  1  0  0  0  0
 43 48  1  0  0  0  0
 44 52  1  0  0  0  0
 45 49  1  0  0  0  0
 45 51  1  0  0  0  0
 46 72  1  0  0  0  0
 47 52  1  0  0  0  0
 47 72  1  0  0  0  0
 48 76  1  0  0  0  0
 49 51  1  0  0  0  0
 50 71  1  0  0  0  0
 51 54  1  0  0  0  0
 52 70  1  0  0  0  0
 55 63  1  0  0  0  0
 56 65  1  0  0  0  0
 57 66  1  0  0  0  0
 58 67  1  0  0  0  0
 59 67  1  0  0  0  0
 60 67  1  0  0  0  0
 61 78  1  0  0  0  0
 62 66  1  0  0  0  0
 62 79  1  0  0  0  0
 63 79  1  0  0  0  0
 64 67  1  0  0  0  0
 64 77  1  0  0  0  0
 65 78  1  0  0  0  0
 66 86  1  0  0  0  0
 68 70  1  0  0  0  0
M  CHG  2  78   1  79   1
M  ISO  4  37 100  66 101  75 100  86 101
M  END
> <Batch ID>
0163

> <Smiles>
CNC(C)C(=O)NC(C(=O)N1Cc2cc([101O:1][101CH:1](C)CNC(C)c3c([100NH:0][100C:0](=O)N4CCCC(n5nc(-c6ccc(Oc7ccc(F)cc7F)cc6)c(C(N)=O)c5N)C4)cc(C4CC4C)nc3C)ccc2CC1C(=O)NC1CCCc2ccccc21)C(C)(C)C

> <Shape>
0.193

> <Color>
0.084

> <Negative vol penalty>
0.000

$$$$

  -OEChem-04052322173D

 89 98  0     1  0  0  0  0  0999 V2000
  -17.9847  -18.6306   25.6774 C   0  0  0  0  0  0  0  0  0  0  0  0
  -19.2377  -19.0715   25.2636 C   0  0  0  0  0  0  0  0  0  0  0  0
  -23.1156   -9.8021   21.4776 C   0  0  0  0  0  0  0  0  0  0  0  0
  -23.8012  -10.7829   23.5764 C   0  0  0  0  0  0  0  0  0  0  0  0
  -16.8378  -19.3089   25.2671 C   0  0  0  0  0  0  0  0  0  0  0  0
  -19.3442  -20.1904   24.4383 C   0  0  0  0  0  0  0  0  0  0  0  0
  -22.9948  -23.3661   25.9327 C   0  0  0  0  0  0  0  0  0  0  0  0
  -22.3771   -8.8411   22.1679 C   0  0  0  0  0  0  0  0  0  0  0  0
  -23.0626   -9.8218   24.2668 C   0  0  0  0  0  0  0  0  0  0  0  0
  -24.3083  -23.0189   25.6195 C   0  0  0  0  0  0  0  0  0  0  0  0
  -20.6014   -5.9108   23.3861 C   0  0  0  0  0  0  0  0  0  0  0  0
  -20.7065   -4.5849   22.9659 C   0  0  0  0  0  0  0  0  0  0  0  0
  -24.2590  -24.5428   23.7501 C   0  0  0  0  0  0  0  0  0  0  0  0
  -23.0806   -4.6319   23.4114 C   0  0  0  0  0  0  0  0  0  0  0  0
  -23.8277  -10.7731   22.1819 C   0  0  0  0  0  0  0  0  0  0  0  0
  -24.1447  -13.0254   21.0268 C   0  0  0  0  0  0  0  0  0  0  0  0
  -16.9309  -20.4424   24.4442 C   0  0  0  0  0  0  0  0  0  0  0  0
  -22.2987  -24.2977   25.1491 C   0  0  0  0  0  0  0  0  0  0  0  0
  -18.1974  -20.8836   24.0155 C   0  0  0  0  0  0  0  0  0  0  0  0
  -22.9376  -24.9020   24.0570 C   0  0  0  0  0  0  0  0  0  0  0  0
  -28.7013  -19.6170   22.5257 C   0  0  0  0  0  0  0  0  0  0  0  0
  -28.1346  -20.3716   21.4974 C   0  0  0  0  0  0  0  0  0  0  0  0
  -29.5436  -18.5580   22.2495 C   0  0  0  0  0  0  0  0  0  0  0  0
  -22.3506   -8.8509   23.5624 C   0  0  0  0  0  0  0  0  0  0  0  0
  -24.9396  -23.6051   24.5264 C   0  0  0  0  0  0  0  0  0  0  0  0
  -21.7360   -6.5973   23.8188 C   0  0  0  0  0  0  0  0  0  0  0  0
  -21.9461   -3.9454   22.9786 C   0  0  0  0  0  0  0  0  0  0  0  0
  -22.9756   -5.9578   23.8315 C   0  0  0  0  0  0  0  0  0  0  0  0
  -24.5912  -11.7658   21.4694 C   0  0  0  0  0  0  0  0  0  0  0  0
  -28.4440  -20.0418   20.1952 C   0  0  0  0  0  0  0  0  0  0  0  0
  -29.7987  -18.3088   20.9098 C   0  0  0  0  0  0  0  0  0  0  0  0
  -25.2395  -13.5807   20.4107 C   0  0  0  0  0  0  0  0  0  0  0  0
  -22.8557  -13.6387   21.1607 C   0  0  0  0  0  0  0  0  0  0  0  0
  -19.6725  -24.2075   23.3606 C   0  0  0  0  0  0  0  0  0  0  0  0
  -20.1968  -27.3996   23.1198 C   0  0  0  0  0  0  0  0  0  0  0  0
  -22.4137  -29.9903   23.2621 C   0  0  0  0  0  0  0  0  0  0  0  0
  -30.7025  -14.7150   20.2909 C   0  0  0  0  0  0  0  0  0  0  0  0
  -15.6603  -21.1146   23.9880 C   0  0  0  0  0  0  0  0  0  0  0  0
  -20.8914  -24.6813   25.5160 C   0  0  0  0  0  0  0  0  0  0  0  0
  -28.2403  -20.0950   23.8673 C   0  0  0  0  0  0  0  0  0  0  0  0
  -22.2410  -25.9228   23.1961 C   0  0  0  0  0  0  0  0  0  0  0  0
  -15.8818  -22.5137   23.4191 C   0  0  0  0  0  0  0  0  0  0  0  0
  -29.6693  -11.5262   19.0907 C   0  0  0  0  0  0  0  0  0  0  0  0
  -17.0523  -22.5132   22.4410 C   0  0  0  0  0  0  0  0  0  0  0  0
  -28.2220  -11.4058   19.5713 C   0  0  0  0  0  0  0  0  0  0  0  0
  -30.5447  -12.2494   20.1118 C   0  0  0  0  0  0  0  0  0  0  0  0
  -28.5912  -13.4468   21.0193 C   0  0  0  0  0  0  0  0  0  0  0  0
  -18.3555  -22.1081   23.1403 C   0  0  1  0  0  0  0  0  0  0  0  0
  -20.1044  -25.2587   24.3435 C   0  0  1  0  0  0  0  0  0  0  0  0
  -27.6575  -12.7740   19.9986 C   0  0  2  0  0  0  0  0  0  0  0  0
  -27.2140  -21.4432   22.0378 C   0  0  0  0  0  0  0  0  0  0  0  0
  -27.7357  -21.5340   23.5375 C   0  0  2  0  0  0  0  0  0  0  0  0
  -27.8596  -20.7633   19.0311 C   0  0  0  0  0  0  0  0  0  0  0  0
  -25.7657  -20.9218   21.9277 C   0  0  0  0  0  0  0  0  0  0  0  0
  -27.3150  -22.7628   21.2600 C   0  0  0  0  0  0  0  0  0  0  0  0
  -31.3054  -18.4373   24.0295 C   0  0  0  0  0  0  0  0  0  0  0  0
  -29.4480  -22.4890   25.0865 C   0  0  0  0  0  0  0  0  0  0  0  0
  -22.5542  -32.4803   22.9835 C   0  0  0  0  0  0  0  0  0  0  0  0
  -20.0695  -27.0653   20.0897 C   0  0  0  0  0  0  0  0  0  0  0  0
  -21.1372  -29.3188   19.8660 C   0  0  0  0  0  0  0  0  0  0  0  0
  -18.9082  -29.1001   20.9644 C   0  0  0  0  0  0  0  0  0  0  0  0
  -23.3007  -30.3699   26.0600 C   0  0  0  0  0  0  0  0  0  0  0  0
  -30.1390  -17.7348   23.3363 C   0  0  0  0  0  0  0  0  0  0  0  0
  -30.7043  -17.1864   20.5180 C   0  0  0  0  0  0  0  0  0  0  0  0
  -28.9223  -22.5192   23.6985 C   0  0  0  0  0  0  0  0  0  0  0  0
  -26.6534  -21.9563   24.5441 C   0  0  0  0  0  0  0  0  0  1  0  0
  -20.9725  -28.2875   22.1770 C   0  0  1  0  0  0  0  0  0  0  0  0
  -22.3475  -31.3354   23.9628 C   0  0  2  0  0  0  0  0  0  0  0  0
  -20.2846  -28.4223   20.7891 C   0  0  0  0  0  0  0  0  0  0  0  0
  -25.8699  -11.5342   21.1605 N   0  0  0  0  0  0  0  0  0  0  0  0
  -29.2744  -19.0215   19.8778 N   0  0  0  0  0  0  0  0  0  0  0  0
  -26.2362  -12.6559   20.5172 N   0  0  0  0  0  0  0  0  0  0  0  0
  -20.8636  -26.2601   23.5917 N   0  0  0  0  0  0  0  0  0  0  0  0
  -29.9544  -13.5403   20.4735 N   0  0  0  0  0  0  0  0  0  0  0  0
  -25.4371  -14.7650   19.7936 N   0  0  0  0  0  0  0  0  0  0  0  0
  -21.8438  -12.9293   21.8219 N   0  0  0  0  0  0  0  0  0  0  0  0
  -18.8820  -23.2155   23.9089 N   0  0  0  0  0  0  0  0  0  0  0  0
  -21.1643  -29.5545   22.8743 N   0  0  0  0  0  0  0  0  0  0  0  0
  -30.0661  -15.8959   20.6532 N   0  0  0  0  0  0  0  0  0  0  0  0
  -23.3979  -31.4228   25.0164 N   0  3  0  0  0  0  0  0  0  0  0  0
  -22.6039  -14.7751   20.6932 O   0  0  0  0  0  0  0  0  0  0  0  0
  -20.0287  -24.2911   22.1911 O   0  0  0  0  0  0  0  0  0  0  0  0
  -19.0444  -27.7096   23.4319 O   0  0  0  0  0  0  0  0  0  0  0  0
  -23.4686  -29.3884   23.0740 O   0  0  0  0  0  0  0  0  0  0  0  0
  -31.8504  -14.7122   19.8334 O   0  0  0  0  0  0  0  0  0  0  0  0
  -21.6299   -7.9134   24.2364 O   0  0  0  0  0  0  0  0  0  0  0  0
  -26.2345  -23.2641   24.2149 O   0  0  0  0  0  0  0  0  0  1  0  0
  -22.0465   -2.6717   22.5766 F   0  0  0  0  0  0  0  0  0  0  0  0
  -24.0688   -6.6118   24.2473 F   0  0  0  0  0  0  0  0  0  0  0  0
  1  2  1  0  0  0  0
  1  5  2  0  0  0  0
  2  6  2  0  0  0  0
  3  8  2  0  0  0  0
  3 15  1  0  0  0  0
  4  9  1  0  0  0  0
  4 15  2  0  0  0  0
  5 17  1  0  0  0  0
  6 19  1  0  0  0  0
  7 10  2  0  0  0  0
  7 18  1  0  0  0  0
  8 24  1  0  0  0  0
  9 24  2  0  0  0  0
 10 25  1  0  0  0  0
 11 12  2  0  0  0  0
 11 26  1  0  0  0  0
 12 27  1  0  0  0  0
 13 20  1  0  0  0  0
 13 25  2  0  0  0  0
 14 27  2  0  0  0  0
 14 28  1  0  0  0  0
 15 29  1  0  0  0  0
 16 29  1  0  0  0  0
 16 32  2  0  0  0  0
 16 33  1  0  0  0  0
 17 19  2  0  0  0  0
 17 38  1  0  0  0  0
 18 20  2  0  0  0  0
 18 39  1  0  0  0  0
 19 48  1  0  0  0  0
 20 41  1  0  0  0  0
 21 22  1  0  0  0  0
 21 23  2  0  0  0  0
 21 40  1  0  0  0  0
 22 30  2  0  0  0  0
 22 51  1  0  0  0  0
 23 31  1  0  0  0  0
 23 63  1  0  0  0  0
 24 86  1  0  0  0  0
 25 87  1  0  0  0  0
 26 28  2  0  0  0  0
 26 86  1  0  0  0  0
 27 88  1  0  0  0  0
 28 89  1  0  0  0  0
 29 70  2  0  0  0  0
 30 53  1  0  0  0  0
 30 71  1  0  0  0  0
 31 64  1  0  0  0  0
 31 71  2  0  0  0  0
 32 72  1  0  0  0  0
 32 75  1  0  0  0  0
 33 76  1  0  0  0  0
 33 81  2  0  0  0  0
 34 49  1  0  0  0  0
 34 77  1  0  0  0  0
 34 82  2  0  0  0  0
 35 67  1  0  0  0  0
 35 73  1  0  0  0  0
 35 83  2  0  0  0  0
 36 68  1  0  0  0  0
 36 78  1  0  0  0  0
 36 84  2  0  0  0  0
 37 74  1  0  0  0  0
 37 79  1  0  0  0  0
 37 85  2  0  0  0  0
 38 42  1  0  0  0  0
 39 49  1  0  0  0  0
 40 52  1  0  0  0  0
 41 73  1  0  0  0  0
 42 44  1  0  0  0  0
 43 45  1  0  0  0  0
 43 46  1  0  0  0  0
 44 48  1  0  0  0  0
 45 50  1  0  0  0  0
 46 74  1  0  0  0  0
 47 50  1  0  0  0  0
 47 74  1  0  0  0  0
 48 77  1  0  0  0  0
 49 73  1  0  0  0  0
 50 72  1  0  0  0  0
 51 52  1  0  0  0  0
 51 54  1  0  0  0  0
 51 55  1  0  0  0  0
 52 65  1  0  0  0  0
 52 66  1  0  0  0  0
 56 63  1  0  0  0  0
 57 65  1  0  0  0  0
 58 68  1  0  0  0  0
 59 69  1  0  0  0  0
 60 69  1  0  0  0  0
 61 69  1  0  0  0  0
 62 80  1  0  0  0  0
 64 79  1  0  0  0  0
 66 87  1  0  0  0  0
 67 69  1  0  0  0  0
 67 78  1  0  0  0  0
 68 80  1  0  0  0  0
 70 72  1  0  0  0  0
M  CHG  1  80   1
M  ISO  4  37 100  66 101  79 100  87 101
M  END
> <Batch ID>
0163

> <Smiles>
CCc1c(C[100NH:0][100C:0](=O)N2CCCC(n3nc(-c4ccc(Oc5ccc(F)cc5F)cc4)c(C(N)=O)c3N)C2)nc(C)c2c1CC(CC)([101CH2:1][101O:1]c1ccc3c(c1)CN(C(=O)C(NC(=O)C(C)NC)C(C)(C)C)C(C(=O)NC1CCCc4ccccc41)C3)C2(C)C

> <Shape>
0.248

> <Color>
0.176

> <Negative vol penalty>
0.000

$$$$

  -OEChem-04052322173D

 91101  0     1  0  0  0  0  0999 V2000
  -23.2446  -10.0215   21.6460 C   0  0  0  0  0  0  0  0  0  0  0  0
  -24.1746  -10.9554   22.0914 C   0  0  0  0  0  0  0  0  0  0  0  0
  -25.2360  -28.5805   19.9079 C   0  0  0  0  0  0  0  0  0  0  0  0
  -24.9355  -26.6780   21.3664 C   0  0  0  0  0  0  0  0  0  0  0  0
  -22.2408  -10.4075   20.7587 C   0  0  0  0  0  0  0  0  0  0  0  0
  -24.1019  -12.2757   21.6489 C   0  0  0  0  0  0  0  0  0  0  0  0
  -24.7044  -15.6193   25.4042 C   0  0  0  0  0  0  0  0  0  0  0  0
  -23.8567  -28.6472   19.7107 C   0  0  0  0  0  0  0  0  0  0  0  0
  -23.5562  -26.7447   21.1693 C   0  0  0  0  0  0  0  0  0  0  0  0
  -26.0053  -15.8481   25.8504 C   0  0  0  0  0  0  0  0  0  0  0  0
  -19.9259  -26.6376   21.3360 C   0  0  0  0  0  0  0  0  0  0  0  0
  -19.1034  -26.5165   22.4560 C   0  0  0  0  0  0  0  0  0  0  0  0
  -30.3937  -17.6227   19.0401 C   0  0  0  0  0  0  0  0  0  0  0  0
  -26.0951  -17.8679   24.5345 C   0  0  0  0  0  0  0  0  0  0  0  0
  -20.1399  -28.4702   23.4286 C   0  0  0  0  0  0  0  0  0  0  0  0
  -25.7753  -27.5958   20.7357 C   0  0  0  0  0  0  0  0  0  0  0  0
  -27.9486  -28.1745   21.9398 C   0  0  0  0  0  0  0  0  0  0  0  0
  -22.1500  -11.7354   20.3126 C   0  0  0  0  0  0  0  0  0  0  0  0
  -24.0920  -16.5089   24.5097 C   0  0  0  0  0  0  0  0  0  0  0  0
  -23.0967  -12.6796   20.7537 C   0  0  0  0  0  0  0  0  0  0  0  0
  -30.3791  -18.3693   20.2181 C   0  0  0  0  0  0  0  0  0  0  0  0
  -24.7854  -17.6495   24.0804 C   0  0  0  0  0  0  0  0  0  0  0  0
  -30.6919  -16.2606   19.0812 C   0  0  0  0  0  0  0  0  0  0  0  0
  -30.6628  -17.7540   21.4374 C   0  0  0  0  0  0  0  0  0  0  0  0
  -30.9755  -15.6453   20.3004 C   0  0  0  0  0  0  0  0  0  0  0  0
  -30.9610  -16.3920   21.4786 C   0  0  0  0  0  0  0  0  0  0  0  0
  -23.0169  -27.7294   20.3414 C   0  0  0  0  0  0  0  0  0  0  0  0
  -26.7019  -16.9710   25.4133 C   0  0  0  0  0  0  0  0  0  0  0  0
  -20.8556  -27.6750   21.2623 C   0  0  0  0  0  0  0  0  0  0  0  0
  -19.2103  -27.4328   23.5022 C   0  0  0  0  0  0  0  0  0  0  0  0
  -20.9625  -28.5913   22.3086 C   0  0  0  0  0  0  0  0  0  0  0  0
  -27.2000  -27.5261   20.9393 C   0  0  0  0  0  0  0  0  0  0  0  0
  -29.2451  -27.7877   21.7037 C   0  0  0  0  0  0  0  0  0  0  0  0
  -27.5110  -29.0484   22.9889 C   0  0  0  0  0  0  0  0  0  0  0  0
  -22.9490  -16.2842   21.5522 C   0  0  0  0  0  0  0  0  0  0  0  0
  -21.9550  -19.3188   22.1231 C   0  0  0  0  0  0  0  0  0  0  0  0
  -22.3549  -22.2158   23.8821 C   0  0  0  0  0  0  0  0  0  0  0  0
  -31.6163  -23.0134   18.9866 C   0  0  0  0  0  0  0  0  0  0  0  0
  -21.0759  -12.0948   19.3167 C   0  0  0  0  0  0  0  0  0  0  0  0
  -22.6785  -16.2620   24.0587 C   0  0  0  0  0  0  0  0  0  0  0  0
  -24.1655  -18.6459   23.1362 C   0  0  0  0  0  0  0  0  0  0  0  0
  -20.8430  -13.5979   19.1879 C   0  0  0  0  0  0  0  0  0  0  0  0
  -32.1794  -26.4132   18.2076 C   0  0  0  0  0  0  0  0  0  0  0  0
  -22.1725  -14.3356   19.0658 C   0  0  0  0  0  0  0  0  0  0  0  0
  -31.0234  -27.1495   18.8790 C   0  0  0  0  0  0  0  0  0  0  0  0
  -29.6216  -18.7872   26.9480 C   0  0  0  0  0  0  0  0  0  0  0  0
  -30.5837  -18.7963   25.7462 C   0  0  0  0  0  0  0  0  0  0  0  0
  -29.1493  -20.2989   18.9878 C   0  0  0  0  0  0  0  0  0  0  0  0
  -31.7134  -25.0801   17.6378 C   0  0  0  0  0  0  0  0  0  0  0  0
  -29.3558  -21.8075   18.9633 C   0  0  0  0  0  0  0  0  0  0  0  0
  -31.2713  -20.7581   19.9492 C   0  0  0  0  0  0  0  0  0  0  0  0
  -29.9470  -24.8924   19.3683 C   0  0  0  0  0  0  0  0  0  0  0  0
  -30.0531  -19.8447   20.1455 C   0  0  2  0  0  0  0  0  0  0  0  0
  -23.0360  -14.1268   20.3157 C   0  0  1  0  0  0  0  0  0  0  0  0
  -22.3391  -16.9622   22.7464 C   0  0  1  0  0  0  0  0  0  0  0  0
  -30.3619  -26.2620   19.9446 C   0  0  2  0  0  0  0  0  0  0  0  0
  -28.4513  -18.5601   25.9634 C   0  0  1  0  0  0  0  0  0  1  0  0
  -29.3724  -19.1057   24.8215 C   0  0  1  0  0  0  0  0  0  0  0  0
  -30.6999  -15.4836   17.8054 C   0  0  0  0  0  0  0  0  0  0  0  0
  -31.2958  -14.1846   20.3415 C   0  0  0  0  0  0  0  0  0  0  0  0
  -31.2647  -15.7318   22.7865 C   0  0  0  0  0  0  0  0  0  0  0  0
  -29.1756  -20.6005   24.5486 C   0  0  0  0  0  0  0  0  0  0  0  0
  -21.8495  -24.5363   24.6928 C   0  0  0  0  0  0  0  0  0  0  0  0
  -23.3828  -20.1366   19.5536 C   0  0  0  0  0  0  0  0  0  0  0  0
  -23.2344  -22.5181   20.3116 C   0  0  0  0  0  0  0  0  0  0  0  0
  -21.1507  -21.2118   19.8943 C   0  0  0  0  0  0  0  0  0  0  0  0
  -20.6199  -21.2035   26.0555 C   0  0  0  0  0  0  0  0  0  0  0  0
  -30.6462  -18.5571   22.6995 C   0  0  0  0  0  0  0  0  0  0  0  0
  -29.3723  -18.3111   23.5188 C   0  0  0  0  0  0  0  0  0  0  0  0
  -22.5516  -20.6926   21.9339 C   0  0  1  0  0  0  0  0  0  0  0  0
  -21.3564  -23.1002   24.6068 C   0  0  2  0  0  0  0  0  0  0  0  0
  -22.5925  -21.1202   20.4396 C   0  0  0  0  0  0  0  0  0  0  0  0
  -27.9580  -26.7837   20.1279 N   0  0  0  0  0  0  0  0  0  0  0  0
  -29.1963  -26.9634   20.6182 N   0  0  0  0  0  0  0  0  0  0  0  0
  -22.7836  -18.3572   22.7187 N   0  0  0  0  0  0  0  0  0  0  0  0
  -31.0595  -24.2531   18.6537 N   0  0  0  0  0  0  0  0  0  0  0  0
  -30.7489  -21.9895   19.3656 N   0  0  0  0  0  0  0  0  0  0  0  0
  -30.4108  -28.0756   22.3207 N   0  0  0  0  0  0  0  0  0  0  0  0
  -26.1439  -29.3412   23.0879 N   0  0  0  0  0  0  0  0  0  0  0  0
  -22.5682  -14.9648   21.3990 N   0  0  0  0  0  0  0  0  0  0  0  0
  -21.7870  -21.5913   22.7919 N   0  0  0  0  0  0  0  0  0  0  0  0
  -21.1287  -22.5978   25.9912 N   0  3  0  0  0  0  0  0  0  0  0  0
  -28.3107  -29.5677   23.8040 O   0  0  0  0  0  0  0  0  0  0  0  0
  -23.7076  -16.9122   20.8229 O   0  0  0  0  0  0  0  0  0  0  0  0
  -20.7942  -19.1086   21.7626 O   0  0  0  0  0  0  0  0  0  0  0  0
  -23.5230  -22.0943   24.2445 O   0  0  0  0  0  0  0  0  0  0  0  0
  -32.8363  -22.8150   18.9089 O   0  0  0  0  0  0  0  0  0  0  0  0
  -21.6709  -27.7943   20.1494 O   0  0  0  0  0  0  0  0  0  0  0  0
  -27.9862  -17.1988   25.8516 O   0  0  0  0  0  0  0  0  0  1  0  0
  -18.4193  -27.3172   24.5770 F   0  0  0  0  0  0  0  0  0  0  0  0
  -21.8529  -29.5906   22.2430 F   0  0  0  0  0  0  0  0  0  0  0  0
  1  2  1  0  0  0  0
  1  5  2  0  0  0  0
  2  6  2  0  0  0  0
  3  8  2  0  0  0  0
  3 16  1  0  0  0  0
  4  9  1  0  0  0  0
  4 16  2  0  0  0  0
  5 18  1  0  0  0  0
  6 20  1  0  0  0  0
  7 10  2  0  0  0  0
  7 19  1  0  0  0  0
  8 27  1  0  0  0  0
  9 27  2  0  0  0  0
 10 28  1  0  0  0  0
 11 12  2  0  0  0  0
 11 29  1  0  0  0  0
 12 30  1  0  0  0  0
 13 21  2  0  0  0  0
 13 23  1  0  0  0  0
 14 22  1  0  0  0  0
 14 28  2  0  0  0  0
 15 30  2  0  0  0  0
 15 31  1  0  0  0  0
 16 32  1  0  0  0  0
 17 32  1  0  0  0  0
 17 33  2  0  0  0  0
 17 34  1  0  0  0  0
 18 20  2  0  0  0  0
 18 39  1  0  0  0  0
 19 22  2  0  0  0  0
 19 40  1  0  0  0  0
 20 54  1  0  0  0  0
 21 24  1  0  0  0  0
 21 53  1  0  0  0  0
 22 41  1  0  0  0  0
 23 25  2  0  0  0  0
 23 59  1  0  0  0  0
 24 26  2  0  0  0  0
 24 68  1  0  0  0  0
 25 26  1  0  0  0  0
 25 60  1  0  0  0  0
 26 61  1  0  0  0  0
 27 88  1  0  0  0  0
 28 89  1  0  0  0  0
 29 31  2  0  0  0  0
 29 88  1  0  0  0  0
 30 90  1  0  0  0  0
 31 91  1  0  0  0  0
 32 73  2  0  0  0  0
 33 74  1  0  0  0  0
 33 78  1  0  0  0  0
 34 79  1  0  0  0  0
 34 83  2  0  0  0  0
 35 55  1  0  0  0  0
 35 80  1  0  0  0  0
 35 84  2  0  0  0  0
 36 70  1  0  0  0  0
 36 75  1  0  0  0  0
 36 85  2  0  0  0  0
 37 71  1  0  0  0  0
 37 81  1  0  0  0  0
 37 86  2  0  0  0  0
 38 76  1  0  0  0  0
 38 77  1  0  0  0  0
 38 87  2  0  0  0  0
 39 42  1  0  0  0  0
 40 55  1  0  0  0  0
 41 75  1  0  0  0  0
 42 44  1  0  0  0  0
 43 45  1  0  0  0  0
 43 49  1  0  0  0  0
 44 54  1  0  0  0  0
 45 56  1  0  0  0  0
 46 47  1  0  0  0  0
 46 57  1  0  0  0  0
 47 58  1  0  0  0  0
 48 50  1  0  0  0  0
 48 53  1  0  0  0  0
 49 76  1  0  0  0  0
 50 77  1  0  0  0  0
 51 53  1  0  0  0  0
 51 77  1  0  0  0  0
 52 56  1  0  0  0  0
 52 76  1  0  0  0  0
 54 80  1  0  0  0  0
 55 75  1  0  0  0  0
 56 74  1  0  0  0  0
 57 58  1  0  0  0  0
 57 89  1  0  0  0  0
 58 62  1  0  0  0  0
 58 69  1  0  0  0  0
 63 71  1  0  0  0  0
 64 72  1  0  0  0  0
 65 72  1  0  0  0  0
 66 72  1  0  0  0  0
 67 82  1  0  0  0  0
 68 69  1  0  0  0  0
 70 72  1  0  0  0  0
 70 81  1  0  0  0  0
 71 82  1  0  0  0  0
 73 74  1  0  0  0  0
M  CHG  1  82   1
M  ISO  4  38 100  57 101  77 100  89 101
M  END
> <Batch ID>
0163

> <Smiles>
CNC(C)C(=O)NC(C(=O)N1Cc2cc([101O:1][101CH:1]3CCC3(C)CCc3c(C4CC[100N:0]([100C:0](=O)N5CCCC(n6nc(-c7ccc(Oc8ccc(F)cc8F)cc7)c(C(N)=O)c6N)C5)C4)cc(C)c(C)c3C)ccc2CC1C(=O)NC1CCCc2ccccc21)C(C)(C)C

> <Shape>
0.222

> <Color>
0.028

> <Negative vol penalty>
0.000

$$$$

  -OEChem-04052322173D

 85 94  0     1  0  0  0  0  0999 V2000
  -14.4973  -24.7846   13.5326 C   0  0  0  0  0  0  0  0  0  0  0  0
  -15.7769  -24.3551   13.8698 C   0  0  0  0  0  0  0  0  0  0  0  0
  -23.0585   -9.9818   19.9777 C   0  0  0  0  0  0  0  0  0  0  0  0
  -23.5562  -10.0549   22.3407 C   0  0  0  0  0  0  0  0  0  0  0  0
  -14.1042  -26.0916   13.8176 C   0  0  0  0  0  0  0  0  0  0  0  0
  -16.6645  -25.2328   14.4913 C   0  0  0  0  0  0  0  0  0  0  0  0
  -25.0477  -18.1263   17.9499 C   0  0  0  0  0  0  0  0  0  0  0  0
  -19.1084  -23.0954   18.3778 C   0  0  0  0  0  0  0  0  0  0  0  0
  -23.8769  -18.8545   18.1608 C   0  0  0  0  0  0  0  0  0  0  0  0
  -22.2498   -8.8640   20.1826 C   0  0  0  0  0  0  0  0  0  0  0  0
  -22.7474   -8.9371   22.5457 C   0  0  0  0  0  0  0  0  0  0  0  0
  -20.1720  -22.2475   18.0722 C   0  0  0  0  0  0  0  0  0  0  0  0
  -22.9776   -5.5881   22.1436 C   0  0  0  0  0  0  0  0  0  0  0  0
  -23.4708   -4.5726   22.9628 C   0  0  0  0  0  0  0  0  0  0  0  0
  -21.7240  -24.0296   18.5565 C   0  0  0  0  0  0  0  0  0  0  0  0
  -21.5963   -4.8683   24.4581 C   0  0  0  0  0  0  0  0  0  0  0  0
  -23.7118  -10.5773   21.0568 C   0  0  0  0  0  0  0  0  0  0  0  0
  -24.1569  -13.0834   20.8864 C   0  0  0  0  0  0  0  0  0  0  0  0
  -14.9842  -26.9828   14.4517 C   0  0  0  0  0  0  0  0  0  0  0  0
  -19.3445  -24.4223   18.7651 C   0  0  0  0  0  0  0  0  0  0  0  0
  -16.2832  -26.5533   14.7839 C   0  0  0  0  0  0  0  0  0  0  0  0
  -25.8011  -18.3361   16.7949 C   0  0  0  0  0  0  0  0  0  0  0  0
  -20.6617  -24.8916   18.8689 C   0  0  0  0  0  0  0  0  0  0  0  0
  -23.4594  -19.7925   17.2166 C   0  0  0  0  0  0  0  0  0  0  0  0
  -25.3836  -19.2741   15.8506 C   0  0  0  0  0  0  0  0  0  0  0  0
  -24.2127  -20.0023   16.0615 C   0  0  0  0  0  0  0  0  0  0  0  0
  -22.0942   -8.3417   21.4666 C   0  0  0  0  0  0  0  0  0  0  0  0
  -21.4800  -22.7154   18.1588 C   0  0  0  0  0  0  0  0  0  0  0  0
  -21.7937   -6.2437   22.4817 C   0  0  0  0  0  0  0  0  0  0  0  0
  -22.7802   -4.2127   24.1200 C   0  0  0  0  0  0  0  0  0  0  0  0
  -21.1030   -5.8838   23.6389 C   0  0  0  0  0  0  0  0  0  0  0  0
  -24.5479  -11.7316   20.8457 C   0  0  0  0  0  0  0  0  0  0  0  0
  -25.3095  -13.7823   20.6229 C   0  0  0  0  0  0  0  0  0  0  0  0
  -22.8671  -13.6560   21.1399 C   0  0  0  0  0  0  0  0  0  0  0  0
  -18.5897  -27.2733   17.5794 C   0  0  0  0  0  0  0  0  0  0  0  0
  -19.9103  -28.3397   20.3437 C   0  0  0  0  0  0  0  0  0  0  0  0
  -22.0537  -27.7728   22.9381 C   0  0  0  0  0  0  0  0  0  0  0  0
  -29.9646  -14.6142   17.8748 C   0  0  0  0  0  0  0  0  0  0  0  0
  -14.5303  -28.4000   14.6968 C   0  0  0  0  0  0  0  0  0  0  0  0
  -18.1873  -25.3164   19.1171 C   0  0  0  0  0  0  0  0  0  0  0  0
  -20.9695  -26.3017   19.2995 C   0  0  0  0  0  0  0  0  0  0  0  0
  -15.4035  -29.1551   15.6956 C   0  0  0  0  0  0  0  0  0  0  0  0
  -30.1221  -12.2632   20.4046 C   0  0  0  0  0  0  0  0  0  0  0  0
  -16.8807  -28.9487   15.3761 C   0  0  0  0  0  0  0  0  0  0  0  0
  -28.6561  -12.0155   20.7598 C   0  0  0  0  0  0  0  0  0  0  0  0
  -28.1154  -17.8141   17.6839 C   0  0  0  0  0  0  0  0  0  0  0  0
  -26.7858  -16.0218   16.4920 C   0  0  0  0  0  0  0  0  0  0  0  0
  -30.3061  -12.3834   18.8959 C   0  0  0  0  0  0  0  0  0  0  0  0
  -29.3778  -16.9793   17.4821 C   0  0  0  0  0  0  0  0  0  0  0  0
  -28.0775  -15.2288   16.3157 C   0  0  0  0  0  0  0  0  0  0  0  0
  -27.9914  -13.2062   18.6140 C   0  0  0  0  0  0  0  0  0  0  0  0
  -27.0707  -17.5309   16.5906 C   0  0  0  0  0  0  0  0  0  0  0  0
  -17.2663  -27.4683   15.4815 C   0  0  1  0  0  0  0  0  0  0  0  0
  -18.5228  -26.8003   19.0040 C   0  0  1  0  0  0  0  0  0  0  0  0
  -27.7473  -13.0868   20.1317 C   0  0  1  0  0  0  0  0  0  0  0  0
  -26.1942  -19.4979   14.6135 C   0  0  0  0  0  0  0  0  0  0  0  0
  -23.7626  -21.0076   15.0491 C   0  0  0  0  0  0  0  0  0  0  0  0
  -22.9493  -28.8438   25.0234 C   0  0  0  0  0  0  0  0  0  0  0  0
  -21.7006  -30.1374   18.6486 C   0  0  0  0  0  0  0  0  0  0  0  0
  -23.1702  -30.4451   20.6521 C   0  0  0  0  0  0  0  0  0  0  0  0
  -20.7985  -31.2155   20.7170 C   0  0  0  0  0  0  0  0  0  0  0  0
  -20.9725  -25.6144   24.6502 C   0  0  0  0  0  0  0  0  0  0  0  0
  -22.2007  -20.5575   17.4658 C   0  0  0  0  0  0  0  0  0  1  0  0
  -21.2992  -28.7381   20.7810 C   0  0  1  0  0  0  0  0  0  0  0  0
  -21.8834  -27.9305   24.4383 C   0  0  2  0  0  0  0  0  0  0  0  0
  -21.7366  -30.1080   20.1896 C   0  0  0  0  0  0  0  0  0  0  0  0
  -25.8474  -11.5786   20.5772 N   0  0  0  0  0  0  0  0  0  0  0  0
  -26.2829  -12.8433   20.4468 N   0  0  0  0  0  0  0  0  0  0  0  0
  -19.8039  -27.1393   19.6270 N   0  0  0  0  0  0  0  0  0  0  0  0
  -29.4216  -13.4057   18.3370 N   0  0  0  0  0  0  0  0  0  0  0  0
  -29.0622  -15.5570   17.3555 N   0  0  0  0  0  0  0  0  0  0  0  0
  -25.5752  -15.1024   20.5268 N   0  0  0  0  0  0  0  0  0  0  0  0
  -21.7913  -12.7940   21.3924 N   0  0  0  0  0  0  0  0  0  0  0  0
  -17.4203  -27.0835   16.8681 N   0  0  0  0  0  0  0  0  0  0  0  0
  -21.2976  -28.6898   22.2391 N   0  0  0  0  0  0  0  0  0  0  0  0
  -21.9785  -26.6049   25.1126 N   0  3  0  0  0  0  0  0  0  0  0  0
  -22.6710  -14.8949   21.1262 O   0  0  0  0  0  0  0  0  0  0  0  0
  -19.6251  -27.7747   17.1573 O   0  0  0  0  0  0  0  0  0  0  0  0
  -18.9542  -29.0631   20.6336 O   0  0  0  0  0  0  0  0  0  0  0  0
  -22.7873  -26.9238   22.4367 O   0  0  0  0  0  0  0  0  0  0  0  0
  -31.1797  -14.8418   17.9268 O   0  0  0  0  0  0  0  0  0  0  0  0
  -21.3048   -7.2511   21.6669 O   0  0  0  0  0  0  0  0  0  0  0  0
  -22.5274  -21.8841   17.8583 O   0  0  0  0  0  0  0  0  0  1  0  0
  -23.2532   -3.2365   24.9058 F   0  0  0  0  0  0  0  0  0  0  0  0
  -19.9645   -6.5092   23.9682 F   0  0  0  0  0  0  0  0  0  0  0  0
  1  2  1  0  0  0  0
  1  5  2  0  0  0  0
  2  6  2  0  0  0  0
  3 10  2  0  0  0  0
  3 17  1  0  0  0  0
  4 11  1  0  0  0  0
  4 17  2  0  0  0  0
  5 19  1  0  0  0  0
  6 21  1  0  0  0  0
  7  9  2  0  0  0  0
  7 22  1  0  0  0  0
  8 12  2  0  0  0  0
  8 20  1  0  0  0  0
  9 24  1  0  0  0  0
 10 27  1  0  0  0  0
 11 27  2  0  0  0  0
 12 28  1  0  0  0  0
 13 14  2  0  0  0  0
 13 29  1  0  0  0  0
 14 30  1  0  0  0  0
 15 23  1  0  0  0  0
 15 28  2  0  0  0  0
 16 30  2  0  0  0  0
 16 31  1  0  0  0  0
 17 32  1  0  0  0  0
 18 32  1  0  0  0  0
 18 33  2  0  0  0  0
 18 34  1  0  0  0  0
 19 21  2  0  0  0  0
 19 39  1  0  0  0  0
 20 23  2  0  0  0  0
 20 40  1  0  0  0  0
 21 53  1  0  0  0  0
 22 25  2  0  0  0  0
 22 52  1  0  0  0  0
 23 41  1  0  0  0  0
 24 26  2  0  0  0  0
 24 63  1  0  0  0  0
 25 26  1  0  0  0  0
 25 56  1  0  0  0  0
 26 57  1  0  0  0  0
 27 82  1  0  0  0  0
 28 83  1  0  0  0  0
 29 31  2  0  0  0  0
 29 82  1  0  0  0  0
 30 84  1  0  0  0  0
 31 85  1  0  0  0  0
 32 67  2  0  0  0  0
 33 68  1  0  0  0  0
 33 72  1  0  0  0  0
 34 73  1  0  0  0  0
 34 77  2  0  0  0  0
 35 54  1  0  0  0  0
 35 74  1  0  0  0  0
 35 78  2  0  0  0  0
 36 64  1  0  0  0  0
 36 69  1  0  0  0  0
 36 79  2  0  0  0  0
 37 65  1  0  0  0  0
 37 75  1  0  0  0  0
 37 80  2  0  0  0  0
 38 70  1  0  0  0  0
 38 71  1  0  0  0  0
 38 81  2  0  0  0  0
 39 42  1  0  0  0  0
 40 54  1  0  0  0  0
 41 69  1  0  0  0  0
 42 44  1  0  0  0  0
 43 45  1  0  0  0  0
 43 48  1  0  0  0  0
 44 53  1  0  0  0  0
 45 55  1  0  0  0  0
 46 49  1  0  0  0  0
 46 52  1  0  0  0  0
 47 50  1  0  0  0  0
 47 52  1  0  0  0  0
 48 70  1  0  0  0  0
 49 71  1  0  0  0  0
 50 71  1  0  0  0  0
 51 55  1  0  0  0  0
 51 70  1  0  0  0  0
 53 74  1  0  0  0  0
 54 69  1  0  0  0  0
 55 68  1  0  0  0  0
 58 65  1  0  0  0  0
 59 66  1  0  0  0  0
 60 66  1  0  0  0  0
 61 66  1  0  0  0  0
 62 76  1  0  0  0  0
 63 83  1  0  0  0  0
 64 66  1  0  0  0  0
 64 75  1  0  0  0  0
 65 76  1  0  0  0  0
 67 68  1  0  0  0  0
M  CHG  1  76   1
M  ISO  4  38 100  63 101  71 100  83 101
M  END
> <Batch ID>
0163

> <Smiles>
CNC(C)C(=O)NC(C(=O)N1Cc2cc([101O:1][101CH2:1]c3ccc(C4CC[100N:0]([100C:0](=O)N5CCCC(n6nc(-c7ccc(Oc8ccc(F)cc8F)cc7)c(C(N)=O)c6N)C5)CC4)c(C)c3C)ccc2CC1C(=O)NC1CCCc2ccccc21)C(C)(C)C

> <Shape>
0.192

> <Color>
0.201

> <Negative vol penalty>
0.000

$$$$

  -OEChem-04052322173D

 88 98  0     1  0  0  0  0  0999 V2000
  -30.0607  -25.1371   20.8235 C   0  0  0  0  0  0  0  0  0  0  0  0
  -30.3176  -26.4996   20.7205 C   0  0  0  0  0  0  0  0  0  0  0  0
  -24.9167  -13.5034   21.3202 C   0  0  0  0  0  0  0  0  0  0  0  0
  -25.6800  -13.2902   19.0379 C   0  0  0  0  0  0  0  0  0  0  0  0
  -29.0492  -24.5625   20.0567 C   0  0  0  0  0  0  0  0  0  0  0  0
  -29.5553  -27.2900   19.8597 C   0  0  0  0  0  0  0  0  0  0  0  0
  -22.6280  -30.6207   19.4415 C   0  0  0  0  0  0  0  0  0  0  0  0
  -24.1151  -12.3735   21.1577 C   0  0  0  0  0  0  0  0  0  0  0  0
  -24.8784  -12.1603   18.8753 C   0  0  0  0  0  0  0  0  0  0  0  0
  -21.4123  -30.1778   19.9608 C   0  0  0  0  0  0  0  0  0  0  0  0
  -24.5180   -9.0164   21.1316 C   0  0  0  0  0  0  0  0  0  0  0  0
  -24.5305   -8.0611   22.1479 C   0  0  0  0  0  0  0  0  0  0  0  0
  -21.6614  -26.5349   22.8373 C   0  0  0  0  0  0  0  0  0  0  0  0
  -22.5223  -29.5517   22.0090 C   0  0  0  0  0  0  0  0  0  0  0  0
  -20.9447  -25.5838   24.9593 C   0  0  0  0  0  0  0  0  0  0  0  0
  -22.1573   -8.3759   22.4731 C   0  0  0  0  0  0  0  0  0  0  0  0
  -25.6991  -13.9618   20.2603 C   0  0  0  0  0  0  0  0  0  0  0  0
  -27.8626  -15.1680   20.8703 C   0  0  0  0  0  0  0  0  0  0  0  0
  -28.2829  -25.3448   19.1771 C   0  0  0  0  0  0  0  0  0  0  0  0
  -23.8038  -30.5221   20.1991 C   0  0  0  0  0  0  0  0  0  0  0  0
  -28.5142  -26.7330   19.0952 C   0  0  0  0  0  0  0  0  0  0  0  0
  -20.3747  -27.0174   22.6520 C   0  0  0  0  0  0  0  0  0  0  0  0
  -23.7512  -29.9963   21.4980 C   0  0  0  0  0  0  0  0  0  0  0  0
  -19.3808  -26.7864   23.6141 C   0  0  0  0  0  0  0  0  0  0  0  0
  -19.6531  -26.0793   24.7737 C   0  0  0  0  0  0  0  0  0  0  0  0
  -21.9415  -25.8097   23.9980 C   0  0  0  0  0  0  0  0  0  0  0  0
  -24.0960  -11.7019   19.9353 C   0  0  0  0  0  0  0  0  0  0  0  0
  -21.3598  -29.6406   21.2437 C   0  0  0  0  0  0  0  0  0  0  0  0
  -23.3251   -9.6515   20.7861 C   0  0  0  0  0  0  0  0  0  0  0  0
  -23.3502   -7.7408   22.8186 C   0  0  0  0  0  0  0  0  0  0  0  0
  -22.1448   -9.3312   21.4568 C   0  0  0  0  0  0  0  0  0  0  0  0
  -26.5268  -15.1293   20.4274 C   0  0  0  0  0  0  0  0  0  0  0  0
  -28.1910  -16.5015   20.8547 C   0  0  0  0  0  0  0  0  0  0  0  0
  -28.7290  -14.0945   21.2608 C   0  0  0  0  0  0  0  0  0  0  0  0
  -26.5684  -28.9901   19.8611 C   0  0  0  0  0  0  0  0  0  0  0  0
  -27.3758  -30.6666   22.5181 C   0  0  0  0  0  0  0  0  0  0  0  0
  -26.3528  -32.3206   25.3225 C   0  0  0  0  0  0  0  0  0  0  0  0
  -26.1153  -21.5611   21.9200 C   0  0  0  0  0  0  0  0  0  0  0  0
  -27.1953  -24.6727   18.3766 C   0  0  0  0  0  0  0  0  0  0  0  0
  -25.1026  -31.0289   19.6346 C   0  0  0  0  0  0  0  0  0  0  0  0
  -18.0903  -27.4335   23.2197 C   0  0  0  0  0  0  0  0  0  0  0  0
  -24.9815  -29.8872   22.3598 C   0  0  0  0  0  0  0  0  0  0  0  0
  -26.7436  -25.4987   17.1766 C   0  0  0  0  0  0  0  0  0  0  0  0
  -18.3099  -27.6369   21.7108 C   0  0  0  0  0  0  0  0  0  0  0  0
  -26.4186  -20.5114   18.5830 C   0  0  0  0  0  0  0  0  0  0  0  0
  -26.4507  -26.9274   17.6096 C   0  0  0  0  0  0  0  0  0  0  0  0
  -26.6109  -19.0049   18.7552 C   0  0  0  0  0  0  0  0  0  0  0  0
  -23.4508  -23.8305   22.2917 C   0  0  0  0  0  0  0  0  0  0  0  0
  -25.4403  -24.4457   23.7168 C   0  0  0  0  0  0  0  0  0  0  0  0
  -25.3708  -21.0694   19.5478 C   0  0  0  0  0  0  0  0  0  0  0  0
  -24.4055  -23.2967   21.2197 C   0  0  0  0  0  0  0  0  0  0  0  0
  -26.3528  -23.9276   22.6086 C   0  0  0  0  0  0  0  0  0  0  0  0
  -25.8166  -19.2293   21.1396 C   0  0  0  0  0  0  0  0  0  0  0  0
  -27.7182  -27.6071   18.1430 C   0  0  1  0  0  0  0  0  0  0  0  0
  -26.3265  -30.4067   20.2998 C   0  0  1  0  0  0  0  0  0  0  0  0
  -26.9056  -18.6499   20.2235 C   0  0  1  0  0  0  0  0  0  0  0  0
  -24.1080  -24.9254   23.1352 C   0  0  0  0  0  0  0  0  0  0  0  0
  -19.8293  -27.8413   21.5189 C   0  0  2  0  0  0  0  0  0  1  0  0
  -18.6071  -25.8472   25.8079 C   0  0  0  0  0  0  0  0  0  0  0  0
  -20.3020  -27.4316   20.1308 C   0  0  0  0  0  0  0  0  0  0  0  0
  -27.2448  -33.5518   27.3190 C   0  0  0  0  0  0  0  0  0  0  0  0
  -28.1540  -28.0116   23.8047 C   0  0  0  0  0  0  0  0  0  0  0  0
  -28.1189  -29.1592   26.0296 C   0  0  0  0  0  0  0  0  0  0  0  0
  -29.7277  -29.8983   24.2722 C   0  0  0  0  0  0  0  0  0  0  0  0
  -24.9781  -34.8219   24.5395 C   0  0  0  0  0  0  0  0  0  0  0  0
  -27.2703  -30.4292   24.0052 C   0  0  1  0  0  0  0  0  0  0  0  0
  -26.7383  -33.6747   25.8903 C   0  0  2  0  0  0  0  0  0  0  0  0
  -28.2947  -29.3747   24.5112 C   0  0  0  0  0  0  0  0  0  0  0  0
  -26.0400  -16.3419   20.1508 N   0  0  0  0  0  0  0  0  0  0  0  0
  -27.0753  -17.1551   20.4206 N   0  0  0  0  0  0  0  0  0  0  0  0
  -26.2287  -30.3905   21.7608 N   0  0  0  0  0  0  0  0  0  0  0  0
  -25.6719  -20.6714   20.9301 N   0  0  0  0  0  0  0  0  0  0  0  0
  -25.6861  -22.8927   21.8176 N   0  0  0  0  0  0  0  0  0  0  0  0
  -29.3223  -17.1672   21.1701 N   0  0  0  0  0  0  0  0  0  0  0  0
  -28.2316  -12.7849   21.2175 N   0  0  0  0  0  0  0  0  0  0  0  0
  -23.2163  -25.3137   24.2057 N   0  0  0  0  0  0  0  0  0  0  0  0
  -27.3596  -28.8776   18.7338 N   0  0  0  0  0  0  0  0  0  0  0  0
  -27.3980  -31.7377   24.6376 N   0  0  0  0  0  0  0  0  0  0  0  0
  -25.5636  -34.5919   25.8853 N   0  3  0  0  0  0  0  0  0  0  0  0
  -29.9042  -14.2922   21.6526 O   0  0  0  0  0  0  0  0  0  0  0  0
  -26.0749  -28.0675   20.4990 O   0  0  0  0  0  0  0  0  0  0  0  0
  -28.4348  -31.0886   22.0468 O   0  0  0  0  0  0  0  0  0  0  0  0
  -25.2373  -31.8276   25.4747 O   0  0  0  0  0  0  0  0  0  0  0  0
  -26.8516  -21.1876   22.8417 O   0  0  0  0  0  0  0  0  0  0  0  0
  -23.3142  -10.5992   19.7764 O   0  0  0  0  0  0  0  0  0  0  0  0
  -20.1672  -29.2044   21.7560 O   0  0  0  0  0  0  0  0  0  1  0  0
  -23.3621   -6.8223   23.7934 F   0  0  0  0  0  0  0  0  0  0  0  0
  -20.9955   -9.9372   21.1285 F   0  0  0  0  0  0  0  0  0  0  0  0
  1  2  1  0  0  0  0
  1  5  2  0  0  0  0
  2  6  2  0  0  0  0
  3  8  2  0  0  0  0
  3 17  1  0  0  0  0
  4  9  1  0  0  0  0
  4 17  2  0  0  0  0
  5 19  1  0  0  0  0
  6 21  1  0  0  0  0
  7 10  2  0  0  0  0
  7 20  1  0  0  0  0
  8 27  1  0  0  0  0
  9 27  2  0  0  0  0
 10 28  1  0  0  0  0
 11 12  2  0  0  0  0
 11 29  1  0  0  0  0
 12 30  1  0  0  0  0
 13 22  1  0  0  0  0
 13 26  2  0  0  0  0
 14 23  1  0  0  0  0
 14 28  2  0  0  0  0
 15 25  2  0  0  0  0
 15 26  1  0  0  0  0
 16 30  2  0  0  0  0
 16 31  1  0  0  0  0
 17 32  1  0  0  0  0
 18 32  1  0  0  0  0
 18 33  2  0  0  0  0
 18 34  1  0  0  0  0
 19 21  2  0  0  0  0
 19 39  1  0  0  0  0
 20 23  2  0  0  0  0
 20 40  1  0  0  0  0
 21 54  1  0  0  0  0
 22 24  2  0  0  0  0
 22 58  1  0  0  0  0
 23 42  1  0  0  0  0
 24 25  1  0  0  0  0
 24 41  1  0  0  0  0
 25 59  1  0  0  0  0
 26 76  1  0  0  0  0
 27 85  1  0  0  0  0
 28 86  1  0  0  0  0
 29 31  2  0  0  0  0
 29 85  1  0  0  0  0
 30 87  1  0  0  0  0
 31 88  1  0  0  0  0
 32 69  2  0  0  0  0
 33 70  1  0  0  0  0
 33 74  1  0  0  0  0
 34 75  1  0  0  0  0
 34 80  2  0  0  0  0
 35 55  1  0  0  0  0
 35 77  1  0  0  0  0
 35 81  2  0  0  0  0
 36 66  1  0  0  0  0
 36 71  1  0  0  0  0
 36 82  2  0  0  0  0
 37 67  1  0  0  0  0
 37 78  1  0  0  0  0
 37 83  2  0  0  0  0
 38 72  1  0  0  0  0
 38 73  1  0  0  0  0
 38 84  2  0  0  0  0
 39 43  1  0  0  0  0
 40 55  1  0  0  0  0
 41 44  1  0  0  0  0
 42 71  1  0  0  0  0
 43 46  1  0  0  0  0
 44 58  1  0  0  0  0
 45 47  1  0  0  0  0
 45 50  1  0  0  0  0
 46 54  1  0  0  0  0
 47 56  1  0  0  0  0
 48 51  1  0  0  0  0
 48 57  1  0  0  0  0
 49 52  1  0  0  0  0
 49 57  1  0  0  0  0
 50 72  1  0  0  0  0
 51 73  1  0  0  0  0
 52 73  1  0  0  0  0
 53 56  1  0  0  0  0
 53 72  1  0  0  0  0
 54 77  1  0  0  0  0
 55 71  1  0  0  0  0
 56 70  1  0  0  0  0
 57 76  1  0  0  0  0
 58 60  1  0  0  0  0
 58 86  1  0  0  0  0
 61 67  1  0  0  0  0
 62 68  1  0  0  0  0
 63 68  1  0  0  0  0
 64 68  1  0  0  0  0
 65 79  1  0  0  0  0
 66 68  1  0  0  0  0
 66 78  1  0  0  0  0
 67 79  1  0  0  0  0
 69 70  1  0  0  0  0
M  CHG  1  79   1
M  ISO  4  38 100  58 101  73 100  86 101
M  END
> <Batch ID>
0163

> <Smiles>
CNC(C)C(=O)NC(C(=O)N1Cc2cc([101O:1][101C:1]3(C)CCc4c(C)cc(NC5CC[100N:0]([100C:0](=O)N6CCCC(n7nc(-c8ccc(Oc9ccc(F)cc9F)cc8)c(C(N)=O)c7N)C6)CC5)cc43)ccc2CC1C(=O)NC1CCCc2ccccc21)C(C)(C)C

> <Shape>
0.309

> <Color>
0.060

> <Negative vol penalty>
0.000

$$$$

  -OEChem-04052322173D

 90 99  0     1  0  0  0  0  0999 V2000
  -23.7621  -28.6634   12.2789 C   0  0  0  0  0  0  0  0  0  0  0  0
  -23.2721  -29.0440   13.5241 C   0  0  0  0  0  0  0  0  0  0  0  0
  -22.3279  -17.0440   20.7766 C   0  0  0  0  0  0  0  0  0  0  0  0
  -23.8391  -18.3913   19.4582 C   0  0  0  0  0  0  0  0  0  0  0  0
  -24.5646  -27.5291   12.1639 C   0  0  0  0  0  0  0  0  0  0  0  0
  -23.5833  -28.2898   14.6548 C   0  0  0  0  0  0  0  0  0  0  0  0
  -24.5056  -30.3818   20.3363 C   0  0  0  0  0  0  0  0  0  0  0  0
  -23.3530  -16.1291   21.0167 C   0  0  0  0  0  0  0  0  0  0  0  0
  -24.8643  -17.4764   19.6984 C   0  0  0  0  0  0  0  0  0  0  0  0
  -23.6785  -30.4499   21.4565 C   0  0  0  0  0  0  0  0  0  0  0  0
  -24.8757  -13.6045   19.3636 C   0  0  0  0  0  0  0  0  0  0  0  0
  -24.5764  -12.2484   19.2343 C   0  0  0  0  0  0  0  0  0  0  0  0
  -24.6113  -28.3768   22.2637 C   0  0  0  0  0  0  0  0  0  0  0  0
  -25.1774  -11.8951   21.5476 C   0  0  0  0  0  0  0  0  0  0  0  0
  -22.5709  -18.1751   19.9973 C   0  0  0  0  0  0  0  0  0  0  0  0
  -20.2823  -18.8706   19.1106 C   0  0  0  0  0  0  0  0  0  0  0  0
  -24.8938  -26.7660   13.2952 C   0  0  0  0  0  0  0  0  0  0  0  0
  -25.3854  -29.3033   20.1656 C   0  0  0  0  0  0  0  0  0  0  0  0
  -24.3899  -27.1434   14.5546 C   0  0  0  0  0  0  0  0  0  0  0  0
  -25.4503  -28.2987   21.1417 C   0  0  0  0  0  0  0  0  0  0  0  0
  -19.2006  -29.2184   24.0979 C   0  0  0  0  0  0  0  0  0  0  0  0
  -18.5584  -30.4291   23.7880 C   0  0  0  0  0  0  0  0  0  0  0  0
  -18.6116  -28.0013   23.7092 C   0  0  0  0  0  0  0  0  0  0  0  0
  -17.3292  -30.3827   23.1008 C   0  0  0  0  0  0  0  0  0  0  0  0
  -17.4042  -27.9773   23.0149 C   0  0  0  0  0  0  0  0  0  0  0  0
  -16.7603  -29.1698   22.7130 C   0  0  0  0  0  0  0  0  0  0  0  0
  -24.6212  -16.3453   20.4776 C   0  0  0  0  0  0  0  0  0  0  0  0
  -23.7292  -29.4458   22.4190 C   0  0  0  0  0  0  0  0  0  0  0  0
  -25.3259  -14.1061   20.5849 C   0  0  0  0  0  0  0  0  0  0  0  0
  -24.7272  -11.3936   20.3262 C   0  0  0  0  0  0  0  0  0  0  0  0
  -25.4767  -13.2513   21.6769 C   0  0  0  0  0  0  0  0  0  0  0  0
  -21.5122  -19.1202   19.7484 C   0  0  0  0  0  0  0  0  0  0  0  0
  -19.6366  -20.0827   19.1234 C   0  0  0  0  0  0  0  0  0  0  0  0
  -19.7694  -17.6519   18.5561 C   0  0  0  0  0  0  0  0  0  0  0  0
  -25.7178  -27.0006   17.9998 C   0  0  0  0  0  0  0  0  0  0  0  0
  -28.3899  -26.3165   19.7070 C   0  0  0  0  0  0  0  0  0  0  0  0
  -30.0538  -26.4997   22.6809 C   0  0  0  0  0  0  0  0  0  0  0  0
  -20.0780  -24.7365   22.7295 C   0  0  0  0  0  0  0  0  0  0  0  0
  -25.7256  -25.5210   13.1142 C   0  0  0  0  0  0  0  0  0  0  0  0
  -26.2902  -29.2583   18.9649 C   0  0  0  0  0  0  0  0  0  0  0  0
  -20.4702  -29.1589   24.9083 C   0  0  0  0  0  0  0  0  0  0  0  0
  -26.3921  -27.1301   21.0156 C   0  0  0  0  0  0  0  0  0  0  0  0
  -26.3172  -24.9890   14.4170 C   0  0  0  0  0  0  0  0  0  0  0  0
  -20.5065  -24.7892   19.1363 C   0  0  0  0  0  0  0  0  0  0  0  0
  -25.2552  -24.9568   15.5116 C   0  0  0  0  0  0  0  0  0  0  0  0
  -20.6967  -23.3024   18.8308 C   0  0  0  0  0  0  0  0  0  0  0  0
  -21.1783  -25.1738   20.4512 C   0  0  0  0  0  0  0  0  0  0  0  0
  -20.9291  -22.8820   21.3226 C   0  0  0  0  0  0  0  0  0  0  0  0
  -19.1310  -31.7865   24.1805 C   0  0  1  0  0  0  0  0  0  0  0  0
  -24.7258  -26.3651   15.8082 C   0  0  1  0  0  0  0  0  0  0  0  0
  -26.7797  -27.8508   18.6380 C   0  0  1  0  0  0  0  0  0  0  0  0
  -20.2534  -22.4254   20.0168 C   0  0  2  0  0  0  0  0  0  0  0  0
  -21.2725  -30.4835   24.9619 C   0  0  1  0  0  0  0  0  0  0  0  0
  -20.2877  -31.6979   25.2550 C   0  0  0  0  0  0  0  0  0  0  0  0
  -16.4981  -31.5995   22.8387 C   0  0  0  0  0  0  0  0  0  0  0  0
  -16.7968  -26.6722   22.6042 C   0  0  0  0  0  0  0  0  0  0  0  0
  -15.4524  -29.1390   21.9852 C   0  0  0  0  0  0  0  0  0  0  0  0
  -19.4569  -32.6210   22.9248 C   0  0  0  0  0  0  0  0  0  0  0  0
  -22.3543  -30.3221   26.0613 C   0  0  0  0  0  0  0  0  0  0  0  0
  -21.0475  -33.0445   25.3561 C   0  0  0  0  0  0  0  0  0  0  0  0
  -19.5920  -31.5260   26.6438 C   0  0  0  0  0  0  0  0  0  0  0  0
  -32.2037  -25.8170   23.7807 C   0  0  0  0  0  0  0  0  0  0  0  0
  -27.3650  -23.4509   19.9259 C   0  0  0  0  0  0  0  0  0  0  0  0
  -29.0082  -23.0785   21.7777 C   0  0  0  0  0  0  0  0  0  0  0  0
  -29.8193  -23.6505   19.4892 C   0  0  0  0  0  0  0  0  0  0  0  0
  -30.8114  -29.3115   23.2095 C   0  0  0  0  0  0  0  0  0  0  0  0
  -19.2748  -26.6935   24.0264 C   0  0  0  0  0  0  0  0  0  0  0  0
  -22.0486  -30.6170   23.6274 C   0  0  0  0  0  0  0  0  0  1  0  0
  -28.7053  -25.4352   20.8913 C   0  0  1  0  0  0  0  0  0  0  0  0
  -31.4761  -26.9116   23.0157 C   0  0  2  0  0  0  0  0  0  0  0  0
  -28.7052  -23.9247   20.5227 C   0  0  0  0  0  0  0  0  0  0  0  0
  -21.6424  -20.3912   20.1379 N   0  0  0  0  0  0  0  0  0  0  0  0
  -20.4860  -20.9510   19.7437 N   0  0  0  0  0  0  0  0  0  0  0  0
  -27.2520  -27.1278   19.8205 N   0  0  0  0  0  0  0  0  0  0  0  0
  -20.6991  -24.3138   21.5425 N   0  0  0  0  0  0  0  0  0  0  0  0
  -18.4308  -20.4800   18.6645 N   0  0  0  0  0  0  0  0  0  0  0  0
  -20.0371  -17.3654   17.2105 N   0  0  0  0  0  0  0  0  0  0  0  0
  -25.6708  -27.0992   16.6223 N   0  0  0  0  0  0  0  0  0  0  0  0
  -29.9708  -25.9178   21.4337 N   0  0  0  0  0  0  0  0  0  0  0  0
  -19.9037  -26.1085   22.8631 N   0  0  0  0  0  0  0  0  0  0  0  0
  -31.4750  -28.1467   23.8497 N   0  3  0  0  0  0  0  0  0  0  0  0
  -19.0798  -16.8490   19.2294 O   0  0  0  0  0  0  0  0  0  0  0  0
  -24.9957  -26.3055   18.7048 O   0  0  0  0  0  0  0  0  0  0  0  0
  -29.1299  -26.2914   18.7204 O   0  0  0  0  0  0  0  0  0  0  0  0
  -29.1114  -26.6733   23.4506 O   0  0  0  0  0  0  0  0  0  0  0  0
  -19.7013  -23.9486   23.6038 O   0  0  0  0  0  0  0  0  0  0  0  0
  -25.6218  -15.4529   20.7120 O   0  0  0  0  0  0  0  0  0  0  0  0
  -22.9130  -29.5103   23.5259 O   0  0  0  0  0  0  0  0  0  1  0  0
  -24.4383  -10.0916   20.2023 F   0  0  0  0  0  0  0  0  0  0  0  0
  -25.9076  -13.7275   22.8530 F   0  0  0  0  0  0  0  0  0  0  0  0
  1  2  1  0  0  0  0
  1  5  2  0  0  0  0
  2  6  2  0  0  0  0
  3  8  2  0  0  0  0
  3 15  1  0  0  0  0
  4  9  1  0  0  0  0
  4 15  2  0  0  0  0
  5 17  1  0  0  0  0
  6 19  1  0  0  0  0
  7 10  2  0  0  0  0
  7 18  1  0  0  0  0
  8 27  1  0  0  0  0
  9 27  2  0  0  0  0
 10 28  1  0  0  0  0
 11 12  2  0  0  0  0
 11 29  1  0  0  0  0
 12 30  1  0  0  0  0
 13 20  1  0  0  0  0
 13 28  2  0  0  0  0
 14 30  2  0  0  0  0
 14 31  1  0  0  0  0
 15 32  1  0  0  0  0
 16 32  1  0  0  0  0
 16 33  2  0  0  0  0
 16 34  1  0  0  0  0
 17 19  2  0  0  0  0
 17 39  1  0  0  0  0
 18 20  2  0  0  0  0
 18 40  1  0  0  0  0
 19 50  1  0  0  0  0
 20 42  1  0  0  0  0
 21 22  2  0  0  0  0
 21 23  1  0  0  0  0
 21 41  1  0  0  0  0
 22 24  1  0  0  0  0
 22 49  1  0  0  0  0
 23 25  2  0  0  0  0
 23 67  1  0  0  0  0
 24 26  2  0  0  0  0
 24 55  1  0  0  0  0
 25 26  1  0  0  0  0
 25 56  1  0  0  0  0
 26 57  1  0  0  0  0
 27 87  1  0  0  0  0
 28 88  1  0  0  0  0
 29 31  2  0  0  0  0
 29 87  1  0  0  0  0
 30 89  1  0  0  0  0
 31 90  1  0  0  0  0
 32 72  2  0  0  0  0
 33 73  1  0  0  0  0
 33 76  1  0  0  0  0
 34 77  1  0  0  0  0
 34 82  2  0  0  0  0
 35 51  1  0  0  0  0
 35 78  1  0  0  0  0
 35 83  2  0  0  0  0
 36 69  1  0  0  0  0
 36 74  1  0  0  0  0
 36 84  2  0  0  0  0
 37 70  1  0  0  0  0
 37 79  1  0  0  0  0
 37 85  2  0  0  0  0
 38 75  1  0  0  0  0
 38 80  1  0  0  0  0
 38 86  2  0  0  0  0
 39 43  1  0  0  0  0
 40 51  1  0  0  0  0
 41 53  1  0  0  0  0
 42 74  1  0  0  0  0
 43 45  1  0  0  0  0
 44 46  1  0  0  0  0
 44 47  1  0  0  0  0
 45 50  1  0  0  0  0
 46 52  1  0  0  0  0
 47 75  1  0  0  0  0
 48 52  1  0  0  0  0
 48 75  1  0  0  0  0
 49 54  1  0  0  0  0
 49 58  1  0  0  0  0
 50 78  1  0  0  0  0
 51 74  1  0  0  0  0
 52 73  1  0  0  0  0
 53 54  1  0  0  0  0
 53 59  1  0  0  0  0
 53 68  1  0  0  0  0
 54 60  1  0  0  0  0
 54 61  1  0  0  0  0
 62 70  1  0  0  0  0
 63 71  1  0  0  0  0
 64 71  1  0  0  0  0
 65 71  1  0  0  0  0
 66 81  1  0  0  0  0
 67 80  1  0  0  0  0
 68 88  1  0  0  0  0
 69 71  1  0  0  0  0
 69 79  1  0  0  0  0
 70 81  1  0  0  0  0
 72 73  1  0  0  0  0
M  CHG  1  81   1
M  ISO  4  38 100  68 101  80 100  88 101
M  END
> <Batch ID>
0163

> <Smiles>
CNC(C)C(=O)NC(C(=O)N1Cc2cc([101O:1][101CH2:1]C3(C)Cc4c(C[100NH:0][100C:0](=O)N5CCCC(n6nc(-c7ccc(Oc8ccc(F)cc8F)cc7)c(C(N)=O)c6N)C5)c(C)c(C)c(C)c4C(C)C3(C)C)ccc2CC1C(=O)NC1CCCc2ccccc21)C(C)(C)C

> <Shape>
0.180

> <Color>
0.091

> <Negative vol penalty>
0.000

$$$$

  -OEChem-04052322173D

 86 95  0     1  0  0  0  0  0999 V2000
  -27.8141  -28.6650   11.7339 C   0  0  0  0  0  0  0  0  0  0  0  0
  -28.7147  -27.8783   12.4450 C   0  0  0  0  0  0  0  0  0  0  0  0
  -22.9978   -9.8955   19.9826 C   0  0  0  0  0  0  0  0  0  0  0  0
  -23.7274   -9.9453   22.2853 C   0  0  0  0  0  0  0  0  0  0  0  0
  -27.1312  -29.6959   12.3779 C   0  0  0  0  0  0  0  0  0  0  0  0
  -28.9336  -28.1229   13.8002 C   0  0  0  0  0  0  0  0  0  0  0  0
  -28.9939  -23.8747   16.5560 C   0  0  0  0  0  0  0  0  0  0  0  0
  -22.2318   -8.7609   20.2498 C   0  0  0  0  0  0  0  0  0  0  0  0
  -22.9613   -8.8107   22.5525 C   0  0  0  0  0  0  0  0  0  0  0  0
  -30.1558  -23.1053   16.5146 C   0  0  0  0  0  0  0  0  0  0  0  0
  -23.2046   -5.4720   22.0785 C   0  0  0  0  0  0  0  0  0  0  0  0
  -23.7935   -4.4545   22.8290 C   0  0  0  0  0  0  0  0  0  0  0  0
  -30.3204  -19.9476   18.9798 C   0  0  0  0  0  0  0  0  0  0  0  0
  -31.6814  -18.2414   20.0158 C   0  0  0  0  0  0  0  0  0  0  0  0
  -30.8466  -24.0455   18.6259 C   0  0  0  0  0  0  0  0  0  0  0  0
  -22.0728   -4.6966   24.5076 C   0  0  0  0  0  0  0  0  0  0  0  0
  -23.7457  -10.4877   21.0003 C   0  0  0  0  0  0  0  0  0  0  0  0
  -24.1307  -13.0034   20.8248 C   0  0  0  0  0  0  0  0  0  0  0  0
  -27.3347  -29.9471   13.7439 C   0  0  0  0  0  0  0  0  0  0  0  0
  -28.7544  -24.7449   17.6292 C   0  0  0  0  0  0  0  0  0  0  0  0
  -28.2538  -29.1590   14.4627 C   0  0  0  0  0  0  0  0  0  0  0  0
  -31.5265  -19.2526   19.0675 C   0  0  0  0  0  0  0  0  0  0  0  0
  -29.6797  -24.8230   18.6799 C   0  0  0  0  0  0  0  0  0  0  0  0
  -29.2691  -19.6317   19.8405 C   0  0  0  0  0  0  0  0  0  0  0  0
  -30.6302  -17.9254   20.8764 C   0  0  0  0  0  0  0  0  0  0  0  0
  -29.4240  -18.6205   20.7888 C   0  0  0  0  0  0  0  0  0  0  0  0
  -22.2135   -8.2185   21.5348 C   0  0  0  0  0  0  0  0  0  0  0  0
  -31.0837  -23.1928   17.5482 C   0  0  0  0  0  0  0  0  0  0  0  0
  -22.0498   -6.1020   22.5426 C   0  0  0  0  0  0  0  0  0  0  0  0
  -23.2277   -4.0667   24.0436 C   0  0  0  0  0  0  0  0  0  0  0  0
  -21.4839   -5.7142   23.7571 C   0  0  0  0  0  0  0  0  0  0  0  0
  -24.5377  -11.6594   20.7247 C   0  0  0  0  0  0  0  0  0  0  0  0
  -25.2398  -13.7261   20.4586 C   0  0  0  0  0  0  0  0  0  0  0  0
  -22.8635  -13.5496   21.2140 C   0  0  0  0  0  0  0  0  0  0  0  0
  -28.3867  -27.8879   17.9296 C   0  0  0  0  0  0  0  0  0  0  0  0
  -27.6918  -27.1202   21.0037 C   0  0  0  0  0  0  0  0  0  0  0  0
  -28.0095  -24.9035   23.5791 C   0  0  0  0  0  0  0  0  0  0  0  0
  -30.7367  -14.6604   20.6972 C   0  0  0  0  0  0  0  0  0  0  0  0
  -26.6087  -31.1029   14.3856 C   0  0  0  0  0  0  0  0  0  0  0  0
  -27.4835  -25.5483   17.6722 C   0  0  0  0  0  0  0  0  0  0  0  0
  -29.4599  -25.7268   19.8646 C   0  0  0  0  0  0  0  0  0  0  0  0
  -26.6182  -31.0567   15.9114 C   0  0  0  0  0  0  0  0  0  0  0  0
  -29.5915  -12.2379   18.3527 C   0  0  0  0  0  0  0  0  0  0  0  0
  -28.0205  -30.7500   16.4274 C   0  0  0  0  0  0  0  0  0  0  0  0
  -28.1438  -11.9780   18.7729 C   0  0  0  0  0  0  0  0  0  0  0  0
  -32.4143  -19.4467   16.6557 C   0  0  0  0  0  0  0  0  0  0  0  0
  -33.2896  -18.4600   17.3631 C   0  0  0  0  0  0  0  0  0  0  0  0
  -30.4962  -12.4727   19.5603 C   0  0  0  0  0  0  0  0  0  0  0  0
  -28.5886  -13.2676   20.9031 C   0  0  0  0  0  0  0  0  0  0  0  0
  -28.4999  -29.3774   15.9398 C   0  0  1  0  0  0  0  0  0  0  0  0
  -27.5872  -26.7836   18.5613 C   0  0  1  0  0  0  0  0  0  0  0  0
  -27.6273  -13.0805   19.7168 C   0  0  2  0  0  0  0  0  0  0  0  0
  -32.6497  -19.5906   18.1486 C   0  0  0  0  0  0  0  0  0  0  0  0
  -27.9880  -20.3909   19.7258 C   0  0  0  0  0  0  0  0  0  0  0  0
  -28.2966  -18.2814   21.7113 C   0  0  0  0  0  0  0  0  0  0  0  0
  -27.3630  -24.5681   25.9805 C   0  0  0  0  0  0  0  0  0  0  0  0
  -34.2415  -20.3626   19.9118 C   0  0  0  0  0  0  0  0  0  0  0  0
  -29.8250  -29.1285   21.8559 C   0  0  0  0  0  0  0  0  0  0  0  0
  -29.8053  -28.0794   24.1291 C   0  0  0  0  0  0  0  0  0  0  0  0
  -27.7432  -29.1668   23.2413 C   0  0  0  0  0  0  0  0  0  0  0  0
  -26.4921  -22.4423   22.9476 C   0  0  0  0  0  0  0  0  0  0  0  0
  -30.8217  -16.8388   21.8832 C   0  0  0  0  0  0  0  0  0  0  0  0
  -32.7785  -22.0476   18.7615 C   0  0  0  0  0  0  0  0  0  1  0  0
  -28.4939  -26.9557   22.2720 C   0  0  1  0  0  0  0  0  0  0  0  0
  -26.9854  -24.3108   24.5300 C   0  0  2  0  0  0  0  0  0  0  0  0
  -33.5523  -20.7312   18.6220 C   0  0  2  0  0  0  0  0  0  0  0  0
  -28.9722  -28.3169   22.8515 C   0  0  0  0  0  0  0  0  0  0  0  0
  -25.8062  -11.5331   20.3261 N   0  0  0  0  0  0  0  0  0  0  0  0
  -26.2059  -12.8069   20.1723 N   0  0  0  0  0  0  0  0  0  0  0  0
  -28.2051  -26.4968   19.8575 N   0  0  0  0  0  0  0  0  0  0  0  0
  -29.9510  -13.5310   20.4140 N   0  0  0  0  0  0  0  0  0  0  0  0
  -25.4731  -15.0518   20.3568 N   0  0  0  0  0  0  0  0  0  0  0  0
  -21.8324  -12.6653   21.5590 N   0  0  0  0  0  0  0  0  0  0  0  0
  -27.8860  -28.3222   16.7171 N   0  0  0  0  0  0  0  0  0  0  0  0
  -27.6616  -26.1778   23.1833 N   0  0  0  0  0  0  0  0  0  0  0  0
  -30.1419  -15.6188   21.5086 N   0  0  0  0  0  0  0  0  0  0  0  0
  -26.8802  -22.8383   24.3259 N   0  3  0  0  0  0  0  0  0  0  0  0
  -22.6469  -14.7849   21.2387 O   0  0  0  0  0  0  0  0  0  0  0  0
  -29.3831  -28.3154   18.5007 O   0  0  0  0  0  0  0  0  0  0  0  0
  -26.6446  -27.7716   21.0306 O   0  0  0  0  0  0  0  0  0  0  0  0
  -29.0191  -24.2982   23.2258 O   0  0  0  0  0  0  0  0  0  0  0  0
  -31.8813  -14.8065   20.2550 O   0  0  0  0  0  0  0  0  0  0  0  0
  -21.4659   -7.1115   21.7960 O   0  0  0  0  0  0  0  0  0  0  0  0
  -32.2189  -22.4433   17.5098 O   0  0  0  0  0  0  0  0  0  1  0  0
  -23.7924   -3.0885   24.7634 F   0  0  0  0  0  0  0  0  0  0  0  0
  -20.3739   -6.3149   24.2075 F   0  0  0  0  0  0  0  0  0  0  0  0
  1  2  1  0  0  0  0
  1  5  2  0  0  0  0
  2  6  2  0  0  0  0
  3  8  2  0  0  0  0
  3 17  1  0  0  0  0
  4  9  1  0  0  0  0
  4 17  2  0  0  0  0
  5 19  1  0  0  0  0
  6 21  1  0  0  0  0
  7 10  2  0  0  0  0
  7 20  1  0  0  0  0
  8 27  1  0  0  0  0
  9 27  2  0  0  0  0
 10 28  1  0  0  0  0
 11 12  2  0  0  0  0
 11 29  1  0  0  0  0
 12 30  1  0  0  0  0
 13 22  1  0  0  0  0
 13 24  2  0  0  0  0
 14 22  2  0  0  0  0
 14 25  1  0  0  0  0
 15 23  1  0  0  0  0
 15 28  2  0  0  0  0
 16 30  2  0  0  0  0
 16 31  1  0  0  0  0
 17 32  1  0  0  0  0
 18 32  1  0  0  0  0
 18 33  2  0  0  0  0
 18 34  1  0  0  0  0
 19 21  2  0  0  0  0
 19 39  1  0  0  0  0
 20 23  2  0  0  0  0
 20 40  1  0  0  0  0
 21 50  1  0  0  0  0
 22 53  1  0  0  0  0
 23 41  1  0  0  0  0
 24 26  1  0  0  0  0
 24 54  1  0  0  0  0
 25 26  2  0  0  0  0
 25 62  1  0  0  0  0
 26 55  1  0  0  0  0
 27 83  1  0  0  0  0
 28 84  1  0  0  0  0
 29 31  2  0  0  0  0
 29 83  1  0  0  0  0
 30 85  1  0  0  0  0
 31 86  1  0  0  0  0
 32 68  2  0  0  0  0
 33 69  1  0  0  0  0
 33 72  1  0  0  0  0
 34 73  1  0  0  0  0
 34 78  2  0  0  0  0
 35 51  1  0  0  0  0
 35 74  1  0  0  0  0
 35 79  2  0  0  0  0
 36 64  1  0  0  0  0
 36 70  1  0  0  0  0
 36 80  2  0  0  0  0
 37 65  1  0  0  0  0
 37 75  1  0  0  0  0
 37 81  2  0  0  0  0
 38 71  1  0  0  0  0
 38 76  1  0  0  0  0
 38 82  2  0  0  0  0
 39 42  1  0  0  0  0
 40 51  1  0  0  0  0
 41 70  1  0  0  0  0
 42 44  1  0  0  0  0
 43 45  1  0  0  0  0
 43 48  1  0  0  0  0
 44 50  1  0  0  0  0
 45 52  1  0  0  0  0
 46 47  1  0  0  0  0
 46 53  1  0  0  0  0
 47 53  1  0  0  0  0
 48 71  1  0  0  0  0
 49 52  1  0  0  0  0
 49 71  1  0  0  0  0
 50 74  1  0  0  0  0
 51 70  1  0  0  0  0
 52 69  1  0  0  0  0
 53 66  1  0  0  0  0
 56 65  1  0  0  0  0
 57 66  1  0  0  0  0
 58 67  1  0  0  0  0
 59 67  1  0  0  0  0
 60 67  1  0  0  0  0
 61 77  1  0  0  0  0
 62 76  1  0  0  0  0
 63 66  1  0  0  0  0
 63 84  1  0  0  0  0
 64 67  1  0  0  0  0
 64 75  1  0  0  0  0
 65 77  1  0  0  0  0
 68 69  1  0  0  0  0
M  CHG  1  77   1
M  ISO  4  38 100  63 101  76 100  84 101
M  END
> <Batch ID>
0163

> <Smiles>
CNC(C)C(=O)NC(C(=O)N1Cc2cc([101O:1][101CH2:1]C(C)C3(c4cc(C)c(C)c(C[100NH:0][100C:0](=O)N5CCCC(n6nc(-c7ccc(Oc8ccc(F)cc8F)cc7)c(C(N)=O)c6N)C5)c4)CC3)ccc2CC1C(=O)NC1CCCc2ccccc21)C(C)(C)C

> <Shape>
0.272

> <Color>
0.202

> <Negative vol penalty>
0.000

$$$$

  -OEChem-04052322173D

 87 97  0     1  0  0  0  0  0999 V2000
  -30.3581  -33.0129   25.0267 C   0  0  0  0  0  0  0  0  0  0  0  0
  -29.9062  -31.7860   24.5514 C   0  0  0  0  0  0  0  0  0  0  0  0
  -23.6411  -10.4197   22.1906 C   0  0  0  0  0  0  0  0  0  0  0  0
  -23.5816   -8.7527   20.4429 C   0  0  0  0  0  0  0  0  0  0  0  0
  -29.4417  -33.9854   25.4246 C   0  0  0  0  0  0  0  0  0  0  0  0
  -28.5375  -31.5305   24.4748 C   0  0  0  0  0  0  0  0  0  0  0  0
  -27.2103  -29.3482   20.1020 C   0  0  0  0  0  0  0  0  0  0  0  0
  -22.7060   -9.6868   22.9214 C   0  0  0  0  0  0  0  0  0  0  0  0
  -22.6466   -8.0198   21.1737 C   0  0  0  0  0  0  0  0  0  0  0  0
  -27.4651  -27.9841   19.9681 C   0  0  0  0  0  0  0  0  0  0  0  0
  -20.5139   -5.5282   22.7427 C   0  0  0  0  0  0  0  0  0  0  0  0
  -20.7039   -4.1500   22.8428 C   0  0  0  0  0  0  0  0  0  0  0  0
  -27.3919  -21.7994   18.5093 C   0  0  0  0  0  0  0  0  0  0  0  0
  -28.9513  -23.1448   20.3910 C   0  0  0  0  0  0  0  0  0  0  0  0
  -25.1561  -27.5087   20.4795 C   0  0  0  0  0  0  0  0  0  0  0  0
  -22.8400   -4.5220   23.9088 C   0  0  0  0  0  0  0  0  0  0  0  0
  -24.0789   -9.9527   20.9513 C   0  0  0  0  0  0  0  0  0  0  0  0
  -26.4465  -10.5979   20.2542 C   0  0  0  0  0  0  0  0  0  0  0  0
  -28.0609  -33.7453   25.3438 C   0  0  0  0  0  0  0  0  0  0  0  0
  -25.9268  -29.8030   20.4369 C   0  0  0  0  0  0  0  0  0  0  0  0
  -27.6018  -32.5002   24.8733 C   0  0  0  0  0  0  0  0  0  0  0  0
  -28.2539  -21.0840   19.3403 C   0  0  0  0  0  0  0  0  0  0  0  0
  -29.0336  -21.7567   20.2812 C   0  0  0  0  0  0  0  0  0  0  0  0
  -24.8870  -28.8792   20.6145 C   0  0  0  0  0  0  0  0  0  0  0  0
  -27.3096  -23.1875   18.6190 C   0  0  0  0  0  0  0  0  0  0  0  0
  -28.0893  -23.8602   19.5598 C   0  0  0  0  0  0  0  0  0  0  0  0
  -22.2087   -8.4869   22.4130 C   0  0  0  0  0  0  0  0  0  0  0  0
  -26.4386  -27.0639   20.1596 C   0  0  0  0  0  0  0  0  0  0  0  0
  -21.4869   -6.4033   23.2255 C   0  0  0  0  0  0  0  0  0  0  0  0
  -21.8669   -3.6469   23.4259 C   0  0  0  0  0  0  0  0  0  0  0  0
  -22.6499   -5.9002   23.8085 C   0  0  0  0  0  0  0  0  0  0  0  0
  -25.0444  -10.7096   20.1956 C   0  0  0  0  0  0  0  0  0  0  0  0
  -26.9030  -11.5269   19.3515 C   0  0  0  0  0  0  0  0  0  0  0  0
  -27.2632   -9.7317   21.0532 C   0  0  0  0  0  0  0  0  0  0  0  0
  -24.6871  -31.4275   22.8716 C   0  0  0  0  0  0  0  0  0  0  0  0
  -22.0066  -31.3583   21.0460 C   0  0  0  0  0  0  0  0  0  0  0  0
  -20.2264  -29.8263   18.5700 C   0  0  0  0  0  0  0  0  0  0  0  0
  -26.8032  -16.4713   16.9927 C   0  0  0  0  0  0  0  0  0  0  0  0
  -27.1093  -34.8095   25.8300 C   0  0  0  0  0  0  0  0  0  0  0  0
  -25.6621  -31.2792   20.5514 C   0  0  0  0  0  0  0  0  0  0  0  0
  -23.4868  -29.3171   20.9553 C   0  0  0  0  0  0  0  0  0  0  0  0
  -25.6706  -34.5986   25.3653 C   0  0  0  0  0  0  0  0  0  0  0  0
  -24.4461  -14.2152   15.8518 C   0  0  0  0  0  0  0  0  0  0  0  0
  -29.4299  -20.4276   22.4607 C   0  0  0  0  0  0  0  0  0  0  0  0
  -30.3399  -21.6151   22.5065 C   0  0  0  0  0  0  0  0  0  0  0  0
  -25.2492  -33.1477   25.5748 C   0  0  0  0  0  0  0  0  0  0  0  0
  -24.4984  -13.0844   16.8788 C   0  0  0  0  0  0  0  0  0  0  0  0
  -26.9797  -18.9009   19.5194 C   0  0  0  0  0  0  0  0  0  0  0  0
  -28.8309  -19.1479   17.8101 C   0  0  0  0  0  0  0  0  0  0  0  0
  -24.5412  -15.5756   16.5327 C   0  0  0  0  0  0  0  0  0  0  0  0
  -27.0512  -17.3812   19.3446 C   0  0  0  0  0  0  0  0  0  0  0  0
  -28.8767  -17.6270   17.6955 C   0  0  0  0  0  0  0  0  0  0  0  0
  -25.8239  -14.6162   18.4175 C   0  0  0  0  0  0  0  0  0  0  0  0
  -29.9639  -21.0110   21.1798 C   0  0  0  0  0  0  0  0  0  0  0  0
  -28.3262  -19.5751   19.2003 C   0  0  0  0  0  0  0  0  0  0  0  0
  -26.1246  -32.1946   24.7520 C   0  0  1  0  0  0  0  0  0  0  0  0
  -24.4365  -31.6024   21.4005 C   0  0  1  0  0  0  0  0  0  0  0  0
  -25.7383  -13.2139   17.7812 C   0  0  1  0  0  0  0  0  0  0  0  0
  -26.3783  -23.9315   17.7188 C   0  0  0  0  0  0  0  0  0  0  0  0
  -18.0535  -29.9771   17.3238 C   0  0  0  0  0  0  0  0  0  0  0  0
  -20.5457  -30.1905   23.4568 C   0  0  0  0  0  0  0  0  0  0  0  0
  -18.7023  -29.4918   21.9135 C   0  0  0  0  0  0  0  0  0  0  0  0
  -19.2503  -31.9103   22.1845 C   0  0  0  0  0  0  0  0  0  0  0  0
  -21.6051  -30.2228   15.9814 C   0  0  0  0  0  0  0  0  0  0  0  0
  -28.0164  -25.3457   19.6967 C   0  0  0  0  0  0  0  0  0  1  0  0
  -20.8357  -30.4164   20.9013 C   0  0  1  0  0  0  0  0  0  0  0  0
  -19.5194  -30.3812   17.3466 C   0  0  2  0  0  0  0  0  0  0  0  0
  -19.8602  -30.4936   22.1095 C   0  0  0  0  0  0  0  0  0  0  0  0
  -24.6369  -11.6366   19.3246 N   0  0  0  0  0  0  0  0  0  0  0  0
  -25.7899  -12.1159   18.8277 N   0  0  0  0  0  0  0  0  0  0  0  0
  -23.2796  -30.7708   21.0626 N   0  0  0  0  0  0  0  0  0  0  0  0
  -25.7289  -15.6577   17.3827 N   0  0  0  0  0  0  0  0  0  0  0  0
  -27.5783  -17.0355   18.0172 N   0  0  0  0  0  0  0  0  0  0  0  0
  -28.1439  -11.8893   18.9626 N   0  0  0  0  0  0  0  0  0  0  0  0
  -26.6317   -8.8376   21.9285 N   0  0  0  0  0  0  0  0  0  0  0  0
  -25.7173  -32.2062   23.3633 N   0  0  0  0  0  0  0  0  0  0  0  0
  -20.2199  -30.7254   19.6154 N   0  0  0  0  0  0  0  0  0  0  0  0
  -20.1654  -29.8768   16.1019 N   0  3  0  0  0  0  0  0  0  0  0  0
  -28.5163   -9.7615   21.0048 O   0  0  0  0  0  0  0  0  0  0  0  0
  -23.9959  -30.6452   23.5134 O   0  0  0  0  0  0  0  0  0  0  0  0
  -21.7998  -32.5712   21.1338 O   0  0  0  0  0  0  0  0  0  0  0  0
  -20.7305  -28.7057   18.5969 O   0  0  0  0  0  0  0  0  0  0  0  0
  -27.0563  -16.6812   15.7998 O   0  0  0  0  0  0  0  0  0  0  0  0
  -21.2965   -7.7713   23.1260 O   0  0  0  0  0  0  0  0  0  0  0  0
  -26.6866  -25.7223   20.0293 O   0  0  0  0  0  0  0  0  0  1  0  0
  -22.0486   -2.3233   23.5234 F   0  0  0  0  0  0  0  0  0  0  0  0
  -23.5877   -6.7360   24.2752 F   0  0  0  0  0  0  0  0  0  0  0  0
  1  2  1  0  0  0  0
  1  5  2  0  0  0  0
  2  6  2  0  0  0  0
  3  8  2  0  0  0  0
  3 17  1  0  0  0  0
  4  9  1  0  0  0  0
  4 17  2  0  0  0  0
  5 19  1  0  0  0  0
  6 21  1  0  0  0  0
  7 10  2  0  0  0  0
  7 20  1  0  0  0  0
  8 27  1  0  0  0  0
  9 27  2  0  0  0  0
 10 28  1  0  0  0  0
 11 12  2  0  0  0  0
 11 29  1  0  0  0  0
 12 30  1  0  0  0  0
 13 22  2  0  0  0  0
 13 25  1  0  0  0  0
 14 23  2  0  0  0  0
 14 26  1  0  0  0  0
 15 24  1  0  0  0  0
 15 28  2  0  0  0  0
 16 30  2  0  0  0  0
 16 31  1  0  0  0  0
 17 32  1  0  0  0  0
 18 32  1  0  0  0  0
 18 33  2  0  0  0  0
 18 34  1  0  0  0  0
 19 21  2  0  0  0  0
 19 39  1  0  0  0  0
 20 24  2  0  0  0  0
 20 40  1  0  0  0  0
 21 56  1  0  0  0  0
 22 23  1  0  0  0  0
 22 55  1  0  0  0  0
 23 54  1  0  0  0  0
 24 41  1  0  0  0  0
 25 26  2  0  0  0  0
 25 59  1  0  0  0  0
 26 65  1  0  0  0  0
 27 84  1  0  0  0  0
 28 85  1  0  0  0  0
 29 31  2  0  0  0  0
 29 84  1  0  0  0  0
 30 86  1  0  0  0  0
 31 87  1  0  0  0  0
 32 69  2  0  0  0  0
 33 70  1  0  0  0  0
 33 74  1  0  0  0  0
 34 75  1  0  0  0  0
 34 79  2  0  0  0  0
 35 57  1  0  0  0  0
 35 76  1  0  0  0  0
 35 80  2  0  0  0  0
 36 66  1  0  0  0  0
 36 71  1  0  0  0  0
 36 81  2  0  0  0  0
 37 67  1  0  0  0  0
 37 77  1  0  0  0  0
 37 82  2  0  0  0  0
 38 72  1  0  0  0  0
 38 73  1  0  0  0  0
 38 83  2  0  0  0  0
 39 42  1  0  0  0  0
 40 57  1  0  0  0  0
 41 71  1  0  0  0  0
 42 46  1  0  0  0  0
 43 47  1  0  0  0  0
 43 50  1  0  0  0  0
 44 45  1  0  0  0  0
 44 54  1  0  0  0  0
 45 54  1  0  0  0  0
 46 56  1  0  0  0  0
 47 58  1  0  0  0  0
 48 51  1  0  0  0  0
 48 55  1  0  0  0  0
 49 52  1  0  0  0  0
 49 55  1  0  0  0  0
 50 72  1  0  0  0  0
 51 73  1  0  0  0  0
 52 73  1  0  0  0  0
 53 58  1  0  0  0  0
 53 72  1  0  0  0  0
 56 76  1  0  0  0  0
 57 71  1  0  0  0  0
 58 70  1  0  0  0  0
 60 67  1  0  0  0  0
 61 68  1  0  0  0  0
 62 68  1  0  0  0  0
 63 68  1  0  0  0  0
 64 78  1  0  0  0  0
 65 85  1  0  0  0  0
 66 68  1  0  0  0  0
 66 77  1  0  0  0  0
 67 78  1  0  0  0  0
 69 70  1  0  0  0  0
M  CHG  1  78   1
M  ISO  4  38 100  65 101  73 100  85 101
M  END
> <Batch ID>
0163

> <Smiles>
CNC(C)C(=O)NC(C(=O)N1Cc2cc([101O:1][101CH2:1]c3cc(C4CC4)c(C4CC[100N:0]([100C:0](=O)N5CCCC(n6nc(-c7ccc(Oc8ccc(F)cc8F)cc7)c(C(N)=O)c6N)C5)CC4)cc3C)ccc2CC1C(=O)NC1CCCc2ccccc21)C(C)(C)C

> <Shape>
0.268

> <Color>
0.076

> <Negative vol penalty>
0.000

$$$$

  -OEChem-04052322173D

 88 97  0     1  0  0  0  0  0999 V2000
  -17.5087  -26.1177   22.6693 C   0  0  0  0  0  0  0  0  0  0  0  0
  -18.7607  -25.7408   22.1942 C   0  0  0  0  0  0  0  0  0  0  0  0
  -30.0134  -13.3735   17.9875 C   0  0  0  0  0  0  0  0  0  0  0  0
  -30.5581  -12.1391   19.9916 C   0  0  0  0  0  0  0  0  0  0  0  0
  -17.1567  -27.4662   22.7100 C   0  0  0  0  0  0  0  0  0  0  0  0
  -19.6612  -26.7122   21.7583 C   0  0  0  0  0  0  0  0  0  0  0  0
  -25.7593  -26.5916   22.3097 C   0  0  0  0  0  0  0  0  0  0  0  0
  -30.0898  -12.1970   17.2421 C   0  0  0  0  0  0  0  0  0  0  0  0
  -30.6344  -10.9626   19.2462 C   0  0  0  0  0  0  0  0  0  0  0  0
  -26.7746  -26.2383   21.4219 C   0  0  0  0  0  0  0  0  0  0  0  0
  -29.7867   -9.4585   14.8707 C   0  0  0  0  0  0  0  0  0  0  0  0
  -28.7767   -9.2135   13.9403 C   0  0  0  0  0  0  0  0  0  0  0  0
  -27.0560  -28.5597   20.8295 C   0  0  0  0  0  0  0  0  0  0  0  0
  -33.0585  -26.8025   17.7785 C   0  0  0  0  0  0  0  0  0  0  0  0
  -27.1351   -9.2506   15.7126 C   0  0  0  0  0  0  0  0  0  0  0  0
  -30.2477  -13.3446   19.3623 C   0  0  0  0  0  0  0  0  0  0  0  0
  -29.0318  -15.0909   20.7693 C   0  0  0  0  0  0  0  0  0  0  0  0
  -18.0570  -28.4553   22.2835 C   0  0  0  0  0  0  0  0  0  0  0  0
  -25.3767  -27.9327   22.4562 C   0  0  0  0  0  0  0  0  0  0  0  0
  -19.3204  -28.0751   21.7921 C   0  0  0  0  0  0  0  0  0  0  0  0
  -26.0374  -28.9277   21.7216 C   0  0  0  0  0  0  0  0  0  0  0  0
  -31.3196  -25.2574   18.4309 C   0  0  0  0  0  0  0  0  0  0  0  0
  -32.6628  -25.6336   18.4285 C   0  0  0  0  0  0  0  0  0  0  0  0
  -32.1111  -27.5954   17.1308 C   0  0  0  0  0  0  0  0  0  0  0  0
  -30.3721  -26.0503   17.7832 C   0  0  0  0  0  0  0  0  0  0  0  0
  -30.7679  -27.2192   17.1332 C   0  0  0  0  0  0  0  0  0  0  0  0
  -30.4002  -10.9916   17.8714 C   0  0  0  0  0  0  0  0  0  0  0  0
  -27.4212  -27.2221   20.6795 C   0  0  0  0  0  0  0  0  0  0  0  0
  -29.4709   -9.5994   16.2221 C   0  0  0  0  0  0  0  0  0  0  0  0
  -27.4510   -9.1096   14.3612 C   0  0  0  0  0  0  0  0  0  0  0  0
  -28.1451   -9.4955   16.6430 C   0  0  0  0  0  0  0  0  0  0  0  0
  -30.1695  -14.5596   20.1327 C   0  0  0  0  0  0  0  0  0  0  0  0
  -29.4781  -16.2471   21.3612 C   0  0  0  0  0  0  0  0  0  0  0  0
  -27.6915  -14.5844   20.8211 C   0  0  0  0  0  0  0  0  0  0  0  0
  -22.6964  -29.5677   21.9597 C   0  0  0  0  0  0  0  0  0  0  0  0
  -24.3820  -31.9867   23.3123 C   0  0  0  0  0  0  0  0  0  0  0  0
  -27.4282  -33.3422   24.0400 C   0  0  0  0  0  0  0  0  0  0  0  0
  -32.3860  -20.8909   21.3785 C   0  0  0  0  0  0  0  0  0  0  0  0
  -17.6139  -29.8968   22.3020 C   0  0  0  0  0  0  0  0  0  0  0  0
  -24.2979  -28.3002   23.4378 C   0  0  0  0  0  0  0  0  0  0  0  0
  -25.6779  -30.3840   21.8573 C   0  0  0  0  0  0  0  0  0  0  0  0
  -18.7660  -30.8899   22.1723 C   0  0  0  0  0  0  0  0  0  0  0  0
  -34.1616  -18.0045   22.0596 C   0  0  0  0  0  0  0  0  0  0  0  0
  -19.7075  -30.4713   21.0476 C   0  0  0  0  0  0  0  0  0  0  0  0
  -33.1952  -16.8843   21.6756 C   0  0  0  0  0  0  0  0  0  0  0  0
  -31.5353  -22.7339   18.5154 C   0  0  0  0  0  0  0  0  0  0  0  0
  -31.1732  -24.0443   20.6512 C   0  0  0  0  0  0  0  0  0  0  0  0
  -34.1077  -19.1426   21.0470 C   0  0  0  0  0  0  0  0  0  0  0  0
  -31.1248  -21.4574   19.2550 C   0  0  0  0  0  0  0  0  0  0  0  0
  -30.7475  -22.7461   21.3309 C   0  0  0  0  0  0  0  0  0  0  0  0
  -31.7628  -18.6067   20.4706 C   0  0  0  0  0  0  0  0  0  0  0  0
  -30.8918  -23.9856   19.1388 C   0  0  0  0  0  0  0  0  0  0  0  0
  -20.3339  -29.1012   21.3336 C   0  0  1  0  0  0  0  0  0  0  0  0
  -23.6391  -29.6408   23.1275 C   0  0  1  0  0  0  0  0  0  0  0  0
  -31.7713  -17.4296   21.4671 C   0  0  1  0  0  0  0  0  0  0  0  0
  -33.6973  -24.8022   19.1140 C   0  0  0  0  0  0  0  0  0  0  0  0
  -32.5610  -28.8427   16.4430 C   0  0  0  0  0  0  0  0  0  0  0  0
  -29.7541  -28.0711   16.4371 C   0  0  0  0  0  0  0  0  0  0  0  0
  -28.7095  -24.3001   17.0730 C   0  0  0  0  0  0  0  0  0  0  0  0
  -28.4857  -35.3455   25.1198 C   0  0  0  0  0  0  0  0  0  0  0  0
  -23.7031  -33.6656   20.8565 C   0  0  0  0  0  0  0  0  0  0  0  0
  -25.5201  -35.2528   21.5256 C   0  0  0  0  0  0  0  0  0  0  0  0
  -23.5636  -34.8935   23.0308 C   0  0  0  0  0  0  0  0  0  0  0  0
  -28.7827  -31.6748   26.0757 C   0  0  0  0  0  0  0  0  0  0  0  0
  -28.3282  -25.5901   19.2065 C   0  0  0  0  0  0  0  0  0  1  0  0
  -28.9312  -25.6471   17.7862 C   0  0  1  0  0  0  0  0  0  0  0  0
  -25.2988  -33.0697   22.7968 C   0  0  1  0  0  0  0  0  0  0  0  0
  -27.9918  -33.9219   25.3249 C   0  0  2  0  0  0  0  0  0  0  0  0
  -24.5271  -34.1928   22.0482 C   0  0  0  0  0  0  0  0  0  0  0  0
  -31.2567  -15.3164   20.3039 N   0  0  0  0  0  0  0  0  0  0  0  0
  -30.8042  -16.3350   21.0548 N   0  0  0  0  0  0  0  0  0  0  0  0
  -24.6124  -30.6923   22.8253 N   0  0  0  0  0  0  0  0  0  0  0  0
  -32.7394  -19.6302   20.8745 N   0  0  0  0  0  0  0  0  0  0  0  0
  -31.3776  -21.5885   20.6967 N   0  0  0  0  0  0  0  0  0  0  0  0
  -28.8616  -17.1872   22.1087 N   0  0  0  0  0  0  0  0  0  0  0  0
  -27.4051  -13.3832   20.1582 N   0  0  0  0  0  0  0  0  0  0  0  0
  -21.4020  -29.2261   22.3022 N   0  0  0  0  0  0  0  0  0  0  0  0
  -26.0663  -33.5361   23.9465 N   0  0  0  0  0  0  0  0  0  0  0  0
  -29.1321  -33.0942   25.8102 N   0  3  0  0  0  0  0  0  0  0  0  0
  -26.7713  -15.1878   21.4232 O   0  0  0  0  0  0  0  0  0  0  0  0
  -23.1122  -29.8051   20.8317 O   0  0  0  0  0  0  0  0  0  0  0  0
  -23.4986  -32.2774   24.1227 O   0  0  0  0  0  0  0  0  0  0  0  0
  -28.1269  -32.7774   23.2014 O   0  0  0  0  0  0  0  0  0  0  0  0
  -32.9379  -21.3657   22.3792 O   0  0  0  0  0  0  0  0  0  0  0  0
  -30.4746   -9.8433   17.1444 O   0  0  0  0  0  0  0  0  0  0  0  0
  -28.4186  -26.8777   19.8060 O   0  0  0  0  0  0  0  0  0  1  0  0
  -26.4810   -8.8760   13.4675 F   0  0  0  0  0  0  0  0  0  0  0  0
  -27.8354   -9.6312   17.9397 F   0  0  0  0  0  0  0  0  0  0  0  0
  1  2  1  0  0  0  0
  1  5  2  0  0  0  0
  2  6  2  0  0  0  0
  3  8  2  0  0  0  0
  3 16  1  0  0  0  0
  4  9  1  0  0  0  0
  4 16  2  0  0  0  0
  5 18  1  0  0  0  0
  6 20  1  0  0  0  0
  7 10  2  0  0  0  0
  7 19  1  0  0  0  0
  8 27  1  0  0  0  0
  9 27  2  0  0  0  0
 10 28  1  0  0  0  0
 11 12  2  0  0  0  0
 11 29  1  0  0  0  0
 12 30  1  0  0  0  0
 13 21  1  0  0  0  0
 13 28  2  0  0  0  0
 14 23  2  0  0  0  0
 14 24  1  0  0  0  0
 15 30  2  0  0  0  0
 15 31  1  0  0  0  0
 16 32  1  0  0  0  0
 17 32  1  0  0  0  0
 17 33  2  0  0  0  0
 17 34  1  0  0  0  0
 18 20  2  0  0  0  0
 18 39  1  0  0  0  0
 19 21  2  0  0  0  0
 19 40  1  0  0  0  0
 20 53  1  0  0  0  0
 21 41  1  0  0  0  0
 22 23  1  0  0  0  0
 22 25  2  0  0  0  0
 22 52  1  0  0  0  0
 23 56  1  0  0  0  0
 24 26  2  0  0  0  0
 24 57  1  0  0  0  0
 25 26  1  0  0  0  0
 25 66  1  0  0  0  0
 26 58  1  0  0  0  0
 27 85  1  0  0  0  0
 28 86  1  0  0  0  0
 29 31  2  0  0  0  0
 29 85  1  0  0  0  0
 30 87  1  0  0  0  0
 31 88  1  0  0  0  0
 32 70  2  0  0  0  0
 33 71  1  0  0  0  0
 33 75  1  0  0  0  0
 34 76  1  0  0  0  0
 34 80  2  0  0  0  0
 35 54  1  0  0  0  0
 35 77  1  0  0  0  0
 35 81  2  0  0  0  0
 36 67  1  0  0  0  0
 36 72  1  0  0  0  0
 36 82  2  0  0  0  0
 37 68  1  0  0  0  0
 37 78  1  0  0  0  0
 37 83  2  0  0  0  0
 38 73  1  0  0  0  0
 38 74  1  0  0  0  0
 38 84  2  0  0  0  0
 39 42  1  0  0  0  0
 40 54  1  0  0  0  0
 41 72  1  0  0  0  0
 42 44  1  0  0  0  0
 43 45  1  0  0  0  0
 43 48  1  0  0  0  0
 44 53  1  0  0  0  0
 45 55  1  0  0  0  0
 46 49  1  0  0  0  0
 46 52  1  0  0  0  0
 47 50  1  0  0  0  0
 47 52  1  0  0  0  0
 48 73  1  0  0  0  0
 49 74  1  0  0  0  0
 50 74  1  0  0  0  0
 51 55  1  0  0  0  0
 51 73  1  0  0  0  0
 53 77  1  0  0  0  0
 54 72  1  0  0  0  0
 55 71  1  0  0  0  0
 59 66  1  0  0  0  0
 60 68  1  0  0  0  0
 61 69  1  0  0  0  0
 62 69  1  0  0  0  0
 63 69  1  0  0  0  0
 64 79  1  0  0  0  0
 65 66  1  0  0  0  0
 65 86  1  0  0  0  0
 67 69  1  0  0  0  0
 67 78  1  0  0  0  0
 68 79  1  0  0  0  0
 70 71  1  0  0  0  0
M  CHG  1  79   1
M  ISO  4  38 100  65 101  74 100  86 101
M  END
> <Batch ID>
0163

> <Smiles>
CNC(C)C(=O)NC(C(=O)N1Cc2cc([101O:1][101CH2:1]C(C)c3c(C)c(C)cc(C)c3C3CC[100N:0]([100C:0](=O)N4CCCC(n5nc(-c6ccc(Oc7ccc(F)cc7F)cc6)c(C(N)=O)c5N)C4)CC3)ccc2CC1C(=O)NC1CCCc2ccccc21)C(C)(C)C

> <Shape>
0.267

> <Color>
0.088

> <Negative vol penalty>
0.000

$$$$

  -OEChem-04052322173D

 85 94  0     1  0  0  0  0  0999 V2000
  -33.3824  -14.7138   20.4862 C   0  0  0  0  0  0  0  0  0  0  0  0
  -32.3057  -15.5628   20.2509 C   0  0  0  0  0  0  0  0  0  0  0  0
  -26.2839  -28.0971   21.2639 C   0  0  0  0  0  0  0  0  0  0  0  0
  -25.3941  -29.4231   19.4509 C   0  0  0  0  0  0  0  0  0  0  0  0
  -33.2162  -13.3335   20.3806 C   0  0  0  0  0  0  0  0  0  0  0  0
  -31.0625  -15.0321   19.9086 C   0  0  0  0  0  0  0  0  0  0  0  0
  -27.2559  -17.2139   22.4374 C   0  0  0  0  0  0  0  0  0  0  0  0
  -27.0983  -27.4114   20.3628 C   0  0  0  0  0  0  0  0  0  0  0  0
  -26.2086  -28.7375   18.5497 C   0  0  0  0  0  0  0  0  0  0  0  0
  -26.8342  -18.4674   21.9961 C   0  0  0  0  0  0  0  0  0  0  0  0
  -29.6754  -25.5585   18.5906 C   0  0  0  0  0  0  0  0  0  0  0  0
  -31.0070  -25.3495   18.9494 C   0  0  0  0  0  0  0  0  0  0  0  0
  -24.9851  -17.4327   20.8432 C   0  0  0  0  0  0  0  0  0  0  0  0
  -25.5868  -24.1681   19.2672 C   0  0  0  0  0  0  0  0  0  0  0  0
  -31.3439  -27.7378   19.0903 C   0  0  0  0  0  0  0  0  0  0  0  0
  -25.4317  -29.1029   20.8080 C   0  0  0  0  0  0  0  0  0  0  0  0
  -24.9045  -30.9878   22.4442 C   0  0  0  0  0  0  0  0  0  0  0  0
  -31.9679  -12.7851   20.0464 C   0  0  0  0  0  0  0  0  0  0  0  0
  -26.5504  -16.0574   22.0752 C   0  0  0  0  0  0  0  0  0  0  0  0
  -30.8798  -13.6432   19.7971 C   0  0  0  0  0  0  0  0  0  0  0  0
  -25.3984  -16.1660   21.2833 C   0  0  0  0  0  0  0  0  0  0  0  0
  -23.5557  -23.6857   20.4831 C   0  0  0  0  0  0  0  0  0  0  0  0
  -24.2825  -24.5100   19.6242 C   0  0  0  0  0  0  0  0  0  0  0  0
  -26.1643  -23.0017   19.7690 C   0  0  0  0  0  0  0  0  0  0  0  0
  -24.1331  -22.5193   20.9850 C   0  0  0  0  0  0  0  0  0  0  0  0
  -25.4374  -22.1773   20.6280 C   0  0  0  0  0  0  0  0  0  0  0  0
  -27.0608  -27.7317   19.0057 C   0  0  0  0  0  0  0  0  0  0  0  0
  -25.7003  -18.5767   21.1965 C   0  0  0  0  0  0  0  0  0  0  0  0
  -29.1780  -26.8572   18.4816 C   0  0  0  0  0  0  0  0  0  0  0  0
  -31.8413  -26.4391   19.1992 C   0  0  0  0  0  0  0  0  0  0  0  0
  -30.0123  -27.9468   18.7314 C   0  0  0  0  0  0  0  0  0  0  0  0
  -24.5897  -29.8111   21.7383 C   0  0  0  0  0  0  0  0  0  0  0  0
  -23.7809  -31.2528   23.1883 C   0  0  0  0  0  0  0  0  0  0  0  0
  -26.1052  -31.7712   22.4285 C   0  0  0  0  0  0  0  0  0  0  0  0
  -27.2450  -13.4304   20.4260 C   0  0  0  0  0  0  0  0  0  0  0  0
  -24.2929  -12.5065   21.4027 C   0  0  0  0  0  0  0  0  0  0  0  0
  -21.1833  -13.4097   22.4806 C   0  0  0  0  0  0  0  0  0  0  0  0
  -20.3371  -27.3071   21.2422 C   0  0  0  0  0  0  0  0  0  0  0  0
  -31.8486  -11.2890   19.8978 C   0  0  0  0  0  0  0  0  0  0  0  0
  -27.0030  -14.7153   22.5815 C   0  0  0  0  0  0  0  0  0  0  0  0
  -24.5942  -14.9570   20.8833 C   0  0  0  0  0  0  0  0  0  0  0  0
  -30.4059  -10.7902   19.8972 C   0  0  0  0  0  0  0  0  0  0  0  0
  -21.6447  -27.8322   24.6674 C   0  0  0  0  0  0  0  0  0  0  0  0
  -29.5452  -11.6466   18.9738 C   0  0  0  0  0  0  0  0  0  0  0  0
  -21.5062  -29.3483   24.8163 C   0  0  0  0  0  0  0  0  0  0  0  0
  -21.1774  -24.1826   19.6853 C   0  0  0  0  0  0  0  0  0  0  0  0
  -20.5644  -27.2884   23.7458 C   0  0  0  0  0  0  0  0  0  0  0  0
  -20.0615  -25.0459   20.2503 C   0  0  0  0  0  0  0  0  0  0  0  0
  -22.0243  -25.4120   21.5833 C   0  0  0  0  0  0  0  0  0  0  0  0
  -20.4530  -29.4240   22.5128 C   0  0  0  0  0  0  0  0  0  0  0  0
  -22.1451  -24.0578   20.8675 C   0  0  2  0  0  0  0  0  0  0  0  0
  -29.5095  -13.1045   19.4479 C   0  0  1  0  0  0  0  0  0  0  0  0
  -26.5033  -13.5547   21.7268 C   0  0  1  0  0  0  0  0  0  0  0  0
  -21.4874  -30.0794   23.4547 C   0  0  2  0  0  0  0  0  0  0  0  0
  -23.6879  -25.7647   19.0733 C   0  0  0  0  0  0  0  0  0  0  0  0
  -27.5622  -22.6580   19.3704 C   0  0  0  0  0  0  0  0  0  0  0  0
  -23.3532  -21.6347   21.9059 C   0  0  0  0  0  0  0  0  0  0  0  0
  -18.9743  -12.4337   23.1625 C   0  0  0  0  0  0  0  0  0  0  0  0
  -23.6292  -11.9684   18.4735 C   0  0  0  0  0  0  0  0  0  0  0  0
  -21.2063  -11.9252   19.1028 C   0  0  0  0  0  0  0  0  0  0  0  0
  -22.7746  -10.2441   20.0707 C   0  0  0  0  0  0  0  0  0  0  0  0
  -21.3835  -14.5597   25.2002 C   0  0  0  0  0  0  0  0  0  0  0  0
  -26.0595  -20.9274   21.1653 C   0  0  0  0  0  0  0  0  0  1  0  0
  -22.8933  -12.6450   20.8540 C   0  0  1  0  0  0  0  0  0  0  0  0
  -20.3358  -12.9154   23.6390 C   0  0  2  0  0  0  0  0  0  0  0  0
  -22.6419  -11.7184   19.6310 C   0  0  0  0  0  0  0  0  0  0  0  0
  -23.3622  -29.3598   22.0099 N   0  0  0  0  0  0  0  0  0  0  0  0
  -22.8960  -30.2574   22.8947 N   0  0  0  0  0  0  0  0  0  0  0  0
  -25.0807  -13.6664   21.3982 N   0  0  0  0  0  0  0  0  0  0  0  0
  -20.5956  -27.9666   22.4505 N   0  0  0  0  0  0  0  0  0  0  0  0
  -20.7388  -25.9708   21.1507 N   0  0  0  0  0  0  0  0  0  0  0  0
  -23.4735  -32.2379   24.0587 N   0  0  0  0  0  0  0  0  0  0  0  0
  -27.1627  -31.3567   21.6074 N   0  0  0  0  0  0  0  0  0  0  0  0
  -28.6072  -13.2490   20.5702 N   0  0  0  0  0  0  0  0  0  0  0  0
  -21.9902  -12.4119   21.9759 N   0  0  0  0  0  0  0  0  0  0  0  0
  -20.1272  -14.0077   24.6311 N   0  3  0  0  0  0  0  0  0  0  0  0
  -26.2426  -32.7989   23.1345 O   0  0  0  0  0  0  0  0  0  0  0  0
  -26.6269  -13.4929   19.3697 O   0  0  0  0  0  0  0  0  0  0  0  0
  -24.6707  -11.4114   21.8264 O   0  0  0  0  0  0  0  0  0  0  0  0
  -21.1318  -14.5643   22.0626 O   0  0  0  0  0  0  0  0  0  0  0  0
  -19.8366  -27.9035   20.2806 O   0  0  0  0  0  0  0  0  0  0  0  0
  -27.8556  -27.0630   18.1261 O   0  0  0  0  0  0  0  0  0  0  0  0
  -25.2838  -19.8079   20.7607 O   0  0  0  0  0  0  0  0  0  1  0  0
  -33.1196  -26.2382   19.5453 F   0  0  0  0  0  0  0  0  0  0  0  0
  -29.5398  -29.1967   18.6294 F   0  0  0  0  0  0  0  0  0  0  0  0
  1  2  1  0  0  0  0
  1  5  2  0  0  0  0
  2  6  2  0  0  0  0
  3  8  2  0  0  0  0
  3 16  1  0  0  0  0
  4  9  1  0  0  0  0
  4 16  2  0  0  0  0
  5 18  1  0  0  0  0
  6 20  1  0  0  0  0
  7 10  2  0  0  0  0
  7 19  1  0  0  0  0
  8 27  1  0  0  0  0
  9 27  2  0  0  0  0
 10 28  1  0  0  0  0
 11 12  2  0  0  0  0
 11 29  1  0  0  0  0
 12 30  1  0  0  0  0
 13 21  1  0  0  0  0
 13 28  2  0  0  0  0
 14 23  1  0  0  0  0
 14 24  2  0  0  0  0
 15 30  2  0  0  0  0
 15 31  1  0  0  0  0
 16 32  1  0  0  0  0
 17 32  1  0  0  0  0
 17 33  2  0  0  0  0
 17 34  1  0  0  0  0
 18 20  2  0  0  0  0
 18 39  1  0  0  0  0
 19 21  2  0  0  0  0
 19 40  1  0  0  0  0
 20 52  1  0  0  0  0
 21 41  1  0  0  0  0
 22 23  2  0  0  0  0
 22 25  1  0  0  0  0
 22 51  1  0  0  0  0
 23 55  1  0  0  0  0
 24 26  1  0  0  0  0
 24 56  1  0  0  0  0
 25 26  2  0  0  0  0
 25 57  1  0  0  0  0
 26 63  1  0  0  0  0
 27 82  1  0  0  0  0
 28 83  1  0  0  0  0
 29 31  2  0  0  0  0
 29 82  1  0  0  0  0
 30 84  1  0  0  0  0
 31 85  1  0  0  0  0
 32 67  2  0  0  0  0
 33 68  1  0  0  0  0
 33 72  1  0  0  0  0
 34 73  1  0  0  0  0
 34 77  2  0  0  0  0
 35 53  1  0  0  0  0
 35 74  1  0  0  0  0
 35 78  2  0  0  0  0
 36 64  1  0  0  0  0
 36 69  1  0  0  0  0
 36 79  2  0  0  0  0
 37 65  1  0  0  0  0
 37 75  1  0  0  0  0
 37 80  2  0  0  0  0
 38 70  1  0  0  0  0
 38 71  1  0  0  0  0
 38 81  2  0  0  0  0
 39 42  1  0  0  0  0
 40 53  1  0  0  0  0
 41 69  1  0  0  0  0
 42 44  1  0  0  0  0
 43 45  1  0  0  0  0
 43 47  1  0  0  0  0
 44 52  1  0  0  0  0
 45 54  1  0  0  0  0
 46 48  1  0  0  0  0
 46 51  1  0  0  0  0
 47 70  1  0  0  0  0
 48 71  1  0  0  0  0
 49 51  1  0  0  0  0
 49 71  1  0  0  0  0
 50 54  1  0  0  0  0
 50 70  1  0  0  0  0
 52 74  1  0  0  0  0
 53 69  1  0  0  0  0
 54 68  1  0  0  0  0
 58 65  1  0  0  0  0
 59 66  1  0  0  0  0
 60 66  1  0  0  0  0
 61 66  1  0  0  0  0
 62 76  1  0  0  0  0
 63 83  1  0  0  0  0
 64 66  1  0  0  0  0
 64 75  1  0  0  0  0
 65 76  1  0  0  0  0
 67 68  1  0  0  0  0
M  CHG  1  76   1
M  ISO  4  38 100  63 101  71 100  83 101
M  END
> <Batch ID>
0163

> <Smiles>
CNC(C)C(=O)NC(C(=O)N1Cc2cc([101O:1][101CH2:1]c3c(C)cc(C)c(C4CC[100N:0]([100C:0](=O)N5CCCC(n6nc(-c7ccc(Oc8ccc(F)cc8F)cc7)c(C(N)=O)c6N)C5)C4)c3C)ccc2CC1C(=O)NC1CCCc2ccccc21)C(C)(C)C

> <Shape>
0.269

> <Color>
0.059

> <Negative vol penalty>
0.000

$$$$

  -OEChem-04052322173D

 87 97  0     1  0  0  0  0  0999 V2000
  -31.4007  -30.7030   13.8068 C   0  0  0  0  0  0  0  0  0  0  0  0
  -31.2111  -29.5162   14.5074 C   0  0  0  0  0  0  0  0  0  0  0  0
  -23.0067  -10.0110   19.9188 C   0  0  0  0  0  0  0  0  0  0  0  0
  -23.8708   -9.8484   22.1691 C   0  0  0  0  0  0  0  0  0  0  0  0
  -31.1846  -31.9267   14.4391 C   0  0  0  0  0  0  0  0  0  0  0  0
  -30.8062  -29.5524   15.8413 C   0  0  0  0  0  0  0  0  0  0  0  0
  -27.1247  -25.5662   18.6807 C   0  0  0  0  0  0  0  0  0  0  0  0
  -22.2566   -8.8529   20.1231 C   0  0  0  0  0  0  0  0  0  0  0  0
  -23.1206   -8.6903   22.3735 C   0  0  0  0  0  0  0  0  0  0  0  0
  -27.3846  -24.4740   19.5074 C   0  0  0  0  0  0  0  0  0  0  0  0
  -19.9110   -7.8941   23.0699 C   0  0  0  0  0  0  0  0  0  0  0  0
  -19.2079   -7.7825   24.2693 C   0  0  0  0  0  0  0  0  0  0  0  0
  -28.5929  -19.1572   24.6835 C   0  0  0  0  0  0  0  0  0  0  0  0
  -29.5337  -18.7771   22.4909 C   0  0  0  0  0  0  0  0  0  0  0  0
  -27.0639  -25.8730   21.4463 C   0  0  0  0  0  0  0  0  0  0  0  0
  -20.4503   -5.7826   24.8115 C   0  0  0  0  0  0  0  0  0  0  0  0
  -23.8139  -10.5087   20.9418 C   0  0  0  0  0  0  0  0  0  0  0  0
  -24.1905  -13.0314   20.9804 C   0  0  0  0  0  0  0  0  0  0  0  0
  -30.7675  -31.9777   15.7786 C   0  0  0  0  0  0  0  0  0  0  0  0
  -26.8428  -26.8246   19.2315 C   0  0  0  0  0  0  0  0  0  0  0  0
  -30.5856  -30.7779   16.4926 C   0  0  0  0  0  0  0  0  0  0  0  0
  -28.7692  -19.5569   23.3588 C   0  0  0  0  0  0  0  0  0  0  0  0
  -29.1812  -17.9778   25.1404 C   0  0  0  0  0  0  0  0  0  0  0  0
  -26.7983  -26.9789   20.6244 C   0  0  0  0  0  0  0  0  0  0  0  0
  -30.1219  -17.5977   22.9477 C   0  0  0  0  0  0  0  0  0  0  0  0
  -29.9457  -17.1981   24.2725 C   0  0  0  0  0  0  0  0  0  0  0  0
  -22.3135   -8.1926   21.3505 C   0  0  0  0  0  0  0  0  0  0  0  0
  -27.3570  -24.6279   20.8904 C   0  0  0  0  0  0  0  0  0  0  0  0
  -20.8837   -6.9500   22.7411 C   0  0  0  0  0  0  0  0  0  0  0  0
  -19.4776   -6.7268   25.1402 C   0  0  0  0  0  0  0  0  0  0  0  0
  -21.1534   -5.8942   23.6120 C   0  0  0  0  0  0  0  0  0  0  0  0
  -24.5895  -11.7046   20.7311 C   0  0  0  0  0  0  0  0  0  0  0  0
  -25.2768  -13.7903   20.6190 C   0  0  0  0  0  0  0  0  0  0  0  0
  -22.9490  -13.5332   21.4929 C   0  0  0  0  0  0  0  0  0  0  0  0
  -28.2261  -29.6841   19.1173 C   0  0  0  0  0  0  0  0  0  0  0  0
  -25.5742  -30.6004   20.7452 C   0  0  0  0  0  0  0  0  0  0  0  0
  -22.9833  -29.7287   22.7883 C   0  0  0  0  0  0  0  0  0  0  0  0
  -30.7791  -14.7229   20.6205 C   0  0  0  0  0  0  0  0  0  0  0  0
  -30.5923  -33.3250   16.4335 C   0  0  0  0  0  0  0  0  0  0  0  0
  -26.5384  -27.9866   18.3262 C   0  0  0  0  0  0  0  0  0  0  0  0
  -26.4807  -28.3042   21.2657 C   0  0  0  0  0  0  0  0  0  0  0  0
  -29.8023  -33.2697   17.7385 C   0  0  0  0  0  0  0  0  0  0  0  0
  -29.4952  -12.5253   18.1308 C   0  0  0  0  0  0  0  0  0  0  0  0
  -28.4096  -16.2088   26.8576 C   0  0  0  0  0  0  0  0  0  0  0  0
  -27.5751  -17.4296   27.0892 C   0  0  0  0  0  0  0  0  0  0  0  0
  -27.1377  -20.6451   21.6994 C   0  0  0  0  0  0  0  0  0  0  0  0
  -30.3086  -32.1334   18.6213 C   0  0  0  0  0  0  0  0  0  0  0  0
  -28.0746  -12.2207   18.6092 C   0  0  0  0  0  0  0  0  0  0  0  0
  -27.7035  -21.4496   20.5306 C   0  0  0  0  0  0  0  0  0  0  0  0
  -29.1716  -21.8596   22.3643 C   0  0  0  0  0  0  0  0  0  0  0  0
  -30.4698  -12.6501   19.2998 C   0  0  0  0  0  0  0  0  0  0  0  0
  -28.6455  -13.3073   20.8210 C   0  0  0  0  0  0  0  0  0  0  0  0
  -28.1318  -20.8358   22.8636 C   0  0  2  0  0  0  0  0  0  0  0  0
  -28.9782  -17.5710   26.5625 C   0  0  0  0  0  0  0  0  0  0  0  0
  -30.1229  -30.7756   17.9334 C   0  0  1  0  0  0  0  0  0  0  0  0
  -26.7689  -29.3395   18.9925 C   0  0  1  0  0  0  0  0  0  0  0  0
  -27.6158  -13.2277   19.6810 C   0  0  2  0  0  0  0  0  0  0  0  0
  -28.4917  -22.5654   21.1990 C   0  0  2  0  0  0  0  0  0  1  0  0
  -30.5771  -15.9322   24.7604 C   0  0  0  0  0  0  0  0  0  0  0  0
  -21.0010  -30.7020   23.9802 C   0  0  0  0  0  0  0  0  0  0  0  0
  -27.4317  -31.8082   22.8430 C   0  0  0  0  0  0  0  0  0  0  0  0
  -25.4838  -31.9014   24.4131 C   0  0  0  0  0  0  0  0  0  0  0  0
  -25.4345  -33.2075   22.2885 C   0  0  0  0  0  0  0  0  0  0  0  0
  -21.0944  -28.0065   21.2966 C   0  0  0  0  0  0  0  0  0  0  0  0
  -30.9361  -16.7811   21.9984 C   0  0  0  0  0  0  0  0  0  0  0  0
  -25.1931  -30.6923   22.2030 C   0  0  1  0  0  0  0  0  0  0  0  0
  -21.4964  -30.0251   22.7117 C   0  0  2  0  0  0  0  0  0  0  0  0
  -25.8937  -31.8777   22.9251 C   0  0  0  0  0  0  0  0  0  0  0  0
  -25.8321  -11.6218   20.2485 N   0  0  0  0  0  0  0  0  0  0  0  0
  -26.2234  -12.9063   20.1916 N   0  0  0  0  0  0  0  0  0  0  0  0
  -26.1963  -29.4116   20.3383 N   0  0  0  0  0  0  0  0  0  0  0  0
  -29.9770  -13.6214   20.2794 N   0  0  0  0  0  0  0  0  0  0  0  0
  -25.5051  -15.1208   20.6283 N   0  0  0  0  0  0  0  0  0  0  0  0
  -21.9391  -12.6158   21.8136 N   0  0  0  0  0  0  0  0  0  0  0  0
  -28.7429  -30.3489   18.0216 N   0  0  0  0  0  0  0  0  0  0  0  0
  -23.7357  -30.7465   22.2414 N   0  0  0  0  0  0  0  0  0  0  0  0
  -30.2342  -15.5985   21.5518 N   0  0  0  0  0  0  0  0  0  0  0  0
  -20.7260  -28.7638   22.5205 N   0  3  0  0  0  0  0  0  0  0  0  0
  -22.7355  -14.7597   21.6460 O   0  0  0  0  0  0  0  0  0  0  0  0
  -28.8360  -29.3715   20.1331 O   0  0  0  0  0  0  0  0  0  0  0  0
  -25.3225  -31.5456   19.9936 O   0  0  0  0  0  0  0  0  0  0  0  0
  -23.4325  -28.6991   23.2869 O   0  0  0  0  0  0  0  0  0  0  0  0
  -31.8958  -14.9149   20.1275 O   0  0  0  0  0  0  0  0  0  0  0  0
  -21.5815   -7.0626   21.5503 O   0  0  0  0  0  0  0  0  0  0  0  0
  -27.6109  -23.5637   21.6996 O   0  0  0  0  0  0  0  0  0  1  0  0
  -18.8034   -6.6206   26.2927 F   0  0  0  0  0  0  0  0  0  0  0  0
  -22.0876   -4.9848   23.3022 F   0  0  0  0  0  0  0  0  0  0  0  0
  1  2  1  0  0  0  0
  1  5  2  0  0  0  0
  2  6  2  0  0  0  0
  3  8  2  0  0  0  0
  3 17  1  0  0  0  0
  4  9  1  0  0  0  0
  4 17  2  0  0  0  0
  5 19  1  0  0  0  0
  6 21  1  0  0  0  0
  7 10  2  0  0  0  0
  7 20  1  0  0  0  0
  8 27  1  0  0  0  0
  9 27  2  0  0  0  0
 10 28  1  0  0  0  0
 11 12  2  0  0  0  0
 11 29  1  0  0  0  0
 12 30  1  0  0  0  0
 13 22  2  0  0  0  0
 13 23  1  0  0  0  0
 14 22  1  0  0  0  0
 14 25  2  0  0  0  0
 15 24  1  0  0  0  0
 15 28  2  0  0  0  0
 16 30  2  0  0  0  0
 16 31  1  0  0  0  0
 17 32  1  0  0  0  0
 18 32  1  0  0  0  0
 18 33  2  0  0  0  0
 18 34  1  0  0  0  0
 19 21  2  0  0  0  0
 19 39  1  0  0  0  0
 20 24  2  0  0  0  0
 20 40  1  0  0  0  0
 21 55  1  0  0  0  0
 22 53  1  0  0  0  0
 23 26  2  0  0  0  0
 23 54  1  0  0  0  0
 24 41  1  0  0  0  0
 25 26  1  0  0  0  0
 25 65  1  0  0  0  0
 26 59  1  0  0  0  0
 27 84  1  0  0  0  0
 28 85  1  0  0  0  0
 29 31  2  0  0  0  0
 29 84  1  0  0  0  0
 30 86  1  0  0  0  0
 31 87  1  0  0  0  0
 32 69  2  0  0  0  0
 33 70  1  0  0  0  0
 33 73  1  0  0  0  0
 34 74  1  0  0  0  0
 34 79  2  0  0  0  0
 35 56  1  0  0  0  0
 35 75  1  0  0  0  0
 35 80  2  0  0  0  0
 36 66  1  0  0  0  0
 36 71  1  0  0  0  0
 36 81  2  0  0  0  0
 37 67  1  0  0  0  0
 37 76  1  0  0  0  0
 37 82  2  0  0  0  0
 38 72  1  0  0  0  0
 38 77  1  0  0  0  0
 38 83  2  0  0  0  0
 39 42  1  0  0  0  0
 40 56  1  0  0  0  0
 41 71  1  0  0  0  0
 42 47  1  0  0  0  0
 43 48  1  0  0  0  0
 43 51  1  0  0  0  0
 44 45  1  0  0  0  0
 44 54  1  0  0  0  0
 45 54  1  0  0  0  0
 46 49  1  0  0  0  0
 46 53  1  0  0  0  0
 47 55  1  0  0  0  0
 48 57  1  0  0  0  0
 49 58  1  0  0  0  0
 50 53  1  0  0  0  0
 50 58  1  0  0  0  0
 51 72  1  0  0  0  0
 52 57  1  0  0  0  0
 52 72  1  0  0  0  0
 55 75  1  0  0  0  0
 56 71  1  0  0  0  0
 57 70  1  0  0  0  0
 58 85  1  0  0  0  0
 60 67  1  0  0  0  0
 61 68  1  0  0  0  0
 62 68  1  0  0  0  0
 63 68  1  0  0  0  0
 64 78  1  0  0  0  0
 65 77  1  0  0  0  0
 66 68  1  0  0  0  0
 66 76  1  0  0  0  0
 67 78  1  0  0  0  0
 69 70  1  0  0  0  0
M  CHG  1  78   1
M  ISO  4  38 100  58 101  77 100  85 101
M  END
> <Batch ID>
0163

> <Smiles>
CNC(C)C(=O)NC(C(=O)N1Cc2cc([101O:1][101CH:1]3CCC(c4cc(C[100NH:0][100C:0](=O)N5CCCC(n6nc(-c7ccc(Oc8ccc(F)cc8F)cc7)c(C(N)=O)c6N)C5)c(C)c(C5CC5)c4)C3)ccc2CC1C(=O)NC1CCCc2ccccc21)C(C)(C)C

> <Shape>
0.314

> <Color>
0.247

> <Negative vol penalty>
0.000

$$$$

  -OEChem-04052322173D

 90100  0     1  0  0  0  0  0999 V2000
  -24.6700  -19.6671   35.8469 C   0  0  0  0  0  0  0  0  0  0  0  0
  -24.8256  -19.4108   34.4884 C   0  0  0  0  0  0  0  0  0  0  0  0
  -23.1416   -9.8485   19.9347 C   0  0  0  0  0  0  0  0  0  0  0  0
  -23.6467   -9.9824   22.2936 C   0  0  0  0  0  0  0  0  0  0  0  0
  -25.3604  -18.8991   36.7836 C   0  0  0  0  0  0  0  0  0  0  0  0
  -25.6728  -18.3870   34.0658 C   0  0  0  0  0  0  0  0  0  0  0  0
  -23.6087  -15.5361   30.4248 C   0  0  0  0  0  0  0  0  0  0  0  0
  -22.3828   -8.7005   20.1623 C   0  0  0  0  0  0  0  0  0  0  0  0
  -22.8878   -8.8344   22.5212 C   0  0  0  0  0  0  0  0  0  0  0  0
  -23.6063  -16.0580   29.1320 C   0  0  0  0  0  0  0  0  0  0  0  0
  -23.2604   -5.4921   22.1731 C   0  0  0  0  0  0  0  0  0  0  0  0
  -23.8008   -4.5126   23.0062 C   0  0  0  0  0  0  0  0  0  0  0  0
  -25.5285  -14.7054   28.5889 C   0  0  0  0  0  0  0  0  0  0  0  0
  -28.7672  -19.7943   21.2891 C   0  0  0  0  0  0  0  0  0  0  0  0
  -21.9222   -4.7522   24.5064 C   0  0  0  0  0  0  0  0  0  0  0  0
  -23.7736  -10.4895   21.0003 C   0  0  0  0  0  0  0  0  0  0  0  0
  -24.1093  -13.0092   20.7864 C   0  0  0  0  0  0  0  0  0  0  0  0
  -26.2090  -17.8591   36.3726 C   0  0  0  0  0  0  0  0  0  0  0  0
  -24.5794  -14.6015   30.8133 C   0  0  0  0  0  0  0  0  0  0  0  0
  -26.3763  -17.6053   34.9979 C   0  0  0  0  0  0  0  0  0  0  0  0
  -25.5395  -14.1713   29.8865 C   0  0  0  0  0  0  0  0  0  0  0  0
  -28.9257  -17.9420   22.8321 C   0  0  0  0  0  0  0  0  0  0  0  0
  -29.3612  -18.5938   21.6783 C   0  0  0  0  0  0  0  0  0  0  0  0
  -27.7377  -20.3432   22.0537 C   0  0  0  0  0  0  0  0  0  0  0  0
  -27.8962  -18.4909   23.5967 C   0  0  0  0  0  0  0  0  0  0  0  0
  -27.3022  -19.6914   23.2075 C   0  0  0  0  0  0  0  0  0  0  0  0
  -22.2558   -8.1934   21.4555 C   0  0  0  0  0  0  0  0  0  0  0  0
  -24.5680  -15.6448   28.2147 C   0  0  0  0  0  0  0  0  0  0  0  0
  -22.0509   -6.1017   22.5066 C   0  0  0  0  0  0  0  0  0  0  0  0
  -23.1318   -4.1426   24.1729 C   0  0  0  0  0  0  0  0  0  0  0  0
  -21.3818   -5.7317   23.6732 C   0  0  0  0  0  0  0  0  0  0  0  0
  -24.5581  -11.6751   20.7658 C   0  0  0  0  0  0  0  0  0  0  0  0
  -25.2295  -13.7527   20.5052 C   0  0  0  0  0  0  0  0  0  0  0  0
  -22.7972  -13.5299   21.0373 C   0  0  0  0  0  0  0  0  0  0  0  0
  -26.8896  -14.5424   32.9958 C   0  0  0  0  0  0  0  0  0  0  0  0
  -27.1993  -11.4647   32.0190 C   0  0  0  0  0  0  0  0  0  0  0  0
  -26.7306   -9.1441   29.5610 C   0  0  0  0  0  0  0  0  0  0  0  0
  -30.9425  -13.4905   21.7352 C   0  0  0  0  0  0  0  0  0  0  0  0
  -26.9709  -17.0869   37.4204 C   0  0  0  0  0  0  0  0  0  0  0  0
  -24.5521  -14.0281   32.2036 C   0  0  0  0  0  0  0  0  0  0  0  0
  -26.5909  -13.1551   30.2476 C   0  0  0  0  0  0  0  0  0  0  0  0
  -27.5597  -15.7768   36.9033 C   0  0  0  0  0  0  0  0  0  0  0  0
  -29.6028  -12.8360   18.3778 C   0  0  0  0  0  0  0  0  0  0  0  0
  -28.2569  -15.9965   35.5645 C   0  0  0  0  0  0  0  0  0  0  0  0
  -28.1271  -12.5471   18.6649 C   0  0  0  0  0  0  0  0  0  0  0  0
  -31.0867  -16.6645   23.4998 C   0  0  0  0  0  0  0  0  0  0  0  0
  -24.4015  -15.6779   24.5968 C   0  0  0  0  0  0  0  0  0  0  0  0
  -30.5042  -12.4357   19.5443 C   0  0  0  0  0  0  0  0  0  0  0  0
  -31.4720  -15.1943   23.4617 C   0  0  0  0  0  0  0  0  0  0  0  0
  -29.4414  -15.5032   22.2245 C   0  0  0  0  0  0  0  0  0  0  0  0
  -28.6345  -12.6853   21.1284 C   0  0  0  0  0  0  0  0  0  0  0  0
  -25.1703  -16.9087   24.1602 C   0  0  0  0  0  0  0  0  0  0  0  0
  -26.5445  -15.5750   25.6875 C   0  0  0  0  0  0  0  0  0  0  0  0
  -29.5719  -16.6399   23.2521 C   0  0  2  0  0  0  0  0  0  0  0  0
  -27.2670  -16.4873   34.5011 C   0  0  1  0  0  0  0  0  0  0  0  0
  -25.9003  -13.4672   32.6452 C   0  0  1  0  0  0  0  0  0  0  0  0
  -27.6914  -13.1545   20.0128 C   0  0  2  0  0  0  0  0  0  0  0  0
  -25.0642  -15.3097   25.9131 C   0  0  1  0  0  0  0  0  0  1  0  0
  -30.4613  -18.0272   20.8415 C   0  0  0  0  0  0  0  0  0  0  0  0
  -27.1191  -21.6303   21.6154 C   0  0  0  0  0  0  0  0  0  0  0  0
  -26.1974  -20.2820   24.0252 C   0  0  0  0  0  0  0  0  0  0  0  0
  -27.1194   -6.7202   29.0403 C   0  0  0  0  0  0  0  0  0  0  0  0
  -30.1588  -12.0422   31.5521 C   0  0  0  0  0  0  0  0  0  0  0  0
  -30.2774   -9.9544   30.1753 C   0  0  0  0  0  0  0  0  0  0  0  0
  -29.6814   -9.8193   32.5938 C   0  0  0  0  0  0  0  0  0  0  0  0
  -23.8342   -8.6294   29.2373 C   0  0  0  0  0  0  0  0  0  0  0  0
  -27.4294  -17.7920   24.8347 C   0  0  0  0  0  0  0  0  0  0  0  0
  -28.0011  -10.7567   30.9537 C   0  0  1  0  0  0  0  0  0  0  0  0
  -26.1425   -7.7450   29.5955 C   0  0  2  0  0  0  0  0  0  0  0  0
  -29.5112  -10.6638   31.3122 C   0  0  0  0  0  0  0  0  0  0  0  0
  -25.8617  -11.5737   20.4930 N   0  0  0  0  0  0  0  0  0  0  0  0
  -26.2416  -12.8536   20.3395 N   0  0  0  0  0  0  0  0  0  0  0  0
  -26.5263  -12.6285   31.6210 N   0  0  0  0  0  0  0  0  0  0  0  0
  -30.0219  -13.0188   20.7946 N   0  0  0  0  0  0  0  0  0  0  0  0
  -30.5569  -14.5939   22.5006 N   0  0  0  0  0  0  0  0  0  0  0  0
  -25.4375  -15.0812   20.3860 N   0  0  0  0  0  0  0  0  0  0  0  0
  -21.7608  -12.6267   21.3097 N   0  0  0  0  0  0  0  0  0  0  0  0
  -26.4692  -15.3857   34.0065 N   0  0  0  0  0  0  0  0  0  0  0  0
  -27.3553   -9.4649   30.7477 N   0  0  0  0  0  0  0  0  0  0  0  0
  -26.5980  -16.5919   24.5521 N   0  3  2  0  0  0  0  0  0  0  0  0
  -24.8921   -7.6887   28.7867 N   0  3  0  0  0  0  0  0  0  0  0  0
  -22.5478  -14.7588   21.0042 O   0  0  0  0  0  0  0  0  0  0  0  0
  -27.9559  -14.6016   32.3949 O   0  0  0  0  0  0  0  0  0  0  0  0
  -27.1654  -10.9982   33.1605 O   0  0  0  0  0  0  0  0  0  0  0  0
  -26.6477   -9.8774   28.5783 O   0  0  0  0  0  0  0  0  0  0  0  0
  -32.0667  -12.9851   21.8433 O   0  0  0  0  0  0  0  0  0  0  0  0
  -21.5152   -7.0734   21.6780 O   0  0  0  0  0  0  0  0  0  0  0  0
  -24.5683  -16.1564   26.9440 O   0  0  0  0  0  0  0  0  0  1  0  0
  -23.6501   -3.2009   24.9721 F   0  0  0  0  0  0  0  0  0  0  0  0
  -20.2189   -6.3129   23.9983 F   0  0  0  0  0  0  0  0  0  0  0  0
  1  2  1  0  0  0  0
  1  5  2  0  0  0  0
  2  6  2  0  0  0  0
  3  8  2  0  0  0  0
  3 16  1  0  0  0  0
  4  9  1  0  0  0  0
  4 16  2  0  0  0  0
  5 18  1  0  0  0  0
  6 20  1  0  0  0  0
  7 10  2  0  0  0  0
  7 19  1  0  0  0  0
  8 27  1  0  0  0  0
  9 27  2  0  0  0  0
 10 28  1  0  0  0  0
 11 12  2  0  0  0  0
 11 29  1  0  0  0  0
 12 30  1  0  0  0  0
 13 21  1  0  0  0  0
 13 28  2  0  0  0  0
 14 23  2  0  0  0  0
 14 24  1  0  0  0  0
 15 30  2  0  0  0  0
 15 31  1  0  0  0  0
 16 32  1  0  0  0  0
 17 32  1  0  0  0  0
 17 33  2  0  0  0  0
 17 34  1  0  0  0  0
 18 20  2  0  0  0  0
 18 39  1  0  0  0  0
 19 21  2  0  0  0  0
 19 40  1  0  0  0  0
 20 55  1  0  0  0  0
 21 41  1  0  0  0  0
 22 23  1  0  0  0  0
 22 25  2  0  0  0  0
 22 54  1  0  0  0  0
 23 59  1  0  0  0  0
 24 26  2  0  0  0  0
 24 60  1  0  0  0  0
 25 26  1  0  0  0  0
 25 67  1  0  0  0  0
 26 61  1  0  0  0  0
 27 87  1  0  0  0  0
 28 88  1  0  0  0  0
 29 31  2  0  0  0  0
 29 87  1  0  0  0  0
 30 89  1  0  0  0  0
 31 90  1  0  0  0  0
 32 71  2  0  0  0  0
 33 72  1  0  0  0  0
 33 76  1  0  0  0  0
 34 77  1  0  0  0  0
 34 82  2  0  0  0  0
 35 56  1  0  0  0  0
 35 78  1  0  0  0  0
 35 83  2  0  0  0  0
 36 68  1  0  0  0  0
 36 73  1  0  0  0  0
 36 84  2  0  0  0  0
 37 69  1  0  0  0  0
 37 79  1  0  0  0  0
 37 85  2  0  0  0  0
 38 74  1  0  0  0  0
 38 75  1  0  0  0  0
 38 86  2  0  0  0  0
 39 42  1  0  0  0  0
 40 56  1  0  0  0  0
 41 73  1  0  0  0  0
 42 44  1  0  0  0  0
 43 45  1  0  0  0  0
 43 48  1  0  0  0  0
 44 55  1  0  0  0  0
 45 57  1  0  0  0  0
 46 49  1  0  0  0  0
 46 54  1  0  0  0  0
 47 52  1  0  0  0  0
 47 58  1  0  0  0  0
 48 74  1  0  0  0  0
 49 75  1  0  0  0  0
 50 54  1  0  0  0  0
 50 75  1  0  0  0  0
 51 57  1  0  0  0  0
 51 74  1  0  0  0  0
 52 80  1  0  0  0  0
 53 58  1  0  0  0  0
 53 80  1  0  0  0  0
 55 78  1  0  0  0  0
 56 73  1  0  0  0  0
 57 72  1  0  0  0  0
 58 88  1  0  0  0  0
 62 69  1  0  0  0  0
 63 70  1  0  0  0  0
 64 70  1  0  0  0  0
 65 70  1  0  0  0  0
 66 81  1  0  0  0  0
 67 80  1  0  0  0  0
 68 70  1  0  0  0  0
 68 79  1  0  0  0  0
 69 81  1  0  0  0  0
 71 72  1  0  0  0  0
M  CHG  2  80   1  81   1
M  ISO  4  38 100  58 101  75 100  88 101
M  END
> <Batch ID>
0163

> <Smiles>
CNC(C)C(=O)NC(C(=O)N1Cc2cc([101O:1][101CH:1]3CCN(Cc4c(C)c(C)cc(C)c4C4CC[100N:0]([100C:0](=O)N5CCCC(n6nc(-c7ccc(Oc8ccc(F)cc8F)cc7)c(C(N)=O)c6N)C5)C4)C3)ccc2CC1C(=O)NC1CCCc2ccccc21)C(C)(C)C

> <Shape>
0.177

> <Color>
0.176

> <Negative vol penalty>
0.000

$$$$

  -OEChem-04052322173D

 87 96  0     1  0  0  0  0  0999 V2000
  -16.4705  -28.3969   23.5360 C   0  0  0  0  0  0  0  0  0  0  0  0
  -17.3591  -27.8932   22.5915 C   0  0  0  0  0  0  0  0  0  0  0  0
  -25.5713   -9.8561   22.8362 C   0  0  0  0  0  0  0  0  0  0  0  0
  -23.2939  -10.2700   22.1441 C   0  0  0  0  0  0  0  0  0  0  0  0
  -16.8762  -29.4119   24.4015 C   0  0  0  0  0  0  0  0  0  0  0  0
  -18.6537  -28.4050   22.5112 C   0  0  0  0  0  0  0  0  0  0  0  0
  -23.7515  -25.3192   21.0984 C   0  0  0  0  0  0  0  0  0  0  0  0
  -25.1274   -8.8526   23.6972 C   0  0  0  0  0  0  0  0  0  0  0  0
  -22.8499   -9.2664   23.0051 C   0  0  0  0  0  0  0  0  0  0  0  0
  -24.4697  -25.1879   19.9107 C   0  0  0  0  0  0  0  0  0  0  0  0
  -22.7026   -5.8903   23.0265 C   0  0  0  0  0  0  0  0  0  0  0  0
  -21.7613   -4.9860   22.5346 C   0  0  0  0  0  0  0  0  0  0  0  0
  -28.9107  -22.1132   18.7498 C   0  0  0  0  0  0  0  0  0  0  0  0
  -28.9946  -22.8606   21.4326 C   0  0  0  0  0  0  0  0  0  0  0  0
  -25.9526  -26.9538   20.6192 C   0  0  0  0  0  0  0  0  0  0  0  0
  -20.2104   -5.6623   24.2592 C   0  0  0  0  0  0  0  0  0  0  0  0
  -24.6546  -10.5649   22.0597 C   0  0  0  0  0  0  0  0  0  0  0  0
  -25.4957  -11.4590   19.8234 C   0  0  0  0  0  0  0  0  0  0  0  0
  -18.1795  -29.9297   24.3382 C   0  0  0  0  0  0  0  0  0  0  0  0
  -24.1225  -26.2778   22.0523 C   0  0  0  0  0  0  0  0  0  0  0  0
  -19.0768  -29.4289   23.3758 C   0  0  0  0  0  0  0  0  0  0  0  0
  -28.9520  -21.1217   19.7407 C   0  0  0  0  0  0  0  0  0  0  0  0
  -29.0114  -21.5001   21.0937 C   0  0  0  0  0  0  0  0  0  0  0  0
  -25.2390  -27.0935   21.8194 C   0  0  0  0  0  0  0  0  0  0  0  0
  -28.9059  -23.4637   19.0978 C   0  0  0  0  0  0  0  0  0  0  0  0
  -23.7666   -8.5577   23.7817 C   0  0  0  0  0  0  0  0  0  0  0  0
  -25.5687  -26.0072   19.6697 C   0  0  0  0  0  0  0  0  0  0  0  0
  -22.3978   -6.6805   24.1348 C   0  0  0  0  0  0  0  0  0  0  0  0
  -28.9451  -23.8371   20.4384 C   0  0  0  0  0  0  0  0  0  0  0  0
  -20.5152   -4.8721   23.1509 C   0  0  0  0  0  0  0  0  0  0  0  0
  -21.1517   -6.5666   24.7511 C   0  0  0  0  0  0  0  0  0  0  0  0
  -25.1126  -11.6020   21.1705 C   0  0  0  0  0  0  0  0  0  0  0  0
  -25.8451  -12.7275   19.4293 C   0  0  0  0  0  0  0  0  0  0  0  0
  -25.5324  -10.2845   19.0019 C   0  0  0  0  0  0  0  0  0  0  0  0
  -22.7226  -28.8296   23.3300 C   0  0  0  0  0  0  0  0  0  0  0  0
  -25.3631  -28.8512   25.2140 C   0  0  0  0  0  0  0  0  0  0  0  0
  -28.6315  -27.9622   25.6318 C   0  0  0  0  0  0  0  0  0  0  0  0
  -28.3354  -17.4364   20.1419 C   0  0  0  0  0  0  0  0  0  0  0  0
  -18.5575  -31.0594   25.2633 C   0  0  0  0  0  0  0  0  0  0  0  0
  -23.3535  -26.3887   23.3402 C   0  0  0  0  0  0  0  0  0  0  0  0
  -29.0377  -20.4629   22.1868 C   0  0  0  0  0  0  0  0  0  0  0  0
  -28.9730  -19.6724   19.3290 C   0  0  0  0  0  0  0  0  0  0  0  0
  -25.6906  -28.1244   22.8203 C   0  0  0  0  0  0  0  0  0  0  0  0
  -20.0636  -31.2874   25.3624 C   0  0  0  0  0  0  0  0  0  0  0  0
  -25.1906  -17.1904   21.7002 C   0  0  0  0  0  0  0  0  0  0  0  0
  -20.6956  -31.2910   23.9741 C   0  0  0  0  0  0  0  0  0  0  0  0
  -24.9172  -15.6904   21.5975 C   0  0  0  0  0  0  0  0  0  0  0  0
  -29.4689  -19.0914   21.6783 C   0  0  0  0  0  0  0  0  0  0  0  0
  -26.6535  -17.4853   22.0358 C   0  0  0  0  0  0  0  0  0  0  0  0
  -27.3472  -15.3409   21.0167 C   0  0  0  0  0  0  0  0  0  0  0  0
  -20.4972  -29.9410   23.2742 C   0  0  1  0  0  0  0  0  0  0  0  0
  -23.5100  -27.7483   24.0144 C   0  0  1  0  0  0  0  0  0  0  0  0
  -25.8982  -15.0169   20.6216 C   0  0  1  0  0  0  0  0  0  0  0  0
  -30.2809  -27.0880   21.2144 C   0  0  0  0  0  0  0  0  0  0  0  0
  -30.5323  -28.1530   27.2591 C   0  0  0  0  0  0  0  0  0  0  0  0
  -27.6973  -25.4663   15.9965 C   0  0  0  0  0  0  0  0  0  0  0  0
  -25.7765  -31.7589   24.3866 C   0  0  0  0  0  0  0  0  0  0  0  0
  -28.1235  -31.5960   25.2429 C   0  0  0  0  0  0  0  0  0  0  0  0
  -26.2035  -31.2919   26.8061 C   0  0  0  0  0  0  0  0  0  0  0  0
  -28.8177  -25.0244   25.9369 C   0  0  0  0  0  0  0  0  0  0  0  0
  -28.8578  -24.4951   18.0192 C   0  0  0  0  0  0  0  0  0  0  0  0
  -30.0552  -25.6274   21.5422 C   0  0  0  0  0  0  0  0  0  0  0  0
  -26.3110  -24.5872   17.9122 C   0  0  0  0  0  0  0  0  0  1  0  0
  -26.7337  -29.4780   25.1266 C   0  0  1  0  0  0  0  0  0  0  0  0
  -29.3567  -27.3078   26.7937 C   0  0  2  0  0  0  0  0  0  0  0  0
  -27.6078  -24.4137   17.1089 C   0  0  1  0  0  0  0  0  0  0  0  0
  -26.6999  -31.0132   25.3706 C   0  0  0  0  0  0  0  0  0  0  0  0
  -25.2095  -12.8620   21.6031 N   0  0  0  0  0  0  0  0  0  0  0  0
  -25.6577  -13.5222   20.5218 N   0  0  0  0  0  0  0  0  0  0  0  0
  -24.9025  -28.1988   24.0616 N   0  0  0  0  0  0  0  0  0  0  0  0
  -28.7671  -18.7406   20.4387 N   0  0  0  0  0  0  0  0  0  0  0  0
  -27.5531  -16.7880   21.1081 N   0  0  0  0  0  0  0  0  0  0  0  0
  -26.2914  -13.2294   18.2583 N   0  0  0  0  0  0  0  0  0  0  0  0
  -25.1399   -9.0626   19.5651 N   0  0  0  0  0  0  0  0  0  0  0  0
  -21.4273  -28.9612   23.7931 N   0  0  0  0  0  0  0  0  0  0  0  0
  -27.5791  -28.7429   26.0611 N   0  0  0  0  0  0  0  0  0  0  0  0
  -29.8707  -25.9671   26.3946 N   0  3  0  0  0  0  0  0  0  0  0  0
  -25.9178  -10.3148   17.8085 O   0  0  0  0  0  0  0  0  0  0  0  0
  -23.2515  -29.4962   22.4482 O   0  0  0  0  0  0  0  0  0  0  0  0
  -24.7277  -28.9311   26.2683 O   0  0  0  0  0  0  0  0  0  0  0  0
  -28.9674  -27.8003   24.4607 O   0  0  0  0  0  0  0  0  0  0  0  0
  -28.6351  -16.8856   19.0749 O   0  0  0  0  0  0  0  0  0  0  0  0
  -23.3331   -7.5783   24.6215 O   0  0  0  0  0  0  0  0  0  0  0  0
  -26.2759  -25.8808   18.5030 O   0  0  0  0  0  0  0  0  0  1  0  0
  -28.9363  -25.1516   20.7968 O   0  0  0  0  0  0  0  0  0  0  0  0
  -19.6109   -4.0048   22.6775 F   0  0  0  0  0  0  0  0  0  0  0  0
  -20.8526   -7.3239   25.8155 F   0  0  0  0  0  0  0  0  0  0  0  0
  1  2  1  0  0  0  0
  1  5  2  0  0  0  0
  2  6  2  0  0  0  0
  3  8  2  0  0  0  0
  3 17  1  0  0  0  0
  4  9  1  0  0  0  0
  4 17  2  0  0  0  0
  5 19  1  0  0  0  0
  6 21  1  0  0  0  0
  7 10  2  0  0  0  0
  7 20  1  0  0  0  0
  8 26  1  0  0  0  0
  9 26  2  0  0  0  0
 10 27  1  0  0  0  0
 11 12  2  0  0  0  0
 11 28  1  0  0  0  0
 12 30  1  0  0  0  0
 13 22  2  0  0  0  0
 13 25  1  0  0  0  0
 14 23  2  0  0  0  0
 14 29  1  0  0  0  0
 15 24  1  0  0  0  0
 15 27  2  0  0  0  0
 16 30  2  0  0  0  0
 16 31  1  0  0  0  0
 17 32  1  0  0  0  0
 18 32  1  0  0  0  0
 18 33  2  0  0  0  0
 18 34  1  0  0  0  0
 19 21  2  0  0  0  0
 19 39  1  0  0  0  0
 20 24  2  0  0  0  0
 20 40  1  0  0  0  0
 21 51  1  0  0  0  0
 22 23  1  0  0  0  0
 22 42  1  0  0  0  0
 23 41  1  0  0  0  0
 24 43  1  0  0  0  0
 25 29  2  0  0  0  0
 25 61  1  0  0  0  0
 26 83  1  0  0  0  0
 27 84  1  0  0  0  0
 28 31  2  0  0  0  0
 28 83  1  0  0  0  0
 29 85  1  0  0  0  0
 30 86  1  0  0  0  0
 31 87  1  0  0  0  0
 32 68  2  0  0  0  0
 33 69  1  0  0  0  0
 33 73  1  0  0  0  0
 34 74  1  0  0  0  0
 34 78  2  0  0  0  0
 35 52  1  0  0  0  0
 35 75  1  0  0  0  0
 35 79  2  0  0  0  0
 36 64  1  0  0  0  0
 36 70  1  0  0  0  0
 36 80  2  0  0  0  0
 37 65  1  0  0  0  0
 37 76  1  0  0  0  0
 37 81  2  0  0  0  0
 38 71  1  0  0  0  0
 38 72  1  0  0  0  0
 38 82  2  0  0  0  0
 39 44  1  0  0  0  0
 40 52  1  0  0  0  0
 41 48  1  0  0  0  0
 42 71  1  0  0  0  0
 43 70  1  0  0  0  0
 44 46  1  0  0  0  0
 45 47  1  0  0  0  0
 45 49  1  0  0  0  0
 46 51  1  0  0  0  0
 47 53  1  0  0  0  0
 48 71  1  0  0  0  0
 49 72  1  0  0  0  0
 50 53  1  0  0  0  0
 50 72  1  0  0  0  0
 51 75  1  0  0  0  0
 52 70  1  0  0  0  0
 53 69  1  0  0  0  0
 54 62  1  0  0  0  0
 55 65  1  0  0  0  0
 56 66  1  0  0  0  0
 57 67  1  0  0  0  0
 58 67  1  0  0  0  0
 59 67  1  0  0  0  0
 60 77  1  0  0  0  0
 61 66  1  0  0  0  0
 62 85  1  0  0  0  0
 63 66  1  0  0  0  0
 63 84  1  0  0  0  0
 64 67  1  0  0  0  0
 64 76  1  0  0  0  0
 65 77  1  0  0  0  0
 68 69  1  0  0  0  0
M  CHG  1  77   1
M  ISO  4  38 100  63 101  71 100  84 101
M  END
> <Batch ID>
0163

> <Smiles>
CCOc1cc2c(cc1CC(C)[101CH2:1][101O:1]c1ccc3c(c1)CN(C(=O)C(NC(=O)C(C)NC)C(C)(C)C)C(C(=O)NC1CCCc4ccccc41)C3)C[100N:0]([100C:0](=O)N1CCCC(n3nc(-c4ccc(Oc5ccc(F)cc5F)cc4)c(C(N)=O)c3N)C1)CC2

> <Shape>
0.284

> <Color>
0.075

> <Negative vol penalty>
0.000

$$$$

  -OEChem-04052322173D

 87 96  0     1  0  0  0  0  0999 V2000
  -29.9018  -35.3778   22.8295 C   0  0  0  0  0  0  0  0  0  0  0  0
  -30.4199  -34.1934   22.3156 C   0  0  0  0  0  0  0  0  0  0  0  0
  -23.5058   -9.6261   20.8993 C   0  0  0  0  0  0  0  0  0  0  0  0
  -24.1638  -10.3675   23.1025 C   0  0  0  0  0  0  0  0  0  0  0  0
  -28.6985  -35.3633   23.5336 C   0  0  0  0  0  0  0  0  0  0  0  0
  -29.7356  -32.9935   22.5065 C   0  0  0  0  0  0  0  0  0  0  0  0
  -28.4543  -26.7238   19.2870 C   0  0  0  0  0  0  0  0  0  0  0  0
  -22.9067   -8.4972   21.4580 C   0  0  0  0  0  0  0  0  0  0  0  0
  -23.5647   -9.2386   23.6613 C   0  0  0  0  0  0  0  0  0  0  0  0
  -28.5235  -25.3531   19.5322 C   0  0  0  0  0  0  0  0  0  0  0  0
  -20.0283   -7.7415   23.0632 C   0  0  0  0  0  0  0  0  0  0  0  0
  -18.7592   -7.3875   22.6054 C   0  0  0  0  0  0  0  0  0  0  0  0
  -26.4135  -25.4610   20.6965 C   0  0  0  0  0  0  0  0  0  0  0  0
  -19.6178   -5.2491   21.8791 C   0  0  0  0  0  0  0  0  0  0  0  0
  -24.1344  -10.5612   21.7215 C   0  0  0  0  0  0  0  0  0  0  0  0
  -24.1534  -12.9775   20.9037 C   0  0  0  0  0  0  0  0  0  0  0  0
  -27.9942  -34.1642   23.7250 C   0  0  0  0  0  0  0  0  0  0  0  0
  -27.3676  -27.4766   19.7549 C   0  0  0  0  0  0  0  0  0  0  0  0
  -28.5224  -32.9628   23.2151 C   0  0  0  0  0  0  0  0  0  0  0  0
  -26.3316  -26.8406   20.4537 C   0  0  0  0  0  0  0  0  0  0  0  0
  -30.1127  -17.4263   23.2435 C   0  0  0  0  0  0  0  0  0  0  0  0
  -30.1504  -18.4672   22.3110 C   0  0  0  0  0  0  0  0  0  0  0  0
  -30.0453  -17.6787   24.6040 C   0  0  0  0  0  0  0  0  0  0  0  0
  -30.1166  -19.7901   22.7306 C   0  0  0  0  0  0  0  0  0  0  0  0
  -30.0125  -19.0071   25.0306 C   0  0  0  0  0  0  0  0  0  0  0  0
  -30.0464  -20.0560   24.1000 C   0  0  0  0  0  0  0  0  0  0  0  0
  -22.9361   -8.3034   22.8390 C   0  0  0  0  0  0  0  0  0  0  0  0
  -27.5045  -24.7220   20.2396 C   0  0  0  0  0  0  0  0  0  0  0  0
  -21.0922   -6.8494   22.9289 C   0  0  0  0  0  0  0  0  0  0  0  0
  -18.5539   -6.1413   22.0134 C   0  0  0  0  0  0  0  0  0  0  0  0
  -20.8869   -5.6032   22.3369 C   0  0  0  0  0  0  0  0  0  0  0  0
  -24.7539  -11.7273   21.1448 C   0  0  0  0  0  0  0  0  0  0  0  0
  -25.1542  -13.7380   20.3499 C   0  0  0  0  0  0  0  0  0  0  0  0
  -22.8111  -13.4126   21.1578 C   0  0  0  0  0  0  0  0  0  0  0  0
  -27.0262  -29.9061   21.7760 C   0  0  0  0  0  0  0  0  0  0  0  0
  -23.9498  -29.8183   20.7513 C   0  0  0  0  0  0  0  0  0  0  0  0
  -21.4049  -28.0079   19.3755 C   0  0  0  0  0  0  0  0  0  0  0  0
  -30.3081  -15.5024   20.0837 C   0  0  0  0  0  0  0  0  0  0  0  0
  -26.7213  -34.1910   24.5336 C   0  0  0  0  0  0  0  0  0  0  0  0
  -27.2947  -28.9495   19.4589 C   0  0  0  0  0  0  0  0  0  0  0  0
  -25.1335  -27.6000   20.9598 C   0  0  0  0  0  0  0  0  0  0  0  0
  -30.1371  -16.1027   22.5592 C   0  0  0  0  0  0  0  0  0  0  0  0
  -25.8688  -32.9354   24.3693 C   0  0  0  0  0  0  0  0  0  0  0  0
  -29.7123  -12.4487   18.6138 C   0  0  0  0  0  0  0  0  0  0  0  0
  -26.7336  -31.6841   24.4843 C   0  0  0  0  0  0  0  0  0  0  0  0
  -28.3212  -12.0716   19.1192 C   0  0  0  0  0  0  0  0  0  0  0  0
  -30.5442  -13.0671   19.7303 C   0  0  0  0  0  0  0  0  0  0  0  0
  -28.5100  -13.9262   20.8552 C   0  0  0  0  0  0  0  0  0  0  0  0
  -27.7969  -31.6450   23.3801 C   0  0  1  0  0  0  0  0  0  0  0  0
  -26.3937  -29.7097   20.4273 C   0  0  1  0  0  0  0  0  0  0  0  0
  -27.6278  -13.2829   19.7649 C   0  0  2  0  0  0  0  0  0  0  0  0
  -30.2495  -17.9157   20.9025 C   0  0  0  0  0  0  0  0  0  0  0  0
  -30.0135  -16.5510   25.5798 C   0  0  0  0  0  0  0  0  0  0  0  0
  -29.9430  -19.3131   26.4945 C   0  0  0  0  0  0  0  0  0  0  0  0
  -30.0065  -21.4732   24.5822 C   0  0  0  0  0  0  0  0  0  0  0  0
  -31.6003  -18.3341   20.2992 C   0  0  0  0  0  0  0  0  0  0  0  0
  -29.0818  -18.4071   20.0390 C   0  0  0  0  0  0  0  0  0  0  0  0
  -18.9969  -28.1968   18.6947 C   0  0  0  0  0  0  0  0  0  0  0  0
  -23.1107  -29.6449   23.6797 C   0  0  0  0  0  0  0  0  0  0  0  0
  -20.8494  -28.8903   22.9148 C   0  0  0  0  0  0  0  0  0  0  0  0
  -21.6907  -31.1498   22.2751 C   0  0  0  0  0  0  0  0  0  0  0  0
  -22.0384  -27.4190   16.5452 C   0  0  0  0  0  0  0  0  0  0  0  0
  -30.1504  -20.9258   21.7627 C   0  0  0  0  0  0  0  0  0  0  0  0
  -28.7908  -21.6060   21.5399 C   0  0  0  0  0  0  0  0  0  0  0  0
  -28.8688  -22.8090   20.6072 C   0  0  0  0  0  0  0  0  0  1  0  0
  -22.6968  -29.0997   21.1902 C   0  0  1  0  0  0  0  0  0  0  0  0
  -20.4437  -28.3209   18.2429 C   0  0  2  0  0  0  0  0  0  0  0  0
  -22.1103  -29.6819   22.5072 C   0  0  0  0  0  0  0  0  0  0  0  0
  -26.0367  -11.6914   20.7744 N   0  0  0  0  0  0  0  0  0  0  0  0
  -26.2504  -12.9285   20.2947 N   0  0  0  0  0  0  0  0  0  0  0  0
  -25.1112  -29.0393   20.6507 N   0  0  0  0  0  0  0  0  0  0  0  0
  -30.1585  -16.4369   21.1199 N   0  0  0  0  0  0  0  0  0  0  0  0
  -29.8588  -14.2015   20.3466 N   0  0  0  0  0  0  0  0  0  0  0  0
  -25.1945  -15.0135   19.9095 N   0  0  0  0  0  0  0  0  0  0  0  0
  -21.9115  -12.5038   21.7314 N   0  0  0  0  0  0  0  0  0  0  0  0
  -27.2072  -31.2308   22.1250 N   0  0  0  0  0  0  0  0  0  0  0  0
  -21.7806  -29.1469   20.0559 N   0  0  0  0  0  0  0  0  0  0  0  0
  -20.6625  -27.3846   17.1043 N   0  3  0  0  0  0  0  0  0  0  0  0
  -22.4165  -14.5678   20.8690 O   0  0  0  0  0  0  0  0  0  0  0  0
  -27.3265  -28.9282   22.4507 O   0  0  0  0  0  0  0  0  0  0  0  0
  -23.8983  -31.0249   20.4997 O   0  0  0  0  0  0  0  0  0  0  0  0
  -21.7815  -26.8668   19.6333 O   0  0  0  0  0  0  0  0  0  0  0  0
  -30.8449  -15.7817   19.0062 O   0  0  0  0  0  0  0  0  0  0  0  0
  -22.3514   -7.2021   23.3846 O   0  0  0  0  0  0  0  0  0  0  0  0
  -27.5704  -23.3749   20.4826 O   0  0  0  0  0  0  0  0  0  1  0  0
  -17.3348   -5.8008   21.5752 F   0  0  0  0  0  0  0  0  0  0  0  0
  -21.9048   -4.7415   22.2062 F   0  0  0  0  0  0  0  0  0  0  0  0
  1  2  1  0  0  0  0
  1  5  2  0  0  0  0
  2  6  2  0  0  0  0
  3  8  2  0  0  0  0
  3 15  1  0  0  0  0
  4  9  1  0  0  0  0
  4 15  2  0  0  0  0
  5 17  1  0  0  0  0
  6 19  1  0  0  0  0
  7 10  2  0  0  0  0
  7 18  1  0  0  0  0
  8 27  1  0  0  0  0
  9 27  2  0  0  0  0
 10 28  1  0  0  0  0
 11 12  2  0  0  0  0
 11 29  1  0  0  0  0
 12 30  1  0  0  0  0
 13 20  1  0  0  0  0
 13 28  2  0  0  0  0
 14 30  2  0  0  0  0
 14 31  1  0  0  0  0
 15 32  1  0  0  0  0
 16 32  1  0  0  0  0
 16 33  2  0  0  0  0
 16 34  1  0  0  0  0
 17 19  2  0  0  0  0
 17 39  1  0  0  0  0
 18 20  2  0  0  0  0
 18 40  1  0  0  0  0
 19 49  1  0  0  0  0
 20 41  1  0  0  0  0
 21 22  1  0  0  0  0
 21 23  2  0  0  0  0
 21 42  1  0  0  0  0
 22 24  2  0  0  0  0
 22 52  1  0  0  0  0
 23 25  1  0  0  0  0
 23 53  1  0  0  0  0
 24 26  1  0  0  0  0
 24 63  1  0  0  0  0
 25 26  2  0  0  0  0
 25 54  1  0  0  0  0
 26 55  1  0  0  0  0
 27 84  1  0  0  0  0
 28 85  1  0  0  0  0
 29 31  2  0  0  0  0
 29 84  1  0  0  0  0
 30 86  1  0  0  0  0
 31 87  1  0  0  0  0
 32 69  2  0  0  0  0
 33 70  1  0  0  0  0
 33 74  1  0  0  0  0
 34 75  1  0  0  0  0
 34 79  2  0  0  0  0
 35 50  1  0  0  0  0
 35 76  1  0  0  0  0
 35 80  2  0  0  0  0
 36 66  1  0  0  0  0
 36 71  1  0  0  0  0
 36 81  2  0  0  0  0
 37 67  1  0  0  0  0
 37 77  1  0  0  0  0
 37 82  2  0  0  0  0
 38 72  1  0  0  0  0
 38 73  1  0  0  0  0
 38 83  2  0  0  0  0
 39 43  1  0  0  0  0
 40 50  1  0  0  0  0
 41 71  1  0  0  0  0
 42 72  1  0  0  0  0
 43 45  1  0  0  0  0
 44 46  1  0  0  0  0
 44 47  1  0  0  0  0
 45 49  1  0  0  0  0
 46 51  1  0  0  0  0
 47 73  1  0  0  0  0
 48 51  1  0  0  0  0
 48 73  1  0  0  0  0
 49 76  1  0  0  0  0
 50 71  1  0  0  0  0
 51 70  1  0  0  0  0
 52 56  1  0  0  0  0
 52 57  1  0  0  0  0
 52 72  1  0  0  0  0
 58 67  1  0  0  0  0
 59 68  1  0  0  0  0
 60 68  1  0  0  0  0
 61 68  1  0  0  0  0
 62 78  1  0  0  0  0
 63 64  1  0  0  0  0
 64 65  1  0  0  0  0
 65 85  1  0  0  0  0
 66 68  1  0  0  0  0
 66 77  1  0  0  0  0
 67 78  1  0  0  0  0
 69 70  1  0  0  0  0
M  CHG  1  78   1
M  ISO  4  38 100  65 101  72 100  85 101
M  END
> <Batch ID>
0163

> <Smiles>
CNC(C)C(=O)NC(C(=O)N1Cc2cc([101O:1][101CH2:1]CCc3c(C)c(C)c(C)c4c3C(C)(C)[100N:0]([100C:0](=O)N3CCCC(n5nc(-c6ccc(Oc7ccc(F)cc7F)cc6)c(C(N)=O)c5N)C3)C4)ccc2CC1C(=O)NC1CCCc2ccccc21)C(C)(C)C

> <Shape>
0.332

> <Color>
0.152

> <Negative vol penalty>
0.000

$$$$

  -OEChem-04052322173D

 93103  0     1  0  0  0  0  0999 V2000
  -26.9894  -29.2784   33.9462 C   0  0  0  0  0  0  0  0  0  0  0  0
  -26.6161  -28.3824   32.9496 C   0  0  0  0  0  0  0  0  0  0  0  0
  -26.6310   -8.8925   21.5443 C   0  0  0  0  0  0  0  0  0  0  0  0
  -26.6474   -9.4914   19.2038 C   0  0  0  0  0  0  0  0  0  0  0  0
  -26.6566  -30.6273   33.8297 C   0  0  0  0  0  0  0  0  0  0  0  0
  -25.9087  -28.8347   31.8363 C   0  0  0  0  0  0  0  0  0  0  0  0
  -28.5149  -27.9550   25.1785 C   0  0  0  0  0  0  0  0  0  0  0  0
  -27.4695   -7.8113   21.2736 C   0  0  0  0  0  0  0  0  0  0  0  0
  -27.4860   -8.4102   18.9330 C   0  0  0  0  0  0  0  0  0  0  0  0
  -28.8465  -27.6367   23.8614 C   0  0  0  0  0  0  0  0  0  0  0  0
  -27.1789   -4.6892   20.0117 C   0  0  0  0  0  0  0  0  0  0  0  0
  -26.8635   -3.4629   20.5967 C   0  0  0  0  0  0  0  0  0  0  0  0
  -26.9132  -28.8544   23.0691 C   0  0  0  0  0  0  0  0  0  0  0  0
  -28.5737  -23.0720   20.2761 C   0  0  0  0  0  0  0  0  0  0  0  0
  -26.1972  -23.3834   20.5797 C   0  0  0  0  0  0  0  0  0  0  0  0
  -28.9985   -3.4532   21.7275 C   0  0  0  0  0  0  0  0  0  0  0  0
  -26.2198   -9.7325   20.5094 C   0  0  0  0  0  0  0  0  0  0  0  0
  -24.0614  -10.8042   21.3464 C   0  0  0  0  0  0  0  0  0  0  0  0
  -25.9532  -31.0980   32.7097 C   0  0  0  0  0  0  0  0  0  0  0  0
  -27.3883  -28.7381   25.4453 C   0  0  0  0  0  0  0  0  0  0  0  0
  -25.5650  -30.1909   31.7053 C   0  0  0  0  0  0  0  0  0  0  0  0
  -26.5830  -29.1869   24.3856 C   0  0  0  0  0  0  0  0  0  0  0  0
  -28.7014  -24.4100   19.9032 C   0  0  0  0  0  0  0  0  0  0  0  0
  -27.5770  -25.2347   19.8687 C   0  0  0  0  0  0  0  0  0  0  0  0
  -27.3216  -22.5586   20.6143 C   0  0  0  0  0  0  0  0  0  0  0  0
  -26.3248  -24.7214   20.2069 C   0  0  0  0  0  0  0  0  0  0  0  0
  -27.8971   -7.5701   19.9679 C   0  0  0  0  0  0  0  0  0  0  0  0
  -28.0474  -28.0851   22.8093 C   0  0  0  0  0  0  0  0  0  0  0  0
  -28.4042   -5.2975   20.2844 C   0  0  0  0  0  0  0  0  0  0  0  0
  -27.7733   -2.8449   21.4547 C   0  0  0  0  0  0  0  0  0  0  0  0
  -29.3140   -4.6795   21.1424 C   0  0  0  0  0  0  0  0  0  0  0  0
  -25.3531  -10.8493   20.7884 C   0  0  0  0  0  0  0  0  0  0  0  0
  -23.6673  -12.1186   21.4064 C   0  0  0  0  0  0  0  0  0  0  0  0
  -23.2872   -9.6752   21.7725 C   0  0  0  0  0  0  0  0  0  0  0  0
  -25.2451  -30.4108   28.0307 C   0  0  0  0  0  0  0  0  0  0  0  0
  -25.4714  -32.3542   25.6680 C   0  0  0  0  0  0  0  0  0  0  0  0
  -25.6365  -35.0959   23.6449 C   0  0  0  0  0  0  0  0  0  0  0  0
  -26.4981  -17.1384   21.8711 C   0  0  0  0  0  0  0  0  0  0  0  0
  -25.5747  -32.5567   32.6507 C   0  0  0  0  0  0  0  0  0  0  0  0
  -26.9587  -29.0538   26.8522 C   0  0  0  0  0  0  0  0  0  0  0  0
  -25.3613  -29.9975   24.7222 C   0  0  0  0  0  0  0  0  0  0  0  0
  -25.1505  -33.0201   31.2594 C   0  0  0  0  0  0  0  0  0  0  0  0
  -24.3101  -16.3313   19.2442 C   0  0  0  0  0  0  0  0  0  0  0  0
  -24.1712  -32.0271   30.6416 C   0  0  0  0  0  0  0  0  0  0  0  0
  -24.2011  -14.8143   19.3949 C   0  0  0  0  0  0  0  0  0  0  0  0
  -25.7381  -16.8288   19.4738 C   0  0  0  0  0  0  0  0  0  0  0  0
  -26.1377  -20.8287   21.9310 C   0  0  0  0  0  0  0  0  0  0  0  0
  -27.6223  -20.1936   20.0235 C   0  0  0  0  0  0  0  0  0  0  0  0
  -26.4571  -19.4944   22.5999 C   0  0  0  0  0  0  0  0  0  0  0  0
  -27.9250  -18.8776   20.7314 C   0  0  0  0  0  0  0  0  0  0  0  0
  -24.0319  -25.2625   19.3370 C   0  0  0  0  0  0  0  0  0  0  0  0
  -26.2187  -14.8726   20.9092 C   0  0  0  0  0  0  0  0  0  0  0  0
  -25.0390  -26.7363   20.9773 C   0  0  0  0  0  0  0  0  0  0  0  0
  -24.8186  -30.6475   30.4706 C   0  0  1  0  0  0  0  0  0  0  0  0
  -26.3264  -30.4502   26.9912 C   0  0  1  0  0  0  0  0  0  0  0  0
  -23.2217  -26.5650   19.4250 C   0  0  2  0  0  0  0  0  0  0  0  0
  -24.7836  -14.3497   20.7415 C   0  0  2  0  0  0  0  0  0  0  0  0
  -23.5514  -27.0440   20.8350 C   0  0  2  0  0  0  0  0  0  0  0  0
  -30.0534  -24.9345   19.5452 C   0  0  0  0  0  0  0  0  0  0  0  0
  -21.7369  -26.3592   19.1739 C   0  0  0  0  0  0  0  0  0  0  0  0
  -26.9273  -26.9886   18.1854 C   0  0  0  0  0  0  0  0  0  0  0  0
  -24.3713  -37.1772   23.0408 C   0  0  0  0  0  0  0  0  0  0  0  0
  -23.5138  -30.6843   24.0300 C   0  0  0  0  0  0  0  0  0  0  0  0
  -22.9284  -32.7551   22.7503 C   0  0  0  0  0  0  0  0  0  0  0  0
  -22.4892  -32.6409   25.2032 C   0  0  0  0  0  0  0  0  0  0  0  0
  -27.8538  -36.8418   24.5361 C   0  0  0  0  0  0  0  0  0  0  0  0
  -27.3093  -27.6479   20.5897 C   0  0  0  0  0  0  0  0  0  1  0  0
  -27.7185  -26.6695   19.4676 C   0  0  1  0  0  0  0  0  0  0  0  0
  -24.8698  -32.8536   24.3788 C   0  0  1  0  0  0  0  0  0  0  0  0
  -25.4448  -36.5739   23.9333 C   0  0  2  0  0  0  0  0  0  0  0  0
  -23.4772  -32.2244   24.0919 C   0  0  0  0  0  0  0  0  0  0  0  0
  -25.7529  -12.0937   20.5134 N   0  0  0  0  0  0  0  0  0  0  0  0
  -24.7062  -12.8427   20.9000 N   0  0  0  0  0  0  0  0  0  0  0  0
  -27.1936  -21.2150   20.9889 N   0  0  0  0  0  0  0  0  0  0  0  0
  -25.2022  -25.5209   20.1788 N   0  0  3  0  0  0  0  0  0  0  0  0
  -25.6808  -30.9739   25.7754 N   0  0  0  0  0  0  0  0  0  0  0  0
  -26.2652  -16.3276   20.7502 N   0  0  0  0  0  0  0  0  0  0  0  0
  -26.8361  -18.4784   21.6254 N   0  0  0  0  0  0  0  0  0  0  0  0
  -22.5368  -12.7139   21.8422 N   0  0  0  0  0  0  0  0  0  0  0  0
  -23.8432   -8.3955   21.6404 N   0  0  0  0  0  0  0  0  0  0  0  0
  -25.6934  -30.6392   29.3177 N   0  0  0  0  0  0  0  0  0  0  0  0
  -24.8603  -34.3096   24.4699 N   0  0  0  0  0  0  0  0  0  0  0  0
  -23.2878  -28.4854   20.9981 N   0  3  0  0  0  0  0  0  0  0  0  0
  -26.7171  -37.3155   23.7051 N   0  3  0  0  0  0  0  0  0  0  0  0
  -22.1298   -9.7964   22.2409 O   0  0  0  0  0  0  0  0  0  0  0  0
  -24.0883  -30.1909   27.6913 O   0  0  0  0  0  0  0  0  0  0  0  0
  -25.7440  -33.1630   26.5596 O   0  0  0  0  0  0  0  0  0  0  0  0
  -26.3959  -34.6805   22.7723 O   0  0  0  0  0  0  0  0  0  0  0  0
  -26.4071  -16.6949   23.0226 O   0  0  0  0  0  0  0  0  0  0  0  0
  -28.7156   -6.5153   19.7034 O   0  0  0  0  0  0  0  0  0  0  0  0
  -28.3816  -27.7725   21.5171 O   0  0  0  0  0  0  0  0  0  1  0  0
  -27.4696   -1.6681   22.0177 F   0  0  0  0  0  0  0  0  0  0  0  0
  -30.4922   -5.2596   21.4092 F   0  0  0  0  0  0  0  0  0  0  0  0
  1  2  1  0  0  0  0
  1  5  2  0  0  0  0
  2  6  2  0  0  0  0
  3  8  2  0  0  0  0
  3 17  1  0  0  0  0
  4  9  1  0  0  0  0
  4 17  2  0  0  0  0
  5 19  1  0  0  0  0
  6 21  1  0  0  0  0
  7 10  2  0  0  0  0
  7 20  1  0  0  0  0
  8 27  1  0  0  0  0
  9 27  2  0  0  0  0
 10 28  1  0  0  0  0
 11 12  2  0  0  0  0
 11 29  1  0  0  0  0
 12 30  1  0  0  0  0
 13 22  1  0  0  0  0
 13 28  2  0  0  0  0
 14 23  2  0  0  0  0
 14 25  1  0  0  0  0
 15 25  2  0  0  0  0
 15 26  1  0  0  0  0
 16 30  2  0  0  0  0
 16 31  1  0  0  0  0
 17 32  1  0  0  0  0
 18 32  1  0  0  0  0
 18 33  2  0  0  0  0
 18 34  1  0  0  0  0
 19 21  2  0  0  0  0
 19 39  1  0  0  0  0
 20 22  2  0  0  0  0
 20 40  1  0  0  0  0
 21 54  1  0  0  0  0
 22 41  1  0  0  0  0
 23 24  1  0  0  0  0
 23 59  1  0  0  0  0
 24 26  2  0  0  0  0
 24 68  1  0  0  0  0
 25 74  1  0  0  0  0
 26 75  1  0  0  0  0
 27 90  1  0  0  0  0
 28 91  1  0  0  0  0
 29 31  2  0  0  0  0
 29 90  1  0  0  0  0
 30 92  1  0  0  0  0
 31 93  1  0  0  0  0
 32 72  2  0  0  0  0
 33 73  1  0  0  0  0
 33 79  1  0  0  0  0
 34 80  1  0  0  0  0
 34 85  2  0  0  0  0
 35 55  1  0  0  0  0
 35 81  1  0  0  0  0
 35 86  2  0  0  0  0
 36 69  1  0  0  0  0
 36 76  1  0  0  0  0
 36 87  2  0  0  0  0
 37 70  1  0  0  0  0
 37 82  1  0  0  0  0
 37 88  2  0  0  0  0
 38 77  1  0  0  0  0
 38 78  1  0  0  0  0
 38 89  2  0  0  0  0
 39 42  1  0  0  0  0
 40 55  1  0  0  0  0
 41 76  1  0  0  0  0
 42 44  1  0  0  0  0
 43 45  1  0  0  0  0
 43 46  1  0  0  0  0
 44 54  1  0  0  0  0
 45 57  1  0  0  0  0
 46 77  1  0  0  0  0
 47 49  1  0  0  0  0
 47 74  1  0  0  0  0
 48 50  1  0  0  0  0
 48 74  1  0  0  0  0
 49 78  1  0  0  0  0
 50 78  1  0  0  0  0
 51 56  1  0  0  0  0
 51 75  1  0  0  0  0
 52 57  1  0  0  0  0
 52 77  1  0  0  0  0
 53 58  1  0  0  0  0
 53 75  1  0  0  0  0
 54 81  1  0  0  0  0
 55 76  1  0  0  0  0
 56 58  1  0  0  0  0
 56 60  1  0  0  0  0
 57 73  1  0  0  0  0
 58 83  1  0  0  0  0
 61 68  1  0  0  0  0
 62 70  1  0  0  0  0
 63 71  1  0  0  0  0
 64 71  1  0  0  0  0
 65 71  1  0  0  0  0
 66 84  1  0  0  0  0
 67 68  1  0  0  0  0
 67 91  1  0  0  0  0
 69 71  1  0  0  0  0
 69 82  1  0  0  0  0
 70 84  1  0  0  0  0
 72 73  1  0  0  0  0
M  CHG  2  83   1  84   1
M  ISO  4  38 100  67 101  78 100  91 101
M  END
> <Batch ID>
0163

> <Smiles>
CNC(C)C(=O)NC(C(=O)N1Cc2cc([101O:1][101CH2:1]C(C)c3c(C)cc(N4CC[100N:0]([100C:0](=O)N5CCCC(n6nc(-c7ccc(Oc8ccc(F)cc8F)cc7)c(C(N)=O)c6N)C5)CC4)cc3N3CC(C)C(N)C3)ccc2CC1C(=O)NC1CCCc2ccccc21)C(C)(C)C

> <Shape>
0.222

> <Color>
0.095

> <Negative vol penalty>
0.000

$$$$

  -OEChem-04052322173D

 91101  0     1  0  0  0  0  0999 V2000
  -16.8206  -29.1761   24.3344 C   0  0  0  0  0  0  0  0  0  0  0  0
  -17.2357  -28.2637   23.3697 C   0  0  0  0  0  0  0  0  0  0  0  0
  -25.9932  -12.4390   21.7174 C   0  0  0  0  0  0  0  0  0  0  0  0
  -25.1617  -13.4745   19.6992 C   0  0  0  0  0  0  0  0  0  0  0  0
  -17.5071  -30.3789   24.4959 C   0  0  0  0  0  0  0  0  0  0  0  0
  -18.3369  -28.5541   22.5651 C   0  0  0  0  0  0  0  0  0  0  0  0
  -22.4708  -24.5828   20.4098 C   0  0  0  0  0  0  0  0  0  0  0  0
  -27.7328  -23.8519   18.8251 C   0  0  0  0  0  0  0  0  0  0  0  0
  -27.5190  -22.9322   19.8517 C   0  0  0  0  0  0  0  0  0  0  0  0
  -24.9674  -11.4958   21.6562 C   0  0  0  0  0  0  0  0  0  0  0  0
  -24.1359  -12.5313   19.6379 C   0  0  0  0  0  0  0  0  0  0  0  0
  -22.6069  -23.9475   19.1763 C   0  0  0  0  0  0  0  0  0  0  0  0
  -24.2899   -8.6599   19.9440 C   0  0  0  0  0  0  0  0  0  0  0  0
  -24.6238   -7.3237   20.1645 C   0  0  0  0  0  0  0  0  0  0  0  0
  -26.2290  -21.5515   18.3462 C   0  0  0  0  0  0  0  0  0  0  0  0
  -24.1530  -25.6599   18.4717 C   0  0  0  0  0  0  0  0  0  0  0  0
  -23.1155   -7.2580   22.0507 C   0  0  0  0  0  0  0  0  0  0  0  0
  -26.0904  -13.4283   20.7389 C   0  0  0  0  0  0  0  0  0  0  0  0
  -28.4297  -14.3062   20.2245 C   0  0  0  0  0  0  0  0  0  0  0  0
  -18.6231  -30.6799   23.6994 C   0  0  0  0  0  0  0  0  0  0  0  0
  -23.1675  -25.7693   20.6800 C   0  0  0  0  0  0  0  0  0  0  0  0
  -19.0381  -29.7626   22.7152 C   0  0  0  0  0  0  0  0  0  0  0  0
  -26.4427  -22.4713   17.3195 C   0  0  0  0  0  0  0  0  0  0  0  0
  -24.0260  -26.3069   19.7104 C   0  0  0  0  0  0  0  0  0  0  0  0
  -26.4589  -20.9234   15.4841 C   0  0  0  0  0  0  0  0  0  0  0  0
  -27.1946  -23.6215   17.5590 C   0  0  0  0  0  0  0  0  0  0  0  0
  -27.6916  -20.3983   15.0704 C   0  0  0  0  0  0  0  0  0  0  0  0
  -26.7671  -21.7820   19.6123 C   0  0  0  0  0  0  0  0  0  0  0  0
  -24.0388  -11.5420   20.6164 C   0  0  0  0  0  0  0  0  0  0  0  0
  -23.4459  -24.4875   18.2059 C   0  0  0  0  0  0  0  0  0  0  0  0
  -23.3688   -9.2953   20.7769 C   0  0  0  0  0  0  0  0  0  0  0  0
  -24.0366   -6.6228   21.2178 C   0  0  0  0  0  0  0  0  0  0  0  0
  -22.7816   -8.5943   21.8302 C   0  0  0  0  0  0  0  0  0  0  0  0
  -27.1495  -14.4032   20.8020 C   0  0  0  0  0  0  0  0  0  0  0  0
  -25.5296  -19.9246   15.3909 C   0  0  0  0  0  0  0  0  0  0  0  0
  -27.4571  -19.0684   14.7510 C   0  0  0  0  0  0  0  0  0  0  0  0
  -29.0521  -15.4809   20.5698 C   0  0  0  0  0  0  0  0  0  0  0  0
  -29.0048  -13.2488   19.4456 C   0  0  0  0  0  0  0  0  0  0  0  0
  -22.3276  -28.7574   21.3653 C   0  0  0  0  0  0  0  0  0  0  0  0
  -25.5193  -29.1423   21.7983 C   0  0  0  0  0  0  0  0  0  0  0  0
  -28.6866  -28.0812   21.0989 C   0  0  0  0  0  0  0  0  0  0  0  0
  -27.0157  -20.9220   21.9671 C   0  0  0  0  0  0  0  0  0  0  0  0
  -19.3045  -32.0134   23.8786 C   0  0  0  0  0  0  0  0  0  0  0  0
  -23.0305  -26.4279   22.0253 C   0  0  0  0  0  0  0  0  0  0  0  0
  -24.8118  -27.5677   19.9583 C   0  0  0  0  0  0  0  0  0  0  0  0
  -24.1530  -20.2901   15.7733 C   0  0  0  0  0  0  0  0  0  0  0  0
  -20.6892  -32.0807   23.2396 C   0  0  0  0  0  0  0  0  0  0  0  0
  -29.0832  -18.8395   23.9835 C   0  0  0  0  0  0  0  0  0  0  0  0
  -20.6533  -31.5081   21.8262 C   0  0  0  0  0  0  0  0  0  0  0  0
  -28.9432  -17.4579   23.3402 C   0  0  0  0  0  0  0  0  0  0  0  0
  -27.7700  -19.6191   23.9440 C   0  0  0  0  0  0  0  0  0  0  0  0
  -27.0144  -18.3499   21.9723 C   0  0  0  0  0  0  0  0  0  0  0  0
  -25.8505  -22.1989   15.9529 C   0  0  1  0  0  0  0  0  0  0  0  0
  -20.2432  -30.0306   21.8399 C   0  0  1  0  0  0  0  0  0  0  0  0
  -23.3912  -27.9101   22.0045 C   0  0  1  0  0  0  0  0  0  0  0  0
  -28.3282  -17.5525   21.9301 C   0  0  2  0  0  0  0  0  0  0  0  0
  -24.2773  -21.8750   15.8414 C   0  0  1  0  0  0  0  0  0  0  0  0
  -27.4364  -24.6209   16.4759 C   0  0  0  0  0  0  0  0  0  0  0  0
  -28.9783  -21.1144   14.9893 C   0  0  0  0  0  0  0  0  0  0  0  0
  -28.3971  -18.0350   14.2635 C   0  0  0  0  0  0  0  0  0  0  0  0
  -23.7556  -22.4675   14.5104 C   0  0  0  0  0  0  0  0  0  0  0  0
  -31.0926  -28.6180   21.5684 C   0  0  0  0  0  0  0  0  0  0  0  0
  -25.3747  -31.4845   19.8481 C   0  0  0  0  0  0  0  0  0  0  0  0
  -27.8655  -31.3630   19.6261 C   0  0  0  0  0  0  0  0  0  0  0  0
  -26.8359  -31.8741   21.8400 C   0  0  0  0  0  0  0  0  0  0  0  0
  -25.4663  -17.5186   14.7351 C   0  0  0  0  0  0  0  0  0  0  0  0
  -29.1446  -25.4513   22.3767 C   0  0  0  0  0  0  0  0  0  0  0  0
  -23.4250  -22.4514   16.9772 C   0  0  0  0  0  0  0  0  0  1  0  0
  -26.6795  -29.5274   20.9125 C   0  0  1  0  0  0  0  0  0  0  0  0
  -29.8790  -27.8084   21.9979 C   0  0  2  0  0  0  0  0  0  0  0  0
  -26.6727  -31.0395   20.5510 C   0  0  0  0  0  0  0  0  0  0  0  0
  -26.9680  -15.5490   21.4640 N   0  0  0  0  0  0  0  0  0  0  0  0
  -26.1188  -18.7881   14.9539 N   0  0  0  0  0  0  0  0  0  0  0  0
  -28.1424  -16.1826   21.3048 N   0  0  0  0  0  0  0  0  0  0  0  0
  -24.6391  -28.1781   21.2869 N   0  0  0  0  0  0  0  0  0  0  0  0
  -27.2489  -19.6709   22.5763 N   0  0  0  0  0  0  0  0  0  0  0  0
  -30.2833  -15.9716   20.3135 N   0  0  0  0  0  0  0  0  0  0  0  0
  -28.2271  -12.1125   19.1839 N   0  0  0  0  0  0  0  0  0  0  0  0
  -26.5513  -20.8464   20.6544 N   0  0  0  0  0  0  0  0  0  0  0  0
  -21.3576  -29.2004   22.2441 N   0  0  0  0  0  0  0  0  0  0  0  0
  -27.8854  -29.0836   21.6035 N   0  0  0  0  0  0  0  0  0  0  0  0
  -30.2395  -26.3630   21.9558 N   0  3  0  0  0  0  0  0  0  0  0  0
  -30.1795  -13.3026   19.0088 O   0  0  0  0  0  0  0  0  0  0  0  0
  -22.3837  -28.9930   20.1641 O   0  0  0  0  0  0  0  0  0  0  0  0
  -25.4023  -29.6720   22.9061 O   0  0  0  0  0  0  0  0  0  0  0  0
  -28.4880  -27.4691   20.0519 O   0  0  0  0  0  0  0  0  0  0  0  0
  -27.2393  -21.9825   22.5564 O   0  0  0  0  0  0  0  0  0  0  0  0
  -23.0378  -10.6217   20.5562 O   0  0  0  0  0  0  0  0  0  0  0  0
  -23.5800  -23.8698   17.0008 O   0  0  0  0  0  0  0  0  0  1  0  0
  -24.3562   -5.3391   21.4284 F   0  0  0  0  0  0  0  0  0  0  0  0
  -21.8951   -9.1989   22.6330 F   0  0  0  0  0  0  0  0  0  0  0  0
  1  2  1  0  0  0  0
  1  5  2  0  0  0  0
  2  6  2  0  0  0  0
  3 10  2  0  0  0  0
  3 18  1  0  0  0  0
  4 11  1  0  0  0  0
  4 18  2  0  0  0  0
  5 20  1  0  0  0  0
  6 22  1  0  0  0  0
  7 12  2  0  0  0  0
  7 21  1  0  0  0  0
  8  9  2  0  0  0  0
  8 26  1  0  0  0  0
  9 28  1  0  0  0  0
 10 29  1  0  0  0  0
 11 29  2  0  0  0  0
 12 30  1  0  0  0  0
 13 14  2  0  0  0  0
 13 31  1  0  0  0  0
 14 32  1  0  0  0  0
 15 23  1  0  0  0  0
 15 28  2  0  0  0  0
 16 24  1  0  0  0  0
 16 30  2  0  0  0  0
 17 32  2  0  0  0  0
 17 33  1  0  0  0  0
 18 34  1  0  0  0  0
 19 34  1  0  0  0  0
 19 37  2  0  0  0  0
 19 38  1  0  0  0  0
 20 22  2  0  0  0  0
 20 43  1  0  0  0  0
 21 24  2  0  0  0  0
 21 44  1  0  0  0  0
 22 54  1  0  0  0  0
 23 26  2  0  0  0  0
 23 53  1  0  0  0  0
 24 45  1  0  0  0  0
 25 27  1  0  0  0  0
 25 35  2  0  0  0  0
 25 53  1  0  0  0  0
 26 58  1  0  0  0  0
 27 36  2  0  0  0  0
 27 59  1  0  0  0  0
 28 79  1  0  0  0  0
 29 88  1  0  0  0  0
 30 89  1  0  0  0  0
 31 33  2  0  0  0  0
 31 88  1  0  0  0  0
 32 90  1  0  0  0  0
 33 91  1  0  0  0  0
 34 72  2  0  0  0  0
 35 46  1  0  0  0  0
 35 73  1  0  0  0  0
 36 60  1  0  0  0  0
 36 73  1  0  0  0  0
 37 74  1  0  0  0  0
 37 77  1  0  0  0  0
 38 78  1  0  0  0  0
 38 83  2  0  0  0  0
 39 55  1  0  0  0  0
 39 80  1  0  0  0  0
 39 84  2  0  0  0  0
 40 69  1  0  0  0  0
 40 75  1  0  0  0  0
 40 85  2  0  0  0  0
 41 70  1  0  0  0  0
 41 81  1  0  0  0  0
 41 86  2  0  0  0  0
 42 76  1  0  0  0  0
 42 79  1  0  0  0  0
 42 87  2  0  0  0  0
 43 47  1  0  0  0  0
 44 55  1  0  0  0  0
 45 75  1  0  0  0  0
 46 57  1  0  0  0  0
 47 49  1  0  0  0  0
 48 50  1  0  0  0  0
 48 51  1  0  0  0  0
 49 54  1  0  0  0  0
 50 56  1  0  0  0  0
 51 76  1  0  0  0  0
 52 56  1  0  0  0  0
 52 76  1  0  0  0  0
 53 57  1  0  0  0  0
 54 80  1  0  0  0  0
 55 75  1  0  0  0  0
 56 74  1  0  0  0  0
 57 61  1  0  0  0  0
 57 68  1  0  0  0  0
 62 70  1  0  0  0  0
 63 71  1  0  0  0  0
 64 71  1  0  0  0  0
 65 71  1  0  0  0  0
 66 73  1  0  0  0  0
 67 82  1  0  0  0  0
 68 89  1  0  0  0  0
 69 71  1  0  0  0  0
 69 81  1  0  0  0  0
 70 82  1  0  0  0  0
 72 74  1  0  0  0  0
M  CHG  1  82   1
M  ISO  4  42 100  68 101  79 100  89 101
M  END
> <Batch ID>
0163

> <Smiles>
CNC(C)C(=O)NC(C(=O)N1Cc2cc([101O:1][101CH2:1]C3(C)Cc4c(c(C)c(C)n4C)C3c3cc([100NH:0][100C:0](=O)N4CCCC(n5nc(-c6ccc(Oc7ccc(F)cc7F)cc6)c(C(N)=O)c5N)C4)ccc3C)ccc2CC1C(=O)NC1CCCc2ccccc21)C(C)(C)C

> <Shape>
0.228

> <Color>
0.071

> <Negative vol penalty>
0.000

$$$$

  -OEChem-04052322173D

 84 93  0     1  0  0  0  0  0999 V2000
  -28.7450  -32.1002   27.6383 C   0  0  0  0  0  0  0  0  0  0  0  0
  -28.8215  -31.1027   26.6716 C   0  0  0  0  0  0  0  0  0  0  0  0
  -23.3941   -9.9612   22.1213 C   0  0  0  0  0  0  0  0  0  0  0  0
  -24.7266   -8.4860   20.7482 C   0  0  0  0  0  0  0  0  0  0  0  0
  -27.5055  -32.6293   27.9958 C   0  0  0  0  0  0  0  0  0  0  0  0
  -27.6584  -30.6329   26.0626 C   0  0  0  0  0  0  0  0  0  0  0  0
  -27.0348  -28.7692   20.2623 C   0  0  0  0  0  0  0  0  0  0  0  0
  -22.2872   -9.1327   21.9373 C   0  0  0  0  0  0  0  0  0  0  0  0
  -23.6196   -7.6575   20.5642 C   0  0  0  0  0  0  0  0  0  0  0  0
  -27.0279  -27.5027   19.6796 C   0  0  0  0  0  0  0  0  0  0  0  0
  -21.9747   -5.2768   22.3098 C   0  0  0  0  0  0  0  0  0  0  0  0
  -22.1680   -3.9015   22.4384 C   0  0  0  0  0  0  0  0  0  0  0  0
  -27.3828  -22.5666   18.5172 C   0  0  0  0  0  0  0  0  0  0  0  0
  -24.6167  -27.4891   19.7520 C   0  0  0  0  0  0  0  0  0  0  0  0
  -25.9332  -22.3314   16.1454 C   0  0  0  0  0  0  0  0  0  0  0  0
  -21.4336   -3.5849   20.1586 C   0  0  0  0  0  0  0  0  0  0  0  0
  -24.6138   -9.6379   21.5267 C   0  0  0  0  0  0  0  0  0  0  0  0
  -26.7209  -10.4111   22.7392 C   0  0  0  0  0  0  0  0  0  0  0  0
  -26.3276  -32.1725   27.3839 C   0  0  0  0  0  0  0  0  0  0  0  0
  -25.8310  -29.4017   20.6047 C   0  0  0  0  0  0  0  0  0  0  0  0
  -26.4019  -31.1554   26.4132 C   0  0  0  0  0  0  0  0  0  0  0  0
  -27.1869  -21.3115   17.9412 C   0  0  0  0  0  0  0  0  0  0  0  0
  -24.6110  -28.7648   20.3365 C   0  0  0  0  0  0  0  0  0  0  0  0
  -26.8539  -23.7042   17.9074 C   0  0  0  0  0  0  0  0  0  0  0  0
  -26.1291  -23.5865   16.7214 C   0  0  0  0  0  0  0  0  0  0  0  0
  -22.3999   -7.9809   21.1587 C   0  0  0  0  0  0  0  0  0  0  0  0
  -25.8189  -26.8612   19.4270 C   0  0  0  0  0  0  0  0  0  0  0  0
  -21.5107   -5.8063   21.1055 C   0  0  0  0  0  0  0  0  0  0  0  0
  -26.4621  -21.1939   16.7553 C   0  0  0  0  0  0  0  0  0  0  0  0
  -21.8975   -3.0555   21.3629 C   0  0  0  0  0  0  0  0  0  0  0  0
  -21.2402   -4.9603   20.0300 C   0  0  0  0  0  0  0  0  0  0  0  0
  -25.7575  -10.4936   21.7160 C   0  0  0  0  0  0  0  0  0  0  0  0
  -27.5907  -11.4409   22.4756 C   0  0  0  0  0  0  0  0  0  0  0  0
  -26.8206   -9.4863   23.8303 C   0  0  0  0  0  0  0  0  0  0  0  0
  -24.5234  -30.4171   23.3182 C   0  0  0  0  0  0  0  0  0  0  0  0
  -22.2635  -31.6179   21.3250 C   0  0  0  0  0  0  0  0  0  0  0  0
  -20.6918  -31.4646   18.2996 C   0  0  0  0  0  0  0  0  0  0  0  0
  -26.7108  -16.5658   19.5670 C   0  0  0  0  0  0  0  0  0  0  0  0
  -25.0064  -32.7413   27.8373 C   0  0  0  0  0  0  0  0  0  0  0  0
  -25.8546  -30.7793   21.2081 C   0  0  0  0  0  0  0  0  0  0  0  0
  -23.2904  -29.4095   20.6666 C   0  0  0  0  0  0  0  0  0  0  0  0
  -23.8567  -32.4527   26.8754 C   0  0  0  0  0  0  0  0  0  0  0  0
  -29.3334  -14.0597   18.8930 C   0  0  0  0  0  0  0  0  0  0  0  0
  -23.8690  -30.9869   26.4534 C   0  0  0  0  0  0  0  0  0  0  0  0
  -28.7583  -12.8359   19.5999 C   0  0  0  0  0  0  0  0  0  0  0  0
  -27.4171  -19.8346   20.0480 C   0  0  0  0  0  0  0  0  0  0  0  0
  -28.2394  -14.9436   18.2954 C   0  0  0  0  0  0  0  0  0  0  0  0
  -26.6256  -14.1295   19.9916 C   0  0  0  0  0  0  0  0  0  0  0  0
  -27.7571  -20.1039   18.6074 C   0  0  1  0  0  0  0  0  0  0  0  0
  -25.1650  -30.6371   25.7121 C   0  0  1  0  0  0  0  0  0  0  0  0
  -24.5861  -31.1121   21.9875 C   0  0  1  0  0  0  0  0  0  0  0  0
  -27.7086  -13.2541   20.6408 C   0  0  1  0  0  0  0  0  0  0  0  0
  -26.8322  -18.9668   18.9733 C   0  0  1  0  0  0  0  0  0  0  0  0
  -25.5533  -24.7900   16.0504 C   0  0  0  0  0  0  0  0  0  0  0  0
  -18.8591  -32.5521   16.9745 C   0  0  0  0  0  0  0  0  0  0  0  0
  -20.1815  -30.1484   23.0031 C   0  0  0  0  0  0  0  0  0  0  0  0
  -18.5478  -30.4724   21.1338 C   0  0  0  0  0  0  0  0  0  0  0  0
  -19.5158  -32.4541   22.2994 C   0  0  0  0  0  0  0  0  0  0  0  0
  -22.5707  -32.3081   16.1743 C   0  0  0  0  0  0  0  0  0  0  0  0
  -27.2357  -19.5360   15.2357 C   0  0  0  0  0  0  0  0  0  0  0  0
  -27.0747  -25.0431   18.5475 C   0  0  0  0  0  0  0  0  0  1  0  0
  -20.9725  -31.1011   20.7375 C   0  0  1  0  0  0  0  0  0  0  0  0
  -20.3472  -32.5425   17.2877 C   0  0  2  0  0  0  0  0  0  0  0  0
  -19.8292  -31.0308   21.7889 C   0  0  0  0  0  0  0  0  0  0  0  0
  -25.9927  -11.4966   20.8659 N   0  0  0  0  0  0  0  0  0  0  0  0
  -27.1139  -12.0539   21.3544 N   0  0  0  0  0  0  0  0  0  0  0  0
  -23.3661  -30.7543   21.2611 N   0  0  0  0  0  0  0  0  0  0  0  0
  -27.2108  -15.2801   19.2923 N   0  0  0  0  0  0  0  0  0  0  0  0
  -28.7093  -11.8727   23.0958 N   0  0  0  0  0  0  0  0  0  0  0  0
  -25.8426   -8.4899   23.9531 N   0  0  0  0  0  0  0  0  0  0  0  0
  -25.1145  -31.1218   24.3494 N   0  0  0  0  0  0  0  0  0  0  0  0
  -20.6771  -31.9515   19.5895 N   0  0  0  0  0  0  0  0  0  0  0  0
  -27.2493  -17.5998   18.8095 N   0  0  0  0  0  0  0  0  0  0  0  0
  -21.0935  -32.3181   16.0174 N   0  3  0  0  0  0  0  0  0  0  0  0
  -27.7402   -9.5521   24.6808 O   0  0  0  0  0  0  0  0  0  0  0  0
  -23.9778  -29.3231   23.4034 O   0  0  0  0  0  0  0  0  0  0  0  0
  -22.2943  -32.7492   21.8160 O   0  0  0  0  0  0  0  0  0  0  0  0
  -20.9448  -30.3056   17.9782 O   0  0  0  0  0  0  0  0  0  0  0  0
  -25.8432  -16.7787   20.4211 O   0  0  0  0  0  0  0  0  0  0  0  0
  -21.3200   -7.1721   20.9791 O   0  0  0  0  0  0  0  0  0  0  0  0
  -26.2603  -19.9759   16.1784 O   0  0  0  0  0  0  0  0  0  0  0  0
  -25.8093  -25.6246   18.8590 O   0  0  0  0  0  0  0  0  0  1  0  0
  -22.0847   -1.7349   21.4861 F   0  0  0  0  0  0  0  0  0  0  0  0
  -20.7954   -5.4633   18.8702 F   0  0  0  0  0  0  0  0  0  0  0  0
  1  2  1  0  0  0  0
  1  5  2  0  0  0  0
  2  6  2  0  0  0  0
  3  8  2  0  0  0  0
  3 17  1  0  0  0  0
  4  9  1  0  0  0  0
  4 17  2  0  0  0  0
  5 19  1  0  0  0  0
  6 21  1  0  0  0  0
  7 10  2  0  0  0  0
  7 20  1  0  0  0  0
  8 26  1  0  0  0  0
  9 26  2  0  0  0  0
 10 27  1  0  0  0  0
 11 12  2  0  0  0  0
 11 28  1  0  0  0  0
 12 30  1  0  0  0  0
 13 22  2  0  0  0  0
 13 24  1  0  0  0  0
 14 23  1  0  0  0  0
 14 27  2  0  0  0  0
 15 25  1  0  0  0  0
 15 29  2  0  0  0  0
 16 30  2  0  0  0  0
 16 31  1  0  0  0  0
 17 32  1  0  0  0  0
 18 32  1  0  0  0  0
 18 33  2  0  0  0  0
 18 34  1  0  0  0  0
 19 21  2  0  0  0  0
 19 39  1  0  0  0  0
 20 23  2  0  0  0  0
 20 40  1  0  0  0  0
 21 50  1  0  0  0  0
 22 29  1  0  0  0  0
 22 49  1  0  0  0  0
 23 41  1  0  0  0  0
 24 25  2  0  0  0  0
 24 61  1  0  0  0  0
 25 54  1  0  0  0  0
 26 80  1  0  0  0  0
 27 82  1  0  0  0  0
 28 31  2  0  0  0  0
 28 80  1  0  0  0  0
 29 81  1  0  0  0  0
 30 83  1  0  0  0  0
 31 84  1  0  0  0  0
 32 65  2  0  0  0  0
 33 66  1  0  0  0  0
 33 69  1  0  0  0  0
 34 70  1  0  0  0  0
 34 75  2  0  0  0  0
 35 51  1  0  0  0  0
 35 71  1  0  0  0  0
 35 76  2  0  0  0  0
 36 62  1  0  0  0  0
 36 67  1  0  0  0  0
 36 77  2  0  0  0  0
 37 63  1  0  0  0  0
 37 72  1  0  0  0  0
 37 78  2  0  0  0  0
 38 68  1  0  0  0  0
 38 73  1  0  0  0  0
 38 79  2  0  0  0  0
 39 42  1  0  0  0  0
 40 51  1  0  0  0  0
 41 67  1  0  0  0  0
 42 44  1  0  0  0  0
 43 45  1  0  0  0  0
 43 47  1  0  0  0  0
 44 50  1  0  0  0  0
 45 52  1  0  0  0  0
 46 49  1  0  0  0  0
 46 53  1  0  0  0  0
 47 68  1  0  0  0  0
 48 52  1  0  0  0  0
 48 68  1  0  0  0  0
 49 53  1  0  0  0  0
 50 71  1  0  0  0  0
 51 67  1  0  0  0  0
 52 66  1  0  0  0  0
 53 73  1  0  0  0  0
 55 63  1  0  0  0  0
 56 64  1  0  0  0  0
 57 64  1  0  0  0  0
 58 64  1  0  0  0  0
 59 74  1  0  0  0  0
 60 81  1  0  0  0  0
 61 82  1  0  0  0  0
 62 64  1  0  0  0  0
 62 72  1  0  0  0  0
 63 74  1  0  0  0  0
 65 66  1  0  0  0  0
M  CHG  1  74   1
M  ISO  4  38 100  61 101  73 100  82 101
M  END
> <Batch ID>
0163

> <Smiles>
CNC(C)C(=O)NC(C(=O)N1Cc2cc([101O:1][101CH2:1]c3cc(C4CC4[100NH:0][100C:0](=O)N4CCCC(n5nc(-c6ccc(Oc7ccc(F)cc7F)cc6)c(C(N)=O)c5N)C4)c(OC)cc3C)ccc2CC1C(=O)NC1CCCc2ccccc21)C(C)(C)C

> <Shape>
0.232

> <Color>
0.098

> <Negative vol penalty>
0.000

$$$$

  -OEChem-04052322173D

 95106  0     1  0  0  0  0  0999 V2000
  -22.3575  -35.3652   15.8523 C   0  0  0  0  0  0  0  0  0  0  0  0
  -23.1535  -34.2243   15.8372 C   0  0  0  0  0  0  0  0  0  0  0  0
  -27.6976  -11.8654   16.4632 C   0  0  0  0  0  0  0  0  0  0  0  0
  -27.0415  -10.2782   18.1625 C   0  0  0  0  0  0  0  0  0  0  0  0
  -22.3286  -36.1787   16.9843 C   0  0  0  0  0  0  0  0  0  0  0  0
  -23.9219  -33.8968   16.9538 C   0  0  0  0  0  0  0  0  0  0  0  0
  -25.2240  -28.2757   19.0064 C   0  0  0  0  0  0  0  0  0  0  0  0
  -27.9268  -10.8169   15.5723 C   0  0  0  0  0  0  0  0  0  0  0  0
  -27.2706   -9.2297   17.2715 C   0  0  0  0  0  0  0  0  0  0  0  0
  -26.3425  -27.4574   18.8546 C   0  0  0  0  0  0  0  0  0  0  0  0
  -29.0289   -8.5355   12.9639 C   0  0  0  0  0  0  0  0  0  0  0  0
  -30.1997   -8.5702   12.2065 C   0  0  0  0  0  0  0  0  0  0  0  0
  -32.1936  -21.8938   21.6149 C   0  0  0  0  0  0  0  0  0  0  0  0
  -33.7970  -24.1541   21.3035 C   0  0  0  0  0  0  0  0  0  0  0  0
  -27.1892  -28.2311   20.9768 C   0  0  0  0  0  0  0  0  0  0  0  0
  -31.5122   -8.5555   14.2348 C   0  0  0  0  0  0  0  0  0  0  0  0
  -31.7411  -22.9510   20.8086 C   0  0  0  0  0  0  0  0  0  0  0  0
  -32.5548  -24.0981   20.6507 C   0  0  0  0  0  0  0  0  0  0  0  0
  -27.2550  -11.5961   17.7584 C   0  0  0  0  0  0  0  0  0  0  0  0
  -25.8151  -13.3829   18.8726 C   0  0  0  0  0  0  0  0  0  0  0  0
  -23.0896  -35.8557   18.1189 C   0  0  0  0  0  0  0  0  0  0  0  0
  -25.0847  -29.0874   20.1414 C   0  0  0  0  0  0  0  0  0  0  0  0
  -23.9042  -34.7074   18.1015 C   0  0  0  0  0  0  0  0  0  0  0  0
  -26.0667  -29.0569   21.1419 C   0  0  0  0  0  0  0  0  0  0  0  0
  -30.4990  -22.8948   20.1558 C   0  0  0  0  0  0  0  0  0  0  0  0
  -32.1024  -25.1553   19.8445 C   0  0  0  0  0  0  0  0  0  0  0  0
  -33.4305  -21.9665   22.2561 C   0  0  0  0  0  0  0  0  0  0  0  0
  -34.2307  -23.0945   22.1007 C   0  0  0  0  0  0  0  0  0  0  0  0
  -30.0653  -23.9545   19.3586 C   0  0  0  0  0  0  0  0  0  0  0  0
  -30.8654  -25.0825   19.2033 C   0  0  0  0  0  0  0  0  0  0  0  0
  -27.7132   -9.4991   15.9764 C   0  0  0  0  0  0  0  0  0  0  0  0
  -27.3267  -27.4372   19.8385 C   0  0  0  0  0  0  0  0  0  0  0  0
  -29.0998   -8.5109   14.3568 C   0  0  0  0  0  0  0  0  0  0  0  0
  -31.4413   -8.5801   12.8419 C   0  0  0  0  0  0  0  0  0  0  0  0
  -30.3414   -8.5209   14.9922 C   0  0  0  0  0  0  0  0  0  0  0  0
  -27.0187  -12.6787   18.6793 C   0  0  0  0  0  0  0  0  0  0  0  0
  -26.1092  -14.3042   19.8479 C   0  0  0  0  0  0  0  0  0  0  0  0
  -24.5449  -13.2189   18.2282 C   0  0  0  0  0  0  0  0  0  0  0  0
  -24.8895  -32.2191   20.6491 C   0  0  0  0  0  0  0  0  0  0  0  0
  -24.3200  -31.2940   23.7056 C   0  0  0  0  0  0  0  0  0  0  0  0
  -24.6624  -28.9087   26.1222 C   0  0  0  0  0  0  0  0  0  0  0  0
  -29.3630  -18.0461   22.1786 C   0  0  0  0  0  0  0  0  0  0  0  0
  -23.0623  -36.7911   19.3016 C   0  0  0  0  0  0  0  0  0  0  0  0
  -23.8592  -29.9444   20.3028 C   0  0  0  0  0  0  0  0  0  0  0  0
  -25.9546  -29.8942   22.3888 C   0  0  0  0  0  0  0  0  0  0  0  0
  -23.6176  -36.1713   20.5814 C   0  0  0  0  0  0  0  0  0  0  0  0
  -30.1355  -14.7476   22.8652 C   0  0  0  0  0  0  0  0  0  0  0  0
  -33.3925  -27.1487   20.8623 C   0  0  0  0  0  0  0  0  0  0  0  0
  -32.3335  -27.7258   19.9759 C   0  0  0  0  0  0  0  0  0  0  0  0
  -24.9334  -35.4530   20.2994 C   0  0  0  0  0  0  0  0  0  0  0  0
  -29.2973  -13.9609   21.8578 C   0  0  0  0  0  0  0  0  0  0  0  0
  -30.2498  -20.4077   19.7386 C   0  0  0  0  0  0  0  0  0  0  0  0
  -29.1439  -21.4688   21.7537 C   0  0  0  0  0  0  0  0  0  0  0  0
  -30.7405  -15.9891   22.2201 C   0  0  0  0  0  0  0  0  0  0  0  0
  -29.3462  -19.1839   19.9146 C   0  0  0  0  0  0  0  0  0  0  0  0
  -28.2516  -20.2360   21.8660 C   0  0  0  0  0  0  0  0  0  0  0  0
  -28.8848  -16.1277   20.5907 C   0  0  0  0  0  0  0  0  0  0  0  0
  -32.9350  -26.3890   19.6506 C   0  0  0  0  0  0  0  0  0  0  0  0
  -29.5959  -21.6841   20.2979 C   0  0  0  0  0  0  0  0  0  0  0  0
  -24.7327  -34.3053   19.3023 C   0  0  1  0  0  0  0  0  0  0  0  0
  -24.0706  -31.1157   21.2571 C   0  0  1  0  0  0  0  0  0  0  0  0
  -28.2416  -14.8621   21.1933 C   0  0  1  0  0  0  0  0  0  0  0  0
  -33.8760  -20.8206   23.1046 C   0  0  0  0  0  0  0  0  0  0  0  0
  -35.5589  -23.1922   22.7774 C   0  0  0  0  0  0  0  0  0  0  0  0
  -28.7392  -23.8811   18.6678 C   0  0  0  0  0  0  0  0  0  0  0  0
  -30.8892  -26.0806   16.8935 C   0  0  0  0  0  0  0  0  0  0  0  0
  -24.1273  -28.4544   28.5315 C   0  0  0  0  0  0  0  0  0  0  0  0
  -26.5919  -33.1445   24.5567 C   0  0  0  0  0  0  0  0  0  0  0  0
  -26.6398  -31.9576   26.7606 C   0  0  0  0  0  0  0  0  0  0  0  0
  -24.5904  -33.1925   26.0553 C   0  0  0  0  0  0  0  0  0  0  0  0
  -22.9938  -26.5644   25.4299 C   0  0  0  0  0  0  0  0  0  0  0  0
  -28.8587  -26.3776   18.3599 C   0  0  0  0  0  0  0  0  0  1  0  0
  -30.3939  -26.2150   18.3454 C   0  0  1  0  0  0  0  0  0  0  0  0
  -25.1785  -31.0138   24.9154 C   0  0  1  0  0  0  0  0  0  0  0  0
  -23.6616  -28.3058   27.0914 C   0  0  2  0  0  0  0  0  0  0  0  0
  -25.7535  -32.3127   25.5477 C   0  0  0  0  0  0  0  0  0  0  0  0
  -28.0040  -13.1153   19.4683 N   0  0  0  0  0  0  0  0  0  0  0  0
  -27.4201  -14.1039   20.1668 N   0  0  0  0  0  0  0  0  0  0  0  0
  -24.7408  -30.7203   22.4975 N   0  0  0  0  0  0  0  0  0  0  0  0
  -29.7072  -16.8164   21.5976 N   0  0  0  0  0  0  0  0  0  0  0  0
  -28.9138  -19.0548   21.3131 N   0  0  0  0  0  0  0  0  0  0  0  0
  -25.3719  -15.2581   20.4552 N   0  0  0  0  0  0  0  0  0  0  0  0
  -24.4160  -12.2247   17.2488 N   0  0  0  0  0  0  0  0  0  0  0  0
  -24.1452  -33.1593   19.9624 N   0  0  0  0  0  0  0  0  0  0  0  0
  -24.3578  -30.2199   25.8233 N   0  0  0  0  0  0  0  0  0  0  0  0
  -23.4730  -26.8554   26.8057 N   0  3  0  0  0  0  0  0  0  0  0  0
  -23.5580  -13.9437   18.5009 O   0  0  0  0  0  0  0  0  0  0  0  0
  -26.1064  -32.2184   20.7937 O   0  0  0  0  0  0  0  0  0  0  0  0
  -23.3093  -31.9902   23.8295 O   0  0  0  0  0  0  0  0  0  0  0  0
  -25.6208  -28.2806   25.6779 O   0  0  0  0  0  0  0  0  0  0  0  0
  -29.4508  -18.2324   23.3988 O   0  0  0  0  0  0  0  0  0  0  0  0
  -27.9365   -8.4757   15.1073 O   0  0  0  0  0  0  0  0  0  0  0  0
  -28.4270  -26.6347   19.6915 O   0  0  0  0  0  0  0  0  0  1  0  0
  -32.5656   -8.6118   12.1145 F   0  0  0  0  0  0  0  0  0  0  0  0
  -30.4159   -8.4962   16.3300 F   0  0  0  0  0  0  0  0  0  0  0  0
  1  2  1  0  0  0  0
  1  5  2  0  0  0  0
  2  6  2  0  0  0  0
  3  8  2  0  0  0  0
  3 19  1  0  0  0  0
  4  9  1  0  0  0  0
  4 19  2  0  0  0  0
  5 21  1  0  0  0  0
  6 23  1  0  0  0  0
  7 10  2  0  0  0  0
  7 22  1  0  0  0  0
  8 31  1  0  0  0  0
  9 31  2  0  0  0  0
 10 32  1  0  0  0  0
 11 12  2  0  0  0  0
 11 33  1  0  0  0  0
 12 34  1  0  0  0  0
 13 17  1  0  0  0  0
 13 27  2  0  0  0  0
 14 18  1  0  0  0  0
 14 28  2  0  0  0  0
 15 24  1  0  0  0  0
 15 32  2  0  0  0  0
 16 34  2  0  0  0  0
 16 35  1  0  0  0  0
 17 18  2  0  0  0  0
 17 25  1  0  0  0  0
 18 26  1  0  0  0  0
 19 36  1  0  0  0  0
 20 36  1  0  0  0  0
 20 37  2  0  0  0  0
 20 38  1  0  0  0  0
 21 23  2  0  0  0  0
 21 43  1  0  0  0  0
 22 24  2  0  0  0  0
 22 44  1  0  0  0  0
 23 60  1  0  0  0  0
 24 45  1  0  0  0  0
 25 29  2  0  0  0  0
 25 59  1  0  0  0  0
 26 30  2  0  0  0  0
 26 58  1  0  0  0  0
 27 28  1  0  0  0  0
 27 63  1  0  0  0  0
 28 64  1  0  0  0  0
 29 30  1  0  0  0  0
 29 65  1  0  0  0  0
 30 73  1  0  0  0  0
 31 92  1  0  0  0  0
 32 93  1  0  0  0  0
 33 35  2  0  0  0  0
 33 92  1  0  0  0  0
 34 94  1  0  0  0  0
 35 95  1  0  0  0  0
 36 77  2  0  0  0  0
 37 78  1  0  0  0  0
 37 82  1  0  0  0  0
 38 83  1  0  0  0  0
 38 87  2  0  0  0  0
 39 61  1  0  0  0  0
 39 84  1  0  0  0  0
 39 88  2  0  0  0  0
 40 74  1  0  0  0  0
 40 79  1  0  0  0  0
 40 89  2  0  0  0  0
 41 75  1  0  0  0  0
 41 85  1  0  0  0  0
 41 90  2  0  0  0  0
 42 80  1  0  0  0  0
 42 81  1  0  0  0  0
 42 91  2  0  0  0  0
 43 46  1  0  0  0  0
 44 61  1  0  0  0  0
 45 79  1  0  0  0  0
 46 50  1  0  0  0  0
 47 51  1  0  0  0  0
 47 54  1  0  0  0  0
 48 49  1  0  0  0  0
 48 58  1  0  0  0  0
 49 58  1  0  0  0  0
 50 60  1  0  0  0  0
 51 62  1  0  0  0  0
 52 55  1  0  0  0  0
 52 59  1  0  0  0  0
 53 56  1  0  0  0  0
 53 59  1  0  0  0  0
 54 80  1  0  0  0  0
 55 81  1  0  0  0  0
 56 81  1  0  0  0  0
 57 62  1  0  0  0  0
 57 80  1  0  0  0  0
 60 84  1  0  0  0  0
 61 79  1  0  0  0  0
 62 78  1  0  0  0  0
 66 73  1  0  0  0  0
 67 75  1  0  0  0  0
 68 76  1  0  0  0  0
 69 76  1  0  0  0  0
 70 76  1  0  0  0  0
 71 86  1  0  0  0  0
 72 73  1  0  0  0  0
 72 93  1  0  0  0  0
 74 76  1  0  0  0  0
 74 85  1  0  0  0  0
 75 86  1  0  0  0  0
 77 78  1  0  0  0  0
M  CHG  1  86   1
M  ISO  4  42 100  72 101  81 100  93 101
M  END
> <Batch ID>
0163

> <Smiles>
CNC(C)C(=O)NC(C(=O)N1Cc2cc([101O:1][101CH2:1]C(C)c3c(C)c(C4CC[100N:0]([100C:0](=O)N5CCCC(n6nc(-c7ccc(Oc8ccc(F)cc8F)cc7)c(C(N)=O)c6N)C5)CC4)c4cc(C)c(C)cc4c3C3CC3)ccc2CC1C(=O)NC1CCCc2ccccc21)C(C)(C)C

> <Shape>
0.241

> <Color>
0.114

> <Negative vol penalty>
0.000

$$$$

  -OEChem-04052322173D

 86 96  0     1  0  0  0  0  0999 V2000
  -25.1805  -24.7381   10.5497 C   0  0  0  0  0  0  0  0  0  0  0  0
  -25.6312  -24.2771   11.7825 C   0  0  0  0  0  0  0  0  0  0  0  0
  -32.5068  -21.4600   22.9959 C   0  0  0  0  0  0  0  0  0  0  0  0
  -23.0876   -9.8237   19.9398 C   0  0  0  0  0  0  0  0  0  0  0  0
  -23.8342   -9.8504   22.2374 C   0  0  0  0  0  0  0  0  0  0  0  0
  -25.0628  -26.1082   10.3197 C   0  0  0  0  0  0  0  0  0  0  0  0
  -25.9655  -25.1861   12.7857 C   0  0  0  0  0  0  0  0  0  0  0  0
  -31.9228  -20.2413   22.6506 C   0  0  0  0  0  0  0  0  0  0  0  0
  -25.1883  -24.4631   18.8172 C   0  0  0  0  0  0  0  0  0  0  0  0
  -31.9313  -22.6558   22.5662 C   0  0  0  0  0  0  0  0  0  0  0  0
  -22.3427   -8.6724   20.1952 C   0  0  0  0  0  0  0  0  0  0  0  0
  -23.0893   -8.6991   22.4929 C   0  0  0  0  0  0  0  0  0  0  0  0
  -26.0579  -24.0739   19.8350 C   0  0  0  0  0  0  0  0  0  0  0  0
  -19.8579   -7.9052   23.0834 C   0  0  0  0  0  0  0  0  0  0  0  0
  -19.0942   -7.8749   24.2502 C   0  0  0  0  0  0  0  0  0  0  0  0
  -26.4815  -26.3919   20.3514 C   0  0  0  0  0  0  0  0  0  0  0  0
  -20.3320   -5.9442   25.0102 C   0  0  0  0  0  0  0  0  0  0  0  0
  -23.8335  -10.4126   20.9609 C   0  0  0  0  0  0  0  0  0  0  0  0
  -24.1752  -12.9368   20.8215 C   0  0  0  0  0  0  0  0  0  0  0  0
  -25.3867  -27.0342   11.3238 C   0  0  0  0  0  0  0  0  0  0  0  0
  -24.9667  -25.8221   18.5512 C   0  0  0  0  0  0  0  0  0  0  0  0
  -25.8534  -26.5699   12.5684 C   0  0  0  0  0  0  0  0  0  0  0  0
  -30.7633  -20.2183   21.8756 C   0  0  0  0  0  0  0  0  0  0  0  0
  -25.6066  -26.7958   19.3313 C   0  0  0  0  0  0  0  0  0  0  0  0
  -30.1878  -21.4141   21.4458 C   0  0  0  0  0  0  0  0  0  0  0  0
  -22.3435   -8.1101   21.4717 C   0  0  0  0  0  0  0  0  0  0  0  0
  -26.7069  -25.0383   20.6004 C   0  0  0  0  0  0  0  0  0  0  0  0
  -30.7719  -22.6328   21.7911 C   0  0  0  0  0  0  0  0  0  0  0  0
  -20.8586   -6.9550   22.8799 C   0  0  0  0  0  0  0  0  0  0  0  0
  -19.3313   -6.8944   25.2136 C   0  0  0  0  0  0  0  0  0  0  0  0
  -21.0957   -5.9745   23.8434 C   0  0  0  0  0  0  0  0  0  0  0  0
  -24.6036  -11.6016   20.6975 C   0  0  0  0  0  0  0  0  0  0  0  0
  -25.2691  -13.6836   20.4582 C   0  0  0  0  0  0  0  0  0  0  0  0
  -22.9021  -13.4557   21.2286 C   0  0  0  0  0  0  0  0  0  0  0  0
  -25.4553  -27.7278   16.0546 C   0  0  0  0  0  0  0  0  0  0  0  0
  -23.8790  -29.8886   17.8899 C   0  0  0  0  0  0  0  0  0  0  0  0
  -22.9445  -30.9055   21.0107 C   0  0  0  0  0  0  0  0  0  0  0  0
  -30.7442  -14.7164   20.6520 C   0  0  0  0  0  0  0  0  0  0  0  0
  -25.2884  -28.5066   11.0125 C   0  0  0  0  0  0  0  0  0  0  0  0
  -24.0051  -26.2255   17.4673 C   0  0  0  0  0  0  0  0  0  0  0  0
  -25.3873  -28.2677   19.0994 C   0  0  0  0  0  0  0  0  0  0  0  0
  -25.3063  -29.3942   12.2543 C   0  0  0  0  0  0  0  0  0  0  0  0
  -29.6306  -12.3007   18.2992 C   0  0  0  0  0  0  0  0  0  0  0  0
  -26.4194  -28.9620   13.2034 C   0  0  0  0  0  0  0  0  0  0  0  0
  -28.1897  -12.0112   18.7234 C   0  0  0  0  0  0  0  0  0  0  0  0
  -28.7533  -18.5932   21.9538 C   0  0  0  0  0  0  0  0  0  0  0  0
  -30.9530  -17.9492   20.6992 C   0  0  0  0  0  0  0  0  0  0  0  0
  -30.5381  -12.5326   19.5054 C   0  0  0  0  0  0  0  0  0  0  0  0
  -28.6275  -13.2746   20.8712 C   0  0  0  0  0  0  0  0  0  0  0  0
  -26.2022  -27.5241   13.6900 C   0  0  1  0  0  0  0  0  0  0  0  0
  -24.2498  -27.6385   16.9470 C   0  0  1  0  0  0  0  0  0  0  0  0
  -29.9114  -17.8619   22.5533 C   0  0  1  0  0  0  0  0  0  0  0  0
  -27.6612  -13.0897   19.6885 C   0  0  2  0  0  0  0  0  0  0  0  0
  -30.8214  -16.9221   21.8509 C   0  0  1  0  0  0  0  0  0  0  0  0
  -30.1574  -18.9016   21.5178 C   0  0  1  0  0  0  0  0  0  0  0  0
  -28.9451  -21.3980   20.6138 C   0  0  0  0  0  0  0  0  0  0  0  0
  -21.6923  -32.7291   22.1958 C   0  0  0  0  0  0  0  0  0  0  0  0
  -26.2405  -31.7759   17.4760 C   0  0  0  0  0  0  0  0  0  0  0  0
  -25.3965  -33.1412   19.3974 C   0  0  0  0  0  0  0  0  0  0  0  0
  -23.9957  -32.8710   17.3511 C   0  0  0  0  0  0  0  0  0  0  0  0
  -20.9747  -28.9934   22.1167 C   0  0  0  0  0  0  0  0  0  0  0  0
  -28.6409  -25.5404   21.8901 C   0  0  0  0  0  0  0  0  0  1  0  0
  -29.8162  -24.7254   22.3941 C   0  0  0  0  0  0  0  0  0  0  0  0
  -24.2845  -30.9120   18.9230 C   0  0  1  0  0  0  0  0  0  0  0  0
  -21.6027  -31.3475   21.5665 C   0  0  2  0  0  0  0  0  0  0  0  0
  -24.9852  -32.1474   18.2903 C   0  0  0  0  0  0  0  0  0  0  0  0
  -25.8709  -11.5027   20.2874 N   0  0  0  0  0  0  0  0  0  0  0  0
  -26.2481  -12.7853   20.1504 N   0  0  0  0  0  0  0  0  0  0  0  0
  -24.4426  -28.6119   18.0239 N   0  0  0  0  0  0  0  0  0  0  0  0
  -29.9808  -13.5712   20.3756 N   0  0  0  0  0  0  0  0  0  0  0  0
  -25.4795  -15.0145   20.3751 N   0  0  0  0  0  0  0  0  0  0  0  0
  -21.8885  -12.5490   21.5677 N   0  0  0  0  0  0  0  0  0  0  0  0
  -25.1869  -27.4873   14.7207 N   0  0  0  0  0  0  0  0  0  0  0  0
  -23.0773  -31.2310   19.6774 N   0  0  0  0  0  0  0  0  0  0  0  0
  -30.1459  -15.6622   21.4781 N   0  0  0  0  0  0  0  0  0  0  0  0
  -21.1305  -30.3880   22.6044 N   0  3  0  0  0  0  0  0  0  0  0  0
  -22.6651  -14.6867   21.2742 O   0  0  0  0  0  0  0  0  0  0  0  0
  -26.5479  -27.9966   16.5402 O   0  0  0  0  0  0  0  0  0  0  0  0
  -23.0855  -30.2083   17.0011 O   0  0  0  0  0  0  0  0  0  0  0  0
  -23.7916  -30.3325   21.6923 O   0  0  0  0  0  0  0  0  0  0  0  0
  -31.8774  -14.8943   20.1920 O   0  0  0  0  0  0  0  0  0  0  0  0
  -21.6165   -6.9869   21.7214 O   0  0  0  0  0  0  0  0  0  0  0  0
  -27.5568  -24.6610   21.5940 O   0  0  0  0  0  0  0  0  0  1  0  0
  -30.2222  -23.8176   21.3771 O   0  0  0  0  0  0  0  0  0  0  0  0
  -18.5988   -6.8664   26.3347 F   0  0  0  0  0  0  0  0  0  0  0  0
  -22.0565   -5.0597   23.6540 F   0  0  0  0  0  0  0  0  0  0  0  0
  1  2  1  0  0  0  0
  1  6  2  0  0  0  0
  2  7  2  0  0  0  0
  3  8  1  0  0  0  0
  3 10  2  0  0  0  0
  4 11  2  0  0  0  0
  4 18  1  0  0  0  0
  5 12  1  0  0  0  0
  5 18  2  0  0  0  0
  6 20  1  0  0  0  0
  7 22  1  0  0  0  0
  8 23  2  0  0  0  0
  9 13  2  0  0  0  0
  9 21  1  0  0  0  0
 10 28  1  0  0  0  0
 11 26  1  0  0  0  0
 12 26  2  0  0  0  0
 13 27  1  0  0  0  0
 14 15  2  0  0  0  0
 14 29  1  0  0  0  0
 15 30  1  0  0  0  0
 16 24  1  0  0  0  0
 16 27  2  0  0  0  0
 17 30  2  0  0  0  0
 17 31  1  0  0  0  0
 18 32  1  0  0  0  0
 19 32  1  0  0  0  0
 19 33  2  0  0  0  0
 19 34  1  0  0  0  0
 20 22  2  0  0  0  0
 20 39  1  0  0  0  0
 21 24  2  0  0  0  0
 21 40  1  0  0  0  0
 22 50  1  0  0  0  0
 23 25  1  0  0  0  0
 23 55  1  0  0  0  0
 24 41  1  0  0  0  0
 25 28  2  0  0  0  0
 25 56  1  0  0  0  0
 26 82  1  0  0  0  0
 27 83  1  0  0  0  0
 28 84  1  0  0  0  0
 29 31  2  0  0  0  0
 29 82  1  0  0  0  0
 30 85  1  0  0  0  0
 31 86  1  0  0  0  0
 32 67  2  0  0  0  0
 33 68  1  0  0  0  0
 33 71  1  0  0  0  0
 34 72  1  0  0  0  0
 34 77  2  0  0  0  0
 35 51  1  0  0  0  0
 35 73  1  0  0  0  0
 35 78  2  0  0  0  0
 36 64  1  0  0  0  0
 36 69  1  0  0  0  0
 36 79  2  0  0  0  0
 37 65  1  0  0  0  0
 37 74  1  0  0  0  0
 37 80  2  0  0  0  0
 38 70  1  0  0  0  0
 38 75  1  0  0  0  0
 38 81  2  0  0  0  0
 39 42  1  0  0  0  0
 40 51  1  0  0  0  0
 41 69  1  0  0  0  0
 42 44  1  0  0  0  0
 43 45  1  0  0  0  0
 43 48  1  0  0  0  0
 44 50  1  0  0  0  0
 45 53  1  0  0  0  0
 46 52  1  0  0  0  0
 46 55  1  0  0  0  0
 47 54  1  0  0  0  0
 47 55  1  0  0  0  0
 48 70  1  0  0  0  0
 49 53  1  0  0  0  0
 49 70  1  0  0  0  0
 50 73  1  0  0  0  0
 51 69  1  0  0  0  0
 52 54  1  0  0  0  0
 52 55  1  0  0  0  0
 53 68  1  0  0  0  0
 54 75  1  0  0  0  0
 57 65  1  0  0  0  0
 58 66  1  0  0  0  0
 59 66  1  0  0  0  0
 60 66  1  0  0  0  0
 61 76  1  0  0  0  0
 62 63  1  0  0  0  0
 62 83  1  0  0  0  0
 63 84  1  0  0  0  0
 64 66  1  0  0  0  0
 64 74  1  0  0  0  0
 65 76  1  0  0  0  0
 67 68  1  0  0  0  0
M  CHG  1  76   1
M  ISO  4  38 100  62 101  75 100  83 101
M  END
> <Batch ID>
0163

> <Smiles>
CNC(C)C(=O)NC(C(=O)N1Cc2cc([101O:1][101CH2:1]COc3cccc(C45CC([100NH:0][100C:0](=O)N6CCCC(n7nc(-c8ccc(Oc9ccc(F)cc9F)cc8)c(C(N)=O)c7N)C6)C4C5)c3C)ccc2CC1C(=O)NC1CCCc2ccccc21)C(C)(C)C

> <Shape>
0.263

> <Color>
0.188

> <Negative vol penalty>
0.000

$$$$

  -OEChem-04052322173D

 90 99  0     1  0  0  0  0  0999 V2000
  -17.9966  -32.3800   20.4571 C   0  0  0  0  0  0  0  0  0  0  0  0
  -19.3233  -32.2851   20.0493 C   0  0  0  0  0  0  0  0  0  0  0  0
  -23.4419  -10.5428   22.1458 C   0  0  0  0  0  0  0  0  0  0  0  0
  -24.6959   -8.6844   21.2453 C   0  0  0  0  0  0  0  0  0  0  0  0
  -17.6098  -31.8636   21.6931 C   0  0  0  0  0  0  0  0  0  0  0  0
  -20.2642  -31.6746   20.8778 C   0  0  0  0  0  0  0  0  0  0  0  0
  -25.0790  -28.3168   19.1318 C   0  0  0  0  0  0  0  0  0  0  0  0
  -22.3077   -9.7355   22.2325 C   0  0  0  0  0  0  0  0  0  0  0  0
  -23.5617   -7.8770   21.3321 C   0  0  0  0  0  0  0  0  0  0  0  0
  -26.4305  -28.6233   18.9791 C   0  0  0  0  0  0  0  0  0  0  0  0
  -21.8973   -6.1721   23.7287 C   0  0  0  0  0  0  0  0  0  0  0  0
  -22.0554   -4.8894   24.2532 C   0  0  0  0  0  0  0  0  0  0  0  0
  -26.8680  -27.7695   21.1924 C   0  0  0  0  0  0  0  0  0  0  0  0
  -21.2526   -3.9429   22.1803 C   0  0  0  0  0  0  0  0  0  0  0  0
  -24.6360  -10.0172   21.6521 C   0  0  0  0  0  0  0  0  0  0  0  0
  -26.7951  -11.0392   22.5473 C   0  0  0  0  0  0  0  0  0  0  0  0
  -18.5445  -31.2379   22.5330 C   0  0  0  0  0  0  0  0  0  0  0  0
  -24.6093  -27.7433   20.3222 C   0  0  0  0  0  0  0  0  0  0  0  0
  -19.8898  -31.1506   22.1268 C   0  0  0  0  0  0  0  0  0  0  0  0
  -25.5106  -27.4543   21.3568 C   0  0  0  0  0  0  0  0  0  0  0  0
  -31.3335  -24.7673   17.7857 C   0  0  0  0  0  0  0  0  0  0  0  0
  -29.2286  -23.8958   18.5688 C   0  0  0  0  0  0  0  0  0  0  0  0
  -30.0964  -24.9690   18.3901 C   0  0  0  0  0  0  0  0  0  0  0  0
  -22.3676   -8.4026   21.8257 C   0  0  0  0  0  0  0  0  0  0  0  0
  -27.3248  -28.3523   20.0106 C   0  0  0  0  0  0  0  0  0  0  0  0
  -21.4168   -6.3403   22.4300 C   0  0  0  0  0  0  0  0  0  0  0  0
  -21.7330   -3.7747   23.4790 C   0  0  0  0  0  0  0  0  0  0  0  0
  -21.0944   -5.2257   21.6558 C   0  0  0  0  0  0  0  0  0  0  0  0
  -25.8077  -10.8508   21.5617 C   0  0  0  0  0  0  0  0  0  0  0  0
  -31.6744  -23.4874   17.3719 C   0  0  0  0  0  0  0  0  0  0  0  0
  -27.6862  -11.9155   21.9776 C   0  0  0  0  0  0  0  0  0  0  0  0
  -29.6227  -22.6381   18.1350 C   0  0  0  0  0  0  0  0  0  0  0  0
  -26.8976  -10.4727   23.8604 C   0  0  0  0  0  0  0  0  0  0  0  0
  -22.5493  -28.6252   22.5766 C   0  0  0  0  0  0  0  0  0  0  0  0
  -23.1005  -25.6336   23.7031 C   0  0  0  0  0  0  0  0  0  0  0  0
  -25.1864  -22.9373   23.8648 C   0  0  0  0  0  0  0  0  0  0  0  0
  -28.9290  -16.3429   19.2099 C   0  0  0  0  0  0  0  0  0  0  0  0
  -18.0886  -30.7369   23.8805 C   0  0  0  0  0  0  0  0  0  0  0  0
  -23.1529  -27.3941   20.4610 C   0  0  0  0  0  0  0  0  0  0  0  0
  -25.0603  -26.8206   22.6468 C   0  0  0  0  0  0  0  0  0  0  0  0
  -19.0727  -29.7717   24.5363 C   0  0  0  0  0  0  0  0  0  0  0  0
  -28.1174  -13.5645   17.2222 C   0  0  0  0  0  0  0  0  0  0  0  0
  -20.4946  -30.3167   24.4472 C   0  0  0  0  0  0  0  0  0  0  0  0
  -27.5174  -12.6149   18.2587 C   0  0  0  0  0  0  0  0  0  0  0  0
  -27.9399  -19.3404   17.6528 C   0  0  0  0  0  0  0  0  0  0  0  0
  -30.1500  -19.5654   18.8498 C   0  0  0  0  0  0  0  0  0  0  0  0
  -27.6804  -15.0126   17.4508 C   0  0  0  0  0  0  0  0  0  0  0  0
  -28.2950  -17.8916   17.3057 C   0  0  0  0  0  0  0  0  0  0  0  0
  -30.4722  -18.1266   18.4562 C   0  0  0  0  0  0  0  0  0  0  0  0
  -27.3383  -14.5583   19.8581 C   0  0  0  0  0  0  0  0  0  0  0  0
  -20.9349  -30.4735   22.9867 C   0  0  1  0  0  0  0  0  0  0  0  0
  -22.7003  -27.2852   21.9138 C   0  0  1  0  0  0  0  0  0  0  0  0
  -27.8061  -13.1045   19.6890 C   0  0  1  0  0  0  0  0  0  0  0  0
  -29.1940  -20.1985   17.8354 C   0  0  0  0  0  0  0  0  0  0  0  0
  -32.2842  -25.9013   17.5818 C   0  0  0  0  0  0  0  0  0  0  0  0
  -27.8952  -24.0902   19.2156 C   0  0  0  0  0  0  0  0  0  0  0  0
  -32.9703  -23.1680   16.7168 C   0  0  0  0  0  0  0  0  0  0  0  0
  -25.3815  -20.6565   24.8929 C   0  0  0  0  0  0  0  0  0  0  0  0
  -30.6377  -29.0182   18.6035 C   0  0  0  0  0  0  0  0  0  0  0  0
  -23.7800  -26.9063   26.3916 C   0  0  0  0  0  0  0  0  0  0  0  0
  -24.8561  -24.7476   27.0628 C   0  0  0  0  0  0  0  0  0  0  0  0
  -22.4174  -24.8146   26.5422 C   0  0  0  0  0  0  0  0  0  0  0  0
  -25.3007  -21.6252   21.2144 C   0  0  0  0  0  0  0  0  0  0  0  0
  -29.0278  -27.1867   17.9833 C   0  0  0  0  0  0  0  0  0  0  0  0
  -24.0926  -25.0173   24.6596 C   0  0  1  0  0  0  0  0  0  0  0  0
  -24.9299  -21.4528   23.6785 C   0  0  2  0  0  0  0  0  0  0  0  0
  -29.1755  -28.6016   18.5380 C   0  0  1  0  0  0  0  0  0  1  0  0
  -23.7950  -25.3852   26.1406 C   0  0  0  0  0  0  0  0  0  0  0  0
  -26.0485  -11.5512   20.4502 N   0  0  0  0  0  0  0  0  0  0  0  0
  -27.1973  -12.1883   20.7339 N   0  0  0  0  0  0  0  0  0  0  0  0
  -30.8197  -22.4719   17.5561 N   0  3  0  0  0  0  0  0  0  0  0  0
  -23.6254  -26.5035   22.7369 N   0  0  0  0  0  0  0  0  0  0  0  0
  -27.9387  -15.4212   18.8386 N   0  0  0  0  0  0  0  0  0  0  0  0
  -29.2497  -17.3421   18.2790 N   0  0  0  0  0  0  0  0  0  0  0  0
  -28.8324  -12.4715   22.4242 N   0  0  0  0  0  0  0  0  0  0  0  0
  -25.8957   -9.5906   24.2876 N   0  0  0  0  0  0  0  0  0  0  0  0
  -29.7221  -26.2624   18.8220 N   0  0  0  0  0  0  0  0  0  0  0  0
  -28.8155  -21.5226   18.2774 N   0  0  0  0  0  0  0  0  0  0  0  0
  -21.2965  -29.1887   22.4271 N   0  0  0  0  0  0  0  0  0  0  0  0
  -24.0863  -23.5841   24.3870 N   0  0  0  0  0  0  0  0  0  0  0  0
  -25.6642  -20.9460   22.4847 N   0  3  0  0  0  0  0  0  0  0  0  0
  -27.8408  -10.7535   24.6382 O   0  0  0  0  0  0  0  0  0  0  0  0
  -23.4986  -29.1111   23.1803 O   0  0  0  0  0  0  0  0  0  0  0  0
  -21.9048  -25.3479   23.8047 O   0  0  0  0  0  0  0  0  0  0  0  0
  -26.2570  -23.4693   23.5793 O   0  0  0  0  0  0  0  0  0  0  0  0
  -29.4936  -16.2772   20.3090 O   0  0  0  0  0  0  0  0  0  0  0  0
  -21.2612   -7.6145   21.9104 O   0  0  0  0  0  0  0  0  0  0  0  0
  -28.6517  -28.6528   19.8636 O   0  0  0  0  0  0  0  0  0  1  0  0
  -21.8864   -2.5429   23.9822 F   0  0  0  0  0  0  0  0  0  0  0  0
  -20.6335   -5.3809   20.4071 F   0  0  0  0  0  0  0  0  0  0  0  0
  1  2  1  0  0  0  0
  1  5  2  0  0  0  0
  2  6  2  0  0  0  0
  3  8  2  0  0  0  0
  3 15  1  0  0  0  0
  4  9  1  0  0  0  0
  4 15  2  0  0  0  0
  5 17  1  0  0  0  0
  6 19  1  0  0  0  0
  7 10  2  0  0  0  0
  7 18  1  0  0  0  0
  8 24  1  0  0  0  0
  9 24  2  0  0  0  0
 10 25  1  0  0  0  0
 11 12  2  0  0  0  0
 11 26  1  0  0  0  0
 12 27  1  0  0  0  0
 13 20  1  0  0  0  0
 13 25  2  0  0  0  0
 14 27  2  0  0  0  0
 14 28  1  0  0  0  0
 15 29  1  0  0  0  0
 16 29  1  0  0  0  0
 16 31  2  0  0  0  0
 16 33  1  0  0  0  0
 17 19  2  0  0  0  0
 17 38  1  0  0  0  0
 18 20  2  0  0  0  0
 18 39  1  0  0  0  0
 19 51  1  0  0  0  0
 20 40  1  0  0  0  0
 21 23  1  0  0  0  0
 21 30  2  0  0  0  0
 21 55  1  0  0  0  0
 22 23  2  0  0  0  0
 22 32  1  0  0  0  0
 22 56  1  0  0  0  0
 23 77  1  0  0  0  0
 24 87  1  0  0  0  0
 25 88  1  0  0  0  0
 26 28  2  0  0  0  0
 26 87  1  0  0  0  0
 27 89  1  0  0  0  0
 28 90  1  0  0  0  0
 29 69  2  0  0  0  0
 30 57  1  0  0  0  0
 30 71  1  0  0  0  0
 31 70  1  0  0  0  0
 31 75  1  0  0  0  0
 32 71  2  0  0  0  0
 32 78  1  0  0  0  0
 33 76  1  0  0  0  0
 33 82  2  0  0  0  0
 34 52  1  0  0  0  0
 34 79  1  0  0  0  0
 34 83  2  0  0  0  0
 35 65  1  0  0  0  0
 35 72  1  0  0  0  0
 35 84  2  0  0  0  0
 36 66  1  0  0  0  0
 36 80  1  0  0  0  0
 36 85  2  0  0  0  0
 37 73  1  0  0  0  0
 37 74  1  0  0  0  0
 37 86  2  0  0  0  0
 38 41  1  0  0  0  0
 39 52  1  0  0  0  0
 40 72  1  0  0  0  0
 41 43  1  0  0  0  0
 42 44  1  0  0  0  0
 42 47  1  0  0  0  0
 43 51  1  0  0  0  0
 44 53  1  0  0  0  0
 45 48  1  0  0  0  0
 45 54  1  0  0  0  0
 46 49  1  0  0  0  0
 46 54  1  0  0  0  0
 47 73  1  0  0  0  0
 48 74  1  0  0  0  0
 49 74  1  0  0  0  0
 50 53  1  0  0  0  0
 50 73  1  0  0  0  0
 51 79  1  0  0  0  0
 52 72  1  0  0  0  0
 53 70  1  0  0  0  0
 54 78  1  0  0  0  0
 58 66  1  0  0  0  0
 59 67  1  0  0  0  0
 60 68  1  0  0  0  0
 61 68  1  0  0  0  0
 62 68  1  0  0  0  0
 63 81  1  0  0  0  0
 64 67  1  0  0  0  0
 64 77  1  0  0  0  0
 65 68  1  0  0  0  0
 65 80  1  0  0  0  0
 66 81  1  0  0  0  0
 67 88  1  0  0  0  0
 69 70  1  0  0  0  0
M  CHG  2  71   1  81   1
M  ISO  4  37 100  67 101  74 100  88 101
M  END
> <Batch ID>
0163

> <Smiles>
CNC(C)C(=O)NC(C(=O)N1Cc2cc([101O:1][101CH:1](C)CNc3c(C)c(C)nc(NC4CC[100N:0]([100C:0](=O)N5CCCC(n6nc(-c7ccc(Oc8ccc(F)cc8F)cc7)c(C(N)=O)c6N)C5)CC4)c3C)ccc2CC1C(=O)NC1CCCc2ccccc21)C(C)(C)C

> <Shape>
0.246

> <Color>
0.109

> <Negative vol penalty>
0.000

$$$$

  -OEChem-04052322173D

 92101  0     1  0  0  0  0  0999 V2000
  -17.9154  -31.1440   26.1256 C   0  0  0  0  0  0  0  0  0  0  0  0
  -19.2746  -31.0046   26.3875 C   0  0  0  0  0  0  0  0  0  0  0  0
  -28.3240  -11.0099   23.0185 C   0  0  0  0  0  0  0  0  0  0  0  0
  -26.7511  -12.1355   21.5707 C   0  0  0  0  0  0  0  0  0  0  0  0
  -17.3678  -30.5832   24.9726 C   0  0  0  0  0  0  0  0  0  0  0  0
  -20.0868  -30.3033   25.4970 C   0  0  0  0  0  0  0  0  0  0  0  0
  -26.7682  -30.2196   22.9147 C   0  0  0  0  0  0  0  0  0  0  0  0
  -27.3399  -10.0855   23.3688 C   0  0  0  0  0  0  0  0  0  0  0  0
  -25.7671  -11.2111   21.9210 C   0  0  0  0  0  0  0  0  0  0  0  0
  -27.8420  -29.3490   22.7334 C   0  0  0  0  0  0  0  0  0  0  0  0
  -24.9291   -8.0395   21.1091 C   0  0  0  0  0  0  0  0  0  0  0  0
  -24.1495   -7.5051   20.0834 C   0  0  0  0  0  0  0  0  0  0  0  0
  -27.6018  -20.6075   16.8705 C   0  0  0  0  0  0  0  0  0  0  0  0
  -28.5698  -19.1346   19.0221 C   0  0  0  0  0  0  0  0  0  0  0  0
  -26.8008  -28.4908   20.7337 C   0  0  0  0  0  0  0  0  0  0  0  0
  -22.1627   -8.3989   21.1279 C   0  0  0  0  0  0  0  0  0  0  0  0
  -28.0296  -12.0350   22.1194 C   0  0  0  0  0  0  0  0  0  0  0  0
  -29.9596  -12.8966   20.6911 C   0  0  0  0  0  0  0  0  0  0  0  0
  -18.1754  -29.8829   24.0626 C   0  0  0  0  0  0  0  0  0  0  0  0
  -25.6956  -30.2246   22.0113 C   0  0  0  0  0  0  0  0  0  0  0  0
  -19.5492  -29.7315   24.3314 C   0  0  0  0  0  0  0  0  0  0  0  0
  -28.0130  -21.2715   18.0361 C   0  0  0  0  0  0  0  0  0  0  0  0
  -28.4725  -20.5317   19.1393 C   0  0  0  0  0  0  0  0  0  0  0  0
  -25.7158  -29.3642   20.9044 C   0  0  0  0  0  0  0  0  0  0  0  0
  -27.6833  -19.2195   16.7801 C   0  0  0  0  0  0  0  0  0  0  0  0
  -28.1751  -18.4837   17.8528 C   0  0  0  0  0  0  0  0  0  0  0  0
  -26.0615  -10.1861   22.8201 C   0  0  0  0  0  0  0  0  0  0  0  0
  -27.8570  -28.4825   21.6444 C   0  0  0  0  0  0  0  0  0  0  0  0
  -24.3256   -8.7535   22.1443 C   0  0  0  0  0  0  0  0  0  0  0  0
  -22.7663   -7.6849   20.0927 C   0  0  0  0  0  0  0  0  0  0  0  0
  -22.9424   -8.9333   22.1537 C   0  0  0  0  0  0  0  0  0  0  0  0
  -29.0455  -12.9905   21.7576 C   0  0  0  0  0  0  0  0  0  0  0  0
  -30.7046  -14.0474   20.7751 C   0  0  0  0  0  0  0  0  0  0  0  0
  -30.1209  -11.8616   19.7120 C   0  0  0  0  0  0  0  0  0  0  0  0
  -22.5817  -29.6226   22.2231 C   0  0  0  0  0  0  0  0  0  0  0  0
  -22.5709  -30.6456   19.1449 C   0  0  0  0  0  0  0  0  0  0  0  0
  -24.3066  -31.1298   16.2466 C   0  0  0  0  0  0  0  0  0  0  0  0
  -29.6029  -19.4579   23.0912 C   0  0  0  0  0  0  0  0  0  0  0  0
  -17.5296  -29.2538   22.8536 C   0  0  0  0  0  0  0  0  0  0  0  0
  -24.5575  -31.1885   22.2063 C   0  0  0  0  0  0  0  0  0  0  0  0
  -27.9332  -22.7708   18.1032 C   0  0  0  0  0  0  0  0  0  0  0  0
  -24.5984  -29.3448   19.8946 C   0  0  0  0  0  0  0  0  0  0  0  0
  -18.5274  -28.8469   21.7724 C   0  0  0  0  0  0  0  0  0  0  0  0
  -32.2765  -17.2673   23.9457 C   0  0  0  0  0  0  0  0  0  0  0  0
  -19.7092  -28.1049   22.3886 C   0  0  0  0  0  0  0  0  0  0  0  0
  -31.8341  -15.9143   23.3856 C   0  0  0  0  0  0  0  0  0  0  0  0
  -31.0952  -18.0646   24.4942 C   0  0  0  0  0  0  0  0  0  0  0  0
  -29.5353  -16.8924   22.9887 C   0  0  0  0  0  0  0  0  0  0  0  0
  -28.9957  -23.3340   19.0317 C   0  0  0  0  0  0  0  0  0  0  0  0
  -20.4674  -28.9991   23.3771 C   0  0  1  0  0  0  0  0  0  0  0  0
  -28.8956  -21.2167   20.4297 C   0  0  2  0  0  0  0  0  0  0  0  0
  -23.2748  -30.7476   21.5078 C   0  0  1  0  0  0  0  0  0  0  0  0
  -30.6842  -16.0755   22.3731 C   0  0  2  0  0  0  0  0  0  0  0  0
  -27.2454  -18.5466   15.5209 C   0  0  0  0  0  0  0  0  0  0  0  0
  -28.2875  -16.9963   17.7773 C   0  0  0  0  0  0  0  0  0  0  0  0
  -24.0191  -31.9464   13.8913 C   0  0  0  0  0  0  0  0  0  0  0  0
  -26.6037  -20.5351   21.2077 C   0  0  0  0  0  0  0  0  0  0  0  0
  -30.8669  -25.2701   23.6654 C   0  0  0  0  0  0  0  0  0  0  0  0
  -27.9348  -24.5748   22.8254 C   0  0  0  0  0  0  0  0  0  0  0  0
  -31.0741  -23.5271   20.7323 C   0  0  0  0  0  0  0  0  0  0  0  0
  -21.1682  -28.0364   18.4140 C   0  0  0  0  0  0  0  0  0  0  0  0
  -21.7588  -28.4707   16.0200 C   0  0  0  0  0  0  0  0  0  0  0  0
  -20.2792  -30.0613   17.2462 C   0  0  0  0  0  0  0  0  0  0  0  0
  -26.2792  -33.3015   16.6357 C   0  0  0  0  0  0  0  0  0  0  0  0
  -29.5793  -27.1782   22.6387 C   0  0  0  0  0  0  0  0  0  1  0  0
  -22.7453  -29.9857   17.7983 C   0  0  1  0  0  0  0  0  0  0  0  0
  -24.3978  -32.3246   15.3147 C   0  0  2  0  0  0  0  0  0  0  0  0
  -28.0559  -20.7163   21.6141 C   0  0  1  0  0  0  0  0  0  0  0  0
  -30.1670  -25.7768   22.3972 C   0  0  2  0  0  0  0  0  0  0  0  0
  -29.0995  -24.7821   21.8400 C   0  0  1  0  0  0  0  0  0  0  0  0
  -29.7081  -23.4186   21.4049 C   0  0  1  0  0  0  0  0  0  0  0  0
  -21.5082  -29.1373   17.3895 C   0  0  0  0  0  0  0  0  0  0  0  0
  -29.1944  -14.1123   22.4671 N   0  0  0  0  0  0  0  0  0  0  0  0
  -30.2109  -14.7338   21.8453 N   0  0  0  0  0  0  0  0  0  0  0  0
  -23.5049  -30.3015   20.1322 N   0  0  0  0  0  0  0  0  0  0  0  0
  -30.0404  -18.1823   23.4845 N   0  0  0  0  0  0  0  0  0  0  0  0
  -31.7274  -14.5290   20.0373 N   0  0  0  0  0  0  0  0  0  0  0  0
  -29.2714  -10.7484   19.7705 N   0  0  0  0  0  0  0  0  0  0  0  0
  -21.3110  -29.9360   22.6665 N   0  0  0  0  0  0  0  0  0  0  0  0
  -23.0741  -31.0534   16.8600 N   0  0  0  0  0  0  0  0  0  0  0  0
  -28.6047  -19.4800   22.1249 N   0  0  0  0  0  0  0  0  0  0  0  0
  -28.7893  -22.7527   20.4098 N   0  3  1  0  0  0  0  0  0  0  0  0
  -25.7855  -32.8679   15.3033 N   0  3  0  0  0  0  0  0  0  0  0  0
  -31.0032  -11.9146   18.8219 O   0  0  0  0  0  0  0  0  0  0  0  0
  -23.1566  -28.5492   22.3611 O   0  0  0  0  0  0  0  0  0  0  0  0
  -21.6445  -31.4427   19.3122 O   0  0  0  0  0  0  0  0  0  0  0  0
  -25.2346  -30.3408   16.4109 O   0  0  0  0  0  0  0  0  0  0  0  0
  -30.0713  -20.4999   23.5622 O   0  0  0  0  0  0  0  0  0  0  0  0
  -25.1011   -9.2841   23.1615 O   0  0  0  0  0  0  0  0  0  0  0  0
  -28.9103  -27.6258   21.4643 O   0  0  0  0  0  0  0  0  0  1  0  0
  -22.0178   -7.1730   19.1068 F   0  0  0  0  0  0  0  0  0  0  0  0
  -22.3570   -9.6193   23.1449 F   0  0  0  0  0  0  0  0  0  0  0  0
  1  2  1  0  0  0  0
  1  5  2  0  0  0  0
  2  6  2  0  0  0  0
  3  8  2  0  0  0  0
  3 17  1  0  0  0  0
  4  9  1  0  0  0  0
  4 17  2  0  0  0  0
  5 19  1  0  0  0  0
  6 21  1  0  0  0  0
  7 10  2  0  0  0  0
  7 20  1  0  0  0  0
  8 27  1  0  0  0  0
  9 27  2  0  0  0  0
 10 28  1  0  0  0  0
 11 12  2  0  0  0  0
 11 29  1  0  0  0  0
 12 30  1  0  0  0  0
 13 22  1  0  0  0  0
 13 25  2  0  0  0  0
 14 23  1  0  0  0  0
 14 26  2  0  0  0  0
 15 24  1  0  0  0  0
 15 28  2  0  0  0  0
 16 30  2  0  0  0  0
 16 31  1  0  0  0  0
 17 32  1  0  0  0  0
 18 32  1  0  0  0  0
 18 33  2  0  0  0  0
 18 34  1  0  0  0  0
 19 21  2  0  0  0  0
 19 39  1  0  0  0  0
 20 24  2  0  0  0  0
 20 40  1  0  0  0  0
 21 50  1  0  0  0  0
 22 23  2  0  0  0  0
 22 41  1  0  0  0  0
 23 51  1  0  0  0  0
 24 42  1  0  0  0  0
 25 26  1  0  0  0  0
 25 54  1  0  0  0  0
 26 55  1  0  0  0  0
 27 89  1  0  0  0  0
 28 90  1  0  0  0  0
 29 31  2  0  0  0  0
 29 89  1  0  0  0  0
 30 91  1  0  0  0  0
 31 92  1  0  0  0  0
 32 73  2  0  0  0  0
 33 74  1  0  0  0  0
 33 77  1  0  0  0  0
 34 78  1  0  0  0  0
 34 84  2  0  0  0  0
 35 52  1  0  0  0  0
 35 79  1  0  0  0  0
 35 85  2  0  0  0  0
 36 66  1  0  0  0  0
 36 75  1  0  0  0  0
 36 86  2  0  0  0  0
 37 67  1  0  0  0  0
 37 80  1  0  0  0  0
 37 87  2  0  0  0  0
 38 76  1  0  0  0  0
 38 81  1  0  0  0  0
 38 88  2  0  0  0  0
 39 43  1  0  0  0  0
 40 52  1  0  0  0  0
 41 49  1  0  0  0  0
 42 75  1  0  0  0  0
 43 45  1  0  0  0  0
 44 46  1  0  0  0  0
 44 47  1  0  0  0  0
 45 50  1  0  0  0  0
 46 53  1  0  0  0  0
 47 76  1  0  0  0  0
 48 53  1  0  0  0  0
 48 76  1  0  0  0  0
 49 82  1  0  0  0  0
 50 79  1  0  0  0  0
 51 68  1  0  0  0  0
 51 82  1  0  0  0  0
 52 75  1  0  0  0  0
 53 74  1  0  0  0  0
 56 67  1  0  0  0  0
 57 68  1  0  0  0  0
 58 69  1  0  0  0  0
 59 70  1  0  0  0  0
 60 71  1  0  0  0  0
 61 72  1  0  0  0  0
 62 72  1  0  0  0  0
 63 72  1  0  0  0  0
 64 83  1  0  0  0  0
 65 69  1  0  0  0  0
 65 90  1  0  0  0  0
 66 72  1  0  0  0  0
 66 80  1  0  0  0  0
 67 83  1  0  0  0  0
 68 81  1  0  0  0  0
 69 70  1  0  0  0  0
 70 71  1  0  0  0  0
 71 82  1  0  0  0  0
 73 74  1  0  0  0  0
M  CHG  2  82   1  83   1
M  ISO  4  38 100  65 101  81 100  90 101
M  END
> <Batch ID>
0163

> <Smiles>
CNC(C)C(=O)NC(C(=O)N1Cc2cc([101O:1][101CH2:1]C(C)C(C)C(C)N3CCc4cc(C)c(C)cc4C3C(C)[100NH:0][100C:0](=O)N3CCCC(n4nc(-c5ccc(Oc6ccc(F)cc6F)cc5)c(C(N)=O)c4N)C3)ccc2CC1C(=O)NC1CCCc2ccccc21)C(C)(C)C

> <Shape>
0.280

> <Color>
0.065

> <Negative vol penalty>
0.000

$$$$

  -OEChem-04052322173D

 88 97  0     1  0  0  0  0  0999 V2000
  -28.3960  -36.6350   21.4212 C   0  0  0  0  0  0  0  0  0  0  0  0
  -28.6537  -35.2679   21.4212 C   0  0  0  0  0  0  0  0  0  0  0  0
  -24.6610  -13.1245   21.0791 C   0  0  0  0  0  0  0  0  0  0  0  0
  -26.1935  -11.4013   20.3586 C   0  0  0  0  0  0  0  0  0  0  0  0
  -27.2601  -37.1291   22.0612 C   0  0  0  0  0  0  0  0  0  0  0  0
  -27.7761  -34.3942   22.0622 C   0  0  0  0  0  0  0  0  0  0  0  0
  -26.7538  -30.2840   19.2862 C   0  0  0  0  0  0  0  0  0  0  0  0
  -23.6143  -12.2027   21.0574 C   0  0  0  0  0  0  0  0  0  0  0  0
  -25.1468  -10.4795   20.3369 C   0  0  0  0  0  0  0  0  0  0  0  0
  -27.7203  -29.2796   19.2559 C   0  0  0  0  0  0  0  0  0  0  0  0
  -22.9463   -7.5872   20.4394 C   0  0  0  0  0  0  0  0  0  0  0  0
  -23.1756   -6.3312   21.0010 C   0  0  0  0  0  0  0  0  0  0  0  0
  -26.4654  -28.0310   20.8946 C   0  0  0  0  0  0  0  0  0  0  0  0
  -29.8188  -20.8092   22.5730 C   0  0  0  0  0  0  0  0  0  0  0  0
  -23.6418   -7.3692   23.1323 C   0  0  0  0  0  0  0  0  0  0  0  0
  -25.9506  -12.7238   20.7296 C   0  0  0  0  0  0  0  0  0  0  0  0
  -29.6669  -20.0410   19.8954 C   0  0  0  0  0  0  0  0  0  0  0  0
  -27.8791  -13.9754   21.8350 C   0  0  0  0  0  0  0  0  0  0  0  0
  -26.3631  -36.2600   22.7021 C   0  0  0  0  0  0  0  0  0  0  0  0
  -25.6395  -30.1743   20.1305 C   0  0  0  0  0  0  0  0  0  0  0  0
  -26.6279  -34.8772   22.7126 C   0  0  0  0  0  0  0  0  0  0  0  0
  -25.4849  -29.0341   20.9320 C   0  0  0  0  0  0  0  0  0  0  0  0
  -28.6408  -20.7957   20.4638 C   0  0  0  0  0  0  0  0  0  0  0  0
  -28.7167  -21.1797   21.8026 C   0  0  0  0  0  0  0  0  0  0  0  0
  -30.8450  -20.0546   22.0046 C   0  0  0  0  0  0  0  0  0  0  0  0
  -30.7691  -19.6705   20.6658 C   0  0  0  0  0  0  0  0  0  0  0  0
  -23.8572  -10.8802   20.6864 C   0  0  0  0  0  0  0  0  0  0  0  0
  -27.5777  -28.1542   20.0623 C   0  0  0  0  0  0  0  0  0  0  0  0
  -23.0649   -8.7343   21.2242 C   0  0  0  0  0  0  0  0  0  0  0  0
  -23.5233   -6.2222   22.3475 C   0  0  0  0  0  0  0  0  0  0  0  0
  -23.4126   -8.6253   22.5706 C   0  0  0  0  0  0  0  0  0  0  0  0
  -27.0321  -13.6756   20.7513 C   0  0  0  0  0  0  0  0  0  0  0  0
  -28.7319  -14.9360   21.3488 C   0  0  0  0  0  0  0  0  0  0  0  0
  -29.5886  -19.6351   18.4862 C   0  0  0  0  0  0  0  0  0  0  0  0
  -27.8937  -13.4339   23.1625 C   0  0  0  0  0  0  0  0  0  0  0  0
  -24.5061  -31.8552   22.5787 C   0  0  0  0  0  0  0  0  0  0  0  0
  -22.0078  -29.8014   22.3281 C   0  0  0  0  0  0  0  0  0  0  0  0
  -20.8499  -26.7590   21.3034 C   0  0  0  0  0  0  0  0  0  0  0  0
  -25.1736  -36.8454   23.4211 C   0  0  0  0  0  0  0  0  0  0  0  0
  -24.5923  -31.2540   20.1318 C   0  0  0  0  0  0  0  0  0  0  0  0
  -24.2968  -28.8588   21.8408 C   0  0  0  0  0  0  0  0  0  0  0  0
  -24.0971  -35.8161   23.7559 C   0  0  0  0  0  0  0  0  0  0  0  0
  -29.5086  -16.5861   16.6317 C   0  0  0  0  0  0  0  0  0  0  0  0
  -24.7248  -34.5658   24.3639 C   0  0  0  0  0  0  0  0  0  0  0  0
  -28.9085  -15.5833   17.6188 C   0  0  0  0  0  0  0  0  0  0  0  0
  -26.7478  -22.4864   19.9778 C   0  0  0  0  0  0  0  0  0  0  0  0
  -28.8927  -17.9736   16.7935 C   0  0  0  0  0  0  0  0  0  0  0  0
  -28.3507  -17.5110   19.1593 C   0  0  0  0  0  0  0  0  0  0  0  0
  -25.6868  -33.8951   23.3758 C   0  0  1  0  0  0  0  0  0  0  0  0
  -23.7595  -31.2771   21.4099 C   0  0  1  0  0  0  0  0  0  0  0  0
  -28.9805  -16.1117   19.0638 C   0  0  1  0  0  0  0  0  0  0  0  0
  -27.4661  -21.1929   19.6503 C   0  0  1  0  0  0  0  0  0  0  0  0
  -27.5369  -22.3938   18.6977 C   0  0  1  0  0  0  0  0  0  0  0  0
  -27.6328  -21.9883   22.4377 C   0  0  0  0  0  0  0  0  0  0  0  0
  -32.0133  -19.6702   22.8518 C   0  0  0  0  0  0  0  0  0  0  0  0
  -31.8739  -18.8608   20.0620 C   0  0  0  0  0  0  0  0  0  0  0  0
  -26.7683  -22.3362   17.4003 C   0  0  0  0  0  0  0  0  0  0  0  0
  -18.7728  -25.3513   21.2694 C   0  0  0  0  0  0  0  0  0  0  0  0
  -22.3836  -29.1795   25.2915 C   0  0  0  0  0  0  0  0  0  0  0  0
  -20.9677  -27.1396   24.9715 C   0  0  0  0  0  0  0  0  0  0  0  0
  -20.0005  -29.4031   24.5665 C   0  0  0  0  0  0  0  0  0  0  0  0
  -20.8222  -26.6653   18.3455 C   0  0  0  0  0  0  0  0  0  0  0  0
  -28.8152  -23.1976   18.6014 C   0  0  0  0  0  0  0  0  0  0  0  0
  -29.6799  -25.5386   18.7059 C   0  0  0  0  0  0  0  0  0  0  0  0
  -29.2219  -26.9801   18.8077 C   0  0  0  0  0  0  0  0  0  1  0  0
  -21.6675  -28.4546   22.9192 C   0  0  1  0  0  0  0  0  0  0  0  0
  -19.6158  -26.3653   20.5119 C   0  0  2  0  0  0  0  0  0  0  0  0
  -21.2783  -28.5481   24.4216 C   0  0  0  0  0  0  0  0  0  0  0  0
  -27.3205  -14.3881   19.6590 N   0  0  0  0  0  0  0  0  0  0  0  0
  -28.3582  -15.1452   20.0539 N   0  0  0  0  0  0  0  0  0  0  0  0
  -28.9747  -18.4170   18.1847 N   0  0  0  0  0  0  0  0  0  0  0  0
  -23.3032  -29.9449   21.8113 N   0  0  0  0  0  0  0  0  0  0  0  0
  -29.7574  -15.6137   21.9068 N   0  0  0  0  0  0  0  0  0  0  0  0
  -26.9478  -12.4547   23.4952 N   0  0  0  0  0  0  0  0  0  0  0  0
  -24.9487  -33.1489   22.3793 N   0  0  0  0  0  0  0  0  0  0  0  0
  -20.6290  -27.8855   22.0672 N   0  0  0  0  0  0  0  0  0  0  0  0
  -20.0080  -25.7674   19.2044 N   0  3  0  0  0  0  0  0  0  0  0  0
  -28.4943  -24.6452   18.7254 N   0  3  0  0  0  0  0  0  0  0  0  0
  -30.0890  -20.4071   17.6696 O   0  0  0  0  0  0  0  0  0  0  0  0
  -28.7105  -13.8193   24.0331 O   0  0  0  0  0  0  0  0  0  0  0  0
  -24.6672  -31.1781   23.5873 O   0  0  0  0  0  0  0  0  0  0  0  0
  -21.1533  -30.6910   22.3185 O   0  0  0  0  0  0  0  0  0  0  0  0
  -21.9034  -26.1279   21.2524 O   0  0  0  0  0  0  0  0  0  0  0  0
  -26.6066  -20.1098   19.2361 O   0  0  0  0  0  0  0  0  0  0  0  0
  -22.8362   -9.9805   20.6653 O   0  0  0  0  0  0  0  0  0  0  0  0
  -28.5199  -27.1727   20.0351 O   0  0  0  0  0  0  0  0  0  1  0  0
  -23.7419   -5.0158   22.8870 F   0  0  0  0  0  0  0  0  0  0  0  0
  -23.5268   -9.7236   23.3299 F   0  0  0  0  0  0  0  0  0  0  0  0
  1  2  1  0  0  0  0
  1  5  2  0  0  0  0
  2  6  2  0  0  0  0
  3  8  2  0  0  0  0
  3 16  1  0  0  0  0
  4  9  1  0  0  0  0
  4 16  2  0  0  0  0
  5 19  1  0  0  0  0
  6 21  1  0  0  0  0
  7 10  2  0  0  0  0
  7 20  1  0  0  0  0
  8 27  1  0  0  0  0
  9 27  2  0  0  0  0
 10 28  1  0  0  0  0
 11 12  2  0  0  0  0
 11 29  1  0  0  0  0
 12 30  1  0  0  0  0
 13 22  1  0  0  0  0
 13 28  2  0  0  0  0
 14 24  2  0  0  0  0
 14 25  1  0  0  0  0
 15 30  2  0  0  0  0
 15 31  1  0  0  0  0
 16 32  1  0  0  0  0
 17 23  2  0  0  0  0
 17 26  1  0  0  0  0
 17 34  1  0  0  0  0
 18 32  1  0  0  0  0
 18 33  2  0  0  0  0
 18 35  1  0  0  0  0
 19 21  2  0  0  0  0
 19 39  1  0  0  0  0
 20 22  2  0  0  0  0
 20 40  1  0  0  0  0
 21 49  1  0  0  0  0
 22 41  1  0  0  0  0
 23 24  1  0  0  0  0
 23 52  1  0  0  0  0
 24 54  1  0  0  0  0
 25 26  2  0  0  0  0
 25 55  1  0  0  0  0
 26 56  1  0  0  0  0
 27 85  1  0  0  0  0
 28 86  1  0  0  0  0
 29 31  2  0  0  0  0
 29 85  1  0  0  0  0
 30 87  1  0  0  0  0
 31 88  1  0  0  0  0
 32 69  2  0  0  0  0
 33 70  1  0  0  0  0
 33 73  1  0  0  0  0
 34 71  1  0  0  0  0
 34 79  2  0  0  0  0
 35 74  1  0  0  0  0
 35 80  2  0  0  0  0
 36 50  1  0  0  0  0
 36 75  1  0  0  0  0
 36 81  2  0  0  0  0
 37 66  1  0  0  0  0
 37 72  1  0  0  0  0
 37 82  2  0  0  0  0
 38 67  1  0  0  0  0
 38 76  1  0  0  0  0
 38 83  2  0  0  0  0
 39 42  1  0  0  0  0
 40 50  1  0  0  0  0
 41 72  1  0  0  0  0
 42 44  1  0  0  0  0
 43 45  1  0  0  0  0
 43 47  1  0  0  0  0
 44 49  1  0  0  0  0
 45 51  1  0  0  0  0
 46 52  1  0  0  0  0
 46 53  1  0  0  0  0
 47 71  1  0  0  0  0
 48 51  1  0  0  0  0
 48 71  1  0  0  0  0
 49 75  1  0  0  0  0
 50 72  1  0  0  0  0
 51 70  1  0  0  0  0
 52 53  1  0  0  0  0
 52 84  1  0  0  0  0
 53 57  1  0  0  0  0
 53 63  1  0  0  0  0
 58 67  1  0  0  0  0
 59 68  1  0  0  0  0
 60 68  1  0  0  0  0
 61 68  1  0  0  0  0
 62 77  1  0  0  0  0
 63 78  1  0  0  0  0
 64 65  1  0  0  0  0
 64 78  1  0  0  0  0
 65 86  1  0  0  0  0
 66 68  1  0  0  0  0
 66 76  1  0  0  0  0
 67 77  1  0  0  0  0
 69 70  1  0  0  0  0
M  CHG  2  77   1  78   1
M  ISO  4  17 100  34 100  65 101  86 101
M  END
> <Batch ID>
0163

> <Smiles>
CNC(C)C(=O)NC(C(=O)N1Cc2cc([101O:1][101CH2:1]CNCC3(C)CC3(O)c3c(C)cc(C)c(C)[100c:0]3[100C:0](=O)N3CCCC(n4nc(-c5ccc(Oc6ccc(F)cc6F)cc5)c(C(N)=O)c4N)C3)ccc2CC1C(=O)NC1CCCc2ccccc21)C(C)(C)C

> <Shape>
0.330

> <Color>
0.051

> <Negative vol penalty>
0.000

$$$$

  -OEChem-04052322173D

 89 98  0     1  0  0  0  0  0999 V2000
  -27.4289  -36.3765   23.8746 C   0  0  0  0  0  0  0  0  0  0  0  0
  -27.9129  -35.2636   23.1944 C   0  0  0  0  0  0  0  0  0  0  0  0
  -22.2806  -10.4753   22.3095 C   0  0  0  0  0  0  0  0  0  0  0  0
  -24.0230  -10.0701   20.6856 C   0  0  0  0  0  0  0  0  0  0  0  0
  -26.4216  -36.2264   24.8267 C   0  0  0  0  0  0  0  0  0  0  0  0
  -27.3905  -33.9997   23.4668 C   0  0  0  0  0  0  0  0  0  0  0  0
  -26.5831  -29.4141   19.4886 C   0  0  0  0  0  0  0  0  0  0  0  0
  -21.8614   -9.1503   22.1903 C   0  0  0  0  0  0  0  0  0  0  0  0
  -23.6038   -8.7451   20.5664 C   0  0  0  0  0  0  0  0  0  0  0  0
  -27.3406  -28.2803   19.1978 C   0  0  0  0  0  0  0  0  0  0  0  0
  -20.5599   -5.7786   22.5817 C   0  0  0  0  0  0  0  0  0  0  0  0
  -20.2788   -5.0793   23.7553 C   0  0  0  0  0  0  0  0  0  0  0  0
  -23.7611  -22.7511   16.7611 C   0  0  0  0  0  0  0  0  0  0  0  0
  -25.3042  -22.3352   14.9492 C   0  0  0  0  0  0  0  0  0  0  0  0
  -25.9625  -26.9833   20.6938 C   0  0  0  0  0  0  0  0  0  0  0  0
  -22.5517   -5.4175   24.5013 C   0  0  0  0  0  0  0  0  0  0  0  0
  -23.3614  -10.9352   21.5572 C   0  0  0  0  0  0  0  0  0  0  0  0
  -24.7506  -12.8161   22.5771 C   0  0  0  0  0  0  0  0  0  0  0  0
  -25.8798  -34.9614   25.1041 C   0  0  0  0  0  0  0  0  0  0  0  0
  -25.5146  -29.3433   20.3940 C   0  0  0  0  0  0  0  0  0  0  0  0
  -26.3759  -33.8324   24.4246 C   0  0  0  0  0  0  0  0  0  0  0  0
  -24.9687  -22.2280   16.2989 C   0  0  0  0  0  0  0  0  0  0  0  0
  -25.1914  -28.1170   20.9924 C   0  0  0  0  0  0  0  0  0  0  0  0
  -22.8888  -23.3813   15.8736 C   0  0  0  0  0  0  0  0  0  0  0  0
  -24.4319  -22.9654   14.0617 C   0  0  0  0  0  0  0  0  0  0  0  0
  -23.2242  -23.4885   14.5239 C   0  0  0  0  0  0  0  0  0  0  0  0
  -22.5229   -8.2852   21.3188 C   0  0  0  0  0  0  0  0  0  0  0  0
  -27.0322  -27.0653   19.8026 C   0  0  0  0  0  0  0  0  0  0  0  0
  -21.8370   -6.2974   22.3677 C   0  0  0  0  0  0  0  0  0  0  0  0
  -21.2746   -4.8987   24.7151 C   0  0  0  0  0  0  0  0  0  0  0  0
  -22.8328   -6.1168   23.3276 C   0  0  0  0  0  0  0  0  0  0  0  0
  -23.7946  -12.3040   21.6795 C   0  0  0  0  0  0  0  0  0  0  0  0
  -24.8013  -14.1594   22.2951 C   0  0  0  0  0  0  0  0  0  0  0  0
  -25.5236  -12.1382   23.5763 C   0  0  0  0  0  0  0  0  0  0  0  0
  -24.8492  -30.7025   23.1893 C   0  0  0  0  0  0  0  0  0  0  0  0
  -21.9997  -29.2024   22.7989 C   0  0  0  0  0  0  0  0  0  0  0  0
  -20.2379  -26.6590   21.3589 C   0  0  0  0  0  0  0  0  0  0  0  0
  -25.2786  -17.9095   18.0984 C   0  0  0  0  0  0  0  0  0  0  0  0
  -24.8252  -34.8424   26.1756 C   0  0  0  0  0  0  0  0  0  0  0  0
  -24.6906  -30.5694   20.6767 C   0  0  0  0  0  0  0  0  0  0  0  0
  -24.0416  -27.9835   21.9560 C   0  0  0  0  0  0  0  0  0  0  0  0
  -24.0638  -33.5199   26.1367 C   0  0  0  0  0  0  0  0  0  0  0  0
  -21.8616  -16.6426   18.9699 C   0  0  0  0  0  0  0  0  0  0  0  0
  -25.0320  -32.3507   25.9879 C   0  0  0  0  0  0  0  0  0  0  0  0
  -22.0971  -15.7403   20.1813 C   0  0  0  0  0  0  0  0  0  0  0  0
  -25.4278  -21.4846   18.7508 C   0  0  0  0  0  0  0  0  0  0  0  0
  -22.8668  -17.7864   18.8936 C   0  0  0  0  0  0  0  0  0  0  0  0
  -24.5788  -20.2224   18.8324 C   0  0  0  0  0  0  0  0  0  0  0  0
  -24.5112  -15.9789   19.4226 C   0  0  0  0  0  0  0  0  0  0  0  0
  -25.8173  -32.4484   24.6744 C   0  0  1  0  0  0  0  0  0  0  0  0
  -23.9462  -30.4956   22.0063 C   0  0  1  0  0  0  0  0  0  0  0  0
  -23.5769  -15.6763   20.6020 C   0  0  2  0  0  0  0  0  0  0  0  0
  -26.1536  -19.9961   17.0167 C   0  0  2  0  0  0  0  0  0  0  0  0
  -25.9343  -21.5296   17.2815 C   0  0  1  0  0  0  0  0  0  0  0  0
  -21.6023  -23.9339   16.3941 C   0  0  0  0  0  0  0  0  0  0  0  0
  -24.8146  -23.0673   12.6212 C   0  0  0  0  0  0  0  0  0  0  0  0
  -22.2890  -24.1646   13.5726 C   0  0  0  0  0  0  0  0  0  0  0  0
  -26.0470  -19.5280   15.5660 C   0  0  0  0  0  0  0  0  0  0  0  0
  -17.9344  -25.6685   21.2581 C   0  0  0  0  0  0  0  0  0  0  0  0
  -22.4091  -27.9752   25.5623 C   0  0  0  0  0  0  0  0  0  0  0  0
  -20.6201  -26.3124   25.0123 C   0  0  0  0  0  0  0  0  0  0  0  0
  -20.0755  -28.7452   25.0981 C   0  0  0  0  0  0  0  0  0  0  0  0
  -20.0356  -27.1329   18.4445 C   0  0  0  0  0  0  0  0  0  0  0  0
  -27.2946  -22.2678   17.2862 C   0  0  0  0  0  0  0  0  0  0  0  0
  -27.1313  -23.7080   17.7548 C   0  0  0  0  0  0  0  0  0  0  0  0
  -28.4854  -24.4223   17.7921 C   0  0  0  0  0  0  0  0  0  0  0  0
  -28.3579  -25.8776   18.2253 C   0  0  0  0  0  0  0  0  0  1  0  0
  -21.4444  -27.8488   23.1708 C   0  0  1  0  0  0  0  0  0  0  0  0
  -18.9114  -26.6442   20.6208 C   0  0  2  0  0  0  0  0  0  0  0  0
  -21.1602  -27.7230   24.6942 C   0  0  0  0  0  0  0  0  0  0  0  0
  -23.2753  -13.2452   20.8867 N   0  0  0  0  0  0  0  0  0  0  0  0
  -23.9072  -14.3623   21.2853 N   0  0  0  0  0  0  0  0  0  0  0  0
  -23.2697  -29.2122   22.2048 N   0  0  0  0  0  0  0  0  0  0  0  0
  -24.2544  -17.3038   18.8457 N   0  0  0  0  0  0  0  0  0  0  0  0
  -25.2027  -19.2934   17.8981 N   0  0  0  0  0  0  0  0  0  0  0  0
  -25.5229  -15.1750   22.8150 N   0  0  0  0  0  0  0  0  0  0  0  0
  -25.3479  -10.7566   23.7336 N   0  0  0  0  0  0  0  0  0  0  0  0
  -24.9950  -32.0254   23.5612 N   0  0  0  0  0  0  0  0  0  0  0  0
  -20.2735  -27.6417   22.3255 N   0  0  0  0  0  0  0  0  0  0  0  0
  -19.1141  -26.2452   19.1993 N   0  3  0  0  0  0  0  0  0  0  0  0
  -26.3338  -12.7425   24.3191 O   0  0  0  0  0  0  0  0  0  0  0  0
  -25.3737  -29.7337   23.7258 O   0  0  0  0  0  0  0  0  0  0  0  0
  -21.3284  -30.2132   23.0206 O   0  0  0  0  0  0  0  0  0  0  0  0
  -21.1497  -25.8747   21.1060 O   0  0  0  0  0  0  0  0  0  0  0  0
  -26.2163  -17.2433   17.6406 O   0  0  0  0  0  0  0  0  0  0  0  0
  -22.1143   -6.9921   21.2024 O   0  0  0  0  0  0  0  0  0  0  0  0
  -27.7759  -25.9489   19.5189 O   0  0  0  0  0  0  0  0  0  1  0  0
  -21.0041   -4.2285   25.8428 F   0  0  0  0  0  0  0  0  0  0  0  0
  -24.0613   -6.6139   23.1282 F   0  0  0  0  0  0  0  0  0  0  0  0
  1  2  1  0  0  0  0
  1  5  2  0  0  0  0
  2  6  2  0  0  0  0
  3  8  2  0  0  0  0
  3 17  1  0  0  0  0
  4  9  1  0  0  0  0
  4 17  2  0  0  0  0
  5 19  1  0  0  0  0
  6 21  1  0  0  0  0
  7 10  2  0  0  0  0
  7 20  1  0  0  0  0
  8 27  1  0  0  0  0
  9 27  2  0  0  0  0
 10 28  1  0  0  0  0
 11 12  2  0  0  0  0
 11 29  1  0  0  0  0
 12 30  1  0  0  0  0
 13 22  1  0  0  0  0
 13 24  2  0  0  0  0
 14 22  2  0  0  0  0
 14 25  1  0  0  0  0
 15 23  1  0  0  0  0
 15 28  2  0  0  0  0
 16 30  2  0  0  0  0
 16 31  1  0  0  0  0
 17 32  1  0  0  0  0
 18 32  1  0  0  0  0
 18 33  2  0  0  0  0
 18 34  1  0  0  0  0
 19 21  2  0  0  0  0
 19 39  1  0  0  0  0
 20 23  2  0  0  0  0
 20 40  1  0  0  0  0
 21 50  1  0  0  0  0
 22 54  1  0  0  0  0
 23 41  1  0  0  0  0
 24 26  1  0  0  0  0
 24 55  1  0  0  0  0
 25 26  2  0  0  0  0
 25 56  1  0  0  0  0
 26 57  1  0  0  0  0
 27 86  1  0  0  0  0
 28 87  1  0  0  0  0
 29 31  2  0  0  0  0
 29 86  1  0  0  0  0
 30 88  1  0  0  0  0
 31 89  1  0  0  0  0
 32 71  2  0  0  0  0
 33 72  1  0  0  0  0
 33 76  1  0  0  0  0
 34 77  1  0  0  0  0
 34 81  2  0  0  0  0
 35 51  1  0  0  0  0
 35 78  1  0  0  0  0
 35 82  2  0  0  0  0
 36 68  1  0  0  0  0
 36 73  1  0  0  0  0
 36 83  2  0  0  0  0
 37 69  1  0  0  0  0
 37 79  1  0  0  0  0
 37 84  2  0  0  0  0
 38 74  1  0  0  0  0
 38 75  1  0  0  0  0
 38 85  2  0  0  0  0
 39 42  1  0  0  0  0
 40 51  1  0  0  0  0
 41 73  1  0  0  0  0
 42 44  1  0  0  0  0
 43 45  1  0  0  0  0
 43 47  1  0  0  0  0
 44 50  1  0  0  0  0
 45 52  1  0  0  0  0
 46 48  1  0  0  0  0
 46 54  1  0  0  0  0
 47 74  1  0  0  0  0
 48 75  1  0  0  0  0
 49 52  1  0  0  0  0
 49 74  1  0  0  0  0
 50 78  1  0  0  0  0
 51 73  1  0  0  0  0
 52 72  1  0  0  0  0
 53 54  1  0  0  0  0
 53 58  1  0  0  0  0
 53 75  1  0  0  0  0
 54 64  1  0  0  0  0
 59 69  1  0  0  0  0
 60 70  1  0  0  0  0
 61 70  1  0  0  0  0
 62 70  1  0  0  0  0
 63 80  1  0  0  0  0
 64 65  1  0  0  0  0
 65 66  1  0  0  0  0
 66 67  1  0  0  0  0
 67 87  1  0  0  0  0
 68 70  1  0  0  0  0
 68 79  1  0  0  0  0
 69 80  1  0  0  0  0
 71 72  1  0  0  0  0
M  CHG  1  80   1
M  ISO  4  38 100  67 101  75 100  87 101
M  END
> <Batch ID>
0163

> <Smiles>
CNC(C)C(=O)NC(C(=O)N1Cc2cc([101O:1][101CH2:1]CCCC3(c4cc(C)c(C)c(C)c4)CC[100N:0]([100C:0](=O)N4CCCC(n5nc(-c6ccc(Oc7ccc(F)cc7F)cc6)c(C(N)=O)c5N)C4)C3C)ccc2CC1C(=O)NC1CCCc2ccccc21)C(C)(C)C

> <Shape>
0.252

> <Color>
0.084

> <Negative vol penalty>
0.000

$$$$

  -OEChem-04052322173D

 87 96  0     1  0  0  0  0  0999 V2000
  -28.9305  -23.8956   17.2815 C   0  0  0  0  0  0  0  0  0  0  0  0
  -27.7175  -24.0487   17.9453 C   0  0  0  0  0  0  0  0  0  0  0  0
  -25.3129  -15.0989   19.6148 C   0  0  0  0  0  0  0  0  0  0  0  0
  -24.2574  -14.7399   21.7582 C   0  0  0  0  0  0  0  0  0  0  0  0
  -30.0716  -24.5384   17.7598 C   0  0  0  0  0  0  0  0  0  0  0  0
  -27.6452  -24.8438   19.0885 C   0  0  0  0  0  0  0  0  0  0  0  0
  -23.6089  -27.9020   19.0756 C   0  0  0  0  0  0  0  0  0  0  0  0
  -25.6505  -13.7468   19.5546 C   0  0  0  0  0  0  0  0  0  0  0  0
  -24.5949  -13.3878   21.6979 C   0  0  0  0  0  0  0  0  0  0  0  0
  -22.3783  -27.3336   19.4018 C   0  0  0  0  0  0  0  0  0  0  0  0
  -24.8628   -9.7702   21.9415 C   0  0  0  0  0  0  0  0  0  0  0  0
  -23.8827   -8.8403   22.2879 C   0  0  0  0  0  0  0  0  0  0  0  0
  -22.5734  -28.2107   21.6406 C   0  0  0  0  0  0  0  0  0  0  0  0
  -21.0490  -25.1021   25.5282 C   0  0  0  0  0  0  0  0  0  0  0  0
  -22.4688   -9.6692   20.5128 C   0  0  0  0  0  0  0  0  0  0  0  0
  -24.6165  -15.5954   20.7167 C   0  0  0  0  0  0  0  0  0  0  0  0
  -23.0903  -17.5969   20.3013 C   0  0  0  0  0  0  0  0  0  0  0  0
  -30.0111  -25.3495   18.9039 C   0  0  0  0  0  0  0  0  0  0  0  0
  -24.3373  -28.6210   20.0342 C   0  0  0  0  0  0  0  0  0  0  0  0
  -28.7868  -25.4969   19.5834 C   0  0  0  0  0  0  0  0  0  0  0  0
  -23.8118  -28.7894   21.3233 C   0  0  0  0  0  0  0  0  0  0  0  0
  -20.4441  -24.3240   24.5473 C   0  0  0  0  0  0  0  0  0  0  0  0
  -25.2915  -12.8913   20.5961 C   0  0  0  0  0  0  0  0  0  0  0  0
  -21.8617  -27.4854   20.6853 C   0  0  0  0  0  0  0  0  0  0  0  0
  -24.6460  -10.6497   20.8807 C   0  0  0  0  0  0  0  0  0  0  0  0
  -22.1685  -24.6205   26.1975 C   0  0  0  0  0  0  0  0  0  0  0  0
  -22.6856   -8.7897   21.5736 C   0  0  0  0  0  0  0  0  0  0  0  0
  -23.4490  -10.5992   20.1664 C   0  0  0  0  0  0  0  0  0  0  0  0
  -24.2680  -16.9921   20.7798 C   0  0  0  0  0  0  0  0  0  0  0  0
  -22.6405  -23.3645   25.8516 C   0  0  0  0  0  0  0  0  0  0  0  0
  -20.9934  -23.0814   24.2752 C   0  0  0  0  0  0  0  0  0  0  0  0
  -23.2423  -18.9288   20.6003 C   0  0  0  0  0  0  0  0  0  0  0  0
  -21.9598  -17.0074   19.6454 C   0  0  0  0  0  0  0  0  0  0  0  0
  -27.1823  -28.2794   21.4100 C   0  0  0  0  0  0  0  0  0  0  0  0
  -26.4703  -31.1680   22.7027 C   0  0  0  0  0  0  0  0  0  0  0  0
  -24.0763  -33.4184   23.6256 C   0  0  0  0  0  0  0  0  0  0  0  0
  -25.3973  -22.3841   24.6255 C   0  0  0  0  0  0  0  0  0  0  0  0
  -31.2811  -25.9861   19.4104 C   0  0  0  0  0  0  0  0  0  0  0  0
  -25.6507  -29.2507   19.6588 C   0  0  0  0  0  0  0  0  0  0  0  0
  -24.5449  -29.5693   22.3829 C   0  0  0  0  0  0  0  0  0  0  0  0
  -31.0404  -27.1119   20.4128 C   0  0  0  0  0  0  0  0  0  0  0  0
  -24.6015  -20.9191   27.8457 C   0  0  0  0  0  0  0  0  0  0  0  0
  -27.0642  -21.8824   21.5924 C   0  0  0  0  0  0  0  0  0  0  0  0
  -30.0170  -26.6844   21.4601 C   0  0  0  0  0  0  0  0  0  0  0  0
  -23.4826  -21.9507   27.7766 C   0  0  0  0  0  0  0  0  0  0  0  0
  -26.4220  -20.6196   21.0214 C   0  0  0  0  0  0  0  0  0  0  0  0
  -27.2439  -21.7651   23.1008 C   0  0  0  0  0  0  0  0  0  0  0  0
  -24.8711  -20.6151   26.3802 C   0  0  0  0  0  0  0  0  0  0  0  0
  -25.3035  -20.2365   23.2763 C   0  0  0  0  0  0  0  0  0  0  0  0
  -28.6628  -26.3710   20.8125 C   0  0  1  0  0  0  0  0  0  0  0  0
  -23.8540  -22.7933   26.5493 C   0  0  1  0  0  0  0  0  0  0  0  0
  -26.5469  -29.5260   20.8622 C   0  0  1  0  0  0  0  0  0  0  0  0
  -25.1050  -20.3004   21.7480 C   0  0  2  0  0  0  0  0  0  0  0  0
  -20.3856  -22.2026   23.2314 C   0  0  0  0  0  0  0  0  0  0  0  0
  -23.7986  -35.6735   24.6908 C   0  0  0  0  0  0  0  0  0  0  0  0
  -27.0326  -29.9419   25.4395 C   0  0  0  0  0  0  0  0  0  0  0  0
  -25.8479  -31.8881   26.4775 C   0  0  0  0  0  0  0  0  0  0  0  0
  -27.9164  -32.2613   25.1341 C   0  0  0  0  0  0  0  0  0  0  0  0
  -22.7919  -34.5329   21.2034 C   0  0  0  0  0  0  0  0  0  0  0  0
  -22.1971  -26.6523   27.4330 C   0  0  0  0  0  0  0  0  0  0  0  0
  -19.2449  -24.8346   23.8262 C   0  0  0  0  0  0  0  0  0  0  0  0
  -19.5277  -25.3349   22.4000 C   0  0  0  0  0  0  0  0  0  0  0  0
  -20.4713  -26.5315   22.3623 C   0  0  0  0  0  0  0  0  0  1  0  0
  -25.7692  -31.6352   23.9554 C   0  0  1  0  0  0  0  0  0  0  0  0
  -23.9507  -34.9117   23.3834 C   0  0  2  0  0  0  0  0  0  0  0  0
  -26.6284  -31.4152   25.2324 C   0  0  0  0  0  0  0  0  0  0  0  0
  -25.1065  -17.8679   21.3400 N   0  0  0  0  0  0  0  0  0  0  0  0
  -22.0798  -22.5798   24.9043 N   0  0  0  0  0  0  0  0  0  0  0  0
  -24.4549  -19.0367   21.2153 N   0  0  0  0  0  0  0  0  0  0  0  0
  -25.8281  -30.1605   21.9690 N   0  0  0  0  0  0  0  0  0  0  0  0
  -25.9814  -21.4438   23.7673 N   0  0  0  0  0  0  0  0  0  0  0  0
  -24.6517  -21.8937   25.7015 N   0  0  0  0  0  0  0  0  0  0  0  0
  -22.4559  -20.0065   20.3943 N   0  0  0  0  0  0  0  0  0  0  0  0
  -21.9664  -15.6247   19.4162 N   0  0  0  0  0  0  0  0  0  0  0  0
  -27.9592  -27.5951   20.4947 N   0  0  0  0  0  0  0  0  0  0  0  0
  -25.3946  -33.0253   23.7193 N   0  0  0  0  0  0  0  0  0  0  0  0
  -22.7632  -35.2001   22.5305 N   0  3  0  0  0  0  0  0  0  0  0  0
  -20.9803  -17.6891   19.2588 O   0  0  0  0  0  0  0  0  0  0  0  0
  -26.9837  -27.9627   22.5770 O   0  0  0  0  0  0  0  0  0  0  0  0
  -27.5445  -31.6833   22.3830 O   0  0  0  0  0  0  0  0  0  0  0  0
  -23.1023  -32.6756   23.7256 O   0  0  0  0  0  0  0  0  0  0  0  0
  -25.5513  -23.6000   24.4531 O   0  0  0  0  0  0  0  0  0  0  0  0
  -25.6204  -11.5718   20.5375 O   0  0  0  0  0  0  0  0  0  0  0  0
  -22.7671  -25.3721   27.1564 O   0  0  0  0  0  0  0  0  0  0  0  0
  -20.6527  -26.9272   21.0088 O   0  0  0  0  0  0  0  0  0  1  0  0
  -21.7451   -7.8956   21.9054 F   0  0  0  0  0  0  0  0  0  0  0  0
  -23.2354  -11.4408   19.1456 F   0  0  0  0  0  0  0  0  0  0  0  0
  1  2  1  0  0  0  0
  1  5  2  0  0  0  0
  2  6  2  0  0  0  0
  3  8  2  0  0  0  0
  3 16  1  0  0  0  0
  4  9  1  0  0  0  0
  4 16  2  0  0  0  0
  5 18  1  0  0  0  0
  6 20  1  0  0  0  0
  7 10  2  0  0  0  0
  7 19  1  0  0  0  0
  8 23  1  0  0  0  0
  9 23  2  0  0  0  0
 10 24  1  0  0  0  0
 11 12  2  0  0  0  0
 11 25  1  0  0  0  0
 12 27  1  0  0  0  0
 13 21  1  0  0  0  0
 13 24  2  0  0  0  0
 14 22  1  0  0  0  0
 14 26  2  0  0  0  0
 15 27  2  0  0  0  0
 15 28  1  0  0  0  0
 16 29  1  0  0  0  0
 17 29  1  0  0  0  0
 17 32  2  0  0  0  0
 17 33  1  0  0  0  0
 18 20  2  0  0  0  0
 18 38  1  0  0  0  0
 19 21  2  0  0  0  0
 19 39  1  0  0  0  0
 20 50  1  0  0  0  0
 21 40  1  0  0  0  0
 22 31  2  0  0  0  0
 22 61  1  0  0  0  0
 23 83  1  0  0  0  0
 24 85  1  0  0  0  0
 25 28  2  0  0  0  0
 25 83  1  0  0  0  0
 26 30  1  0  0  0  0
 26 84  1  0  0  0  0
 27 86  1  0  0  0  0
 28 87  1  0  0  0  0
 29 67  2  0  0  0  0
 30 51  1  0  0  0  0
 30 68  2  0  0  0  0
 31 54  1  0  0  0  0
 31 68  1  0  0  0  0
 32 69  1  0  0  0  0
 32 73  1  0  0  0  0
 33 74  1  0  0  0  0
 33 78  2  0  0  0  0
 34 52  1  0  0  0  0
 34 75  1  0  0  0  0
 34 79  2  0  0  0  0
 35 64  1  0  0  0  0
 35 70  1  0  0  0  0
 35 80  2  0  0  0  0
 36 65  1  0  0  0  0
 36 76  1  0  0  0  0
 36 81  2  0  0  0  0
 37 71  1  0  0  0  0
 37 72  1  0  0  0  0
 37 82  2  0  0  0  0
 38 41  1  0  0  0  0
 39 52  1  0  0  0  0
 40 70  1  0  0  0  0
 41 44  1  0  0  0  0
 42 45  1  0  0  0  0
 42 48  1  0  0  0  0
 43 46  1  0  0  0  0
 43 47  1  0  0  0  0
 44 50  1  0  0  0  0
 45 51  1  0  0  0  0
 46 53  1  0  0  0  0
 47 71  1  0  0  0  0
 48 72  1  0  0  0  0
 49 53  1  0  0  0  0
 49 71  1  0  0  0  0
 50 75  1  0  0  0  0
 51 72  1  0  0  0  0
 52 70  1  0  0  0  0
 53 69  1  0  0  0  0
 55 65  1  0  0  0  0
 56 66  1  0  0  0  0
 57 66  1  0  0  0  0
 58 66  1  0  0  0  0
 59 77  1  0  0  0  0
 60 84  1  0  0  0  0
 61 62  1  0  0  0  0
 62 63  1  0  0  0  0
 63 85  1  0  0  0  0
 64 66  1  0  0  0  0
 64 76  1  0  0  0  0
 65 77  1  0  0  0  0
 67 69  1  0  0  0  0
M  CHG  1  77   1
M  ISO  4  37 100  63 101  72 100  85 101
M  END
> <Batch ID>
0163

> <Smiles>
CNC(C)C(=O)NC(C(=O)N1Cc2cc([101O:1][101CH2:1]CCc3cc(OC)c(C4CCC[100N:0]4[100C:0](=O)N4CCCC(n5nc(-c6ccc(Oc7ccc(F)cc7F)cc6)c(C(N)=O)c5N)C4)nc3C)ccc2CC1C(=O)NC1CCCc2ccccc21)C(C)(C)C

> <Shape>
0.258

> <Color>
0.077

> <Negative vol penalty>
0.000

$$$$

  -OEChem-04052322173D

 91101  0     1  0  0  0  0  0999 V2000
  -16.6316  -29.7612   19.7865 C   0  0  0  0  0  0  0  0  0  0  0  0
  -17.8500  -29.5263   19.1574 C   0  0  0  0  0  0  0  0  0  0  0  0
  -23.0248   -9.9693   19.9489 C   0  0  0  0  0  0  0  0  0  0  0  0
  -24.0905   -9.8008   22.1106 C   0  0  0  0  0  0  0  0  0  0  0  0
  -16.5150  -29.5869   21.1648 C   0  0  0  0  0  0  0  0  0  0  0  0
  -18.9529  -29.1180   19.9066 C   0  0  0  0  0  0  0  0  0  0  0  0
  -22.3126  -22.9081   18.4781 C   0  0  0  0  0  0  0  0  0  0  0  0
  -22.3445   -8.7760   20.1912 C   0  0  0  0  0  0  0  0  0  0  0  0
  -23.4102   -8.6074   22.3530 C   0  0  0  0  0  0  0  0  0  0  0  0
  -23.1375  -21.8375   18.1323 C   0  0  0  0  0  0  0  0  0  0  0  0
  -20.0526   -5.9612   20.3906 C   0  0  0  0  0  0  0  0  0  0  0  0
  -18.6937   -5.9148   20.0797 C   0  0  0  0  0  0  0  0  0  0  0  0
  -24.5548  -22.3008   20.0362 C   0  0  0  0  0  0  0  0  0  0  0  0
  -18.2767   -7.7168   21.6341 C   0  0  0  0  0  0  0  0  0  0  0  0
  -23.8979  -10.4817   20.9086 C   0  0  0  0  0  0  0  0  0  0  0  0
  -24.1712  -13.0172   20.9726 C   0  0  0  0  0  0  0  0  0  0  0  0
  -17.6145  -29.1669   21.9299 C   0  0  0  0  0  0  0  0  0  0  0  0
  -22.5973  -23.6704   19.6144 C   0  0  0  0  0  0  0  0  0  0  0  0
  -18.8513  -28.9392   21.2967 C   0  0  0  0  0  0  0  0  0  0  0  0
  -23.7251  -23.3666   20.3946 C   0  0  0  0  0  0  0  0  0  0  0  0
  -27.1336  -19.0909   21.2541 C   0  0  0  0  0  0  0  0  0  0  0  0
  -28.4802  -20.5591   19.8873 C   0  0  0  0  0  0  0  0  0  0  0  0
  -28.3596  -19.6952   20.9757 C   0  0  0  0  0  0  0  0  0  0  0  0
  -26.0282  -19.3506   20.4441 C   0  0  0  0  0  0  0  0  0  0  0  0
  -27.3747  -20.8188   19.0773 C   0  0  0  0  0  0  0  0  0  0  0  0
  -22.5371   -8.0951   21.3932 C   0  0  0  0  0  0  0  0  0  0  0  0
  -24.2560  -21.5349   18.9093 C   0  0  0  0  0  0  0  0  0  0  0  0
  -20.5237   -6.8854   21.3232 C   0  0  0  0  0  0  0  0  0  0  0  0
  -26.1488  -20.2146   19.3557 C   0  0  0  0  0  0  0  0  0  1  0  0
  -17.8057   -6.7927   20.7015 C   0  0  0  0  0  0  0  0  0  0  0  0
  -19.6357   -7.7632   21.9450 C   0  0  0  0  0  0  0  0  0  0  0  0
  -24.6013  -11.7141   20.6586 C   0  0  0  0  0  0  0  0  0  0  0  0
  -25.1888  -13.8294   20.5351 C   0  0  0  0  0  0  0  0  0  0  0  0
  -22.9601  -13.4545   21.6032 C   0  0  0  0  0  0  0  0  0  0  0  0
  -21.6037  -26.5319   21.8281 C   0  0  0  0  0  0  0  0  0  0  0  0
  -22.5521  -24.2688   23.6691 C   0  0  0  0  0  0  0  0  0  0  0  0
  -23.2730  -21.3925   25.3556 C   0  0  0  0  0  0  0  0  0  0  0  0
  -30.7555  -14.6466   20.5367 C   0  0  0  0  0  0  0  0  0  0  0  0
  -17.4525  -29.0378   23.4238 C   0  0  0  0  0  0  0  0  0  0  0  0
  -21.7712  -24.8705   19.9901 C   0  0  0  0  0  0  0  0  0  0  0  0
  -24.0119  -24.2355   21.5886 C   0  0  0  0  0  0  0  0  0  0  0  0
  -18.5708  -28.2414   24.0912 C   0  0  0  0  0  0  0  0  0  0  0  0
  -29.2084  -12.8305   17.6509 C   0  0  0  0  0  0  0  0  0  0  0  0
  -19.9324  -28.7031   23.5816 C   0  0  0  0  0  0  0  0  0  0  0  0
  -29.4459  -21.1518   23.8286 C   0  0  0  0  0  0  0  0  0  0  0  0
  -30.8409  -20.5917   23.8296 C   0  0  0  0  0  0  0  0  0  0  0  0
  -27.8610  -12.4298   18.2494 C   0  0  0  0  0  0  0  0  0  0  0  0
  -31.5114  -17.7815   21.9546 C   0  0  0  0  0  0  0  0  0  0  0  0
  -30.1628  -17.9952   19.8278 C   0  0  0  0  0  0  0  0  0  0  0  0
  -30.2783  -12.9520   18.7294 C   0  0  0  0  0  0  0  0  0  0  0  0
  -30.7586  -16.4860   22.2797 C   0  0  0  0  0  0  0  0  0  0  0  0
  -29.4266  -16.7096   20.2028 C   0  0  0  0  0  0  0  0  0  0  0  0
  -28.5716  -13.4988   20.4363 C   0  0  0  0  0  0  0  0  0  0  0  0
  -20.0640  -28.4713   22.0715 C   0  0  1  0  0  0  0  0  0  0  0  0
  -21.6478  -25.0658   21.5118 C   0  0  1  0  0  0  0  0  0  0  0  0
  -30.0689  -20.6835   22.5427 C   0  0  0  0  0  0  0  0  0  0  0  0
  -27.4570  -13.3874   19.3831 C   0  0  2  0  0  0  0  0  0  0  0  0
  -30.6871  -18.7321   21.0714 C   0  0  0  0  0  0  0  0  0  0  0  0
  -27.0042  -18.1635   22.4213 C   0  0  0  0  0  0  0  0  0  0  0  0
  -29.7947  -21.2085   19.5885 C   0  0  0  0  0  0  0  0  0  0  0  0
  -24.7108  -18.7059   20.7369 C   0  0  0  0  0  0  0  0  0  0  0  0
  -27.4975  -21.7441   17.9082 C   0  0  0  0  0  0  0  0  0  0  0  0
  -23.4841  -20.4727   27.6809 C   0  0  0  0  0  0  0  0  0  0  0  0
  -25.2409  -25.6755   23.9775 C   0  0  0  0  0  0  0  0  0  0  0  0
  -25.8115  -24.0361   25.7816 C   0  0  0  0  0  0  0  0  0  0  0  0
  -23.8696  -25.5758   26.0665 C   0  0  0  0  0  0  0  0  0  0  0  0
  -21.1177  -19.4174   24.8947 C   0  0  0  0  0  0  0  0  0  0  0  0
  -29.5606  -19.4138   21.8575 C   0  0  2  0  0  0  0  0  0  0  0  0
  -23.6990  -23.6550   24.4314 C   0  0  1  0  0  0  0  0  0  0  0  0
  -22.5585  -20.6855   26.4931 C   0  0  2  0  0  0  0  0  0  0  0  0
  -24.6482  -24.7266   25.0382 C   0  0  0  0  0  0  0  0  0  0  0  0
  -25.7988  -11.6948   20.0673 N   0  0  0  0  0  0  0  0  0  0  0  0
  -26.1298  -12.9959   20.0061 N   0  0  0  0  0  0  0  0  0  0  0  0
  -22.7628  -24.5273   22.3092 N   0  0  0  0  0  0  0  0  0  0  0  0
  -29.8544  -13.8424   19.8188 N   0  0  0  0  0  0  0  0  0  0  0  0
  -30.2568  -15.8533   21.0514 N   0  0  0  0  0  0  0  0  0  0  0  0
  -25.3614  -15.1681   20.5552 N   0  0  0  0  0  0  0  0  0  0  0  0
  -22.0215  -12.4880   21.9898 N   0  0  0  0  0  0  0  0  0  0  0  0
  -20.3340  -27.0764   21.7960 N   0  0  0  0  0  0  0  0  0  0  0  0
  -23.1018  -22.7594   25.4161 N   0  0  0  0  0  0  0  0  0  0  0  0
  -31.6007  -19.8257   20.6011 N   0  3  0  0  0  0  0  0  0  0  0  0
  -22.0578  -19.3558   26.0434 N   0  3  0  0  0  0  0  0  0  0  0  0
  -22.7101  -14.6674   21.8028 O   0  0  0  0  0  0  0  0  0  0  0  0
  -22.6442  -27.1264   22.0841 O   0  0  0  0  0  0  0  0  0  0  0  0
  -21.4988  -24.5186   24.2619 O   0  0  0  0  0  0  0  0  0  0  0  0
  -23.9216  -20.7927   24.5012 O   0  0  0  0  0  0  0  0  0  0  0  0
  -31.9319  -14.3040   20.7090 O   0  0  0  0  0  0  0  0  0  0  0  0
  -21.8733   -6.9307   21.6301 O   0  0  0  0  0  0  0  0  0  0  0  0
  -25.0677  -20.4683   18.5629 O   0  0  0  0  0  0  0  0  0  1  0  0
  -16.5009   -6.7490   20.4018 F   0  0  0  0  0  0  0  0  0  0  0  0
  -20.0824   -8.6540   22.8409 F   0  0  0  0  0  0  0  0  0  0  0  0
  1  2  1  0  0  0  0
  1  5  2  0  0  0  0
  2  6  2  0  0  0  0
  3  8  2  0  0  0  0
  3 15  1  0  0  0  0
  4  9  1  0  0  0  0
  4 15  2  0  0  0  0
  5 17  1  0  0  0  0
  6 19  1  0  0  0  0
  7 10  2  0  0  0  0
  7 18  1  0  0  0  0
  8 26  1  0  0  0  0
  9 26  2  0  0  0  0
 10 27  1  0  0  0  0
 11 12  2  0  0  0  0
 11 28  1  0  0  0  0
 12 30  1  0  0  0  0
 13 20  1  0  0  0  0
 13 27  2  0  0  0  0
 14 30  2  0  0  0  0
 14 31  1  0  0  0  0
 15 32  1  0  0  0  0
 16 32  1  0  0  0  0
 16 33  2  0  0  0  0
 16 34  1  0  0  0  0
 17 19  2  0  0  0  0
 17 39  1  0  0  0  0
 18 20  2  0  0  0  0
 18 40  1  0  0  0  0
 19 54  1  0  0  0  0
 20 41  1  0  0  0  0
 21 23  1  0  0  0  0
 21 24  2  0  0  0  0
 21 59  1  0  0  0  0
 22 23  2  0  0  0  0
 22 25  1  0  0  0  0
 22 60  1  0  0  0  0
 23 68  1  0  0  0  0
 24 29  1  0  0  0  0
 24 61  1  0  0  0  0
 25 29  2  0  0  0  0
 25 62  1  0  0  0  0
 26 88  1  0  0  0  0
 27 89  1  0  0  0  0
 28 31  2  0  0  0  0
 28 88  1  0  0  0  0
 29 89  1  0  0  0  0
 30 90  1  0  0  0  0
 31 91  1  0  0  0  0
 32 72  2  0  0  0  0
 33 73  1  0  0  0  0
 33 77  1  0  0  0  0
 34 78  1  0  0  0  0
 34 83  2  0  0  0  0
 35 55  1  0  0  0  0
 35 79  1  0  0  0  0
 35 84  2  0  0  0  0
 36 69  1  0  0  0  0
 36 74  1  0  0  0  0
 36 85  2  0  0  0  0
 37 70  1  0  0  0  0
 37 80  1  0  0  0  0
 37 86  2  0  0  0  0
 38 75  1  0  0  0  0
 38 76  1  0  0  0  0
 38 87  2  0  0  0  0
 39 42  1  0  0  0  0
 40 55  1  0  0  0  0
 41 74  1  0  0  0  0
 42 44  1  0  0  0  0
 43 47  1  0  0  0  0
 43 50  1  0  0  0  0
 44 54  1  0  0  0  0
 45 46  1  0  0  0  0
 45 56  1  0  0  0  0
 46 56  1  0  0  0  0
 47 57  1  0  0  0  0
 48 51  1  0  0  0  0
 48 58  1  0  0  0  0
 49 52  1  0  0  0  0
 49 58  1  0  0  0  0
 50 75  1  0  0  0  0
 51 76  1  0  0  0  0
 52 76  1  0  0  0  0
 53 57  1  0  0  0  0
 53 75  1  0  0  0  0
 54 79  1  0  0  0  0
 55 74  1  0  0  0  0
 56 68  1  0  0  0  0
 57 73  1  0  0  0  0
 58 68  1  0  0  0  0
 58 81  1  0  0  0  0
 63 70  1  0  0  0  0
 64 71  1  0  0  0  0
 65 71  1  0  0  0  0
 66 71  1  0  0  0  0
 67 82  1  0  0  0  0
 69 71  1  0  0  0  0
 69 80  1  0  0  0  0
 70 82  1  0  0  0  0
 72 73  1  0  0  0  0
M  CHG  2  81   1  82   1
M  ISO  4  29 101  38 100  76 100  89 101
M  END
> <Batch ID>
0163

> <Smiles>
CNC(C)C(=O)NC(C(=O)N1Cc2cc([101O:1][101c:1]3c(C)c(C)c(C(C4CC4)C4(N)CC[100N:0]([100C:0](=O)N5CCCC(n6nc(-c7ccc(Oc8ccc(F)cc8F)cc7)c(C(N)=O)c6N)C5)CC4)c(C)c3C)ccc2CC1C(=O)NC1CCCc2ccccc21)C(C)(C)C

> <Shape>
0.235

> <Color>
0.173

> <Negative vol penalty>
0.000

$$$$

  -OEChem-04052322173D

 83 91  0     1  0  0  0  0  0999 V2000
  -20.2550  -12.2183   26.8065 C   0  0  0  0  0  0  0  0  0  0  0  0
  -20.8832  -13.3960   27.1988 C   0  0  0  0  0  0  0  0  0  0  0  0
  -22.2952  -30.1946   20.0525 C   0  0  0  0  0  0  0  0  0  0  0  0
  -22.5255  -28.8203   22.0262 C   0  0  0  0  0  0  0  0  0  0  0  0
  -20.8717  -11.3746   25.8837 C   0  0  0  0  0  0  0  0  0  0  0  0
  -22.1291  -13.7300   26.6693 C   0  0  0  0  0  0  0  0  0  0  0  0
  -24.1996  -19.3504   25.3922 C   0  0  0  0  0  0  0  0  0  0  0  0
  -20.9228  -29.9459   20.0394 C   0  0  0  0  0  0  0  0  0  0  0  0
  -21.1530  -28.5716   22.0131 C   0  0  0  0  0  0  0  0  0  0  0  0
  -25.0308  -20.2250   26.0907 C   0  0  0  0  0  0  0  0  0  0  0  0
  -18.3229  -30.1812   22.9185 C   0  0  0  0  0  0  0  0  0  0  0  0
  -17.6379  -30.2713   24.1302 C   0  0  0  0  0  0  0  0  0  0  0  0
  -26.9212  -19.4364   24.8164 C   0  0  0  0  0  0  0  0  0  0  0  0
  -16.9698  -27.9586   23.9246 C   0  0  0  0  0  0  0  0  0  0  0  0
  -23.0966  -29.6318   21.0459 C   0  0  0  0  0  0  0  0  0  0  0  0
  -25.1819  -30.9401   21.7147 C   0  0  0  0  0  0  0  0  0  0  0  0
  -22.1215  -11.7032   25.3353 C   0  0  0  0  0  0  0  0  0  0  0  0
  -24.7256  -18.5030   24.4065 C   0  0  0  0  0  0  0  0  0  0  0  0
  -22.7638  -12.8892   25.7392 C   0  0  0  0  0  0  0  0  0  0  0  0
  -26.0941  -18.5538   24.1050 C   0  0  0  0  0  0  0  0  0  0  0  0
  -30.0694  -24.7067   24.4253 C   0  0  0  0  0  0  0  0  0  0  0  0
  -29.5149  -24.4608   25.6764 C   0  0  0  0  0  0  0  0  0  0  0  0
  -29.4525  -24.2016   23.2861 C   0  0  0  0  0  0  0  0  0  0  0  0
  -20.3517  -29.1344   21.0197 C   0  0  0  0  0  0  0  0  0  0  0  0
  -26.3923  -20.2660   25.8049 C   0  0  0  0  0  0  0  0  0  0  0  0
  -18.3313  -28.9798   22.2098 C   0  0  0  0  0  0  0  0  0  0  0  0
  -16.9613  -29.1601   24.6333 C   0  0  0  0  0  0  0  0  0  0  0  0
  -17.6548  -27.8685   22.7128 C   0  0  0  0  0  0  0  0  0  0  0  0
  -24.5145  -29.8879   21.0597 C   0  0  0  0  0  0  0  0  0  0  0  0
  -28.3517  -23.7101   25.7340 C   0  0  0  0  0  0  0  0  0  0  0  0
  -28.2923  -23.4624   23.4507 C   0  0  0  0  0  0  0  0  0  0  0  0
  -26.5088  -30.7401   21.4217 C   0  0  0  0  0  0  0  0  0  0  0  0
  -24.6501  -32.0031   22.5165 C   0  0  0  0  0  0  0  0  0  0  0  0
  -24.9202  -15.3531   24.0270 C   0  0  0  0  0  0  0  0  0  0  0  0
  -26.0953  -16.1683   21.1154 C   0  0  0  0  0  0  0  0  0  0  0  0
  -27.6449  -18.5021   19.1664 C   0  0  0  0  0  0  0  0  0  0  0  0
  -29.6675  -25.8767   19.9314 C   0  0  0  0  0  0  0  0  0  0  0  0
  -22.7705  -10.7365   24.3767 C   0  0  0  0  0  0  0  0  0  0  0  0
  -23.8111  -17.5844   23.6434 C   0  0  0  0  0  0  0  0  0  0  0  0
  -26.7049  -17.6793   23.0418 C   0  0  0  0  0  0  0  0  0  0  0  0
  -23.9201  -11.3479   23.5801 C   0  0  0  0  0  0  0  0  0  0  0  0
  -29.3629  -28.8888   18.0576 C   0  0  0  0  0  0  0  0  0  0  0  0
  -24.8476  -12.1355   24.5001 C   0  0  0  0  0  0  0  0  0  0  0  0
  -28.1460  -29.5813   18.6736 C   0  0  0  0  0  0  0  0  0  0  0  0
  -29.1881  -27.3723   18.0157 C   0  0  0  0  0  0  0  0  0  0  0  0
  -27.6331  -27.4445   19.9264 C   0  0  0  0  0  0  0  0  0  0  0  0
  -24.1043  -13.2984   25.1685 C   0  0  1  0  0  0  0  0  0  0  0  0
  -24.5406  -16.3996   23.0178 C   0  0  1  0  0  0  0  0  0  0  0  0
  -27.7861  -28.9708   20.0414 C   0  0  2  0  0  0  0  0  0  0  0  0
  -31.3256  -25.5092   24.3051 C   0  0  0  0  0  0  0  0  0  0  0  0
  -30.1530  -24.9903   26.9167 C   0  0  0  0  0  0  0  0  0  0  0  0
  -27.5856  -22.8917   22.2648 C   0  0  0  0  0  0  0  0  0  0  0  0
  -28.5059  -18.8661   16.8376 C   0  0  0  0  0  0  0  0  0  0  0  0
  -28.5083  -14.4066   21.7349 C   0  0  0  0  0  0  0  0  0  0  0  0
  -29.7257  -15.5353   19.8608 C   0  0  0  0  0  0  0  0  0  0  0  0
  -27.6570  -14.2231   19.3905 C   0  0  0  0  0  0  0  0  0  0  0  0
  -25.8108  -20.7815   18.7199 C   0  0  0  0  0  0  0  0  0  0  0  0
  -30.0228  -24.4481   21.9294 C   0  0  0  0  0  0  0  0  0  0  0  0
  -27.7024  -23.4100   27.0632 C   0  0  0  0  0  0  0  0  0  0  0  0
  -26.6262  -22.3354   26.9533 C   0  0  0  0  0  0  0  0  0  1  0  0
  -27.4688  -16.4569   20.5595 C   0  0  1  0  0  0  0  0  0  0  0  0
  -27.3237  -19.0305   17.7800 C   0  0  2  0  0  0  0  0  0  0  0  0
  -28.3291  -15.1707   20.4079 C   0  0  0  0  0  0  0  0  0  0  0  0
  -25.3485  -29.0795   20.4001 N   0  0  0  0  0  0  0  0  0  0  0  0
  -27.7239  -23.2027   24.6496 N   0  0  0  0  0  0  0  0  0  0  0  0
  -26.5537  -29.6240   20.6392 N   0  0  0  0  0  0  0  0  0  0  0  0
  -25.7706  -16.7934   22.3277 N   0  0  0  0  0  0  0  0  0  0  0  0
  -28.8497  -26.8563   19.3443 N   0  0  0  0  0  0  0  0  0  0  0  0
  -27.6299  -31.4120   21.7597 N   0  0  0  0  0  0  0  0  0  0  0  0
  -23.2641  -32.0598   22.7167 N   0  0  0  0  0  0  0  0  0  0  0  0
  -23.9455  -14.3971   24.2400 N   0  0  0  0  0  0  0  0  0  0  0  0
  -27.2598  -17.1863   19.3134 N   0  0  0  0  0  0  0  0  0  0  0  0
  -29.2791  -25.4469   21.1944 N   0  0  0  0  0  0  0  0  0  0  0  0
  -26.9726  -20.4773   17.8455 N   0  3  0  0  0  0  0  0  0  0  0  0
  -25.3807  -32.8862   23.0262 O   0  0  0  0  0  0  0  0  0  0  0  0
  -26.0169  -15.4082   24.5710 O   0  0  0  0  0  0  0  0  0  0  0  0
  -25.3357  -15.4216   20.4933 O   0  0  0  0  0  0  0  0  0  0  0  0
  -28.1868  -19.1869   20.0312 O   0  0  0  0  0  0  0  0  0  0  0  0
  -30.6725  -25.4229   19.3737 O   0  0  0  0  0  0  0  0  0  0  0  0
  -19.0125  -28.8917   21.0073 O   0  0  0  0  0  0  0  0  0  0  0  0
  -27.2060  -21.1182   26.4856 O   0  0  0  0  0  0  0  0  0  1  0  0
  -16.3049  -29.2463   25.7976 F   0  0  0  0  0  0  0  0  0  0  0  0
  -17.6603  -26.7113   22.0370 F   0  0  0  0  0  0  0  0  0  0  0  0
  1  2  1  0  0  0  0
  1  5  2  0  0  0  0
  2  6  2  0  0  0  0
  3  8  2  0  0  0  0
  3 15  1  0  0  0  0
  4  9  1  0  0  0  0
  4 15  2  0  0  0  0
  5 17  1  0  0  0  0
  6 19  1  0  0  0  0
  7 10  2  0  0  0  0
  7 18  1  0  0  0  0
  8 24  1  0  0  0  0
  9 24  2  0  0  0  0
 10 25  1  0  0  0  0
 11 12  2  0  0  0  0
 11 26  1  0  0  0  0
 12 27  1  0  0  0  0
 13 20  1  0  0  0  0
 13 25  2  0  0  0  0
 14 27  2  0  0  0  0
 14 28  1  0  0  0  0
 15 29  1  0  0  0  0
 16 29  1  0  0  0  0
 16 32  2  0  0  0  0
 16 33  1  0  0  0  0
 17 19  2  0  0  0  0
 17 38  1  0  0  0  0
 18 20  2  0  0  0  0
 18 39  1  0  0  0  0
 19 47  1  0  0  0  0
 20 40  1  0  0  0  0
 21 22  1  0  0  0  0
 21 23  2  0  0  0  0
 21 50  1  0  0  0  0
 22 30  2  0  0  0  0
 22 51  1  0  0  0  0
 23 31  1  0  0  0  0
 23 58  1  0  0  0  0
 24 80  1  0  0  0  0
 25 81  1  0  0  0  0
 26 28  2  0  0  0  0
 26 80  1  0  0  0  0
 27 82  1  0  0  0  0
 28 83  1  0  0  0  0
 29 64  2  0  0  0  0
 30 59  1  0  0  0  0
 30 65  1  0  0  0  0
 31 52  1  0  0  0  0
 31 65  2  0  0  0  0
 32 66  1  0  0  0  0
 32 69  1  0  0  0  0
 33 70  1  0  0  0  0
 33 75  2  0  0  0  0
 34 48  1  0  0  0  0
 34 71  1  0  0  0  0
 34 76  2  0  0  0  0
 35 61  1  0  0  0  0
 35 67  1  0  0  0  0
 35 77  2  0  0  0  0
 36 62  1  0  0  0  0
 36 72  1  0  0  0  0
 36 78  2  0  0  0  0
 37 68  1  0  0  0  0
 37 73  1  0  0  0  0
 37 79  2  0  0  0  0
 38 41  1  0  0  0  0
 39 48  1  0  0  0  0
 40 67  1  0  0  0  0
 41 43  1  0  0  0  0
 42 44  1  0  0  0  0
 42 45  1  0  0  0  0
 43 47  1  0  0  0  0
 44 49  1  0  0  0  0
 45 68  1  0  0  0  0
 46 49  1  0  0  0  0
 46 68  1  0  0  0  0
 47 71  1  0  0  0  0
 48 67  1  0  0  0  0
 49 66  1  0  0  0  0
 53 62  1  0  0  0  0
 54 63  1  0  0  0  0
 55 63  1  0  0  0  0
 56 63  1  0  0  0  0
 57 74  1  0  0  0  0
 58 73  1  0  0  0  0
 59 60  1  0  0  0  0
 60 81  1  0  0  0  0
 61 63  1  0  0  0  0
 61 72  1  0  0  0  0
 62 74  1  0  0  0  0
 64 66  1  0  0  0  0
M  CHG  1  74   1
M  ISO  4  37 100  60 101  73 100  81 101
M  END
> <Batch ID>
0163

> <Smiles>
CNC(C)C(=O)NC(C(=O)N1Cc2cc([101O:1][101CH2:1]Cc3nc(C)c(C[100NH:0][100C:0](=O)N4CCCC(n5nc(-c6ccc(Oc7ccc(F)cc7F)cc6)c(C(N)=O)c5N)C4)c(C)c3C)ccc2CC1C(=O)NC1CCCc2ccccc21)C(C)(C)C

> <Shape>
0.184

> <Color>
0.064

> <Negative vol penalty>
0.000

$$$$

  -OEChem-04052322173D

 90100  0     1  0  0  0  0  0999 V2000
  -32.4692  -31.6785   25.0846 C   0  0  0  0  0  0  0  0  0  0  0  0
  -31.7639  -30.6232   24.5152 C   0  0  0  0  0  0  0  0  0  0  0  0
  -23.0050   -9.8810   19.9881 C   0  0  0  0  0  0  0  0  0  0  0  0
  -23.6461   -9.9857   22.3151 C   0  0  0  0  0  0  0  0  0  0  0  0
  -32.5798  -32.8898   24.4031 C   0  0  0  0  0  0  0  0  0  0  0  0
  -31.1677  -30.7790   23.2643 C   0  0  0  0  0  0  0  0  0  0  0  0
  -31.9685  -26.8100   20.2228 C   0  0  0  0  0  0  0  0  0  0  0  0
  -22.2151   -8.7630   20.2560 C   0  0  0  0  0  0  0  0  0  0  0  0
  -22.8562   -8.8677   22.5830 C   0  0  0  0  0  0  0  0  0  0  0  0
  -31.1929  -25.6725   20.4428 C   0  0  0  0  0  0  0  0  0  0  0  0
  -23.0757   -5.5147   22.2091 C   0  0  0  0  0  0  0  0  0  0  0  0
  -23.6225   -4.5114   23.0091 C   0  0  0  0  0  0  0  0  0  0  0  0
  -29.7506  -26.3103   18.6173 C   0  0  0  0  0  0  0  0  0  0  0  0
  -27.6526  -20.8265   22.4084 C   0  0  0  0  0  0  0  0  0  0  0  0
  -21.8418   -4.8193   24.6126 C   0  0  0  0  0  0  0  0  0  0  0  0
  -28.2265  -22.6084   23.8753 C   0  0  0  0  0  0  0  0  0  0  0  0
  -23.7206  -10.4923   21.0176 C   0  0  0  0  0  0  0  0  0  0  0  0
  -24.1436  -12.9976   20.7893 C   0  0  0  0  0  0  0  0  0  0  0  0
  -31.9929  -33.0574   23.1389 C   0  0  0  0  0  0  0  0  0  0  0  0
  -31.6341  -27.7133   19.2037 C   0  0  0  0  0  0  0  0  0  0  0  0
  -31.2694  -31.9941   22.5658 C   0  0  0  0  0  0  0  0  0  0  0  0
  -30.5251  -27.4571   18.3848 C   0  0  0  0  0  0  0  0  0  0  0  0
  -27.9262  -22.1772   22.5933 C   0  0  0  0  0  0  0  0  0  0  0  0
  -27.6871  -19.9606   23.4957 C   0  0  0  0  0  0  0  0  0  0  0  0
  -22.1406   -8.2564   21.5534 C   0  0  0  0  0  0  0  0  0  0  0  0
  -30.0821  -25.4241   19.6419 C   0  0  0  0  0  0  0  0  0  0  0  0
  -21.9119   -6.1703   22.6110 C   0  0  0  0  0  0  0  0  0  0  0  0
  -23.0056   -4.1637   24.2108 C   0  0  0  0  0  0  0  0  0  0  0  0
  -21.2950   -5.8226   23.8127 C   0  0  0  0  0  0  0  0  0  0  0  0
  -24.5372  -11.6468   20.7414 C   0  0  0  0  0  0  0  0  0  0  0  0
  -27.9983  -20.4911   24.7373 C   0  0  0  0  0  0  0  0  0  0  0  0
  -25.2749  -13.6972   20.4470 C   0  0  0  0  0  0  0  0  0  0  0  0
  -22.8693  -13.5688   21.1142 C   0  0  0  0  0  0  0  0  0  0  0  0
  -30.7972  -30.7783   19.1087 C   0  0  0  0  0  0  0  0  0  0  0  0
  -30.9904  -30.3289   15.9019 C   0  0  0  0  0  0  0  0  0  0  0  0
  -30.8868  -28.1603   13.2689 C   0  0  0  0  0  0  0  0  0  0  0  0
  -30.6601  -14.6494   20.6988 C   0  0  0  0  0  0  0  0  0  0  0  0
  -32.0993  -34.4006   22.4614 C   0  0  0  0  0  0  0  0  0  0  0  0
  -32.4965  -28.9217   18.9621 C   0  0  0  0  0  0  0  0  0  0  0  0
  -30.1354  -28.3852   17.2644 C   0  0  0  0  0  0  0  0  0  0  0  0
  -31.7561  -34.3618   20.9745 C   0  0  0  0  0  0  0  0  0  0  0  0
  -29.6836  -12.1266   18.5457 C   0  0  0  0  0  0  0  0  0  0  0  0
  -30.4718  -33.5718   20.7436 C   0  0  0  0  0  0  0  0  0  0  0  0
  -26.2081  -24.8699   20.4477 C   0  0  0  0  0  0  0  0  0  0  0  0
  -25.3908  -23.8727   21.2205 C   0  0  0  0  0  0  0  0  0  0  0  0
  -28.2220  -11.8777   18.9176 C   0  0  0  0  0  0  0  0  0  0  0  0
  -29.0664  -17.8943   21.5095 C   0  0  0  0  0  0  0  0  0  0  0  0
  -28.4599  -16.2180   23.2903 C   0  0  0  0  0  0  0  0  0  0  0  0
  -30.5337  -12.3485   19.7914 C   0  0  0  0  0  0  0  0  0  0  0  0
  -30.2831  -17.0456   21.1512 C   0  0  0  0  0  0  0  0  0  0  0  0
  -29.6902  -15.4044   22.9026 C   0  0  0  0  0  0  0  0  0  0  0  0
  -28.5895  -13.2278   21.0414 C   0  0  0  0  0  0  0  0  0  0  0  0
  -30.6298  -32.1163   21.1997 C   0  0  1  0  0  0  0  0  0  0  0  0
  -31.7649  -30.0406   18.2271 C   0  0  1  0  0  0  0  0  0  0  0  0
  -26.8033  -24.1727   21.6395 C   0  0  0  0  0  0  0  0  0  0  0  0
  -28.6558  -17.7073   22.9759 C   0  0  0  0  0  0  0  0  0  0  0  0
  -27.6809  -13.0042   19.8159 C   0  0  2  0  0  0  0  0  0  0  0  0
  -31.0392  -28.0931   10.7650 C   0  0  0  0  0  0  0  0  0  0  0  0
  -28.1538  -31.4353   15.7021 C   0  0  0  0  0  0  0  0  0  0  0  0
  -28.0168  -30.4756   13.3938 C   0  0  0  0  0  0  0  0  0  0  0  0
  -29.7118  -32.2300   13.9146 C   0  0  0  0  0  0  0  0  0  0  0  0
  -27.7244  -20.0349   27.1751 C   0  0  0  0  0  0  0  0  0  0  0  0
  -33.2723  -26.4103   13.3451 C   0  0  0  0  0  0  0  0  0  0  0  0
  -27.3900  -18.5004   23.2919 C   0  0  0  0  0  0  0  0  0  0  0  0
  -29.2562  -23.8219   21.1933 C   0  0  0  0  0  0  0  0  0  1  0  0
  -27.8963  -23.1296   21.4514 C   0  0  1  0  0  0  0  0  0  0  0  0
  -30.0282  -29.8922   14.8237 C   0  0  1  0  0  0  0  0  0  0  0  0
  -31.8057  -27.9824   12.0737 C   0  0  2  0  0  0  0  0  0  0  0  0
  -28.9836  -30.9916   14.4808 C   0  0  0  0  0  0  0  0  0  0  0  0
  -28.2698  -21.7973   24.9560 N   0  0  0  0  0  0  0  0  0  0  0  0
  -25.8184  -11.4950   20.3957 N   0  0  0  0  0  0  0  0  0  0  0  0
  -26.2396  -12.7595   20.2232 N   0  0  0  0  0  0  0  0  0  0  0  0
  -31.0064  -29.5565   17.0719 N   0  0  0  0  0  0  0  0  0  0  0  0
  -29.9848  -13.4221   20.6196 N   0  0  0  0  0  0  0  0  0  0  0  0
  -30.0798  -15.6417   21.5062 N   0  0  0  0  0  0  0  0  0  0  0  0
  -25.5285  -15.0169   20.3184 N   0  0  0  0  0  0  0  0  0  0  0  0
  -21.8146  -12.7063   21.4428 N   0  0  0  0  0  0  0  0  0  0  0  0
  -28.0349  -19.6121   25.8487 N   0  0  0  0  0  0  0  0  0  0  0  0
  -31.3783  -31.3581   20.2203 N   0  0  0  0  0  0  0  0  0  0  0  0
  -30.8470  -29.4721   13.6917 N   0  0  0  0  0  0  0  0  0  0  0  0
  -32.4643  -26.6463   12.1210 N   0  3  0  0  0  0  0  0  0  0  0  0
  -22.6674  -14.8068   21.0972 O   0  0  0  0  0  0  0  0  0  0  0  0
  -29.6115  -30.8198   18.8022 O   0  0  0  0  0  0  0  0  0  0  0  0
  -31.7066  -31.3148   15.7102 O   0  0  0  0  0  0  0  0  0  0  0  0
  -30.2636  -27.2293   13.7744 O   0  0  0  0  0  0  0  0  0  0  0  0
  -31.7145  -14.8507   20.0835 O   0  0  0  0  0  0  0  0  0  0  0  0
  -21.3697   -7.1656   21.8153 O   0  0  0  0  0  0  0  0  0  0  0  0
  -29.3181  -24.3079   19.8562 O   0  0  0  0  0  0  0  0  0  1  0  0
  -23.5301   -3.1991   24.9781 F   0  0  0  0  0  0  0  0  0  0  0  0
  -20.1761   -6.4481   24.2034 F   0  0  0  0  0  0  0  0  0  0  0  0
  1  2  1  0  0  0  0
  1  5  2  0  0  0  0
  2  6  2  0  0  0  0
  3  8  2  0  0  0  0
  3 17  1  0  0  0  0
  4  9  1  0  0  0  0
  4 17  2  0  0  0  0
  5 19  1  0  0  0  0
  6 21  1  0  0  0  0
  7 10  2  0  0  0  0
  7 20  1  0  0  0  0
  8 25  1  0  0  0  0
  9 25  2  0  0  0  0
 10 26  1  0  0  0  0
 11 12  2  0  0  0  0
 11 27  1  0  0  0  0
 12 28  1  0  0  0  0
 13 22  1  0  0  0  0
 13 26  2  0  0  0  0
 14 23  2  0  0  0  0
 14 24  1  0  0  0  0
 15 28  2  0  0  0  0
 15 29  1  0  0  0  0
 16 23  1  0  0  0  0
 16 70  2  0  0  0  0
 17 30  1  0  0  0  0
 18 30  1  0  0  0  0
 18 32  2  0  0  0  0
 18 33  1  0  0  0  0
 19 21  2  0  0  0  0
 19 38  1  0  0  0  0
 20 22  2  0  0  0  0
 20 39  1  0  0  0  0
 21 53  1  0  0  0  0
 22 40  1  0  0  0  0
 23 66  1  0  0  0  0
 24 31  2  0  0  0  0
 24 64  1  0  0  0  0
 25 87  1  0  0  0  0
 26 88  1  0  0  0  0
 27 29  2  0  0  0  0
 27 87  1  0  0  0  0
 28 89  1  0  0  0  0
 29 90  1  0  0  0  0
 30 71  2  0  0  0  0
 31 70  1  0  0  0  0
 31 78  1  0  0  0  0
 32 72  1  0  0  0  0
 32 76  1  0  0  0  0
 33 77  1  0  0  0  0
 33 82  2  0  0  0  0
 34 54  1  0  0  0  0
 34 79  1  0  0  0  0
 34 83  2  0  0  0  0
 35 67  1  0  0  0  0
 35 73  1  0  0  0  0
 35 84  2  0  0  0  0
 36 68  1  0  0  0  0
 36 80  1  0  0  0  0
 36 85  2  0  0  0  0
 37 74  1  0  0  0  0
 37 75  1  0  0  0  0
 37 86  2  0  0  0  0
 38 41  1  0  0  0  0
 39 54  1  0  0  0  0
 40 73  1  0  0  0  0
 41 43  1  0  0  0  0
 42 46  1  0  0  0  0
 42 49  1  0  0  0  0
 43 53  1  0  0  0  0
 44 45  1  0  0  0  0
 44 55  1  0  0  0  0
 45 55  1  0  0  0  0
 46 57  1  0  0  0  0
 47 50  1  0  0  0  0
 47 56  1  0  0  0  0
 48 51  1  0  0  0  0
 48 56  1  0  0  0  0
 49 74  1  0  0  0  0
 50 75  1  0  0  0  0
 51 75  1  0  0  0  0
 52 57  1  0  0  0  0
 52 74  1  0  0  0  0
 53 79  1  0  0  0  0
 54 73  1  0  0  0  0
 55 66  1  0  0  0  0
 56 64  1  0  0  0  0
 57 72  1  0  0  0  0
 58 68  1  0  0  0  0
 59 69  1  0  0  0  0
 60 69  1  0  0  0  0
 61 69  1  0  0  0  0
 62 78  1  0  0  0  0
 63 81  1  0  0  0  0
 65 66  1  0  0  0  0
 65 88  1  0  0  0  0
 67 69  1  0  0  0  0
 67 80  1  0  0  0  0
 68 81  1  0  0  0  0
 71 72  1  0  0  0  0
M  CHG  1  81   1
M  ISO  4  37 100  65 101  75 100  88 101
M  END
> <Batch ID>
0163

> <Smiles>
CNc1ncc(C(C2CC2)[101CH2:1][101O:1]c2ccc3c(c2)CN(C(=O)C(NC(=O)C(C)NC)C(C)(C)C)C(C(=O)NC2CCCc4ccccc42)C3)cc1CC1CC[100N:0]([100C:0](=O)N2CCCC(n3nc(-c4ccc(Oc5ccc(F)cc5F)cc4)c(C(N)=O)c3N)C2)CC1

> <Shape>
0.220

> <Color>
0.200

> <Negative vol penalty>
0.000

$$$$

  -OEChem-04052322173D

 86 95  0     1  0  0  0  0  0999 V2000
  -25.1450  -17.6247   23.6575 C   0  0  0  0  0  0  0  0  0  0  0  0
  -25.9182  -18.7751   23.5398 C   0  0  0  0  0  0  0  0  0  0  0  0
  -26.4237  -12.7279   21.6257 C   0  0  0  0  0  0  0  0  0  0  0  0
  -25.9896  -13.6131   19.4200 C   0  0  0  0  0  0  0  0  0  0  0  0
  -23.8903  -17.5645   23.0524 C   0  0  0  0  0  0  0  0  0  0  0  0
  -25.4377  -19.8658   22.8159 C   0  0  0  0  0  0  0  0  0  0  0  0
  -26.3953  -25.7936   24.0197 C   0  0  0  0  0  0  0  0  0  0  0  0
  -25.1800  -12.0965   21.6171 C   0  0  0  0  0  0  0  0  0  0  0  0
  -24.7459  -12.9816   19.4113 C   0  0  0  0  0  0  0  0  0  0  0  0
  -27.2949  -26.7230   23.4994 C   0  0  0  0  0  0  0  0  0  0  0  0
  -23.8100   -9.3104   20.2779 C   0  0  0  0  0  0  0  0  0  0  0  0
  -23.7522   -7.9864   20.7128 C   0  0  0  0  0  0  0  0  0  0  0  0
  -25.6007  -27.4953   21.9656 C   0  0  0  0  0  0  0  0  0  0  0  0
  -22.2133   -8.6281   22.4613 C   0  0  0  0  0  0  0  0  0  0  0  0
  -26.8285  -13.4862   20.5271 C   0  0  0  0  0  0  0  0  0  0  0  0
  -29.3374  -13.6123   20.0830 C   0  0  0  0  0  0  0  0  0  0  0  0
  -23.3901  -18.6585   22.3288 C   0  0  0  0  0  0  0  0  0  0  0  0
  -25.0928  -25.7005   23.5086 C   0  0  0  0  0  0  0  0  0  0  0  0
  -24.1758  -19.8197   22.1994 C   0  0  0  0  0  0  0  0  0  0  0  0
  -24.6857  -26.5656   22.4829 C   0  0  0  0  0  0  0  0  0  0  0  0
  -31.2252  -28.2010   20.7965 C   0  0  0  0  0  0  0  0  0  0  0  0
  -30.0049  -28.1685   20.0775 C   0  0  0  0  0  0  0  0  0  0  0  0
  -24.3411  -12.2234   20.5099 C   0  0  0  0  0  0  0  0  0  0  0  0
  -26.8986  -27.5721   22.4703 C   0  0  0  0  0  0  0  0  0  0  0  0
  -23.0696  -10.2933   20.9346 C   0  0  0  0  0  0  0  0  0  0  0  0
  -22.9538   -7.6452   21.8045 C   0  0  0  0  0  0  0  0  0  0  0  0
  -22.2712   -9.9521   22.0263 C   0  0  0  0  0  0  0  0  0  0  0  0
  -28.1129  -14.1392   20.5356 C   0  0  0  0  0  0  0  0  0  0  0  0
  -31.8586  -26.9960   20.5866 C   0  0  0  0  0  0  0  0  0  0  0  0
  -29.9297  -26.9445   19.4502 C   0  0  0  0  0  0  0  0  0  0  0  0
  -30.2470  -14.6170   20.3063 C   0  0  0  0  0  0  0  0  0  0  0  0
  -29.6268  -12.3295   19.5118 C   0  0  0  0  0  0  0  0  0  0  0  0
  -23.4138  -23.4320   22.0463 C   0  0  0  0  0  0  0  0  0  0  0  0
  -20.9948  -25.5721   22.3477 C   0  0  0  0  0  0  0  0  0  0  0  0
  -20.0345  -28.8260   22.7175 C   0  0  0  0  0  0  0  0  0  0  0  0
  -30.4166  -20.3550   19.9635 C   0  0  0  0  0  0  0  0  0  0  0  0
  -22.0482  -18.5292   21.6526 C   0  0  0  0  0  0  0  0  0  0  0  0
  -24.1261  -24.7109   24.0989 C   0  0  0  0  0  0  0  0  0  0  0  0
  -23.2923  -26.5197   21.9131 C   0  0  0  0  0  0  0  0  0  0  0  0
  -21.4537  -19.8663   21.2181 C   0  0  0  0  0  0  0  0  0  0  0  0
  -30.4326  -18.5869   23.2119 C   0  0  0  0  0  0  0  0  0  0  0  0
  -22.5057  -20.7130   20.5087 C   0  0  0  0  0  0  0  0  0  0  0  0
  -29.8901  -17.2212   22.8029 C   0  0  0  0  0  0  0  0  0  0  0  0
  -30.2478  -23.7282   19.1693 C   0  0  0  0  0  0  0  0  0  0  0  0
  -32.0770  -23.7771   20.2480 C   0  0  0  0  0  0  0  0  0  0  0  0
  -29.8316  -19.7182   22.3784 C   0  0  0  0  0  0  0  0  0  0  0  0
  -29.4393  -18.1471   20.4988 C   0  0  0  0  0  0  0  0  0  0  0  0
  -23.6787  -21.0326   21.4432 C   0  0  1  0  0  0  0  0  0  0  0  0
  -22.9842  -24.3537   23.1524 C   0  0  1  0  0  0  0  0  0  0  0  0
  -30.0735  -16.9964   21.2946 C   0  0  2  0  0  0  0  0  0  0  0  0
  -31.3973  -24.7761   19.2639 C   0  0  0  0  0  0  0  0  0  0  0  0
  -31.2886  -22.6511   19.5445 C   0  0  0  0  0  0  0  0  0  0  0  0
  -31.7285  -29.3184   21.6221 C   0  0  0  0  0  0  0  0  0  0  0  0
  -33.1542  -26.4984   21.0962 C   0  0  0  0  0  0  0  0  0  0  0  0
  -28.8763  -26.3852   18.5763 C   0  0  0  0  0  0  0  0  0  0  0  0
  -28.8020  -29.7919   18.5777 C   0  0  0  0  0  0  0  0  0  0  0  0
  -17.9884  -30.2680   22.8947 C   0  0  0  0  0  0  0  0  0  0  0  0
  -20.5419  -25.2945   19.3431 C   0  0  0  0  0  0  0  0  0  0  0  0
  -19.1842  -27.3965   19.4240 C   0  0  0  0  0  0  0  0  0  0  0  0
  -18.4492  -25.3888   20.7092 C   0  0  0  0  0  0  0  0  0  0  0  0
  -20.7932  -29.7719   25.4173 C   0  0  0  0  0  0  0  0  0  0  0  0
  -27.6155  -28.8361   20.5876 C   0  0  0  0  0  0  0  0  0  1  0  0
  -28.9673  -29.2781   20.0107 C   0  0  1  0  0  0  0  0  0  0  0  0
  -20.4569  -26.7032   21.5051 C   0  0  1  0  0  0  0  0  0  0  0  0
  -19.0419  -29.4824   23.6600 C   0  0  2  0  0  0  0  0  0  0  0  0
  -19.6850  -26.1955   20.2545 C   0  0  0  0  0  0  0  0  0  0  0  0
  -28.2305  -15.3820   21.0107 N   0  0  0  0  0  0  0  0  0  0  0  0
  -31.0617  -26.2401   19.7670 N   0  0  0  0  0  0  0  0  0  0  0  0
  -29.5396  -15.6444   20.8579 N   0  0  0  0  0  0  0  0  0  0  0  0
  -22.3857  -25.5306   22.5193 N   0  0  0  0  0  0  0  0  0  0  0  0
  -29.9480  -19.4532   20.9356 N   0  0  0  0  0  0  0  0  0  0  0  0
  -31.5748  -14.7129   20.0827 N   0  0  0  0  0  0  0  0  0  0  0  0
  -28.5755  -11.4163   19.3530 N   0  0  0  0  0  0  0  0  0  0  0  0
  -23.3184  -22.0903   22.3630 N   0  0  0  0  0  0  0  0  0  0  0  0
  -19.6619  -27.5369   22.4003 N   0  0  0  0  0  0  0  0  0  0  0  0
  -30.7924  -21.6107   20.4307 N   0  0  0  0  0  0  0  0  0  0  0  0
  -19.7450  -30.4161   24.5846 N   0  3  0  0  0  0  0  0  0  0  0  0
  -30.7863  -11.9966   19.1679 O   0  0  0  0  0  0  0  0  0  0  0  0
  -23.8017  -23.9031   20.9836 O   0  0  0  0  0  0  0  0  0  0  0  0
  -20.2092  -24.7594   22.8417 O   0  0  0  0  0  0  0  0  0  0  0  0
  -21.0380  -29.4007   22.3012 O   0  0  0  0  0  0  0  0  0  0  0  0
  -30.4904  -20.0709   18.7631 O   0  0  0  0  0  0  0  0  0  0  0  0
  -23.1275  -11.6072   20.5011 O   0  0  0  0  0  0  0  0  0  0  0  0
  -27.7749  -28.4797   21.9602 O   0  0  0  0  0  0  0  0  0  1  0  0
  -22.8971   -6.3734   22.2212 F   0  0  0  0  0  0  0  0  0  0  0  0
  -21.5567  -10.8918   22.6606 F   0  0  0  0  0  0  0  0  0  0  0  0
  1  2  1  0  0  0  0
  1  5  2  0  0  0  0
  2  6  2  0  0  0  0
  3  8  2  0  0  0  0
  3 15  1  0  0  0  0
  4  9  1  0  0  0  0
  4 15  2  0  0  0  0
  5 17  1  0  0  0  0
  6 19  1  0  0  0  0
  7 10  2  0  0  0  0
  7 18  1  0  0  0  0
  8 23  1  0  0  0  0
  9 23  2  0  0  0  0
 10 24  1  0  0  0  0
 11 12  2  0  0  0  0
 11 25  1  0  0  0  0
 12 26  1  0  0  0  0
 13 20  1  0  0  0  0
 13 24  2  0  0  0  0
 14 26  2  0  0  0  0
 14 27  1  0  0  0  0
 15 28  1  0  0  0  0
 16 28  1  0  0  0  0
 16 31  2  0  0  0  0
 16 32  1  0  0  0  0
 17 19  2  0  0  0  0
 17 37  1  0  0  0  0
 18 20  2  0  0  0  0
 18 38  1  0  0  0  0
 19 48  1  0  0  0  0
 20 39  1  0  0  0  0
 21 22  1  0  0  0  0
 21 29  2  0  0  0  0
 21 53  1  0  0  0  0
 22 30  2  0  0  0  0
 22 63  1  0  0  0  0
 23 83  1  0  0  0  0
 24 84  1  0  0  0  0
 25 27  2  0  0  0  0
 25 83  1  0  0  0  0
 26 85  1  0  0  0  0
 27 86  1  0  0  0  0
 28 67  2  0  0  0  0
 29 54  1  0  0  0  0
 29 68  1  0  0  0  0
 30 55  1  0  0  0  0
 30 68  1  0  0  0  0
 31 69  1  0  0  0  0
 31 72  1  0  0  0  0
 32 73  1  0  0  0  0
 32 78  2  0  0  0  0
 33 49  1  0  0  0  0
 33 74  1  0  0  0  0
 33 79  2  0  0  0  0
 34 64  1  0  0  0  0
 34 70  1  0  0  0  0
 34 80  2  0  0  0  0
 35 65  1  0  0  0  0
 35 75  1  0  0  0  0
 35 81  2  0  0  0  0
 36 71  1  0  0  0  0
 36 76  1  0  0  0  0
 36 82  2  0  0  0  0
 37 40  1  0  0  0  0
 38 49  1  0  0  0  0
 39 70  1  0  0  0  0
 40 42  1  0  0  0  0
 41 43  1  0  0  0  0
 41 46  1  0  0  0  0
 42 48  1  0  0  0  0
 43 50  1  0  0  0  0
 44 51  1  0  0  0  0
 44 52  1  0  0  0  0
 45 51  1  0  0  0  0
 45 52  1  0  0  0  0
 46 71  1  0  0  0  0
 47 50  1  0  0  0  0
 47 71  1  0  0  0  0
 48 74  1  0  0  0  0
 49 70  1  0  0  0  0
 50 69  1  0  0  0  0
 51 68  1  0  0  0  0
 52 76  1  0  0  0  0
 56 63  1  0  0  0  0
 57 65  1  0  0  0  0
 58 66  1  0  0  0  0
 59 66  1  0  0  0  0
 60 66  1  0  0  0  0
 61 77  1  0  0  0  0
 62 63  1  0  0  0  0
 62 84  1  0  0  0  0
 64 66  1  0  0  0  0
 64 75  1  0  0  0  0
 65 77  1  0  0  0  0
 67 69  1  0  0  0  0
M  CHG  1  77   1
M  ISO  4  36 100  62 101  76 100  84 101
M  END
> <Batch ID>
0163

> <Smiles>
CNC(C)C(=O)NC(C(=O)N1Cc2cc([101O:1][101CH2:1]C(C)c3c(C)c(C)n(C4CC([100NH:0][100C:0](=O)N5CCCC(n6nc(-c7ccc(Oc8ccc(F)cc8F)cc7)c(C(N)=O)c6N)C5)C4)c3C)ccc2CC1C(=O)NC1CCCc2ccccc21)C(C)(C)C

> <Shape>
0.259

> <Color>
0.052

> <Negative vol penalty>
0.000

$$$$

  -OEChem-04052322173D

 91101  0     1  0  0  0  0  0999 V2000
  -26.7773  -28.3751   12.1273 C   0  0  0  0  0  0  0  0  0  0  0  0
  -26.6025  -27.5499   13.2336 C   0  0  0  0  0  0  0  0  0  0  0  0
  -23.0253   -9.9263   19.8855 C   0  0  0  0  0  0  0  0  0  0  0  0
  -23.9097   -9.7116   22.1235 C   0  0  0  0  0  0  0  0  0  0  0  0
  -27.6317  -29.4740   12.2068 C   0  0  0  0  0  0  0  0  0  0  0  0
  -27.2830  -27.8225   14.4198 C   0  0  0  0  0  0  0  0  0  0  0  0
  -24.2548  -27.4561   18.5656 C   0  0  0  0  0  0  0  0  0  0  0  0
  -22.2885   -8.7555   20.0643 C   0  0  0  0  0  0  0  0  0  0  0  0
  -23.1728   -8.5409   22.3024 C   0  0  0  0  0  0  0  0  0  0  0  0
  -23.9530  -26.1861   19.0554 C   0  0  0  0  0  0  0  0  0  0  0  0
  -19.9773   -7.6934   23.0027 C   0  0  0  0  0  0  0  0  0  0  0  0
  -19.2853   -7.5421   24.2043 C   0  0  0  0  0  0  0  0  0  0  0  0
  -25.6848  -26.4222   20.7177 C   0  0  0  0  0  0  0  0  0  0  0  0
  -27.9687  -19.9334   22.5435 C   0  0  0  0  0  0  0  0  0  0  0  0
  -20.5522   -5.5411   24.6819 C   0  0  0  0  0  0  0  0  0  0  0  0
  -23.8359  -10.4043   20.9150 C   0  0  0  0  0  0  0  0  0  0  0  0
  -24.1876  -12.9288   21.0191 C   0  0  0  0  0  0  0  0  0  0  0  0
  -28.3156  -29.7658   13.3975 C   0  0  0  0  0  0  0  0  0  0  0  0
  -25.2826  -28.2162   19.1423 C   0  0  0  0  0  0  0  0  0  0  0  0
  -28.1484  -28.9256   14.5149 C   0  0  0  0  0  0  0  0  0  0  0  0
  -25.9944  -27.7034   20.2364 C   0  0  0  0  0  0  0  0  0  0  0  0
  -26.3281  -20.4984   20.3731 C   0  0  0  0  0  0  0  0  0  0  0  0
  -26.1784  -21.2357   21.5408 C   0  0  0  0  0  0  0  0  0  0  0  0
  -27.2972  -19.4902   20.2891 C   0  0  0  0  0  0  0  0  0  0  0  0
  -27.0034  -20.9458   22.6297 C   0  0  0  0  0  0  0  0  0  0  0  0
  -28.1224  -19.1994   21.3666 C   0  0  0  0  0  0  0  0  0  0  0  0
  -22.3623   -8.0628   21.2727 C   0  0  0  0  0  0  0  0  0  0  0  0
  -24.6695  -25.6681   20.1301 C   0  0  0  0  0  0  0  0  0  0  0  0
  -20.9566   -6.7684   22.6406 C   0  0  0  0  0  0  0  0  0  0  0  0
  -19.5728   -6.4660   25.0440 C   0  0  0  0  0  0  0  0  0  0  0  0
  -21.2441   -5.6923   23.4803 C   0  0  0  0  0  0  0  0  0  0  0  0
  -24.5977  -11.6134   20.7307 C   0  0  0  0  0  0  0  0  0  0  0  0
  -25.2632  -13.7082   20.6697 C   0  0  0  0  0  0  0  0  0  0  0  0
  -22.9455  -13.4038   21.5550 C   0  0  0  0  0  0  0  0  0  0  0  0
  -28.0491  -29.4953   18.1643 C   0  0  0  0  0  0  0  0  0  0  0  0
  -27.9512  -30.7599   21.2375 C   0  0  0  0  0  0  0  0  0  0  0  0
  -30.4708  -32.8961   20.3844 C   0  0  0  0  0  0  0  0  0  0  0  0
  -30.7558  -14.6967   20.6522 C   0  0  0  0  0  0  0  0  0  0  0  0
  -29.2650  -30.9374   13.4210 C   0  0  0  0  0  0  0  0  0  0  0  0
  -25.5722  -29.5968   18.6182 C   0  0  0  0  0  0  0  0  0  0  0  0
  -27.1035  -28.4808   20.8923 C   0  0  0  0  0  0  0  0  0  0  0  0
  -29.6601  -31.3731   14.8296 C   0  0  0  0  0  0  0  0  0  0  0  0
  -29.4732  -12.5543   18.1141 C   0  0  0  0  0  0  0  0  0  0  0  0
  -30.0368  -30.1620   15.6771 C   0  0  0  0  0  0  0  0  0  0  0  0
  -28.0597  -12.2224   18.5955 C   0  0  0  0  0  0  0  0  0  0  0  0
  -25.3607  -23.4157   22.6624 C   0  0  0  0  0  0  0  0  0  0  0  0
  -25.9760  -19.3389   18.3382 C   0  0  0  0  0  0  0  0  0  0  0  0
  -30.4562  -12.6574   19.2783 C   0  0  0  0  0  0  0  0  0  0  0  0
  -28.6382  -13.2544   20.8314 C   0  0  0  0  0  0  0  0  0  0  0  0
  -25.1432  -22.3031   21.6706 C   0  0  1  0  0  0  0  0  0  0  0  0
  -27.3048  -18.8322   18.9407 C   0  0  1  0  0  0  0  0  0  0  0  0
  -28.8499  -29.2027   15.8268 C   0  0  1  0  0  0  0  0  0  0  0  0
  -26.9595  -30.1135   18.9938 C   0  0  1  0  0  0  0  0  0  0  0  0
  -27.5998  -13.1952   19.6979 C   0  0  2  0  0  0  0  0  0  0  0  0
  -25.4681  -23.6971   21.1948 C   0  0  1  0  0  0  0  0  0  1  0  0
  -25.5704  -20.6459   19.0760 C   0  0  0  0  0  0  0  0  0  0  0  0
  -26.8720  -21.6972   23.9156 C   0  0  0  0  0  0  0  0  0  0  0  0
  -28.5270  -19.1989   18.1091 C   0  0  0  0  0  0  0  0  0  0  0  0
  -26.0297  -21.8958   18.3148 C   0  0  0  0  0  0  0  0  0  0  0  0
  -24.0511  -20.6963   19.2798 C   0  0  0  0  0  0  0  0  0  0  0  0
  -31.7338  -34.8915   21.2334 C   0  0  0  0  0  0  0  0  0  0  0  0
  -31.8319  -16.3615   23.2412 C   0  0  0  0  0  0  0  0  0  0  0  0
  -25.5754  -32.5486   20.5578 C   0  0  0  0  0  0  0  0  0  0  0  0
  -27.1481  -34.4959   20.5010 C   0  0  0  0  0  0  0  0  0  0  0  0
  -26.8277  -33.2149   22.6175 C   0  0  0  0  0  0  0  0  0  0  0  0
  -33.0391  -31.4256   20.3618 C   0  0  0  0  0  0  0  0  0  0  0  0
  -29.9231  -17.8413   22.4337 C   0  0  0  0  0  0  0  0  0  0  0  0
  -28.1237  -32.1651   20.7174 C   0  0  1  0  0  0  0  0  0  0  0  0
  -31.6902  -33.3735   21.1523 C   0  0  2  0  0  0  0  0  0  0  0  0
  -30.9037  -16.7183   22.0842 C   0  0  2  0  0  0  0  0  0  0  0  0
  -26.9231  -33.0835   21.0818 C   0  0  0  0  0  0  0  0  0  0  0  0
  -25.8371  -11.5564   20.2360 N   0  0  0  0  0  0  0  0  0  0  0  0
  -26.2150  -12.8459   20.2108 N   0  0  0  0  0  0  0  0  0  0  0  0
  -27.2901  -29.8521   20.4004 N   0  0  0  0  0  0  0  0  0  0  0  0
  -29.9619  -13.5967   20.2878 N   0  0  0  0  0  0  0  0  0  0  0  0
  -25.4782  -15.0403   20.7133 N   0  0  0  0  0  0  0  0  0  0  0  0
  -21.9474  -12.4678   21.8588 N   0  0  0  0  0  0  0  0  0  0  0  0
  -29.0843  -18.1740   21.3216 N   0  0  0  0  0  0  0  0  0  0  0  0
  -27.9118  -29.7084   16.8060 N   0  0  0  0  0  0  0  0  0  0  0  0
  -29.4093  -32.6330   21.2241 N   0  0  0  0  0  0  0  0  0  0  0  0
  -30.2099  -15.5411   21.6113 N   0  0  0  0  0  0  0  0  0  0  0  0
  -32.9381  -32.9024   20.4876 N   0  3  0  0  0  0  0  0  0  0  0  0
  -22.7210  -14.6235   21.7431 O   0  0  0  0  0  0  0  0  0  0  0  0
  -28.9487  -28.8723   18.7160 O   0  0  0  0  0  0  0  0  0  0  0  0
  -28.3830  -30.4745   22.3579 O   0  0  0  0  0  0  0  0  0  0  0  0
  -30.4599  -32.7728   19.1616 O   0  0  0  0  0  0  0  0  0  0  0  0
  -31.8663  -14.9134   20.1556 O   0  0  0  0  0  0  0  0  0  0  0  0
  -21.6432   -6.9204   21.4477 O   0  0  0  0  0  0  0  0  0  0  0  0
  -24.3760  -24.4264   20.6115 O   0  0  0  0  0  0  0  0  0  1  0  0
  -18.9093   -6.3217   26.1986 F   0  0  0  0  0  0  0  0  0  0  0  0
  -22.1847   -4.8012   23.1384 F   0  0  0  0  0  0  0  0  0  0  0  0
  1  2  1  0  0  0  0
  1  5  2  0  0  0  0
  2  6  2  0  0  0  0
  3  8  2  0  0  0  0
  3 16  1  0  0  0  0
  4  9  1  0  0  0  0
  4 16  2  0  0  0  0
  5 18  1  0  0  0  0
  6 20  1  0  0  0  0
  7 10  2  0  0  0  0
  7 19  1  0  0  0  0
  8 27  1  0  0  0  0
  9 27  2  0  0  0  0
 10 28  1  0  0  0  0
 11 12  2  0  0  0  0
 11 29  1  0  0  0  0
 12 30  1  0  0  0  0
 13 21  1  0  0  0  0
 13 28  2  0  0  0  0
 14 25  2  0  0  0  0
 14 26  1  0  0  0  0
 15 30  2  0  0  0  0
 15 31  1  0  0  0  0
 16 32  1  0  0  0  0
 17 32  1  0  0  0  0
 17 33  2  0  0  0  0
 17 34  1  0  0  0  0
 18 20  2  0  0  0  0
 18 39  1  0  0  0  0
 19 21  2  0  0  0  0
 19 40  1  0  0  0  0
 20 52  1  0  0  0  0
 21 41  1  0  0  0  0
 22 23  2  0  0  0  0
 22 24  1  0  0  0  0
 22 56  1  0  0  0  0
 23 25  1  0  0  0  0
 23 50  1  0  0  0  0
 24 26  2  0  0  0  0
 24 51  1  0  0  0  0
 25 57  1  0  0  0  0
 26 78  1  0  0  0  0
 27 88  1  0  0  0  0
 28 89  1  0  0  0  0
 29 31  2  0  0  0  0
 29 88  1  0  0  0  0
 30 90  1  0  0  0  0
 31 91  1  0  0  0  0
 32 72  2  0  0  0  0
 33 73  1  0  0  0  0
 33 76  1  0  0  0  0
 34 77  1  0  0  0  0
 34 83  2  0  0  0  0
 35 53  1  0  0  0  0
 35 79  1  0  0  0  0
 35 84  2  0  0  0  0
 36 68  1  0  0  0  0
 36 74  1  0  0  0  0
 36 85  2  0  0  0  0
 37 69  1  0  0  0  0
 37 80  1  0  0  0  0
 37 86  2  0  0  0  0
 38 75  1  0  0  0  0
 38 81  1  0  0  0  0
 38 87  2  0  0  0  0
 39 42  1  0  0  0  0
 40 53  1  0  0  0  0
 41 74  1  0  0  0  0
 42 44  1  0  0  0  0
 43 45  1  0  0  0  0
 43 48  1  0  0  0  0
 44 52  1  0  0  0  0
 45 54  1  0  0  0  0
 46 50  1  0  0  0  0
 46 55  1  0  0  0  0
 47 51  1  0  0  0  0
 47 56  1  0  0  0  0
 48 75  1  0  0  0  0
 49 54  1  0  0  0  0
 49 75  1  0  0  0  0
 50 55  1  0  0  0  0
 51 58  1  0  0  0  0
 52 79  1  0  0  0  0
 53 74  1  0  0  0  0
 54 73  1  0  0  0  0
 55 89  1  0  0  0  0
 56 59  1  0  0  0  0
 56 60  1  0  0  0  0
 61 69  1  0  0  0  0
 62 70  1  0  0  0  0
 63 71  1  0  0  0  0
 64 71  1  0  0  0  0
 65 71  1  0  0  0  0
 66 82  1  0  0  0  0
 67 70  1  0  0  0  0
 67 78  1  0  0  0  0
 68 71  1  0  0  0  0
 68 80  1  0  0  0  0
 69 82  1  0  0  0  0
 70 81  1  0  0  0  0
 72 73  1  0  0  0  0
M  CHG  1  82   1
M  ISO  4  38 100  55 101  81 100  89 101
M  END
> <Batch ID>
0163

> <Smiles>
CNC(C)C(=O)NC(C(=O)N1Cc2cc([101O:1][101CH:1]3CC3c3c(C)cc(NCC(C)[100NH:0][100C:0](=O)N4CCCC(n5nc(-c6ccc(Oc7ccc(F)cc7F)cc6)c(C(N)=O)c5N)C4)c4c3C(C)(C)CC4C)ccc2CC1C(=O)NC1CCCc2ccccc21)C(C)(C)C

> <Shape>
0.250

> <Color>
0.191

> <Negative vol penalty>
0.000

$$$$

  -OEChem-04052322173D

 85 94  0     1  0  0  0  0  0999 V2000
  -34.0298  -31.6027   14.2133 C   0  0  0  0  0  0  0  0  0  0  0  0
  -33.9184  -30.2780   14.6231 C   0  0  0  0  0  0  0  0  0  0  0  0
  -22.6570  -10.1542   20.1512 C   0  0  0  0  0  0  0  0  0  0  0  0
  -24.3591   -9.3794   21.6807 C   0  0  0  0  0  0  0  0  0  0  0  0
  -33.3795  -32.6089   14.9265 C   0  0  0  0  0  0  0  0  0  0  0  0
  -33.1574  -29.9587   15.7471 C   0  0  0  0  0  0  0  0  0  0  0  0
  -29.8034  -24.9075   16.6088 C   0  0  0  0  0  0  0  0  0  0  0  0
  -21.9507   -8.9655   20.3348 C   0  0  0  0  0  0  0  0  0  0  0  0
  -23.6528   -8.1906   21.8645 C   0  0  0  0  0  0  0  0  0  0  0  0
  -30.0553  -23.7200   17.2943 C   0  0  0  0  0  0  0  0  0  0  0  0
  -20.9636   -7.1389   23.6202 C   0  0  0  0  0  0  0  0  0  0  0  0
  -20.8165   -6.6694   24.9254 C   0  0  0  0  0  0  0  0  0  0  0  0
  -28.9013  -24.5956   19.2232 C   0  0  0  0  0  0  0  0  0  0  0  0
  -21.9697   -4.6336   24.3229 C   0  0  0  0  0  0  0  0  0  0  0  0
  -23.8612  -10.3611   20.8241 C   0  0  0  0  0  0  0  0  0  0  0  0
  -24.1441  -12.8950   20.9081 C   0  0  0  0  0  0  0  0  0  0  0  0
  -32.6023  -32.3007   16.0542 C   0  0  0  0  0  0  0  0  0  0  0  0
  -29.1068  -25.9540   17.2302 C   0  0  0  0  0  0  0  0  0  0  0  0
  -32.4972  -30.9618   16.4769 C   0  0  0  0  0  0  0  0  0  0  0  0
  -28.6396  -25.7945   18.5426 C   0  0  0  0  0  0  0  0  0  0  0  0
  -29.7192  -18.4145   20.7670 C   0  0  0  0  0  0  0  0  0  0  0  0
  -30.9989  -17.9525   21.1153 C   0  0  0  0  0  0  0  0  0  0  0  0
  -29.5825  -19.5389   19.9485 C   0  0  0  0  0  0  0  0  0  0  0  0
  -32.1318  -18.6202   20.6416 C   0  0  0  0  0  0  0  0  0  0  0  0
  -31.9890  -19.7339   19.8136 C   0  0  0  0  0  0  0  0  0  0  0  0
  -30.7175  -20.1925   19.4685 C   0  0  0  0  0  0  0  0  0  0  0  0
  -22.4486   -7.9837   21.1915 C   0  0  0  0  0  0  0  0  0  0  0  0
  -29.6068  -23.5649   18.6027 C   0  0  0  0  0  0  0  0  0  0  0  0
  -21.6137   -6.3558   22.6663 C   0  0  0  0  0  0  0  0  0  0  0  0
  -21.3196   -5.4167   25.2767 C   0  0  0  0  0  0  0  0  0  0  0  0
  -22.1168   -5.1032   23.0177 C   0  0  0  0  0  0  0  0  0  0  0  0
  -24.5915  -11.5886   20.6343 C   0  0  0  0  0  0  0  0  0  0  0  0
  -25.2009  -13.7000   20.5593 C   0  0  0  0  0  0  0  0  0  0  0  0
  -22.8858  -13.3410   21.4310 C   0  0  0  0  0  0  0  0  0  0  0  0
  -30.6919  -14.7620   20.6610 C   0  0  0  0  0  0  0  0  0  0  0  0
  -29.7980  -28.9571   18.0095 C   0  0  0  0  0  0  0  0  0  0  0  0
  -26.6613  -29.0552   18.8302 C   0  0  0  0  0  0  0  0  0  0  0  0
  -23.8604  -27.3522   19.7799 C   0  0  0  0  0  0  0  0  0  0  0  0
  -31.9565  -33.4277   16.8208 C   0  0  0  0  0  0  0  0  0  0  0  0
  -28.8199  -27.2186   16.4679 C   0  0  0  0  0  0  0  0  0  0  0  0
  -28.5298  -17.6877   21.3286 C   0  0  0  0  0  0  0  0  0  0  0  0
  -31.1023  -16.7790   22.0554 C   0  0  0  0  0  0  0  0  0  0  0  0
  -27.8695  -26.8800   19.2476 C   0  0  0  0  0  0  0  0  0  0  0  0
  -30.8642  -32.9637   17.7809 C   0  0  0  0  0  0  0  0  0  0  0  0
  -28.7232  -16.1749   21.1942 C   0  0  0  0  0  0  0  0  0  0  0  0
  -29.4515  -12.6597   18.0378 C   0  0  0  0  0  0  0  0  0  0  0  0
  -31.3403  -31.7618   18.5905 C   0  0  0  0  0  0  0  0  0  0  0  0
  -28.0517  -12.2766   18.5163 C   0  0  0  0  0  0  0  0  0  0  0  0
  -30.4266  -12.7814   19.2046 C   0  0  0  0  0  0  0  0  0  0  0  0
  -28.5810  -13.3453   20.7530 C   0  0  0  0  0  0  0  0  0  0  0  0
  -31.6606  -30.5729   17.6765 C   0  0  1  0  0  0  0  0  0  0  0  0
  -28.5486  -28.4147   17.3752 C   0  0  1  0  0  0  0  0  0  0  0  0
  -27.5575  -13.2418   19.6084 C   0  0  2  0  0  0  0  0  0  0  0  0
  -30.0915  -15.6552   21.7173 C   0  0  1  0  0  0  0  0  0  0  0  0
  -28.2323  -20.0529   19.5661 C   0  0  0  0  0  0  0  0  0  0  0  0
  -33.5061  -18.1685   21.0175 C   0  0  0  0  0  0  0  0  0  0  0  0
  -33.2014  -20.4437   19.2947 C   0  0  0  0  0  0  0  0  0  0  0  0
  -29.8871  -14.7710   22.9564 C   0  0  0  0  0  0  0  0  0  0  0  0
  -21.4590  -27.7084   20.4151 C   0  0  0  0  0  0  0  0  0  0  0  0
  -27.5391  -30.0677   21.5714 C   0  0  0  0  0  0  0  0  0  0  0  0
  -25.2581  -29.5006   22.4340 C   0  0  0  0  0  0  0  0  0  0  0  0
  -25.5203  -31.2089   20.6352 C   0  0  0  0  0  0  0  0  0  0  0  0
  -22.8968  -25.7084   17.5153 C   0  0  0  0  0  0  0  0  0  0  0  0
  -30.5743  -21.3926   18.5777 C   0  0  0  0  0  0  0  0  0  1  0  0
  -25.8754  -28.7666   20.0864 C   0  0  1  0  0  0  0  0  0  0  0  0
  -22.4279  -27.4116   19.2811 C   0  0  2  0  0  0  0  0  0  0  0  0
  -26.0644  -29.8661   21.1694 C   0  0  0  0  0  0  0  0  0  0  0  0
  -25.8355  -11.5608   20.1488 N   0  0  0  0  0  0  0  0  0  0  0  0
  -26.1788  -12.8596   20.1147 N   0  0  0  0  0  0  0  0  0  0  0  0
  -29.9107  -13.6894   20.2306 N   0  0  0  0  0  0  0  0  0  0  0  0
  -27.6197  -28.1001   18.4625 N   0  0  0  0  0  0  0  0  0  0  0  0
  -25.3797  -15.0377   20.5924 N   0  0  0  0  0  0  0  0  0  0  0  0
  -22.7444  -13.4611   22.8202 N   0  0  0  0  0  0  0  0  0  0  0  0
  -30.4415  -29.9180   17.2531 N   0  0  0  0  0  0  0  0  0  0  0  0
  -24.4916  -28.5729   19.6667 N   0  0  0  0  0  0  0  0  0  0  0  0
  -22.0413  -26.1130   18.6605 N   0  3  0  0  0  0  0  0  0  0  0  0
  -21.9103  -13.6088   20.6892 O   0  0  0  0  0  0  0  0  0  0  0  0
  -31.8204  -15.0135   20.2304 O   0  0  0  0  0  0  0  0  0  0  0  0
  -30.1513  -28.5362   19.1049 O   0  0  0  0  0  0  0  0  0  0  0  0
  -26.4284  -30.0864   18.1946 O   0  0  0  0  0  0  0  0  0  0  0  0
  -24.3675  -26.3266   20.2287 O   0  0  0  0  0  0  0  0  0  0  0  0
  -21.7596   -6.8237   21.3712 O   0  0  0  0  0  0  0  0  0  0  0  0
  -29.8519  -22.4071   19.2743 O   0  0  0  0  0  0  0  0  0  1  0  0
  -21.1796   -4.9666   26.5305 F   0  0  0  0  0  0  0  0  0  0  0  0
  -22.7433   -4.3468   22.1060 F   0  0  0  0  0  0  0  0  0  0  0  0
  1  2  1  0  0  0  0
  1  5  2  0  0  0  0
  2  6  2  0  0  0  0
  3  8  2  0  0  0  0
  3 15  1  0  0  0  0
  4  9  1  0  0  0  0
  4 15  2  0  0  0  0
  5 17  1  0  0  0  0
  6 19  1  0  0  0  0
  7 10  2  0  0  0  0
  7 18  1  0  0  0  0
  8 27  1  0  0  0  0
  9 27  2  0  0  0  0
 10 28  1  0  0  0  0
 11 12  2  0  0  0  0
 11 29  1  0  0  0  0
 12 30  1  0  0  0  0
 13 20  1  0  0  0  0
 13 28  2  0  0  0  0
 14 30  2  0  0  0  0
 14 31  1  0  0  0  0
 15 32  1  0  0  0  0
 16 32  1  0  0  0  0
 16 33  2  0  0  0  0
 16 34  1  0  0  0  0
 17 19  2  0  0  0  0
 17 39  1  0  0  0  0
 18 20  2  0  0  0  0
 18 40  1  0  0  0  0
 19 51  1  0  0  0  0
 20 43  1  0  0  0  0
 21 22  2  0  0  0  0
 21 23  1  0  0  0  0
 21 41  1  0  0  0  0
 22 24  1  0  0  0  0
 22 42  1  0  0  0  0
 23 26  2  0  0  0  0
 23 55  1  0  0  0  0
 24 25  2  0  0  0  0
 24 56  1  0  0  0  0
 25 26  1  0  0  0  0
 25 57  1  0  0  0  0
 26 64  1  0  0  0  0
 27 82  1  0  0  0  0
 28 83  1  0  0  0  0
 29 31  2  0  0  0  0
 29 82  1  0  0  0  0
 30 84  1  0  0  0  0
 31 85  1  0  0  0  0
 32 68  2  0  0  0  0
 33 69  1  0  0  0  0
 33 72  1  0  0  0  0
 34 73  1  0  0  0  0
 34 77  2  0  0  0  0
 35 54  1  0  0  0  0
 35 70  1  0  0  0  0
 35 78  2  0  0  0  0
 36 52  1  0  0  0  0
 36 74  1  0  0  0  0
 36 79  2  0  0  0  0
 37 65  1  0  0  0  0
 37 71  1  0  0  0  0
 37 80  2  0  0  0  0
 38 66  1  0  0  0  0
 38 75  1  0  0  0  0
 38 81  2  0  0  0  0
 39 44  1  0  0  0  0
 40 52  1  0  0  0  0
 41 45  1  0  0  0  0
 42 54  1  0  0  0  0
 43 71  1  0  0  0  0
 44 47  1  0  0  0  0
 45 54  1  0  0  0  0
 46 48  1  0  0  0  0
 46 49  1  0  0  0  0
 47 51  1  0  0  0  0
 48 53  1  0  0  0  0
 49 70  1  0  0  0  0
 50 53  1  0  0  0  0
 50 70  1  0  0  0  0
 51 74  1  0  0  0  0
 52 71  1  0  0  0  0
 53 69  1  0  0  0  0
 54 58  1  0  0  0  0
 59 66  1  0  0  0  0
 60 67  1  0  0  0  0
 61 67  1  0  0  0  0
 62 67  1  0  0  0  0
 63 76  1  0  0  0  0
 64 83  1  0  0  0  0
 65 67  1  0  0  0  0
 65 75  1  0  0  0  0
 66 76  1  0  0  0  0
 68 69  1  0  0  0  0
M  CHG  1  76   1
M  ISO  4  35 100  54 100  64 101  83 101
M  END
> <Batch ID>
0163

> <Smiles>
CNC(C)C(=O)NC(C(=O)N1Cc2cc([101O:1][101CH2:1]c3c(C)c(C)c4c(c3C)CC[100C:0](C)([100C:0](=O)N3CCCC(n5nc(-c6ccc(Oc7ccc(F)cc7F)cc6)c(C(N)=O)c5N)C3)C4)ccc2CC1C(=O)NC1CCCc2ccccc21)C(C)(C)C

> <Shape>
0.326

> <Color>
0.192

> <Negative vol penalty>
0.000

$$$$

  -OEChem-04052322173D

 88 97  0     1  0  0  0  0  0999 V2000
  -21.2980  -13.5527   19.0218 C   0  0  0  0  0  0  0  0  0  0  0  0
  -21.5234  -14.7362   19.7173 C   0  0  0  0  0  0  0  0  0  0  0  0
  -28.6567  -24.1547   19.0283 C   0  0  0  0  0  0  0  0  0  0  0  0
  -29.8626  -25.7426   17.6638 C   0  0  0  0  0  0  0  0  0  0  0  0
  -22.2503  -12.5348   19.0531 C   0  0  0  0  0  0  0  0  0  0  0  0
  -22.7009  -14.9022   20.4455 C   0  0  0  0  0  0  0  0  0  0  0  0
  -24.8072  -19.4505   19.7230 C   0  0  0  0  0  0  0  0  0  0  0  0
  -28.7705  -23.2000   18.0178 C   0  0  0  0  0  0  0  0  0  0  0  0
  -29.9765  -24.7878   16.6534 C   0  0  0  0  0  0  0  0  0  0  0  0
  -24.2430  -20.5287   20.4033 C   0  0  0  0  0  0  0  0  0  0  0  0
  -27.2634  -22.4958   15.0755 C   0  0  0  0  0  0  0  0  0  0  0  0
  -26.1262  -21.7549   14.7539 C   0  0  0  0  0  0  0  0  0  0  0  0
  -25.9922  -20.3919   22.0588 C   0  0  0  0  0  0  0  0  0  0  0  0
  -27.2903  -19.7179   15.3307 C   0  0  0  0  0  0  0  0  0  0  0  0
  -21.0284  -28.5394   23.1717 C   0  0  0  0  0  0  0  0  0  0  0  0
  -29.2027  -25.4261   18.8513 C   0  0  0  0  0  0  0  0  0  0  0  0
  -29.9832  -26.6414   20.9540 C   0  0  0  0  0  0  0  0  0  0  0  0
  -23.4444  -12.6922   19.7742 C   0  0  0  0  0  0  0  0  0  0  0  0
  -25.9639  -18.8268   20.2123 C   0  0  0  0  0  0  0  0  0  0  0  0
  -23.6695  -13.8850   20.4877 C   0  0  0  0  0  0  0  0  0  0  0  0
  -26.5706  -19.3075   21.3814 C   0  0  0  0  0  0  0  0  0  0  0  0
  -22.0794  -26.6957   23.9240 C   0  0  0  0  0  0  0  0  0  0  0  0
  -22.2715  -27.9681   23.3314 C   0  0  0  0  0  0  0  0  0  0  0  0
  -29.4305  -23.5164   16.8304 C   0  0  0  0  0  0  0  0  0  0  0  0
  -24.8338  -20.9978   21.5729 C   0  0  0  0  0  0  0  0  0  0  0  0
  -28.4141  -21.8478   15.5247 C   0  0  0  0  0  0  0  0  0  0  0  0
  -26.1397  -20.3659   14.8815 C   0  0  0  0  0  0  0  0  0  0  0  0
  -28.4275  -20.4589   15.6522 C   0  0  0  0  0  0  0  0  0  0  0  0
  -29.0849  -26.4130   19.8944 C   0  0  0  0  0  0  0  0  0  0  0  0
  -20.7247  -26.5281   24.1083 C   0  0  0  0  0  0  0  0  0  0  0  0
  -29.4231  -27.6765   21.6620 C   0  0  0  0  0  0  0  0  0  0  0  0
  -31.2141  -25.9774   21.2698 C   0  0  0  0  0  0  0  0  0  0  0  0
  -26.6737  -15.9022   21.2352 C   0  0  0  0  0  0  0  0  0  0  0  0
  -29.6890  -17.0933   21.3422 C   0  0  0  0  0  0  0  0  0  0  0  0
  -31.7171  -19.8274   21.5834 C   0  0  0  0  0  0  0  0  0  0  0  0
  -23.5895  -29.4925   21.8705 C   0  0  0  0  0  0  0  0  0  0  0  0
  -24.4230  -11.5454   19.8172 C   0  0  0  0  0  0  0  0  0  0  0  0
  -26.5753  -17.6818   19.4522 C   0  0  0  0  0  0  0  0  0  0  0  0
  -27.8248  -18.6858   21.9373 C   0  0  0  0  0  0  0  0  0  0  0  0
  -25.8118  -11.9478   20.3067 C   0  0  0  0  0  0  0  0  0  0  0  0
  -26.5991  -31.4945   21.1325 C   0  0  0  0  0  0  0  0  0  0  0  0
  -25.7066  -12.8131   21.5585 C   0  0  0  0  0  0  0  0  0  0  0  0
  -27.6318  -30.4321   20.7597 C   0  0  0  0  0  0  0  0  0  0  0  0
  -25.1804  -31.0518   20.7869 C   0  0  0  0  0  0  0  0  0  0  0  0
  -25.8338  -28.6738   21.0062 C   0  0  0  0  0  0  0  0  0  0  0  0
  -18.3038  -29.2893   24.1932 C   0  0  0  0  0  0  0  0  0  0  0  0
  -24.9455  -14.1124   21.2688 C   0  0  1  0  0  0  0  0  0  0  0  0
  -27.4629  -16.7949   20.3199 C   0  0  1  0  0  0  0  0  0  0  0  0
  -27.2691  -29.0724   21.3815 C   0  0  1  0  0  0  0  0  0  0  0  0
  -18.6663  -27.8920   23.6537 C   0  0  1  0  0  0  0  0  0  0  0  0
  -18.1561  -28.4761   22.3125 C   0  0  1  0  0  0  0  0  0  0  0  0
  -19.9738  -25.3920   24.6837 C   0  0  0  0  0  0  0  0  0  0  0  0
  -17.1346  -27.6456   21.5625 C   0  0  0  0  0  0  0  0  0  0  0  0
  -23.1915  -25.4681   25.8064 C   0  0  0  0  0  0  0  0  0  0  0  0
  -33.8491  -21.1509   21.5993 C   0  0  0  0  0  0  0  0  0  0  0  0
  -29.8195  -16.1628   24.2452 C   0  0  0  0  0  0  0  0  0  0  0  0
  -31.8111  -17.6472   24.5585 C   0  0  0  0  0  0  0  0  0  0  0  0
  -31.9066  -15.7629   22.9267 C   0  0  0  0  0  0  0  0  0  0  0  0
  -24.6698  -28.4529   23.8509 C   0  0  0  0  0  0  0  0  0  0  0  0
  -31.6297  -20.2227   18.6516 C   0  0  0  0  0  0  0  0  0  0  0  0
  -23.6456  -24.3788   22.1417 C   0  0  0  0  0  0  0  0  0  0  0  0
  -23.0271  -24.3510   23.5469 C   0  0  0  0  0  0  0  0  0  0  0  0
  -23.5820  -23.0167   21.4600 C   0  0  0  0  0  0  0  0  0  1  0  0
  -23.1642  -25.6975   24.2902 C   0  0  1  0  0  0  0  0  0  0  0  0
  -30.5207  -17.8059   22.3812 C   0  0  1  0  0  0  0  0  0  0  0  0
  -32.9339  -20.2528   20.7816 C   0  0  2  0  0  0  0  0  0  0  0  0
  -30.9897  -16.8554   23.5187 C   0  0  0  0  0  0  0  0  0  0  0  0
  -28.0337  -27.2366   19.9230 N   0  0  0  0  0  0  0  0  0  0  0  0
  -20.0956  -27.6549   23.6471 N   0  0  0  0  0  0  0  0  0  0  0  0
  -28.2680  -27.9926   21.0091 N   0  0  0  0  0  0  0  0  0  0  0  0
  -28.3810  -17.5649   21.1616 N   0  0  0  0  0  0  0  0  0  0  0  0
  -24.8771  -29.7364   21.3518 N   0  0  0  0  0  0  0  0  0  0  0  0
  -29.8107  -28.3380   22.7731 N   0  0  0  0  0  0  0  0  0  0  0  0
  -31.6435  -24.9348   20.4374 N   0  0  0  0  0  0  0  0  0  0  0  0
  -25.7999  -15.0557   20.5798 N   0  0  0  0  0  0  0  0  0  0  0  0
  -31.6090  -18.4548   21.6580 N   0  0  0  0  0  0  0  0  0  0  0  0
  -23.5195  -28.5867   22.9510 N   0  0  0  0  0  0  0  0  0  0  0  0
  -32.5152  -20.9962   19.5597 N   0  3  0  0  0  0  0  0  0  0  0  0
  -31.9041  -26.2881   22.2703 O   0  0  0  0  0  0  0  0  0  0  0  0
  -26.8458  -15.9748   22.4463 O   0  0  0  0  0  0  0  0  0  0  0  0
  -30.1840  -16.1575   20.7091 O   0  0  0  0  0  0  0  0  0  0  0  0
  -30.9423  -20.6323   22.0956 O   0  0  0  0  0  0  0  0  0  0  0  0
  -22.5871  -30.0620   21.4227 O   0  0  0  0  0  0  0  0  0  0  0  0
  -17.5176  -29.5793   23.0111 O   0  0  0  0  0  0  0  0  0  0  0  0
  -29.5420  -22.5849   15.8443 O   0  0  0  0  0  0  0  0  0  0  0  0
  -24.2848  -22.0496   22.2392 O   0  0  0  0  0  0  0  0  0  1  0  0
  -25.0471  -19.6546   14.5741 F   0  0  0  0  0  0  0  0  0  0  0  0
  -29.5297  -19.8308   16.0843 F   0  0  0  0  0  0  0  0  0  0  0  0
  1  2  1  0  0  0  0
  1  5  2  0  0  0  0
  2  6  2  0  0  0  0
  3  8  2  0  0  0  0
  3 16  1  0  0  0  0
  4  9  1  0  0  0  0
  4 16  2  0  0  0  0
  5 18  1  0  0  0  0
  6 20  1  0  0  0  0
  7 10  2  0  0  0  0
  7 19  1  0  0  0  0
  8 24  1  0  0  0  0
  9 24  2  0  0  0  0
 10 25  1  0  0  0  0
 11 12  2  0  0  0  0
 11 26  1  0  0  0  0
 12 27  1  0  0  0  0
 13 21  1  0  0  0  0
 13 25  2  0  0  0  0
 14 27  2  0  0  0  0
 14 28  1  0  0  0  0
 15 23  2  0  0  0  0
 15 69  1  0  0  0  0
 16 29  1  0  0  0  0
 17 29  1  0  0  0  0
 17 31  2  0  0  0  0
 17 32  1  0  0  0  0
 18 20  2  0  0  0  0
 18 37  1  0  0  0  0
 19 21  2  0  0  0  0
 19 38  1  0  0  0  0
 20 47  1  0  0  0  0
 21 39  1  0  0  0  0
 22 23  1  0  0  0  0
 22 30  2  0  0  0  0
 22 64  1  0  0  0  0
 23 77  1  0  0  0  0
 24 85  1  0  0  0  0
 25 86  1  0  0  0  0
 26 28  2  0  0  0  0
 26 85  1  0  0  0  0
 27 87  1  0  0  0  0
 28 88  1  0  0  0  0
 29 68  2  0  0  0  0
 30 52  1  0  0  0  0
 30 69  1  0  0  0  0
 31 70  1  0  0  0  0
 31 73  1  0  0  0  0
 32 74  1  0  0  0  0
 32 79  2  0  0  0  0
 33 48  1  0  0  0  0
 33 75  1  0  0  0  0
 33 80  2  0  0  0  0
 34 65  1  0  0  0  0
 34 71  1  0  0  0  0
 34 81  2  0  0  0  0
 35 66  1  0  0  0  0
 35 76  1  0  0  0  0
 35 82  2  0  0  0  0
 36 72  1  0  0  0  0
 36 77  1  0  0  0  0
 36 83  2  0  0  0  0
 37 40  1  0  0  0  0
 38 48  1  0  0  0  0
 39 71  1  0  0  0  0
 40 42  1  0  0  0  0
 41 43  1  0  0  0  0
 41 44  1  0  0  0  0
 42 47  1  0  0  0  0
 43 49  1  0  0  0  0
 44 72  1  0  0  0  0
 45 49  1  0  0  0  0
 45 72  1  0  0  0  0
 46 50  1  0  0  0  0
 46 84  1  0  0  0  0
 47 75  1  0  0  0  0
 48 71  1  0  0  0  0
 49 70  1  0  0  0  0
 50 51  1  0  0  0  0
 50 69  1  0  0  0  0
 51 53  1  0  0  0  0
 51 84  1  0  0  0  0
 54 64  1  0  0  0  0
 55 66  1  0  0  0  0
 56 67  1  0  0  0  0
 57 67  1  0  0  0  0
 58 67  1  0  0  0  0
 59 77  1  0  0  0  0
 60 78  1  0  0  0  0
 61 62  1  0  0  0  0
 61 63  1  0  0  0  0
 62 64  1  0  0  0  0
 63 86  1  0  0  0  0
 65 67  1  0  0  0  0
 65 76  1  0  0  0  0
 66 78  1  0  0  0  0
 68 70  1  0  0  0  0
M  CHG  1  78   1
M  ISO  4  36 100  63 101  77 100  86 101
M  END
> <Batch ID>
0163

> <Smiles>
CNC(C)C(=O)NC(C(=O)N1Cc2cc([101O:1][101CH2:1]CCC(C)c3c([100N:0](C)[100C:0](=O)N4CCCC(n5nc(-c6ccc(Oc7ccc(F)cc7F)cc6)c(C(N)=O)c5N)C4)cn(C4COC4C)c3C)ccc2CC1C(=O)NC1CCCc2ccccc21)C(C)(C)C

> <Shape>
0.235

> <Color>
0.057

> <Negative vol penalty>
0.000

$$$$

  -OEChem-04052322173D

 93104  0     1  0  0  0  0  0999 V2000
  -17.7701  -28.5480   25.9032 C   0  0  0  0  0  0  0  0  0  0  0  0
  -24.6736  -20.5661   16.8911 C   0  0  0  0  0  0  0  0  0  0  0  0
  -19.1072  -28.2964   26.1933 C   0  0  0  0  0  0  0  0  0  0  0  0
  -24.3994  -21.8379   17.4114 C   0  0  0  0  0  0  0  0  0  0  0  0
  -30.2716  -12.2635   18.3413 C   0  0  0  0  0  0  0  0  0  0  0  0
  -29.0757  -13.4464   20.0755 C   0  0  0  0  0  0  0  0  0  0  0  0
  -17.3353  -28.5578   24.5785 C   0  0  0  0  0  0  0  0  0  0  0  0
  -25.8780  -19.9239   17.1834 C   0  0  0  0  0  0  0  0  0  0  0  0
  -20.0102  -28.0534   25.1589 C   0  0  0  0  0  0  0  0  0  0  0  0
  -25.3255  -22.4848   18.2318 C   0  0  0  0  0  0  0  0  0  0  0  0
  -26.8782  -29.0636   23.3911 C   0  0  0  0  0  0  0  0  0  0  0  0
  -29.0690  -11.7344   17.8729 C   0  0  0  0  0  0  0  0  0  0  0  0
  -27.8731  -12.9174   19.6070 C   0  0  0  0  0  0  0  0  0  0  0  0
  -27.9896  -28.3537   22.9386 C   0  0  0  0  0  0  0  0  0  0  0  0
  -26.1881   -9.9937   19.8165 C   0  0  0  0  0  0  0  0  0  0  0  0
  -25.2919   -9.4883   20.7583 C   0  0  0  0  0  0  0  0  0  0  0  0
  -27.1409  -28.4740   20.6838 C   0  0  0  0  0  0  0  0  0  0  0  0
  -23.6303  -11.0860   20.0345 C   0  0  0  0  0  0  0  0  0  0  0  0
  -30.2750  -13.1195   19.4427 C   0  0  0  0  0  0  0  0  0  0  0  0
  -32.6320  -12.9505   20.4035 C   0  0  0  0  0  0  0  0  0  0  0  0
  -18.2353  -28.3243   23.5268 C   0  0  0  0  0  0  0  0  0  0  0  0
  -25.8828  -29.4752   22.4933 C   0  0  0  0  0  0  0  0  0  0  0  0
  -26.7898  -20.5634   18.0112 C   0  0  0  0  0  0  0  0  0  0  0  0
  -19.5867  -28.0587   23.8190 C   0  0  0  0  0  0  0  0  0  0  0  0
  -26.5179  -21.8387   18.5343 C   0  0  0  0  0  0  0  0  0  0  0  0
  -26.0192  -29.1912   21.1270 C   0  0  0  0  0  0  0  0  0  0  0  0
  -27.8697  -12.0614   18.5057 C   0  0  0  0  0  0  0  0  0  0  0  0
  -28.1197  -28.0563   21.5852 C   0  0  0  0  0  0  0  0  0  0  0  0
  -25.8054  -11.0454   18.9837 C   0  0  0  0  0  0  0  0  0  0  0  0
  -24.0130  -10.0344   20.8673 C   0  0  0  0  0  0  0  0  0  0  0  0
  -24.5265  -11.5914   19.0928 C   0  0  0  0  0  0  0  0  0  0  0  0
  -31.5170  -13.6658   19.9274 C   0  0  0  0  0  0  0  0  0  0  0  0
  -33.5442  -13.9207   20.7400 C   0  0  0  0  0  0  0  0  0  0  0  0
  -32.8260  -11.5356   20.5301 C   0  0  0  0  0  0  0  0  0  0  0  0
  -22.7821  -28.8666   22.1487 C   0  0  0  0  0  0  0  0  0  0  0  0
  -22.9892  -31.1427   19.8467 C   0  0  0  0  0  0  0  0  0  0  0  0
  -24.9383  -32.8417   17.6193 C   0  0  0  0  0  0  0  0  0  0  0  0
  -30.7216  -18.3497   19.0441 C   0  0  0  0  0  0  0  0  0  0  0  0
  -17.7093  -28.2982   22.1135 C   0  0  0  0  0  0  0  0  0  0  0  0
  -24.7034  -30.2634   22.9934 C   0  0  0  0  0  0  0  0  0  0  0  0
  -24.9885  -29.6282   20.1194 C   0  0  0  0  0  0  0  0  0  0  0  0
  -18.8036  -28.4020   21.0543 C   0  0  0  0  0  0  0  0  0  0  0  0
  -31.9518  -17.6086   22.3159 C   0  0  0  0  0  0  0  0  0  0  0  0
  -27.6569  -17.0332   20.4668 C   0  0  0  0  0  0  0  0  0  0  0  0
  -19.9539  -27.4547   21.3805 C   0  0  0  0  0  0  0  0  0  0  0  0
  -33.3332  -17.0056   22.0866 C   0  0  0  0  0  0  0  0  0  0  0  0
  -27.0640  -18.1421   19.6090 C   0  0  0  0  0  0  0  0  0  0  0  0
  -28.4098  -20.9979   19.6490 C   0  0  0  0  0  0  0  0  0  0  0  0
  -28.5389  -23.2904   18.4982 C   0  0  0  0  0  0  0  0  0  0  0  0
  -31.6682  -18.7013   21.2968 C   0  0  0  0  0  0  0  0  0  0  0  0
  -29.0429  -17.5689   20.7909 C   0  0  0  0  0  0  0  0  0  0  0  0
  -33.0776  -17.5532   19.5994 C   0  0  0  0  0  0  0  0  0  0  0  0
  -28.4807  -23.6634   21.3976 C   0  0  0  0  0  0  0  0  0  0  0  0
  -28.1565  -20.0938   18.4236 C   0  0  1  0  0  0  0  0  0  0  0  0
  -20.6014  -27.8151   22.7230 C   0  0  1  0  0  0  0  0  0  0  0  0
  -23.4958  -30.1862   22.0644 C   0  0  1  0  0  0  0  0  0  0  0  0
  -27.2577  -23.1091   20.6606 C   0  0  1  0  0  0  0  0  0  0  0  0
  -33.5269  -16.5071   20.6455 C   0  0  2  0  0  0  0  0  0  0  0  0
  -28.2559  -18.6141   18.7716 C   0  0  1  0  0  0  0  0  0  0  0  0
  -29.7475  -23.8941   19.2288 C   0  0  1  0  0  0  0  0  0  0  0  0
  -27.6780  -22.3477   19.3744 C   0  0  1  0  0  0  0  0  0  0  0  0
  -26.4087  -22.2958   21.6483 C   0  0  0  0  0  0  0  0  0  0  0  0
  -30.4605  -24.8847   18.3078 C   0  0  0  0  0  0  0  0  0  0  0  0
  -24.8176  -34.6159   15.8487 C   0  0  0  0  0  0  0  0  0  0  0  0
  -21.7317  -29.1348   17.9239 C   0  0  0  0  0  0  0  0  0  0  0  0
  -22.5006  -30.5758   16.0264 C   0  0  0  0  0  0  0  0  0  0  0  0
  -20.8781  -31.4743   17.6946 C   0  0  0  0  0  0  0  0  0  0  0  0
  -26.8048  -34.6031   19.0933 C   0  0  0  0  0  0  0  0  0  0  0  0
  -30.3680  -25.2596   21.2755 C   0  0  0  0  0  0  0  0  0  0  0  0
  -29.7965  -26.4338   22.0453 C   0  0  0  0  0  0  0  0  0  1  0  0
  -23.2924  -31.1431   18.3679 C   0  0  1  0  0  0  0  0  0  0  0  0
  -25.0678  -34.3243   17.3202 C   0  0  2  0  0  0  0  0  0  0  0  0
  -22.1193  -30.5720   17.5222 C   0  0  0  0  0  0  0  0  0  0  0  0
  -31.7016  -14.9884   19.9574 N   0  0  0  0  0  0  0  0  0  0  0  0
  -32.9433  -15.1117   20.4564 N   0  0  0  0  0  0  0  0  0  0  0  0
  -23.8503  -30.3908   20.6584 N   0  0  0  0  0  0  0  0  0  0  0  0
  -31.8070  -18.2177   19.9230 N   0  0  0  0  0  0  0  0  0  0  0  0
  -29.4359  -18.3044   19.5879 N   0  0  0  0  0  0  0  0  0  0  0  0
  -34.7936  -13.8625   21.2480 N   0  0  0  0  0  0  0  0  0  0  0  0
  -32.4540  -10.9150   21.7305 N   0  0  0  0  0  0  0  0  0  0  0  0
  -21.4705  -28.9625   22.5731 N   0  0  0  0  0  0  0  0  0  0  0  0
  -23.6631  -32.5125   18.0275 N   0  0  0  0  0  0  0  0  0  0  0  0
  -29.2627  -24.5920   20.4914 N   0  3  2  0  0  0  0  0  0  0  0  0
  -26.4344  -34.8057   17.6689 N   0  3  0  0  0  0  0  0  0  0  0  0
  -33.3300  -10.8448   19.6123 O   0  0  0  0  0  0  0  0  0  0  0  0
  -23.3767  -27.8379   21.8493 O   0  0  0  0  0  0  0  0  0  0  0  0
  -22.0280  -31.7916   20.2671 O   0  0  0  0  0  0  0  0  0  0  0  0
  -25.8738  -32.0537   17.4991 O   0  0  0  0  0  0  0  0  0  0  0  0
  -30.8929  -18.4917   17.8261 O   0  0  0  0  0  0  0  0  0  0  0  0
  -26.6960  -11.5455   18.0487 O   0  0  0  0  0  0  0  0  0  0  0  0
  -29.2109  -27.3579   21.1379 O   0  0  0  0  0  0  0  0  0  1  0  0
  -23.1520   -9.5479   21.7707 F   0  0  0  0  0  0  0  0  0  0  0  0
  -24.1528  -12.6010   18.2947 F   0  0  0  0  0  0  0  0  0  0  0  0
  1  3  1  0  0  0  0
  1  7  2  0  0  0  0
  2  4  1  0  0  0  0
  2  8  2  0  0  0  0
  3  9  2  0  0  0  0
  4 10  2  0  0  0  0
  5 12  2  0  0  0  0
  5 19  1  0  0  0  0
  6 13  1  0  0  0  0
  6 19  2  0  0  0  0
  7 21  1  0  0  0  0
  8 23  1  0  0  0  0
  9 24  1  0  0  0  0
 10 25  1  0  0  0  0
 11 14  2  0  0  0  0
 11 22  1  0  0  0  0
 12 27  1  0  0  0  0
 13 27  2  0  0  0  0
 14 28  1  0  0  0  0
 15 16  2  0  0  0  0
 15 29  1  0  0  0  0
 16 30  1  0  0  0  0
 17 26  1  0  0  0  0
 17 28  2  0  0  0  0
 18 30  2  0  0  0  0
 18 31  1  0  0  0  0
 19 32  1  0  0  0  0
 20 32  1  0  0  0  0
 20 33  2  0  0  0  0
 20 34  1  0  0  0  0
 21 24  2  0  0  0  0
 21 39  1  0  0  0  0
 22 26  2  0  0  0  0
 22 40  1  0  0  0  0
 23 25  2  0  0  0  0
 23 54  1  0  0  0  0
 24 55  1  0  0  0  0
 25 61  1  0  0  0  0
 26 41  1  0  0  0  0
 27 90  1  0  0  0  0
 28 91  1  0  0  0  0
 29 31  2  0  0  0  0
 29 90  1  0  0  0  0
 30 92  1  0  0  0  0
 31 93  1  0  0  0  0
 32 74  2  0  0  0  0
 33 75  1  0  0  0  0
 33 79  1  0  0  0  0
 34 80  1  0  0  0  0
 34 85  2  0  0  0  0
 35 56  1  0  0  0  0
 35 81  1  0  0  0  0
 35 86  2  0  0  0  0
 36 71  1  0  0  0  0
 36 76  1  0  0  0  0
 36 87  2  0  0  0  0
 37 72  1  0  0  0  0
 37 82  1  0  0  0  0
 37 88  2  0  0  0  0
 38 77  1  0  0  0  0
 38 78  1  0  0  0  0
 38 89  2  0  0  0  0
 39 42  1  0  0  0  0
 40 56  1  0  0  0  0
 41 76  1  0  0  0  0
 42 45  1  0  0  0  0
 43 46  1  0  0  0  0
 43 50  1  0  0  0  0
 44 47  1  0  0  0  0
 44 51  1  0  0  0  0
 45 55  1  0  0  0  0
 46 58  1  0  0  0  0
 47 59  1  0  0  0  0
 48 54  1  0  0  0  0
 48 61  1  0  0  0  0
 49 60  1  0  0  0  0
 49 61  1  0  0  0  0
 50 77  1  0  0  0  0
 51 78  1  0  0  0  0
 52 58  1  0  0  0  0
 52 77  1  0  0  0  0
 53 57  1  0  0  0  0
 53 83  1  0  0  0  0
 54 59  1  0  0  0  0
 55 81  1  0  0  0  0
 56 76  1  0  0  0  0
 57 61  1  0  0  0  0
 57 62  1  0  0  0  0
 58 75  1  0  0  0  0
 59 78  1  0  0  0  0
 60 63  1  0  0  0  0
 60 83  1  0  0  0  0
 64 72  1  0  0  0  0
 65 73  1  0  0  0  0
 66 73  1  0  0  0  0
 67 73  1  0  0  0  0
 68 84  1  0  0  0  0
 69 70  1  0  0  0  0
 69 83  1  0  0  0  0
 70 91  1  0  0  0  0
 71 73  1  0  0  0  0
 71 82  1  0  0  0  0
 72 84  1  0  0  0  0
 74 75  1  0  0  0  0
M  CHG  2  83   1  84   1
M  ISO  4  38 100  70 101  78 100  91 101
M  END
> <Batch ID>
0163

> <Smiles>
CNC(C)C(=O)NC(C(=O)N1Cc2cc([101O:1][101CH2:1]CN3CC(C)C4(CC(C5CCC[100N:0]5[100C:0](=O)N5CCCC(n6nc(-c7ccc(Oc8ccc(F)cc8F)cc7)c(C(N)=O)c6N)C5)c5ccccc54)CC3C)ccc2CC1C(=O)NC1CCCc2ccccc21)C(C)(C)C

> <Shape>
0.271

> <Color>
0.075

> <Negative vol penalty>
0.000

$$$$

  -OEChem-04052322173D

 85 93  0     1  0  0  0  0  0999 V2000
  -19.4499  -24.2065   23.5233 C   0  0  0  0  0  0  0  0  0  0  0  0
  -20.5702  -24.2985   22.7037 C   0  0  0  0  0  0  0  0  0  0  0  0
  -26.2471  -13.9767   21.7504 C   0  0  0  0  0  0  0  0  0  0  0  0
  -25.3899  -14.6260   19.5869 C   0  0  0  0  0  0  0  0  0  0  0  0
  -18.6703  -25.3367   23.7659 C   0  0  0  0  0  0  0  0  0  0  0  0
  -20.9110  -25.5207   22.1252 C   0  0  0  0  0  0  0  0  0  0  0  0
  -26.5555  -27.6270   21.0259 C   0  0  0  0  0  0  0  0  0  0  0  0
  -25.2865  -12.9684   21.8285 C   0  0  0  0  0  0  0  0  0  0  0  0
  -24.4292  -13.6177   19.6650 C   0  0  0  0  0  0  0  0  0  0  0  0
  -27.3416  -27.6468   19.8747 C   0  0  0  0  0  0  0  0  0  0  0  0
  -24.2905  -10.2715   19.2133 C   0  0  0  0  0  0  0  0  0  0  0  0
  -24.0883   -9.4821   18.0813 C   0  0  0  0  0  0  0  0  0  0  0  0
  -26.6089  -29.8997   19.4203 C   0  0  0  0  0  0  0  0  0  0  0  0
  -21.7804  -10.1920   17.9984 C   0  0  0  0  0  0  0  0  0  0  0  0
  -26.2988  -14.8055   20.6296 C   0  0  0  0  0  0  0  0  0  0  0  0
  -28.5856  -15.7484   20.0055 C   0  0  0  0  0  0  0  0  0  0  0  0
  -19.0072  -26.5754   23.1979 C   0  0  0  0  0  0  0  0  0  0  0  0
  -25.7804  -28.7414   21.3777 C   0  0  0  0  0  0  0  0  0  0  0  0
  -20.1344  -26.6682   22.3593 C   0  0  0  0  0  0  0  0  0  0  0  0
  -25.8158  -29.8925   20.5779 C   0  0  0  0  0  0  0  0  0  0  0  0
  -27.8197  -25.1065   16.0227 C   0  0  0  0  0  0  0  0  0  0  0  0
  -28.5426  -24.0299   16.5364 C   0  0  0  0  0  0  0  0  0  0  0  0
  -28.0719  -26.3990   16.4827 C   0  0  0  0  0  0  0  0  0  0  0  0
  -29.7700  -25.5382   17.9702 C   0  0  0  0  0  0  0  0  0  0  0  0
  -29.5177  -24.2458   17.5101 C   0  0  0  0  0  0  0  0  0  0  0  0
  -29.0470  -26.6149   17.4565 C   0  0  0  0  0  0  0  0  0  0  0  0
  -24.3775  -12.7889   20.7858 C   0  0  0  0  0  0  0  0  0  0  0  0
  -27.3662  -28.7822   19.0701 C   0  0  0  0  0  0  0  0  0  0  0  0
  -23.2376  -11.0211   19.7380 C   0  0  0  0  0  0  0  0  0  0  0  0
  -22.8333   -9.4423   17.4738 C   0  0  0  0  0  0  0  0  0  0  0  0
  -21.9826  -10.9814   19.1305 C   0  0  0  0  0  0  0  0  0  0  0  0
  -27.2906  -15.8476   20.5487 C   0  0  0  0  0  0  0  0  0  0  0  0
  -29.1230  -17.0019   20.1679 C   0  0  0  0  0  0  0  0  0  0  0  0
  -29.2438  -14.6237   19.4077 C   0  0  0  0  0  0  0  0  0  0  0  0
  -22.6703  -29.2847   21.7459 C   0  0  0  0  0  0  0  0  0  0  0  0
  -23.6966  -32.1774   22.7951 C   0  0  0  0  0  0  0  0  0  0  0  0
  -26.1414  -34.5585   22.7961 C   0  0  0  0  0  0  0  0  0  0  0  0
  -28.6883  -22.5582   19.8788 C   0  0  0  0  0  0  0  0  0  0  0  0
  -18.1072  -27.7589   23.4510 C   0  0  0  0  0  0  0  0  0  0  0  0
  -24.9585  -28.7139   22.6371 C   0  0  0  0  0  0  0  0  0  0  0  0
  -25.0178  -31.1225   20.9225 C   0  0  0  0  0  0  0  0  0  0  0  0
  -18.7499  -29.0987   23.1016 C   0  0  0  0  0  0  0  0  0  0  0  0
  -27.4672  -20.9750   22.8248 C   0  0  0  0  0  0  0  0  0  0  0  0
  -19.4276  -29.0259   21.7370 C   0  0  0  0  0  0  0  0  0  0  0  0
  -27.4134  -19.4933   22.4483 C   0  0  0  0  0  0  0  0  0  0  0  0
  -27.0939  -21.8708   21.6457 C   0  0  0  0  0  0  0  0  0  0  0  0
  -27.8159  -20.1478   20.0382 C   0  0  0  0  0  0  0  0  0  0  0  0
  -20.5506  -27.9817   21.7336 C   0  0  1  0  0  0  0  0  0  0  0  0
  -23.8103  -29.7184   22.6233 C   0  0  1  0  0  0  0  0  0  0  0  0
  -28.2387  -19.2069   21.1794 C   0  0  2  0  0  0  0  0  0  0  0  0
  -26.7749  -24.8754   14.9767 C   0  0  0  0  0  0  0  0  0  0  0  0
  -28.2733  -22.6438   16.0412 C   0  0  0  0  0  0  0  0  0  0  0  0
  -27.2972  -27.5542   15.9309 C   0  0  0  0  0  0  0  0  0  0  0  0
  -30.8162  -25.7692   19.0148 C   0  0  0  0  0  0  0  0  0  0  0  0
  -31.0913  -22.3459   16.9846 C   0  0  0  0  0  0  0  0  0  0  0  0
  -30.3791  -28.7255   17.1188 C   0  0  0  0  0  0  0  0  0  0  0  0
  -26.6778  -36.8308   23.7161 C   0  0  0  0  0  0  0  0  0  0  0  0
  -21.8167  -33.4452   20.7534 C   0  0  0  0  0  0  0  0  0  0  0  0
  -23.0650  -35.5960   21.0432 C   0  0  0  0  0  0  0  0  0  0  0  0
  -21.8605  -34.5843   22.9793 C   0  0  0  0  0  0  0  0  0  0  0  0
  -28.5047  -33.5373   24.2559 C   0  0  0  0  0  0  0  0  0  0  0  0
  -30.2925  -23.0905   18.0616 C   0  0  2  0  0  0  0  0  0  0  0  0
  -29.3215  -28.0154   17.9544 C   0  0  1  0  0  0  0  0  0  1  0  0
  -23.9905  -33.5078   22.1450 C   0  0  1  0  0  0  0  0  0  0  0  0
  -26.7961  -35.3295   23.9281 C   0  0  2  0  0  0  0  0  0  0  0  0
  -22.6968  -34.2596   21.7224 C   0  0  0  0  0  0  0  0  0  0  0  0
  -27.0216  -17.0677   21.0209 N   0  0  0  0  0  0  0  0  0  0  0  0
  -28.1551  -17.7466   20.7751 N   0  0  0  0  0  0  0  0  0  0  0  0
  -24.2249  -31.0443   22.1605 N   0  0  0  0  0  0  0  0  0  0  0  0
  -27.9140  -21.5494   20.4752 N   0  0  0  0  0  0  0  0  0  0  0  0
  -30.3244  -17.5287   19.8492 N   0  0  0  0  0  0  0  0  0  0  0  0
  -28.5472  -13.4106   19.3204 N   0  0  0  0  0  0  0  0  0  0  0  0
  -21.7291  -28.5049   22.3907 N   0  0  0  0  0  0  0  0  0  0  0  0
  -24.8300  -34.2443   23.0837 N   0  0  0  0  0  0  0  0  0  0  0  0
  -29.4409  -22.1674   18.7781 N   0  0  0  0  0  0  0  0  0  0  0  0
  -28.2419  -34.9809   24.0240 N   0  3  0  0  0  0  0  0  0  0  0  0
  -30.4209  -14.6879   18.9788 O   0  0  0  0  0  0  0  0  0  0  0  0
  -22.6455  -29.6330   20.5712 O   0  0  0  0  0  0  0  0  0  0  0  0
  -23.0290  -32.1454   23.8320 O   0  0  0  0  0  0  0  0  0  0  0  0
  -26.7330  -34.2675   21.7588 O   0  0  0  0  0  0  0  0  0  0  0  0
  -28.7115  -23.7198   20.2995 O   0  0  0  0  0  0  0  0  0  0  0  0
  -23.4401  -11.8050   20.8615 O   0  0  0  0  0  0  0  0  0  0  0  0
  -28.1321  -28.8038   17.9455 O   0  0  0  0  0  0  0  0  0  1  0  0
  -22.6397   -8.6854   16.3858 F   0  0  0  0  0  0  0  0  0  0  0  0
  -20.9676  -11.7003   19.6293 F   0  0  0  0  0  0  0  0  0  0  0  0
  1  2  1  0  0  0  0
  1  5  2  0  0  0  0
  2  6  2  0  0  0  0
  3  8  2  0  0  0  0
  3 15  1  0  0  0  0
  4  9  1  0  0  0  0
  4 15  2  0  0  0  0
  5 17  1  0  0  0  0
  6 19  1  0  0  0  0
  7 10  2  0  0  0  0
  7 18  1  0  0  0  0
  8 27  1  0  0  0  0
  9 27  2  0  0  0  0
 10 28  1  0  0  0  0
 11 12  2  0  0  0  0
 11 29  1  0  0  0  0
 12 30  1  0  0  0  0
 13 20  1  0  0  0  0
 13 28  2  0  0  0  0
 14 30  2  0  0  0  0
 14 31  1  0  0  0  0
 15 32  1  0  0  0  0
 16 32  1  0  0  0  0
 16 33  2  0  0  0  0
 16 34  1  0  0  0  0
 17 19  2  0  0  0  0
 17 39  1  0  0  0  0
 18 20  2  0  0  0  0
 18 40  1  0  0  0  0
 19 48  1  0  0  0  0
 20 41  1  0  0  0  0
 21 22  1  0  0  0  0
 21 23  2  0  0  0  0
 21 51  1  0  0  0  0
 22 25  2  0  0  0  0
 22 52  1  0  0  0  0
 23 26  1  0  0  0  0
 23 53  1  0  0  0  0
 24 25  1  0  0  0  0
 24 26  2  0  0  0  0
 24 54  1  0  0  0  0
 25 62  1  0  0  0  0
 26 63  1  0  0  0  0
 27 82  1  0  0  0  0
 28 83  1  0  0  0  0
 29 31  2  0  0  0  0
 29 82  1  0  0  0  0
 30 84  1  0  0  0  0
 31 85  1  0  0  0  0
 32 67  2  0  0  0  0
 33 68  1  0  0  0  0
 33 71  1  0  0  0  0
 34 72  1  0  0  0  0
 34 77  2  0  0  0  0
 35 49  1  0  0  0  0
 35 73  1  0  0  0  0
 35 78  2  0  0  0  0
 36 64  1  0  0  0  0
 36 69  1  0  0  0  0
 36 79  2  0  0  0  0
 37 65  1  0  0  0  0
 37 74  1  0  0  0  0
 37 80  2  0  0  0  0
 38 70  1  0  0  0  0
 38 75  1  0  0  0  0
 38 81  2  0  0  0  0
 39 42  1  0  0  0  0
 40 49  1  0  0  0  0
 41 69  1  0  0  0  0
 42 44  1  0  0  0  0
 43 45  1  0  0  0  0
 43 46  1  0  0  0  0
 44 48  1  0  0  0  0
 45 50  1  0  0  0  0
 46 70  1  0  0  0  0
 47 50  1  0  0  0  0
 47 70  1  0  0  0  0
 48 73  1  0  0  0  0
 49 69  1  0  0  0  0
 50 68  1  0  0  0  0
 55 62  1  0  0  0  0
 56 63  1  0  0  0  0
 57 65  1  0  0  0  0
 58 66  1  0  0  0  0
 59 66  1  0  0  0  0
 60 66  1  0  0  0  0
 61 76  1  0  0  0  0
 62 75  1  0  0  0  0
 63 83  1  0  0  0  0
 64 66  1  0  0  0  0
 64 74  1  0  0  0  0
 65 76  1  0  0  0  0
 67 68  1  0  0  0  0
M  CHG  1  76   1
M  ISO  4  38 100  63 101  75 100  83 101
M  END
> <Batch ID>
0163

> <Smiles>
CNC(C)C(=O)NC(C(=O)N1Cc2cc([101O:1][101CH:1](C)c3c(C)c(C)c(C)c(C(C)[100NH:0][100C:0](=O)N4CCCC(n5nc(-c6ccc(Oc7ccc(F)cc7F)cc6)c(C(N)=O)c5N)C4)c3C)ccc2CC1C(=O)NC1CCCc2ccccc21)C(C)(C)C

> <Shape>
0.294

> <Color>
0.106

> <Negative vol penalty>
0.000

$$$$

  -OEChem-04052322173D

 90 99  0     1  0  0  0  0  0999 V2000
  -20.8712  -25.0137   25.1750 C   0  0  0  0  0  0  0  0  0  0  0  0
  -21.9285  -25.0570   24.2718 C   0  0  0  0  0  0  0  0  0  0  0  0
  -25.6717  -13.0169   20.7820 C   0  0  0  0  0  0  0  0  0  0  0  0
  -26.6434  -11.0303   19.8091 C   0  0  0  0  0  0  0  0  0  0  0  0
  -19.7508  -25.8187   24.9740 C   0  0  0  0  0  0  0  0  0  0  0  0
  -21.8653  -25.9046   23.1663 C   0  0  0  0  0  0  0  0  0  0  0  0
  -26.1838  -28.4401   22.4133 C   0  0  0  0  0  0  0  0  0  0  0  0
  -24.5046  -12.3074   21.0651 C   0  0  0  0  0  0  0  0  0  0  0  0
  -25.4763  -10.3208   20.0922 C   0  0  0  0  0  0  0  0  0  0  0  0
  -27.2331  -27.7462   21.8122 C   0  0  0  0  0  0  0  0  0  0  0  0
  -24.0475   -8.8488   22.7778 C   0  0  0  0  0  0  0  0  0  0  0  0
  -24.1828   -7.5786   23.3380 C   0  0  0  0  0  0  0  0  0  0  0  0
  -26.6931  -28.7736   19.6975 C   0  0  0  0  0  0  0  0  0  0  0  0
  -30.5263  -26.1574   17.4398 C   0  0  0  0  0  0  0  0  0  0  0  0
  -23.0254   -6.6209   21.4458 C   0  0  0  0  0  0  0  0  0  0  0  0
  -26.7411  -12.3783   20.1540 C   0  0  0  0  0  0  0  0  0  0  0  0
  -29.0754  -13.2568   20.6895 C   0  0  0  0  0  0  0  0  0  0  0  0
  -19.6780  -26.6837   23.8708 C   0  0  0  0  0  0  0  0  0  0  0  0
  -25.3732  -29.2991   21.6574 C   0  0  0  0  0  0  0  0  0  0  0  0
  -20.7423  -26.7210   22.9497 C   0  0  0  0  0  0  0  0  0  0  0  0
  -25.6358  -29.4792   20.2919 C   0  0  0  0  0  0  0  0  0  0  0  0
  -30.8434  -23.4568   18.0635 C   0  0  0  0  0  0  0  0  0  0  0  0
  -30.4231  -25.1933   16.4371 C   0  0  0  0  0  0  0  0  0  0  0  0
  -30.7882  -25.7713   18.7544 C   0  0  0  0  0  0  0  0  0  0  0  0
  -30.9467  -24.4210   19.0662 C   0  0  0  0  0  0  0  0  0  0  0  0
  -30.5816  -23.8430   16.7490 C   0  0  0  0  0  0  0  0  0  0  0  0
  -24.4069  -10.9594   20.7202 C   0  0  0  0  0  0  0  0  0  0  0  0
  -27.4861  -27.9106   20.4535 C   0  0  0  0  0  0  0  0  0  0  0  0
  -23.4011   -9.0051   21.5516 C   0  0  0  0  0  0  0  0  0  0  0  0
  -23.6718   -6.4646   22.6720 C   0  0  0  0  0  0  0  0  0  0  0  0
  -22.8900   -7.8911   20.8857 C   0  0  0  0  0  0  0  0  0  0  0  0
  -27.9468  -13.1108   19.8609 C   0  0  0  0  0  0  0  0  0  0  0  0
  -29.9391  -14.0360   19.9590 C   0  0  0  0  0  0  0  0  0  0  0  0
  -29.3212  -12.7348   22.0020 C   0  0  0  0  0  0  0  0  0  0  0  0
  -22.2841  -29.3912   20.9137 C   0  0  0  0  0  0  0  0  0  0  0  0
  -23.0865  -32.2437   19.5938 C   0  0  0  0  0  0  0  0  0  0  0  0
  -25.5115  -34.2359   18.2531 C   0  0  0  0  0  0  0  0  0  0  0  0
  -31.0697  -18.2702   16.6706 C   0  0  0  0  0  0  0  0  0  0  0  0
  -18.4260  -27.5001   23.6697 C   0  0  0  0  0  0  0  0  0  0  0  0
  -24.2620  -30.0609   22.3263 C   0  0  0  0  0  0  0  0  0  0  0  0
  -24.8076  -30.4052   19.4404 C   0  0  0  0  0  0  0  0  0  0  0  0
  -18.5991  -28.6463   22.6765 C   0  0  0  0  0  0  0  0  0  0  0  0
  -29.8142  -15.4518   15.1123 C   0  0  0  0  0  0  0  0  0  0  0  0
  -19.3158  -28.1607   21.4206 C   0  0  0  0  0  0  0  0  0  0  0  0
  -29.3060  -14.5926   16.2697 C   0  0  0  0  0  0  0  0  0  0  0  0
  -29.7394  -21.1766   18.1202 C   0  0  0  0  0  0  0  0  0  0  0  0
  -32.2251  -21.3673   17.6790 C   0  0  0  0  0  0  0  0  0  0  0  0
  -29.4789  -16.9218   15.3357 C   0  0  0  0  0  0  0  0  0  0  0  0
  -29.9315  -19.6900   18.4339 C   0  0  0  0  0  0  0  0  0  0  0  0
  -32.3622  -19.8880   18.0274 C   0  0  0  0  0  0  0  0  0  0  0  0
  -29.5015  -16.6221   17.7908 C   0  0  0  0  0  0  0  0  0  0  0  0
  -31.0165  -21.9883   18.4026 C   0  0  0  0  0  0  0  0  0  0  0  0
  -20.7217  -27.6457   21.7519 C   0  0  1  0  0  0  0  0  0  0  0  0
  -23.1789  -30.5156   21.3529 C   0  0  1  0  0  0  0  0  0  0  0  0
  -29.8206  -15.1229   17.6197 C   0  0  1  0  0  0  0  0  0  0  0  0
  -30.1415  -25.6333   15.0377 C   0  0  0  0  0  0  0  0  0  0  0  0
  -31.2267  -24.0097   20.4771 C   0  0  0  0  0  0  0  0  0  0  0  0
  -31.3681  -21.9174   13.4457 C   0  0  0  0  0  0  0  0  0  0  0  0
  -29.0562  -22.7917   15.0583 C   0  0  0  0  0  0  0  0  0  0  0  0
  -25.8567  -36.5001   17.2277 C   0  0  0  0  0  0  0  0  0  0  0  0
  -21.8088  -31.2623   17.0026 C   0  0  0  0  0  0  0  0  0  0  0  0
  -22.9977  -33.1080   15.7991 C   0  0  0  0  0  0  0  0  0  0  0  0
  -21.3227  -33.6498   17.5665 C   0  0  0  0  0  0  0  0  0  0  0  0
  -27.4087  -35.0373   20.3785 C   0  0  0  0  0  0  0  0  0  0  0  0
  -30.8948  -26.8236   19.8092 C   0  0  0  0  0  0  0  0  0  0  0  0
  -31.5206  -22.9669   14.5400 C   0  0  0  0  0  0  0  0  0  0  0  0
  -29.6387  -26.9249   20.6783 C   0  0  0  0  0  0  0  0  0  1  0  0
  -30.4706  -22.8110   15.6716 C   0  0  1  0  0  0  0  0  0  0  0  0
  -23.5665  -32.6961   18.2359 C   0  0  1  0  0  0  0  0  0  0  0  0
  -25.8812  -35.6853   18.5116 C   0  0  2  0  0  0  0  0  0  0  0  0
  -22.4385  -32.6601   17.1664 C   0  0  0  0  0  0  0  0  0  0  0  0
  -28.0784  -13.7463   18.6935 N   0  0  0  0  0  0  0  0  0  0  0  0
  -29.3000  -14.2993   18.7833 N   0  0  0  0  0  0  0  0  0  0  0  0
  -23.7286  -31.1229   20.1392 N   0  0  0  0  0  0  0  0  0  0  0  0
  -29.9809  -17.3864   16.6287 N   0  0  0  0  0  0  0  0  0  0  0  0
  -31.1215  -19.1647   17.7502 N   0  0  0  0  0  0  0  0  0  0  0  0
  -31.1753  -14.5147   20.2143 N   0  0  0  0  0  0  0  0  0  0  0  0
  -28.3275  -11.9533   22.6071 N   0  0  0  0  0  0  0  0  0  0  0  0
  -21.6317  -28.7532   21.9513 N   0  0  0  0  0  0  0  0  0  0  0  0
  -24.1625  -34.0132   18.4315 N   0  0  0  0  0  0  0  0  0  0  0  0
  -27.2480  -35.7745   19.0988 N   0  3  0  0  0  0  0  0  0  0  0  0
  -30.3837  -12.9685   22.6266 O   0  0  0  0  0  0  0  0  0  0  0  0
  -22.1914  -29.1234   19.7215 O   0  0  0  0  0  0  0  0  0  0  0  0
  -22.1804  -32.8662   20.1532 O   0  0  0  0  0  0  0  0  0  0  0  0
  -26.3363  -33.3869   17.9221 O   0  0  0  0  0  0  0  0  0  0  0  0
  -31.9447  -18.2609   15.7957 O   0  0  0  0  0  0  0  0  0  0  0  0
  -23.2682  -10.2667   20.9964 O   0  0  0  0  0  0  0  0  0  0  0  0
  -28.5164  -27.2293   19.8601 O   0  0  0  0  0  0  0  0  0  1  0  0
  -23.8032   -5.2447   23.2093 F   0  0  0  0  0  0  0  0  0  0  0  0
  -22.2691   -8.0349   19.7069 F   0  0  0  0  0  0  0  0  0  0  0  0
  1  2  1  0  0  0  0
  1  5  2  0  0  0  0
  2  6  2  0  0  0  0
  3  8  2  0  0  0  0
  3 16  1  0  0  0  0
  4  9  1  0  0  0  0
  4 16  2  0  0  0  0
  5 18  1  0  0  0  0
  6 20  1  0  0  0  0
  7 10  2  0  0  0  0
  7 19  1  0  0  0  0
  8 27  1  0  0  0  0
  9 27  2  0  0  0  0
 10 28  1  0  0  0  0
 11 12  2  0  0  0  0
 11 29  1  0  0  0  0
 12 30  1  0  0  0  0
 13 21  1  0  0  0  0
 13 28  2  0  0  0  0
 14 23  2  0  0  0  0
 14 24  1  0  0  0  0
 15 30  2  0  0  0  0
 15 31  1  0  0  0  0
 16 32  1  0  0  0  0
 17 32  1  0  0  0  0
 17 33  2  0  0  0  0
 17 34  1  0  0  0  0
 18 20  2  0  0  0  0
 18 39  1  0  0  0  0
 19 21  2  0  0  0  0
 19 40  1  0  0  0  0
 20 53  1  0  0  0  0
 21 41  1  0  0  0  0
 22 25  1  0  0  0  0
 22 26  2  0  0  0  0
 22 52  1  0  0  0  0
 23 26  1  0  0  0  0
 23 56  1  0  0  0  0
 24 25  2  0  0  0  0
 24 65  1  0  0  0  0
 25 57  1  0  0  0  0
 26 68  1  0  0  0  0
 27 87  1  0  0  0  0
 28 88  1  0  0  0  0
 29 31  2  0  0  0  0
 29 87  1  0  0  0  0
 30 89  1  0  0  0  0
 31 90  1  0  0  0  0
 32 72  2  0  0  0  0
 33 73  1  0  0  0  0
 33 77  1  0  0  0  0
 34 78  1  0  0  0  0
 34 82  2  0  0  0  0
 35 54  1  0  0  0  0
 35 79  1  0  0  0  0
 35 83  2  0  0  0  0
 36 69  1  0  0  0  0
 36 74  1  0  0  0  0
 36 84  2  0  0  0  0
 37 70  1  0  0  0  0
 37 80  1  0  0  0  0
 37 85  2  0  0  0  0
 38 75  1  0  0  0  0
 38 76  1  0  0  0  0
 38 86  2  0  0  0  0
 39 42  1  0  0  0  0
 40 54  1  0  0  0  0
 41 74  1  0  0  0  0
 42 44  1  0  0  0  0
 43 45  1  0  0  0  0
 43 48  1  0  0  0  0
 44 53  1  0  0  0  0
 45 55  1  0  0  0  0
 46 49  1  0  0  0  0
 46 52  1  0  0  0  0
 47 50  1  0  0  0  0
 47 52  1  0  0  0  0
 48 75  1  0  0  0  0
 49 76  1  0  0  0  0
 50 76  1  0  0  0  0
 51 55  1  0  0  0  0
 51 75  1  0  0  0  0
 53 79  1  0  0  0  0
 54 74  1  0  0  0  0
 55 73  1  0  0  0  0
 58 66  1  0  0  0  0
 59 68  1  0  0  0  0
 60 70  1  0  0  0  0
 61 71  1  0  0  0  0
 62 71  1  0  0  0  0
 63 71  1  0  0  0  0
 64 81  1  0  0  0  0
 65 67  1  0  0  0  0
 66 68  1  0  0  0  0
 67 88  1  0  0  0  0
 69 71  1  0  0  0  0
 69 80  1  0  0  0  0
 70 81  1  0  0  0  0
 72 73  1  0  0  0  0
M  CHG  1  81   1
M  ISO  4  38 100  67 101  76 100  88 101
M  END
> <Batch ID>
0163

> <Smiles>
CCC(C)c1c(C)cc(C[101CH2:1][101O:1]c2ccc3c(c2)CN(C(=O)C(NC(=O)C(C)NC)C(C)(C)C)C(C(=O)NC2CCCc4ccccc42)C3)c(C)c1C1CC[100N:0]([100C:0](=O)N2CCCC(n3nc(-c4ccc(Oc5ccc(F)cc5F)cc4)c(C(N)=O)c3N)C2)CC1

> <Shape>
0.267

> <Color>
0.097

> <Negative vol penalty>
0.000

$$$$

  -OEChem-04052322173D

 86 95  0     1  0  0  0  0  0999 V2000
  -32.0379  -25.0693   16.9892 C   0  0  0  0  0  0  0  0  0  0  0  0
  -30.8058  -24.7182   17.5315 C   0  0  0  0  0  0  0  0  0  0  0  0
  -23.6156  -10.0505   22.1483 C   0  0  0  0  0  0  0  0  0  0  0  0
  -24.7139   -8.7632   20.4239 C   0  0  0  0  0  0  0  0  0  0  0  0
  -32.7967  -26.0783   17.5809 C   0  0  0  0  0  0  0  0  0  0  0  0
  -30.3322  -25.3753   18.6666 C   0  0  0  0  0  0  0  0  0  0  0  0
  -25.4483  -26.6554   18.2743 C   0  0  0  0  0  0  0  0  0  0  0  0
  -22.6059   -9.0910   22.2216 C   0  0  0  0  0  0  0  0  0  0  0  0
  -23.7042   -7.8036   20.4972 C   0  0  0  0  0  0  0  0  0  0  0  0
  -24.5075  -25.6462   18.4748 C   0  0  0  0  0  0  0  0  0  0  0  0
  -22.1700   -6.0337   23.5986 C   0  0  0  0  0  0  0  0  0  0  0  0
  -21.7584   -5.6212   24.8659 C   0  0  0  0  0  0  0  0  0  0  0  0
  -24.1511  -26.4341   20.7268 C   0  0  0  0  0  0  0  0  0  0  0  0
  -19.5173   -6.3862   24.3871 C   0  0  0  0  0  0  0  0  0  0  0  0
  -24.6696   -9.8866   21.2495 C   0  0  0  0  0  0  0  0  0  0  0  0
  -26.9106  -10.9099   21.9117 C   0  0  0  0  0  0  0  0  0  0  0  0
  -32.3278  -26.7547   18.7181 C   0  0  0  0  0  0  0  0  0  0  0  0
  -25.7560  -27.5563   19.3039 C   0  0  0  0  0  0  0  0  0  0  0  0
  -31.0860  -26.3934   19.2748 C   0  0  0  0  0  0  0  0  0  0  0  0
  -25.0943  -27.4554   20.5360 C   0  0  0  0  0  0  0  0  0  0  0  0
  -24.5729  -21.3591   20.7437 C   0  0  0  0  0  0  0  0  0  0  0  0
  -25.0195  -20.4635   19.7410 C   0  0  0  0  0  0  0  0  0  0  0  0
  -22.6501   -7.9675   21.3960 C   0  0  0  0  0  0  0  0  0  0  0  0
  -23.8608  -25.5337   19.7021 C   0  0  0  0  0  0  0  0  0  0  0  0
  -21.2552   -6.6226   22.7255 C   0  0  0  0  0  0  0  0  0  0  0  0
  -20.4321   -5.7974   25.2601 C   0  0  0  0  0  0  0  0  0  0  0  0
  -19.9289   -6.7988   23.1198 C   0  0  0  0  0  0  0  0  0  0  0  0
  -25.7126  -10.8777   21.1730 C   0  0  0  0  0  0  0  0  0  0  0  0
  -23.2666  -21.6847   20.4522 C   0  0  0  0  0  0  0  0  0  0  0  0
  -23.9726  -20.2691   18.8671 C   0  0  0  0  0  0  0  0  0  0  0  0
  -27.5532  -12.0423   21.4745 C   0  0  0  0  0  0  0  0  0  0  0  0
  -27.3988   -9.9977   22.9043 C   0  0  0  0  0  0  0  0  0  0  0  0
  -28.3796  -28.2697   20.9506 C   0  0  0  0  0  0  0  0  0  0  0  0
  -26.4997  -30.6082   22.1833 C   0  0  0  0  0  0  0  0  0  0  0  0
  -23.3527  -31.7302   22.8792 C   0  0  0  0  0  0  0  0  0  0  0  0
  -26.1787  -17.3966   19.9192 C   0  0  0  0  0  0  0  0  0  0  0  0
  -33.2048  -27.8061   19.3505 C   0  0  0  0  0  0  0  0  0  0  0  0
  -26.7537  -28.6558   19.0629 C   0  0  0  0  0  0  0  0  0  0  0  0
  -25.3740  -28.4101   21.6669 C   0  0  0  0  0  0  0  0  0  0  0  0
  -32.4617  -28.7101   20.3308 C   0  0  0  0  0  0  0  0  0  0  0  0
  -27.2921  -14.8827   17.4588 C   0  0  0  0  0  0  0  0  0  0  0  0
  -31.5933  -27.8792   21.2700 C   0  0  0  0  0  0  0  0  0  0  0  0
  -27.0564  -13.5895   18.2336 C   0  0  0  0  0  0  0  0  0  0  0  0
  -20.3464  -20.7879   19.4323 C   0  0  0  0  0  0  0  0  0  0  0  0
  -20.8152  -19.8412   18.3721 C   0  0  0  0  0  0  0  0  0  0  0  0
  -26.2554  -15.9524   17.7994 C   0  0  0  0  0  0  0  0  0  0  0  0
  -25.9133  -14.9391   20.0356 C   0  0  0  0  0  0  0  0  0  0  0  0
  -30.5270  -27.1000   20.4907 C   0  0  1  0  0  0  0  0  0  0  0  0
  -27.3648  -29.2009   20.3501 C   0  0  1  0  0  0  0  0  0  0  0  0
  -21.6132  -21.0897   18.6663 C   0  0  0  0  0  0  0  0  0  0  0  0
  -26.9751  -13.8681   19.7423 C   0  0  1  0  0  0  0  0  0  0  0  0
  -25.3598  -21.8566   21.8912 C   0  0  0  0  0  0  0  0  0  0  0  0
  -23.8919  -19.4351   17.6487 C   0  0  0  0  0  0  0  0  0  0  0  0
  -27.3632  -20.6977   18.8388 C   0  0  0  0  0  0  0  0  0  0  0  0
  -22.0137  -22.0830   22.5977 C   0  0  0  0  0  0  0  0  0  0  0  0
  -22.1356  -33.6598   23.9246 C   0  0  0  0  0  0  0  0  0  0  0  0
  -27.2457  -29.5738   24.9552 C   0  0  0  0  0  0  0  0  0  0  0  0
  -25.3166  -30.8726   25.8827 C   0  0  0  0  0  0  0  0  0  0  0  0
  -27.1925  -32.0657   24.7511 C   0  0  0  0  0  0  0  0  0  0  0  0
  -21.9582  -32.3719   20.3488 C   0  0  0  0  0  0  0  0  0  0  0  0
  -22.8027  -24.0500   21.2302 C   0  0  0  0  0  0  0  0  0  1  0  0
  -26.3608  -19.8512   19.6472 C   0  0  2  0  0  0  0  0  0  0  0  0
  -22.2993  -22.6008   21.1852 C   0  0  1  0  0  0  0  0  0  0  0  0
  -25.5649  -30.7174   23.3637 C   0  0  1  0  0  0  0  0  0  0  0  0
  -22.6842  -33.0710   22.6342 C   0  0  2  0  0  0  0  0  0  0  0  0
  -26.3258  -30.7880   24.7177 C   0  0  0  0  0  0  0  0  0  0  0  0
  -25.5985  -11.9079   20.3305 N   0  0  0  0  0  0  0  0  0  0  0  0
  -22.9124  -21.0166   19.3091 N   0  0  0  0  0  0  0  0  0  0  0  0
  -26.7330  -12.5981   20.5372 N   0  0  0  0  0  0  0  0  0  0  0  0
  -26.3622  -29.4642   21.3844 N   0  0  0  0  0  0  0  0  0  0  0  0
  -26.1476  -16.1585   19.2523 N   0  0  0  0  0  0  0  0  0  0  0  0
  -28.7343  -12.6069   21.8042 N   0  0  0  0  0  0  0  0  0  0  0  0
  -26.6121   -8.8857   23.2344 N   0  0  0  0  0  0  0  0  0  0  0  0
  -29.4377  -27.9744   20.1123 N   0  0  0  0  0  0  0  0  0  0  0  0
  -24.7069  -31.8674   23.0998 N   0  0  0  0  0  0  0  0  0  0  0  0
  -26.3193  -18.5177   19.1091 N   0  0  0  0  0  0  0  0  0  0  0  0
  -21.5577  -32.9197   21.6704 N   0  3  0  0  0  0  0  0  0  0  0  0
  -28.4925  -10.1726   23.4932 O   0  0  0  0  0  0  0  0  0  0  0  0
  -28.2157  -27.8513   22.0906 O   0  0  0  0  0  0  0  0  0  0  0  0
  -27.3167  -31.5082   21.9736 O   0  0  0  0  0  0  0  0  0  0  0  0
  -22.7347  -30.6679   22.8788 O   0  0  0  0  0  0  0  0  0  0  0  0
  -26.0825  -17.4985   21.1472 O   0  0  0  0  0  0  0  0  0  0  0  0
  -21.6652   -7.0309   21.4674 O   0  0  0  0  0  0  0  0  0  0  0  0
  -22.9426  -24.5491   19.9007 O   0  0  0  0  0  0  0  0  0  1  0  0
  -20.0366   -5.3998   26.4766 F   0  0  0  0  0  0  0  0  0  0  0  0
  -19.0452   -7.3628   22.2850 F   0  0  0  0  0  0  0  0  0  0  0  0
  1  2  1  0  0  0  0
  1  5  2  0  0  0  0
  2  6  2  0  0  0  0
  3  8  2  0  0  0  0
  3 15  1  0  0  0  0
  4  9  1  0  0  0  0
  4 15  2  0  0  0  0
  5 17  1  0  0  0  0
  6 19  1  0  0  0  0
  7 10  2  0  0  0  0
  7 18  1  0  0  0  0
  8 23  1  0  0  0  0
  9 23  2  0  0  0  0
 10 24  1  0  0  0  0
 11 12  2  0  0  0  0
 11 25  1  0  0  0  0
 12 26  1  0  0  0  0
 13 20  1  0  0  0  0
 13 24  2  0  0  0  0
 14 26  2  0  0  0  0
 14 27  1  0  0  0  0
 15 28  1  0  0  0  0
 16 28  1  0  0  0  0
 16 31  2  0  0  0  0
 16 32  1  0  0  0  0
 17 19  2  0  0  0  0
 17 37  1  0  0  0  0
 18 20  2  0  0  0  0
 18 38  1  0  0  0  0
 19 48  1  0  0  0  0
 20 39  1  0  0  0  0
 21 22  1  0  0  0  0
 21 29  2  0  0  0  0
 21 52  1  0  0  0  0
 22 30  2  0  0  0  0
 22 62  1  0  0  0  0
 23 83  1  0  0  0  0
 24 84  1  0  0  0  0
 25 27  2  0  0  0  0
 25 83  1  0  0  0  0
 26 85  1  0  0  0  0
 27 86  1  0  0  0  0
 28 67  2  0  0  0  0
 29 63  1  0  0  0  0
 29 68  1  0  0  0  0
 30 53  1  0  0  0  0
 30 68  1  0  0  0  0
 31 69  1  0  0  0  0
 31 72  1  0  0  0  0
 32 73  1  0  0  0  0
 32 78  2  0  0  0  0
 33 49  1  0  0  0  0
 33 74  1  0  0  0  0
 33 79  2  0  0  0  0
 34 64  1  0  0  0  0
 34 70  1  0  0  0  0
 34 80  2  0  0  0  0
 35 65  1  0  0  0  0
 35 75  1  0  0  0  0
 35 81  2  0  0  0  0
 36 71  1  0  0  0  0
 36 76  1  0  0  0  0
 36 82  2  0  0  0  0
 37 40  1  0  0  0  0
 38 49  1  0  0  0  0
 39 70  1  0  0  0  0
 40 42  1  0  0  0  0
 41 43  1  0  0  0  0
 41 46  1  0  0  0  0
 42 48  1  0  0  0  0
 43 51  1  0  0  0  0
 44 45  1  0  0  0  0
 44 50  1  0  0  0  0
 45 50  1  0  0  0  0
 46 71  1  0  0  0  0
 47 51  1  0  0  0  0
 47 71  1  0  0  0  0
 48 74  1  0  0  0  0
 49 70  1  0  0  0  0
 50 68  1  0  0  0  0
 51 69  1  0  0  0  0
 54 62  1  0  0  0  0
 55 63  1  0  0  0  0
 56 65  1  0  0  0  0
 57 66  1  0  0  0  0
 58 66  1  0  0  0  0
 59 66  1  0  0  0  0
 60 77  1  0  0  0  0
 61 63  1  0  0  0  0
 61 84  1  0  0  0  0
 62 76  1  0  0  0  0
 64 66  1  0  0  0  0
 64 75  1  0  0  0  0
 65 77  1  0  0  0  0
 67 69  1  0  0  0  0
M  CHG  1  77   1
M  ISO  4  36 100  61 101  76 100  84 101
M  END
> <Batch ID>
0163

> <Smiles>
CNC(C)C(=O)NC(C(=O)N1Cc2cc([101O:1][101CH2:1]C(C)c3c(C)c(C(C)[100NH:0][100C:0](=O)N4CCCC(n5nc(-c6ccc(Oc7ccc(F)cc7F)cc6)c(C(N)=O)c5N)C4)c(C)n3C3CC3)ccc2CC1C(=O)NC1CCCc2ccccc21)C(C)(C)C

> <Shape>
0.245

> <Color>
0.085

> <Negative vol penalty>
0.000

$$$$

  -OEChem-04052322173D

 88 97  0     1  0  0  0  0  0999 V2000
  -16.6783  -29.8270   24.2277 C   0  0  0  0  0  0  0  0  0  0  0  0
  -16.9683  -29.3131   22.9689 C   0  0  0  0  0  0  0  0  0  0  0  0
  -24.3690  -14.4651   23.4393 C   0  0  0  0  0  0  0  0  0  0  0  0
  -22.6388  -14.6796   21.7668 C   0  0  0  0  0  0  0  0  0  0  0  0
  -17.6910  -30.4041   24.9910 C   0  0  0  0  0  0  0  0  0  0  0  0
  -18.2732  -29.3655   22.4777 C   0  0  0  0  0  0  0  0  0  0  0  0
  -25.5844  -28.0426   18.7097 C   0  0  0  0  0  0  0  0  0  0  0  0
  -23.4084  -14.5647   24.4458 C   0  0  0  0  0  0  0  0  0  0  0  0
  -21.6782  -14.7792   22.7732 C   0  0  0  0  0  0  0  0  0  0  0  0
  -26.9193  -28.2302   19.0656 C   0  0  0  0  0  0  0  0  0  0  0  0
  -21.6280  -17.0087   25.9561 C   0  0  0  0  0  0  0  0  0  0  0  0
  -21.9065  -17.8461   27.0362 C   0  0  0  0  0  0  0  0  0  0  0  0
  -26.4261  -27.4596   21.2977 C   0  0  0  0  0  0  0  0  0  0  0  0
  -21.7317  -15.9637   28.5406 C   0  0  0  0  0  0  0  0  0  0  0  0
  -23.9842  -14.5226   22.0998 C   0  0  0  0  0  0  0  0  0  0  0  0
  -25.4343  -13.2453   20.4345 C   0  0  0  0  0  0  0  0  0  0  0  0
  -19.0063  -30.4744   24.5030 C   0  0  0  0  0  0  0  0  0  0  0  0
  -24.6565  -27.5717   19.6497 C   0  0  0  0  0  0  0  0  0  0  0  0
  -19.3139  -29.9225   23.2428 C   0  0  0  0  0  0  0  0  0  0  0  0
  -25.0806  -27.2645   20.9504 C   0  0  0  0  0  0  0  0  0  0  0  0
  -22.0630  -14.7217   24.1128 C   0  0  0  0  0  0  0  0  0  0  0  0
  -27.3397  -27.9415   20.3606 C   0  0  0  0  0  0  0  0  0  0  0  0
  -21.4011  -15.6488   26.1682 C   0  0  0  0  0  0  0  0  0  0  0  0
  -21.9584  -17.3236   28.3285 C   0  0  0  0  0  0  0  0  0  0  0  0
  -21.4530  -15.1263   27.4604 C   0  0  0  0  0  0  0  0  0  0  0  0
  -24.9760  -14.4204   21.0597 C   0  0  0  0  0  0  0  0  0  0  0  0
  -26.3665  -13.6813   19.5250 C   0  0  0  0  0  0  0  0  0  0  0  0
  -25.0516  -11.8814   20.6562 C   0  0  0  0  0  0  0  0  0  0  0  0
  -22.0031  -28.7334   20.9587 C   0  0  0  0  0  0  0  0  0  0  0  0
  -21.8141  -25.7694   22.2631 C   0  0  0  0  0  0  0  0  0  0  0  0
  -24.0881  -23.3996   23.7565 C   0  0  0  0  0  0  0  0  0  0  0  0
  -29.6437  -18.5953   19.4329 C   0  0  0  0  0  0  0  0  0  0  0  0
  -20.0652  -31.1028   25.3743 C   0  0  0  0  0  0  0  0  0  0  0  0
  -23.2258  -27.3493   19.2425 C   0  0  0  0  0  0  0  0  0  0  0  0
  -24.1281  -26.7372   21.9912 C   0  0  0  0  0  0  0  0  0  0  0  0
  -21.3113  -31.5105   24.5950 C   0  0  0  0  0  0  0  0  0  0  0  0
  -27.3523  -17.4651   16.8827 C   0  0  0  0  0  0  0  0  0  0  0  0
  -21.7806  -30.3550   23.7236 C   0  0  0  0  0  0  0  0  0  0  0  0
  -26.5271  -16.4157   17.6268 C   0  0  0  0  0  0  0  0  0  0  0  0
  -29.3967  -22.1942   19.7283 C   0  0  0  0  0  0  0  0  0  0  0  0
  -31.5965  -25.6471   18.8356 C   0  0  0  0  0  0  0  0  0  0  0  0
  -30.6707  -26.1000   21.0564 C   0  0  0  0  0  0  0  0  0  0  0  0
  -27.7381  -18.6369   17.7867 C   0  0  0  0  0  0  0  0  0  0  0  0
  -29.0398  -20.9734   18.8862 C   0  0  0  0  0  0  0  0  0  0  0  0
  -31.4150  -20.2837   18.8271 C   0  0  0  0  0  0  0  0  0  0  0  0
  -27.5933  -17.1823   19.7818 C   0  0  0  0  0  0  0  0  0  0  0  0
  -20.7199  -29.9958   22.6753 C   0  0  1  0  0  0  0  0  0  0  0  0
  -22.2607  -27.3530   20.4240 C   0  0  1  0  0  0  0  0  0  0  0  0
  -32.0077  -27.0465   19.3271 C   0  0  2  0  0  0  0  0  0  0  0  0
  -31.8315  -21.4886   19.6852 C   0  0  2  0  0  0  0  0  0  0  0  0
  -27.2388  -15.9644   18.9145 C   0  0  1  0  0  0  0  0  0  0  0  0
  -30.8356  -22.6423   19.4707 C   0  0  2  0  0  0  0  0  0  0  0  0
  -30.6708  -25.0870   19.9163 C   0  0  2  0  0  0  0  0  0  0  0  0
  -30.9174  -27.4482   20.3523 C   0  0  2  0  0  0  0  0  0  0  0  0
  -32.2446  -28.0211   18.1810 C   0  0  0  0  0  0  0  0  0  0  0  0
  -31.4274  -28.4973   21.3468 C   0  0  0  0  0  0  0  0  0  0  0  0
  -23.9686  -20.8977   23.9101 C   0  0  0  0  0  0  0  0  0  0  0  0
  -34.2268  -20.7364   19.6668 C   0  0  0  0  0  0  0  0  0  0  0  0
  -33.3864  -22.2947   17.8865 C   0  0  0  0  0  0  0  0  0  0  0  0
  -20.5271  -26.2872   24.9807 C   0  0  0  0  0  0  0  0  0  0  0  0
  -21.7856  -24.3159   25.8743 C   0  0  0  0  0  0  0  0  0  0  0  0
  -20.1142  -24.0033   24.0491 C   0  0  0  0  0  0  0  0  0  0  0  0
  -26.7425  -23.0789   22.4876 C   0  0  0  0  0  0  0  0  0  0  0  0
  -29.6241  -27.9685   19.6998 C   0  0  0  0  0  0  0  0  0  1  0  0
  -22.3200  -25.1251   23.5311 C   0  0  1  0  0  0  0  0  0  0  0  0
  -24.5519  -22.0839   23.1580 C   0  0  2  0  0  0  0  0  0  0  0  0
  -33.2719  -21.8841   19.3515 C   0  0  0  0  0  0  0  0  0  0  0  0
  -21.2005  -24.9545   24.5966 C   0  0  0  0  0  0  0  0  0  0  0  0
  -25.5684  -15.5204   20.5872 N   0  0  0  0  0  0  0  0  0  0  0  0
  -26.4085  -15.0383   19.6557 N   0  0  0  0  0  0  0  0  0  0  0  0
  -22.7383  -26.5426   21.5463 N   0  0  0  0  0  0  0  0  0  0  0  0
  -28.3774  -18.1556   19.0187 N   0  0  0  0  0  0  0  0  0  0  0  0
  -30.0156  -19.8990   19.0636 N   0  0  0  0  0  0  0  0  0  0  0  0
  -27.1462  -13.0326   18.6341 N   0  0  0  0  0  0  0  0  0  0  0  0
  -24.0792  -11.6099   21.6284 N   0  0  0  0  0  0  0  0  0  0  0  0
  -21.1084  -28.7711   22.0111 N   0  0  0  0  0  0  0  0  0  0  0  0
  -22.9568  -23.8759   23.1283 N   0  0  0  0  0  0  0  0  0  0  0  0
  -31.1439  -23.7705   20.3918 N   0  3  0  0  0  0  0  0  0  0  0  0
  -26.0382  -21.9873   23.2082 N   0  3  0  0  0  0  0  0  0  0  0  0
  -25.5687  -10.9302   20.0228 O   0  0  0  0  0  0  0  0  0  0  0  0
  -22.5750  -29.6929   20.4549 O   0  0  0  0  0  0  0  0  0  0  0  0
  -20.6440  -25.5872   21.9174 O   0  0  0  0  0  0  0  0  0  0  0  0
  -24.6690  -23.9480   24.6905 O   0  0  0  0  0  0  0  0  0  0  0  0
  -30.3993  -17.8687   20.0902 O   0  0  0  0  0  0  0  0  0  0  0  0
  -21.1254  -14.8186   25.0946 O   0  0  0  0  0  0  0  0  0  0  0  0
  -28.6555  -28.1262   20.7145 O   0  0  0  0  0  0  0  0  0  1  0  0
  -22.2275  -18.1275   29.3655 F   0  0  0  0  0  0  0  0  0  0  0  0
  -21.2372  -13.8205   27.6703 F   0  0  0  0  0  0  0  0  0  0  0  0
  1  2  1  0  0  0  0
  1  5  2  0  0  0  0
  2  6  2  0  0  0  0
  3  8  2  0  0  0  0
  3 15  1  0  0  0  0
  4  9  1  0  0  0  0
  4 15  2  0  0  0  0
  5 17  1  0  0  0  0
  6 19  1  0  0  0  0
  7 10  2  0  0  0  0
  7 18  1  0  0  0  0
  8 21  1  0  0  0  0
  9 21  2  0  0  0  0
 10 22  1  0  0  0  0
 11 12  2  0  0  0  0
 11 23  1  0  0  0  0
 12 24  1  0  0  0  0
 13 20  1  0  0  0  0
 13 22  2  0  0  0  0
 14 24  2  0  0  0  0
 14 25  1  0  0  0  0
 15 26  1  0  0  0  0
 16 26  1  0  0  0  0
 16 27  2  0  0  0  0
 16 28  1  0  0  0  0
 17 19  2  0  0  0  0
 17 33  1  0  0  0  0
 18 20  2  0  0  0  0
 18 34  1  0  0  0  0
 19 47  1  0  0  0  0
 20 35  1  0  0  0  0
 21 85  1  0  0  0  0
 22 86  1  0  0  0  0
 23 25  2  0  0  0  0
 23 85  1  0  0  0  0
 24 87  1  0  0  0  0
 25 88  1  0  0  0  0
 26 69  2  0  0  0  0
 27 70  1  0  0  0  0
 27 74  1  0  0  0  0
 28 75  1  0  0  0  0
 28 80  2  0  0  0  0
 29 48  1  0  0  0  0
 29 76  1  0  0  0  0
 29 81  2  0  0  0  0
 30 65  1  0  0  0  0
 30 71  1  0  0  0  0
 30 82  2  0  0  0  0
 31 66  1  0  0  0  0
 31 77  1  0  0  0  0
 31 83  2  0  0  0  0
 32 72  1  0  0  0  0
 32 73  1  0  0  0  0
 32 84  2  0  0  0  0
 33 36  1  0  0  0  0
 34 48  1  0  0  0  0
 35 71  1  0  0  0  0
 36 38  1  0  0  0  0
 37 39  1  0  0  0  0
 37 43  1  0  0  0  0
 38 47  1  0  0  0  0
 39 51  1  0  0  0  0
 40 44  1  0  0  0  0
 40 52  1  0  0  0  0
 41 49  1  0  0  0  0
 41 53  1  0  0  0  0
 42 53  1  0  0  0  0
 42 54  1  0  0  0  0
 43 72  1  0  0  0  0
 44 73  1  0  0  0  0
 45 50  1  0  0  0  0
 45 73  1  0  0  0  0
 46 51  1  0  0  0  0
 46 72  1  0  0  0  0
 47 76  1  0  0  0  0
 48 71  1  0  0  0  0
 49 54  1  0  0  0  0
 49 55  1  0  0  0  0
 50 52  1  0  0  0  0
 50 67  1  0  0  0  0
 51 70  1  0  0  0  0
 52 78  1  0  0  0  0
 53 78  1  0  0  0  0
 54 56  1  0  0  0  0
 54 64  1  0  0  0  0
 57 66  1  0  0  0  0
 58 67  1  0  0  0  0
 59 67  1  0  0  0  0
 60 68  1  0  0  0  0
 61 68  1  0  0  0  0
 62 68  1  0  0  0  0
 63 79  1  0  0  0  0
 64 86  1  0  0  0  0
 65 68  1  0  0  0  0
 65 77  1  0  0  0  0
 66 79  1  0  0  0  0
 69 70  1  0  0  0  0
M  CHG  2  78   1  79   1
M  ISO  4  32 100  64 101  73 100  86 101
M  END
> <Batch ID>
0163

> <Smiles>
CNC(C)C(=O)NC(C(=O)N1Cc2cc([101O:1][101CH2:1]C3(C)CC(NC4CC[100N:0]([100C:0](=O)N5CCCC(n6nc(-c7ccc(Oc8ccc(F)cc8F)cc7)c(C(N)=O)c6N)C5)CC4C(C)C)CC3C)ccc2CC1C(=O)NC1CCCc2ccccc21)C(C)(C)C

> <Shape>
0.225

> <Color>
0.083

> <Negative vol penalty>
0.000

$$$$

  -OEChem-04052322173D

 90 99  0     1  0  0  0  0  0999 V2000
  -26.8827  -37.7639   23.2114 C   0  0  0  0  0  0  0  0  0  0  0  0
  -27.5625  -36.8154   22.4540 C   0  0  0  0  0  0  0  0  0  0  0  0
  -23.5400   -9.1450   20.3538 C   0  0  0  0  0  0  0  0  0  0  0  0
  -23.0145  -10.9321   21.8924 C   0  0  0  0  0  0  0  0  0  0  0  0
  -26.0153  -37.3549   24.2234 C   0  0  0  0  0  0  0  0  0  0  0  0
  -27.3759  -35.4572   22.7089 C   0  0  0  0  0  0  0  0  0  0  0  0
  -27.1961  -29.1231   19.3677 C   0  0  0  0  0  0  0  0  0  0  0  0
  -22.7773   -8.2624   21.1185 C   0  0  0  0  0  0  0  0  0  0  0  0
  -22.2518  -10.0494   22.6572 C   0  0  0  0  0  0  0  0  0  0  0  0
  -27.7583  -27.8495   19.4427 C   0  0  0  0  0  0  0  0  0  0  0  0
  -23.1307   -6.5036   23.9832 C   0  0  0  0  0  0  0  0  0  0  0  0
  -23.6736   -5.2481   24.2561 C   0  0  0  0  0  0  0  0  0  0  0  0
  -26.1745  -27.2584   21.1637 C   0  0  0  0  0  0  0  0  0  0  0  0
  -21.8074   -4.1979   23.1374 C   0  0  0  0  0  0  0  0  0  0  0  0
  -23.6586  -10.4799   20.7408 C   0  0  0  0  0  0  0  0  0  0  0  0
  -24.0047  -12.1873   18.8773 C   0  0  0  0  0  0  0  0  0  0  0  0
  -25.8106  -35.9909   24.4845 C   0  0  0  0  0  0  0  0  0  0  0  0
  -26.1242  -29.4781   20.1992 C   0  0  0  0  0  0  0  0  0  0  0  0
  -26.5059  -35.0296   23.7262 C   0  0  0  0  0  0  0  0  0  0  0  0
  -25.5989  -28.5363   21.0954 C   0  0  0  0  0  0  0  0  0  0  0  0
  -28.2074  -20.1709   19.8284 C   0  0  0  0  0  0  0  0  0  0  0  0
  -28.0951  -19.0373   18.9862 C   0  0  0  0  0  0  0  0  0  0  0  0
  -22.1332   -8.7145   22.2702 C   0  0  0  0  0  0  0  0  0  0  0  0
  -27.2494  -26.9179   20.3428 C   0  0  0  0  0  0  0  0  0  0  0  0
  -21.9261   -6.6063   23.2874 C   0  0  0  0  0  0  0  0  0  0  0  0
  -23.0120   -4.0953   23.8333 C   0  0  0  0  0  0  0  0  0  0  0  0
  -21.2644   -5.4535   22.8645 C   0  0  0  0  0  0  0  0  0  0  0  0
  -24.4467  -11.3921   19.9515 C   0  0  0  0  0  0  0  0  0  0  0  0
  -27.0029  -20.8376   19.7835 C   0  0  0  0  0  0  0  0  0  0  0  0
  -26.8255  -19.0458   18.4521 C   0  0  0  0  0  0  0  0  0  0  0  0
  -25.1258  -12.8685   18.4703 C   0  0  0  0  0  0  0  0  0  0  0  0
  -22.6976  -12.3002   18.2990 C   0  0  0  0  0  0  0  0  0  0  0  0
  -25.6722  -31.6564   22.4696 C   0  0  0  0  0  0  0  0  0  0  0  0
  -22.6172  -30.5715   22.3586 C   0  0  0  0  0  0  0  0  0  0  0  0
  -20.4702  -28.0334   21.5871 C   0  0  0  0  0  0  0  0  0  0  0  0
  -29.7313  -15.7975   19.6347 C   0  0  0  0  0  0  0  0  0  0  0  0
  -24.8992  -35.5978   25.6200 C   0  0  0  0  0  0  0  0  0  0  0  0
  -25.5117  -30.8473   20.0872 C   0  0  0  0  0  0  0  0  0  0  0  0
  -24.4360  -28.8611   21.9958 C   0  0  0  0  0  0  0  0  0  0  0  0
  -24.4711  -34.1331   25.5784 C   0  0  0  0  0  0  0  0  0  0  0  0
  -29.9889  -12.2473   19.7158 C   0  0  0  0  0  0  0  0  0  0  0  0
  -25.6740  -33.2327   25.3152 C   0  0  0  0  0  0  0  0  0  0  0  0
  -23.3996  -22.0763   19.0812 C   0  0  0  0  0  0  0  0  0  0  0  0
  -28.5341  -11.7746   19.7021 C   0  0  0  0  0  0  0  0  0  0  0  0
  -24.6820  -22.0228   18.2321 C   0  0  0  0  0  0  0  0  0  0  0  0
  -30.1585  -13.5278   20.5304 C   0  0  0  0  0  0  0  0  0  0  0  0
  -27.8121  -14.1621   20.1233 C   0  0  0  0  0  0  0  0  0  0  0  0
  -26.3111  -33.5466   23.9561 C   0  0  1  0  0  0  0  0  0  0  0  0
  -24.7559  -31.2684   21.3438 C   0  0  1  0  0  0  0  0  0  0  0  0
  -23.9767  -20.8944   19.8990 C   0  0  2  0  0  0  0  0  0  0  0  0
  -27.5814  -12.9047   19.2678 C   0  0  2  0  0  0  0  0  0  0  0  0
  -24.8058  -20.5184   18.6228 C   0  0  2  0  0  0  0  0  0  0  0  0
  -26.1798  -18.1014   17.5154 C   0  0  0  0  0  0  0  0  0  0  0  0
  -22.9768  -19.8616   20.3797 C   0  0  0  0  0  0  0  0  0  0  0  0
  -30.6213  -20.8892   19.7245 C   0  0  0  0  0  0  0  0  0  0  0  0
  -29.7957  -19.5222   21.6752 C   0  0  0  0  0  0  0  0  0  0  0  0
  -29.5485  -17.9397   17.2413 C   0  0  0  0  0  0  0  0  0  0  0  0
  -18.0357  -27.4274   21.6419 C   0  0  0  0  0  0  0  0  0  0  0  0
  -22.7989  -30.1243   25.3714 C   0  0  0  0  0  0  0  0  0  0  0  0
  -20.7641  -28.6747   25.2087 C   0  0  0  0  0  0  0  0  0  0  0  0
  -20.6276  -31.0872   24.5888 C   0  0  0  0  0  0  0  0  0  0  0  0
  -20.3697  -27.6927   18.6489 C   0  0  0  0  0  0  0  0  0  0  0  0
  -26.5638  -22.1001   20.4812 C   0  0  0  0  0  0  0  0  0  0  0  0
  -27.4326  -23.3172   20.1569 C   0  0  0  0  0  0  0  0  0  0  0  0
  -26.9307  -24.6056   20.7985 C   0  0  0  0  0  0  0  0  0  1  0  0
  -29.3959  -20.5694   20.6108 C   0  0  0  0  0  0  0  0  0  0  0  0
  -29.1452  -18.0313   18.7259 C   0  0  2  0  0  0  0  0  0  0  0  0
  -21.8435  -29.4817   23.0605 C   0  0  1  0  0  0  0  0  0  0  0  0
  -19.1648  -28.0187   20.8124 C   0  0  2  0  0  0  0  0  0  0  0  0
  -21.5317  -29.8362   24.5419 C   0  0  0  0  0  0  0  0  0  0  0  0
  -25.7472  -11.5521   20.2106 N   0  0  0  0  0  0  0  0  0  0  0  0
  -26.1707  -20.1448   18.9435 N   0  0  0  0  0  0  0  0  0  0  0  0
  -26.1321  -12.4557   19.2932 N   0  0  0  0  0  0  0  0  0  0  0  0
  -23.8756  -30.2150   21.8535 N   0  0  0  0  0  0  0  0  0  0  0  0
  -29.2276  -14.5597   20.0673 N   0  0  0  0  0  0  0  0  0  0  0  0
  -25.3392  -13.7742   17.4922 N   0  0  0  0  0  0  0  0  0  0  0  0
  -21.6593  -11.5291   18.8389 N   0  0  0  0  0  0  0  0  0  0  0  0
  -25.5293  -32.9664   22.8853 N   0  0  0  0  0  0  0  0  0  0  0  0
  -20.6606  -29.2304   22.2445 N   0  0  0  0  0  0  0  0  0  0  0  0
  -28.7816  -16.7168   19.2060 N   0  0  0  0  0  0  0  0  0  0  0  0
  -19.3090  -27.2089   19.5697 N   0  3  0  0  0  0  0  0  0  0  0  0
  -22.4611  -13.0501   17.3216 O   0  0  0  0  0  0  0  0  0  0  0  0
  -26.4502  -30.8281   22.9282 O   0  0  0  0  0  0  0  0  0  0  0  0
  -22.1202  -31.6958   22.2559 O   0  0  0  0  0  0  0  0  0  0  0  0
  -21.2420  -27.0772   21.6100 O   0  0  0  0  0  0  0  0  0  0  0  0
  -30.9384  -16.0618   19.6256 O   0  0  0  0  0  0  0  0  0  0  0  0
  -21.3888   -7.8536   23.0166 O   0  0  0  0  0  0  0  0  0  0  0  0
  -27.7967  -25.6742   20.4185 O   0  0  0  0  0  0  0  0  0  1  0  0
  -23.5342   -2.8897   24.0941 F   0  0  0  0  0  0  0  0  0  0  0  0
  -20.1075   -5.5459   22.1947 F   0  0  0  0  0  0  0  0  0  0  0  0
  1  2  1  0  0  0  0
  1  5  2  0  0  0  0
  2  6  2  0  0  0  0
  3  8  2  0  0  0  0
  3 15  1  0  0  0  0
  4  9  1  0  0  0  0
  4 15  2  0  0  0  0
  5 17  1  0  0  0  0
  6 19  1  0  0  0  0
  7 10  2  0  0  0  0
  7 18  1  0  0  0  0
  8 23  1  0  0  0  0
  9 23  2  0  0  0  0
 10 24  1  0  0  0  0
 11 12  2  0  0  0  0
 11 25  1  0  0  0  0
 12 26  1  0  0  0  0
 13 20  1  0  0  0  0
 13 24  2  0  0  0  0
 14 26  2  0  0  0  0
 14 27  1  0  0  0  0
 15 28  1  0  0  0  0
 16 28  1  0  0  0  0
 16 31  2  0  0  0  0
 16 32  1  0  0  0  0
 17 19  2  0  0  0  0
 17 37  1  0  0  0  0
 18 20  2  0  0  0  0
 18 38  1  0  0  0  0
 19 48  1  0  0  0  0
 20 39  1  0  0  0  0
 21 22  1  0  0  0  0
 21 29  2  0  0  0  0
 21 66  1  0  0  0  0
 22 30  2  0  0  0  0
 22 67  1  0  0  0  0
 23 87  1  0  0  0  0
 24 88  1  0  0  0  0
 25 27  2  0  0  0  0
 25 87  1  0  0  0  0
 26 89  1  0  0  0  0
 27 90  1  0  0  0  0
 28 71  2  0  0  0  0
 29 63  1  0  0  0  0
 29 72  1  0  0  0  0
 30 53  1  0  0  0  0
 30 72  1  0  0  0  0
 31 73  1  0  0  0  0
 31 76  1  0  0  0  0
 32 77  1  0  0  0  0
 32 82  2  0  0  0  0
 33 49  1  0  0  0  0
 33 78  1  0  0  0  0
 33 83  2  0  0  0  0
 34 68  1  0  0  0  0
 34 74  1  0  0  0  0
 34 84  2  0  0  0  0
 35 69  1  0  0  0  0
 35 79  1  0  0  0  0
 35 85  2  0  0  0  0
 36 75  1  0  0  0  0
 36 80  1  0  0  0  0
 36 86  2  0  0  0  0
 37 40  1  0  0  0  0
 38 49  1  0  0  0  0
 39 74  1  0  0  0  0
 40 42  1  0  0  0  0
 41 44  1  0  0  0  0
 41 46  1  0  0  0  0
 42 48  1  0  0  0  0
 43 45  1  0  0  0  0
 43 50  1  0  0  0  0
 44 51  1  0  0  0  0
 45 52  1  0  0  0  0
 46 75  1  0  0  0  0
 47 51  1  0  0  0  0
 47 75  1  0  0  0  0
 48 78  1  0  0  0  0
 49 74  1  0  0  0  0
 50 52  1  0  0  0  0
 50 54  1  0  0  0  0
 51 73  1  0  0  0  0
 52 72  1  0  0  0  0
 55 66  1  0  0  0  0
 56 66  1  0  0  0  0
 57 67  1  0  0  0  0
 58 69  1  0  0  0  0
 59 70  1  0  0  0  0
 60 70  1  0  0  0  0
 61 70  1  0  0  0  0
 62 81  1  0  0  0  0
 63 64  1  0  0  0  0
 64 65  1  0  0  0  0
 65 88  1  0  0  0  0
 67 80  1  0  0  0  0
 68 70  1  0  0  0  0
 68 79  1  0  0  0  0
 69 81  1  0  0  0  0
 71 73  1  0  0  0  0
M  CHG  1  81   1
M  ISO  4  36 100  65 101  80 100  88 101
M  END
> <Batch ID>
0163

> <Smiles>
CNC(C)C(=O)NC(C(=O)N1Cc2cc([101O:1][101CH2:1]CCc3c(C(C)C)c(C(C)[100NH:0][100C:0](=O)N4CCCC(n5nc(-c6ccc(Oc7ccc(F)cc7F)cc6)c(C(N)=O)c5N)C4)c(C)n3C3CCC3C)ccc2CC1C(=O)NC1CCCc2ccccc21)C(C)(C)C

> <Shape>
0.340

> <Color>
0.106

> <Negative vol penalty>
0.000

$$$$

  -OEChem-04052322173D

 90101  0     1  0  0  0  0  0999 V2000
  -20.2845  -32.0641   14.8444 C   0  0  0  0  0  0  0  0  0  0  0  0
  -21.5304  -31.4728   15.0273 C   0  0  0  0  0  0  0  0  0  0  0  0
  -23.8013   -9.5640   21.1401 C   0  0  0  0  0  0  0  0  0  0  0  0
  -24.4529  -10.4532   23.2899 C   0  0  0  0  0  0  0  0  0  0  0  0
  -19.7193  -32.8265   15.8657 C   0  0  0  0  0  0  0  0  0  0  0  0
  -22.2125  -31.6447   16.2313 C   0  0  0  0  0  0  0  0  0  0  0  0
  -25.8195  -27.5654   19.0339 C   0  0  0  0  0  0  0  0  0  0  0  0
  -23.3202   -8.4121   21.7624 C   0  0  0  0  0  0  0  0  0  0  0  0
  -23.9717   -9.3013   23.9122 C   0  0  0  0  0  0  0  0  0  0  0  0
  -27.2040  -27.4049   19.0682 C   0  0  0  0  0  0  0  0  0  0  0  0
  -20.5659   -7.4779   23.4870 C   0  0  0  0  0  0  0  0  0  0  0  0
  -19.3207   -6.9955   23.0842 C   0  0  0  0  0  0  0  0  0  0  0  0
  -27.2889  -28.6333   21.1426 C   0  0  0  0  0  0  0  0  0  0  0  0
  -28.4796  -19.1532   21.1075 C   0  0  0  0  0  0  0  0  0  0  0  0
  -20.3440   -4.9109   22.4173 C   0  0  0  0  0  0  0  0  0  0  0  0
  -24.3677  -10.5846   21.9039 C   0  0  0  0  0  0  0  0  0  0  0  0
  -24.1503  -12.9562   20.9897 C   0  0  0  0  0  0  0  0  0  0  0  0
  -20.3904  -32.9998   17.0865 C   0  0  0  0  0  0  0  0  0  0  0  0
  -25.1594  -28.2715   20.0498 C   0  0  0  0  0  0  0  0  0  0  0  0
  -21.6563  -32.4113   17.2695 C   0  0  0  0  0  0  0  0  0  0  0  0
  -25.8957  -28.7990   21.1202 C   0  0  0  0  0  0  0  0  0  0  0  0
  -29.8068  -21.0840   20.5641 C   0  0  0  0  0  0  0  0  0  0  0  0
  -28.6549  -20.5325   21.1140 C   0  0  0  0  0  0  0  0  0  0  0  0
  -23.4053   -8.2808   23.1484 C   0  0  0  0  0  0  0  0  0  0  0  0
  -27.9393  -27.9414   20.1211 C   0  0  0  0  0  0  0  0  0  0  0  0
  -21.7003   -6.6769   23.3549 C   0  0  0  0  0  0  0  0  0  0  0  0
  -19.2097   -5.7120   22.5494 C   0  0  0  0  0  0  0  0  0  0  0  0
  -21.5893   -5.3934   22.8201 C   0  0  0  0  0  0  0  0  0  0  0  0
  -24.8654  -11.7745   21.2616 C   0  0  0  0  0  0  0  0  0  0  0  0
  -29.4778  -18.3753   20.5435 C   0  0  0  0  0  0  0  0  0  0  0  0
  -30.7457  -20.2196   20.0246 C   0  0  0  0  0  0  0  0  0  0  0  0
  -25.0640  -13.7766   20.3744 C   0  0  0  0  0  0  0  0  0  0  0  0
  -22.7825  -13.2832   21.2686 C   0  0  0  0  0  0  0  0  0  0  0  0
  -23.3986  -30.9154   20.1642 C   0  0  0  0  0  0  0  0  0  0  0  0
  -22.9710  -30.0300   23.2554 C   0  0  0  0  0  0  0  0  0  0  0  0
  -24.1243  -28.2945   25.9581 C   0  0  0  0  0  0  0  0  0  0  0  0
  -30.1558  -16.0036   20.0320 C   0  0  0  0  0  0  0  0  0  0  0  0
  -19.7606  -33.8718   18.1437 C   0  0  0  0  0  0  0  0  0  0  0  0
  -23.6624  -28.4128   20.0120 C   0  0  0  0  0  0  0  0  0  0  0  0
  -25.2324  -29.5481   22.2460 C   0  0  0  0  0  0  0  0  0  0  0  0
  -20.3805  -33.6952   19.5275 C   0  0  0  0  0  0  0  0  0  0  0  0
  -29.6907  -12.7884   18.5747 C   0  0  0  0  0  0  0  0  0  0  0  0
  -21.9031  -33.7111   19.4364 C   0  0  0  0  0  0  0  0  0  0  0  0
  -28.3351  -12.3352   19.1215 C   0  0  0  0  0  0  0  0  0  0  0  0
  -34.2545  -20.2014   18.8998 C   0  0  0  0  0  0  0  0  0  0  0  0
  -33.7972  -19.1896   19.9095 C   0  0  0  0  0  0  0  0  0  0  0  0
  -30.4865  -13.5765   19.6136 C   0  0  0  0  0  0  0  0  0  0  0  0
  -28.4156  -14.2559   20.7620 C   0  0  0  0  0  0  0  0  0  0  0  0
  -29.6949  -24.7791   21.9037 C   0  0  0  0  0  0  0  0  0  0  0  0
  -31.8172  -24.4546   20.7959 C   0  0  0  0  0  0  0  0  0  0  0  0
  -30.0251  -22.5507   20.5547 C   0  0  0  0  0  0  0  0  0  0  0  0
  -22.4160  -32.5541   18.5705 C   0  0  1  0  0  0  0  0  0  0  0  0
  -23.1527  -29.5928   20.8336 C   0  0  1  0  0  0  0  0  0  0  0  0
  -29.9788  -23.3095   21.8658 C   0  0  1  0  0  0  0  0  0  0  0  0
  -31.2856  -23.1097   21.1837 C   0  0  2  0  0  0  0  0  0  0  0  0
  -27.5504  -13.5139   19.7303 C   0  0  2  0  0  0  0  0  0  0  0  0
  -32.8142  -19.7770   18.9377 C   0  0  0  0  0  0  0  0  0  0  0  0
  -27.5954  -21.3961   21.7152 C   0  0  0  0  0  0  0  0  0  0  0  0
  -23.5786  -27.7913   28.3553 C   0  0  0  0  0  0  0  0  0  0  0  0
  -23.9226  -32.8168   24.0545 C   0  0  0  0  0  0  0  0  0  0  0  0
  -24.2638  -31.9572   26.3810 C   0  0  0  0  0  0  0  0  0  0  0  0
  -21.9806  -31.9587   25.3762 C   0  0  0  0  0  0  0  0  0  0  0  0
  -23.9146  -25.3915   25.4221 C   0  0  0  0  0  0  0  0  0  0  0  0
  -31.1151  -26.8225   21.3915 C   0  0  0  0  0  0  0  0  0  0  0  0
  -29.9049  -27.7340   21.4437 C   0  0  0  0  0  0  0  0  0  1  0  0
  -23.6959  -30.2937   24.5531 C   0  0  1  0  0  0  0  0  0  0  0  0
  -23.4313  -27.3376   26.9113 C   0  0  2  0  0  0  0  0  0  0  0  0
  -23.4787  -31.7442   25.0691 C   0  0  0  0  0  0  0  0  0  0  0  0
  -26.1354  -11.8346   20.8524 N   0  0  0  0  0  0  0  0  0  0  0  0
  -30.6104  -18.8747   19.9999 N   0  0  0  0  0  0  0  0  0  0  0  0
  -26.2255  -13.0640   20.3171 N   0  0  0  0  0  0  0  0  0  0  0  0
  -23.7673  -29.6651   22.1607 N   0  0  0  0  0  0  0  0  0  0  0  0
  -29.6815  -14.6794   20.1431 N   0  0  0  0  0  0  0  0  0  0  0  0
  -24.9792  -15.0307   19.8822 N   0  0  0  0  0  0  0  0  0  0  0  0
  -21.9831  -12.3248   21.9064 N   0  0  0  0  0  0  0  0  0  0  0  0
  -29.2901  -16.9708   20.5415 N   0  0  0  0  0  0  0  0  0  0  0  0
  -22.3841  -31.3132   19.3145 N   0  0  0  0  0  0  0  0  0  0  0  0
  -23.2594  -29.2572   25.4824 N   0  0  0  0  0  0  0  0  0  0  0  0
  -30.6878  -25.4643   20.9709 N   0  3  0  0  0  0  0  0  0  0  0  0
  -24.0123  -25.9709   26.7866 N   0  3  0  0  0  0  0  0  0  0  0  0
  -22.2794  -14.3862   20.9464 O   0  0  0  0  0  0  0  0  0  0  0  0
  -24.4316  -31.5302   20.4022 O   0  0  0  0  0  0  0  0  0  0  0  0
  -21.7427  -30.1367   23.2164 O   0  0  0  0  0  0  0  0  0  0  0  0
  -25.3148  -28.1998   25.6678 O   0  0  0  0  0  0  0  0  0  0  0  0
  -31.2372  -16.2628   19.4978 O   0  0  0  0  0  0  0  0  0  0  0  0
  -22.9357   -7.1570   23.7560 O   0  0  0  0  0  0  0  0  0  0  0  0
  -29.2908  -27.7868   20.1567 O   0  0  0  0  0  0  0  0  0  1  0  0
  -31.8954  -20.7220   19.4725 O   0  0  0  0  0  0  0  0  0  0  0  0
  -18.0137   -5.2483   22.1641 F   0  0  0  0  0  0  0  0  0  0  0  0
  -22.6753   -4.6188   22.6918 F   0  0  0  0  0  0  0  0  0  0  0  0
  1  2  1  0  0  0  0
  1  5  2  0  0  0  0
  2  6  2  0  0  0  0
  3  8  2  0  0  0  0
  3 16  1  0  0  0  0
  4  9  1  0  0  0  0
  4 16  2  0  0  0  0
  5 18  1  0  0  0  0
  6 20  1  0  0  0  0
  7 10  2  0  0  0  0
  7 19  1  0  0  0  0
  8 24  1  0  0  0  0
  9 24  2  0  0  0  0
 10 25  1  0  0  0  0
 11 12  2  0  0  0  0
 11 26  1  0  0  0  0
 12 27  1  0  0  0  0
 13 21  1  0  0  0  0
 13 25  2  0  0  0  0
 14 23  2  0  0  0  0
 14 30  1  0  0  0  0
 15 27  2  0  0  0  0
 15 28  1  0  0  0  0
 16 29  1  0  0  0  0
 17 29  1  0  0  0  0
 17 32  2  0  0  0  0
 17 33  1  0  0  0  0
 18 20  2  0  0  0  0
 18 38  1  0  0  0  0
 19 21  2  0  0  0  0
 19 39  1  0  0  0  0
 20 52  1  0  0  0  0
 21 40  1  0  0  0  0
 22 23  1  0  0  0  0
 22 31  2  0  0  0  0
 22 51  1  0  0  0  0
 23 58  1  0  0  0  0
 24 86  1  0  0  0  0
 25 87  1  0  0  0  0
 26 28  2  0  0  0  0
 26 86  1  0  0  0  0
 27 89  1  0  0  0  0
 28 90  1  0  0  0  0
 29 69  2  0  0  0  0
 30 70  2  0  0  0  0
 30 76  1  0  0  0  0
 31 70  1  0  0  0  0
 31 88  1  0  0  0  0
 32 71  1  0  0  0  0
 32 74  1  0  0  0  0
 33 75  1  0  0  0  0
 33 81  2  0  0  0  0
 34 53  1  0  0  0  0
 34 77  1  0  0  0  0
 34 82  2  0  0  0  0
 35 66  1  0  0  0  0
 35 72  1  0  0  0  0
 35 83  2  0  0  0  0
 36 67  1  0  0  0  0
 36 78  1  0  0  0  0
 36 84  2  0  0  0  0
 37 73  1  0  0  0  0
 37 76  1  0  0  0  0
 37 85  2  0  0  0  0
 38 41  1  0  0  0  0
 39 53  1  0  0  0  0
 40 72  1  0  0  0  0
 41 43  1  0  0  0  0
 42 44  1  0  0  0  0
 42 47  1  0  0  0  0
 43 52  1  0  0  0  0
 44 56  1  0  0  0  0
 45 46  1  0  0  0  0
 45 57  1  0  0  0  0
 46 57  1  0  0  0  0
 47 73  1  0  0  0  0
 48 56  1  0  0  0  0
 48 73  1  0  0  0  0
 49 54  1  0  0  0  0
 49 79  1  0  0  0  0
 50 55  1  0  0  0  0
 50 79  1  0  0  0  0
 51 54  1  0  0  0  0
 51 55  1  0  0  0  0
 52 77  1  0  0  0  0
 53 72  1  0  0  0  0
 54 55  1  0  0  0  0
 56 71  1  0  0  0  0
 57 88  1  0  0  0  0
 59 67  1  0  0  0  0
 60 68  1  0  0  0  0
 61 68  1  0  0  0  0
 62 68  1  0  0  0  0
 63 80  1  0  0  0  0
 64 65  1  0  0  0  0
 64 79  1  0  0  0  0
 65 87  1  0  0  0  0
 66 68  1  0  0  0  0
 66 78  1  0  0  0  0
 67 80  1  0  0  0  0
 69 71  1  0  0  0  0
M  CHG  2  79   1  80   1
M  ISO  4  37 100  65 101  76 100  87 101
M  END
> <Batch ID>
0163

> <Smiles>
CNC(C)C(=O)NC(C(=O)N1Cc2cc([101O:1][101CH2:1]CN3CC4C(C3)C4c3c(C)cc([100NH:0][100C:0](=O)N4CCCC(n5nc(-c6ccc(Oc7ccc(F)cc7F)cc6)c(C(N)=O)c5N)C4)nc3OC3CC3)ccc2CC1C(=O)NC1CCCc2ccccc21)C(C)(C)C

> <Shape>
0.299

> <Color>
0.128

> <Negative vol penalty>
0.000

$$$$

  -OEChem-04052322173D

 89 99  0     1  0  0  0  0  0999 V2000
  -16.8881  -26.3901   22.5784 C   0  0  0  0  0  0  0  0  0  0  0  0
  -18.1247  -26.0112   22.0659 C   0  0  0  0  0  0  0  0  0  0  0  0
  -26.0098  -13.6292   19.4299 C   0  0  0  0  0  0  0  0  0  0  0  0
  -27.1142  -11.4811   19.4813 C   0  0  0  0  0  0  0  0  0  0  0  0
  -16.7678  -27.5774   23.2994 C   0  0  0  0  0  0  0  0  0  0  0  0
  -19.2415  -26.8200   22.2731 C   0  0  0  0  0  0  0  0  0  0  0  0
  -23.3310  -24.1694   23.6499 C   0  0  0  0  0  0  0  0  0  0  0  0
  -24.7701  -12.9910   19.3912 C   0  0  0  0  0  0  0  0  0  0  0  0
  -25.8745  -10.8428   19.4426 C   0  0  0  0  0  0  0  0  0  0  0  0
  -24.0181  -23.4907   22.6445 C   0  0  0  0  0  0  0  0  0  0  0  0
  -22.9883   -8.6497   19.7215 C   0  0  0  0  0  0  0  0  0  0  0  0
  -22.7807   -7.5811   20.5936 C   0  0  0  0  0  0  0  0  0  0  0  0
  -25.6499  -25.2657   22.5697 C   0  0  0  0  0  0  0  0  0  0  0  0
  -23.1722   -9.0425   22.4773 C   0  0  0  0  0  0  0  0  0  0  0  0
  -27.1819  -12.8743   19.4749 C   0  0  0  0  0  0  0  0  0  0  0  0
  -29.1801  -13.9290   20.6590 C   0  0  0  0  0  0  0  0  0  0  0  0
  -17.8857  -28.3963   23.5239 C   0  0  0  0  0  0  0  0  0  0  0  0
  -23.7930  -25.4087   24.1160 C   0  0  0  0  0  0  0  0  0  0  0  0
  -19.1358  -28.0200   22.9966 C   0  0  0  0  0  0  0  0  0  0  0  0
  -24.9683  -25.9569   23.5830 C   0  0  0  0  0  0  0  0  0  0  0  0
  -27.8992  -19.9547   18.9493 C   0  0  0  0  0  0  0  0  0  0  0  0
  -27.0499  -20.4720   19.9424 C   0  0  0  0  0  0  0  0  0  0  0  0
  -27.8616  -20.4901   17.6562 C   0  0  0  0  0  0  0  0  0  0  0  0
  -26.2007  -21.5427   19.6373 C   0  0  0  0  0  0  0  0  0  0  0  0
  -27.0054  -21.5503   17.3595 C   0  0  0  0  0  0  0  0  0  0  0  0
  -26.1779  -22.0774   18.3492 C   0  0  0  0  0  0  0  0  0  0  0  0
  -24.7025  -11.5978   19.3976 C   0  0  0  0  0  0  0  0  0  0  0  0
  -25.1761  -24.0402   22.1021 C   0  0  0  0  0  0  0  0  0  0  0  0
  -23.2879   -9.9147   20.2272 C   0  0  0  0  0  0  0  0  0  0  0  0
  -22.8726   -7.7775   21.9715 C   0  0  0  0  0  0  0  0  0  0  0  0
  -23.3799  -10.1111   21.6051 C   0  0  0  0  0  0  0  0  0  0  0  0
  -28.4627  -13.5330   19.5143 C   0  0  0  0  0  0  0  0  0  0  0  0
  -30.3249  -14.5048   20.1646 C   0  0  0  0  0  0  0  0  0  0  0  0
  -28.8420  -13.7888   22.0453 C   0  0  0  0  0  0  0  0  0  0  0  0
  -22.6243  -28.3643   24.1648 C   0  0  0  0  0  0  0  0  0  0  0  0
  -25.2862  -28.9703   25.9168 C   0  0  0  0  0  0  0  0  0  0  0  0
  -28.4775  -28.0837   26.7389 C   0  0  0  0  0  0  0  0  0  0  0  0
  -31.7460  -17.1789   15.1460 C   0  0  0  0  0  0  0  0  0  0  0  0
  -17.6970  -29.6941   24.2688 C   0  0  0  0  0  0  0  0  0  0  0  0
  -23.0552  -26.1155   25.2199 C   0  0  0  0  0  0  0  0  0  0  0  0
  -28.7954  -18.7867   19.2648 C   0  0  0  0  0  0  0  0  0  0  0  0
  -25.5173  -27.2748   24.0628 C   0  0  0  0  0  0  0  0  0  0  0  0
  -27.0940  -19.9170   21.3429 C   0  0  0  0  0  0  0  0  0  0  0  0
  -19.0040  -30.3074   24.7644 C   0  0  0  0  0  0  0  0  0  0  0  0
  -33.2875  -14.3578   16.4174 C   0  0  0  0  0  0  0  0  0  0  0  0
  -20.0540  -30.2927   23.6580 C   0  0  0  0  0  0  0  0  0  0  0  0
  -32.3037  -13.8527   17.4729 C   0  0  0  0  0  0  0  0  0  0  0  0
  -30.2387  -20.0787   16.8821 C   0  0  0  0  0  0  0  0  0  0  0  0
  -28.4074  -18.4474   16.2609 C   0  0  0  0  0  0  0  0  0  0  0  0
  -32.5529  -14.8371   15.1705 C   0  0  0  0  0  0  0  0  0  0  0  0
  -31.1144  -19.4777   15.7853 C   0  0  0  0  0  0  0  0  0  0  0  0
  -29.3230  -17.8848   15.1776 C   0  0  0  0  0  0  0  0  0  0  0  0
  -30.5419  -15.4022   16.4936 C   0  0  0  0  0  0  0  0  0  0  0  0
  -29.0051  -18.6493   20.7679 C   0  0  0  0  0  0  0  0  0  0  0  0
  -28.7426  -19.9191   16.5608 C   0  0  0  0  0  0  0  0  0  0  0  0
  -20.3755  -28.8582   23.2216 C   0  0  1  0  0  0  0  0  0  0  0  0
  -23.3317  -27.6153   25.2585 C   0  0  1  0  0  0  0  0  0  0  0  0
  -31.2332  -14.9140   17.7823 C   0  0  1  0  0  0  0  0  0  0  0  0
  -26.9723  -22.1224   15.9769 C   0  0  0  0  0  0  0  0  0  0  0  0
  -25.2644  -23.2192   18.0295 C   0  0  0  0  0  0  0  0  0  0  0  0
  -30.4120  -28.7928   28.1715 C   0  0  0  0  0  0  0  0  0  0  0  0
  -25.9215  -31.2110   23.9455 C   0  0  0  0  0  0  0  0  0  0  0  0
  -28.2603  -31.2389   24.8385 C   0  0  0  0  0  0  0  0  0  0  0  0
  -26.3460  -31.7798   26.3436 C   0  0  0  0  0  0  0  0  0  0  0  0
  -28.4293  -25.5468   28.2623 C   0  0  0  0  0  0  0  0  0  0  0  0
  -25.3142  -22.1305   20.6914 C   0  0  0  0  0  0  0  0  0  1  0  0
  -26.7016  -29.3895   25.6007 C   0  0  1  0  0  0  0  0  0  0  0  0
  -29.1648  -27.9271   28.0833 C   0  0  2  0  0  0  0  0  0  0  0  0
  -26.7962  -30.8809   25.1715 C   0  0  0  0  0  0  0  0  0  0  0  0
  -29.0984  -13.8320   18.3783 N   0  0  0  0  0  0  0  0  0  0  0  0
  -30.2273  -14.4222   18.8068 N   0  0  0  0  0  0  0  0  0  0  0  0
  -24.7567  -27.9306   25.1394 N   0  0  0  0  0  0  0  0  0  0  0  0
  -31.5412  -15.8385   15.5072 N   0  0  0  0  0  0  0  0  0  0  0  0
  -30.7406  -18.0923   15.5034 N   0  0  0  0  0  0  0  0  0  0  0  0
  -31.3954  -15.0687   20.7633 N   0  0  0  0  0  0  0  0  0  0  0  0
  -27.6276  -13.1733   22.3778 N   0  0  0  0  0  0  0  0  0  0  0  0
  -21.2500  -28.2214   24.1829 N   0  0  0  0  0  0  0  0  0  0  0  0
  -27.4986  -29.0541   26.7757 N   0  0  0  0  0  0  0  0  0  0  0  0
  -29.5622  -26.5071   28.2996 N   0  3  0  0  0  0  0  0  0  0  0  0
  -29.5869  -14.2121   22.9615 O   0  0  0  0  0  0  0  0  0  0  0  0
  -23.2769  -29.0241   23.3646 O   0  0  0  0  0  0  0  0  0  0  0  0
  -24.6754  -29.5396   26.8248 O   0  0  0  0  0  0  0  0  0  0  0  0
  -28.7814  -27.4150   25.7535 O   0  0  0  0  0  0  0  0  0  0  0  0
  -32.7658  -17.5409   14.5461 O   0  0  0  0  0  0  0  0  0  0  0  0
  -27.7347  -18.6387   21.4189 O   0  0  0  0  0  0  0  0  0  0  0  0
  -23.4930  -10.9747   19.3601 O   0  0  0  0  0  0  0  0  0  0  0  0
  -25.8534  -23.3751   21.1127 O   0  0  0  0  0  0  0  0  0  1  0  0
  -22.6717   -6.7516   22.8090 F   0  0  0  0  0  0  0  0  0  0  0  0
  -23.6663  -11.3243   22.0969 F   0  0  0  0  0  0  0  0  0  0  0  0
  1  2  1  0  0  0  0
  1  5  2  0  0  0  0
  2  6  2  0  0  0  0
  3  8  2  0  0  0  0
  3 15  1  0  0  0  0
  4  9  1  0  0  0  0
  4 15  2  0  0  0  0
  5 17  1  0  0  0  0
  6 19  1  0  0  0  0
  7 10  2  0  0  0  0
  7 18  1  0  0  0  0
  8 27  1  0  0  0  0
  9 27  2  0  0  0  0
 10 28  1  0  0  0  0
 11 12  2  0  0  0  0
 11 29  1  0  0  0  0
 12 30  1  0  0  0  0
 13 20  1  0  0  0  0
 13 28  2  0  0  0  0
 14 30  2  0  0  0  0
 14 31  1  0  0  0  0
 15 32  1  0  0  0  0
 16 32  1  0  0  0  0
 16 33  2  0  0  0  0
 16 34  1  0  0  0  0
 17 19  2  0  0  0  0
 17 39  1  0  0  0  0
 18 20  2  0  0  0  0
 18 40  1  0  0  0  0
 19 56  1  0  0  0  0
 20 42  1  0  0  0  0
 21 22  1  0  0  0  0
 21 23  2  0  0  0  0
 21 41  1  0  0  0  0
 22 24  2  0  0  0  0
 22 43  1  0  0  0  0
 23 25  1  0  0  0  0
 23 55  1  0  0  0  0
 24 26  1  0  0  0  0
 24 66  1  0  0  0  0
 25 26  2  0  0  0  0
 25 59  1  0  0  0  0
 26 60  1  0  0  0  0
 27 86  1  0  0  0  0
 28 87  1  0  0  0  0
 29 31  2  0  0  0  0
 29 86  1  0  0  0  0
 30 88  1  0  0  0  0
 31 89  1  0  0  0  0
 32 70  2  0  0  0  0
 33 71  1  0  0  0  0
 33 75  1  0  0  0  0
 34 76  1  0  0  0  0
 34 80  2  0  0  0  0
 35 57  1  0  0  0  0
 35 77  1  0  0  0  0
 35 81  2  0  0  0  0
 36 67  1  0  0  0  0
 36 72  1  0  0  0  0
 36 82  2  0  0  0  0
 37 68  1  0  0  0  0
 37 78  1  0  0  0  0
 37 83  2  0  0  0  0
 38 73  1  0  0  0  0
 38 74  1  0  0  0  0
 38 84  2  0  0  0  0
 39 44  1  0  0  0  0
 40 57  1  0  0  0  0
 41 54  1  0  0  0  0
 42 72  1  0  0  0  0
 43 85  1  0  0  0  0
 44 46  1  0  0  0  0
 45 47  1  0  0  0  0
 45 50  1  0  0  0  0
 46 56  1  0  0  0  0
 47 58  1  0  0  0  0
 48 51  1  0  0  0  0
 48 55  1  0  0  0  0
 49 52  1  0  0  0  0
 49 55  1  0  0  0  0
 50 73  1  0  0  0  0
 51 74  1  0  0  0  0
 52 74  1  0  0  0  0
 53 58  1  0  0  0  0
 53 73  1  0  0  0  0
 54 85  1  0  0  0  0
 56 77  1  0  0  0  0
 57 72  1  0  0  0  0
 58 71  1  0  0  0  0
 61 68  1  0  0  0  0
 62 69  1  0  0  0  0
 63 69  1  0  0  0  0
 64 69  1  0  0  0  0
 65 79  1  0  0  0  0
 66 87  1  0  0  0  0
 67 69  1  0  0  0  0
 67 78  1  0  0  0  0
 68 79  1  0  0  0  0
 70 71  1  0  0  0  0
M  CHG  1  79   1
M  ISO  4  38 100  66 101  74 100  87 101
M  END
> <Batch ID>
0163

> <Smiles>
CNC(C)C(=O)NC(C(=O)N1Cc2cc([101O:1][101CH2:1]c3c(C)c(C)c(C4CC[100N:0]([100C:0](=O)N5CCCC(n6nc(-c7ccc(Oc8ccc(F)cc8F)cc7)c(C(N)=O)c6N)C5)CC4)c4c3COCC4)ccc2CC1C(=O)NC1CCCc2ccccc21)C(C)(C)C

> <Shape>
0.227

> <Color>
0.072

> <Negative vol penalty>
0.000

$$$$

  -OEChem-04052322173D

 87 96  0     1  0  0  0  0  0999 V2000
  -28.6384  -35.5723   26.4615 C   0  0  0  0  0  0  0  0  0  0  0  0
  -29.1293  -34.3272   26.0820 C   0  0  0  0  0  0  0  0  0  0  0  0
  -23.1232   -9.8413   21.4570 C   0  0  0  0  0  0  0  0  0  0  0  0
  -23.8638  -10.7438   23.5722 C   0  0  0  0  0  0  0  0  0  0  0  0
  -27.3301  -35.9319   26.1407 C   0  0  0  0  0  0  0  0  0  0  0  0
  -28.3116  -33.4403   25.3824 C   0  0  0  0  0  0  0  0  0  0  0  0
  -30.0394  -29.4887   21.0344 C   0  0  0  0  0  0  0  0  0  0  0  0
  -28.6095  -22.8021   21.6039 C   0  0  0  0  0  0  0  0  0  0  0  0
  -29.0452  -21.4842   21.7408 C   0  0  0  0  0  0  0  0  0  0  0  0
  -22.4137   -8.8466   22.1298 C   0  0  0  0  0  0  0  0  0  0  0  0
  -23.1542   -9.7491   24.2450 C   0  0  0  0  0  0  0  0  0  0  0  0
  -30.3214  -28.1237   21.0658 C   0  0  0  0  0  0  0  0  0  0  0  0
  -23.0868   -5.9079   23.6581 C   0  0  0  0  0  0  0  0  0  0  0  0
  -23.1934   -4.6015   23.1811 C   0  0  0  0  0  0  0  0  0  0  0  0
  -28.0682  -27.6479   20.3478 C   0  0  0  0  0  0  0  0  0  0  0  0
  -20.8078   -4.5449   22.8030 C   0  0  0  0  0  0  0  0  0  0  0  0
  -23.8484  -10.7899   22.1782 C   0  0  0  0  0  0  0  0  0  0  0  0
  -24.1122  -13.0893   21.1056 C   0  0  0  0  0  0  0  0  0  0  0  0
  -26.4991  -35.0529   25.4284 C   0  0  0  0  0  0  0  0  0  0  0  0
  -28.7643  -29.9439   20.6693 C   0  0  0  0  0  0  0  0  0  0  0  0
  -26.9905  -33.7880   25.0529 C   0  0  0  0  0  0  0  0  0  0  0  0
  -27.7733  -29.0193   20.3100 C   0  0  0  0  0  0  0  0  0  0  0  0
  -29.0342  -23.5679   20.5181 C   0  0  0  0  0  0  0  0  0  0  0  0
  -29.8947  -23.0156   19.5693 C   0  0  0  0  0  0  0  0  0  0  0  0
  -30.3305  -21.6977   19.7062 C   0  0  0  0  0  0  0  0  0  0  0  0
  -29.9057  -20.9319   20.7920 C   0  0  0  0  0  0  0  0  0  0  0  0
  -22.4291   -8.8005   23.5238 C   0  0  0  0  0  0  0  0  0  0  0  0
  -29.3349  -27.2029   20.7253 C   0  0  0  0  0  0  0  0  0  0  0  0
  -21.8407   -6.5328   23.7076 C   0  0  0  0  0  0  0  0  0  0  0  0
  -22.0540   -3.9200   22.7535 C   0  0  0  0  0  0  0  0  0  0  0  0
  -20.7013   -5.8513   23.2801 C   0  0  0  0  0  0  0  0  0  0  0  0
  -24.5820  -11.8173   21.4837 C   0  0  0  0  0  0  0  0  0  0  0  0
  -25.1834  -13.6790   20.4800 C   0  0  0  0  0  0  0  0  0  0  0  0
  -22.8229  -13.6848   21.3025 C   0  0  0  0  0  0  0  0  0  0  0  0
  -26.4716  -31.5976   22.1228 C   0  0  0  0  0  0  0  0  0  0  0  0
  -25.0793  -31.4946   19.1947 C   0  0  0  0  0  0  0  0  0  0  0  0
  -24.7865  -29.9230   16.1796 C   0  0  0  0  0  0  0  0  0  0  0  0
  -30.6310  -14.8677   20.2432 C   0  0  0  0  0  0  0  0  0  0  0  0
  -25.0768  -35.4672   25.1457 C   0  0  0  0  0  0  0  0  0  0  0  0
  -28.4841  -31.4207   20.6145 C   0  0  0  0  0  0  0  0  0  0  0  0
  -26.3944  -29.4572   19.8913 C   0  0  0  0  0  0  0  0  0  0  0  0
  -24.3962  -34.6177   24.0754 C   0  0  0  0  0  0  0  0  0  0  0  0
  -29.5879  -11.7199   18.9471 C   0  0  0  0  0  0  0  0  0  0  0  0
  -24.6452  -33.1349   24.3325 C   0  0  0  0  0  0  0  0  0  0  0  0
  -28.1568  -11.5670   19.4654 C   0  0  0  0  0  0  0  0  0  0  0  0
  -31.3999  -17.7192   21.8167 C   0  0  0  0  0  0  0  0  0  0  0  0
  -30.4878  -12.4098   19.9699 C   0  0  0  0  0  0  0  0  0  0  0  0
  -31.5280  -19.2361   21.6781 C   0  0  0  0  0  0  0  0  0  0  0  0
  -28.5529  -13.5520   20.9826 C   0  0  0  0  0  0  0  0  0  0  0  0
  -29.6106  -18.4674   20.4169 C   0  0  0  0  0  0  0  0  0  0  0  0
  -26.1423  -32.8083   24.2714 C   0  0  1  0  0  0  0  0  0  0  0  0
  -26.9988  -31.7515   20.7242 C   0  0  1  0  0  0  0  0  0  0  0  0
  -27.5943  -12.9118   19.9640 C   0  0  2  0  0  0  0  0  0  0  0  0
  -30.6197  -17.3280   20.5692 C   0  0  2  0  0  0  0  0  0  0  0  0
  -30.3487  -23.8392   18.4056 C   0  0  0  0  0  0  0  0  0  0  0  0
  -32.6024  -21.8447   18.6244 C   0  0  0  0  0  0  0  0  0  0  0  0
  -30.6187  -21.0495   17.2874 C   0  0  0  0  0  0  0  0  0  0  0  0
  -23.5407  -30.0497   14.0049 C   0  0  0  0  0  0  0  0  0  0  0  0
  -22.5963  -30.3552   20.5536 C   0  0  0  0  0  0  0  0  0  0  0  0
  -21.7815  -29.6294   18.3003 C   0  0  0  0  0  0  0  0  0  0  0  0
  -22.1276  -32.0531   18.7783 C   0  0  0  0  0  0  0  0  0  0  0  0
  -27.2851  -30.2885   14.6361 C   0  0  0  0  0  0  0  0  0  0  0  0
  -28.5497  -24.9825   20.3947 C   0  0  0  0  0  0  0  0  0  1  0  0
  -31.2540  -21.1068   18.6873 C   0  0  0  0  0  0  0  0  0  0  0  0
  -24.1379  -30.5470   18.4914 C   0  0  1  0  0  0  0  0  0  0  0  0
  -24.7962  -30.4587   14.7593 C   0  0  2  0  0  0  0  0  0  0  0  0
  -22.6861  -30.6375   19.0406 C   0  0  0  0  0  0  0  0  0  0  0  0
  -25.8526  -11.6101   21.1278 N   0  0  0  0  0  0  0  0  0  0  0  0
  -26.1903  -12.7599   20.5195 N   0  0  0  0  0  0  0  0  0  0  0  0
  -30.3256  -19.6278   20.9454 N   0  0  3  0  0  0  0  0  0  0  0  0
  -26.1674  -30.9115   19.8596 N   0  0  0  0  0  0  0  0  0  0  0  0
  -29.8982  -13.6798   20.4007 N   0  0  0  0  0  0  0  0  0  0  0  0
  -25.3528  -14.8887   19.9053 N   0  0  0  0  0  0  0  0  0  0  0  0
  -21.8371  -12.9403   21.9644 N   0  0  0  0  0  0  0  0  0  0  0  0
  -26.5882  -32.7366   22.8964 N   0  0  0  0  0  0  0  0  0  0  0  0
  -24.2568  -30.8363   17.0664 N   0  0  0  0  0  0  0  0  0  0  0  0
  -29.9963  -16.0273   20.6714 N   0  0  0  0  0  0  0  0  0  0  0  0
  -25.9802  -29.9395   14.0179 N   0  3  0  0  0  0  0  0  0  0  0  0
  -22.5479  -14.8366   20.8886 O   0  0  0  0  0  0  0  0  0  0  0  0
  -25.9931  -30.5254   22.4735 O   0  0  0  0  0  0  0  0  0  0  0  0
  -24.8615  -32.7079   19.1497 O   0  0  0  0  0  0  0  0  0  0  0  0
  -25.2035  -28.8045   16.4725 O   0  0  0  0  0  0  0  0  0  0  0  0
  -31.7646  -14.8938   19.7520 O   0  0  0  0  0  0  0  0  0  0  0  0
  -21.7367   -7.8301   24.1807 O   0  0  0  0  0  0  0  0  0  0  0  0
  -29.6072  -25.8700   20.7558 O   0  0  0  0  0  0  0  0  0  1  0  0
  -22.1567   -2.6660   22.2941 F   0  0  0  0  0  0  0  0  0  0  0  0
  -19.5016   -6.4469   23.3242 F   0  0  0  0  0  0  0  0  0  0  0  0
  1  2  1  0  0  0  0
  1  5  2  0  0  0  0
  2  6  2  0  0  0  0
  3 10  2  0  0  0  0
  3 17  1  0  0  0  0
  4 11  1  0  0  0  0
  4 17  2  0  0  0  0
  5 19  1  0  0  0  0
  6 21  1  0  0  0  0
  7 12  2  0  0  0  0
  7 20  1  0  0  0  0
  8  9  2  0  0  0  0
  8 23  1  0  0  0  0
  9 26  1  0  0  0  0
 10 27  1  0  0  0  0
 11 27  2  0  0  0  0
 12 28  1  0  0  0  0
 13 14  2  0  0  0  0
 13 29  1  0  0  0  0
 14 30  1  0  0  0  0
 15 22  1  0  0  0  0
 15 28  2  0  0  0  0
 16 30  2  0  0  0  0
 16 31  1  0  0  0  0
 17 32  1  0  0  0  0
 18 32  1  0  0  0  0
 18 33  2  0  0  0  0
 18 34  1  0  0  0  0
 19 21  2  0  0  0  0
 19 39  1  0  0  0  0
 20 22  2  0  0  0  0
 20 40  1  0  0  0  0
 21 51  1  0  0  0  0
 22 41  1  0  0  0  0
 23 24  2  0  0  0  0
 23 63  1  0  0  0  0
 24 25  1  0  0  0  0
 24 55  1  0  0  0  0
 25 26  2  0  0  0  0
 25 64  1  0  0  0  0
 26 70  1  0  0  0  0
 27 84  1  0  0  0  0
 28 85  1  0  0  0  0
 29 31  2  0  0  0  0
 29 84  1  0  0  0  0
 30 86  1  0  0  0  0
 31 87  1  0  0  0  0
 32 68  2  0  0  0  0
 33 69  1  0  0  0  0
 33 73  1  0  0  0  0
 34 74  1  0  0  0  0
 34 79  2  0  0  0  0
 35 52  1  0  0  0  0
 35 75  1  0  0  0  0
 35 80  2  0  0  0  0
 36 65  1  0  0  0  0
 36 71  1  0  0  0  0
 36 81  2  0  0  0  0
 37 66  1  0  0  0  0
 37 76  1  0  0  0  0
 37 82  2  0  0  0  0
 38 72  1  0  0  0  0
 38 77  1  0  0  0  0
 38 83  2  0  0  0  0
 39 42  1  0  0  0  0
 40 52  1  0  0  0  0
 41 71  1  0  0  0  0
 42 44  1  0  0  0  0
 43 45  1  0  0  0  0
 43 47  1  0  0  0  0
 44 51  1  0  0  0  0
 45 53  1  0  0  0  0
 46 48  1  0  0  0  0
 46 54  1  0  0  0  0
 47 72  1  0  0  0  0
 48 70  1  0  0  0  0
 49 53  1  0  0  0  0
 49 72  1  0  0  0  0
 50 54  1  0  0  0  0
 50 70  1  0  0  0  0
 51 75  1  0  0  0  0
 52 71  1  0  0  0  0
 53 69  1  0  0  0  0
 54 77  1  0  0  0  0
 56 64  1  0  0  0  0
 57 64  1  0  0  0  0
 58 66  1  0  0  0  0
 59 67  1  0  0  0  0
 60 67  1  0  0  0  0
 61 67  1  0  0  0  0
 62 78  1  0  0  0  0
 63 85  1  0  0  0  0
 65 67  1  0  0  0  0
 65 76  1  0  0  0  0
 66 78  1  0  0  0  0
 68 69  1  0  0  0  0
M  CHG  1  78   1
M  ISO  4  38 100  63 101  77 100  85 101
M  END
> <Batch ID>
0163

> <Smiles>
CNC(C)C(=O)NC(C(=O)N1Cc2cc([101O:1][101CH2:1]c3ccc(N4CCC([100NH:0][100C:0](=O)N5CCCC(n6nc(-c7ccc(Oc8ccc(F)cc8F)cc7)c(C(N)=O)c6N)C5)C4)c(C(C)C)c3C)ccc2CC1C(=O)NC1CCCc2ccccc21)C(C)(C)C

> <Shape>
0.340

> <Color>
0.155

> <Negative vol penalty>
0.000

$$$$

  -OEChem-04052322173D

 88 97  0     1  0  0  0  0  0999 V2000
  -20.7533  -33.1526   18.8795 C   0  0  0  0  0  0  0  0  0  0  0  0
  -22.0099  -32.5907   19.0805 C   0  0  0  0  0  0  0  0  0  0  0  0
  -29.5411  -17.4644   21.0729 C   0  0  0  0  0  0  0  0  0  0  0  0
  -31.6263  -18.0109   19.9818 C   0  0  0  0  0  0  0  0  0  0  0  0
  -19.7567  -32.9909   19.8410 C   0  0  0  0  0  0  0  0  0  0  0  0
  -22.2711  -31.8675   20.2438 C   0  0  0  0  0  0  0  0  0  0  0  0
  -24.7462  -27.5451   19.3300 C   0  0  0  0  0  0  0  0  0  0  0  0
  -29.8598  -16.1083   21.0028 C   0  0  0  0  0  0  0  0  0  0  0  0
  -31.9451  -16.6547   19.9118 C   0  0  0  0  0  0  0  0  0  0  0  0
  -26.1161  -27.6349   19.0870 C   0  0  0  0  0  0  0  0  0  0  0  0
  -29.8049  -13.6539   18.6796 C   0  0  0  0  0  0  0  0  0  0  0  0
  -28.8057  -12.7747   18.2624 C   0  0  0  0  0  0  0  0  0  0  0  0
  -26.5573  -26.9744   21.3647 C   0  0  0  0  0  0  0  0  0  0  0  0
  -31.6443  -27.7037   21.4280 C   0  0  0  0  0  0  0  0  0  0  0  0
  -28.9600  -11.6001   20.3681 C   0  0  0  0  0  0  0  0  0  0  0  0
  -30.4243  -18.4157   20.5623 C   0  0  0  0  0  0  0  0  0  0  0  0
  -30.4064  -20.7109   21.6757 C   0  0  0  0  0  0  0  0  0  0  0  0
  -20.0027  -32.2572   21.0122 C   0  0  0  0  0  0  0  0  0  0  0  0
  -24.2706  -27.1792   20.5974 C   0  0  0  0  0  0  0  0  0  0  0  0
  -21.2772  -31.6969   21.2225 C   0  0  0  0  0  0  0  0  0  0  0  0
  -25.1809  -26.8781   21.6205 C   0  0  0  0  0  0  0  0  0  0  0  0
  -32.9468  -27.8651   20.9690 C   0  0  0  0  0  0  0  0  0  0  0  0
  -33.2387  -27.6386   19.6286 C   0  0  0  0  0  0  0  0  0  0  0  0
  -31.0618  -15.7034   20.4224 C   0  0  0  0  0  0  0  0  0  0  0  0
  -27.0219  -27.3524   20.1052 C   0  0  0  0  0  0  0  0  0  0  0  0
  -30.3818  -13.5061   19.9410 C   0  0  0  0  0  0  0  0  0  0  0  0
  -28.3831  -11.7479   19.1066 C   0  0  0  0  0  0  0  0  0  0  0  0
  -29.9593  -12.4793   20.7852 C   0  0  0  0  0  0  0  0  0  0  0  0
  -30.0954  -19.8167   20.6338 C   0  0  0  0  0  0  0  0  0  0  0  0
  -32.2007  -27.2553   18.7946 C   0  0  0  0  0  0  0  0  0  0  0  0
  -30.6777  -27.3177   20.5135 C   0  0  0  0  0  0  0  0  0  0  0  0
  -29.8789  -21.9113   21.2669 C   0  0  0  0  0  0  0  0  0  0  0  0
  -31.1094  -20.4772   22.9033 C   0  0  0  0  0  0  0  0  0  0  0  0
  -22.4854  -28.5903   22.8168 C   0  0  0  0  0  0  0  0  0  0  0  0
  -22.6804  -25.6919   24.2603 C   0  0  0  0  0  0  0  0  0  0  0  0
  -24.3783  -22.7571   24.6488 C   0  0  0  0  0  0  0  0  0  0  0  0
  -28.6062  -24.1808   15.8743 C   0  0  0  0  0  0  0  0  0  0  0  0
  -18.9086  -32.1494   22.0446 C   0  0  0  0  0  0  0  0  0  0  0  0
  -22.7902  -27.0609   20.8358 C   0  0  0  0  0  0  0  0  0  0  0  0
  -24.7219  -26.4611   22.9930 C   0  0  0  0  0  0  0  0  0  0  0  0
  -19.1516  -31.0518   23.0774 C   0  0  0  0  0  0  0  0  0  0  0  0
  -26.3541  -23.7371   18.5960 C   0  0  0  0  0  0  0  0  0  0  0  0
  -20.5853  -31.1135   23.5946 C   0  0  0  0  0  0  0  0  0  0  0  0
  -33.4965  -25.8831   17.0561 C   0  0  0  0  0  0  0  0  0  0  0  0
  -32.8238  -24.8915   16.1049 C   0  0  0  0  0  0  0  0  0  0  0  0
  -27.0857  -22.7627   19.5209 C   0  0  0  0  0  0  0  0  0  0  0  0
  -26.6086  -23.4174   17.1246 C   0  0  0  0  0  0  0  0  0  0  0  0
  -28.7632  -22.3536   17.6723 C   0  0  0  0  0  0  0  0  0  0  0  0
  -21.5914  -30.8846   22.4601 C   0  0  1  0  0  0  0  0  0  0  0  0
  -32.4563  -26.9951   17.3268 C   0  0  1  0  0  0  0  0  0  0  0  0
  -22.4110  -27.1781   22.3089 C   0  0  1  0  0  0  0  0  0  0  0  0
  -31.7427  -25.7133   15.4047 C   0  0  2  0  0  0  0  0  0  0  0  0
  -28.5821  -22.6697   19.1669 C   0  0  2  0  0  0  0  0  0  0  0  0
  -31.1992  -26.5439   16.5647 C   0  0  2  0  0  0  0  0  0  0  0  0
  -34.0103  -28.2802   21.9314 C   0  0  0  0  0  0  0  0  0  0  0  0
  -34.6271  -27.8028   19.1082 C   0  0  0  0  0  0  0  0  0  0  0  0
  -24.3140  -20.5983   25.9268 C   0  0  0  0  0  0  0  0  0  0  0  0
  -31.3290  -23.9490   13.6614 C   0  0  0  0  0  0  0  0  0  0  0  0
  -23.6828  -27.1399   26.7520 C   0  0  0  0  0  0  0  0  0  0  0  0
  -24.4861  -24.9351   27.6251 C   0  0  0  0  0  0  0  0  0  0  0  0
  -22.0544  -25.2958   27.2013 C   0  0  0  0  0  0  0  0  0  0  0  0
  -24.1574  -21.1601   22.1670 C   0  0  0  0  0  0  0  0  0  0  0  0
  -29.2615  -27.1328   20.9735 C   0  0  0  0  0  0  0  0  0  1  0  0
  -23.6308  -25.0474   25.2404 C   0  0  1  0  0  0  0  0  0  0  0  0
  -23.9083  -21.3137   24.6475 C   0  0  2  0  0  0  0  0  0  0  0  0
  -30.6978  -24.8490   14.7176 C   0  0  1  0  0  0  0  0  0  0  0  0
  -23.4725  -25.6143   26.6795 C   0  0  0  0  0  0  0  0  0  0  0  0
  -29.4223  -20.3994   19.6381 N   0  0  0  0  0  0  0  0  0  0  0  0
  -30.9232  -27.0884   19.2040 N   0  0  0  0  0  0  0  0  0  0  0  0
  -29.3059  -21.6725   20.0525 N   0  0  0  0  0  0  0  0  0  0  0  0
  -23.2645  -26.3660   23.1786 N   0  0  0  0  0  0  0  0  0  0  0  0
  -28.0466  -23.3450   16.8548 N   0  0  0  0  0  0  0  0  0  0  0  0
  -29.8538  -23.1373   21.8315 N   0  0  0  0  0  0  0  0  0  0  0  0
  -31.5845  -19.1850   23.1656 N   0  0  0  0  0  0  0  0  0  0  0  0
  -21.6744  -29.4770   22.1346 N   0  0  0  0  0  0  0  0  0  0  0  0
  -23.4103  -23.6090   25.1371 N   0  0  0  0  0  0  0  0  0  0  0  0
  -29.9770  -24.0531   15.6859 N   0  0  0  0  0  0  0  0  0  0  0  0
  -30.4309  -27.7097   16.0755 N   0  3  0  0  0  0  0  0  0  0  0  0
  -24.4955  -20.5787   23.4916 N   0  3  0  0  0  0  0  0  0  0  0  0
  -31.2960  -21.3836   23.7501 O   0  0  0  0  0  0  0  0  0  0  0  0
  -23.2229  -28.8554   23.7589 O   0  0  0  0  0  0  0  0  0  0  0  0
  -21.4645  -25.5945   24.4439 O   0  0  0  0  0  0  0  0  0  0  0  0
  -25.4941  -23.0946   24.2594 O   0  0  0  0  0  0  0  0  0  0  0  0
  -27.9349  -24.9853   15.2193 O   0  0  0  0  0  0  0  0  0  0  0  0
  -31.3733  -14.3802   20.3541 O   0  0  0  0  0  0  0  0  0  0  0  0
  -28.3595  -27.4399   19.8709 O   0  0  0  0  0  0  0  0  0  1  0  0
  -27.4224  -10.9047   18.7065 F   0  0  0  0  0  0  0  0  0  0  0  0
  -30.5090  -12.3330   21.9986 F   0  0  0  0  0  0  0  0  0  0  0  0
  1  2  1  0  0  0  0
  1  5  2  0  0  0  0
  2  6  2  0  0  0  0
  3  8  2  0  0  0  0
  3 16  1  0  0  0  0
  4  9  1  0  0  0  0
  4 16  2  0  0  0  0
  5 18  1  0  0  0  0
  6 20  1  0  0  0  0
  7 10  2  0  0  0  0
  7 19  1  0  0  0  0
  8 24  1  0  0  0  0
  9 24  2  0  0  0  0
 10 25  1  0  0  0  0
 11 12  2  0  0  0  0
 11 26  1  0  0  0  0
 12 27  1  0  0  0  0
 13 21  1  0  0  0  0
 13 25  2  0  0  0  0
 14 22  2  0  0  0  0
 14 31  1  0  0  0  0
 15 27  2  0  0  0  0
 15 28  1  0  0  0  0
 16 29  1  0  0  0  0
 17 29  1  0  0  0  0
 17 32  2  0  0  0  0
 17 33  1  0  0  0  0
 18 20  2  0  0  0  0
 18 38  1  0  0  0  0
 19 21  2  0  0  0  0
 19 39  1  0  0  0  0
 20 49  1  0  0  0  0
 21 40  1  0  0  0  0
 22 23  1  0  0  0  0
 22 55  1  0  0  0  0
 23 30  2  0  0  0  0
 23 56  1  0  0  0  0
 24 85  1  0  0  0  0
 25 86  1  0  0  0  0
 26 28  2  0  0  0  0
 26 85  1  0  0  0  0
 27 87  1  0  0  0  0
 28 88  1  0  0  0  0
 29 68  2  0  0  0  0
 30 50  1  0  0  0  0
 30 69  1  0  0  0  0
 31 63  1  0  0  0  0
 31 69  2  0  0  0  0
 32 70  1  0  0  0  0
 32 73  1  0  0  0  0
 33 74  1  0  0  0  0
 33 80  2  0  0  0  0
 34 51  1  0  0  0  0
 34 75  1  0  0  0  0
 34 81  2  0  0  0  0
 35 64  1  0  0  0  0
 35 71  1  0  0  0  0
 35 82  2  0  0  0  0
 36 65  1  0  0  0  0
 36 76  1  0  0  0  0
 36 83  2  0  0  0  0
 37 72  1  0  0  0  0
 37 77  1  0  0  0  0
 37 84  2  0  0  0  0
 38 41  1  0  0  0  0
 39 51  1  0  0  0  0
 40 71  1  0  0  0  0
 41 43  1  0  0  0  0
 42 46  1  0  0  0  0
 42 47  1  0  0  0  0
 43 49  1  0  0  0  0
 44 45  1  0  0  0  0
 44 50  1  0  0  0  0
 45 52  1  0  0  0  0
 46 53  1  0  0  0  0
 47 72  1  0  0  0  0
 48 53  1  0  0  0  0
 48 72  1  0  0  0  0
 49 75  1  0  0  0  0
 50 54  1  0  0  0  0
 51 71  1  0  0  0  0
 52 54  1  0  0  0  0
 52 66  1  0  0  0  0
 53 70  1  0  0  0  0
 54 78  1  0  0  0  0
 57 65  1  0  0  0  0
 58 66  1  0  0  0  0
 59 67  1  0  0  0  0
 60 67  1  0  0  0  0
 61 67  1  0  0  0  0
 62 79  1  0  0  0  0
 63 86  1  0  0  0  0
 64 67  1  0  0  0  0
 64 76  1  0  0  0  0
 65 79  1  0  0  0  0
 66 77  1  0  0  0  0
 68 70  1  0  0  0  0
M  CHG  2  78   1  79   1
M  ISO  4  37 100  63 101  77 100  86 101
M  END
> <Batch ID>
0163

> <Smiles>
CNC(C)C(=O)NC(C(=O)N1Cc2cc([101O:1][101CH2:1]c3cc(C)c(C)c(C4CCC(C(C)[100NH:0][100C:0](=O)N5CCCC(n6nc(-c7ccc(Oc8ccc(F)cc8F)cc7)c(C(N)=O)c6N)C5)C4N)n3)ccc2CC1C(=O)NC1CCCc2ccccc21)C(C)(C)C

> <Shape>
0.189

> <Color>
0.096

> <Negative vol penalty>
0.000

$$$$

  -OEChem-04052322173D

 93103  0     1  0  0  0  0  0999 V2000
  -16.5858  -30.3012   24.3320 C   0  0  0  0  0  0  0  0  0  0  0  0
  -16.9154  -28.9662   24.1206 C   0  0  0  0  0  0  0  0  0  0  0  0
  -27.4251  -19.4018   24.0334 C   0  0  0  0  0  0  0  0  0  0  0  0
  -29.6794  -19.3053   24.8970 C   0  0  0  0  0  0  0  0  0  0  0  0
  -17.2859  -31.3051   23.6641 C   0  0  0  0  0  0  0  0  0  0  0  0
  -17.9446  -28.6343   23.2402 C   0  0  0  0  0  0  0  0  0  0  0  0
  -21.8721  -23.9643   23.7612 C   0  0  0  0  0  0  0  0  0  0  0  0
  -27.0176  -20.0933   25.1743 C   0  0  0  0  0  0  0  0  0  0  0  0
  -29.2720  -19.9968   26.0378 C   0  0  0  0  0  0  0  0  0  0  0  0
  -21.9013  -22.6947   23.1859 C   0  0  0  0  0  0  0  0  0  0  0  0
  -27.1787  -23.2554   26.3608 C   0  0  0  0  0  0  0  0  0  0  0  0
  -26.3595  -24.3706   26.1849 C   0  0  0  0  0  0  0  0  0  0  0  0
  -23.3850  -23.5134   21.4690 C   0  0  0  0  0  0  0  0  0  0  0  0
  -24.6412  -23.3186   27.5182 C   0  0  0  0  0  0  0  0  0  0  0  0
  -28.7559  -19.0078   23.8948 C   0  0  0  0  0  0  0  0  0  0  0  0
  -29.6613  -18.8445   21.5155 C   0  0  0  0  0  0  0  0  0  0  0  0
  -18.3306  -30.9857   22.7825 C   0  0  0  0  0  0  0  0  0  0  0  0
  -22.5916  -25.0224   23.1875 C   0  0  0  0  0  0  0  0  0  0  0  0
  -18.6584  -29.6348   22.5589 C   0  0  0  0  0  0  0  0  0  0  0  0
  -23.3653  -24.7949   22.0404 C   0  0  0  0  0  0  0  0  0  0  0  0
  -23.4111  -10.3553   21.0398 C   0  0  0  0  0  0  0  0  0  0  0  0
  -23.2714   -9.9753   22.3699 C   0  0  0  0  0  0  0  0  0  0  0  0
  -22.9349   -8.6623   22.6803 C   0  0  0  0  0  0  0  0  0  0  0  0
  -27.9411  -20.3908   26.1764 C   0  0  0  0  0  0  0  0  0  0  0  0
  -22.6556  -22.4698   22.0380 C   0  0  0  0  0  0  0  0  0  0  0  0
  -26.7291  -22.1718   27.1153 C   0  0  0  0  0  0  0  0  0  0  0  0
  -25.0908  -24.4022   26.7636 C   0  0  0  0  0  0  0  0  0  0  0  0
  -25.4604  -22.2034   27.6941 C   0  0  0  0  0  0  0  0  0  0  0  0
  -29.1773  -18.2930   22.7168 C   0  0  0  0  0  0  0  0  0  0  0  0
  -23.2054   -9.3923   20.0651 C   0  0  0  0  0  0  0  0  0  0  0  0
  -22.7503   -7.7751   21.6322 C   0  0  0  0  0  0  0  0  0  0  0  0
  -29.9210  -17.7566   20.7183 C   0  0  0  0  0  0  0  0  0  0  0  0
  -29.8586  -20.2175   21.1526 C   0  0  0  0  0  0  0  0  0  0  0  0
  -21.8189  -27.8316   21.9166 C   0  0  0  0  0  0  0  0  0  0  0  0
  -25.0366  -28.2271   21.8055 C   0  0  0  0  0  0  0  0  0  0  0  0
  -28.4028  -27.0573   21.2421 C   0  0  0  0  0  0  0  0  0  0  0  0
  -26.0537  -14.5934   20.8522 C   0  0  0  0  0  0  0  0  0  0  0  0
  -19.0272  -32.1033   22.0473 C   0  0  0  0  0  0  0  0  0  0  0  0
  -22.5710  -26.3797   23.8355 C   0  0  0  0  0  0  0  0  0  0  0  0
  -24.1718  -25.8924   21.3974 C   0  0  0  0  0  0  0  0  0  0  0  0
  -20.3526  -31.6841   21.4165 C   0  0  0  0  0  0  0  0  0  0  0  0
  -28.9040  -13.9191   23.0980 C   0  0  0  0  0  0  0  0  0  0  0  0
  -20.1952  -30.3614   20.6731 C   0  0  0  0  0  0  0  0  0  0  0  0
  -22.7738  -18.5020   20.3843 C   0  0  0  0  0  0  0  0  0  0  0  0
  -22.9774  -16.9857   20.3063 C   0  0  0  0  0  0  0  0  0  0  0  0
  -30.0865  -14.2883   22.2121 C   0  0  0  0  0  0  0  0  0  0  0  0
  -22.7977  -12.8403   21.1699 C   0  0  0  0  0  0  0  0  0  0  0  0
  -23.1393  -17.6616   22.6087 C   0  0  0  0  0  0  0  0  0  0  0  0
  -27.7412  -13.3444   22.2938 C   0  0  0  0  0  0  0  0  0  0  0  0
  -25.1085  -12.2603   21.2483 C   0  0  0  0  0  0  0  0  0  0  0  0
  -28.4593  -14.6524   20.2983 C   0  0  0  0  0  0  0  0  0  0  0  0
  -23.7763  -11.7713   20.6714 C   0  0  1  0  0  0  0  0  0  0  0  0
  -19.7850  -29.2359   21.6305 C   0  0  1  0  0  0  0  0  0  0  0  0
  -22.9314  -27.5070   22.8729 C   0  0  1  0  0  0  0  0  0  0  0  0
  -23.2793  -18.9265   21.7662 C   0  0  2  0  0  0  0  0  0  0  0  0
  -23.5996  -16.5730   21.6432 C   0  0  1  0  0  0  0  0  0  0  0  0
  -29.6873  -15.2017   21.0445 C   0  0  1  0  0  0  0  0  0  0  0  0
  -23.6091  -14.1352   21.0439 C   0  0  1  0  0  0  0  0  0  0  0  0
  -23.4797  -10.9749   23.4626 C   0  0  0  0  0  0  0  0  0  0  0  0
  -22.7776   -8.2234   24.0977 C   0  0  0  0  0  0  0  0  0  0  0  0
  -23.3416   -9.7406   18.6189 C   0  0  0  0  0  0  0  0  0  0  0  0
  -22.3854   -6.3520   21.9026 C   0  0  0  0  0  0  0  0  0  0  0  0
  -30.6043  -28.2319   21.5091 C   0  0  0  0  0  0  0  0  0  0  0  0
  -23.8184  -14.8383   23.4448 C   0  0  0  0  0  0  0  0  0  0  0  0
  -24.7308  -28.8585   18.8360 C   0  0  0  0  0  0  0  0  0  0  0  0
  -27.1934  -28.4898   18.5754 C   0  0  0  0  0  0  0  0  0  0  0  0
  -26.3572  -30.3190   20.0510 C   0  0  0  0  0  0  0  0  0  0  0  0
  -29.4337  -24.9596   23.0576 C   0  0  0  0  0  0  0  0  0  0  0  0
  -22.5272  -20.1145   22.3413 C   0  0  0  0  0  0  0  0  0  1  0  0
  -26.1179  -27.9159   20.7991 C   0  0  1  0  0  0  0  0  0  0  0  0
  -29.6043  -27.2778   22.1434 C   0  0  2  0  0  0  0  0  0  0  0  0
  -23.1987  -15.1667   22.0870 C   0  0  1  0  0  0  0  0  0  0  0  0
  -26.0832  -28.8754   19.5761 C   0  0  0  0  0  0  0  0  0  0  0  0
  -29.1311  -16.9584   22.6897 N   0  0  0  0  0  0  0  0  0  0  0  0
  -22.8775   -8.1074   20.3279 N   0  0  0  0  0  0  0  0  0  0  0  0
  -29.5893  -16.6622   21.4616 N   0  0  0  0  0  0  0  0  0  0  0  0
  -24.1142  -27.2035   22.0647 N   0  0  0  0  0  0  0  0  0  0  0  0
  -27.3647  -14.1975   21.1616 N   0  0  0  0  0  0  0  0  0  0  0  0
  -25.0124  -13.7213   21.1797 N   0  0  0  0  0  0  0  0  0  0  0  0
  -30.3983  -17.6390   19.4610 N   0  0  0  0  0  0  0  0  0  0  0  0
  -29.5409  -21.2089   22.0909 N   0  0  0  0  0  0  0  0  0  0  0  0
  -20.9282  -28.7763   22.3896 N   0  0  0  0  0  0  0  0  0  0  0  0
  -27.3774  -27.9313   21.5351 N   0  0  0  0  0  0  0  0  0  0  0  0
  -30.2942  -25.9845   22.4125 N   0  3  0  0  0  0  0  0  0  0  0  0
  -30.2881  -20.5558   20.0236 O   0  0  0  0  0  0  0  0  0  0  0  0
  -21.7728  -27.2679   20.8295 O   0  0  0  0  0  0  0  0  0  0  0  0
  -25.0155  -29.3351   22.3472 O   0  0  0  0  0  0  0  0  0  0  0  0
  -28.3780  -26.1984   20.3634 O   0  0  0  0  0  0  0  0  0  0  0  0
  -25.8227  -15.6736   20.2922 O   0  0  0  0  0  0  0  0  0  0  0  0
  -27.5439  -21.0657   27.2897 O   0  0  0  0  0  0  0  0  0  0  0  0
  -22.6856  -21.2213   21.4693 O   0  0  0  0  0  0  0  0  0  1  0  0
  -24.3048  -25.4738   26.5959 F   0  0  0  0  0  0  0  0  0  0  0  0
  -25.0235  -21.1659   28.4210 F   0  0  0  0  0  0  0  0  0  0  0  0
  1  2  1  0  0  0  0
  1  5  2  0  0  0  0
  2  6  2  0  0  0  0
  3  8  2  0  0  0  0
  3 15  1  0  0  0  0
  4  9  1  0  0  0  0
  4 15  2  0  0  0  0
  5 17  1  0  0  0  0
  6 19  1  0  0  0  0
  7 10  2  0  0  0  0
  7 18  1  0  0  0  0
  8 24  1  0  0  0  0
  9 24  2  0  0  0  0
 10 25  1  0  0  0  0
 11 12  2  0  0  0  0
 11 26  1  0  0  0  0
 12 27  1  0  0  0  0
 13 20  1  0  0  0  0
 13 25  2  0  0  0  0
 14 27  2  0  0  0  0
 14 28  1  0  0  0  0
 15 29  1  0  0  0  0
 16 29  1  0  0  0  0
 16 32  2  0  0  0  0
 16 33  1  0  0  0  0
 17 19  2  0  0  0  0
 17 38  1  0  0  0  0
 18 20  2  0  0  0  0
 18 39  1  0  0  0  0
 19 53  1  0  0  0  0
 20 40  1  0  0  0  0
 21 22  2  0  0  0  0
 21 30  1  0  0  0  0
 21 52  1  0  0  0  0
 22 23  1  0  0  0  0
 22 59  1  0  0  0  0
 23 31  2  0  0  0  0
 23 60  1  0  0  0  0
 24 90  1  0  0  0  0
 25 91  1  0  0  0  0
 26 28  2  0  0  0  0
 26 90  1  0  0  0  0
 27 92  1  0  0  0  0
 28 93  1  0  0  0  0
 29 74  2  0  0  0  0
 30 61  1  0  0  0  0
 30 75  2  0  0  0  0
 31 62  1  0  0  0  0
 31 75  1  0  0  0  0
 32 76  1  0  0  0  0
 32 80  1  0  0  0  0
 33 81  1  0  0  0  0
 33 85  2  0  0  0  0
 34 54  1  0  0  0  0
 34 82  1  0  0  0  0
 34 86  2  0  0  0  0
 35 70  1  0  0  0  0
 35 77  1  0  0  0  0
 35 87  2  0  0  0  0
 36 71  1  0  0  0  0
 36 83  1  0  0  0  0
 36 88  2  0  0  0  0
 37 78  1  0  0  0  0
 37 79  1  0  0  0  0
 37 89  2  0  0  0  0
 38 41  1  0  0  0  0
 39 54  1  0  0  0  0
 40 77  1  0  0  0  0
 41 43  1  0  0  0  0
 42 46  1  0  0  0  0
 42 49  1  0  0  0  0
 43 53  1  0  0  0  0
 44 45  1  0  0  0  0
 44 55  1  0  0  0  0
 45 56  1  0  0  0  0
 46 57  1  0  0  0  0
 47 52  1  0  0  0  0
 47 58  1  0  0  0  0
 48 55  1  0  0  0  0
 48 56  1  0  0  0  0
 49 78  1  0  0  0  0
 50 52  1  0  0  0  0
 50 79  1  0  0  0  0
 51 57  1  0  0  0  0
 51 78  1  0  0  0  0
 53 82  1  0  0  0  0
 54 77  1  0  0  0  0
 55 69  1  0  0  0  0
 56 72  1  0  0  0  0
 57 76  1  0  0  0  0
 58 72  1  0  0  0  0
 58 79  1  0  0  0  0
 63 71  1  0  0  0  0
 64 72  1  0  0  0  0
 65 73  1  0  0  0  0
 66 73  1  0  0  0  0
 67 73  1  0  0  0  0
 68 84  1  0  0  0  0
 69 91  1  0  0  0  0
 70 73  1  0  0  0  0
 70 83  1  0  0  0  0
 71 84  1  0  0  0  0
 74 76  1  0  0  0  0
M  CHG  1  84   1
M  ISO  4  37 100  69 101  79 100  91 101
M  END
> <Batch ID>
0163

> <Smiles>
CNC(C)C(=O)NC(C(=O)N1Cc2cc([101O:1][101CH2:1]C3CCC(C(C)C4CC(c5c(C)nc(C)c(C)c5C)C[100N:0]4[100C:0](=O)N4CCCC(n5nc(-c6ccc(Oc7ccc(F)cc7F)cc6)c(C(N)=O)c5N)C4)C3)ccc2CC1C(=O)NC1CCCc2ccccc21)C(C)(C)C

> <Shape>
0.225

> <Color>
0.095

> <Negative vol penalty>
0.000

$$$$

  -OEChem-04052322173D

 89 98  0     1  0  0  0  0  0999 V2000
  -17.0016  -29.1204   24.5269 C   0  0  0  0  0  0  0  0  0  0  0  0
  -17.6822  -28.0416   23.9715 C   0  0  0  0  0  0  0  0  0  0  0  0
  -25.6140  -12.9608   19.3909 C   0  0  0  0  0  0  0  0  0  0  0  0
  -24.4076  -14.5536   20.7492 C   0  0  0  0  0  0  0  0  0  0  0  0
  -17.3027  -30.4187   24.1172 C   0  0  0  0  0  0  0  0  0  0  0  0
  -18.6635  -28.2604   23.0052 C   0  0  0  0  0  0  0  0  0  0  0  0
  -22.8376  -25.5107   23.8181 C   0  0  0  0  0  0  0  0  0  0  0  0
  -24.6263  -12.0062   19.6331 C   0  0  0  0  0  0  0  0  0  0  0  0
  -23.4199  -13.5990   20.9913 C   0  0  0  0  0  0  0  0  0  0  0  0
  -22.7934  -24.1646   23.4580 C   0  0  0  0  0  0  0  0  0  0  0  0
  -23.7587   -9.8983   22.1288 C   0  0  0  0  0  0  0  0  0  0  0  0
  -24.1727   -8.6075   22.4574 C   0  0  0  0  0  0  0  0  0  0  0  0
  -26.3209  -20.7555   22.9358 C   0  0  0  0  0  0  0  0  0  0  0  0
  -23.9755  -24.6776   21.4187 C   0  0  0  0  0  0  0  0  0  0  0  0
  -27.0667  -20.2510   20.2954 C   0  0  0  0  0  0  0  0  0  0  0  0
  -23.0188   -7.7437   20.5185 C   0  0  0  0  0  0  0  0  0  0  0  0
  -25.5047  -14.2345   19.9490 C   0  0  0  0  0  0  0  0  0  0  0  0
  -26.5671  -16.1525   18.6450 C   0  0  0  0  0  0  0  0  0  0  0  0
  -18.2949  -30.6542   23.1525 C   0  0  0  0  0  0  0  0  0  0  0  0
  -23.4425  -26.4537   22.9747 C   0  0  0  0  0  0  0  0  0  0  0  0
  -18.9772  -29.5630   22.5813 C   0  0  0  0  0  0  0  0  0  0  0  0
  -27.6484  -20.9227   22.5420 C   0  0  0  0  0  0  0  0  0  0  0  0
  -24.0283  -26.0347   21.7716 C   0  0  0  0  0  0  0  0  0  0  0  0
  -25.3661  -20.3359   22.0094 C   0  0  0  0  0  0  0  0  0  0  0  0
  -28.0214  -20.6705   21.2218 C   0  0  0  0  0  0  0  0  0  0  0  0
  -25.7390  -20.0837   20.6892 C   0  0  0  0  0  0  0  0  0  0  0  0
  -23.5292  -12.3252   20.4333 C   0  0  0  0  0  0  0  0  0  0  0  0
  -23.3599  -23.7482   22.2568 C   0  0  0  0  0  0  0  0  0  0  0  0
  -22.9746  -10.1118   20.9950 C   0  0  0  0  0  0  0  0  0  0  0  0
  -23.8028   -7.5302   21.6523 C   0  0  0  0  0  0  0  0  0  0  0  0
  -22.6047   -9.0346   20.1899 C   0  0  0  0  0  0  0  0  0  0  0  0
  -26.5250  -15.2209   19.6996 C   0  0  0  0  0  0  0  0  0  0  0  0
  -27.7286  -16.8553   18.8539 C   0  0  0  0  0  0  0  0  0  0  0  0
  -25.6394  -16.3637   17.5725 C   0  0  0  0  0  0  0  0  0  0  0  0
  -22.4392  -29.0295   21.4055 C   0  0  0  0  0  0  0  0  0  0  0  0
  -25.5930  -29.3638   20.7243 C   0  0  0  0  0  0  0  0  0  0  0  0
  -28.6536  -27.8945   20.3768 C   0  0  0  0  0  0  0  0  0  0  0  0
  -30.9981  -17.9668   23.7453 C   0  0  0  0  0  0  0  0  0  0  0  0
  -18.5524  -32.0719   22.7071 C   0  0  0  0  0  0  0  0  0  0  0  0
  -23.5054  -27.8979   23.3901 C   0  0  0  0  0  0  0  0  0  0  0  0
  -24.7075  -27.0042   20.8404 C   0  0  0  0  0  0  0  0  0  0  0  0
  -19.8673  -32.2435   21.9508 C   0  0  0  0  0  0  0  0  0  0  0  0
  -32.0974  -16.3902   20.7482 C   0  0  0  0  0  0  0  0  0  0  0  0
  -20.0247  -31.1499   20.8991 C   0  0  0  0  0  0  0  0  0  0  0  0
  -30.7977  -15.9958   20.0444 C   0  0  0  0  0  0  0  0  0  0  0  0
  -31.9852  -16.2439   22.2641 C   0  0  0  0  0  0  0  0  0  0  0  0
  -29.5425  -16.5564   22.1678 C   0  0  0  0  0  0  0  0  0  0  0  0
  -28.3610  -22.6409   24.4317 C   0  0  0  0  0  0  0  0  0  0  0  0
  -28.6953  -21.3919   23.5896 C   0  0  1  0  0  0  0  0  0  0  0  0
  -20.0655  -29.7614   21.5487 C   0  0  1  0  0  0  0  0  0  0  0  0
  -23.6934  -28.8505   22.2134 C   0  0  1  0  0  0  0  0  0  0  0  0
  -29.5885  -16.7407   20.6413 C   0  0  2  0  0  0  0  0  0  0  0  0
  -28.7347  -20.6529   24.9518 C   0  0  1  0  0  0  0  0  0  0  0  0
  -29.4372  -20.8446   20.7802 C   0  0  0  0  0  0  0  0  0  0  0  0
  -24.7349  -19.6327   19.6799 C   0  0  0  0  0  0  0  0  0  0  0  0
  -23.8145  -19.0726   23.5351 C   0  0  0  0  0  0  0  0  0  0  0  0
  -31.0330  -28.4177   19.7749 C   0  0  0  0  0  0  0  0  0  0  0  0
  -29.7419  -18.9696   26.5085 C   0  0  0  0  0  0  0  0  0  0  0  0
  -24.8129  -29.5106   17.7781 C   0  0  0  0  0  0  0  0  0  0  0  0
  -27.2083  -29.0756   17.1941 C   0  0  0  0  0  0  0  0  0  0  0  0
  -26.5902  -31.1289   18.4686 C   0  0  0  0  0  0  0  0  0  0  0  0
  -28.2626  -22.1646   26.8299 C   0  0  0  0  0  0  0  0  0  0  0  0
  -29.6364  -27.0351   23.0328 C   0  0  0  0  0  0  0  0  0  0  0  0
  -23.3143  -21.4768   22.9601 C   0  0  0  0  0  0  0  0  0  1  0  0
  -23.9253  -20.1597   22.4625 C   0  0  1  0  0  0  0  0  0  0  0  0
  -26.5059  -28.8813   19.6231 C   0  0  1  0  0  0  0  0  0  0  0  0
  -30.0231  -28.2830   20.9040 C   0  0  2  0  0  0  0  0  0  0  0  0
  -29.8650  -19.6636   25.1581 C   0  0  1  0  0  0  0  0  0  0  0  0
  -26.2649  -29.6309   18.2824 C   0  0  0  0  0  0  0  0  0  0  0  0
  -27.5761  -15.3202   20.5177 N   0  0  0  0  0  0  0  0  0  0  0  0
  -28.2898  -16.3224   19.9770 N   0  0  0  0  0  0  0  0  0  0  0  0
  -24.7377  -28.4065   21.2879 N   0  0  0  0  0  0  0  0  0  0  0  0
  -30.8195  -16.9748   22.7669 N   0  0  0  0  0  0  0  0  0  0  0  0
  -28.3144  -17.8708   18.1846 N   0  0  0  0  0  0  0  0  0  0  0  0
  -24.4976  -15.5534   17.5074 N   0  0  0  0  0  0  0  0  0  0  0  0
  -21.3672  -29.5137   22.1306 N   0  0  0  0  0  0  0  0  0  0  0  0
  -27.8656  -29.0006   20.1383 N   0  0  0  0  0  0  0  0  0  0  0  0
  -29.8423  -18.6155   24.1622 N   0  0  0  0  0  0  0  0  0  0  0  0
  -29.0161  -21.9709   25.5708 N   0  3  2  0  0  0  0  0  0  0  0  0
  -30.5213  -27.2538   21.8598 N   0  3  0  0  0  0  0  0  0  0  0  0
  -25.8258  -17.2340   16.6885 O   0  0  0  0  0  0  0  0  0  0  0  0
  -22.4442  -28.7505   20.2123 O   0  0  0  0  0  0  0  0  0  0  0  0
  -25.6422  -30.5450   21.0765 O   0  0  0  0  0  0  0  0  0  0  0  0
  -28.3179  -26.7269   20.1914 O   0  0  0  0  0  0  0  0  0  0  0  0
  -32.1063  -18.2567   24.2087 O   0  0  0  0  0  0  0  0  0  0  0  0
  -22.5651  -11.3940   20.6696 O   0  0  0  0  0  0  0  0  0  0  0  0
  -23.3175  -22.4350   21.9026 O   0  0  0  0  0  0  0  0  0  1  0  0
  -24.2017   -6.2909   21.9671 F   0  0  0  0  0  0  0  0  0  0  0  0
  -21.8526   -9.2336   19.0987 F   0  0  0  0  0  0  0  0  0  0  0  0
  1  2  1  0  0  0  0
  1  5  2  0  0  0  0
  2  6  2  0  0  0  0
  3  8  2  0  0  0  0
  3 17  1  0  0  0  0
  4  9  1  0  0  0  0
  4 17  2  0  0  0  0
  5 19  1  0  0  0  0
  6 21  1  0  0  0  0
  7 10  2  0  0  0  0
  7 20  1  0  0  0  0
  8 27  1  0  0  0  0
  9 27  2  0  0  0  0
 10 28  1  0  0  0  0
 11 12  2  0  0  0  0
 11 29  1  0  0  0  0
 12 30  1  0  0  0  0
 13 22  2  0  0  0  0
 13 24  1  0  0  0  0
 14 23  1  0  0  0  0
 14 28  2  0  0  0  0
 15 25  2  0  0  0  0
 15 26  1  0  0  0  0
 16 30  2  0  0  0  0
 16 31  1  0  0  0  0
 17 32  1  0  0  0  0
 18 32  1  0  0  0  0
 18 33  2  0  0  0  0
 18 34  1  0  0  0  0
 19 21  2  0  0  0  0
 19 39  1  0  0  0  0
 20 23  2  0  0  0  0
 20 40  1  0  0  0  0
 21 50  1  0  0  0  0
 22 25  1  0  0  0  0
 22 49  1  0  0  0  0
 23 41  1  0  0  0  0
 24 26  2  0  0  0  0
 24 65  1  0  0  0  0
 25 54  1  0  0  0  0
 26 55  1  0  0  0  0
 27 86  1  0  0  0  0
 28 87  1  0  0  0  0
 29 31  2  0  0  0  0
 29 86  1  0  0  0  0
 30 88  1  0  0  0  0
 31 89  1  0  0  0  0
 32 70  2  0  0  0  0
 33 71  1  0  0  0  0
 33 74  1  0  0  0  0
 34 75  1  0  0  0  0
 34 81  2  0  0  0  0
 35 51  1  0  0  0  0
 35 76  1  0  0  0  0
 35 82  2  0  0  0  0
 36 66  1  0  0  0  0
 36 72  1  0  0  0  0
 36 83  2  0  0  0  0
 37 67  1  0  0  0  0
 37 77  1  0  0  0  0
 37 84  2  0  0  0  0
 38 73  1  0  0  0  0
 38 78  1  0  0  0  0
 38 85  2  0  0  0  0
 39 42  1  0  0  0  0
 40 51  1  0  0  0  0
 41 72  1  0  0  0  0
 42 44  1  0  0  0  0
 43 45  1  0  0  0  0
 43 46  1  0  0  0  0
 44 50  1  0  0  0  0
 45 52  1  0  0  0  0
 46 73  1  0  0  0  0
 47 52  1  0  0  0  0
 47 73  1  0  0  0  0
 48 49  1  0  0  0  0
 48 79  1  0  0  0  0
 49 53  1  0  0  0  0
 50 76  1  0  0  0  0
 51 72  1  0  0  0  0
 52 71  1  0  0  0  0
 53 68  1  0  0  0  0
 53 79  1  0  0  0  0
 56 65  1  0  0  0  0
 57 67  1  0  0  0  0
 58 68  1  0  0  0  0
 59 69  1  0  0  0  0
 60 69  1  0  0  0  0
 61 69  1  0  0  0  0
 62 79  1  0  0  0  0
 63 80  1  0  0  0  0
 64 65  1  0  0  0  0
 64 87  1  0  0  0  0
 66 69  1  0  0  0  0
 66 77  1  0  0  0  0
 67 80  1  0  0  0  0
 68 78  1  0  0  0  0
 70 71  1  0  0  0  0
M  CHG  2  79   1  80   1
M  ISO  4  38 100  64 101  78 100  87 101
M  END
> <Batch ID>
0163

> <Smiles>
CNC(C)C(=O)NC(C(=O)N1Cc2cc([101O:1][101CH2:1]C(C)c3cc(C4CN(C)C4C(C)[100NH:0][100C:0](=O)N4CCCC(n5nc(-c6ccc(Oc7ccc(F)cc7F)cc6)c(C(N)=O)c5N)C4)c(C)cc3C)ccc2CC1C(=O)NC1CCCc2ccccc21)C(C)(C)C

> <Shape>
0.232

> <Color>
0.073

> <Negative vol penalty>
0.000

$$$$

  -OEChem-04052322173D

 93104  0     1  0  0  0  0  0999 V2000
  -21.6184  -19.0370   22.3639 C   0  0  0  0  0  0  0  0  0  0  0  0
  -22.4893  -18.3384   23.1939 C   0  0  0  0  0  0  0  0  0  0  0  0
  -23.1909   -9.8194   19.9316 C   0  0  0  0  0  0  0  0  0  0  0  0
  -23.5702   -9.9993   22.3109 C   0  0  0  0  0  0  0  0  0  0  0  0
  -20.2606  -19.0992   22.6744 C   0  0  0  0  0  0  0  0  0  0  0  0
  -22.0030  -17.7024   24.3356 C   0  0  0  0  0  0  0  0  0  0  0  0
  -23.8663  -13.0273   24.8978 C   0  0  0  0  0  0  0  0  0  0  0  0
  -22.4252   -8.6724   20.1403 C   0  0  0  0  0  0  0  0  0  0  0  0
  -22.8044   -8.8523   22.5196 C   0  0  0  0  0  0  0  0  0  0  0  0
  -25.1634  -12.9145   25.3963 C   0  0  0  0  0  0  0  0  0  0  0  0
  -23.2066   -5.5058   22.2544 C   0  0  0  0  0  0  0  0  0  0  0  0
  -23.7058   -4.5444   23.1331 C   0  0  0  0  0  0  0  0  0  0  0  0
  -30.6536  -13.0167   25.2794 C   0  0  0  0  0  0  0  0  0  0  0  0
  -24.2735  -12.4239   27.5842 C   0  0  0  0  0  0  0  0  0  0  0  0
  -21.7497   -4.8033   24.5274 C   0  0  0  0  0  0  0  0  0  0  0  0
  -31.3670  -13.3056   26.4484 C   0  0  0  0  0  0  0  0  0  0  0  0
  -32.7312  -13.6487   26.3482 C   0  0  0  0  0  0  0  0  0  0  0  0
  -23.7635  -10.4829   21.0169 C   0  0  0  0  0  0  0  0  0  0  0  0
  -24.1012  -12.9997   20.7737 C   0  0  0  0  0  0  0  0  0  0  0  0
  -19.7559  -18.4556   23.8153 C   0  0  0  0  0  0  0  0  0  0  0  0
  -22.7612  -12.8496   25.7426 C   0  0  0  0  0  0  0  0  0  0  0  0
  -20.6374  -17.7572   24.6624 C   0  0  0  0  0  0  0  0  0  0  0  0
  -22.9634  -12.5324   27.0934 C   0  0  0  0  0  0  0  0  0  0  0  0
  -30.7643  -13.2635   27.7162 C   0  0  0  0  0  0  0  0  0  0  0  0
  -32.8502  -13.8956   28.7607 C   0  0  0  0  0  0  0  0  0  0  0  0
  -31.5030  -13.5571   28.8638 C   0  0  0  0  0  0  0  0  0  0  0  0
  -22.2319   -8.1889   21.4343 C   0  0  0  0  0  0  0  0  0  0  0  0
  -25.3672  -12.6156   26.7403 C   0  0  0  0  0  0  0  0  0  0  0  0
  -21.9791   -6.1160   22.5122 C   0  0  0  0  0  0  0  0  0  0  0  0
  -33.4648  -13.9421   27.5097 C   0  0  0  0  0  0  0  0  0  0  0  0
  -22.9773   -4.1931   24.2696 C   0  0  0  0  0  0  0  0  0  0  0  0
  -21.2506   -5.7647   23.6487 C   0  0  0  0  0  0  0  0  0  0  0  0
  -24.5551  -11.6674   20.8018 C   0  0  0  0  0  0  0  0  0  0  0  0
  -33.2957  -13.6800   25.0715 C   0  0  0  0  0  0  0  0  0  0  0  0
  -31.3203  -13.0800   24.0653 C   0  0  0  0  0  0  0  0  0  0  0  0
  -25.2320  -13.7428   20.5381 C   0  0  0  0  0  0  0  0  0  0  0  0
  -22.7758  -13.5191   20.9453 C   0  0  0  0  0  0  0  0  0  0  0  0
  -20.3502  -14.6873   26.6986 C   0  0  0  0  0  0  0  0  0  0  0  0
  -19.3156  -11.9403   28.0791 C   0  0  0  0  0  0  0  0  0  0  0  0
  -20.7823   -9.1965   29.9060 C   0  0  0  0  0  0  0  0  0  0  0  0
  -31.0373  -12.7841   21.5796 C   0  0  0  0  0  0  0  0  0  0  0  0
  -18.2882  -18.5906   24.1354 C   0  0  0  0  0  0  0  0  0  0  0  0
  -21.3683  -12.9483   25.1836 C   0  0  0  0  0  0  0  0  0  0  0  0
  -21.8107  -12.3122   28.0374 C   0  0  0  0  0  0  0  0  0  0  0  0
  -17.7927  -17.5750   25.1616 C   0  0  0  0  0  0  0  0  0  0  0  0
  -29.5231  -13.4660   18.4301 C   0  0  0  0  0  0  0  0  0  0  0  0
  -33.1443  -15.2871   30.9173 C   0  0  0  0  0  0  0  0  0  0  0  0
  -34.3611  -15.5258   30.0791 C   0  0  0  0  0  0  0  0  0  0  0  0
  -18.7531  -17.4990   26.3443 C   0  0  0  0  0  0  0  0  0  0  0  0
  -28.0352  -13.2093   18.6799 C   0  0  0  0  0  0  0  0  0  0  0  0
  -28.9442  -11.7766   28.7938 C   0  0  0  0  0  0  0  0  0  0  0  0
  -30.4050  -12.4811   19.1956 C   0  0  0  0  0  0  0  0  0  0  0  0
  -28.6460  -12.1385   20.8861 C   0  0  0  0  0  0  0  0  0  0  0  0
  -29.3327  -12.9079   27.8667 C   0  0  2  0  0  0  0  0  0  0  0  0
  -33.6395  -14.2095   29.9932 C   0  0  0  0  0  0  0  0  0  0  0  0
  -20.1439  -17.0335   25.8965 C   0  0  1  0  0  0  0  0  0  0  0  0
  -20.3180  -13.2546   26.2468 C   0  0  1  0  0  0  0  0  0  0  0  0
  -28.8362  -11.5900   27.3097 C   0  0  2  0  0  0  0  0  0  0  0  0
  -27.7195  -13.1469   20.1872 C   0  0  2  0  0  0  0  0  0  0  0  0
  -30.8489  -13.5085   30.2100 C   0  0  0  0  0  0  0  0  0  0  0  0
  -34.7285  -14.0279   24.8245 C   0  0  0  0  0  0  0  0  0  0  0  0
  -20.0440   -6.8090   30.1352 C   0  0  0  0  0  0  0  0  0  0  0  0
  -26.8442  -10.1575   26.8298 C   0  0  0  0  0  0  0  0  0  0  0  0
  -17.9234  -12.9173   30.6123 C   0  0  0  0  0  0  0  0  0  0  0  0
  -18.5681  -10.7634   31.7138 C   0  0  0  0  0  0  0  0  0  0  0  0
  -17.0654  -10.7432   29.7227 C   0  0  0  0  0  0  0  0  0  0  0  0
  -23.3944   -8.1763   28.9597 C   0  0  0  0  0  0  0  0  0  0  0  0
  -35.7280  -13.2132   27.5597 C   0  0  0  0  0  0  0  0  0  0  0  0
  -19.5183  -11.2748   29.4189 C   0  0  1  0  0  0  0  0  0  0  0  0
  -20.9712   -7.7735   29.4120 C   0  0  2  0  0  0  0  0  0  0  0  0
  -27.4691  -11.5068   26.6478 C   0  0  1  0  0  0  0  0  0  1  0  0
  -18.2886  -11.4416   30.3556 C   0  0  0  0  0  0  0  0  0  0  0  0
  -25.8716  -11.5669   20.6000 N   0  0  0  0  0  0  0  0  0  0  0  0
  -32.6239  -13.4043   23.9309 N   0  0  0  0  0  0  0  0  0  0  0  0
  -26.2546  -12.8454   20.4428 N   0  0  0  0  0  0  0  0  0  0  0  0
  -20.4678  -12.4257   27.4446 N   0  0  0  0  0  0  0  0  0  0  0  0
  -30.0518  -12.4791   20.6169 N   0  0  0  0  0  0  0  0  0  0  0  0
  -25.4414  -15.0698   20.4052 N   0  0  0  0  0  0  0  0  0  0  0  0
  -21.7296  -12.6164   21.1795 N   0  0  0  0  0  0  0  0  0  0  0  0
  -30.5771  -12.7833   22.8959 N   0  0  0  0  0  0  0  0  0  0  0  0
  -20.1531  -15.6023   25.6821 N   0  0  0  0  0  0  0  0  0  0  0  0
  -19.8704   -9.8875   29.1364 N   0  0  0  0  0  0  0  0  0  0  0  0
  -22.3765   -7.3302   29.6343 N   0  3  0  0  0  0  0  0  0  0  0  0
  -22.5241  -14.7460   20.8761 O   0  0  0  0  0  0  0  0  0  0  0  0
  -20.5384  -14.9435   27.8821 O   0  0  0  0  0  0  0  0  0  0  0  0
  -18.1778  -12.0198   27.6094 O   0  0  0  0  0  0  0  0  0  0  0  0
  -21.3809   -9.6485   30.8796 O   0  0  0  0  0  0  0  0  0  0  0  0
  -32.1971  -13.0547   21.2578 O   0  0  0  0  0  0  0  0  0  0  0  0
  -21.4845   -7.0698   21.6384 O   0  0  0  0  0  0  0  0  0  0  0  0
  -34.7882  -14.2797   27.4690 O   0  0  0  0  0  0  0  0  0  0  0  0
  -26.6323  -12.5056   27.2296 O   0  0  0  0  0  0  0  0  0  1  0  0
  -23.4561   -3.2687   25.1125 F   0  0  0  0  0  0  0  0  0  0  0  0
  -20.0702   -6.3466   23.9010 F   0  0  0  0  0  0  0  0  0  0  0  0
  1  2  1  0  0  0  0
  1  5  2  0  0  0  0
  2  6  2  0  0  0  0
  3  8  2  0  0  0  0
  3 18  1  0  0  0  0
  4  9  1  0  0  0  0
  4 18  2  0  0  0  0
  5 20  1  0  0  0  0
  6 22  1  0  0  0  0
  7 10  2  0  0  0  0
  7 21  1  0  0  0  0
  8 27  1  0  0  0  0
  9 27  2  0  0  0  0
 10 28  1  0  0  0  0
 11 12  2  0  0  0  0
 11 29  1  0  0  0  0
 12 31  1  0  0  0  0
 13 16  1  0  0  0  0
 13 35  2  0  0  0  0
 14 23  1  0  0  0  0
 14 28  2  0  0  0  0
 15 31  2  0  0  0  0
 15 32  1  0  0  0  0
 16 17  1  0  0  0  0
 16 24  2  0  0  0  0
 17 30  2  0  0  0  0
 17 34  1  0  0  0  0
 18 33  1  0  0  0  0
 19 33  1  0  0  0  0
 19 36  2  0  0  0  0
 19 37  1  0  0  0  0
 20 22  2  0  0  0  0
 20 42  1  0  0  0  0
 21 23  2  0  0  0  0
 21 43  1  0  0  0  0
 22 56  1  0  0  0  0
 23 44  1  0  0  0  0
 24 26  1  0  0  0  0
 24 54  1  0  0  0  0
 25 26  2  0  0  0  0
 25 30  1  0  0  0  0
 25 55  1  0  0  0  0
 26 60  1  0  0  0  0
 27 89  1  0  0  0  0
 28 91  1  0  0  0  0
 29 32  2  0  0  0  0
 29 89  1  0  0  0  0
 30 90  1  0  0  0  0
 31 92  1  0  0  0  0
 32 93  1  0  0  0  0
 33 73  2  0  0  0  0
 34 61  1  0  0  0  0
 34 74  2  0  0  0  0
 35 74  1  0  0  0  0
 35 80  1  0  0  0  0
 36 75  1  0  0  0  0
 36 78  1  0  0  0  0
 37 79  1  0  0  0  0
 37 84  2  0  0  0  0
 38 57  1  0  0  0  0
 38 81  1  0  0  0  0
 38 85  2  0  0  0  0
 39 69  1  0  0  0  0
 39 76  1  0  0  0  0
 39 86  2  0  0  0  0
 40 70  1  0  0  0  0
 40 82  1  0  0  0  0
 40 87  2  0  0  0  0
 41 77  1  0  0  0  0
 41 80  1  0  0  0  0
 41 88  2  0  0  0  0
 42 45  1  0  0  0  0
 43 57  1  0  0  0  0
 44 76  1  0  0  0  0
 45 49  1  0  0  0  0
 46 50  1  0  0  0  0
 46 52  1  0  0  0  0
 47 48  1  0  0  0  0
 47 55  1  0  0  0  0
 48 55  1  0  0  0  0
 49 56  1  0  0  0  0
 50 59  1  0  0  0  0
 51 54  1  0  0  0  0
 51 58  1  0  0  0  0
 52 77  1  0  0  0  0
 53 59  1  0  0  0  0
 53 77  1  0  0  0  0
 54 58  1  0  0  0  0
 56 81  1  0  0  0  0
 57 76  1  0  0  0  0
 58 71  1  0  0  0  0
 59 75  1  0  0  0  0
 62 70  1  0  0  0  0
 63 71  1  0  0  0  0
 64 72  1  0  0  0  0
 65 72  1  0  0  0  0
 66 72  1  0  0  0  0
 67 83  1  0  0  0  0
 68 90  1  0  0  0  0
 69 72  1  0  0  0  0
 69 82  1  0  0  0  0
 70 83  1  0  0  0  0
 71 91  1  0  0  0  0
 73 75  1  0  0  0  0
M  CHG  1  83   1
M  ISO  4  41 100  71 101  80 100  91 101
M  END
> <Batch ID>
0163

> <Smiles>
CNC(C)C(=O)NC(C(=O)N1Cc2cc([101O:1][101CH:1](C)C3CC3c3c(C)c(C4CC4)c(OC)c4c(C)nc([100NH:0][100C:0](=O)N5CCCC(n6nc(-c7ccc(Oc8ccc(F)cc8F)cc7)c(C(N)=O)c6N)C5)cc34)ccc2CC1C(=O)NC1CCCc2ccccc21)C(C)(C)C

> <Shape>
0.135

> <Color>
0.178

> <Negative vol penalty>
0.000

$$$$

  -OEChem-04052322173D

 85 94  0     1  0  0  0  0  0999 V2000
  -16.9342  -30.0348   23.3667 C   0  0  0  0  0  0  0  0  0  0  0  0
  -18.1954  -30.5168   23.0314 C   0  0  0  0  0  0  0  0  0  0  0  0
  -25.0120  -13.9749   22.1108 C   0  0  0  0  0  0  0  0  0  0  0  0
  -26.0451  -14.2579   19.9453 C   0  0  0  0  0  0  0  0  0  0  0  0
  -16.7548  -28.6771   23.6280 C   0  0  0  0  0  0  0  0  0  0  0  0
  -19.2784  -29.6414   22.9584 C   0  0  0  0  0  0  0  0  0  0  0  0
  -25.3914  -28.6104   19.3690 C   0  0  0  0  0  0  0  0  0  0  0  0
  -24.1692  -12.9979   21.5811 C   0  0  0  0  0  0  0  0  0  0  0  0
  -25.2023  -13.2809   19.4155 C   0  0  0  0  0  0  0  0  0  0  0  0
  -26.7500  -28.3941   19.5954 C   0  0  0  0  0  0  0  0  0  0  0  0
  -21.9907  -10.1728   20.8824 C   0  0  0  0  0  0  0  0  0  0  0  0
  -21.8113   -9.0021   21.6193 C   0  0  0  0  0  0  0  0  0  0  0  0
  -26.3058  -26.0561   19.9899 C   0  0  0  0  0  0  0  0  0  0  0  0
  -24.1818   -8.5548   21.4856 C   0  0  0  0  0  0  0  0  0  0  0  0
  -30.1660  -22.9502   18.1419 C   0  0  0  0  0  0  0  0  0  0  0  0
  -25.9500  -14.6049   21.2929 C   0  0  0  0  0  0  0  0  0  0  0  0
  -28.0888  -15.4207   22.4188 C   0  0  0  0  0  0  0  0  0  0  0  0
  -17.8342  -27.7830   23.5487 C   0  0  0  0  0  0  0  0  0  0  0  0
  -24.4769  -27.5515   19.4623 C   0  0  0  0  0  0  0  0  0  0  0  0
  -19.1136  -28.2706   23.2202 C   0  0  0  0  0  0  0  0  0  0  0  0
  -24.9365  -26.2611   19.7618 C   0  0  0  0  0  0  0  0  0  0  0  0
  -30.8326  -23.2000   19.3306 C   0  0  0  0  0  0  0  0  0  0  0  0
  -31.0370  -24.5258   19.6960 C   0  0  0  0  0  0  0  0  0  0  0  0
  -30.5750  -25.5471   18.8732 C   0  0  0  0  0  0  0  0  0  0  0  0
  -24.2643  -12.6508   20.2334 C   0  0  0  0  0  0  0  0  0  0  0  0
  -27.2070  -27.1174   19.9087 C   0  0  0  0  0  0  0  0  0  0  0  0
  -23.2656  -10.5344   20.4470 C   0  0  0  0  0  0  0  0  0  0  0  0
  -22.9069   -8.1931   21.9209 C   0  0  0  0  0  0  0  0  0  0  0  0
  -24.3611   -9.7254   20.7486 C   0  0  0  0  0  0  0  0  0  0  0  0
  -26.8205  -15.6147   21.8394 C   0  0  0  0  0  0  0  0  0  0  0  0
  -29.9201  -25.1923   17.7049 C   0  0  0  0  0  0  0  0  0  0  0  0
  -28.4986  -16.6814   22.7782 C   0  0  0  0  0  0  0  0  0  0  0  0
  -28.8302  -14.2092   22.6147 C   0  0  0  0  0  0  0  0  0  0  0  0
  -29.0811  -22.1010   21.5119 C   0  0  0  0  0  0  0  0  0  0  0  0
  -21.9649  -26.9126   21.3022 C   0  0  0  0  0  0  0  0  0  0  0  0
  -21.6401  -24.3756   19.3071 C   0  0  0  0  0  0  0  0  0  0  0  0
  -23.1060  -22.2005   17.1238 C   0  0  0  0  0  0  0  0  0  0  0  0
  -17.6009  -26.3317   23.8860 C   0  0  0  0  0  0  0  0  0  0  0  0
  -23.0182  -27.7961   19.1889 C   0  0  0  0  0  0  0  0  0  0  0  0
  -23.9982  -25.0865   19.8540 C   0  0  0  0  0  0  0  0  0  0  0  0
  -18.7253  -25.4099   23.4210 C   0  0  0  0  0  0  0  0  0  0  0  0
  -25.9697  -21.0498   22.9597 C   0  0  0  0  0  0  0  0  0  0  0  0
  -20.0839  -25.9955   23.7928 C   0  0  0  0  0  0  0  0  0  0  0  0
  -26.0037  -19.5287   22.8152 C   0  0  0  0  0  0  0  0  0  0  0  0
  -30.6445  -20.7231   20.0252 C   0  0  0  0  0  0  0  0  0  0  0  0
  -26.6472  -21.7380   21.7789 C   0  0  0  0  0  0  0  0  0  0  0  0
  -28.0886  -19.7622   21.3924 C   0  0  0  0  0  0  0  0  0  0  0  0
  -31.3062  -22.0669   20.1739 C   0  0  2  0  0  0  0  0  0  0  0  0
  -20.3080  -27.3484   23.1066 C   0  0  1  0  0  0  0  0  0  0  0  0
  -22.1082  -26.7444   19.8160 C   0  0  1  0  0  0  0  0  0  0  0  0
  -27.4398  -19.0281   22.5791 C   0  0  2  0  0  0  0  0  0  0  0  0
  -30.4378  -21.5113   21.2983 C   0  0  1  0  0  0  0  0  0  0  0  0
  -31.7509  -24.8515   20.9695 C   0  0  0  0  0  0  0  0  0  0  0  0
  -29.4018  -26.2452   16.7805 C   0  0  0  0  0  0  0  0  0  0  0  0
  -31.1526  -21.0215   22.5330 C   0  0  0  0  0  0  0  0  0  0  0  0
  -31.6535  -27.7207   18.2069 C   0  0  0  0  0  0  0  0  0  0  0  0
  -22.5934  -20.2118   15.6818 C   0  0  0  0  0  0  0  0  0  0  0  0
  -21.6045  -22.5926   21.7829 C   0  0  0  0  0  0  0  0  0  0  0  0
  -22.0487  -20.6314   20.2914 C   0  0  0  0  0  0  0  0  0  0  0  0
  -19.9534  -21.9566   20.0155 C   0  0  0  0  0  0  0  0  0  0  0  0
  -23.8633  -23.6486   14.6563 C   0  0  0  0  0  0  0  0  0  0  0  0
  -29.4515  -27.7461   19.4365 C   0  0  0  0  0  0  0  0  0  1  0  0
  -30.7828  -27.0069   19.2448 C   0  0  1  0  0  0  0  0  0  0  0  0
  -22.1579  -22.9577   19.2877 C   0  0  1  0  0  0  0  0  0  0  0  0
  -22.6919  -21.7282   15.7418 C   0  0  2  0  0  0  0  0  0  0  0  0
  -21.4588  -22.0568   20.3446 C   0  0  0  0  0  0  0  0  0  0  0  0
  -29.7028  -23.9157   17.3167 N   0  0  0  0  0  0  0  0  0  0  0  0
  -26.4490  -16.8976   21.8293 N   0  0  0  0  0  0  0  0  0  0  0  0
  -27.4900  -17.5212   22.4069 N   0  0  0  0  0  0  0  0  0  0  0  0
  -27.9986  -21.2174   21.5697 N   0  0  0  0  0  0  0  0  0  0  0  0
  -22.5805  -25.3778   19.5845 N   0  0  0  0  0  0  0  0  0  0  0  0
  -29.6196  -17.1425   23.3724 N   0  0  0  0  0  0  0  0  0  0  0  0
  -28.2620  -13.0016   22.1867 N   0  0  0  0  0  0  0  0  0  0  0  0
  -20.6701  -27.1572   21.7185 N   0  0  0  0  0  0  0  0  0  0  0  0
  -22.0133  -22.4891   17.9136 N   0  0  0  0  0  0  0  0  0  0  0  0
  -23.6831  -22.1755   14.7229 N   0  3  0  0  0  0  0  0  0  0  0  0
  -29.9558  -14.1960   23.1681 O   0  0  0  0  0  0  0  0  0  0  0  0
  -28.9964  -23.3211   21.6254 O   0  0  0  0  0  0  0  0  0  0  0  0
  -22.9554  -26.8254   22.0184 O   0  0  0  0  0  0  0  0  0  0  0  0
  -20.4466  -24.5867   19.0775 O   0  0  0  0  0  0  0  0  0  0  0  0
  -24.2813  -22.2997   17.4694 O   0  0  0  0  0  0  0  0  0  0  0  0
  -23.4422  -11.6973   19.7162 O   0  0  0  0  0  0  0  0  0  0  0  0
  -28.5325  -26.9036   20.1308 O   0  0  0  0  0  0  0  0  0  1  0  0
  -22.7347   -7.0698   22.6299 F   0  0  0  0  0  0  0  0  0  0  0  0
  -25.5885  -10.0682   20.3341 F   0  0  0  0  0  0  0  0  0  0  0  0
  1  2  1  0  0  0  0
  1  5  2  0  0  0  0
  2  6  2  0  0  0  0
  3  8  2  0  0  0  0
  3 16  1  0  0  0  0
  4  9  1  0  0  0  0
  4 16  2  0  0  0  0
  5 18  1  0  0  0  0
  6 20  1  0  0  0  0
  7 10  2  0  0  0  0
  7 19  1  0  0  0  0
  8 25  1  0  0  0  0
  9 25  2  0  0  0  0
 10 26  1  0  0  0  0
 11 12  2  0  0  0  0
 11 27  1  0  0  0  0
 12 28  1  0  0  0  0
 13 21  1  0  0  0  0
 13 26  2  0  0  0  0
 14 28  2  0  0  0  0
 14 29  1  0  0  0  0
 15 22  2  0  0  0  0
 15 67  1  0  0  0  0
 16 30  1  0  0  0  0
 17 30  1  0  0  0  0
 17 32  2  0  0  0  0
 17 33  1  0  0  0  0
 18 20  2  0  0  0  0
 18 38  1  0  0  0  0
 19 21  2  0  0  0  0
 19 39  1  0  0  0  0
 20 49  1  0  0  0  0
 21 40  1  0  0  0  0
 22 23  1  0  0  0  0
 22 48  1  0  0  0  0
 23 24  2  0  0  0  0
 23 53  1  0  0  0  0
 24 31  1  0  0  0  0
 24 63  1  0  0  0  0
 25 82  1  0  0  0  0
 26 83  1  0  0  0  0
 27 29  2  0  0  0  0
 27 82  1  0  0  0  0
 28 84  1  0  0  0  0
 29 85  1  0  0  0  0
 30 68  2  0  0  0  0
 31 54  1  0  0  0  0
 31 67  2  0  0  0  0
 32 69  1  0  0  0  0
 32 72  1  0  0  0  0
 33 73  1  0  0  0  0
 33 77  2  0  0  0  0
 34 52  1  0  0  0  0
 34 70  1  0  0  0  0
 34 78  2  0  0  0  0
 35 50  1  0  0  0  0
 35 74  1  0  0  0  0
 35 79  2  0  0  0  0
 36 64  1  0  0  0  0
 36 71  1  0  0  0  0
 36 80  2  0  0  0  0
 37 65  1  0  0  0  0
 37 75  1  0  0  0  0
 37 81  2  0  0  0  0
 38 41  1  0  0  0  0
 39 50  1  0  0  0  0
 40 71  1  0  0  0  0
 41 43  1  0  0  0  0
 42 44  1  0  0  0  0
 42 46  1  0  0  0  0
 43 49  1  0  0  0  0
 44 51  1  0  0  0  0
 45 48  1  0  0  0  0
 45 52  1  0  0  0  0
 46 70  1  0  0  0  0
 47 51  1  0  0  0  0
 47 70  1  0  0  0  0
 48 52  1  0  0  0  0
 49 74  1  0  0  0  0
 50 71  1  0  0  0  0
 51 69  1  0  0  0  0
 52 55  1  0  0  0  0
 56 63  1  0  0  0  0
 57 65  1  0  0  0  0
 58 66  1  0  0  0  0
 59 66  1  0  0  0  0
 60 66  1  0  0  0  0
 61 76  1  0  0  0  0
 62 63  1  0  0  0  0
 62 83  1  0  0  0  0
 64 66  1  0  0  0  0
 64 75  1  0  0  0  0
 65 76  1  0  0  0  0
 68 69  1  0  0  0  0
M  CHG  1  76   1
M  ISO  4  34 100  52 100  62 101  83 101
M  END
> <Batch ID>
0163

> <Smiles>
CNC(C)C(=O)NC(C(=O)N1Cc2cc([101O:1][101CH2:1]C(C)c3c(C)ncc(C4C[100C:0]4(C)[100C:0](=O)N4CCCC(n5nc(-c6ccc(Oc7ccc(F)cc7F)cc6)c(C(N)=O)c5N)C4)c3C)ccc2CC1C(=O)NC1CCCc2ccccc21)C(C)(C)C

> <Shape>
0.256

> <Color>
0.073

> <Negative vol penalty>
0.000

$$$$

  -OEChem-04052322173D

 89 98  0     1  0  0  0  0  0999 V2000
  -19.6820   -9.6740   21.5716 C   0  0  0  0  0  0  0  0  0  0  0  0
  -20.0185  -10.7583   22.3756 C   0  0  0  0  0  0  0  0  0  0  0  0
  -20.7163  -27.8181   23.1468 C   0  0  0  0  0  0  0  0  0  0  0  0
  -19.5971  -26.1617   21.7900 C   0  0  0  0  0  0  0  0  0  0  0  0
  -20.6801   -8.9697   20.8995 C   0  0  0  0  0  0  0  0  0  0  0  0
  -21.3535  -11.1383   22.5088 C   0  0  0  0  0  0  0  0  0  0  0  0
  -23.5139  -16.8326   23.1520 C   0  0  0  0  0  0  0  0  0  0  0  0
  -19.5211  -28.5269   23.2674 C   0  0  0  0  0  0  0  0  0  0  0  0
  -18.4018  -26.8706   21.9106 C   0  0  0  0  0  0  0  0  0  0  0  0
  -23.9116  -17.5642   24.2701 C   0  0  0  0  0  0  0  0  0  0  0  0
  -15.9684  -27.2724   24.2210 C   0  0  0  0  0  0  0  0  0  0  0  0
  -14.8121  -26.5463   24.5061 C   0  0  0  0  0  0  0  0  0  0  0  0
  -28.2505  -23.0656   22.5870 C   0  0  0  0  0  0  0  0  0  0  0  0
  -26.2039  -16.9358   23.8585 C   0  0  0  0  0  0  0  0  0  0  0  0
  -13.8155  -27.3250   22.4475 C   0  0  0  0  0  0  0  0  0  0  0  0
  -20.7544  -26.6355   22.4080 C   0  0  0  0  0  0  0  0  0  0  0  0
  -22.7580  -25.3489   23.3233 C   0  0  0  0  0  0  0  0  0  0  0  0
  -22.0270   -9.3471   21.0170 C   0  0  0  0  0  0  0  0  0  0  0  0
  -24.4585  -16.1370   22.3837 C   0  0  0  0  0  0  0  0  0  0  0  0
  -22.3707  -10.4375   21.8388 C   0  0  0  0  0  0  0  0  0  0  0  0
  -27.7404  -23.7844   23.6680 C   0  0  0  0  0  0  0  0  0  0  0  0
  -25.8160  -16.1982   22.7295 C   0  0  0  0  0  0  0  0  0  0  0  0
  -28.5047  -23.7119   21.3773 C   0  0  0  0  0  0  0  0  0  0  0  0
  -27.4845  -25.1496   23.5394 C   0  0  0  0  0  0  0  0  0  0  0  0
  -27.7386  -25.7959   22.3297 C   0  0  0  0  0  0  0  0  0  0  0  0
  -28.2487  -25.0770   21.2486 C   0  0  0  0  0  0  0  0  0  0  0  0
  -18.3639  -28.0532   22.6494 C   0  0  0  0  0  0  0  0  0  0  0  0
  -25.2564  -17.6135   24.6252 C   0  0  0  0  0  0  0  0  0  0  0  0
  -16.0483  -28.0248   23.0491 C   0  0  0  0  0  0  0  0  0  0  0  0
  -13.7357  -26.5726   23.6194 C   0  0  0  0  0  0  0  0  0  0  0  0
  -14.9719  -28.0511   22.1624 C   0  0  0  0  0  0  0  0  0  0  0  0
  -21.9888  -25.9031   22.2826 C   0  0  0  0  0  0  0  0  0  0  0  0
  -23.8245  -24.7622   22.6871 C   0  0  0  0  0  0  0  0  0  0  0  0
  -22.5289  -25.3631   24.7386 C   0  0  0  0  0  0  0  0  0  0  0  0
  -24.9449  -13.0818   21.6537 C   0  0  0  0  0  0  0  0  0  0  0  0
  -27.2428  -14.3128   19.7232 C   0  0  0  0  0  0  0  0  0  0  0  0
  -29.3831  -16.8819   19.0409 C   0  0  0  0  0  0  0  0  0  0  0  0
  -27.8979  -25.3856   18.7843 C   0  0  0  0  0  0  0  0  0  0  0  0
  -23.0754   -8.5261   20.3088 C   0  0  0  0  0  0  0  0  0  0  0  0
  -24.0166  -15.3742   21.1649 C   0  0  0  0  0  0  0  0  0  0  0  0
  -26.8720  -15.4856   21.9260 C   0  0  0  0  0  0  0  0  0  0  0  0
  -24.4289   -9.2244   20.2058 C   0  0  0  0  0  0  0  0  0  0  0  0
  -24.6861  -23.8321   17.8025 C   0  0  0  0  0  0  0  0  0  0  0  0
  -24.8194   -9.8329   21.5490 C   0  0  0  0  0  0  0  0  0  0  0  0
  -23.7442  -24.2613   18.9259 C   0  0  0  0  0  0  0  0  0  0  0  0
  -25.8040  -24.8466   17.5821 C   0  0  0  0  0  0  0  0  0  0  0  0
  -25.6445  -25.5776   19.9446 C   0  0  0  0  0  0  0  0  0  0  0  0
  -26.4466  -21.9325   24.8342 C   0  0  0  0  0  0  0  0  0  0  0  0
  -28.0525  -21.4508   26.6158 C   0  0  0  0  0  0  0  0  0  0  0  0
  -27.4755  -23.0603   24.9677 C   0  0  1  0  0  0  0  0  0  0  0  0
  -23.8052  -10.8956   21.9889 C   0  0  1  0  0  0  0  0  0  0  0  0
  -25.0006  -14.2834   20.7534 C   0  0  1  0  0  0  0  0  0  0  0  0
  -28.6980  -22.3688   25.5887 C   0  0  1  0  0  0  0  0  0  0  0  0
  -24.5328  -24.5523   20.2134 C   0  0  1  0  0  0  0  0  0  0  0  0
  -29.0523  -22.9149   20.2377 C   0  0  0  0  0  0  0  0  0  0  0  0
  -26.9373  -25.9175   24.7008 C   0  0  0  0  0  0  0  0  0  0  0  0
  -27.4619  -27.2611   22.1969 C   0  0  0  0  0  0  0  0  0  0  0  0
  -29.6909  -23.3331   26.2218 C   0  0  0  0  0  0  0  0  0  0  0  0
  -31.1636  -17.5843   17.4180 C   0  0  0  0  0  0  0  0  0  0  0  0
  -29.2149  -12.4123   21.0682 C   0  0  0  0  0  0  0  0  0  0  0  0
  -31.0796  -13.7888   20.1215 C   0  0  0  0  0  0  0  0  0  0  0  0
  -29.4920  -12.6220   18.5916 C   0  0  0  0  0  0  0  0  0  0  0  0
  -29.6591  -26.6516   19.9363 C   0  0  0  0  0  0  0  0  0  0  0  0
  -27.8301  -19.2509   18.1836 C   0  0  0  0  0  0  0  0  0  0  0  0
  -25.7340  -20.4798   26.7832 C   0  0  0  0  0  0  0  0  0  0  0  0
  -24.8655  -19.4699   26.0595 C   0  0  0  0  0  0  0  0  0  1  0  0
  -28.7059  -14.6487   19.8826 C   0  0  1  0  0  0  0  0  0  0  0  0
  -29.6811  -17.6298   17.7539 C   0  0  2  0  0  0  0  0  0  0  0  0
  -29.6032  -13.3799   19.9325 C   0  0  0  0  0  0  0  0  0  0  0  0
  -22.5215  -25.6879   21.0768 N   0  0  0  0  0  0  0  0  0  0  0  0
  -23.6368  -24.9920   21.3559 N   0  0  0  0  0  0  0  0  0  0  0  0
  -26.3892  -14.7481   20.7468 N   0  0  0  0  0  0  0  0  0  0  0  0
  -26.5069  -25.1591   18.8274 N   0  0  0  0  0  0  0  0  0  0  0  0
  -24.8952  -24.0774   23.1421 N   0  0  0  0  0  0  0  0  0  0  0  0
  -21.7883  -24.3172   25.3060 N   0  0  0  0  0  0  0  0  0  0  0  0
  -24.0210  -12.1303   21.2656 N   0  0  0  0  0  0  0  0  0  0  0  0
  -29.0335  -15.5700   18.7999 N   0  0  0  0  0  0  0  0  0  0  0  0
  -28.5157  -25.7438   19.9977 N   0  0  0  0  0  0  0  0  0  0  0  0
  -26.8472  -20.9085   25.8825 N   0  3  1  0  0  0  0  0  0  0  0  0
  -29.2709  -19.0572   17.8775 N   0  3  0  0  0  0  0  0  0  0  0  0
  -22.9539  -26.2848   25.4757 O   0  0  0  0  0  0  0  0  0  0  0  0
  -25.6863  -13.0215   22.6275 O   0  0  0  0  0  0  0  0  0  0  0  0
  -26.8699  -13.6934   18.7237 O   0  0  0  0  0  0  0  0  0  0  0  0
  -29.4568  -17.4077   20.1493 O   0  0  0  0  0  0  0  0  0  0  0  0
  -28.5378  -25.3276   17.7270 O   0  0  0  0  0  0  0  0  0  0  0  0
  -17.1973  -28.7445   22.7671 O   0  0  0  0  0  0  0  0  0  0  0  0
  -25.6472  -18.3264   25.7166 O   0  0  0  0  0  0  0  0  0  1  0  0
  -12.6259  -25.8741   23.8926 F   0  0  0  0  0  0  0  0  0  0  0  0
  -15.0432  -28.7712   21.0345 F   0  0  0  0  0  0  0  0  0  0  0  0
  1  2  1  0  0  0  0
  1  5  2  0  0  0  0
  2  6  2  0  0  0  0
  3  8  2  0  0  0  0
  3 16  1  0  0  0  0
  4  9  1  0  0  0  0
  4 16  2  0  0  0  0
  5 18  1  0  0  0  0
  6 20  1  0  0  0  0
  7 10  2  0  0  0  0
  7 19  1  0  0  0  0
  8 27  1  0  0  0  0
  9 27  2  0  0  0  0
 10 28  1  0  0  0  0
 11 12  2  0  0  0  0
 11 29  1  0  0  0  0
 12 30  1  0  0  0  0
 13 21  1  0  0  0  0
 13 23  2  0  0  0  0
 14 22  1  0  0  0  0
 14 28  2  0  0  0  0
 15 30  2  0  0  0  0
 15 31  1  0  0  0  0
 16 32  1  0  0  0  0
 17 32  1  0  0  0  0
 17 33  2  0  0  0  0
 17 34  1  0  0  0  0
 18 20  2  0  0  0  0
 18 39  1  0  0  0  0
 19 22  2  0  0  0  0
 19 40  1  0  0  0  0
 20 51  1  0  0  0  0
 21 24  2  0  0  0  0
 21 50  1  0  0  0  0
 22 41  1  0  0  0  0
 23 26  1  0  0  0  0
 23 55  1  0  0  0  0
 24 25  1  0  0  0  0
 24 56  1  0  0  0  0
 25 26  2  0  0  0  0
 25 57  1  0  0  0  0
 26 78  1  0  0  0  0
 27 86  1  0  0  0  0
 28 87  1  0  0  0  0
 29 31  2  0  0  0  0
 29 86  1  0  0  0  0
 30 88  1  0  0  0  0
 31 89  1  0  0  0  0
 32 70  2  0  0  0  0
 33 71  1  0  0  0  0
 33 74  1  0  0  0  0
 34 75  1  0  0  0  0
 34 81  2  0  0  0  0
 35 52  1  0  0  0  0
 35 76  1  0  0  0  0
 35 82  2  0  0  0  0
 36 67  1  0  0  0  0
 36 72  1  0  0  0  0
 36 83  2  0  0  0  0
 37 68  1  0  0  0  0
 37 77  1  0  0  0  0
 37 84  2  0  0  0  0
 38 73  1  0  0  0  0
 38 78  1  0  0  0  0
 38 85  2  0  0  0  0
 39 42  1  0  0  0  0
 40 52  1  0  0  0  0
 41 72  1  0  0  0  0
 42 44  1  0  0  0  0
 43 45  1  0  0  0  0
 43 46  1  0  0  0  0
 44 51  1  0  0  0  0
 45 54  1  0  0  0  0
 46 73  1  0  0  0  0
 47 54  1  0  0  0  0
 47 73  1  0  0  0  0
 48 50  1  0  0  0  0
 48 79  1  0  0  0  0
 49 53  1  0  0  0  0
 49 79  1  0  0  0  0
 50 53  1  0  0  0  0
 51 76  1  0  0  0  0
 52 72  1  0  0  0  0
 53 58  1  0  0  0  0
 54 71  1  0  0  0  0
 59 68  1  0  0  0  0
 60 69  1  0  0  0  0
 61 69  1  0  0  0  0
 62 69  1  0  0  0  0
 63 78  1  0  0  0  0
 64 80  1  0  0  0  0
 65 66  1  0  0  0  0
 65 79  1  0  0  0  0
 66 87  1  0  0  0  0
 67 69  1  0  0  0  0
 67 77  1  0  0  0  0
 68 80  1  0  0  0  0
 70 71  1  0  0  0  0
M  CHG  2  79   1  80   1
M  ISO  4  38 100  66 101  78 100  87 101
M  END
> <Batch ID>
0163

> <Smiles>
CNC(C)C(=O)NC(C(=O)N1Cc2cc([101O:1][101CH2:1]CN3CC(C)C(c4cc(C)c([100N:0](C)[100C:0](=O)N5CCCC(n6nc(-c7ccc(Oc8ccc(F)cc8F)cc7)c(C(N)=O)c6N)C5)c(C)c4C)C3)ccc2CC1C(=O)NC1CCCc2ccccc21)C(C)(C)C

> <Shape>
0.206

> <Color>
0.038

> <Negative vol penalty>
0.000

$$$$

  -OEChem-04052322173D

 86 95  0     1  0  0  0  0  0999 V2000
  -28.2108  -37.4860   21.6861 C   0  0  0  0  0  0  0  0  0  0  0  0
  -28.6428  -36.2256   21.2860 C   0  0  0  0  0  0  0  0  0  0  0  0
  -21.9771  -10.2643   20.2856 C   0  0  0  0  0  0  0  0  0  0  0  0
  -23.5803   -9.9748   22.0697 C   0  0  0  0  0  0  0  0  0  0  0  0
  -27.2317  -37.6058   22.6716 C   0  0  0  0  0  0  0  0  0  0  0  0
  -28.0967  -35.0841   21.8720 C   0  0  0  0  0  0  0  0  0  0  0  0
  -27.0390  -29.6983   19.1554 C   0  0  0  0  0  0  0  0  0  0  0  0
  -21.7086   -8.8957   20.3047 C   0  0  0  0  0  0  0  0  0  0  0  0
  -23.3118   -8.6061   22.0888 C   0  0  0  0  0  0  0  0  0  0  0  0
  -27.7566  -28.5032   19.1308 C   0  0  0  0  0  0  0  0  0  0  0  0
  -20.9163   -6.5563   23.3054 C   0  0  0  0  0  0  0  0  0  0  0  0
  -20.7391   -5.9495   24.5488 C   0  0  0  0  0  0  0  0  0  0  0  0
  -30.8440  -23.1149   20.8034 C   0  0  0  0  0  0  0  0  0  0  0  0
  -28.0946  -22.8894   20.4503 C   0  0  0  0  0  0  0  0  0  0  0  0
  -26.3950  -27.6557   20.9328 C   0  0  0  0  0  0  0  0  0  0  0  0
  -22.6072   -4.4846   24.1001 C   0  0  0  0  0  0  0  0  0  0  0  0
  -22.9130  -10.8038   21.1680 C   0  0  0  0  0  0  0  0  0  0  0  0
  -22.5441  -13.2217   21.8931 C   0  0  0  0  0  0  0  0  0  0  0  0
  -26.6664  -36.4651   23.2630 C   0  0  0  0  0  0  0  0  0  0  0  0
  -25.9995  -29.8855   20.0777 C   0  0  0  0  0  0  0  0  0  0  0  0
  -27.1101  -35.1888   22.8672 C   0  0  0  0  0  0  0  0  0  0  0  0
  -30.2947  -21.8677   20.4641 C   0  0  0  0  0  0  0  0  0  0  0  0
  -28.9027  -21.7503   20.2884 C   0  0  0  0  0  0  0  0  0  0  0  0
  -25.6641  -28.8531   20.9653 C   0  0  0  0  0  0  0  0  0  0  0  0
  -30.0294  -24.2361   20.9555 C   0  0  0  0  0  0  0  0  0  0  0  0
  -28.6545  -24.1230   20.7802 C   0  0  0  0  0  0  0  0  0  0  0  0
  -22.3759   -8.0666   21.2064 C   0  0  0  0  0  0  0  0  0  0  0  0
  -27.4365  -27.4828   20.0216 C   0  0  0  0  0  0  0  0  0  0  0  0
  -21.9389   -6.1271   22.4593 C   0  0  0  0  0  0  0  0  0  0  0  0
  -21.5846   -4.9137   24.9462 C   0  0  0  0  0  0  0  0  0  0  0  0
  -22.7844   -5.0913   22.8567 C   0  0  0  0  0  0  0  0  0  0  0  0
  -23.1912  -12.2175   21.1484 C   0  0  0  0  0  0  0  0  0  0  0  0
  -23.1716  -14.3848   21.5191 C   0  0  0  0  0  0  0  0  0  0  0  0
  -21.4717  -13.1128   22.8385 C   0  0  0  0  0  0  0  0  0  0  0  0
  -25.4622  -31.9053   22.4726 C   0  0  0  0  0  0  0  0  0  0  0  0
  -22.5631  -30.4513   22.5331 C   0  0  0  0  0  0  0  0  0  0  0  0
  -20.6888  -27.6944   21.8029 C   0  0  0  0  0  0  0  0  0  0  0  0
  -27.7510  -17.2172   20.5425 C   0  0  0  0  0  0  0  0  0  0  0  0
  -25.6449  -36.6455   24.3578 C   0  0  0  0  0  0  0  0  0  0  0  0
  -25.2175  -31.1704   20.0734 C   0  0  0  0  0  0  0  0  0  0  0  0
  -31.2162  -20.6777   20.3726 C   0  0  0  0  0  0  0  0  0  0  0  0
  -24.5435  -28.9965   21.9614 C   0  0  0  0  0  0  0  0  0  0  0  0
  -24.8482  -35.3795   24.6622 C   0  0  0  0  0  0  0  0  0  0  0  0
  -30.5857  -19.4489   19.7205 C   0  0  0  0  0  0  0  0  0  0  0  0
  -26.4339  -15.3079   17.7645 C   0  0  0  0  0  0  0  0  0  0  0  0
  -25.7801  -34.1775   24.7787 C   0  0  0  0  0  0  0  0  0  0  0  0
  -25.4129  -14.4120   18.4681 C   0  0  0  0  0  0  0  0  0  0  0  0
  -27.6773  -15.5108   18.6254 C   0  0  0  0  0  0  0  0  0  0  0  0
  -26.3823  -15.1564   20.6921 C   0  0  0  0  0  0  0  0  0  0  0  0
  -28.2542  -20.4302   19.9004 C   0  0  2  0  0  0  0  0  0  0  0  0
  -26.5241  -33.9265   23.4615 C   0  0  1  0  0  0  0  0  0  0  0  0
  -24.5157  -31.4472   21.3994 C   0  0  1  0  0  0  0  0  0  0  0  0
  -25.0925  -14.9311   19.8824 C   0  0  2  0  0  0  0  0  0  0  0  0
  -29.1677  -19.2331   20.2495 C   0  0  1  0  0  0  0  0  0  0  0  0
  -30.6550  -25.5441   21.3130 C   0  0  0  0  0  0  0  0  0  0  0  0
  -18.3581  -26.7867   22.0058 C   0  0  0  0  0  0  0  0  0  0  0  0
  -26.5191  -21.2044   18.2594 C   0  0  0  0  0  0  0  0  0  0  0  0
  -28.9391  -21.1444   17.5933 C   0  0  0  0  0  0  0  0  0  0  0  0
  -23.0310  -29.9201   25.5011 C   0  0  0  0  0  0  0  0  0  0  0  0
  -21.1819  -28.2341   25.4195 C   0  0  0  0  0  0  0  0  0  0  0  0
  -20.7043  -30.6316   24.9228 C   0  0  0  0  0  0  0  0  0  0  0  0
  -20.4033  -27.4518   18.8672 C   0  0  0  0  0  0  0  0  0  0  0  0
  -27.7543  -25.3126   20.9409 C   0  0  0  0  0  0  0  0  0  1  0  0
  -21.9851  -29.2481   23.2382 C   0  0  1  0  0  0  0  0  0  0  0  0
  -19.3389  -27.5448   21.1249 C   0  0  2  0  0  0  0  0  0  0  0  0
  -27.8474  -20.4755   18.4186 C   0  0  0  0  0  0  0  0  0  0  0  0
  -21.7480  -29.5062   24.7530 C   0  0  0  0  0  0  0  0  0  0  0  0
  -24.1557  -12.7004   20.3606 N   0  0  0  0  0  0  0  0  0  0  0  0
  -24.1193  -14.0208   20.6082 N   0  0  0  0  0  0  0  0  0  0  0  0
  -23.8127  -30.2739   21.9224 N   0  0  0  0  0  0  0  0  0  0  0  0
  -27.3047  -16.0235   19.9514 N   0  0  0  0  0  0  0  0  0  0  0  0
  -22.9996  -15.6731   21.8837 N   0  0  0  0  0  0  0  0  0  0  0  0
  -20.9434  -11.8426   23.1062 N   0  0  0  0  0  0  0  0  0  0  0  0
  -25.6547  -33.2732   22.5066 N   0  0  0  0  0  0  0  0  0  0  0  0
  -20.7820  -28.8809   22.4992 N   0  0  0  0  0  0  0  0  0  0  0  0
  -28.6277  -17.9773   19.7781 N   0  0  0  0  0  0  0  0  0  0  0  0
  -19.4841  -26.8055   19.8391 N   0  3  0  0  0  0  0  0  0  0  0  0
  -20.9851  -14.1143   23.4162 O   0  0  0  0  0  0  0  0  0  0  0  0
  -25.9785  -31.0790   23.2158 O   0  0  0  0  0  0  0  0  0  0  0  0
  -21.9261  -31.5075   22.5185 O   0  0  0  0  0  0  0  0  0  0  0  0
  -21.5710  -26.8421   21.7259 O   0  0  0  0  0  0  0  0  0  0  0  0
  -27.3905  -17.5817   21.6669 O   0  0  0  0  0  0  0  0  0  0  0  0
  -22.1140   -6.7311   21.2255 O   0  0  0  0  0  0  0  0  0  0  0  0
  -28.1357  -26.3155   20.0002 O   0  0  0  0  0  0  0  0  0  1  0  0
  -21.4152   -4.3321   26.1409 F   0  0  0  0  0  0  0  0  0  0  0  0
  -23.7693   -4.6756   22.0487 F   0  0  0  0  0  0  0  0  0  0  0  0
  1  2  1  0  0  0  0
  1  5  2  0  0  0  0
  2  6  2  0  0  0  0
  3  8  2  0  0  0  0
  3 17  1  0  0  0  0
  4  9  1  0  0  0  0
  4 17  2  0  0  0  0
  5 19  1  0  0  0  0
  6 21  1  0  0  0  0
  7 10  2  0  0  0  0
  7 20  1  0  0  0  0
  8 27  1  0  0  0  0
  9 27  2  0  0  0  0
 10 28  1  0  0  0  0
 11 12  2  0  0  0  0
 11 29  1  0  0  0  0
 12 30  1  0  0  0  0
 13 22  2  0  0  0  0
 13 25  1  0  0  0  0
 14 23  2  0  0  0  0
 14 26  1  0  0  0  0
 15 24  1  0  0  0  0
 15 28  2  0  0  0  0
 16 30  2  0  0  0  0
 16 31  1  0  0  0  0
 17 32  1  0  0  0  0
 18 32  1  0  0  0  0
 18 33  2  0  0  0  0
 18 34  1  0  0  0  0
 19 21  2  0  0  0  0
 19 39  1  0  0  0  0
 20 24  2  0  0  0  0
 20 40  1  0  0  0  0
 21 51  1  0  0  0  0
 22 23  1  0  0  0  0
 22 41  1  0  0  0  0
 23 50  1  0  0  0  0
 24 42  1  0  0  0  0
 25 26  2  0  0  0  0
 25 55  1  0  0  0  0
 26 63  1  0  0  0  0
 27 83  1  0  0  0  0
 28 84  1  0  0  0  0
 29 31  2  0  0  0  0
 29 83  1  0  0  0  0
 30 85  1  0  0  0  0
 31 86  1  0  0  0  0
 32 68  2  0  0  0  0
 33 69  1  0  0  0  0
 33 72  1  0  0  0  0
 34 73  1  0  0  0  0
 34 78  2  0  0  0  0
 35 52  1  0  0  0  0
 35 74  1  0  0  0  0
 35 79  2  0  0  0  0
 36 64  1  0  0  0  0
 36 70  1  0  0  0  0
 36 80  2  0  0  0  0
 37 65  1  0  0  0  0
 37 75  1  0  0  0  0
 37 81  2  0  0  0  0
 38 71  1  0  0  0  0
 38 76  1  0  0  0  0
 38 82  2  0  0  0  0
 39 43  1  0  0  0  0
 40 52  1  0  0  0  0
 41 44  1  0  0  0  0
 42 70  1  0  0  0  0
 43 46  1  0  0  0  0
 44 54  1  0  0  0  0
 45 47  1  0  0  0  0
 45 48  1  0  0  0  0
 46 51  1  0  0  0  0
 47 53  1  0  0  0  0
 48 71  1  0  0  0  0
 49 53  1  0  0  0  0
 49 71  1  0  0  0  0
 50 54  1  0  0  0  0
 50 66  1  0  0  0  0
 51 74  1  0  0  0  0
 52 70  1  0  0  0  0
 53 69  1  0  0  0  0
 54 76  1  0  0  0  0
 56 65  1  0  0  0  0
 57 66  1  0  0  0  0
 58 66  1  0  0  0  0
 59 67  1  0  0  0  0
 60 67  1  0  0  0  0
 61 67  1  0  0  0  0
 62 77  1  0  0  0  0
 63 84  1  0  0  0  0
 64 67  1  0  0  0  0
 64 75  1  0  0  0  0
 65 77  1  0  0  0  0
 68 69  1  0  0  0  0
M  CHG  1  77   1
M  ISO  4  38 100  63 101  76 100  84 101
M  END
> <Batch ID>
0163

> <Smiles>
CNC(C)C(=O)NC(C(=O)N1Cc2cc([101O:1][101CH2:1]c3cc4c(cc3C)CCC([100NH:0][100C:0](=O)N3CCCC(n5nc(-c6ccc(Oc7ccc(F)cc7F)cc6)c(C(N)=O)c5N)C3)C4C(C)C)ccc2CC1C(=O)NC1CCCc2ccccc21)C(C)(C)C

> <Shape>
0.366

> <Color>
0.105

> <Negative vol penalty>
0.000

$$$$

  -OEChem-04052322173D

 87 96  0     1  0  0  0  0  0999 V2000
  -16.2752  -24.3420   24.8328 C   0  0  0  0  0  0  0  0  0  0  0  0
  -17.3364  -23.8775   24.0625 C   0  0  0  0  0  0  0  0  0  0  0  0
  -23.0724   -9.8700   19.9438 C   0  0  0  0  0  0  0  0  0  0  0  0
  -23.8351   -9.8791   22.2363 C   0  0  0  0  0  0  0  0  0  0  0  0
  -16.2973  -24.1805   26.2175 C   0  0  0  0  0  0  0  0  0  0  0  0
  -18.4210  -23.2522   24.6766 C   0  0  0  0  0  0  0  0  0  0  0  0
  -21.7631  -18.6364   22.4337 C   0  0  0  0  0  0  0  0  0  0  0  0
  -22.3289   -8.7171   20.1957 C   0  0  0  0  0  0  0  0  0  0  0  0
  -23.0915   -8.7262   22.4882 C   0  0  0  0  0  0  0  0  0  0  0  0
  -22.9949  -18.6007   21.7816 C   0  0  0  0  0  0  0  0  0  0  0  0
  -19.3824   -7.9218   21.6512 C   0  0  0  0  0  0  0  0  0  0  0  0
  -18.0749   -7.8751   21.1676 C   0  0  0  0  0  0  0  0  0  0  0  0
  -24.0858  -18.1300   23.8810 C   0  0  0  0  0  0  0  0  0  0  0  0
  -29.4537  -18.3227   25.6993 C   0  0  0  0  0  0  0  0  0  0  0  0
  -18.6331   -5.9308   19.8465 C   0  0  0  0  0  0  0  0  0  0  0  0
  -23.8256  -10.4510   20.9641 C   0  0  0  0  0  0  0  0  0  0  0  0
  -24.1672  -12.9761   20.8413 C   0  0  0  0  0  0  0  0  0  0  0  0
  -17.3783  -23.5444   26.8480 C   0  0  0  0  0  0  0  0  0  0  0  0
  -21.6845  -18.4297   23.8184 C   0  0  0  0  0  0  0  0  0  0  0  0
  -18.4583  -23.0833   26.0711 C   0  0  0  0  0  0  0  0  0  0  0  0
  -22.8515  -18.1611   24.5479 C   0  0  0  0  0  0  0  0  0  0  0  0
  -29.4705  -18.4866   23.2889 C   0  0  0  0  0  0  0  0  0  0  0  0
  -30.3193  -17.2311   25.6311 C   0  0  0  0  0  0  0  0  0  0  0  0
  -30.3362  -17.3949   23.2207 C   0  0  0  0  0  0  0  0  0  0  0  0
  -30.7606  -16.7672   24.3919 C   0  0  0  0  0  0  0  0  0  0  0  0
  -22.3384   -8.1452   21.4679 C   0  0  0  0  0  0  0  0  0  0  0  0
  -24.1568  -18.3503   22.5057 C   0  0  0  0  0  0  0  0  0  0  0  0
  -20.3153   -6.9730   21.2325 C   0  0  0  0  0  0  0  0  0  0  0  0
  -29.0292  -18.9504   24.5281 C   0  0  0  0  0  0  0  0  0  0  0  0
  -17.7003   -6.8796   20.2652 C   0  0  0  0  0  0  0  0  0  0  0  0
  -19.9406   -5.9775   20.3301 C   0  0  0  0  0  0  0  0  0  0  0  0
  -24.5943  -11.6417   20.7044 C   0  0  0  0  0  0  0  0  0  0  0  0
  -25.2589  -13.7252   20.4761 C   0  0  0  0  0  0  0  0  0  0  0  0
  -22.8972  -13.4922   21.2613 C   0  0  0  0  0  0  0  0  0  0  0  0
  -20.7266  -20.1752   26.2962 C   0  0  0  0  0  0  0  0  0  0  0  0
  -21.2344  -17.4218   27.9341 C   0  0  0  0  0  0  0  0  0  0  0  0
  -22.8460  -14.4197   28.1255 C   0  0  0  0  0  0  0  0  0  0  0  0
  -30.7429  -14.7446   20.6570 C   0  0  0  0  0  0  0  0  0  0  0  0
  -17.3794  -23.4351   28.3522 C   0  0  0  0  0  0  0  0  0  0  0  0
  -20.3451  -18.4450   24.5026 C   0  0  0  0  0  0  0  0  0  0  0  0
  -22.8188  -17.9125   26.0330 C   0  0  0  0  0  0  0  0  0  0  0  0
  -18.3925  -22.4272   28.8889 C   0  0  0  0  0  0  0  0  0  0  0  0
  -29.6025  -12.3578   18.2738 C   0  0  0  0  0  0  0  0  0  0  0  0
  -19.7450  -22.6162   28.2093 C   0  0  0  0  0  0  0  0  0  0  0  0
  -28.1656  -12.0645   18.7087 C   0  0  0  0  0  0  0  0  0  0  0  0
  -28.3992  -18.3331   20.9416 C   0  0  0  0  0  0  0  0  0  0  0  0
  -30.5210  -12.5798   19.4734 C   0  0  0  0  0  0  0  0  0  0  0  0
  -28.6209  -13.3121   20.8615 C   0  0  0  0  0  0  0  0  0  0  0  0
  -29.0138  -19.1592   22.0478 C   0  0  1  0  0  0  0  0  0  0  0  0
  -19.6412  -22.3778   26.6981 C   0  0  1  0  0  0  0  0  0  0  0  0
  -20.4413  -18.7304   25.9982 C   0  0  1  0  0  0  0  0  0  0  0  0
  -27.6454  -13.1364   19.6852 C   0  0  2  0  0  0  0  0  0  0  0  0
  -27.5295  -19.2898   21.7156 C   0  0  1  0  0  0  0  0  0  0  0  0
  -30.7582  -16.5765   26.9000 C   0  0  0  0  0  0  0  0  0  0  0  0
  -31.6882  -15.5956   24.3213 C   0  0  0  0  0  0  0  0  0  0  0  0
  -27.0847  -20.5532   21.0252 C   0  0  0  0  0  0  0  0  0  0  0  0
  -23.0871  -12.4038   29.6004 C   0  0  0  0  0  0  0  0  0  0  0  0
  -23.0122  -19.0230   29.8277 C   0  0  0  0  0  0  0  0  0  0  0  0
  -23.9521  -16.8583   30.6638 C   0  0  0  0  0  0  0  0  0  0  0  0
  -21.5249  -17.3563   30.9523 C   0  0  0  0  0  0  0  0  0  0  0  0
  -21.8082  -12.6135   26.0232 C   0  0  0  0  0  0  0  0  0  0  0  0
  -28.7783  -21.3076   24.7189 C   0  0  0  0  0  0  0  0  0  0  0  0
  -30.8101  -16.8963   21.8918 C   0  0  0  0  0  0  0  0  0  0  0  0
  -26.5045  -18.7096   22.6283 C   0  0  0  0  0  0  0  0  0  1  0  0
  -22.4119  -16.8052   28.6498 C   0  0  1  0  0  0  0  0  0  0  0  0
  -22.3386  -13.0216   28.4296 C   0  0  2  0  0  0  0  0  0  0  0  0
  -22.7264  -17.5173   29.9958 C   0  0  0  0  0  0  0  0  0  0  0  0
  -25.8587  -11.5455   20.2847 N   0  0  0  0  0  0  0  0  0  0  0  0
  -26.2354  -12.8289   20.1547 N   0  0  0  0  0  0  0  0  0  0  0  0
  -21.4859  -17.9441   26.6575 N   0  0  0  0  0  0  0  0  0  0  0  0
  -29.9715  -13.6091   20.3591 N   0  0  0  0  0  0  0  0  0  0  0  0
  -25.4692  -15.0566   20.4016 N   0  0  0  0  0  0  0  0  0  0  0  0
  -21.8857  -12.5834   21.6006 N   0  0  0  0  0  0  0  0  0  0  0  0
  -19.5950  -20.9598   26.4121 N   0  0  0  0  0  0  0  0  0  0  0  0
  -22.1107  -15.3839   28.7819 N   0  0  0  0  0  0  0  0  0  0  0  0
  -30.1447  -15.6742   21.4989 N   0  0  0  0  0  0  0  0  0  0  0  0
  -22.5118  -12.1380   27.2421 N   0  3  0  0  0  0  0  0  0  0  0  0
  -22.6610  -14.7229   21.3178 O   0  0  0  0  0  0  0  0  0  0  0  0
  -21.8873  -20.5502   26.4137 O   0  0  0  0  0  0  0  0  0  0  0  0
  -20.1304  -17.4329   28.4844 O   0  0  0  0  0  0  0  0  0  0  0  0
  -23.8015  -14.6346   27.3830 O   0  0  0  0  0  0  0  0  0  0  0  0
  -31.8783  -14.9196   20.2019 O   0  0  0  0  0  0  0  0  0  0  0  0
  -21.6127   -7.0203   21.7142 O   0  0  0  0  0  0  0  0  0  0  0  0
  -28.1836  -20.0156   24.6163 O   0  0  0  0  0  0  0  0  0  0  0  0
  -25.3605  -18.3155   21.8718 O   0  0  0  0  0  0  0  0  0  1  0  0
  -16.4443   -6.8339   19.8021 F   0  0  0  0  0  0  0  0  0  0  0  0
  -20.8321   -5.0626   19.9251 F   0  0  0  0  0  0  0  0  0  0  0  0
  1  2  1  0  0  0  0
  1  5  2  0  0  0  0
  2  6  2  0  0  0  0
  3  8  2  0  0  0  0
  3 16  1  0  0  0  0
  4  9  1  0  0  0  0
  4 16  2  0  0  0  0
  5 18  1  0  0  0  0
  6 20  1  0  0  0  0
  7 10  2  0  0  0  0
  7 19  1  0  0  0  0
  8 26  1  0  0  0  0
  9 26  2  0  0  0  0
 10 27  1  0  0  0  0
 11 12  2  0  0  0  0
 11 28  1  0  0  0  0
 12 30  1  0  0  0  0
 13 21  1  0  0  0  0
 13 27  2  0  0  0  0
 14 23  1  0  0  0  0
 14 29  2  0  0  0  0
 15 30  2  0  0  0  0
 15 31  1  0  0  0  0
 16 32  1  0  0  0  0
 17 32  1  0  0  0  0
 17 33  2  0  0  0  0
 17 34  1  0  0  0  0
 18 20  2  0  0  0  0
 18 39  1  0  0  0  0
 19 21  2  0  0  0  0
 19 40  1  0  0  0  0
 20 50  1  0  0  0  0
 21 41  1  0  0  0  0
 22 24  2  0  0  0  0
 22 29  1  0  0  0  0
 22 49  1  0  0  0  0
 23 25  2  0  0  0  0
 23 54  1  0  0  0  0
 24 25  1  0  0  0  0
 24 63  1  0  0  0  0
 25 55  1  0  0  0  0
 26 83  1  0  0  0  0
 27 85  1  0  0  0  0
 28 31  2  0  0  0  0
 28 83  1  0  0  0  0
 29 84  1  0  0  0  0
 30 86  1  0  0  0  0
 31 87  1  0  0  0  0
 32 68  2  0  0  0  0
 33 69  1  0  0  0  0
 33 72  1  0  0  0  0
 34 73  1  0  0  0  0
 34 78  2  0  0  0  0
 35 51  1  0  0  0  0
 35 74  1  0  0  0  0
 35 79  2  0  0  0  0
 36 65  1  0  0  0  0
 36 70  1  0  0  0  0
 36 80  2  0  0  0  0
 37 66  1  0  0  0  0
 37 75  1  0  0  0  0
 37 81  2  0  0  0  0
 38 71  1  0  0  0  0
 38 76  1  0  0  0  0
 38 82  2  0  0  0  0
 39 42  1  0  0  0  0
 40 51  1  0  0  0  0
 41 70  1  0  0  0  0
 42 44  1  0  0  0  0
 43 45  1  0  0  0  0
 43 47  1  0  0  0  0
 44 50  1  0  0  0  0
 45 52  1  0  0  0  0
 46 49  1  0  0  0  0
 46 53  1  0  0  0  0
 47 71  1  0  0  0  0
 48 52  1  0  0  0  0
 48 71  1  0  0  0  0
 49 53  1  0  0  0  0
 50 74  1  0  0  0  0
 51 70  1  0  0  0  0
 52 69  1  0  0  0  0
 53 56  1  0  0  0  0
 53 64  1  0  0  0  0
 57 66  1  0  0  0  0
 58 67  1  0  0  0  0
 59 67  1  0  0  0  0
 60 67  1  0  0  0  0
 61 77  1  0  0  0  0
 62 84  1  0  0  0  0
 63 76  1  0  0  0  0
 64 85  1  0  0  0  0
 65 67  1  0  0  0  0
 65 75  1  0  0  0  0
 66 77  1  0  0  0  0
 68 69  1  0  0  0  0
M  CHG  1  77   1
M  ISO  4  38 100  64 101  76 100  85 101
M  END
> <Batch ID>
0163

> <Smiles>
CNC(C)C(=O)NC(C(=O)N1Cc2cc([101O:1][101CH2:1]C3(C)CC3c3c(OC)cc(C)c(C)c3C[100NH:0][100C:0](=O)N3CCCC(n4nc(-c5ccc(Oc6ccc(F)cc6F)cc5)c(C(N)=O)c4N)C3)ccc2CC1C(=O)NC1CCCc2ccccc21)C(C)(C)C

> <Shape>
0.158

> <Color>
0.196

> <Negative vol penalty>
0.000

$$$$

  -OEChem-04052322173D

 96106  0     1  0  0  0  0  0999 V2000
  -32.4659  -14.1138   20.2380 C   0  0  0  0  0  0  0  0  0  0  0  0
  -31.7101  -15.2625   20.4490 C   0  0  0  0  0  0  0  0  0  0  0  0
  -29.2982  -27.1661   22.1058 C   0  0  0  0  0  0  0  0  0  0  0  0
  -27.7938  -27.1128   20.2161 C   0  0  0  0  0  0  0  0  0  0  0  0
  -31.8391  -12.9289   19.8545 C   0  0  0  0  0  0  0  0  0  0  0  0
  -30.3269  -15.2273   20.2755 C   0  0  0  0  0  0  0  0  0  0  0  0
  -26.1346  -18.3388   23.4769 C   0  0  0  0  0  0  0  0  0  0  0  0
  -30.1934  -26.3485   21.4162 C   0  0  0  0  0  0  0  0  0  0  0  0
  -28.6890  -26.2952   19.5264 C   0  0  0  0  0  0  0  0  0  0  0  0
  -25.4444  -19.5220   23.2174 C   0  0  0  0  0  0  0  0  0  0  0  0
  -29.5632  -23.0293   19.4943 C   0  0  0  0  0  0  0  0  0  0  0  0
  -29.0446  -21.9219   18.8234 C   0  0  0  0  0  0  0  0  0  0  0  0
  -23.5831  -18.2432   22.3693 C   0  0  0  0  0  0  0  0  0  0  0  0
  -29.8946  -22.7893   16.7347 C   0  0  0  0  0  0  0  0  0  0  0  0
  -21.1361  -24.1778   22.7244 C   0  0  0  0  0  0  0  0  0  0  0  0
  -21.5501  -25.1539   21.7870 C   0  0  0  0  0  0  0  0  0  0  0  0
  -28.0983  -27.5482   21.5058 C   0  0  0  0  0  0  0  0  0  0  0  0
  -27.1289  -29.7994   22.2129 C   0  0  0  0  0  0  0  0  0  0  0  0
  -30.4465  -12.8767   19.6856 C   0  0  0  0  0  0  0  0  0  0  0  0
  -25.5576  -17.0971   23.1739 C   0  0  0  0  0  0  0  0  0  0  0  0
  -29.6810  -14.0409   19.8880 C   0  0  0  0  0  0  0  0  0  0  0  0
  -24.2670  -17.0456   22.6283 C   0  0  0  0  0  0  0  0  0  0  0  0
  -21.9931  -23.1062   23.0240 C   0  0  0  0  0  0  0  0  0  0  0  0
  -19.8773  -24.3020   23.3345 C   0  0  0  0  0  0  0  0  0  0  0  0
  -22.8089  -25.0297   21.1768 C   0  0  0  0  0  0  0  0  0  0  0  0
  -20.6932  -26.2255   21.4874 C   0  0  0  0  0  0  0  0  0  0  0  0
  -23.6475  -23.9585   21.4864 C   0  0  0  0  0  0  0  0  0  0  0  0
  -23.2403  -22.9986   22.4082 C   0  0  0  0  0  0  0  0  0  0  0  0
  -19.0388  -25.3732   23.0250 C   0  0  0  0  0  0  0  0  0  0  0  0
  -29.8889  -25.9130   20.1265 C   0  0  0  0  0  0  0  0  0  0  0  0
  -24.1696  -19.4745   22.6608 C   0  0  0  0  0  0  0  0  0  0  0  0
  -30.2474  -24.0168   18.7855 C   0  0  0  0  0  0  0  0  0  0  0  0
  -19.4460  -26.3331   22.1032 C   0  0  0  0  0  0  0  0  0  0  0  0
  -29.2103  -21.8018   17.4436 C   0  0  0  0  0  0  0  0  0  0  0  0
  -30.4131  -23.8968   17.4057 C   0  0  0  0  0  0  0  0  0  0  0  0
  -27.1728  -28.3924   22.2178 C   0  0  0  0  0  0  0  0  0  0  0  0
  -26.0779  -30.1131   23.0396 C   0  0  0  0  0  0  0  0  0  0  0  0
  -27.9635  -30.7390   21.5225 C   0  0  0  0  0  0  0  0  0  0  0  0
  -26.3023  -14.6908   21.2351 C   0  0  0  0  0  0  0  0  0  0  0  0
  -23.7862  -13.2517   22.6914 C   0  0  0  0  0  0  0  0  0  0  0  0
  -20.8563  -13.5827   24.4099 C   0  0  0  0  0  0  0  0  0  0  0  0
  -20.8186  -28.1903   24.5083 C   0  0  0  0  0  0  0  0  0  0  0  0
  -29.8191  -11.5851   19.2242 C   0  0  0  0  0  0  0  0  0  0  0  0
  -26.3044  -15.8290   23.4847 C   0  0  0  0  0  0  0  0  0  0  0  0
  -23.5949  -15.7374   22.3035 C   0  0  0  0  0  0  0  0  0  0  0  0
  -28.3067  -11.5364   19.4258 C   0  0  0  0  0  0  0  0  0  0  0  0
  -16.3796  -29.7512   23.6493 C   0  0  0  0  0  0  0  0  0  0  0  0
  -23.6423  -27.7435   26.6306 C   0  0  0  0  0  0  0  0  0  0  0  0
  -27.6614  -12.8300   18.9390 C   0  0  0  0  0  0  0  0  0  0  0  0
  -17.3616  -30.9135   23.7550 C   0  0  0  0  0  0  0  0  0  0  0  0
  -24.8365  -27.9960   25.7086 C   0  0  0  0  0  0  0  0  0  0  0  0
  -16.8319  -28.7385   22.6071 C   0  0  0  0  0  0  0  0  0  0  0  0
  -22.5069  -27.0293   25.9006 C   0  0  0  0  0  0  0  0  0  0  0  0
  -23.2549  -27.9379   23.7353 C   0  0  0  0  0  0  0  0  0  0  0  0
  -28.1756  -14.0363   19.7341 C   0  0  1  0  0  0  0  0  0  0  0  0
  -25.8278  -14.6374   22.6598 C   0  0  1  0  0  0  0  0  0  0  0  0
  -18.7898  -30.4305   24.0547 C   0  0  1  0  0  0  0  0  0  0  0  0
  -24.4033  -28.7058   24.4117 C   0  0  2  0  0  0  0  0  0  0  0  0
  -19.2473  -29.3914   23.0092 C   0  0  2  0  0  0  0  0  0  0  0  0
  -18.2463  -28.2331   22.8848 C   0  0  2  0  0  0  0  0  0  0  0  0
  -21.6487  -22.0205   24.0012 C   0  0  0  0  0  0  0  0  0  0  0  0
  -19.3450  -23.3238   24.3398 C   0  0  0  0  0  0  0  0  0  0  0  0
  -23.3396  -26.0099   20.1721 C   0  0  0  0  0  0  0  0  0  0  0  0
  -21.0305  -27.3127   20.5101 C   0  0  0  0  0  0  0  0  0  0  0  0
  -24.9888  -23.8317   20.8317 C   0  0  0  0  0  0  0  0  0  0  0  0
  -17.6962  -25.5059   23.6750 C   0  0  0  0  0  0  0  0  0  0  0  0
  -19.7370  -31.6323   24.1201 C   0  0  0  0  0  0  0  0  0  0  0  0
  -19.0076  -12.2274   25.4310 C   0  0  0  0  0  0  0  0  0  0  0  0
  -22.6369  -12.7309   19.9132 C   0  0  0  0  0  0  0  0  0  0  0  0
  -20.4268  -12.2614   20.9918 C   0  0  0  0  0  0  0  0  0  0  0  0
  -22.3981  -10.8252   21.5151 C   0  0  0  0  0  0  0  0  0  0  0  0
  -21.4206  -14.6382   27.1166 C   0  0  0  0  0  0  0  0  0  0  0  0
  -24.1511  -21.8515   22.7335 C   0  0  0  0  0  0  0  0  0  1  0  0
  -22.3005  -13.1787   22.4336 C   0  0  1  0  0  0  0  0  0  0  0  0
  -20.3462  -12.9081   25.6705 C   0  0  2  0  0  0  0  0  0  0  0  0
  -21.9537  -12.2739   21.2176 C   0  0  0  0  0  0  0  0  0  0  0  0
  -26.2252  -27.8496   22.9869 N   0  0  0  0  0  0  0  0  0  0  0  0
  -25.5760  -28.9212   23.4730 N   0  0  0  0  0  0  0  0  0  0  0  0
  -24.3683  -14.5252   22.6199 N   0  0  0  0  0  0  0  0  0  0  0  0
  -22.1427  -27.7542   24.6809 N   0  0  0  0  0  0  0  0  0  0  0  0
  -25.5435  -31.2893   23.4310 N   0  0  0  0  0  0  0  0  0  0  0  0
  -28.9972  -30.2465   20.7144 N   0  0  0  0  0  0  0  0  0  0  0  0
  -27.5336  -14.0984   21.0296 N   0  0  0  0  0  0  0  0  0  0  0  0
  -21.6890  -12.7538   23.6882 N   0  0  0  0  0  0  0  0  0  0  0  0
  -20.5599  -28.8751   23.3273 N   0  0  0  0  0  0  0  0  0  0  0  0
  -20.1759  -13.9094   26.7611 N   0  3  0  0  0  0  0  0  0  0  0  0
  -27.8077  -31.9788   21.6325 O   0  0  0  0  0  0  0  0  0  0  0  0
  -25.6023  -15.2283   20.3849 O   0  0  0  0  0  0  0  0  0  0  0  0
  -24.4060  -12.2180   22.9537 O   0  0  0  0  0  0  0  0  0  0  0  0
  -20.5442  -14.7289   24.0948 O   0  0  0  0  0  0  0  0  0  0  0  0
  -19.9339  -27.9892   25.3472 O   0  0  0  0  0  0  0  0  0  0  0  0
  -30.7623  -25.1153   19.4532 O   0  0  0  0  0  0  0  0  0  0  0  0
  -18.6184  -27.3778   21.8063 O   0  0  0  0  0  0  0  0  0  0  0  0
  -23.4940  -20.6279   22.4059 O   0  0  0  0  0  0  0  0  0  1  0  0
  -28.7136  -20.7375   16.7996 F   0  0  0  0  0  0  0  0  0  0  0  0
  -31.0705  -24.8417   16.7195 F   0  0  0  0  0  0  0  0  0  0  0  0
  1  2  1  0  0  0  0
  1  5  2  0  0  0  0
  2  6  2  0  0  0  0
  3  8  2  0  0  0  0
  3 17  1  0  0  0  0
  4  9  1  0  0  0  0
  4 17  2  0  0  0  0
  5 19  1  0  0  0  0
  6 21  1  0  0  0  0
  7 10  2  0  0  0  0
  7 20  1  0  0  0  0
  8 30  1  0  0  0  0
  9 30  2  0  0  0  0
 10 31  1  0  0  0  0
 11 12  2  0  0  0  0
 11 32  1  0  0  0  0
 12 34  1  0  0  0  0
 13 22  1  0  0  0  0
 13 31  2  0  0  0  0
 14 34  2  0  0  0  0
 14 35  1  0  0  0  0
 15 16  2  0  0  0  0
 15 23  1  0  0  0  0
 15 24  1  0  0  0  0
 16 25  1  0  0  0  0
 16 26  1  0  0  0  0
 17 36  1  0  0  0  0
 18 36  1  0  0  0  0
 18 37  2  0  0  0  0
 18 38  1  0  0  0  0
 19 21  2  0  0  0  0
 19 43  1  0  0  0  0
 20 22  2  0  0  0  0
 20 44  1  0  0  0  0
 21 55  1  0  0  0  0
 22 45  1  0  0  0  0
 23 28  2  0  0  0  0
 23 61  1  0  0  0  0
 24 29  2  0  0  0  0
 24 62  1  0  0  0  0
 25 27  2  0  0  0  0
 25 63  1  0  0  0  0
 26 33  2  0  0  0  0
 26 64  1  0  0  0  0
 27 28  1  0  0  0  0
 27 65  1  0  0  0  0
 28 73  1  0  0  0  0
 29 33  1  0  0  0  0
 29 66  1  0  0  0  0
 30 92  1  0  0  0  0
 31 94  1  0  0  0  0
 32 35  2  0  0  0  0
 32 92  1  0  0  0  0
 33 93  1  0  0  0  0
 34 95  1  0  0  0  0
 35 96  1  0  0  0  0
 36 77  2  0  0  0  0
 37 78  1  0  0  0  0
 37 81  1  0  0  0  0
 38 82  1  0  0  0  0
 38 87  2  0  0  0  0
 39 56  1  0  0  0  0
 39 83  1  0  0  0  0
 39 88  2  0  0  0  0
 40 74  1  0  0  0  0
 40 79  1  0  0  0  0
 40 89  2  0  0  0  0
 41 75  1  0  0  0  0
 41 84  1  0  0  0  0
 41 90  2  0  0  0  0
 42 80  1  0  0  0  0
 42 85  1  0  0  0  0
 42 91  2  0  0  0  0
 43 46  1  0  0  0  0
 44 56  1  0  0  0  0
 45 79  1  0  0  0  0
 46 49  1  0  0  0  0
 47 50  1  0  0  0  0
 47 52  1  0  0  0  0
 48 51  1  0  0  0  0
 48 53  1  0  0  0  0
 49 55  1  0  0  0  0
 50 57  1  0  0  0  0
 51 58  1  0  0  0  0
 52 60  1  0  0  0  0
 53 80  1  0  0  0  0
 54 58  1  0  0  0  0
 54 80  1  0  0  0  0
 55 83  1  0  0  0  0
 56 79  1  0  0  0  0
 57 59  1  0  0  0  0
 57 67  1  0  0  0  0
 58 78  1  0  0  0  0
 59 60  1  0  0  0  0
 59 85  1  0  0  0  0
 60 93  1  0  0  0  0
 68 75  1  0  0  0  0
 69 76  1  0  0  0  0
 70 76  1  0  0  0  0
 71 76  1  0  0  0  0
 72 86  1  0  0  0  0
 73 94  1  0  0  0  0
 74 76  1  0  0  0  0
 74 84  1  0  0  0  0
 75 86  1  0  0  0  0
 77 78  1  0  0  0  0
M  CHG  1  86   1
M  ISO  4  42 100  73 101  85 100  94 101
M  END
> <Batch ID>
0163

> <Smiles>
CNC(C)C(=O)NC(C(=O)N1Cc2cc([101O:1][101CH2:1]c3c(C)c(C)c4c(C)c(OC5CCCC(C)C5[100NH:0][100C:0](=O)N5CCCC(n6nc(-c7ccc(Oc8ccc(F)cc8F)cc7)c(C(N)=O)c6N)C5)c(C)c(C)c4c3C)ccc2CC1C(=O)NC1CCCc2ccccc21)C(C)(C)C

> <Shape>
0.264

> <Color>
0.077

> <Negative vol penalty>
0.000

$$$$

  -OEChem-04052322173D

 91101  0     1  0  0  0  0  0999 V2000
  -30.1012  -30.7695   26.0246 C   0  0  0  0  0  0  0  0  0  0  0  0
  -29.7114  -29.8466   25.0593 C   0  0  0  0  0  0  0  0  0  0  0  0
  -22.8733  -10.1456   20.9946 C   0  0  0  0  0  0  0  0  0  0  0  0
  -23.0983  -12.5211   21.3738 C   0  0  0  0  0  0  0  0  0  0  0  0
  -29.1391  -31.4070   26.8068 C   0  0  0  0  0  0  0  0  0  0  0  0
  -28.3590  -29.5599   24.8764 C   0  0  0  0  0  0  0  0  0  0  0  0
  -27.0456  -29.4253   19.9875 C   0  0  0  0  0  0  0  0  0  0  0  0
  -31.0420  -19.1081   19.6502 C   0  0  0  0  0  0  0  0  0  0  0  0
  -30.7598  -17.7806   19.9721 C   0  0  0  0  0  0  0  0  0  0  0  0
  -21.7840  -10.1098   21.8650 C   0  0  0  0  0  0  0  0  0  0  0  0
  -22.0089  -12.4853   22.2442 C   0  0  0  0  0  0  0  0  0  0  0  0
  -27.3786  -28.2771   19.2701 C   0  0  0  0  0  0  0  0  0  0  0  0
  -18.4956  -10.8915   21.7734 C   0  0  0  0  0  0  0  0  0  0  0  0
  -17.3679  -10.1758   21.3714 C   0  0  0  0  0  0  0  0  0  0  0  0
  -25.1176  -27.4737   19.5180 C   0  0  0  0  0  0  0  0  0  0  0  0
  -29.1620  -19.1399   18.1331 C   0  0  0  0  0  0  0  0  0  0  0  0
  -17.5881   -8.7432   23.3043 C   0  0  0  0  0  0  0  0  0  0  0  0
  -23.5305  -11.3513   20.7490 C   0  0  0  0  0  0  0  0  0  0  0  0
  -24.6686  -11.0347   18.4880 C   0  0  0  0  0  0  0  0  0  0  0  0
  -27.7737  -31.1351   26.6268 C   0  0  0  0  0  0  0  0  0  0  0  0
  -25.7467  -29.6015   20.4857 C   0  0  0  0  0  0  0  0  0  0  0  0
  -27.3778  -30.1934   25.6578 C   0  0  0  0  0  0  0  0  0  0  0  0
  -24.7699  -28.6261   20.2392 C   0  0  0  0  0  0  0  0  0  0  0  0
  -30.2430  -19.7878   18.7308 C   0  0  0  0  0  0  0  0  0  0  0  0
  -29.6788  -17.1326   19.3744 C   0  0  0  0  0  0  0  0  0  0  0  0
  -21.3517  -11.2796   22.4898 C   0  0  0  0  0  0  0  0  0  0  0  0
  -26.4153  -27.2998   19.0377 C   0  0  0  0  0  0  0  0  0  0  0  0
  -19.1696  -10.5331   22.9408 C   0  0  0  0  0  0  0  0  0  0  0  0
  -28.8799  -17.8123   18.4549 C   0  0  0  0  0  0  0  0  0  0  0  0
  -16.9142   -9.1017   22.1368 C   0  0  0  0  0  0  0  0  0  0  0  0
  -18.7159   -9.4589   23.7063 C   0  0  0  0  0  0  0  0  0  0  0  0
  -24.6562  -11.3888   19.8504 C   0  0  0  0  0  0  0  0  0  0  0  0
  -25.9662  -11.2454   18.0902 C   0  0  0  0  0  0  0  0  0  0  0  0
  -23.6024  -10.5581   17.6563 C   0  0  0  0  0  0  0  0  0  0  0  0
  -24.4789  -29.9122   23.3840 C   0  0  0  0  0  0  0  0  0  0  0  0
  -21.7580  -30.4697   21.7083 C   0  0  0  0  0  0  0  0  0  0  0  0
  -20.0057  -30.0592   18.8086 C   0  0  0  0  0  0  0  0  0  0  0  0
  -30.3240  -14.8072   20.0972 C   0  0  0  0  0  0  0  0  0  0  0  0
  -26.7733  -31.8140   27.5285 C   0  0  0  0  0  0  0  0  0  0  0  0
  -25.3964  -30.8580   21.2347 C   0  0  0  0  0  0  0  0  0  0  0  0
  -23.3558  -28.7769   20.7352 C   0  0  0  0  0  0  0  0  0  0  0  0
  -25.3377  -31.7322   27.0160 C   0  0  0  0  0  0  0  0  0  0  0  0
  -30.4460  -11.2627   19.7832 C   0  0  0  0  0  0  0  0  0  0  0  0
  -25.0108  -30.3111   26.5684 C   0  0  0  0  0  0  0  0  0  0  0  0
  -28.9767  -10.8611   19.6347 C   0  0  0  0  0  0  0  0  0  0  0  0
  -28.2460  -24.4898   17.5458 C   0  0  0  0  0  0  0  0  0  0  0  0
  -29.6871  -23.9966   17.5465 C   0  0  0  0  0  0  0  0  0  0  0  0
  -28.4034  -25.4112   19.8941 C   0  0  0  0  0  0  0  0  0  0  0  0
  -31.6173  -24.0312   19.2694 C   0  0  0  0  0  0  0  0  0  0  0  0
  -30.6198  -12.4290   20.7543 C   0  0  0  0  0  0  0  0  0  0  0  0
  -28.3233  -13.2056   20.3156 C   0  0  0  0  0  0  0  0  0  0  0  0
  -25.9190  -29.8741   25.4127 C   0  0  1  0  0  0  0  0  0  0  0  0
  -24.1776  -30.6953   22.1376 C   0  0  1  0  0  0  0  0  0  0  0  0
  -29.7042  -24.6399   20.0915 C   0  0  1  0  0  0  0  0  0  0  0  0
  -28.0914  -12.0770   19.2977 C   0  0  2  0  0  0  0  0  0  0  0  0
  -28.0902  -25.7230   18.4338 C   0  0  2  0  0  0  0  0  0  1  0  0
  -30.1381  -23.6397   18.9704 C   0  0  1  0  0  0  0  0  0  0  0  0
  -31.1280  -25.3002   20.0314 C   0  0  0  0  0  0  0  0  0  0  0  0
  -31.7599  -25.4350   21.4223 C   0  0  0  0  0  0  0  0  0  0  0  0
  -31.2999  -26.6043   19.2563 C   0  0  0  0  0  0  0  0  0  0  0  0
  -17.7940  -30.5947   17.7509 C   0  0  0  0  0  0  0  0  0  0  0  0
  -20.4377  -28.2715   23.3620 C   0  0  0  0  0  0  0  0  0  0  0  0
  -18.5979  -28.1967   21.6656 C   0  0  0  0  0  0  0  0  0  0  0  0
  -19.0059  -30.2840   22.9692 C   0  0  0  0  0  0  0  0  0  0  0  0
  -21.2856  -31.6380   16.6572 C   0  0  0  0  0  0  0  0  0  0  0  0
  -28.0714  -16.5163   16.6321 C   0  0  0  0  0  0  0  0  0  0  0  0
  -30.5484  -21.2229   18.3831 C   0  0  0  0  0  0  0  0  0  0  0  0
  -29.8137  -22.1845   19.3138 C   0  0  0  0  0  0  0  0  0  0  0  0
  -20.6427  -29.6103   21.1639 C   0  0  1  0  0  0  0  0  0  0  0  0
  -19.2329  -31.0446   17.9507 C   0  0  2  0  0  0  0  0  0  0  0  0
  -19.6981  -29.0866   22.2824 C   0  0  0  0  0  0  0  0  0  0  0  0
  -25.8512  -11.7935   20.2889 N   0  0  0  0  0  0  0  0  0  0  0  0
  -26.6266  -11.6949   19.1956 N   0  0  0  0  0  0  0  0  0  0  0  0
  -23.0641  -30.0201   21.4678 N   0  0  0  0  0  0  0  0  0  0  0  0
  -29.7537  -13.5458   20.3699 N   0  0  0  0  0  0  0  0  0  0  0  0
  -26.5954  -11.0879   16.9063 N   0  0  0  0  0  0  0  0  0  0  0  0
  -22.8240  -11.4963   16.9646 N   0  0  0  0  0  0  0  0  0  0  0  0
  -29.4064  -15.7832   19.7099 N   0  0  0  0  0  0  0  0  0  0  0  0
  -25.4734  -30.4643   24.1687 N   0  0  0  0  0  0  0  0  0  0  0  0
  -19.9738  -30.4085   20.1421 N   0  0  0  0  0  0  0  0  0  0  0  0
  -19.8733  -31.1792   16.6118 N   0  3  0  0  0  0  0  0  0  0  0  0
  -23.3370   -9.3373   17.5431 O   0  0  0  0  0  0  0  0  0  0  0  0
  -23.8544  -28.8840   23.6173 O   0  0  0  0  0  0  0  0  0  0  0  0
  -21.4807  -31.5055   22.3180 O   0  0  0  0  0  0  0  0  0  0  0  0
  -20.5773  -29.0759   18.3429 O   0  0  0  0  0  0  0  0  0  0  0  0
  -31.5402  -14.9998   20.1734 O   0  0  0  0  0  0  0  0  0  0  0  0
  -20.2886  -11.2451   23.3390 O   0  0  0  0  0  0  0  0  0  0  0  0
  -26.7396  -26.1717   18.3345 O   0  0  0  0  0  0  0  0  0  1  0  0
  -27.8192  -17.1973   17.8592 O   0  0  0  0  0  0  0  0  0  0  0  0
  -15.8303   -8.4154   21.7515 F   0  0  0  0  0  0  0  0  0  0  0  0
  -19.3586   -9.1105   24.8294 F   0  0  0  0  0  0  0  0  0  0  0  0
  1  2  1  0  0  0  0
  1  5  2  0  0  0  0
  2  6  2  0  0  0  0
  3 10  2  0  0  0  0
  3 18  1  0  0  0  0
  4 11  1  0  0  0  0
  4 18  2  0  0  0  0
  5 20  1  0  0  0  0
  6 22  1  0  0  0  0
  7 12  2  0  0  0  0
  7 21  1  0  0  0  0
  8  9  2  0  0  0  0
  8 24  1  0  0  0  0
  9 25  1  0  0  0  0
 10 26  1  0  0  0  0
 11 26  2  0  0  0  0
 12 27  1  0  0  0  0
 13 14  2  0  0  0  0
 13 28  1  0  0  0  0
 14 30  1  0  0  0  0
 15 23  1  0  0  0  0
 15 27  2  0  0  0  0
 16 24  2  0  0  0  0
 16 29  1  0  0  0  0
 17 30  2  0  0  0  0
 17 31  1  0  0  0  0
 18 32  1  0  0  0  0
 19 32  1  0  0  0  0
 19 33  2  0  0  0  0
 19 34  1  0  0  0  0
 20 22  2  0  0  0  0
 20 39  1  0  0  0  0
 21 23  2  0  0  0  0
 21 40  1  0  0  0  0
 22 52  1  0  0  0  0
 23 41  1  0  0  0  0
 24 67  1  0  0  0  0
 25 29  2  0  0  0  0
 25 78  1  0  0  0  0
 26 87  1  0  0  0  0
 27 88  1  0  0  0  0
 28 31  2  0  0  0  0
 28 87  1  0  0  0  0
 29 89  1  0  0  0  0
 30 90  1  0  0  0  0
 31 91  1  0  0  0  0
 32 72  2  0  0  0  0
 33 73  1  0  0  0  0
 33 76  1  0  0  0  0
 34 77  1  0  0  0  0
 34 82  2  0  0  0  0
 35 53  1  0  0  0  0
 35 79  1  0  0  0  0
 35 83  2  0  0  0  0
 36 69  1  0  0  0  0
 36 74  1  0  0  0  0
 36 84  2  0  0  0  0
 37 70  1  0  0  0  0
 37 80  1  0  0  0  0
 37 85  2  0  0  0  0
 38 75  1  0  0  0  0
 38 78  1  0  0  0  0
 38 86  2  0  0  0  0
 39 42  1  0  0  0  0
 40 53  1  0  0  0  0
 41 74  1  0  0  0  0
 42 44  1  0  0  0  0
 43 45  1  0  0  0  0
 43 50  1  0  0  0  0
 44 52  1  0  0  0  0
 45 55  1  0  0  0  0
 46 47  1  0  0  0  0
 46 56  1  0  0  0  0
 47 57  1  0  0  0  0
 48 54  1  0  0  0  0
 48 56  1  0  0  0  0
 49 57  1  0  0  0  0
 49 58  1  0  0  0  0
 50 75  1  0  0  0  0
 51 55  1  0  0  0  0
 51 75  1  0  0  0  0
 52 79  1  0  0  0  0
 53 74  1  0  0  0  0
 54 57  1  0  0  0  0
 54 58  1  0  0  0  0
 55 73  1  0  0  0  0
 56 88  1  0  0  0  0
 57 68  1  0  0  0  0
 58 59  1  0  0  0  0
 58 60  1  0  0  0  0
 61 70  1  0  0  0  0
 62 71  1  0  0  0  0
 63 71  1  0  0  0  0
 64 71  1  0  0  0  0
 65 81  1  0  0  0  0
 66 89  1  0  0  0  0
 67 68  1  0  0  0  0
 69 71  1  0  0  0  0
 69 80  1  0  0  0  0
 70 81  1  0  0  0  0
 72 73  1  0  0  0  0
M  CHG  1  81   1
M  ISO  4  38 100  56 101  78 100  88 101
M  END
> <Batch ID>
0163

> <Smiles>
CNC(C)C(=O)NC(C(=O)N1Cc2cc([101O:1][101CH:1]3CCC4(CCc5ccc([100NH:0][100C:0](=O)N6CCCC(n7nc(-c8ccc(Oc9ccc(F)cc9F)cc8)c(C(N)=O)c7N)C6)c(OC)c5)CC(C)(C)C4C3)ccc2CC1C(=O)NC1CCCc2ccccc21)C(C)(C)C

> <Shape>
0.302

> <Color>
0.088

> <Negative vol penalty>
0.000

$$$$

  -OEChem-04052322173D

 92102  0     1  0  0  0  0  0999 V2000
  -23.4465  -20.5521   16.8437 C   0  0  0  0  0  0  0  0  0  0  0  0
  -24.4491  -20.9105   17.7391 C   0  0  0  0  0  0  0  0  0  0  0  0
  -22.7132  -10.4585   20.9347 C   0  0  0  0  0  0  0  0  0  0  0  0
  -24.4062   -9.3521   22.2563 C   0  0  0  0  0  0  0  0  0  0  0  0
  -23.0016  -21.4699   15.8932 C   0  0  0  0  0  0  0  0  0  0  0  0
  -25.0082  -22.1867   17.6836 C   0  0  0  0  0  0  0  0  0  0  0  0
  -25.5084  -24.2892   22.2634 C   0  0  0  0  0  0  0  0  0  0  0  0
  -22.0574   -9.2406   20.7551 C   0  0  0  0  0  0  0  0  0  0  0  0
  -23.7504   -8.1342   22.0767 C   0  0  0  0  0  0  0  0  0  0  0  0
  -26.5796  -23.8617   23.0467 C   0  0  0  0  0  0  0  0  0  0  0  0
  -21.0649   -6.5391   23.3669 C   0  0  0  0  0  0  0  0  0  0  0  0
  -20.9037   -5.7207   24.4848 C   0  0  0  0  0  0  0  0  0  0  0  0
  -27.8202  -25.8316   22.4143 C   0  0  0  0  0  0  0  0  0  0  0  0
  -30.8887  -21.9837   22.0176 C   0  0  0  0  0  0  0  0  0  0  0  0
  -22.1652   -3.9756   23.3891 C   0  0  0  0  0  0  0  0  0  0  0  0
  -23.8876  -10.5143   21.6853 C   0  0  0  0  0  0  0  0  0  0  0  0
  -24.3639  -12.7018   22.9082 C   0  0  0  0  0  0  0  0  0  0  0  0
  -23.5487  -22.7612   15.8323 C   0  0  0  0  0  0  0  0  0  0  0  0
  -25.5893  -25.4876   21.5398 C   0  0  0  0  0  0  0  0  0  0  0  0
  -24.5712  -23.1222   16.7305 C   0  0  0  0  0  0  0  0  0  0  0  0
  -26.7476  -26.2733   21.6246 C   0  0  0  0  0  0  0  0  0  0  0  0
  -30.3581  -19.6503   22.3498 C   0  0  0  0  0  0  0  0  0  0  0  0
  -30.6417  -20.7147   21.4941 C   0  0  0  0  0  0  0  0  0  0  0  0
  -30.8524  -22.1884   23.3970 C   0  0  0  0  0  0  0  0  0  0  0  0
  -30.3218  -19.8549   23.7292 C   0  0  0  0  0  0  0  0  0  0  0  0
  -22.5760   -8.0785   21.3261 C   0  0  0  0  0  0  0  0  0  0  0  0
  -27.7369  -24.6315   23.1199 C   0  0  0  0  0  0  0  0  0  0  0  0
  -21.7763   -6.0758   22.2600 C   0  0  0  0  0  0  0  0  0  0  0  0
  -30.5689  -21.1240   24.2527 C   0  0  0  0  0  0  0  0  0  0  0  0
  -21.4538   -4.4389   24.4959 C   0  0  0  0  0  0  0  0  0  0  0  0
  -22.3264   -4.7941   22.2712 C   0  0  0  0  0  0  0  0  0  0  0  0
  -24.5658  -11.7720   21.8707 C   0  0  0  0  0  0  0  0  0  0  0  0
  -25.2445  -13.7194   22.6335 C   0  0  0  0  0  0  0  0  0  0  0  0
  -23.4611  -12.6502   24.0208 C   0  0  0  0  0  0  0  0  0  0  0  0
  -25.4824  -26.2588   18.4580 C   0  0  0  0  0  0  0  0  0  0  0  0
  -25.5241  -29.2889   19.6153 C   0  0  0  0  0  0  0  0  0  0  0  0
  -26.3420  -31.4057   22.1641 C   0  0  0  0  0  0  0  0  0  0  0  0
  -27.3874  -17.2540   19.0343 C   0  0  0  0  0  0  0  0  0  0  0  0
  -23.0686  -23.7032   14.7567 C   0  0  0  0  0  0  0  0  0  0  0  0
  -24.4148  -25.9481   20.7207 C   0  0  0  0  0  0  0  0  0  0  0  0
  -26.8769  -27.5779   20.8832 C   0  0  0  0  0  0  0  0  0  0  0  0
  -23.4508  -25.1596   15.0075 C   0  0  0  0  0  0  0  0  0  0  0  0
  -29.0524  -14.0031   19.3493 C   0  0  0  0  0  0  0  0  0  0  0  0
  -30.9222  -17.1306   22.2669 C   0  0  0  0  0  0  0  0  0  0  0  0
  -31.1203  -17.6642   20.8826 C   0  0  0  0  0  0  0  0  0  0  0  0
  -24.9177  -25.2644   15.4126 C   0  0  0  0  0  0  0  0  0  0  0  0
  -27.9798  -13.1937   20.0703 C   0  0  0  0  0  0  0  0  0  0  0  0
  -27.7856  -19.0940   16.2530 C   0  0  0  0  0  0  0  0  0  0  0  0
  -28.4565  -15.0302   18.3858 C   0  0  0  0  0  0  0  0  0  0  0  0
  -28.0370  -17.6079   16.5262 C   0  0  0  0  0  0  0  0  0  0  0  0
  -26.3818  -15.1128   19.7431 C   0  0  0  0  0  0  0  0  0  0  0  0
  -30.0937  -18.2900   21.7861 C   0  0  0  0  0  0  0  0  0  0  0  0
  -25.1851  -24.5054   16.7179 C   0  0  1  0  0  0  0  0  0  0  0  0
  -24.8029  -26.9289   19.6185 C   0  0  1  0  0  0  0  0  0  0  0  0
  -26.9743  -14.1275   20.7602 C   0  0  1  0  0  0  0  0  0  0  0  0
  -28.0278  -19.3659   17.7456 C   0  0  2  0  0  0  0  0  0  0  0  0
  -30.0191  -18.7186   24.6542 C   0  0  0  0  0  0  0  0  0  0  0  0
  -32.5446  -24.0390   23.6056 C   0  0  0  0  0  0  0  0  0  0  0  0
  -26.2889  -33.8317   22.8039 C   0  0  0  0  0  0  0  0  0  0  0  0
  -27.9097  -29.8203   17.7887 C   0  0  0  0  0  0  0  0  0  0  0  0
  -28.3919  -31.8769   19.1327 C   0  0  0  0  0  0  0  0  0  0  0  0
  -26.2385  -31.6781   17.8891 C   0  0  0  0  0  0  0  0  0  0  0  0
  -24.5813  -30.8753   24.4831 C   0  0  0  0  0  0  0  0  0  0  0  0
  -31.7570  -21.1501   26.3127 C   0  0  0  0  0  0  0  0  0  0  0  0
  -30.6872  -20.5229   20.0066 C   0  0  0  0  0  0  0  0  0  0  0  0
  -29.4019  -19.8585   18.1548 C   0  0  0  0  0  0  0  0  0  0  0  0
  -30.0907  -24.6031   23.4584 C   0  0  0  0  0  0  0  0  0  1  0  0
  -31.1195  -23.5545   23.9376 C   0  0  1  0  0  0  0  0  0  0  0  0
  -26.6032  -30.2843   19.9667 C   0  0  1  0  0  0  0  0  0  0  0  0
  -25.5521  -32.5023   22.8556 C   0  0  2  0  0  0  0  0  0  0  0  0
  -27.2845  -30.8894   18.7069 C   0  0  0  0  0  0  0  0  0  0  0  0
  -25.5012  -12.1641   21.0016 N   0  0  0  0  0  0  0  0  0  0  0  0
  -25.8948  -13.3517   21.4924 N   0  0  0  0  0  0  0  0  0  0  0  0
  -25.7039  -27.9822   20.0908 N   0  0  0  0  0  0  0  0  0  0  0  0
  -27.4287  -15.8555   19.0313 N   0  0  0  0  0  0  0  0  0  0  0  0
  -27.8939  -17.9204   17.9407 N   0  0  0  0  0  0  0  0  0  0  0  0
  -25.5183  -14.8839   23.2591 N   0  0  0  0  0  0  0  0  0  0  0  0
  -22.6264  -11.5321   24.1527 N   0  0  0  0  0  0  0  0  0  0  0  0
  -24.7237  -25.2747   17.8536 N   0  0  0  0  0  0  0  0  0  0  0  0
  -25.9789  -31.2716   20.8407 N   0  0  0  0  0  0  0  0  0  0  0  0
  -25.3181  -32.1499   24.2845 N   0  3  0  0  0  0  0  0  0  0  0  0
  -23.3849  -13.5761   24.8638 O   0  0  0  0  0  0  0  0  0  0  0  0
  -26.6109  -26.6097   18.1340 O   0  0  0  0  0  0  0  0  0  0  0  0
  -24.5537  -29.6588   18.9496 O   0  0  0  0  0  0  0  0  0  0  0  0
  -27.1983  -30.7377   22.7395 O   0  0  0  0  0  0  0  0  0  0  0  0
  -26.8860  -17.8913   19.9699 O   0  0  0  0  0  0  0  0  0  0  0  0
  -21.9362   -6.8899   21.1513 O   0  0  0  0  0  0  0  0  0  0  0  0
  -30.5344  -21.3261   25.6013 O   0  0  0  0  0  0  0  0  0  0  0  0
  -28.7911  -24.2136   23.8882 O   0  0  0  0  0  0  0  0  0  1  0  0
  -29.4196  -20.0588   19.5594 O   0  0  0  0  0  0  0  0  0  0  0  0
  -21.3002   -3.6536   25.5701 F   0  0  0  0  0  0  0  0  0  0  0  0
  -23.0119   -4.3439   21.2113 F   0  0  0  0  0  0  0  0  0  0  0  0
  1  2  1  0  0  0  0
  1  5  2  0  0  0  0
  2  6  2  0  0  0  0
  3  8  2  0  0  0  0
  3 16  1  0  0  0  0
  4  9  1  0  0  0  0
  4 16  2  0  0  0  0
  5 18  1  0  0  0  0
  6 20  1  0  0  0  0
  7 10  2  0  0  0  0
  7 19  1  0  0  0  0
  8 26  1  0  0  0  0
  9 26  2  0  0  0  0
 10 27  1  0  0  0  0
 11 12  2  0  0  0  0
 11 28  1  0  0  0  0
 12 30  1  0  0  0  0
 13 21  1  0  0  0  0
 13 27  2  0  0  0  0
 14 23  2  0  0  0  0
 14 24  1  0  0  0  0
 15 30  2  0  0  0  0
 15 31  1  0  0  0  0
 16 32  1  0  0  0  0
 17 32  1  0  0  0  0
 17 33  2  0  0  0  0
 17 34  1  0  0  0  0
 18 20  2  0  0  0  0
 18 39  1  0  0  0  0
 19 21  2  0  0  0  0
 19 40  1  0  0  0  0
 20 53  1  0  0  0  0
 21 41  1  0  0  0  0
 22 23  1  0  0  0  0
 22 25  2  0  0  0  0
 22 52  1  0  0  0  0
 23 65  1  0  0  0  0
 24 29  2  0  0  0  0
 24 68  1  0  0  0  0
 25 29  1  0  0  0  0
 25 57  1  0  0  0  0
 26 87  1  0  0  0  0
 27 89  1  0  0  0  0
 28 31  2  0  0  0  0
 28 87  1  0  0  0  0
 29 88  1  0  0  0  0
 30 91  1  0  0  0  0
 31 92  1  0  0  0  0
 32 72  2  0  0  0  0
 33 73  1  0  0  0  0
 33 77  1  0  0  0  0
 34 78  1  0  0  0  0
 34 82  2  0  0  0  0
 35 54  1  0  0  0  0
 35 79  1  0  0  0  0
 35 83  2  0  0  0  0
 36 69  1  0  0  0  0
 36 74  1  0  0  0  0
 36 84  2  0  0  0  0
 37 70  1  0  0  0  0
 37 80  1  0  0  0  0
 37 85  2  0  0  0  0
 38 75  1  0  0  0  0
 38 76  1  0  0  0  0
 38 86  2  0  0  0  0
 39 42  1  0  0  0  0
 40 54  1  0  0  0  0
 41 74  1  0  0  0  0
 42 46  1  0  0  0  0
 43 47  1  0  0  0  0
 43 49  1  0  0  0  0
 44 45  1  0  0  0  0
 44 52  1  0  0  0  0
 45 52  1  0  0  0  0
 46 53  1  0  0  0  0
 47 55  1  0  0  0  0
 48 50  1  0  0  0  0
 48 56  1  0  0  0  0
 49 75  1  0  0  0  0
 50 76  1  0  0  0  0
 51 55  1  0  0  0  0
 51 75  1  0  0  0  0
 53 79  1  0  0  0  0
 54 74  1  0  0  0  0
 55 73  1  0  0  0  0
 56 66  1  0  0  0  0
 56 76  1  0  0  0  0
 58 68  1  0  0  0  0
 59 70  1  0  0  0  0
 60 71  1  0  0  0  0
 61 71  1  0  0  0  0
 62 71  1  0  0  0  0
 63 81  1  0  0  0  0
 64 88  1  0  0  0  0
 65 90  1  0  0  0  0
 66 90  1  0  0  0  0
 67 68  1  0  0  0  0
 67 89  1  0  0  0  0
 69 71  1  0  0  0  0
 69 80  1  0  0  0  0
 70 81  1  0  0  0  0
 72 73  1  0  0  0  0
M  CHG  1  81   1
M  ISO  4  38 100  67 101  76 100  89 101
M  END
> <Batch ID>
0163

> <Smiles>
CNC(C)C(=O)NC(C(=O)N1Cc2cc([101O:1][101CH2:1]C(C)c3cc(COCC4CC[100N:0]4[100C:0](=O)N4CCCC(n5nc(-c6ccc(Oc7ccc(F)cc7F)cc6)c(C(N)=O)c5N)C4)c(C4CC4)c(C)c3OC)ccc2CC1C(=O)NC1CCCc2ccccc21)C(C)(C)C

> <Shape>
0.228

> <Color>
0.081

> <Negative vol penalty>
0.000

$$$$

  -OEChem-04052322173D

 85 94  0     1  0  0  0  0  0999 V2000
  -35.0158  -27.8887   28.4822 C   0  0  0  0  0  0  0  0  0  0  0  0
  -35.1679  -26.5118   28.3537 C   0  0  0  0  0  0  0  0  0  0  0  0
  -23.0742   -9.8687   19.9417 C   0  0  0  0  0  0  0  0  0  0  0  0
  -23.8382   -9.8748   22.2337 C   0  0  0  0  0  0  0  0  0  0  0  0
  -34.4260  -28.4198   29.6284 C   0  0  0  0  0  0  0  0  0  0  0  0
  -34.7312  -25.6653   29.3721 C   0  0  0  0  0  0  0  0  0  0  0  0
  -32.1846  -21.6586   27.6097 C   0  0  0  0  0  0  0  0  0  0  0  0
  -22.3315   -8.7149   20.1923 C   0  0  0  0  0  0  0  0  0  0  0  0
  -23.0955   -8.7210   22.4844 C   0  0  0  0  0  0  0  0  0  0  0  0
  -32.9347  -20.6134   27.0723 C   0  0  0  0  0  0  0  0  0  0  0  0
  -19.8690   -7.9206   23.0922 C   0  0  0  0  0  0  0  0  0  0  0  0
  -19.1142   -7.8795   24.2645 C   0  0  0  0  0  0  0  0  0  0  0  0
  -33.5575  -17.2165   24.4877 C   0  0  0  0  0  0  0  0  0  0  0  0
  -32.6980  -19.3897   29.1377 C   0  0  0  0  0  0  0  0  0  0  0  0
  -31.1617  -15.8354   24.1196 C   0  0  0  0  0  0  0  0  0  0  0  0
  -20.3583   -5.9424   24.9975 C   0  0  0  0  0  0  0  0  0  0  0  0
  -23.8276  -10.4486   20.9624 C   0  0  0  0  0  0  0  0  0  0  0  0
  -24.1674  -12.9741   20.8433 C   0  0  0  0  0  0  0  0  0  0  0  0
  -33.9731  -27.5788   30.6571 C   0  0  0  0  0  0  0  0  0  0  0  0
  -31.6939  -21.5817   28.9211 C   0  0  0  0  0  0  0  0  0  0  0  0
  -34.1361  -26.1857   30.5339 C   0  0  0  0  0  0  0  0  0  0  0  0
  -33.1006  -16.3385   25.4705 C   0  0  0  0  0  0  0  0  0  0  0  0
  -31.9398  -20.4341   29.6884 C   0  0  0  0  0  0  0  0  0  0  0  0
  -32.8165  -17.4040   23.3208 C   0  0  0  0  0  0  0  0  0  0  0  0
  -31.9027  -15.6479   25.2865 C   0  0  0  0  0  0  0  0  0  0  0  0
  -31.6186  -16.7134   23.1368 C   0  0  0  0  0  0  0  0  0  0  0  0
  -22.3422   -8.1410   21.4636 C   0  0  0  0  0  0  0  0  0  0  0  0
  -33.1940  -19.4800   27.8373 C   0  0  0  0  0  0  0  0  0  0  0  0
  -20.8684   -6.9726   22.8726 C   0  0  0  0  0  0  0  0  0  0  0  0
  -19.3588   -6.8904   25.2171 C   0  0  0  0  0  0  0  0  0  0  0  0
  -21.1130   -5.9836   23.8252 C   0  0  0  0  0  0  0  0  0  0  0  0
  -24.5954  -11.6402   20.7040 C   0  0  0  0  0  0  0  0  0  0  0  0
  -25.2584  -13.7245   20.4785 C   0  0  0  0  0  0  0  0  0  0  0  0
  -22.8974  -13.4888   21.2648 C   0  0  0  0  0  0  0  0  0  0  0  0
  -32.1332  -23.2631   31.5826 C   0  0  0  0  0  0  0  0  0  0  0  0
  -29.7966  -21.3264   32.7280 C   0  0  0  0  0  0  0  0  0  0  0  0
  -28.1266  -18.3583   32.5078 C   0  0  0  0  0  0  0  0  0  0  0  0
  -30.7418  -14.7472   20.6576 C   0  0  0  0  0  0  0  0  0  0  0  0
  -33.3848  -28.2019   31.8982 C   0  0  0  0  0  0  0  0  0  0  0  0
  -30.8638  -22.7062   29.4768 C   0  0  0  0  0  0  0  0  0  0  0  0
  -31.4184  -20.2937   31.0945 C   0  0  0  0  0  0  0  0  0  0  0  0
  -32.6088  -27.2146   32.7663 C   0  0  0  0  0  0  0  0  0  0  0  0
  -29.6015  -12.3634   18.2714 C   0  0  0  0  0  0  0  0  0  0  0  0
  -33.4045  -25.9264   32.9511 C   0  0  0  0  0  0  0  0  0  0  0  0
  -28.1651  -12.0684   18.7068 C   0  0  0  0  0  0  0  0  0  0  0  0
  -35.3259  -15.6338   26.5630 C   0  0  0  0  0  0  0  0  0  0  0  0
  -34.2650  -14.7370   27.1200 C   0  0  0  0  0  0  0  0  0  0  0  0
  -30.5207  -12.5841   19.4708 C   0  0  0  0  0  0  0  0  0  0  0  0
  -28.6209  -13.3130   20.8612 C   0  0  0  0  0  0  0  0  0  0  0  0
  -33.6526  -25.2333   31.6059 C   0  0  1  0  0  0  0  0  0  0  0  0
  -30.8494  -22.7412   31.0019 C   0  0  1  0  0  0  0  0  0  0  0  0
  -27.6448  -13.1385   19.6853 C   0  0  2  0  0  0  0  0  0  0  0  0
  -33.9073  -16.1542   26.7096 C   0  0  0  0  0  0  0  0  0  0  0  0
  -33.3255  -18.3488   22.2822 C   0  0  0  0  0  0  0  0  0  0  0  0
  -31.3925  -14.7014   26.3234 C   0  0  0  0  0  0  0  0  0  0  0  0
  -29.7873  -18.0366   22.0156 C   0  0  0  0  0  0  0  0  0  0  0  0
  -26.2917  -17.0443   33.6050 C   0  0  0  0  0  0  0  0  0  0  0  0
  -31.6743  -20.6314   35.0304 C   0  0  0  0  0  0  0  0  0  0  0  0
  -30.2129  -18.6624   35.5358 C   0  0  0  0  0  0  0  0  0  0  0  0
  -29.2884  -20.9736   35.6971 C   0  0  0  0  0  0  0  0  0  0  0  0
  -26.5110  -18.3234   30.0284 C   0  0  0  0  0  0  0  0  0  0  0  0
  -33.6383  -17.1441   27.7901 C   0  0  0  0  0  0  0  0  0  1  0  0
  -30.8084  -16.8971   21.8956 C   0  0  2  0  0  0  0  0  0  0  0  0
  -29.7632  -19.9848   33.4192 C   0  0  1  0  0  0  0  0  0  0  0  0
  -26.6435  -18.0348   32.5059 C   0  0  2  0  0  0  0  0  0  0  0  0
  -30.2463  -20.0662   34.8948 C   0  0  0  0  0  0  0  0  0  0  0  0
  -25.8595  -11.5455   20.2834 N   0  0  0  0  0  0  0  0  0  0  0  0
  -26.2353  -12.8294   20.1551 N   0  0  0  0  0  0  0  0  0  0  0  0
  -30.6172  -21.4228   31.5953 N   0  0  0  0  0  0  0  0  0  0  0  0
  -29.9710  -13.6117   20.3584 N   0  0  0  0  0  0  0  0  0  0  0  0
  -25.4678  -15.0562   20.4059 N   0  0  0  0  0  0  0  0  0  0  0  0
  -21.8867  -12.5787   21.6034 N   0  0  0  0  0  0  0  0  0  0  0  0
  -32.4605  -24.5397   31.1673 N   0  0  0  0  0  0  0  0  0  0  0  0
  -28.4040  -19.4785   33.2625 N   0  0  0  0  0  0  0  0  0  0  0  0
  -30.1435  -15.6751   21.5012 N   0  0  0  0  0  0  0  0  0  0  0  0
  -26.2436  -17.4456   31.1967 N   0  3  0  0  0  0  0  0  0  0  0  0
  -22.6604  -14.7192   21.3233 O   0  0  0  0  0  0  0  0  0  0  0  0
  -32.7782  -22.5602   32.3518 O   0  0  0  0  0  0  0  0  0  0  0  0
  -29.1139  -22.2528   33.1724 O   0  0  0  0  0  0  0  0  0  0  0  0
  -28.9566  -17.6827   31.9036 O   0  0  0  0  0  0  0  0  0  0  0  0
  -31.8768  -14.9237   20.2020 O   0  0  0  0  0  0  0  0  0  0  0  0
  -21.6174   -7.0153   21.7086 O   0  0  0  0  0  0  0  0  0  0  0  0
  -33.9264  -18.4587   27.3155 O   0  0  0  0  0  0  0  0  0  1  0  0
  -18.6350   -6.8519   26.3435 F   0  0  0  0  0  0  0  0  0  0  0  0
  -22.0726   -5.0708   23.6203 F   0  0  0  0  0  0  0  0  0  0  0  0
  1  2  1  0  0  0  0
  1  5  2  0  0  0  0
  2  6  2  0  0  0  0
  3  8  2  0  0  0  0
  3 17  1  0  0  0  0
  4  9  1  0  0  0  0
  4 17  2  0  0  0  0
  5 19  1  0  0  0  0
  6 21  1  0  0  0  0
  7 10  2  0  0  0  0
  7 20  1  0  0  0  0
  8 27  1  0  0  0  0
  9 27  2  0  0  0  0
 10 28  1  0  0  0  0
 11 12  2  0  0  0  0
 11 29  1  0  0  0  0
 12 30  1  0  0  0  0
 13 22  1  0  0  0  0
 13 24  2  0  0  0  0
 14 23  1  0  0  0  0
 14 28  2  0  0  0  0
 15 25  1  0  0  0  0
 15 26  2  0  0  0  0
 16 30  2  0  0  0  0
 16 31  1  0  0  0  0
 17 32  1  0  0  0  0
 18 32  1  0  0  0  0
 18 33  2  0  0  0  0
 18 34  1  0  0  0  0
 19 21  2  0  0  0  0
 19 39  1  0  0  0  0
 20 23  2  0  0  0  0
 20 40  1  0  0  0  0
 21 50  1  0  0  0  0
 22 25  2  0  0  0  0
 22 53  1  0  0  0  0
 23 41  1  0  0  0  0
 24 26  1  0  0  0  0
 24 54  1  0  0  0  0
 25 55  1  0  0  0  0
 26 63  1  0  0  0  0
 27 82  1  0  0  0  0
 28 83  1  0  0  0  0
 29 31  2  0  0  0  0
 29 82  1  0  0  0  0
 30 84  1  0  0  0  0
 31 85  1  0  0  0  0
 32 67  2  0  0  0  0
 33 68  1  0  0  0  0
 33 71  1  0  0  0  0
 34 72  1  0  0  0  0
 34 77  2  0  0  0  0
 35 51  1  0  0  0  0
 35 73  1  0  0  0  0
 35 78  2  0  0  0  0
 36 64  1  0  0  0  0
 36 69  1  0  0  0  0
 36 79  2  0  0  0  0
 37 65  1  0  0  0  0
 37 74  1  0  0  0  0
 37 80  2  0  0  0  0
 38 70  1  0  0  0  0
 38 75  1  0  0  0  0
 38 81  2  0  0  0  0
 39 42  1  0  0  0  0
 40 51  1  0  0  0  0
 41 69  1  0  0  0  0
 42 44  1  0  0  0  0
 43 45  1  0  0  0  0
 43 48  1  0  0  0  0
 44 50  1  0  0  0  0
 45 52  1  0  0  0  0
 46 47  1  0  0  0  0
 46 53  1  0  0  0  0
 47 53  1  0  0  0  0
 48 70  1  0  0  0  0
 49 52  1  0  0  0  0
 49 70  1  0  0  0  0
 50 73  1  0  0  0  0
 51 69  1  0  0  0  0
 52 68  1  0  0  0  0
 53 62  1  0  0  0  0
 56 63  1  0  0  0  0
 57 65  1  0  0  0  0
 58 66  1  0  0  0  0
 59 66  1  0  0  0  0
 60 66  1  0  0  0  0
 61 76  1  0  0  0  0
 62 83  1  0  0  0  0
 63 75  1  0  0  0  0
 64 66  1  0  0  0  0
 64 74  1  0  0  0  0
 65 76  1  0  0  0  0
 67 68  1  0  0  0  0
M  CHG  1  76   1
M  ISO  4  38 100  62 101  75 100  83 101
M  END
> <Batch ID>
0163

> <Smiles>
CNC(C)C(=O)NC(C(=O)N1Cc2cc([101O:1][101CH2:1]C3(c4cc(C)c(C(C)[100NH:0][100C:0](=O)N5CCCC(n6nc(-c7ccc(Oc8ccc(F)cc8F)cc7)c(C(N)=O)c6N)C5)cc4C)CC3)ccc2CC1C(=O)NC1CCCc2ccccc21)C(C)(C)C

> <Shape>
0.168

> <Color>
0.200

> <Negative vol penalty>
0.000

$$$$

  -OEChem-04052322173D

 83 92  0     1  0  0  0  0  0999 V2000
  -16.5189  -29.1263   23.9293 C   0  0  0  0  0  0  0  0  0  0  0  0
  -17.0792  -28.1986   23.0570 C   0  0  0  0  0  0  0  0  0  0  0  0
  -22.8317  -10.5452   20.8325 C   0  0  0  0  0  0  0  0  0  0  0  0
  -24.5492   -8.9381   21.3842 C   0  0  0  0  0  0  0  0  0  0  0  0
  -17.1840  -30.3228   24.1940 C   0  0  0  0  0  0  0  0  0  0  0  0
  -18.3045  -28.4674   22.4480 C   0  0  0  0  0  0  0  0  0  0  0  0
  -23.9376  -24.0688   23.3491 C   0  0  0  0  0  0  0  0  0  0  0  0
  -22.0000   -9.9903   21.8050 C   0  0  0  0  0  0  0  0  0  0  0  0
  -23.7175   -8.3831   22.3568 C   0  0  0  0  0  0  0  0  0  0  0  0
  -25.0000  -23.1660   23.3018 C   0  0  0  0  0  0  0  0  0  0  0  0
  -21.0781   -6.2731   22.4687 C   0  0  0  0  0  0  0  0  0  0  0  0
  -20.9855   -4.8825   22.5255 C   0  0  0  0  0  0  0  0  0  0  0  0
  -26.2855  -24.7314   21.9808 C   0  0  0  0  0  0  0  0  0  0  0  0
  -21.8185   -4.9196   24.7931 C   0  0  0  0  0  0  0  0  0  0  0  0
  -24.1063  -10.0191   20.6220 C   0  0  0  0  0  0  0  0  0  0  0  0
  -24.7115  -10.6883   18.2359 C   0  0  0  0  0  0  0  0  0  0  0  0
  -18.4226  -30.6022   23.5954 C   0  0  0  0  0  0  0  0  0  0  0  0
  -24.0511  -25.3141   22.7247 C   0  0  0  0  0  0  0  0  0  0  0  0
  -18.9861  -29.6694   22.7039 C   0  0  0  0  0  0  0  0  0  0  0  0
  -25.2293  -25.6448   22.0354 C   0  0  0  0  0  0  0  0  0  0  0  0
  -22.4429   -8.9092   22.5672 C   0  0  0  0  0  0  0  0  0  0  0  0
  -26.1709  -23.4964   22.6191 C   0  0  0  0  0  0  0  0  0  0  0  0
  -21.5410   -6.9870   23.5741 C   0  0  0  0  0  0  0  0  0  0  0  0
  -21.3556   -4.2058   23.6876 C   0  0  0  0  0  0  0  0  0  0  0  0
  -21.9111   -6.3102   24.7363 C   0  0  0  0  0  0  0  0  0  0  0  0
  -24.9657  -10.5915   19.6171 C   0  0  0  0  0  0  0  0  0  0  0  0
  -25.8265  -11.3057   17.7239 C   0  0  0  0  0  0  0  0  0  0  0  0
  -23.5695  -10.2586   17.4830 C   0  0  0  0  0  0  0  0  0  0  0  0
  -29.9269  -14.7742   20.8062 C   0  0  0  0  0  0  0  0  0  0  0  0
  -22.4430  -28.6117   21.9397 C   0  0  0  0  0  0  0  0  0  0  0  0
  -25.3811  -29.1893   22.6062 C   0  0  0  0  0  0  0  0  0  0  0  0
  -28.0953  -29.3663   24.1889 C   0  0  0  0  0  0  0  0  0  0  0  0
  -19.0813  -31.9297   23.8755 C   0  0  0  0  0  0  0  0  0  0  0  0
  -22.9090  -26.2933   22.6977 C   0  0  0  0  0  0  0  0  0  0  0  0
  -25.2936  -26.9819   21.3491 C   0  0  0  0  0  0  0  0  0  0  0  0
  -20.5550  -31.9740   23.4797 C   0  0  0  0  0  0  0  0  0  0  0  0
  -30.5124  -11.6476   18.9259 C   0  0  0  0  0  0  0  0  0  0  0  0
  -20.7513  -31.3863   22.0858 C   0  0  0  0  0  0  0  0  0  0  0  0
  -27.9367  -16.2655   21.0504 C   0  0  0  0  0  0  0  0  0  0  0  0
  -29.4823  -15.7995   23.0263 C   0  0  0  0  0  0  0  0  0  0  0  0
  -29.1313  -11.1750   18.4697 C   0  0  0  0  0  0  0  0  0  0  0  0
  -28.5629  -17.6536   20.9023 C   0  0  0  0  0  0  0  0  0  0  0  0
  -30.1053  -17.1848   22.8481 C   0  0  0  0  0  0  0  0  0  0  0  0
  -30.5990  -13.1612   19.0624 C   0  0  0  0  0  0  0  0  0  0  0  0
  -28.3030  -12.9905   20.0494 C   0  0  0  0  0  0  0  0  0  0  0  0
  -30.4072  -20.0689   23.2654 C   0  0  0  0  0  0  0  0  0  0  0  0
  -28.8765  -20.5281   21.4109 C   0  0  0  0  0  0  0  0  0  0  0  0
  -20.3253  -29.9138   22.0430 C   0  0  1  0  0  0  0  0  0  0  0  0
  -28.8547  -15.2538   21.7411 C   0  0  0  0  0  0  0  0  0  0  0  0
  -23.3705  -27.7605   22.7562 C   0  0  1  0  0  0  0  0  0  0  0  0
  -29.7358  -21.4295   23.4276 C   0  0  2  0  0  0  0  0  0  0  0  0
  -29.4139  -21.8302   21.9870 C   0  0  2  0  0  0  0  0  0  0  0  0
  -28.0157  -12.1923   18.7684 C   0  0  2  0  0  0  0  0  0  0  0  0
  -29.1032  -18.1580   22.2362 C   0  0  0  0  0  0  0  0  0  0  0  0
  -30.6179  -22.4241   24.1665 C   0  0  0  0  0  0  0  0  0  0  0  0
  -30.2741  -29.9062   25.3107 C   0  0  0  0  0  0  0  0  0  0  0  0
  -25.9943  -29.3963   19.6254 C   0  0  0  0  0  0  0  0  0  0  0  0
  -28.2653  -30.2630   20.2250 C   0  0  0  0  0  0  0  0  0  0  0  0
  -26.2288  -31.5408   20.8904 C   0  0  0  0  0  0  0  0  0  0  0  0
  -26.7301  -30.6294   26.4909 C   0  0  0  0  0  0  0  0  0  0  0  0
  -28.4137  -22.9695   21.8686 C   0  0  0  0  0  0  0  0  0  1  0  0
  -26.7824  -29.3819   22.0840 C   0  0  1  0  0  0  0  0  0  0  0  0
  -28.8123  -30.2945   25.1526 C   0  0  2  0  0  0  0  0  0  0  0  0
  -26.8088  -30.1203   20.7160 C   0  0  0  0  0  0  0  0  0  0  0  0
  -26.1494  -11.1061   19.9608 N   0  0  0  0  0  0  0  0  0  0  0  0
  -26.6489  -11.5320   18.7881 N   0  0  0  0  0  0  0  0  0  0  0  0
  -29.6021  -13.6785   20.0030 N   0  0  0  0  0  0  0  0  0  0  0  0
  -24.7161  -28.0203   22.2169 N   0  0  0  0  0  0  0  0  0  0  0  0
  -26.1739  -11.6714   16.4718 N   0  0  0  0  0  0  0  0  0  0  0  0
  -22.5088  -11.1576   17.3064 N   0  0  0  0  0  0  0  0  0  0  0  0
  -21.3442  -29.0755   22.6376 N   0  0  0  0  0  0  0  0  0  0  0  0
  -27.5232  -30.0589   23.1429 N   0  0  0  0  0  0  0  0  0  0  0  0
  -29.7794  -19.4736   22.0171 N   0  3  2  0  0  0  0  0  0  0  0  0
  -28.1658  -30.2476   26.4946 N   0  3  0  0  0  0  0  0  0  0  0  0
  -23.4849   -9.1059   16.9955 O   0  0  0  0  0  0  0  0  0  0  0  0
  -31.0162  -15.3522   20.7819 O   0  0  0  0  0  0  0  0  0  0  0  0
  -22.7047  -28.8334   20.7633 O   0  0  0  0  0  0  0  0  0  0  0  0
  -24.8851  -30.0530   23.3350 O   0  0  0  0  0  0  0  0  0  0  0  0
  -28.0507  -28.1481   24.3461 O   0  0  0  0  0  0  0  0  0  0  0  0
  -21.6317   -8.3676   23.5165 O   0  0  0  0  0  0  0  0  0  0  0  0
  -27.2060  -22.6121   22.5807 O   0  0  0  0  0  0  0  0  0  1  0  0
  -21.2652   -2.8705   23.7425 F   0  0  0  0  0  0  0  0  0  0  0  0
  -22.3554   -6.9907   25.8018 F   0  0  0  0  0  0  0  0  0  0  0  0
  1  2  1  0  0  0  0
  1  5  2  0  0  0  0
  2  6  2  0  0  0  0
  3  8  2  0  0  0  0
  3 15  1  0  0  0  0
  4  9  1  0  0  0  0
  4 15  2  0  0  0  0
  5 17  1  0  0  0  0
  6 19  1  0  0  0  0
  7 10  2  0  0  0  0
  7 18  1  0  0  0  0
  8 21  1  0  0  0  0
  9 21  2  0  0  0  0
 10 22  1  0  0  0  0
 11 12  2  0  0  0  0
 11 23  1  0  0  0  0
 12 24  1  0  0  0  0
 13 20  1  0  0  0  0
 13 22  2  0  0  0  0
 14 24  2  0  0  0  0
 14 25  1  0  0  0  0
 15 26  1  0  0  0  0
 16 26  1  0  0  0  0
 16 27  2  0  0  0  0
 16 28  1  0  0  0  0
 17 19  2  0  0  0  0
 17 33  1  0  0  0  0
 18 20  2  0  0  0  0
 18 34  1  0  0  0  0
 19 48  1  0  0  0  0
 20 35  1  0  0  0  0
 21 80  1  0  0  0  0
 22 81  1  0  0  0  0
 23 25  2  0  0  0  0
 23 80  1  0  0  0  0
 24 82  1  0  0  0  0
 25 83  1  0  0  0  0
 26 65  2  0  0  0  0
 27 66  1  0  0  0  0
 27 69  1  0  0  0  0
 28 70  1  0  0  0  0
 28 75  2  0  0  0  0
 29 49  1  0  0  0  0
 29 67  1  0  0  0  0
 29 76  2  0  0  0  0
 30 50  1  0  0  0  0
 30 71  1  0  0  0  0
 30 77  2  0  0  0  0
 31 62  1  0  0  0  0
 31 68  1  0  0  0  0
 31 78  2  0  0  0  0
 32 63  1  0  0  0  0
 32 72  1  0  0  0  0
 32 79  2  0  0  0  0
 33 36  1  0  0  0  0
 34 50  1  0  0  0  0
 35 68  1  0  0  0  0
 36 38  1  0  0  0  0
 37 41  1  0  0  0  0
 37 44  1  0  0  0  0
 38 48  1  0  0  0  0
 39 42  1  0  0  0  0
 39 49  1  0  0  0  0
 40 43  1  0  0  0  0
 40 49  1  0  0  0  0
 41 53  1  0  0  0  0
 42 54  1  0  0  0  0
 43 54  1  0  0  0  0
 44 67  1  0  0  0  0
 45 53  1  0  0  0  0
 45 67  1  0  0  0  0
 46 51  1  0  0  0  0
 46 73  1  0  0  0  0
 47 52  1  0  0  0  0
 47 73  1  0  0  0  0
 48 71  1  0  0  0  0
 50 68  1  0  0  0  0
 51 52  1  0  0  0  0
 51 55  1  0  0  0  0
 52 61  1  0  0  0  0
 53 66  1  0  0  0  0
 54 73  1  0  0  0  0
 56 63  1  0  0  0  0
 57 64  1  0  0  0  0
 58 64  1  0  0  0  0
 59 64  1  0  0  0  0
 60 74  1  0  0  0  0
 61 81  1  0  0  0  0
 62 64  1  0  0  0  0
 62 72  1  0  0  0  0
 63 74  1  0  0  0  0
 65 66  1  0  0  0  0
M  CHG  2  73   1  74   1
M  ISO  4  29 100  49 100  61 101  81 101
M  END
> <Batch ID>
0163

> <Smiles>
CNC(C)C(=O)NC(C(=O)N1Cc2cc([101O:1][101CH2:1]C3CN(C4CC[100CH:0]([100C:0](=O)N5CCCC(n6nc(-c7ccc(Oc8ccc(F)cc8F)cc7)c(C(N)=O)c6N)C5)CC4)CC3C)ccc2CC1C(=O)NC1CCCc2ccccc21)C(C)(C)C

> <Shape>
0.282

> <Color>
0.096

> <Negative vol penalty>
0.000

$$$$

  -OEChem-04052322173D

 91101  0     1  0  0  0  0  0999 V2000
  -25.0173  -37.9329   18.6336 C   0  0  0  0  0  0  0  0  0  0  0  0
  -25.6989  -36.8260   18.1381 C   0  0  0  0  0  0  0  0  0  0  0  0
  -24.1198  -11.6836   23.3429 C   0  0  0  0  0  0  0  0  0  0  0  0
  -23.1558  -10.6961   21.3598 C   0  0  0  0  0  0  0  0  0  0  0  0
  -24.5431  -37.9287   19.9447 C   0  0  0  0  0  0  0  0  0  0  0  0
  -25.9078  -35.7146   18.9539 C   0  0  0  0  0  0  0  0  0  0  0  0
  -26.4358  -28.5775   18.6377 C   0  0  0  0  0  0  0  0  0  0  0  0
  -23.3447  -10.8406   24.1394 C   0  0  0  0  0  0  0  0  0  0  0  0
  -22.3808   -9.8531   22.1563 C   0  0  0  0  0  0  0  0  0  0  0  0
  -27.2854  -27.5422   19.0249 C   0  0  0  0  0  0  0  0  0  0  0  0
  -22.8108   -6.9978   23.9120 C   0  0  0  0  0  0  0  0  0  0  0  0
  -22.7411   -5.6520   23.5521 C   0  0  0  0  0  0  0  0  0  0  0  0
  -26.3520  -27.6158   21.2481 C   0  0  0  0  0  0  0  0  0  0  0  0
  -20.3458   -5.8433   23.3006 C   0  0  0  0  0  0  0  0  0  0  0  0
  -24.0253  -11.6113   21.9531 C   0  0  0  0  0  0  0  0  0  0  0  0
  -26.1160  -12.2289   20.6283 C   0  0  0  0  0  0  0  0  0  0  0  0
  -24.7378  -36.8128   20.7739 C   0  0  0  0  0  0  0  0  0  0  0  0
  -25.5440  -29.1481   19.5573 C   0  0  0  0  0  0  0  0  0  0  0  0
  -25.4369  -35.6959   20.2778 C   0  0  0  0  0  0  0  0  0  0  0  0
  -25.4904  -28.6565   20.8693 C   0  0  0  0  0  0  0  0  0  0  0  0
  -30.1658  -24.7776   23.0218 C   0  0  0  0  0  0  0  0  0  0  0  0
  -31.0804  -23.7316   23.2703 C   0  0  0  0  0  0  0  0  0  0  0  0
  -29.6275  -22.2200   22.0097 C   0  0  0  0  0  0  0  0  0  0  0  0
  -28.9879  -24.5200   22.2979 C   0  0  0  0  0  0  0  0  0  0  0  0
  -30.7946  -22.4589   22.7369 C   0  0  0  0  0  0  0  0  0  0  0  0
  -28.7213  -23.2498   21.7940 C   0  0  0  0  0  0  0  0  0  0  0  0
  -22.4752   -9.9254   23.5461 C   0  0  0  0  0  0  0  0  0  0  0  0
  -27.2457  -27.0631   20.3310 C   0  0  0  0  0  0  0  0  0  0  0  0
  -21.6480   -7.7664   23.9663 C   0  0  0  0  0  0  0  0  0  0  0  0
  -21.5086   -5.0747   23.2464 C   0  0  0  0  0  0  0  0  0  0  0  0
  -20.4156   -7.1891   23.6605 C   0  0  0  0  0  0  0  0  0  0  0  0
  -24.8252  -12.4822   21.1299 C   0  0  0  0  0  0  0  0  0  0  0  0
  -26.4332  -13.3568   19.9115 C   0  0  0  0  0  0  0  0  0  0  0  0
  -26.9533  -11.0771   20.7954 C   0  0  0  0  0  0  0  0  0  0  0  0
  -25.1503  -32.0487   20.7962 C   0  0  0  0  0  0  0  0  0  0  0  0
  -22.5071  -30.7033   22.1099 C   0  0  0  0  0  0  0  0  0  0  0  0
  -20.9038  -27.8713   23.1375 C   0  0  0  0  0  0  0  0  0  0  0  0
  -26.5826  -18.7886   19.2086 C   0  0  0  0  0  0  0  0  0  0  0  0
  -24.2483  -36.8732   22.1992 C   0  0  0  0  0  0  0  0  0  0  0  0
  -24.6154  -30.2462   19.1167 C   0  0  0  0  0  0  0  0  0  0  0  0
  -30.3741  -26.1736   23.5520 C   0  0  0  0  0  0  0  0  0  0  0  0
  -24.5369  -29.2212   21.8894 C   0  0  0  0  0  0  0  0  0  0  0  0
  -24.1836  -35.5082   22.8794 C   0  0  0  0  0  0  0  0  0  0  0  0
  -31.8189  -26.4595   23.9349 C   0  0  0  0  0  0  0  0  0  0  0  0
  -23.5745  -17.2594   18.4595 C   0  0  0  0  0  0  0  0  0  0  0  0
  -25.4654  -34.7223   22.6223 C   0  0  0  0  0  0  0  0  0  0  0  0
  -23.7263  -15.8543   19.0416 C   0  0  0  0  0  0  0  0  0  0  0  0
  -32.3550  -25.3288   24.8007 C   0  0  0  0  0  0  0  0  0  0  0  0
  -28.0638  -20.2263   22.0471 C   0  0  0  0  0  0  0  0  0  0  0  0
  -29.2670  -20.8496   19.9085 C   0  0  0  0  0  0  0  0  0  0  0  0
  -24.1616  -18.3058   19.3996 C   0  0  0  0  0  0  0  0  0  0  0  0
  -27.7627  -18.8485   21.4502 C   0  0  0  0  0  0  0  0  0  0  0  0
  -28.9616  -19.4533   19.3742 C   0  0  0  0  0  0  0  0  0  0  0  0
  -25.7635  -16.6668   20.3301 C   0  0  0  0  0  0  0  0  0  0  0  0
  -29.3407  -20.8410   21.4462 C   0  0  0  0  0  0  0  0  0  0  0  0
  -25.6616  -34.4616   21.1240 C   0  0  1  0  0  0  0  0  0  0  0  0
  -24.1082  -31.1003   20.2746 C   0  0  1  0  0  0  0  0  0  0  0  0
  -25.1912  -15.5655   19.4146 C   0  0  1  0  0  0  0  0  0  0  0  0
  -32.3784  -23.9705   24.0519 C   0  0  0  0  0  0  0  0  0  0  0  0
  -31.7297  -21.2950   22.8668 C   0  0  0  0  0  0  0  0  0  0  0  0
  -27.4653  -22.9941   21.0219 C   0  0  0  0  0  0  0  0  0  0  0  0
  -32.6094  -22.8772   25.1200 C   0  0  0  0  0  0  0  0  0  0  0  0
  -33.5641  -23.9442   23.0627 C   0  0  0  0  0  0  0  0  0  0  0  0
  -18.7707  -27.0927   24.2057 C   0  0  0  0  0  0  0  0  0  0  0  0
  -23.5128  -31.6756   24.8215 C   0  0  0  0  0  0  0  0  0  0  0  0
  -21.9036  -30.0945   25.9072 C   0  0  0  0  0  0  0  0  0  0  0  0
  -21.0520  -31.9429   24.4646 C   0  0  0  0  0  0  0  0  0  0  0  0
  -20.1797  -26.2420   20.7753 C   0  0  0  0  0  0  0  0  0  0  0  0
  -27.9838  -25.6090   22.0621 C   0  0  0  0  0  0  0  0  0  1  0  0
  -22.2079  -29.9662   23.3929 C   0  0  1  0  0  0  0  0  0  0  0  0
  -19.4918  -27.3690   22.8956 C   0  0  2  0  0  0  0  0  0  0  0  0
  -22.1885  -30.9102   24.6281 C   0  0  0  0  0  0  0  0  0  0  0  0
  -24.3547  -13.6772   20.7629 N   0  0  0  0  0  0  0  0  0  0  0  0
  -25.3553  -14.1849   20.0232 N   0  0  0  0  0  0  0  0  0  0  0  0
  -23.6535  -30.2979   21.4119 N   0  0  0  0  0  0  0  0  0  0  0  0
  -25.5515  -17.9945   19.7327 N   0  0  0  0  0  0  0  0  0  0  0  0
  -27.7467  -18.9111   19.9821 N   0  0  0  0  0  0  0  0  0  0  0  0
  -27.5263  -13.7110   19.2029 N   0  0  0  0  0  0  0  0  0  0  0  0
  -26.4726  -10.0073   21.5626 N   0  0  0  0  0  0  0  0  0  0  0  0
  -24.8050  -33.3819   20.6825 N   0  0  0  0  0  0  0  0  0  0  0  0
  -20.9574  -29.2488   23.1694 N   0  0  0  0  0  0  0  0  0  0  0  0
  -19.5194  -26.1095   22.0995 N   0  3  0  0  0  0  0  0  0  0  0  0
  -28.1006  -11.0057   20.2932 O   0  0  0  0  0  0  0  0  0  0  0  0
  -26.1899  -31.6039   21.2684 O   0  0  0  0  0  0  0  0  0  0  0  0
  -21.7475  -31.6009   21.7369 O   0  0  0  0  0  0  0  0  0  0  0  0
  -21.8626  -27.1171   23.2872 O   0  0  0  0  0  0  0  0  0  0  0  0
  -26.4708  -19.3545   18.1139 O   0  0  0  0  0  0  0  0  0  0  0  0
  -21.7190   -9.1026   24.3230 O   0  0  0  0  0  0  0  0  0  0  0  0
  -28.0808  -26.0451   20.7147 O   0  0  0  0  0  0  0  0  0  1  0  0
  -21.4420   -3.7827   22.8993 F   0  0  0  0  0  0  0  0  0  0  0  0
  -19.2952   -7.9228   23.7097 F   0  0  0  0  0  0  0  0  0  0  0  0
  1  2  1  0  0  0  0
  1  5  2  0  0  0  0
  2  6  2  0  0  0  0
  3  8  2  0  0  0  0
  3 15  1  0  0  0  0
  4  9  1  0  0  0  0
  4 15  2  0  0  0  0
  5 17  1  0  0  0  0
  6 19  1  0  0  0  0
  7 10  2  0  0  0  0
  7 18  1  0  0  0  0
  8 27  1  0  0  0  0
  9 27  2  0  0  0  0
 10 28  1  0  0  0  0
 11 12  2  0  0  0  0
 11 29  1  0  0  0  0
 12 30  1  0  0  0  0
 13 20  1  0  0  0  0
 13 28  2  0  0  0  0
 14 30  2  0  0  0  0
 14 31  1  0  0  0  0
 15 32  1  0  0  0  0
 16 32  1  0  0  0  0
 16 33  2  0  0  0  0
 16 34  1  0  0  0  0
 17 19  2  0  0  0  0
 17 39  1  0  0  0  0
 18 20  2  0  0  0  0
 18 40  1  0  0  0  0
 19 56  1  0  0  0  0
 20 42  1  0  0  0  0
 21 22  1  0  0  0  0
 21 24  2  0  0  0  0
 21 41  1  0  0  0  0
 22 25  2  0  0  0  0
 22 59  1  0  0  0  0
 23 25  1  0  0  0  0
 23 26  2  0  0  0  0
 23 55  1  0  0  0  0
 24 26  1  0  0  0  0
 24 69  1  0  0  0  0
 25 60  1  0  0  0  0
 26 61  1  0  0  0  0
 27 88  1  0  0  0  0
 28 89  1  0  0  0  0
 29 31  2  0  0  0  0
 29 88  1  0  0  0  0
 30 90  1  0  0  0  0
 31 91  1  0  0  0  0
 32 73  2  0  0  0  0
 33 74  1  0  0  0  0
 33 78  1  0  0  0  0
 34 79  1  0  0  0  0
 34 83  2  0  0  0  0
 35 57  1  0  0  0  0
 35 80  1  0  0  0  0
 35 84  2  0  0  0  0
 36 70  1  0  0  0  0
 36 75  1  0  0  0  0
 36 85  2  0  0  0  0
 37 71  1  0  0  0  0
 37 81  1  0  0  0  0
 37 86  2  0  0  0  0
 38 76  1  0  0  0  0
 38 77  1  0  0  0  0
 38 87  2  0  0  0  0
 39 43  1  0  0  0  0
 40 57  1  0  0  0  0
 41 44  1  0  0  0  0
 42 75  1  0  0  0  0
 43 46  1  0  0  0  0
 44 48  1  0  0  0  0
 45 47  1  0  0  0  0
 45 51  1  0  0  0  0
 46 56  1  0  0  0  0
 47 58  1  0  0  0  0
 48 59  1  0  0  0  0
 49 52  1  0  0  0  0
 49 55  1  0  0  0  0
 50 53  1  0  0  0  0
 50 55  1  0  0  0  0
 51 76  1  0  0  0  0
 52 77  1  0  0  0  0
 53 77  1  0  0  0  0
 54 58  1  0  0  0  0
 54 76  1  0  0  0  0
 56 80  1  0  0  0  0
 57 75  1  0  0  0  0
 58 74  1  0  0  0  0
 59 62  1  0  0  0  0
 59 63  1  0  0  0  0
 64 71  1  0  0  0  0
 65 72  1  0  0  0  0
 66 72  1  0  0  0  0
 67 72  1  0  0  0  0
 68 82  1  0  0  0  0
 69 89  1  0  0  0  0
 70 72  1  0  0  0  0
 70 81  1  0  0  0  0
 71 82  1  0  0  0  0
 73 74  1  0  0  0  0
M  CHG  1  82   1
M  ISO  4  38 100  69 101  77 100  89 101
M  END
> <Batch ID>
0163

> <Smiles>
CNC(C)C(=O)NC(C(=O)N1Cc2cc([101O:1][101CH2:1]c3c(C)c(C4CC[100N:0]([100C:0](=O)N5CCCC(n6nc(-c7ccc(Oc8ccc(F)cc8F)cc7)c(C(N)=O)c6N)C5)CC4)c(C)c4c3CCCC4(C)C)ccc2CC1C(=O)NC1CCCc2ccccc21)C(C)(C)C

> <Shape>
0.263

> <Color>
0.063

> <Negative vol penalty>
0.000

$$$$

  -OEChem-04052322173D

 84 93  0     1  0  0  0  0  0999 V2000
  -26.1712  -28.1230   18.6271 C   0  0  0  0  0  0  0  0  0  0  0  0
  -26.2554  -27.0448   19.5022 C   0  0  0  0  0  0  0  0  0  0  0  0
  -23.0083   -9.9271   20.3133 C   0  0  0  0  0  0  0  0  0  0  0  0
  -23.7456  -10.2386   22.5929 C   0  0  0  0  0  0  0  0  0  0  0  0
  -25.6307  -29.3322   19.0624 C   0  0  0  0  0  0  0  0  0  0  0  0
  -25.8000  -27.1756   20.8137 C   0  0  0  0  0  0  0  0  0  0  0  0
  -23.0312  -23.2096   22.3134 C   0  0  0  0  0  0  0  0  0  0  0  0
  -22.2270   -8.8434   20.7141 C   0  0  0  0  0  0  0  0  0  0  0  0
  -22.9643   -9.1548   22.9937 C   0  0  0  0  0  0  0  0  0  0  0  0
  -23.7199  -22.0528   22.6756 C   0  0  0  0  0  0  0  0  0  0  0  0
  -20.3176   -5.7701   21.0784 C   0  0  0  0  0  0  0  0  0  0  0  0
  -20.3584   -4.6152   20.2973 C   0  0  0  0  0  0  0  0  0  0  0  0
  -23.4676  -22.6382   25.0021 C   0  0  0  0  0  0  0  0  0  0  0  0
  -22.7334   -4.4273   20.6991 C   0  0  0  0  0  0  0  0  0  0  0  0
  -30.3109  -17.7576   23.8248 C   0  0  0  0  0  0  0  0  0  0  0  0
  -23.7677  -10.6247   21.2527 C   0  0  0  0  0  0  0  0  0  0  0  0
  -24.1880  -13.0961   20.7801 C   0  0  0  0  0  0  0  0  0  0  0  0
  -25.1596  -29.4750   20.3771 C   0  0  0  0  0  0  0  0  0  0  0  0
  -22.5643  -24.0965   23.2942 C   0  0  0  0  0  0  0  0  0  0  0  0
  -25.2539  -28.3883   21.2674 C   0  0  0  0  0  0  0  0  0  0  0  0
  -22.7711  -23.8043   24.6499 C   0  0  0  0  0  0  0  0  0  0  0  0
  -30.1145  -17.6304   22.4591 C   0  0  0  0  0  0  0  0  0  0  0  0
  -29.1203  -18.4033   21.8698 C   0  0  0  0  0  0  0  0  0  0  0  0
  -28.3634  -19.2676   22.6530 C   0  0  0  0  0  0  0  0  0  0  0  0
  -22.2049   -8.4572   22.0542 C   0  0  0  0  0  0  0  0  0  0  0  0
  -23.9407  -21.7684   24.0200 C   0  0  0  0  0  0  0  0  0  0  0  0
  -21.4847   -6.2536   21.6698 C   0  0  0  0  0  0  0  0  0  0  0  0
  -21.5662   -3.9438   20.1077 C   0  0  0  0  0  0  0  0  0  0  0  0
  -22.6926   -5.5822   21.4802 C   0  0  0  0  0  0  0  0  0  0  0  0
  -24.5754  -11.7440   20.8393 C   0  0  0  0  0  0  0  0  0  0  0  0
  -28.6380  -19.3214   24.0101 C   0  0  0  0  0  0  0  0  0  0  0  0
  -25.3061  -13.7542   20.3294 C   0  0  0  0  0  0  0  0  0  0  0  0
  -22.9299  -13.7029   21.1037 C   0  0  0  0  0  0  0  0  0  0  0  0
  -23.1367  -27.1366   24.0249 C   0  0  0  0  0  0  0  0  0  0  0  0
  -20.7349  -26.6709   26.1549 C   0  0  0  0  0  0  0  0  0  0  0  0
  -18.9222  -24.4824   28.0447 C   0  0  0  0  0  0  0  0  0  0  0  0
  -30.8334  -14.5610   20.6117 C   0  0  0  0  0  0  0  0  0  0  0  0
  -24.6268  -30.8160   20.8157 C   0  0  0  0  0  0  0  0  0  0  0  0
  -21.7998  -25.3265   22.8881 C   0  0  0  0  0  0  0  0  0  0  0  0
  -22.2724  -24.7136   25.7421 C   0  0  0  0  0  0  0  0  0  0  0  0
  -23.8229  -30.7576   22.1121 C   0  0  0  0  0  0  0  0  0  0  0  0
  -29.6233  -11.9896   18.3928 C   0  0  0  0  0  0  0  0  0  0  0  0
  -24.5603  -29.9310   23.1608 C   0  0  0  0  0  0  0  0  0  0  0  0
  -28.1819  -11.7814   18.8560 C   0  0  0  0  0  0  0  0  0  0  0  0
  -27.7400  -19.9143   26.3610 C   0  0  0  0  0  0  0  0  0  0  0  0
  -30.5420  -12.3318   19.5614 C   0  0  0  0  0  0  0  0  0  0  0  0
  -28.6433  -13.3115   20.8233 C   0  0  0  0  0  0  0  0  0  0  0  0
  -24.7478  -28.4836   22.6905 C   0  0  1  0  0  0  0  0  0  0  0  0
  -27.8569  -20.2284   24.8852 C   0  0  2  0  0  0  0  0  0  0  0  0
  -21.8181  -26.4198   23.9519 C   0  0  1  0  0  0  0  0  0  0  0  0
  -26.5462  -19.7439   25.4693 C   0  0  2  0  0  0  0  0  0  0  0  0
  -27.6819  -12.9908   19.6659 C   0  0  2  0  0  0  0  0  0  0  0  0
  -28.8680  -18.3033   20.3994 C   0  0  0  0  0  0  0  0  0  0  0  0
  -27.2903  -20.1089   22.0468 C   0  0  0  0  0  0  0  0  0  0  0  0
  -17.0499  -24.4025   29.7136 C   0  0  0  0  0  0  0  0  0  0  0  0
  -22.6242  -27.6973   28.3198 C   0  0  0  0  0  0  0  0  0  0  0  0
  -21.0818  -26.7186   30.0320 C   0  0  0  0  0  0  0  0  0  0  0  0
  -20.2712  -28.5226   28.5117 C   0  0  0  0  0  0  0  0  0  0  0  0
  -17.2566  -22.7993   26.2693 C   0  0  0  0  0  0  0  0  0  0  0  0
  -30.9556  -16.6881   21.6696 C   0  0  0  0  0  0  0  0  0  0  0  0
  -25.3698  -20.6895   25.5851 C   0  0  0  0  0  0  0  0  0  1  0  0
  -20.6522  -26.2006   27.5870 C   0  0  1  0  0  0  0  0  0  0  0  0
  -17.4257  -24.3218   28.2422 C   0  0  2  0  0  0  0  0  0  0  0  0
  -21.1685  -27.2684   28.5922 C   0  0  0  0  0  0  0  0  0  0  0  0
  -29.5957  -18.5861   24.6183 N   0  0  0  0  0  0  0  0  0  0  0  0
  -25.8407  -11.5529   20.4566 N   0  0  0  0  0  0  0  0  0  0  0  0
  -26.2581  -12.7937   20.1526 N   0  0  0  0  0  0  0  0  0  0  0  0
  -21.5360  -25.9071   25.2942 N   0  0  0  0  0  0  0  0  0  0  0  0
  -30.0192  -13.4589   20.3326 N   0  0  0  0  0  0  0  0  0  0  0  0
  -25.5580  -15.0551   20.0710 N   0  0  0  0  0  0  0  0  0  0  0  0
  -21.8873  -12.8807   21.5524 N   0  0  0  0  0  0  0  0  0  0  0  0
  -23.5156  -27.7396   22.8407 N   0  0  0  0  0  0  0  0  0  0  0  0
  -19.2676  -25.7955   27.8043 N   0  0  0  0  0  0  0  0  0  0  0  0
  -16.9717  -23.0047   27.7128 N   0  3  0  0  0  0  0  0  0  0  0  0
  -22.7310  -14.9355   20.9823 O   0  0  0  0  0  0  0  0  0  0  0  0
  -23.7632  -27.1433   25.0781 O   0  0  0  0  0  0  0  0  0  0  0  0
  -20.1060  -27.6748   25.8108 O   0  0  0  0  0  0  0  0  0  0  0  0
  -19.7068  -23.5381   28.1019 O   0  0  0  0  0  0  0  0  0  0  0  0
  -32.0032  -14.6679   20.2479 O   0  0  0  0  0  0  0  0  0  0  0  0
  -21.4425   -7.3999   22.4457 O   0  0  0  0  0  0  0  0  0  0  0  0
  -24.6132  -20.6402   24.3762 O   0  0  0  0  0  0  0  0  0  1  0  0
  -30.1883  -15.5239   21.3416 O   0  0  0  0  0  0  0  0  0  0  0  0
  -21.6050   -2.8339   19.3588 F   0  0  0  0  0  0  0  0  0  0  0  0
  -23.8169   -6.0413   22.0468 F   0  0  0  0  0  0  0  0  0  0  0  0
  1  2  1  0  0  0  0
  1  5  2  0  0  0  0
  2  6  2  0  0  0  0
  3  8  2  0  0  0  0
  3 16  1  0  0  0  0
  4  9  1  0  0  0  0
  4 16  2  0  0  0  0
  5 18  1  0  0  0  0
  6 20  1  0  0  0  0
  7 10  2  0  0  0  0
  7 19  1  0  0  0  0
  8 25  1  0  0  0  0
  9 25  2  0  0  0  0
 10 26  1  0  0  0  0
 11 12  2  0  0  0  0
 11 27  1  0  0  0  0
 12 28  1  0  0  0  0
 13 21  1  0  0  0  0
 13 26  2  0  0  0  0
 14 28  2  0  0  0  0
 14 29  1  0  0  0  0
 15 22  1  0  0  0  0
 15 65  2  0  0  0  0
 16 30  1  0  0  0  0
 17 30  1  0  0  0  0
 17 32  2  0  0  0  0
 17 33  1  0  0  0  0
 18 20  2  0  0  0  0
 18 38  1  0  0  0  0
 19 21  2  0  0  0  0
 19 39  1  0  0  0  0
 20 48  1  0  0  0  0
 21 40  1  0  0  0  0
 22 23  2  0  0  0  0
 22 60  1  0  0  0  0
 23 24  1  0  0  0  0
 23 53  1  0  0  0  0
 24 31  2  0  0  0  0
 24 54  1  0  0  0  0
 25 80  1  0  0  0  0
 26 81  1  0  0  0  0
 27 29  2  0  0  0  0
 27 80  1  0  0  0  0
 28 83  1  0  0  0  0
 29 84  1  0  0  0  0
 30 66  2  0  0  0  0
 31 49  1  0  0  0  0
 31 65  1  0  0  0  0
 32 67  1  0  0  0  0
 32 70  1  0  0  0  0
 33 71  1  0  0  0  0
 33 75  2  0  0  0  0
 34 50  1  0  0  0  0
 34 72  1  0  0  0  0
 34 76  2  0  0  0  0
 35 62  1  0  0  0  0
 35 68  1  0  0  0  0
 35 77  2  0  0  0  0
 36 63  1  0  0  0  0
 36 73  1  0  0  0  0
 36 78  2  0  0  0  0
 37 69  1  0  0  0  0
 37 79  2  0  0  0  0
 37 82  1  0  0  0  0
 38 41  1  0  0  0  0
 39 50  1  0  0  0  0
 40 68  1  0  0  0  0
 41 43  1  0  0  0  0
 42 44  1  0  0  0  0
 42 46  1  0  0  0  0
 43 48  1  0  0  0  0
 44 52  1  0  0  0  0
 45 49  1  0  0  0  0
 45 51  1  0  0  0  0
 46 69  1  0  0  0  0
 47 52  1  0  0  0  0
 47 69  1  0  0  0  0
 48 72  1  0  0  0  0
 49 51  1  0  0  0  0
 50 68  1  0  0  0  0
 51 61  1  0  0  0  0
 52 67  1  0  0  0  0
 55 63  1  0  0  0  0
 56 64  1  0  0  0  0
 57 64  1  0  0  0  0
 58 64  1  0  0  0  0
 59 74  1  0  0  0  0
 60 82  1  0  0  0  0
 61 81  1  0  0  0  0
 62 64  1  0  0  0  0
 62 73  1  0  0  0  0
 63 74  1  0  0  0  0
 66 67  1  0  0  0  0
M  CHG  1  74   1
M  ISO  4  37 100  61 101  81 101  82 100
M  END
> <Batch ID>
0163

> <Smiles>
CNC(C)C(=O)NC(C(=O)N1Cc2cc([101O:1][101CH2:1]C3CC3c3ncc(C[100O:0][100C:0](=O)N4CCCC(n5nc(-c6ccc(Oc7ccc(F)cc7F)cc6)c(C(N)=O)c5N)C4)c(C)c3C)ccc2CC1C(=O)NC1CCCc2ccccc21)C(C)(C)C

> <Shape>
0.228

> <Color>
0.209

> <Negative vol penalty>
0.000

$$$$

  -OEChem-04052322173D

 90100  0     1  0  0  0  0  0999 V2000
  -18.9533  -26.2842   23.5986 C   0  0  0  0  0  0  0  0  0  0  0  0
  -19.8773  -26.2157   22.5608 C   0  0  0  0  0  0  0  0  0  0  0  0
  -24.1163   -9.0756   23.2429 C   0  0  0  0  0  0  0  0  0  0  0  0
  -25.0086   -8.7165   21.0266 C   0  0  0  0  0  0  0  0  0  0  0  0
  -18.4493  -27.5203   24.0013 C   0  0  0  0  0  0  0  0  0  0  0  0
  -20.2969  -27.3832   21.9242 C   0  0  0  0  0  0  0  0  0  0  0  0
  -25.3097  -27.5164   21.2177 C   0  0  0  0  0  0  0  0  0  0  0  0
  -23.0373   -8.2441   22.9432 C   0  0  0  0  0  0  0  0  0  0  0  0
  -23.9296   -7.8849   20.7269 C   0  0  0  0  0  0  0  0  0  0  0  0
  -25.8242  -26.7646   20.1623 C   0  0  0  0  0  0  0  0  0  0  0  0
  -22.4304   -4.9234   22.7484 C   0  0  0  0  0  0  0  0  0  0  0  0
  -22.0574   -3.9763   23.7021 C   0  0  0  0  0  0  0  0  0  0  0  0
  -29.4916  -20.7636   18.5641 C   0  0  0  0  0  0  0  0  0  0  0  0
  -25.9531  -28.7595   18.8121 C   0  0  0  0  0  0  0  0  0  0  0  0
  -29.4625  -20.8916   21.3473 C   0  0  0  0  0  0  0  0  0  0  0  0
  -19.8631   -4.9780   23.8388 C   0  0  0  0  0  0  0  0  0  0  0  0
  -25.1020   -9.3119   22.2846 C   0  0  0  0  0  0  0  0  0  0  0  0
  -27.1677   -9.9954   23.6162 C   0  0  0  0  0  0  0  0  0  0  0  0
  -18.8703  -28.7044   23.3757 C   0  0  0  0  0  0  0  0  0  0  0  0
  -25.1025  -28.8959   21.0744 C   0  0  0  0  0  0  0  0  0  0  0  0
  -19.7971  -28.6362   22.3180 C   0  0  0  0  0  0  0  0  0  0  0  0
  -28.8039  -19.7833   19.2935 C   0  0  0  0  0  0  0  0  0  0  0  0
  -25.4383  -29.5270   19.8681 C   0  0  0  0  0  0  0  0  0  0  0  0
  -28.8029  -19.8375   20.6987 C   0  0  0  0  0  0  0  0  0  0  0  0
  -30.1506  -21.8022   19.2208 C   0  0  0  0  0  0  0  0  0  0  0  0
  -22.9439   -7.6487   21.6852 C   0  0  0  0  0  0  0  0  0  0  0  0
  -26.1432  -27.3856   18.9583 C   0  0  0  0  0  0  0  0  0  0  0  0
  -21.5197   -5.8979   22.3400 C   0  0  0  0  0  0  0  0  0  0  0  0
  -30.1339  -21.8676   20.6114 C   0  0  0  0  0  0  0  0  0  0  0  0
  -20.7738   -4.0036   24.2472 C   0  0  0  0  0  0  0  0  0  0  0  0
  -20.2361   -5.9252   22.8851 C   0  0  0  0  0  0  0  0  0  0  0  0
  -26.2165  -10.1712   22.5934 C   0  0  0  0  0  0  0  0  0  0  0  0
  -28.0097  -11.0733   23.4911 C   0  0  0  0  0  0  0  0  0  0  0  0
  -27.2802   -8.9510   24.5921 C   0  0  0  0  0  0  0  0  0  0  0  0
  -22.5645  -30.8063   21.1844 C   0  0  0  0  0  0  0  0  0  0  0  0
  -24.7995  -33.1440   20.9347 C   0  0  0  0  0  0  0  0  0  0  0  0
  -27.9337  -34.0619   19.9441 C   0  0  0  0  0  0  0  0  0  0  0  0
  -27.3551  -16.4541   21.4610 C   0  0  0  0  0  0  0  0  0  0  0  0
  -18.2619  -30.0129   23.8141 C   0  0  0  0  0  0  0  0  0  0  0  0
  -24.5719  -29.6972   22.2314 C   0  0  0  0  0  0  0  0  0  0  0  0
  -28.1222  -18.6555   18.5623 C   0  0  0  0  0  0  0  0  0  0  0  0
  -25.2538  -31.0086   19.6701 C   0  0  0  0  0  0  0  0  0  0  0  0
  -28.0729  -18.8096   21.5238 C   0  0  0  0  0  0  0  0  0  0  0  0
  -19.0403  -31.2366   23.3378 C   0  0  0  0  0  0  0  0  0  0  0  0
  -29.7184  -14.1441   20.2549 C   0  0  0  0  0  0  0  0  0  0  0  0
  -19.3962  -31.1011   21.8607 C   0  0  0  0  0  0  0  0  0  0  0  0
  -28.7746  -23.6224   17.2603 C   0  0  0  0  0  0  0  0  0  0  0  0
  -29.5470  -24.7446   19.3910 C   0  0  0  0  0  0  0  0  0  0  0  0
  -29.1760  -12.8316   20.8192 C   0  0  0  0  0  0  0  0  0  0  0  0
  -27.8522  -24.8041   16.9767 C   0  0  0  0  0  0  0  0  0  0  0  0
  -28.6219  -25.9230   19.1018 C   0  0  0  0  0  0  0  0  0  0  0  0
  -27.0962  -17.9345   19.4302 C   0  0  0  0  0  0  0  0  0  0  0  0
  -28.5995  -15.0577   19.7520 C   0  0  0  0  0  0  0  0  0  0  0  0
  -27.0002  -14.0072   21.3192 C   0  0  0  0  0  0  0  0  0  0  0  0
  -20.2955  -29.8826   21.6194 C   0  0  1  0  0  0  0  0  0  0  0  0
  -23.9196  -31.0076   21.8014 C   0  0  1  0  0  0  0  0  0  0  0  0
  -29.9892  -24.0424   18.0997 C   0  0  0  0  0  0  0  0  0  0  0  0
  -28.0979  -13.0934   21.8857 C   0  0  1  0  0  0  0  0  0  0  0  0
  -27.4174  -25.5018   18.2627 C   0  0  0  0  0  0  0  0  0  1  0  0
  -31.4588  -22.2601   17.1155 C   0  0  0  0  0  0  0  0  0  0  0  0
  -29.4622  -36.0491   19.8352 C   0  0  0  0  0  0  0  0  0  0  0  0
  -23.2272  -34.2197   18.5513 C   0  0  0  0  0  0  0  0  0  0  0  0
  -25.2409  -35.5666   17.9196 C   0  0  0  0  0  0  0  0  0  0  0  0
  -24.1032  -35.9758   20.1016 C   0  0  0  0  0  0  0  0  0  0  0  0
  -29.9354  -32.7640   21.6955 C   0  0  0  0  0  0  0  0  0  0  0  0
  -30.6987  -22.8672   22.6939 C   0  0  0  0  0  0  0  0  0  0  0  0
  -30.8692  -22.8347   18.4167 C   0  0  2  0  0  0  0  0  0  0  0  0
  -25.4652  -33.8687   19.7899 C   0  0  1  0  0  0  0  0  0  0  0  0
  -29.0255  -34.8432   20.6524 C   0  0  2  0  0  0  0  0  0  0  0  0
  -24.5109  -34.8795   19.0934 C   0  0  0  0  0  0  0  0  0  0  0  0
  -26.4332  -11.2741   21.8718 N   0  0  0  0  0  0  0  0  0  0  0  0
  -27.5301  -11.8011   22.4421 N   0  0  0  0  0  0  0  0  0  0  0  0
  -24.7260  -31.7478   20.8287 N   0  0  0  0  0  0  0  0  0  0  0  0
  -27.6405  -17.6384   20.7599 N   0  0  0  0  0  0  0  0  0  0  0  0
  -27.5737  -15.2448   20.7859 N   0  0  0  0  0  0  0  0  0  0  0  0
  -29.1060  -11.4601   24.1773 N   0  0  0  0  0  0  0  0  0  0  0  0
  -28.0437   -7.8194   24.2746 N   0  0  0  0  0  0  0  0  0  0  0  0
  -21.6574  -30.1737   22.0129 N   0  0  0  0  0  0  0  0  0  0  0  0
  -26.6766  -34.4702   20.3368 N   0  0  0  0  0  0  0  0  0  0  0  0
  -30.2156  -33.9765   20.8841 N   0  3  0  0  0  0  0  0  0  0  0  0
  -26.7067   -9.0119   25.7060 O   0  0  0  0  0  0  0  0  0  0  0  0
  -22.3567  -31.1974   20.0417 O   0  0  0  0  0  0  0  0  0  0  0  0
  -24.3673  -33.7921   21.8911 O   0  0  0  0  0  0  0  0  0  0  0  0
  -28.1720  -33.1802   19.1216 O   0  0  0  0  0  0  0  0  0  0  0  0
  -26.9279  -16.4798   22.6223 O   0  0  0  0  0  0  0  0  0  0  0  0
  -21.8913   -6.8370   21.3925 O   0  0  0  0  0  0  0  0  0  0  0  0
  -26.6482  -26.6493   17.9196 O   0  0  0  0  0  0  0  0  0  1  0  0
  -30.7671  -22.8787   21.2695 O   0  0  0  0  0  0  0  0  0  0  0  0
  -20.4153   -3.0931   25.1619 F   0  0  0  0  0  0  0  0  0  0  0  0
  -19.3565   -6.8582   22.4958 F   0  0  0  0  0  0  0  0  0  0  0  0
  1  2  1  0  0  0  0
  1  5  2  0  0  0  0
  2  6  2  0  0  0  0
  3  8  2  0  0  0  0
  3 17  1  0  0  0  0
  4  9  1  0  0  0  0
  4 17  2  0  0  0  0
  5 19  1  0  0  0  0
  6 21  1  0  0  0  0
  7 10  2  0  0  0  0
  7 20  1  0  0  0  0
  8 26  1  0  0  0  0
  9 26  2  0  0  0  0
 10 27  1  0  0  0  0
 11 12  2  0  0  0  0
 11 28  1  0  0  0  0
 12 30  1  0  0  0  0
 13 22  2  0  0  0  0
 13 25  1  0  0  0  0
 14 23  1  0  0  0  0
 14 27  2  0  0  0  0
 15 24  2  0  0  0  0
 15 29  1  0  0  0  0
 16 30  2  0  0  0  0
 16 31  1  0  0  0  0
 17 32  1  0  0  0  0
 18 32  1  0  0  0  0
 18 33  2  0  0  0  0
 18 34  1  0  0  0  0
 19 21  2  0  0  0  0
 19 39  1  0  0  0  0
 20 23  2  0  0  0  0
 20 40  1  0  0  0  0
 21 55  1  0  0  0  0
 22 24  1  0  0  0  0
 22 41  1  0  0  0  0
 23 42  1  0  0  0  0
 24 43  1  0  0  0  0
 25 29  2  0  0  0  0
 25 67  1  0  0  0  0
 26 86  1  0  0  0  0
 27 87  1  0  0  0  0
 28 31  2  0  0  0  0
 28 86  1  0  0  0  0
 29 88  1  0  0  0  0
 30 89  1  0  0  0  0
 31 90  1  0  0  0  0
 32 71  2  0  0  0  0
 33 72  1  0  0  0  0
 33 76  1  0  0  0  0
 34 77  1  0  0  0  0
 34 81  2  0  0  0  0
 35 56  1  0  0  0  0
 35 78  1  0  0  0  0
 35 82  2  0  0  0  0
 36 68  1  0  0  0  0
 36 73  1  0  0  0  0
 36 83  2  0  0  0  0
 37 69  1  0  0  0  0
 37 79  1  0  0  0  0
 37 84  2  0  0  0  0
 38 74  1  0  0  0  0
 38 75  1  0  0  0  0
 38 85  2  0  0  0  0
 39 44  1  0  0  0  0
 40 56  1  0  0  0  0
 41 52  1  0  0  0  0
 42 73  1  0  0  0  0
 43 74  1  0  0  0  0
 44 46  1  0  0  0  0
 45 49  1  0  0  0  0
 45 53  1  0  0  0  0
 46 55  1  0  0  0  0
 47 50  1  0  0  0  0
 47 57  1  0  0  0  0
 48 51  1  0  0  0  0
 48 57  1  0  0  0  0
 49 58  1  0  0  0  0
 50 59  1  0  0  0  0
 51 59  1  0  0  0  0
 52 74  1  0  0  0  0
 53 75  1  0  0  0  0
 54 58  1  0  0  0  0
 54 75  1  0  0  0  0
 55 78  1  0  0  0  0
 56 73  1  0  0  0  0
 57 67  1  0  0  0  0
 58 72  1  0  0  0  0
 59 87  1  0  0  0  0
 60 67  1  0  0  0  0
 61 69  1  0  0  0  0
 62 70  1  0  0  0  0
 63 70  1  0  0  0  0
 64 70  1  0  0  0  0
 65 80  1  0  0  0  0
 66 88  1  0  0  0  0
 68 70  1  0  0  0  0
 68 79  1  0  0  0  0
 69 80  1  0  0  0  0
 71 72  1  0  0  0  0
M  CHG  1  80   1
M  ISO  4  38 100  59 101  74 100  87 101
M  END
> <Batch ID>
0163

> <Smiles>
CNC(C)C(=O)NC(C(=O)N1Cc2cc([101O:1][101CH:1]3CCC(C(C)c4cc5c(cc4OC)C[100N:0]([100C:0](=O)N4CCCC(n6nc(-c7ccc(Oc8ccc(F)cc8F)cc7)c(C(N)=O)c6N)C4)CC5)CC3)ccc2CC1C(=O)NC1CCCc2ccccc21)C(C)(C)C

> <Shape>
0.274

> <Color>
0.096

> <Negative vol penalty>
0.000

$$$$

  -OEChem-04052322173D

 96106  0     1  0  0  0  0  0999 V2000
  -24.8803  -36.5113   16.2523 C   0  0  0  0  0  0  0  0  0  0  0  0
  -25.3635  -35.2075   16.2059 C   0  0  0  0  0  0  0  0  0  0  0  0
  -24.6421  -13.2984   19.5361 C   0  0  0  0  0  0  0  0  0  0  0  0
  -24.4871  -13.0329   21.9324 C   0  0  0  0  0  0  0  0  0  0  0  0
  -24.8448  -37.1976   17.4654 C   0  0  0  0  0  0  0  0  0  0  0  0
  -25.8126  -34.5897   17.3725 C   0  0  0  0  0  0  0  0  0  0  0  0
  -25.3107  -28.6618   18.8265 C   0  0  0  0  0  0  0  0  0  0  0  0
  -25.7264  -12.4213   19.5090 C   0  0  0  0  0  0  0  0  0  0  0  0
  -25.5714  -12.1558   21.9054 C   0  0  0  0  0  0  0  0  0  0  0  0
  -26.2047  -27.5955   18.7388 C   0  0  0  0  0  0  0  0  0  0  0  0
  -28.7634  -10.5310   18.8556 C   0  0  0  0  0  0  0  0  0  0  0  0
  -29.8703  -10.8894   18.0864 C   0  0  0  0  0  0  0  0  0  0  0  0
  -26.8134  -27.9237   21.0498 C   0  0  0  0  0  0  0  0  0  0  0  0
  -30.1458  -12.8888   19.4143 C   0  0  0  0  0  0  0  0  0  0  0  0
  -24.0225  -13.6042   20.7478 C   0  0  0  0  0  0  0  0  0  0  0  0
  -21.5396  -14.1818   20.6521 C   0  0  0  0  0  0  0  0  0  0  0  0
  -25.2847  -36.5844   18.6491 C   0  0  0  0  0  0  0  0  0  0  0  0
  -25.1691  -29.3751   20.0254 C   0  0  0  0  0  0  0  0  0  0  0  0
  -25.7842  -35.2689   18.6024 C   0  0  0  0  0  0  0  0  0  0  0  0
  -25.9151  -28.9970   21.1509 C   0  0  0  0  0  0  0  0  0  0  0  0
  -28.8287  -19.4562   19.8897 C   0  0  0  0  0  0  0  0  0  0  0  0
  -28.7383  -19.9318   21.2024 C   0  0  0  0  0  0  0  0  0  0  0  0
  -30.0413  -19.5450   19.2027 C   0  0  0  0  0  0  0  0  0  0  0  0
  -26.1910  -11.8500   20.6936 C   0  0  0  0  0  0  0  0  0  0  0  0
  -26.9583  -27.2282   19.8497 C   0  0  0  0  0  0  0  0  0  0  0  0
  -28.3475  -11.3515   19.9042 C   0  0  0  0  0  0  0  0  0  0  0  0
  -30.5615  -12.0683   18.3657 C   0  0  0  0  0  0  0  0  0  0  0  0
  -29.0388  -12.5304   20.1835 C   0  0  0  0  0  0  0  0  0  0  0  0
  -22.9028  -14.5106   20.7765 C   0  0  0  0  0  0  0  0  0  0  0  0
  -29.9068  -20.4342   21.7739 C   0  0  0  0  0  0  0  0  0  0  0  0
  -31.1336  -20.0759   19.8674 C   0  0  0  0  0  0  0  0  0  0  0  0
  -20.8861  -15.3864   20.7442 C   0  0  0  0  0  0  0  0  0  0  0  0
  -20.9195  -12.9020   20.4697 C   0  0  0  0  0  0  0  0  0  0  0  0
  -25.6533  -32.3886   20.9132 C   0  0  0  0  0  0  0  0  0  0  0  0
  -24.3293  -31.3724   23.6947 C   0  0  0  0  0  0  0  0  0  0  0  0
  -23.6348  -28.7720   25.7928 C   0  0  0  0  0  0  0  0  0  0  0  0
  -25.1376  -18.9581   22.0525 C   0  0  0  0  0  0  0  0  0  0  0  0
  -25.2712  -37.3828   19.9286 C   0  0  0  0  0  0  0  0  0  0  0  0
  -24.1809  -30.5058   20.1113 C   0  0  0  0  0  0  0  0  0  0  0  0
  -27.6197  -18.8633   19.2262 C   0  0  0  0  0  0  0  0  0  0  0  0
  -25.7852  -29.7176   22.4671 C   0  0  0  0  0  0  0  0  0  0  0  0
  -25.4163  -36.5253   21.1832 C   0  0  0  0  0  0  0  0  0  0  0  0
  -22.9080  -18.7575   19.0418 C   0  0  0  0  0  0  0  0  0  0  0  0
  -26.5463  -35.5151   21.0116 C   0  0  0  0  0  0  0  0  0  0  0  0
  -21.5492  -18.5237   19.6965 C   0  0  0  0  0  0  0  0  0  0  0  0
  -25.9292  -23.3265   20.8858 C   0  0  0  0  0  0  0  0  0  0  0  0
  -23.8320  -19.5267   19.9742 C   0  0  0  0  0  0  0  0  0  0  0  0
  -22.7018  -18.5533   21.9589 C   0  0  0  0  0  0  0  0  0  0  0  0
  -26.2571  -34.5559   19.8506 C   0  0  1  0  0  0  0  0  0  0  0  0
  -27.4362  -19.9085   21.9789 C   0  0  1  0  0  0  0  0  0  0  0  0
  -24.4939  -31.4888   21.2352 C   0  0  1  0  0  0  0  0  0  0  0  0
  -26.7786  -22.0836   20.9325 C   0  0  1  0  0  0  0  0  0  0  0  0
  -27.4230  -23.4295   20.7229 C   0  0  1  0  0  0  0  0  0  0  0  0
  -21.6716  -17.8309   21.0665 C   0  0  2  0  0  0  0  0  0  0  0  0
  -26.6970  -18.1943   20.2487 C   0  0  1  0  0  0  0  0  0  0  0  0
  -32.4531  -20.1958   19.1783 C   0  0  0  0  0  0  0  0  0  0  0  0
  -27.3040  -16.9044   20.8248 C   0  0  0  0  0  0  0  0  0  0  0  0
  -29.2735  -19.8888   16.8238 C   0  0  0  0  0  0  0  0  0  0  0  0
  -29.8968  -17.5818   17.6263 C   0  0  0  0  0  0  0  0  0  0  0  0
  -22.5758  -28.2577   28.0090 C   0  0  0  0  0  0  0  0  0  0  0  0
  -29.5319  -23.7650   19.4272 C   0  0  0  0  0  0  0  0  0  0  0  0
  -31.2067  -21.3263   25.3441 C   0  0  0  0  0  0  0  0  0  0  0  0
  -31.6829  -19.3113   23.9381 C   0  0  0  0  0  0  0  0  0  0  0  0
  -26.7894  -32.4755   25.1234 C   0  0  0  0  0  0  0  0  0  0  0  0
  -26.1449  -31.1229   27.1292 C   0  0  0  0  0  0  0  0  0  0  0  0
  -24.6215  -32.9118   26.2914 C   0  0  0  0  0  0  0  0  0  0  0  0
  -21.6003  -27.0215   24.5454 C   0  0  0  0  0  0  0  0  0  0  0  0
  -29.9130  -20.9470   23.1805 C   0  0  0  0  0  0  0  0  0  0  0  0
  -26.9700  -21.3554   22.2184 C   0  0  0  0  0  0  0  0  0  0  0  0
  -27.5116  -25.1406   18.8539 C   0  0  0  0  0  0  0  0  0  1  0  0
  -30.1717  -19.0887   17.7855 C   0  0  0  0  0  0  0  0  0  0  0  0
  -24.8587  -30.7679   24.9726 C   0  0  1  0  0  0  0  0  0  0  0  0
  -22.3581  -28.3680   26.5079 C   0  0  2  0  0  0  0  0  0  0  0  0
  -28.0095  -23.7793   19.3993 C   0  0  2  0  0  0  0  0  0  0  0  0
  -31.2660  -20.7840   23.9139 C   0  0  0  0  0  0  0  0  0  0  0  0
  -25.6077  -31.8070   25.8539 C   0  0  0  0  0  0  0  0  0  0  0  0
  -23.1047  -15.8213   20.9353 N   0  0  0  0  0  0  0  0  0  0  0  0
  -31.0995  -20.5175   21.1417 N   0  0  0  0  0  0  0  0  0  0  0  0
  -21.8597  -16.3268   20.9112 N   0  0  0  0  0  0  0  0  0  0  0  0
  -24.8103  -30.8203   22.4990 N   0  0  0  0  0  0  0  0  0  0  0  0
  -23.9627  -18.8661   21.2786 N   0  0  0  0  0  0  0  0  0  0  0  0
  -26.3429  -19.1356   21.3350 N   0  0  0  0  0  0  0  0  0  0  0  0
  -19.5795  -15.7223   20.6976 N   0  0  0  0  0  0  0  0  0  0  0  0
  -21.7385  -11.7671   20.3962 N   0  0  0  0  0  0  0  0  0  0  0  0
  -25.2982  -33.5496   20.2533 N   0  0  0  0  0  0  0  0  0  0  0  0
  -23.7182  -30.1386   25.6297 N   0  0  0  0  0  0  0  0  0  0  0  0
  -21.8772  -27.0503   26.0047 N   0  3  0  0  0  0  0  0  0  0  0  0
  -19.6769  -12.7707   20.3584 O   0  0  0  0  0  0  0  0  0  0  0  0
  -26.7861  -32.0550   21.2405 O   0  0  0  0  0  0  0  0  0  0  0  0
  -23.5133  -32.2956   23.7551 O   0  0  0  0  0  0  0  0  0  0  0  0
  -24.4757  -27.9570   25.4198 O   0  0  0  0  0  0  0  0  0  0  0  0
  -25.1156  -18.9094   23.2879 O   0  0  0  0  0  0  0  0  0  0  0  0
  -27.2488  -10.9939   20.6675 O   0  0  0  0  0  0  0  0  0  0  0  0
  -27.8383  -26.1808   19.7661 O   0  0  0  0  0  0  0  0  0  1  0  0
  -31.6254  -12.4115   17.6278 F   0  0  0  0  0  0  0  0  0  0  0  0
  -28.6448  -13.3222   21.1904 F   0  0  0  0  0  0  0  0  0  0  0  0
  1  2  1  0  0  0  0
  1  5  2  0  0  0  0
  2  6  2  0  0  0  0
  3  8  2  0  0  0  0
  3 15  1  0  0  0  0
  4  9  1  0  0  0  0
  4 15  2  0  0  0  0
  5 17  1  0  0  0  0
  6 19  1  0  0  0  0
  7 10  2  0  0  0  0
  7 18  1  0  0  0  0
  8 24  1  0  0  0  0
  9 24  2  0  0  0  0
 10 25  1  0  0  0  0
 11 12  2  0  0  0  0
 11 26  1  0  0  0  0
 12 27  1  0  0  0  0
 13 20  1  0  0  0  0
 13 25  2  0  0  0  0
 14 27  2  0  0  0  0
 14 28  1  0  0  0  0
 15 29  1  0  0  0  0
 16 29  1  0  0  0  0
 16 32  2  0  0  0  0
 16 33  1  0  0  0  0
 17 19  2  0  0  0  0
 17 38  1  0  0  0  0
 18 20  2  0  0  0  0
 18 39  1  0  0  0  0
 19 49  1  0  0  0  0
 20 41  1  0  0  0  0
 21 22  2  0  0  0  0
 21 23  1  0  0  0  0
 21 40  1  0  0  0  0
 22 30  1  0  0  0  0
 22 50  1  0  0  0  0
 23 31  2  0  0  0  0
 23 71  1  0  0  0  0
 24 93  1  0  0  0  0
 25 94  1  0  0  0  0
 26 28  2  0  0  0  0
 26 93  1  0  0  0  0
 27 95  1  0  0  0  0
 28 96  1  0  0  0  0
 29 77  2  0  0  0  0
 30 68  1  0  0  0  0
 30 78  2  0  0  0  0
 31 56  1  0  0  0  0
 31 78  1  0  0  0  0
 32 79  1  0  0  0  0
 32 83  1  0  0  0  0
 33 84  1  0  0  0  0
 33 88  2  0  0  0  0
 34 51  1  0  0  0  0
 34 85  1  0  0  0  0
 34 89  2  0  0  0  0
 35 72  1  0  0  0  0
 35 80  1  0  0  0  0
 35 90  2  0  0  0  0
 36 73  1  0  0  0  0
 36 86  1  0  0  0  0
 36 91  2  0  0  0  0
 37 81  1  0  0  0  0
 37 82  1  0  0  0  0
 37 92  2  0  0  0  0
 38 42  1  0  0  0  0
 39 51  1  0  0  0  0
 40 55  1  0  0  0  0
 41 80  1  0  0  0  0
 42 44  1  0  0  0  0
 43 45  1  0  0  0  0
 43 47  1  0  0  0  0
 44 49  1  0  0  0  0
 45 54  1  0  0  0  0
 46 52  1  0  0  0  0
 46 53  1  0  0  0  0
 47 81  1  0  0  0  0
 48 54  1  0  0  0  0
 48 81  1  0  0  0  0
 49 85  1  0  0  0  0
 50 69  1  0  0  0  0
 50 82  1  0  0  0  0
 51 80  1  0  0  0  0
 52 53  1  0  0  0  0
 52 69  1  0  0  0  0
 53 74  1  0  0  0  0
 54 79  1  0  0  0  0
 55 57  1  0  0  0  0
 55 82  1  0  0  0  0
 58 71  1  0  0  0  0
 59 71  1  0  0  0  0
 60 73  1  0  0  0  0
 61 74  1  0  0  0  0
 62 75  1  0  0  0  0
 63 75  1  0  0  0  0
 64 76  1  0  0  0  0
 65 76  1  0  0  0  0
 66 76  1  0  0  0  0
 67 87  1  0  0  0  0
 68 75  1  0  0  0  0
 70 74  1  0  0  0  0
 70 94  1  0  0  0  0
 72 76  1  0  0  0  0
 72 86  1  0  0  0  0
 73 87  1  0  0  0  0
 77 79  1  0  0  0  0
M  CHG  1  87   1
M  ISO  4  37 100  70 101  82 100  94 101
M  END
> <Batch ID>
0163

> <Smiles>
CNC(C)C(=O)NC(C(=O)N1Cc2cc([101O:1][101CH2:1]C(C)C3CC3CC3c4c(CC(C)C)nc(C)c(C(C)C)c4CC(C)[100N:0]3[100C:0](=O)N3CCCC(n4nc(-c5ccc(Oc6ccc(F)cc6F)cc5)c(C(N)=O)c4N)C3)ccc2CC1C(=O)NC1CCCc2ccccc21)C(C)(C)C

> <Shape>
0.233

> <Color>
0.093

> <Negative vol penalty>
0.000

$$$$

  -OEChem-04052322173D

 87 97  0     1  0  0  0  0  0999 V2000
  -26.9355  -23.2916   14.3146 C   0  0  0  0  0  0  0  0  0  0  0  0
  -26.7093  -23.1339   15.6782 C   0  0  0  0  0  0  0  0  0  0  0  0
  -22.7874  -11.4260   18.9993 C   0  0  0  0  0  0  0  0  0  0  0  0
  -23.0043  -10.0925   21.0022 C   0  0  0  0  0  0  0  0  0  0  0  0
  -27.6984  -24.3644   13.8551 C   0  0  0  0  0  0  0  0  0  0  0  0
  -27.2468  -24.0485   16.5832 C   0  0  0  0  0  0  0  0  0  0  0  0
  -23.9138  -25.4674   20.1219 C   0  0  0  0  0  0  0  0  0  0  0  0
  -21.7373  -10.6135   18.5720 C   0  0  0  0  0  0  0  0  0  0  0  0
  -21.9542   -9.2799   20.5749 C   0  0  0  0  0  0  0  0  0  0  0  0
  -23.6806  -24.5781   21.1701 C   0  0  0  0  0  0  0  0  0  0  0  0
  -18.7620   -9.1078   17.1243 C   0  0  0  0  0  0  0  0  0  0  0  0
  -17.6267   -9.7329   16.6088 C   0  0  0  0  0  0  0  0  0  0  0  0
  -26.7181  -18.5976   21.7463 C   0  0  0  0  0  0  0  0  0  0  0  0
  -26.5433  -21.3307   21.2150 C   0  0  0  0  0  0  0  0  0  0  0  0
  -25.1617  -25.8593   22.5786 C   0  0  0  0  0  0  0  0  0  0  0  0
  -17.3032  -10.8790   18.7110 C   0  0  0  0  0  0  0  0  0  0  0  0
  -23.4209  -11.1655   20.2144 C   0  0  0  0  0  0  0  0  0  0  0  0
  -24.4149  -13.1689   21.4417 C   0  0  0  0  0  0  0  0  0  0  0  0
  -28.2374  -25.2980   14.7543 C   0  0  0  0  0  0  0  0  0  0  0  0
  -24.7826  -26.5550   20.2912 C   0  0  0  0  0  0  0  0  0  0  0  0
  -28.0187  -25.1340   16.1355 C   0  0  0  0  0  0  0  0  0  0  0  0
  -27.6321  -19.1998   20.8817 C   0  0  0  0  0  0  0  0  0  0  0  0
  -25.6293  -20.7284   22.0796 C   0  0  0  0  0  0  0  0  0  0  0  0
  -25.4022  -26.7624   21.5318 C   0  0  0  0  0  0  0  0  0  0  0  0
  -27.5447  -20.5664   20.6161 C   0  0  0  0  0  0  0  0  0  0  0  0
  -25.7166  -19.3619   22.3452 C   0  0  0  0  0  0  0  0  0  0  0  0
  -21.3207   -9.5404   19.3598 C   0  0  0  0  0  0  0  0  0  0  0  0
  -24.3068  -24.7724   22.3977 C   0  0  0  0  0  0  0  0  0  0  0  0
  -19.1680   -9.3682   18.4332 C   0  0  0  0  0  0  0  0  0  0  0  0
  -16.8973  -10.6185   17.4021 C   0  0  0  0  0  0  0  0  0  0  0  0
  -18.4386  -10.2538   19.2265 C   0  0  0  0  0  0  0  0  0  0  0  0
  -24.5061  -12.0042   20.6561 C   0  0  0  0  0  0  0  0  0  0  0  0
  -25.7145  -13.5905   21.5827 C   0  0  0  0  0  0  0  0  0  0  0  0
  -23.2589  -13.8121   21.9946 C   0  0  0  0  0  0  0  0  0  0  0  0
  -27.5149  -27.4730   18.9511 C   0  0  0  0  0  0  0  0  0  0  0  0
  -27.0653  -30.1212   20.7697 C   0  0  0  0  0  0  0  0  0  0  0  0
  -25.6336  -31.5336   23.5270 C   0  0  0  0  0  0  0  0  0  0  0  0
  -30.7324  -14.5925   19.6511 C   0  0  0  0  0  0  0  0  0  0  0  0
  -29.0950  -26.4148   14.2140 C   0  0  0  0  0  0  0  0  0  0  0  0
  -25.0028  -27.5203   19.1589 C   0  0  0  0  0  0  0  0  0  0  0  0
  -26.3280  -27.9260   21.7712 C   0  0  0  0  0  0  0  0  0  0  0  0
  -29.3155  -27.5501   15.2103 C   0  0  0  0  0  0  0  0  0  0  0  0
  -30.0751  -11.2979   20.4667 C   0  0  0  0  0  0  0  0  0  0  0  0
  -29.6897  -26.9930   16.5802 C   0  0  0  0  0  0  0  0  0  0  0  0
  -28.5586  -11.2681   20.6570 C   0  0  0  0  0  0  0  0  0  0  0  0
  -29.6559  -17.7313   21.2896 C   0  0  0  0  0  0  0  0  0  0  0  0
  -28.1213  -17.2535   19.3358 C   0  0  0  0  0  0  0  0  0  0  0  0
  -24.4297  -21.5669   24.2089 C   0  0  0  0  0  0  0  0  0  0  0  0
  -30.4589  -12.1604   19.2696 C   0  0  0  0  0  0  0  0  0  0  0  0
  -30.7225  -16.8556   20.6363 C   0  0  0  0  0  0  0  0  0  0  0  0
  -29.2223  -16.3907   18.7260 C   0  0  0  0  0  0  0  0  0  0  0  0
  -28.4276  -13.5453   19.5340 C   0  0  0  0  0  0  0  0  0  0  0  0
  -28.7123  -18.3476   20.2424 C   0  0  0  0  0  0  0  0  0  0  0  0
  -24.5651  -21.5651   22.7093 C   0  0  1  0  0  0  0  0  0  0  0  0
  -28.5642  -26.1190   17.1466 C   0  0  1  0  0  0  0  0  0  0  0  0
  -26.3069  -28.3019   19.2851 C   0  0  1  0  0  0  0  0  0  0  0  0
  -27.9846  -12.6935   20.7403 C   0  0  1  0  0  0  0  0  0  0  0  0
  -24.9691  -22.7773   23.5100 C   0  0  1  0  0  0  0  0  0  1  0  0
  -28.5135  -21.2334   19.6957 C   0  0  0  0  0  0  0  0  0  0  0  0
  -24.7496  -18.6933   23.2668 C   0  0  0  0  0  0  0  0  0  0  0  0
  -25.4787  -33.7072   24.7713 C   0  0  0  0  0  0  0  0  0  0  0  0
  -29.8736  -29.6832   21.8794 C   0  0  0  0  0  0  0  0  0  0  0  0
  -29.3062  -31.2542   23.7445 C   0  0  0  0  0  0  0  0  0  0  0  0
  -29.3069  -32.0687   21.3867 C   0  0  0  0  0  0  0  0  0  0  0  0
  -22.7022  -31.6764   23.1458 C   0  0  0  0  0  0  0  0  0  0  0  0
  -27.4540  -30.5364   22.1681 C   0  0  1  0  0  0  0  0  0  0  0  0
  -24.8500  -32.8211   23.7073 C   0  0  2  0  0  0  0  0  0  0  0  0
  -28.9693  -30.8625   22.2899 C   0  0  0  0  0  0  0  0  0  0  0  0
  -25.7641  -11.7052   20.3214 N   0  0  0  0  0  0  0  0  0  0  0  0
  -26.4753  -12.6881   20.8993 N   0  0  0  0  0  0  0  0  0  0  0  0
  -26.5162  -28.8386   20.6313 N   0  0  0  0  0  0  0  0  0  0  0  0
  -29.8896  -13.5030   19.3833 N   0  0  0  0  0  0  0  0  0  0  0  0
  -30.1238  -15.8542   19.7546 N   0  0  0  0  0  0  0  0  0  0  0  0
  -26.2691  -14.6415   22.2232 N   0  0  0  0  0  0  0  0  0  0  0  0
  -21.9998  -13.2459   21.7531 N   0  0  0  0  0  0  0  0  0  0  0  0
  -27.4995  -26.9453   17.6742 N   0  0  0  0  0  0  0  0  0  0  0  0
  -26.5739  -31.6441   22.5245 N   0  0  0  0  0  0  0  0  0  0  0  0
  -23.4478  -32.5216   24.1136 N   0  3  0  0  0  0  0  0  0  0  0  0
  -23.3387  -14.8670   22.6686 O   0  0  0  0  0  0  0  0  0  0  0  0
  -28.3963  -27.3246   19.7894 O   0  0  0  0  0  0  0  0  0  0  0  0
  -27.2358  -30.9087   19.8357 O   0  0  0  0  0  0  0  0  0  0  0  0
  -25.4343  -30.5313   24.2098 O   0  0  0  0  0  0  0  0  0  0  0  0
  -31.9529  -14.4490   19.7950 O   0  0  0  0  0  0  0  0  0  0  0  0
  -20.2959   -8.7474   18.9432 O   0  0  0  0  0  0  0  0  0  0  0  0
  -24.0810  -23.9037   23.4244 O   0  0  0  0  0  0  0  0  0  1  0  0
  -15.8079  -11.2199   16.9064 F   0  0  0  0  0  0  0  0  0  0  0  0
  -18.8244  -10.5089   20.4842 F   0  0  0  0  0  0  0  0  0  0  0  0
  1  2  1  0  0  0  0
  1  5  2  0  0  0  0
  2  6  2  0  0  0  0
  3  8  2  0  0  0  0
  3 17  1  0  0  0  0
  4  9  1  0  0  0  0
  4 17  2  0  0  0  0
  5 19  1  0  0  0  0
  6 21  1  0  0  0  0
  7 10  2  0  0  0  0
  7 20  1  0  0  0  0
  8 27  1  0  0  0  0
  9 27  2  0  0  0  0
 10 28  1  0  0  0  0
 11 12  2  0  0  0  0
 11 29  1  0  0  0  0
 12 30  1  0  0  0  0
 13 22  2  0  0  0  0
 13 26  1  0  0  0  0
 14 23  1  0  0  0  0
 14 25  2  0  0  0  0
 15 24  1  0  0  0  0
 15 28  2  0  0  0  0
 16 30  2  0  0  0  0
 16 31  1  0  0  0  0
 17 32  1  0  0  0  0
 18 32  1  0  0  0  0
 18 33  2  0  0  0  0
 18 34  1  0  0  0  0
 19 21  2  0  0  0  0
 19 39  1  0  0  0  0
 20 24  2  0  0  0  0
 20 40  1  0  0  0  0
 21 55  1  0  0  0  0
 22 25  1  0  0  0  0
 22 53  1  0  0  0  0
 23 26  2  0  0  0  0
 23 54  1  0  0  0  0
 24 41  1  0  0  0  0
 25 59  1  0  0  0  0
 26 60  1  0  0  0  0
 27 84  1  0  0  0  0
 28 85  1  0  0  0  0
 29 31  2  0  0  0  0
 29 84  1  0  0  0  0
 30 86  1  0  0  0  0
 31 87  1  0  0  0  0
 32 69  2  0  0  0  0
 33 70  1  0  0  0  0
 33 74  1  0  0  0  0
 34 75  1  0  0  0  0
 34 79  2  0  0  0  0
 35 56  1  0  0  0  0
 35 76  1  0  0  0  0
 35 80  2  0  0  0  0
 36 66  1  0  0  0  0
 36 71  1  0  0  0  0
 36 81  2  0  0  0  0
 37 67  1  0  0  0  0
 37 77  1  0  0  0  0
 37 82  2  0  0  0  0
 38 72  1  0  0  0  0
 38 73  1  0  0  0  0
 38 83  2  0  0  0  0
 39 42  1  0  0  0  0
 40 56  1  0  0  0  0
 41 71  1  0  0  0  0
 42 44  1  0  0  0  0
 43 45  1  0  0  0  0
 43 49  1  0  0  0  0
 44 55  1  0  0  0  0
 45 57  1  0  0  0  0
 46 50  1  0  0  0  0
 46 53  1  0  0  0  0
 47 51  1  0  0  0  0
 47 53  1  0  0  0  0
 48 54  1  0  0  0  0
 48 58  1  0  0  0  0
 49 72  1  0  0  0  0
 50 73  1  0  0  0  0
 51 73  1  0  0  0  0
 52 57  1  0  0  0  0
 52 72  1  0  0  0  0
 54 58  1  0  0  0  0
 55 76  1  0  0  0  0
 56 71  1  0  0  0  0
 57 70  1  0  0  0  0
 58 85  1  0  0  0  0
 61 67  1  0  0  0  0
 62 68  1  0  0  0  0
 63 68  1  0  0  0  0
 64 68  1  0  0  0  0
 65 78  1  0  0  0  0
 66 68  1  0  0  0  0
 66 77  1  0  0  0  0
 67 78  1  0  0  0  0
 69 70  1  0  0  0  0
M  CHG  1  78   1
M  ISO  4  38 100  58 101  73 100  85 101
M  END
> <Batch ID>
0163

> <Smiles>
CNC(C)C(=O)NC(C(=O)N1Cc2cc([101O:1][101CH:1]3CC3c3cc(C)c(C4CC[100N:0]([100C:0](=O)N5CCCC(n6nc(-c7ccc(Oc8ccc(F)cc8F)cc7)c(C(N)=O)c6N)C5)CC4)cc3C)ccc2CC1C(=O)NC1CCCc2ccccc21)C(C)(C)C

> <Shape>
0.231

> <Color>
0.112

> <Negative vol penalty>
0.000

$$$$

  -OEChem-04052322173D

 88 97  0     1  0  0  0  0  0999 V2000
  -31.1395  -28.1541    6.9131 C   0  0  0  0  0  0  0  0  0  0  0  0
  -30.5356  -26.9603    7.2946 C   0  0  0  0  0  0  0  0  0  0  0  0
  -23.1674   -9.8157   19.9321 C   0  0  0  0  0  0  0  0  0  0  0  0
  -23.5085   -9.9970   22.3170 C   0  0  0  0  0  0  0  0  0  0  0  0
  -32.0531  -28.7749    7.7639 C   0  0  0  0  0  0  0  0  0  0  0  0
  -30.8458  -26.3860    8.5268 C   0  0  0  0  0  0  0  0  0  0  0  0
  -27.0626  -23.2550   12.1862 C   0  0  0  0  0  0  0  0  0  0  0  0
  -22.3787   -8.6826   20.1310 C   0  0  0  0  0  0  0  0  0  0  0  0
  -22.7197   -8.8639   22.5160 C   0  0  0  0  0  0  0  0  0  0  0  0
  -26.8602  -21.8890   12.3779 C   0  0  0  0  0  0  0  0  0  0  0  0
  -23.0692   -5.5103   22.2680 C   0  0  0  0  0  0  0  0  0  0  0  0
  -23.5366   -4.5434   23.1582 C   0  0  0  0  0  0  0  0  0  0  0  0
  -28.3557  -21.9390   14.2700 C   0  0  0  0  0  0  0  0  0  0  0  0
  -21.5614   -4.8403   24.5175 C   0  0  0  0  0  0  0  0  0  0  0  0
  -23.7324  -10.4729   21.0251 C   0  0  0  0  0  0  0  0  0  0  0  0
  -24.1172  -12.9828   20.7801 C   0  0  0  0  0  0  0  0  0  0  0  0
  -32.3674  -28.2129    9.0113 C   0  0  0  0  0  0  0  0  0  0  0  0
  -27.9231  -23.9723   13.0297 C   0  0  0  0  0  0  0  0  0  0  0  0
  -31.7655  -26.9991    9.3946 C   0  0  0  0  0  0  0  0  0  0  0  0
  -28.5654  -23.3146   14.0884 C   0  0  0  0  0  0  0  0  0  0  0  0
  -24.0081  -19.1897   15.5780 C   0  0  0  0  0  0  0  0  0  0  0  0
  -25.1963  -18.4817   15.4366 C   0  0  0  0  0  0  0  0  0  0  0  0
  -23.5419  -19.5081   16.8487 C   0  0  0  0  0  0  0  0  0  0  0  0
  -22.1548   -8.2067   21.4229 C   0  0  0  0  0  0  0  0  0  0  0  0
  -27.5090  -21.2302   13.4181 C   0  0  0  0  0  0  0  0  0  0  0  0
  -21.8480   -6.1422   22.5026 C   0  0  0  0  0  0  0  0  0  0  0  0
  -22.7827   -4.2084   24.2829 C   0  0  0  0  0  0  0  0  0  0  0  0
  -21.0941   -5.8071   23.6273 C   0  0  0  0  0  0  0  0  0  0  0  0
  -24.5478  -11.6431   20.8202 C   0  0  0  0  0  0  0  0  0  0  0  0
  -25.8756  -18.1182   16.5883 C   0  0  0  0  0  0  0  0  0  0  0  0
  -24.2951  -19.0984   17.9371 C   0  0  0  0  0  0  0  0  0  0  0  0
  -25.2645  -13.7058   20.5619 C   0  0  0  0  0  0  0  0  0  0  0  0
  -22.7982  -13.5252   20.9271 C   0  0  0  0  0  0  0  0  0  0  0  0
  -30.6177  -25.6076   12.6194 C   0  0  0  0  0  0  0  0  0  0  0  0
  -30.1769  -26.3632   15.7430 C   0  0  0  0  0  0  0  0  0  0  0  0
  -28.7862  -25.5510   18.7518 C   0  0  0  0  0  0  0  0  0  0  0  0
  -30.0629  -14.5709   18.0839 C   0  0  0  0  0  0  0  0  0  0  0  0
  -33.3966  -28.8959    9.8767 C   0  0  0  0  0  0  0  0  0  0  0  0
  -28.1100  -25.4508   12.8260 C   0  0  0  0  0  0  0  0  0  0  0  0
  -29.4834  -24.0432   15.0344 C   0  0  0  0  0  0  0  0  0  0  0  0
  -33.3886  -28.4168   11.3260 C   0  0  0  0  0  0  0  0  0  0  0  0
  -30.1218  -12.3273   20.7134 C   0  0  0  0  0  0  0  0  0  0  0  0
  -33.3388  -26.8933   11.3844 C   0  0  0  0  0  0  0  0  0  0  0  0
  -28.6432  -12.0490   20.9845 C   0  0  0  0  0  0  0  0  0  0  0  0
  -28.1411  -17.7027   17.6436 C   0  0  0  0  0  0  0  0  0  0  0  0
  -26.9423  -15.8249   16.4446 C   0  0  0  0  0  0  0  0  0  0  0  0
  -30.3997  -12.3936   19.2158 C   0  0  0  0  0  0  0  0  0  0  0  0
  -29.4368  -16.8996   17.5573 C   0  0  0  0  0  0  0  0  0  0  0  0
  -28.2644  -15.0655   16.3837 C   0  0  0  0  0  0  0  0  0  0  0  0
  -28.0861  -13.1334   18.7534 C   0  0  0  0  0  0  0  0  0  0  0  0
  -32.0575  -26.3579   10.7339 C   0  0  1  0  0  0  0  0  0  0  0  0
  -27.1778  -17.3447   16.4987 C   0  0  0  0  0  0  0  0  0  0  0  0
  -29.4080  -25.9778   13.4300 C   0  0  1  0  0  0  0  0  0  0  0  0
  -27.7475  -13.0664   20.2560 C   0  0  1  0  0  0  0  0  0  0  0  0
  -23.2329  -19.6053   14.3684 C   0  0  0  0  0  0  0  0  0  0  0  0
  -22.2705  -20.2668   17.0336 C   0  0  0  0  0  0  0  0  0  0  0  0
  -23.8446  -19.4087   19.3271 C   0  0  0  0  0  0  0  0  0  0  0  0
  -24.7636  -17.1958   13.3174 C   0  0  0  0  0  0  0  0  0  0  0  0
  -28.6334  -26.3411   21.1288 C   0  0  0  0  0  0  0  0  0  0  0  0
  -33.0115  -25.3579   16.2568 C   0  0  0  0  0  0  0  0  0  0  0  0
  -32.4653  -25.2764   18.6988 C   0  0  0  0  0  0  0  0  0  0  0  0
  -32.4097  -27.4534   17.4821 C   0  0  0  0  0  0  0  0  0  0  0  0
  -25.8463  -25.8485   18.5860 C   0  0  0  0  0  0  0  0  0  0  0  0
  -26.0468  -19.3650   13.2204 C   0  0  0  0  0  0  0  0  0  1  0  0
  -25.7226  -18.1264   14.0865 C   0  0  1  0  0  0  0  0  0  0  0  0
  -30.5893  -25.7505   17.0596 C   0  0  1  0  0  0  0  0  0  0  0  0
  -27.9927  -26.3748   19.7500 C   0  0  2  0  0  0  0  0  0  0  0  0
  -32.1032  -25.9452   17.3555 C   0  0  0  0  0  0  0  0  0  0  0  0
  -25.8657  -11.5195   20.6416 N   0  0  0  0  0  0  0  0  0  0  0  0
  -25.4541  -18.4093   17.8393 N   0  0  0  0  0  0  0  0  0  0  0  0
  -26.2731  -12.7908   20.4871 N   0  0  0  0  0  0  0  0  0  0  0  0
  -29.6388  -25.4867   14.7901 N   0  0  0  0  0  0  0  0  0  0  0  0
  -29.5251  -13.3655   18.5600 N   0  0  0  0  0  0  0  0  0  0  0  0
  -29.1700  -15.4644   17.4697 N   0  0  0  0  0  0  0  0  0  0  0  0
  -25.4988  -15.0285   20.4286 N   0  0  0  0  0  0  0  0  0  0  0  0
  -21.7328  -12.6413   21.1459 N   0  0  0  0  0  0  0  0  0  0  0  0
  -30.9313  -26.5184   11.6286 N   0  0  0  0  0  0  0  0  0  0  0  0
  -29.7048  -26.3208   18.0700 N   0  0  0  0  0  0  0  0  0  0  0  0
  -26.6023  -25.8508   19.8649 N   0  3  0  0  0  0  0  0  0  0  0  0
  -22.5687  -14.7560   20.8498 O   0  0  0  0  0  0  0  0  0  0  0  0
  -31.2228  -24.5730   12.8749 O   0  0  0  0  0  0  0  0  0  0  0  0
  -30.3200  -27.5760   15.5691 O   0  0  0  0  0  0  0  0  0  0  0  0
  -28.6114  -24.3446   18.5955 O   0  0  0  0  0  0  0  0  0  0  0  0
  -31.2652  -14.8374   18.2037 O   0  0  0  0  0  0  0  0  0  0  0  0
  -21.3850   -7.1012   21.6175 O   0  0  0  0  0  0  0  0  0  0  0  0
  -27.3124  -19.8880   13.6083 O   0  0  0  0  0  0  0  0  0  1  0  0
  -23.2309   -3.2789   25.1368 F   0  0  0  0  0  0  0  0  0  0  0  0
  -19.9196   -6.4099   23.8574 F   0  0  0  0  0  0  0  0  0  0  0  0
  1  2  1  0  0  0  0
  1  5  2  0  0  0  0
  2  6  2  0  0  0  0
  3  8  2  0  0  0  0
  3 15  1  0  0  0  0
  4  9  1  0  0  0  0
  4 15  2  0  0  0  0
  5 17  1  0  0  0  0
  6 19  1  0  0  0  0
  7 10  2  0  0  0  0
  7 18  1  0  0  0  0
  8 24  1  0  0  0  0
  9 24  2  0  0  0  0
 10 25  1  0  0  0  0
 11 12  2  0  0  0  0
 11 26  1  0  0  0  0
 12 27  1  0  0  0  0
 13 20  1  0  0  0  0
 13 25  2  0  0  0  0
 14 27  2  0  0  0  0
 14 28  1  0  0  0  0
 15 29  1  0  0  0  0
 16 29  1  0  0  0  0
 16 32  2  0  0  0  0
 16 33  1  0  0  0  0
 17 19  2  0  0  0  0
 17 38  1  0  0  0  0
 18 20  2  0  0  0  0
 18 39  1  0  0  0  0
 19 51  1  0  0  0  0
 20 40  1  0  0  0  0
 21 22  2  0  0  0  0
 21 23  1  0  0  0  0
 21 55  1  0  0  0  0
 22 30  1  0  0  0  0
 22 65  1  0  0  0  0
 23 31  2  0  0  0  0
 23 56  1  0  0  0  0
 24 85  1  0  0  0  0
 25 86  1  0  0  0  0
 26 28  2  0  0  0  0
 26 85  1  0  0  0  0
 27 87  1  0  0  0  0
 28 88  1  0  0  0  0
 29 69  2  0  0  0  0
 30 52  1  0  0  0  0
 30 70  2  0  0  0  0
 31 57  1  0  0  0  0
 31 70  1  0  0  0  0
 32 71  1  0  0  0  0
 32 75  1  0  0  0  0
 33 76  1  0  0  0  0
 33 80  2  0  0  0  0
 34 53  1  0  0  0  0
 34 77  1  0  0  0  0
 34 81  2  0  0  0  0
 35 66  1  0  0  0  0
 35 72  1  0  0  0  0
 35 82  2  0  0  0  0
 36 67  1  0  0  0  0
 36 78  1  0  0  0  0
 36 83  2  0  0  0  0
 37 73  1  0  0  0  0
 37 74  1  0  0  0  0
 37 84  2  0  0  0  0
 38 41  1  0  0  0  0
 39 53  1  0  0  0  0
 40 72  1  0  0  0  0
 41 43  1  0  0  0  0
 42 44  1  0  0  0  0
 42 47  1  0  0  0  0
 43 51  1  0  0  0  0
 44 54  1  0  0  0  0
 45 48  1  0  0  0  0
 45 52  1  0  0  0  0
 46 49  1  0  0  0  0
 46 52  1  0  0  0  0
 47 73  1  0  0  0  0
 48 74  1  0  0  0  0
 49 74  1  0  0  0  0
 50 54  1  0  0  0  0
 50 73  1  0  0  0  0
 51 77  1  0  0  0  0
 53 72  1  0  0  0  0
 54 71  1  0  0  0  0
 58 65  1  0  0  0  0
 59 67  1  0  0  0  0
 60 68  1  0  0  0  0
 61 68  1  0  0  0  0
 62 68  1  0  0  0  0
 63 79  1  0  0  0  0
 64 65  1  0  0  0  0
 64 86  1  0  0  0  0
 66 68  1  0  0  0  0
 66 78  1  0  0  0  0
 67 79  1  0  0  0  0
 69 71  1  0  0  0  0
M  CHG  1  79   1
M  ISO  4  37 100  64 101  74 100  86 101
M  END
> <Batch ID>
0163

> <Smiles>
CNC(C)C(=O)NC(C(=O)N1Cc2cc([101O:1][101CH2:1]C(C)c3c(C4CC[100N:0]([100C:0](=O)N5CCCC(n6nc(-c7ccc(Oc8ccc(F)cc8F)cc7)c(C(N)=O)c6N)C5)CC4)nc(C)c(C)c3C)ccc2CC1C(=O)NC1CCCc2ccccc21)C(C)(C)C

> <Shape>
0.182

> <Color>
0.185

> <Negative vol penalty>
0.000

$$$$

  -OEChem-04052322173D

 88 98  0     1  0  0  0  0  0999 V2000
  -19.1087  -31.2033   26.6836 C   0  0  0  0  0  0  0  0  0  0  0  0
  -20.3310  -30.5437   26.6026 C   0  0  0  0  0  0  0  0  0  0  0  0
  -23.2751  -10.3579   21.4160 C   0  0  0  0  0  0  0  0  0  0  0  0
  -24.8533   -8.6505   22.0725 C   0  0  0  0  0  0  0  0  0  0  0  0
  -18.1936  -31.1039   25.6364 C   0  0  0  0  0  0  0  0  0  0  0  0
  -20.6383  -29.7834   25.4749 C   0  0  0  0  0  0  0  0  0  0  0  0
  -26.2004  -27.8290   21.4055 C   0  0  0  0  0  0  0  0  0  0  0  0
  -22.2895   -9.3844   21.2532 C   0  0  0  0  0  0  0  0  0  0  0  0
  -23.8677   -7.6770   21.9098 C   0  0  0  0  0  0  0  0  0  0  0  0
  -26.8034  -26.6858   20.8828 C   0  0  0  0  0  0  0  0  0  0  0  0
  -21.2077   -6.5143   23.6399 C   0  0  0  0  0  0  0  0  0  0  0  0
  -21.0833   -5.5472   24.6373 C   0  0  0  0  0  0  0  0  0  0  0  0
  -25.1778  -26.6505   19.1008 C   0  0  0  0  0  0  0  0  0  0  0  0
  -21.5442   -3.8161   23.0162 C   0  0  0  0  0  0  0  0  0  0  0  0
  -24.5570   -9.9910   21.8256 C   0  0  0  0  0  0  0  0  0  0  0  0
  -25.8715  -11.7195   23.1642 C   0  0  0  0  0  0  0  0  0  0  0  0
  -18.4938  -30.3499   24.4910 C   0  0  0  0  0  0  0  0  0  0  0  0
  -25.0731  -28.3861   20.7849 C   0  0  0  0  0  0  0  0  0  0  0  0
  -19.7258  -29.6727   24.4120 C   0  0  0  0  0  0  0  0  0  0  0  0
  -24.5639  -27.8023   19.6162 C   0  0  0  0  0  0  0  0  0  0  0  0
  -27.8035  -20.9254   18.1064 C   0  0  0  0  0  0  0  0  0  0  0  0
  -27.6624  -23.1096   16.4150 C   0  0  0  0  0  0  0  0  0  0  0  0
  -27.1196  -22.0878   18.5003 C   0  0  0  0  0  0  0  0  0  0  0  0
  -28.4186  -20.8524   16.8553 C   0  0  0  0  0  0  0  0  0  0  0  0
  -27.0398  -23.1914   17.6467 C   0  0  0  0  0  0  0  0  0  0  0  0
  -28.3377  -21.9597   16.0337 C   0  0  0  0  0  0  0  0  0  0  0  0
  -22.5858   -8.0440   21.5002 C   0  0  0  0  0  0  0  0  0  0  0  0
  -26.2904  -26.0947   19.7319 C   0  0  0  0  0  0  0  0  0  0  0  0
  -21.5003   -6.1323   22.3306 C   0  0  0  0  0  0  0  0  0  0  0  0
  -21.2516   -4.1981   24.3254 C   0  0  0  0  0  0  0  0  0  0  0  0
  -21.6686   -4.7832   22.0188 C   0  0  0  0  0  0  0  0  0  0  0  0
  -25.5757  -10.9961   21.9933 C   0  0  0  0  0  0  0  0  0  0  0  0
  -26.9116  -12.5420   22.8061 C   0  0  0  0  0  0  0  0  0  0  0  0
  -25.2608  -11.6539   24.4597 C   0  0  0  0  0  0  0  0  0  0  0  0
  -22.0586  -28.8992   21.6529 C   0  0  0  0  0  0  0  0  0  0  0  0
  -21.9050  -30.4261   18.7950 C   0  0  0  0  0  0  0  0  0  0  0  0
  -23.1551  -30.8058   15.6423 C   0  0  0  0  0  0  0  0  0  0  0  0
  -29.4396  -15.9580   19.3476 C   0  0  0  0  0  0  0  0  0  0  0  0
  -17.4535  -30.2334   23.4053 C   0  0  0  0  0  0  0  0  0  0  0  0
  -24.4504  -29.6350   21.3462 C   0  0  0  0  0  0  0  0  0  0  0  0
  -27.6878  -24.0847   15.3033 C   0  0  0  0  0  0  0  0  0  0  0  0
  -23.3680  -28.3733   18.9006 C   0  0  0  0  0  0  0  0  0  0  0  0
  -18.0095  -29.7131   22.0822 C   0  0  0  0  0  0  0  0  0  0  0  0
  -29.8114  -12.5887   18.6708 C   0  0  0  0  0  0  0  0  0  0  0  0
  -18.8999  -28.4973   22.3186 C   0  0  0  0  0  0  0  0  0  0  0  0
  -28.7702  -11.9207   19.5686 C   0  0  0  0  0  0  0  0  0  0  0  0
  -27.1824  -18.4937   18.4572 C   0  0  0  0  0  0  0  0  0  0  0  0
  -29.3194  -19.4101   19.4588 C   0  0  0  0  0  0  0  0  0  0  0  0
  -29.2548  -13.8614   18.0433 C   0  0  0  0  0  0  0  0  0  0  0  0
  -27.2842  -17.2893   19.3974 C   0  0  0  0  0  0  0  0  0  0  0  0
  -29.3565  -18.2019   20.3901 C   0  0  0  0  0  0  0  0  0  0  0  0
  -27.7101  -14.2022   19.9449 C   0  0  0  0  0  0  0  0  0  0  0  0
  -28.7817  -23.4446   14.4473 C   0  0  0  0  0  0  0  0  0  0  0  0
  -27.8726  -19.7369   19.0468 C   0  0  0  0  0  0  0  0  0  0  0  0
  -20.1058  -28.8586   23.1943 C   0  0  1  0  0  0  0  0  0  0  0  0
  -22.9961  -29.8195   20.9236 C   0  0  1  0  0  0  0  0  0  0  0  0
  -28.2237  -12.9104   20.6128 C   0  0  1  0  0  0  0  0  0  0  0  0
  -26.4625  -22.1437   19.8446 C   0  0  0  0  0  0  0  0  0  0  0  0
  -29.1444  -19.6288   16.4113 C   0  0  0  0  0  0  0  0  0  0  0  0
  -22.7980  -32.1042   13.5247 C   0  0  0  0  0  0  0  0  0  0  0  0
  -19.4967  -28.6744   18.1301 C   0  0  0  0  0  0  0  0  0  0  0  0
  -19.7795  -29.3187   15.7273 C   0  0  0  0  0  0  0  0  0  0  0  0
  -19.2714  -31.0658   17.4338 C   0  0  0  0  0  0  0  0  0  0  0  0
  -25.8498  -32.0200   15.7952 C   0  0  0  0  0  0  0  0  0  0  0  0
  -26.2994  -24.4249   18.0385 C   0  0  0  0  0  0  0  0  0  1  0  0
  -21.5711  -30.0167   17.3808 C   0  0  1  0  0  0  0  0  0  0  0  0
  -23.5369  -32.0448   14.8525 C   0  0  2  0  0  0  0  0  0  0  0  0
  -20.0510  -29.7568   17.1823 C   0  0  0  0  0  0  0  0  0  0  0  0
  -26.3640  -11.3298   20.9680 N   0  0  0  0  0  0  0  0  0  0  0  0
  -27.1654  -12.2720   21.4935 N   0  0  0  0  0  0  0  0  0  0  0  0
  -22.7904  -29.5916   19.4918 N   0  0  0  0  0  0  0  0  0  0  0  0
  -28.7428  -14.7732   19.0663 N   0  0  0  0  0  0  0  0  0  0  0  0
  -28.6807  -17.0526   19.7886 N   0  0  0  0  0  0  0  0  0  0  0  0
  -27.6246  -13.4626   23.4890 N   0  0  0  0  0  0  0  0  0  0  0  0
  -24.2044  -10.7538   24.6556 N   0  0  0  0  0  0  0  0  0  0  0  0
  -21.1076  -29.5523   22.4135 N   0  0  0  0  0  0  0  0  0  0  0  0
  -22.1175  -31.0562   16.5152 N   0  0  0  0  0  0  0  0  0  0  0  0
  -25.0014  -32.0520   14.5762 N   0  3  0  0  0  0  0  0  0  0  0  0
  -25.6297  -12.3838   25.4108 O   0  0  0  0  0  0  0  0  0  0  0  0
  -22.1875  -27.6865   21.5331 O   0  0  0  0  0  0  0  0  0  0  0  0
  -21.4045  -31.4524   19.2617 O   0  0  0  0  0  0  0  0  0  0  0  0
  -23.7183  -29.7232   15.4965 O   0  0  0  0  0  0  0  0  0  0  0  0
  -30.6674  -16.0340   19.2137 O   0  0  0  0  0  0  0  0  0  0  0  0
  -28.8810  -22.0386   14.7766 O   0  0  0  0  0  0  0  0  0  0  0  0
  -21.6242   -7.0938   21.3417 O   0  0  0  0  0  0  0  0  0  0  0  0
  -26.8807  -24.9708   19.2164 O   0  0  0  0  0  0  0  0  0  1  0  0
  -21.1336   -3.2696   25.2836 F   0  0  0  0  0  0  0  0  0  0  0  0
  -21.9510   -4.4103   20.7630 F   0  0  0  0  0  0  0  0  0  0  0  0
  1  2  1  0  0  0  0
  1  5  2  0  0  0  0
  2  6  2  0  0  0  0
  3  8  2  0  0  0  0
  3 15  1  0  0  0  0
  4  9  1  0  0  0  0
  4 15  2  0  0  0  0
  5 17  1  0  0  0  0
  6 19  1  0  0  0  0
  7 10  2  0  0  0  0
  7 18  1  0  0  0  0
  8 27  1  0  0  0  0
  9 27  2  0  0  0  0
 10 28  1  0  0  0  0
 11 12  2  0  0  0  0
 11 29  1  0  0  0  0
 12 30  1  0  0  0  0
 13 20  1  0  0  0  0
 13 28  2  0  0  0  0
 14 30  2  0  0  0  0
 14 31  1  0  0  0  0
 15 32  1  0  0  0  0
 16 32  1  0  0  0  0
 16 33  2  0  0  0  0
 16 34  1  0  0  0  0
 17 19  2  0  0  0  0
 17 39  1  0  0  0  0
 18 20  2  0  0  0  0
 18 40  1  0  0  0  0
 19 55  1  0  0  0  0
 20 42  1  0  0  0  0
 21 23  2  0  0  0  0
 21 24  1  0  0  0  0
 21 54  1  0  0  0  0
 22 25  2  0  0  0  0
 22 26  1  0  0  0  0
 22 41  1  0  0  0  0
 23 25  1  0  0  0  0
 23 58  1  0  0  0  0
 24 26  2  0  0  0  0
 24 59  1  0  0  0  0
 25 65  1  0  0  0  0
 26 84  1  0  0  0  0
 27 85  1  0  0  0  0
 28 86  1  0  0  0  0
 29 31  2  0  0  0  0
 29 85  1  0  0  0  0
 30 87  1  0  0  0  0
 31 88  1  0  0  0  0
 32 69  2  0  0  0  0
 33 70  1  0  0  0  0
 33 74  1  0  0  0  0
 34 75  1  0  0  0  0
 34 79  2  0  0  0  0
 35 56  1  0  0  0  0
 35 76  1  0  0  0  0
 35 80  2  0  0  0  0
 36 66  1  0  0  0  0
 36 71  1  0  0  0  0
 36 81  2  0  0  0  0
 37 67  1  0  0  0  0
 37 77  1  0  0  0  0
 37 82  2  0  0  0  0
 38 72  1  0  0  0  0
 38 73  1  0  0  0  0
 38 83  2  0  0  0  0
 39 43  1  0  0  0  0
 40 56  1  0  0  0  0
 41 53  1  0  0  0  0
 42 71  1  0  0  0  0
 43 45  1  0  0  0  0
 44 46  1  0  0  0  0
 44 49  1  0  0  0  0
 45 55  1  0  0  0  0
 46 57  1  0  0  0  0
 47 50  1  0  0  0  0
 47 54  1  0  0  0  0
 48 51  1  0  0  0  0
 48 54  1  0  0  0  0
 49 72  1  0  0  0  0
 50 73  1  0  0  0  0
 51 73  1  0  0  0  0
 52 57  1  0  0  0  0
 52 72  1  0  0  0  0
 53 84  1  0  0  0  0
 55 76  1  0  0  0  0
 56 71  1  0  0  0  0
 57 70  1  0  0  0  0
 60 67  1  0  0  0  0
 61 68  1  0  0  0  0
 62 68  1  0  0  0  0
 63 68  1  0  0  0  0
 64 78  1  0  0  0  0
 65 86  1  0  0  0  0
 66 68  1  0  0  0  0
 66 77  1  0  0  0  0
 67 78  1  0  0  0  0
 69 70  1  0  0  0  0
M  CHG  1  78   1
M  ISO  4  38 100  65 101  73 100  86 101
M  END
> <Batch ID>
0163

> <Smiles>
CNC(C)C(=O)NC(C(=O)N1Cc2cc([101O:1][101CH2:1]c3c(C)c(C4CC[100N:0]([100C:0](=O)N5CCCC(n6nc(-c7ccc(Oc8ccc(F)cc8F)cc7)c(C(N)=O)c6N)C5)CC4)c(C)c4c3CCO4)ccc2CC1C(=O)NC1CCCc2ccccc21)C(C)(C)C

> <Shape>
0.255

> <Color>
0.107

> <Negative vol penalty>
0.000

$$$$

  -OEChem-04052322173D

 86 95  0     1  0  0  0  0  0999 V2000
  -24.9550  -28.8422   20.2946 C   0  0  0  0  0  0  0  0  0  0  0  0
  -24.8443  -27.7342   19.4606 C   0  0  0  0  0  0  0  0  0  0  0  0
  -21.2651  -22.2829   24.5866 C   0  0  0  0  0  0  0  0  0  0  0  0
  -22.3867  -23.3530   22.7335 C   0  0  0  0  0  0  0  0  0  0  0  0
  -26.1750  -29.1375   20.9014 C   0  0  0  0  0  0  0  0  0  0  0  0
  -25.9541  -26.9214   19.2321 C   0  0  0  0  0  0  0  0  0  0  0  0
  -26.8319  -19.2348   20.3152 C   0  0  0  0  0  0  0  0  0  0  0  0
  -20.7142  -23.5085   24.9609 C   0  0  0  0  0  0  0  0  0  0  0  0
  -21.8358  -24.5786   23.1078 C   0  0  0  0  0  0  0  0  0  0  0  0
  -27.1582  -17.9116   20.6132 C   0  0  0  0  0  0  0  0  0  0  0  0
  -18.8686  -26.1685   22.8109 C   0  0  0  0  0  0  0  0  0  0  0  0
  -18.3253  -26.9674   21.8049 C   0  0  0  0  0  0  0  0  0  0  0  0
  -25.5212  -12.1001   17.3476 C   0  0  0  0  0  0  0  0  0  0  0  0
  -29.4826  -18.5300   20.8639 C   0  0  0  0  0  0  0  0  0  0  0  0
  -19.8914  -28.7234   22.3536 C   0  0  0  0  0  0  0  0  0  0  0  0
  -24.2695  -12.5769   17.0439 C   0  0  0  0  0  0  0  0  0  0  0  0
  -22.1014  -22.2052   23.4729 C   0  0  0  0  0  0  0  0  0  0  0  0
  -23.5174  -20.1178   23.8545 C   0  0  0  0  0  0  0  0  0  0  0  0
  -27.2978  -28.3224   20.6879 C   0  0  0  0  0  0  0  0  0  0  0  0
  -27.8286  -20.2146   20.3055 C   0  0  0  0  0  0  0  0  0  0  0  0
  -27.1907  -27.2068   19.8356 C   0  0  0  0  0  0  0  0  0  0  0  0
  -29.1598  -19.8593   20.5783 C   0  0  0  0  0  0  0  0  0  0  0  0
  -20.9996  -24.6563   24.2215 C   0  0  0  0  0  0  0  0  0  0  0  0
  -28.4803  -17.5601   20.8866 C   0  0  0  0  0  0  0  0  0  0  0  0
  -19.9232  -26.6470   23.5884 C   0  0  0  0  0  0  0  0  0  0  0  0
  -18.8367  -28.2448   21.5762 C   0  0  0  0  0  0  0  0  0  0  0  0
  -20.4346  -27.9244   23.3597 C   0  0  0  0  0  0  0  0  0  0  0  0
  -22.6712  -20.9395   23.0861 C   0  0  0  0  0  0  0  0  0  0  0  0
  -25.4616  -11.8061   18.7230 C   0  0  0  0  0  0  0  0  0  0  0  0
  -23.7778  -19.0399   23.0441 C   0  0  0  0  0  0  0  0  0  0  0  0
  -24.0228  -20.3116   25.1822 C   0  0  0  0  0  0  0  0  0  0  0  0
  -28.6960  -23.8324   19.8209 C   0  0  0  0  0  0  0  0  0  0  0  0
  -30.3388  -22.8348   22.2118 C   0  0  0  0  0  0  0  0  0  0  0  0
  -31.0708  -21.6488   25.0332 C   0  0  0  0  0  0  0  0  0  0  0  0
  -22.0473  -15.1133   19.6484 C   0  0  0  0  0  0  0  0  0  0  0  0
  -28.6076  -28.7087   21.3281 C   0  0  0  0  0  0  0  0  0  0  0  0
  -27.5328  -21.6412   19.9296 C   0  0  0  0  0  0  0  0  0  0  0  0
  -30.2043  -20.9405   20.5225 C   0  0  0  0  0  0  0  0  0  0  0  0
  -29.6391  -27.5835   21.3316 C   0  0  0  0  0  0  0  0  0  0  0  0
  -22.8204  -18.3032   18.1308 C   0  0  0  0  0  0  0  0  0  0  0  0
  -29.7102  -26.9202   19.9598 C   0  0  0  0  0  0  0  0  0  0  0  0
  -28.0770  -13.2085   19.1191 C   0  0  0  0  0  0  0  0  0  0  0  0
  -26.5257  -13.2574   21.1159 C   0  0  0  0  0  0  0  0  0  0  0  0
  -22.9214  -19.2089   19.3598 C   0  0  0  0  0  0  0  0  0  0  0  0
  -28.8567  -14.3838   19.7008 C   0  0  0  0  0  0  0  0  0  0  0  0
  -27.3095  -14.4330   21.6918 C   0  0  0  0  0  0  0  0  0  0  0  0
  -21.7115  -17.2689   18.2973 C   0  0  0  0  0  0  0  0  0  0  0  0
  -21.9331  -17.3303   20.7513 C   0  0  0  0  0  0  0  0  0  0  0  0
  -28.3654  -26.2870   19.5828 C   0  0  1  0  0  0  0  0  0  0  0  0
  -28.3885  -22.6593   20.7044 C   0  0  1  0  0  0  0  0  0  0  0  0
  -27.4062  -12.3751   20.2199 C   0  0  0  0  0  0  0  0  0  0  0  0
  -23.0505  -18.3849   20.6549 C   0  0  2  0  0  0  0  0  0  0  0  0
  -27.9789  -15.2567   20.5937 C   0  0  0  0  0  0  0  0  0  1  0  0
  -32.4817  -21.4517   27.0991 C   0  0  0  0  0  0  0  0  0  0  0  0
  -27.5056  -10.3336   18.7508 C   0  0  0  0  0  0  0  0  0  0  0  0
  -26.0638  -10.3576   20.7761 C   0  0  0  0  0  0  0  0  0  0  0  0
  -32.7772  -22.5701   20.3986 C   0  0  0  0  0  0  0  0  0  0  0  0
  -34.1643  -22.1618   22.4425 C   0  0  0  0  0  0  0  0  0  0  0  0
  -32.9729  -24.3351   22.1596 C   0  0  0  0  0  0  0  0  0  0  0  0
  -28.8053  -22.3818   26.7909 C   0  0  0  0  0  0  0  0  0  0  0  0
  -22.1350  -12.9635   18.4008 C   0  0  0  0  0  0  0  0  0  0  0  0
  -31.6427  -22.2530   22.6961 C   0  0  1  0  0  0  0  0  0  0  0  0
  -31.2670  -22.1119   26.4655 C   0  0  2  0  0  0  0  0  0  0  0  0
  -26.5878  -11.2376   19.6120 C   0  0  0  0  0  0  0  0  0  0  0  0
  -32.8669  -22.8135   21.9184 C   0  0  0  0  0  0  0  0  0  0  0  0
  -22.4114  -20.4276   21.8801 N   0  0  0  0  0  0  0  0  0  0  0  0
  -24.2666  -12.0737   19.2562 N   0  0  0  0  0  0  0  0  0  0  0  0
  -23.5638  -12.5411   18.2105 N   0  0  0  0  0  0  0  0  0  0  0  0
  -23.0985  -19.2726   21.8846 N   0  0  0  0  0  0  0  0  0  0  0  0
  -29.6966  -22.1630   21.1646 N   0  0  0  0  0  0  0  0  0  0  0  0
  -21.9054  -16.5064   19.5385 N   0  0  0  0  0  0  0  0  0  0  0  0
  -24.5194  -17.9253   23.2174 N   0  0  0  0  0  0  0  0  0  0  0  0
  -25.2416  -20.9849   25.3416 N   0  0  0  0  0  0  0  0  0  0  0  0
  -28.1849  -25.0315   20.2796 N   0  0  0  0  0  0  0  0  0  0  0  0
  -31.6877  -22.4931   24.1344 N   0  0  0  0  0  0  0  0  0  0  0  0
  -21.9995  -14.4097   18.4505 N   0  0  0  0  0  0  0  0  0  0  0  0
  -30.0690  -21.7781   27.2866 N   0  3  0  0  0  0  0  0  0  0  0  0
  -23.4197  -19.8853   26.1962 O   0  0  0  0  0  0  0  0  0  0  0  0
  -29.3503  -23.6638   18.7985 O   0  0  0  0  0  0  0  0  0  0  0  0
  -29.9019  -23.8602   22.7420 O   0  0  0  0  0  0  0  0  0  0  0  0
  -30.4370  -20.6371   24.7412 O   0  0  0  0  0  0  0  0  0  0  0  0
  -22.2077  -14.5400   20.7311 O   0  0  0  0  0  0  0  0  0  0  0  0
  -20.4620  -25.8523   24.5863 O   0  0  0  0  0  0  0  0  0  0  0  0
  -28.7912  -16.2673   21.1812 O   0  0  0  0  0  0  0  0  0  1  0  0
  -18.3159  -29.0113   20.6090 F   0  0  0  0  0  0  0  0  0  0  0  0
  -21.4485  -28.3892   24.1026 F   0  0  0  0  0  0  0  0  0  0  0  0
  1  2  1  0  0  0  0
  1  5  2  0  0  0  0
  2  6  2  0  0  0  0
  3  8  2  0  0  0  0
  3 17  1  0  0  0  0
  4  9  1  0  0  0  0
  4 17  2  0  0  0  0
  5 19  1  0  0  0  0
  6 21  1  0  0  0  0
  7 10  2  0  0  0  0
  7 20  1  0  0  0  0
  8 23  1  0  0  0  0
  9 23  2  0  0  0  0
 10 24  1  0  0  0  0
 11 12  2  0  0  0  0
 11 25  1  0  0  0  0
 12 26  1  0  0  0  0
 13 16  2  0  0  0  0
 13 29  1  0  0  0  0
 14 22  1  0  0  0  0
 14 24  2  0  0  0  0
 15 26  2  0  0  0  0
 15 27  1  0  0  0  0
 16 68  1  0  0  0  0
 17 28  1  0  0  0  0
 18 28  1  0  0  0  0
 18 30  2  0  0  0  0
 18 31  1  0  0  0  0
 19 21  2  0  0  0  0
 19 36  1  0  0  0  0
 20 22  2  0  0  0  0
 20 37  1  0  0  0  0
 21 49  1  0  0  0  0
 22 38  1  0  0  0  0
 23 83  1  0  0  0  0
 24 84  1  0  0  0  0
 25 27  2  0  0  0  0
 25 83  1  0  0  0  0
 26 85  1  0  0  0  0
 27 86  1  0  0  0  0
 28 66  2  0  0  0  0
 29 64  1  0  0  0  0
 29 67  2  0  0  0  0
 30 69  1  0  0  0  0
 30 72  1  0  0  0  0
 31 73  1  0  0  0  0
 31 78  2  0  0  0  0
 32 50  1  0  0  0  0
 32 74  1  0  0  0  0
 32 79  2  0  0  0  0
 33 62  1  0  0  0  0
 33 70  1  0  0  0  0
 33 80  2  0  0  0  0
 34 63  1  0  0  0  0
 34 75  1  0  0  0  0
 34 81  2  0  0  0  0
 35 71  1  0  0  0  0
 35 76  1  0  0  0  0
 35 82  2  0  0  0  0
 36 39  1  0  0  0  0
 37 50  1  0  0  0  0
 38 70  1  0  0  0  0
 39 41  1  0  0  0  0
 40 44  1  0  0  0  0
 40 47  1  0  0  0  0
 41 49  1  0  0  0  0
 42 45  1  0  0  0  0
 42 51  1  0  0  0  0
 43 46  1  0  0  0  0
 43 51  1  0  0  0  0
 44 52  1  0  0  0  0
 45 53  1  0  0  0  0
 46 53  1  0  0  0  0
 47 71  1  0  0  0  0
 48 52  1  0  0  0  0
 48 71  1  0  0  0  0
 49 74  1  0  0  0  0
 50 70  1  0  0  0  0
 51 64  1  0  0  0  0
 52 69  1  0  0  0  0
 53 84  1  0  0  0  0
 54 63  1  0  0  0  0
 55 64  1  0  0  0  0
 56 64  1  0  0  0  0
 57 65  1  0  0  0  0
 58 65  1  0  0  0  0
 59 65  1  0  0  0  0
 60 77  1  0  0  0  0
 61 68  1  0  0  0  0
 61 76  1  0  0  0  0
 62 65  1  0  0  0  0
 62 75  1  0  0  0  0
 63 77  1  0  0  0  0
 66 69  1  0  0  0  0
 67 68  1  0  0  0  0
M  CHG  1  77   1
M  ISO  4  35 100  53 101  76 100  84 101
M  END
> <Batch ID>
0163

> <Smiles>
CNC(C)C(=O)NC(C(=O)N1Cc2cc([101O:1][101CH:1]3CCC(C(C)(C)c4ccn(C[100NH:0][100C:0](=O)N5CCCC(n6nc(-c7ccc(Oc8ccc(F)cc8F)cc7)c(C(N)=O)c6N)C5)n4)CC3)ccc2CC1C(=O)NC1CCCc2ccccc21)C(C)(C)C

> <Shape>
0.200

> <Color>
0.065

> <Negative vol penalty>
0.000

$$$$

  -OEChem-04052322173D

 87 96  0     1  0  0  0  0  0999 V2000
  -16.6873  -25.6941   23.2626 C   0  0  0  0  0  0  0  0  0  0  0  0
  -17.5627  -24.8204   23.8996 C   0  0  0  0  0  0  0  0  0  0  0  0
  -23.2730   -9.6785   19.9644 C   0  0  0  0  0  0  0  0  0  0  0  0
  -23.7564   -9.9403   22.3171 C   0  0  0  0  0  0  0  0  0  0  0  0
  -17.1455  -26.5047   22.2248 C   0  0  0  0  0  0  0  0  0  0  0  0
  -18.8966  -24.7560   23.4984 C   0  0  0  0  0  0  0  0  0  0  0  0
  -25.4654  -23.6142   26.1183 C   0  0  0  0  0  0  0  0  0  0  0  0
  -22.5510   -8.5177   20.2419 C   0  0  0  0  0  0  0  0  0  0  0  0
  -23.0344   -8.7796   22.5946 C   0  0  0  0  0  0  0  0  0  0  0  0
  -26.5922  -22.8245   25.8938 C   0  0  0  0  0  0  0  0  0  0  0  0
  -19.7918   -7.8790   22.9033 C   0  0  0  0  0  0  0  0  0  0  0  0
  -18.9043   -7.9113   23.9789 C   0  0  0  0  0  0  0  0  0  0  0  0
  -29.9846  -19.2405   24.6892 C   0  0  0  0  0  0  0  0  0  0  0  0
  -27.2903  -24.3293   24.1423 C   0  0  0  0  0  0  0  0  0  0  0  0
  -32.4419  -20.5413   24.9174 C   0  0  0  0  0  0  0  0  0  0  0  0
  -20.1259   -6.1175   25.0407 C   0  0  0  0  0  0  0  0  0  0  0  0
  -23.8757  -10.3898   21.0020 C   0  0  0  0  0  0  0  0  0  0  0  0
  -24.1291  -12.9065   20.6707 C   0  0  0  0  0  0  0  0  0  0  0  0
  -18.4880  -26.4572   21.8172 C   0  0  0  0  0  0  0  0  0  0  0  0
  -25.2365  -24.7633   25.3478 C   0  0  0  0  0  0  0  0  0  0  0  0
  -19.3729  -25.5657   22.4533 C   0  0  0  0  0  0  0  0  0  0  0  0
  -31.1613  -18.5728   24.3498 C   0  0  0  0  0  0  0  0  0  0  0  0
  -26.1611  -25.1332   24.3608 C   0  0  0  0  0  0  0  0  0  0  0  0
  -30.0366  -20.5586   25.1427 C   0  0  0  0  0  0  0  0  0  0  0  0
  -32.3899  -19.2232   24.4639 C   0  0  0  0  0  0  0  0  0  0  0  0
  -31.2652  -21.2090   25.2568 C   0  0  0  0  0  0  0  0  0  0  0  0
  -22.4317   -8.0683   21.5570 C   0  0  0  0  0  0  0  0  0  0  0  0
  -27.5034  -23.1804   24.9037 C   0  0  0  0  0  0  0  0  0  0  0  0
  -20.8463   -6.9660   22.8964 C   0  0  0  0  0  0  0  0  0  0  0  0
  -19.0713   -7.0306   25.0476 C   0  0  0  0  0  0  0  0  0  0  0  0
  -21.0134   -6.0853   23.9650 C   0  0  0  0  0  0  0  0  0  0  0  0
  -24.6221  -11.5886   20.7159 C   0  0  0  0  0  0  0  0  0  0  0  0
  -25.2260  -13.6729   20.3609 C   0  0  0  0  0  0  0  0  0  0  0  0
  -22.7987  -13.3942   20.8894 C   0  0  0  0  0  0  0  0  0  0  0  0
  -22.9572  -25.7008   23.3404 C   0  0  0  0  0  0  0  0  0  0  0  0
  -24.6135  -28.4896   23.3771 C   0  0  0  0  0  0  0  0  0  0  0  0
  -27.5836  -30.0888   23.8950 C   0  0  0  0  0  0  0  0  0  0  0  0
  -30.5224  -15.0038   20.9473 C   0  0  0  0  0  0  0  0  0  0  0  0
  -18.9259  -27.3185   20.6592 C   0  0  0  0  0  0  0  0  0  0  0  0
  -24.0300  -25.6191   25.6205 C   0  0  0  0  0  0  0  0  0  0  0  0
  -25.9719  -26.3684   23.5200 C   0  0  0  0  0  0  0  0  0  0  0  0
  -20.4415  -27.4602   20.5445 C   0  0  0  0  0  0  0  0  0  0  0  0
  -29.8411  -12.3660   18.7994 C   0  0  0  0  0  0  0  0  0  0  0  0
  -21.1172  -26.1001   20.6877 C   0  0  0  0  0  0  0  0  0  0  0  0
  -28.3860  -12.0148   19.1021 C   0  0  0  0  0  0  0  0  0  0  0  0
  -30.5966  -12.6898   20.0818 C   0  0  0  0  0  0  0  0  0  0  0  0
  -30.9287  -17.0194   22.3424 C   0  0  0  0  0  0  0  0  0  0  0  0
  -29.8077  -15.1706   23.3972 C   0  0  0  0  0  0  0  0  0  0  0  0
  -28.5205  -13.4890   21.1760 C   0  0  0  0  0  0  0  0  0  0  0  0
  -31.0801  -17.1462   23.8621 C   0  0  2  0  0  0  0  0  0  0  0  0
  -20.8328  -25.4850   22.0633 C   0  0  1  0  0  0  0  0  0  0  0  0
  -23.6309  -26.4858   24.4301 C   0  0  1  0  0  0  0  0  0  0  0  0
  -29.8785  -16.3376   24.3853 C   0  0  2  0  0  0  0  0  0  0  0  0
  -27.7113  -13.1352   19.9108 C   0  0  2  0  0  0  0  0  0  0  0  0
  -31.3455  -22.6201   25.7392 C   0  0  0  0  0  0  0  0  0  0  0  0
  -30.0380  -15.8745   25.8260 C   0  0  0  0  0  0  0  0  0  0  0  0
  -34.6119  -18.3871   25.3111 C   0  0  0  0  0  0  0  0  0  0  0  0
  -34.3967  -19.2115   22.9385 C   0  0  0  0  0  0  0  0  0  0  0  0
  -28.6361  -32.3653   23.8105 C   0  0  0  0  0  0  0  0  0  0  0  0
  -24.6956  -28.3359   20.3309 C   0  0  0  0  0  0  0  0  0  0  0  0
  -26.5175  -30.0529   20.3629 C   0  0  0  0  0  0  0  0  0  0  0  0
  -24.2557  -30.6204   21.2486 C   0  0  0  0  0  0  0  0  0  0  0  0
  -28.2468  -30.0166   26.7784 C   0  0  0  0  0  0  0  0  0  0  0  0
  -28.7636  -21.2535   25.4994 C   0  0  0  0  0  0  0  0  0  1  0  0
  -33.6628  -18.5284   24.1070 C   0  0  0  0  0  0  0  0  0  0  0  0
  -25.7509  -29.0683   22.5705 C   0  0  1  0  0  0  0  0  0  0  0  0
  -27.9304  -31.3390   24.6832 C   0  0  2  0  0  0  0  0  0  0  0  0
  -25.3078  -29.4950   21.1426 C   0  0  0  0  0  0  0  0  0  0  0  0
  -25.9302  -11.5182   20.4555 N   0  0  0  0  0  0  0  0  0  0  0  0
  -26.2686  -12.8014   20.2436 N   0  0  0  0  0  0  0  0  0  0  0  0
  -24.7735  -27.1691   23.8202 N   0  0  0  0  0  0  0  0  0  0  0  0
  -29.9291  -13.7407   20.8487 N   0  0  0  0  0  0  0  0  0  0  0  0
  -30.3090  -15.7138   22.1308 N   0  0  0  0  0  0  0  0  0  0  0  0
  -25.3907  -15.0005   20.1801 N   0  0  0  0  0  0  0  0  0  0  0  0
  -21.7909  -12.4706   21.1985 N   0  0  0  0  0  0  0  0  0  0  0  0
  -21.6624  -26.1037   23.0749 N   0  0  0  0  0  0  0  0  0  0  0  0
  -26.3094  -30.1520   23.3717 N   0  0  0  0  0  0  0  0  0  0  0  0
  -28.8247  -30.9994   25.8259 N   0  3  0  0  0  0  0  0  0  0  0  0
  -22.5089  -14.6111   20.7967 O   0  0  0  0  0  0  0  0  0  0  0  0
  -23.5675  -24.7974   22.7809 O   0  0  0  0  0  0  0  0  0  0  0  0
  -23.6228  -29.1862   23.6116 O   0  0  0  0  0  0  0  0  0  0  0  0
  -28.3661  -29.1516   23.7543 O   0  0  0  0  0  0  0  0  0  0  0  0
  -31.2380  -15.4511   20.0425 O   0  0  0  0  0  0  0  0  0  0  0  0
  -21.7271   -6.9358   21.8282 O   0  0  0  0  0  0  0  0  0  0  0  0
  -28.6116  -22.4056   24.6805 O   0  0  0  0  0  0  0  0  0  1  0  0
  -18.2199   -7.0627   26.0811 F   0  0  0  0  0  0  0  0  0  0  0  0
  -22.0253   -5.2067   23.9645 F   0  0  0  0  0  0  0  0  0  0  0  0
  1  2  1  0  0  0  0
  1  5  2  0  0  0  0
  2  6  2  0  0  0  0
  3  8  2  0  0  0  0
  3 17  1  0  0  0  0
  4  9  1  0  0  0  0
  4 17  2  0  0  0  0
  5 19  1  0  0  0  0
  6 21  1  0  0  0  0
  7 10  2  0  0  0  0
  7 20  1  0  0  0  0
  8 27  1  0  0  0  0
  9 27  2  0  0  0  0
 10 28  1  0  0  0  0
 11 12  2  0  0  0  0
 11 29  1  0  0  0  0
 12 30  1  0  0  0  0
 13 22  2  0  0  0  0
 13 24  1  0  0  0  0
 14 23  1  0  0  0  0
 14 28  2  0  0  0  0
 15 25  2  0  0  0  0
 15 26  1  0  0  0  0
 16 30  2  0  0  0  0
 16 31  1  0  0  0  0
 17 32  1  0  0  0  0
 18 32  1  0  0  0  0
 18 33  2  0  0  0  0
 18 34  1  0  0  0  0
 19 21  2  0  0  0  0
 19 39  1  0  0  0  0
 20 23  2  0  0  0  0
 20 40  1  0  0  0  0
 21 51  1  0  0  0  0
 22 25  1  0  0  0  0
 22 50  1  0  0  0  0
 23 41  1  0  0  0  0
 24 26  2  0  0  0  0
 24 64  1  0  0  0  0
 25 65  1  0  0  0  0
 26 55  1  0  0  0  0
 27 84  1  0  0  0  0
 28 85  1  0  0  0  0
 29 31  2  0  0  0  0
 29 84  1  0  0  0  0
 30 86  1  0  0  0  0
 31 87  1  0  0  0  0
 32 69  2  0  0  0  0
 33 70  1  0  0  0  0
 33 74  1  0  0  0  0
 34 75  1  0  0  0  0
 34 79  2  0  0  0  0
 35 52  1  0  0  0  0
 35 76  1  0  0  0  0
 35 80  2  0  0  0  0
 36 66  1  0  0  0  0
 36 71  1  0  0  0  0
 36 81  2  0  0  0  0
 37 67  1  0  0  0  0
 37 77  1  0  0  0  0
 37 82  2  0  0  0  0
 38 72  1  0  0  0  0
 38 73  1  0  0  0  0
 38 83  2  0  0  0  0
 39 42  1  0  0  0  0
 40 52  1  0  0  0  0
 41 71  1  0  0  0  0
 42 44  1  0  0  0  0
 43 45  1  0  0  0  0
 43 46  1  0  0  0  0
 44 51  1  0  0  0  0
 45 54  1  0  0  0  0
 46 72  1  0  0  0  0
 47 50  1  0  0  0  0
 47 73  1  0  0  0  0
 48 53  1  0  0  0  0
 48 73  1  0  0  0  0
 49 54  1  0  0  0  0
 49 72  1  0  0  0  0
 50 53  1  0  0  0  0
 51 76  1  0  0  0  0
 52 71  1  0  0  0  0
 53 56  1  0  0  0  0
 54 70  1  0  0  0  0
 57 65  1  0  0  0  0
 58 65  1  0  0  0  0
 59 67  1  0  0  0  0
 60 68  1  0  0  0  0
 61 68  1  0  0  0  0
 62 68  1  0  0  0  0
 63 78  1  0  0  0  0
 64 85  1  0  0  0  0
 66 68  1  0  0  0  0
 66 77  1  0  0  0  0
 67 78  1  0  0  0  0
 69 70  1  0  0  0  0
M  CHG  1  78   1
M  ISO  4  38 100  64 101  73 100  85 101
M  END
> <Batch ID>
0163

> <Smiles>
CNC(C)C(=O)NC(C(=O)N1Cc2cc([101O:1][101CH2:1]c3cc(C4C[100N:0]([100C:0](=O)N5CCCC(n6nc(-c7ccc(Oc8ccc(F)cc8F)cc7)c(C(N)=O)c6N)C5)CC4C)c(C(C)C)cc3C)ccc2CC1C(=O)NC1CCCc2ccccc21)C(C)(C)C

> <Shape>
0.266

> <Color>
0.197

> <Negative vol penalty>
0.000

$$$$

  -OEChem-04052322173D

 87 97  0     1  0  0  0  0  0999 V2000
  -16.9736  -28.0958   24.0910 C   0  0  0  0  0  0  0  0  0  0  0  0
  -17.6172  -27.5051   23.0083 C   0  0  0  0  0  0  0  0  0  0  0  0
  -22.7900  -10.3303   20.7571 C   0  0  0  0  0  0  0  0  0  0  0  0
  -24.5193   -9.1174   21.9299 C   0  0  0  0  0  0  0  0  0  0  0  0
  -17.3498  -29.3700   24.5138 C   0  0  0  0  0  0  0  0  0  0  0  0
  -18.6368  -28.1889   22.3470 C   0  0  0  0  0  0  0  0  0  0  0  0
  -22.6453  -25.2463   21.3887 C   0  0  0  0  0  0  0  0  0  0  0  0
  -22.0066   -9.1768   20.7192 C   0  0  0  0  0  0  0  0  0  0  0  0
  -23.7360   -7.9639   21.8921 C   0  0  0  0  0  0  0  0  0  0  0  0
  -22.5465  -24.3666   20.3116 C   0  0  0  0  0  0  0  0  0  0  0  0
  -21.0885   -6.6969   23.5673 C   0  0  0  0  0  0  0  0  0  0  0  0
  -20.9875   -5.9453   24.7380 C   0  0  0  0  0  0  0  0  0  0  0  0
  -23.8133  -25.9021   18.9491 C   0  0  0  0  0  0  0  0  0  0  0  0
  -21.9395   -4.0403   23.5970 C   0  0  0  0  0  0  0  0  0  0  0  0
  -26.7322  -20.4712   14.5070 C   0  0  0  0  0  0  0  0  0  0  0  0
  -24.0464  -10.3006   21.3624 C   0  0  0  0  0  0  0  0  0  0  0  0
  -24.8685  -12.4790   22.4047 C   0  0  0  0  0  0  0  0  0  0  0  0
  -18.3811  -30.0658   23.8634 C   0  0  0  0  0  0  0  0  0  0  0  0
  -23.3207  -26.4675   21.2507 C   0  0  0  0  0  0  0  0  0  0  0  0
  -19.0263  -29.4741   22.7606 C   0  0  0  0  0  0  0  0  0  0  0  0
  -23.9215  -26.7944   20.0267 C   0  0  0  0  0  0  0  0  0  0  0  0
  -25.9558  -20.6694   15.6374 C   0  0  0  0  0  0  0  0  0  0  0  0
  -25.0714  -21.7422   15.6395 C   0  0  0  0  0  0  0  0  0  0  0  0
  -24.9916  -22.5725   14.5270 C   0  0  0  0  0  0  0  0  0  0  0  0
  -22.4796   -7.9936   21.2867 C   0  0  0  0  0  0  0  0  0  0  0  0
  -23.1280  -24.6957   19.0907 C   0  0  0  0  0  0  0  0  0  0  0  0
  -21.6150   -6.1202   22.4115 C   0  0  0  0  0  0  0  0  0  0  0  0
  -21.4130   -4.6170   24.7529 C   0  0  0  0  0  0  0  0  0  0  0  0
  -22.0405   -4.7919   22.4263 C   0  0  0  0  0  0  0  0  0  0  0  0
  -24.8563  -11.4917   21.4013 C   0  0  0  0  0  0  0  0  0  0  0  0
  -25.8114  -22.2893   13.4465 C   0  0  0  0  0  0  0  0  0  0  0  0
  -25.8006  -13.3923   21.9764 C   0  0  0  0  0  0  0  0  0  0  0  0
  -24.1055  -12.5630   23.6157 C   0  0  0  0  0  0  0  0  0  0  0  0
  -22.4922  -29.5276   21.4809 C   0  0  0  0  0  0  0  0  0  0  0  0
  -25.6778  -30.0147   21.1102 C   0  0  0  0  0  0  0  0  0  0  0  0
  -28.6721  -28.8499   19.9597 C   0  0  0  0  0  0  0  0  0  0  0  0
  -28.1900  -16.4517   18.1096 C   0  0  0  0  0  0  0  0  0  0  0  0
  -18.7208  -31.4602   24.3268 C   0  0  0  0  0  0  0  0  0  0  0  0
  -23.4414  -27.3935   22.4298 C   0  0  0  0  0  0  0  0  0  0  0  0
  -24.6751  -28.0839   19.8325 C   0  0  0  0  0  0  0  0  0  0  0  0
  -20.0648  -31.9643   23.8072 C   0  0  0  0  0  0  0  0  0  0  0  0
  -29.1913  -13.1459   18.2409 C   0  0  0  0  0  0  0  0  0  0  0  0
  -20.2005  -31.6805   22.3146 C   0  0  0  0  0  0  0  0  0  0  0  0
  -28.1594  -12.4898   19.1580 C   0  0  0  0  0  0  0  0  0  0  0  0
  -25.6948  -18.2862   16.4585 C   0  0  0  0  0  0  0  0  0  0  0  0
  -27.4982  -19.7700   17.4360 C   0  0  0  0  0  0  0  0  0  0  0  0
  -24.8632  -22.1570   18.1813 C   0  0  0  0  0  0  0  0  0  0  0  0
  -28.5268  -14.1382   17.2938 C   0  0  0  0  0  0  0  0  0  0  0  0
  -25.8610  -17.3373   17.6489 C   0  0  0  0  0  0  0  0  0  0  0  0
  -27.6031  -18.8036   18.6122 C   0  0  0  0  0  0  0  0  0  0  0  0
  -26.7026  -14.5602   18.9100 C   0  0  0  0  0  0  0  0  0  0  0  0
  -26.0875  -19.7297   16.8212 C   0  0  0  0  0  0  0  0  0  0  0  0
  -24.2106  -22.0002   16.8347 C   0  0  1  0  0  0  0  0  0  0  0  0
  -20.1538  -30.1739   22.0330 C   0  0  1  0  0  0  0  0  0  0  0  0
  -23.7111  -28.8403   22.0282 C   0  0  1  0  0  0  0  0  0  0  0  0
  -27.3226  -13.5496   19.8962 C   0  0  1  0  0  0  0  0  0  0  0  0
  -24.2730  -23.3520   17.4972 C   0  0  1  0  0  0  0  0  0  1  0  0
  -24.0532  -23.7324   14.4972 C   0  0  0  0  0  0  0  0  0  0  0  0
  -25.7701  -23.1457   12.2231 C   0  0  0  0  0  0  0  0  0  0  0  0
  -31.0913  -29.4883   19.7664 C   0  0  0  0  0  0  0  0  0  0  0  0
  -24.9953  -31.8934   18.8049 C   0  0  0  0  0  0  0  0  0  0  0  0
  -27.3832  -31.7433   18.0675 C   0  0  0  0  0  0  0  0  0  0  0  0
  -26.8276  -32.7023   20.3024 C   0  0  0  0  0  0  0  0  0  0  0  0
  -29.5310  -26.5504   21.6131 C   0  0  0  0  0  0  0  0  0  0  0  0
  -26.5989  -30.2120   19.9306 C   0  0  1  0  0  0  0  0  0  0  0  0
  -30.0424  -28.7796   20.6092 C   0  0  2  0  0  0  0  0  0  0  0  0
  -26.4355  -31.6143   19.2791 C   0  0  0  0  0  0  0  0  0  0  0  0
  -26.6826  -21.2563   13.4076 N   0  0  0  0  0  0  0  0  0  0  0  0
  -25.7126  -11.7532   20.4101 N   0  0  0  0  0  0  0  0  0  0  0  0
  -26.2715  -12.9153   20.7886 N   0  0  0  0  0  0  0  0  0  0  0  0
  -24.7601  -28.9590   21.0134 N   0  0  0  0  0  0  0  0  0  0  0  0
  -27.7392  -15.1253   18.0322 N   0  0  0  0  0  0  0  0  0  0  0  0
  -27.2109  -17.4506   18.2185 N   0  0  0  0  0  0  0  0  0  0  0  0
  -26.2552  -14.5489   22.5037 N   0  0  0  0  0  0  0  0  0  0  0  0
  -23.1921  -11.5393   23.9022 N   0  0  0  0  0  0  0  0  0  0  0  0
  -21.4236  -29.5596   22.3565 N   0  0  0  0  0  0  0  0  0  0  0  0
  -27.9466  -29.9310   20.4136 N   0  0  0  0  0  0  0  0  0  0  0  0
  -30.4606  -27.3600   20.7840 N   0  3  0  0  0  0  0  0  0  0  0  0
  -24.2181  -13.5258   24.4117 O   0  0  0  0  0  0  0  0  0  0  0  0
  -22.5197  -29.9956   20.3487 O   0  0  0  0  0  0  0  0  0  0  0  0
  -25.7738  -30.7649   22.0847 O   0  0  0  0  0  0  0  0  0  0  0  0
  -28.2856  -28.0300   19.1296 O   0  0  0  0  0  0  0  0  0  0  0  0
  -29.3959  -16.7278   18.0836 O   0  0  0  0  0  0  0  0  0  0  0  0
  -21.7154   -6.8679   21.2502 O   0  0  0  0  0  0  0  0  0  0  0  0
  -23.0322  -23.8374   18.0354 O   0  0  0  0  0  0  0  0  0  1  0  0
  -21.3174   -3.8958   25.8775 F   0  0  0  0  0  0  0  0  0  0  0  0
  -22.5483   -4.2328   21.3194 F   0  0  0  0  0  0  0  0  0  0  0  0
  1  2  1  0  0  0  0
  1  5  2  0  0  0  0
  2  6  2  0  0  0  0
  3  8  2  0  0  0  0
  3 16  1  0  0  0  0
  4  9  1  0  0  0  0
  4 16  2  0  0  0  0
  5 18  1  0  0  0  0
  6 20  1  0  0  0  0
  7 10  2  0  0  0  0
  7 19  1  0  0  0  0
  8 25  1  0  0  0  0
  9 25  2  0  0  0  0
 10 26  1  0  0  0  0
 11 12  2  0  0  0  0
 11 27  1  0  0  0  0
 12 28  1  0  0  0  0
 13 21  1  0  0  0  0
 13 26  2  0  0  0  0
 14 28  2  0  0  0  0
 14 29  1  0  0  0  0
 15 22  2  0  0  0  0
 15 68  1  0  0  0  0
 16 30  1  0  0  0  0
 17 30  1  0  0  0  0
 17 32  2  0  0  0  0
 17 33  1  0  0  0  0
 18 20  2  0  0  0  0
 18 38  1  0  0  0  0
 19 21  2  0  0  0  0
 19 39  1  0  0  0  0
 20 54  1  0  0  0  0
 21 40  1  0  0  0  0
 22 23  1  0  0  0  0
 22 52  1  0  0  0  0
 23 24  2  0  0  0  0
 23 53  1  0  0  0  0
 24 31  1  0  0  0  0
 24 58  1  0  0  0  0
 25 84  1  0  0  0  0
 26 85  1  0  0  0  0
 27 29  2  0  0  0  0
 27 84  1  0  0  0  0
 28 86  1  0  0  0  0
 29 87  1  0  0  0  0
 30 69  2  0  0  0  0
 31 59  1  0  0  0  0
 31 68  2  0  0  0  0
 32 70  1  0  0  0  0
 32 74  1  0  0  0  0
 33 75  1  0  0  0  0
 33 79  2  0  0  0  0
 34 55  1  0  0  0  0
 34 76  1  0  0  0  0
 34 80  2  0  0  0  0
 35 65  1  0  0  0  0
 35 71  1  0  0  0  0
 35 81  2  0  0  0  0
 36 66  1  0  0  0  0
 36 77  1  0  0  0  0
 36 82  2  0  0  0  0
 37 72  1  0  0  0  0
 37 73  1  0  0  0  0
 37 83  2  0  0  0  0
 38 41  1  0  0  0  0
 39 55  1  0  0  0  0
 40 71  1  0  0  0  0
 41 43  1  0  0  0  0
 42 44  1  0  0  0  0
 42 48  1  0  0  0  0
 43 54  1  0  0  0  0
 44 56  1  0  0  0  0
 45 49  1  0  0  0  0
 45 52  1  0  0  0  0
 46 50  1  0  0  0  0
 46 52  1  0  0  0  0
 47 53  1  0  0  0  0
 47 57  1  0  0  0  0
 48 72  1  0  0  0  0
 49 73  1  0  0  0  0
 50 73  1  0  0  0  0
 51 56  1  0  0  0  0
 51 72  1  0  0  0  0
 53 57  1  0  0  0  0
 54 76  1  0  0  0  0
 55 71  1  0  0  0  0
 56 70  1  0  0  0  0
 57 85  1  0  0  0  0
 60 66  1  0  0  0  0
 61 67  1  0  0  0  0
 62 67  1  0  0  0  0
 63 67  1  0  0  0  0
 64 78  1  0  0  0  0
 65 67  1  0  0  0  0
 65 77  1  0  0  0  0
 66 78  1  0  0  0  0
 69 70  1  0  0  0  0
M  CHG  1  78   1
M  ISO  4  37 100  57 101  73 100  85 101
M  END
> <Batch ID>
0163

> <Smiles>
CNC(C)C(=O)NC(C(=O)N1Cc2cc([101O:1][101CH:1]3CC3c3c(C4CC[100N:0]([100C:0](=O)N5CCCC(n6nc(-c7ccc(Oc8ccc(F)cc8F)cc7)c(C(N)=O)c6N)C5)CC4)cnc(C)c3C)ccc2CC1C(=O)NC1CCCc2ccccc21)C(C)(C)C

> <Shape>
0.266

> <Color>
0.125

> <Negative vol penalty>
0.000

$$$$

  -OEChem-04052322173D

 84 94  0     1  0  0  0  0  0999 V2000
  -23.1313  -22.4669   20.6019 C   0  0  0  0  0  0  0  0  0  0  0  0
  -23.9077  -21.6039   19.8369 C   0  0  0  0  0  0  0  0  0  0  0  0
  -25.3796  -26.0928   20.9096 C   0  0  0  0  0  0  0  0  0  0  0  0
  -25.6526  -24.5349   22.7359 C   0  0  0  0  0  0  0  0  0  0  0  0
  -22.8137  -22.1324   21.9166 C   0  0  0  0  0  0  0  0  0  0  0  0
  -24.3568  -20.4007   20.3823 C   0  0  0  0  0  0  0  0  0  0  0  0
  -28.5804  -14.7118   19.2833 C   0  0  0  0  0  0  0  0  0  0  0  0
  -24.2332  -26.6044   21.5173 C   0  0  0  0  0  0  0  0  0  0  0  0
  -24.5062  -25.0465   23.3437 C   0  0  0  0  0  0  0  0  0  0  0  0
  -29.6623  -13.9862   19.7801 C   0  0  0  0  0  0  0  0  0  0  0  0
  -23.4881  -28.7327   24.0369 C   0  0  0  0  0  0  0  0  0  0  0  0
  -23.3451  -30.1192   24.0878 C   0  0  0  0  0  0  0  0  0  0  0  0
  -28.2195  -12.9747   21.4277 C   0  0  0  0  0  0  0  0  0  0  0  0
  -21.2959  -29.9545   22.8187 C   0  0  0  0  0  0  0  0  0  0  0  0
  -26.0894  -25.0580   21.5188 C   0  0  0  0  0  0  0  0  0  0  0  0
  -28.4516  -25.2296   20.5711 C   0  0  0  0  0  0  0  0  0  0  0  0
  -23.2700  -20.9301   22.4817 C   0  0  0  0  0  0  0  0  0  0  0  0
  -27.3101  -14.5823   19.8629 C   0  0  0  0  0  0  0  0  0  0  0  0
  -24.0269  -20.0341   21.6996 C   0  0  0  0  0  0  0  0  0  0  0  0
  -27.1226  -13.6979   20.9348 C   0  0  0  0  0  0  0  0  0  0  0  0
  -29.6485  -17.4858   24.1733 C   0  0  0  0  0  0  0  0  0  0  0  0
  -23.7964  -26.0813   22.7344 C   0  0  0  0  0  0  0  0  0  0  0  0
  -29.4826  -13.1197   20.8543 C   0  0  0  0  0  0  0  0  0  0  0  0
  -22.5350  -27.9570   23.3769 C   0  0  0  0  0  0  0  0  0  0  0  0
  -22.2491  -30.7302   23.4787 C   0  0  0  0  0  0  0  0  0  0  0  0
  -21.4389  -28.5679   22.7678 C   0  0  0  0  0  0  0  0  0  0  0  0
  -27.2734  -24.5286   20.8912 C   0  0  0  0  0  0  0  0  0  0  0  0
  -30.4462  -16.5039   24.7082 C   0  0  0  0  0  0  0  0  0  0  0  0
  -29.9368  -17.4619   22.7956 C   0  0  0  0  0  0  0  0  0  0  0  0
  -29.2669  -24.2860   19.9955 C   0  0  0  0  0  0  0  0  0  0  0  0
  -28.7797  -26.6102   20.7758 C   0  0  0  0  0  0  0  0  0  0  0  0
  -25.3104  -16.5567   21.3484 C   0  0  0  0  0  0  0  0  0  0  0  0
  -23.3222  -13.9957   21.2451 C   0  0  0  0  0  0  0  0  0  0  0  0
  -22.9700  -10.6083   21.0255 C   0  0  0  0  0  0  0  0  0  0  0  0
  -29.5865  -18.3372   20.4595 C   0  0  0  0  0  0  0  0  0  0  0  0
  -22.8902  -20.6142   23.9069 C   0  0  0  0  0  0  0  0  0  0  0  0
  -26.1477  -15.3519   19.2982 C   0  0  0  0  0  0  0  0  0  0  0  0
  -25.7748  -13.5075   21.5794 C   0  0  0  0  0  0  0  0  0  0  0  0
  -23.7742  -19.5411   24.5338 C   0  0  0  0  0  0  0  0  0  0  0  0
  -29.0874  -20.2166   17.4769 C   0  0  0  0  0  0  0  0  0  0  0  0
  -23.8771  -18.3428   23.6021 C   0  0  0  0  0  0  0  0  0  0  0  0
  -30.8741  -17.1415   27.2146 C   0  0  0  0  0  0  0  0  0  0  0  0
  -31.8951  -16.1072   26.8569 C   0  0  0  0  0  0  0  0  0  0  0  0
  -28.6787  -21.6012   17.9850 C   0  0  0  0  0  0  0  0  0  0  0  0
  -32.5012  -12.4626   22.8643 C   0  0  0  0  0  0  0  0  0  0  0  0
  -28.5169  -19.1008   18.3505 C   0  0  0  0  0  0  0  0  0  0  0  0
  -28.3962  -20.6112   20.2930 C   0  0  0  0  0  0  0  0  0  0  0  0
  -24.5522  -18.7341   22.2815 C   0  0  1  0  0  0  0  0  0  0  0  0
  -30.5411  -16.0895   26.1748 C   0  0  0  0  0  0  0  0  0  0  0  0
  -25.0069  -15.5286   20.2955 C   0  0  1  0  0  0  0  0  0  0  0  0
  -31.5730  -13.5687   23.2841 C   0  0  2  0  0  0  0  0  0  0  0  0
  -29.0007  -21.7695   19.4828 C   0  0  2  0  0  0  0  0  0  0  0  0
  -31.6474  -13.1569   21.8381 C   0  0  2  0  0  0  0  0  0  1  0  0
  -28.7033  -18.3629   24.8882 C   0  0  0  0  0  0  0  0  0  0  0  0
  -21.8014   -8.3976   20.8146 C   0  0  0  0  0  0  0  0  0  0  0  0
  -22.9732  -14.3028   24.2607 C   0  0  0  0  0  0  0  0  0  0  0  0
  -22.0300  -11.9843   24.3174 C   0  0  0  0  0  0  0  0  0  0  0  0
  -20.8706  -13.7691   23.0162 C   0  0  0  0  0  0  0  0  0  0  0  0
  -23.0106  -10.7377   18.0691 C   0  0  0  0  0  0  0  0  0  0  0  0
  -32.1222  -14.8840   23.7168 C   0  0  0  0  0  0  0  0  0  0  0  0
  -23.0472  -12.8186   22.1494 C   0  0  1  0  0  0  0  0  0  0  0  0
  -22.0726   -9.7429   20.1594 C   0  0  2  0  0  0  0  0  0  0  0  0
  -22.2562  -13.2235   23.4252 C   0  0  0  0  0  0  0  0  0  0  0  0
  -27.3310  -23.2393   20.5473 N   0  0  0  0  0  0  0  0  0  0  0  0
  -30.8467  -16.5381   22.4752 N   0  0  0  0  0  0  0  0  0  0  0  0
  -31.1371  -15.9725   23.6592 N   0  0  0  0  0  0  0  0  0  0  0  0
  -28.5551  -23.1226   20.0051 N   0  0  0  0  0  0  0  0  0  0  0  0
  -24.6708  -14.2870   20.9955 N   0  0  0  0  0  0  0  0  0  0  0  0
  -28.8654  -19.3246   19.7552 N   0  0  0  0  0  0  0  0  0  0  0  0
  -30.5160  -24.3462   19.4870 N   0  0  0  0  0  0  0  0  0  0  0  0
  -29.3969  -26.9790   21.9789 N   0  0  0  0  0  0  0  0  0  0  0  0
  -29.3423  -18.3141   21.8322 N   0  0  0  0  0  0  0  0  0  0  0  0
  -24.4430  -17.6324   21.3509 N   0  0  0  0  0  0  0  0  0  0  0  0
  -22.3791  -11.8176   21.3247 N   0  0  0  0  0  0  0  0  0  0  0  0
  -22.7095   -9.5003   18.8340 N   0  3  0  0  0  0  0  0  0  0  0  0
  -28.5179  -27.4933   19.9242 O   0  0  0  0  0  0  0  0  0  0  0  0
  -26.2602  -16.3859   22.1036 O   0  0  0  0  0  0  0  0  0  0  0  0
  -22.3753  -14.6288   20.7717 O   0  0  0  0  0  0  0  0  0  0  0  0
  -24.0824  -10.2461   21.4023 O   0  0  0  0  0  0  0  0  0  0  0  0
  -30.3839  -17.5868   19.8911 O   0  0  0  0  0  0  0  0  0  0  0  0
  -22.6779  -26.5805   23.3279 O   0  0  0  0  0  0  0  0  0  0  0  0
  -30.5370  -12.4108   21.3416 O   0  0  0  0  0  0  0  0  0  1  0  0
  -22.1111  -32.0616   23.5290 F   0  0  0  0  0  0  0  0  0  0  0  0
  -20.5193  -27.8279   22.1332 F   0  0  0  0  0  0  0  0  0  0  0  0
  1  2  1  0  0  0  0
  1  5  2  0  0  0  0
  2  6  2  0  0  0  0
  3  8  2  0  0  0  0
  3 15  1  0  0  0  0
  4  9  1  0  0  0  0
  4 15  2  0  0  0  0
  5 17  1  0  0  0  0
  6 19  1  0  0  0  0
  7 10  2  0  0  0  0
  7 18  1  0  0  0  0
  8 22  1  0  0  0  0
  9 22  2  0  0  0  0
 10 23  1  0  0  0  0
 11 12  2  0  0  0  0
 11 24  1  0  0  0  0
 12 25  1  0  0  0  0
 13 20  1  0  0  0  0
 13 23  2  0  0  0  0
 14 25  2  0  0  0  0
 14 26  1  0  0  0  0
 15 27  1  0  0  0  0
 16 27  1  0  0  0  0
 16 30  2  0  0  0  0
 16 31  1  0  0  0  0
 17 19  2  0  0  0  0
 17 36  1  0  0  0  0
 18 20  2  0  0  0  0
 18 37  1  0  0  0  0
 19 48  1  0  0  0  0
 20 38  1  0  0  0  0
 21 28  2  0  0  0  0
 21 29  1  0  0  0  0
 21 54  1  0  0  0  0
 22 81  1  0  0  0  0
 23 82  1  0  0  0  0
 24 26  2  0  0  0  0
 24 81  1  0  0  0  0
 25 83  1  0  0  0  0
 26 84  1  0  0  0  0
 27 64  2  0  0  0  0
 28 49  1  0  0  0  0
 28 66  1  0  0  0  0
 29 65  2  0  0  0  0
 29 72  1  0  0  0  0
 30 67  1  0  0  0  0
 30 70  1  0  0  0  0
 31 71  1  0  0  0  0
 31 76  2  0  0  0  0
 32 50  1  0  0  0  0
 32 73  1  0  0  0  0
 32 77  2  0  0  0  0
 33 61  1  0  0  0  0
 33 68  1  0  0  0  0
 33 78  2  0  0  0  0
 34 62  1  0  0  0  0
 34 74  1  0  0  0  0
 34 79  2  0  0  0  0
 35 69  1  0  0  0  0
 35 72  1  0  0  0  0
 35 80  2  0  0  0  0
 36 39  1  0  0  0  0
 37 50  1  0  0  0  0
 38 68  1  0  0  0  0
 39 41  1  0  0  0  0
 40 44  1  0  0  0  0
 40 46  1  0  0  0  0
 41 48  1  0  0  0  0
 42 43  1  0  0  0  0
 42 49  1  0  0  0  0
 43 49  1  0  0  0  0
 44 52  1  0  0  0  0
 45 51  1  0  0  0  0
 45 53  1  0  0  0  0
 46 69  1  0  0  0  0
 47 52  1  0  0  0  0
 47 69  1  0  0  0  0
 48 73  1  0  0  0  0
 50 68  1  0  0  0  0
 51 53  1  0  0  0  0
 51 60  1  0  0  0  0
 52 67  1  0  0  0  0
 53 82  1  0  0  0  0
 55 62  1  0  0  0  0
 56 63  1  0  0  0  0
 57 63  1  0  0  0  0
 58 63  1  0  0  0  0
 59 75  1  0  0  0  0
 60 66  1  0  0  0  0
 61 63  1  0  0  0  0
 61 74  1  0  0  0  0
 62 75  1  0  0  0  0
 64 67  1  0  0  0  0
 65 66  1  0  0  0  0
M  CHG  1  75   1
M  ISO  4  35 100  53 101  72 100  82 101
M  END
> <Batch ID>
0163

> <Smiles>
CNC(C)C(=O)NC(C(=O)N1Cc2cc([101O:1][101CH:1]3CC3Cn3nc([100NH:0][100C:0](=O)N4CCCC(n5nc(-c6ccc(Oc7ccc(F)cc7F)cc6)c(C(N)=O)c5N)C4)c(C)c3C3CC3)ccc2CC1C(=O)NC1CCCc2ccccc21)C(C)(C)C

> <Shape>
0.235

> <Color>
0.063

> <Negative vol penalty>
0.000

$$$$

  -OEChem-04052322173D

 85 94  0     1  0  0  0  0  0999 V2000
  -35.1141  -11.7576   19.2019 C   0  0  0  0  0  0  0  0  0  0  0  0
  -34.4187  -12.9625   19.1953 C   0  0  0  0  0  0  0  0  0  0  0  0
  -26.5292  -30.0952   23.9567 C   0  0  0  0  0  0  0  0  0  0  0  0
  -26.1259  -27.8364   23.2003 C   0  0  0  0  0  0  0  0  0  0  0  0
  -34.4568  -10.5728   18.8729 C   0  0  0  0  0  0  0  0  0  0  0  0
  -33.0657  -12.9834   18.8585 C   0  0  0  0  0  0  0  0  0  0  0  0
  -30.3273  -15.8651   21.9957 C   0  0  0  0  0  0  0  0  0  0  0  0
  -27.2956  -29.6044   25.0137 C   0  0  0  0  0  0  0  0  0  0  0  0
  -26.8923  -27.3456   24.2573 C   0  0  0  0  0  0  0  0  0  0  0  0
  -30.3878  -17.2453   21.8086 C   0  0  0  0  0  0  0  0  0  0  0  0
  -26.7546  -28.2086   28.0441 C   0  0  0  0  0  0  0  0  0  0  0  0
  -26.5401  -28.7572   29.3085 C   0  0  0  0  0  0  0  0  0  0  0  0
  -28.2827  -17.1722   20.6329 C   0  0  0  0  0  0  0  0  0  0  0  0
  -28.8447  -29.4783   29.3865 C   0  0  0  0  0  0  0  0  0  0  0  0
  -28.9911  -21.8290   18.8627 C   0  0  0  0  0  0  0  0  0  0  0  0
  -25.9443  -29.2112   23.0500 C   0  0  0  0  0  0  0  0  0  0  0  0
  -23.9827  -30.4964   22.0461 C   0  0  0  0  0  0  0  0  0  0  0  0
  -33.0928  -10.5780   18.5413 C   0  0  0  0  0  0  0  0  0  0  0  0
  -29.2475  -15.1252   21.4925 C   0  0  0  0  0  0  0  0  0  0  0  0
  -32.3899  -11.7978   18.5234 C   0  0  0  0  0  0  0  0  0  0  0  0
  -28.2095  -15.7830   20.8172 C   0  0  0  0  0  0  0  0  0  0  0  0
  -28.5914  -21.3119   20.0845 C   0  0  0  0  0  0  0  0  0  0  0  0
  -28.4351  -22.1965   21.1458 C   0  0  0  0  0  0  0  0  0  0  0  0
  -28.6798  -23.5519   20.9557 C   0  0  0  0  0  0  0  0  0  0  0  0
  -27.4772  -28.2296   25.1641 C   0  0  0  0  0  0  0  0  0  0  0  0
  -29.3669  -17.8987   21.1246 C   0  0  0  0  0  0  0  0  0  0  0  0
  -28.0141  -28.2948   27.4509 C   0  0  0  0  0  0  0  0  0  0  0  0
  -27.5852  -29.3921   29.9797 C   0  0  0  0  0  0  0  0  0  0  0  0
  -29.0591  -28.9297   28.1221 C   0  0  0  0  0  0  0  0  0  0  0  0
  -25.1521  -29.7176   21.9582 C   0  0  0  0  0  0  0  0  0  0  0  0
  -29.0758  -23.9687   19.6950 C   0  0  0  0  0  0  0  0  0  0  0  0
  -23.6171  -30.7154   20.7404 C   0  0  0  0  0  0  0  0  0  0  0  0
  -23.2890  -30.9789   23.2044 C   0  0  0  0  0  0  0  0  0  0  0  0
  -28.9300  -12.7807   19.3698 C   0  0  0  0  0  0  0  0  0  0  0  0
  -25.8495  -12.8043   20.3858 C   0  0  0  0  0  0  0  0  0  0  0  0
  -23.2873  -14.5378   21.8270 C   0  0  0  0  0  0  0  0  0  0  0  0
  -28.0790  -28.6054   17.9877 C   0  0  0  0  0  0  0  0  0  0  0  0
  -32.4367   -9.2785   18.1467 C   0  0  0  0  0  0  0  0  0  0  0  0
  -29.1838  -13.6407   21.7260 C   0  0  0  0  0  0  0  0  0  0  0  0
  -27.0185  -15.0374   20.2751 C   0  0  0  0  0  0  0  0  0  0  0  0
  -30.9114   -9.3359   18.1657 C   0  0  0  0  0  0  0  0  0  0  0  0
  -24.4881  -28.0633   16.8284 C   0  0  0  0  0  0  0  0  0  0  0  0
  -30.4160  -10.5991   17.4686 C   0  0  0  0  0  0  0  0  0  0  0  0
  -23.7538  -28.8632   17.8972 C   0  0  0  0  0  0  0  0  0  0  0  0
  -25.8369  -27.5882   17.3568 C   0  0  0  0  0  0  0  0  0  0  0  0
  -28.1262  -26.2205   18.9640 C   0  0  0  0  0  0  0  0  0  0  0  0
  -30.0986  -27.1844   17.9963 C   0  0  0  0  0  0  0  0  0  0  0  0
  -26.0613  -30.0064   17.9360 C   0  0  0  0  0  0  0  0  0  0  0  0
  -30.9155  -11.8580   18.1877 C   0  0  1  0  0  0  0  0  0  0  0  0
  -29.3570  -25.4279   19.4275 C   0  0  2  0  0  0  0  0  0  0  0  0
  -28.2915  -12.9158   20.7232 C   0  0  1  0  0  0  0  0  0  0  0  0
  -30.3730  -25.7137   18.3056 C   0  0  2  0  0  0  0  0  0  0  0  0
  -24.6132  -30.0108   18.4612 C   0  0  2  0  0  0  0  0  0  0  0  0
  -28.0055  -21.6897   22.4854 C   0  0  0  0  0  0  0  0  0  0  0  0
  -28.5193  -24.5263   22.0740 C   0  0  0  0  0  0  0  0  0  0  0  0
  -31.8169  -25.4599   18.7123 C   0  0  0  0  0  0  0  0  0  0  0  0
  -21.0195  -14.9425   22.8221 C   0  0  0  0  0  0  0  0  0  0  0  0
  -25.0194  -13.0950   17.4641 C   0  0  0  0  0  0  0  0  0  0  0  0
  -22.7502  -13.8013   18.2517 C   0  0  0  0  0  0  0  0  0  0  0  0
  -23.6050  -11.5227   18.7990 C   0  0  0  0  0  0  0  0  0  0  0  0
  -24.2078  -13.7636   24.5311 C   0  0  0  0  0  0  0  0  0  0  0  0
  -28.3435  -19.8502   20.2301 C   0  0  0  0  0  0  0  0  0  1  0  0
  -24.5931  -13.5321   19.9728 C   0  0  1  0  0  0  0  0  0  0  0  0
  -22.3245  -14.1710   22.9418 C   0  0  2  0  0  0  0  0  0  0  0  0
  -24.0152  -13.0019   18.6303 C   0  0  0  0  0  0  0  0  0  0  0  0
  -29.2382  -23.1393   18.6398 N   0  0  0  0  0  0  0  0  0  0  0  0
  -25.5058  -29.4590   20.6964 N   0  0  0  0  0  0  0  0  0  0  0  0
  -24.5530  -30.0789   19.9794 N   0  0  0  0  0  0  0  0  0  0  0  0
  -27.0051  -13.5863   20.5234 N   0  0  0  0  0  0  0  0  0  0  0  0
  -26.6809  -28.6778   17.8642 N   0  0  0  0  0  0  0  0  0  0  0  0
  -28.6707  -27.3709   18.2415 N   0  0  0  0  0  0  0  0  0  0  0  0
  -22.5894  -31.3884   20.1804 N   0  0  0  0  0  0  0  0  0  0  0  0
  -22.2839  -30.1778   23.7632 N   0  0  0  0  0  0  0  0  0  0  0  0
  -30.1338  -12.1022   19.3809 N   0  0  0  0  0  0  0  0  0  0  0  0
  -23.6733  -13.4311   21.1007 N   0  0  0  0  0  0  0  0  0  0  0  0
  -22.9296  -14.4741   24.2695 N   0  3  0  0  0  0  0  0  0  0  0  0
  -23.5415  -32.0948   23.7187 O   0  0  0  0  0  0  0  0  0  0  0  0
  -28.3712  -13.2554   18.3880 O   0  0  0  0  0  0  0  0  0  0  0  0
  -25.8056  -11.5879   20.5862 O   0  0  0  0  0  0  0  0  0  0  0  0
  -23.6569  -15.6913   21.6187 O   0  0  0  0  0  0  0  0  0  0  0  0
  -28.7817  -29.6213   17.8794 O   0  0  0  0  0  0  0  0  0  0  0  0
  -28.2252  -27.7504   26.1953 O   0  0  0  0  0  0  0  0  0  0  0  0
  -29.4242  -19.2547   20.9387 O   0  0  0  0  0  0  0  0  0  1  0  0
  -27.3787  -29.9202   31.1932 F   0  0  0  0  0  0  0  0  0  0  0  0
  -30.2710  -29.0166   27.5568 F   0  0  0  0  0  0  0  0  0  0  0  0
  1  2  1  0  0  0  0
  1  5  2  0  0  0  0
  2  6  2  0  0  0  0
  3  8  2  0  0  0  0
  3 16  1  0  0  0  0
  4  9  1  0  0  0  0
  4 16  2  0  0  0  0
  5 18  1  0  0  0  0
  6 20  1  0  0  0  0
  7 10  2  0  0  0  0
  7 19  1  0  0  0  0
  8 25  1  0  0  0  0
  9 25  2  0  0  0  0
 10 26  1  0  0  0  0
 11 12  2  0  0  0  0
 11 27  1  0  0  0  0
 12 28  1  0  0  0  0
 13 21  1  0  0  0  0
 13 26  2  0  0  0  0
 14 28  2  0  0  0  0
 14 29  1  0  0  0  0
 15 22  1  0  0  0  0
 15 66  2  0  0  0  0
 16 30  1  0  0  0  0
 17 30  1  0  0  0  0
 17 32  2  0  0  0  0
 17 33  1  0  0  0  0
 18 20  2  0  0  0  0
 18 38  1  0  0  0  0
 19 21  2  0  0  0  0
 19 39  1  0  0  0  0
 20 49  1  0  0  0  0
 21 40  1  0  0  0  0
 22 23  2  0  0  0  0
 22 62  1  0  0  0  0
 23 24  1  0  0  0  0
 23 54  1  0  0  0  0
 24 31  2  0  0  0  0
 24 55  1  0  0  0  0
 25 82  1  0  0  0  0
 26 83  1  0  0  0  0
 27 29  2  0  0  0  0
 27 82  1  0  0  0  0
 28 84  1  0  0  0  0
 29 85  1  0  0  0  0
 30 67  2  0  0  0  0
 31 50  1  0  0  0  0
 31 66  1  0  0  0  0
 32 68  1  0  0  0  0
 32 72  1  0  0  0  0
 33 73  1  0  0  0  0
 33 77  2  0  0  0  0
 34 51  1  0  0  0  0
 34 74  1  0  0  0  0
 34 78  2  0  0  0  0
 35 63  1  0  0  0  0
 35 69  1  0  0  0  0
 35 79  2  0  0  0  0
 36 64  1  0  0  0  0
 36 75  1  0  0  0  0
 36 80  2  0  0  0  0
 37 70  1  0  0  0  0
 37 71  1  0  0  0  0
 37 81  2  0  0  0  0
 38 41  1  0  0  0  0
 39 51  1  0  0  0  0
 40 69  1  0  0  0  0
 41 43  1  0  0  0  0
 42 44  1  0  0  0  0
 42 45  1  0  0  0  0
 43 49  1  0  0  0  0
 44 53  1  0  0  0  0
 45 70  1  0  0  0  0
 46 50  1  0  0  0  0
 46 71  1  0  0  0  0
 47 52  1  0  0  0  0
 47 71  1  0  0  0  0
 48 53  1  0  0  0  0
 48 70  1  0  0  0  0
 49 74  1  0  0  0  0
 50 52  1  0  0  0  0
 51 69  1  0  0  0  0
 52 56  1  0  0  0  0
 53 68  1  0  0  0  0
 57 64  1  0  0  0  0
 58 65  1  0  0  0  0
 59 65  1  0  0  0  0
 60 65  1  0  0  0  0
 61 76  1  0  0  0  0
 62 83  1  0  0  0  0
 63 65  1  0  0  0  0
 63 75  1  0  0  0  0
 64 76  1  0  0  0  0
 67 68  1  0  0  0  0
M  CHG  1  76   1
M  ISO  4  37 100  62 101  71 100  83 101
M  END
> <Batch ID>
0163

> <Smiles>
CNC(C)C(=O)NC(C(=O)N1Cc2cc([101O:1][101CH2:1]c3cnc(C4C[100N:0]([100C:0](=O)N5CCCC(n6nc(-c7ccc(Oc8ccc(F)cc8F)cc7)c(C(N)=O)c6N)C5)CC4C)c(C)c3C)ccc2CC1C(=O)NC1CCCc2ccccc21)C(C)(C)C

> <Shape>
0.251

> <Color>
0.079

> <Negative vol penalty>
0.000

$$$$

  -OEChem-04052322173D

 88 97  0     1  0  0  0  0  0999 V2000
  -27.4809  -37.2851   24.5766 C   0  0  0  0  0  0  0  0  0  0  0  0
  -28.0572  -36.4644   23.6125 C   0  0  0  0  0  0  0  0  0  0  0  0
  -30.6190   -7.0577   18.3363 C   0  0  0  0  0  0  0  0  0  0  0  0
  -28.8584   -6.5659   19.9159 C   0  0  0  0  0  0  0  0  0  0  0  0
  -26.6658  -36.7328   25.5638 C   0  0  0  0  0  0  0  0  0  0  0  0
  -27.8197  -35.0905   23.6356 C   0  0  0  0  0  0  0  0  0  0  0  0
  -27.0857  -29.4771   19.2462 C   0  0  0  0  0  0  0  0  0  0  0  0
  -31.2595   -5.8670   18.6794 C   0  0  0  0  0  0  0  0  0  0  0  0
  -29.4988   -5.3751   20.2590 C   0  0  0  0  0  0  0  0  0  0  0  0
  -27.5859  -28.1906   19.0500 C   0  0  0  0  0  0  0  0  0  0  0  0
  -29.8275   -2.2662   18.9757 C   0  0  0  0  0  0  0  0  0  0  0  0
  -29.0437   -1.1172   19.0798 C   0  0  0  0  0  0  0  0  0  0  0  0
  -26.0970  -27.3581   20.7557 C   0  0  0  0  0  0  0  0  0  0  0  0
  -29.6981   -0.8805   21.3934 C   0  0  0  0  0  0  0  0  0  0  0  0
  -29.4185   -7.4071   18.9546 C   0  0  0  0  0  0  0  0  0  0  0  0
  -27.7961   -8.8254   17.5892 C   0  0  0  0  0  0  0  0  0  0  0  0
  -26.4103  -35.3528   25.5933 C   0  0  0  0  0  0  0  0  0  0  0  0
  -26.0934  -29.7160   20.2078 C   0  0  0  0  0  0  0  0  0  0  0  0
  -27.0015  -34.5190   24.6249 C   0  0  0  0  0  0  0  0  0  0  0  0
  -25.5840  -28.6481   20.9603 C   0  0  0  0  0  0  0  0  0  0  0  0
  -29.7377  -23.6370   19.5815 C   0  0  0  0  0  0  0  0  0  0  0  0
  -28.5129  -23.4219   17.5102 C   0  0  0  0  0  0  0  0  0  0  0  0
  -28.9589  -24.2061   18.5740 C   0  0  0  0  0  0  0  0  0  0  0  0
  -30.0707  -22.2836   19.5252 C   0  0  0  0  0  0  0  0  0  0  0  0
  -28.8457  -22.0684   17.4539 C   0  0  0  0  0  0  0  0  0  0  0  0
  -30.6994   -5.0257   19.6407 C   0  0  0  0  0  0  0  0  0  0  0  0
  -27.0936  -27.1313   19.8068 C   0  0  0  0  0  0  0  0  0  0  0  0
  -30.5468   -2.7223   20.0804 C   0  0  0  0  0  0  0  0  0  0  0  0
  -29.6247  -21.4993   18.4614 C   0  0  0  0  0  0  0  0  0  0  0  0
  -28.9789   -0.4243   20.2887 C   0  0  0  0  0  0  0  0  0  0  0  0
  -30.4821   -2.0295   21.2892 C   0  0  0  0  0  0  0  0  0  0  0  0
  -28.7567   -8.6372   18.6010 C   0  0  0  0  0  0  0  0  0  0  0  0
  -27.4829  -10.1610   17.6572 C   0  0  0  0  0  0  0  0  0  0  0  0
  -27.2369   -7.8776   16.6701 C   0  0  0  0  0  0  0  0  0  0  0  0
  -25.9115  -31.4629   22.8571 C   0  0  0  0  0  0  0  0  0  0  0  0
  -22.8047  -30.5324   22.7915 C   0  0  0  0  0  0  0  0  0  0  0  0
  -20.4827  -28.2588   21.7495 C   0  0  0  0  0  0  0  0  0  0  0  0
  -28.7649  -15.3573   18.0666 C   0  0  0  0  0  0  0  0  0  0  0  0
  -25.5608  -34.7955   26.7079 C   0  0  0  0  0  0  0  0  0  0  0  0
  -25.5454  -31.1050   20.3886 C   0  0  0  0  0  0  0  0  0  0  0  0
  -24.5043  -28.8483   21.9911 C   0  0  0  0  0  0  0  0  0  0  0  0
  -25.0566  -33.3798   26.4399 C   0  0  0  0  0  0  0  0  0  0  0  0
  -28.6220  -13.6484   21.1295 C   0  0  0  0  0  0  0  0  0  0  0  0
  -26.1907  -32.4970   25.9287 C   0  0  0  0  0  0  0  0  0  0  0  0
  -28.5667  -12.1939   20.6631 C   0  0  0  0  0  0  0  0  0  0  0  0
  -28.1082  -18.8214   19.2139 C   0  0  0  0  0  0  0  0  0  0  0  0
  -30.5125  -18.2225   19.7340 C   0  0  0  0  0  0  0  0  0  0  0  0
  -29.5958  -14.4813   20.2941 C   0  0  0  0  0  0  0  0  0  0  0  0
  -28.0933  -17.7294   18.1453 C   0  0  0  0  0  0  0  0  0  0  0  0
  -30.4437  -17.1475   18.6517 C   0  0  0  0  0  0  0  0  0  0  0  0
  -29.2944  -12.9566   18.3704 C   0  0  0  0  0  0  0  0  0  0  0  0
  -26.7475  -33.0274   24.6020 C   0  0  1  0  0  0  0  0  0  0  0  0
  -24.9009  -31.3200   21.7545 C   0  0  1  0  0  0  0  0  0  0  0  0
  -28.2803  -12.1082   19.1533 C   0  0  1  0  0  0  0  0  0  0  0  0
  -29.5138  -19.3555   19.4918 C   0  0  0  0  0  0  0  0  0  0  0  0
  -30.2160  -24.4778   20.7234 C   0  0  0  0  0  0  0  0  0  0  0  0
  -27.6769  -24.0321   16.4295 C   0  0  0  0  0  0  0  0  0  0  0  0
  -30.9063  -21.6676   20.6020 C   0  0  0  0  0  0  0  0  0  0  0  0
  -28.3707  -21.2216   16.3161 C   0  0  0  0  0  0  0  0  0  0  0  0
  -18.0300  -27.7454   21.8837 C   0  0  0  0  0  0  0  0  0  0  0  0
  -23.1715  -29.5407   25.6537 C   0  0  0  0  0  0  0  0  0  0  0  0
  -21.0589  -28.2226   25.3937 C   0  0  0  0  0  0  0  0  0  0  0  0
  -21.0032  -30.7107   25.2248 C   0  0  0  0  0  0  0  0  0  0  0  0
  -20.1617  -28.4595   18.8142 C   0  0  0  0  0  0  0  0  0  0  0  0
  -28.6014  -25.6580   18.6346 C   0  0  0  0  0  0  0  0  0  1  0  0
  -22.0269  -29.3635   23.3462 C   0  0  1  0  0  0  0  0  0  0  0  0
  -19.1277  -28.4340   21.0878 C   0  0  2  0  0  0  0  0  0  0  0  0
  -21.8368  -29.4556   24.8866 C   0  0  0  0  0  0  0  0  0  0  0  0
  -29.0355   -9.7632   19.2631 N   0  0  0  0  0  0  0  0  0  0  0  0
  -28.2455  -10.6718   18.6661 N   0  0  0  0  0  0  0  0  0  0  0  0
  -24.0053  -30.2259   22.1354 N   0  0  0  0  0  0  0  0  0  0  0  0
  -29.3079  -14.3363   18.8609 N   0  0  0  0  0  0  0  0  0  0  0  0
  -29.0682  -16.6787   18.4360 N   0  0  0  0  0  0  0  0  0  0  0  0
  -26.6324  -10.9365   16.9518 N   0  0  0  0  0  0  0  0  0  0  0  0
  -27.6700   -6.5464   16.7372 N   0  0  0  0  0  0  0  0  0  0  0  0
  -25.8648  -32.6805   23.5088 N   0  0  0  0  0  0  0  0  0  0  0  0
  -20.7790  -29.3091   22.5924 N   0  0  0  0  0  0  0  0  0  0  0  0
  -19.1440  -27.8575   19.7136 N   0  3  0  0  0  0  0  0  0  0  0  0
  -26.3907   -8.2051   15.8040 O   0  0  0  0  0  0  0  0  0  0  0  0
  -26.6761  -30.5365   23.0997 O   0  0  0  0  0  0  0  0  0  0  0  0
  -22.3599  -31.6747   22.9290 O   0  0  0  0  0  0  0  0  0  0  0  0
  -21.2043  -27.2858   21.5424 O   0  0  0  0  0  0  0  0  0  0  0  0
  -28.0496  -15.1066   17.0886 O   0  0  0  0  0  0  0  0  0  0  0  0
  -31.3240   -3.8637   19.9755 O   0  0  0  0  0  0  0  0  0  0  0  0
  -29.9513  -20.1699   18.4062 O   0  0  0  0  0  0  0  0  0  0  0  0
  -27.5903  -25.8495   19.6141 O   0  0  0  0  0  0  0  0  0  1  0  0
  -28.2249    0.6782   20.3890 F   0  0  0  0  0  0  0  0  0  0  0  0
  -31.1699   -2.4635   22.3543 F   0  0  0  0  0  0  0  0  0  0  0  0
  1  2  1  0  0  0  0
  1  5  2  0  0  0  0
  2  6  2  0  0  0  0
  3  8  2  0  0  0  0
  3 15  1  0  0  0  0
  4  9  1  0  0  0  0
  4 15  2  0  0  0  0
  5 17  1  0  0  0  0
  6 19  1  0  0  0  0
  7 10  2  0  0  0  0
  7 18  1  0  0  0  0
  8 26  1  0  0  0  0
  9 26  2  0  0  0  0
 10 27  1  0  0  0  0
 11 12  2  0  0  0  0
 11 28  1  0  0  0  0
 12 30  1  0  0  0  0
 13 20  1  0  0  0  0
 13 27  2  0  0  0  0
 14 30  2  0  0  0  0
 14 31  1  0  0  0  0
 15 32  1  0  0  0  0
 16 32  1  0  0  0  0
 16 33  2  0  0  0  0
 16 34  1  0  0  0  0
 17 19  2  0  0  0  0
 17 39  1  0  0  0  0
 18 20  2  0  0  0  0
 18 40  1  0  0  0  0
 19 52  1  0  0  0  0
 20 41  1  0  0  0  0
 21 23  1  0  0  0  0
 21 24  2  0  0  0  0
 21 56  1  0  0  0  0
 22 23  2  0  0  0  0
 22 25  1  0  0  0  0
 22 57  1  0  0  0  0
 23 65  1  0  0  0  0
 24 29  1  0  0  0  0
 24 58  1  0  0  0  0
 25 29  2  0  0  0  0
 25 59  1  0  0  0  0
 26 84  1  0  0  0  0
 27 86  1  0  0  0  0
 28 31  2  0  0  0  0
 28 84  1  0  0  0  0
 29 85  1  0  0  0  0
 30 87  1  0  0  0  0
 31 88  1  0  0  0  0
 32 69  2  0  0  0  0
 33 70  1  0  0  0  0
 33 74  1  0  0  0  0
 34 75  1  0  0  0  0
 34 79  2  0  0  0  0
 35 53  1  0  0  0  0
 35 76  1  0  0  0  0
 35 80  2  0  0  0  0
 36 66  1  0  0  0  0
 36 71  1  0  0  0  0
 36 81  2  0  0  0  0
 37 67  1  0  0  0  0
 37 77  1  0  0  0  0
 37 82  2  0  0  0  0
 38 72  1  0  0  0  0
 38 73  1  0  0  0  0
 38 83  2  0  0  0  0
 39 42  1  0  0  0  0
 40 53  1  0  0  0  0
 41 71  1  0  0  0  0
 42 44  1  0  0  0  0
 43 45  1  0  0  0  0
 43 48  1  0  0  0  0
 44 52  1  0  0  0  0
 45 54  1  0  0  0  0
 46 49  1  0  0  0  0
 46 55  1  0  0  0  0
 47 50  1  0  0  0  0
 47 55  1  0  0  0  0
 48 72  1  0  0  0  0
 49 73  1  0  0  0  0
 50 73  1  0  0  0  0
 51 54  1  0  0  0  0
 51 72  1  0  0  0  0
 52 76  1  0  0  0  0
 53 71  1  0  0  0  0
 54 70  1  0  0  0  0
 55 85  1  0  0  0  0
 60 67  1  0  0  0  0
 61 68  1  0  0  0  0
 62 68  1  0  0  0  0
 63 68  1  0  0  0  0
 64 78  1  0  0  0  0
 65 86  1  0  0  0  0
 66 68  1  0  0  0  0
 66 77  1  0  0  0  0
 67 78  1  0  0  0  0
 69 70  1  0  0  0  0
M  CHG  1  78   1
M  ISO  4  38 100  65 101  73 100  86 101
M  END
> <Batch ID>
0163

> <Smiles>
CNC(C)C(=O)NC(C(=O)N1Cc2cc([101O:1][101CH2:1]c3c(C)c(C)c(OC4CC[100N:0]([100C:0](=O)N5CCCC(n6nc(-c7ccc(Oc8ccc(F)cc8F)cc7)c(C(N)=O)c6N)C5)CC4)c(C)c3C)ccc2CC1C(=O)NC1CCCc2ccccc21)C(C)(C)C

> <Shape>
0.260

> <Color>
0.066

> <Negative vol penalty>
0.000

$$$$

  -OEChem-04052322173D

 89 98  0     1  0  0  0  0  0999 V2000
  -23.1163   -8.3873   21.2958 C   0  0  0  0  0  0  0  0  0  0  0  0
  -24.3819   -8.9638   21.2591 C   0  0  0  0  0  0  0  0  0  0  0  0
  -22.5340  -28.5280   20.5669 C   0  0  0  0  0  0  0  0  0  0  0  0
  -23.5002  -26.6209   21.6923 C   0  0  0  0  0  0  0  0  0  0  0  0
  -21.9889   -9.1667   21.0395 C   0  0  0  0  0  0  0  0  0  0  0  0
  -24.5210  -10.3197   20.9651 C   0  0  0  0  0  0  0  0  0  0  0  0
  -28.6410  -15.9730   22.5085 C   0  0  0  0  0  0  0  0  0  0  0  0
  -21.2736  -28.1729   21.0472 C   0  0  0  0  0  0  0  0  0  0  0  0
  -22.2397  -26.2658   22.1727 C   0  0  0  0  0  0  0  0  0  0  0  0
  -29.3789  -16.9727   21.8761 C   0  0  0  0  0  0  0  0  0  0  0  0
  -19.5454  -28.4377   23.9414 C   0  0  0  0  0  0  0  0  0  0  0  0
  -18.7451  -29.4496   24.4717 C   0  0  0  0  0  0  0  0  0  0  0  0
  -27.3549  -18.2383   21.5282 C   0  0  0  0  0  0  0  0  0  0  0  0
  -17.0563  -28.9860   22.8073 C   0  0  0  0  0  0  0  0  0  0  0  0
  -23.6474  -27.7520   20.8894 C   0  0  0  0  0  0  0  0  0  0  0  0
  -25.8902  -28.9610   21.0145 C   0  0  0  0  0  0  0  0  0  0  0  0
  -22.1136  -10.5350   20.7516 C   0  0  0  0  0  0  0  0  0  0  0  0
  -27.2507  -16.0937   22.6460 C   0  0  0  0  0  0  0  0  0  0  0  0
  -23.3944  -11.1178   20.7034 C   0  0  0  0  0  0  0  0  0  0  0  0
  -26.6020  -17.2399   22.1650 C   0  0  0  0  0  0  0  0  0  0  0  0
  -30.1841  -21.8507   23.0686 C   0  0  0  0  0  0  0  0  0  0  0  0
  -29.2784  -22.9244   23.2532 C   0  0  0  0  0  0  0  0  0  0  0  0
  -21.1264  -27.0419   21.8501 C   0  0  0  0  0  0  0  0  0  0  0  0
  -28.7356  -18.1042   21.3833 C   0  0  0  0  0  0  0  0  0  0  0  0
  -19.1012  -27.7000   22.8440 C   0  0  0  0  0  0  0  0  0  0  0  0
  -17.5005  -29.7238   23.9046 C   0  0  0  0  0  0  0  0  0  0  0  0
  -17.8567  -27.9742   22.2770 C   0  0  0  0  0  0  0  0  0  0  0  0
  -24.9496  -28.1179   20.3930 C   0  0  0  0  0  0  0  0  0  0  0  0
  -30.3757  -21.7027   21.7126 C   0  0  0  0  0  0  0  0  0  0  0  0
  -26.9544  -28.9869   20.1466 C   0  0  0  0  0  0  0  0  0  0  0  0
  -28.9439  -23.3997   22.0043 C   0  0  0  0  0  0  0  0  0  0  0  0
  -25.8092  -29.6582   22.2647 C   0  0  0  0  0  0  0  0  0  0  0  0
  -24.7424  -14.4347   21.6162 C   0  0  0  0  0  0  0  0  0  0  0  0
  -23.0958  -16.4984   23.5010 C   0  0  0  0  0  0  0  0  0  0  0  0
  -22.9665  -19.5391   25.0450 C   0  0  0  0  0  0  0  0  0  0  0  0
  -29.0330  -25.3093   16.0824 C   0  0  0  0  0  0  0  0  0  0  0  0
  -20.8694  -11.3264   20.4348 C   0  0  0  0  0  0  0  0  0  0  0  0
  -26.4726  -15.0189   23.3544 C   0  0  0  0  0  0  0  0  0  0  0  0
  -25.1141  -17.4270   22.3054 C   0  0  0  0  0  0  0  0  0  0  0  0
  -21.0758  -12.8375   20.4999 C   0  0  0  0  0  0  0  0  0  0  0  0
  -28.0306  -28.5686   15.5084 C   0  0  0  0  0  0  0  0  0  0  0  0
  -22.3522  -13.2341   19.7649 C   0  0  0  0  0  0  0  0  0  0  0  0
  -27.2146  -28.9208   16.7522 C   0  0  0  0  0  0  0  0  0  0  0  0
  -30.6320  -23.7791   19.0475 C   0  0  0  0  0  0  0  0  0  0  0  0
  -28.1430  -23.3336   19.1319 C   0  0  0  0  0  0  0  0  0  0  0  0
  -27.7349  -27.1463   15.0456 C   0  0  0  0  0  0  0  0  0  0  0  0
  -30.5210  -23.9834   17.5385 C   0  0  0  0  0  0  0  0  0  0  0  0
  -28.0886  -23.5456   17.6218 C   0  0  0  0  0  0  0  0  0  0  0  0
  -27.1550  -26.4494   17.3462 C   0  0  0  0  0  0  0  0  0  0  0  0
  -23.5843  -12.5907   20.4125 C   0  0  1  0  0  0  0  0  0  0  0  0
  -24.9932  -15.0083   22.9822 C   0  0  1  0  0  0  0  0  0  0  0  0
  -27.4242  -27.8766   17.8632 C   0  0  2  0  0  0  0  0  0  0  0  0
  -29.5324  -22.8399   19.5727 C   0  0  0  0  0  0  0  0  0  0  0  0
  -30.8094  -21.0380   24.1322 C   0  0  0  0  0  0  0  0  0  0  0  0
  -27.6991  -22.5535   25.1649 C   0  0  0  0  0  0  0  0  0  0  0  0
  -32.7215  -20.8972   21.2883 C   0  0  0  0  0  0  0  0  0  0  0  0
  -21.4766  -20.9562   26.4835 C   0  0  0  0  0  0  0  0  0  0  0  0
  -21.3636  -17.1387   21.0720 C   0  0  0  0  0  0  0  0  0  0  0  0
  -20.5583  -19.1829   22.2724 C   0  0  0  0  0  0  0  0  0  0  0  0
  -20.1055  -16.9212   23.2224 C   0  0  0  0  0  0  0  0  0  0  0  0
  -24.9561  -19.6128   27.2348 C   0  0  0  0  0  0  0  0  0  0  0  0
  -28.6972  -25.7094   21.4946 C   0  0  0  0  0  0  0  0  0  0  0  0
  -28.7808  -23.4428   24.5438 C   0  0  0  0  0  0  0  0  0  0  0  0
  -30.8040  -19.2617   21.1896 C   0  0  0  0  0  0  0  0  0  1  0  0
  -31.2162  -20.7405   20.9683 C   0  0  1  0  0  0  0  0  0  0  0  0
  -22.4553  -17.8507   23.3007 C   0  0  1  0  0  0  0  0  0  0  0  0
  -22.6016  -19.9332   26.4649 C   0  0  2  0  0  0  0  0  0  0  0  0
  -21.1485  -17.7692   22.4624 C   0  0  0  0  0  0  0  0  0  0  0  0
  -25.3784  -27.6428   19.2207 N   0  0  0  0  0  0  0  0  0  0  0  0
  -29.6166  -22.6494   21.0755 N   0  0  0  0  0  0  0  0  0  0  0  0
  -26.6002  -28.1891   19.0986 N   0  0  0  0  0  0  0  0  0  0  0  0
  -24.3963  -16.3454   23.0000 N   0  0  0  0  0  0  0  0  0  0  0  0
  -27.9384  -26.1859   16.1300 N   0  0  0  0  0  0  0  0  0  0  0  0
  -29.1772  -24.4157   17.1565 N   0  0  0  0  0  0  0  0  0  0  0  0
  -28.1492  -29.6140   20.1852 N   0  0  0  0  0  0  0  0  0  0  0  0
  -24.6442  -29.5216   23.0317 N   0  0  0  0  0  0  0  0  0  0  0  0
  -23.9510  -13.3020   21.6183 N   0  0  0  0  0  0  0  0  0  0  0  0
  -22.2765  -18.4189   24.6325 N   0  0  0  0  0  0  0  0  0  0  0  0
  -23.7824  -20.5203   27.1591 N   0  3  0  0  0  0  0  0  0  0  0  0
  -26.7357  -30.3941   22.6813 O   0  0  0  0  0  0  0  0  0  0  0  0
  -25.2296  -14.9804   20.6331 O   0  0  0  0  0  0  0  0  0  0  0  0
  -22.4680  -15.6128   24.0868 O   0  0  0  0  0  0  0  0  0  0  0  0
  -23.7793  -20.1649   24.3680 O   0  0  0  0  0  0  0  0  0  0  0  0
  -29.8369  -25.3258   15.1420 O   0  0  0  0  0  0  0  0  0  0  0  0
  -19.8966  -26.6952   22.3192 O   0  0  0  0  0  0  0  0  0  0  0  0
  -29.4581  -19.0875   20.7609 O   0  0  0  0  0  0  0  0  0  1  0  0
  -28.1378  -24.3873   21.6357 O   0  0  0  0  0  0  0  0  0  0  0  0
  -16.7314  -30.6945   24.4149 F   0  0  0  0  0  0  0  0  0  0  0  0
  -17.4240  -27.2681   21.2234 F   0  0  0  0  0  0  0  0  0  0  0  0
  1  2  1  0  0  0  0
  1  5  2  0  0  0  0
  2  6  2  0  0  0  0
  3  8  2  0  0  0  0
  3 15  1  0  0  0  0
  4  9  1  0  0  0  0
  4 15  2  0  0  0  0
  5 17  1  0  0  0  0
  6 19  1  0  0  0  0
  7 10  2  0  0  0  0
  7 18  1  0  0  0  0
  8 23  1  0  0  0  0
  9 23  2  0  0  0  0
 10 24  1  0  0  0  0
 11 12  2  0  0  0  0
 11 25  1  0  0  0  0
 12 26  1  0  0  0  0
 13 20  1  0  0  0  0
 13 24  2  0  0  0  0
 14 26  2  0  0  0  0
 14 27  1  0  0  0  0
 15 28  1  0  0  0  0
 16 28  1  0  0  0  0
 16 30  2  0  0  0  0
 16 32  1  0  0  0  0
 17 19  2  0  0  0  0
 17 37  1  0  0  0  0
 18 20  2  0  0  0  0
 18 38  1  0  0  0  0
 19 50  1  0  0  0  0
 20 39  1  0  0  0  0
 21 22  1  0  0  0  0
 21 29  2  0  0  0  0
 21 54  1  0  0  0  0
 22 31  2  0  0  0  0
 22 63  1  0  0  0  0
 23 85  1  0  0  0  0
 24 86  1  0  0  0  0
 25 27  2  0  0  0  0
 25 85  1  0  0  0  0
 26 88  1  0  0  0  0
 27 89  1  0  0  0  0
 28 69  2  0  0  0  0
 29 65  1  0  0  0  0
 29 70  1  0  0  0  0
 30 71  1  0  0  0  0
 30 75  1  0  0  0  0
 31 70  1  0  0  0  0
 31 87  1  0  0  0  0
 32 76  1  0  0  0  0
 32 80  2  0  0  0  0
 33 51  1  0  0  0  0
 33 77  1  0  0  0  0
 33 81  2  0  0  0  0
 34 66  1  0  0  0  0
 34 72  1  0  0  0  0
 34 82  2  0  0  0  0
 35 67  1  0  0  0  0
 35 78  1  0  0  0  0
 35 83  2  0  0  0  0
 36 73  1  0  0  0  0
 36 74  1  0  0  0  0
 36 84  2  0  0  0  0
 37 40  1  0  0  0  0
 38 51  1  0  0  0  0
 39 72  1  0  0  0  0
 40 42  1  0  0  0  0
 41 43  1  0  0  0  0
 41 46  1  0  0  0  0
 42 50  1  0  0  0  0
 43 52  1  0  0  0  0
 44 47  1  0  0  0  0
 44 53  1  0  0  0  0
 45 48  1  0  0  0  0
 45 53  1  0  0  0  0
 46 73  1  0  0  0  0
 47 74  1  0  0  0  0
 48 74  1  0  0  0  0
 49 52  1  0  0  0  0
 49 73  1  0  0  0  0
 50 77  1  0  0  0  0
 51 72  1  0  0  0  0
 52 71  1  0  0  0  0
 53 70  1  0  0  0  0
 55 63  1  0  0  0  0
 56 65  1  0  0  0  0
 57 67  1  0  0  0  0
 58 68  1  0  0  0  0
 59 68  1  0  0  0  0
 60 68  1  0  0  0  0
 61 79  1  0  0  0  0
 62 87  1  0  0  0  0
 64 65  1  0  0  0  0
 64 86  1  0  0  0  0
 66 68  1  0  0  0  0
 66 78  1  0  0  0  0
 67 79  1  0  0  0  0
 69 71  1  0  0  0  0
M  CHG  1  79   1
M  ISO  4  36 100  64 101  74 100  86 101
M  END
> <Batch ID>
0163

> <Smiles>
CCc1c(C)c(C(C)[101CH2:1][101O:1]c2ccc3c(c2)CN(C(=O)C(NC(=O)C(C)NC)C(C)(C)C)C(C(=O)NC2CCCc4ccccc42)C3)n(C2CC[100N:0]([100C:0](=O)N3CCCC(n4nc(-c5ccc(Oc6ccc(F)cc6F)cc5)c(C(N)=O)c4N)C3)CC2)c1OC

> <Shape>
0.233

> <Color>
0.061

> <Negative vol penalty>
0.000

$$$$

  -OEChem-04052322173D

 88 97  0     1  0  0  0  0  0999 V2000
  -27.3268  -37.2853   27.2193 C   0  0  0  0  0  0  0  0  0  0  0  0
  -28.1578  -36.2806   26.7341 C   0  0  0  0  0  0  0  0  0  0  0  0
  -24.6102   -8.9761   22.0039 C   0  0  0  0  0  0  0  0  0  0  0  0
  -23.6135   -9.5332   19.8748 C   0  0  0  0  0  0  0  0  0  0  0  0
  -25.9429  -37.1591   27.1061 C   0  0  0  0  0  0  0  0  0  0  0  0
  -27.6052  -35.1484   26.1364 C   0  0  0  0  0  0  0  0  0  0  0  0
  -28.9230  -30.3501   20.9831 C   0  0  0  0  0  0  0  0  0  0  0  0
  -23.5180   -8.1615   22.3021 C   0  0  0  0  0  0  0  0  0  0  0  0
  -22.5212   -8.7185   20.1730 C   0  0  0  0  0  0  0  0  0  0  0  0
  -28.9860  -28.9714   20.7857 C   0  0  0  0  0  0  0  0  0  0  0  0
  -22.4261   -5.0649   21.4946 C   0  0  0  0  0  0  0  0  0  0  0  0
  -22.6853   -3.8044   22.0327 C   0  0  0  0  0  0  0  0  0  0  0  0
  -26.5841  -28.8981   20.5738 C   0  0  0  0  0  0  0  0  0  0  0  0
  -29.4007  -24.3359   18.8916 C   0  0  0  0  0  0  0  0  0  0  0  0
  -21.4219   -4.3876   24.0077 C   0  0  0  0  0  0  0  0  0  0  0  0
  -24.6579   -9.6621   20.7903 C   0  0  0  0  0  0  0  0  0  0  0  0
  -26.9737  -10.1280   19.8271 C   0  0  0  0  0  0  0  0  0  0  0  0
  -25.3734  -36.0293   26.4980 C   0  0  0  0  0  0  0  0  0  0  0  0
  -27.6871  -31.0127   20.9882 C   0  0  0  0  0  0  0  0  0  0  0  0
  -26.2123  -35.0064   26.0161 C   0  0  0  0  0  0  0  0  0  0  0  0
  -26.5083  -30.2856   20.7689 C   0  0  0  0  0  0  0  0  0  0  0  0
  -29.0392  -24.8300   20.1449 C   0  0  0  0  0  0  0  0  0  0  0  0
  -29.2910  -22.9718   18.6215 C   0  0  0  0  0  0  0  0  0  0  0  0
  -28.5681  -23.9600   21.1282 C   0  0  0  0  0  0  0  0  0  0  0  0
  -28.4584  -22.5959   20.8581 C   0  0  0  0  0  0  0  0  0  0  0  0
  -28.8198  -22.1019   19.6048 C   0  0  0  0  0  0  0  0  0  0  0  0
  -22.4735   -8.0326   21.3867 C   0  0  0  0  0  0  0  0  0  0  0  0
  -27.8162  -28.2447   20.5839 C   0  0  0  0  0  0  0  0  0  0  0  0
  -21.6648   -5.9868   22.2131 C   0  0  0  0  0  0  0  0  0  0  0  0
  -22.1832   -3.4658   23.2892 C   0  0  0  0  0  0  0  0  0  0  0  0
  -21.1627   -5.6482   23.4696 C   0  0  0  0  0  0  0  0  0  0  0  0
  -25.7857  -10.5042   20.4819 C   0  0  0  0  0  0  0  0  0  0  0  0
  -27.7190  -11.2807   19.7788 C   0  0  0  0  0  0  0  0  0  0  0  0
  -27.3683   -8.8508   19.3087 C   0  0  0  0  0  0  0  0  0  0  0  0
  -26.0578  -32.7046   23.1297 C   0  0  0  0  0  0  0  0  0  0  0  0
  -24.0610  -33.2214   20.6261 C   0  0  0  0  0  0  0  0  0  0  0  0
  -22.8722  -32.1723   17.6039 C   0  0  0  0  0  0  0  0  0  0  0  0
  -28.3331  -16.5430   18.8984 C   0  0  0  0  0  0  0  0  0  0  0  0
  -23.8706  -35.9155   26.4409 C   0  0  0  0  0  0  0  0  0  0  0  0
  -27.6383  -32.5043   21.1758 C   0  0  0  0  0  0  0  0  0  0  0  0
  -25.1581  -30.9525   20.7450 C   0  0  0  0  0  0  0  0  0  0  0  0
  -23.3767  -34.8575   25.4576 C   0  0  0  0  0  0  0  0  0  0  0  0
  -27.0690  -15.7329   22.0742 C   0  0  0  0  0  0  0  0  0  0  0  0
  -24.1612  -33.5607   25.6302 C   0  0  0  0  0  0  0  0  0  0  0  0
  -26.7127  -14.2579   21.8921 C   0  0  0  0  0  0  0  0  0  0  0  0
  -26.7086  -16.5657   20.8428 C   0  0  0  0  0  0  0  0  0  0  0  0
  -29.8510  -19.8514   19.6073 C   0  0  0  0  0  0  0  0  0  0  0  0
  -27.3748  -20.1254   19.4080 C   0  0  0  0  0  0  0  0  0  0  0  0
  -29.7539  -18.5570   18.8043 C   0  0  0  0  0  0  0  0  0  0  0  0
  -27.3234  -18.8344   18.5986 C   0  0  0  0  0  0  0  0  0  0  0  0
  -26.9200  -14.5702   19.3967 C   0  0  0  0  0  0  0  0  0  0  0  0
  -25.6515  -33.7746   25.3390 C   0  0  1  0  0  0  0  0  0  0  0  0
  -26.2841  -32.9998   21.6739 C   0  0  1  0  0  0  0  0  0  0  0  0
  -27.3242  -13.6979   20.5955 C   0  0  2  0  0  0  0  0  0  0  0  0
  -28.1814  -24.4933   22.4715 C   0  0  0  0  0  0  0  0  0  0  0  0
  -27.9526  -21.6655   21.9161 C   0  0  0  0  0  0  0  0  0  0  0  0
  -31.1748  -22.7170   16.9663 C   0  0  0  0  0  0  0  0  0  0  0  0
  -28.8165  -23.0684   16.1477 C   0  0  0  0  0  0  0  0  0  0  0  0
  -21.2174  -32.7821   15.8187 C   0  0  0  0  0  0  0  0  0  0  0  0
  -21.7870  -32.2133   22.3931 C   0  0  0  0  0  0  0  0  0  0  0  0
  -20.3954  -31.9446   20.3292 C   0  0  0  0  0  0  0  0  0  0  0  0
  -21.2156  -34.2051   20.9928 C   0  0  0  0  0  0  0  0  0  0  0  0
  -24.9988  -32.4476   15.5642 C   0  0  0  0  0  0  0  0  0  0  0  0
  -29.1664  -26.2948   20.4087 C   0  0  0  0  0  0  0  0  0  1  0  0
  -29.6856  -22.4722   17.2696 C   0  0  0  0  0  0  0  0  0  0  0  0
  -22.8512  -32.5175   20.0605 C   0  0  1  0  0  0  0  0  0  0  0  0
  -22.6558  -32.9107   16.2953 C   0  0  2  0  0  0  0  0  0  0  0  0
  -21.5874  -32.7070   20.9463 C   0  0  0  0  0  0  0  0  0  0  0  0
  -25.7727  -11.7950   20.8252 N   0  0  0  0  0  0  0  0  0  0  0  0
  -26.9618  -12.2398   20.3845 N   0  0  0  0  0  0  0  0  0  0  0  0
  -28.7109  -20.7323   19.3318 N   0  0  0  0  0  0  0  0  0  0  0  0
  -25.1620  -32.4119   20.9395 N   0  0  0  0  0  0  0  0  0  0  0  0
  -27.2794  -15.9710   19.6268 N   0  0  0  0  0  0  0  0  0  0  0  0
  -28.4375  -17.9425   18.9267 N   0  0  0  0  0  0  0  0  0  0  0  0
  -28.9417  -11.5572   19.2780 N   0  0  0  0  0  0  0  0  0  0  0  0
  -26.4824   -7.7729   19.4422 N   0  0  0  0  0  0  0  0  0  0  0  0
  -25.8847  -33.8306   23.9118 N   0  0  0  0  0  0  0  0  0  0  0  0
  -22.7000  -33.0011   18.6924 N   0  0  0  0  0  0  0  0  0  0  0  0
  -23.5520  -32.3637   15.2376 N   0  3  0  0  0  0  0  0  0  0  0  0
  -28.4804   -8.6669   18.7584 O   0  0  0  0  0  0  0  0  0  0  0  0
  -26.0399  -31.5414   23.5147 O   0  0  0  0  0  0  0  0  0  0  0  0
  -24.0328  -34.4453   20.7772 O   0  0  0  0  0  0  0  0  0  0  0  0
  -23.1613  -30.9789   17.6555 O   0  0  0  0  0  0  0  0  0  0  0  0
  -29.1351  -15.8472   18.2632 O   0  0  0  0  0  0  0  0  0  0  0  0
  -21.4076   -7.2376   21.6772 O   0  0  0  0  0  0  0  0  0  0  0  0
  -27.8752  -26.8892   20.3903 O   0  0  0  0  0  0  0  0  0  1  0  0
  -22.4309   -2.2547   23.8051 F   0  0  0  0  0  0  0  0  0  0  0  0
  -20.4296   -6.5292   24.1640 F   0  0  0  0  0  0  0  0  0  0  0  0
  1  2  1  0  0  0  0
  1  5  2  0  0  0  0
  2  6  2  0  0  0  0
  3  8  2  0  0  0  0
  3 16  1  0  0  0  0
  4  9  1  0  0  0  0
  4 16  2  0  0  0  0
  5 18  1  0  0  0  0
  6 20  1  0  0  0  0
  7 10  2  0  0  0  0
  7 19  1  0  0  0  0
  8 27  1  0  0  0  0
  9 27  2  0  0  0  0
 10 28  1  0  0  0  0
 11 12  2  0  0  0  0
 11 29  1  0  0  0  0
 12 30  1  0  0  0  0
 13 21  1  0  0  0  0
 13 28  2  0  0  0  0
 14 22  1  0  0  0  0
 14 23  2  0  0  0  0
 15 30  2  0  0  0  0
 15 31  1  0  0  0  0
 16 32  1  0  0  0  0
 17 32  1  0  0  0  0
 17 33  2  0  0  0  0
 17 34  1  0  0  0  0
 18 20  2  0  0  0  0
 18 39  1  0  0  0  0
 19 21  2  0  0  0  0
 19 40  1  0  0  0  0
 20 52  1  0  0  0  0
 21 41  1  0  0  0  0
 22 24  2  0  0  0  0
 22 64  1  0  0  0  0
 23 26  1  0  0  0  0
 23 65  1  0  0  0  0
 24 25  1  0  0  0  0
 24 55  1  0  0  0  0
 25 26  2  0  0  0  0
 25 56  1  0  0  0  0
 26 71  1  0  0  0  0
 27 85  1  0  0  0  0
 28 86  1  0  0  0  0
 29 31  2  0  0  0  0
 29 85  1  0  0  0  0
 30 87  1  0  0  0  0
 31 88  1  0  0  0  0
 32 69  2  0  0  0  0
 33 70  1  0  0  0  0
 33 75  1  0  0  0  0
 34 76  1  0  0  0  0
 34 80  2  0  0  0  0
 35 53  1  0  0  0  0
 35 77  1  0  0  0  0
 35 81  2  0  0  0  0
 36 66  1  0  0  0  0
 36 72  1  0  0  0  0
 36 82  2  0  0  0  0
 37 67  1  0  0  0  0
 37 78  1  0  0  0  0
 37 83  2  0  0  0  0
 38 73  1  0  0  0  0
 38 74  1  0  0  0  0
 38 84  2  0  0  0  0
 39 42  1  0  0  0  0
 40 53  1  0  0  0  0
 41 72  1  0  0  0  0
 42 44  1  0  0  0  0
 43 45  1  0  0  0  0
 43 46  1  0  0  0  0
 44 52  1  0  0  0  0
 45 54  1  0  0  0  0
 46 73  1  0  0  0  0
 47 49  1  0  0  0  0
 47 71  1  0  0  0  0
 48 50  1  0  0  0  0
 48 71  1  0  0  0  0
 49 74  1  0  0  0  0
 50 74  1  0  0  0  0
 51 54  1  0  0  0  0
 51 73  1  0  0  0  0
 52 77  1  0  0  0  0
 53 72  1  0  0  0  0
 54 70  1  0  0  0  0
 57 65  1  0  0  0  0
 58 65  1  0  0  0  0
 59 67  1  0  0  0  0
 60 68  1  0  0  0  0
 61 68  1  0  0  0  0
 62 68  1  0  0  0  0
 63 79  1  0  0  0  0
 64 86  1  0  0  0  0
 66 68  1  0  0  0  0
 66 78  1  0  0  0  0
 67 79  1  0  0  0  0
 69 70  1  0  0  0  0
M  CHG  1  79   1
M  ISO  4  38 100  64 101  74 100  86 101
M  END
> <Batch ID>
0163

> <Smiles>
CNC(C)C(=O)NC(C(=O)N1Cc2cc([101O:1][101CH2:1]c3cc(C(C)C)c(N4CC[100N:0]([100C:0](=O)N5CCCC(n6nc(-c7ccc(Oc8ccc(F)cc8F)cc7)c(C(N)=O)c6N)C5)CC4)c(C)c3C)ccc2CC1C(=O)NC1CCCc2ccccc21)C(C)(C)C

> <Shape>
0.285

> <Color>
0.084

> <Negative vol penalty>
0.000

$$$$

  -OEChem-04052322173D

 95105  0     1  0  0  0  0  0999 V2000
  -25.6664  -31.7934   24.5996 C   0  0  0  0  0  0  0  0  0  0  0  0
  -25.3951  -31.0837   25.7650 C   0  0  0  0  0  0  0  0  0  0  0  0
  -22.6595  -10.2035   20.1767 C   0  0  0  0  0  0  0  0  0  0  0  0
  -24.3361   -9.4153   21.7274 C   0  0  0  0  0  0  0  0  0  0  0  0
  -25.2084  -31.3168   23.3720 C   0  0  0  0  0  0  0  0  0  0  0  0
  -24.6645  -29.8976   25.7036 C   0  0  0  0  0  0  0  0  0  0  0  0
  -26.5227  -22.7425   28.2290 C   0  0  0  0  0  0  0  0  0  0  0  0
  -21.9293   -9.0309   20.3701 C   0  0  0  0  0  0  0  0  0  0  0  0
  -23.6059   -8.2427   21.9209 C   0  0  0  0  0  0  0  0  0  0  0  0
  -26.8034  -21.4014   28.4917 C   0  0  0  0  0  0  0  0  0  0  0  0
  -20.8853   -7.2645   23.6708 C   0  0  0  0  0  0  0  0  0  0  0  0
  -20.7205   -6.8141   24.9805 C   0  0  0  0  0  0  0  0  0  0  0  0
  -30.6675  -18.9991   16.1342 C   0  0  0  0  0  0  0  0  0  0  0  0
  -25.2794  -20.7282   26.7390 C   0  0  0  0  0  0  0  0  0  0  0  0
  -21.8385   -4.7494   24.4112 C   0  0  0  0  0  0  0  0  0  0  0  0
  -23.8629  -10.3957   20.8553 C   0  0  0  0  0  0  0  0  0  0  0  0
  -24.1938  -12.9246   20.9101 C   0  0  0  0  0  0  0  0  0  0  0  0
  -24.4801  -30.1192   23.2943 C   0  0  0  0  0  0  0  0  0  0  0  0
  -25.6299  -23.0823   27.2089 C   0  0  0  0  0  0  0  0  0  0  0  0
  -24.1951  -29.4053   24.4739 C   0  0  0  0  0  0  0  0  0  0  0  0
  -30.6991  -18.5071   17.4480 C   0  0  0  0  0  0  0  0  0  0  0  0
  -25.0038  -22.0701   26.4630 C   0  0  0  0  0  0  0  0  0  0  0  0
  -31.2566  -19.2985   18.4684 C   0  0  0  0  0  0  0  0  0  0  0  0
  -31.2056  -20.2492   15.8302 C   0  0  0  0  0  0  0  0  0  0  0  0
  -31.8036  -20.5503   18.1476 C   0  0  0  0  0  0  0  0  0  0  0  0
  -31.7755  -21.0235   16.8363 C   0  0  0  0  0  0  0  0  0  0  0  0
  -22.4025   -8.0505   21.2422 C   0  0  0  0  0  0  0  0  0  0  0  0
  -26.1830  -20.3968   27.7486 C   0  0  0  0  0  0  0  0  0  0  0  0
  -21.5266   -6.4573   22.7311 C   0  0  0  0  0  0  0  0  0  0  0  0
  -21.1971   -5.5566   25.3508 C   0  0  0  0  0  0  0  0  0  0  0  0
  -22.0032   -5.1998   23.1014 C   0  0  0  0  0  0  0  0  0  0  0  0
  -24.6179  -11.6066   20.6555 C   0  0  0  0  0  0  0  0  0  0  0  0
  -25.2682  -13.7048   20.5587 C   0  0  0  0  0  0  0  0  0  0  0  0
  -22.9408  -13.4010   21.4188 C   0  0  0  0  0  0  0  0  0  0  0  0
  -23.9105  -25.8144   25.2970 C   0  0  0  0  0  0  0  0  0  0  0  0
  -30.7778  -14.6629   20.6855 C   0  0  0  0  0  0  0  0  0  0  0  0
  -24.7107  -23.6672   23.2575 C   0  0  0  0  0  0  0  0  0  0  0  0
  -26.1326  -21.2740   21.2857 C   0  0  0  0  0  0  0  0  0  0  0  0
  -23.9653  -29.6685   21.9503 C   0  0  0  0  0  0  0  0  0  0  0  0
  -25.2510  -24.5118   26.9319 C   0  0  0  0  0  0  0  0  0  0  0  0
  -30.0775  -17.1655   17.7418 C   0  0  0  0  0  0  0  0  0  0  0  0
  -31.3373  -18.8083   19.8933 C   0  0  0  0  0  0  0  0  0  0  0  0
  -24.0240  -22.4816   25.3983 C   0  0  0  0  0  0  0  0  0  0  0  0
  -23.5197  -28.2086   21.9271 C   0  0  0  0  0  0  0  0  0  0  0  0
  -30.5030  -16.5833   19.0890 C   0  0  0  0  0  0  0  0  0  0  0  0
  -29.5148  -12.5522   18.0797 C   0  0  0  0  0  0  0  0  0  0  0  0
  -22.6487  -27.8970   23.1400 C   0  0  0  0  0  0  0  0  0  0  0  0
  -28.1047  -12.2019   18.5532 C   0  0  0  0  0  0  0  0  0  0  0  0
  -30.9100  -17.7203   23.9751 C   0  0  0  0  0  0  0  0  0  0  0  0
  -28.6463  -17.7121   22.8702 C   0  0  0  0  0  0  0  0  0  0  0  0
  -30.4842  -12.6698   19.2517 C   0  0  0  0  0  0  0  0  0  0  0  0
  -28.6395  -13.2880   20.7802 C   0  0  0  0  0  0  0  0  0  0  0  0
  -30.3477  -18.5706   25.1061 C   0  0  0  0  0  0  0  0  0  0  0  0
  -28.0957  -18.5627   24.0067 C   0  0  0  0  0  0  0  0  0  0  0  0
  -23.4271  -28.1017   24.4453 C   0  0  1  0  0  0  0  0  0  0  0  0
  -24.9985  -24.7909   25.4395 C   0  0  1  0  0  0  0  0  0  0  0  0
  -30.3864  -17.6395   20.1918 C   0  0  1  0  0  0  0  0  0  0  0  0
  -30.1479  -17.9430   22.6637 C   0  0  0  0  0  0  0  0  0  0  0  0
  -27.6219  -13.1899   19.6299 C   0  0  2  0  0  0  0  0  0  0  0  0
  -31.1567  -20.7323   14.4177 C   0  0  0  0  0  0  0  0  0  0  0  0
  -32.4387  -21.3980   19.2082 C   0  0  0  0  0  0  0  0  0  0  0  0
  -32.3578  -22.3616   16.5051 C   0  0  0  0  0  0  0  0  0  0  0  0
  -30.4656  -15.0013   23.1110 C   0  0  0  0  0  0  0  0  0  0  0  0
  -26.8618  -20.1257   19.1768 C   0  0  0  0  0  0  0  0  0  0  0  0
  -27.2198  -16.8833   27.3963 C   0  0  0  0  0  0  0  0  0  0  0  0
  -21.8464  -22.6185   23.2698 C   0  0  0  0  0  0  0  0  0  0  0  0
  -22.4446  -21.1673   21.3194 C   0  0  0  0  0  0  0  0  0  0  0  0
  -22.5709  -23.6498   21.1097 C   0  0  0  0  0  0  0  0  0  0  0  0
  -28.6899  -22.7622   21.2221 C   0  0  0  0  0  0  0  0  0  0  0  0
  -28.2948  -19.0039   26.4523 C   0  0  0  0  0  0  0  0  0  0  0  0
  -30.1876  -15.5805   21.7265 C   0  0  1  0  0  0  0  0  0  0  0  0
  -24.3019  -22.4331   22.4937 C   0  0  1  0  0  0  0  0  0  0  0  0
  -26.9855  -21.3758   20.0340 C   0  0  2  0  0  0  0  0  0  0  0  0
  -30.6893  -17.0354   21.5614 C   0  0  1  0  0  0  0  0  0  0  0  0
  -27.0203  -18.3226   26.9398 C   0  0  2  0  0  0  0  0  0  1  0  0
  -22.8056  -22.4654   22.0725 C   0  0  0  0  0  0  0  0  0  0  0  0
  -25.8644  -11.5489   20.1790 N   0  0  0  0  0  0  0  0  0  0  0  0
  -26.2327  -12.8405   20.1314 N   0  0  0  0  0  0  0  0  0  0  0  0
  -24.5512  -23.6322   24.6481 N   0  0  0  0  0  0  0  0  0  0  0  0
  -29.9791  -13.6001   20.2629 N   0  0  0  0  0  0  0  0  0  0  0  0
  -25.4724  -15.0392   20.5767 N   0  0  0  0  0  0  0  0  0  0  0  0
  -22.7925  -13.5410   22.8054 N   0  0  0  0  0  0  0  0  0  0  0  0
  -24.3158  -26.9847   24.6842 N   0  0  0  0  0  0  0  0  0  0  0  0
  -25.2344  -22.3161   21.3779 N   0  0  0  0  0  0  0  0  0  0  0  0
  -28.8753  -18.2808   25.2682 N   0  3  0  0  0  0  0  0  0  0  0  0
  -28.4194  -21.5564   20.3976 N   0  3  0  0  0  0  0  0  0  0  0  0
  -21.9757  -13.6781   20.6670 O   0  0  0  0  0  0  0  0  0  0  0  0
  -22.7851  -25.5615   25.7108 O   0  0  0  0  0  0  0  0  0  0  0  0
  -31.9138  -14.8874   20.2596 O   0  0  0  0  0  0  0  0  0  0  0  0
  -25.1544  -24.6393   22.6399 O   0  0  0  0  0  0  0  0  0  0  0  0
  -26.2488  -20.3593   22.0983 O   0  0  0  0  0  0  0  0  0  0  0  0
  -21.6902   -6.9062   21.4314 O   0  0  0  0  0  0  0  0  0  0  0  0
  -26.4650  -19.0897   28.0072 O   0  0  0  0  0  0  0  0  0  1  0  0
  -21.0402   -5.1248   26.6090 F   0  0  0  0  0  0  0  0  0  0  0  0
  -22.6212   -4.4203   22.2034 F   0  0  0  0  0  0  0  0  0  0  0  0
  1  2  1  0  0  0  0
  1  5  2  0  0  0  0
  2  6  2  0  0  0  0
  3  8  2  0  0  0  0
  3 16  1  0  0  0  0
  4  9  1  0  0  0  0
  4 16  2  0  0  0  0
  5 18  1  0  0  0  0
  6 20  1  0  0  0  0
  7 10  2  0  0  0  0
  7 19  1  0  0  0  0
  8 27  1  0  0  0  0
  9 27  2  0  0  0  0
 10 28  1  0  0  0  0
 11 12  2  0  0  0  0
 11 29  1  0  0  0  0
 12 30  1  0  0  0  0
 13 21  1  0  0  0  0
 13 24  2  0  0  0  0
 14 22  1  0  0  0  0
 14 28  2  0  0  0  0
 15 30  2  0  0  0  0
 15 31  1  0  0  0  0
 16 32  1  0  0  0  0
 17 32  1  0  0  0  0
 17 33  2  0  0  0  0
 17 34  1  0  0  0  0
 18 20  2  0  0  0  0
 18 39  1  0  0  0  0
 19 22  2  0  0  0  0
 19 40  1  0  0  0  0
 20 55  1  0  0  0  0
 21 23  2  0  0  0  0
 21 41  1  0  0  0  0
 22 43  1  0  0  0  0
 23 25  1  0  0  0  0
 23 42  1  0  0  0  0
 24 26  1  0  0  0  0
 24 60  1  0  0  0  0
 25 26  2  0  0  0  0
 25 61  1  0  0  0  0
 26 62  1  0  0  0  0
 27 92  1  0  0  0  0
 28 93  1  0  0  0  0
 29 31  2  0  0  0  0
 29 92  1  0  0  0  0
 30 94  1  0  0  0  0
 31 95  1  0  0  0  0
 32 77  2  0  0  0  0
 33 78  1  0  0  0  0
 33 81  1  0  0  0  0
 34 82  1  0  0  0  0
 34 87  2  0  0  0  0
 35 56  1  0  0  0  0
 35 83  1  0  0  0  0
 35 88  2  0  0  0  0
 36 71  1  0  0  0  0
 36 80  1  0  0  0  0
 36 89  2  0  0  0  0
 37 72  1  0  0  0  0
 37 79  1  0  0  0  0
 37 90  2  0  0  0  0
 38 73  1  0  0  0  0
 38 84  1  0  0  0  0
 38 91  2  0  0  0  0
 39 44  1  0  0  0  0
 40 56  1  0  0  0  0
 41 45  1  0  0  0  0
 42 57  1  0  0  0  0
 43 79  1  0  0  0  0
 44 47  1  0  0  0  0
 45 57  1  0  0  0  0
 46 48  1  0  0  0  0
 46 51  1  0  0  0  0
 47 55  1  0  0  0  0
 48 59  1  0  0  0  0
 49 53  1  0  0  0  0
 49 58  1  0  0  0  0
 50 54  1  0  0  0  0
 50 58  1  0  0  0  0
 51 80  1  0  0  0  0
 52 59  1  0  0  0  0
 52 80  1  0  0  0  0
 53 85  1  0  0  0  0
 54 85  1  0  0  0  0
 55 83  1  0  0  0  0
 56 79  1  0  0  0  0
 57 74  1  0  0  0  0
 58 74  1  0  0  0  0
 59 78  1  0  0  0  0
 63 71  1  0  0  0  0
 64 73  1  0  0  0  0
 65 75  1  0  0  0  0
 66 76  1  0  0  0  0
 67 76  1  0  0  0  0
 68 76  1  0  0  0  0
 69 86  1  0  0  0  0
 70 75  1  0  0  0  0
 70 85  1  0  0  0  0
 71 74  1  0  0  0  0
 72 76  1  0  0  0  0
 72 84  1  0  0  0  0
 73 86  1  0  0  0  0
 75 93  1  0  0  0  0
 77 78  1  0  0  0  0
M  CHG  2  85   1  86   1
M  ISO  4  36 100  71 100  75 101  93 101
M  END
> <Batch ID>
0163

> <Smiles>
CNC(C)C(=O)NC(C(=O)N1Cc2cc([101O:1][101CH:1](C)CN3CCC(C(C4CCc5cc(C)c(C)c(C)c5C4)[100CH:0](C)[100C:0](=O)N4CCCC(n5nc(-c6ccc(Oc7ccc(F)cc7F)cc6)c(C(N)=O)c5N)C4)CC3)ccc2CC1C(=O)NC1CCCc2ccccc21)C(C)(C)C

> <Shape>
0.268

> <Color>
0.171

> <Negative vol penalty>
0.000

$$$$

  -OEChem-04052322173D

 94103  0     1  0  0  0  0  0999 V2000
  -18.8740  -32.9216   23.6613 C   0  0  0  0  0  0  0  0  0  0  0  0
  -20.0905  -32.3194   23.3566 C   0  0  0  0  0  0  0  0  0  0  0  0
  -24.4560  -13.9031   21.9639 C   0  0  0  0  0  0  0  0  0  0  0  0
  -26.0452  -14.0841   20.1531 C   0  0  0  0  0  0  0  0  0  0  0  0
  -17.7262  -32.1419   23.7973 C   0  0  0  0  0  0  0  0  0  0  0  0
  -20.1601  -30.9368   23.1889 C   0  0  0  0  0  0  0  0  0  0  0  0
  -22.8888  -29.6066   19.1355 C   0  0  0  0  0  0  0  0  0  0  0  0
  -23.8900  -12.7831   21.3551 C   0  0  0  0  0  0  0  0  0  0  0  0
  -25.4792  -12.9640   19.5444 C   0  0  0  0  0  0  0  0  0  0  0  0
  -24.2767  -29.6542   19.2587 C   0  0  0  0  0  0  0  0  0  0  0  0
  -24.5966   -9.4907   21.0484 C   0  0  0  0  0  0  0  0  0  0  0  0
  -24.3152   -8.3877   21.8544 C   0  0  0  0  0  0  0  0  0  0  0  0
  -24.3213  -27.2683   19.6115 C   0  0  0  0  0  0  0  0  0  0  0  0
  -27.9380  -24.3017   23.2890 C   0  0  0  0  0  0  0  0  0  0  0  0
  -21.9776   -8.5546   21.2669 C   0  0  0  0  0  0  0  0  0  0  0  0
  -25.5336  -14.5537   21.3628 C   0  0  0  0  0  0  0  0  0  0  0  0
  -26.7111  -15.7781   23.2660 C   0  0  0  0  0  0  0  0  0  0  0  0
  -17.7799  -30.7502   23.6217 C   0  0  0  0  0  0  0  0  0  0  0  0
  -22.2045  -28.3889   19.2604 C   0  0  0  0  0  0  0  0  0  0  0  0
  -19.0122  -30.1376   23.3240 C   0  0  0  0  0  0  0  0  0  0  0  0
  -22.9249  -27.2075   19.4869 C   0  0  0  0  0  0  0  0  0  0  0  0
  -29.3214  -24.4261   23.4155 C   0  0  0  0  0  0  0  0  0  0  0  0
  -29.9431  -24.1054   24.6223 C   0  0  0  0  0  0  0  0  0  0  0  0
  -29.1812  -23.6603   25.7026 C   0  0  0  0  0  0  0  0  0  0  0  0
  -27.7977  -23.5359   25.5761 C   0  0  0  0  0  0  0  0  0  0  0  0
  -24.4015  -12.3134   20.1454 C   0  0  0  0  0  0  0  0  0  0  0  0
  -24.9929  -28.4854   19.4996 C   0  0  0  0  0  0  0  0  0  0  0  0
  -23.5685  -10.1258   20.3517 C   0  0  0  0  0  0  0  0  0  0  0  0
  -27.1760  -23.8566   24.3694 C   0  0  0  0  0  0  0  0  0  0  0  0
  -23.0057   -7.9196   21.9636 C   0  0  0  0  0  0  0  0  0  0  0  0
  -22.2591   -9.6577   20.4609 C   0  0  0  0  0  0  0  0  0  0  0  0
  -26.1184  -15.7112   21.9909 C   0  0  0  0  0  0  0  0  0  0  0  0
  -27.1088  -17.0867   23.3916 C   0  0  0  0  0  0  0  0  0  0  0  0
  -26.8866  -14.7492   24.2491 C   0  0  0  0  0  0  0  0  0  0  0  0
  -20.0078  -27.2445   21.2524 C   0  0  0  0  0  0  0  0  0  0  0  0
  -20.0278  -24.7260   19.2081 C   0  0  0  0  0  0  0  0  0  0  0  0
  -21.7163  -22.9132   16.8609 C   0  0  0  0  0  0  0  0  0  0  0  0
  -29.5722  -21.5264   21.3501 C   0  0  0  0  0  0  0  0  0  0  0  0
  -16.5218  -29.9437   23.8253 C   0  0  0  0  0  0  0  0  0  0  0  0
  -20.7097  -28.3504   19.0983 C   0  0  0  0  0  0  0  0  0  0  0  0
  -22.2396  -25.8718   19.6089 C   0  0  0  0  0  0  0  0  0  0  0  0
  -16.6084  -28.5274   23.2625 C   0  0  0  0  0  0  0  0  0  0  0  0
  -26.0662  -21.1348   20.5425 C   0  0  0  0  0  0  0  0  0  0  0  0
  -17.9233  -27.8704   23.6702 C   0  0  0  0  0  0  0  0  0  0  0  0
  -25.8189  -19.6832   20.9571 C   0  0  0  0  0  0  0  0  0  0  0  0
  -27.4499  -21.3043   19.9221 C   0  0  0  0  0  0  0  0  0  0  0  0
  -28.3277  -19.3884   21.1996 C   0  0  0  0  0  0  0  0  0  0  0  0
  -30.3324  -26.2966   20.1094 C   0  0  0  0  0  0  0  0  0  0  0  0
  -30.1305  -24.9162   22.2186 C   0  0  2  0  0  0  0  0  0  0  0  0
  -19.1233  -28.6436   23.1101 C   0  0  1  0  0  0  0  0  0  0  0  0
  -20.0686  -27.1319   19.7553 C   0  0  1  0  0  0  0  0  0  0  0  0
  -29.4123  -25.9197   21.2787 C   0  0  1  0  0  0  0  0  0  0  0  0
  -26.9540  -19.1556   21.8545 C   0  0  2  0  0  0  0  0  0  0  0  0
  -30.7119  -23.7299   21.4022 C   0  0  2  0  0  0  0  0  0  0  0  0
  -31.5704  -24.2216   20.2054 C   0  0  0  0  0  0  0  0  0  0  0  0
  -31.4273  -24.2393   24.7546 C   0  0  0  0  0  0  0  0  0  0  0  0
  -29.8474  -23.3159   26.9973 C   0  0  0  0  0  0  0  0  0  0  0  0
  -26.9740  -23.0594   26.7302 C   0  0  0  0  0  0  0  0  0  0  0  0
  -31.9351  -23.0630   19.2579 C   0  0  0  0  0  0  0  0  0  0  0  0
  -32.8970  -24.8487   20.6758 C   0  0  0  0  0  0  0  0  0  0  0  0
  -21.4887  -20.8869   15.3980 C   0  0  0  0  0  0  0  0  0  0  0  0
  -30.1974  -27.8987   22.5977 C   0  0  0  0  0  0  0  0  0  0  0  0
  -20.5219  -22.9292   21.6242 C   0  0  0  0  0  0  0  0  0  0  0  0
  -21.2215  -21.1165   20.0453 C   0  0  0  0  0  0  0  0  0  0  0  0
  -18.8958  -22.0144   19.9589 C   0  0  0  0  0  0  0  0  0  0  0  0
  -21.9934  -24.5213   14.3919 C   0  0  0  0  0  0  0  0  0  0  0  0
  -25.0400  -24.8862   24.5521 C   0  0  0  0  0  0  0  0  0  0  0  0
  -28.2096  -28.1603   21.0871 C   0  0  0  0  0  0  0  0  0  0  0  0
  -26.9557  -27.5549   20.4679 C   0  0  0  0  0  0  0  0  0  1  0  0
  -20.8057  -23.4361   19.1085 C   0  0  1  0  0  0  0  0  0  0  0  0
  -21.2980  -22.3924   15.4977 C   0  0  2  0  0  0  0  0  0  0  0  0
  -28.9740  -27.1945   22.0067 C   0  0  1  0  0  0  0  0  0  0  0  0
  -20.3743  -22.3993   20.1839 C   0  0  0  0  0  0  0  0  0  0  0  0
  -26.1357  -16.8841   21.3521 N   0  0  0  0  0  0  0  0  0  0  0  0
  -26.7440  -17.7003   22.2294 N   0  0  0  0  0  0  0  0  0  0  0  0
  -20.7761  -25.8870   19.4491 N   0  0  0  0  0  0  0  0  0  0  0  0
  -28.4860  -20.8000   20.8342 N   0  0  0  0  0  0  0  0  0  0  0  0
  -27.7313  -17.7610   24.3817 N   0  0  0  0  0  0  0  0  0  0  0  0
  -28.0610  -13.9852   24.2143 N   0  0  0  0  0  0  0  0  0  0  0  0
  -19.3061  -28.3451   21.7058 N   0  0  0  0  0  0  0  0  0  0  0  0
  -20.6509  -22.9711   17.7343 N   0  0  0  0  0  0  0  0  0  0  0  0
  -29.6536  -22.8545   20.9498 N   0  0  0  0  0  0  0  0  0  0  0  0
  -22.1053  -23.0404   14.4256 N   0  3  0  0  0  0  0  0  0  0  0  0
  -26.0200  -14.5036   25.1221 O   0  0  0  0  0  0  0  0  0  0  0  0
  -20.5556  -26.3947   21.9450 O   0  0  0  0  0  0  0  0  0  0  0  0
  -18.8022  -24.7054   19.0698 O   0  0  0  0  0  0  0  0  0  0  0  0
  -22.8731  -23.2328   17.1256 O   0  0  0  0  0  0  0  0  0  0  0  0
  -30.4053  -21.0295   22.1156 O   0  0  0  0  0  0  0  0  0  0  0  0
  -30.8217  -25.1549   19.4128 O   0  0  0  0  0  0  0  0  0  0  0  0
  -23.8496  -11.2203   19.5513 O   0  0  0  0  0  0  0  0  0  0  0  0
  -25.8259  -23.7414   24.2269 O   0  0  0  0  0  0  0  0  0  0  0  0
  -26.3476  -28.5292   19.6210 O   0  0  0  0  0  0  0  0  0  1  0  0
  -22.7359   -6.8594   22.7365 F   0  0  0  0  0  0  0  0  0  0  0  0
  -21.2674  -10.2630   19.7930 F   0  0  0  0  0  0  0  0  0  0  0  0
  1  2  1  0  0  0  0
  1  5  2  0  0  0  0
  2  6  2  0  0  0  0
  3  8  2  0  0  0  0
  3 16  1  0  0  0  0
  4  9  1  0  0  0  0
  4 16  2  0  0  0  0
  5 18  1  0  0  0  0
  6 20  1  0  0  0  0
  7 10  2  0  0  0  0
  7 19  1  0  0  0  0
  8 26  1  0  0  0  0
  9 26  2  0  0  0  0
 10 27  1  0  0  0  0
 11 12  2  0  0  0  0
 11 28  1  0  0  0  0
 12 30  1  0  0  0  0
 13 21  1  0  0  0  0
 13 27  2  0  0  0  0
 14 22  1  0  0  0  0
 14 29  2  0  0  0  0
 15 30  2  0  0  0  0
 15 31  1  0  0  0  0
 16 32  1  0  0  0  0
 17 32  1  0  0  0  0
 17 33  2  0  0  0  0
 17 34  1  0  0  0  0
 18 20  2  0  0  0  0
 18 39  1  0  0  0  0
 19 21  2  0  0  0  0
 19 40  1  0  0  0  0
 20 50  1  0  0  0  0
 21 41  1  0  0  0  0
 22 23  2  0  0  0  0
 22 49  1  0  0  0  0
 23 24  1  0  0  0  0
 23 56  1  0  0  0  0
 24 25  2  0  0  0  0
 24 57  1  0  0  0  0
 25 29  1  0  0  0  0
 25 58  1  0  0  0  0
 26 90  1  0  0  0  0
 27 92  1  0  0  0  0
 28 31  2  0  0  0  0
 28 90  1  0  0  0  0
 29 91  1  0  0  0  0
 30 93  1  0  0  0  0
 31 94  1  0  0  0  0
 32 74  2  0  0  0  0
 33 75  1  0  0  0  0
 33 78  1  0  0  0  0
 34 79  1  0  0  0  0
 34 84  2  0  0  0  0
 35 51  1  0  0  0  0
 35 80  1  0  0  0  0
 35 85  2  0  0  0  0
 36 70  1  0  0  0  0
 36 76  1  0  0  0  0
 36 86  2  0  0  0  0
 37 71  1  0  0  0  0
 37 81  1  0  0  0  0
 37 87  2  0  0  0  0
 38 77  1  0  0  0  0
 38 82  1  0  0  0  0
 38 88  2  0  0  0  0
 39 42  1  0  0  0  0
 40 51  1  0  0  0  0
 41 76  1  0  0  0  0
 42 44  1  0  0  0  0
 43 45  1  0  0  0  0
 43 46  1  0  0  0  0
 44 50  1  0  0  0  0
 45 53  1  0  0  0  0
 46 77  1  0  0  0  0
 47 53  1  0  0  0  0
 47 77  1  0  0  0  0
 48 52  1  0  0  0  0
 48 89  1  0  0  0  0
 49 52  1  0  0  0  0
 49 54  1  0  0  0  0
 50 80  1  0  0  0  0
 51 76  1  0  0  0  0
 52 72  1  0  0  0  0
 53 75  1  0  0  0  0
 54 55  1  0  0  0  0
 54 82  1  0  0  0  0
 55 59  1  0  0  0  0
 55 60  1  0  0  0  0
 55 89  1  0  0  0  0
 61 71  1  0  0  0  0
 62 72  1  0  0  0  0
 63 73  1  0  0  0  0
 64 73  1  0  0  0  0
 65 73  1  0  0  0  0
 66 83  1  0  0  0  0
 67 91  1  0  0  0  0
 68 69  1  0  0  0  0
 68 72  1  0  0  0  0
 69 92  1  0  0  0  0
 70 73  1  0  0  0  0
 70 81  1  0  0  0  0
 71 83  1  0  0  0  0
 74 75  1  0  0  0  0
M  CHG  1  83   1
M  ISO  4  38 100  69 101  82 100  92 101
M  END
> <Batch ID>
0163

> <Smiles>
CNC(C)C(=O)NC(C(=O)N1Cc2cc([101O:1][101CH2:1]CC(C)C3COC(C)(C)C([100NH:0][100C:0](=O)N4CCCC(n5nc(-c6ccc(Oc7ccc(F)cc7F)cc6)c(C(N)=O)c5N)C4)C3c3cc(OC)c(C)c(C)c3C)ccc2CC1C(=O)NC1CCCc2ccccc21)C(C)(C)C

> <Shape>
0.223

> <Color>
0.062

> <Negative vol penalty>
0.000

$$$$

  -OEChem-04052322173D

 88 97  0     1  0  0  0  0  0999 V2000
  -27.0285  -37.6692   24.2010 C   0  0  0  0  0  0  0  0  0  0  0  0
  -27.7344  -36.6736   23.5332 C   0  0  0  0  0  0  0  0  0  0  0  0
  -23.6482  -10.4826   22.4295 C   0  0  0  0  0  0  0  0  0  0  0  0
  -24.4913   -8.6152   21.1492 C   0  0  0  0  0  0  0  0  0  0  0  0
  -25.8944  -37.3404   24.9423 C   0  0  0  0  0  0  0  0  0  0  0  0
  -27.3072  -35.3483   23.6073 C   0  0  0  0  0  0  0  0  0  0  0  0
  -27.0731  -29.3326   19.7249 C   0  0  0  0  0  0  0  0  0  0  0  0
  -22.5050   -9.7490   22.7467 C   0  0  0  0  0  0  0  0  0  0  0  0
  -23.3482   -7.8815   21.4665 C   0  0  0  0  0  0  0  0  0  0  0  0
  -27.4202  -27.9847   19.8052 C   0  0  0  0  0  0  0  0  0  0  0  0
  -20.8176   -5.3873   22.2366 C   0  0  0  0  0  0  0  0  0  0  0  0
  -20.9868   -4.0610   22.6337 C   0  0  0  0  0  0  0  0  0  0  0  0
  -25.4016  -27.5455   21.0508 C   0  0  0  0  0  0  0  0  0  0  0  0
  -22.3395   -4.7916   24.4975 C   0  0  0  0  0  0  0  0  0  0  0  0
  -24.6413   -9.9157   21.6307 C   0  0  0  0  0  0  0  0  0  0  0  0
  -27.0291  -10.7223   22.0251 C   0  0  0  0  0  0  0  0  0  0  0  0
  -25.4475  -36.0118   25.0176 C   0  0  0  0  0  0  0  0  0  0  0  0
  -25.8911  -29.7998   20.3174 C   0  0  0  0  0  0  0  0  0  0  0  0
  -26.1668  -35.0012   24.3515 C   0  0  0  0  0  0  0  0  0  0  0  0
  -25.0405  -28.8993   20.9744 C   0  0  0  0  0  0  0  0  0  0  0  0
  -28.6701  -21.1478   20.3892 C   0  0  0  0  0  0  0  0  0  0  0  0
  -28.8838  -21.9981   21.4740 C   0  0  0  0  0  0  0  0  0  0  0  0
  -28.7122  -23.3744   21.3258 C   0  0  0  0  0  0  0  0  0  0  0  0
  -28.3270  -23.9005   20.0926 C   0  0  0  0  0  0  0  0  0  0  0  0
  -28.1133  -23.0501   19.0077 C   0  0  0  0  0  0  0  0  0  0  0  0
  -22.3550   -8.4484   22.2652 C   0  0  0  0  0  0  0  0  0  0  0  0
  -26.5858  -27.0914   20.4708 C   0  0  0  0  0  0  0  0  0  0  0  0
  -21.4094   -6.4159   22.9699 C   0  0  0  0  0  0  0  0  0  0  0  0
  -28.2849  -21.6738   19.1560 C   0  0  0  0  0  0  0  0  0  0  0  0
  -21.7477   -3.7631   23.7642 C   0  0  0  0  0  0  0  0  0  0  0  0
  -22.1703   -6.1180   24.1003 C   0  0  0  0  0  0  0  0  0  0  0  0
  -25.8221  -10.6732   21.3022 C   0  0  0  0  0  0  0  0  0  0  0  0
  -27.8271  -11.5762   21.3036 C   0  0  0  0  0  0  0  0  0  0  0  0
  -27.3962  -10.0555   23.2402 C   0  0  0  0  0  0  0  0  0  0  0  0
  -25.2069  -31.8812   22.6203 C   0  0  0  0  0  0  0  0  0  0  0  0
  -22.1503  -31.2950   21.7060 C   0  0  0  0  0  0  0  0  0  0  0  0
  -19.9262  -29.1741   20.2220 C   0  0  0  0  0  0  0  0  0  0  0  0
  -28.6856  -16.1498   18.4112 C   0  0  0  0  0  0  0  0  0  0  0  0
  -24.2434  -35.6981   25.8700 C   0  0  0  0  0  0  0  0  0  0  0  0
  -25.5177  -31.2520   20.1988 C   0  0  0  0  0  0  0  0  0  0  0  0
  -23.7503  -29.3467   21.6097 C   0  0  0  0  0  0  0  0  0  0  0  0
  -23.6413  -34.3233   25.5913 C   0  0  0  0  0  0  0  0  0  0  0  0
  -27.2433  -13.5276   16.6816 C   0  0  0  0  0  0  0  0  0  0  0  0
  -24.7367  -33.2638   25.5271 C   0  0  0  0  0  0  0  0  0  0  0  0
  -26.8401  -12.5452   17.7810 C   0  0  0  0  0  0  0  0  0  0  0  0
  -27.5456  -18.8786   20.3012 C   0  0  0  0  0  0  0  0  0  0  0  0
  -29.9779  -19.1110   19.6382 C   0  0  0  0  0  0  0  0  0  0  0  0
  -26.9521  -14.9641   17.0998 C   0  0  0  0  0  0  0  0  0  0  0  0
  -27.7471  -17.3657   20.4266 C   0  0  0  0  0  0  0  0  0  0  0  0
  -30.1282  -17.6016   19.8041 C   0  0  0  0  0  0  0  0  0  0  0  0
  -27.2132  -14.3905   19.4917 C   0  0  0  0  0  0  0  0  0  0  0  0
  -28.8554  -19.6500   20.5434 C   0  0  0  0  0  0  0  0  0  0  0  0
  -25.7205  -33.5556   24.3875 C   0  0  1  0  0  0  0  0  0  0  0  0
  -24.5457  -31.7094   21.2820 C   0  0  1  0  0  0  0  0  0  0  0  0
  -27.4930  -12.9192   19.1235 C   0  0  1  0  0  0  0  0  0  0  0  0
  -29.2986  -21.4335   22.7962 C   0  0  0  0  0  0  0  0  0  0  0  0
  -28.9394  -24.2865   22.4900 C   0  0  0  0  0  0  0  0  0  0  0  0
  -27.7006  -23.6080   17.6825 C   0  0  0  0  0  0  0  0  0  0  0  0
  -17.4912  -28.9532   19.6569 C   0  0  0  0  0  0  0  0  0  0  0  0
  -21.5349  -30.6443   24.6228 C   0  0  0  0  0  0  0  0  0  0  0  0
  -19.4207  -29.5425   23.8583 C   0  0  0  0  0  0  0  0  0  0  0  0
  -19.7705  -31.9796   23.4571 C   0  0  0  0  0  0  0  0  0  0  0  0
  -20.4934  -29.0308   17.3209 C   0  0  0  0  0  0  0  0  0  0  0  0
  -28.8872  -21.0493   16.9417 C   0  0  0  0  0  0  0  0  0  0  0  0
  -28.1431  -25.3764   19.9326 C   0  0  0  0  0  0  0  0  0  1  0  0
  -21.0878  -30.2990   22.1035 C   0  0  1  0  0  0  0  0  0  0  0  0
  -18.8576  -29.4100   19.1700 C   0  0  2  0  0  0  0  0  0  0  0  0
  -20.4787  -30.6079   23.5002 C   0  0  0  0  0  0  0  0  0  0  0  0
  -25.8466  -11.4354   20.2056 N   0  0  0  0  0  0  0  0  0  0  0  0
  -27.0786  -11.9715   20.2342 N   0  0  0  0  0  0  0  0  0  0  0  0
  -23.4322  -30.7776   21.4723 N   0  0  0  0  0  0  0  0  0  0  0  0
  -27.5859  -15.2792   18.3800 N   0  0  0  0  0  0  0  0  0  0  0  0
  -28.8563  -16.9173   19.5733 N   0  0  0  0  0  0  0  0  0  0  0  0
  -29.0889  -12.0199   21.4860 N   0  0  0  0  0  0  0  0  0  0  0  0
  -26.4564   -9.2137   23.8505 N   0  0  0  0  0  0  0  0  0  0  0  0
  -25.1488  -33.1701   23.1152 N   0  0  0  0  0  0  0  0  0  0  0  0
  -20.1144  -30.2850   21.0169 N   0  0  0  0  0  0  0  0  0  0  0  0
  -19.1854  -28.6639   17.9223 N   0  3  0  0  0  0  0  0  0  0  0  0
  -28.5183  -10.2147   23.7778 O   0  0  0  0  0  0  0  0  0  0  0  0
  -25.7296  -30.9156   23.1643 O   0  0  0  0  0  0  0  0  0  0  0  0
  -21.8520  -32.4872   21.5995 O   0  0  0  0  0  0  0  0  0  0  0  0
  -20.5307  -28.1095   20.3305 O   0  0  0  0  0  0  0  0  0  0  0  0
  -29.4697  -16.2364   17.4579 O   0  0  0  0  0  0  0  0  0  0  0  0
  -21.2398   -7.7322   22.5748 O   0  0  0  0  0  0  0  0  0  0  0  0
  -28.0753  -20.8423   18.0947 O   0  0  0  0  0  0  0  0  0  0  0  0
  -26.9250  -25.7656   20.5518 O   0  0  0  0  0  0  0  0  0  1  0  0
  -21.9088   -2.4894   24.1463 F   0  0  0  0  0  0  0  0  0  0  0  0
  -22.7403   -7.1018   24.8095 F   0  0  0  0  0  0  0  0  0  0  0  0
  1  2  1  0  0  0  0
  1  5  2  0  0  0  0
  2  6  2  0  0  0  0
  3  8  2  0  0  0  0
  3 15  1  0  0  0  0
  4  9  1  0  0  0  0
  4 15  2  0  0  0  0
  5 17  1  0  0  0  0
  6 19  1  0  0  0  0
  7 10  2  0  0  0  0
  7 18  1  0  0  0  0
  8 26  1  0  0  0  0
  9 26  2  0  0  0  0
 10 27  1  0  0  0  0
 11 12  2  0  0  0  0
 11 28  1  0  0  0  0
 12 30  1  0  0  0  0
 13 20  1  0  0  0  0
 13 27  2  0  0  0  0
 14 30  2  0  0  0  0
 14 31  1  0  0  0  0
 15 32  1  0  0  0  0
 16 32  1  0  0  0  0
 16 33  2  0  0  0  0
 16 34  1  0  0  0  0
 17 19  2  0  0  0  0
 17 39  1  0  0  0  0
 18 20  2  0  0  0  0
 18 40  1  0  0  0  0
 19 53  1  0  0  0  0
 20 41  1  0  0  0  0
 21 22  1  0  0  0  0
 21 29  2  0  0  0  0
 21 52  1  0  0  0  0
 22 23  2  0  0  0  0
 22 56  1  0  0  0  0
 23 24  1  0  0  0  0
 23 57  1  0  0  0  0
 24 25  2  0  0  0  0
 24 65  1  0  0  0  0
 25 29  1  0  0  0  0
 25 58  1  0  0  0  0
 26 84  1  0  0  0  0
 27 86  1  0  0  0  0
 28 31  2  0  0  0  0
 28 84  1  0  0  0  0
 29 85  1  0  0  0  0
 30 87  1  0  0  0  0
 31 88  1  0  0  0  0
 32 69  2  0  0  0  0
 33 70  1  0  0  0  0
 33 74  1  0  0  0  0
 34 75  1  0  0  0  0
 34 79  2  0  0  0  0
 35 54  1  0  0  0  0
 35 76  1  0  0  0  0
 35 80  2  0  0  0  0
 36 66  1  0  0  0  0
 36 71  1  0  0  0  0
 36 81  2  0  0  0  0
 37 67  1  0  0  0  0
 37 77  1  0  0  0  0
 37 82  2  0  0  0  0
 38 72  1  0  0  0  0
 38 73  1  0  0  0  0
 38 83  2  0  0  0  0
 39 42  1  0  0  0  0
 40 54  1  0  0  0  0
 41 71  1  0  0  0  0
 42 44  1  0  0  0  0
 43 45  1  0  0  0  0
 43 48  1  0  0  0  0
 44 53  1  0  0  0  0
 45 55  1  0  0  0  0
 46 49  1  0  0  0  0
 46 52  1  0  0  0  0
 47 50  1  0  0  0  0
 47 52  1  0  0  0  0
 48 72  1  0  0  0  0
 49 73  1  0  0  0  0
 50 73  1  0  0  0  0
 51 55  1  0  0  0  0
 51 72  1  0  0  0  0
 53 76  1  0  0  0  0
 54 71  1  0  0  0  0
 55 70  1  0  0  0  0
 59 67  1  0  0  0  0
 60 68  1  0  0  0  0
 61 68  1  0  0  0  0
 62 68  1  0  0  0  0
 63 78  1  0  0  0  0
 64 85  1  0  0  0  0
 65 86  1  0  0  0  0
 66 68  1  0  0  0  0
 66 77  1  0  0  0  0
 67 78  1  0  0  0  0
 69 70  1  0  0  0  0
M  CHG  1  78   1
M  ISO  4  38 100  65 101  73 100  86 101
M  END
> <Batch ID>
0163

> <Smiles>
CNC(C)C(=O)NC(C(=O)N1Cc2cc([101O:1][101CH2:1]c3c(C)c(C)c(C4CC[100N:0]([100C:0](=O)N5CCCC(n6nc(-c7ccc(Oc8ccc(F)cc8F)cc7)c(C(N)=O)c6N)C5)CC4)c(OC)c3C)ccc2CC1C(=O)NC1CCCc2ccccc21)C(C)(C)C

> <Shape>
0.329

> <Color>
0.087

> <Negative vol penalty>
0.000

$$$$

  -OEChem-04052322172D

  0  0  0     0  0  0  0  0  0999 V2000
M  END
$$$$

  -OEChem-04052322173D

 88 98  0     1  0  0  0  0  0999 V2000
  -22.3374  -21.3860   23.3972 C   0  0  0  0  0  0  0  0  0  0  0  0
  -23.1994  -22.1778   22.6452 C   0  0  0  0  0  0  0  0  0  0  0  0
  -23.2462  -10.6183   22.1801 C   0  0  0  0  0  0  0  0  0  0  0  0
  -24.5562   -8.8213   21.2360 C   0  0  0  0  0  0  0  0  0  0  0  0
  -21.3393  -21.9813   24.1674 C   0  0  0  0  0  0  0  0  0  0  0  0
  -23.0630  -23.5655   22.6622 C   0  0  0  0  0  0  0  0  0  0  0  0
  -27.5054  -25.9486   23.1418 C   0  0  0  0  0  0  0  0  0  0  0  0
  -22.1706   -9.7463   22.3476 C   0  0  0  0  0  0  0  0  0  0  0  0
  -23.4806   -7.9491   21.4035 C   0  0  0  0  0  0  0  0  0  0  0  0
  -28.3010  -26.0480   22.0012 C   0  0  0  0  0  0  0  0  0  0  0  0
  -21.2013   -5.1632   21.9148 C   0  0  0  0  0  0  0  0  0  0  0  0
  -21.4653   -3.9013   22.4472 C   0  0  0  0  0  0  0  0  0  0  0  0
  -30.0491  -23.5568   17.1134 C   0  0  0  0  0  0  0  0  0  0  0  0
  -28.8244  -23.2435   19.1723 C   0  0  0  0  0  0  0  0  0  0  0  0
  -27.5406  -28.3140   21.6756 C   0  0  0  0  0  0  0  0  0  0  0  0
  -22.3305   -4.9295   24.4550 C   0  0  0  0  0  0  0  0  0  0  0  0
  -24.4391  -10.1559   21.6243 C   0  0  0  0  0  0  0  0  0  0  0  0
  -26.5806  -11.3230   22.3721 C   0  0  0  0  0  0  0  0  0  0  0  0
  -21.1967  -23.3774   24.2014 C   0  0  0  0  0  0  0  0  0  0  0  0
  -26.7117  -27.0293   23.5524 C   0  0  0  0  0  0  0  0  0  0  0  0
  -22.0611  -24.1799   23.4326 C   0  0  0  0  0  0  0  0  0  0  0  0
  -29.5945  -24.0515   18.3357 C   0  0  0  0  0  0  0  0  0  0  0  0
  -26.7378  -28.2267   22.8232 C   0  0  0  0  0  0  0  0  0  0  0  0
  -28.9636  -21.4459   17.5640 C   0  0  0  0  0  0  0  0  0  0  0  0
  -29.7336  -22.2540   16.7275 C   0  0  0  0  0  0  0  0  0  0  0  0
  -22.2877   -8.4117   21.9593 C   0  0  0  0  0  0  0  0  0  0  0  0
  -28.3165  -27.2299   21.2663 C   0  0  0  0  0  0  0  0  0  0  0  0
  -21.5019   -6.3083   22.6525 C   0  0  0  0  0  0  0  0  0  0  0  0
  -28.5090  -21.9407   18.7864 C   0  0  0  0  0  0  0  0  0  0  0  0
  -22.0299   -3.7844   23.7173 C   0  0  0  0  0  0  0  0  0  0  0  0
  -22.0665   -6.1914   23.9226 C   0  0  0  0  0  0  0  0  0  0  0  0
  -25.5504  -11.0564   21.4505 C   0  0  0  0  0  0  0  0  0  0  0  0
  -27.3815  -12.2398   21.7360 C   0  0  0  0  0  0  0  0  0  0  0  0
  -26.7946  -10.7895   23.6856 C   0  0  0  0  0  0  0  0  0  0  0  0
  -23.5912  -27.5072   23.9231 C   0  0  0  0  0  0  0  0  0  0  0  0
  -24.5675  -30.3455   25.1532 C   0  0  0  0  0  0  0  0  0  0  0  0
  -26.9785  -32.7552   25.3197 C   0  0  0  0  0  0  0  0  0  0  0  0
  -28.0568  -16.7808   18.8627 C   0  0  0  0  0  0  0  0  0  0  0  0
  -20.0727  -23.9728   25.0119 C   0  0  0  0  0  0  0  0  0  0  0  0
  -25.8795  -26.9152   24.8001 C   0  0  0  0  0  0  0  0  0  0  0  0
  -25.9195  -29.4228   23.2333 C   0  0  0  0  0  0  0  0  0  0  0  0
  -20.2332  -25.4689   25.2689 C   0  0  0  0  0  0  0  0  0  0  0  0
  -27.4463  -13.8138   16.9451 C   0  0  0  0  0  0  0  0  0  0  0  0
  -20.6158  -26.1935   23.9823 C   0  0  0  0  0  0  0  0  0  0  0  0
  -26.9489  -12.8563   18.0251 C   0  0  0  0  0  0  0  0  0  0  0  0
  -27.1132  -19.7672   17.0325 C   0  0  0  0  0  0  0  0  0  0  0  0
  -29.5851  -26.5845   17.8260 C   0  0  0  0  0  0  0  0  0  0  0  0
  -26.9529  -15.2451   17.1660 C   0  0  0  0  0  0  0  0  0  0  0  0
  -27.0499  -18.2467   17.0419 C   0  0  0  0  0  0  0  0  0  0  0  0
  -26.7485  -14.8138   19.5979 C   0  0  0  0  0  0  0  0  0  0  0  0
  -29.9312  -25.4435   18.7477 C   0  0  1  0  0  0  0  0  0  0  0  0
  -28.6187  -20.0348   17.1512 C   0  0  2  0  0  0  0  0  0  0  0  0
  -21.9606  -25.6898   23.4444 C   0  0  1  0  0  0  0  0  0  0  0  0
  -24.7174  -27.9029   24.8356 C   0  0  1  0  0  0  0  0  0  0  0  0
  -27.2937  -13.3888   19.4255 C   0  0  1  0  0  0  0  0  0  0  0  0
  -28.8123  -26.3948   19.0954 C   0  0  1  0  0  0  0  0  0  1  0  0
  -29.0856  -18.9392   18.1350 C   0  0  2  0  0  0  0  0  0  0  0  0
  -30.2324  -21.7474   15.4138 C   0  0  0  0  0  0  0  0  0  0  0  0
  -30.5185  -18.4949   17.8521 C   0  0  0  0  0  0  0  0  0  0  0  0
  -27.4749  -34.9752   26.3791 C   0  0  0  0  0  0  0  0  0  0  0  0
  -22.6875  -31.7078   23.1734 C   0  0  0  0  0  0  0  0  0  0  0  0
  -23.9029  -33.8541   23.6032 C   0  0  0  0  0  0  0  0  0  0  0  0
  -22.6962  -32.7119   25.4639 C   0  0  0  0  0  0  0  0  0  0  0  0
  -29.3433  -31.6804   26.7380 C   0  0  0  0  0  0  0  0  0  0  0  0
  -27.3342  -21.7544   20.8458 C   0  0  0  0  0  0  0  0  0  0  0  0
  -24.8483  -31.7163   24.5867 C   0  0  1  0  0  0  0  0  0  0  0  0
  -27.6125  -33.4657   26.5019 C   0  0  2  0  0  0  0  0  0  0  0  0
  -23.5478  -32.4745   24.1977 C   0  0  0  0  0  0  0  0  0  0  0  0
  -25.6821  -11.7480   20.3155 N   0  0  0  0  0  0  0  0  0  0  0  0
  -26.8045  -12.4583   20.5197 N   0  0  0  0  0  0  0  0  0  0  0  0
  -25.1172  -29.2598   24.4569 N   0  0  0  0  0  0  0  0  0  0  0  0
  -27.2282  -15.7002   18.5340 N   0  0  0  0  0  0  0  0  0  0  0  0
  -28.1194  -17.8441   17.9574 N   0  0  0  0  0  0  0  0  0  0  0  0
  -28.5158  -12.8723   22.1042 N   0  0  0  0  0  0  0  0  0  0  0  0
  -25.8754   -9.8575   24.1861 N   0  0  0  0  0  0  0  0  0  0  0  0
  -23.0539  -26.2644   24.1988 N   0  0  0  0  0  0  0  0  0  0  0  0
  -25.6692  -32.4065   25.5757 N   0  0  0  0  0  0  0  0  0  0  0  0
  -29.0622  -33.1316   26.5904 N   0  3  0  0  0  0  0  0  0  0  0  0
  -27.7631  -11.1417   24.4009 O   0  0  0  0  0  0  0  0  0  0  0  0
  -23.2350  -28.2735   23.0355 O   0  0  0  0  0  0  0  0  0  0  0  0
  -23.8916  -30.2423   26.1800 O   0  0  0  0  0  0  0  0  0  0  0  0
  -27.5830  -32.5350   24.2725 O   0  0  0  0  0  0  0  0  0  0  0  0
  -28.6874  -16.8084   19.9276 O   0  0  0  0  0  0  0  0  0  0  0  0
  -21.2384   -7.5604   22.1228 O   0  0  0  0  0  0  0  0  0  0  0  0
  -29.0933  -27.3296   20.1499 O   0  0  0  0  0  0  0  0  0  1  0  0
  -27.7551  -21.1666   19.6166 O   0  0  0  0  0  0  0  0  0  0  0  0
  -22.2820   -2.5725   24.2291 F   0  0  0  0  0  0  0  0  0  0  0  0
  -22.3564   -7.2878   24.6365 F   0  0  0  0  0  0  0  0  0  0  0  0
  1  2  1  0  0  0  0
  1  5  2  0  0  0  0
  2  6  2  0  0  0  0
  3  8  2  0  0  0  0
  3 17  1  0  0  0  0
  4  9  1  0  0  0  0
  4 17  2  0  0  0  0
  5 19  1  0  0  0  0
  6 21  1  0  0  0  0
  7 10  2  0  0  0  0
  7 20  1  0  0  0  0
  8 26  1  0  0  0  0
  9 26  2  0  0  0  0
 10 27  1  0  0  0  0
 11 12  2  0  0  0  0
 11 28  1  0  0  0  0
 12 30  1  0  0  0  0
 13 22  1  0  0  0  0
 13 25  2  0  0  0  0
 14 22  2  0  0  0  0
 14 29  1  0  0  0  0
 15 23  1  0  0  0  0
 15 27  2  0  0  0  0
 16 30  2  0  0  0  0
 16 31  1  0  0  0  0
 17 32  1  0  0  0  0
 18 32  1  0  0  0  0
 18 33  2  0  0  0  0
 18 34  1  0  0  0  0
 19 21  2  0  0  0  0
 19 39  1  0  0  0  0
 20 23  2  0  0  0  0
 20 40  1  0  0  0  0
 21 53  1  0  0  0  0
 22 51  1  0  0  0  0
 23 41  1  0  0  0  0
 24 25  1  0  0  0  0
 24 29  2  0  0  0  0
 24 52  1  0  0  0  0
 25 58  1  0  0  0  0
 26 84  1  0  0  0  0
 27 85  1  0  0  0  0
 28 31  2  0  0  0  0
 28 84  1  0  0  0  0
 29 86  1  0  0  0  0
 30 87  1  0  0  0  0
 31 88  1  0  0  0  0
 32 69  2  0  0  0  0
 33 70  1  0  0  0  0
 33 74  1  0  0  0  0
 34 75  1  0  0  0  0
 34 79  2  0  0  0  0
 35 54  1  0  0  0  0
 35 76  1  0  0  0  0
 35 80  2  0  0  0  0
 36 66  1  0  0  0  0
 36 71  1  0  0  0  0
 36 81  2  0  0  0  0
 37 67  1  0  0  0  0
 37 77  1  0  0  0  0
 37 82  2  0  0  0  0
 38 72  1  0  0  0  0
 38 73  1  0  0  0  0
 38 83  2  0  0  0  0
 39 42  1  0  0  0  0
 40 54  1  0  0  0  0
 41 71  1  0  0  0  0
 42 44  1  0  0  0  0
 43 45  1  0  0  0  0
 43 48  1  0  0  0  0
 44 53  1  0  0  0  0
 45 55  1  0  0  0  0
 46 49  1  0  0  0  0
 46 52  1  0  0  0  0
 47 51  1  0  0  0  0
 47 56  1  0  0  0  0
 48 72  1  0  0  0  0
 49 73  1  0  0  0  0
 50 55  1  0  0  0  0
 50 72  1  0  0  0  0
 51 56  1  0  0  0  0
 52 57  1  0  0  0  0
 53 76  1  0  0  0  0
 54 71  1  0  0  0  0
 55 70  1  0  0  0  0
 56 85  1  0  0  0  0
 57 59  1  0  0  0  0
 57 73  1  0  0  0  0
 60 67  1  0  0  0  0
 61 68  1  0  0  0  0
 62 68  1  0  0  0  0
 63 68  1  0  0  0  0
 64 78  1  0  0  0  0
 65 86  1  0  0  0  0
 66 68  1  0  0  0  0
 66 77  1  0  0  0  0
 67 78  1  0  0  0  0
 69 70  1  0  0  0  0
M  CHG  1  78   1
M  ISO  4  38 100  56 101  73 100  85 101
M  END
> <Batch ID>
0163

> <Smiles>
CNC(C)C(=O)NC(C(=O)N1Cc2cc([101O:1][101CH:1]3CC3c3cc(C)c(C4CC[100N:0]([100C:0](=O)N5CCCC(n6nc(-c7ccc(Oc8ccc(F)cc8F)cc7)c(C(N)=O)c6N)C5)C4C)c(OC)c3)ccc2CC1C(=O)NC1CCCc2ccccc21)C(C)(C)C

> <Shape>
0.260

> <Color>
0.077

> <Negative vol penalty>
0.000

$$$$

  -OEChem-04052322173D

 89 99  0     1  0  0  0  0  0999 V2000
  -22.6795   -6.7806   23.6920 C   0  0  0  0  0  0  0  0  0  0  0  0
  -24.0388   -7.0765   23.6782 C   0  0  0  0  0  0  0  0  0  0  0  0
  -22.5822  -26.9615   20.0917 C   0  0  0  0  0  0  0  0  0  0  0  0
  -22.8813  -28.0702   22.2174 C   0  0  0  0  0  0  0  0  0  0  0  0
  -21.7986   -7.5182   22.9022 C   0  0  0  0  0  0  0  0  0  0  0  0
  -24.5181   -8.1096   22.8736 C   0  0  0  0  0  0  0  0  0  0  0  0
  -29.6124  -13.1428   22.6957 C   0  0  0  0  0  0  0  0  0  0  0  0
  -21.2757  -26.6284   20.4493 C   0  0  0  0  0  0  0  0  0  0  0  0
  -21.5749  -27.7371   22.5749 C   0  0  0  0  0  0  0  0  0  0  0  0
  -30.6286  -13.6179   21.8678 C   0  0  0  0  0  0  0  0  0  0  0  0
  -18.1990  -27.4908   23.9021 C   0  0  0  0  0  0  0  0  0  0  0  0
  -17.4133  -28.4830   24.4882 C   0  0  0  0  0  0  0  0  0  0  0  0
  -29.0034  -14.8764   20.6052 C   0  0  0  0  0  0  0  0  0  0  0  0
  -29.5257  -16.9654   17.5641 C   0  0  0  0  0  0  0  0  0  0  0  0
  -17.6653  -29.8499   22.5120 C   0  0  0  0  0  0  0  0  0  0  0  0
  -23.3850  -27.6823   20.9758 C   0  0  0  0  0  0  0  0  0  0  0  0
  -25.1639  -29.1894   19.9403 C   0  0  0  0  0  0  0  0  0  0  0  0
  -22.2661   -8.5671   22.0948 C   0  0  0  0  0  0  0  0  0  0  0  0
  -28.2804  -13.5229   22.4775 C   0  0  0  0  0  0  0  0  0  0  0  0
  -23.6429   -8.8611   22.0712 C   0  0  0  0  0  0  0  0  0  0  0  0
  -27.9725  -14.4067   21.4333 C   0  0  0  0  0  0  0  0  0  0  0  0
  -29.7286  -19.2627   18.2465 C   0  0  0  0  0  0  0  0  0  0  0  0
  -29.1368  -18.2948   17.4426 C   0  0  0  0  0  0  0  0  0  0  0  0
  -20.7721  -27.0162   21.6909 C   0  0  0  0  0  0  0  0  0  0  0  0
  -30.3238  -14.4826   20.8206 C   0  0  0  0  0  0  0  0  0  0  0  0
  -18.7180  -27.6780   22.6209 C   0  0  0  0  0  0  0  0  0  0  0  0
  -17.1464  -29.6626   23.7932 C   0  0  0  0  0  0  0  0  0  0  0  0
  -18.4510  -28.8576   21.9259 C   0  0  0  0  0  0  0  0  0  0  0  0
  -24.7348  -28.0262   20.6072 C   0  0  0  0  0  0  0  0  0  0  0  0
  -30.5029  -16.6582   18.4971 C   0  0  0  0  0  0  0  0  0  0  0  0
  -30.6966  -18.8526   19.1491 C   0  0  0  0  0  0  0  0  0  0  0  0
  -26.5245  -29.0389   19.8283 C   0  0  0  0  0  0  0  0  0  0  0  0
  -24.4007  -30.3062   19.4648 C   0  0  0  0  0  0  0  0  0  0  0  0
  -25.5977  -11.9802   21.7514 C   0  0  0  0  0  0  0  0  0  0  0  0
  -24.2577  -14.9003   22.1981 C   0  0  0  0  0  0  0  0  0  0  0  0
  -24.6476  -18.2904   22.2454 C   0  0  0  0  0  0  0  0  0  0  0  0
  -30.1587  -24.4339   19.6484 C   0  0  0  0  0  0  0  0  0  0  0  0
  -21.2822   -9.3055   21.2222 C   0  0  0  0  0  0  0  0  0  0  0  0
  -27.1993  -13.0227   23.3959 C   0  0  0  0  0  0  0  0  0  0  0  0
  -26.5610  -14.8611   21.1693 C   0  0  0  0  0  0  0  0  0  0  0  0
  -21.8199  -10.6284   20.6826 C   0  0  0  0  0  0  0  0  0  0  0  0
  -30.2635  -26.9853   21.9782 C   0  0  0  0  0  0  0  0  0  0  0  0
  -23.2305  -10.4461   20.1313 C   0  0  0  0  0  0  0  0  0  0  0  0
  -28.9023  -27.6654   21.8337 C   0  0  0  0  0  0  0  0  0  0  0  0
  -32.5595  -20.3914   22.1304 C   0  0  0  0  0  0  0  0  0  0  0  0
  -31.9521  -19.0313   22.3091 C   0  0  0  0  0  0  0  0  0  0  0  0
  -28.6965  -21.2508   19.4314 C   0  0  0  0  0  0  0  0  0  0  0  0
  -30.4873  -21.6132   17.6788 C   0  0  0  0  0  0  0  0  0  0  0  0
  -30.1273  -25.4692   21.8974 C   0  0  0  0  0  0  0  0  0  0  0  0
  -28.3141  -22.7290   19.3147 C   0  0  0  0  0  0  0  0  0  0  0  0
  -30.0469  -23.0712   17.5846 C   0  0  0  0  0  0  0  0  0  0  0  0
  -28.1038  -25.6600   20.4878 C   0  0  0  0  0  0  0  0  0  0  0  0
  -29.3179  -20.7182   18.1276 C   0  0  0  0  0  0  0  0  0  0  0  0
  -24.1978   -9.9904   21.2304 C   0  0  1  0  0  0  0  0  0  0  0  0
  -25.8110  -13.0686   22.7651 C   0  0  1  0  0  0  0  0  0  0  0  0
  -28.1838  -27.1987   20.5553 C   0  0  1  0  0  0  0  0  0  0  0  0
  -32.3096  -19.5181   20.9326 C   0  0  0  0  0  0  0  0  0  0  0  0
  -28.0861  -18.6560   16.4450 C   0  0  0  0  0  0  0  0  0  0  0  0
  -32.1346  -14.8880   17.7575 C   0  0  0  0  0  0  0  0  0  0  0  0
  -23.3633  -20.4162   22.6049 C   0  0  0  0  0  0  0  0  0  0  0  0
  -23.0156  -14.6159   19.4257 C   0  0  0  0  0  0  0  0  0  0  0  0
  -22.5644  -17.0785   19.4516 C   0  0  0  0  0  0  0  0  0  0  0  0
  -21.4975  -15.5988   21.1531 C   0  0  0  0  0  0  0  0  0  0  0  0
  -26.3299  -19.0521   24.5580 C   0  0  0  0  0  0  0  0  0  0  0  0
  -30.9456  -15.2418   18.6543 C   0  0  1  0  0  0  0  0  0  1  0  0
  -23.9719  -16.0917   21.3161 C   0  0  1  0  0  0  0  0  0  0  0  0
  -24.2185  -19.3397   23.2550 C   0  0  2  0  0  0  0  0  0  0  0  0
  -22.7888  -15.8363   20.3401 C   0  0  0  0  0  0  0  0  0  0  0  0
  -25.7413  -27.1978   20.8982 N   0  0  0  0  0  0  0  0  0  0  0  0
  -31.1005  -17.5708   19.2955 N   0  0  0  0  0  0  0  0  0  0  0  0
  -26.8163  -27.8412   20.4118 N   0  0  0  0  0  0  0  0  0  0  0  0
  -25.5382  -14.3395   22.0909 N   0  0  0  0  0  0  0  0  0  0  0  0
  -29.4373  -25.0666   20.6720 N   0  0  0  0  0  0  0  0  0  0  0  0
  -29.4559  -23.5250   18.8433 N   0  0  0  0  0  0  0  0  0  0  0  0
  -27.4877  -29.8155   19.2885 N   0  0  0  0  0  0  0  0  0  0  0  0
  -23.0132  -30.3000   19.6625 N   0  0  0  0  0  0  0  0  0  0  0  0
  -31.3037  -19.8341   19.9719 N   0  0  0  0  0  0  0  0  0  0  0  0
  -24.5734  -11.1087   22.0687 N   0  0  0  0  0  0  0  0  0  0  0  0
  -23.7727  -17.2251   22.2129 N   0  0  0  0  0  0  0  0  0  0  0  0
  -25.4124  -19.9917   23.8636 N   0  3  0  0  0  0  0  0  0  0  0  0
  -24.9314  -31.2730   18.8672 O   0  0  0  0  0  0  0  0  0  0  0  0
  -26.3088  -11.9354   20.7544 O   0  0  0  0  0  0  0  0  0  0  0  0
  -23.3795  -14.4871   22.9595 O   0  0  0  0  0  0  0  0  0  0  0  0
  -25.6558  -18.4061   21.5521 O   0  0  0  0  0  0  0  0  0  0  0  0
  -31.3597  -24.6675   19.4636 O   0  0  0  0  0  0  0  0  0  0  0  0
  -19.4972  -26.6916   22.0400 O   0  0  0  0  0  0  0  0  0  0  0  0
  -31.3167  -14.9487   20.0083 O   0  0  0  0  0  0  0  0  0  1  0  0
  -16.3906  -30.6148   24.3556 F   0  0  0  0  0  0  0  0  0  0  0  0
  -18.9458  -29.0427   20.6943 F   0  0  0  0  0  0  0  0  0  0  0  0
  1  2  1  0  0  0  0
  1  5  2  0  0  0  0
  2  6  2  0  0  0  0
  3  8  2  0  0  0  0
  3 16  1  0  0  0  0
  4  9  1  0  0  0  0
  4 16  2  0  0  0  0
  5 18  1  0  0  0  0
  6 20  1  0  0  0  0
  7 10  2  0  0  0  0
  7 19  1  0  0  0  0
  8 24  1  0  0  0  0
  9 24  2  0  0  0  0
 10 25  1  0  0  0  0
 11 12  2  0  0  0  0
 11 26  1  0  0  0  0
 12 27  1  0  0  0  0
 13 21  1  0  0  0  0
 13 25  2  0  0  0  0
 14 23  2  0  0  0  0
 14 30  1  0  0  0  0
 15 27  2  0  0  0  0
 15 28  1  0  0  0  0
 16 29  1  0  0  0  0
 17 29  1  0  0  0  0
 17 32  2  0  0  0  0
 17 33  1  0  0  0  0
 18 20  2  0  0  0  0
 18 38  1  0  0  0  0
 19 21  2  0  0  0  0
 19 39  1  0  0  0  0
 20 54  1  0  0  0  0
 21 40  1  0  0  0  0
 22 23  1  0  0  0  0
 22 31  2  0  0  0  0
 22 53  1  0  0  0  0
 23 58  1  0  0  0  0
 24 86  1  0  0  0  0
 25 87  1  0  0  0  0
 26 28  2  0  0  0  0
 26 86  1  0  0  0  0
 27 88  1  0  0  0  0
 28 89  1  0  0  0  0
 29 69  2  0  0  0  0
 30 65  1  0  0  0  0
 30 70  2  0  0  0  0
 31 70  1  0  0  0  0
 31 77  1  0  0  0  0
 32 71  1  0  0  0  0
 32 75  1  0  0  0  0
 33 76  1  0  0  0  0
 33 81  2  0  0  0  0
 34 55  1  0  0  0  0
 34 78  1  0  0  0  0
 34 82  2  0  0  0  0
 35 66  1  0  0  0  0
 35 72  1  0  0  0  0
 35 83  2  0  0  0  0
 36 67  1  0  0  0  0
 36 79  1  0  0  0  0
 36 84  2  0  0  0  0
 37 73  1  0  0  0  0
 37 74  1  0  0  0  0
 37 85  2  0  0  0  0
 38 41  1  0  0  0  0
 39 55  1  0  0  0  0
 40 72  1  0  0  0  0
 41 43  1  0  0  0  0
 42 44  1  0  0  0  0
 42 49  1  0  0  0  0
 43 54  1  0  0  0  0
 44 56  1  0  0  0  0
 45 46  1  0  0  0  0
 45 57  1  0  0  0  0
 46 57  1  0  0  0  0
 47 50  1  0  0  0  0
 47 53  1  0  0  0  0
 48 51  1  0  0  0  0
 48 53  1  0  0  0  0
 49 73  1  0  0  0  0
 50 74  1  0  0  0  0
 51 74  1  0  0  0  0
 52 56  1  0  0  0  0
 52 73  1  0  0  0  0
 54 78  1  0  0  0  0
 55 72  1  0  0  0  0
 56 71  1  0  0  0  0
 57 77  1  0  0  0  0
 59 65  1  0  0  0  0
 60 67  1  0  0  0  0
 61 68  1  0  0  0  0
 62 68  1  0  0  0  0
 63 68  1  0  0  0  0
 64 80  1  0  0  0  0
 65 87  1  0  0  0  0
 66 68  1  0  0  0  0
 66 79  1  0  0  0  0
 67 80  1  0  0  0  0
 69 71  1  0  0  0  0
M  CHG  1  80   1
M  ISO  4  37 100  65 101  74 100  87 101
M  END
> <Batch ID>
0163

> <Smiles>
CNC(C)C(=O)NC(C(=O)N1Cc2cc([101O:1][101CH:1](C)c3cc(C)c(C4CC[100N:0]([100C:0](=O)N5CCCC(n6nc(-c7ccc(Oc8ccc(F)cc8F)cc7)c(C(N)=O)c6N)C5)CC4)c(NC4CC4)n3)ccc2CC1C(=O)NC1CCCc2ccccc21)C(C)(C)C

> <Shape>
0.278

> <Color>
0.088

> <Negative vol penalty>
0.000

$$$$

  -OEChem-04052322173D

 86 96  0     1  0  0  0  0  0999 V2000
  -28.9553  -37.4529   21.1401 C   0  0  0  0  0  0  0  0  0  0  0  0
  -29.2733  -36.1472   20.7804 C   0  0  0  0  0  0  0  0  0  0  0  0
  -24.5562   -9.0943   21.9063 C   0  0  0  0  0  0  0  0  0  0  0  0
  -22.9776  -10.7705   22.6379 C   0  0  0  0  0  0  0  0  0  0  0  0
  -28.0302  -37.6893   22.1561 C   0  0  0  0  0  0  0  0  0  0  0  0
  -28.6672  -35.0770   21.4374 C   0  0  0  0  0  0  0  0  0  0  0  0
  -27.0912  -29.6810   19.0073 C   0  0  0  0  0  0  0  0  0  0  0  0
  -23.9711   -8.1669   22.7683 C   0  0  0  0  0  0  0  0  0  0  0  0
  -22.3923   -9.8431   23.4999 C   0  0  0  0  0  0  0  0  0  0  0  0
  -27.7144  -28.4338   19.0086 C   0  0  0  0  0  0  0  0  0  0  0  0
  -21.2205   -6.2010   22.8166 C   0  0  0  0  0  0  0  0  0  0  0  0
  -20.9669   -4.9231   22.3185 C   0  0  0  0  0  0  0  0  0  0  0  0
  -26.3690  -27.7704   20.8978 C   0  0  0  0  0  0  0  0  0  0  0  0
  -22.4075   -3.9773   24.0118 C   0  0  0  0  0  0  0  0  0  0  0  0
  -24.0595  -10.3962   21.8411 C   0  0  0  0  0  0  0  0  0  0  0  0
  -24.3138  -11.6100   19.6119 C   0  0  0  0  0  0  0  0  0  0  0  0
  -27.4053  -36.6215   22.8193 C   0  0  0  0  0  0  0  0  0  0  0  0
  -26.1083  -29.9866   19.9596 C   0  0  0  0  0  0  0  0  0  0  0  0
  -27.7339  -35.2992   22.4642 C   0  0  0  0  0  0  0  0  0  0  0  0
  -25.7331  -29.0212   20.9048 C   0  0  0  0  0  0  0  0  0  0  0  0
  -22.8891   -8.5413   23.5651 C   0  0  0  0  0  0  0  0  0  0  0  0
  -27.3553  -27.4793   19.9557 C   0  0  0  0  0  0  0  0  0  0  0  0
  -22.0676   -6.3671   23.9123 C   0  0  0  0  0  0  0  0  0  0  0  0
  -21.5604   -3.8112   22.9161 C   0  0  0  0  0  0  0  0  0  0  0  0
  -22.6611   -5.2553   24.5099 C   0  0  0  0  0  0  0  0  0  0  0  0
  -24.6639  -11.3548   20.9513 C   0  0  0  0  0  0  0  0  0  0  0  0
  -25.1788  -12.5997   19.2135 C   0  0  0  0  0  0  0  0  0  0  0  0
  -23.2975  -11.0064   18.8004 C   0  0  0  0  0  0  0  0  0  0  0  0
  -25.8265  -32.1399   22.2807 C   0  0  0  0  0  0  0  0  0  0  0  0
  -22.8306  -30.9191   22.5178 C   0  0  0  0  0  0  0  0  0  0  0  0
  -20.7236  -28.2880   21.9845 C   0  0  0  0  0  0  0  0  0  0  0  0
  -28.0959  -16.7001   22.4356 C   0  0  0  0  0  0  0  0  0  0  0  0
  -26.4471  -36.9261   23.9435 C   0  0  0  0  0  0  0  0  0  0  0  0
  -25.4267  -31.3270   19.9280 C   0  0  0  0  0  0  0  0  0  0  0  0
  -24.6692  -29.2925   21.9359 C   0  0  0  0  0  0  0  0  0  0  0  0
  -25.5701  -35.7395   24.3348 C   0  0  0  0  0  0  0  0  0  0  0  0
  -29.5618  -14.3142   20.0685 C   0  0  0  0  0  0  0  0  0  0  0  0
  -26.4121  -34.4747   24.4689 C   0  0  0  0  0  0  0  0  0  0  0  0
  -28.4306  -13.2949   19.9239 C   0  0  0  0  0  0  0  0  0  0  0  0
  -33.9978  -20.6607   22.7563 C   0  0  0  0  0  0  0  0  0  0  0  0
  -34.0768  -20.1132   21.3594 C   0  0  0  0  0  0  0  0  0  0  0  0
  -30.2918  -21.6833   18.9065 C   0  0  0  0  0  0  0  0  0  0  0  0
  -31.1161  -20.6023   19.6235 C   0  0  0  0  0  0  0  0  0  0  0  0
  -30.0194  -21.9220   21.3113 C   0  0  0  0  0  0  0  0  0  0  0  0
  -29.6092  -14.8791   21.4831 C   0  0  0  0  0  0  0  0  0  0  0  0
  -28.9107  -19.1179   22.5253 C   0  0  0  0  0  0  0  0  0  0  0  0
  -29.8486  -17.9929   20.9827 C   0  0  0  0  0  0  0  0  0  0  0  0
  -27.1996  -14.4870   21.8005 C   0  0  0  0  0  0  0  0  0  0  0  0
  -27.0791  -34.1121   23.1366 C   0  0  1  0  0  0  0  0  0  0  0  0
  -24.8039  -31.7124   21.2663 C   0  0  1  0  0  0  0  0  0  0  0  0
  -29.4223  -19.4671   21.1172 C   0  0  0  0  0  0  0  0  0  0  0  0
  -27.0860  -13.8842   20.3881 C   0  0  2  0  0  0  0  0  0  0  0  0
  -32.8738  -20.9029   21.7899 C   0  0  0  0  0  0  0  0  0  0  0  0
  -29.3952  -22.3053   19.9753 C   0  0  1  0  0  0  0  0  0  0  0  0
  -30.5262  -20.5022   21.0371 C   0  0  1  0  0  0  0  0  0  0  0  0
  -18.3413  -27.5732   22.3174 C   0  0  0  0  0  0  0  0  0  0  0  0
  -23.3806  -30.4772   25.4864 C   0  0  0  0  0  0  0  0  0  0  0  0
  -21.4071  -28.9380   25.5515 C   0  0  0  0  0  0  0  0  0  0  0  0
  -21.0924  -31.3425   24.9669 C   0  0  0  0  0  0  0  0  0  0  0  0
  -20.2979  -27.9462   19.0757 C   0  0  0  0  0  0  0  0  0  0  0  0
  -28.4252  -24.2421   18.7316 C   0  0  0  0  0  0  0  0  0  0  0  0
  -28.4189  -25.7578   18.7062 C   0  0  0  0  0  0  0  0  0  1  0  0
  -22.1929  -29.7949   23.2978 C   0  0  1  0  0  0  0  0  0  0  0  0
  -19.3390  -28.2155   21.3663 C   0  0  2  0  0  0  0  0  0  0  0  0
  -22.0397  -30.1334   24.8076 C   0  0  0  0  0  0  0  0  0  0  0  0
  -25.6728  -12.1206   21.3754 N   0  0  0  0  0  0  0  0  0  0  0  0
  -25.9640  -12.8666   20.2962 N   0  0  0  0  0  0  0  0  0  0  0  0
  -24.0364  -30.6200   21.8680 N   0  0  0  0  0  0  0  0  0  0  0  0
  -28.3105  -15.4424   21.8651 N   0  0  0  0  0  0  0  0  0  0  0  0
  -28.9485  -17.7233   22.0937 N   0  0  0  0  0  0  0  0  0  0  0  0
  -25.3367  -13.2591   18.0461 N   0  0  0  0  0  0  0  0  0  0  0  0
  -22.4976  -10.0047   19.3668 N   0  0  0  0  0  0  0  0  0  0  0  0
  -26.1235  -33.4890   22.2460 N   0  0  0  0  0  0  0  0  0  0  0  0
  -20.9356  -29.4916   22.6228 N   0  0  0  0  0  0  0  0  0  0  0  0
  -31.6037  -20.1631   22.0078 N   0  3  0  0  0  0  0  0  0  0  0  0
  -29.3235  -23.7717   19.8256 N   0  3  0  0  0  0  0  0  0  0  0  0
  -19.3738  -27.4143   20.1102 N   0  3  0  0  0  0  0  0  0  0  0  0
  -23.1154  -11.3338   17.6032 O   0  0  0  0  0  0  0  0  0  0  0  0
  -26.3093  -31.3077   23.0397 O   0  0  0  0  0  0  0  0  0  0  0  0
  -22.2755  -32.0201   22.4805 O   0  0  0  0  0  0  0  0  0  0  0  0
  -21.5346  -27.3673   21.9117 O   0  0  0  0  0  0  0  0  0  0  0  0
  -27.1500  -16.9146   23.2052 O   0  0  0  0  0  0  0  0  0  0  0  0
  -22.3177   -7.6365   24.4061 O   0  0  0  0  0  0  0  0  0  0  0  0
  -27.9668  -26.2527   19.9597 O   0  0  0  0  0  0  0  0  0  1  0  0
  -21.3157   -2.5839   22.4386 F   0  0  0  0  0  0  0  0  0  0  0  0
  -23.4749   -5.4085   25.5635 F   0  0  0  0  0  0  0  0  0  0  0  0
  1  2  1  0  0  0  0
  1  5  2  0  0  0  0
  2  6  2  0  0  0  0
  3  8  2  0  0  0  0
  3 15  1  0  0  0  0
  4  9  1  0  0  0  0
  4 15  2  0  0  0  0
  5 17  1  0  0  0  0
  6 19  1  0  0  0  0
  7 10  2  0  0  0  0
  7 18  1  0  0  0  0
  8 21  1  0  0  0  0
  9 21  2  0  0  0  0
 10 22  1  0  0  0  0
 11 12  2  0  0  0  0
 11 23  1  0  0  0  0
 12 24  1  0  0  0  0
 13 20  1  0  0  0  0
 13 22  2  0  0  0  0
 14 24  2  0  0  0  0
 14 25  1  0  0  0  0
 15 26  1  0  0  0  0
 16 26  1  0  0  0  0
 16 27  2  0  0  0  0
 16 28  1  0  0  0  0
 17 19  2  0  0  0  0
 17 33  1  0  0  0  0
 18 20  2  0  0  0  0
 18 34  1  0  0  0  0
 19 49  1  0  0  0  0
 20 35  1  0  0  0  0
 21 83  1  0  0  0  0
 22 84  1  0  0  0  0
 23 25  2  0  0  0  0
 23 83  1  0  0  0  0
 24 85  1  0  0  0  0
 25 86  1  0  0  0  0
 26 66  2  0  0  0  0
 27 67  1  0  0  0  0
 27 71  1  0  0  0  0
 28 72  1  0  0  0  0
 28 78  2  0  0  0  0
 29 50  1  0  0  0  0
 29 73  1  0  0  0  0
 29 79  2  0  0  0  0
 30 63  1  0  0  0  0
 30 68  1  0  0  0  0
 30 80  2  0  0  0  0
 31 64  1  0  0  0  0
 31 74  1  0  0  0  0
 31 81  2  0  0  0  0
 32 69  1  0  0  0  0
 32 70  1  0  0  0  0
 32 82  2  0  0  0  0
 33 36  1  0  0  0  0
 34 50  1  0  0  0  0
 35 68  1  0  0  0  0
 36 38  1  0  0  0  0
 37 39  1  0  0  0  0
 37 45  1  0  0  0  0
 38 49  1  0  0  0  0
 39 52  1  0  0  0  0
 40 41  1  0  0  0  0
 40 53  1  0  0  0  0
 41 53  1  0  0  0  0
 42 43  1  0  0  0  0
 42 54  1  0  0  0  0
 43 55  1  0  0  0  0
 44 54  1  0  0  0  0
 44 55  1  0  0  0  0
 45 69  1  0  0  0  0
 46 51  1  0  0  0  0
 46 70  1  0  0  0  0
 47 51  1  0  0  0  0
 47 70  1  0  0  0  0
 48 52  1  0  0  0  0
 48 69  1  0  0  0  0
 49 73  1  0  0  0  0
 50 68  1  0  0  0  0
 51 55  1  0  0  0  0
 52 67  1  0  0  0  0
 53 75  1  0  0  0  0
 54 76  1  0  0  0  0
 55 75  1  0  0  0  0
 56 64  1  0  0  0  0
 57 65  1  0  0  0  0
 58 65  1  0  0  0  0
 59 65  1  0  0  0  0
 60 77  1  0  0  0  0
 61 62  1  0  0  0  0
 61 76  1  0  0  0  0
 62 84  1  0  0  0  0
 63 65  1  0  0  0  0
 63 74  1  0  0  0  0
 64 77  1  0  0  0  0
 66 67  1  0  0  0  0
M  CHG  3  75   1  76   1  77   1
M  ISO  4  32 100  62 101  70 100  84 101
M  END
> <Batch ID>
0163

> <Smiles>
CNC(C)C(=O)NC(C(=O)N1Cc2cc([101O:1][101CH2:1]CNC3CCC(NC4CC4)(C4C[100N:0]([100C:0](=O)N5CCCC(n6nc(-c7ccc(Oc8ccc(F)cc8F)cc7)c(C(N)=O)c6N)C5)C4)C3)ccc2CC1C(=O)NC1CCCc2ccccc21)C(C)(C)C

> <Shape>
0.318

> <Color>
0.091

> <Negative vol penalty>
0.000

$$$$

  -OEChem-04052322173D

 89 98  0     1  0  0  0  0  0999 V2000
  -12.2236  -25.8726   19.0942 C   0  0  0  0  0  0  0  0  0  0  0  0
  -12.9445  -24.8062   19.6220 C   0  0  0  0  0  0  0  0  0  0  0  0
  -23.1544   -9.9073   19.8527 C   0  0  0  0  0  0  0  0  0  0  0  0
  -23.9415   -9.7545   22.1318 C   0  0  0  0  0  0  0  0  0  0  0  0
  -12.8907  -26.9087   18.4421 C   0  0  0  0  0  0  0  0  0  0  0  0
  -14.3329  -24.7747   19.4968 C   0  0  0  0  0  0  0  0  0  0  0  0
  -20.2017  -22.5625   22.9582 C   0  0  0  0  0  0  0  0  0  0  0  0
  -22.4548   -8.7115   20.0141 C   0  0  0  0  0  0  0  0  0  0  0  0
  -23.2418   -8.5587   22.2933 C   0  0  0  0  0  0  0  0  0  0  0  0
  -21.3499  -21.7991   22.7524 C   0  0  0  0  0  0  0  0  0  0  0  0
  -20.0514   -7.5981   22.8582 C   0  0  0  0  0  0  0  0  0  0  0  0
  -19.3107   -7.4354   24.0288 C   0  0  0  0  0  0  0  0  0  0  0  0
  -22.4024  -23.6834   21.6750 C   0  0  0  0  0  0  0  0  0  0  0  0
  -20.6285   -5.4904   24.5923 C   0  0  0  0  0  0  0  0  0  0  0  0
  -23.8978  -10.4288   20.9116 C   0  0  0  0  0  0  0  0  0  0  0  0
  -24.1489  -12.9661   20.9959 C   0  0  0  0  0  0  0  0  0  0  0  0
  -14.2889  -26.8947   18.3173 C   0  0  0  0  0  0  0  0  0  0  0  0
  -20.1411  -23.8911   22.5134 C   0  0  0  0  0  0  0  0  0  0  0  0
  -15.0193  -25.8110   18.8412 C   0  0  0  0  0  0  0  0  0  0  0  0
  -21.2532  -24.4624   21.8786 C   0  0  0  0  0  0  0  0  0  0  0  0
  -25.2200  -19.2185   20.8238 C   0  0  0  0  0  0  0  0  0  0  0  0
  -24.8717  -19.6245   22.1072 C   0  0  0  0  0  0  0  0  0  0  0  0
  -26.4551  -18.6197   20.6012 C   0  0  0  0  0  0  0  0  0  0  0  0
  -22.4984   -8.0372   21.2344 C   0  0  0  0  0  0  0  0  0  0  0  0
  -22.4495  -22.3586   22.1081 C   0  0  0  0  0  0  0  0  0  0  0  0
  -21.0807   -6.7070   22.5545 C   0  0  0  0  0  0  0  0  0  0  0  0
  -19.5992   -6.3816   24.8959 C   0  0  0  0  0  0  0  0  0  0  0  0
  -21.3692   -5.6532   23.4216 C   0  0  0  0  0  0  0  0  0  0  0  0
  -24.6212  -11.6638   20.7453 C   0  0  0  0  0  0  0  0  0  0  0  0
  -25.7865  -19.4109   23.1257 C   0  0  0  0  0  0  0  0  0  0  0  0
  -27.2991  -18.4512   21.6871 C   0  0  0  0  0  0  0  0  0  0  0  0
  -25.2094  -13.7817   20.6853 C   0  0  0  0  0  0  0  0  0  0  0  0
  -22.8662  -13.3997   21.4675 C   0  0  0  0  0  0  0  0  0  0  0  0
  -18.3365  -25.4807   20.4349 C   0  0  0  0  0  0  0  0  0  0  0  0
  -19.9499  -28.0466   21.5902 C   0  0  0  0  0  0  0  0  0  0  0  0
  -22.7455  -29.2596   23.1266 C   0  0  0  0  0  0  0  0  0  0  0  0
  -30.5367  -15.0617   20.7494 C   0  0  0  0  0  0  0  0  0  0  0  0
  -14.9616  -28.0138   17.5625 C   0  0  0  0  0  0  0  0  0  0  0  0
  -18.9048  -24.7095   22.7669 C   0  0  0  0  0  0  0  0  0  0  0  0
  -21.2462  -25.8905   21.4002 C   0  0  0  0  0  0  0  0  0  0  0  0
  -16.4674  -28.0903   17.8008 C   0  0  0  0  0  0  0  0  0  0  0  0
  -29.5678  -12.7846   18.3372 C   0  0  0  0  0  0  0  0  0  0  0  0
  -17.0968  -26.7053   17.6880 C   0  0  0  0  0  0  0  0  0  0  0  0
  -28.1533  -12.3873   18.7573 C   0  0  0  0  0  0  0  0  0  0  0  0
  -30.4843  -12.8975   19.5497 C   0  0  0  0  0  0  0  0  0  0  0  0
  -30.3838  -14.8116   23.2732 C   0  0  0  0  0  0  0  0  0  0  0  0
  -28.5796  -13.4734   21.0189 C   0  0  0  0  0  0  0  0  0  0  0  0
  -31.5128  -15.1845   24.2262 C   0  0  0  0  0  0  0  0  0  0  0  0
  -31.7729  -17.3088   23.2492 C   0  0  0  0  0  0  0  0  0  0  0  0
  -16.5286  -25.7532   18.7473 C   0  0  1  0  0  0  0  0  0  0  0  0
  -18.7661  -25.8931   21.8144 C   0  0  1  0  0  0  0  0  0  0  0  0
  -27.6064  -13.3466   19.8290 C   0  0  2  0  0  0  0  0  0  0  0  0
  -30.6582  -17.0577   22.2315 C   0  0  2  0  0  0  0  0  0  0  0  0
  -24.2706  -19.4249   19.6869 C   0  0  0  0  0  0  0  0  0  0  0  0
  -26.8625  -18.1715   19.2382 C   0  0  0  0  0  0  0  0  0  0  0  0
  -26.6972  -19.8023   25.4287 C   0  0  0  0  0  0  0  0  0  0  0  0
  -23.7939  -31.4037   23.9018 C   0  0  0  0  0  0  0  0  0  0  0  0
  -20.6718  -28.7336   18.7063 C   0  0  0  0  0  0  0  0  0  0  0  0
  -22.4473  -30.2625   19.5884 C   0  0  0  0  0  0  0  0  0  0  0  0
  -20.0501  -30.6989   20.1226 C   0  0  0  0  0  0  0  0  0  0  0  0
  -22.7864  -28.3560   25.9445 C   0  0  0  0  0  0  0  0  0  0  0  0
  -23.5539  -20.2697   22.3781 C   0  0  0  0  0  0  0  0  0  1  0  0
  -25.4683  -19.8254   24.5250 C   0  0  0  0  0  0  0  0  0  0  0  0
  -29.3443  -17.7199   22.6557 C   0  0  0  0  0  0  0  0  0  0  0  0
  -21.2321  -28.7557   21.2265 C   0  0  1  0  0  0  0  0  0  0  0  0
  -22.9195  -30.2211   24.2884 C   0  0  2  0  0  0  0  0  0  0  0  0
  -21.1001  -29.5851   19.9181 C   0  0  0  0  0  0  0  0  0  0  0  0
  -25.8835  -11.6482   20.3088 N   0  0  0  0  0  0  0  0  0  0  0  0
  -26.9955  -18.8326   22.9481 N   0  0  0  0  0  0  0  0  0  0  0  0
  -26.2133  -12.9508   20.2828 N   0  0  0  0  0  0  0  0  0  0  0  0
  -20.0120  -26.6480   21.6657 N   0  0  0  0  0  0  0  0  0  0  0  0
  -29.9308  -13.8127   20.5478 N   0  0  0  0  0  0  0  0  0  0  0  0
  -30.4596  -15.6098   22.0397 N   0  0  0  0  0  0  0  0  0  0  0  0
  -25.3718  -15.1214   20.7198 N   0  0  0  0  0  0  0  0  0  0  0  0
  -21.8912  -12.4300   21.7384 N   0  0  0  0  0  0  0  0  0  0  0  0
  -17.1269  -26.0182   20.0381 N   0  0  0  0  0  0  0  0  0  0  0  0
  -21.6102  -29.5411   22.3964 N   0  0  0  0  0  0  0  0  0  0  0  0
  -23.5527  -29.5266   25.4450 N   0  3  0  0  0  0  0  0  0  0  0  0
  -22.5874  -14.6122   21.6278 O   0  0  0  0  0  0  0  0  0  0  0  0
  -19.0503  -24.7314   19.7785 O   0  0  0  0  0  0  0  0  0  0  0  0
  -18.9326  -28.7098   21.8066 O   0  0  0  0  0  0  0  0  0  0  0  0
  -23.5394  -28.3522   22.8882 O   0  0  0  0  0  0  0  0  0  0  0  0
  -31.1210  -15.6476   19.8294 O   0  0  0  0  0  0  0  0  0  0  0  0
  -31.5310  -16.5921   24.4603 O   0  0  0  0  0  0  0  0  0  0  0  0
  -21.8157   -6.8704   21.3923 O   0  0  0  0  0  0  0  0  0  0  0  0
  -23.5791  -21.6102   21.9040 O   0  0  0  0  0  0  0  0  0  1  0  0
  -28.5284  -17.8640   21.5097 O   0  0  0  0  0  0  0  0  0  0  0  0
  -18.8888   -6.2263   26.0208 F   0  0  0  0  0  0  0  0  0  0  0  0
  -22.3576   -4.7946   23.1359 F   0  0  0  0  0  0  0  0  0  0  0  0
  1  2  1  0  0  0  0
  1  5  2  0  0  0  0
  2  6  2  0  0  0  0
  3  8  2  0  0  0  0
  3 15  1  0  0  0  0
  4  9  1  0  0  0  0
  4 15  2  0  0  0  0
  5 17  1  0  0  0  0
  6 19  1  0  0  0  0
  7 10  2  0  0  0  0
  7 18  1  0  0  0  0
  8 24  1  0  0  0  0
  9 24  2  0  0  0  0
 10 25  1  0  0  0  0
 11 12  2  0  0  0  0
 11 26  1  0  0  0  0
 12 27  1  0  0  0  0
 13 20  1  0  0  0  0
 13 25  2  0  0  0  0
 14 27  2  0  0  0  0
 14 28  1  0  0  0  0
 15 29  1  0  0  0  0
 16 29  1  0  0  0  0
 16 32  2  0  0  0  0
 16 33  1  0  0  0  0
 17 19  2  0  0  0  0
 17 38  1  0  0  0  0
 18 20  2  0  0  0  0
 18 39  1  0  0  0  0
 19 50  1  0  0  0  0
 20 40  1  0  0  0  0
 21 22  1  0  0  0  0
 21 23  2  0  0  0  0
 21 54  1  0  0  0  0
 22 30  2  0  0  0  0
 22 62  1  0  0  0  0
 23 31  1  0  0  0  0
 23 55  1  0  0  0  0
 24 85  1  0  0  0  0
 25 86  1  0  0  0  0
 26 28  2  0  0  0  0
 26 85  1  0  0  0  0
 27 88  1  0  0  0  0
 28 89  1  0  0  0  0
 29 68  2  0  0  0  0
 30 63  1  0  0  0  0
 30 69  1  0  0  0  0
 31 69  2  0  0  0  0
 31 87  1  0  0  0  0
 32 70  1  0  0  0  0
 32 74  1  0  0  0  0
 33 75  1  0  0  0  0
 33 79  2  0  0  0  0
 34 51  1  0  0  0  0
 34 76  1  0  0  0  0
 34 80  2  0  0  0  0
 35 65  1  0  0  0  0
 35 71  1  0  0  0  0
 35 81  2  0  0  0  0
 36 66  1  0  0  0  0
 36 77  1  0  0  0  0
 36 82  2  0  0  0  0
 37 72  1  0  0  0  0
 37 73  1  0  0  0  0
 37 83  2  0  0  0  0
 38 41  1  0  0  0  0
 39 51  1  0  0  0  0
 40 71  1  0  0  0  0
 41 43  1  0  0  0  0
 42 44  1  0  0  0  0
 42 45  1  0  0  0  0
 43 50  1  0  0  0  0
 44 52  1  0  0  0  0
 45 72  1  0  0  0  0
 46 48  1  0  0  0  0
 46 73  1  0  0  0  0
 47 52  1  0  0  0  0
 47 72  1  0  0  0  0
 48 84  1  0  0  0  0
 49 53  1  0  0  0  0
 49 84  1  0  0  0  0
 50 76  1  0  0  0  0
 51 71  1  0  0  0  0
 52 70  1  0  0  0  0
 53 64  1  0  0  0  0
 53 73  1  0  0  0  0
 56 63  1  0  0  0  0
 57 66  1  0  0  0  0
 58 67  1  0  0  0  0
 59 67  1  0  0  0  0
 60 67  1  0  0  0  0
 61 78  1  0  0  0  0
 62 86  1  0  0  0  0
 64 87  1  0  0  0  0
 65 67  1  0  0  0  0
 65 77  1  0  0  0  0
 66 78  1  0  0  0  0
 68 70  1  0  0  0  0
M  CHG  1  78   1
M  ISO  4  37 100  62 101  73 100  86 101
M  END
> <Batch ID>
0163

> <Smiles>
CCc1nc(OCC2COCC[100N:0]2[100C:0](=O)N2CCCC(n3nc(-c4ccc(Oc5ccc(F)cc5F)cc4)c(C(N)=O)c3N)C2)c(C)c(C)c1[101CH2:1][101O:1]c1ccc2c(c1)CN(C(=O)C(NC(=O)C(C)NC)C(C)(C)C)C(C(=O)NC1CCCc3ccccc31)C2

> <Shape>
0.253

> <Color>
0.198

> <Negative vol penalty>
0.000

$$$$

  -OEChem-04052322173D

 90100  0     1  0  0  0  0  0999 V2000
  -21.4811  -29.2291   13.9573 C   0  0  0  0  0  0  0  0  0  0  0  0
  -22.6850  -28.9157   14.5800 C   0  0  0  0  0  0  0  0  0  0  0  0
  -24.1118   -9.3886   21.6871 C   0  0  0  0  0  0  0  0  0  0  0  0
  -22.9489   -9.2653   19.5730 C   0  0  0  0  0  0  0  0  0  0  0  0
  -20.8635  -30.4528   14.2125 C   0  0  0  0  0  0  0  0  0  0  0  0
  -23.2726  -29.8262   15.4575 C   0  0  0  0  0  0  0  0  0  0  0  0
  -24.9556  -27.6287   19.6981 C   0  0  0  0  0  0  0  0  0  0  0  0
  -23.1635   -8.5401   22.2583 C   0  0  0  0  0  0  0  0  0  0  0  0
  -22.0006   -8.4167   20.1442 C   0  0  0  0  0  0  0  0  0  0  0  0
  -26.1628  -26.9357   19.6203 C   0  0  0  0  0  0  0  0  0  0  0  0
  -22.4948   -5.2260   22.3075 C   0  0  0  0  0  0  0  0  0  0  0  0
  -22.9577   -4.1833   23.1100 C   0  0  0  0  0  0  0  0  0  0  0  0
  -27.3044  -28.8278   20.5877 C   0  0  0  0  0  0  0  0  0  0  0  0
  -29.1490  -21.1436   19.8054 C   0  0  0  0  0  0  0  0  0  0  0  0
  -21.7147   -5.0718   24.9815 C   0  0  0  0  0  0  0  0  0  0  0  0
  -24.0045   -9.7513   20.3444 C   0  0  0  0  0  0  0  0  0  0  0  0
  -26.1822  -10.2572   19.1160 C   0  0  0  0  0  0  0  0  0  0  0  0
  -21.4389  -31.3748   15.1010 C   0  0  0  0  0  0  0  0  0  0  0  0
  -24.9153  -28.9327   20.2122 C   0  0  0  0  0  0  0  0  0  0  0  0
  -22.6628  -31.0639   15.7238 C   0  0  0  0  0  0  0  0  0  0  0  0
  -26.0949  -29.5342   20.6734 C   0  0  0  0  0  0  0  0  0  0  0  0
  -28.9845  -22.5976   21.7278 C   0  0  0  0  0  0  0  0  0  0  0  0
  -29.3490  -20.0509   20.6490 C   0  0  0  0  0  0  0  0  0  0  0  0
  -29.1844  -21.5049   22.5715 C   0  0  0  0  0  0  0  0  0  0  0  0
  -29.3667  -20.2315   22.0320 C   0  0  0  0  0  0  0  0  0  0  0  0
  -22.1079   -8.0541   21.4868 C   0  0  0  0  0  0  0  0  0  0  0  0
  -27.3379  -27.5363   20.0624 C   0  0  0  0  0  0  0  0  0  0  0  0
  -21.6419   -6.1917   22.8420 C   0  0  0  0  0  0  0  0  0  0  0  0
  -28.9668  -22.4170   20.3449 C   0  0  0  0  0  0  0  0  0  0  0  0
  -22.5677   -4.1061   24.4470 C   0  0  0  0  0  0  0  0  0  0  0  0
  -21.2518   -6.1145   24.1790 C   0  0  0  0  0  0  0  0  0  0  0  0
  -24.9834  -10.6283   19.7540 C   0  0  0  0  0  0  0  0  0  0  0  0
  -26.7501  -11.4478   18.7331 C   0  0  0  0  0  0  0  0  0  0  0  0
  -26.7331   -8.9530   18.8896 C   0  0  0  0  0  0  0  0  0  0  0  0
  -24.1062  -31.7782   19.0493 C   0  0  0  0  0  0  0  0  0  0  0  0
  -24.5645  -32.7284   22.1168 C   0  0  0  0  0  0  0  0  0  0  0  0
  -26.0679  -32.1694   25.1291 C   0  0  0  0  0  0  0  0  0  0  0  0
  -28.2593  -16.5806   20.0478 C   0  0  0  0  0  0  0  0  0  0  0  0
  -20.7582  -32.7045   15.3090 C   0  0  0  0  0  0  0  0  0  0  0  0
  -23.6008  -29.6567   20.3142 C   0  0  0  0  0  0  0  0  0  0  0  0
  -26.1022  -30.9246   21.2524 C   0  0  0  0  0  0  0  0  0  0  0  0
  -21.2562  -33.4578   16.5397 C   0  0  0  0  0  0  0  0  0  0  0  0
  -24.8770  -16.1266   18.6455 C   0  0  0  0  0  0  0  0  0  0  0  0
  -22.7806  -33.4470   16.5916 C   0  0  0  0  0  0  0  0  0  0  0  0
  -29.9062  -25.9867   23.2806 C   0  0  0  0  0  0  0  0  0  0  0  0
  -24.6902  -14.6214   18.8114 C   0  0  0  0  0  0  0  0  0  0  0  0
  -29.0243  -26.8867   22.4048 C   0  0  0  0  0  0  0  0  0  0  0  0
  -27.9554  -24.8660   21.3530 C   0  0  0  0  0  0  0  0  0  0  0  0
  -30.2507  -25.3949   21.0086 C   0  0  0  0  0  0  0  0  0  0  0  0
  -25.7121  -16.7288   19.7747 C   0  0  0  0  0  0  0  0  0  0  0  0
  -26.8443  -14.5520   20.1267 C   0  0  0  0  0  0  0  0  0  0  0  0
  -28.7888  -23.9630   22.2975 C   0  0  2  0  0  0  0  0  0  0  0  0
  -23.3188  -32.0152   16.7010 C   0  0  1  0  0  0  0  0  0  0  0  0
  -23.7573  -31.1729   20.3795 C   0  0  1  0  0  0  0  0  0  0  0  0
  -30.1320  -24.7452   22.3891 C   0  0  2  0  0  0  0  0  0  0  0  0
  -26.0479  -13.9210   18.9744 C   0  0  1  0  0  0  0  0  0  0  0  0
  -28.8851  -26.0677   21.1138 C   0  0  2  0  0  0  0  0  0  1  0  0
  -29.2031  -21.6994   24.0548 C   0  0  0  0  0  0  0  0  0  0  0  0
  -29.5807  -19.0574   22.9342 C   0  0  0  0  0  0  0  0  0  0  0  0
  -30.2154  -18.7537   18.6671 C   0  0  0  0  0  0  0  0  0  0  0  0
  -26.2821  -33.1387   27.4339 C   0  0  0  0  0  0  0  0  0  0  0  0
  -26.4629  -34.8610   21.0408 C   0  0  0  0  0  0  0  0  0  0  0  0
  -27.3483  -35.1464   23.3652 C   0  0  0  0  0  0  0  0  0  0  0  0
  -24.9524  -35.6390   22.8758 C   0  0  0  0  0  0  0  0  0  0  0  0
  -24.8939  -29.7571   26.3787 C   0  0  0  0  0  0  0  0  0  0  0  0
  -28.7697  -23.1949   18.1061 C   0  0  0  0  0  0  0  0  0  0  0  0
  -29.5427  -18.6984   20.0453 C   0  0  2  0  0  0  0  0  0  0  0  0
  -25.7412  -33.2373   22.9139 C   0  0  1  0  0  0  0  0  0  0  0  0
  -25.5189  -32.1697   26.5444 C   0  0  2  0  0  0  0  0  0  0  0  0
  -26.1267  -34.6955   22.5363 C   0  0  0  0  0  0  0  0  0  0  0  0
  -24.7997  -11.9510   19.7773 N   0  0  0  0  0  0  0  0  0  0  0  0
  -25.8907  -12.4216   19.1492 N   0  0  0  0  0  0  0  0  0  0  0  0
  -24.7930  -31.5940   21.3252 N   0  0  0  0  0  0  0  0  0  0  0  0
  -26.9796  -16.0039   19.9562 N   0  0  0  0  0  0  0  0  0  0  0  0
  -27.8959  -11.7461   18.0846 N   0  0  0  0  0  0  0  0  0  0  0  0
  -26.0193   -7.8374   19.3482 N   0  0  0  0  0  0  0  0  0  0  0  0
  -23.1799  -31.5252   18.0557 N   0  0  0  0  0  0  0  0  0  0  0  0
  -25.3915  -33.0564   24.3187 N   0  0  0  0  0  0  0  0  0  0  0  0
  -28.3065  -17.9674   19.9620 N   0  0  0  0  0  0  0  0  0  0  0  0
  -25.6193  -30.8069   27.1393 N   0  3  0  0  0  0  0  0  0  0  0  0
  -27.8339   -8.7829   18.3127 O   0  0  0  0  0  0  0  0  0  0  0  0
  -25.1387  -32.4281   18.9334 O   0  0  0  0  0  0  0  0  0  0  0  0
  -23.4807  -33.3116   22.1992 O   0  0  0  0  0  0  0  0  0  0  0  0
  -27.0057  -31.4564   24.7786 O   0  0  0  0  0  0  0  0  0  0  0  0
  -29.2866  -15.9104   20.2007 O   0  0  0  0  0  0  0  0  0  0  0  0
  -21.1825   -7.2258   22.0438 O   0  0  0  0  0  0  0  0  0  0  0  0
  -28.5178  -26.8624   19.9869 O   0  0  0  0  0  0  0  0  0  1  0  0
  -28.7727  -23.4722   19.5051 O   0  0  0  0  0  0  0  0  0  0  0  0
  -23.0110   -3.1039   25.2171 F   0  0  0  0  0  0  0  0  0  0  0  0
  -20.4316   -7.0386   24.6978 F   0  0  0  0  0  0  0  0  0  0  0  0
  1  2  1  0  0  0  0
  1  5  2  0  0  0  0
  2  6  2  0  0  0  0
  3  8  2  0  0  0  0
  3 16  1  0  0  0  0
  4  9  1  0  0  0  0
  4 16  2  0  0  0  0
  5 18  1  0  0  0  0
  6 20  1  0  0  0  0
  7 10  2  0  0  0  0
  7 19  1  0  0  0  0
  8 26  1  0  0  0  0
  9 26  2  0  0  0  0
 10 27  1  0  0  0  0
 11 12  2  0  0  0  0
 11 28  1  0  0  0  0
 12 30  1  0  0  0  0
 13 21  1  0  0  0  0
 13 27  2  0  0  0  0
 14 23  1  0  0  0  0
 14 29  2  0  0  0  0
 15 30  2  0  0  0  0
 15 31  1  0  0  0  0
 16 32  1  0  0  0  0
 17 32  1  0  0  0  0
 17 33  2  0  0  0  0
 17 34  1  0  0  0  0
 18 20  2  0  0  0  0
 18 39  1  0  0  0  0
 19 21  2  0  0  0  0
 19 40  1  0  0  0  0
 20 53  1  0  0  0  0
 21 41  1  0  0  0  0
 22 24  2  0  0  0  0
 22 29  1  0  0  0  0
 22 52  1  0  0  0  0
 23 25  2  0  0  0  0
 23 67  1  0  0  0  0
 24 25  1  0  0  0  0
 24 58  1  0  0  0  0
 25 59  1  0  0  0  0
 26 86  1  0  0  0  0
 27 87  1  0  0  0  0
 28 31  2  0  0  0  0
 28 86  1  0  0  0  0
 29 88  1  0  0  0  0
 30 89  1  0  0  0  0
 31 90  1  0  0  0  0
 32 71  2  0  0  0  0
 33 72  1  0  0  0  0
 33 75  1  0  0  0  0
 34 76  1  0  0  0  0
 34 81  2  0  0  0  0
 35 54  1  0  0  0  0
 35 77  1  0  0  0  0
 35 82  2  0  0  0  0
 36 68  1  0  0  0  0
 36 73  1  0  0  0  0
 36 83  2  0  0  0  0
 37 69  1  0  0  0  0
 37 78  1  0  0  0  0
 37 84  2  0  0  0  0
 38 74  1  0  0  0  0
 38 79  1  0  0  0  0
 38 85  2  0  0  0  0
 39 42  1  0  0  0  0
 40 54  1  0  0  0  0
 41 73  1  0  0  0  0
 42 44  1  0  0  0  0
 43 46  1  0  0  0  0
 43 50  1  0  0  0  0
 44 53  1  0  0  0  0
 45 47  1  0  0  0  0
 45 55  1  0  0  0  0
 46 56  1  0  0  0  0
 47 57  1  0  0  0  0
 48 52  1  0  0  0  0
 48 57  1  0  0  0  0
 49 55  1  0  0  0  0
 49 57  1  0  0  0  0
 50 74  1  0  0  0  0
 51 56  1  0  0  0  0
 51 74  1  0  0  0  0
 52 55  1  0  0  0  0
 53 77  1  0  0  0  0
 54 73  1  0  0  0  0
 56 72  1  0  0  0  0
 57 87  1  0  0  0  0
 60 67  1  0  0  0  0
 61 69  1  0  0  0  0
 62 70  1  0  0  0  0
 63 70  1  0  0  0  0
 64 70  1  0  0  0  0
 65 80  1  0  0  0  0
 66 88  1  0  0  0  0
 67 79  1  0  0  0  0
 68 70  1  0  0  0  0
 68 78  1  0  0  0  0
 69 80  1  0  0  0  0
 71 72  1  0  0  0  0
M  CHG  1  80   1
M  ISO  4  38 100  57 101  79 100  87 101
M  END
> <Batch ID>
0163

> <Smiles>
CNC(C)C(=O)NC(C(=O)N1Cc2cc([101O:1][101C:1]34CCC(C3)C(c3c(OC)cc(C(C)[100NH:0][100C:0](=O)N5CCCC(n6nc(-c7ccc(Oc8ccc(F)cc8F)cc7)c(C(N)=O)c6N)C5)c(C)c3C)C4)ccc2CC1C(=O)NC1CCCc2ccccc21)C(C)(C)C

> <Shape>
0.317

> <Color>
0.111

> <Negative vol penalty>
0.000

$$$$

  -OEChem-04052322173D

 84 93  0     1  0  0  0  0  0999 V2000
  -23.5124   -7.8256   21.1341 C   0  0  0  0  0  0  0  0  0  0  0  0
  -24.0796   -8.8134   20.3354 C   0  0  0  0  0  0  0  0  0  0  0  0
  -25.7263  -30.3545   22.8605 C   0  0  0  0  0  0  0  0  0  0  0  0
  -26.5532  -31.6661   21.0077 C   0  0  0  0  0  0  0  0  0  0  0  0
  -22.4278   -8.1319   21.9549 C   0  0  0  0  0  0  0  0  0  0  0  0
  -23.5617  -10.1079   20.3563 C   0  0  0  0  0  0  0  0  0  0  0  0
  -27.1791  -13.6439   20.5930 C   0  0  0  0  0  0  0  0  0  0  0  0
  -25.7791  -31.4809   23.6815 C   0  0  0  0  0  0  0  0  0  0  0  0
  -26.6059  -32.7926   21.8286 C   0  0  0  0  0  0  0  0  0  0  0  0
  -27.8567  -13.9417   19.4115 C   0  0  0  0  0  0  0  0  0  0  0  0
  -24.4428  -35.0775   23.0619 C   0  0  0  0  0  0  0  0  0  0  0  0
  -23.9451  -36.2752   22.5490 C   0  0  0  0  0  0  0  0  0  0  0  0
  -26.4776  -15.8996   19.1213 C   0  0  0  0  0  0  0  0  0  0  0  0
  -26.1165  -37.2971   22.8280 C   0  0  0  0  0  0  0  0  0  0  0  0
  -26.1134  -30.4471   21.5236 C   0  0  0  0  0  0  0  0  0  0  0  0
  -24.9743  -28.8555   19.8875 C   0  0  0  0  0  0  0  0  0  0  0  0
  -21.9025   -9.4331   21.9931 C   0  0  0  0  0  0  0  0  0  0  0  0
  -26.1367  -14.4671   21.0426 C   0  0  0  0  0  0  0  0  0  0  0  0
  -22.4682  -10.4316   21.1773 C   0  0  0  0  0  0  0  0  0  0  0  0
  -25.7902  -15.6115   20.3101 C   0  0  0  0  0  0  0  0  0  0  0  0
  -26.2189  -32.7000   23.1656 C   0  0  0  0  0  0  0  0  0  0  0  0
  -27.5041  -15.0681   18.6739 C   0  0  0  0  0  0  0  0  0  0  0  0
  -25.7774  -34.9895   23.4580 C   0  0  0  0  0  0  0  0  0  0  0  0
  -24.7819  -37.3851   22.4320 C   0  0  0  0  0  0  0  0  0  0  0  0
  -26.6142  -36.0993   23.3410 C   0  0  0  0  0  0  0  0  0  0  0  0
  -26.0596  -29.2838   20.6752 C   0  0  0  0  0  0  0  0  0  0  0  0
  -25.4241  -27.7105   19.2766 C   0  0  0  0  0  0  0  0  0  0  0  0
  -23.6757  -29.4405   19.7226 C   0  0  0  0  0  0  0  0  0  0  0  0
  -29.2121  -18.0999   19.4754 C   0  0  0  0  0  0  0  0  0  0  0  0
  -23.0298  -14.0616   21.5777 C   0  0  0  0  0  0  0  0  0  0  0  0
  -23.2345  -17.0804   22.7472 C   0  0  0  0  0  0  0  0  0  0  0  0
  -24.8808  -20.0695   22.7793 C   0  0  0  0  0  0  0  0  0  0  0  0
  -28.8994  -23.2631   20.8710 C   0  0  0  0  0  0  0  0  0  0  0  0
  -20.6992   -9.7051   22.8607 C   0  0  0  0  0  0  0  0  0  0  0  0
  -25.4335  -14.1468   22.3331 C   0  0  0  0  0  0  0  0  0  0  0  0
  -24.6919  -16.5387   20.7603 C   0  0  0  0  0  0  0  0  0  0  0  0
  -20.4478  -11.1908   23.1052 C   0  0  0  0  0  0  0  0  0  0  0  0
  -29.8551  -25.7855   18.2790 C   0  0  0  0  0  0  0  0  0  0  0  0
  -20.5472  -11.9711   21.7983 C   0  0  0  0  0  0  0  0  0  0  0  0
  -30.1956  -18.0517   17.0298 C   0  0  0  0  0  0  0  0  0  0  0  0
  -28.9044  -26.9306   18.6248 C   0  0  0  0  0  0  0  0  0  0  0  0
  -29.9387  -16.7094   16.3233 C   0  0  0  0  0  0  0  0  0  0  0  0
  -30.1849  -24.9504   19.5105 C   0  0  0  0  0  0  0  0  0  0  0  0
  -29.3080  -19.9114   21.1645 C   0  0  0  0  0  0  0  0  0  0  0  0
  -30.1464  -21.1771   21.2897 C   0  0  0  0  0  0  0  0  0  0  0  0
  -28.0331  -25.5534   20.5672 C   0  0  0  0  0  0  0  0  0  0  0  0
  -21.9503  -11.8535   21.1908 C   0  0  1  0  0  0  0  0  0  0  0  0
  -29.0516  -17.6895   18.0090 C   0  0  1  0  0  0  0  0  0  0  0  0
  -24.0450  -14.7715   22.4280 C   0  0  1  0  0  0  0  0  0  0  0  0
  -27.6512  -26.4060   19.3462 C   0  0  1  0  0  0  0  0  0  0  0  0
  -29.3249  -16.2006   17.6454 C   0  0  1  0  0  0  0  0  0  1  0  0
  -28.7857  -20.5153   18.7812 C   0  0  2  0  0  0  0  0  0  0  0  0
  -29.6556  -21.7905   18.9405 C   0  0  2  0  0  0  0  0  0  0  0  0
  -27.2876  -20.8296   18.8805 C   0  0  0  0  0  0  0  0  0  0  0  0
  -31.0671  -21.5528   18.3876 C   0  0  0  0  0  0  0  0  0  0  0  0
  -24.7895  -22.3578   23.8053 C   0  0  0  0  0  0  0  0  0  0  0  0
  -20.9513  -17.8297   20.8669 C   0  0  0  0  0  0  0  0  0  0  0  0
  -21.5382  -20.2369   21.2262 C   0  0  0  0  0  0  0  0  0  0  0  0
  -20.7943  -18.8356   23.1512 C   0  0  0  0  0  0  0  0  0  0  0  0
  -27.5202  -19.7219   24.0723 C   0  0  0  0  0  0  0  0  0  0  0  0
  -23.0918  -18.4651   22.1631 C   0  0  1  0  0  0  0  0  0  0  0  0
  -25.3497  -20.9490   23.9243 C   0  0  2  0  0  0  0  0  0  0  0  0
  -21.6133  -18.8235   21.8421 C   0  0  0  0  0  0  0  0  0  0  0  0
  -27.1190  -28.4765   20.5759 N   0  0  0  0  0  0  0  0  0  0  0  0
  -26.7016  -27.5294   19.7186 N   0  0  0  0  0  0  0  0  0  0  0  0
  -29.1576  -19.4756   19.7701 N   0  0  0  0  0  0  0  0  0  0  0  0
  -24.0299  -16.1793   22.0252 N   0  0  0  0  0  0  0  0  0  0  0  0
  -28.9726  -24.4927   20.1982 N   0  0  0  0  0  0  0  0  0  0  0  0
  -29.6798  -22.2061   20.3609 N   0  0  0  0  0  0  0  0  0  0  0  0
  -24.8475  -26.8510   18.4099 N   0  0  0  0  0  0  0  0  0  0  0  0
  -23.3789  -30.6170   20.4240 N   0  0  0  0  0  0  0  0  0  0  0  0
  -22.8760  -12.7231   21.8846 N   0  0  0  0  0  0  0  0  0  0  0  0
  -23.7359  -19.3739   23.1054 N   0  0  0  0  0  0  0  0  0  0  0  0
  -26.8375  -21.0343   23.9363 N   0  3  0  0  0  0  0  0  0  0  0  0
  -22.7986  -28.9258   18.9882 O   0  0  0  0  0  0  0  0  0  0  0  0
  -29.3830  -17.2379   20.3511 O   0  0  0  0  0  0  0  0  0  0  0  0
  -22.4293  -14.6826   20.7084 O   0  0  0  0  0  0  0  0  0  0  0  0
  -22.6670  -16.8103   23.8087 O   0  0  0  0  0  0  0  0  0  0  0  0
  -25.4692  -20.0088   21.7019 O   0  0  0  0  0  0  0  0  0  0  0  0
  -28.1604  -23.1114   21.8522 O   0  0  0  0  0  0  0  0  0  0  0  0
  -26.2703  -33.7994   23.9663 O   0  0  0  0  0  0  0  0  0  0  0  0
  -28.1645  -15.3613   17.5179 O   0  0  0  0  0  0  0  0  0  1  0  0
  -24.3041  -38.5348   21.9379 F   0  0  0  0  0  0  0  0  0  0  0  0
  -27.8976  -36.0205   23.7187 F   0  0  0  0  0  0  0  0  0  0  0  0
  1  2  1  0  0  0  0
  1  5  2  0  0  0  0
  2  6  2  0  0  0  0
  3  8  2  0  0  0  0
  3 15  1  0  0  0  0
  4  9  1  0  0  0  0
  4 15  2  0  0  0  0
  5 17  1  0  0  0  0
  6 19  1  0  0  0  0
  7 10  2  0  0  0  0
  7 18  1  0  0  0  0
  8 21  1  0  0  0  0
  9 21  2  0  0  0  0
 10 22  1  0  0  0  0
 11 12  2  0  0  0  0
 11 23  1  0  0  0  0
 12 24  1  0  0  0  0
 13 20  1  0  0  0  0
 13 22  2  0  0  0  0
 14 24  2  0  0  0  0
 14 25  1  0  0  0  0
 15 26  1  0  0  0  0
 16 26  1  0  0  0  0
 16 27  2  0  0  0  0
 16 28  1  0  0  0  0
 17 19  2  0  0  0  0
 17 34  1  0  0  0  0
 18 20  2  0  0  0  0
 18 35  1  0  0  0  0
 19 47  1  0  0  0  0
 20 36  1  0  0  0  0
 21 81  1  0  0  0  0
 22 82  1  0  0  0  0
 23 25  2  0  0  0  0
 23 81  1  0  0  0  0
 24 83  1  0  0  0  0
 25 84  1  0  0  0  0
 26 64  2  0  0  0  0
 27 65  1  0  0  0  0
 27 70  1  0  0  0  0
 28 71  1  0  0  0  0
 28 75  2  0  0  0  0
 29 48  1  0  0  0  0
 29 66  1  0  0  0  0
 29 76  2  0  0  0  0
 30 49  1  0  0  0  0
 30 72  1  0  0  0  0
 30 77  2  0  0  0  0
 31 61  1  0  0  0  0
 31 67  1  0  0  0  0
 31 78  2  0  0  0  0
 32 62  1  0  0  0  0
 32 73  1  0  0  0  0
 32 79  2  0  0  0  0
 33 68  1  0  0  0  0
 33 69  1  0  0  0  0
 33 80  2  0  0  0  0
 34 37  1  0  0  0  0
 35 49  1  0  0  0  0
 36 67  1  0  0  0  0
 37 39  1  0  0  0  0
 38 41  1  0  0  0  0
 38 43  1  0  0  0  0
 39 47  1  0  0  0  0
 40 42  1  0  0  0  0
 40 48  1  0  0  0  0
 41 50  1  0  0  0  0
 42 51  1  0  0  0  0
 43 68  1  0  0  0  0
 44 45  1  0  0  0  0
 44 66  1  0  0  0  0
 45 69  1  0  0  0  0
 46 50  1  0  0  0  0
 46 68  1  0  0  0  0
 47 72  1  0  0  0  0
 48 51  1  0  0  0  0
 49 67  1  0  0  0  0
 50 65  1  0  0  0  0
 51 82  1  0  0  0  0
 52 53  1  0  0  0  0
 52 54  1  0  0  0  0
 52 66  1  0  0  0  0
 53 55  1  0  0  0  0
 53 69  1  0  0  0  0
 56 62  1  0  0  0  0
 57 63  1  0  0  0  0
 58 63  1  0  0  0  0
 59 63  1  0  0  0  0
 60 74  1  0  0  0  0
 61 63  1  0  0  0  0
 61 73  1  0  0  0  0
 62 74  1  0  0  0  0
 64 65  1  0  0  0  0
M  CHG  1  74   1
M  ISO  4  33 100  51 101  69 100  82 101
M  END
> <Batch ID>
0163

> <Smiles>
CNC(C)C(=O)NC(C(=O)N1Cc2cc([101O:1][101CH:1]3CCC3C(=O)N3CC[100N:0]([100C:0](=O)N4CCCC(n5nc(-c6ccc(Oc7ccc(F)cc7F)cc6)c(C(N)=O)c5N)C4)C(C)C3C)ccc2CC1C(=O)NC1CCCc2ccccc21)C(C)(C)C

> <Shape>
0.301

> <Color>
0.073

> <Negative vol penalty>
0.000

$$$$

  -OEChem-04052322173D

 91100  0     1  0  0  0  0  0999 V2000
  -28.6784  -35.3785   24.2362 C   0  0  0  0  0  0  0  0  0  0  0  0
  -28.8109  -34.0470   23.8555 C   0  0  0  0  0  0  0  0  0  0  0  0
  -24.0009  -12.8739   20.4392 C   0  0  0  0  0  0  0  0  0  0  0  0
  -26.1802  -12.6247   21.4520 C   0  0  0  0  0  0  0  0  0  0  0  0
  -27.4647  -35.8394   24.7446 C   0  0  0  0  0  0  0  0  0  0  0  0
  -27.7301  -33.1753   23.9839 C   0  0  0  0  0  0  0  0  0  0  0  0
  -27.0895  -30.2590   19.8938 C   0  0  0  0  0  0  0  0  0  0  0  0
  -23.9252  -11.4925   20.2621 C   0  0  0  0  0  0  0  0  0  0  0  0
  -26.1045  -11.2432   21.2749 C   0  0  0  0  0  0  0  0  0  0  0  0
  -27.9440  -29.1667   19.7504 C   0  0  0  0  0  0  0  0  0  0  0  0
  -23.0019   -7.9982   19.8711 C   0  0  0  0  0  0  0  0  0  0  0  0
  -21.8045   -7.3661   20.2063 C   0  0  0  0  0  0  0  0  0  0  0  0
  -31.2830  -24.0147   17.9841 C   0  0  0  0  0  0  0  0  0  0  0  0
  -26.2179  -27.7123   20.6017 C   0  0  0  0  0  0  0  0  0  0  0  0
  -22.0333   -8.1403   22.4835 C   0  0  0  0  0  0  0  0  0  0  0  0
  -25.1285  -13.4401   21.0341 C   0  0  0  0  0  0  0  0  0  0  0  0
  -24.7735  -15.6066   22.3332 C   0  0  0  0  0  0  0  0  0  0  0  0
  -26.3655  -34.9753   24.8703 C   0  0  0  0  0  0  0  0  0  0  0  0
  -25.7943  -30.0874   20.4033 C   0  0  0  0  0  0  0  0  0  0  0  0
  -26.5010  -33.6249   24.4957 C   0  0  0  0  0  0  0  0  0  0  0  0
  -31.8084  -23.3761   19.1233 C   0  0  0  0  0  0  0  0  0  0  0  0
  -25.3480  -28.8036   20.7481 C   0  0  0  0  0  0  0  0  0  0  0  0
  -31.6344  -23.9565   20.3956 C   0  0  0  0  0  0  0  0  0  0  0  0
  -30.5843  -25.2138   18.0925 C   0  0  0  0  0  0  0  0  0  0  0  0
  -30.9144  -25.1662   20.4791 C   0  0  0  0  0  0  0  0  0  0  0  0
  -30.3985  -25.7892   19.3418 C   0  0  0  0  0  0  0  0  0  0  0  0
  -24.9769  -10.6771   20.6800 C   0  0  0  0  0  0  0  0  0  0  0  0
  -27.5092  -27.8935   20.1071 C   0  0  0  0  0  0  0  0  0  0  0  0
  -23.7151   -8.7013   20.8421 C   0  0  0  0  0  0  0  0  0  0  0  0
  -21.3202   -7.4372   21.5125 C   0  0  0  0  0  0  0  0  0  0  0  0
  -23.2307   -8.7723   22.1483 C   0  0  0  0  0  0  0  0  0  0  0  0
  -25.2075  -14.8671   21.2167 C   0  0  0  0  0  0  0  0  0  0  0  0
  -25.0700  -16.9102   22.0181 C   0  0  0  0  0  0  0  0  0  0  0  0
  -24.1574  -15.1555   23.5468 C   0  0  0  0  0  0  0  0  0  0  0  0
  -24.2315  -31.1457   22.9608 C   0  0  0  0  0  0  0  0  0  0  0  0
  -21.7103  -29.6739   21.5467 C   0  0  0  0  0  0  0  0  0  0  0  0
  -20.5916  -27.2806   19.3862 C   0  0  0  0  0  0  0  0  0  0  0  0
  -29.1043  -19.4054   18.3645 C   0  0  0  0  0  0  0  0  0  0  0  0
  -25.0881  -35.5081   25.4694 C   0  0  0  0  0  0  0  0  0  0  0  0
  -24.8756  -31.2719   20.5267 C   0  0  0  0  0  0  0  0  0  0  0  0
  -23.9599  -28.5631   21.2807 C   0  0  0  0  0  0  0  0  0  0  0  0
  -23.8788  -34.6096   25.2232 C   0  0  0  0  0  0  0  0  0  0  0  0
  -25.5712  -19.8339   18.2643 C   0  0  0  0  0  0  0  0  0  0  0  0
  -24.2260  -33.1542   25.5197 C   0  0  0  0  0  0  0  0  0  0  0  0
  -25.0382  -18.6763   19.1103 C   0  0  0  0  0  0  0  0  0  0  0  0
  -26.7999  -19.4231   17.4558 C   0  0  0  0  0  0  0  0  0  0  0  0
  -27.3584  -17.6688   19.0943 C   0  0  0  0  0  0  0  0  0  0  0  0
  -33.0818  -22.0691   21.3878 C   0  0  0  0  0  0  0  0  0  0  0  0
  -25.3440  -32.6546   24.5967 C   0  0  1  0  0  0  0  0  0  0  0  0
  -32.5580  -22.0788   18.9348 C   0  0  1  0  0  0  0  0  0  0  0  0
  -23.7547  -31.0558   21.5388 C   0  0  1  0  0  0  0  0  0  0  0  0
  -26.1528  -18.0505   19.9701 C   0  0  2  0  0  0  0  0  0  0  0  0
  -32.1679  -23.2885   21.6670 C   0  0  0  0  0  0  0  0  0  0  0  0
  -30.0577  -25.8605   16.8540 C   0  0  0  0  0  0  0  0  0  0  0  0
  -30.7139  -25.9060   21.7669 C   0  0  0  0  0  0  0  0  0  0  0  0
  -30.9853  -22.8747   22.5723 C   0  0  0  0  0  0  0  0  0  0  0  0
  -33.0356  -24.2909   22.4715 C   0  0  0  0  0  0  0  0  0  0  0  0
  -34.6903  -21.0344   18.1635 C   0  0  0  0  0  0  0  0  0  0  0  0
  -18.4772  -26.2897   18.4671 C   0  0  0  0  0  0  0  0  0  0  0  0
  -32.3142  -18.1005   19.6405 C   0  0  0  0  0  0  0  0  0  0  0  0
  -21.2788  -28.1705   24.1666 C   0  0  0  0  0  0  0  0  0  0  0  0
  -19.8201  -26.5609   22.9218 C   0  0  0  0  0  0  0  0  0  0  0  0
  -19.1807  -28.9679   23.0636 C   0  0  0  0  0  0  0  0  0  0  0  0
  -21.2966  -28.0519   16.6173 C   0  0  0  0  0  0  0  0  0  0  0  0
  -29.6456  -27.0787   19.4529 C   0  0  0  0  0  0  0  0  0  1  0  0
  -33.9675  -22.3189   18.3819 C   0  0  0  0  0  0  0  0  0  0  0  0
  -31.4545  -20.3718   20.4265 C   0  0  0  0  0  0  0  0  0  0  0  0
  -21.1199  -28.2852   21.5922 C   0  0  1  0  0  0  0  0  0  0  0  0
  -19.5658  -27.3328   18.2684 C   0  0  2  0  0  0  0  0  0  0  0  0
  -31.3670  -19.2666   19.3746 C   0  0  2  0  0  0  0  0  0  0  0  0
  -20.3768  -28.0006   22.9279 C   0  0  0  0  0  0  0  0  0  0  0  0
  -25.7392  -15.6369   20.2634 N   0  0  0  0  0  0  0  0  0  0  0  0
  -25.6410  -16.8737   20.7801 N   0  0  0  0  0  0  0  0  0  0  0  0
  -23.1011  -29.7540   21.3890 N   0  0  0  0  0  0  0  0  0  0  0  0
  -27.8196  -18.8386   18.3302 N   0  0  0  0  0  0  0  0  0  0  0  0
  -24.8952  -18.0726   22.6819 N   0  0  0  0  0  0  0  0  0  0  0  0
  -23.9248  -13.7828   23.7078 N   0  0  0  0  0  0  0  0  0  0  0  0
  -24.8180  -32.3548   23.2822 N   0  0  0  0  0  0  0  0  0  0  0  0
  -20.2830  -28.1583   20.4039 N   0  0  0  0  0  0  0  0  0  0  0  0
  -30.0086  -18.7944   19.2246 N   0  0  0  0  0  0  0  0  0  0  0  0
  -32.6578  -21.2468   20.2021 N   0  3  2  0  0  0  0  0  0  0  0  0
  -20.2203  -27.0844   16.9528 N   0  3  0  0  0  0  0  0  0  0  0  0
  -23.8082  -15.9480   24.4543 O   0  0  0  0  0  0  0  0  0  0  0  0
  -24.0772  -30.1893   23.7114 O   0  0  0  0  0  0  0  0  0  0  0  0
  -20.9640  -30.6516   21.6403 O   0  0  0  0  0  0  0  0  0  0  0  0
  -21.5668  -26.5331   19.3610 O   0  0  0  0  0  0  0  0  0  0  0  0
  -29.4204  -20.3868   17.6834 O   0  0  0  0  0  0  0  0  0  0  0  0
  -24.9032   -9.3290   20.5076 O   0  0  0  0  0  0  0  0  0  0  0  0
  -28.3478  -26.8177   19.9678 O   0  0  0  0  0  0  0  0  0  1  0  0
  -20.1696   -6.8314   21.8338 F   0  0  0  0  0  0  0  0  0  0  0  0
  -23.9108   -9.4473   23.0852 F   0  0  0  0  0  0  0  0  0  0  0  0
  1  2  1  0  0  0  0
  1  5  2  0  0  0  0
  2  6  2  0  0  0  0
  3  8  2  0  0  0  0
  3 16  1  0  0  0  0
  4  9  1  0  0  0  0
  4 16  2  0  0  0  0
  5 18  1  0  0  0  0
  6 20  1  0  0  0  0
  7 10  2  0  0  0  0
  7 19  1  0  0  0  0
  8 27  1  0  0  0  0
  9 27  2  0  0  0  0
 10 28  1  0  0  0  0
 11 12  2  0  0  0  0
 11 29  1  0  0  0  0
 12 30  1  0  0  0  0
 13 21  1  0  0  0  0
 13 24  2  0  0  0  0
 14 22  1  0  0  0  0
 14 28  2  0  0  0  0
 15 30  2  0  0  0  0
 15 31  1  0  0  0  0
 16 32  1  0  0  0  0
 17 32  1  0  0  0  0
 17 33  2  0  0  0  0
 17 34  1  0  0  0  0
 18 20  2  0  0  0  0
 18 39  1  0  0  0  0
 19 22  2  0  0  0  0
 19 40  1  0  0  0  0
 20 49  1  0  0  0  0
 21 23  2  0  0  0  0
 21 50  1  0  0  0  0
 22 41  1  0  0  0  0
 23 25  1  0  0  0  0
 23 53  1  0  0  0  0
 24 26  1  0  0  0  0
 24 54  1  0  0  0  0
 25 26  2  0  0  0  0
 25 55  1  0  0  0  0
 26 65  1  0  0  0  0
 27 88  1  0  0  0  0
 28 89  1  0  0  0  0
 29 31  2  0  0  0  0
 29 88  1  0  0  0  0
 30 90  1  0  0  0  0
 31 91  1  0  0  0  0
 32 72  2  0  0  0  0
 33 73  1  0  0  0  0
 33 76  1  0  0  0  0
 34 77  1  0  0  0  0
 34 83  2  0  0  0  0
 35 51  1  0  0  0  0
 35 78  1  0  0  0  0
 35 84  2  0  0  0  0
 36 68  1  0  0  0  0
 36 74  1  0  0  0  0
 36 85  2  0  0  0  0
 37 69  1  0  0  0  0
 37 79  1  0  0  0  0
 37 86  2  0  0  0  0
 38 75  1  0  0  0  0
 38 80  1  0  0  0  0
 38 87  2  0  0  0  0
 39 42  1  0  0  0  0
 40 51  1  0  0  0  0
 41 74  1  0  0  0  0
 42 44  1  0  0  0  0
 43 45  1  0  0  0  0
 43 46  1  0  0  0  0
 44 49  1  0  0  0  0
 45 52  1  0  0  0  0
 46 75  1  0  0  0  0
 47 52  1  0  0  0  0
 47 75  1  0  0  0  0
 48 53  1  0  0  0  0
 48 81  1  0  0  0  0
 49 78  1  0  0  0  0
 50 66  1  0  0  0  0
 50 81  1  0  0  0  0
 51 74  1  0  0  0  0
 52 73  1  0  0  0  0
 53 56  1  0  0  0  0
 53 57  1  0  0  0  0
 58 66  1  0  0  0  0
 59 69  1  0  0  0  0
 60 70  1  0  0  0  0
 61 71  1  0  0  0  0
 62 71  1  0  0  0  0
 63 71  1  0  0  0  0
 64 82  1  0  0  0  0
 65 89  1  0  0  0  0
 67 70  1  0  0  0  0
 67 81  1  0  0  0  0
 68 71  1  0  0  0  0
 68 79  1  0  0  0  0
 69 82  1  0  0  0  0
 70 80  1  0  0  0  0
 72 73  1  0  0  0  0
M  CHG  2  81   1  82   1
M  ISO  4  38 100  65 101  80 100  89 101
M  END
> <Batch ID>
0163

> <Smiles>
CCC1c2cc(C)c([101CH2:1][101O:1]c3ccc4c(c3)CN(C(=O)C(NC(=O)C(C)NC)C(C)(C)C)C(C(=O)NC3CCCc5ccccc53)C4)c(C)c2C(C)(C)CN1CC(C)[100NH:0][100C:0](=O)N1CCCC(n2nc(-c3ccc(Oc4ccc(F)cc4F)cc3)c(C(N)=O)c2N)C1

> <Shape>
0.289

> <Color>
0.072

> <Negative vol penalty>
0.000

$$$$

  -OEChem-04052322173D

100111  0     1  0  0  0  0  0999 V2000
  -22.1300  -11.4075   20.4812 C   0  0  0  0  0  0  0  0  0  0  0  0
  -21.8534  -12.6068   21.1298 C   0  0  0  0  0  0  0  0  0  0  0  0
  -18.2325  -24.2573   21.9270 C   0  0  0  0  0  0  0  0  0  0  0  0
  -17.5536  -25.8005   20.1966 C   0  0  0  0  0  0  0  0  0  0  0  0
  -23.4364  -11.1099   20.0958 C   0  0  0  0  0  0  0  0  0  0  0  0
  -22.8834  -13.5088   21.3944 C   0  0  0  0  0  0  0  0  0  0  0  0
  -22.5196  -19.6221   21.3733 C   0  0  0  0  0  0  0  0  0  0  0  0
  -17.5059  -23.2414   21.3061 C   0  0  0  0  0  0  0  0  0  0  0  0
  -16.8270  -24.7846   19.5756 C   0  0  0  0  0  0  0  0  0  0  0  0
  -22.3687  -20.5563   22.3971 C   0  0  0  0  0  0  0  0  0  0  0  0
  -14.2767  -22.2686   21.0821 C   0  0  0  0  0  0  0  0  0  0  0  0
  -13.4800  -21.4564   21.8890 C   0  0  0  0  0  0  0  0  0  0  0  0
  -24.7586  -20.8802   22.4458 C   0  0  0  0  0  0  0  0  0  0  0  0
  -27.1750  -31.7508   23.7171 C   0  0  0  0  0  0  0  0  0  0  0  0
  -14.7374  -19.5190   21.1804 C   0  0  0  0  0  0  0  0  0  0  0  0
  -18.2563  -25.5369   21.3723 C   0  0  0  0  0  0  0  0  0  0  0  0
  -18.8229  -27.0891   23.3158 C   0  0  0  0  0  0  0  0  0  0  0  0
  -24.4814  -12.0130   20.3472 C   0  0  0  0  0  0  0  0  0  0  0  0
  -23.7943  -19.3013   20.8846 C   0  0  0  0  0  0  0  0  0  0  0  0
  -24.2053  -13.2223   21.0132 C   0  0  0  0  0  0  0  0  0  0  0  0
  -24.9229  -19.9434   21.4139 C   0  0  0  0  0  0  0  0  0  0  0  0
  -26.8386  -30.3872   23.8140 C   0  0  0  0  0  0  0  0  0  0  0  0
  -27.4691  -29.4513   22.9715 C   0  0  0  0  0  0  0  0  0  0  0  0
  -28.4656  -29.9139   22.0896 C   0  0  0  0  0  0  0  0  0  0  0  0
  -28.7926  -31.2679   22.0061 C   0  0  0  0  0  0  0  0  0  0  0  0
  -16.8032  -23.5050   20.1304 C   0  0  0  0  0  0  0  0  0  0  0  0
  -23.4885  -21.1834   22.9355 C   0  0  0  0  0  0  0  0  0  0  0  0
  -15.3037  -21.7060   20.3242 C   0  0  0  0  0  0  0  0  0  0  0  0
  -28.1416  -32.1885   22.8157 C   0  0  0  0  0  0  0  0  0  0  0  0
  -13.7104  -20.0816   21.9382 C   0  0  0  0  0  0  0  0  0  0  0  0
  -15.5341  -20.3312   20.3734 C   0  0  0  0  0  0  0  0  0  0  0  0
  -19.0062  -26.5869   22.0135 C   0  0  0  0  0  0  0  0  0  0  0  0
  -19.7778  -28.0679   23.4440 C   0  0  0  0  0  0  0  0  0  0  0  0
  -17.8742  -26.7050   24.3199 C   0  0  0  0  0  0  0  0  0  0  0  0
  -25.5509  -16.6548   20.7670 C   0  0  0  0  0  0  0  0  0  0  0  0
  -27.5462  -18.5231   19.0203 C   0  0  0  0  0  0  0  0  0  0  0  0
  -28.6316  -21.6626   18.2378 C   0  0  0  0  0  0  0  0  0  0  0  0
  -25.0560  -28.9898   20.7716 C   0  0  0  0  0  0  0  0  0  0  0  0
  -25.8852  -11.6264   19.9540 C   0  0  0  0  0  0  0  0  0  0  0  0
  -23.9380  -18.3112   19.7615 C   0  0  0  0  0  0  0  0  0  0  0  0
  -26.3116  -19.6493   20.9105 C   0  0  0  0  0  0  0  0  0  0  0  0
  -26.8586  -12.8022   19.9369 C   0  0  0  0  0  0  0  0  0  0  0  0
  -22.2809  -31.2189   20.8563 C   0  0  0  0  0  0  0  0  0  0  0  0
  -26.7021  -13.6432   21.1998 C   0  0  0  0  0  0  0  0  0  0  0  0
  -26.1822  -25.1094   20.5710 C   0  0  0  0  0  0  0  0  0  0  0  0
  -27.6746  -25.2728   20.4937 C   0  0  0  0  0  0  0  0  0  0  0  0
  -21.1105  -30.3298   21.2800 C   0  0  0  0  0  0  0  0  0  0  0  0
  -25.3577  -24.4007   26.1672 C   0  0  0  0  0  0  0  0  0  0  0  0
  -23.2538  -30.4745   19.9444 C   0  0  0  0  0  0  0  0  0  0  0  0
  -22.5837  -28.3075   20.9081 C   0  0  0  0  0  0  0  0  0  0  0  0
  -25.8042  -29.9716   24.8387 C   0  0  2  0  0  0  0  0  0  0  0  0
  -27.1644  -27.9572   23.0396 C   0  0  1  0  0  0  0  0  0  0  0  0
  -25.2916  -14.2373   21.2957 C   0  0  1  0  0  0  0  0  0  0  0  0
  -25.3261  -17.6820   19.6936 C   0  0  1  0  0  0  0  0  0  0  0  0
  -26.9047  -25.9190   21.6119 C   0  0  0  0  0  0  0  0  0  0  0  0
  -25.2830  -25.8624   25.7157 C   0  0  2  0  0  0  0  0  0  0  0  0
  -25.9794  -28.4963   25.2681 C   0  0  1  0  0  0  0  0  0  0  0  0
  -26.0203  -27.5792   24.0242 C   0  0  2  0  0  0  0  0  0  0  0  0
  -21.6049  -28.9971   21.8738 C   0  0  2  0  0  0  0  0  0  0  0  0
  -24.1603  -23.6899   25.5340 C   0  0  2  0  0  0  0  0  0  0  0  0
  -23.7906  -26.1048   25.4975 C   0  0  2  0  0  0  0  0  0  0  0  0
  -29.3097  -28.9707   21.2846 C   0  0  0  0  0  0  0  0  0  0  0  0
  -29.8551  -31.7415   21.0645 C   0  0  0  0  0  0  0  0  0  0  0  0
  -24.3941  -30.2558   24.3025 C   0  0  0  0  0  0  0  0  0  0  0  0
  -23.0241  -26.4155   26.7774 C   0  0  0  0  0  0  0  0  0  0  0  0
  -27.0945  -29.2156   27.3866 C   0  0  0  0  0  0  0  0  0  0  0  0
  -30.2999  -22.8696   16.8036 C   0  0  0  0  0  0  0  0  0  0  0  0
  -29.7738  -17.7305   20.9489 C   0  0  0  0  0  0  0  0  0  0  0  0
  -31.1215  -19.6492   20.0709 C   0  0  0  0  0  0  0  0  0  0  0  0
  -30.4513  -17.7952   18.5424 C   0  0  0  0  0  0  0  0  0  0  0  0
  -26.5022  -23.0984   16.7670 C   0  0  0  0  0  0  0  0  0  0  0  0
  -27.7208  -34.3847   23.6255 C   0  0  0  0  0  0  0  0  0  0  0  0
  -26.0914  -26.0995   24.4392 C   0  0  0  0  0  0  0  0  0  0  0  0
  -27.2003  -28.3349   26.1901 C   0  0  0  0  0  0  0  0  0  0  0  0
  -24.5289  -22.7006   24.4426 C   0  0  0  0  0  0  0  0  0  1  0  0
  -28.7031  -19.4397   19.3370 C   0  0  1  0  0  0  0  0  0  0  0  0
  -28.8780  -22.3392   16.9014 C   0  0  2  0  0  0  0  0  0  0  0  0
  -26.7455  -27.4011   21.6551 C   0  0  1  0  0  0  0  0  0  0  0  0
  -29.9866  -18.6580   19.7358 C   0  0  0  0  0  0  0  0  0  0  0  0
  -19.9995  -27.1965   21.3610 N   0  0  0  0  0  0  0  0  0  0  0  0
  -20.4488  -28.0918   22.2568 N   0  0  0  0  0  0  0  0  0  0  0  0
  -26.4007  -18.6692   19.8156 N   0  0  0  0  0  0  0  0  0  0  0  0
  -23.6857  -29.2206   20.5666 N   0  0  0  0  0  0  0  0  0  0  0  0
  -20.1006  -28.9019   24.4553 N   0  0  0  0  0  0  0  0  0  0  0  0
  -16.6355  -27.3599   24.3542 N   0  0  0  0  0  0  0  0  0  0  0  0
  -25.1621  -15.3769   20.4130 N   0  0  0  0  0  0  0  0  0  0  0  0
  -28.8679  -20.3056   18.1744 N   0  0  0  0  0  0  0  0  0  0  0  0
  -25.3788  -27.7794   21.3728 N   0  0  0  0  0  0  0  0  0  0  0  0
  -23.3116  -24.7889   24.9510 N   0  3  0  0  0  0  0  0  0  0  0  0
  -27.9371  -23.4802   16.7172 N   0  3  0  0  0  0  0  0  0  0  0  0
  -18.1240  -25.8191   25.1722 O   0  0  0  0  0  0  0  0  0  0  0  0
  -26.0421  -16.9961   21.8365 O   0  0  0  0  0  0  0  0  0  0  0  0
  -27.6522  -17.7124   18.0967 O   0  0  0  0  0  0  0  0  0  0  0  0
  -28.2695  -22.2769   19.2388 O   0  0  0  0  0  0  0  0  0  0  0  0
  -25.9269  -29.8046   20.4480 O   0  0  0  0  0  0  0  0  0  0  0  0
  -16.0943  -22.5138   19.5241 O   0  0  0  0  0  0  0  0  0  0  0  0
  -28.4426  -33.5155   22.7549 O   0  0  0  0  0  0  0  0  0  0  0  0
  -23.3429  -22.1024   23.9433 O   0  0  0  0  0  0  0  0  0  1  0  0
  -12.9462  -19.3020   22.7144 F   0  0  0  0  0  0  0  0  0  0  0  0
  -16.5200  -19.7851   19.6484 F   0  0  0  0  0  0  0  0  0  0  0  0
  1  2  1  0  0  0  0
  1  5  2  0  0  0  0
  2  6  2  0  0  0  0
  3  8  2  0  0  0  0
  3 16  1  0  0  0  0
  4  9  1  0  0  0  0
  4 16  2  0  0  0  0
  5 18  1  0  0  0  0
  6 20  1  0  0  0  0
  7 10  2  0  0  0  0
  7 19  1  0  0  0  0
  8 26  1  0  0  0  0
  9 26  2  0  0  0  0
 10 27  1  0  0  0  0
 11 12  2  0  0  0  0
 11 28  1  0  0  0  0
 12 30  1  0  0  0  0
 13 21  1  0  0  0  0
 13 27  2  0  0  0  0
 14 22  1  0  0  0  0
 14 29  2  0  0  0  0
 15 30  2  0  0  0  0
 15 31  1  0  0  0  0
 16 32  1  0  0  0  0
 17 32  1  0  0  0  0
 17 33  2  0  0  0  0
 17 34  1  0  0  0  0
 18 20  2  0  0  0  0
 18 39  1  0  0  0  0
 19 21  2  0  0  0  0
 19 40  1  0  0  0  0
 20 53  1  0  0  0  0
 21 41  1  0  0  0  0
 22 23  2  0  0  0  0
 22 51  1  0  0  0  0
 23 24  1  0  0  0  0
 23 52  1  0  0  0  0
 24 25  2  0  0  0  0
 24 62  1  0  0  0  0
 25 29  1  0  0  0  0
 25 63  1  0  0  0  0
 26 96  1  0  0  0  0
 27 98  1  0  0  0  0
 28 31  2  0  0  0  0
 28 96  1  0  0  0  0
 29 97  1  0  0  0  0
 30 99  1  0  0  0  0
 31100  1  0  0  0  0
 32 80  2  0  0  0  0
 33 81  1  0  0  0  0
 33 84  1  0  0  0  0
 34 85  1  0  0  0  0
 34 91  2  0  0  0  0
 35 54  1  0  0  0  0
 35 86  1  0  0  0  0
 35 92  2  0  0  0  0
 36 76  1  0  0  0  0
 36 82  1  0  0  0  0
 36 93  2  0  0  0  0
 37 77  1  0  0  0  0
 37 87  1  0  0  0  0
 37 94  2  0  0  0  0
 38 83  1  0  0  0  0
 38 88  1  0  0  0  0
 38 95  2  0  0  0  0
 39 42  1  0  0  0  0
 40 54  1  0  0  0  0
 41 82  1  0  0  0  0
 42 44  1  0  0  0  0
 43 47  1  0  0  0  0
 43 49  1  0  0  0  0
 44 53  1  0  0  0  0
 45 46  1  0  0  0  0
 45 55  1  0  0  0  0
 46 55  1  0  0  0  0
 47 59  1  0  0  0  0
 48 56  1  0  0  0  0
 48 60  1  0  0  0  0
 49 83  1  0  0  0  0
 50 59  1  0  0  0  0
 50 83  1  0  0  0  0
 51 57  1  0  0  0  0
 51 64  1  0  0  0  0
 52 58  1  0  0  0  0
 52 78  1  0  0  0  0
 53 86  1  0  0  0  0
 54 82  1  0  0  0  0
 55 78  1  0  0  0  0
 56 61  1  0  0  0  0
 56 73  1  0  0  0  0
 57 58  1  0  0  0  0
 57 74  1  0  0  0  0
 58 73  1  0  0  0  0
 59 81  1  0  0  0  0
 60 75  1  0  0  0  0
 60 89  1  0  0  0  0
 61 65  1  0  0  0  0
 61 89  1  0  0  0  0
 66 74  1  0  0  0  0
 67 77  1  0  0  0  0
 68 79  1  0  0  0  0
 69 79  1  0  0  0  0
 70 79  1  0  0  0  0
 71 90  1  0  0  0  0
 72 97  1  0  0  0  0
 75 98  1  0  0  0  0
 76 79  1  0  0  0  0
 76 87  1  0  0  0  0
 77 90  1  0  0  0  0
 78 88  1  0  0  0  0
 80 81  1  0  0  0  0
M  CHG  2  89   1  90   1
M  ISO  4  38 100  75 101  88 100  98 101
M  END
> <Batch ID>
0163

> <Smiles>
CCC1C(C)c2cc(OC)c(C)c(C)c2C(C([100NH:0][100C:0](=O)N2CCCC(n3nc(-c4ccc(Oc5ccc(F)cc5F)cc4)c(C(N)=O)c3N)C2)C2CC2)C1CC1CC([101CH2:1][101O:1]c2ccc3c(c2)CN(C(=O)C(NC(=O)C(C)NC)C(C)(C)C)C(C(=O)NC2CCCc4ccccc42)C3)NC1C

> <Shape>
0.233

> <Color>
0.052

> <Negative vol penalty>
0.000

$$$$
