
  -OEChem-04052322193D

 91101  0     1  0  0  0  0  0999 V2000
  -23.8624  -30.8147   12.6115 C   0  0  0  0  0  0  0  0  0  0  0  0
  -24.9109  -30.0452   13.1055 C   0  0  0  0  0  0  0  0  0  0  0  0
  -22.7290  -15.6305   21.2352 C   0  0  0  0  0  0  0  0  0  0  0  0
  -22.1531  -14.2999   19.3025 C   0  0  0  0  0  0  0  0  0  0  0  0
  -23.3041  -31.8191   13.4010 C   0  0  0  0  0  0  0  0  0  0  0  0
  -25.4024  -30.2805   14.3890 C   0  0  0  0  0  0  0  0  0  0  0  0
  -27.5686  -26.1162   18.3225 C   0  0  0  0  0  0  0  0  0  0  0  0
  -21.5728  -16.3901   21.0567 C   0  0  0  0  0  0  0  0  0  0  0  0
  -20.9969  -15.0595   19.1241 C   0  0  0  0  0  0  0  0  0  0  0  0
  -28.8644  -25.7163   18.6459 C   0  0  0  0  0  0  0  0  0  0  0  0
  -18.5887  -18.4489   21.3239 C   0  0  0  0  0  0  0  0  0  0  0  0
  -17.8182  -18.7319   22.4517 C   0  0  0  0  0  0  0  0  0  0  0  0
  -33.5198  -20.0170   19.8793 C   0  0  0  0  0  0  0  0  0  0  0  0
  -28.8529  -27.2232   20.5296 C   0  0  0  0  0  0  0  0  0  0  0  0
  -17.4955  -16.3668   22.8247 C   0  0  0  0  0  0  0  0  0  0  0  0
  -23.0192  -14.5854   20.3580 C   0  0  0  0  0  0  0  0  0  0  0  0
  -24.3509  -12.6279   21.3078 C   0  0  0  0  0  0  0  0  0  0  0  0
  -23.7827  -32.0604   14.6984 C   0  0  0  0  0  0  0  0  0  0  0  0
  -26.9081  -27.0822   19.0951 C   0  0  0  0  0  0  0  0  0  0  0  0
  -24.8509  -31.2900   15.1961 C   0  0  0  0  0  0  0  0  0  0  0  0
  -34.2931  -21.0989   19.4872 C   0  0  0  0  0  0  0  0  0  0  0  0
  -32.3096  -20.2634   20.5302 C   0  0  0  0  0  0  0  0  0  0  0  0
  -27.5477  -27.6318   20.2154 C   0  0  0  0  0  0  0  0  0  0  0  0
  -33.8796  -22.4116   19.7474 C   0  0  0  0  0  0  0  0  0  0  0  0
  -31.8917  -21.5772   20.7867 C   0  0  0  0  0  0  0  0  0  0  0  0
  -32.6792  -22.6621   20.3967 C   0  0  0  0  0  0  0  0  0  0  0  0
  -20.7067  -16.1046   20.0013 C   0  0  0  0  0  0  0  0  0  0  0  0
  -29.5079  -26.2719   19.7478 C   0  0  0  0  0  0  0  0  0  0  0  0
  -18.8125  -17.1248   20.9465 C   0  0  0  0  0  0  0  0  0  0  0  0
  -17.2717  -17.6909   23.2021 C   0  0  0  0  0  0  0  0  0  0  0  0
  -18.2660  -16.0838   21.6969 C   0  0  0  0  0  0  0  0  0  0  0  0
  -24.2136  -13.8008   20.5415 C   0  0  0  0  0  0  0  0  0  0  0  0
  -25.6692  -12.2725   21.1586 C   0  0  0  0  0  0  0  0  0  0  0  0
  -23.3741  -11.9226   22.0850 C   0  0  0  0  0  0  0  0  0  0  0  0
  -25.7374  -29.9843   18.5371 C   0  0  0  0  0  0  0  0  0  0  0  0
  -24.6252  -29.6936   21.5704 C   0  0  0  0  0  0  0  0  0  0  0  0
  -24.9266  -28.2309   24.6390 C   0  0  0  0  0  0  0  0  0  0  0  0
  -30.6124  -15.1964   19.9495 C   0  0  0  0  0  0  0  0  0  0  0  0
  -23.1787  -33.1885   15.4968 C   0  0  0  0  0  0  0  0  0  0  0  0
  -25.5004  -27.4833   18.7487 C   0  0  0  0  0  0  0  0  0  0  0  0
  -26.8747  -28.6575   21.0891 C   0  0  0  0  0  0  0  0  0  0  0  0
  -23.5084  -33.1255   16.9860 C   0  0  0  0  0  0  0  0  0  0  0  0
  -29.3171  -12.5860   18.0903 C   0  0  0  0  0  0  0  0  0  0  0  0
  -24.9947  -32.8518   17.1926 C   0  0  0  0  0  0  0  0  0  0  0  0
  -27.8721  -12.4757   18.5763 C   0  0  0  0  0  0  0  0  0  0  0  0
  -30.4223  -18.7003   19.8849 C   0  0  0  0  0  0  0  0  0  0  0  0
  -32.3168  -17.8619   21.3400 C   0  0  0  0  0  0  0  0  0  0  0  0
  -29.7329  -14.0449   17.9416 C   0  0  0  0  0  0  0  0  0  0  0  0
  -29.5895  -17.4868   20.3081 C   0  0  0  0  0  0  0  0  0  0  0  0
  -31.4332  -16.6866   21.7479 C   0  0  0  0  0  0  0  0  0  0  0  0
  -28.1300  -14.7486   19.6891 C   0  0  0  0  0  0  0  0  0  0  0  0
  -31.4593  -19.0816   20.9567 C   0  0  0  0  0  0  0  0  0  0  0  0
  -25.3951  -31.4986   16.5927 C   0  0  1  0  0  0  0  0  0  0  0  0
  -35.6241  -21.0854   18.8017 C   0  0  1  0  0  0  0  0  0  0  0  0
  -25.1153  -28.8513   19.3032 C   0  0  1  0  0  0  0  0  0  0  0  0
  -27.6581  -13.2908   19.8640 C   0  0  1  0  0  0  0  0  0  0  0  0
  -34.8941  -23.4013   19.2405 C   0  0  0  0  0  0  0  0  0  0  0  0
  -30.5912  -21.8138   21.4898 C   0  0  0  0  0  0  0  0  0  0  0  0
  -35.6540  -20.3083   17.4957 C   0  0  0  0  0  0  0  0  0  0  0  0
  -35.6205  -24.1239   20.3793 C   0  0  0  0  0  0  0  0  0  0  0  0
  -34.3328  -24.3894   18.2138 C   0  0  0  0  0  0  0  0  0  0  0  0
  -23.8956  -28.2221   26.9269 C   0  0  0  0  0  0  0  0  0  0  0  0
  -25.9844  -32.3541   22.1904 C   0  0  0  0  0  0  0  0  0  0  0  0
  -25.7466  -31.8282   24.6266 C   0  0  0  0  0  0  0  0  0  0  0  0
  -23.7140  -32.0816   23.2030 C   0  0  0  0  0  0  0  0  0  0  0  0
  -24.2146  -25.3655   24.4340 C   0  0  0  0  0  0  0  0  0  0  0  0
  -32.2279  -24.0531   20.6940 C   0  0  0  0  0  0  0  0  0  0  0  0
  -31.1477  -24.5495   19.7287 C   0  0  0  0  0  0  0  0  0  1  0  0
  -25.1614  -30.0252   22.9420 C   0  0  1  0  0  0  0  0  0  0  0  0
  -23.9015  -27.5786   25.5490 C   0  0  2  0  0  0  0  0  0  0  0  0
  -25.1653  -31.5544   23.2231 C   0  0  0  0  0  0  0  0  0  0  0  0
  -25.3538  -14.1663   19.9494 N   0  0  0  0  0  0  0  0  0  0  0  0
  -26.2201  -13.2176   20.3439 N   0  0  0  0  0  0  0  0  0  0  0  0
  -25.5007  -29.0217   20.7056 N   0  0  0  0  0  0  0  0  0  0  0  0
  -29.5111  -14.7854   19.1835 N   0  0  0  0  0  0  0  0  0  0  0  0
  -30.4610  -16.3710   20.7017 N   0  0  0  0  0  0  0  0  0  0  0  0
  -26.3994  -11.2471   21.6461 N   0  0  0  0  0  0  0  0  0  0  0  0
  -22.0664  -12.4249   22.1298 N   0  0  0  0  0  0  0  0  0  0  0  0
  -24.9837  -30.4182   17.4633 N   0  0  0  0  0  0  0  0  0  0  0  0
  -24.3711  -29.2457   23.8887 N   0  0  0  0  0  0  0  0  0  0  0  0
  -35.9379  -22.5472   18.5094 N   0  3  0  0  0  0  0  0  0  0  0  0
  -24.2002  -26.1274   25.7093 N   0  3  0  0  0  0  0  0  0  0  0  0
  -23.6566  -10.8871   22.7342 O   0  0  0  0  0  0  0  0  0  0  0  0
  -26.8204  -30.4326   18.8946 O   0  0  0  0  0  0  0  0  0  0  0  0
  -23.4697  -30.0124   21.2795 O   0  0  0  0  0  0  0  0  0  0  0  0
  -26.1033  -27.8781   24.6005 O   0  0  0  0  0  0  0  0  0  0  0  0
  -31.6687  -14.5520   19.9618 O   0  0  0  0  0  0  0  0  0  0  0  0
  -19.5783  -16.8455   19.8270 O   0  0  0  0  0  0  0  0  0  0  0  0
  -30.7819  -25.8811   20.0675 O   0  0  0  0  0  0  0  0  0  1  0  0
  -16.5331  -17.9628   24.2859 F   0  0  0  0  0  0  0  0  0  0  0  0
  -18.4785  -14.8097   21.3399 F   0  0  0  0  0  0  0  0  0  0  0  0
  1  2  1  0  0  0  0
  1  5  2  0  0  0  0
  2  6  2  0  0  0  0
  3  8  2  0  0  0  0
  3 16  1  0  0  0  0
  4  9  1  0  0  0  0
  4 16  2  0  0  0  0
  5 18  1  0  0  0  0
  6 20  1  0  0  0  0
  7 10  2  0  0  0  0
  7 19  1  0  0  0  0
  8 27  1  0  0  0  0
  9 27  2  0  0  0  0
 10 28  1  0  0  0  0
 11 12  2  0  0  0  0
 11 29  1  0  0  0  0
 12 30  1  0  0  0  0
 13 21  2  0  0  0  0
 13 22  1  0  0  0  0
 14 23  1  0  0  0  0
 14 28  2  0  0  0  0
 15 30  2  0  0  0  0
 15 31  1  0  0  0  0
 16 32  1  0  0  0  0
 17 32  1  0  0  0  0
 17 33  2  0  0  0  0
 17 34  1  0  0  0  0
 18 20  2  0  0  0  0
 18 39  1  0  0  0  0
 19 23  2  0  0  0  0
 19 40  1  0  0  0  0
 20 53  1  0  0  0  0
 21 24  1  0  0  0  0
 21 54  1  0  0  0  0
 22 25  2  0  0  0  0
 22 52  1  0  0  0  0
 23 41  1  0  0  0  0
 24 26  2  0  0  0  0
 24 57  1  0  0  0  0
 25 26  1  0  0  0  0
 25 58  1  0  0  0  0
 26 67  1  0  0  0  0
 27 88  1  0  0  0  0
 28 89  1  0  0  0  0
 29 31  2  0  0  0  0
 29 88  1  0  0  0  0
 30 90  1  0  0  0  0
 31 91  1  0  0  0  0
 32 72  2  0  0  0  0
 33 73  1  0  0  0  0
 33 77  1  0  0  0  0
 34 78  1  0  0  0  0
 34 83  2  0  0  0  0
 35 55  1  0  0  0  0
 35 79  1  0  0  0  0
 35 84  2  0  0  0  0
 36 69  1  0  0  0  0
 36 74  1  0  0  0  0
 36 85  2  0  0  0  0
 37 70  1  0  0  0  0
 37 80  1  0  0  0  0
 37 86  2  0  0  0  0
 38 75  1  0  0  0  0
 38 76  1  0  0  0  0
 38 87  2  0  0  0  0
 39 42  1  0  0  0  0
 40 55  1  0  0  0  0
 41 74  1  0  0  0  0
 42 44  1  0  0  0  0
 43 45  1  0  0  0  0
 43 48  1  0  0  0  0
 44 53  1  0  0  0  0
 45 56  1  0  0  0  0
 46 49  1  0  0  0  0
 46 52  1  0  0  0  0
 47 50  1  0  0  0  0
 47 52  1  0  0  0  0
 48 75  1  0  0  0  0
 49 76  1  0  0  0  0
 50 76  1  0  0  0  0
 51 56  1  0  0  0  0
 51 75  1  0  0  0  0
 53 79  1  0  0  0  0
 54 59  1  0  0  0  0
 54 81  1  0  0  0  0
 55 74  1  0  0  0  0
 56 73  1  0  0  0  0
 57 60  1  0  0  0  0
 57 61  1  0  0  0  0
 57 81  1  0  0  0  0
 62 70  1  0  0  0  0
 63 71  1  0  0  0  0
 64 71  1  0  0  0  0
 65 71  1  0  0  0  0
 66 82  1  0  0  0  0
 67 68  1  0  0  0  0
 68 89  1  0  0  0  0
 69 71  1  0  0  0  0
 69 80  1  0  0  0  0
 70 82  1  0  0  0  0
 72 73  1  0  0  0  0
M  CHG  2  81   1  82   1
M  ISO  4  38 100  68 101  76 100  89 101
M  END
> <Batch ID>
0164

> <Smiles>
CNC(C)C(=O)NC(C(=O)N1Cc2cc([101O:1][101CH2:1]Cc3c(C)c(C4CC[100N:0]([100C:0](=O)N5CCCC(n6nc(-c7ccc(Oc8ccc(F)cc8F)cc7)c(C(N)=O)c6N)C5)CC4)cc4c3C(C)(C)NC4C)ccc2CC1C(=O)NC1CCCc2ccccc21)C(C)(C)C

> <Shape>
0.214

> <Color>
0.087

> <Negative vol penalty>
0.000

$$$$

  -OEChem-04052322193D

 84 93  0     1  0  0  0  0  0999 V2000
  -35.3247  -28.3693   33.6755 C   0  0  0  0  0  0  0  0  0  0  0  0
  -34.8366  -27.1371   33.2524 C   0  0  0  0  0  0  0  0  0  0  0  0
  -22.9961   -9.8991   19.9816 C   0  0  0  0  0  0  0  0  0  0  0  0
  -23.7028   -9.9510   22.2913 C   0  0  0  0  0  0  0  0  0  0  0  0
  -35.4853  -29.4065   32.7578 C   0  0  0  0  0  0  0  0  0  0  0  0
  -34.5078  -26.9419   31.9114 C   0  0  0  0  0  0  0  0  0  0  0  0
  -35.1434  -21.7792   28.6790 C   0  0  0  0  0  0  0  0  0  0  0  0
  -22.2176   -8.7721   20.2451 C   0  0  0  0  0  0  0  0  0  0  0  0
  -22.9243   -8.8239   22.5548 C   0  0  0  0  0  0  0  0  0  0  0  0
  -34.2429  -20.7730   28.3319 C   0  0  0  0  0  0  0  0  0  0  0  0
  -23.1436   -5.4816   22.0951 C   0  0  0  0  0  0  0  0  0  0  0  0
  -23.7161   -4.4617   22.8551 C   0  0  0  0  0  0  0  0  0  0  0  0
  -29.7440  -15.9319   26.1028 C   0  0  0  0  0  0  0  0  0  0  0  0
  -33.8742  -21.8457   26.2029 C   0  0  0  0  0  0  0  0  0  0  0  0
  -21.9808   -4.7247   24.5153 C   0  0  0  0  0  0  0  0  0  0  0  0
  -23.7387  -10.4885   21.0047 C   0  0  0  0  0  0  0  0  0  0  0  0
  -24.1472  -13.0001   20.8243 C   0  0  0  0  0  0  0  0  0  0  0  0
  -35.1674  -29.2209   31.4031 C   0  0  0  0  0  0  0  0  0  0  0  0
  -35.4082  -22.8339   27.7936 C   0  0  0  0  0  0  0  0  0  0  0  0
  -34.6631  -27.9781   30.9750 C   0  0  0  0  0  0  0  0  0  0  0  0
  -30.9528  -16.1773   25.4515 C   0  0  0  0  0  0  0  0  0  0  0  0
  -34.7804  -22.8627   26.5401 C   0  0  0  0  0  0  0  0  0  0  0  0
  -29.4324  -16.6177   27.2768 C   0  0  0  0  0  0  0  0  0  0  0  0
  -31.8501  -17.1085   25.9743 C   0  0  0  0  0  0  0  0  0  0  0  0
  -30.3298  -17.5489   27.7996 C   0  0  0  0  0  0  0  0  0  0  0  0
  -31.5386  -17.7944   27.1483 C   0  0  0  0  0  0  0  0  0  0  0  0
  -22.1817   -8.2345   21.5317 C   0  0  0  0  0  0  0  0  0  0  0  0
  -33.6060  -20.8077   27.0949 C   0  0  0  0  0  0  0  0  0  0  0  0
  -21.9896   -6.1231   22.5452 C   0  0  0  0  0  0  0  0  0  0  0  0
  -23.1347   -4.0832   24.0652 C   0  0  0  0  0  0  0  0  0  0  0  0
  -21.4082   -5.7446   23.7553 C   0  0  0  0  0  0  0  0  0  0  0  0
  -24.5435  -11.6524   20.7330 C   0  0  0  0  0  0  0  0  0  0  0  0
  -25.2661  -13.7120   20.4668 C   0  0  0  0  0  0  0  0  0  0  0  0
  -22.8809  -13.5587   21.1987 C   0  0  0  0  0  0  0  0  0  0  0  0
  -35.0234  -25.9879   27.8827 C   0  0  0  0  0  0  0  0  0  0  0  0
  -36.6226  -25.8714   25.0629 C   0  0  0  0  0  0  0  0  0  0  0  0
  -37.5225  -24.0582   22.3153 C   0  0  0  0  0  0  0  0  0  0  0  0
  -30.8406  -14.4638   20.9335 C   0  0  0  0  0  0  0  0  0  0  0  0
  -35.3132  -30.3864   30.4570 C   0  0  0  0  0  0  0  0  0  0  0  0
  -36.4024  -23.8972   28.1722 C   0  0  0  0  0  0  0  0  0  0  0  0
  -35.0455  -23.9622   25.5455 C   0  0  0  0  0  0  0  0  0  0  0  0
  -35.2953  -29.9819   28.9851 C   0  0  0  0  0  0  0  0  0  0  0  0
  -29.6119  -12.2299   18.3972 C   0  0  0  0  0  0  0  0  0  0  0  0
  -34.1517  -29.0101   28.7124 C   0  0  0  0  0  0  0  0  0  0  0  0
  -28.1721  -11.9447   18.8111 C   0  0  0  0  0  0  0  0  0  0  0  0
  -30.5048  -12.4032   19.6185 C   0  0  0  0  0  0  0  0  0  0  0  0
  -30.1838  -14.5122   23.4685 C   0  0  0  0  0  0  0  0  0  0  0  0
  -31.3295  -16.1574   22.7800 C   0  0  0  0  0  0  0  0  0  0  0  0
  -28.5946  -13.2480   20.9568 C   0  0  0  0  0  0  0  0  0  0  0  0
  -31.2841  -15.3854   24.1188 C   0  0  0  0  0  0  0  0  0  0  0  0
  -34.3187  -27.7199   29.5242 C   0  0  1  0  0  0  0  0  0  0  0  0
  -36.2079  -25.1989   27.4007 C   0  0  1  0  0  0  0  0  0  0  0  0
  -27.6559  -13.0434   19.7512 C   0  0  2  0  0  0  0  0  0  0  0  0
  -28.1317  -16.3360   27.9544 C   0  0  0  0  0  0  0  0  0  0  0  0
  -33.1450  -17.3677   25.2719 C   0  0  0  0  0  0  0  0  0  0  0  0
  -29.9929  -18.2836   29.0585 C   0  0  0  0  0  0  0  0  0  0  0  0
  -38.8013  -24.2449   20.1642 C   0  0  0  0  0  0  0  0  0  0  0  0
  -34.3237  -27.4594   23.8369 C   0  0  0  0  0  0  0  0  0  0  0  0
  -35.1670  -26.7996   21.5738 C   0  0  0  0  0  0  0  0  0  0  0  0
  -36.6004  -28.1712   23.0859 C   0  0  0  0  0  0  0  0  0  0  0  0
  -39.4153  -21.9304   23.1210 C   0  0  0  0  0  0  0  0  0  0  0  0
  -32.5013  -18.7930   27.7087 C   0  0  0  0  0  0  0  0  0  1  0  0
  -36.2253  -25.7273   23.6137 C   0  0  1  0  0  0  0  0  0  0  0  0
  -38.8647  -23.8605   21.6342 C   0  0  2  0  0  0  0  0  0  0  0  0
  -35.5724  -27.0195   23.0469 C   0  0  0  0  0  0  0  0  0  0  0  0
  -25.8148  -11.5137   20.3477 N   0  0  0  0  0  0  0  0  0  0  0  0
  -26.2271  -12.7835   20.1935 N   0  0  0  0  0  0  0  0  0  0  0  0
  -36.0208  -24.9823   25.9646 N   0  0  0  0  0  0  0  0  0  0  0  0
  -29.9918  -13.4243   20.5370 N   0  0  0  0  0  0  0  0  0  0  0  0
  -30.6725  -14.9979   22.1893 N   0  0  0  0  0  0  0  0  0  0  0  0
  -25.5119  -15.0353   20.3626 N   0  0  0  0  0  0  0  0  0  0  0  0
  -21.8387  -12.6845   21.5365 N   0  0  0  0  0  0  0  0  0  0  0  0
  -35.3117  -26.8629   28.9126 N   0  0  0  0  0  0  0  0  0  0  0  0
  -37.4256  -25.3024   22.9016 N   0  0  0  0  0  0  0  0  0  0  0  0
  -39.2889  -22.4351   21.7294 N   0  3  0  0  0  0  0  0  0  0  0  0
  -22.6747  -14.7958   21.2170 O   0  0  0  0  0  0  0  0  0  0  0  0
  -33.9293  -25.8165   27.3581 O   0  0  0  0  0  0  0  0  0  0  0  0
  -37.4424  -26.7361   25.3821 O   0  0  0  0  0  0  0  0  0  0  0  0
  -36.6462  -23.1965   22.3230 O   0  0  0  0  0  0  0  0  0  0  0  0
  -31.7444  -14.8851   20.1994 O   0  0  0  0  0  0  0  0  0  0  0  0
  -21.4220   -7.1349   21.7892 O   0  0  0  0  0  0  0  0  0  0  0  0
  -32.7197  -19.8199   26.7513 O   0  0  0  0  0  0  0  0  0  1  0  0
  -23.6838   -3.1027   24.7941 F   0  0  0  0  0  0  0  0  0  0  0  0
  -20.2990   -6.3564   24.1924 F   0  0  0  0  0  0  0  0  0  0  0  0
  1  2  1  0  0  0  0
  1  5  2  0  0  0  0
  2  6  2  0  0  0  0
  3  8  2  0  0  0  0
  3 16  1  0  0  0  0
  4  9  1  0  0  0  0
  4 16  2  0  0  0  0
  5 18  1  0  0  0  0
  6 20  1  0  0  0  0
  7 10  2  0  0  0  0
  7 19  1  0  0  0  0
  8 27  1  0  0  0  0
  9 27  2  0  0  0  0
 10 28  1  0  0  0  0
 11 12  2  0  0  0  0
 11 29  1  0  0  0  0
 12 30  1  0  0  0  0
 13 21  2  0  0  0  0
 13 23  1  0  0  0  0
 14 22  1  0  0  0  0
 14 28  2  0  0  0  0
 15 30  2  0  0  0  0
 15 31  1  0  0  0  0
 16 32  1  0  0  0  0
 17 32  1  0  0  0  0
 17 33  2  0  0  0  0
 17 34  1  0  0  0  0
 18 20  2  0  0  0  0
 18 39  1  0  0  0  0
 19 22  2  0  0  0  0
 19 40  1  0  0  0  0
 20 51  1  0  0  0  0
 21 24  1  0  0  0  0
 21 50  1  0  0  0  0
 22 41  1  0  0  0  0
 23 25  2  0  0  0  0
 23 54  1  0  0  0  0
 24 26  2  0  0  0  0
 24 55  1  0  0  0  0
 25 26  1  0  0  0  0
 25 56  1  0  0  0  0
 26 62  1  0  0  0  0
 27 81  1  0  0  0  0
 28 82  1  0  0  0  0
 29 31  2  0  0  0  0
 29 81  1  0  0  0  0
 30 83  1  0  0  0  0
 31 84  1  0  0  0  0
 32 66  2  0  0  0  0
 33 67  1  0  0  0  0
 33 71  1  0  0  0  0
 34 72  1  0  0  0  0
 34 76  2  0  0  0  0
 35 52  1  0  0  0  0
 35 73  1  0  0  0  0
 35 77  2  0  0  0  0
 36 63  1  0  0  0  0
 36 68  1  0  0  0  0
 36 78  2  0  0  0  0
 37 64  1  0  0  0  0
 37 74  1  0  0  0  0
 37 79  2  0  0  0  0
 38 69  1  0  0  0  0
 38 70  1  0  0  0  0
 38 80  2  0  0  0  0
 39 42  1  0  0  0  0
 40 52  1  0  0  0  0
 41 68  1  0  0  0  0
 42 44  1  0  0  0  0
 43 45  1  0  0  0  0
 43 46  1  0  0  0  0
 44 51  1  0  0  0  0
 45 53  1  0  0  0  0
 46 69  1  0  0  0  0
 47 50  1  0  0  0  0
 47 70  1  0  0  0  0
 48 50  1  0  0  0  0
 48 70  1  0  0  0  0
 49 53  1  0  0  0  0
 49 69  1  0  0  0  0
 51 73  1  0  0  0  0
 52 68  1  0  0  0  0
 53 67  1  0  0  0  0
 57 64  1  0  0  0  0
 58 65  1  0  0  0  0
 59 65  1  0  0  0  0
 60 65  1  0  0  0  0
 61 75  1  0  0  0  0
 62 82  1  0  0  0  0
 63 65  1  0  0  0  0
 63 74  1  0  0  0  0
 64 75  1  0  0  0  0
 66 67  1  0  0  0  0
M  CHG  1  75   1
M  ISO  4  38 100  62 101  70 100  82 101
M  END
> <Batch ID>
0164

> <Smiles>
CNC(C)C(=O)NC(C(=O)N1Cc2cc([101O:1][101CH2:1]c3c(C)c(C)cc(C4C[100N:0]([100C:0](=O)N5CCCC(n6nc(-c7ccc(Oc8ccc(F)cc8F)cc7)c(C(N)=O)c6N)C5)C4)c3C)ccc2CC1C(=O)NC1CCCc2ccccc21)C(C)(C)C

> <Shape>
0.162

> <Color>
0.206

> <Negative vol penalty>
0.000

$$$$

  -OEChem-04052322193D

 85 94  0     1  0  0  0  0  0999 V2000
  -26.1081  -35.8390   15.8559 C   0  0  0  0  0  0  0  0  0  0  0  0
  -26.2749  -34.4591   15.7964 C   0  0  0  0  0  0  0  0  0  0  0  0
  -22.8712  -17.3025   19.5605 C   0  0  0  0  0  0  0  0  0  0  0  0
  -22.1234  -15.0905   20.1808 C   0  0  0  0  0  0  0  0  0  0  0  0
  -26.2809  -36.5093   17.0662 C   0  0  0  0  0  0  0  0  0  0  0  0
  -26.6157  -33.7488   16.9469 C   0  0  0  0  0  0  0  0  0  0  0  0
  -24.8175  -28.0904   18.4483 C   0  0  0  0  0  0  0  0  0  0  0  0
  -21.7375  -17.4623   18.7637 C   0  0  0  0  0  0  0  0  0  0  0  0
  -20.9897  -15.2503   19.3841 C   0  0  0  0  0  0  0  0  0  0  0  0
  -25.4368  -26.8470   18.3299 C   0  0  0  0  0  0  0  0  0  0  0  0
  -18.4676  -18.2019   19.2039 C   0  0  0  0  0  0  0  0  0  0  0  0
  -17.7788  -19.4115   19.2918 C   0  0  0  0  0  0  0  0  0  0  0  0
  -26.1973  -27.0150   20.6130 C   0  0  0  0  0  0  0  0  0  0  0  0
  -27.7009  -22.1716   20.8585 C   0  0  0  0  0  0  0  0  0  0  0  0
  -18.1693  -19.8048   16.9402 C   0  0  0  0  0  0  0  0  0  0  0  0
  -23.0642  -16.1166   20.2690 C   0  0  0  0  0  0  0  0  0  0  0  0
  -24.3729  -16.2854   22.4522 C   0  0  0  0  0  0  0  0  0  0  0  0
  -26.6146  -35.8057   18.2342 C   0  0  0  0  0  0  0  0  0  0  0  0
  -24.8928  -28.8116   19.6486 C   0  0  0  0  0  0  0  0  0  0  0  0
  -26.7945  -34.4105   18.1737 C   0  0  0  0  0  0  0  0  0  0  0  0
  -25.5759  -28.2662   20.7449 C   0  0  0  0  0  0  0  0  0  0  0  0
  -29.2435  -20.9133   19.5088 C   0  0  0  0  0  0  0  0  0  0  0  0
  -28.3091  -20.9632   20.5373 C   0  0  0  0  0  0  0  0  0  0  0  0
  -20.7968  -16.4363   18.6755 C   0  0  0  0  0  0  0  0  0  0  0  0
  -26.1293  -26.3104   19.4114 C   0  0  0  0  0  0  0  0  0  0  0  0
  -19.0074  -17.7936   17.9841 C   0  0  0  0  0  0  0  0  0  0  0  0
  -17.6296  -20.2130   18.1600 C   0  0  0  0  0  0  0  0  0  0  0  0
  -18.8582  -18.5951   16.8523 C   0  0  0  0  0  0  0  0  0  0  0  0
  -24.2353  -15.9506   21.0918 C   0  0  0  0  0  0  0  0  0  0  0  0
  -28.0589  -23.2925   20.1269 C   0  0  0  0  0  0  0  0  0  0  0  0
  -29.5323  -22.0905   18.8375 C   0  0  0  0  0  0  0  0  0  0  0  0
  -25.6640  -15.9352   22.7632 C   0  0  0  0  0  0  0  0  0  0  0  0
  -23.4188  -16.8614   23.3542 C   0  0  0  0  0  0  0  0  0  0  0  0
  -26.0951  -31.6277   20.5017 C   0  0  0  0  0  0  0  0  0  0  0  0
  -24.6852  -30.9319   23.3390 C   0  0  0  0  0  0  0  0  0  0  0  0
  -23.4939  -28.5525   25.4758 C   0  0  0  0  0  0  0  0  0  0  0  0
  -30.6312  -15.4004   19.6976 C   0  0  0  0  0  0  0  0  0  0  0  0
  -26.8373  -36.5797   19.5093 C   0  0  0  0  0  0  0  0  0  0  0  0
  -24.1967  -30.1396   19.7687 C   0  0  0  0  0  0  0  0  0  0  0  0
  -25.6691  -28.9913   22.0618 C   0  0  0  0  0  0  0  0  0  0  0  0
  -26.8308  -35.7061   20.7611 C   0  0  0  0  0  0  0  0  0  0  0  0
  -29.1291  -12.8833   21.5304 C   0  0  0  0  0  0  0  0  0  0  0  0
  -27.6891  -34.4630   20.5491 C   0  0  0  0  0  0  0  0  0  0  0  0
  -27.7119  -13.4051   21.7676 C   0  0  0  0  0  0  0  0  0  0  0  0
  -30.7691  -19.0499   20.2956 C   0  0  0  0  0  0  0  0  0  0  0  0
  -28.9202  -18.5554   18.6409 C   0  0  0  0  0  0  0  0  0  0  0  0
  -29.5938  -13.1895   20.1111 C   0  0  0  0  0  0  0  0  0  0  0  0
  -31.4291  -17.7257   19.9187 C   0  0  0  0  0  0  0  0  0  0  0  0
  -29.6223  -17.2442   18.3002 C   0  0  0  0  0  0  0  0  0  0  0  0
  -28.1239  -15.1741   19.9886 C   0  0  0  0  0  0  0  0  0  0  0  0
  -29.9253  -19.6098   19.1374 C   0  0  0  0  0  0  0  0  0  0  0  0
  -27.1398  -33.6019   19.4053 C   0  0  1  0  0  0  0  0  0  0  0  0
  -24.7731  -31.0185   20.8744 C   0  0  1  0  0  0  0  0  0  0  0  0
  -27.6076  -14.8994   21.4151 C   0  0  1  0  0  0  0  0  0  0  0  0
  -27.9407  -19.7381   21.3070 C   0  0  0  0  0  0  0  0  0  0  0  0
  -30.5287  -22.1002   17.7246 C   0  0  0  0  0  0  0  0  0  0  0  0
  -22.4349  -28.2864   27.7352 C   0  0  0  0  0  0  0  0  0  0  0  0
  -27.3889  -31.4305   24.6623 C   0  0  0  0  0  0  0  0  0  0  0  0
  -26.5307  -30.2541   26.6989 C   0  0  0  0  0  0  0  0  0  0  0  0
  -25.4292  -32.3502   25.9145 C   0  0  0  0  0  0  0  0  0  0  0  0
  -21.0618  -27.3249   24.3197 C   0  0  0  0  0  0  0  0  0  0  0  0
  -27.4276  -24.6067   20.4448 C   0  0  0  0  0  0  0  0  0  1  0  0
  -25.1117  -30.2155   24.5975 C   0  0  1  0  0  0  0  0  0  0  0  0
  -22.1883  -28.4509   26.2436 C   0  0  2  0  0  0  0  0  0  0  0  0
  -26.1152  -31.0495   25.4430 C   0  0  0  0  0  0  0  0  0  0  0  0
  -25.3502  -15.4280   20.5741 N   0  0  0  0  0  0  0  0  0  0  0  0
  -28.9622  -23.2831   19.1211 N   0  0  0  0  0  0  0  0  0  0  0  0
  -26.2006  -15.4319   21.6147 N   0  0  0  0  0  0  0  0  0  0  0  0
  -24.9772  -30.2892   22.1276 N   0  0  0  0  0  0  0  0  0  0  0  0
  -29.4732  -14.6165   19.8134 N   0  0  0  0  0  0  0  0  0  0  0  0
  -30.4479  -16.7644   19.4169 N   0  0  0  0  0  0  0  0  0  0  0  0
  -26.3814  -16.0119   23.9042 N   0  0  0  0  0  0  0  0  0  0  0  0
  -22.1376  -17.1597   22.8706 N   0  0  0  0  0  0  0  0  0  0  0  0
  -25.9914  -32.8424   19.8511 N   0  0  0  0  0  0  0  0  0  0  0  0
  -23.8841  -29.8636   25.3029 N   0  0  0  0  0  0  0  0  0  0  0  0
  -21.3963  -27.2822   25.7665 N   0  3  0  0  0  0  0  0  0  0  0  0
  -23.6993  -17.1196   24.5493 O   0  0  0  0  0  0  0  0  0  0  0  0
  -27.1325  -31.0400   20.7848 O   0  0  0  0  0  0  0  0  0  0  0  0
  -24.1076  -32.0182   23.4277 O   0  0  0  0  0  0  0  0  0  0  0  0
  -24.1083  -27.5671   25.0732 O   0  0  0  0  0  0  0  0  0  0  0  0
  -31.7604  -14.9154   19.8412 O   0  0  0  0  0  0  0  0  0  0  0  0
  -19.6903  -16.5920   17.8983 O   0  0  0  0  0  0  0  0  0  0  0  0
  -26.7395  -25.0887   19.2975 O   0  0  0  0  0  0  0  0  0  1  0  0
  -16.9668  -21.3739   18.2442 F   0  0  0  0  0  0  0  0  0  0  0  0
  -19.3735  -18.2076   15.6775 F   0  0  0  0  0  0  0  0  0  0  0  0
  1  2  1  0  0  0  0
  1  5  2  0  0  0  0
  2  6  2  0  0  0  0
  3  8  2  0  0  0  0
  3 16  1  0  0  0  0
  4  9  1  0  0  0  0
  4 16  2  0  0  0  0
  5 18  1  0  0  0  0
  6 20  1  0  0  0  0
  7 10  2  0  0  0  0
  7 19  1  0  0  0  0
  8 24  1  0  0  0  0
  9 24  2  0  0  0  0
 10 25  1  0  0  0  0
 11 12  2  0  0  0  0
 11 26  1  0  0  0  0
 12 27  1  0  0  0  0
 13 21  1  0  0  0  0
 13 25  2  0  0  0  0
 14 23  2  0  0  0  0
 14 30  1  0  0  0  0
 15 27  2  0  0  0  0
 15 28  1  0  0  0  0
 16 29  1  0  0  0  0
 17 29  1  0  0  0  0
 17 32  2  0  0  0  0
 17 33  1  0  0  0  0
 18 20  2  0  0  0  0
 18 38  1  0  0  0  0
 19 21  2  0  0  0  0
 19 39  1  0  0  0  0
 20 52  1  0  0  0  0
 21 40  1  0  0  0  0
 22 23  1  0  0  0  0
 22 31  2  0  0  0  0
 22 51  1  0  0  0  0
 23 55  1  0  0  0  0
 24 82  1  0  0  0  0
 25 83  1  0  0  0  0
 26 28  2  0  0  0  0
 26 82  1  0  0  0  0
 27 84  1  0  0  0  0
 28 85  1  0  0  0  0
 29 66  2  0  0  0  0
 30 62  1  0  0  0  0
 30 67  2  0  0  0  0
 31 56  1  0  0  0  0
 31 67  1  0  0  0  0
 32 68  1  0  0  0  0
 32 72  1  0  0  0  0
 33 73  1  0  0  0  0
 33 77  2  0  0  0  0
 34 53  1  0  0  0  0
 34 74  1  0  0  0  0
 34 78  2  0  0  0  0
 35 63  1  0  0  0  0
 35 69  1  0  0  0  0
 35 79  2  0  0  0  0
 36 64  1  0  0  0  0
 36 75  1  0  0  0  0
 36 80  2  0  0  0  0
 37 70  1  0  0  0  0
 37 71  1  0  0  0  0
 37 81  2  0  0  0  0
 38 41  1  0  0  0  0
 39 53  1  0  0  0  0
 40 69  1  0  0  0  0
 41 43  1  0  0  0  0
 42 44  1  0  0  0  0
 42 47  1  0  0  0  0
 43 52  1  0  0  0  0
 44 54  1  0  0  0  0
 45 48  1  0  0  0  0
 45 51  1  0  0  0  0
 46 49  1  0  0  0  0
 46 51  1  0  0  0  0
 47 70  1  0  0  0  0
 48 71  1  0  0  0  0
 49 71  1  0  0  0  0
 50 54  1  0  0  0  0
 50 70  1  0  0  0  0
 52 74  1  0  0  0  0
 53 69  1  0  0  0  0
 54 68  1  0  0  0  0
 57 64  1  0  0  0  0
 58 65  1  0  0  0  0
 59 65  1  0  0  0  0
 60 65  1  0  0  0  0
 61 76  1  0  0  0  0
 62 83  1  0  0  0  0
 63 65  1  0  0  0  0
 63 75  1  0  0  0  0
 64 76  1  0  0  0  0
 66 68  1  0  0  0  0
M  CHG  1  76   1
M  ISO  4  37 100  62 101  71 100  83 101
M  END
> <Batch ID>
0164

> <Smiles>
CNC(C)C(=O)NC(C(=O)N1Cc2cc([101O:1][101CH2:1]c3cc(C)c(C4CC[100N:0]([100C:0](=O)N5CCCC(n6nc(-c7ccc(Oc8ccc(F)cc8F)cc7)c(C(N)=O)c6N)C5)CC4)c(C)n3)ccc2CC1C(=O)NC1CCCc2ccccc21)C(C)(C)C

> <Shape>
0.212

> <Color>
0.105

> <Negative vol penalty>
0.000

$$$$

  -OEChem-04052322193D

 90 99  0     1  0  0  0  0  0999 V2000
  -31.6480   -0.5482   34.3725 C   0  0  0  0  0  0  0  0  0  0  0  0
  -31.0507   -1.1266   33.2572 C   0  0  0  0  0  0  0  0  0  0  0  0
  -23.1911   -9.8193   19.9317 C   0  0  0  0  0  0  0  0  0  0  0  0
  -23.5701   -9.9993   22.3110 C   0  0  0  0  0  0  0  0  0  0  0  0
  -31.7533   -1.2719   35.5595 C   0  0  0  0  0  0  0  0  0  0  0  0
  -30.5572   -2.4289   33.3286 C   0  0  0  0  0  0  0  0  0  0  0  0
  -30.5416   -6.6105   28.8543 C   0  0  0  0  0  0  0  0  0  0  0  0
  -22.4253   -8.6723   20.1404 C   0  0  0  0  0  0  0  0  0  0  0  0
  -22.8043   -8.8523   22.5197 C   0  0  0  0  0  0  0  0  0  0  0  0
  -29.5558   -7.0218   27.9583 C   0  0  0  0  0  0  0  0  0  0  0  0
  -23.2066   -5.5058   22.2547 C   0  0  0  0  0  0  0  0  0  0  0  0
  -23.7056   -4.5445   23.1335 C   0  0  0  0  0  0  0  0  0  0  0  0
  -32.4336  -10.3569   25.0611 C   0  0  0  0  0  0  0  0  0  0  0  0
  -28.9959   -8.8538   29.4244 C   0  0  0  0  0  0  0  0  0  0  0  0
  -32.4910   -9.7750   27.7888 C   0  0  0  0  0  0  0  0  0  0  0  0
  -21.7494   -4.8034   24.5276 C   0  0  0  0  0  0  0  0  0  0  0  0
  -23.7635  -10.4828   21.0170 C   0  0  0  0  0  0  0  0  0  0  0  0
  -24.1012  -12.9996   20.7737 C   0  0  0  0  0  0  0  0  0  0  0  0
  -31.2696   -2.5871   35.6427 C   0  0  0  0  0  0  0  0  0  0  0  0
  -30.7549   -7.3126   30.0493 C   0  0  0  0  0  0  0  0  0  0  0  0
  -30.6549   -3.1704   34.5183 C   0  0  0  0  0  0  0  0  0  0  0  0
  -31.8332  -11.2257   25.9722 C   0  0  0  0  0  0  0  0  0  0  0  0
  -29.9867   -8.4509   30.3327 C   0  0  0  0  0  0  0  0  0  0  0  0
  -33.0626   -9.1971   25.5137 C   0  0  0  0  0  0  0  0  0  0  0  0
  -31.8619  -10.9348   27.3361 C   0  0  0  0  0  0  0  0  0  0  0  0
  -33.0913   -8.9062   26.8776 C   0  0  0  0  0  0  0  0  0  0  0  0
  -22.2319   -8.1888   21.4344 C   0  0  0  0  0  0  0  0  0  0  0  0
  -28.7808   -8.1419   28.2446 C   0  0  0  0  0  0  0  0  0  0  0  0
  -21.9789   -6.1160   22.5123 C   0  0  0  0  0  0  0  0  0  0  0  0
  -22.9770   -4.1932   24.2699 C   0  0  0  0  0  0  0  0  0  0  0  0
  -21.2504   -5.7648   23.6487 C   0  0  0  0  0  0  0  0  0  0  0  0
  -24.5551  -11.6674   20.8020 C   0  0  0  0  0  0  0  0  0  0  0  0
  -25.2320  -13.7428   20.5382 C   0  0  0  0  0  0  0  0  0  0  0  0
  -22.7758  -13.5190   20.9451 C   0  0  0  0  0  0  0  0  0  0  0  0
  -30.5468   -6.5967   33.1393 C   0  0  0  0  0  0  0  0  0  0  0  0
  -31.7961   -9.5670   33.5122 C   0  0  0  0  0  0  0  0  0  0  0  0
  -32.2726  -12.6920   32.2262 C   0  0  0  0  0  0  0  0  0  0  0  0
  -31.0437  -12.7760   21.5639 C   0  0  0  0  0  0  0  0  0  0  0  0
  -31.3635   -3.3130   36.9613 C   0  0  0  0  0  0  0  0  0  0  0  0
  -31.8402   -6.8718   30.9928 C   0  0  0  0  0  0  0  0  0  0  0  0
  -30.1898   -9.2511   31.5924 C   0  0  0  0  0  0  0  0  0  0  0  0
  -31.1522   -4.8202   36.8433 C   0  0  0  0  0  0  0  0  0  0  0  0
  -29.5207  -13.4696   18.4316 C   0  0  0  0  0  0  0  0  0  0  0  0
  -29.9358   -5.1223   35.9739 C   0  0  0  0  0  0  0  0  0  0  0  0
  -28.0336  -13.2116   18.6806 C   0  0  0  0  0  0  0  0  0  0  0  0
  -31.4750  -14.5064   24.5450 C   0  0  0  0  0  0  0  0  0  0  0  0
  -31.6760  -13.9255   25.9566 C   0  0  0  0  0  0  0  0  0  0  0  0
  -30.4002  -12.4796   19.1923 C   0  0  0  0  0  0  0  0  0  0  0  0
  -28.6469  -12.1386   20.8882 C   0  0  0  0  0  0  0  0  0  0  0  0
  -30.1299   -4.5894   34.5491 C   0  0  1  0  0  0  0  0  0  0  0  0
  -31.6241   -7.3598   32.4220 C   0  0  1  0  0  0  0  0  0  0  0  0
  -27.7198  -13.1468   20.1877 C   0  0  2  0  0  0  0  0  0  0  0  0
  -31.5643  -13.0652   24.0039 C   0  0  1  0  0  0  0  0  0  0  0  0
  -31.1153  -12.5569   25.4286 C   0  0  1  0  0  0  0  0  0  0  0  0
  -33.6976   -8.2814   24.5194 C   0  0  0  0  0  0  0  0  0  0  0  0
  -31.2260  -11.8526   28.3277 C   0  0  0  0  0  0  0  0  0  0  0  0
  -33.7578   -7.6700   27.3858 C   0  0  0  0  0  0  0  0  0  0  0  0
  -33.1534  -15.0367   32.0711 C   0  0  0  0  0  0  0  0  0  0  0  0
  -27.5850   -9.0901   23.6402 C   0  0  0  0  0  0  0  0  0  0  0  0
  -29.4544  -10.1826   35.3689 C   0  0  0  0  0  0  0  0  0  0  0  0
  -29.9912  -12.6158   35.1250 C   0  0  0  0  0  0  0  0  0  0  0  0
  -31.6611  -11.0681   36.1441 C   0  0  0  0  0  0  0  0  0  0  0  0
  -34.7205  -11.8031   30.8203 C   0  0  0  0  0  0  0  0  0  0  0  0
  -29.6008  -12.4223   25.6566 C   0  0  0  0  0  0  0  0  0  0  0  0
  -27.7375  -10.7623   25.5508 C   0  0  0  0  0  0  0  0  0  0  0  0
  -28.0386   -8.2720   25.9889 C   0  0  0  0  0  0  0  0  0  1  0  0
  -31.2246  -10.9568   33.6563 C   0  0  1  0  0  0  0  0  0  0  0  0
  -33.5136  -13.5601   32.1223 C   0  0  2  0  0  0  0  0  0  0  0  0
  -27.3458   -9.3401   25.1335 C   0  0  2  0  0  0  0  0  0  0  0  0
  -30.5774  -11.1898   35.0507 C   0  0  0  0  0  0  0  0  0  0  0  0
  -25.8717  -11.5668   20.6004 N   0  0  0  0  0  0  0  0  0  0  0  0
  -26.2547  -12.8454   20.4431 N   0  0  0  0  0  0  0  0  0  0  0  0
  -31.2590   -8.7764   32.4863 N   0  0  0  0  0  0  0  0  0  0  0  0
  -30.0537  -12.4729   20.6159 N   0  0  0  0  0  0  0  0  0  0  0  0
  -25.4414  -15.0697   20.4052 N   0  0  0  0  0  0  0  0  0  0  0  0
  -21.7296  -12.6163   21.1792 N   0  0  0  0  0  0  0  0  0  0  0  0
  -30.9987   -5.4675   33.7951 N   0  0  0  0  0  0  0  0  0  0  0  0
  -32.3096  -11.8792   33.3394 N   0  0  0  0  0  0  0  0  0  0  0  0
  -30.6383  -12.7586   22.8944 N   0  0  0  0  0  0  0  0  0  0  0  0
  -34.2816  -13.2206   30.8911 N   0  3  0  0  0  0  0  0  0  0  0  0
  -29.1742  -11.0380   25.3123 N   0  3  0  0  0  0  0  0  0  0  0  0
  -22.5241  -14.7459   20.8758 O   0  0  0  0  0  0  0  0  0  0  0  0
  -29.3913   -7.0031   33.1018 O   0  0  0  0  0  0  0  0  0  0  0  0
  -32.6912   -9.1989   34.2770 O   0  0  0  0  0  0  0  0  0  0  0  0
  -31.3598  -12.7337   31.4042 O   0  0  0  0  0  0  0  0  0  0  0  0
  -32.2077  -13.0516   21.2534 O   0  0  0  0  0  0  0  0  0  0  0  0
  -21.4845   -7.0697   21.6384 O   0  0  0  0  0  0  0  0  0  0  0  0
  -27.8176   -8.5451   27.3720 O   0  0  0  0  0  0  0  0  0  1  0  0
  -23.4556   -3.2689   25.1130 F   0  0  0  0  0  0  0  0  0  0  0  0
  -20.0698   -6.3467   23.9009 F   0  0  0  0  0  0  0  0  0  0  0  0
  1  2  1  0  0  0  0
  1  5  2  0  0  0  0
  2  6  2  0  0  0  0
  3  8  2  0  0  0  0
  3 17  1  0  0  0  0
  4  9  1  0  0  0  0
  4 17  2  0  0  0  0
  5 19  1  0  0  0  0
  6 21  1  0  0  0  0
  7 10  2  0  0  0  0
  7 20  1  0  0  0  0
  8 27  1  0  0  0  0
  9 27  2  0  0  0  0
 10 28  1  0  0  0  0
 11 12  2  0  0  0  0
 11 29  1  0  0  0  0
 12 30  1  0  0  0  0
 13 22  1  0  0  0  0
 13 24  2  0  0  0  0
 14 23  1  0  0  0  0
 14 28  2  0  0  0  0
 15 25  1  0  0  0  0
 15 26  2  0  0  0  0
 16 30  2  0  0  0  0
 16 31  1  0  0  0  0
 17 32  1  0  0  0  0
 18 32  1  0  0  0  0
 18 33  2  0  0  0  0
 18 34  1  0  0  0  0
 19 21  2  0  0  0  0
 19 39  1  0  0  0  0
 20 23  2  0  0  0  0
 20 40  1  0  0  0  0
 21 50  1  0  0  0  0
 22 25  2  0  0  0  0
 22 54  1  0  0  0  0
 23 41  1  0  0  0  0
 24 26  1  0  0  0  0
 24 55  1  0  0  0  0
 25 56  1  0  0  0  0
 26 57  1  0  0  0  0
 27 87  1  0  0  0  0
 28 88  1  0  0  0  0
 29 31  2  0  0  0  0
 29 87  1  0  0  0  0
 30 89  1  0  0  0  0
 31 90  1  0  0  0  0
 32 71  2  0  0  0  0
 33 72  1  0  0  0  0
 33 75  1  0  0  0  0
 34 76  1  0  0  0  0
 34 82  2  0  0  0  0
 35 51  1  0  0  0  0
 35 77  1  0  0  0  0
 35 83  2  0  0  0  0
 36 67  1  0  0  0  0
 36 73  1  0  0  0  0
 36 84  2  0  0  0  0
 37 68  1  0  0  0  0
 37 78  1  0  0  0  0
 37 85  2  0  0  0  0
 38 74  1  0  0  0  0
 38 79  1  0  0  0  0
 38 86  2  0  0  0  0
 39 42  1  0  0  0  0
 40 51  1  0  0  0  0
 41 73  1  0  0  0  0
 42 44  1  0  0  0  0
 43 45  1  0  0  0  0
 43 48  1  0  0  0  0
 44 50  1  0  0  0  0
 45 52  1  0  0  0  0
 46 47  1  0  0  0  0
 46 53  1  0  0  0  0
 47 54  1  0  0  0  0
 48 74  1  0  0  0  0
 49 52  1  0  0  0  0
 49 74  1  0  0  0  0
 50 77  1  0  0  0  0
 51 73  1  0  0  0  0
 52 72  1  0  0  0  0
 53 54  1  0  0  0  0
 53 79  1  0  0  0  0
 54 64  1  0  0  0  0
 58 68  1  0  0  0  0
 59 69  1  0  0  0  0
 60 70  1  0  0  0  0
 61 70  1  0  0  0  0
 62 70  1  0  0  0  0
 63 80  1  0  0  0  0
 64 81  1  0  0  0  0
 65 69  1  0  0  0  0
 65 81  1  0  0  0  0
 66 69  1  0  0  0  0
 66 88  1  0  0  0  0
 67 70  1  0  0  0  0
 67 78  1  0  0  0  0
 68 80  1  0  0  0  0
 71 72  1  0  0  0  0
M  CHG  2  80   1  81   1
M  ISO  4  38 100  66 101  79 100  88 101
M  END
> <Batch ID>
0164

> <Smiles>
CNC(C)C(=O)NC(C(=O)N1Cc2cc([101O:1][101CH2:1]C(C)CNCC3(c4cc(C)c(C)cc4C)CCC3[100NH:0][100C:0](=O)N3CCCC(n4nc(-c5ccc(Oc6ccc(F)cc6F)cc5)c(C(N)=O)c4N)C3)ccc2CC1C(=O)NC1CCCc2ccccc21)C(C)(C)C

> <Shape>
0.137

> <Color>
0.175

> <Negative vol penalty>
0.000

$$$$

  -OEChem-04052322193D

 87 97  0     1  0  0  0  0  0999 V2000
  -29.9163  -34.7669   25.4253 C   0  0  0  0  0  0  0  0  0  0  0  0
  -29.4690  -33.5424   24.9395 C   0  0  0  0  0  0  0  0  0  0  0  0
  -23.9652   -9.5245   22.2919 C   0  0  0  0  0  0  0  0  0  0  0  0
  -23.5200   -9.4377   19.9189 C   0  0  0  0  0  0  0  0  0  0  0  0
  -28.9987  -35.7092   25.8880 C   0  0  0  0  0  0  0  0  0  0  0  0
  -28.1039  -33.2590   24.9172 C   0  0  0  0  0  0  0  0  0  0  0  0
  -26.6274  -31.1558   20.5536 C   0  0  0  0  0  0  0  0  0  0  0  0
  -22.9787   -8.5634   22.5122 C   0  0  0  0  0  0  0  0  0  0  0  0
  -22.5335   -8.4765   20.1391 C   0  0  0  0  0  0  0  0  0  0  0  0
  -26.9042  -29.8012   20.3739 C   0  0  0  0  0  0  0  0  0  0  0  0
  -22.6645   -5.2079   22.2377 C   0  0  0  0  0  0  0  0  0  0  0  0
  -22.9637   -4.1594   23.1075 C   0  0  0  0  0  0  0  0  0  0  0  0
  -27.6100  -25.1633   18.5552 C   0  0  0  0  0  0  0  0  0  0  0  0
  -27.7125  -23.4671   20.8135 C   0  0  0  0  0  0  0  0  0  0  0  0
  -24.6307  -29.2632   20.9749 C   0  0  0  0  0  0  0  0  0  0  0  0
  -21.1268   -4.8172   24.5324 C   0  0  0  0  0  0  0  0  0  0  0  0
  -24.2359   -9.9617   20.9952 C   0  0  0  0  0  0  0  0  0  0  0  0
  -26.6216  -10.7291   20.5187 C   0  0  0  0  0  0  0  0  0  0  0  0
  -27.6210  -35.4410   25.8624 C   0  0  0  0  0  0  0  0  0  0  0  0
  -25.3511  -31.5741   20.9565 C   0  0  0  0  0  0  0  0  0  0  0  0
  -27.1671  -34.1981   25.3812 C   0  0  0  0  0  0  0  0  0  0  0  0
  -27.6932  -23.7885   18.4136 C   0  0  0  0  0  0  0  0  0  0  0  0
  -27.7470  -22.9463   19.5298 C   0  0  0  0  0  0  0  0  0  0  0  0
  -24.3396  -30.6238   21.1565 C   0  0  0  0  0  0  0  0  0  0  0  0
  -27.6355  -24.8532   20.9669 C   0  0  0  0  0  0  0  0  0  0  0  0
  -27.5853  -25.6955   19.8457 C   0  0  0  0  0  0  0  0  0  0  0  0
  -22.2628   -8.0393   21.4358 C   0  0  0  0  0  0  0  0  0  0  0  0
  -25.9066  -28.8544   20.5874 C   0  0  0  0  0  0  0  0  0  0  0  0
  -21.5965   -6.0612   22.5152 C   0  0  0  0  0  0  0  0  0  0  0  0
  -22.1949   -3.9640   24.2548 C   0  0  0  0  0  0  0  0  0  0  0  0
  -20.8277   -5.8658   23.6626 C   0  0  0  0  0  0  0  0  0  0  0  0
  -25.2545  -10.9549   20.7671 C   0  0  0  0  0  0  0  0  0  0  0  0
  -27.1561  -11.9857   20.3716 C   0  0  0  0  0  0  0  0  0  0  0  0
  -27.3439   -9.4937   20.4289 C   0  0  0  0  0  0  0  0  0  0  0  0
  -24.1884  -33.1113   23.4842 C   0  0  0  0  0  0  0  0  0  0  0  0
  -21.4308  -33.0281   21.7780 C   0  0  0  0  0  0  0  0  0  0  0  0
  -19.5734  -31.5186   19.3453 C   0  0  0  0  0  0  0  0  0  0  0  0
  -26.8563  -16.9746   18.0380 C   0  0  0  0  0  0  0  0  0  0  0  0
  -26.6703  -36.4721   26.4171 C   0  0  0  0  0  0  0  0  0  0  0  0
  -25.0612  -33.0410   21.1200 C   0  0  0  0  0  0  0  0  0  0  0  0
  -22.9474  -31.0226   21.5700 C   0  0  0  0  0  0  0  0  0  0  0  0
  -27.7121  -22.9973   17.1497 C   0  0  0  0  0  0  0  0  0  0  0  0
  -25.2169  -36.2412   26.0114 C   0  0  0  0  0  0  0  0  0  0  0  0
  -25.2143  -16.5367   21.3228 C   0  0  0  0  0  0  0  0  0  0  0  0
  -24.8355  -34.7767   26.2025 C   0  0  0  0  0  0  0  0  0  0  0  0
  -25.1420  -15.0157   21.4119 C   0  0  0  0  0  0  0  0  0  0  0  0
  -27.1745  -18.9722   15.5513 C   0  0  0  0  0  0  0  0  0  0  0  0
  -27.4219  -20.4868   15.3849 C   0  0  0  0  0  0  0  0  0  0  0  0
  -25.0775  -17.0362   19.8850 C   0  0  0  0  0  0  0  0  0  0  0  0
  -25.9809  -14.8876   19.0352 C   0  0  0  0  0  0  0  0  0  0  0  0
  -25.6926  -33.8634   25.3178 C   0  0  1  0  0  0  0  0  0  0  0  0
  -27.8027  -21.5098   19.1015 C   0  0  2  0  0  0  0  0  0  0  0  0
  -23.8685  -33.3165   22.0305 C   0  0  1  0  0  0  0  0  0  0  0  0
  -26.1681  -14.3696   20.4691 C   0  0  2  0  0  0  0  0  0  0  0  0
  -27.5716  -19.1427   17.0374 C   0  0  1  0  0  0  0  0  0  0  0  0
  -27.1335  -20.6220   16.8967 C   0  0  1  0  0  0  0  0  0  0  0  0
  -27.6034  -25.4224   22.3485 C   0  0  0  0  0  0  0  0  0  0  0  0
  -28.9372  -20.7135   19.7300 C   0  0  0  0  0  0  0  0  0  0  0  0
  -17.3441  -31.6524   18.2008 C   0  0  0  0  0  0  0  0  0  0  0  0
  -20.1039  -31.7703   24.2208 C   0  0  0  0  0  0  0  0  0  0  0  0
  -18.2080  -31.0694   22.7434 C   0  0  0  0  0  0  0  0  0  0  0  0
  -18.7174  -33.4919   23.0512 C   0  0  0  0  0  0  0  0  0  0  0  0
  -20.8261  -32.0083   16.7090 C   0  0  0  0  0  0  0  0  0  0  0  0
  -27.4986  -27.1843   20.0112 C   0  0  0  0  0  0  0  0  0  1  0  0
  -20.2743  -32.0648   21.6615 C   0  0  1  0  0  0  0  0  0  0  0  0
  -18.8009  -32.0877   18.1689 C   0  0  2  0  0  0  0  0  0  0  0  0
  -19.3526  -32.0911   22.9133 C   0  0  0  0  0  0  0  0  0  0  0  0
  -24.9400  -12.2530   20.7781 N   0  0  0  0  0  0  0  0  0  0  0  0
  -26.1171  -12.8541   20.5349 N   0  0  0  0  0  0  0  0  0  0  0  0
  -22.7151  -32.4683   21.7232 N   0  0  0  0  0  0  0  0  0  0  0  0
  -26.0159  -16.3542   18.9796 N   0  0  0  0  0  0  0  0  0  0  0  0
  -28.4087  -12.4216   20.1200 N   0  0  0  0  0  0  0  0  0  0  0  0
  -26.6407   -8.2943   20.6054 N   0  0  0  0  0  0  0  0  0  0  0  0
  -25.2233  -33.9000   23.9493 N   0  0  0  0  0  0  0  0  0  0  0  0
  -19.5951  -32.3916   20.4123 N   0  0  0  0  0  0  0  0  0  0  0  0
  -26.7706  -18.3617   17.9681 N   0  0  0  0  0  0  0  0  0  0  0  0
  -28.0298  -21.5629   17.5784 N   0  3  1  0  0  0  0  0  0  0  0  0
  -19.4007  -31.6281   16.8843 N   0  3  0  0  0  0  0  0  0  0  0  0
  -28.5793   -9.4553   20.2151 O   0  0  0  0  0  0  0  0  0  0  0  0
  -23.5430  -32.2986   24.1359 O   0  0  0  0  0  0  0  0  0  0  0  0
  -21.2030  -34.2338   21.9056 O   0  0  0  0  0  0  0  0  0  0  0  0
  -20.1014  -30.4090   19.3214 O   0  0  0  0  0  0  0  0  0  0  0  0
  -27.6248  -16.3436   17.3042 O   0  0  0  0  0  0  0  0  0  0  0  0
  -21.3002   -7.1013   21.6503 O   0  0  0  0  0  0  0  0  0  0  0  0
  -26.1742  -27.5316   20.4134 O   0  0  0  0  0  0  0  0  0  1  0  0
  -22.4814   -2.9561   25.0892 F   0  0  0  0  0  0  0  0  0  0  0  0
  -19.7996   -6.6815   23.9339 F   0  0  0  0  0  0  0  0  0  0  0  0
  1  2  1  0  0  0  0
  1  5  2  0  0  0  0
  2  6  2  0  0  0  0
  3  8  2  0  0  0  0
  3 17  1  0  0  0  0
  4  9  1  0  0  0  0
  4 17  2  0  0  0  0
  5 19  1  0  0  0  0
  6 21  1  0  0  0  0
  7 10  2  0  0  0  0
  7 20  1  0  0  0  0
  8 27  1  0  0  0  0
  9 27  2  0  0  0  0
 10 28  1  0  0  0  0
 11 12  2  0  0  0  0
 11 29  1  0  0  0  0
 12 30  1  0  0  0  0
 13 22  2  0  0  0  0
 13 26  1  0  0  0  0
 14 23  2  0  0  0  0
 14 25  1  0  0  0  0
 15 24  1  0  0  0  0
 15 28  2  0  0  0  0
 16 30  2  0  0  0  0
 16 31  1  0  0  0  0
 17 32  1  0  0  0  0
 18 32  1  0  0  0  0
 18 33  2  0  0  0  0
 18 34  1  0  0  0  0
 19 21  2  0  0  0  0
 19 39  1  0  0  0  0
 20 24  2  0  0  0  0
 20 40  1  0  0  0  0
 21 51  1  0  0  0  0
 22 23  1  0  0  0  0
 22 42  1  0  0  0  0
 23 52  1  0  0  0  0
 24 41  1  0  0  0  0
 25 26  2  0  0  0  0
 25 57  1  0  0  0  0
 26 64  1  0  0  0  0
 27 84  1  0  0  0  0
 28 85  1  0  0  0  0
 29 31  2  0  0  0  0
 29 84  1  0  0  0  0
 30 86  1  0  0  0  0
 31 87  1  0  0  0  0
 32 68  2  0  0  0  0
 33 69  1  0  0  0  0
 33 72  1  0  0  0  0
 34 73  1  0  0  0  0
 34 79  2  0  0  0  0
 35 53  1  0  0  0  0
 35 74  1  0  0  0  0
 35 80  2  0  0  0  0
 36 65  1  0  0  0  0
 36 70  1  0  0  0  0
 36 81  2  0  0  0  0
 37 66  1  0  0  0  0
 37 75  1  0  0  0  0
 37 82  2  0  0  0  0
 38 71  1  0  0  0  0
 38 76  1  0  0  0  0
 38 83  2  0  0  0  0
 39 43  1  0  0  0  0
 40 53  1  0  0  0  0
 41 70  1  0  0  0  0
 42 77  1  0  0  0  0
 43 45  1  0  0  0  0
 44 46  1  0  0  0  0
 44 49  1  0  0  0  0
 45 51  1  0  0  0  0
 46 54  1  0  0  0  0
 47 48  1  0  0  0  0
 47 55  1  0  0  0  0
 48 56  1  0  0  0  0
 49 71  1  0  0  0  0
 50 54  1  0  0  0  0
 50 71  1  0  0  0  0
 51 74  1  0  0  0  0
 52 58  1  0  0  0  0
 52 77  1  0  0  0  0
 53 70  1  0  0  0  0
 54 69  1  0  0  0  0
 55 56  1  0  0  0  0
 55 76  1  0  0  0  0
 56 77  1  0  0  0  0
 59 66  1  0  0  0  0
 60 67  1  0  0  0  0
 61 67  1  0  0  0  0
 62 67  1  0  0  0  0
 63 78  1  0  0  0  0
 64 85  1  0  0  0  0
 65 67  1  0  0  0  0
 65 75  1  0  0  0  0
 66 78  1  0  0  0  0
 68 69  1  0  0  0  0
M  CHG  2  77   1  78   1
M  ISO  4  38 100  64 101  76 100  85 101
M  END
> <Batch ID>
0164

> <Smiles>
CNC(C)C(=O)NC(C(=O)N1Cc2cc([101O:1][101CH2:1]c3cc4c(cc3C)C(C)N(C3CCC3[100NH:0][100C:0](=O)N3CCCC(n5nc(-c6ccc(Oc7ccc(F)cc7F)cc6)c(C(N)=O)c5N)C3)C4)ccc2CC1C(=O)NC1CCCc2ccccc21)C(C)(C)C

> <Shape>
0.244

> <Color>
0.100

> <Negative vol penalty>
0.000

$$$$

  -OEChem-04052322193D

 88 97  0     1  0  0  0  0  0999 V2000
  -26.3987  -36.0183   23.0385 C   0  0  0  0  0  0  0  0  0  0  0  0
  -27.3502  -35.2956   22.3258 C   0  0  0  0  0  0  0  0  0  0  0  0
  -24.2778   -9.6894   20.2939 C   0  0  0  0  0  0  0  0  0  0  0  0
  -24.8695  -10.1810   22.5842 C   0  0  0  0  0  0  0  0  0  0  0  0
  -25.4945  -35.3525   23.8650 C   0  0  0  0  0  0  0  0  0  0  0  0
  -27.3986  -33.9067   22.4401 C   0  0  0  0  0  0  0  0  0  0  0  0
  -28.9306  -28.0410   18.6239 C   0  0  0  0  0  0  0  0  0  0  0  0
  -23.9677   -8.3784   20.6554 C   0  0  0  0  0  0  0  0  0  0  0  0
  -24.5594   -8.8700   22.9457 C   0  0  0  0  0  0  0  0  0  0  0  0
  -29.7145  -26.8898   18.6863 C   0  0  0  0  0  0  0  0  0  0  0  0
  -22.6763   -5.0024   21.0426 C   0  0  0  0  0  0  0  0  0  0  0  0
  -21.4949   -4.4541   20.5432 C   0  0  0  0  0  0  0  0  0  0  0  0
  -29.3370  -20.5995   19.6252 C   0  0  0  0  0  0  0  0  0  0  0  0
  -28.0510  -25.8401   20.0828 C   0  0  0  0  0  0  0  0  0  0  0  0
  -26.5905  -20.9939   19.3361 C   0  0  0  0  0  0  0  0  0  0  0  0
  -20.2248   -6.1932   21.6385 C   0  0  0  0  0  0  0  0  0  0  0  0
  -24.7288  -10.5907   21.2583 C   0  0  0  0  0  0  0  0  0  0  0  0
  -24.1804  -13.0520   20.8725 C   0  0  0  0  0  0  0  0  0  0  0  0
  -25.5256  -33.9540   23.9820 C   0  0  0  0  0  0  0  0  0  0  0  0
  -27.7040  -28.1045   19.3005 C   0  0  0  0  0  0  0  0  0  0  0  0
  -26.4948  -33.2217   23.2700 C   0  0  0  0  0  0  0  0  0  0  0  0
  -28.8529  -21.4062   18.5955 C   0  0  0  0  0  0  0  0  0  0  0  0
  -27.2522  -26.9924   20.0253 C   0  0  0  0  0  0  0  0  0  0  0  0
  -28.4479  -19.9898   20.5104 C   0  0  0  0  0  0  0  0  0  0  0  0
  -27.4796  -21.6034   18.4509 C   0  0  0  0  0  0  0  0  0  0  0  0
  -27.0746  -20.1871   20.3658 C   0  0  0  0  0  0  0  0  0  0  0  0
  -24.1084   -7.9687   21.9813 C   0  0  0  0  0  0  0  0  0  0  0  0
  -29.2761  -25.7901   19.4182 C   0  0  0  0  0  0  0  0  0  0  0  0
  -22.6319   -6.1460   21.8401 C   0  0  0  0  0  0  0  0  0  0  0  0
  -20.2692   -5.0495   20.8411 C   0  0  0  0  0  0  0  0  0  0  0  0
  -21.4062   -6.7414   22.1380 C   0  0  0  0  0  0  0  0  0  0  0  0
  -25.0498  -11.9449   20.8853 C   0  0  0  0  0  0  0  0  0  0  0  0
  -24.9624  -14.0978   20.4469 C   0  0  0  0  0  0  0  0  0  0  0  0
  -22.7902  -13.1282   21.2149 C   0  0  0  0  0  0  0  0  0  0  0  0
  -26.5209  -29.9081   21.6353 C   0  0  0  0  0  0  0  0  0  0  0  0
  -23.7831  -28.3061   20.9569 C   0  0  0  0  0  0  0  0  0  0  0  0
  -22.3034  -25.5188   19.6576 C   0  0  0  0  0  0  0  0  0  0  0  0
  -29.7362  -16.9842   20.6051 C   0  0  0  0  0  0  0  0  0  0  0  0
  -24.5582  -33.2826   24.9243 C   0  0  0  0  0  0  0  0  0  0  0  0
  -26.8578  -29.3440   19.2013 C   0  0  0  0  0  0  0  0  0  0  0  0
  -25.9336  -27.0025   20.7529 C   0  0  0  0  0  0  0  0  0  0  0  0
  -24.4347  -31.7777   24.7002 C   0  0  0  0  0  0  0  0  0  0  0  0
  -29.6191  -14.1359   18.4720 C   0  0  0  0  0  0  0  0  0  0  0  0
  -25.8150  -31.1437   24.5605 C   0  0  0  0  0  0  0  0  0  0  0  0
  -28.3522  -13.4006   18.9129 C   0  0  0  0  0  0  0  0  0  0  0  0
  -31.9098  -22.3666   17.0741 C   0  0  0  0  0  0  0  0  0  0  0  0
  -30.3400  -14.7773   19.6555 C   0  0  0  0  0  0  0  0  0  0  0  0
  -28.2343  -14.9258   20.9274 C   0  0  0  0  0  0  0  0  0  0  0  0
  -29.8497  -22.0693   17.6322 C   0  0  1  0  0  0  0  0  0  0  0  0
  -26.5630  -31.7120   23.3485 C   0  0  1  0  0  0  0  0  0  0  0  0
  -25.8655  -29.4837   20.3516 C   0  0  1  0  0  0  0  0  0  0  0  0
  -31.0446  -22.8770   18.2522 C   0  0  2  0  0  0  0  0  0  0  0  0
  -27.4427  -14.3097   19.7612 C   0  0  2  0  0  0  0  0  0  0  0  0
  -30.9450  -21.1681   16.9758 C   0  0  1  0  0  0  0  0  0  0  0  0
  -26.9415  -22.4643   17.3558 C   0  0  0  0  0  0  0  0  0  0  0  0
  -26.1034  -19.5441   21.3006 C   0  0  0  0  0  0  0  0  0  0  0  0
  -20.0510  -24.4794   19.2784 C   0  0  0  0  0  0  0  0  0  0  0  0
  -23.6236  -27.5781   23.9157 C   0  0  0  0  0  0  0  0  0  0  0  0
  -21.9546  -25.8099   23.3192 C   0  0  0  0  0  0  0  0  0  0  0  0
  -21.4379  -28.2100   22.8776 C   0  0  0  0  0  0  0  0  0  0  0  0
  -22.6851  -25.4832   16.7229 C   0  0  0  0  0  0  0  0  0  0  0  0
  -31.8602  -20.4610   14.7706 C   0  0  0  0  0  0  0  0  0  0  0  0
  -29.6198  -19.6587   15.5037 C   0  0  0  0  0  0  0  0  0  0  0  0
  -28.9894  -19.1296   21.6045 C   0  0  0  0  0  0  0  0  0  0  0  0
  -30.8694  -24.3797   18.3561 C   0  0  0  0  0  0  0  0  0  1  0  0
  -23.1465  -27.0251   21.4393 C   0  0  1  0  0  0  0  0  0  0  0  0
  -21.1480  -25.3512   18.6873 C   0  0  2  0  0  0  0  0  0  0  0  0
  -22.5665  -27.1560   22.8760 C   0  0  0  0  0  0  0  0  0  0  0  0
  -26.2893  -12.2582   20.4984 N   0  0  0  0  0  0  0  0  0  0  0  0
  -26.2042  -13.5739   20.2384 N   0  0  0  0  0  0  0  0  0  0  0  0
  -25.1451  -28.2398   20.6308 N   0  0  0  0  0  0  0  0  0  0  0  0
  -29.4226  -15.6279   20.4176 N   0  0  0  0  0  0  0  0  0  0  0  0
  -24.7019  -15.4053   20.2343 N   0  0  0  0  0  0  0  0  0  0  0  0
  -22.1400  -11.9592   21.6331 N   0  0  0  0  0  0  0  0  0  0  0  0
  -26.0679  -31.1182   22.1251 N   0  0  0  0  0  0  0  0  0  0  0  0
  -22.1620  -26.6528   20.4291 N   0  0  0  0  0  0  0  0  0  0  0  0
  -28.8100  -17.7206   21.3335 N   0  0  0  0  0  0  0  0  0  0  0  0
  -21.6207  -24.7191   17.4232 N   0  3  0  0  0  0  0  0  0  0  0  0
  -30.6303  -20.7841   15.5944 N   0  3  0  0  0  0  0  0  0  0  0  0
  -22.1396  -14.1979   21.1361 O   0  0  0  0  0  0  0  0  0  0  0  0
  -27.3735  -29.1901   22.1445 O   0  0  0  0  0  0  0  0  0  0  0  0
  -23.0955  -29.3261   20.8658 O   0  0  0  0  0  0  0  0  0  0  0  0
  -23.2360  -24.7214   19.7269 O   0  0  0  0  0  0  0  0  0  0  0  0
  -30.7627  -17.5018   20.1519 O   0  0  0  0  0  0  0  0  0  0  0  0
  -23.8057   -6.6896   22.3345 O   0  0  0  0  0  0  0  0  0  0  0  0
  -30.0396  -24.6654   19.4814 O   0  0  0  0  0  0  0  0  0  1  0  0
  -19.1350   -4.5238   20.3602 F   0  0  0  0  0  0  0  0  0  0  0  0
  -21.3573   -7.8409   22.9025 F   0  0  0  0  0  0  0  0  0  0  0  0
  1  2  1  0  0  0  0
  1  5  2  0  0  0  0
  2  6  2  0  0  0  0
  3  8  2  0  0  0  0
  3 17  1  0  0  0  0
  4  9  1  0  0  0  0
  4 17  2  0  0  0  0
  5 19  1  0  0  0  0
  6 21  1  0  0  0  0
  7 10  2  0  0  0  0
  7 20  1  0  0  0  0
  8 27  1  0  0  0  0
  9 27  2  0  0  0  0
 10 28  1  0  0  0  0
 11 12  2  0  0  0  0
 11 29  1  0  0  0  0
 12 30  1  0  0  0  0
 13 22  1  0  0  0  0
 13 24  2  0  0  0  0
 14 23  1  0  0  0  0
 14 28  2  0  0  0  0
 15 25  1  0  0  0  0
 15 26  2  0  0  0  0
 16 30  2  0  0  0  0
 16 31  1  0  0  0  0
 17 32  1  0  0  0  0
 18 32  1  0  0  0  0
 18 33  2  0  0  0  0
 18 34  1  0  0  0  0
 19 21  2  0  0  0  0
 19 39  1  0  0  0  0
 20 23  2  0  0  0  0
 20 40  1  0  0  0  0
 21 50  1  0  0  0  0
 22 25  2  0  0  0  0
 22 49  1  0  0  0  0
 23 41  1  0  0  0  0
 24 26  1  0  0  0  0
 24 64  1  0  0  0  0
 25 55  1  0  0  0  0
 26 56  1  0  0  0  0
 27 85  1  0  0  0  0
 28 86  1  0  0  0  0
 29 31  2  0  0  0  0
 29 85  1  0  0  0  0
 30 87  1  0  0  0  0
 31 88  1  0  0  0  0
 32 69  2  0  0  0  0
 33 70  1  0  0  0  0
 33 73  1  0  0  0  0
 34 74  1  0  0  0  0
 34 80  2  0  0  0  0
 35 51  1  0  0  0  0
 35 75  1  0  0  0  0
 35 81  2  0  0  0  0
 36 66  1  0  0  0  0
 36 71  1  0  0  0  0
 36 82  2  0  0  0  0
 37 67  1  0  0  0  0
 37 76  1  0  0  0  0
 37 83  2  0  0  0  0
 38 72  1  0  0  0  0
 38 77  1  0  0  0  0
 38 84  2  0  0  0  0
 39 42  1  0  0  0  0
 40 51  1  0  0  0  0
 41 71  1  0  0  0  0
 42 44  1  0  0  0  0
 43 45  1  0  0  0  0
 43 47  1  0  0  0  0
 44 50  1  0  0  0  0
 45 53  1  0  0  0  0
 46 52  1  0  0  0  0
 46 54  1  0  0  0  0
 47 72  1  0  0  0  0
 48 53  1  0  0  0  0
 48 72  1  0  0  0  0
 49 52  1  0  0  0  0
 49 54  1  0  0  0  0
 50 75  1  0  0  0  0
 51 71  1  0  0  0  0
 52 65  1  0  0  0  0
 53 70  1  0  0  0  0
 54 79  1  0  0  0  0
 57 67  1  0  0  0  0
 58 68  1  0  0  0  0
 59 68  1  0  0  0  0
 60 68  1  0  0  0  0
 61 78  1  0  0  0  0
 62 79  1  0  0  0  0
 63 79  1  0  0  0  0
 64 77  1  0  0  0  0
 65 86  1  0  0  0  0
 66 68  1  0  0  0  0
 66 76  1  0  0  0  0
 67 78  1  0  0  0  0
 69 70  1  0  0  0  0
M  CHG  2  78   1  79   1
M  ISO  4  38 100  65 101  77 100  86 101
M  END
> <Batch ID>
0164

> <Smiles>
CNC(C)C(=O)NC(C(=O)N1Cc2cc([101O:1][101CH2:1]C3CC(N(C)C)C3c3cc(C[100NH:0][100C:0](=O)N4CCCC(n5nc(-c6ccc(Oc7ccc(F)cc7F)cc6)c(C(N)=O)c5N)C4)c(C)cc3C)ccc2CC1C(=O)NC1CCCc2ccccc21)C(C)(C)C

> <Shape>
0.341

> <Color>
0.116

> <Negative vol penalty>
0.000

$$$$

  -OEChem-04052322193D

 94104  0     1  0  0  0  0  0999 V2000
  -28.8577  -32.8470   27.8049 C   0  0  0  0  0  0  0  0  0  0  0  0
  -29.0103  -31.6099   28.4228 C   0  0  0  0  0  0  0  0  0  0  0  0
  -22.9078   -9.9271   19.9214 C   0  0  0  0  0  0  0  0  0  0  0  0
  -24.3721   -9.3431   21.7522 C   0  0  0  0  0  0  0  0  0  0  0  0
  -28.5234  -32.9131   26.4530 C   0  0  0  0  0  0  0  0  0  0  0  0
  -28.8277  -30.4382   27.6892 C   0  0  0  0  0  0  0  0  0  0  0  0
  -31.2286  -23.7042   27.2354 C   0  0  0  0  0  0  0  0  0  0  0  0
  -22.2424   -8.7097   20.0652 C   0  0  0  0  0  0  0  0  0  0  0  0
  -23.7066   -8.1257   21.8961 C   0  0  0  0  0  0  0  0  0  0  0  0
  -30.7574  -22.3924   27.2069 C   0  0  0  0  0  0  0  0  0  0  0  0
  -20.8222   -7.0115   23.2595 C   0  0  0  0  0  0  0  0  0  0  0  0
  -20.4863   -6.6069   24.5514 C   0  0  0  0  0  0  0  0  0  0  0  0
  -22.6680  -20.2477   26.5397 C   0  0  0  0  0  0  0  0  0  0  0  0
  -30.2593  -22.6286   24.8585 C   0  0  0  0  0  0  0  0  0  0  0  0
  -22.1481  -20.6216   29.2550 C   0  0  0  0  0  0  0  0  0  0  0  0
  -21.8251   -4.6148   24.2756 C   0  0  0  0  0  0  0  0  0  0  0  0
  -23.9727  -10.2438   20.7649 C   0  0  0  0  0  0  0  0  0  0  0  0
  -24.1086  -12.7910   20.7295 C   0  0  0  0  0  0  0  0  0  0  0  0
  -28.3460  -31.7416   25.7001 C   0  0  0  0  0  0  0  0  0  0  0  0
  -31.2085  -24.4930   26.0761 C   0  0  0  0  0  0  0  0  0  0  0  0
  -28.4894  -30.4887   26.3263 C   0  0  0  0  0  0  0  0  0  0  0  0
  -23.6265  -19.8923   27.4887 C   0  0  0  0  0  0  0  0  0  0  0  0
  -30.7331  -23.9493   24.8743 C   0  0  0  0  0  0  0  0  0  0  0  0
  -21.4495  -20.7902   26.9483 C   0  0  0  0  0  0  0  0  0  0  0  0
  -23.3665  -20.0792   28.8463 C   0  0  0  0  0  0  0  0  0  0  0  0
  -21.1896  -20.9770   28.3059 C   0  0  0  0  0  0  0  0  0  0  0  0
  -22.6418   -7.8090   21.0526 C   0  0  0  0  0  0  0  0  0  0  0  0
  -30.2700  -21.8553   26.0191 C   0  0  0  0  0  0  0  0  0  0  0  0
  -21.6594   -6.2177   22.4755 C   0  0  0  0  0  0  0  0  0  0  0  0
  -20.9878   -5.4086   25.0595 C   0  0  0  0  0  0  0  0  0  0  0  0
  -22.1609   -5.0193   22.9836 C   0  0  0  0  0  0  0  0  0  0  0  0
  -24.6609  -11.5010   20.6164 C   0  0  0  0  0  0  0  0  0  0  0  0
  -25.1660  -13.6381   20.5044 C   0  0  0  0  0  0  0  0  0  0  0  0
  -22.7603  -13.1879   21.0128 C   0  0  0  0  0  0  0  0  0  0  0  0
  -29.7787  -27.2035   25.2318 C   0  0  0  0  0  0  0  0  0  0  0  0
  -31.5913  -26.8727   22.5621 C   0  0  0  0  0  0  0  0  0  0  0  0
  -33.3123  -24.7999   20.4672 C   0  0  0  0  0  0  0  0  0  0  0  0
  -30.3801  -15.1773   21.1488 C   0  0  0  0  0  0  0  0  0  0  0  0
  -27.9388  -31.8633   24.2531 C   0  0  0  0  0  0  0  0  0  0  0  0
  -31.7451  -25.8976   26.1172 C   0  0  0  0  0  0  0  0  0  0  0  0
  -30.7089  -24.7479   23.5975 C   0  0  0  0  0  0  0  0  0  0  0  0
  -28.1303  -30.5756   23.4560 C   0  0  0  0  0  0  0  0  0  0  0  0
  -29.8242  -12.7235   18.7772 C   0  0  0  0  0  0  0  0  0  0  0  0
  -27.5802  -29.3818   24.2301 C   0  0  0  0  0  0  0  0  0  0  0  0
  -28.3845  -12.2831   19.0415 C   0  0  0  0  0  0  0  0  0  0  0  0
  -28.3736  -18.1514   22.0735 C   0  0  0  0  0  0  0  0  0  0  0  0
  -27.8753  -16.2914   23.6987 C   0  0  0  0  0  0  0  0  0  0  0  0
  -26.0170  -20.3550   26.7541 C   0  0  0  0  0  0  0  0  0  0  0  0
  -30.5747  -12.9494   20.0848 C   0  0  0  0  0  0  0  0  0  0  0  0
  -29.6994  -17.4754   21.7351 C   0  0  0  0  0  0  0  0  0  0  0  0
  -29.2120  -15.6539   23.3341 C   0  0  0  0  0  0  0  0  0  0  0  0
  -28.4765  -13.5076   21.2687 C   0  0  0  0  0  0  0  0  0  0  0  0
  -24.9390  -19.3058   27.0220 C   0  0  2  0  0  0  0  0  0  0  0  0
  -28.3238  -29.1954   25.5581 C   0  0  1  0  0  0  0  0  0  0  0  0
  -31.2006  -26.7783   24.9968 C   0  0  1  0  0  0  0  0  0  0  0  0
  -27.9105  -17.8123   23.4963 C   0  0  0  0  0  0  0  0  0  0  0  0
  -27.6672  -13.2719   19.9776 C   0  0  2  0  0  0  0  0  0  0  0  0
  -27.0866  -19.6110   25.9574 C   0  0  1  0  0  0  0  0  0  0  0  0
  -24.8720  -18.5554   25.6870 C   0  0  2  0  0  0  0  0  0  0  0  0
  -20.4390  -21.1640   25.9141 C   0  0  0  0  0  0  0  0  0  0  0  0
  -24.3772  -19.7056   29.8804 C   0  0  0  0  0  0  0  0  0  0  0  0
  -19.8927  -21.5567   28.7670 C   0  0  0  0  0  0  0  0  0  0  0  0
  -24.2809  -17.1580   25.8025 C   0  0  0  0  0  0  0  0  0  0  0  0
  -34.6575  -24.8145   18.3488 C   0  0  0  0  0  0  0  0  0  0  0  0
  -29.0237  -27.1457   20.9365 C   0  0  0  0  0  0  0  0  0  0  0  0
  -30.2565  -26.2197   18.9640 C   0  0  0  0  0  0  0  0  0  0  0  0
  -30.9903  -28.3699   19.9939 C   0  0  0  0  0  0  0  0  0  0  0  0
  -35.7221  -23.7847   21.8534 C   0  0  0  0  0  0  0  0  0  0  0  0
  -26.5450  -18.4307   23.7859 C   0  0  0  0  0  0  0  0  0  0  0  0
  -28.1873  -19.0217   26.8294 C   0  0  0  0  0  0  0  0  0  0  0  0
  -29.2357  -20.0611   27.1882 C   0  0  0  0  0  0  0  0  0  1  0  0
  -31.4091  -26.2004   21.2227 C   0  0  1  0  0  0  0  0  0  0  0  0
  -34.7026  -24.9031   19.8663 C   0  0  2  0  0  0  0  0  0  0  0  0
  -30.4184  -26.9693   20.3036 C   0  0  0  0  0  0  0  0  0  0  0  0
  -25.9676  -11.5219   20.3407 N   0  0  0  0  0  0  0  0  0  0  0  0
  -26.2452  -12.8354   20.2786 N   0  0  0  0  0  0  0  0  0  0  0  0
  -31.2385  -26.1184   23.6901 N   0  0  0  0  0  0  0  0  0  0  0  0
  -29.8595  -13.8900   20.9471 N   0  0  0  0  0  0  0  0  0  0  0  0
  -29.6446  -16.0354   21.9830 N   0  0  0  0  0  0  0  0  0  0  0  0
  -25.2686  -14.9840   20.4795 N   0  0  0  0  0  0  0  0  0  0  0  0
  -22.3862  -13.3761   22.3504 N   0  0  0  0  0  0  0  0  0  0  0  0
  -29.6101  -28.5712   25.3339 N   0  0  0  0  0  0  0  0  0  0  0  0
  -32.7459  -26.0421   20.6603 N   0  0  0  0  0  0  0  0  0  0  0  0
  -26.3380  -18.4665   25.2709 N   0  3  1  0  0  0  0  0  0  0  0  0
  -35.5700  -23.8035   20.3757 N   0  3  0  0  0  0  0  0  0  0  0  0
  -21.9079  -13.3545   20.1077 O   0  0  0  0  0  0  0  0  0  0  0  0
  -28.8995  -26.3538   25.3130 O   0  0  0  0  0  0  0  0  0  0  0  0
  -32.0372  -28.0220   22.6062 O   0  0  0  0  0  0  0  0  0  0  0  0
  -32.7805  -23.7247   20.7349 O   0  0  0  0  0  0  0  0  0  0  0  0
  -31.4346  -15.5418   20.6140 O   0  0  0  0  0  0  0  0  0  0  0  0
  -21.9925   -6.6211   21.1934 O   0  0  0  0  0  0  0  0  0  0  0  0
  -29.8055  -20.5659   25.9885 O   0  0  0  0  0  0  0  0  0  1  0  0
  -20.6665   -5.0210   26.3008 F   0  0  0  0  0  0  0  0  0  0  0  0
  -22.9666   -4.2531   22.2357 F   0  0  0  0  0  0  0  0  0  0  0  0
  1  2  1  0  0  0  0
  1  5  2  0  0  0  0
  2  6  2  0  0  0  0
  3  8  2  0  0  0  0
  3 17  1  0  0  0  0
  4  9  1  0  0  0  0
  4 17  2  0  0  0  0
  5 19  1  0  0  0  0
  6 21  1  0  0  0  0
  7 10  2  0  0  0  0
  7 20  1  0  0  0  0
  8 27  1  0  0  0  0
  9 27  2  0  0  0  0
 10 28  1  0  0  0  0
 11 12  2  0  0  0  0
 11 29  1  0  0  0  0
 12 30  1  0  0  0  0
 13 22  1  0  0  0  0
 13 24  2  0  0  0  0
 14 23  1  0  0  0  0
 14 28  2  0  0  0  0
 15 25  1  0  0  0  0
 15 26  2  0  0  0  0
 16 30  2  0  0  0  0
 16 31  1  0  0  0  0
 17 32  1  0  0  0  0
 18 32  1  0  0  0  0
 18 33  2  0  0  0  0
 18 34  1  0  0  0  0
 19 21  2  0  0  0  0
 19 39  1  0  0  0  0
 20 23  2  0  0  0  0
 20 40  1  0  0  0  0
 21 54  1  0  0  0  0
 22 25  2  0  0  0  0
 22 53  1  0  0  0  0
 23 41  1  0  0  0  0
 24 26  1  0  0  0  0
 24 60  1  0  0  0  0
 25 61  1  0  0  0  0
 26 62  1  0  0  0  0
 27 91  1  0  0  0  0
 28 92  1  0  0  0  0
 29 31  2  0  0  0  0
 29 91  1  0  0  0  0
 30 93  1  0  0  0  0
 31 94  1  0  0  0  0
 32 75  2  0  0  0  0
 33 76  1  0  0  0  0
 33 80  1  0  0  0  0
 34 81  1  0  0  0  0
 34 86  2  0  0  0  0
 35 55  1  0  0  0  0
 35 82  1  0  0  0  0
 35 87  2  0  0  0  0
 36 72  1  0  0  0  0
 36 77  1  0  0  0  0
 36 88  2  0  0  0  0
 37 73  1  0  0  0  0
 37 83  1  0  0  0  0
 37 89  2  0  0  0  0
 38 78  1  0  0  0  0
 38 79  1  0  0  0  0
 38 90  2  0  0  0  0
 39 42  1  0  0  0  0
 40 55  1  0  0  0  0
 41 77  1  0  0  0  0
 42 44  1  0  0  0  0
 43 45  1  0  0  0  0
 43 49  1  0  0  0  0
 44 54  1  0  0  0  0
 45 57  1  0  0  0  0
 46 50  1  0  0  0  0
 46 56  1  0  0  0  0
 47 51  1  0  0  0  0
 47 56  1  0  0  0  0
 48 53  1  0  0  0  0
 48 58  1  0  0  0  0
 49 78  1  0  0  0  0
 50 79  1  0  0  0  0
 51 79  1  0  0  0  0
 52 57  1  0  0  0  0
 52 78  1  0  0  0  0
 53 59  1  0  0  0  0
 54 82  1  0  0  0  0
 55 77  1  0  0  0  0
 56 69  1  0  0  0  0
 57 76  1  0  0  0  0
 58 70  1  0  0  0  0
 58 84  1  0  0  0  0
 59 63  1  0  0  0  0
 59 84  1  0  0  0  0
 64 73  1  0  0  0  0
 65 74  1  0  0  0  0
 66 74  1  0  0  0  0
 67 74  1  0  0  0  0
 68 85  1  0  0  0  0
 69 84  1  0  0  0  0
 70 71  1  0  0  0  0
 71 92  1  0  0  0  0
 72 74  1  0  0  0  0
 72 83  1  0  0  0  0
 73 85  1  0  0  0  0
 75 76  1  0  0  0  0
M  CHG  2  84   1  85   1
M  ISO  4  38 100  71 101  79 100  92 101
M  END
> <Batch ID>
0164

> <Smiles>
CNC(C)C(=O)NC(C(=O)N1Cc2cc([101O:1][101CH2:1]CC3CC(c4cc(C)c(C)cc4C)C(C)N3CC3CC[100N:0]([100C:0](=O)N4CCCC(n5nc(-c6ccc(Oc7ccc(F)cc7F)cc6)c(C(N)=O)c5N)C4)CC3)ccc2CC1C(=O)NC1CCCc2ccccc21)C(C)(C)C

> <Shape>
0.234

> <Color>
0.157

> <Negative vol penalty>
0.000

$$$$

  -OEChem-04052322193D

 87 96  0     1  0  0  0  0  0999 V2000
  -27.7666  -23.0245   18.9374 C   0  0  0  0  0  0  0  0  0  0  0  0
  -26.5423  -23.5912   19.2772 C   0  0  0  0  0  0  0  0  0  0  0  0
  -26.3998  -14.8823   20.2026 C   0  0  0  0  0  0  0  0  0  0  0  0
  -24.0038  -14.5882   20.1018 C   0  0  0  0  0  0  0  0  0  0  0  0
  -28.9238  -23.4116   19.6119 C   0  0  0  0  0  0  0  0  0  0  0  0
  -26.4744  -24.5446   20.2925 C   0  0  0  0  0  0  0  0  0  0  0  0
  -23.5897  -28.5139   19.0405 C   0  0  0  0  0  0  0  0  0  0  0  0
  -26.5678  -13.4984   20.2472 C   0  0  0  0  0  0  0  0  0  0  0  0
  -24.1719  -13.2042   20.1464 C   0  0  0  0  0  0  0  0  0  0  0  0
  -22.2077  -28.3457   19.1159 C   0  0  0  0  0  0  0  0  0  0  0  0
  -24.8140  -10.8466   22.4831 C   0  0  0  0  0  0  0  0  0  0  0  0
  -23.9876  -10.1207   23.3409 C   0  0  0  0  0  0  0  0  0  0  0  0
  -22.1924  -29.4767   21.2465 C   0  0  0  0  0  0  0  0  0  0  0  0
  -18.3359  -22.7158   18.4504 C   0  0  0  0  0  0  0  0  0  0  0  0
  -17.8767  -23.0126   21.1860 C   0  0  0  0  0  0  0  0  0  0  0  0
  -23.1251   -8.8772   21.4576 C   0  0  0  0  0  0  0  0  0  0  0  0
  -25.1178  -15.4273   20.1299 C   0  0  0  0  0  0  0  0  0  0  0  0
  -25.4411  -17.7433   19.1106 C   0  0  0  0  0  0  0  0  0  0  0  0
  -28.8715  -24.3773   20.6295 C   0  0  0  0  0  0  0  0  0  0  0  0
  -24.2860  -29.1562   20.0744 C   0  0  0  0  0  0  0  0  0  0  0  0
  -27.6318  -24.9440   20.9822 C   0  0  0  0  0  0  0  0  0  0  0  0
  -23.5828  -29.6541   21.1807 C   0  0  0  0  0  0  0  0  0  0  0  0
  -18.4193  -21.6094   19.2955 C   0  0  0  0  0  0  0  0  0  0  0  0
  -18.1897  -21.7577   20.6634 C   0  0  0  0  0  0  0  0  0  0  0  0
  -17.7933  -24.1190   20.3408 C   0  0  0  0  0  0  0  0  0  0  0  0
  -25.4539  -12.6593   20.2191 C   0  0  0  0  0  0  0  0  0  0  0  0
  -21.5092  -28.8245   20.2203 C   0  0  0  0  0  0  0  0  0  0  0  0
  -24.7959  -10.5878   21.1126 C   0  0  0  0  0  0  0  0  0  0  0  0
  -18.0230  -23.9707   18.9730 C   0  0  0  0  0  0  0  0  0  0  0  0
  -23.1431   -9.1360   22.8281 C   0  0  0  0  0  0  0  0  0  0  0  0
  -23.9515   -9.6031   20.5998 C   0  0  0  0  0  0  0  0  0  0  0  0
  -24.9435  -16.8568   20.0844 C   0  0  0  0  0  0  0  0  0  0  0  0
  -25.0044  -18.9804   19.5172 C   0  0  0  0  0  0  0  0  0  0  0  0
  -26.2278  -17.4726   17.9428 C   0  0  0  0  0  0  0  0  0  0  0  0
  -26.5698  -28.2979   22.1119 C   0  0  0  0  0  0  0  0  0  0  0  0
  -26.4812  -31.4363   22.9275 C   0  0  0  0  0  0  0  0  0  0  0  0
  -24.7089  -34.3504   23.0447 C   0  0  0  0  0  0  0  0  0  0  0  0
  -20.3852  -20.7716   22.8794 C   0  0  0  0  0  0  0  0  0  0  0  0
  -30.1418  -24.7291   21.3624 C   0  0  0  0  0  0  0  0  0  0  0  0
  -25.7731  -29.3535   19.9655 C   0  0  0  0  0  0  0  0  0  0  0  0
  -24.2808  -30.3688   22.3078 C   0  0  0  0  0  0  0  0  0  0  0  0
  -30.0409  -26.0199   22.1712 C   0  0  0  0  0  0  0  0  0  0  0  0
  -23.8361  -21.4302   23.4572 C   0  0  0  0  0  0  0  0  0  0  0  0
  -20.1905  -19.8201   18.7163 C   0  0  0  0  0  0  0  0  0  0  0  0
  -19.5363  -20.2142   17.4290 C   0  0  0  0  0  0  0  0  0  0  0  0
  -28.7479  -26.0432   22.9802 C   0  0  0  0  0  0  0  0  0  0  0  0
  -24.5561  -20.4128   22.5705 C   0  0  0  0  0  0  0  0  0  0  0  0
  -22.5603  -20.8485   24.0623 C   0  0  0  0  0  0  0  0  0  0  0  0
  -22.3400  -19.2513   22.1984 C   0  0  0  0  0  0  0  0  0  0  0  0
  -18.7557  -20.2759   18.7148 C   0  0  0  0  0  0  0  0  0  0  0  0
  -27.5212  -25.9994   22.0611 C   0  0  1  0  0  0  0  0  0  0  0  0
  -26.4482  -29.5670   21.3168 C   0  0  1  0  0  0  0  0  0  0  0  0
  -23.6031  -19.8100   21.5209 C   0  0  2  0  0  0  0  0  0  0  0  0
  -24.2625  -36.7905   23.4239 C   0  0  0  0  0  0  0  0  0  0  0  0
  -26.0979  -30.5448   25.8203 C   0  0  0  0  0  0  0  0  0  0  0  0
  -25.3451  -32.8699   26.3639 C   0  0  0  0  0  0  0  0  0  0  0  0
  -27.6598  -32.4750   25.5218 C   0  0  0  0  0  0  0  0  0  0  0  0
  -25.5728  -35.0534   20.3027 C   0  0  0  0  0  0  0  0  0  0  0  0
  -18.1950  -24.7991   16.7504 C   0  0  0  0  0  0  0  0  0  0  0  0
  -18.2729  -20.5887   21.5894 C   0  0  0  0  0  0  0  0  0  0  0  0
  -17.4556  -25.4612   20.9201 C   0  0  0  0  0  0  0  0  0  0  0  0
  -18.3171  -27.7261   21.5258 C   0  0  0  0  0  0  0  0  0  0  0  0
  -19.5937  -28.5403   21.6008 C   0  0  0  0  0  0  0  0  0  1  0  0
  -25.7079  -32.2590   23.9295 C   0  0  1  0  0  0  0  0  0  0  0  0
  -25.0740  -35.7682   22.6435 C   0  0  2  0  0  0  0  0  0  0  0  0
  -26.1895  -32.0220   25.3887 C   0  0  0  0  0  0  0  0  0  0  0  0
  -24.2443  -17.4780   21.0379 N   0  0  0  0  0  0  0  0  0  0  0  0
  -24.2995  -18.7680   20.6653 N   0  0  0  0  0  0  0  0  0  0  0  0
  -25.7363  -30.5314   22.1580 N   0  0  0  0  0  0  0  0  0  0  0  0
  -21.6995  -20.2949   23.0142 N   0  0  0  0  0  0  0  0  0  0  0  0
  -25.1586  -20.2183   19.0011 N   0  0  0  0  0  0  0  0  0  0  0  0
  -25.5643  -17.1999   16.7388 N   0  0  0  0  0  0  0  0  0  0  0  0
  -27.2827  -27.3006   21.4742 N   0  0  0  0  0  0  0  0  0  0  0  0
  -25.8089  -33.6448   23.4845 N   0  0  0  0  0  0  0  0  0  0  0  0
  -19.6391  -20.1981   21.8571 N   0  0  0  0  0  0  0  0  0  0  0  0
  -24.8198  -35.9769   21.1899 N   0  3  0  0  0  0  0  0  0  0  0  0
  -18.6309  -26.3690   21.0117 N   0  3  0  0  0  0  0  0  0  0  0  0
  -27.4818  -17.4565   17.9701 O   0  0  0  0  0  0  0  0  0  0  0  0
  -26.0561  -28.2291   23.2224 O   0  0  0  0  0  0  0  0  0  0  0  0
  -27.7002  -31.5958   22.8262 O   0  0  0  0  0  0  0  0  0  0  0  0
  -23.5620  -33.9137   22.9783 O   0  0  0  0  0  0  0  0  0  0  0  0
  -19.9133  -21.6476   23.6123 O   0  0  0  0  0  0  0  0  0  0  0  0
  -25.6175  -11.3088   20.2624 O   0  0  0  0  0  0  0  0  0  0  0  0
  -17.9455  -25.0411   18.1335 O   0  0  0  0  0  0  0  0  0  0  0  0
  -20.1604  -28.6611   20.2968 O   0  0  0  0  0  0  0  0  0  1  0  0
  -22.3507   -8.4380   23.6521 F   0  0  0  0  0  0  0  0  0  0  0  0
  -23.9306   -9.3492   19.2842 F   0  0  0  0  0  0  0  0  0  0  0  0
  1  2  1  0  0  0  0
  1  5  2  0  0  0  0
  2  6  2  0  0  0  0
  3  8  2  0  0  0  0
  3 17  1  0  0  0  0
  4  9  1  0  0  0  0
  4 17  2  0  0  0  0
  5 19  1  0  0  0  0
  6 21  1  0  0  0  0
  7 10  2  0  0  0  0
  7 20  1  0  0  0  0
  8 26  1  0  0  0  0
  9 26  2  0  0  0  0
 10 27  1  0  0  0  0
 11 12  2  0  0  0  0
 11 28  1  0  0  0  0
 12 30  1  0  0  0  0
 13 22  1  0  0  0  0
 13 27  2  0  0  0  0
 14 23  2  0  0  0  0
 14 29  1  0  0  0  0
 15 24  2  0  0  0  0
 15 25  1  0  0  0  0
 16 30  2  0  0  0  0
 16 31  1  0  0  0  0
 17 32  1  0  0  0  0
 18 32  1  0  0  0  0
 18 33  2  0  0  0  0
 18 34  1  0  0  0  0
 19 21  2  0  0  0  0
 19 39  1  0  0  0  0
 20 22  2  0  0  0  0
 20 40  1  0  0  0  0
 21 51  1  0  0  0  0
 22 41  1  0  0  0  0
 23 24  1  0  0  0  0
 23 50  1  0  0  0  0
 24 60  1  0  0  0  0
 25 29  2  0  0  0  0
 25 61  1  0  0  0  0
 26 83  1  0  0  0  0
 27 85  1  0  0  0  0
 28 31  2  0  0  0  0
 28 83  1  0  0  0  0
 29 84  1  0  0  0  0
 30 86  1  0  0  0  0
 31 87  1  0  0  0  0
 32 67  2  0  0  0  0
 33 68  1  0  0  0  0
 33 71  1  0  0  0  0
 34 72  1  0  0  0  0
 34 78  2  0  0  0  0
 35 52  1  0  0  0  0
 35 73  1  0  0  0  0
 35 79  2  0  0  0  0
 36 64  1  0  0  0  0
 36 69  1  0  0  0  0
 36 80  2  0  0  0  0
 37 65  1  0  0  0  0
 37 74  1  0  0  0  0
 37 81  2  0  0  0  0
 38 70  1  0  0  0  0
 38 75  1  0  0  0  0
 38 82  2  0  0  0  0
 39 42  1  0  0  0  0
 40 52  1  0  0  0  0
 41 69  1  0  0  0  0
 42 46  1  0  0  0  0
 43 47  1  0  0  0  0
 43 48  1  0  0  0  0
 44 45  1  0  0  0  0
 44 50  1  0  0  0  0
 45 50  1  0  0  0  0
 46 51  1  0  0  0  0
 47 53  1  0  0  0  0
 48 70  1  0  0  0  0
 49 53  1  0  0  0  0
 49 70  1  0  0  0  0
 51 73  1  0  0  0  0
 52 69  1  0  0  0  0
 53 68  1  0  0  0  0
 54 65  1  0  0  0  0
 55 66  1  0  0  0  0
 56 66  1  0  0  0  0
 57 66  1  0  0  0  0
 58 76  1  0  0  0  0
 59 84  1  0  0  0  0
 60 75  1  0  0  0  0
 61 77  1  0  0  0  0
 62 63  1  0  0  0  0
 62 77  1  0  0  0  0
 63 85  1  0  0  0  0
 64 66  1  0  0  0  0
 64 74  1  0  0  0  0
 65 76  1  0  0  0  0
 67 68  1  0  0  0  0
M  CHG  2  76   1  77   1
M  ISO  4  38 100  63 101  75 100  85 101
M  END
> <Batch ID>
0164

> <Smiles>
CNC(C)C(=O)NC(C(=O)N1Cc2cc([101O:1][101CH2:1]CNCc3cc(C[100NH:0][100C:0](=O)N4CCCC(n5nc(-c6ccc(Oc7ccc(F)cc7F)cc6)c(C(N)=O)c5N)C4)c(C4CC4)cc3OC)ccc2CC1C(=O)NC1CCCc2ccccc21)C(C)(C)C

> <Shape>
0.227

> <Color>
0.055

> <Negative vol penalty>
0.000

$$$$

  -OEChem-04052322193D

 87 96  0     1  0  0  0  0  0999 V2000
  -32.3285  -28.2353   15.9898 C   0  0  0  0  0  0  0  0  0  0  0  0
  -31.4643  -27.6631   16.9178 C   0  0  0  0  0  0  0  0  0  0  0  0
  -24.2130   -9.8031   20.7862 C   0  0  0  0  0  0  0  0  0  0  0  0
  -24.8033  -10.5475   23.0075 C   0  0  0  0  0  0  0  0  0  0  0  0
  -32.8544  -29.5059   16.2198 C   0  0  0  0  0  0  0  0  0  0  0  0
  -31.1263  -28.3608   18.0768 C   0  0  0  0  0  0  0  0  0  0  0  0
  -26.1714  -28.1438   19.0999 C   0  0  0  0  0  0  0  0  0  0  0  0
  -23.8749   -8.5496   21.2961 C   0  0  0  0  0  0  0  0  0  0  0  0
  -24.4651   -9.2940   23.5175 C   0  0  0  0  0  0  0  0  0  0  0  0
  -25.6910  -26.9686   19.6759 C   0  0  0  0  0  0  0  0  0  0  0  0
  -22.5141   -5.2676   22.0656 C   0  0  0  0  0  0  0  0  0  0  0  0
  -21.3244   -4.6877   21.6251 C   0  0  0  0  0  0  0  0  0  0  0  0
  -25.7155  -28.0278   21.8431 C   0  0  0  0  0  0  0  0  0  0  0  0
  -27.7991  -19.8165   21.6567 C   0  0  0  0  0  0  0  0  0  0  0  0
  -20.0841   -6.5671   22.5006 C   0  0  0  0  0  0  0  0  0  0  0  0
  -24.6773  -10.8020   21.6419 C   0  0  0  0  0  0  0  0  0  0  0  0
  -24.1802  -13.2115   20.9674 C   0  0  0  0  0  0  0  0  0  0  0  0
  -32.5151  -30.2235   17.3776 C   0  0  0  0  0  0  0  0  0  0  0  0
  -26.4382  -29.2683   19.8940 C   0  0  0  0  0  0  0  0  0  0  0  0
  -31.6492  -29.6416   18.3231 C   0  0  0  0  0  0  0  0  0  0  0  0
  -26.1968  -29.2170   21.2743 C   0  0  0  0  0  0  0  0  0  0  0  0
  -27.8032  -21.2096   21.8028 C   0  0  0  0  0  0  0  0  0  0  0  0
  -28.8939  -21.9532   21.3206 C   0  0  0  0  0  0  0  0  0  0  0  0
  -24.0009   -8.2950   22.6617 C   0  0  0  0  0  0  0  0  0  0  0  0
  -25.4658  -26.9095   21.0481 C   0  0  0  0  0  0  0  0  0  0  0  0
  -22.4888   -6.4973   22.7237 C   0  0  0  0  0  0  0  0  0  0  0  0
  -20.1095   -5.3375   21.8426 C   0  0  0  0  0  0  0  0  0  0  0  0
  -21.2738   -7.1470   22.9411 C   0  0  0  0  0  0  0  0  0  0  0  0
  -25.0272  -12.0969   21.1157 C   0  0  0  0  0  0  0  0  0  0  0  0
  -29.9021  -21.2295   20.6762 C   0  0  0  0  0  0  0  0  0  0  0  0
  -28.8635  -19.2126   21.0120 C   0  0  0  0  0  0  0  0  0  0  0  0
  -24.9851  -14.1851   20.4282 C   0  0  0  0  0  0  0  0  0  0  0  0
  -22.7902  -13.3541   21.2885 C   0  0  0  0  0  0  0  0  0  0  0  0
  -29.0356  -30.9707   20.5716 C   0  0  0  0  0  0  0  0  0  0  0  0
  -26.9082  -32.8828   22.1015 C   0  0  0  0  0  0  0  0  0  0  0  0
  -23.8734  -33.1981   23.6303 C   0  0  0  0  0  0  0  0  0  0  0  0
  -29.7906  -16.9929   20.2638 C   0  0  0  0  0  0  0  0  0  0  0  0
  -33.1459  -31.5744   17.6054 C   0  0  0  0  0  0  0  0  0  0  0  0
  -26.9307  -30.5371   19.2536 C   0  0  0  0  0  0  0  0  0  0  0  0
  -26.6478  -21.8534   22.5264 C   0  0  0  0  0  0  0  0  0  0  0  0
  -26.4480  -30.4030   22.1680 C   0  0  0  0  0  0  0  0  0  0  0  0
  -32.4428  -32.4018   18.6783 C   0  0  0  0  0  0  0  0  0  0  0  0
  -29.6572  -13.9022   18.5012 C   0  0  0  0  0  0  0  0  0  0  0  0
  -32.1682  -31.5508   19.9142 C   0  0  0  0  0  0  0  0  0  0  0  0
  -28.3711  -13.2487   19.0121 C   0  0  0  0  0  0  0  0  0  0  0  0
  -27.9015  -24.0099   22.4452 C   0  0  0  0  0  0  0  0  0  0  0  0
  -30.3806  -14.6703   19.6059 C   0  0  0  0  0  0  0  0  0  0  0  0
  -28.2696  -14.9983   20.8329 C   0  0  0  0  0  0  0  0  0  0  0  0
  -31.2393  -30.3772   19.5805 C   0  0  1  0  0  0  0  0  0  0  0  0
  -27.6555  -31.4574   20.2308 C   0  0  1  0  0  0  0  0  0  0  0  0
  -26.5293  -23.3563   22.2583 C   0  0  2  0  0  0  0  0  0  0  0  0
  -27.4724  -14.2671   19.7405 C   0  0  2  0  0  0  0  0  0  0  0  0
  -28.9580  -23.4738   21.4423 C   0  0  0  0  0  0  0  0  0  0  0  0
  -31.0839  -21.8747   20.0324 C   0  0  0  0  0  0  0  0  0  0  0  0
  -28.7156  -24.0950   20.0495 C   0  0  0  0  0  0  0  0  0  0  0  0
  -30.3399  -23.9434   21.9507 C   0  0  0  0  0  0  0  0  0  0  0  0
  -22.4294  -34.8735   24.8157 C   0  0  0  0  0  0  0  0  0  0  0  0
  -24.1329  -23.3192   23.0025 C   0  0  0  0  0  0  0  0  0  0  0  0
  -28.6552  -32.6243   24.5897 C   0  0  0  0  0  0  0  0  0  0  0  0
  -26.7335  -33.4861   25.9434 C   0  0  0  0  0  0  0  0  0  0  0  0
  -27.7575  -34.9222   24.1794 C   0  0  0  0  0  0  0  0  0  0  0  0
  -21.7262  -32.9512   21.6085 C   0  0  0  0  0  0  0  0  0  0  0  0
  -25.3825  -25.4975   22.9599 C   0  0  0  0  0  0  0  0  0  1  0  0
  -26.3377  -32.9445   23.4978 C   0  0  1  0  0  0  0  0  0  0  0  0
  -22.7725  -34.2324   23.4800 C   0  0  2  0  0  0  0  0  0  0  0  0
  -25.4942  -23.9871   23.1890 C   0  0  2  0  0  0  0  0  0  0  0  0
  -27.3680  -33.4711   24.5363 C   0  0  0  0  0  0  0  0  0  0  0  0
  -26.2746  -12.3387   20.7037 N   0  0  0  0  0  0  0  0  0  0  0  0
  -29.9165  -19.8863   20.5122 N   0  0  0  0  0  0  0  0  0  0  0  0
  -26.2172  -13.6165   20.2912 N   0  0  0  0  0  0  0  0  0  0  0  0
  -26.9353  -31.6187   21.4955 N   0  0  0  0  0  0  0  0  0  0  0  0
  -29.4685  -15.6193   20.2481 N   0  0  0  0  0  0  0  0  0  0  0  0
  -24.7521  -15.4635   20.0625 N   0  0  0  0  0  0  0  0  0  0  0  0
  -22.1146  -12.2548   21.8356 N   0  0  0  0  0  0  0  0  0  0  0  0
  -28.8329  -17.8028   20.8733 N   0  0  0  0  0  0  0  0  0  0  0  0
  -29.8688  -30.8307   19.4782 N   0  0  0  0  0  0  0  0  0  0  0  0
  -25.1201  -33.7429   23.4062 N   0  0  0  0  0  0  0  0  0  0  0  0
  -21.5393  -33.6004   22.9316 N   0  3  0  0  0  0  0  0  0  0  0  0
  -22.1616  -14.4196   21.0807 O   0  0  0  0  0  0  0  0  0  0  0  0
  -29.3237  -30.7407   21.7403 O   0  0  0  0  0  0  0  0  0  0  0  0
  -27.3084  -33.9192   21.5654 O   0  0  0  0  0  0  0  0  0  0  0  0
  -23.6501  -32.0250   23.9212 O   0  0  0  0  0  0  0  0  0  0  0  0
  -30.8260  -17.4225   19.7487 O   0  0  0  0  0  0  0  0  0  0  0  0
  -23.6708   -7.0721   23.1597 O   0  0  0  0  0  0  0  0  0  0  0  0
  -24.9942  -25.7552   21.6170 O   0  0  0  0  0  0  0  0  0  1  0  0
  -18.9673   -4.7812   21.4182 F   0  0  0  0  0  0  0  0  0  0  0  0
  -21.2433   -8.3291   23.5717 F   0  0  0  0  0  0  0  0  0  0  0  0
  1  2  1  0  0  0  0
  1  5  2  0  0  0  0
  2  6  2  0  0  0  0
  3  8  2  0  0  0  0
  3 16  1  0  0  0  0
  4  9  1  0  0  0  0
  4 16  2  0  0  0  0
  5 18  1  0  0  0  0
  6 20  1  0  0  0  0
  7 10  2  0  0  0  0
  7 19  1  0  0  0  0
  8 24  1  0  0  0  0
  9 24  2  0  0  0  0
 10 25  1  0  0  0  0
 11 12  2  0  0  0  0
 11 26  1  0  0  0  0
 12 27  1  0  0  0  0
 13 21  1  0  0  0  0
 13 25  2  0  0  0  0
 14 22  1  0  0  0  0
 14 31  2  0  0  0  0
 15 27  2  0  0  0  0
 15 28  1  0  0  0  0
 16 29  1  0  0  0  0
 17 29  1  0  0  0  0
 17 32  2  0  0  0  0
 17 33  1  0  0  0  0
 18 20  2  0  0  0  0
 18 38  1  0  0  0  0
 19 21  2  0  0  0  0
 19 39  1  0  0  0  0
 20 49  1  0  0  0  0
 21 41  1  0  0  0  0
 22 23  2  0  0  0  0
 22 40  1  0  0  0  0
 23 30  1  0  0  0  0
 23 53  1  0  0  0  0
 24 84  1  0  0  0  0
 25 85  1  0  0  0  0
 26 28  2  0  0  0  0
 26 84  1  0  0  0  0
 27 86  1  0  0  0  0
 28 87  1  0  0  0  0
 29 68  2  0  0  0  0
 30 54  1  0  0  0  0
 30 69  2  0  0  0  0
 31 69  1  0  0  0  0
 31 75  1  0  0  0  0
 32 70  1  0  0  0  0
 32 73  1  0  0  0  0
 33 74  1  0  0  0  0
 33 79  2  0  0  0  0
 34 50  1  0  0  0  0
 34 76  1  0  0  0  0
 34 80  2  0  0  0  0
 35 64  1  0  0  0  0
 35 71  1  0  0  0  0
 35 81  2  0  0  0  0
 36 65  1  0  0  0  0
 36 77  1  0  0  0  0
 36 82  2  0  0  0  0
 37 72  1  0  0  0  0
 37 75  1  0  0  0  0
 37 83  2  0  0  0  0
 38 42  1  0  0  0  0
 39 50  1  0  0  0  0
 40 51  1  0  0  0  0
 41 71  1  0  0  0  0
 42 44  1  0  0  0  0
 43 45  1  0  0  0  0
 43 47  1  0  0  0  0
 44 49  1  0  0  0  0
 45 52  1  0  0  0  0
 46 51  1  0  0  0  0
 46 53  1  0  0  0  0
 47 72  1  0  0  0  0
 48 52  1  0  0  0  0
 48 72  1  0  0  0  0
 49 76  1  0  0  0  0
 50 71  1  0  0  0  0
 51 66  1  0  0  0  0
 52 70  1  0  0  0  0
 53 55  1  0  0  0  0
 53 56  1  0  0  0  0
 57 65  1  0  0  0  0
 58 66  1  0  0  0  0
 59 67  1  0  0  0  0
 60 67  1  0  0  0  0
 61 67  1  0  0  0  0
 62 78  1  0  0  0  0
 63 66  1  0  0  0  0
 63 85  1  0  0  0  0
 64 67  1  0  0  0  0
 64 77  1  0  0  0  0
 65 78  1  0  0  0  0
 68 70  1  0  0  0  0
M  CHG  1  78   1
M  ISO  4  37 100  63 101  75 100  85 101
M  END
> <Batch ID>
0164

> <Smiles>
CNC(C)C(=O)NC(C(=O)N1Cc2cc([101O:1][101CH2:1]C(C)C3Cc4cc([100NH:0][100C:0](=O)N5CCCC(n6nc(-c7ccc(Oc8ccc(F)cc8F)cc7)c(C(N)=O)c6N)C5)nc(C)c4C(C)(C)C3)ccc2CC1C(=O)NC1CCCc2ccccc21)C(C)(C)C

> <Shape>
0.267

> <Color>
0.151

> <Negative vol penalty>
0.000

$$$$

  -OEChem-04052322193D

 88 97  0     1  0  0  0  0  0999 V2000
  -32.3182  -34.2186   19.8674 C   0  0  0  0  0  0  0  0  0  0  0  0
  -31.1228  -33.8938   20.5005 C   0  0  0  0  0  0  0  0  0  0  0  0
  -25.4948  -14.2017   20.8980 C   0  0  0  0  0  0  0  0  0  0  0  0
  -23.1537  -13.8115   20.4461 C   0  0  0  0  0  0  0  0  0  0  0  0
  -32.7675  -33.4519   18.7931 C   0  0  0  0  0  0  0  0  0  0  0  0
  -30.3754  -32.8025   20.0589 C   0  0  0  0  0  0  0  0  0  0  0  0
  -27.0240  -29.0019   23.4983 C   0  0  0  0  0  0  0  0  0  0  0  0
  -25.5652  -12.9879   21.5816 C   0  0  0  0  0  0  0  0  0  0  0  0
  -23.2241  -12.5976   21.1297 C   0  0  0  0  0  0  0  0  0  0  0  0
  -25.6591  -28.9462   23.7769 C   0  0  0  0  0  0  0  0  0  0  0  0
  -22.8752   -9.2265   22.4456 C   0  0  0  0  0  0  0  0  0  0  0  0
  -22.2722   -8.1144   21.8579 C   0  0  0  0  0  0  0  0  0  0  0  0
  -25.3733  -27.3171   22.0208 C   0  0  0  0  0  0  0  0  0  0  0  0
  -19.3529  -29.2342   23.0260 C   0  0  0  0  0  0  0  0  0  0  0  0
  -20.8381  -27.5692   22.0993 C   0  0  0  0  0  0  0  0  0  0  0  0
  -23.7193   -8.3450   19.9370 C   0  0  0  0  0  0  0  0  0  0  0  0
  -24.2890  -14.6135   20.3303 C   0  0  0  0  0  0  0  0  0  0  0  0
  -24.4438  -16.0855   18.2526 C   0  0  0  0  0  0  0  0  0  0  0  0
  -32.0301  -32.3449   18.3443 C   0  0  0  0  0  0  0  0  0  0  0  0
  -27.5730  -28.2225   22.4699 C   0  0  0  0  0  0  0  0  0  0  0  0
  -30.8146  -32.0210   18.9767 C   0  0  0  0  0  0  0  0  0  0  0  0
  -26.7460  -27.3629   21.7329 C   0  0  0  0  0  0  0  0  0  0  0  0
  -20.6357  -28.8336   22.6525 C   0  0  0  0  0  0  0  0  0  0  0  0
  -18.2725  -28.3704   22.8464 C   0  0  0  0  0  0  0  0  0  0  0  0
  -18.4749  -27.1060   22.2932 C   0  0  0  0  0  0  0  0  0  0  0  0
  -19.7577  -26.7054   21.9197 C   0  0  0  0  0  0  0  0  0  0  0  0
  -24.4299  -12.1858   21.6974 C   0  0  0  0  0  0  0  0  0  0  0  0
  -24.8330  -28.1059   23.0362 C   0  0  0  0  0  0  0  0  0  0  0  0
  -23.9002   -9.8978   21.7790 C   0  0  0  0  0  0  0  0  0  0  0  0
  -22.6943   -7.6737   20.6037 C   0  0  0  0  0  0  0  0  0  0  0  0
  -24.3223   -9.4571   20.5248 C   0  0  0  0  0  0  0  0  0  0  0  0
  -24.2155  -15.8675   19.6245 C   0  0  0  0  0  0  0  0  0  0  0  0
  -24.2508  -17.4347   18.0825 C   0  0  0  0  0  0  0  0  0  0  0  0
  -24.7984  -15.1519   17.2239 C   0  0  0  0  0  0  0  0  0  0  0  0
  -29.0852  -28.8474   19.7448 C   0  0  0  0  0  0  0  0  0  0  0  0
  -29.4520  -25.6254   19.6623 C   0  0  0  0  0  0  0  0  0  0  0  0
  -28.3384  -22.5564   20.6561 C   0  0  0  0  0  0  0  0  0  0  0  0
  -21.0403  -21.6718   19.7621 C   0  0  0  0  0  0  0  0  0  0  0  0
  -32.5324  -31.5744   17.1490 C   0  0  0  0  0  0  0  0  0  0  0  0
  -29.0517  -28.2741   22.1996 C   0  0  0  0  0  0  0  0  0  0  0  0
  -27.2894  -26.4906   20.6318 C   0  0  0  0  0  0  0  0  0  0  0  0
  -31.8698  -30.2093   16.9820 C   0  0  0  0  0  0  0  0  0  0  0  0
  -24.2913  -21.3732   21.0588 C   0  0  0  0  0  0  0  0  0  0  0  0
  -30.3573  -30.3269   17.1419 C   0  0  0  0  0  0  0  0  0  0  0  0
  -24.6354  -19.9313   20.6870 C   0  0  0  0  0  0  0  0  0  0  0  0
  -22.8443  -21.5127   21.5344 C   0  0  0  0  0  0  0  0  0  0  0  0
  -20.5543  -25.3395   20.0150 C   0  0  0  0  0  0  0  0  0  0  0  0
  -20.2574  -24.3278   22.2810 C   0  0  0  0  0  0  0  0  0  0  0  0
  -20.2549  -23.9800   19.3890 C   0  0  0  0  0  0  0  0  0  0  0  0
  -19.9512  -22.9908   21.6152 C   0  0  0  0  0  0  0  0  0  0  0  0
  -22.1899  -19.5248   20.2160 C   0  0  0  0  0  0  0  0  0  0  0  0
  -29.9882  -30.8299   18.5427 C   0  0  1  0  0  0  0  0  0  0  0  0
  -29.4176  -27.8202   20.7898 C   0  0  1  0  0  0  0  0  0  0  0  0
  -23.6206  -19.3636   19.6788 C   0  0  2  0  0  0  0  0  0  0  0  0
  -16.9091  -28.8238   23.2550 C   0  0  0  0  0  0  0  0  0  0  0  0
  -17.3132  -26.1821   22.1031 C   0  0  0  0  0  0  0  0  0  0  0  0
  -22.4307  -30.1831   21.5041 C   0  0  0  0  0  0  0  0  0  0  0  0
  -28.8196  -20.1072   20.3964 C   0  0  0  0  0  0  0  0  0  0  0  0
  -22.3673  -28.9660   25.2273 C   0  0  0  0  0  0  0  0  0  0  0  0
  -28.2221  -25.6823   16.8705 C   0  0  0  0  0  0  0  0  0  0  0  0
  -27.8555  -23.2127   17.0576 C   0  0  0  0  0  0  0  0  0  0  0  0
  -30.1720  -24.1363   17.1202 C   0  0  0  0  0  0  0  0  0  0  0  0
  -28.8288  -22.2267   23.5561 C   0  0  0  0  0  0  0  0  0  0  0  0
  -21.7908  -29.7566   22.8466 C   0  0  2  0  0  0  0  0  0  0  0  0
  -28.6496  -24.4719   19.1106 C   0  0  1  0  0  0  0  0  0  0  0  0
  -29.0707  -21.3557   21.2277 C   0  0  2  0  0  0  0  0  0  0  0  0
  -22.8933  -29.2361   23.8210 C   0  0  2  0  0  0  0  0  0  1  0  0
  -28.7139  -24.3936   17.5591 C   0  0  0  0  0  0  0  0  0  0  0  0
  -23.9018  -16.9885   20.2795 N   0  0  0  0  0  0  0  0  0  0  0  0
  -23.9315  -17.9239   19.3150 N   0  0  0  0  0  0  0  0  0  0  0  0
  -19.9811  -25.4402   21.3616 N   0  0  0  0  0  0  0  0  0  0  0  0
  -28.7406  -26.5813   20.4013 N   0  0  0  0  0  0  0  0  0  0  0  0
  -21.9169  -20.9217   20.5603 N   0  0  0  0  0  0  0  0  0  0  0  0
  -20.5773  -22.8848   20.2957 N   0  0  0  0  0  0  0  0  0  0  0  0
  -24.3249  -18.2386   17.0005 N   0  0  0  0  0  0  0  0  0  0  0  0
  -24.9569  -13.8034   17.5712 N   0  0  0  0  0  0  0  0  0  0  0  0
  -30.0971  -29.7585   19.5095 N   0  0  0  0  0  0  0  0  0  0  0  0
  -29.1347  -23.2754   19.7899 N   0  0  0  0  0  0  0  0  0  0  0  0
  -28.6195  -21.0899   22.6230 N   0  3  0  0  0  0  0  0  0  0  0  0
  -24.9857  -15.5058   16.0351 O   0  0  0  0  0  0  0  0  0  0  0  0
  -27.9921  -28.8148   19.1917 O   0  0  0  0  0  0  0  0  0  0  0  0
  -30.6665  -25.6728   19.4516 O   0  0  0  0  0  0  0  0  0  0  0  0
  -27.1752  -22.8271   20.9460 O   0  0  0  0  0  0  0  0  0  0  0  0
  -20.6936  -21.2848   18.6392 O   0  0  0  0  0  0  0  0  0  0  0  0
  -24.4983  -11.0012   22.3642 O   0  0  0  0  0  0  0  0  0  0  0  0
  -23.4922  -28.0497   23.3072 O   0  0  0  0  0  0  0  0  0  1  0  0
  -22.1162   -6.6048   20.0401 F   0  0  0  0  0  0  0  0  0  0  0  0
  -25.3073  -10.0972   19.8800 F   0  0  0  0  0  0  0  0  0  0  0  0
  1  2  1  0  0  0  0
  1  5  2  0  0  0  0
  2  6  2  0  0  0  0
  3  8  2  0  0  0  0
  3 17  1  0  0  0  0
  4  9  1  0  0  0  0
  4 17  2  0  0  0  0
  5 19  1  0  0  0  0
  6 21  1  0  0  0  0
  7 10  2  0  0  0  0
  7 20  1  0  0  0  0
  8 27  1  0  0  0  0
  9 27  2  0  0  0  0
 10 28  1  0  0  0  0
 11 12  2  0  0  0  0
 11 29  1  0  0  0  0
 12 30  1  0  0  0  0
 13 22  1  0  0  0  0
 13 28  2  0  0  0  0
 14 23  1  0  0  0  0
 14 24  2  0  0  0  0
 15 23  2  0  0  0  0
 15 26  1  0  0  0  0
 16 30  2  0  0  0  0
 16 31  1  0  0  0  0
 17 32  1  0  0  0  0
 18 32  1  0  0  0  0
 18 33  2  0  0  0  0
 18 34  1  0  0  0  0
 19 21  2  0  0  0  0
 19 39  1  0  0  0  0
 20 22  2  0  0  0  0
 20 40  1  0  0  0  0
 21 52  1  0  0  0  0
 22 41  1  0  0  0  0
 23 64  1  0  0  0  0
 24 25  1  0  0  0  0
 24 55  1  0  0  0  0
 25 26  2  0  0  0  0
 25 56  1  0  0  0  0
 26 71  1  0  0  0  0
 27 85  1  0  0  0  0
 28 86  1  0  0  0  0
 29 31  2  0  0  0  0
 29 85  1  0  0  0  0
 30 87  1  0  0  0  0
 31 88  1  0  0  0  0
 32 69  2  0  0  0  0
 33 70  1  0  0  0  0
 33 75  1  0  0  0  0
 34 76  1  0  0  0  0
 34 80  2  0  0  0  0
 35 53  1  0  0  0  0
 35 77  1  0  0  0  0
 35 81  2  0  0  0  0
 36 65  1  0  0  0  0
 36 72  1  0  0  0  0
 36 82  2  0  0  0  0
 37 66  1  0  0  0  0
 37 78  1  0  0  0  0
 37 83  2  0  0  0  0
 38 73  1  0  0  0  0
 38 74  1  0  0  0  0
 38 84  2  0  0  0  0
 39 42  1  0  0  0  0
 40 53  1  0  0  0  0
 41 72  1  0  0  0  0
 42 44  1  0  0  0  0
 43 45  1  0  0  0  0
 43 46  1  0  0  0  0
 44 52  1  0  0  0  0
 45 54  1  0  0  0  0
 46 73  1  0  0  0  0
 47 49  1  0  0  0  0
 47 71  1  0  0  0  0
 48 50  1  0  0  0  0
 48 71  1  0  0  0  0
 49 74  1  0  0  0  0
 50 74  1  0  0  0  0
 51 54  1  0  0  0  0
 51 73  1  0  0  0  0
 52 77  1  0  0  0  0
 53 72  1  0  0  0  0
 54 70  1  0  0  0  0
 57 64  1  0  0  0  0
 58 66  1  0  0  0  0
 59 67  1  0  0  0  0
 60 68  1  0  0  0  0
 61 68  1  0  0  0  0
 62 68  1  0  0  0  0
 63 79  1  0  0  0  0
 64 67  1  0  0  0  0
 65 68  1  0  0  0  0
 65 78  1  0  0  0  0
 66 79  1  0  0  0  0
 67 86  1  0  0  0  0
 69 70  1  0  0  0  0
M  CHG  1  79   1
M  ISO  4  38 100  67 101  74 100  86 101
M  END
> <Batch ID>
0164

> <Smiles>
CNC(C)C(=O)NC(C(=O)N1Cc2cc([101O:1][101CH:1](C)C(C)c3cc(C)c(C)c(N4CC[100N:0]([100C:0](=O)N5CCCC(n6nc(-c7ccc(Oc8ccc(F)cc8F)cc7)c(C(N)=O)c6N)C5)CC4)c3)ccc2CC1C(=O)NC1CCCc2ccccc21)C(C)(C)C

> <Shape>
0.227

> <Color>
0.064

> <Negative vol penalty>
0.000

$$$$

  -OEChem-04052322193D

 85 94  0     1  0  0  0  0  0999 V2000
  -26.9618  -34.9520   24.4722 C   0  0  0  0  0  0  0  0  0  0  0  0
  -27.3345  -33.6689   24.0850 C   0  0  0  0  0  0  0  0  0  0  0  0
  -24.1986  -13.5253   20.1777 C   0  0  0  0  0  0  0  0  0  0  0  0
  -26.5808  -13.3404   20.5356 C   0  0  0  0  0  0  0  0  0  0  0  0
  -25.6466  -35.2082   24.8579 C   0  0  0  0  0  0  0  0  0  0  0  0
  -26.3924  -32.6408   24.0842 C   0  0  0  0  0  0  0  0  0  0  0  0
  -26.6239  -29.7969   19.9005 C   0  0  0  0  0  0  0  0  0  0  0  0
  -24.0997  -12.1353   20.1176 C   0  0  0  0  0  0  0  0  0  0  0  0
  -26.4819  -11.9504   20.4756 C   0  0  0  0  0  0  0  0  0  0  0  0
  -27.6457  -28.8510   19.8293 C   0  0  0  0  0  0  0  0  0  0  0  0
  -24.0265   -9.5470   22.2920 C   0  0  0  0  0  0  0  0  0  0  0  0
  -22.9889   -8.9398   22.9993 C   0  0  0  0  0  0  0  0  0  0  0  0
  -31.5140  -23.8403   20.9713 C   0  0  0  0  0  0  0  0  0  0  0  0
  -29.2637  -23.3292   19.3395 C   0  0  0  0  0  0  0  0  0  0  0  0
  -26.0853  -27.1263   20.4693 C   0  0  0  0  0  0  0  0  0  0  0  0
  -22.1264   -8.0155   20.9404 C   0  0  0  0  0  0  0  0  0  0  0  0
  -25.4392  -14.1279   20.3866 C   0  0  0  0  0  0  0  0  0  0  0  0
  -25.4333  -16.3755   21.5932 C   0  0  0  0  0  0  0  0  0  0  0  0
  -24.6857  -34.1849   24.8526 C   0  0  0  0  0  0  0  0  0  0  0  0
  -25.3254  -29.4158   20.2678 C   0  0  0  0  0  0  0  0  0  0  0  0
  -25.0635  -32.8832   24.4714 C   0  0  0  0  0  0  0  0  0  0  0  0
  -31.5088  -22.7877   20.0707 C   0  0  0  0  0  0  0  0  0  0  0  0
  -30.3939  -22.5298   19.2632 C   0  0  0  0  0  0  0  0  0  0  0  0
  -25.0483  -28.0689   20.5419 C   0  0  0  0  0  0  0  0  0  0  0  0
  -30.3724  -24.6384   21.0644 C   0  0  0  0  0  0  0  0  0  0  0  0
  -29.2554  -24.3852   20.2537 C   0  0  0  0  0  0  0  0  0  0  0  0
  -25.2413  -11.3478   20.2666 C   0  0  0  0  0  0  0  0  0  0  0  0
  -27.3771  -27.5159   20.1165 C   0  0  0  0  0  0  0  0  0  0  0  0
  -24.1140   -9.3885   20.9089 C   0  0  0  0  0  0  0  0  0  0  0  0
  -22.0388   -8.1740   22.3235 C   0  0  0  0  0  0  0  0  0  0  0  0
  -23.1640   -8.6228   20.2331 C   0  0  0  0  0  0  0  0  0  0  0  0
  -25.5421  -15.5638   20.4482 C   0  0  0  0  0  0  0  0  0  0  0  0
  -25.6039  -17.6552   21.1244 C   0  0  0  0  0  0  0  0  0  0  0  0
  -25.1990  -16.0059   22.9586 C   0  0  0  0  0  0  0  0  0  0  0  0
  -23.3678  -30.1424   22.6644 C   0  0  0  0  0  0  0  0  0  0  0  0
  -21.2582  -28.3551   20.9681 C   0  0  0  0  0  0  0  0  0  0  0  0
  -20.7439  -25.8929   18.6616 C   0  0  0  0  0  0  0  0  0  0  0  0
  -28.6274  -20.5963   17.1592 C   0  0  0  0  0  0  0  0  0  0  0  0
  -23.2876  -34.4994   25.3228 C   0  0  0  0  0  0  0  0  0  0  0  0
  -24.2284  -30.4439   20.3140 C   0  0  0  0  0  0  0  0  0  0  0  0
  -32.6235  -21.8341   19.7725 C   0  0  0  0  0  0  0  0  0  0  0  0
  -23.6666  -27.6048   20.9214 C   0  0  0  0  0  0  0  0  0  0  0  0
  -22.2614  -33.4377   24.9356 C   0  0  0  0  0  0  0  0  0  0  0  0
  -25.1794  -19.8327   16.7062 C   0  0  0  0  0  0  0  0  0  0  0  0
  -22.7954  -32.0421   25.2422 C   0  0  0  0  0  0  0  0  0  0  0  0
  -24.9114  -18.7295   17.7314 C   0  0  0  0  0  0  0  0  0  0  0  0
  -26.5737  -19.7090   16.0956 C   0  0  0  0  0  0  0  0  0  0  0  0
  -27.4069  -18.5415   18.0997 C   0  0  0  0  0  0  0  0  0  0  0  0
  -24.0645  -31.7471   24.4336 C   0  0  1  0  0  0  0  0  0  0  0  0
  -30.6645  -21.3750   18.3436 C   0  0  1  0  0  0  0  0  0  0  0  0
  -23.0571  -30.0285   21.1987 C   0  0  1  0  0  0  0  0  0  0  0  0
  -31.8675  -20.6998   19.0464 C   0  0  1  0  0  0  0  0  0  0  0  0
  -26.0340  -18.6572   18.7838 C   0  0  2  0  0  0  0  0  0  0  0  0
  -30.3605  -25.7642   22.0474 C   0  0  0  0  0  0  0  0  0  0  0  0
  -18.9104  -24.6257   17.5083 C   0  0  0  0  0  0  0  0  0  0  0  0
  -33.9467  -19.3288   18.8288 C   0  0  0  0  0  0  0  0  0  0  0  0
  -31.9615  -18.8491   17.3685 C   0  0  0  0  0  0  0  0  0  0  0  0
  -20.7985  -26.7188   23.5021 C   0  0  0  0  0  0  0  0  0  0  0  0
  -19.7372  -24.9497   22.0836 C   0  0  0  0  0  0  0  0  0  0  0  0
  -18.7259  -27.2271   22.1982 C   0  0  0  0  0  0  0  0  0  0  0  0
  -21.5997  -26.8519   15.9957 C   0  0  0  0  0  0  0  0  0  0  0  0
  -28.0269  -25.2407   20.3557 C   0  0  0  0  0  0  0  0  0  1  0  0
  -20.8859  -26.8927   20.9275 C   0  0  1  0  0  0  0  0  0  0  0  0
  -19.8410  -25.8268   17.4430 C   0  0  2  0  0  0  0  0  0  0  0  0
  -32.7615  -19.9316   18.0835 C   0  0  0  0  0  0  0  0  0  0  0  0
  -20.0634  -26.4558   22.1726 C   0  0  0  0  0  0  0  0  0  0  0  0
  -25.7645  -16.2686   19.3357 N   0  0  0  0  0  0  0  0  0  0  0  0
  -25.7967  -17.5368   19.7794 N   0  0  0  0  0  0  0  0  0  0  0  0
  -22.6291  -28.6488   20.9589 N   0  0  0  0  0  0  0  0  0  0  0  0
  -27.5923  -19.6469   17.1465 N   0  0  0  0  0  0  0  0  0  0  0  0
  -25.6062  -18.8589   21.7355 N   0  0  0  0  0  0  0  0  0  0  0  0
  -25.0465  -14.6470   23.2661 N   0  0  0  0  0  0  0  0  0  0  0  0
  -23.7267  -31.4148   23.0662 N   0  0  0  0  0  0  0  0  0  0  0  0
  -20.2031  -26.6803   19.6559 N   0  0  0  0  0  0  0  0  0  0  0  0
  -29.5472  -20.4697   18.1930 N   0  0  0  0  0  0  0  0  0  0  0  0
  -20.6558  -25.7229   16.1996 N   0  3  0  0  0  0  0  0  0  0  0  0
  -25.1106  -16.8567   23.8761 O   0  0  0  0  0  0  0  0  0  0  0  0
  -23.2864  -29.1496   23.3782 O   0  0  0  0  0  0  0  0  0  0  0  0
  -20.3654  -29.2058   20.9992 O   0  0  0  0  0  0  0  0  0  0  0  0
  -21.8196  -25.3019   18.7264 O   0  0  0  0  0  0  0  0  0  0  0  0
  -28.7217  -21.4938   16.3151 O   0  0  0  0  0  0  0  0  0  0  0  0
  -25.1452   -9.9914   20.2082 O   0  0  0  0  0  0  0  0  0  0  0  0
  -28.3727  -26.5907   20.0485 O   0  0  0  0  0  0  0  0  0  1  0  0
  -21.0434   -7.5897   23.0031 F   0  0  0  0  0  0  0  0  0  0  0  0
  -23.2435   -8.4659   18.9046 F   0  0  0  0  0  0  0  0  0  0  0  0
  1  2  1  0  0  0  0
  1  5  2  0  0  0  0
  2  6  2  0  0  0  0
  3  8  2  0  0  0  0
  3 17  1  0  0  0  0
  4  9  1  0  0  0  0
  4 17  2  0  0  0  0
  5 19  1  0  0  0  0
  6 21  1  0  0  0  0
  7 10  2  0  0  0  0
  7 20  1  0  0  0  0
  8 27  1  0  0  0  0
  9 27  2  0  0  0  0
 10 28  1  0  0  0  0
 11 12  2  0  0  0  0
 11 29  1  0  0  0  0
 12 30  1  0  0  0  0
 13 22  2  0  0  0  0
 13 25  1  0  0  0  0
 14 23  2  0  0  0  0
 14 26  1  0  0  0  0
 15 24  1  0  0  0  0
 15 28  2  0  0  0  0
 16 30  2  0  0  0  0
 16 31  1  0  0  0  0
 17 32  1  0  0  0  0
 18 32  1  0  0  0  0
 18 33  2  0  0  0  0
 18 34  1  0  0  0  0
 19 21  2  0  0  0  0
 19 39  1  0  0  0  0
 20 24  2  0  0  0  0
 20 40  1  0  0  0  0
 21 49  1  0  0  0  0
 22 23  1  0  0  0  0
 22 41  1  0  0  0  0
 23 50  1  0  0  0  0
 24 42  1  0  0  0  0
 25 26  2  0  0  0  0
 25 54  1  0  0  0  0
 26 62  1  0  0  0  0
 27 82  1  0  0  0  0
 28 83  1  0  0  0  0
 29 31  2  0  0  0  0
 29 82  1  0  0  0  0
 30 84  1  0  0  0  0
 31 85  1  0  0  0  0
 32 67  2  0  0  0  0
 33 68  1  0  0  0  0
 33 71  1  0  0  0  0
 34 72  1  0  0  0  0
 34 77  2  0  0  0  0
 35 51  1  0  0  0  0
 35 73  1  0  0  0  0
 35 78  2  0  0  0  0
 36 63  1  0  0  0  0
 36 69  1  0  0  0  0
 36 79  2  0  0  0  0
 37 64  1  0  0  0  0
 37 74  1  0  0  0  0
 37 80  2  0  0  0  0
 38 70  1  0  0  0  0
 38 75  1  0  0  0  0
 38 81  2  0  0  0  0
 39 43  1  0  0  0  0
 40 51  1  0  0  0  0
 41 52  1  0  0  0  0
 42 69  1  0  0  0  0
 43 45  1  0  0  0  0
 44 46  1  0  0  0  0
 44 47  1  0  0  0  0
 45 49  1  0  0  0  0
 46 53  1  0  0  0  0
 47 70  1  0  0  0  0
 48 53  1  0  0  0  0
 48 70  1  0  0  0  0
 49 73  1  0  0  0  0
 50 52  1  0  0  0  0
 50 75  1  0  0  0  0
 51 69  1  0  0  0  0
 52 65  1  0  0  0  0
 53 68  1  0  0  0  0
 55 64  1  0  0  0  0
 56 65  1  0  0  0  0
 57 65  1  0  0  0  0
 58 66  1  0  0  0  0
 59 66  1  0  0  0  0
 60 66  1  0  0  0  0
 61 76  1  0  0  0  0
 62 83  1  0  0  0  0
 63 66  1  0  0  0  0
 63 74  1  0  0  0  0
 64 76  1  0  0  0  0
 67 68  1  0  0  0  0
M  CHG  1  76   1
M  ISO  4  38 100  62 101  75 100  83 101
M  END
> <Batch ID>
0164

> <Smiles>
CNC(C)C(=O)NC(C(=O)N1Cc2cc([101O:1][101CH2:1]c3cc4c(cc3C)CC(C(C)C)C4[100NH:0][100C:0](=O)N3CCCC(n4nc(-c5ccc(Oc6ccc(F)cc6F)cc5)c(C(N)=O)c4N)C3)ccc2CC1C(=O)NC1CCCc2ccccc21)C(C)(C)C

> <Shape>
0.259

> <Color>
0.089

> <Negative vol penalty>
0.000

$$$$

  -OEChem-04052322193D

 87 96  0     1  0  0  0  0  0999 V2000
  -21.7922  -34.8401   15.5001 C   0  0  0  0  0  0  0  0  0  0  0  0
  -22.5631  -33.6827   15.5405 C   0  0  0  0  0  0  0  0  0  0  0  0
  -24.8115   -9.1102   21.1159 C   0  0  0  0  0  0  0  0  0  0  0  0
  -22.9212   -9.6335   22.5266 C   0  0  0  0  0  0  0  0  0  0  0  0
  -21.9097  -35.7902   16.5137 C   0  0  0  0  0  0  0  0  0  0  0  0
  -23.4528  -33.4753   16.5940 C   0  0  0  0  0  0  0  0  0  0  0  0
  -24.9012  -28.1208   19.1896 C   0  0  0  0  0  0  0  0  0  0  0  0
  -24.8595   -7.8254   21.6568 C   0  0  0  0  0  0  0  0  0  0  0  0
  -22.9692   -8.3487   23.0675 C   0  0  0  0  0  0  0  0  0  0  0  0
  -25.9812  -27.2563   19.0166 C   0  0  0  0  0  0  0  0  0  0  0  0
  -22.3671   -5.0888   24.5603 C   0  0  0  0  0  0  0  0  0  0  0  0
  -21.1635   -4.3979   24.7003 C   0  0  0  0  0  0  0  0  0  0  0  0
  -27.0843  -28.2652   20.9099 C   0  0  0  0  0  0  0  0  0  0  0  0
  -20.8041   -4.5409   22.3155 C   0  0  0  0  0  0  0  0  0  0  0  0
  -23.8424  -10.0143   21.5508 C   0  0  0  0  0  0  0  0  0  0  0  0
  -23.0657  -11.7623   19.8630 C   0  0  0  0  0  0  0  0  0  0  0  0
  -22.7942  -35.5899   17.5852 C   0  0  0  0  0  0  0  0  0  0  0  0
  -24.9094  -29.0729   20.2190 C   0  0  0  0  0  0  0  0  0  0  0  0
  -23.5832  -34.4243   17.6222 C   0  0  0  0  0  0  0  0  0  0  0  0
  -26.0020  -29.1389   21.0954 C   0  0  0  0  0  0  0  0  0  0  0  0
  -31.5873  -24.3520   18.1922 C   0  0  0  0  0  0  0  0  0  0  0  0
  -30.4830  -25.1966   18.1748 C   0  0  0  0  0  0  0  0  0  0  0  0
  -31.4513  -23.0483   18.6561 C   0  0  0  0  0  0  0  0  0  0  0  0
  -23.9384   -7.4446   22.6326 C   0  0  0  0  0  0  0  0  0  0  0  0
  -27.0743  -27.3304   19.8750 C   0  0  0  0  0  0  0  0  0  0  0  0
  -22.7892   -5.5058   23.2979 C   0  0  0  0  0  0  0  0  0  0  0  0
  -20.3820   -4.1239   23.5779 C   0  0  0  0  0  0  0  0  0  0  0  0
  -22.0077   -5.2318   22.1755 C   0  0  0  0  0  0  0  0  0  0  0  0
  -23.7926  -11.3418   20.9928 C   0  0  0  0  0  0  0  0  0  0  0  0
  -29.2744  -24.6933   18.6284 C   0  0  0  0  0  0  0  0  0  0  0  0
  -30.1994  -22.6412   19.0883 C   0  0  0  0  0  0  0  0  0  0  0  0
  -23.3509  -13.1011   19.7500 C   0  0  0  0  0  0  0  0  0  0  0  0
  -22.2091  -11.0101   18.9935 C   0  0  0  0  0  0  0  0  0  0  0  0
  -24.8238  -32.2482   20.3385 C   0  0  0  0  0  0  0  0  0  0  0  0
  -24.6049  -31.7334   23.5337 C   0  0  0  0  0  0  0  0  0  0  0  0
  -25.1932  -29.6624   26.1816 C   0  0  0  0  0  0  0  0  0  0  0  0
  -26.7095  -17.2874   19.7368 C   0  0  0  0  0  0  0  0  0  0  0  0
  -22.9211  -36.6673   18.6330 C   0  0  0  0  0  0  0  0  0  0  0  0
  -23.7248  -29.9803   20.4087 C   0  0  0  0  0  0  0  0  0  0  0  0
  -26.0508  -30.1297   22.2287 C   0  0  0  0  0  0  0  0  0  0  0  0
  -23.6139  -36.1971   19.9094 C   0  0  0  0  0  0  0  0  0  0  0  0
  -25.6715  -16.2652   22.9316 C   0  0  0  0  0  0  0  0  0  0  0  0
  -24.8760  -35.4093   19.5726 C   0  0  0  0  0  0  0  0  0  0  0  0
  -25.0256  -14.9148   22.6230 C   0  0  0  0  0  0  0  0  0  0  0  0
  -29.0821  -19.5955   20.9335 C   0  0  0  0  0  0  0  0  0  0  0  0
  -27.9224  -20.4081   18.8449 C   0  0  0  0  0  0  0  0  0  0  0  0
  -26.9547  -16.4838   22.1279 C   0  0  0  0  0  0  0  0  0  0  0  0
  -27.7843  -18.9061   21.3651 C   0  0  0  0  0  0  0  0  0  0  0  0
  -26.6446  -19.7290   19.3297 C   0  0  0  0  0  0  0  0  0  0  0  0
  -26.1392  -14.9588   20.3592 C   0  0  0  0  0  0  0  0  0  0  0  0
  -24.5414  -34.1518   18.7613 C   0  0  1  0  0  0  0  0  0  0  0  0
  -24.0655  -31.2556   21.1736 C   0  0  1  0  0  0  0  0  0  0  0  0
  -24.8166  -14.7355   21.1088 C   0  0  1  0  0  0  0  0  0  0  0  0
  -28.8055  -20.8010   20.0320 C   0  0  0  0  0  0  0  0  0  0  0  0
  -32.9154  -24.8447   17.7125 C   0  0  0  0  0  0  0  0  0  0  0  0
  -30.5971  -26.6004   17.6822 C   0  0  0  0  0  0  0  0  0  0  0  0
  -32.6244  -22.1249   18.6840 C   0  0  0  0  0  0  0  0  0  0  0  0
  -24.9393  -29.5318   28.6748 C   0  0  0  0  0  0  0  0  0  0  0  0
  -26.9896  -33.6065   23.8723 C   0  0  0  0  0  0  0  0  0  0  0  0
  -27.2790  -32.7059   26.1904 C   0  0  0  0  0  0  0  0  0  0  0  0
  -25.1799  -33.9038   25.5726 C   0  0  0  0  0  0  0  0  0  0  0  0
  -23.4187  -27.3014   25.9936 C   0  0  0  0  0  0  0  0  0  0  0  0
  -28.0531  -25.5533   18.6340 C   0  0  0  0  0  0  0  0  0  1  0  0
  -25.5957  -31.5819   24.6625 C   0  0  1  0  0  0  0  0  0  0  0  0
  -24.3046  -29.2171   27.3290 C   0  0  2  0  0  0  0  0  0  0  0  0
  -26.2613  -32.9321   25.0520 C   0  0  0  0  0  0  0  0  0  0  0  0
  -24.4876  -12.3331   21.5571 N   0  0  0  0  0  0  0  0  0  0  0  0
  -29.1035  -23.4329   19.0864 N   0  0  0  0  0  0  0  0  0  0  0  0
  -24.1986  -13.3898   20.7787 N   0  0  0  0  0  0  0  0  0  0  0  0
  -24.8712  -30.9995   22.3691 N   0  0  0  0  0  0  0  0  0  0  0  0
  -26.7151  -16.2627   20.6949 N   0  0  0  0  0  0  0  0  0  0  0  0
  -26.9492  -18.5907   20.1973 N   0  0  0  0  0  0  0  0  0  0  0  0
  -22.9568  -14.0478   18.8720 N   0  0  0  0  0  0  0  0  0  0  0  0
  -22.0259   -9.6451   19.2532 N   0  0  0  0  0  0  0  0  0  0  0  0
  -30.0570  -21.3461   19.5538 N   0  0  0  0  0  0  0  0  0  0  0  0
  -24.0182  -33.1164   19.6267 N   0  0  0  0  0  0  0  0  0  0  0  0
  -24.8757  -30.9341   25.7535 N   0  0  0  0  0  0  0  0  0  0  0  0
  -24.0613  -27.7487   27.2561 N   0  3  0  0  0  0  0  0  0  0  0  0
  -21.6364  -11.5293   18.0056 O   0  0  0  0  0  0  0  0  0  0  0  0
  -26.0491  -32.2287   20.3409 O   0  0  0  0  0  0  0  0  0  0  0  0
  -23.6267  -32.4700   23.6824 O   0  0  0  0  0  0  0  0  0  0  0  0
  -26.0827  -28.9544   25.7145 O   0  0  0  0  0  0  0  0  0  0  0  0
  -26.5028  -17.0519   18.5398 O   0  0  0  0  0  0  0  0  0  0  0  0
  -23.9848   -6.1910   23.1605 O   0  0  0  0  0  0  0  0  0  0  0  0
  -28.1376  -26.4822   19.7068 O   0  0  0  0  0  0  0  0  0  1  0  0
  -19.2270   -3.4591   23.7123 F   0  0  0  0  0  0  0  0  0  0  0  0
  -22.4085   -5.6289   20.9600 F   0  0  0  0  0  0  0  0  0  0  0  0
  1  2  1  0  0  0  0
  1  5  2  0  0  0  0
  2  6  2  0  0  0  0
  3  8  2  0  0  0  0
  3 15  1  0  0  0  0
  4  9  1  0  0  0  0
  4 15  2  0  0  0  0
  5 17  1  0  0  0  0
  6 19  1  0  0  0  0
  7 10  2  0  0  0  0
  7 18  1  0  0  0  0
  8 24  1  0  0  0  0
  9 24  2  0  0  0  0
 10 25  1  0  0  0  0
 11 12  2  0  0  0  0
 11 26  1  0  0  0  0
 12 27  1  0  0  0  0
 13 20  1  0  0  0  0
 13 25  2  0  0  0  0
 14 27  2  0  0  0  0
 14 28  1  0  0  0  0
 15 29  1  0  0  0  0
 16 29  1  0  0  0  0
 16 32  2  0  0  0  0
 16 33  1  0  0  0  0
 17 19  2  0  0  0  0
 17 38  1  0  0  0  0
 18 20  2  0  0  0  0
 18 39  1  0  0  0  0
 19 51  1  0  0  0  0
 20 40  1  0  0  0  0
 21 22  1  0  0  0  0
 21 23  2  0  0  0  0
 21 55  1  0  0  0  0
 22 30  2  0  0  0  0
 22 56  1  0  0  0  0
 23 31  1  0  0  0  0
 23 57  1  0  0  0  0
 24 84  1  0  0  0  0
 25 85  1  0  0  0  0
 26 28  2  0  0  0  0
 26 84  1  0  0  0  0
 27 86  1  0  0  0  0
 28 87  1  0  0  0  0
 29 67  2  0  0  0  0
 30 63  1  0  0  0  0
 30 68  1  0  0  0  0
 31 68  2  0  0  0  0
 31 75  1  0  0  0  0
 32 69  1  0  0  0  0
 32 73  1  0  0  0  0
 33 74  1  0  0  0  0
 33 79  2  0  0  0  0
 34 52  1  0  0  0  0
 34 76  1  0  0  0  0
 34 80  2  0  0  0  0
 35 64  1  0  0  0  0
 35 70  1  0  0  0  0
 35 81  2  0  0  0  0
 36 65  1  0  0  0  0
 36 77  1  0  0  0  0
 36 82  2  0  0  0  0
 37 71  1  0  0  0  0
 37 72  1  0  0  0  0
 37 83  2  0  0  0  0
 38 41  1  0  0  0  0
 39 52  1  0  0  0  0
 40 70  1  0  0  0  0
 41 43  1  0  0  0  0
 42 44  1  0  0  0  0
 42 47  1  0  0  0  0
 43 51  1  0  0  0  0
 44 53  1  0  0  0  0
 45 48  1  0  0  0  0
 45 54  1  0  0  0  0
 46 49  1  0  0  0  0
 46 54  1  0  0  0  0
 47 71  1  0  0  0  0
 48 72  1  0  0  0  0
 49 72  1  0  0  0  0
 50 53  1  0  0  0  0
 50 71  1  0  0  0  0
 51 76  1  0  0  0  0
 52 70  1  0  0  0  0
 53 69  1  0  0  0  0
 54 75  1  0  0  0  0
 58 65  1  0  0  0  0
 59 66  1  0  0  0  0
 60 66  1  0  0  0  0
 61 66  1  0  0  0  0
 62 78  1  0  0  0  0
 63 85  1  0  0  0  0
 64 66  1  0  0  0  0
 64 77  1  0  0  0  0
 65 78  1  0  0  0  0
 67 69  1  0  0  0  0
M  CHG  1  78   1
M  ISO  4  37 100  63 101  72 100  85 101
M  END
> <Batch ID>
0164

> <Smiles>
CNC(C)C(=O)NC(C(=O)N1Cc2cc([101O:1][101CH2:1]c3nc(NC4CC[100N:0]([100C:0](=O)N5CCCC(n6nc(-c7ccc(Oc8ccc(F)cc8F)cc7)c(C(N)=O)c6N)C5)CC4)c(C)c(C)c3C)ccc2CC1C(=O)NC1CCCc2ccccc21)C(C)(C)C

> <Shape>
0.294

> <Color>
0.111

> <Negative vol penalty>
0.000

$$$$

  -OEChem-04052322193D

 95105  0     1  0  0  0  0  0999 V2000
  -28.6268  -36.1320   26.1305 C   0  0  0  0  0  0  0  0  0  0  0  0
  -29.0415  -35.5013   24.9619 C   0  0  0  0  0  0  0  0  0  0  0  0
  -22.7925   -9.7269   20.1992 C   0  0  0  0  0  0  0  0  0  0  0  0
  -24.6802   -8.8108   21.3967 C   0  0  0  0  0  0  0  0  0  0  0  0
  -27.7888  -35.4640   27.0222 C   0  0  0  0  0  0  0  0  0  0  0  0
  -28.6192  -34.2015   24.6850 C   0  0  0  0  0  0  0  0  0  0  0  0
  -26.9272  -29.9335   19.1860 C   0  0  0  0  0  0  0  0  0  0  0  0
  -21.9223   -9.0965   21.0885 C   0  0  0  0  0  0  0  0  0  0  0  0
  -23.8100   -8.1804   22.2862 C   0  0  0  0  0  0  0  0  0  0  0  0
  -27.2371  -28.6799   18.6606 C   0  0  0  0  0  0  0  0  0  0  0  0
  -21.8666   -5.4142   22.3313 C   0  0  0  0  0  0  0  0  0  0  0  0
  -22.1282   -4.0844   22.6611 C   0  0  0  0  0  0  0  0  0  0  0  0
  -28.7454  -17.0511   23.6941 C   0  0  0  0  0  0  0  0  0  0  0  0
  -25.7260  -27.6528   20.2357 C   0  0  0  0  0  0  0  0  0  0  0  0
  -22.3422   -4.7033   24.9867 C   0  0  0  0  0  0  0  0  0  0  0  0
  -24.1715   -9.5840   20.3532 C   0  0  0  0  0  0  0  0  0  0  0  0
  -25.1459  -10.0461   18.0414 C   0  0  0  0  0  0  0  0  0  0  0  0
  -27.3482  -34.1589   26.7514 C   0  0  0  0  0  0  0  0  0  0  0  0
  -26.0211  -30.0554   20.2493 C   0  0  0  0  0  0  0  0  0  0  0  0
  -27.7755  -33.5148   25.5746 C   0  0  0  0  0  0  0  0  0  0  0  0
  -29.7647  -18.0006   23.7646 C   0  0  0  0  0  0  0  0  0  0  0  0
  -25.4043  -28.9094   20.7711 C   0  0  0  0  0  0  0  0  0  0  0  0
  -27.7106  -17.2059   22.7717 C   0  0  0  0  0  0  0  0  0  0  0  0
  -29.7491  -19.1051   22.9128 C   0  0  0  0  0  0  0  0  0  0  0  0
  -27.6950  -18.3104   21.9199 C   0  0  0  0  0  0  0  0  0  0  0  0
  -28.7143  -19.2600   21.9905 C   0  0  0  0  0  0  0  0  0  0  0  0
  -22.4311   -8.3233   22.1321 C   0  0  0  0  0  0  0  0  0  0  0  0
  -26.6387  -27.5390   19.1873 C   0  0  0  0  0  0  0  0  0  0  0  0
  -21.8429   -6.3886   23.3292 C   0  0  0  0  0  0  0  0  0  0  0  0
  -22.3660   -3.7289   23.9888 C   0  0  0  0  0  0  0  0  0  0  0  0
  -22.0807   -6.0331   24.6569 C   0  0  0  0  0  0  0  0  0  0  0  0
  -25.0709  -10.2345   19.4345 C   0  0  0  0  0  0  0  0  0  0  0  0
  -26.1519  -10.8883   17.6348 C   0  0  0  0  0  0  0  0  0  0  0  0
  -24.3752   -9.1868   17.1910 C   0  0  0  0  0  0  0  0  0  0  0  0
  -26.1991  -31.1272   23.2365 C   0  0  0  0  0  0  0  0  0  0  0  0
  -22.9943  -30.6273   23.1936 C   0  0  0  0  0  0  0  0  0  0  0  0
  -20.3383  -28.9710   21.8338 C   0  0  0  0  0  0  0  0  0  0  0  0
  -28.4377  -15.9201   19.9384 C   0  0  0  0  0  0  0  0  0  0  0  0
  -26.4810  -33.4598   27.7682 C   0  0  0  0  0  0  0  0  0  0  0  0
  -25.6772  -31.4174   20.7871 C   0  0  0  0  0  0  0  0  0  0  0  0
  -24.4095  -28.9882   21.8992 C   0  0  0  0  0  0  0  0  0  0  0  0
  -25.7761  -32.2220   27.2195 C   0  0  0  0  0  0  0  0  0  0  0  0
  -30.1963  -12.9158   19.1913 C   0  0  0  0  0  0  0  0  0  0  0  0
  -26.7546  -31.3549   26.4336 C   0  0  0  0  0  0  0  0  0  0  0  0
  -27.2611  -22.7145   19.7050 C   0  0  0  0  0  0  0  0  0  0  0  0
  -27.8982  -24.2038   21.6472 C   0  0  0  0  0  0  0  0  0  0  0  0
  -29.0889  -11.8709   19.0432 C   0  0  0  0  0  0  0  0  0  0  0  0
  -27.2066  -23.9353   18.7916 C   0  0  0  0  0  0  0  0  0  0  0  0
  -27.8413  -25.4206   20.7285 C   0  0  0  0  0  0  0  0  0  0  0  0
  -31.1405  -16.4282   25.2863 C   0  0  0  0  0  0  0  0  0  0  0  0
  -29.8721  -13.9305   20.2855 C   0  0  0  0  0  0  0  0  0  0  0  0
  -27.4543  -13.5482   19.9990 C   0  0  0  0  0  0  0  0  0  0  0  0
  -30.8611  -17.8123   24.7606 C   0  0  1  0  0  0  0  0  0  0  0  0
  -27.3188  -32.1146   25.2270 C   0  0  1  0  0  0  0  0  0  0  0  0
  -25.1300  -31.3769   22.2106 C   0  0  1  0  0  0  0  0  0  0  0  0
  -28.2377  -22.9240   20.8706 C   0  0  0  0  0  0  0  0  0  0  0  0
  -27.7102  -12.5359   18.8694 C   0  0  2  0  0  0  0  0  0  0  0  0
  -26.8721  -25.2063   19.5678 C   0  0  0  0  0  0  0  0  0  1  0  0
  -32.1480  -17.0928   24.3840 C   0  0  0  0  0  0  0  0  0  0  0  0
  -26.6317  -16.1744   22.7155 C   0  0  0  0  0  0  0  0  0  0  0  0
  -30.8430  -20.1233   22.9889 C   0  0  0  0  0  0  0  0  0  0  0  0
  -33.4235  -17.6000   25.0057 C   0  0  0  0  0  0  0  0  0  0  0  0
  -32.3290  -16.5254   22.9990 C   0  0  0  0  0  0  0  0  0  0  0  0
  -17.8469  -28.7450   22.0315 C   0  0  0  0  0  0  0  0  0  0  0  0
  -25.7089  -18.0034   18.6026 C   0  0  0  0  0  0  0  0  0  0  0  0
  -23.3495  -28.9430   25.7129 C   0  0  0  0  0  0  0  0  0  0  0  0
  -21.0667  -27.9944   25.3165 C   0  0  0  0  0  0  0  0  0  0  0  0
  -21.3449  -30.4383   25.7318 C   0  0  0  0  0  0  0  0  0  0  0  0
  -19.9168  -29.9053   19.0574 C   0  0  0  0  0  0  0  0  0  0  0  0
  -28.6966  -20.4533   21.0688 C   0  0  0  0  0  0  0  0  0  0  0  0
  -26.5844  -18.4728   20.9307 C   0  0  0  0  0  0  0  0  0  0  0  0
  -28.2353  -21.7122   21.8007 C   0  0  0  0  0  0  0  0  0  0  0  0
  -22.0892  -29.4642   23.5206 C   0  0  1  0  0  0  0  0  0  0  0  0
  -18.9919  -29.4640   21.3352 C   0  0  2  0  0  0  0  0  0  0  0  0
  -26.8747  -17.8119   19.5676 C   0  0  1  0  0  0  0  0  0  0  0  0
  -21.9827  -29.2080   25.0505 C   0  0  0  0  0  0  0  0  0  0  0  0
  -25.9585  -11.1261   19.8828 N   0  0  0  0  0  0  0  0  0  0  0  0
  -26.6009  -11.5055   18.7650 N   0  0  0  0  0  0  0  0  0  0  0  0
  -24.1109  -30.3418   22.3952 N   0  0  0  0  0  0  0  0  0  0  0  0
  -28.5524  -14.5256   20.0611 N   0  0  0  0  0  0  0  0  0  0  0  0
  -26.6873  -11.1535   16.4242 N   0  0  0  0  0  0  0  0  0  0  0  0
  -23.3812   -8.3880   17.7725 N   0  0  0  0  0  0  0  0  0  0  0  0
  -26.3489  -32.1500   24.1535 N   0  0  0  0  0  0  0  0  0  0  0  0
  -20.8132  -29.7449   22.8716 N   0  0  0  0  0  0  0  0  0  0  0  0
  -27.1524  -16.4011   19.7209 N   0  0  0  0  0  0  0  0  0  0  0  0
  -18.8675  -29.2352   19.8679 N   0  3  0  0  0  0  0  0  0  0  0  0
  -24.5734   -9.1170   15.9543 O   0  0  0  0  0  0  0  0  0  0  0  0
  -26.8396  -30.0831   23.1998 O   0  0  0  0  0  0  0  0  0  0  0  0
  -22.7168  -31.7493   23.6246 O   0  0  0  0  0  0  0  0  0  0  0  0
  -20.9098  -27.9948   21.3533 O   0  0  0  0  0  0  0  0  0  0  0  0
  -29.4095  -16.6798   20.0114 O   0  0  0  0  0  0  0  0  0  0  0  0
  -21.5822   -7.7082   23.0002 O   0  0  0  0  0  0  0  0  0  0  0  0
  -26.9399  -26.3141   18.6767 O   0  0  0  0  0  0  0  0  0  1  0  0
  -22.6157   -2.4516   24.3056 F   0  0  0  0  0  0  0  0  0  0  0  0
  -22.0580   -6.9646   25.6200 F   0  0  0  0  0  0  0  0  0  0  0  0
  1  2  1  0  0  0  0
  1  5  2  0  0  0  0
  2  6  2  0  0  0  0
  3  8  2  0  0  0  0
  3 16  1  0  0  0  0
  4  9  1  0  0  0  0
  4 16  2  0  0  0  0
  5 18  1  0  0  0  0
  6 20  1  0  0  0  0
  7 10  2  0  0  0  0
  7 19  1  0  0  0  0
  8 27  1  0  0  0  0
  9 27  2  0  0  0  0
 10 28  1  0  0  0  0
 11 12  2  0  0  0  0
 11 29  1  0  0  0  0
 12 30  1  0  0  0  0
 13 21  1  0  0  0  0
 13 23  2  0  0  0  0
 14 22  1  0  0  0  0
 14 28  2  0  0  0  0
 15 30  2  0  0  0  0
 15 31  1  0  0  0  0
 16 32  1  0  0  0  0
 17 32  1  0  0  0  0
 17 33  2  0  0  0  0
 17 34  1  0  0  0  0
 18 20  2  0  0  0  0
 18 39  1  0  0  0  0
 19 22  2  0  0  0  0
 19 40  1  0  0  0  0
 20 54  1  0  0  0  0
 21 24  2  0  0  0  0
 21 53  1  0  0  0  0
 22 41  1  0  0  0  0
 23 25  1  0  0  0  0
 23 60  1  0  0  0  0
 24 26  1  0  0  0  0
 24 61  1  0  0  0  0
 25 26  2  0  0  0  0
 25 71  1  0  0  0  0
 26 70  1  0  0  0  0
 27 92  1  0  0  0  0
 28 93  1  0  0  0  0
 29 31  2  0  0  0  0
 29 92  1  0  0  0  0
 30 94  1  0  0  0  0
 31 95  1  0  0  0  0
 32 77  2  0  0  0  0
 33 78  1  0  0  0  0
 33 81  1  0  0  0  0
 34 82  1  0  0  0  0
 34 87  2  0  0  0  0
 35 55  1  0  0  0  0
 35 83  1  0  0  0  0
 35 88  2  0  0  0  0
 36 73  1  0  0  0  0
 36 79  1  0  0  0  0
 36 89  2  0  0  0  0
 37 74  1  0  0  0  0
 37 84  1  0  0  0  0
 37 90  2  0  0  0  0
 38 80  1  0  0  0  0
 38 85  1  0  0  0  0
 38 91  2  0  0  0  0
 39 42  1  0  0  0  0
 40 55  1  0  0  0  0
 41 79  1  0  0  0  0
 42 44  1  0  0  0  0
 43 47  1  0  0  0  0
 43 51  1  0  0  0  0
 44 54  1  0  0  0  0
 45 48  1  0  0  0  0
 45 56  1  0  0  0  0
 46 49  1  0  0  0  0
 46 56  1  0  0  0  0
 47 57  1  0  0  0  0
 48 58  1  0  0  0  0
 49 58  1  0  0  0  0
 50 53  1  0  0  0  0
 50 59  1  0  0  0  0
 51 80  1  0  0  0  0
 52 57  1  0  0  0  0
 52 80  1  0  0  0  0
 53 59  1  0  0  0  0
 54 83  1  0  0  0  0
 55 79  1  0  0  0  0
 56 72  1  0  0  0  0
 57 78  1  0  0  0  0
 58 93  1  0  0  0  0
 59 62  1  0  0  0  0
 59 63  1  0  0  0  0
 64 74  1  0  0  0  0
 65 75  1  0  0  0  0
 66 76  1  0  0  0  0
 67 76  1  0  0  0  0
 68 76  1  0  0  0  0
 69 86  1  0  0  0  0
 70 72  1  0  0  0  0
 71 75  1  0  0  0  0
 73 76  1  0  0  0  0
 73 84  1  0  0  0  0
 74 86  1  0  0  0  0
 75 85  1  0  0  0  0
 77 78  1  0  0  0  0
M  CHG  1  86   1
M  ISO  4  38 100  58 101  85 100  93 101
M  END
> <Batch ID>
0164

> <Smiles>
CNC(C)C(=O)NC(C(=O)N1Cc2cc([101O:1][101CH:1]3CCC(CCc4c(C)c(C5CC5(C)C)cc(C)c4CC(C)[100NH:0][100C:0](=O)N4CCCC(n5nc(-c6ccc(Oc7ccc(F)cc7F)cc6)c(C(N)=O)c5N)C4)CC3)ccc2CC1C(=O)NC1CCCc2ccccc21)C(C)(C)C

> <Shape>
0.304

> <Color>
0.106

> <Negative vol penalty>
0.000

$$$$

  -OEChem-04052322193D

 88 97  0     1  0  0  0  0  0999 V2000
  -28.1234  -29.5549   32.7652 C   0  0  0  0  0  0  0  0  0  0  0  0
  -28.2880  -28.7358   31.6528 C   0  0  0  0  0  0  0  0  0  0  0  0
  -23.1007   -9.8626   19.9226 C   0  0  0  0  0  0  0  0  0  0  0  0
  -23.7924   -9.8817   22.2374 C   0  0  0  0  0  0  0  0  0  0  0  0
  -29.2374  -30.1208   33.3837 C   0  0  0  0  0  0  0  0  0  0  0  0
  -29.5668  -28.4830   31.1576 C   0  0  0  0  0  0  0  0  0  0  0  0
  -30.2897  -23.5947   30.0495 C   0  0  0  0  0  0  0  0  0  0  0  0
  -22.3424   -8.7160   20.1586 C   0  0  0  0  0  0  0  0  0  0  0  0
  -23.0340   -8.7351   22.4734 C   0  0  0  0  0  0  0  0  0  0  0  0
  -29.7426  -23.1247   28.8564 C   0  0  0  0  0  0  0  0  0  0  0  0
  -19.3473   -7.9485   21.5275 C   0  0  0  0  0  0  0  0  0  0  0  0
  -18.0551   -7.9068   21.0040 C   0  0  0  0  0  0  0  0  0  0  0  0
  -31.9051  -23.3018   27.8021 C   0  0  0  0  0  0  0  0  0  0  0  0
  -18.6412   -5.9506   19.7129 C   0  0  0  0  0  0  0  0  0  0  0  0
  -23.8258  -10.4455   20.9619 C   0  0  0  0  0  0  0  0  0  0  0  0
  -24.1873  -12.9675   20.8340 C   0  0  0  0  0  0  0  0  0  0  0  0
  -30.5312  -29.8670   32.9017 C   0  0  0  0  0  0  0  0  0  0  0  0
  -31.6486  -23.9328   30.1250 C   0  0  0  0  0  0  0  0  0  0  0  0
  -30.6991  -29.0471   31.7695 C   0  0  0  0  0  0  0  0  0  0  0  0
  -32.4675  -23.7735   28.9981 C   0  0  0  0  0  0  0  0  0  0  0  0
  -28.2333  -21.6905   25.2168 C   0  0  0  0  0  0  0  0  0  0  0  0
  -28.0952  -22.5655   24.1451 C   0  0  0  0  0  0  0  0  0  0  0  0
  -28.0011  -20.3320   25.0324 C   0  0  0  0  0  0  0  0  0  0  0  0
  -22.3089   -8.1523   21.4340 C   0  0  0  0  0  0  0  0  0  0  0  0
  -30.5497  -22.9809   27.7317 C   0  0  0  0  0  0  0  0  0  0  0  0
  -20.2866   -6.9913   21.1436 C   0  0  0  0  0  0  0  0  0  0  0  0
  -17.7021   -6.9079   20.0968 C   0  0  0  0  0  0  0  0  0  0  0  0
  -19.9335   -5.9923   20.2364 C   0  0  0  0  0  0  0  0  0  0  0  0
  -24.6098  -11.6296   20.7186 C   0  0  0  0  0  0  0  0  0  0  0  0
  -27.7257  -22.0362   22.9191 C   0  0  0  0  0  0  0  0  0  0  0  0
  -27.6357  -19.9027   23.7667 C   0  0  0  0  0  0  0  0  0  0  0  0
  -25.2945  -13.7074   20.4979 C   0  0  0  0  0  0  0  0  0  0  0  0
  -22.9083  -13.4943   21.2113 C   0  0  0  0  0  0  0  0  0  0  0  0
  -33.2659  -26.6021   30.7272 C   0  0  0  0  0  0  0  0  0  0  0  0
  -35.8254  -24.6117   30.6262 C   0  0  0  0  0  0  0  0  0  0  0  0
  -37.1746  -21.6815   29.5126 C   0  0  0  0  0  0  0  0  0  0  0  0
  -30.6615  -14.7734   20.6733 C   0  0  0  0  0  0  0  0  0  0  0  0
  -31.7016  -30.5391   33.5750 C   0  0  0  0  0  0  0  0  0  0  0  0
  -32.2291  -24.4131   31.4268 C   0  0  0  0  0  0  0  0  0  0  0  0
  -33.9367  -24.1032   29.0324 C   0  0  0  0  0  0  0  0  0  0  0  0
  -33.0494  -29.9196   33.2150 C   0  0  0  0  0  0  0  0  0  0  0  0
  -29.6927  -12.3237   18.4339 C   0  0  0  0  0  0  0  0  0  0  0  0
  -33.1514  -29.7014   31.7087 C   0  0  0  0  0  0  0  0  0  0  0  0
  -28.2460  -12.0249   18.8265 C   0  0  0  0  0  0  0  0  0  0  0  0
  -29.0145  -17.9422   21.6595 C   0  0  0  0  0  0  0  0  0  0  0  0
  -28.4865  -16.1769   23.3783 C   0  0  0  0  0  0  0  0  0  0  0  0
  -30.5659  -12.5114   19.6694 C   0  0  0  0  0  0  0  0  0  0  0  0
  -30.2414  -17.1384   21.2380 C   0  0  0  0  0  0  0  0  0  0  0  0
  -29.7255  -15.4098   22.9286 C   0  0  0  0  0  0  0  0  0  0  0  0
  -28.6316  -13.2903   20.9987 C   0  0  0  0  0  0  0  0  0  0  0  0
  -32.0719  -28.7292   31.2178 C   0  0  1  0  0  0  0  0  0  0  0  0
  -33.5147  -25.2148   31.2480 C   0  0  1  0  0  0  0  0  0  0  0  0
  -28.6418  -17.6826   23.1249 C   0  0  0  0  0  0  0  0  0  0  0  0
  -27.7004  -13.0986   19.7847 C   0  0  2  0  0  0  0  0  0  0  0  0
  -28.3386  -24.0281   24.3116 C   0  0  0  0  0  0  0  0  0  0  0  0
  -28.1410  -19.3676   26.1623 C   0  0  0  0  0  0  0  0  0  0  0  0
  -27.5618  -22.9264   21.7309 C   0  0  0  0  0  0  0  0  0  0  0  0
  -26.2827  -18.2435   22.4361 C   0  0  0  0  0  0  0  0  0  0  0  0
  -39.2996  -20.3475   29.5606 C   0  0  0  0  0  0  0  0  0  0  0  0
  -37.0536  -26.4988   28.5670 C   0  0  0  0  0  0  0  0  0  0  0  0
  -38.6662  -24.6806   27.9655 C   0  0  0  0  0  0  0  0  0  0  0  0
  -38.6611  -25.6277   30.2732 C   0  0  0  0  0  0  0  0  0  0  0  0
  -35.8557  -19.4121   30.8799 C   0  0  0  0  0  0  0  0  0  0  0  0
  -28.6278  -22.2083   26.5633 C   0  0  0  0  0  0  0  0  0  1  0  0
  -27.3662  -18.4315   23.5028 C   0  0  2  0  0  0  0  0  0  0  0  0
  -36.7610  -24.1273   29.5449 C   0  0  1  0  0  0  0  0  0  0  0  0
  -37.9568  -20.5960   30.2298 C   0  0  2  0  0  0  0  0  0  0  0  0
  -37.7574  -25.2292   29.0861 C   0  0  0  0  0  0  0  0  0  0  0  0
  -25.8859  -11.5228   20.3387 N   0  0  0  0  0  0  0  0  0  0  0  0
  -27.4916  -20.7227   22.7015 N   0  0  0  0  0  0  0  0  0  0  0  0
  -26.2747  -12.8030   20.2124 N   0  0  0  0  0  0  0  0  0  0  0  0
  -34.4561  -24.5753   30.3266 N   0  0  0  0  0  0  0  0  0  0  0  0
  -30.0122  -13.5352   20.5554 N   0  0  0  0  0  0  0  0  0  0  0  0
  -30.0777  -15.7161   21.5357 N   0  0  0  0  0  0  0  0  0  0  0  0
  -25.5156  -15.0370   20.4216 N   0  0  0  0  0  0  0  0  0  0  0  0
  -21.8810  -12.5939   21.5249 N   0  0  0  0  0  0  0  0  0  0  0  0
  -32.4402  -27.3650   31.5307 N   0  0  0  0  0  0  0  0  0  0  0  0
  -37.3996  -22.9239   30.0668 N   0  0  0  0  0  0  0  0  0  0  0  0
  -37.1887  -19.3189   30.2309 N   0  3  0  0  0  0  0  0  0  0  0  0
  -22.6784  -14.7267   21.2527 O   0  0  0  0  0  0  0  0  0  0  0  0
  -33.7859  -26.9547   29.6750 O   0  0  0  0  0  0  0  0  0  0  0  0
  -36.2918  -25.0012   31.6996 O   0  0  0  0  0  0  0  0  0  0  0  0
  -36.4406  -21.4509   28.5542 O   0  0  0  0  0  0  0  0  0  0  0  0
  -31.6968  -15.0256   20.0444 O   0  0  0  0  0  0  0  0  0  0  0  0
  -21.5688   -7.0335   21.6648 O   0  0  0  0  0  0  0  0  0  0  0  0
  -30.0142  -22.5195   26.5571 O   0  0  0  0  0  0  0  0  0  1  0  0
  -16.4607   -6.8671   19.5953 F   0  0  0  0  0  0  0  0  0  0  0  0
  -20.8311   -5.0693   19.8648 F   0  0  0  0  0  0  0  0  0  0  0  0
  1  2  1  0  0  0  0
  1  5  2  0  0  0  0
  2  6  2  0  0  0  0
  3  8  2  0  0  0  0
  3 15  1  0  0  0  0
  4  9  1  0  0  0  0
  4 15  2  0  0  0  0
  5 17  1  0  0  0  0
  6 19  1  0  0  0  0
  7 10  2  0  0  0  0
  7 18  1  0  0  0  0
  8 24  1  0  0  0  0
  9 24  2  0  0  0  0
 10 25  1  0  0  0  0
 11 12  2  0  0  0  0
 11 26  1  0  0  0  0
 12 27  1  0  0  0  0
 13 20  1  0  0  0  0
 13 25  2  0  0  0  0
 14 27  2  0  0  0  0
 14 28  1  0  0  0  0
 15 29  1  0  0  0  0
 16 29  1  0  0  0  0
 16 32  2  0  0  0  0
 16 33  1  0  0  0  0
 17 19  2  0  0  0  0
 17 38  1  0  0  0  0
 18 20  2  0  0  0  0
 18 39  1  0  0  0  0
 19 51  1  0  0  0  0
 20 40  1  0  0  0  0
 21 22  1  0  0  0  0
 21 23  2  0  0  0  0
 21 64  1  0  0  0  0
 22 30  2  0  0  0  0
 22 55  1  0  0  0  0
 23 31  1  0  0  0  0
 23 56  1  0  0  0  0
 24 85  1  0  0  0  0
 25 86  1  0  0  0  0
 26 28  2  0  0  0  0
 26 85  1  0  0  0  0
 27 87  1  0  0  0  0
 28 88  1  0  0  0  0
 29 69  2  0  0  0  0
 30 57  1  0  0  0  0
 30 70  1  0  0  0  0
 31 65  1  0  0  0  0
 31 70  2  0  0  0  0
 32 71  1  0  0  0  0
 32 75  1  0  0  0  0
 33 76  1  0  0  0  0
 33 80  2  0  0  0  0
 34 52  1  0  0  0  0
 34 77  1  0  0  0  0
 34 81  2  0  0  0  0
 35 66  1  0  0  0  0
 35 72  1  0  0  0  0
 35 82  2  0  0  0  0
 36 67  1  0  0  0  0
 36 78  1  0  0  0  0
 36 83  2  0  0  0  0
 37 73  1  0  0  0  0
 37 74  1  0  0  0  0
 37 84  2  0  0  0  0
 38 41  1  0  0  0  0
 39 52  1  0  0  0  0
 40 72  1  0  0  0  0
 41 43  1  0  0  0  0
 42 44  1  0  0  0  0
 42 47  1  0  0  0  0
 43 51  1  0  0  0  0
 44 54  1  0  0  0  0
 45 48  1  0  0  0  0
 45 53  1  0  0  0  0
 46 49  1  0  0  0  0
 46 53  1  0  0  0  0
 47 73  1  0  0  0  0
 48 74  1  0  0  0  0
 49 74  1  0  0  0  0
 50 54  1  0  0  0  0
 50 73  1  0  0  0  0
 51 77  1  0  0  0  0
 52 72  1  0  0  0  0
 53 65  1  0  0  0  0
 54 71  1  0  0  0  0
 58 65  1  0  0  0  0
 59 67  1  0  0  0  0
 60 68  1  0  0  0  0
 61 68  1  0  0  0  0
 62 68  1  0  0  0  0
 63 79  1  0  0  0  0
 64 86  1  0  0  0  0
 66 68  1  0  0  0  0
 66 78  1  0  0  0  0
 67 79  1  0  0  0  0
 69 71  1  0  0  0  0
M  CHG  1  79   1
M  ISO  4  37 100  64 101  74 100  86 101
M  END
> <Batch ID>
0164

> <Smiles>
CNC(C)C(=O)NC(C(=O)N1Cc2cc([101O:1][101CH2:1]c3c(C)c(C)nc(C(C)C4CC[100N:0]([100C:0](=O)N5CCCC(n6nc(-c7ccc(Oc8ccc(F)cc8F)cc7)c(C(N)=O)c6N)C5)CC4)c3C)ccc2CC1C(=O)NC1CCCc2ccccc21)C(C)(C)C

> <Shape>
0.150

> <Color>
0.190

> <Negative vol penalty>
0.000

$$$$

  -OEChem-04052322193D

 91101  0     1  0  0  0  0  0999 V2000
  -28.4319  -31.1965   27.2859 C   0  0  0  0  0  0  0  0  0  0  0  0
  -28.4899  -30.3663   26.1710 C   0  0  0  0  0  0  0  0  0  0  0  0
  -23.0171  -10.4726   21.6912 C   0  0  0  0  0  0  0  0  0  0  0  0
  -24.6434   -8.8463   22.4310 C   0  0  0  0  0  0  0  0  0  0  0  0
  -27.2075  -31.4475   27.9036 C   0  0  0  0  0  0  0  0  0  0  0  0
  -27.3236  -29.7858   25.6740 C   0  0  0  0  0  0  0  0  0  0  0  0
  -27.0012  -30.0867   20.6291 C   0  0  0  0  0  0  0  0  0  0  0  0
  -22.1320   -9.4426   21.3727 C   0  0  0  0  0  0  0  0  0  0  0  0
  -23.7584   -7.8163   22.1125 C   0  0  0  0  0  0  0  0  0  0  0  0
  -27.7592  -29.1816   19.8875 C   0  0  0  0  0  0  0  0  0  0  0  0
  -21.7891   -4.7732   21.8309 C   0  0  0  0  0  0  0  0  0  0  0  0
  -21.6341   -3.7410   22.7561 C   0  0  0  0  0  0  0  0  0  0  0  0
  -25.7978  -27.8155   19.5615 C   0  0  0  0  0  0  0  0  0  0  0  0
  -20.8718   -5.3336   24.4052 C   0  0  0  0  0  0  0  0  0  0  0  0
  -24.2728  -10.1744   22.2203 C   0  0  0  0  0  0  0  0  0  0  0  0
  -25.3015  -11.9113   23.7801 C   0  0  0  0  0  0  0  0  0  0  0  0
  -26.0242  -30.8775   27.4081 C   0  0  0  0  0  0  0  0  0  0  0  0
  -25.6359  -29.8571   20.8521 C   0  0  0  0  0  0  0  0  0  0  0  0
  -26.0824  -30.0284   26.2865 C   0  0  0  0  0  0  0  0  0  0  0  0
  -25.0242  -28.7206   20.3041 C   0  0  0  0  0  0  0  0  0  0  0  0
  -29.6245  -23.2167   19.1869 C   0  0  0  0  0  0  0  0  0  0  0  0
  -29.1497  -21.8876   19.2828 C   0  0  0  0  0  0  0  0  0  0  0  0
  -22.5026   -8.1145   21.5833 C   0  0  0  0  0  0  0  0  0  0  0  0
  -27.1582  -28.0443   19.3560 C   0  0  0  0  0  0  0  0  0  0  0  0
  -21.4855   -6.0857   22.1928 C   0  0  0  0  0  0  0  0  0  0  0  0
  -21.1754   -4.0212   24.0432 C   0  0  0  0  0  0  0  0  0  0  0  0
  -21.0268   -6.3659   23.4799 C   0  0  0  0  0  0  0  0  0  0  0  0
  -25.1877  -11.2379   22.5491 C   0  0  0  0  0  0  0  0  0  0  0  0
  -30.9352  -23.1604   18.7581 C   0  0  0  0  0  0  0  0  0  0  0  0
  -30.1882  -21.0593   18.9113 C   0  0  0  0  0  0  0  0  0  0  0  0
  -26.3073  -12.8250   23.5800 C   0  0  0  0  0  0  0  0  0  0  0  0
  -24.5639  -11.7274   24.9957 C   0  0  0  0  0  0  0  0  0  0  0  0
  -23.8304  -29.3934   23.4267 C   0  0  0  0  0  0  0  0  0  0  0  0
  -21.4094  -29.5123   21.2710 C   0  0  0  0  0  0  0  0  0  0  0  0
  -20.3890  -29.1339   18.0364 C   0  0  0  0  0  0  0  0  0  0  0  0
  -28.7044  -16.6913   20.6410 C   0  0  0  0  0  0  0  0  0  0  0  0
  -24.7308  -31.1403   28.1379 C   0  0  0  0  0  0  0  0  0  0  0  0
  -24.8264  -30.8568   21.6316 C   0  0  0  0  0  0  0  0  0  0  0  0
  -23.5574  -28.4385   20.4975 C   0  0  0  0  0  0  0  0  0  0  0  0
  -23.4891  -30.7861   27.3236 C   0  0  0  0  0  0  0  0  0  0  0  0
  -29.6180  -13.3260   19.8087 C   0  0  0  0  0  0  0  0  0  0  0  0
  -23.6495  -29.4150   26.6746 C   0  0  0  0  0  0  0  0  0  0  0  0
  -28.5290  -12.5336   20.5276 C   0  0  0  0  0  0  0  0  0  0  0  0
  -29.2305  -18.9440   17.8469 C   0  0  0  0  0  0  0  0  0  0  0  0
  -29.0870  -14.6288   19.2074 C   0  0  0  0  0  0  0  0  0  0  0  0
  -29.1997  -17.4835   18.2735 C   0  0  0  0  0  0  0  0  0  0  0  0
  -27.2764  -14.6874   20.8986 C   0  0  0  0  0  0  0  0  0  0  0  0
  -28.9581  -24.5266   19.4586 C   0  0  2  0  0  0  0  0  0  0  0  0
  -24.8356  -29.4000   25.7028 C   0  0  1  0  0  0  0  0  0  0  0  0
  -30.2406  -19.5523   18.8276 C   0  0  2  0  0  0  0  0  0  0  0  0
  -23.5564  -30.2603   22.2305 C   0  0  1  0  0  0  0  0  0  0  0  0
  -27.8117  -13.4122   21.5655 C   0  0  1  0  0  0  0  0  0  0  0  0
  -29.9212  -18.8183   20.1487 C   0  0  2  0  0  0  0  0  0  0  0  0
  -29.7303  -25.6133   18.6519 C   0  0  1  0  0  0  0  0  0  0  0  0
  -31.8218  -24.3367   18.4857 C   0  0  0  0  0  0  0  0  0  0  0  0
  -27.7983  -21.4640   19.7008 C   0  0  0  0  0  0  0  0  0  0  0  0
  -28.9291  -24.7995   20.9668 C   0  0  0  0  0  0  0  0  0  0  0  0
  -31.1641  -18.6476   21.0185 C   0  0  0  0  0  0  0  0  0  0  0  0
  -32.1465  -24.4685   16.9950 C   0  0  0  0  0  0  0  0  0  0  0  0
  -33.1159  -24.2562   19.2996 C   0  0  0  0  0  0  0  0  0  0  0  0
  -18.3437  -29.2623   16.5883 C   0  0  0  0  0  0  0  0  0  0  0  0
  -20.4647  -26.8278   22.3714 C   0  0  0  0  0  0  0  0  0  0  0  0
  -19.0528  -26.5630   20.3209 C   0  0  0  0  0  0  0  0  0  0  0  0
  -18.6325  -28.4594   21.8862 C   0  0  0  0  0  0  0  0  0  0  0  0
  -32.5348  -21.3228   18.1198 C   0  0  0  0  0  0  0  0  0  0  0  0
  -21.5547  -31.2927   16.3812 C   0  0  0  0  0  0  0  0  0  0  0  0
  -29.2744  -27.0349   18.9579 C   0  0  0  0  0  0  0  0  0  1  0  0
  -20.6888  -28.4984   20.4157 C   0  0  1  0  0  0  0  0  0  0  0  0
  -19.5441  -30.0177   17.1368 C   0  0  2  0  0  0  0  0  0  0  0  0
  -19.7378  -27.5912   21.2464 C   0  0  0  0  0  0  0  0  0  0  0  0
  -26.0522  -11.6857   21.6346 N   0  0  0  0  0  0  0  0  0  0  0  0
  -31.2691  -21.8432   18.5915 N   0  0  0  0  0  0  0  0  0  0  0  0
  -26.7186  -12.6503   22.2914 N   0  0  0  0  0  0  0  0  0  0  0  0
  -22.8098  -29.4425   21.2724 N   0  0  0  0  0  0  0  0  0  0  0  0
  -28.3425  -15.4116   20.2009 N   0  0  0  0  0  0  0  0  0  0  0  0
  -29.3557  -17.5267   19.7288 N   0  0  0  0  0  0  0  0  0  0  0  0
  -26.8711  -13.7527   24.3824 N   0  0  0  0  0  0  0  0  0  0  0  0
  -23.5651  -10.7447   25.0291 N   0  0  0  0  0  0  0  0  0  0  0  0
  -24.4776  -30.0463   24.4584 N   0  0  0  0  0  0  0  0  0  0  0  0
  -20.0229  -29.2542   19.3603 N   0  0  0  0  0  0  0  0  0  0  0  0
  -20.3540  -30.5116   15.9873 N   0  3  0  0  0  0  0  0  0  0  0  0
  -24.7729  -12.4252   26.0170 O   0  0  0  0  0  0  0  0  0  0  0  0
  -23.4793  -28.2194   23.4152 O   0  0  0  0  0  0  0  0  0  0  0  0
  -20.7543  -30.3405   21.9086 O   0  0  0  0  0  0  0  0  0  0  0  0
  -21.2819  -28.4065   17.6072 O   0  0  0  0  0  0  0  0  0  0  0  0
  -28.4324  -17.0803   21.7842 O   0  0  0  0  0  0  0  0  0  0  0  0
  -31.1433  -25.5388   18.9385 O   0  0  0  0  0  0  0  0  0  0  0  0
  -21.6392   -7.1092   21.2728 O   0  0  0  0  0  0  0  0  0  0  0  0
  -27.9024  -27.1510   18.6260 O   0  0  0  0  0  0  0  0  0  1  0  0
  -21.0251   -3.0296   24.9312 F   0  0  0  0  0  0  0  0  0  0  0  0
  -20.7324   -7.6246   23.8331 F   0  0  0  0  0  0  0  0  0  0  0  0
  1  2  1  0  0  0  0
  1  5  2  0  0  0  0
  2  6  2  0  0  0  0
  3  8  2  0  0  0  0
  3 15  1  0  0  0  0
  4  9  1  0  0  0  0
  4 15  2  0  0  0  0
  5 17  1  0  0  0  0
  6 19  1  0  0  0  0
  7 10  2  0  0  0  0
  7 18  1  0  0  0  0
  8 23  1  0  0  0  0
  9 23  2  0  0  0  0
 10 24  1  0  0  0  0
 11 12  2  0  0  0  0
 11 25  1  0  0  0  0
 12 26  1  0  0  0  0
 13 20  1  0  0  0  0
 13 24  2  0  0  0  0
 14 26  2  0  0  0  0
 14 27  1  0  0  0  0
 15 28  1  0  0  0  0
 16 28  1  0  0  0  0
 16 31  2  0  0  0  0
 16 32  1  0  0  0  0
 17 19  2  0  0  0  0
 17 37  1  0  0  0  0
 18 20  2  0  0  0  0
 18 38  1  0  0  0  0
 19 49  1  0  0  0  0
 20 39  1  0  0  0  0
 21 22  1  0  0  0  0
 21 29  2  0  0  0  0
 21 48  1  0  0  0  0
 22 30  2  0  0  0  0
 22 56  1  0  0  0  0
 23 88  1  0  0  0  0
 24 89  1  0  0  0  0
 25 27  2  0  0  0  0
 25 88  1  0  0  0  0
 26 90  1  0  0  0  0
 27 91  1  0  0  0  0
 28 71  2  0  0  0  0
 29 55  1  0  0  0  0
 29 72  1  0  0  0  0
 30 50  1  0  0  0  0
 30 72  1  0  0  0  0
 31 73  1  0  0  0  0
 31 77  1  0  0  0  0
 32 78  1  0  0  0  0
 32 82  2  0  0  0  0
 33 51  1  0  0  0  0
 33 79  1  0  0  0  0
 33 83  2  0  0  0  0
 34 68  1  0  0  0  0
 34 74  1  0  0  0  0
 34 84  2  0  0  0  0
 35 69  1  0  0  0  0
 35 80  1  0  0  0  0
 35 85  2  0  0  0  0
 36 75  1  0  0  0  0
 36 76  1  0  0  0  0
 36 86  2  0  0  0  0
 37 40  1  0  0  0  0
 38 51  1  0  0  0  0
 39 74  1  0  0  0  0
 40 42  1  0  0  0  0
 41 43  1  0  0  0  0
 41 45  1  0  0  0  0
 42 49  1  0  0  0  0
 43 52  1  0  0  0  0
 44 46  1  0  0  0  0
 44 50  1  0  0  0  0
 45 75  1  0  0  0  0
 46 76  1  0  0  0  0
 47 52  1  0  0  0  0
 47 75  1  0  0  0  0
 48 54  1  0  0  0  0
 48 57  1  0  0  0  0
 49 79  1  0  0  0  0
 50 53  1  0  0  0  0
 51 74  1  0  0  0  0
 52 73  1  0  0  0  0
 53 58  1  0  0  0  0
 53 76  1  0  0  0  0
 54 67  1  0  0  0  0
 54 87  1  0  0  0  0
 55 59  1  0  0  0  0
 55 60  1  0  0  0  0
 55 87  1  0  0  0  0
 61 69  1  0  0  0  0
 62 70  1  0  0  0  0
 63 70  1  0  0  0  0
 64 70  1  0  0  0  0
 65 72  1  0  0  0  0
 66 81  1  0  0  0  0
 67 89  1  0  0  0  0
 68 70  1  0  0  0  0
 68 80  1  0  0  0  0
 69 81  1  0  0  0  0
 71 73  1  0  0  0  0
M  CHG  1  81   1
M  ISO  4  36 100  67 101  76 100  89 101
M  END
> <Batch ID>
0164

> <Smiles>
CNC(C)C(=O)NC(C(=O)N1Cc2cc([101O:1][101CH2:1]C3OC(C)(C)c4c(c(C)c(C5CC[100N:0]([100C:0](=O)N6CCCC(n7nc(-c8ccc(Oc9ccc(F)cc9F)cc8)c(C(N)=O)c7N)C6)C5C)n4C)C3C)ccc2CC1C(=O)NC1CCCc2ccccc21)C(C)(C)C

> <Shape>
0.333

> <Color>
0.100

> <Negative vol penalty>
0.000

$$$$

  -OEChem-04052322193D

 85 94  0     1  0  0  0  0  0999 V2000
  -25.2881  -32.8828   27.5784 C   0  0  0  0  0  0  0  0  0  0  0  0
  -26.0139  -31.9821   26.8057 C   0  0  0  0  0  0  0  0  0  0  0  0
  -23.0890   -9.9473   21.0031 C   0  0  0  0  0  0  0  0  0  0  0  0
  -23.8166  -10.6458   23.1985 C   0  0  0  0  0  0  0  0  0  0  0  0
  -23.9114  -32.7204   27.7276 C   0  0  0  0  0  0  0  0  0  0  0  0
  -25.3636  -30.9176   26.1825 C   0  0  0  0  0  0  0  0  0  0  0  0
  -26.7279  -28.4420   20.7496 C   0  0  0  0  0  0  0  0  0  0  0  0
  -22.3466   -8.9155   21.5774 C   0  0  0  0  0  0  0  0  0  0  0  0
  -23.0741   -9.6139   23.7728 C   0  0  0  0  0  0  0  0  0  0  0  0
  -27.4549  -27.3074   20.3918 C   0  0  0  0  0  0  0  0  0  0  0  0
  -19.3817   -8.5647   23.1645 C   0  0  0  0  0  0  0  0  0  0  0  0
  -18.0820   -8.3648   22.6995 C   0  0  0  0  0  0  0  0  0  0  0  0
  -25.4036  -26.0462   20.2472 C   0  0  0  0  0  0  0  0  0  0  0  0
  -28.8230  -19.4534   23.3034 C   0  0  0  0  0  0  0  0  0  0  0  0
  -18.6685   -6.1200   22.0256 C   0  0  0  0  0  0  0  0  0  0  0  0
  -23.8240  -10.8124   21.8136 C   0  0  0  0  0  0  0  0  0  0  0  0
  -24.1568  -13.1890   20.9482 C   0  0  0  0  0  0  0  0  0  0  0  0
  -23.2423  -31.6589   27.0981 C   0  0  0  0  0  0  0  0  0  0  0  0
  -25.3320  -28.3844   20.8697 C   0  0  0  0  0  0  0  0  0  0  0  0
  -23.9768  -30.7400   26.3245 C   0  0  0  0  0  0  0  0  0  0  0  0
  -24.6611  -27.1821   20.6042 C   0  0  0  0  0  0  0  0  0  0  0  0
  -28.4612  -20.2996   21.0696 C   0  0  0  0  0  0  0  0  0  0  0  0
  -28.2294  -20.3768   22.4429 C   0  0  0  0  0  0  0  0  0  0  0  0
  -29.6485  -18.4527   22.7906 C   0  0  0  0  0  0  0  0  0  0  0  0
  -29.2867  -19.2989   20.5568 C   0  0  0  0  0  0  0  0  0  0  0  0
  -29.8803  -18.3755   21.4173 C   0  0  0  0  0  0  0  0  0  0  0  0
  -22.3392   -8.7488   22.9622 C   0  0  0  0  0  0  0  0  0  0  0  0
  -26.7930  -26.1085   20.1434 C   0  0  0  0  0  0  0  0  0  0  0  0
  -20.3249   -7.5424   23.0601 C   0  0  0  0  0  0  0  0  0  0  0  0
  -17.7253   -7.1424   22.1301 C   0  0  0  0  0  0  0  0  0  0  0  0
  -19.9683   -6.3200   22.4907 C   0  0  0  0  0  0  0  0  0  0  0  0
  -24.5916  -11.8781   21.2210 C   0  0  0  0  0  0  0  0  0  0  0  0
  -25.2507  -13.8046   20.3908 C   0  0  0  0  0  0  0  0  0  0  0  0
  -22.8783  -13.7959   21.1783 C   0  0  0  0  0  0  0  0  0  0  0  0
  -23.2644  -28.8304   23.2425 C   0  0  0  0  0  0  0  0  0  0  0  0
  -21.0717  -28.4743   20.8786 C   0  0  0  0  0  0  0  0  0  0  0  0
  -20.3142  -27.2274   17.7934 C   0  0  0  0  0  0  0  0  0  0  0  0
  -30.7269  -14.8786   20.3323 C   0  0  0  0  0  0  0  0  0  0  0  0
  -21.7604  -31.4971   27.3272 C   0  0  0  0  0  0  0  0  0  0  0  0
  -24.5600  -29.6238   21.2305 C   0  0  0  0  0  0  0  0  0  0  0  0
  -23.1619  -27.0727   20.6996 C   0  0  0  0  0  0  0  0  0  0  0  0
  -21.0886  -30.5585   26.3282 C   0  0  0  0  0  0  0  0  0  0  0  0
  -29.6331  -11.8804   18.7541 C   0  0  0  0  0  0  0  0  0  0  0  0
  -21.9055  -29.2808   26.1635 C   0  0  0  0  0  0  0  0  0  0  0  0
  -28.1910  -11.7176   19.2376 C   0  0  0  0  0  0  0  0  0  0  0  0
  -28.6993  -22.0797   19.2096 C   0  0  0  0  0  0  0  0  0  0  0  0
  -30.5323  -12.4577   19.8451 C   0  0  0  0  0  0  0  0  0  0  0  0
  -28.6082  -13.5540   20.9264 C   0  0  0  0  0  0  0  0  0  0  0  0
  -27.8290  -21.2825   20.1570 C   0  0  2  0  0  0  0  0  0  0  0  0
  -23.3034  -29.5869   25.6125 C   0  0  1  0  0  0  0  0  0  0  0  0
  -23.1877  -29.3213   21.8244 C   0  0  1  0  0  0  0  0  0  0  0  0
  -28.0648  -22.7610   20.3854 C   0  0  2  0  0  0  0  0  0  0  0  0
  -27.6514  -13.0274   19.8432 C   0  0  2  0  0  0  0  0  0  0  0  0
  -27.3500  -21.4379   23.0196 C   0  0  0  0  0  0  0  0  0  0  0  0
  -30.2720  -17.4764   23.7337 C   0  0  0  0  0  0  0  0  0  0  0  0
  -29.5366  -19.2144   19.0837 C   0  0  0  0  0  0  0  0  0  0  0  0
  -18.4309  -27.0635   16.1431 C   0  0  0  0  0  0  0  0  0  0  0  0
  -19.7669  -26.3084   22.5863 C   0  0  0  0  0  0  0  0  0  0  0  0
  -18.5261  -25.5475   20.5492 C   0  0  0  0  0  0  0  0  0  0  0  0
  -18.1590  -27.8467   21.4448 C   0  0  0  0  0  0  0  0  0  0  0  0
  -21.8352  -28.7128   15.7345 C   0  0  0  0  0  0  0  0  0  0  0  0
  -30.7662  -17.3011   20.8703 C   0  0  0  0  0  0  0  0  0  0  0  0
  -26.9577  -23.7363   20.1774 C   0  0  0  0  0  0  0  0  0  1  0  0
  -20.3329  -27.3054   20.2730 C   0  0  1  0  0  0  0  0  0  0  0  0
  -19.6469  -27.8619   16.5866 C   0  0  2  0  0  0  0  0  0  0  0  0
  -19.2247  -26.7532   21.2133 C   0  0  0  0  0  0  0  0  0  0  0  0
  -25.8626  -11.6721   20.8659 N   0  0  0  0  0  0  0  0  0  0  0  0
  -26.2358  -12.8617   20.3642 N   0  0  0  0  0  0  0  0  0  0  0  0
  -22.4521  -28.3106   21.0619 N   0  0  0  0  0  0  0  0  0  0  0  0
  -29.9650  -13.6994   20.3762 N   0  0  0  0  0  0  0  0  0  0  0  0
  -25.4564  -15.0550   19.9255 N   0  0  0  0  0  0  0  0  0  0  0  0
  -21.8657  -13.0208   21.7597 N   0  0  0  0  0  0  0  0  0  0  0  0
  -23.2416  -29.8374   24.1885 N   0  0  0  0  0  0  0  0  0  0  0  0
  -19.8441  -27.7594   18.9755 N   0  0  0  0  0  0  0  0  0  0  0  0
  -30.1120  -16.0117   20.8508 N   0  0  0  0  0  0  0  0  0  0  0  0
  -20.6025  -27.9357   15.4454 N   0  3  0  0  0  0  0  0  0  0  0  0
  -22.6360  -14.9854   20.8622 O   0  0  0  0  0  0  0  0  0  0  0  0
  -23.3372  -27.6270   23.4621 O   0  0  0  0  0  0  0  0  0  0  0  0
  -20.4483  -29.4976   21.1715 O   0  0  0  0  0  0  0  0  0  0  0  0
  -21.1645  -26.3452   17.6973 O   0  0  0  0  0  0  0  0  0  0  0  0
  -31.8683  -14.9199   19.8608 O   0  0  0  0  0  0  0  0  0  0  0  0
  -21.6147   -7.7422   23.5229 O   0  0  0  0  0  0  0  0  0  0  0  0
  -27.5002  -24.9994   19.7946 O   0  0  0  0  0  0  0  0  0  1  0  0
  -16.4768   -6.9500   21.6849 F   0  0  0  0  0  0  0  0  0  0  0  0
  -20.8697   -5.3337   22.3887 F   0  0  0  0  0  0  0  0  0  0  0  0
  1  2  1  0  0  0  0
  1  5  2  0  0  0  0
  2  6  2  0  0  0  0
  3  8  2  0  0  0  0
  3 16  1  0  0  0  0
  4  9  1  0  0  0  0
  4 16  2  0  0  0  0
  5 18  1  0  0  0  0
  6 20  1  0  0  0  0
  7 10  2  0  0  0  0
  7 19  1  0  0  0  0
  8 27  1  0  0  0  0
  9 27  2  0  0  0  0
 10 28  1  0  0  0  0
 11 12  2  0  0  0  0
 11 29  1  0  0  0  0
 12 30  1  0  0  0  0
 13 21  1  0  0  0  0
 13 28  2  0  0  0  0
 14 23  2  0  0  0  0
 14 24  1  0  0  0  0
 15 30  2  0  0  0  0
 15 31  1  0  0  0  0
 16 32  1  0  0  0  0
 17 32  1  0  0  0  0
 17 33  2  0  0  0  0
 17 34  1  0  0  0  0
 18 20  2  0  0  0  0
 18 39  1  0  0  0  0
 19 21  2  0  0  0  0
 19 40  1  0  0  0  0
 20 50  1  0  0  0  0
 21 41  1  0  0  0  0
 22 23  1  0  0  0  0
 22 25  2  0  0  0  0
 22 49  1  0  0  0  0
 23 54  1  0  0  0  0
 24 26  2  0  0  0  0
 24 55  1  0  0  0  0
 25 26  1  0  0  0  0
 25 56  1  0  0  0  0
 26 62  1  0  0  0  0
 27 82  1  0  0  0  0
 28 83  1  0  0  0  0
 29 31  2  0  0  0  0
 29 82  1  0  0  0  0
 30 84  1  0  0  0  0
 31 85  1  0  0  0  0
 32 67  2  0  0  0  0
 33 68  1  0  0  0  0
 33 71  1  0  0  0  0
 34 72  1  0  0  0  0
 34 77  2  0  0  0  0
 35 51  1  0  0  0  0
 35 73  1  0  0  0  0
 35 78  2  0  0  0  0
 36 64  1  0  0  0  0
 36 69  1  0  0  0  0
 36 79  2  0  0  0  0
 37 65  1  0  0  0  0
 37 74  1  0  0  0  0
 37 80  2  0  0  0  0
 38 70  1  0  0  0  0
 38 75  1  0  0  0  0
 38 81  2  0  0  0  0
 39 42  1  0  0  0  0
 40 51  1  0  0  0  0
 41 69  1  0  0  0  0
 42 44  1  0  0  0  0
 43 45  1  0  0  0  0
 43 47  1  0  0  0  0
 44 50  1  0  0  0  0
 45 53  1  0  0  0  0
 46 49  1  0  0  0  0
 46 52  1  0  0  0  0
 47 70  1  0  0  0  0
 48 53  1  0  0  0  0
 48 70  1  0  0  0  0
 49 52  1  0  0  0  0
 50 73  1  0  0  0  0
 51 69  1  0  0  0  0
 52 63  1  0  0  0  0
 53 68  1  0  0  0  0
 57 65  1  0  0  0  0
 58 66  1  0  0  0  0
 59 66  1  0  0  0  0
 60 66  1  0  0  0  0
 61 76  1  0  0  0  0
 62 75  1  0  0  0  0
 63 83  1  0  0  0  0
 64 66  1  0  0  0  0
 64 74  1  0  0  0  0
 65 76  1  0  0  0  0
 67 68  1  0  0  0  0
M  CHG  1  76   1
M  ISO  4  38 100  63 101  75 100  83 101
M  END
> <Batch ID>
0164

> <Smiles>
CNC(C)C(=O)NC(C(=O)N1Cc2cc([101O:1][101CH2:1]C3CC3c3c(C)cc(C)c(C[100NH:0][100C:0](=O)N4CCCC(n5nc(-c6ccc(Oc7ccc(F)cc7F)cc6)c(C(N)=O)c5N)C4)c3C)ccc2CC1C(=O)NC1CCCc2ccccc21)C(C)(C)C

> <Shape>
0.304

> <Color>
0.166

> <Negative vol penalty>
0.000

$$$$

  -OEChem-04052322193D

 89 98  0     1  0  0  0  0  0999 V2000
  -16.1984  -26.4944   23.2680 C   0  0  0  0  0  0  0  0  0  0  0  0
  -16.9944  -26.0706   22.2087 C   0  0  0  0  0  0  0  0  0  0  0  0
  -26.7498  -13.2785   20.2584 C   0  0  0  0  0  0  0  0  0  0  0  0
  -24.9920  -13.5268   21.8972 C   0  0  0  0  0  0  0  0  0  0  0  0
  -16.5072  -27.6755   23.9415 C   0  0  0  0  0  0  0  0  0  0  0  0
  -18.0991  -26.8283   21.8215 C   0  0  0  0  0  0  0  0  0  0  0  0
  -22.2081  -23.9876   20.9899 C   0  0  0  0  0  0  0  0  0  0  0  0
  -26.0217  -12.2680   19.6305 C   0  0  0  0  0  0  0  0  0  0  0  0
  -24.2639  -12.5162   21.2693 C   0  0  0  0  0  0  0  0  0  0  0  0
  -22.2692  -23.2945   19.7817 C   0  0  0  0  0  0  0  0  0  0  0  0
  -24.2866   -9.1376   21.1462 C   0  0  0  0  0  0  0  0  0  0  0  0
  -23.7031   -8.1615   21.9540 C   0  0  0  0  0  0  0  0  0  0  0  0
  -23.7203  -24.9996   18.8839 C   0  0  0  0  0  0  0  0  0  0  0  0
  -21.5205   -8.7760   21.1198 C   0  0  0  0  0  0  0  0  0  0  0  0
  -26.2349  -13.9079   21.3918 C   0  0  0  0  0  0  0  0  0  0  0  0
  -28.2711  -14.8470   22.6082 C   0  0  0  0  0  0  0  0  0  0  0  0
  -17.6219  -28.4430   23.5686 C   0  0  0  0  0  0  0  0  0  0  0  0
  -22.8951  -25.1995   21.1508 C   0  0  0  0  0  0  0  0  0  0  0  0
  -18.4224  -28.0215   22.4898 C   0  0  0  0  0  0  0  0  0  0  0  0
  -23.6684  -25.7048   20.0959 C   0  0  0  0  0  0  0  0  0  0  0  0
  -27.4823  -21.1260   17.2683 C   0  0  0  0  0  0  0  0  0  0  0  0
  -28.1136  -20.6003   16.1412 C   0  0  0  0  0  0  0  0  0  0  0  0
  -28.2387  -21.7248   18.2758 C   0  0  0  0  0  0  0  0  0  0  0  0
  -29.5014  -20.6732   16.0214 C   0  0  0  0  0  0  0  0  0  0  0  0
  -29.6265  -21.7978   18.1561 C   0  0  0  0  0  0  0  0  0  0  0  0
  -30.2579  -21.2720   17.0289 C   0  0  0  0  0  0  0  0  0  0  0  0
  -24.7787  -11.8868   20.1359 C   0  0  0  0  0  0  0  0  0  0  0  0
  -23.0230  -23.8019   18.7275 C   0  0  0  0  0  0  0  0  0  0  0  0
  -23.4870   -9.9329   20.3253 C   0  0  0  0  0  0  0  0  0  0  0  0
  -22.3201   -7.9807   21.9408 C   0  0  0  0  0  0  0  0  0  0  0  0
  -22.1040   -9.7520   20.3121 C   0  0  0  0  0  0  0  0  0  0  0  0
  -26.9868  -14.9515   22.0412 C   0  0  0  0  0  0  0  0  0  0  0  0
  -28.5359  -16.1047   23.0926 C   0  0  0  0  0  0  0  0  0  0  0  0
  -29.1465  -13.7144   22.6898 C   0  0  0  0  0  0  0  0  0  0  0  0
  -22.0383  -28.2010   21.7512 C   0  0  0  0  0  0  0  0  0  0  0  0
  -25.2433  -28.6690   21.9294 C   0  0  0  0  0  0  0  0  0  0  0  0
  -28.3752  -27.6364   21.0513 C   0  0  0  0  0  0  0  0  0  0  0  0
  -26.5271  -21.5488   21.6168 C   0  0  0  0  0  0  0  0  0  0  0  0
  -17.8884  -29.7371   24.2961 C   0  0  0  0  0  0  0  0  0  0  0  0
  -22.8406  -25.9214   22.4692 C   0  0  0  0  0  0  0  0  0  0  0  0
  -24.4408  -26.9914   20.2244 C   0  0  0  0  0  0  0  0  0  0  0  0
  -19.2934  -30.2874   24.0651 C   0  0  0  0  0  0  0  0  0  0  0  0
  -26.3427  -19.9928   24.8139 C   0  0  0  0  0  0  0  0  0  0  0  0
  -25.4153  -19.6096   17.4521 C   0  0  0  0  0  0  0  0  0  0  0  0
  -19.6468  -30.2437   22.5818 C   0  0  0  0  0  0  0  0  0  0  0  0
  -26.6027  -18.5149   24.5170 C   0  0  0  0  0  0  0  0  0  0  0  0
  -24.0738  -19.6171   16.7107 C   0  0  0  0  0  0  0  0  0  0  0  0
  -25.1411  -21.7115   16.2913 C   0  0  0  0  0  0  0  0  0  0  0  0
  -25.5325  -20.6576   23.7032 C   0  0  0  0  0  0  0  0  0  0  0  0
  -26.3544  -19.0234   22.0516 C   0  0  0  0  0  0  0  0  0  0  0  0
  -25.9745  -21.0467   17.3987 C   0  0  2  0  0  0  0  0  0  0  0  0
  -19.6435  -28.8031   22.0562 C   0  0  1  0  0  0  0  0  0  0  0  0
  -23.1647  -27.4074   22.3506 C   0  0  1  0  0  0  0  0  0  0  0  0
  -27.2159  -18.3238   23.1168 C   0  0  2  0  0  0  0  0  0  0  0  0
  -23.7436  -21.0897   16.4330 C   0  0  1  0  0  0  0  0  0  0  0  0
  -27.3018  -19.9580   15.0606 C   0  0  0  0  0  0  0  0  0  0  0  0
  -30.1786  -20.1063   14.8135 C   0  0  0  0  0  0  0  0  0  0  0  0
  -30.4385  -22.4397   19.2367 C   0  0  0  0  0  0  0  0  0  0  0  0
  -31.7468  -21.3484   16.9006 C   0  0  0  0  0  0  0  0  0  0  0  0
  -22.9288  -21.2534   15.1471 C   0  0  0  0  0  0  0  0  0  0  0  0
  -30.7959  -28.2426   21.3163 C   0  0  0  0  0  0  0  0  0  0  0  0
  -24.9039  -30.9081   19.8846 C   0  0  0  0  0  0  0  0  0  0  0  0
  -27.3742  -30.8243   19.4863 C   0  0  0  0  0  0  0  0  0  0  0  0
  -26.4961  -31.4247   21.7427 C   0  0  0  0  0  0  0  0  0  0  0  0
  -28.9851  -25.0827   22.4171 C   0  0  0  0  0  0  0  0  0  0  0  0
  -27.5616  -22.2881   19.4856 C   0  0  0  0  0  0  0  0  0  0  0  0
  -22.9602  -21.7072   17.6032 C   0  0  0  0  0  0  0  0  0  1  0  0
  -26.3271  -29.0321   20.9433 C   0  0  1  0  0  0  0  0  0  0  0  0
  -29.6356  -27.4319   21.8723 C   0  0  2  0  0  0  0  0  0  0  0  0
  -26.2593  -30.5240   20.5109 C   0  0  0  0  0  0  0  0  0  0  0  0
  -26.4715  -16.1785   22.1542 N   0  0  0  0  0  0  0  0  0  0  0  0
  -27.4368  -16.8567   22.7980 N   0  0  0  0  0  0  0  0  0  0  0  0
  -24.3509  -27.6636   21.5311 N   0  0  0  0  0  0  0  0  0  0  0  0
  -26.1685  -20.4404   22.4016 N   0  0  0  0  0  0  0  0  0  0  0  0
  -29.5993  -16.6297   23.7375 N   0  0  0  0  0  0  0  0  0  0  0  0
  -28.7180  -12.4980   22.1411 N   0  0  0  0  0  0  0  0  0  0  0  0
  -20.8529  -28.1164   22.4563 N   0  0  0  0  0  0  0  0  0  0  0  0
  -27.5898  -28.6468   21.5644 N   0  0  0  0  0  0  0  0  0  0  0  0
  -27.1306  -21.2546   20.4003 N   0  0  0  0  0  0  0  0  0  0  0  0
  -30.0253  -25.9934   21.8735 N   0  3  0  0  0  0  0  0  0  0  0  0
  -30.2684  -13.7750   23.2476 O   0  0  0  0  0  0  0  0  0  0  0  0
  -22.2309  -28.8438   20.7258 O   0  0  0  0  0  0  0  0  0  0  0  0
  -25.1946  -29.2508   23.0160 O   0  0  0  0  0  0  0  0  0  0  0  0
  -28.1154  -26.9692   20.0523 O   0  0  0  0  0  0  0  0  0  0  0  0
  -26.3293  -22.7144   21.9763 O   0  0  0  0  0  0  0  0  0  0  0  0
  -24.0679  -10.9009   19.5233 O   0  0  0  0  0  0  0  0  0  0  0  0
  -23.0837  -23.1278   17.5470 O   0  0  0  0  0  0  0  0  0  1  0  0
  -21.7601   -7.0423   22.7154 F   0  0  0  0  0  0  0  0  0  0  0  0
  -21.3308  -10.5122   19.5246 F   0  0  0  0  0  0  0  0  0  0  0  0
  1  2  1  0  0  0  0
  1  5  2  0  0  0  0
  2  6  2  0  0  0  0
  3  8  2  0  0  0  0
  3 15  1  0  0  0  0
  4  9  1  0  0  0  0
  4 15  2  0  0  0  0
  5 17  1  0  0  0  0
  6 19  1  0  0  0  0
  7 10  2  0  0  0  0
  7 18  1  0  0  0  0
  8 27  1  0  0  0  0
  9 27  2  0  0  0  0
 10 28  1  0  0  0  0
 11 12  2  0  0  0  0
 11 29  1  0  0  0  0
 12 30  1  0  0  0  0
 13 20  1  0  0  0  0
 13 28  2  0  0  0  0
 14 30  2  0  0  0  0
 14 31  1  0  0  0  0
 15 32  1  0  0  0  0
 16 32  1  0  0  0  0
 16 33  2  0  0  0  0
 16 34  1  0  0  0  0
 17 19  2  0  0  0  0
 17 39  1  0  0  0  0
 18 20  2  0  0  0  0
 18 40  1  0  0  0  0
 19 52  1  0  0  0  0
 20 41  1  0  0  0  0
 21 22  1  0  0  0  0
 21 23  2  0  0  0  0
 21 51  1  0  0  0  0
 22 24  2  0  0  0  0
 22 56  1  0  0  0  0
 23 25  1  0  0  0  0
 23 66  1  0  0  0  0
 24 26  1  0  0  0  0
 24 57  1  0  0  0  0
 25 26  2  0  0  0  0
 25 58  1  0  0  0  0
 26 59  1  0  0  0  0
 27 86  1  0  0  0  0
 28 87  1  0  0  0  0
 29 31  2  0  0  0  0
 29 86  1  0  0  0  0
 30 88  1  0  0  0  0
 31 89  1  0  0  0  0
 32 71  2  0  0  0  0
 33 72  1  0  0  0  0
 33 75  1  0  0  0  0
 34 76  1  0  0  0  0
 34 81  2  0  0  0  0
 35 53  1  0  0  0  0
 35 77  1  0  0  0  0
 35 82  2  0  0  0  0
 36 68  1  0  0  0  0
 36 73  1  0  0  0  0
 36 83  2  0  0  0  0
 37 69  1  0  0  0  0
 37 78  1  0  0  0  0
 37 84  2  0  0  0  0
 38 74  1  0  0  0  0
 38 79  1  0  0  0  0
 38 85  2  0  0  0  0
 39 42  1  0  0  0  0
 40 53  1  0  0  0  0
 41 73  1  0  0  0  0
 42 45  1  0  0  0  0
 43 46  1  0  0  0  0
 43 49  1  0  0  0  0
 44 47  1  0  0  0  0
 44 51  1  0  0  0  0
 45 52  1  0  0  0  0
 46 54  1  0  0  0  0
 47 55  1  0  0  0  0
 48 51  1  0  0  0  0
 48 55  1  0  0  0  0
 49 74  1  0  0  0  0
 50 54  1  0  0  0  0
 50 74  1  0  0  0  0
 52 77  1  0  0  0  0
 53 73  1  0  0  0  0
 54 72  1  0  0  0  0
 55 60  1  0  0  0  0
 55 67  1  0  0  0  0
 61 69  1  0  0  0  0
 62 70  1  0  0  0  0
 63 70  1  0  0  0  0
 64 70  1  0  0  0  0
 65 80  1  0  0  0  0
 66 79  1  0  0  0  0
 67 87  1  0  0  0  0
 68 70  1  0  0  0  0
 68 78  1  0  0  0  0
 69 80  1  0  0  0  0
 71 72  1  0  0  0  0
M  CHG  1  80   1
M  ISO  4  38 100  67 101  79 100  87 101
M  END
> <Batch ID>
0164

> <Smiles>
CNC(C)C(=O)NC(C(=O)N1Cc2cc([101O:1][101CH2:1]C3(C)CCC(c4c(C)c(C)c(C)c(C)c4C[100NH:0][100C:0](=O)N4CCCC(n5nc(-c6ccc(Oc7ccc(F)cc7F)cc6)c(C(N)=O)c5N)C4)C3)ccc2CC1C(=O)NC1CCCc2ccccc21)C(C)(C)C

> <Shape>
0.228

> <Color>
0.063

> <Negative vol penalty>
0.000

$$$$

  -OEChem-04052322193D

 86 95  0     1  0  0  0  0  0999 V2000
  -29.4063  -34.0022   26.5204 C   0  0  0  0  0  0  0  0  0  0  0  0
  -29.5973  -33.3549   25.3039 C   0  0  0  0  0  0  0  0  0  0  0  0
  -24.4674  -10.4450   22.9517 C   0  0  0  0  0  0  0  0  0  0  0  0
  -24.3983  -12.1134   24.6977 C   0  0  0  0  0  0  0  0  0  0  0  0
  -28.4473  -33.5314   27.4163 C   0  0  0  0  0  0  0  0  0  0  0  0
  -28.8301  -32.2356   24.9830 C   0  0  0  0  0  0  0  0  0  0  0  0
  -26.8191  -30.6201   19.4286 C   0  0  0  0  0  0  0  0  0  0  0  0
  -24.0322   -9.4783   23.8581 C   0  0  0  0  0  0  0  0  0  0  0  0
  -23.9631  -11.1467   25.6042 C   0  0  0  0  0  0  0  0  0  0  0  0
  -27.2947  -29.7081   18.4874 C   0  0  0  0  0  0  0  0  0  0  0  0
  -21.1130   -8.5253   25.2732 C   0  0  0  0  0  0  0  0  0  0  0  0
  -20.1049   -7.6550   24.8586 C   0  0  0  0  0  0  0  0  0  0  0  0
  -25.7574  -28.0493   19.3267 C   0  0  0  0  0  0  0  0  0  0  0  0
  -27.4164  -20.3271   20.2152 C   0  0  0  0  0  0  0  0  0  0  0  0
  -21.5818   -5.7759   25.2116 C   0  0  0  0  0  0  0  0  0  0  0  0
  -24.6505  -11.7626   23.3715 C   0  0  0  0  0  0  0  0  0  0  0  0
  -24.3006  -13.5833   21.6192 C   0  0  0  0  0  0  0  0  0  0  0  0
  -27.6613  -32.4115   27.1020 C   0  0  0  0  0  0  0  0  0  0  0  0
  -25.8150  -30.2495   20.3346 C   0  0  0  0  0  0  0  0  0  0  0  0
  -27.8607  -31.7485   25.8761 C   0  0  0  0  0  0  0  0  0  0  0  0
  -25.2690  -28.9593   20.2767 C   0  0  0  0  0  0  0  0  0  0  0  0
  -27.3633  -21.6331   19.7410 C   0  0  0  0  0  0  0  0  0  0  0  0
  -28.5150  -22.2344   19.2457 C   0  0  0  0  0  0  0  0  0  0  0  0
  -23.7800   -9.8291   25.1844 C   0  0  0  0  0  0  0  0  0  0  0  0
  -26.7659  -28.4216   18.4383 C   0  0  0  0  0  0  0  0  0  0  0  0
  -22.3556   -8.0209   25.6570 C   0  0  0  0  0  0  0  0  0  0  0  0
  -20.3393   -6.2803   24.8278 C   0  0  0  0  0  0  0  0  0  0  0  0
  -22.5900   -6.6462   25.6262 C   0  0  0  0  0  0  0  0  0  0  0  0
  -25.1006  -12.7615   22.4357 C   0  0  0  0  0  0  0  0  0  0  0  0
  -29.6854  -21.4928   19.2464 C   0  0  0  0  0  0  0  0  0  0  0  0
  -28.6360  -19.6708   20.1724 C   0  0  0  0  0  0  0  0  0  0  0  0
  -25.1992  -14.3524   20.9210 C   0  0  0  0  0  0  0  0  0  0  0  0
  -22.8730  -13.6458   21.5024 C   0  0  0  0  0  0  0  0  0  0  0  0
  -25.6231  -30.0177   23.4990 C   0  0  0  0  0  0  0  0  0  0  0  0
  -22.4985  -29.4094   22.8749 C   0  0  0  0  0  0  0  0  0  0  0  0
  -20.1470  -28.3131   20.6579 C   0  0  0  0  0  0  0  0  0  0  0  0
  -29.7895  -17.4969   20.7105 C   0  0  0  0  0  0  0  0  0  0  0  0
  -26.6699  -31.9110   28.1225 C   0  0  0  0  0  0  0  0  0  0  0  0
  -25.2940  -31.2534   21.3262 C   0  0  0  0  0  0  0  0  0  0  0  0
  -24.1754  -28.5182   21.2138 C   0  0  0  0  0  0  0  0  0  0  0  0
  -25.6390  -30.9435   27.5467 C   0  0  0  0  0  0  0  0  0  0  0  0
  -30.2283  -13.9703   20.4923 C   0  0  0  0  0  0  0  0  0  0  0  0
  -25.9894  -23.6918   20.4812 C   0  0  0  0  0  0  0  0  0  0  0  0
  -25.3288  -22.4914   21.0836 C   0  0  0  0  0  0  0  0  0  0  0  0
  -26.3206  -29.8944   26.6739 C   0  0  0  0  0  0  0  0  0  0  0  0
  -28.8676  -13.4090   20.9113 C   0  0  0  0  0  0  0  0  0  0  0  0
  -30.5967  -15.2194   21.2907 C   0  0  0  0  0  0  0  0  0  0  0  0
  -28.2205  -15.7189   21.7067 C   0  0  0  0  0  0  0  0  0  0  0  0
  -26.0618  -22.3645   19.7750 C   0  0  0  0  0  0  0  0  0  0  0  0
  -27.0309  -30.5460   25.4813 C   0  0  1  0  0  0  0  0  0  0  0  0
  -24.6297  -30.6069   22.5379 C   0  0  1  0  0  0  0  0  0  0  0  0
  -27.7767  -14.4975   20.8851 C   0  0  2  0  0  0  0  0  0  0  0  0
  -30.9568  -22.0824   18.7274 C   0  0  0  0  0  0  0  0  0  0  0  0
  -17.6817  -27.8941   20.4477 C   0  0  0  0  0  0  0  0  0  0  0  0
  -29.6868  -25.9461   17.5084 C   0  0  0  0  0  0  0  0  0  0  0  0
  -22.7918  -26.8656   24.5342 C   0  0  0  0  0  0  0  0  0  0  0  0
  -20.6562  -26.0413   23.5203 C   0  0  0  0  0  0  0  0  0  0  0  0
  -20.6575  -28.1145   24.9077 C   0  0  0  0  0  0  0  0  0  0  0  0
  -19.8836  -30.2745   18.4574 C   0  0  0  0  0  0  0  0  0  0  0  0
  -28.2193  -23.8765   17.3906 C   0  0  0  0  0  0  0  0  0  0  0  0
  -27.1906  -26.1489   17.8810 C   0  0  0  0  0  0  0  0  0  1  0  0
  -21.6856  -28.1677   22.5985 C   0  0  1  0  0  0  0  0  0  0  0  0
  -18.8083  -28.8943   20.2399 C   0  0  2  0  0  0  0  0  0  0  0  0
  -28.3044  -25.3901   17.1488 C   0  0  1  0  0  0  0  0  0  0  0  0
  -21.4697  -27.3047   23.8737 C   0  0  0  0  0  0  0  0  0  0  0  0
  -26.4068  -12.9874   22.2723 N   0  0  0  0  0  0  0  0  0  0  0  0
  -29.7759  -20.2220   19.6986 N   0  0  0  0  0  0  0  0  0  0  0  0
  -26.4346  -13.9597   21.3449 N   0  0  0  0  0  0  0  0  0  0  0  0
  -23.7038  -29.5340   22.1695 N   0  0  0  0  0  0  0  0  0  0  0  0
  -29.5187  -16.2080   21.2168 N   0  0  0  0  0  0  0  0  0  0  0  0
  -25.0451  -15.3195   19.9918 N   0  0  0  0  0  0  0  0  0  0  0  0
  -22.0996  -12.7850   22.2932 N   0  0  0  0  0  0  0  0  0  0  0  0
  -28.4917  -23.5343   18.7668 N   0  0  0  0  0  0  0  0  0  0  0  0
  -28.6803  -18.3403   20.6576 N   0  0  0  0  0  0  0  0  0  0  0  0
  -26.0733  -30.9054   24.4574 N   0  0  0  0  0  0  0  0  0  0  0  0
  -20.4507  -28.6205   21.9673 N   0  0  0  0  0  0  0  0  0  0  0  0
  -18.8369  -29.2775   18.8000 N   0  3  0  0  0  0  0  0  0  0  0  0
  -22.3006  -14.4299   20.7080 O   0  0  0  0  0  0  0  0  0  0  0  0
  -25.9553  -28.8441   23.3806 O   0  0  0  0  0  0  0  0  0  0  0  0
  -22.0762  -30.2416   23.6815 O   0  0  0  0  0  0  0  0  0  0  0  0
  -20.8509  -27.6495   19.8999 O   0  0  0  0  0  0  0  0  0  0  0  0
  -30.9162  -17.8192   20.3249 O   0  0  0  0  0  0  0  0  0  0  0  0
  -23.3552   -8.8861   26.0691 O   0  0  0  0  0  0  0  0  0  0  0  0
  -27.2288  -27.5293   17.5210 O   0  0  0  0  0  0  0  0  0  1  0  0
  -19.3706   -5.4446   24.4311 F   0  0  0  0  0  0  0  0  0  0  0  0
  -23.7813   -6.1556   25.9948 F   0  0  0  0  0  0  0  0  0  0  0  0
  1  2  1  0  0  0  0
  1  5  2  0  0  0  0
  2  6  2  0  0  0  0
  3  8  2  0  0  0  0
  3 16  1  0  0  0  0
  4  9  1  0  0  0  0
  4 16  2  0  0  0  0
  5 18  1  0  0  0  0
  6 20  1  0  0  0  0
  7 10  2  0  0  0  0
  7 19  1  0  0  0  0
  8 24  1  0  0  0  0
  9 24  2  0  0  0  0
 10 25  1  0  0  0  0
 11 12  2  0  0  0  0
 11 26  1  0  0  0  0
 12 27  1  0  0  0  0
 13 21  1  0  0  0  0
 13 25  2  0  0  0  0
 14 22  2  0  0  0  0
 14 31  1  0  0  0  0
 15 27  2  0  0  0  0
 15 28  1  0  0  0  0
 16 29  1  0  0  0  0
 17 29  1  0  0  0  0
 17 32  2  0  0  0  0
 17 33  1  0  0  0  0
 18 20  2  0  0  0  0
 18 38  1  0  0  0  0
 19 21  2  0  0  0  0
 19 39  1  0  0  0  0
 20 50  1  0  0  0  0
 21 40  1  0  0  0  0
 22 23  1  0  0  0  0
 22 49  1  0  0  0  0
 23 30  2  0  0  0  0
 23 73  1  0  0  0  0
 24 83  1  0  0  0  0
 25 84  1  0  0  0  0
 26 28  2  0  0  0  0
 26 83  1  0  0  0  0
 27 85  1  0  0  0  0
 28 86  1  0  0  0  0
 29 66  2  0  0  0  0
 30 53  1  0  0  0  0
 30 67  1  0  0  0  0
 31 67  2  0  0  0  0
 31 74  1  0  0  0  0
 32 68  1  0  0  0  0
 32 71  1  0  0  0  0
 33 72  1  0  0  0  0
 33 78  2  0  0  0  0
 34 51  1  0  0  0  0
 34 75  1  0  0  0  0
 34 79  2  0  0  0  0
 35 62  1  0  0  0  0
 35 69  1  0  0  0  0
 35 80  2  0  0  0  0
 36 63  1  0  0  0  0
 36 76  1  0  0  0  0
 36 81  2  0  0  0  0
 37 70  1  0  0  0  0
 37 74  1  0  0  0  0
 37 82  2  0  0  0  0
 38 41  1  0  0  0  0
 39 51  1  0  0  0  0
 40 69  1  0  0  0  0
 41 45  1  0  0  0  0
 42 46  1  0  0  0  0
 42 47  1  0  0  0  0
 43 44  1  0  0  0  0
 43 49  1  0  0  0  0
 44 49  1  0  0  0  0
 45 50  1  0  0  0  0
 46 52  1  0  0  0  0
 47 70  1  0  0  0  0
 48 52  1  0  0  0  0
 48 70  1  0  0  0  0
 50 75  1  0  0  0  0
 51 69  1  0  0  0  0
 52 68  1  0  0  0  0
 54 63  1  0  0  0  0
 55 64  1  0  0  0  0
 56 65  1  0  0  0  0
 57 65  1  0  0  0  0
 58 65  1  0  0  0  0
 59 77  1  0  0  0  0
 60 64  1  0  0  0  0
 60 73  1  0  0  0  0
 61 64  1  0  0  0  0
 61 84  1  0  0  0  0
 62 65  1  0  0  0  0
 62 76  1  0  0  0  0
 63 77  1  0  0  0  0
 66 68  1  0  0  0  0
M  CHG  1  77   1
M  ISO  4  37 100  61 101  74 100  84 101
M  END
> <Batch ID>
0164

> <Smiles>
CNC(C)C(=O)NC(C(=O)N1Cc2cc([101O:1][101CH2:1]C(C)CNc3c(C4CC4)cc([100NH:0][100C:0](=O)N4CCCC(n5nc(-c6ccc(Oc7ccc(F)cc7F)cc6)c(C(N)=O)c5N)C4)nc3C)ccc2CC1C(=O)NC1CCCc2ccccc21)C(C)(C)C

> <Shape>
0.287

> <Color>
0.120

> <Negative vol penalty>
0.000

$$$$

  -OEChem-04052322193D

 86 94  0     1  0  0  0  0  0999 V2000
  -30.8435  -11.5088   22.5491 C   0  0  0  0  0  0  0  0  0  0  0  0
  -30.6577  -12.8368   22.9195 C   0  0  0  0  0  0  0  0  0  0  0  0
  -23.5128  -30.5281   21.4051 C   0  0  0  0  0  0  0  0  0  0  0  0
  -22.9878  -28.3088   22.2026 C   0  0  0  0  0  0  0  0  0  0  0  0
  -30.3457  -11.0501   21.3302 C   0  0  0  0  0  0  0  0  0  0  0  0
  -29.9748  -13.7072   22.0707 C   0  0  0  0  0  0  0  0  0  0  0  0
  -26.2970  -18.3208   23.7124 C   0  0  0  0  0  0  0  0  0  0  0  0
  -22.4252  -31.0397   22.1130 C   0  0  0  0  0  0  0  0  0  0  0  0
  -21.9003  -28.8204   22.9105 C   0  0  0  0  0  0  0  0  0  0  0  0
  -26.5077  -19.6945   23.8229 C   0  0  0  0  0  0  0  0  0  0  0  0
  -18.7386  -29.8152   22.2432 C   0  0  0  0  0  0  0  0  0  0  0  0
  -17.5302  -29.1231   22.1638 C   0  0  0  0  0  0  0  0  0  0  0  0
  -25.6064  -20.0050   21.6070 C   0  0  0  0  0  0  0  0  0  0  0  0
  -29.8560  -19.8019   18.8020 C   0  0  0  0  0  0  0  0  0  0  0  0
  -17.5614  -28.7943   24.5572 C   0  0  0  0  0  0  0  0  0  0  0  0
  -23.7941  -29.1626   21.4499 C   0  0  0  0  0  0  0  0  0  0  0  0
  -26.2389  -28.4863   21.1797 C   0  0  0  0  0  0  0  0  0  0  0  0
  -29.6480  -11.9129   20.4704 C   0  0  0  0  0  0  0  0  0  0  0  0
  -25.7486  -17.7767   22.5421 C   0  0  0  0  0  0  0  0  0  0  0  0
  -29.4684  -13.2599   20.8386 C   0  0  0  0  0  0  0  0  0  0  0  0
  -25.3874  -18.6243   21.4851 C   0  0  0  0  0  0  0  0  0  0  0  0
  -29.6643  -20.5899   17.6725 C   0  0  0  0  0  0  0  0  0  0  0  0
  -29.6948  -20.3579   20.0662 C   0  0  0  0  0  0  0  0  0  0  0  0
  -21.6190  -30.1859   22.8657 C   0  0  0  0  0  0  0  0  0  0  0  0
  -26.1650  -20.5365   22.7690 C   0  0  0  0  0  0  0  0  0  0  0  0
  -19.3585  -29.9968   23.4795 C   0  0  0  0  0  0  0  0  0  0  0  0
  -16.9416  -28.6127   23.3208 C   0  0  0  0  0  0  0  0  0  0  0  0
  -18.7699  -29.4864   24.6365 C   0  0  0  0  0  0  0  0  0  0  0  0
  -24.9170  -28.6334   20.7184 C   0  0  0  0  0  0  0  0  0  0  0  0
  -29.3151  -21.9176   17.8597 C   0  0  0  0  0  0  0  0  0  0  0  0
  -29.3444  -21.6960   20.1462 C   0  0  0  0  0  0  0  0  0  0  0  0
  -26.9155  -27.9428   20.1152 C   0  0  0  0  0  0  0  0  0  0  0  0
  -26.8046  -28.8117   22.4563 C   0  0  0  0  0  0  0  0  0  0  0  0
  -26.7561  -15.7190   20.3388 C   0  0  0  0  0  0  0  0  0  0  0  0
  -23.7236  -16.0230   19.2282 C   0  0  0  0  0  0  0  0  0  0  0  0
  -20.8842  -17.9065   19.0347 C   0  0  0  0  0  0  0  0  0  0  0  0
  -27.2485  -24.2803   15.9175 C   0  0  0  0  0  0  0  0  0  0  0  0
  -29.1695  -11.3831   19.1418 C   0  0  0  0  0  0  0  0  0  0  0  0
  -25.5029  -16.2957   22.4489 C   0  0  0  0  0  0  0  0  0  0  0  0
  -24.7767  -18.0924   20.2152 C   0  0  0  0  0  0  0  0  0  0  0  0
  -28.1312  -12.2764   18.4681 C   0  0  0  0  0  0  0  0  0  0  0  0
  -25.5179  -27.3285   15.2927 C   0  0  0  0  0  0  0  0  0  0  0  0
  -28.5741  -13.7355   18.5105 C   0  0  0  0  0  0  0  0  0  0  0  0
  -25.3111  -27.9240   16.6865 C   0  0  0  0  0  0  0  0  0  0  0  0
  -25.3956  -25.8064   15.3055 C   0  0  0  0  0  0  0  0  0  0  0  0
  -26.0549  -25.7192   17.6786 C   0  0  0  0  0  0  0  0  0  0  0  0
  -28.7113  -14.2285   19.9560 C   0  0  1  0  0  0  0  0  0  0  0  0
  -25.4144  -15.7940   21.0109 C   0  0  1  0  0  0  0  0  0  0  0  0
  -26.2242  -27.2473   17.7265 C   0  0  2  0  0  0  0  0  0  0  0  0
  -29.8355  -20.0000   16.3153 C   0  0  0  0  0  0  0  0  0  0  0  0
  -29.9012  -19.5102   21.2752 C   0  0  0  0  0  0  0  0  0  0  0  0
  -30.3804  -23.5151   16.2243 C   0  0  0  0  0  0  0  0  0  0  0  0
  -18.5868  -17.9087   18.0252 C   0  0  0  0  0  0  0  0  0  0  0  0
  -29.2222  -24.0997   23.9842 C   0  0  0  0  0  0  0  0  0  0  0  0
  -24.9221  -16.7117   16.5081 C   0  0  0  0  0  0  0  0  0  0  0  0
  -22.6867  -17.6115   15.8288 C   0  0  0  0  0  0  0  0  0  0  0  0
  -22.9317  -15.2001   16.4186 C   0  0  0  0  0  0  0  0  0  0  0  0
  -19.5895  -18.0053   21.6942 C   0  0  0  0  0  0  0  0  0  0  0  0
  -28.4388  -23.4670   21.6526 C   0  0  0  0  0  0  0  0  0  0  0  0
  -27.4591  -22.3061   23.6909 C   0  0  0  0  0  0  0  0  0  1  0  0
  -29.0962  -22.8107   16.6826 C   0  0  2  0  0  0  0  0  0  0  0  0
  -23.0302  -16.9403   18.2500 C   0  0  1  0  0  0  0  0  0  0  0  0
  -19.4233  -17.5508   19.2438 C   0  0  2  0  0  0  0  0  0  0  0  0
  -28.0484  -23.6067   23.1306 C   0  0  1  0  0  0  0  0  0  0  0  0
  -23.4059  -16.6260   16.7744 C   0  0  0  0  0  0  0  0  0  0  0  0
  -24.7611  -28.2172   19.4589 N   0  0  0  0  0  0  0  0  0  0  0  0
  -29.1496  -22.4930   19.0717 N   0  0  0  0  0  0  0  0  0  0  0  0
  -25.9938  -27.8032   19.1196 N   0  0  0  0  0  0  0  0  0  0  0  0
  -24.5619  -16.6366   20.1698 N   0  0  0  0  0  0  0  0  0  0  0  0
  -26.2883  -25.2266   16.3119 N   0  0  0  0  0  0  0  0  0  0  0  0
  -28.2031  -27.5756   19.9429 N   0  0  0  0  0  0  0  0  0  0  0  0
  -25.9682  -29.3627   23.4368 N   0  0  0  0  0  0  0  0  0  0  0  0
  -29.1831  -22.2549   21.4038 N   0  0  0  0  0  0  0  0  0  0  0  0
  -27.4088  -14.5143   20.5183 N   0  0  0  0  0  0  0  0  0  0  0  0
  -21.6034  -16.8402   18.5376 N   0  0  0  0  0  0  0  0  0  0  0  0
  -28.0581  -23.7857   16.9327 N   0  0  0  0  0  0  0  0  0  0  0  0
  -18.8755  -18.2821   20.4211 N   0  3  0  0  0  0  0  0  0  0  0  0
  -28.0193  -28.6349   22.7143 O   0  0  0  0  0  0  0  0  0  0  0  0
  -27.1681  -16.6822   19.7030 O   0  0  0  0  0  0  0  0  0  0  0  0
  -23.5230  -14.8076   19.1640 O   0  0  0  0  0  0  0  0  0  0  0  0
  -21.3409  -19.0201   19.2837 O   0  0  0  0  0  0  0  0  0  0  0  0
  -27.3784  -23.9080   14.7464 O   0  0  0  0  0  0  0  0  0  0  0  0
  -20.5578  -30.6848   23.5567 O   0  0  0  0  0  0  0  0  0  0  0  0
  -26.3702  -21.8777   22.8741 O   0  0  0  0  0  0  0  0  0  1  0  0
  -15.7804  -27.9494   23.2446 F   0  0  0  0  0  0  0  0  0  0  0  0
  -19.3601  -29.6587   25.8272 F   0  0  0  0  0  0  0  0  0  0  0  0
  1  2  1  0  0  0  0
  1  5  2  0  0  0  0
  2  6  2  0  0  0  0
  3  8  2  0  0  0  0
  3 16  1  0  0  0  0
  4  9  1  0  0  0  0
  4 16  2  0  0  0  0
  5 18  1  0  0  0  0
  6 20  1  0  0  0  0
  7 10  2  0  0  0  0
  7 19  1  0  0  0  0
  8 24  1  0  0  0  0
  9 24  2  0  0  0  0
 10 25  1  0  0  0  0
 11 12  2  0  0  0  0
 11 26  1  0  0  0  0
 12 27  1  0  0  0  0
 13 21  1  0  0  0  0
 13 25  2  0  0  0  0
 14 22  2  0  0  0  0
 14 23  1  0  0  0  0
 15 27  2  0  0  0  0
 15 28  1  0  0  0  0
 16 29  1  0  0  0  0
 17 29  1  0  0  0  0
 17 32  2  0  0  0  0
 17 33  1  0  0  0  0
 18 20  2  0  0  0  0
 18 38  1  0  0  0  0
 19 21  2  0  0  0  0
 19 39  1  0  0  0  0
 20 47  1  0  0  0  0
 21 40  1  0  0  0  0
 22 30  1  0  0  0  0
 22 50  1  0  0  0  0
 23 31  2  0  0  0  0
 23 51  1  0  0  0  0
 24 83  1  0  0  0  0
 25 84  1  0  0  0  0
 26 28  2  0  0  0  0
 26 83  1  0  0  0  0
 27 85  1  0  0  0  0
 28 86  1  0  0  0  0
 29 66  2  0  0  0  0
 30 61  1  0  0  0  0
 30 67  2  0  0  0  0
 31 67  1  0  0  0  0
 31 73  1  0  0  0  0
 32 68  1  0  0  0  0
 32 71  1  0  0  0  0
 33 72  1  0  0  0  0
 33 78  2  0  0  0  0
 34 48  1  0  0  0  0
 34 74  1  0  0  0  0
 34 79  2  0  0  0  0
 35 62  1  0  0  0  0
 35 69  1  0  0  0  0
 35 80  2  0  0  0  0
 36 63  1  0  0  0  0
 36 75  1  0  0  0  0
 36 81  2  0  0  0  0
 37 70  1  0  0  0  0
 37 76  1  0  0  0  0
 37 82  2  0  0  0  0
 38 41  1  0  0  0  0
 39 48  1  0  0  0  0
 40 69  1  0  0  0  0
 41 43  1  0  0  0  0
 42 44  1  0  0  0  0
 42 45  1  0  0  0  0
 43 47  1  0  0  0  0
 44 49  1  0  0  0  0
 45 70  1  0  0  0  0
 46 49  1  0  0  0  0
 46 70  1  0  0  0  0
 47 74  1  0  0  0  0
 48 69  1  0  0  0  0
 49 68  1  0  0  0  0
 52 61  1  0  0  0  0
 53 63  1  0  0  0  0
 54 64  1  0  0  0  0
 55 65  1  0  0  0  0
 56 65  1  0  0  0  0
 57 65  1  0  0  0  0
 58 77  1  0  0  0  0
 59 64  1  0  0  0  0
 59 73  1  0  0  0  0
 60 64  1  0  0  0  0
 60 84  1  0  0  0  0
 61 76  1  0  0  0  0
 62 65  1  0  0  0  0
 62 75  1  0  0  0  0
 63 77  1  0  0  0  0
 66 68  1  0  0  0  0
M  CHG  1  77   1
M  ISO  4  37 100  60 101  76 100  84 101
M  END
> <Batch ID>
0164

> <Smiles>
CNC(C)C(=O)NC(C(=O)N1Cc2cc([101O:1][101CH2:1]C(C)CNc3nc(C(C)[100NH:0][100C:0](=O)N4CCCC(n5nc(-c6ccc(Oc7ccc(F)cc7F)cc6)c(C(N)=O)c5N)C4)c(C)cc3C)ccc2CC1C(=O)NC1CCCc2ccccc21)C(C)(C)C

> <Shape>
0.207

> <Color>
0.077

> <Negative vol penalty>
0.000

$$$$

  -OEChem-04052322193D

 91101  0     1  0  0  0  0  0999 V2000
  -14.8954  -28.9119   25.9302 C   0  0  0  0  0  0  0  0  0  0  0  0
  -15.6844  -27.8251   26.2931 C   0  0  0  0  0  0  0  0  0  0  0  0
  -23.0652   -9.7749   20.0008 C   0  0  0  0  0  0  0  0  0  0  0  0
  -23.6140  -10.0599   22.3364 C   0  0  0  0  0  0  0  0  0  0  0  0
  -15.3389  -29.7970   24.9484 C   0  0  0  0  0  0  0  0  0  0  0  0
  -16.9170  -27.6220   25.6735 C   0  0  0  0  0  0  0  0  0  0  0  0
  -23.4847  -25.0902   27.0045 C   0  0  0  0  0  0  0  0  0  0  0  0
  -22.2951   -8.6561   20.3183 C   0  0  0  0  0  0  0  0  0  0  0  0
  -22.8438   -8.9411   22.6539 C   0  0  0  0  0  0  0  0  0  0  0  0
  -24.4131  -24.1833   26.4952 C   0  0  0  0  0  0  0  0  0  0  0  0
  -23.1650   -5.5779   22.5263 C   0  0  0  0  0  0  0  0  0  0  0  0
  -23.7069   -4.6489   23.4145 C   0  0  0  0  0  0  0  0  0  0  0  0
  -25.1123  -25.8219   24.8688 C   0  0  0  0  0  0  0  0  0  0  0  0
  -21.8587   -5.0165   24.9265 C   0  0  0  0  0  0  0  0  0  0  0  0
  -23.7247  -10.4768   21.0099 C   0  0  0  0  0  0  0  0  0  0  0  0
  -24.0905  -12.9712   20.6204 C   0  0  0  0  0  0  0  0  0  0  0  0
  -16.5819  -29.6101   24.3234 C   0  0  0  0  0  0  0  0  0  0  0  0
  -23.3553  -26.3681   26.4418 C   0  0  0  0  0  0  0  0  0  0  0  0
  -17.3770  -28.5046   24.6815 C   0  0  0  0  0  0  0  0  0  0  0  0
  -24.1833  -26.7440   25.3744 C   0  0  0  0  0  0  0  0  0  0  0  0
  -29.2595  -20.0612   23.6361 C   0  0  0  0  0  0  0  0  0  0  0  0
  -28.0379  -20.2662   22.9948 C   0  0  0  0  0  0  0  0  0  0  0  0
  -29.4853  -20.6101   24.8984 C   0  0  0  0  0  0  0  0  0  0  0  0
  -27.0421  -21.0201   23.6157 C   0  0  0  0  0  0  0  0  0  0  0  0
  -28.4895  -21.3641   25.5194 C   0  0  0  0  0  0  0  0  0  0  0  0
  -27.2679  -21.5691   24.8780 C   0  0  0  0  0  0  0  0  0  0  0  0
  -22.1844   -8.2392   21.6448 C   0  0  0  0  0  0  0  0  0  0  0  0
  -25.2251  -24.5481   25.4253 C   0  0  0  0  0  0  0  0  0  0  0  0
  -21.9700   -6.2262   22.8382 C   0  0  0  0  0  0  0  0  0  0  0  0
  -23.0538   -4.3682   24.6146 C   0  0  0  0  0  0  0  0  0  0  0  0
  -21.3168   -5.9455   24.0383 C   0  0  0  0  0  0  0  0  0  0  0  0
  -24.5208  -11.6323   20.6825 C   0  0  0  0  0  0  0  0  0  0  0  0
  -25.2154  -13.6775   20.2708 C   0  0  0  0  0  0  0  0  0  0  0  0
  -22.7903  -13.5269   20.8577 C   0  0  0  0  0  0  0  0  0  0  0  0
  -21.0178  -27.9485   24.9783 C   0  0  0  0  0  0  0  0  0  0  0  0
  -23.1258  -30.4103   25.1130 C   0  0  0  0  0  0  0  0  0  0  0  0
  -26.3729  -31.4347   25.3444 C   0  0  0  0  0  0  0  0  0  0  0  0
  -30.6652  -14.7400   20.8328 C   0  0  0  0  0  0  0  0  0  0  0  0
  -16.9978  -30.5667   23.2341 C   0  0  0  0  0  0  0  0  0  0  0  0
  -22.3676  -27.3441   27.0200 C   0  0  0  0  0  0  0  0  0  0  0  0
  -24.0979  -28.1110   24.7478 C   0  0  0  0  0  0  0  0  0  0  0  0
  -18.4836  -30.4916   22.8921 C   0  0  0  0  0  0  0  0  0  0  0  0
  -29.7351  -12.0815   18.6548 C   0  0  0  0  0  0  0  0  0  0  0  0
  -18.9238  -29.0390   22.7404 C   0  0  0  0  0  0  0  0  0  0  0  0
  -28.2627  -11.8342   18.9875 C   0  0  0  0  0  0  0  0  0  0  0  0
  -31.8896  -19.5539   23.2555 C   0  0  0  0  0  0  0  0  0  0  0  0
  -32.2502  -19.5658   21.7707 C   0  0  0  0  0  0  0  0  0  0  0  0
  -30.0616  -17.6858   23.0553 C   0  0  0  0  0  0  0  0  0  0  0  0
  -30.4128  -18.0710   20.7167 C   0  0  0  0  0  0  0  0  0  0  0  0
  -30.5408  -12.4490   19.8989 C   0  0  0  0  0  0  0  0  0  0  0  0
  -28.5254  -13.3308   21.0099 C   0  0  0  0  0  0  0  0  0  0  0  0
  -18.7311  -28.2646   24.0499 C   0  0  1  0  0  0  0  0  0  0  0  0
  -21.9643  -28.4390   26.0372 C   0  0  1  0  0  0  0  0  0  0  0  0
  -27.6610  -13.0116   19.7781 C   0  0  2  0  0  0  0  0  0  0  0  0
  -30.6310  -17.0233   21.8046 C   0  0  2  0  0  0  0  0  0  0  0  0
  -30.4060  -19.1926   22.9211 C   0  0  1  0  0  0  0  0  0  0  0  0
  -30.7514  -19.4062   21.4000 C   0  0  1  0  0  0  0  0  0  0  0  0
  -27.7991  -19.6763   21.6412 C   0  0  0  0  0  0  0  0  0  0  0  0
  -30.7962  -20.3875   25.5835 C   0  0  0  0  0  0  0  0  0  0  0  0
  -25.7321  -21.2410   22.9274 C   0  0  0  0  0  0  0  0  0  0  0  0
  -30.2343  -20.6128   20.6307 C   0  0  0  0  0  0  0  0  0  0  0  0
  -29.0323  -23.4482   26.8033 C   0  0  0  0  0  0  0  0  0  0  0  0
  -27.7858  -33.5081   25.3917 C   0  0  0  0  0  0  0  0  0  0  0  0
  -22.7531  -30.7300   22.1016 C   0  0  0  0  0  0  0  0  0  0  0  0
  -24.8340  -32.1216   22.0621 C   0  0  0  0  0  0  0  0  0  0  0  0
  -22.8530  -32.8804   23.3745 C   0  0  0  0  0  0  0  0  0  0  0  0
  -27.4096  -30.8066   28.0443 C   0  0  0  0  0  0  0  0  0  0  0  0
  -28.7334  -21.9548   26.8725 C   0  0  0  0  0  0  0  0  0  0  0  0
  -26.1976  -22.3811   25.5461 C   0  0  0  0  0  0  0  0  0  1  0  0
  -24.2229  -30.9287   24.2149 C   0  0  1  0  0  0  0  0  0  0  0  0
  -27.0402  -32.4765   26.2240 C   0  0  2  0  0  0  0  0  0  0  0  0
  -23.6663  -31.6387   22.9486 C   0  0  0  0  0  0  0  0  0  0  0  0
  -25.8178  -11.4937   20.3952 N   0  0  0  0  0  0  0  0  0  0  0  0
  -26.2122  -12.7546   20.1491 N   0  0  0  0  0  0  0  0  0  0  0  0
  -23.1122  -29.0275   25.3444 N   0  0  0  0  0  0  0  0  0  0  0  0
  -29.9181  -13.5732   20.6020 N   0  0  0  0  0  0  0  0  0  0  0  0
  -25.4392  -14.9918   20.0586 N   0  0  0  0  0  0  0  0  0  0  0  0
  -21.7467  -12.6593   21.2080 N   0  0  0  0  0  0  0  0  0  0  0  0
  -19.7894  -28.5814   24.9848 N   0  0  0  0  0  0  0  0  0  0  0  0
  -25.0692  -31.7738   25.0504 N   0  0  0  0  0  0  0  0  0  0  0  0
  -29.9975  -15.7597   21.4999 N   0  0  0  0  0  0  0  0  0  0  0  0
  -28.0119  -31.8278   27.1492 N   0  3  0  0  0  0  0  0  0  0  0  0
  -22.5569  -14.7543   20.7458 O   0  0  0  0  0  0  0  0  0  0  0  0
  -21.3760  -27.0626   24.2111 O   0  0  0  0  0  0  0  0  0  0  0  0
  -22.3151  -31.2040   25.5974 O   0  0  0  0  0  0  0  0  0  0  0  0
  -26.9516  -30.4232   24.9539 O   0  0  0  0  0  0  0  0  0  0  0  0
  -31.8387  -14.8659   20.4664 O   0  0  0  0  0  0  0  0  0  0  0  0
  -21.4328   -7.1477   21.9550 O   0  0  0  0  0  0  0  0  0  0  0  0
  -26.1316  -23.6646   24.9258 O   0  0  0  0  0  0  0  0  0  1  0  0
  -23.5735   -3.4750   25.4668 F   0  0  0  0  0  0  0  0  0  0  0  0
  -20.1679   -6.5644   24.3429 F   0  0  0  0  0  0  0  0  0  0  0  0
  1  2  1  0  0  0  0
  1  5  2  0  0  0  0
  2  6  2  0  0  0  0
  3  8  2  0  0  0  0
  3 15  1  0  0  0  0
  4  9  1  0  0  0  0
  4 15  2  0  0  0  0
  5 17  1  0  0  0  0
  6 19  1  0  0  0  0
  7 10  2  0  0  0  0
  7 18  1  0  0  0  0
  8 27  1  0  0  0  0
  9 27  2  0  0  0  0
 10 28  1  0  0  0  0
 11 12  2  0  0  0  0
 11 29  1  0  0  0  0
 12 30  1  0  0  0  0
 13 20  1  0  0  0  0
 13 28  2  0  0  0  0
 14 30  2  0  0  0  0
 14 31  1  0  0  0  0
 15 32  1  0  0  0  0
 16 32  1  0  0  0  0
 16 33  2  0  0  0  0
 16 34  1  0  0  0  0
 17 19  2  0  0  0  0
 17 39  1  0  0  0  0
 18 20  2  0  0  0  0
 18 40  1  0  0  0  0
 19 52  1  0  0  0  0
 20 41  1  0  0  0  0
 21 22  1  0  0  0  0
 21 23  2  0  0  0  0
 21 56  1  0  0  0  0
 22 24  2  0  0  0  0
 22 58  1  0  0  0  0
 23 25  1  0  0  0  0
 23 59  1  0  0  0  0
 24 26  1  0  0  0  0
 24 60  1  0  0  0  0
 25 26  2  0  0  0  0
 25 68  1  0  0  0  0
 26 69  1  0  0  0  0
 27 88  1  0  0  0  0
 28 89  1  0  0  0  0
 29 31  2  0  0  0  0
 29 88  1  0  0  0  0
 30 90  1  0  0  0  0
 31 91  1  0  0  0  0
 32 73  2  0  0  0  0
 33 74  1  0  0  0  0
 33 77  1  0  0  0  0
 34 78  1  0  0  0  0
 34 83  2  0  0  0  0
 35 53  1  0  0  0  0
 35 79  1  0  0  0  0
 35 84  2  0  0  0  0
 36 70  1  0  0  0  0
 36 75  1  0  0  0  0
 36 85  2  0  0  0  0
 37 71  1  0  0  0  0
 37 80  1  0  0  0  0
 37 86  2  0  0  0  0
 38 76  1  0  0  0  0
 38 81  1  0  0  0  0
 38 87  2  0  0  0  0
 39 42  1  0  0  0  0
 40 53  1  0  0  0  0
 41 75  1  0  0  0  0
 42 44  1  0  0  0  0
 43 45  1  0  0  0  0
 43 50  1  0  0  0  0
 44 52  1  0  0  0  0
 45 54  1  0  0  0  0
 46 47  1  0  0  0  0
 46 56  1  0  0  0  0
 47 57  1  0  0  0  0
 48 55  1  0  0  0  0
 48 56  1  0  0  0  0
 49 55  1  0  0  0  0
 49 57  1  0  0  0  0
 50 76  1  0  0  0  0
 51 54  1  0  0  0  0
 51 76  1  0  0  0  0
 52 79  1  0  0  0  0
 53 75  1  0  0  0  0
 54 74  1  0  0  0  0
 55 81  1  0  0  0  0
 56 57  1  0  0  0  0
 57 61  1  0  0  0  0
 62 68  1  0  0  0  0
 63 71  1  0  0  0  0
 64 72  1  0  0  0  0
 65 72  1  0  0  0  0
 66 72  1  0  0  0  0
 67 82  1  0  0  0  0
 69 89  1  0  0  0  0
 70 72  1  0  0  0  0
 70 80  1  0  0  0  0
 71 82  1  0  0  0  0
 73 74  1  0  0  0  0
M  CHG  1  82   1
M  ISO  4  38 100  69 101  81 100  89 101
M  END
> <Batch ID>
0164

> <Smiles>
CCc1c(C)c(C23CCC2(C)CC([100NH:0][100C:0](=O)N2CCCC(n4nc(-c5ccc(Oc6ccc(F)cc6F)cc5)c(C(N)=O)c4N)C2)C3)c(C)c(C)c1[101CH2:1][101O:1]c1ccc2c(c1)CN(C(=O)C(NC(=O)C(C)NC)C(C)(C)C)C(C(=O)NC1CCCc3ccccc31)C2

> <Shape>
0.294

> <Color>
0.192

> <Negative vol penalty>
0.000

$$$$

  -OEChem-04052322193D

 87 97  0     1  0  0  0  0  0999 V2000
  -29.4779  -31.7898   26.3131 C   0  0  0  0  0  0  0  0  0  0  0  0
  -29.1757  -30.6954   25.5091 C   0  0  0  0  0  0  0  0  0  0  0  0
  -23.1508  -10.3951   21.6594 C   0  0  0  0  0  0  0  0  0  0  0  0
  -24.7971   -8.6280   21.7254 C   0  0  0  0  0  0  0  0  0  0  0  0
  -28.4525  -32.5972   26.8036 C   0  0  0  0  0  0  0  0  0  0  0  0
  -27.8478  -30.4072   25.1959 C   0  0  0  0  0  0  0  0  0  0  0  0
  -27.2054  -29.2887   20.2988 C   0  0  0  0  0  0  0  0  0  0  0  0
  -22.1344   -9.4446   21.5647 C   0  0  0  0  0  0  0  0  0  0  0  0
  -23.7806   -7.6775   21.6308 C   0  0  0  0  0  0  0  0  0  0  0  0
  -27.5733  -28.0094   19.8843 C   0  0  0  0  0  0  0  0  0  0  0  0
  -21.5944   -4.7758   21.7698 C   0  0  0  0  0  0  0  0  0  0  0  0
  -21.6572   -3.6713   22.6194 C   0  0  0  0  0  0  0  0  0  0  0  0
  -25.2612  -27.3257   19.9628 C   0  0  0  0  0  0  0  0  0  0  0  0
  -21.5719   -5.1404   24.5356 C   0  0  0  0  0  0  0  0  0  0  0  0
  -24.4822   -9.9868   21.7397 C   0  0  0  0  0  0  0  0  0  0  0  0
  -26.0761  -11.5180   23.0134 C   0  0  0  0  0  0  0  0  0  0  0  0
  -27.1120  -32.3244   26.4883 C   0  0  0  0  0  0  0  0  0  0  0  0
  -25.8617  -29.5936   20.5594 C   0  0  0  0  0  0  0  0  0  0  0  0
  -26.8035  -31.2110   25.6837 C   0  0  0  0  0  0  0  0  0  0  0  0
  -24.8786  -28.6104   20.3780 C   0  0  0  0  0  0  0  0  0  0  0  0
  -27.3648  -21.7278   17.7365 C   0  0  0  0  0  0  0  0  0  0  0  0
  -26.9555  -23.0739   17.5700 C   0  0  0  0  0  0  0  0  0  0  0  0
  -22.4492   -8.0858   21.5504 C   0  0  0  0  0  0  0  0  0  0  0  0
  -26.6015  -27.0269   19.7190 C   0  0  0  0  0  0  0  0  0  0  0  0
  -21.5205   -6.0626   22.3031 C   0  0  0  0  0  0  0  0  0  0  0  0
  -21.6459   -3.8536   24.0022 C   0  0  0  0  0  0  0  0  0  0  0  0
  -21.5092   -6.2449   23.6860 C   0  0  0  0  0  0  0  0  0  0  0  0
  -25.5327  -10.9681   21.8369 C   0  0  0  0  0  0  0  0  0  0  0  0
  -27.1087  -21.3789   19.0442 C   0  0  0  0  0  0  0  0  0  0  0  0
  -26.4620  -23.5066   18.7810 C   0  0  0  0  0  0  0  0  0  0  0  0
  -27.0363  -12.3948   22.5709 C   0  0  0  0  0  0  0  0  0  0  0  0
  -25.7428  -11.2593   24.3837 C   0  0  0  0  0  0  0  0  0  0  0  0
  -24.2297  -30.5281   23.1220 C   0  0  0  0  0  0  0  0  0  0  0  0
  -21.7939  -30.7857   20.9953 C   0  0  0  0  0  0  0  0  0  0  0  0
  -20.4330  -29.8208   18.0181 C   0  0  0  0  0  0  0  0  0  0  0  0
  -28.8674  -16.3018   19.1943 C   0  0  0  0  0  0  0  0  0  0  0  0
  -26.0347  -33.1980   27.0807 C   0  0  0  0  0  0  0  0  0  0  0  0
  -25.4781  -30.9858   20.9801 C   0  0  0  0  0  0  0  0  0  0  0  0
  -23.4199  -28.8924   20.6250 C   0  0  0  0  0  0  0  0  0  0  0  0
  -24.6797  -33.0436   26.3948 C   0  0  0  0  0  0  0  0  0  0  0  0
  -29.0265  -13.0701   17.9780 C   0  0  0  0  0  0  0  0  0  0  0  0
  -24.3439  -31.5682   26.2022 C   0  0  0  0  0  0  0  0  0  0  0  0
  -28.1789  -12.2682   18.9653 C   0  0  0  0  0  0  0  0  0  0  0  0
  -26.6718  -23.5780   21.9952 C   0  0  0  0  0  0  0  0  0  0  0  0
  -27.1045  -22.1563   22.1728 C   0  0  0  0  0  0  0  0  0  0  0  0
  -26.5255  -18.9156   19.1618 C   0  0  0  0  0  0  0  0  0  0  0  0
  -28.8400  -19.6999   19.8232 C   0  0  0  0  0  0  0  0  0  0  0  0
  -28.3780  -14.4143   17.6683 C   0  0  0  0  0  0  0  0  0  0  0  0
  -26.7945  -17.5889   19.8777 C   0  0  0  0  0  0  0  0  0  0  0  0
  -29.0438  -18.3701   20.5432 C   0  0  0  0  0  0  0  0  0  0  0  0
  -27.2634  -14.4598   19.8759 C   0  0  0  0  0  0  0  0  0  0  0  0
  -25.3770  -30.8803   25.3016 C   0  0  1  0  0  0  0  0  0  0  0  0
  -27.3461  -20.0676   19.7693 C   0  0  0  0  0  0  0  0  0  0  0  0
  -24.1411  -31.0416   21.7127 C   0  0  1  0  0  0  0  0  0  0  0  0
  -26.1469  -22.5135   21.0603 C   0  0  0  0  0  0  0  0  0  0  0  0
  -27.8778  -13.0904   20.2308 C   0  0  1  0  0  0  0  0  0  0  0  0
  -27.9590  -20.8558   16.7021 C   0  0  0  0  0  0  0  0  0  0  0  0
  -27.0428  -23.8690   16.3279 C   0  0  0  0  0  0  0  0  0  0  0  0
  -18.4159  -30.1740   16.5676 C   0  0  0  0  0  0  0  0  0  0  0  0
  -20.1499  -29.0093   22.8531 C   0  0  0  0  0  0  0  0  0  0  0  0
  -18.5562  -28.6246   20.9610 C   0  0  0  0  0  0  0  0  0  0  0  0
  -18.8902  -30.9277   21.8594 C   0  0  0  0  0  0  0  0  0  0  0  0
  -22.0727  -30.8889   15.7979 C   0  0  0  0  0  0  0  0  0  0  0  0
  -25.9051  -24.8208   19.1673 C   0  0  0  0  0  0  0  0  0  1  0  0
  -20.7201  -29.8570   20.4820 C   0  0  1  0  0  0  0  0  0  0  0  0
  -19.8355  -30.6234   16.8764 C   0  0  2  0  0  0  0  0  0  0  0  0
  -19.6067  -29.5985   21.5360 C   0  0  0  0  0  0  0  0  0  0  0  0
  -26.1004  -11.4549   20.7302 N   0  0  0  0  0  0  0  0  0  0  0  0
  -26.5604  -22.4680   19.6697 N   0  0  0  0  0  0  0  0  0  0  0  0
  -27.0104  -12.3200   21.2094 N   0  0  0  0  0  0  0  0  0  0  0  0
  -23.0957  -30.2670   21.0409 N   0  0  0  0  0  0  0  0  0  0  0  0
  -28.1047  -15.1628   18.8950 N   0  0  0  0  0  0  0  0  0  0  0  0
  -28.2367  -17.3128   19.9348 N   0  0  0  0  0  0  0  0  0  0  0  0
  -27.8917  -13.2149   23.2176 N   0  0  0  0  0  0  0  0  0  0  0  0
  -24.7320  -10.3290   24.6612 N   0  0  0  0  0  0  0  0  0  0  0  0
  -25.1355  -31.2089   23.9130 N   0  0  0  0  0  0  0  0  0  0  0  0
  -20.2382  -30.4402   19.2345 N   0  0  0  0  0  0  0  0  0  0  0  0
  -20.6580  -30.4624   15.6441 N   0  3  0  0  0  0  0  0  0  0  0  0
  -26.3129  -11.8481   25.3333 O   0  0  0  0  0  0  0  0  0  0  0  0
  -23.5272  -29.5851   23.4667 O   0  0  0  0  0  0  0  0  0  0  0  0
  -21.4901  -31.9316   21.3363 O   0  0  0  0  0  0  0  0  0  0  0  0
  -21.0111  -28.7496   17.8483 O   0  0  0  0  0  0  0  0  0  0  0  0
  -30.0428  -16.4094   18.8228 O   0  0  0  0  0  0  0  0  0  0  0  0
  -21.4575   -7.1581   21.4583 O   0  0  0  0  0  0  0  0  0  0  0  0
  -26.9598  -25.7703   19.3130 O   0  0  0  0  0  0  0  0  0  1  0  0
  -21.7045   -2.7928   24.8180 F   0  0  0  0  0  0  0  0  0  0  0  0
  -21.4371   -7.4786   24.2041 F   0  0  0  0  0  0  0  0  0  0  0  0
  1  2  1  0  0  0  0
  1  5  2  0  0  0  0
  2  6  2  0  0  0  0
  3  8  2  0  0  0  0
  3 15  1  0  0  0  0
  4  9  1  0  0  0  0
  4 15  2  0  0  0  0
  5 17  1  0  0  0  0
  6 19  1  0  0  0  0
  7 10  2  0  0  0  0
  7 18  1  0  0  0  0
  8 23  1  0  0  0  0
  9 23  2  0  0  0  0
 10 24  1  0  0  0  0
 11 12  2  0  0  0  0
 11 25  1  0  0  0  0
 12 26  1  0  0  0  0
 13 20  1  0  0  0  0
 13 24  2  0  0  0  0
 14 26  2  0  0  0  0
 14 27  1  0  0  0  0
 15 28  1  0  0  0  0
 16 28  1  0  0  0  0
 16 31  2  0  0  0  0
 16 32  1  0  0  0  0
 17 19  2  0  0  0  0
 17 37  1  0  0  0  0
 18 20  2  0  0  0  0
 18 38  1  0  0  0  0
 19 52  1  0  0  0  0
 20 39  1  0  0  0  0
 21 22  1  0  0  0  0
 21 29  2  0  0  0  0
 21 57  1  0  0  0  0
 22 30  2  0  0  0  0
 22 58  1  0  0  0  0
 23 84  1  0  0  0  0
 24 85  1  0  0  0  0
 25 27  2  0  0  0  0
 25 84  1  0  0  0  0
 26 86  1  0  0  0  0
 27 87  1  0  0  0  0
 28 68  2  0  0  0  0
 29 53  1  0  0  0  0
 29 69  1  0  0  0  0
 30 64  1  0  0  0  0
 30 69  1  0  0  0  0
 31 70  1  0  0  0  0
 31 74  1  0  0  0  0
 32 75  1  0  0  0  0
 32 79  2  0  0  0  0
 33 54  1  0  0  0  0
 33 76  1  0  0  0  0
 33 80  2  0  0  0  0
 34 65  1  0  0  0  0
 34 71  1  0  0  0  0
 34 81  2  0  0  0  0
 35 66  1  0  0  0  0
 35 77  1  0  0  0  0
 35 82  2  0  0  0  0
 36 72  1  0  0  0  0
 36 73  1  0  0  0  0
 36 83  2  0  0  0  0
 37 40  1  0  0  0  0
 38 54  1  0  0  0  0
 39 71  1  0  0  0  0
 40 42  1  0  0  0  0
 41 43  1  0  0  0  0
 41 48  1  0  0  0  0
 42 52  1  0  0  0  0
 43 56  1  0  0  0  0
 44 45  1  0  0  0  0
 44 55  1  0  0  0  0
 45 55  1  0  0  0  0
 46 49  1  0  0  0  0
 46 53  1  0  0  0  0
 47 50  1  0  0  0  0
 47 53  1  0  0  0  0
 48 72  1  0  0  0  0
 49 73  1  0  0  0  0
 50 73  1  0  0  0  0
 51 56  1  0  0  0  0
 51 72  1  0  0  0  0
 52 76  1  0  0  0  0
 54 71  1  0  0  0  0
 55 69  1  0  0  0  0
 56 70  1  0  0  0  0
 59 66  1  0  0  0  0
 60 67  1  0  0  0  0
 61 67  1  0  0  0  0
 62 67  1  0  0  0  0
 63 78  1  0  0  0  0
 64 85  1  0  0  0  0
 65 67  1  0  0  0  0
 65 77  1  0  0  0  0
 66 78  1  0  0  0  0
 68 70  1  0  0  0  0
M  CHG  1  78   1
M  ISO  4  36 100  64 101  73 100  85 101
M  END
> <Batch ID>
0164

> <Smiles>
CNC(C)C(=O)NC(C(=O)N1Cc2cc([101O:1][101CH2:1]c3c(C)c(C)c(C4CC[100N:0]([100C:0](=O)N5CCCC(n6nc(-c7ccc(Oc8ccc(F)cc8F)cc7)c(C(N)=O)c6N)C5)CC4)n3C3CC3)ccc2CC1C(=O)NC1CCCc2ccccc21)C(C)(C)C

> <Shape>
0.309

> <Color>
0.122

> <Negative vol penalty>
0.000

$$$$

  -OEChem-04052322193D

 88 97  0     1  0  0  0  0  0999 V2000
  -30.1592  -25.4426   17.2671 C   0  0  0  0  0  0  0  0  0  0  0  0
  -28.7716  -25.4785   17.3614 C   0  0  0  0  0  0  0  0  0  0  0  0
  -20.9982  -12.3638   22.4374 C   0  0  0  0  0  0  0  0  0  0  0  0
  -22.5941  -11.4324   20.8808 C   0  0  0  0  0  0  0  0  0  0  0  0
  -30.9409  -25.8831   18.3342 C   0  0  0  0  0  0  0  0  0  0  0  0
  -28.1650  -25.9540   18.5235 C   0  0  0  0  0  0  0  0  0  0  0  0
  -22.9268  -29.1022   18.9183 C   0  0  0  0  0  0  0  0  0  0  0  0
  -20.3372  -11.1369   22.4938 C   0  0  0  0  0  0  0  0  0  0  0  0
  -21.9330  -10.2054   20.9373 C   0  0  0  0  0  0  0  0  0  0  0  0
  -21.6211  -28.7167   19.2189 C   0  0  0  0  0  0  0  0  0  0  0  0
  -20.8780   -6.7261   20.9496 C   0  0  0  0  0  0  0  0  0  0  0  0
  -21.6553   -5.5752   21.0790 C   0  0  0  0  0  0  0  0  0  0  0  0
  -21.9677  -29.3573   21.5186 C   0  0  0  0  0  0  0  0  0  0  0  0
  -22.5421   -6.4088   23.1661 C   0  0  0  0  0  0  0  0  0  0  0  0
  -22.1267  -12.5116   21.6308 C   0  0  0  0  0  0  0  0  0  0  0  0
  -23.8661  -14.2145   22.3938 C   0  0  0  0  0  0  0  0  0  0  0  0
  -30.3435  -26.3733   19.5062 C   0  0  0  0  0  0  0  0  0  0  0  0
  -23.7677  -29.6089   19.9196 C   0  0  0  0  0  0  0  0  0  0  0  0
  -28.9395  -26.4003   19.6078 C   0  0  0  0  0  0  0  0  0  0  0  0
  -23.2828  -29.7510   21.2276 C   0  0  0  0  0  0  0  0  0  0  0  0
  -20.4080  -24.2951   23.0890 C   0  0  0  0  0  0  0  0  0  0  0  0
  -20.2244  -24.8747   24.3444 C   0  0  0  0  0  0  0  0  0  0  0  0
  -19.4276  -26.0118   24.4778 C   0  0  0  0  0  0  0  0  0  0  0  0
  -18.8145  -26.5694   23.3557 C   0  0  0  0  0  0  0  0  0  0  0  0
  -18.9982  -25.9898   22.1003 C   0  0  0  0  0  0  0  0  0  0  0  0
  -19.7949  -24.8527   21.9670 C   0  0  0  0  0  0  0  0  0  0  0  0
  -20.8046  -10.0576   21.7439 C   0  0  0  0  0  0  0  0  0  0  0  0
  -21.1423  -28.8415   20.5197 C   0  0  0  0  0  0  0  0  0  0  0  0
  -20.9328   -7.7185   21.9284 C   0  0  0  0  0  0  0  0  0  0  0  0
  -22.4873   -5.4165   22.1873 C   0  0  0  0  0  0  0  0  0  0  0  0
  -21.7648   -7.5597   23.0367 C   0  0  0  0  0  0  0  0  0  0  0  0
  -22.8096  -13.7789   21.5716 C   0  0  0  0  0  0  0  0  0  0  0  0
  -24.1586  -15.4764   21.9372 C   0  0  0  0  0  0  0  0  0  0  0  0
  -24.5242  -13.5388   23.4735 C   0  0  0  0  0  0  0  0  0  0  0  0
  -26.5243  -28.6922   21.2099 C   0  0  0  0  0  0  0  0  0  0  0  0
  -26.3020  -31.5383   22.7502 C   0  0  0  0  0  0  0  0  0  0  0  0
  -24.3141  -34.0628   23.9002 C   0  0  0  0  0  0  0  0  0  0  0  0
  -22.7251  -20.4482   20.1352 C   0  0  0  0  0  0  0  0  0  0  0  0
  -31.2300  -26.7943   20.6514 C   0  0  0  0  0  0  0  0  0  0  0  0
  -25.1649  -30.0453   19.5736 C   0  0  0  0  0  0  0  0  0  0  0  0
  -24.1388  -30.3081   22.3345 C   0  0  0  0  0  0  0  0  0  0  0  0
  -30.5089  -27.6336   21.7031 C   0  0  0  0  0  0  0  0  0  0  0  0
  -22.6468  -17.9176   17.7819 C   0  0  0  0  0  0  0  0  0  0  0  0
  -29.1686  -27.0010   22.0639 C   0  0  0  0  0  0  0  0  0  0  0  0
  -22.7699  -16.6423   18.6155 C   0  0  0  0  0  0  0  0  0  0  0  0
  -20.4748  -21.8474   22.4365 C   0  0  0  0  0  0  0  0  0  0  0  0
  -22.5032  -23.3134   22.0549 C   0  0  0  0  0  0  0  0  0  0  0  0
  -21.7247  -18.9250   18.4589 C   0  0  0  0  0  0  0  0  0  0  0  0
  -21.3630  -20.6117   22.2657 C   0  0  0  0  0  0  0  0  0  0  0  0
  -23.3454  -22.0481   21.9197 C   0  0  0  0  0  0  0  0  0  0  0  0
  -22.2668  -18.0178   20.6953 C   0  0  0  0  0  0  0  0  0  0  0  0
  -21.2754  -23.0585   22.9480 C   0  0  0  0  0  0  0  0  0  0  0  0
  -28.2443  -26.9324   20.8422 C   0  0  1  0  0  0  0  0  0  0  0  0
  -26.0997  -30.0676   20.7790 C   0  0  1  0  0  0  0  0  0  0  0  0
  -23.1959  -16.9641   20.0589 C   0  0  1  0  0  0  0  0  0  0  0  0
  -20.8820  -24.2767   25.5483 C   0  0  0  0  0  0  0  0  0  0  0  0
  -19.2304  -26.6337   25.8244 C   0  0  0  0  0  0  0  0  0  0  0  0
  -17.9596  -27.7889   23.4994 C   0  0  0  0  0  0  0  0  0  0  0  0
  -24.4152  -36.2346   25.1534 C   0  0  0  0  0  0  0  0  0  0  0  0
  -26.6677  -30.0094   25.3654 C   0  0  0  0  0  0  0  0  0  0  0  0
  -25.8234  -32.0279   26.5825 C   0  0  0  0  0  0  0  0  0  0  0  0
  -27.9190  -32.1710   25.2369 C   0  0  0  0  0  0  0  0  0  0  0  0
  -23.2191  -35.5731   21.6026 C   0  0  0  0  0  0  0  0  0  0  0  0
  -18.3390  -26.5910   20.8985 C   0  0  0  0  0  0  0  0  0  0  0  0
  -19.3052  -27.4094   20.0402 C   0  0  0  0  0  0  0  0  0  1  0  0
  -25.6928  -32.0058   24.0500 C   0  0  1  0  0  0  0  0  0  0  0  0
  -24.4343  -35.5717   23.7848 C   0  0  2  0  0  0  0  0  0  0  0  0
  -26.5100  -31.5412   25.2884 C   0  0  0  0  0  0  0  0  0  0  0  0
  -22.4549  -14.6902   20.6618 N   0  0  0  0  0  0  0  0  0  0  0  0
  -23.2931  -15.7110   20.9096 N   0  0  0  0  0  0  0  0  0  0  0  0
  -25.4998  -30.7149   21.9475 N   0  0  0  0  0  0  0  0  0  0  0  0
  -22.1603  -19.2013   19.8278 N   0  0  0  0  0  0  0  0  0  0  0  0
  -22.5376  -20.9268   21.4407 N   0  0  0  0  0  0  0  0  0  0  0  0
  -19.9815  -24.2650   20.6938 N   0  0  0  0  0  0  0  0  0  0  0  0
  -25.0691  -16.3972   22.3186 N   0  0  0  0  0  0  0  0  0  0  0  0
  -24.0988  -12.2469   23.8116 N   0  0  0  0  0  0  0  0  0  0  0  0
  -27.6617  -28.2301   20.5757 N   0  0  0  0  0  0  0  0  0  0  0  0
  -25.5504  -33.4533   23.9368 N   0  0  0  0  0  0  0  0  0  0  0  0
  -23.3063  -36.1212   22.9807 N   0  3  0  0  0  0  0  0  0  0  0  0
  -25.4509  -14.0714   24.1302 O   0  0  0  0  0  0  0  0  0  0  0  0
  -25.8693  -28.0951   22.0561 O   0  0  0  0  0  0  0  0  0  0  0  0
  -27.4448  -31.8965   22.4547 O   0  0  0  0  0  0  0  0  0  0  0  0
  -23.2318  -33.4831   23.9562 O   0  0  0  0  0  0  0  0  0  0  0  0
  -23.3603  -21.0960   19.2938 O   0  0  0  0  0  0  0  0  0  0  0  0
  -20.1599   -8.8602   21.7989 O   0  0  0  0  0  0  0  0  0  0  0  0
  -19.8595  -28.4627   20.8180 O   0  0  0  0  0  0  0  0  0  1  0  0
  -23.2325   -4.3105   22.3122 F   0  0  0  0  0  0  0  0  0  0  0  0
  -21.8207   -8.5090   23.9809 F   0  0  0  0  0  0  0  0  0  0  0  0
  1  2  1  0  0  0  0
  1  5  2  0  0  0  0
  2  6  2  0  0  0  0
  3  8  2  0  0  0  0
  3 15  1  0  0  0  0
  4  9  1  0  0  0  0
  4 15  2  0  0  0  0
  5 17  1  0  0  0  0
  6 19  1  0  0  0  0
  7 10  2  0  0  0  0
  7 18  1  0  0  0  0
  8 27  1  0  0  0  0
  9 27  2  0  0  0  0
 10 28  1  0  0  0  0
 11 12  2  0  0  0  0
 11 29  1  0  0  0  0
 12 30  1  0  0  0  0
 13 20  1  0  0  0  0
 13 28  2  0  0  0  0
 14 30  2  0  0  0  0
 14 31  1  0  0  0  0
 15 32  1  0  0  0  0
 16 32  1  0  0  0  0
 16 33  2  0  0  0  0
 16 34  1  0  0  0  0
 17 19  2  0  0  0  0
 17 39  1  0  0  0  0
 18 20  2  0  0  0  0
 18 40  1  0  0  0  0
 19 53  1  0  0  0  0
 20 41  1  0  0  0  0
 21 22  2  0  0  0  0
 21 26  1  0  0  0  0
 21 52  1  0  0  0  0
 22 23  1  0  0  0  0
 22 56  1  0  0  0  0
 23 24  2  0  0  0  0
 23 57  1  0  0  0  0
 24 25  1  0  0  0  0
 24 58  1  0  0  0  0
 25 26  2  0  0  0  0
 25 64  1  0  0  0  0
 26 74  1  0  0  0  0
 27 85  1  0  0  0  0
 28 86  1  0  0  0  0
 29 31  2  0  0  0  0
 29 85  1  0  0  0  0
 30 87  1  0  0  0  0
 31 88  1  0  0  0  0
 32 69  2  0  0  0  0
 33 70  1  0  0  0  0
 33 75  1  0  0  0  0
 34 76  1  0  0  0  0
 34 80  2  0  0  0  0
 35 54  1  0  0  0  0
 35 77  1  0  0  0  0
 35 81  2  0  0  0  0
 36 66  1  0  0  0  0
 36 71  1  0  0  0  0
 36 82  2  0  0  0  0
 37 67  1  0  0  0  0
 37 78  1  0  0  0  0
 37 83  2  0  0  0  0
 38 72  1  0  0  0  0
 38 73  1  0  0  0  0
 38 84  2  0  0  0  0
 39 42  1  0  0  0  0
 40 54  1  0  0  0  0
 41 71  1  0  0  0  0
 42 44  1  0  0  0  0
 43 45  1  0  0  0  0
 43 48  1  0  0  0  0
 44 53  1  0  0  0  0
 45 55  1  0  0  0  0
 46 49  1  0  0  0  0
 46 52  1  0  0  0  0
 47 50  1  0  0  0  0
 47 52  1  0  0  0  0
 48 72  1  0  0  0  0
 49 73  1  0  0  0  0
 50 73  1  0  0  0  0
 51 55  1  0  0  0  0
 51 72  1  0  0  0  0
 53 77  1  0  0  0  0
 54 71  1  0  0  0  0
 55 70  1  0  0  0  0
 59 67  1  0  0  0  0
 60 68  1  0  0  0  0
 61 68  1  0  0  0  0
 62 68  1  0  0  0  0
 63 79  1  0  0  0  0
 64 65  1  0  0  0  0
 65 86  1  0  0  0  0
 66 68  1  0  0  0  0
 66 78  1  0  0  0  0
 67 79  1  0  0  0  0
 69 70  1  0  0  0  0
M  CHG  1  79   1
M  ISO  4  38 100  65 101  73 100  86 101
M  END
> <Batch ID>
0164

> <Smiles>
CNC(C)C(=O)NC(C(=O)N1Cc2cc([101O:1][101CH2:1]Cc3c(C)c(C)c(C)c(C4CC[100N:0]([100C:0](=O)N5CCCC(n6nc(-c7ccc(Oc8ccc(F)cc8F)cc7)c(C(N)=O)c6N)C5)CC4)c3N)ccc2CC1C(=O)NC1CCCc2ccccc21)C(C)(C)C

> <Shape>
0.283

> <Color>
0.074

> <Negative vol penalty>
0.000

$$$$

  -OEChem-04052322193D

 89 98  0     1  0  0  0  0  0999 V2000
  -29.1812  -30.6270   26.8090 C   0  0  0  0  0  0  0  0  0  0  0  0
  -29.0597  -29.4926   26.0129 C   0  0  0  0  0  0  0  0  0  0  0  0
  -23.0799  -10.7297   21.1912 C   0  0  0  0  0  0  0  0  0  0  0  0
  -24.1881   -8.6037   21.4895 C   0  0  0  0  0  0  0  0  0  0  0  0
  -28.0978  -31.4919   26.9581 C   0  0  0  0  0  0  0  0  0  0  0  0
  -27.8543  -29.2218   25.3663 C   0  0  0  0  0  0  0  0  0  0  0  0
  -28.5091  -27.8132   20.5463 C   0  0  0  0  0  0  0  0  0  0  0  0
  -21.8961  -10.0672   20.8666 C   0  0  0  0  0  0  0  0  0  0  0  0
  -23.0043   -7.9411   21.1649 C   0  0  0  0  0  0  0  0  0  0  0  0
  -28.9188  -26.5005   20.3166 C   0  0  0  0  0  0  0  0  0  0  0  0
  -20.1783   -5.6887   20.7664 C   0  0  0  0  0  0  0  0  0  0  0  0
  -19.7984   -4.6097   21.5645 C   0  0  0  0  0  0  0  0  0  0  0  0
  -26.6438  -25.8872   19.7997 C   0  0  0  0  0  0  0  0  0  0  0  0
  -19.7153   -6.0645   23.4916 C   0  0  0  0  0  0  0  0  0  0  0  0
  -24.2259   -9.9980   21.5026 C   0  0  0  0  0  0  0  0  0  0  0  0
  -25.8756  -11.0835   23.1175 C   0  0  0  0  0  0  0  0  0  0  0  0
  -26.8816  -31.2367   26.3052 C   0  0  0  0  0  0  0  0  0  0  0  0
  -27.1596  -28.1709   20.4148 C   0  0  0  0  0  0  0  0  0  0  0  0
  -26.7532  -30.0834   25.5078 C   0  0  0  0  0  0  0  0  0  0  0  0
  -26.2199  -27.2057   20.0258 C   0  0  0  0  0  0  0  0  0  0  0  0
  -30.6642  -20.6020   18.6193 C   0  0  0  0  0  0  0  0  0  0  0  0
  -30.6428  -22.0068   18.4375 C   0  0  0  0  0  0  0  0  0  0  0  0
  -21.8583   -8.6729   20.8535 C   0  0  0  0  0  0  0  0  0  0  0  0
  -27.9857  -25.5367   19.9461 C   0  0  0  0  0  0  0  0  0  0  0  0
  -20.3268   -6.9556   21.3309 C   0  0  0  0  0  0  0  0  0  0  0  0
  -19.5669   -4.7976   22.9271 C   0  0  0  0  0  0  0  0  0  0  0  0
  -20.0953   -7.1435   22.6935 C   0  0  0  0  0  0  0  0  0  0  0  0
  -25.4491  -10.6818   21.8374 C   0  0  0  0  0  0  0  0  0  0  0  0
  -30.0824  -20.3362   19.8392 C   0  0  0  0  0  0  0  0  0  0  0  0
  -30.0488  -22.5568   19.5520 C   0  0  0  0  0  0  0  0  0  0  0  0
  -27.0909  -11.6857   22.9013 C   0  0  0  0  0  0  0  0  0  0  0  0
  -25.2308  -10.9262   24.3884 C   0  0  0  0  0  0  0  0  0  0  0  0
  -24.9390  -29.3107   22.3830 C   0  0  0  0  0  0  0  0  0  0  0  0
  -23.1813  -29.5000   19.6633 C   0  0  0  0  0  0  0  0  0  0  0  0
  -22.6335  -28.3861   16.4843 C   0  0  0  0  0  0  0  0  0  0  0  0
  -30.4546  -14.9802   20.0993 C   0  0  0  0  0  0  0  0  0  0  0  0
  -25.7236  -32.1755   26.5345 C   0  0  0  0  0  0  0  0  0  0  0  0
  -26.7380  -29.5971   20.6401 C   0  0  0  0  0  0  0  0  0  0  0  0
  -24.7624  -27.5429   19.8512 C   0  0  0  0  0  0  0  0  0  0  0  0
  -24.5986  -32.0153   25.5152 C   0  0  0  0  0  0  0  0  0  0  0  0
  -30.0328  -11.8061   18.7972 C   0  0  0  0  0  0  0  0  0  0  0  0
  -24.2631  -30.5405   25.3178 C   0  0  0  0  0  0  0  0  0  0  0  0
  -28.8380  -11.2512   19.5724 C   0  0  0  0  0  0  0  0  0  0  0  0
  -28.8912  -18.1017   19.7395 C   0  0  0  0  0  0  0  0  0  0  0  0
  -31.1561  -18.2783   20.8569 C   0  0  0  0  0  0  0  0  0  0  0  0
  -29.8126  -13.2688   18.4291 C   0  0  0  0  0  0  0  0  0  0  0  0
  -28.6772  -16.7546   20.4357 C   0  0  0  0  0  0  0  0  0  0  0  0
  -30.8787  -16.9448   21.5448 C   0  0  0  0  0  0  0  0  0  0  0  0
  -28.3411  -13.6089   20.3879 C   0  0  0  0  0  0  0  0  0  0  0  0
  -25.4698  -29.7687   24.7703 C   0  0  1  0  0  0  0  0  0  0  0  0
  -29.8406  -19.0121   20.5391 C   0  0  0  0  0  0  0  0  0  0  0  0
  -25.2566  -29.7361   20.9774 C   0  0  1  0  0  0  0  0  0  0  0  0
  -28.5138  -12.1308   20.7929 C   0  0  1  0  0  0  0  0  0  0  0  0
  -31.1639  -22.7482   17.2706 C   0  0  0  0  0  0  0  0  0  0  0  0
  -32.7250  -19.7709   17.4293 C   0  0  0  0  0  0  0  0  0  0  0  0
  -30.4694  -19.5924   16.3178 C   0  0  0  0  0  0  0  0  0  0  0  0
  -21.1002  -28.7021   14.5231 C   0  0  0  0  0  0  0  0  0  0  0  0
  -29.9549  -21.2055   22.8324 C   0  0  0  0  0  0  0  0  0  0  0  0
  -27.6895  -21.0247   21.7183 C   0  0  0  0  0  0  0  0  0  0  0  0
  -21.0209  -27.8909   21.0962 C   0  0  0  0  0  0  0  0  0  0  0  0
  -19.9816  -27.4312   18.8653 C   0  0  0  0  0  0  0  0  0  0  0  0
  -20.1612  -29.7764   19.6961 C   0  0  0  0  0  0  0  0  0  0  0  0
  -24.8567  -29.2657   14.7399 C   0  0  0  0  0  0  0  0  0  0  0  0
  -29.7747  -23.9709   19.8862 C   0  0  0  0  0  0  0  0  0  1  0  0
  -31.2081  -19.6037   17.6757 C   0  0  0  0  0  0  0  0  0  0  0  0
  -22.2463  -28.5706   18.9277 C   0  0  1  0  0  0  0  0  0  0  0  0
  -22.4020  -29.1309   15.1819 C   0  0  2  0  0  0  0  0  0  0  0  0
  -29.0672  -21.6890   21.6840 C   0  0  0  0  0  0  0  0  0  0  0  0
  -20.8796  -28.4102   19.6514 C   0  0  0  0  0  0  0  0  0  0  0  0
  -26.3225  -11.0020   20.8789 N   0  0  0  0  0  0  0  0  0  0  0  0
  -29.7125  -21.5319   20.3974 N   0  0  0  0  0  0  0  0  0  0  0  0
  -27.3099  -11.6113   21.5571 N   0  0  0  0  0  0  0  0  0  0  0  0
  -24.3985  -28.9495   20.0890 N   0  0  0  0  0  0  0  0  0  0  0  0
  -29.5040  -14.0698   19.6135 N   0  0  0  0  0  0  0  0  0  0  0  0
  -29.9659  -16.1227   20.7508 N   0  0  0  0  0  0  0  0  0  0  0  0
  -27.9829  -12.2663   23.7317 N   0  0  0  0  0  0  0  0  0  0  0  0
  -23.9857  -10.2840   24.4310 N   0  0  0  0  0  0  0  0  0  0  0  0
  -25.6266  -30.0150   23.3529 N   0  0  0  0  0  0  0  0  0  0  0  0
  -22.1450  -29.0865   17.5669 N   0  0  0  0  0  0  0  0  0  0  0  0
  -23.5187  -28.8695   14.2302 N   0  3  0  0  0  0  0  0  0  0  0  0
  -25.7359  -11.3573   25.4526 O   0  0  0  0  0  0  0  0  0  0  0  0
  -24.1290  -28.4111   22.5736 O   0  0  0  0  0  0  0  0  0  0  0  0
  -22.8471  -30.6731   19.8469 O   0  0  0  0  0  0  0  0  0  0  0  0
  -23.1886  -27.2908   16.5357 O   0  0  0  0  0  0  0  0  0  0  0  0
  -31.6684  -14.7842   19.9603 O   0  0  0  0  0  0  0  0  0  0  0  0
  -20.7033   -8.0260   20.5371 O   0  0  0  0  0  0  0  0  0  0  0  0
  -28.3850  -24.2475   19.7207 O   0  0  0  0  0  0  0  0  0  1  0  0
  -19.2005   -3.7616   23.6931 F   0  0  0  0  0  0  0  0  0  0  0  0
  -20.2352   -8.3584   23.2413 F   0  0  0  0  0  0  0  0  0  0  0  0
  1  2  1  0  0  0  0
  1  5  2  0  0  0  0
  2  6  2  0  0  0  0
  3  8  2  0  0  0  0
  3 15  1  0  0  0  0
  4  9  1  0  0  0  0
  4 15  2  0  0  0  0
  5 17  1  0  0  0  0
  6 19  1  0  0  0  0
  7 10  2  0  0  0  0
  7 18  1  0  0  0  0
  8 23  1  0  0  0  0
  9 23  2  0  0  0  0
 10 24  1  0  0  0  0
 11 12  2  0  0  0  0
 11 25  1  0  0  0  0
 12 26  1  0  0  0  0
 13 20  1  0  0  0  0
 13 24  2  0  0  0  0
 14 26  2  0  0  0  0
 14 27  1  0  0  0  0
 15 28  1  0  0  0  0
 16 28  1  0  0  0  0
 16 31  2  0  0  0  0
 16 32  1  0  0  0  0
 17 19  2  0  0  0  0
 17 37  1  0  0  0  0
 18 20  2  0  0  0  0
 18 38  1  0  0  0  0
 19 50  1  0  0  0  0
 20 39  1  0  0  0  0
 21 22  1  0  0  0  0
 21 29  2  0  0  0  0
 21 65  1  0  0  0  0
 22 30  2  0  0  0  0
 22 54  1  0  0  0  0
 23 86  1  0  0  0  0
 24 87  1  0  0  0  0
 25 27  2  0  0  0  0
 25 86  1  0  0  0  0
 26 88  1  0  0  0  0
 27 89  1  0  0  0  0
 28 70  2  0  0  0  0
 29 51  1  0  0  0  0
 29 71  1  0  0  0  0
 30 64  1  0  0  0  0
 30 71  1  0  0  0  0
 31 72  1  0  0  0  0
 31 76  1  0  0  0  0
 32 77  1  0  0  0  0
 32 81  2  0  0  0  0
 33 52  1  0  0  0  0
 33 78  1  0  0  0  0
 33 82  2  0  0  0  0
 34 66  1  0  0  0  0
 34 73  1  0  0  0  0
 34 83  2  0  0  0  0
 35 67  1  0  0  0  0
 35 79  1  0  0  0  0
 35 84  2  0  0  0  0
 36 74  1  0  0  0  0
 36 75  1  0  0  0  0
 36 85  2  0  0  0  0
 37 40  1  0  0  0  0
 38 52  1  0  0  0  0
 39 73  1  0  0  0  0
 40 42  1  0  0  0  0
 41 43  1  0  0  0  0
 41 46  1  0  0  0  0
 42 50  1  0  0  0  0
 43 53  1  0  0  0  0
 44 47  1  0  0  0  0
 44 51  1  0  0  0  0
 45 48  1  0  0  0  0
 45 51  1  0  0  0  0
 46 74  1  0  0  0  0
 47 75  1  0  0  0  0
 48 75  1  0  0  0  0
 49 53  1  0  0  0  0
 49 74  1  0  0  0  0
 50 78  1  0  0  0  0
 52 73  1  0  0  0  0
 53 72  1  0  0  0  0
 55 65  1  0  0  0  0
 56 65  1  0  0  0  0
 57 67  1  0  0  0  0
 58 68  1  0  0  0  0
 59 68  1  0  0  0  0
 60 69  1  0  0  0  0
 61 69  1  0  0  0  0
 62 69  1  0  0  0  0
 63 80  1  0  0  0  0
 64 87  1  0  0  0  0
 66 69  1  0  0  0  0
 66 79  1  0  0  0  0
 67 80  1  0  0  0  0
 68 71  1  0  0  0  0
 70 72  1  0  0  0  0
M  CHG  1  80   1
M  ISO  4  36 100  64 101  75 100  87 101
M  END
> <Batch ID>
0164

> <Smiles>
CNC(C)C(=O)NC(C(=O)N1Cc2cc([101O:1][101CH2:1]c3c(C)c(C(C)C)c(C4CC[100N:0]([100C:0](=O)N5CCCC(n6nc(-c7ccc(Oc8ccc(F)cc8F)cc7)c(C(N)=O)c6N)C5)CC4)n3C(C)C)ccc2CC1C(=O)NC1CCCc2ccccc21)C(C)(C)C

> <Shape>
0.302

> <Color>
0.091

> <Negative vol penalty>
0.000

$$$$

  -OEChem-04052322193D

 85 94  0     1  0  0  0  0  0999 V2000
  -13.9461  -27.6599   13.0430 C   0  0  0  0  0  0  0  0  0  0  0  0
  -14.8613  -26.6254   13.2088 C   0  0  0  0  0  0  0  0  0  0  0  0
  -23.1877   -9.8216   19.9301 C   0  0  0  0  0  0  0  0  0  0  0  0
  -23.5414  -10.0048   22.3130 C   0  0  0  0  0  0  0  0  0  0  0  0
  -14.1800  -28.8983   13.6393 C   0  0  0  0  0  0  0  0  0  0  0  0
  -16.0116  -26.8290   13.9702 C   0  0  0  0  0  0  0  0  0  0  0  0
  -18.8391  -22.7310   17.5364 C   0  0  0  0  0  0  0  0  0  0  0  0
  -22.4136   -8.6791   20.1328 C   0  0  0  0  0  0  0  0  0  0  0  0
  -22.7672   -8.8624   22.5158 C   0  0  0  0  0  0  0  0  0  0  0  0
  -19.9525  -21.9177   17.3299 C   0  0  0  0  0  0  0  0  0  0  0  0
  -21.1825   -5.7885   23.6338 C   0  0  0  0  0  0  0  0  0  0  0  0
  -21.6647   -4.8280   24.5229 C   0  0  0  0  0  0  0  0  0  0  0  0
  -25.2797  -18.4898   17.8376 C   0  0  0  0  0  0  0  0  0  0  0  0
  -21.3451  -23.5576   18.4211 C   0  0  0  0  0  0  0  0  0  0  0  0
  -23.8696  -19.2212   15.5443 C   0  0  0  0  0  0  0  0  0  0  0  0
  -23.6368   -4.5516   23.1548 C   0  0  0  0  0  0  0  0  0  0  0  0
  -23.7517  -10.4844   21.0202 C   0  0  0  0  0  0  0  0  0  0  0  0
  -24.1054  -12.9989   20.7752 C   0  0  0  0  0  0  0  0  0  0  0  0
  -15.3290  -29.1142   14.4164 C   0  0  0  0  0  0  0  0  0  0  0  0
  -18.9723  -23.9707   18.1782 C   0  0  0  0  0  0  0  0  0  0  0  0
  -16.2618  -28.0718   14.5764 C   0  0  0  0  0  0  0  0  0  0  0  0
  -25.7774  -18.1582   16.5775 C   0  0  0  0  0  0  0  0  0  0  0  0
  -20.2314  -24.3835   18.6369 C   0  0  0  0  0  0  0  0  0  0  0  0
  -24.0769  -19.1870   17.9511 C   0  0  0  0  0  0  0  0  0  0  0  0
  -25.0724  -18.5240   15.4308 C   0  0  0  0  0  0  0  0  0  0  0  0
  -23.3719  -19.5527   16.8044 C   0  0  0  0  0  0  0  0  0  0  0  0
  -22.2033   -8.1995   21.4256 C   0  0  0  0  0  0  0  0  0  0  0  0
  -21.2062  -22.3323   17.7697 C   0  0  0  0  0  0  0  0  0  0  0  0
  -21.9275   -6.1305   22.5051 C   0  0  0  0  0  0  0  0  0  0  0  0
  -22.8918   -4.2096   24.2835 C   0  0  0  0  0  0  0  0  0  0  0  0
  -23.1546   -5.5121   22.2657 C   0  0  0  0  0  0  0  0  0  0  0  0
  -24.5520  -11.6643   20.8114 C   0  0  0  0  0  0  0  0  0  0  0  0
  -25.2427  -13.7355   20.5507 C   0  0  0  0  0  0  0  0  0  0  0  0
  -22.7811  -13.5256   20.9308 C   0  0  0  0  0  0  0  0  0  0  0  0
  -18.4597  -26.9949   17.3445 C   0  0  0  0  0  0  0  0  0  0  0  0
  -19.1441  -27.5628   20.4640 C   0  0  0  0  0  0  0  0  0  0  0  0
  -20.6859  -26.5270   23.3269 C   0  0  0  0  0  0  0  0  0  0  0  0
  -30.0153  -14.6591   18.0439 C   0  0  0  0  0  0  0  0  0  0  0  0
  -15.5622  -30.4843   15.0023 C   0  0  0  0  0  0  0  0  0  0  0  0
  -17.7571  -24.8242   18.4171 C   0  0  0  0  0  0  0  0  0  0  0  0
  -20.4245  -25.6964   19.3494 C   0  0  0  0  0  0  0  0  0  0  0  0
  -16.6196  -30.5041   16.1030 C   0  0  0  0  0  0  0  0  0  0  0  0
  -30.1168  -12.4141   20.6709 C   0  0  0  0  0  0  0  0  0  0  0  0
  -17.8539  -29.7183   15.6718 C   0  0  0  0  0  0  0  0  0  0  0  0
  -28.6433  -12.1182   20.9509 C   0  0  0  0  0  0  0  0  0  0  0  0
  -28.0541  -17.7685   17.6185 C   0  0  0  0  0  0  0  0  0  0  0  0
  -26.8701  -15.8778   16.4250 C   0  0  0  0  0  0  0  0  0  0  0  0
  -30.3847  -12.4850   19.1717 C   0  0  0  0  0  0  0  0  0  0  0  0
  -29.3586  -16.9808   17.5234 C   0  0  0  0  0  0  0  0  0  0  0  0
  -28.2006  -15.1341   16.3553 C   0  0  0  0  0  0  0  0  0  0  0  0
  -28.0597  -13.1979   18.7242 C   0  0  0  0  0  0  0  0  0  0  0  0
  -27.0881  -17.4003   16.4792 C   0  0  0  0  0  0  0  0  0  0  0  0
  -17.5090  -28.2463   15.4155 C   0  0  1  0  0  0  0  0  0  0  0  0
  -18.0933  -26.2978   18.6241 C   0  0  1  0  0  0  0  0  0  0  0  0
  -27.7312  -13.1256   20.2289 C   0  0  1  0  0  0  0  0  0  0  0  0
  -23.5632  -19.5302   19.3108 C   0  0  0  0  0  0  0  0  0  0  0  0
  -25.5861  -18.1805   14.0712 C   0  0  0  0  0  0  0  0  0  0  0  0
  -21.1011  -27.2209   25.7025 C   0  0  0  0  0  0  0  0  0  0  0  0
  -21.2376  -29.5672   19.5101 C   0  0  0  0  0  0  0  0  0  0  0  0
  -22.2390  -29.5072   21.8039 C   0  0  0  0  0  0  0  0  0  0  0  0
  -19.9007  -30.3161   21.4865 C   0  0  0  0  0  0  0  0  0  0  0  0
  -19.2850  -24.1462   24.3893 C   0  0  0  0  0  0  0  0  0  0  0  0
  -22.0817  -20.2987   16.9012 C   0  0  0  0  0  0  0  0  0  1  0  0
  -20.4023  -27.8496   21.2474 C   0  0  1  0  0  0  0  0  0  0  0  0
  -20.1955  -26.4422   24.7611 C   0  0  2  0  0  0  0  0  0  0  0  0
  -20.9419  -29.2861   20.9969 C   0  0  0  0  0  0  0  0  0  0  0  0
  -25.8701  -11.5563   20.6246 N   0  0  0  0  0  0  0  0  0  0  0  0
  -26.2616  -12.8325   20.4688 N   0  0  0  0  0  0  0  0  0  0  0  0
  -19.2069  -26.4984   19.5536 N   0  0  0  0  0  0  0  0  0  0  0  0
  -29.4947  -13.4471   18.5222 N   0  0  0  0  0  0  0  0  0  0  0  0
  -29.1082  -15.5427   17.4361 N   0  0  0  0  0  0  0  0  0  0  0  0
  -25.4607  -15.0610   20.4171 N   0  0  0  0  0  0  0  0  0  0  0  0
  -21.7275  -12.6290   21.1554 N   0  0  0  0  0  0  0  0  0  0  0  0
  -17.3813  -27.5317   16.6675 N   0  0  0  0  0  0  0  0  0  0  0  0
  -20.0880  -27.5644   22.6432 N   0  0  0  0  0  0  0  0  0  0  0  0
  -20.1577  -25.0225   25.2125 N   0  3  0  0  0  0  0  0  0  0  0  0
  -22.5367  -14.7537   20.8561 O   0  0  0  0  0  0  0  0  0  0  0  0
  -19.6341  -27.0434   16.9977 O   0  0  0  0  0  0  0  0  0  0  0  0
  -18.1404  -28.2531   20.6579 O   0  0  0  0  0  0  0  0  0  0  0  0
  -21.5191  -25.7528   22.8610 O   0  0  0  0  0  0  0  0  0  0  0  0
  -31.2151  -14.9397   18.1566 O   0  0  0  0  0  0  0  0  0  0  0  0
  -21.4478   -7.0849   21.6238 O   0  0  0  0  0  0  0  0  0  0  0  0
  -22.3025  -21.5351   17.5674 O   0  0  0  0  0  0  0  0  0  1  0  0
  -23.3554   -3.2883   25.1382 F   0  0  0  0  0  0  0  0  0  0  0  0
  -23.8753   -5.8374   21.1838 F   0  0  0  0  0  0  0  0  0  0  0  0
  1  2  1  0  0  0  0
  1  5  2  0  0  0  0
  2  6  2  0  0  0  0
  3  8  2  0  0  0  0
  3 17  1  0  0  0  0
  4  9  1  0  0  0  0
  4 17  2  0  0  0  0
  5 19  1  0  0  0  0
  6 21  1  0  0  0  0
  7 10  2  0  0  0  0
  7 20  1  0  0  0  0
  8 27  1  0  0  0  0
  9 27  2  0  0  0  0
 10 28  1  0  0  0  0
 11 12  2  0  0  0  0
 11 29  1  0  0  0  0
 12 30  1  0  0  0  0
 13 22  2  0  0  0  0
 13 24  1  0  0  0  0
 14 23  1  0  0  0  0
 14 28  2  0  0  0  0
 15 25  2  0  0  0  0
 15 26  1  0  0  0  0
 16 30  2  0  0  0  0
 16 31  1  0  0  0  0
 17 32  1  0  0  0  0
 18 32  1  0  0  0  0
 18 33  2  0  0  0  0
 18 34  1  0  0  0  0
 19 21  2  0  0  0  0
 19 39  1  0  0  0  0
 20 23  2  0  0  0  0
 20 40  1  0  0  0  0
 21 53  1  0  0  0  0
 22 25  1  0  0  0  0
 22 52  1  0  0  0  0
 23 41  1  0  0  0  0
 24 26  2  0  0  0  0
 24 56  1  0  0  0  0
 25 57  1  0  0  0  0
 26 63  1  0  0  0  0
 27 82  1  0  0  0  0
 28 83  1  0  0  0  0
 29 31  2  0  0  0  0
 29 82  1  0  0  0  0
 30 84  1  0  0  0  0
 31 85  1  0  0  0  0
 32 67  2  0  0  0  0
 33 68  1  0  0  0  0
 33 72  1  0  0  0  0
 34 73  1  0  0  0  0
 34 77  2  0  0  0  0
 35 54  1  0  0  0  0
 35 74  1  0  0  0  0
 35 78  2  0  0  0  0
 36 64  1  0  0  0  0
 36 69  1  0  0  0  0
 36 79  2  0  0  0  0
 37 65  1  0  0  0  0
 37 75  1  0  0  0  0
 37 80  2  0  0  0  0
 38 70  1  0  0  0  0
 38 71  1  0  0  0  0
 38 81  2  0  0  0  0
 39 42  1  0  0  0  0
 40 54  1  0  0  0  0
 41 69  1  0  0  0  0
 42 44  1  0  0  0  0
 43 45  1  0  0  0  0
 43 48  1  0  0  0  0
 44 53  1  0  0  0  0
 45 55  1  0  0  0  0
 46 49  1  0  0  0  0
 46 52  1  0  0  0  0
 47 50  1  0  0  0  0
 47 52  1  0  0  0  0
 48 70  1  0  0  0  0
 49 71  1  0  0  0  0
 50 71  1  0  0  0  0
 51 55  1  0  0  0  0
 51 70  1  0  0  0  0
 53 74  1  0  0  0  0
 54 69  1  0  0  0  0
 55 68  1  0  0  0  0
 58 65  1  0  0  0  0
 59 66  1  0  0  0  0
 60 66  1  0  0  0  0
 61 66  1  0  0  0  0
 62 76  1  0  0  0  0
 63 83  1  0  0  0  0
 64 66  1  0  0  0  0
 64 75  1  0  0  0  0
 65 76  1  0  0  0  0
 67 68  1  0  0  0  0
M  CHG  1  76   1
M  ISO  4  38 100  63 101  71 100  83 101
M  END
> <Batch ID>
0164

> <Smiles>
CNC(C)C(=O)NC(C(=O)N1Cc2cc([101O:1][101CH2:1]c3cc(C)c(C4CC[100N:0]([100C:0](=O)N5CCCC(n6nc(-c7ccc(Oc8ccc(F)cc8F)cc7)c(C(N)=O)c6N)C5)CC4)cc3C)ccc2CC1C(=O)NC1CCCc2ccccc21)C(C)(C)C

> <Shape>
0.192

> <Color>
0.190

> <Negative vol penalty>
0.000

$$$$

  -OEChem-04052322193D

 84 93  0     1  0  0  0  0  0999 V2000
  -25.6821  -38.0007   23.5257 C   0  0  0  0  0  0  0  0  0  0  0  0
  -26.4219  -37.2094   22.6528 C   0  0  0  0  0  0  0  0  0  0  0  0
  -28.4450  -10.7863   21.7345 C   0  0  0  0  0  0  0  0  0  0  0  0
  -27.4247  -11.3398   23.8534 C   0  0  0  0  0  0  0  0  0  0  0  0
  -24.9946  -37.4118   24.5861 C   0  0  0  0  0  0  0  0  0  0  0  0
  -26.4754  -35.8287   22.8404 C   0  0  0  0  0  0  0  0  0  0  0  0
  -26.9499  -29.7072   19.1501 C   0  0  0  0  0  0  0  0  0  0  0  0
  -28.8369   -9.5493   22.2463 C   0  0  0  0  0  0  0  0  0  0  0  0
  -27.8165  -10.1028   24.3652 C   0  0  0  0  0  0  0  0  0  0  0  0
  -27.7081  -28.5385   19.0955 C   0  0  0  0  0  0  0  0  0  0  0  0
  -28.2339   -6.9445   26.1171 C   0  0  0  0  0  0  0  0  0  0  0  0
  -27.2957   -6.2189   26.8511 C   0  0  0  0  0  0  0  0  0  0  0  0
  -26.4160  -27.6225   20.9151 C   0  0  0  0  0  0  0  0  0  0  0  0
  -25.8330   -6.1657   24.9289 C   0  0  0  0  0  0  0  0  0  0  0  0
  -27.7390  -11.6816   22.5381 C   0  0  0  0  0  0  0  0  0  0  0  0
  -26.1287  -13.2639   21.3503 C   0  0  0  0  0  0  0  0  0  0  0  0
  -25.0320  -36.0221   24.7812 C   0  0  0  0  0  0  0  0  0  0  0  0
  -25.9245  -29.8469   20.0963 C   0  0  0  0  0  0  0  0  0  0  0  0
  -25.7889  -35.2208   23.9052 C   0  0  0  0  0  0  0  0  0  0  0  0
  -25.6446  -28.7930   20.9779 C   0  0  0  0  0  0  0  0  0  0  0  0
  -31.1589  -22.4621   19.1355 C   0  0  0  0  0  0  0  0  0  0  0  0
  -29.7774  -22.5343   18.8832 C   0  0  0  0  0  0  0  0  0  0  0  0
  -31.8856  -23.6420   19.3492 C   0  0  0  0  0  0  0  0  0  0  0  0
  -29.1546  -23.7890   18.8162 C   0  0  0  0  0  0  0  0  0  0  0  0
  -31.2533  -24.8833   19.2883 C   0  0  0  0  0  0  0  0  0  0  0  0
  -29.8892  -24.9569   19.0194 C   0  0  0  0  0  0  0  0  0  0  0  0
  -28.5226   -9.2075   23.5616 C   0  0  0  0  0  0  0  0  0  0  0  0
  -27.4431  -27.4970   19.9800 C   0  0  0  0  0  0  0  0  0  0  0  0
  -27.9717   -7.2807   24.7890 C   0  0  0  0  0  0  0  0  0  0  0  0
  -26.0953   -5.8295   26.2570 C   0  0  0  0  0  0  0  0  0  0  0  0
  -26.7713   -6.8913   24.1949 C   0  0  0  0  0  0  0  0  0  0  0  0
  -27.3345  -12.9598   22.0102 C   0  0  0  0  0  0  0  0  0  0  0  0
  -26.2291  -14.6005   21.0504 C   0  0  0  0  0  0  0  0  0  0  0  0
  -25.0173  -12.4142   21.0365 C   0  0  0  0  0  0  0  0  0  0  0  0
  -25.3687  -31.8183   22.5271 C   0  0  0  0  0  0  0  0  0  0  0  0
  -22.5242  -30.2626   22.6306 C   0  0  0  0  0  0  0  0  0  0  0  0
  -20.7320  -27.4501   21.9058 C   0  0  0  0  0  0  0  0  0  0  0  0
  -28.8833  -18.8992   19.2154 C   0  0  0  0  0  0  0  0  0  0  0  0
  -24.3111  -35.4362   25.9694 C   0  0  0  0  0  0  0  0  0  0  0  0
  -25.0983  -31.1035   20.1246 C   0  0  0  0  0  0  0  0  0  0  0  0
  -31.8589  -21.1310   19.2336 C   0  0  0  0  0  0  0  0  0  0  0  0
  -24.5414  -28.8851   21.9991 C   0  0  0  0  0  0  0  0  0  0  0  0
  -28.9571  -21.2936   18.6422 C   0  0  0  0  0  0  0  0  0  0  0  0
  -24.1143  -33.9252   25.8780 C   0  0  0  0  0  0  0  0  0  0  0  0
  -29.5503  -18.0870   22.5726 C   0  0  0  0  0  0  0  0  0  0  0  0
  -25.4101  -33.2429   25.4513 C   0  0  0  0  0  0  0  0  0  0  0  0
  -28.9353  -16.6919   22.6759 C   0  0  0  0  0  0  0  0  0  0  0  0
  -31.0643  -20.0055   18.5797 C   0  0  0  0  0  0  0  0  0  0  0  0
  -30.2773  -18.2962   21.2431 C   0  0  0  0  0  0  0  0  0  0  0  0
  -28.8315  -16.6090   20.1563 C   0  0  0  0  0  0  0  0  0  0  0  0
  -25.8513  -33.7168   24.0612 C   0  0  1  0  0  0  0  0  0  0  0  0
  -24.4159  -31.3397   21.4684 C   0  0  1  0  0  0  0  0  0  0  0  0
  -28.0445  -16.3906   21.4578 C   0  0  1  0  0  0  0  0  0  0  0  0
  -33.3549  -23.5880   19.6378 C   0  0  0  0  0  0  0  0  0  0  0  0
  -27.6868  -23.8925   18.5313 C   0  0  0  0  0  0  0  0  0  0  0  0
  -32.0394  -26.1374   19.5094 C   0  0  0  0  0  0  0  0  0  0  0  0
  -18.4394  -26.4587   22.1465 C   0  0  0  0  0  0  0  0  0  0  0  0
  -23.0741  -29.7133   25.5812 C   0  0  0  0  0  0  0  0  0  0  0  0
  -21.2837  -27.9644   25.5176 C   0  0  0  0  0  0  0  0  0  0  0  0
  -20.7120  -30.3493   25.0610 C   0  0  0  0  0  0  0  0  0  0  0  0
  -20.3920  -27.2321   18.9740 C   0  0  0  0  0  0  0  0  0  0  0  0
  -29.2127  -26.2897   18.9471 C   0  0  0  0  0  0  0  0  0  1  0  0
  -22.0038  -29.0316   23.3327 C   0  0  1  0  0  0  0  0  0  0  0  0
  -19.3739  -27.2611   21.2546 C   0  0  2  0  0  0  0  0  0  0  0  0
  -21.7905  -29.2634   24.8553 C   0  0  0  0  0  0  0  0  0  0  0  0
  -28.1416  -14.0179   22.1230 N   0  0  0  0  0  0  0  0  0  0  0  0
  -27.4418  -15.0000   21.5299 N   0  0  0  0  0  0  0  0  0  0  0  0
  -23.7657  -30.1364   21.9915 N   0  0  0  0  0  0  0  0  0  0  0  0
  -29.6533  -20.0510   18.9790 N   0  0  0  0  0  0  0  0  0  0  0  0
  -29.4052  -17.9558   20.1119 N   0  0  0  0  0  0  0  0  0  0  0  0
  -25.3975  -15.4612   20.4259 N   0  0  0  0  0  0  0  0  0  0  0  0
  -25.0781  -11.0667   21.4170 N   0  0  0  0  0  0  0  0  0  0  0  0
  -25.0660  -33.0679   23.0332 N   0  0  0  0  0  0  0  0  0  0  0  0
  -20.7987  -28.6309   22.6147 N   0  0  0  0  0  0  0  0  0  0  0  0
  -19.5171  -26.5426   19.9569 N   0  3  0  0  0  0  0  0  0  0  0  0
  -24.0073  -12.8336   20.4220 O   0  0  0  0  0  0  0  0  0  0  0  0
  -26.3081  -31.1058   22.8611 O   0  0  0  0  0  0  0  0  0  0  0  0
  -21.8505  -31.2958   22.6426 O   0  0  0  0  0  0  0  0  0  0  0  0
  -21.6416  -26.6304   21.7996 O   0  0  0  0  0  0  0  0  0  0  0  0
  -27.7937  -18.7263   18.6545 O   0  0  0  0  0  0  0  0  0  0  0  0
  -28.9045   -8.0005   24.0613 O   0  0  0  0  0  0  0  0  0  0  0  0
  -28.1875  -26.3469   19.9289 O   0  0  0  0  0  0  0  0  0  1  0  0
  -25.1950   -5.1314   26.9616 F   0  0  0  0  0  0  0  0  0  0  0  0
  -26.5143   -7.2104   22.9190 F   0  0  0  0  0  0  0  0  0  0  0  0
  1  2  1  0  0  0  0
  1  5  2  0  0  0  0
  2  6  2  0  0  0  0
  3  8  2  0  0  0  0
  3 15  1  0  0  0  0
  4  9  1  0  0  0  0
  4 15  2  0  0  0  0
  5 17  1  0  0  0  0
  6 19  1  0  0  0  0
  7 10  2  0  0  0  0
  7 18  1  0  0  0  0
  8 27  1  0  0  0  0
  9 27  2  0  0  0  0
 10 28  1  0  0  0  0
 11 12  2  0  0  0  0
 11 29  1  0  0  0  0
 12 30  1  0  0  0  0
 13 20  1  0  0  0  0
 13 28  2  0  0  0  0
 14 30  2  0  0  0  0
 14 31  1  0  0  0  0
 15 32  1  0  0  0  0
 16 32  1  0  0  0  0
 16 33  2  0  0  0  0
 16 34  1  0  0  0  0
 17 19  2  0  0  0  0
 17 39  1  0  0  0  0
 18 20  2  0  0  0  0
 18 40  1  0  0  0  0
 19 51  1  0  0  0  0
 20 42  1  0  0  0  0
 21 22  2  0  0  0  0
 21 23  1  0  0  0  0
 21 41  1  0  0  0  0
 22 24  1  0  0  0  0
 22 43  1  0  0  0  0
 23 25  2  0  0  0  0
 23 54  1  0  0  0  0
 24 26  2  0  0  0  0
 24 55  1  0  0  0  0
 25 26  1  0  0  0  0
 25 56  1  0  0  0  0
 26 62  1  0  0  0  0
 27 81  1  0  0  0  0
 28 82  1  0  0  0  0
 29 31  2  0  0  0  0
 29 81  1  0  0  0  0
 30 83  1  0  0  0  0
 31 84  1  0  0  0  0
 32 66  2  0  0  0  0
 33 67  1  0  0  0  0
 33 71  1  0  0  0  0
 34 72  1  0  0  0  0
 34 76  2  0  0  0  0
 35 52  1  0  0  0  0
 35 73  1  0  0  0  0
 35 77  2  0  0  0  0
 36 63  1  0  0  0  0
 36 68  1  0  0  0  0
 36 78  2  0  0  0  0
 37 64  1  0  0  0  0
 37 74  1  0  0  0  0
 37 79  2  0  0  0  0
 38 69  1  0  0  0  0
 38 70  1  0  0  0  0
 38 80  2  0  0  0  0
 39 44  1  0  0  0  0
 40 52  1  0  0  0  0
 41 48  1  0  0  0  0
 42 68  1  0  0  0  0
 43 69  1  0  0  0  0
 44 46  1  0  0  0  0
 45 47  1  0  0  0  0
 45 49  1  0  0  0  0
 46 51  1  0  0  0  0
 47 53  1  0  0  0  0
 48 69  1  0  0  0  0
 49 70  1  0  0  0  0
 50 53  1  0  0  0  0
 50 70  1  0  0  0  0
 51 73  1  0  0  0  0
 52 68  1  0  0  0  0
 53 67  1  0  0  0  0
 57 64  1  0  0  0  0
 58 65  1  0  0  0  0
 59 65  1  0  0  0  0
 60 65  1  0  0  0  0
 61 75  1  0  0  0  0
 62 82  1  0  0  0  0
 63 65  1  0  0  0  0
 63 74  1  0  0  0  0
 64 75  1  0  0  0  0
 66 67  1  0  0  0  0
M  CHG  1  75   1
M  ISO  4  38 100  62 101  69 100  82 101
M  END
> <Batch ID>
0164

> <Smiles>
CNC(C)C(=O)NC(C(=O)N1Cc2cc([101O:1][101CH2:1]c3c(C)c(C)c4c(c3C)C[100N:0]([100C:0](=O)N3CCCC(n5nc(-c6ccc(Oc7ccc(F)cc7F)cc6)c(C(N)=O)c5N)C3)CC4)ccc2CC1C(=O)NC1CCCc2ccccc21)C(C)(C)C

> <Shape>
0.306

> <Color>
0.095

> <Negative vol penalty>
0.000

$$$$

  -OEChem-04052322193D

 91101  0     1  0  0  0  0  0999 V2000
  -26.2566  -19.2642   26.2515 C   0  0  0  0  0  0  0  0  0  0  0  0
  -26.6230  -20.0304   25.1496 C   0  0  0  0  0  0  0  0  0  0  0  0
  -25.4094  -14.2801   21.0342 C   0  0  0  0  0  0  0  0  0  0  0  0
  -27.2092  -13.5156   19.6152 C   0  0  0  0  0  0  0  0  0  0  0  0
  -24.9314  -19.2574   26.6849 C   0  0  0  0  0  0  0  0  0  0  0  0
  -25.6640  -20.7894   24.4797 C   0  0  0  0  0  0  0  0  0  0  0  0
  -27.2873  -25.4656   23.4105 C   0  0  0  0  0  0  0  0  0  0  0  0
  -24.6437  -13.1767   20.6576 C   0  0  0  0  0  0  0  0  0  0  0  0
  -26.4435  -12.4121   19.2387 C   0  0  0  0  0  0  0  0  0  0  0  0
  -28.1487  -25.6076   22.3234 C   0  0  0  0  0  0  0  0  0  0  0  0
  -24.4604   -9.8906   21.4328 C   0  0  0  0  0  0  0  0  0  0  0  0
  -23.7868   -9.1957   22.4373 C   0  0  0  0  0  0  0  0  0  0  0  0
  -26.2975  -26.3374   20.9597 C   0  0  0  0  0  0  0  0  0  0  0  0
  -28.8613  -24.1899   15.7919 C   0  0  0  0  0  0  0  0  0  0  0  0
  -21.6802   -9.6730   21.3549 C   0  0  0  0  0  0  0  0  0  0  0  0
  -26.6921  -14.4496   20.5129 C   0  0  0  0  0  0  0  0  0  0  0  0
  -28.3756  -15.6751   21.9865 C   0  0  0  0  0  0  0  0  0  0  0  0
  -23.9577  -20.0243   26.0258 C   0  0  0  0  0  0  0  0  0  0  0  0
  -25.9203  -25.7485   23.2772 C   0  0  0  0  0  0  0  0  0  0  0  0
  -24.3243  -20.7918   24.9038 C   0  0  0  0  0  0  0  0  0  0  0  0
  -25.4214  -26.2006   22.0472 C   0  0  0  0  0  0  0  0  0  0  0  0
  -30.0071  -23.7251   16.4562 C   0  0  0  0  0  0  0  0  0  0  0  0
  -28.9064  -21.6020   16.8141 C   0  0  0  0  0  0  0  0  0  0  0  0
  -27.7765  -22.0698   16.1395 C   0  0  0  0  0  0  0  0  0  0  0  0
  -30.0258  -22.4288   17.0083 C   0  0  0  0  0  0  0  0  0  0  0  0
  -25.1608  -12.2426   19.7599 C   0  0  0  0  0  0  0  0  0  0  0  0
  -27.6533  -26.0407   21.0970 C   0  0  0  0  0  0  0  0  0  0  0  0
  -23.7438  -10.4768   20.3894 C   0  0  0  0  0  0  0  0  0  0  0  0
  -27.7498  -23.3658   15.6374 C   0  0  0  0  0  0  0  0  0  0  0  0
  -22.3968   -9.0869   22.3984 C   0  0  0  0  0  0  0  0  0  0  0  0
  -22.3538  -10.3680   20.3504 C   0  0  0  0  0  0  0  0  0  0  0  0
  -27.4833  -15.5895   20.9011 C   0  0  0  0  0  0  0  0  0  0  0  0
  -28.8709  -16.9546   21.9238 C   0  0  0  0  0  0  0  0  0  0  0  0
  -28.7256  -14.6863   22.9641 C   0  0  0  0  0  0  0  0  0  0  0  0
  -23.2421  -24.0607   23.5637 C   0  0  0  0  0  0  0  0  0  0  0  0
  -21.8352  -26.9532   23.1433 C   0  0  0  0  0  0  0  0  0  0  0  0
  -22.0570  -30.1330   21.9241 C   0  0  0  0  0  0  0  0  0  0  0  0
  -31.2079  -20.7995   18.5058 C   0  0  0  0  0  0  0  0  0  0  0  0
  -22.5287  -19.9480   26.5021 C   0  0  0  0  0  0  0  0  0  0  0  0
  -25.0091  -25.6159   24.4665 C   0  0  0  0  0  0  0  0  0  0  0  0
  -23.9656  -26.5369   21.8574 C   0  0  0  0  0  0  0  0  0  0  0  0
  -21.6470  -21.0728   25.9657 C   0  0  0  0  0  0  0  0  0  0  0  0
  -28.7018  -21.3484   21.1997 C   0  0  0  0  0  0  0  0  0  0  0  0
  -30.0571  -19.3029   16.5747 C   0  0  0  0  0  0  0  0  0  0  0  0
  -28.7285  -19.1944   15.8940 C   0  0  0  0  0  0  0  0  0  0  0  0
  -21.8665  -21.2547   24.4672 C   0  0  0  0  0  0  0  0  0  0  0  0
  -28.0046  -19.9967   21.3666 C   0  0  0  0  0  0  0  0  0  0  0  0
  -32.4660  -23.7772   16.4987 C   0  0  0  0  0  0  0  0  0  0  0  0
  -29.1442  -21.5974   19.7624 C   0  0  0  0  0  0  0  0  0  0  0  0
  -32.4668  -22.6536   17.5261 C   0  0  0  0  0  0  0  0  0  0  0  0
  -29.9075  -19.2142   19.8776 C   0  0  0  0  0  0  0  0  0  0  0  0
  -28.8974  -20.1241   17.0619 C   0  0  0  0  0  0  0  0  0  0  0  0
  -23.3178  -21.6478   24.1660 C   0  0  1  0  0  0  0  0  0  0  0  0
  -31.2046  -24.6269   16.5845 C   0  0  2  0  0  0  0  0  0  0  0  0
  -23.5440  -25.4392   24.0799 C   0  0  1  0  0  0  0  0  0  0  0  0
  -28.4672  -18.9499   20.3357 C   0  0  1  0  0  0  0  0  0  0  0  0
  -25.4466  -21.4938   16.8655 C   0  0  0  0  0  0  0  0  0  0  0  0
  -20.7326  -32.2524   21.6967 C   0  0  0  0  0  0  0  0  0  0  0  0
  -20.2230  -25.6996   20.8762 C   0  0  0  0  0  0  0  0  0  0  0  0
  -19.6571  -28.0099   20.0947 C   0  0  0  0  0  0  0  0  0  0  0  0
  -18.9218  -27.2436   22.3519 C   0  0  0  0  0  0  0  0  0  0  0  0
  -24.0141  -31.6652   23.5305 C   0  0  0  0  0  0  0  0  0  0  0  0
  -26.7221  -25.1815   14.4977 C   0  0  0  0  0  0  0  0  0  0  0  0
  -26.5914  -21.1824   15.9089 C   0  0  0  0  0  0  0  0  0  0  0  0
  -30.4049  -27.3411   19.1612 C   0  0  0  0  0  0  0  0  0  0  0  0
  -30.3657  -26.6216   17.8214 C   0  0  0  0  0  0  0  0  0  0  0  0
  -29.8485  -26.5174   20.3160 C   0  0  0  0  0  0  0  0  0  1  0  0
  -21.3660  -27.7505   21.9503 C   0  0  1  0  0  0  0  0  0  0  0  0
  -21.7254  -31.4765   22.5482 C   0  0  2  0  0  0  0  0  0  0  0  0
  -20.0691  -27.1678   21.3210 C   0  0  0  0  0  0  0  0  0  0  0  0
  -27.4135  -16.7244   20.2003 N   0  0  0  0  0  0  0  0  0  0  0  0
  -28.2683  -17.5352   20.8468 N   0  0  0  0  0  0  0  0  0  0  0  0
  -31.1882  -21.9621   17.7124 N   0  0  0  0  0  0  0  0  0  0  0  0
  -23.1135  -26.3852   23.0484 N   0  0  0  0  0  0  0  0  0  0  0  0
  -30.0633  -20.5480   19.2886 N   0  0  0  0  0  0  0  0  0  0  0  0
  -29.7586  -17.6286   22.6855 N   0  0  0  0  0  0  0  0  0  0  0  0
  -28.1235  -13.4233   22.8821 N   0  0  0  0  0  0  0  0  0  0  0  0
  -23.5331  -23.0487   24.4584 N   0  0  0  0  0  0  0  0  0  0  0  0
  -21.2412  -29.1310   22.4055 N   0  0  0  0  0  0  0  0  0  0  0  0
  -31.2023  -25.3983   17.8610 N   0  3  0  0  0  0  0  0  0  0  0  0
  -22.9602  -32.2977   22.6962 N   0  3  0  0  0  0  0  0  0  0  0  0
  -29.5356  -14.9212   23.8927 O   0  0  0  0  0  0  0  0  0  0  0  0
  -22.7780  -23.9255   22.4377 O   0  0  0  0  0  0  0  0  0  0  0  0
  -21.0976  -26.8445   24.1260 O   0  0  0  0  0  0  0  0  0  0  0  0
  -22.9478  -29.9877   21.0899 O   0  0  0  0  0  0  0  0  0  0  0  0
  -32.2107  -20.0776   18.5696 O   0  0  0  0  0  0  0  0  0  0  0  0
  -24.4141  -11.1657   19.3924 O   0  0  0  0  0  0  0  0  0  0  0  0
  -26.6571  -23.8397   14.9767 O   0  0  0  0  0  0  0  0  0  0  0  0
  -28.4976  -26.1805   20.0267 O   0  0  0  0  0  0  0  0  0  1  0  0
  -21.7502   -8.4182   23.3622 F   0  0  0  0  0  0  0  0  0  0  0  0
  -21.6601  -10.9280   19.3499 F   0  0  0  0  0  0  0  0  0  0  0  0
  1  2  1  0  0  0  0
  1  5  2  0  0  0  0
  2  6  2  0  0  0  0
  3  8  2  0  0  0  0
  3 16  1  0  0  0  0
  4  9  1  0  0  0  0
  4 16  2  0  0  0  0
  5 18  1  0  0  0  0
  6 20  1  0  0  0  0
  7 10  2  0  0  0  0
  7 19  1  0  0  0  0
  8 26  1  0  0  0  0
  9 26  2  0  0  0  0
 10 27  1  0  0  0  0
 11 12  2  0  0  0  0
 11 28  1  0  0  0  0
 12 30  1  0  0  0  0
 13 21  1  0  0  0  0
 13 27  2  0  0  0  0
 14 22  1  0  0  0  0
 14 29  2  0  0  0  0
 15 30  2  0  0  0  0
 15 31  1  0  0  0  0
 16 32  1  0  0  0  0
 17 32  1  0  0  0  0
 17 33  2  0  0  0  0
 17 34  1  0  0  0  0
 18 20  2  0  0  0  0
 18 39  1  0  0  0  0
 19 21  2  0  0  0  0
 19 40  1  0  0  0  0
 20 53  1  0  0  0  0
 21 41  1  0  0  0  0
 22 25  2  0  0  0  0
 22 54  1  0  0  0  0
 23 24  2  0  0  0  0
 23 25  1  0  0  0  0
 23 52  1  0  0  0  0
 24 29  1  0  0  0  0
 24 64  1  0  0  0  0
 25 73  1  0  0  0  0
 26 87  1  0  0  0  0
 27 89  1  0  0  0  0
 28 31  2  0  0  0  0
 28 87  1  0  0  0  0
 29 88  1  0  0  0  0
 30 90  1  0  0  0  0
 31 91  1  0  0  0  0
 32 71  2  0  0  0  0
 33 72  1  0  0  0  0
 33 76  1  0  0  0  0
 34 77  1  0  0  0  0
 34 82  2  0  0  0  0
 35 55  1  0  0  0  0
 35 78  1  0  0  0  0
 35 83  2  0  0  0  0
 36 68  1  0  0  0  0
 36 74  1  0  0  0  0
 36 84  2  0  0  0  0
 37 69  1  0  0  0  0
 37 79  1  0  0  0  0
 37 85  2  0  0  0  0
 38 73  1  0  0  0  0
 38 75  1  0  0  0  0
 38 86  2  0  0  0  0
 39 42  1  0  0  0  0
 40 55  1  0  0  0  0
 41 74  1  0  0  0  0
 42 46  1  0  0  0  0
 43 47  1  0  0  0  0
 43 49  1  0  0  0  0
 44 45  1  0  0  0  0
 44 52  1  0  0  0  0
 45 52  1  0  0  0  0
 46 53  1  0  0  0  0
 47 56  1  0  0  0  0
 48 50  1  0  0  0  0
 48 54  1  0  0  0  0
 49 75  1  0  0  0  0
 50 73  1  0  0  0  0
 51 56  1  0  0  0  0
 51 75  1  0  0  0  0
 53 78  1  0  0  0  0
 54 80  1  0  0  0  0
 55 74  1  0  0  0  0
 56 72  1  0  0  0  0
 57 64  1  0  0  0  0
 58 69  1  0  0  0  0
 59 70  1  0  0  0  0
 60 70  1  0  0  0  0
 61 70  1  0  0  0  0
 62 81  1  0  0  0  0
 63 88  1  0  0  0  0
 65 66  1  0  0  0  0
 65 67  1  0  0  0  0
 66 80  1  0  0  0  0
 67 89  1  0  0  0  0
 68 70  1  0  0  0  0
 68 79  1  0  0  0  0
 69 81  1  0  0  0  0
 71 72  1  0  0  0  0
M  CHG  2  80   1  81   1
M  ISO  4  38 100  67 101  73 100  89 101
M  END
> <Batch ID>
0164

> <Smiles>
CCc1c(OC)cc2c(c1C1CC1)[100N:0]([100C:0](=O)N1CCCC(n3nc(-c4ccc(Oc5ccc(F)cc5F)cc4)c(C(N)=O)c3N)C1)CCC2NCC[101CH2:1][101O:1]c1ccc2c(c1)CN(C(=O)C(NC(=O)C(C)NC)C(C)(C)C)C(C(=O)NC1CCCc3ccccc31)C2

> <Shape>
0.227

> <Color>
0.048

> <Negative vol penalty>
0.000

$$$$

  -OEChem-04052322193D

 86 95  0     1  0  0  0  0  0999 V2000
  -25.1568  -22.9033   27.6478 C   0  0  0  0  0  0  0  0  0  0  0  0
  -25.5316  -22.7080   26.3223 C   0  0  0  0  0  0  0  0  0  0  0  0
  -23.2654   -9.7463   19.9533 C   0  0  0  0  0  0  0  0  0  0  0  0
  -23.6271   -9.9928   22.3293 C   0  0  0  0  0  0  0  0  0  0  0  0
  -24.5762  -24.1099   28.0362 C   0  0  0  0  0  0  0  0  0  0  0  0
  -25.3250  -23.7188   25.3843 C   0  0  0  0  0  0  0  0  0  0  0  0
  -29.3352  -24.4248   22.3736 C   0  0  0  0  0  0  0  0  0  0  0  0
  -22.5440   -8.5752   20.1846 C   0  0  0  0  0  0  0  0  0  0  0  0
  -22.9056   -8.8217   22.5606 C   0  0  0  0  0  0  0  0  0  0  0  0
  -29.5220  -23.5112   21.3372 C   0  0  0  0  0  0  0  0  0  0  0  0
  -23.4389   -5.4884   22.3706 C   0  0  0  0  0  0  0  0  0  0  0  0
  -23.9712   -4.5667   23.2720 C   0  0  0  0  0  0  0  0  0  0  0  0
  -30.3125  -19.2914   15.8417 C   0  0  0  0  0  0  0  0  0  0  0  0
  -29.4248  -19.6306   18.0629 C   0  0  0  0  0  0  0  0  0  0  0  0
  -28.5466  -25.0804   19.7862 C   0  0  0  0  0  0  0  0  0  0  0  0
  -22.0006   -4.7796   24.6535 C   0  0  0  0  0  0  0  0  0  0  0  0
  -23.8070  -10.4551   21.0256 C   0  0  0  0  0  0  0  0  0  0  0  0
  -29.5513  -18.8408   16.9202 C   0  0  0  0  0  0  0  0  0  0  0  0
  -24.0476  -12.9773   20.7282 C   0  0  0  0  0  0  0  0  0  0  0  0
  -24.3712  -25.1397   27.1045 C   0  0  0  0  0  0  0  0  0  0  0  0
  -28.7418  -25.6709   22.1257 C   0  0  0  0  0  0  0  0  0  0  0  0
  -24.7398  -24.9398   25.7604 C   0  0  0  0  0  0  0  0  0  0  0  0
  -28.3558  -26.0090   20.8208 C   0  0  0  0  0  0  0  0  0  0  0  0
  -30.9474  -20.5318   15.9061 C   0  0  0  0  0  0  0  0  0  0  0  0
  -30.0596  -20.8710   18.1273 C   0  0  0  0  0  0  0  0  0  0  0  0
  -30.8209  -21.3216   17.0489 C   0  0  0  0  0  0  0  0  0  0  0  0
  -22.3640   -8.1128   21.4883 C   0  0  0  0  0  0  0  0  0  0  0  0
  -29.1251  -23.8377   20.0438 C   0  0  0  0  0  0  0  0  0  0  0  0
  -22.1874   -6.0558   22.6107 C   0  0  0  0  0  0  0  0  0  0  0  0
  -23.2521   -4.2122   24.4135 C   0  0  0  0  0  0  0  0  0  0  0  0
  -21.4683   -5.7014   23.7521 C   0  0  0  0  0  0  0  0  0  0  0  0
  -24.5529  -11.6647   20.7873 C   0  0  0  0  0  0  0  0  0  0  0  0
  -25.1496  -13.7586   20.4802 C   0  0  0  0  0  0  0  0  0  0  0  0
  -28.8866  -17.5368   16.8536 C   0  0  0  0  0  0  0  0  0  0  0  0
  -22.7023  -13.4482   20.8837 C   0  0  0  0  0  0  0  0  0  0  0  0
  -26.1000  -27.1343   23.1171 C   0  0  0  0  0  0  0  0  0  0  0  0
  -27.3338  -29.6381   21.4644 C   0  0  0  0  0  0  0  0  0  0  0  0
  -29.3932  -30.7320   18.9726 C   0  0  0  0  0  0  0  0  0  0  0  0
  -29.8902  -14.7437   17.7774 C   0  0  0  0  0  0  0  0  0  0  0  0
  -23.6967  -26.4087   27.5618 C   0  0  0  0  0  0  0  0  0  0  0  0
  -28.5717  -26.6558   23.2497 C   0  0  0  0  0  0  0  0  0  0  0  0
  -27.7325  -27.3417   20.4983 C   0  0  0  0  0  0  0  0  0  0  0  0
  -23.8553  -27.5695   26.5832 C   0  0  0  0  0  0  0  0  0  0  0  0
  -28.8058  -14.9317   14.3432 C   0  0  0  0  0  0  0  0  0  0  0  0
  -30.0727  -12.6634   20.5964 C   0  0  0  0  0  0  0  0  0  0  0  0
  -23.5668  -27.1093   25.1578 C   0  0  0  0  0  0  0  0  0  0  0  0
  -28.9553  -16.4231   14.6159 C   0  0  0  0  0  0  0  0  0  0  0  0
  -28.6180  -12.3033   20.8898 C   0  0  0  0  0  0  0  0  0  0  0  0
  -30.3307  -12.6985   19.0955 C   0  0  0  0  0  0  0  0  0  0  0  0
  -28.4525  -14.3648   15.7083 C   0  0  0  0  0  0  0  0  0  0  0  0
  -27.9745  -13.3132   18.6421 C   0  0  0  0  0  0  0  0  0  0  0  0
  -24.5546  -26.0218   24.7187 C   0  0  1  0  0  0  0  0  0  0  0  0
  -29.5418  -16.4784   16.0237 C   0  0  2  0  0  0  0  0  0  0  0  0
  -27.4875  -27.6935   22.9759 C   0  0  1  0  0  0  0  0  0  0  0  0
  -27.6605  -13.2527   20.1511 C   0  0  1  0  0  0  0  0  0  0  0  0
  -31.7585  -20.9903   14.7386 C   0  0  0  0  0  0  0  0  0  0  0  0
  -31.5019  -22.6518   17.1179 C   0  0  0  0  0  0  0  0  0  0  0  0
  -30.1642  -32.8307   17.8332 C   0  0  0  0  0  0  0  0  0  0  0  0
  -24.6763  -29.8025   19.9743 C   0  0  0  0  0  0  0  0  0  0  0  0
  -25.8081  -31.2284   18.2555 C   0  0  0  0  0  0  0  0  0  0  0  0
  -25.6502  -32.0143   20.6177 C   0  0  0  0  0  0  0  0  0  0  0  0
  -32.2095  -30.2564   19.7478 C   0  0  0  0  0  0  0  0  0  0  0  0
  -29.9074  -21.6980   19.3617 C   0  0  0  0  0  0  0  0  0  1  0  0
  -27.2362  -30.1317   20.0411 C   0  0  1  0  0  0  0  0  0  0  0  0
  -30.4432  -31.8278   18.9419 C   0  0  2  0  0  0  0  0  0  0  0  0
  -25.8526  -30.7683   19.7282 C   0  0  0  0  0  0  0  0  0  0  0  0
  -25.8732  -11.6112   20.5923 N   0  0  0  0  0  0  0  0  0  0  0  0
  -26.2068  -12.8999   20.4083 N   0  0  0  0  0  0  0  0  0  0  0  0
  -27.5815  -28.2683   21.6324 N   0  0  0  0  0  0  0  0  0  0  0  0
  -29.3981  -13.5952   18.4110 N   0  0  0  0  0  0  0  0  0  0  0  0
  -29.2096  -15.1966   16.6436 N   0  0  0  0  0  0  0  0  0  0  0  0
  -25.3078  -15.0895   20.3188 N   0  0  0  0  0  0  0  0  0  0  0  0
  -21.6910  -12.5108   21.1342 N   0  0  0  0  0  0  0  0  0  0  0  0
  -25.8295  -26.6093   24.3664 N   0  0  0  0  0  0  0  0  0  0  0  0
  -28.3668  -31.0323   19.8430 N   0  0  0  0  0  0  0  0  0  0  0  0
  -31.7956  -31.2433   18.7174 N   0  3  0  0  0  0  0  0  0  0  0  0
  -27.8364  -17.2613   17.4243 O   0  0  0  0  0  0  0  0  0  0  0  0
  -22.4034  -14.6626   20.7866 O   0  0  0  0  0  0  0  0  0  0  0  0
  -25.3313  -27.1775   22.1638 O   0  0  0  0  0  0  0  0  0  0  0  0
  -27.2025  -30.4395   22.3929 O   0  0  0  0  0  0  0  0  0  0  0  0
  -29.4734  -29.7133   18.2897 O   0  0  0  0  0  0  0  0  0  0  0  0
  -30.9019  -15.3247   18.1914 O   0  0  0  0  0  0  0  0  0  0  0  0
  -21.6599   -6.9702   21.7144 O   0  0  0  0  0  0  0  0  0  0  0  0
  -29.3069  -22.9412   19.0232 O   0  0  0  0  0  0  0  0  0  1  0  0
  -23.7628   -3.3259   25.2782 F   0  0  0  0  0  0  0  0  0  0  0  0
  -20.2650   -6.2422   23.9874 F   0  0  0  0  0  0  0  0  0  0  0  0
  1  2  1  0  0  0  0
  1  5  2  0  0  0  0
  2  6  2  0  0  0  0
  3  8  2  0  0  0  0
  3 17  1  0  0  0  0
  4  9  1  0  0  0  0
  4 17  2  0  0  0  0
  5 20  1  0  0  0  0
  6 22  1  0  0  0  0
  7 10  2  0  0  0  0
  7 21  1  0  0  0  0
  8 27  1  0  0  0  0
  9 27  2  0  0  0  0
 10 28  1  0  0  0  0
 11 12  2  0  0  0  0
 11 29  1  0  0  0  0
 12 30  1  0  0  0  0
 13 18  1  0  0  0  0
 13 24  2  0  0  0  0
 14 18  2  0  0  0  0
 14 25  1  0  0  0  0
 15 23  1  0  0  0  0
 15 28  2  0  0  0  0
 16 30  2  0  0  0  0
 16 31  1  0  0  0  0
 17 32  1  0  0  0  0
 18 34  1  0  0  0  0
 19 32  1  0  0  0  0
 19 33  2  0  0  0  0
 19 35  1  0  0  0  0
 20 22  2  0  0  0  0
 20 40  1  0  0  0  0
 21 23  2  0  0  0  0
 21 41  1  0  0  0  0
 22 52  1  0  0  0  0
 23 42  1  0  0  0  0
 24 26  1  0  0  0  0
 24 56  1  0  0  0  0
 25 26  2  0  0  0  0
 25 63  1  0  0  0  0
 26 57  1  0  0  0  0
 27 83  1  0  0  0  0
 28 84  1  0  0  0  0
 29 31  2  0  0  0  0
 29 83  1  0  0  0  0
 30 85  1  0  0  0  0
 31 86  1  0  0  0  0
 32 67  2  0  0  0  0
 33 68  1  0  0  0  0
 33 72  1  0  0  0  0
 34 53  1  0  0  0  0
 34 77  2  0  0  0  0
 35 73  1  0  0  0  0
 35 78  2  0  0  0  0
 36 54  1  0  0  0  0
 36 74  1  0  0  0  0
 36 79  2  0  0  0  0
 37 64  1  0  0  0  0
 37 69  1  0  0  0  0
 37 80  2  0  0  0  0
 38 65  1  0  0  0  0
 38 75  1  0  0  0  0
 38 81  2  0  0  0  0
 39 70  1  0  0  0  0
 39 71  1  0  0  0  0
 39 82  2  0  0  0  0
 40 43  1  0  0  0  0
 41 54  1  0  0  0  0
 42 69  1  0  0  0  0
 43 46  1  0  0  0  0
 44 47  1  0  0  0  0
 44 50  1  0  0  0  0
 45 48  1  0  0  0  0
 45 49  1  0  0  0  0
 46 52  1  0  0  0  0
 47 53  1  0  0  0  0
 48 55  1  0  0  0  0
 49 70  1  0  0  0  0
 50 71  1  0  0  0  0
 51 55  1  0  0  0  0
 51 70  1  0  0  0  0
 52 74  1  0  0  0  0
 53 71  1  0  0  0  0
 54 69  1  0  0  0  0
 55 68  1  0  0  0  0
 58 65  1  0  0  0  0
 59 66  1  0  0  0  0
 60 66  1  0  0  0  0
 61 66  1  0  0  0  0
 62 76  1  0  0  0  0
 63 84  1  0  0  0  0
 64 66  1  0  0  0  0
 64 75  1  0  0  0  0
 65 76  1  0  0  0  0
 67 68  1  0  0  0  0
M  CHG  1  76   1
M  ISO  4  39 100  63 101  71 100  84 101
M  END
> <Batch ID>
0164

> <Smiles>
CNC(C)C(=O)NC(C(=O)N1Cc2cc([101O:1][101CH2:1]c3cc(C(=O)C4CCC[100N:0]4[100C:0](=O)N4CCCC(n5nc(-c6ccc(Oc7ccc(F)cc7F)cc6)c(C(N)=O)c5N)C4)cc(C)c3C)ccc2CC1C(=O)NC1CCCc2ccccc21)C(C)(C)C

> <Shape>
0.225

> <Color>
0.204

> <Negative vol penalty>
0.000

$$$$

  -OEChem-04052322193D

 87 96  0     1  0  0  0  0  0999 V2000
  -24.6423  -27.1034    9.9089 C   0  0  0  0  0  0  0  0  0  0  0  0
  -25.2443  -25.9986   10.5025 C   0  0  0  0  0  0  0  0  0  0  0  0
  -23.0737   -9.8645   19.9530 C   0  0  0  0  0  0  0  0  0  0  0  0
  -23.8355   -9.8868   22.2457 C   0  0  0  0  0  0  0  0  0  0  0  0
  -24.4865  -28.2842   10.6336 C   0  0  0  0  0  0  0  0  0  0  0  0
  -25.6918  -26.0743   11.8210 C   0  0  0  0  0  0  0  0  0  0  0  0
  -26.4856  -22.0410   17.6877 C   0  0  0  0  0  0  0  0  0  0  0  0
  -22.3296   -8.7134   20.2114 C   0  0  0  0  0  0  0  0  0  0  0  0
  -23.0913   -8.7357   22.5041 C   0  0  0  0  0  0  0  0  0  0  0  0
  -27.4522  -21.6846   18.6270 C   0  0  0  0  0  0  0  0  0  0  0  0
  -19.8633   -7.9434   23.1147 C   0  0  0  0  0  0  0  0  0  0  0  0
  -19.1073   -7.9118   24.2865 C   0  0  0  0  0  0  0  0  0  0  0  0
  -27.0585  -23.7511   19.8076 C   0  0  0  0  0  0  0  0  0  0  0  0
  -20.3485   -5.9789   25.0351 C   0  0  0  0  0  0  0  0  0  0  0  0
  -23.8267  -10.4512   20.9701 C   0  0  0  0  0  0  0  0  0  0  0  0
  -24.1695  -12.9753   20.8326 C   0  0  0  0  0  0  0  0  0  0  0  0
  -24.9237  -28.3714   11.9647 C   0  0  0  0  0  0  0  0  0  0  0  0
  -25.8047  -23.2622   17.7954 C   0  0  0  0  0  0  0  0  0  0  0  0
  -25.5430  -27.2579   12.5638 C   0  0  0  0  0  0  0  0  0  0  0  0
  -26.0818  -24.1195   18.8698 C   0  0  0  0  0  0  0  0  0  0  0  0
  -31.5221  -19.3764   23.1432 C   0  0  0  0  0  0  0  0  0  0  0  0
  -30.6586  -19.4486   22.0294 C   0  0  0  0  0  0  0  0  0  0  0  0
  -32.0476  -20.5563   23.7016 C   0  0  0  0  0  0  0  0  0  0  0  0
  -30.3159  -20.7271   21.5423 C   0  0  0  0  0  0  0  0  0  0  0  0
  -31.7054  -21.8050   23.1910 C   0  0  0  0  0  0  0  0  0  0  0  0
  -30.8348  -21.8904   22.1135 C   0  0  0  0  0  0  0  0  0  0  0  0
  -22.3383   -8.1490   21.4870 C   0  0  0  0  0  0  0  0  0  0  0  0
  -27.7409  -22.5409   19.6855 C   0  0  0  0  0  0  0  0  0  0  0  0
  -20.8619   -6.9927   22.9031 C   0  0  0  0  0  0  0  0  0  0  0  0
  -19.3499   -6.9296   25.2467 C   0  0  0  0  0  0  0  0  0  0  0  0
  -21.1045   -6.0105   23.8633 C   0  0  0  0  0  0  0  0  0  0  0  0
  -24.5961  -11.6400   20.7036 C   0  0  0  0  0  0  0  0  0  0  0  0
  -25.2617  -13.7218   20.4633 C   0  0  0  0  0  0  0  0  0  0  0  0
  -22.8996  -13.4945   21.2490 C   0  0  0  0  0  0  0  0  0  0  0  0
  -25.5660  -25.8646   15.9859 C   0  0  0  0  0  0  0  0  0  0  0  0
  -23.3705  -26.7351   18.2095 C   0  0  0  0  0  0  0  0  0  0  0  0
  -22.1925  -26.4186   21.3968 C   0  0  0  0  0  0  0  0  0  0  0  0
  -30.7460  -14.7398   20.6402 C   0  0  0  0  0  0  0  0  0  0  0  0
  -24.7763  -29.6841   12.6927 C   0  0  0  0  0  0  0  0  0  0  0  0
  -24.7457  -23.6200   16.7889 C   0  0  0  0  0  0  0  0  0  0  0  0
  -31.9584  -18.0663   23.7447 C   0  0  0  0  0  0  0  0  0  0  0  0
  -25.3645  -25.4327   19.0419 C   0  0  0  0  0  0  0  0  0  0  0  0
  -24.9392  -29.5632   14.2057 C   0  0  0  0  0  0  0  0  0  0  0  0
  -31.0537  -16.9016   23.3705 C   0  0  0  0  0  0  0  0  0  0  0  0
  -29.6054  -12.3396   18.2707 C   0  0  0  0  0  0  0  0  0  0  0  0
  -26.1637  -28.7191   14.5450 C   0  0  0  0  0  0  0  0  0  0  0  0
  -28.1682  -12.0494   18.7068 C   0  0  0  0  0  0  0  0  0  0  0  0
  -30.5237  -12.5682   19.4693 C   0  0  0  0  0  0  0  0  0  0  0  0
  -28.6234  -13.3095   20.8524 C   0  0  0  0  0  0  0  0  0  0  0  0
  -26.0191  -27.2932   13.9998 C   0  0  1  0  0  0  0  0  0  0  0  0
  -24.4796  -25.1200   16.7092 C   0  0  1  0  0  0  0  0  0  0  0  0
  -27.6482  -13.1273   19.6768 C   0  0  2  0  0  0  0  0  0  0  0  0
  -30.8138  -16.8987   21.8623 C   0  0  2  0  0  0  0  0  0  0  0  0
  -30.0568  -18.1835   21.3877 C   0  0  0  0  0  0  0  0  0  0  0  0
  -33.0020  -20.4943   24.8574 C   0  0  0  0  0  0  0  0  0  0  0  0
  -32.2702  -23.0493   23.8005 C   0  0  0  0  0  0  0  0  0  0  0  0
  -30.4560  -23.2366   21.5764 C   0  0  0  0  0  0  0  0  0  0  0  0
  -30.1646  -18.2464   19.8430 C   0  0  0  0  0  0  0  0  0  0  0  0
  -28.5576  -18.1295   21.7689 C   0  0  0  0  0  0  0  0  0  0  0  0
  -20.4073  -27.2861   22.9323 C   0  0  0  0  0  0  0  0  0  0  0  0
  -24.9292  -29.3362   18.5483 C   0  0  0  0  0  0  0  0  0  0  0  0
  -23.6968  -29.7137   20.6946 C   0  0  0  0  0  0  0  0  0  0  0  0
  -22.4427  -29.6035   18.5411 C   0  0  0  0  0  0  0  0  0  0  0  0
  -21.0211  -23.7233   21.7465 C   0  0  0  0  0  0  0  0  0  0  0  0
  -29.3410  -20.9442   20.4244 C   0  0  0  0  0  0  0  0  0  1  0  0
  -23.4146  -27.4844   19.5193 C   0  0  1  0  0  0  0  0  0  0  0  0
  -20.7897  -26.2032   21.9354 C   0  0  2  0  0  0  0  0  0  0  0  0
  -23.6359  -29.0107   19.3218 C   0  0  0  0  0  0  0  0  0  0  0  0
  -25.8606  -11.5407   20.2850 N   0  0  0  0  0  0  0  0  0  0  0  0
  -26.2379  -12.8232   20.1476 N   0  0  0  0  0  0  0  0  0  0  0  0
  -24.3421  -25.7406   18.0283 N   0  0  0  0  0  0  0  0  0  0  0  0
  -29.9743  -13.6029   20.3487 N   0  0  0  0  0  0  0  0  0  0  0  0
  -25.4726  -15.0527   20.3810 N   0  0  0  0  0  0  0  0  0  0  0  0
  -21.8876  -12.5881   21.5933 N   0  0  0  0  0  0  0  0  0  0  0  0
  -25.1380  -26.5159   14.8448 N   0  0  0  0  0  0  0  0  0  0  0  0
  -22.1836  -27.1455   20.2251 N   0  0  0  0  0  0  0  0  0  0  0  0
  -30.1480  -15.6746   21.4764 N   0  0  0  0  0  0  0  0  0  0  0  0
  -20.6940  -24.8815   22.6174 N   0  3  0  0  0  0  0  0  0  0  0  0
  -22.6639  -14.7256   21.2982 O   0  0  0  0  0  0  0  0  0  0  0  0
  -26.7077  -25.8504   16.4310 O   0  0  0  0  0  0  0  0  0  0  0  0
  -22.5015  -27.0169   17.3806 O   0  0  0  0  0  0  0  0  0  0  0  0
  -23.1961  -25.9886   21.9611 O   0  0  0  0  0  0  0  0  0  0  0  0
  -31.8817  -14.9117   20.1845 O   0  0  0  0  0  0  0  0  0  0  0  0
  -21.6121   -7.0259   21.7396 O   0  0  0  0  0  0  0  0  0  0  0  0
  -28.6917  -22.1930   20.6105 O   0  0  0  0  0  0  0  0  0  1  0  0
  -18.6249   -6.9003   26.3726 F   0  0  0  0  0  0  0  0  0  0  0  0
  -22.0632   -5.0952   23.6661 F   0  0  0  0  0  0  0  0  0  0  0  0
  1  2  1  0  0  0  0
  1  5  2  0  0  0  0
  2  6  2  0  0  0  0
  3  8  2  0  0  0  0
  3 15  1  0  0  0  0
  4  9  1  0  0  0  0
  4 15  2  0  0  0  0
  5 17  1  0  0  0  0
  6 19  1  0  0  0  0
  7 10  2  0  0  0  0
  7 18  1  0  0  0  0
  8 27  1  0  0  0  0
  9 27  2  0  0  0  0
 10 28  1  0  0  0  0
 11 12  2  0  0  0  0
 11 29  1  0  0  0  0
 12 30  1  0  0  0  0
 13 20  1  0  0  0  0
 13 28  2  0  0  0  0
 14 30  2  0  0  0  0
 14 31  1  0  0  0  0
 15 32  1  0  0  0  0
 16 32  1  0  0  0  0
 16 33  2  0  0  0  0
 16 34  1  0  0  0  0
 17 19  2  0  0  0  0
 17 39  1  0  0  0  0
 18 20  2  0  0  0  0
 18 40  1  0  0  0  0
 19 50  1  0  0  0  0
 20 42  1  0  0  0  0
 21 22  1  0  0  0  0
 21 23  2  0  0  0  0
 21 41  1  0  0  0  0
 22 24  2  0  0  0  0
 22 54  1  0  0  0  0
 23 25  1  0  0  0  0
 23 55  1  0  0  0  0
 24 26  1  0  0  0  0
 24 65  1  0  0  0  0
 25 26  2  0  0  0  0
 25 56  1  0  0  0  0
 26 57  1  0  0  0  0
 27 84  1  0  0  0  0
 28 85  1  0  0  0  0
 29 31  2  0  0  0  0
 29 84  1  0  0  0  0
 30 86  1  0  0  0  0
 31 87  1  0  0  0  0
 32 69  2  0  0  0  0
 33 70  1  0  0  0  0
 33 73  1  0  0  0  0
 34 74  1  0  0  0  0
 34 79  2  0  0  0  0
 35 51  1  0  0  0  0
 35 75  1  0  0  0  0
 35 80  2  0  0  0  0
 36 66  1  0  0  0  0
 36 71  1  0  0  0  0
 36 81  2  0  0  0  0
 37 67  1  0  0  0  0
 37 76  1  0  0  0  0
 37 82  2  0  0  0  0
 38 72  1  0  0  0  0
 38 77  1  0  0  0  0
 38 83  2  0  0  0  0
 39 43  1  0  0  0  0
 40 51  1  0  0  0  0
 41 44  1  0  0  0  0
 42 71  1  0  0  0  0
 43 46  1  0  0  0  0
 44 53  1  0  0  0  0
 45 47  1  0  0  0  0
 45 48  1  0  0  0  0
 46 50  1  0  0  0  0
 47 52  1  0  0  0  0
 48 72  1  0  0  0  0
 49 52  1  0  0  0  0
 49 72  1  0  0  0  0
 50 75  1  0  0  0  0
 51 71  1  0  0  0  0
 52 70  1  0  0  0  0
 53 54  1  0  0  0  0
 53 77  1  0  0  0  0
 54 58  1  0  0  0  0
 54 59  1  0  0  0  0
 60 67  1  0  0  0  0
 61 68  1  0  0  0  0
 62 68  1  0  0  0  0
 63 68  1  0  0  0  0
 64 78  1  0  0  0  0
 65 85  1  0  0  0  0
 66 68  1  0  0  0  0
 66 76  1  0  0  0  0
 67 78  1  0  0  0  0
 69 70  1  0  0  0  0
M  CHG  1  78   1
M  ISO  4  38 100  65 101  77 100  85 101
M  END
> <Batch ID>
0164

> <Smiles>
CNC(C)C(=O)NC(C(=O)N1Cc2cc([101O:1][101CH2:1]c3c(C)c(C)c(C)c4c3C(C)(C)C([100NH:0][100C:0](=O)N3CCCC(n5nc(-c6ccc(Oc7ccc(F)cc7F)cc6)c(C(N)=O)c5N)C3)CC4)ccc2CC1C(=O)NC1CCCc2ccccc21)C(C)(C)C

> <Shape>
0.262

> <Color>
0.192

> <Negative vol penalty>
0.000

$$$$

  -OEChem-04052322193D

 88 98  0     1  0  0  0  0  0999 V2000
  -29.5627  -36.4207   22.8673 C   0  0  0  0  0  0  0  0  0  0  0  0
  -29.7432  -35.2202   22.1878 C   0  0  0  0  0  0  0  0  0  0  0  0
  -23.9091  -16.8010   22.3463 C   0  0  0  0  0  0  0  0  0  0  0  0
  -24.3336  -17.2666   20.0139 C   0  0  0  0  0  0  0  0  0  0  0  0
  -28.6864  -36.4826   23.9500 C   0  0  0  0  0  0  0  0  0  0  0  0
  -29.0483  -34.0806   22.5913 C   0  0  0  0  0  0  0  0  0  0  0  0
  -26.8994  -29.6131   18.9956 C   0  0  0  0  0  0  0  0  0  0  0  0
  -29.0281  -20.3882   18.4079 C   0  0  0  0  0  0  0  0  0  0  0  0
  -23.4397  -18.1029   22.5207 C   0  0  0  0  0  0  0  0  0  0  0  0
  -23.8641  -18.5685   20.1883 C   0  0  0  0  0  0  0  0  0  0  0  0
  -27.3967  -28.3528   18.6667 C   0  0  0  0  0  0  0  0  0  0  0  0
  -29.1696  -21.7537   18.1615 C   0  0  0  0  0  0  0  0  0  0  0  0
  -20.8741  -20.1267   20.4168 C   0  0  0  0  0  0  0  0  0  0  0  0
  -20.0008  -20.6335   19.4545 C   0  0  0  0  0  0  0  0  0  0  0  0
  -26.0316  -27.3696   20.3956 C   0  0  0  0  0  0  0  0  0  0  0  0
  -29.1665  -22.1831   20.5391 C   0  0  0  0  0  0  0  0  0  0  0  0
  -21.5648  -22.4104   18.9710 C   0  0  0  0  0  0  0  0  0  0  0  0
  -24.3561  -16.3829   21.0928 C   0  0  0  0  0  0  0  0  0  0  0  0
  -24.0901  -13.9048   20.5489 C   0  0  0  0  0  0  0  0  0  0  0  0
  -27.9731  -35.3455   24.3610 C   0  0  0  0  0  0  0  0  0  0  0  0
  -25.9711  -29.7627   20.0360 C   0  0  0  0  0  0  0  0  0  0  0  0
  -28.1627  -34.1271   23.6814 C   0  0  0  0  0  0  0  0  0  0  0  0
  -25.5221  -28.6326   20.7340 C   0  0  0  0  0  0  0  0  0  0  0  0
  -29.0250  -20.8175   20.7855 C   0  0  0  0  0  0  0  0  0  0  0  0
  -28.9557  -19.9200   19.7200 C   0  0  0  0  0  0  0  0  0  0  0  0
  -23.4172  -18.9866   21.4418 C   0  0  0  0  0  0  0  0  0  0  0  0
  -26.9650  -27.2312   19.3687 C   0  0  0  0  0  0  0  0  0  0  0  0
  -29.2388  -22.6512   19.2271 C   0  0  0  0  0  0  0  0  0  0  0  0
  -22.0927  -20.7618   20.6564 C   0  0  0  0  0  0  0  0  0  0  0  0
  -20.3462  -21.7753   18.7316 C   0  0  0  0  0  0  0  0  0  0  0  0
  -22.4381  -21.9036   19.9334 C   0  0  0  0  0  0  0  0  0  0  0  0
  -24.8416  -15.0384   20.9121 C   0  0  0  0  0  0  0  0  0  0  0  0
  -25.0069  -12.8828   20.5109 C   0  0  0  0  0  0  0  0  0  0  0  0
  -22.6886  -13.7862   20.2706 C   0  0  0  0  0  0  0  0  0  0  0  0
  -25.9503  -31.2956   22.8204 C   0  0  0  0  0  0  0  0  0  0  0  0
  -22.8542  -30.3300   22.8857 C   0  0  0  0  0  0  0  0  0  0  0  0
  -20.4880  -28.1124   21.8227 C   0  0  0  0  0  0  0  0  0  0  0  0
  -29.5702  -15.8113   21.5399 C   0  0  0  0  0  0  0  0  0  0  0  0
  -27.0728  -35.4498   25.5665 C   0  0  0  0  0  0  0  0  0  0  0  0
  -25.4242  -31.1257   20.3607 C   0  0  0  0  0  0  0  0  0  0  0  0
  -24.5115  -28.7370   21.8459 C   0  0  0  0  0  0  0  0  0  0  0  0
  -26.0915  -34.2877   25.6961 C   0  0  0  0  0  0  0  0  0  0  0  0
  -28.2228  -13.0623   23.3824 C   0  0  0  0  0  0  0  0  0  0  0  0
  -31.7892  -16.5780   18.7763 C   0  0  0  0  0  0  0  0  0  0  0  0
  -27.5959  -20.1352   22.8266 C   0  0  0  0  0  0  0  0  0  0  0  0
  -28.4542  -21.2811   23.2629 C   0  0  0  0  0  0  0  0  0  0  0  0
  -26.8076  -32.9579   25.4820 C   0  0  0  0  0  0  0  0  0  0  0  0
  -27.7372  -12.0812   22.3211 C   0  0  0  0  0  0  0  0  0  0  0  0
  -30.9691  -17.8604   18.7859 C   0  0  0  0  0  0  0  0  0  0  0  0
  -29.4892  -13.7670   22.9214 C   0  0  0  0  0  0  0  0  0  0  0  0
  -30.8118  -15.5544   19.3328 C   0  0  0  0  0  0  0  0  0  0  0  0
  -28.7740  -13.6047   20.5448 C   0  0  0  0  0  0  0  0  0  0  0  0
  -28.9483  -20.3391   22.1975 C   0  0  0  0  0  0  0  0  0  0  0  0
  -27.4082  -32.8752   24.0735 C   0  0  1  0  0  0  0  0  0  0  0  0
  -24.8699  -31.2248   21.7786 C   0  0  1  0  0  0  0  0  0  0  0  0
  -27.5544  -12.7433   20.9460 C   0  0  2  0  0  0  0  0  0  0  0  0
  -30.1527  -17.7458   20.0762 C   0  0  1  0  0  0  0  0  0  0  0  0
  -18.0542  -27.5560   22.0766 C   0  0  0  0  0  0  0  0  0  0  0  0
  -23.4188  -29.1240   25.6310 C   0  0  0  0  0  0  0  0  0  0  0  0
  -21.3051  -27.8008   25.4072 C   0  0  0  0  0  0  0  0  0  0  0  0
  -21.2167  -30.2936   25.4382 C   0  0  0  0  0  0  0  0  0  0  0  0
  -19.9712  -28.5362   18.9396 C   0  0  0  0  0  0  0  0  0  0  0  0
  -28.8027  -18.4416   19.9590 C   0  0  0  0  0  0  0  0  0  0  0  0
  -28.3971  -25.9299   17.9860 C   0  0  0  0  0  0  0  0  0  1  0  0
  -28.8126  -24.4867   17.7761 C   0  0  0  0  0  0  0  0  0  0  0  0
  -22.1251  -29.1109   23.3966 C   0  0  1  0  0  0  0  0  0  0  0  0
  -19.0906  -28.3196   21.2669 C   0  0  2  0  0  0  0  0  0  0  0  0
  -22.0369  -29.0802   24.9486 C   0  0  0  0  0  0  0  0  0  0  0  0
  -26.1361  -14.7628   21.0922 N   0  0  0  0  0  0  0  0  0  0  0  0
  -26.2051  -13.4444   20.8411 N   0  0  0  0  0  0  0  0  0  0  0  0
  -24.0112  -30.0921   22.1302 N   0  0  0  0  0  0  0  0  0  0  0  0
  -29.3049  -14.4371   21.6339 N   0  0  0  0  0  0  0  0  0  0  0  0
  -30.0252  -16.3030   20.3143 N   0  0  0  0  0  0  0  0  0  0  0  0
  -24.8969  -11.5675   20.2276 N   0  0  0  0  0  0  0  0  0  0  0  0
  -21.8910  -14.9355   20.3556 N   0  0  0  0  0  0  0  0  0  0  0  0
  -26.3778  -32.5793   23.1013 N   0  0  0  0  0  0  0  0  0  0  0  0
  -20.8305  -29.0979   22.7242 N   0  0  0  0  0  0  0  0  0  0  0  0
  -19.0207  -27.8520   19.8536 N   0  3  0  0  0  0  0  0  0  0  0  0
  -22.1564  -12.6903   19.9719 O   0  0  0  0  0  0  0  0  0  0  0  0
  -26.3642  -30.2622   23.3328 O   0  0  0  0  0  0  0  0  0  0  0  0
  -22.4095  -31.4519   23.1412 O   0  0  0  0  0  0  0  0  0  0  0  0
  -21.2028  -27.1684   21.4930 O   0  0  0  0  0  0  0  0  0  0  0  0
  -29.4173  -16.5646   22.5107 O   0  0  0  0  0  0  0  0  0  0  0  0
  -22.9590  -20.2569   21.6116 O   0  0  0  0  0  0  0  0  0  0  0  0
  -27.4525  -25.9916   19.0480 O   0  0  0  0  0  0  0  0  0  1  0  0
  -29.3772  -23.9836   18.9861 O   0  0  0  0  0  0  0  0  0  0  0  0
  -19.5081  -22.2610   17.8064 F   0  0  0  0  0  0  0  0  0  0  0  0
  -23.6079  -22.5173   20.1583 F   0  0  0  0  0  0  0  0  0  0  0  0
  1  2  1  0  0  0  0
  1  5  2  0  0  0  0
  2  6  2  0  0  0  0
  3  9  2  0  0  0  0
  3 18  1  0  0  0  0
  4 10  1  0  0  0  0
  4 18  2  0  0  0  0
  5 20  1  0  0  0  0
  6 22  1  0  0  0  0
  7 11  2  0  0  0  0
  7 21  1  0  0  0  0
  8 12  2  0  0  0  0
  8 25  1  0  0  0  0
  9 26  1  0  0  0  0
 10 26  2  0  0  0  0
 11 27  1  0  0  0  0
 12 28  1  0  0  0  0
 13 14  2  0  0  0  0
 13 29  1  0  0  0  0
 14 30  1  0  0  0  0
 15 23  1  0  0  0  0
 15 27  2  0  0  0  0
 16 24  1  0  0  0  0
 16 28  2  0  0  0  0
 17 30  2  0  0  0  0
 17 31  1  0  0  0  0
 18 32  1  0  0  0  0
 19 32  1  0  0  0  0
 19 33  2  0  0  0  0
 19 34  1  0  0  0  0
 20 22  2  0  0  0  0
 20 39  1  0  0  0  0
 21 23  2  0  0  0  0
 21 40  1  0  0  0  0
 22 54  1  0  0  0  0
 23 41  1  0  0  0  0
 24 25  2  0  0  0  0
 24 53  1  0  0  0  0
 25 63  1  0  0  0  0
 26 84  1  0  0  0  0
 27 85  1  0  0  0  0
 28 86  1  0  0  0  0
 29 31  2  0  0  0  0
 29 84  1  0  0  0  0
 30 87  1  0  0  0  0
 31 88  1  0  0  0  0
 32 69  2  0  0  0  0
 33 70  1  0  0  0  0
 33 74  1  0  0  0  0
 34 75  1  0  0  0  0
 34 79  2  0  0  0  0
 35 55  1  0  0  0  0
 35 76  1  0  0  0  0
 35 80  2  0  0  0  0
 36 66  1  0  0  0  0
 36 71  1  0  0  0  0
 36 81  2  0  0  0  0
 37 67  1  0  0  0  0
 37 77  1  0  0  0  0
 37 82  2  0  0  0  0
 38 72  1  0  0  0  0
 38 73  1  0  0  0  0
 38 83  2  0  0  0  0
 39 42  1  0  0  0  0
 40 55  1  0  0  0  0
 41 71  1  0  0  0  0
 42 47  1  0  0  0  0
 43 48  1  0  0  0  0
 43 50  1  0  0  0  0
 44 49  1  0  0  0  0
 44 51  1  0  0  0  0
 45 46  1  0  0  0  0
 45 53  1  0  0  0  0
 46 53  1  0  0  0  0
 47 54  1  0  0  0  0
 48 56  1  0  0  0  0
 49 57  1  0  0  0  0
 50 72  1  0  0  0  0
 51 73  1  0  0  0  0
 52 56  1  0  0  0  0
 52 72  1  0  0  0  0
 54 76  1  0  0  0  0
 55 71  1  0  0  0  0
 56 70  1  0  0  0  0
 57 63  1  0  0  0  0
 57 73  1  0  0  0  0
 58 67  1  0  0  0  0
 59 68  1  0  0  0  0
 60 68  1  0  0  0  0
 61 68  1  0  0  0  0
 62 78  1  0  0  0  0
 64 65  1  0  0  0  0
 64 85  1  0  0  0  0
 65 86  1  0  0  0  0
 66 68  1  0  0  0  0
 66 77  1  0  0  0  0
 67 78  1  0  0  0  0
 69 70  1  0  0  0  0
M  CHG  1  78   1
M  ISO  4  38 100  64 101  73 100  85 101
M  END
> <Batch ID>
0164

> <Smiles>
CNC(C)C(=O)NC(C(=O)N1Cc2cc([101O:1][101CH2:1]COc3ccc(CC4CCC[100N:0]4[100C:0](=O)N4CCCC(n5nc(-c6ccc(Oc7ccc(F)cc7F)cc6)c(C(N)=O)c5N)C4)c(C4CC4)c3)ccc2CC1C(=O)NC1CCCc2ccccc21)C(C)(C)C

> <Shape>
0.293

> <Color>
0.067

> <Negative vol penalty>
0.000

$$$$

  -OEChem-04052322193D

 87 96  0     1  0  0  0  0  0999 V2000
  -21.1528  -33.3761   26.7801 C   0  0  0  0  0  0  0  0  0  0  0  0
  -21.5236  -34.2733   25.7848 C   0  0  0  0  0  0  0  0  0  0  0  0
  -24.5071   -9.1237   22.0917 C   0  0  0  0  0  0  0  0  0  0  0  0
  -23.5301   -9.6341   19.9418 C   0  0  0  0  0  0  0  0  0  0  0  0
  -22.1191  -32.5785   27.3894 C   0  0  0  0  0  0  0  0  0  0  0  0
  -22.8588  -34.3646   25.3902 C   0  0  0  0  0  0  0  0  0  0  0  0
  -28.0513  -30.6094   21.1249 C   0  0  0  0  0  0  0  0  0  0  0  0
  -23.4383   -8.2737   22.3757 C   0  0  0  0  0  0  0  0  0  0  0  0
  -22.4612   -8.7840   20.2258 C   0  0  0  0  0  0  0  0  0  0  0  0
  -28.1786  -29.2379   20.9097 C   0  0  0  0  0  0  0  0  0  0  0  0
  -22.4677   -5.1369   21.5686 C   0  0  0  0  0  0  0  0  0  0  0  0
  -22.7604   -3.8891   22.1191 C   0  0  0  0  0  0  0  0  0  0  0  0
  -25.7873  -29.0637   20.6444 C   0  0  0  0  0  0  0  0  0  0  0  0
  -21.4425   -4.4398   24.0677 C   0  0  0  0  0  0  0  0  0  0  0  0
  -24.5530   -9.8039   20.8748 C   0  0  0  0  0  0  0  0  0  0  0  0
  -26.8683  -10.3437   19.9497 C   0  0  0  0  0  0  0  0  0  0  0  0
  -23.4685  -32.6697   27.0101 C   0  0  0  0  0  0  0  0  0  0  0  0
  -26.7879  -31.2177   21.1123 C   0  0  0  0  0  0  0  0  0  0  0  0
  -23.8452  -33.5510   25.9764 C   0  0  0  0  0  0  0  0  0  0  0  0
  -25.6469  -30.4436   20.8572 C   0  0  0  0  0  0  0  0  0  0  0  0
  -28.8223  -24.6222   18.9706 C   0  0  0  0  0  0  0  0  0  0  0  0
  -27.9630  -24.2274   21.1937 C   0  0  0  0  0  0  0  0  0  0  0  0
  -28.4213  -25.1089   20.2147 C   0  0  0  0  0  0  0  0  0  0  0  0
  -28.7650  -23.2540   18.7054 C   0  0  0  0  0  0  0  0  0  0  0  0
  -27.9057  -22.8591   20.9286 C   0  0  0  0  0  0  0  0  0  0  0  0
  -28.3067  -22.3724   19.6844 C   0  0  0  0  0  0  0  0  0  0  0  0
  -22.4154   -8.1038   21.4427 C   0  0  0  0  0  0  0  0  0  0  0  0
  -27.0462  -28.4643   20.6723 C   0  0  0  0  0  0  0  0  0  0  0  0
  -21.6626   -6.0362   22.2677 C   0  0  0  0  0  0  0  0  0  0  0  0
  -22.2477   -3.5406   23.3686 C   0  0  0  0  0  0  0  0  0  0  0  0
  -21.1500   -5.6876   23.5172 C   0  0  0  0  0  0  0  0  0  0  0  0
  -25.6566  -10.6826   20.5811 C   0  0  0  0  0  0  0  0  0  0  0  0
  -27.5744  -11.5210   19.9073 C   0  0  0  0  0  0  0  0  0  0  0  0
  -27.3156   -9.0778   19.4464 C   0  0  0  0  0  0  0  0  0  0  0  0
  -25.0412  -32.8052   23.2413 C   0  0  0  0  0  0  0  0  0  0  0  0
  -23.0773  -33.2723   20.7022 C   0  0  0  0  0  0  0  0  0  0  0  0
  -21.9998  -32.2180   17.6404 C   0  0  0  0  0  0  0  0  0  0  0  0
  -28.0235  -16.7962   19.0047 C   0  0  0  0  0  0  0  0  0  0  0  0
  -24.4718  -31.7771   27.6973 C   0  0  0  0  0  0  0  0  0  0  0  0
  -26.6700  -32.7028   21.3197 C   0  0  0  0  0  0  0  0  0  0  0  0
  -24.2696  -31.0516   20.8132 C   0  0  0  0  0  0  0  0  0  0  0  0
  -25.9093  -32.2578   27.5278 C   0  0  0  0  0  0  0  0  0  0  0  0
  -26.7313  -15.9613   22.1627 C   0  0  0  0  0  0  0  0  0  0  0  0
  -26.1897  -32.5516   26.0617 C   0  0  0  0  0  0  0  0  0  0  0  0
  -26.4291  -14.4738   21.9837 C   0  0  0  0  0  0  0  0  0  0  0  0
  -26.3646  -16.7741   20.9199 C   0  0  0  0  0  0  0  0  0  0  0  0
  -29.4142  -20.1588   19.7194 C   0  0  0  0  0  0  0  0  0  0  0  0
  -26.9340  -20.3464   19.4747 C   0  0  0  0  0  0  0  0  0  0  0  0
  -29.3759  -18.8572   18.9230 C   0  0  0  0  0  0  0  0  0  0  0  0
  -26.9414  -19.0498   18.6726 C   0  0  0  0  0  0  0  0  0  0  0  0
  -26.6701  -14.7788   19.4904 C   0  0  0  0  0  0  0  0  0  0  0  0
  -25.2962  -33.6895   25.5521 C   0  0  1  0  0  0  0  0  0  0  0  0
  -25.2853  -33.1317   21.7951 C   0  0  1  0  0  0  0  0  0  0  0  0
  -27.0825  -13.9278   20.7016 C   0  0  2  0  0  0  0  0  0  0  0  0
  -29.3147  -25.5681   17.9206 C   0  0  0  0  0  0  0  0  0  0  0  0
  -27.5318  -24.7501   22.5278 C   0  0  0  0  0  0  0  0  0  0  0  0
  -29.1966  -22.7354   17.3692 C   0  0  0  0  0  0  0  0  0  0  0  0
  -27.4126  -21.9159   21.9817 C   0  0  0  0  0  0  0  0  0  0  0  0
  -20.3581  -32.7821   15.8282 C   0  0  0  0  0  0  0  0  0  0  0  0
  -20.8125  -32.1403   22.4049 C   0  0  0  0  0  0  0  0  0  0  0  0
  -19.4781  -31.8425   20.3076 C   0  0  0  0  0  0  0  0  0  0  0  0
  -20.1846  -34.1262   21.0205 C   0  0  0  0  0  0  0  0  0  0  0  0
  -24.1551  -32.6157   15.6516 C   0  0  0  0  0  0  0  0  0  0  0  0
  -28.4826  -26.5768   20.4990 C   0  0  0  0  0  0  0  0  0  1  0  0
  -21.9116  -32.5252   20.1006 C   0  0  1  0  0  0  0  0  0  0  0  0
  -21.7791  -32.9657   16.3378 C   0  0  2  0  0  0  0  0  0  0  0  0
  -20.6223  -32.6464   20.9611 C   0  0  0  0  0  0  0  0  0  0  0  0
  -25.5932  -11.9740   20.9159 N   0  0  0  0  0  0  0  0  0  0  0  0
  -26.7740  -12.4570   20.4934 N   0  0  0  0  0  0  0  0  0  0  0  0
  -28.2496  -20.9984   19.4183 N   0  0  0  0  0  0  0  0  0  0  0  0
  -24.2057  -32.5067   21.0282 N   0  0  0  0  0  0  0  0  0  0  0  0
  -26.9771  -16.1925   19.7180 N   0  0  0  0  0  0  0  0  0  0  0  0
  -28.0793  -18.1986   19.0260 N   0  0  0  0  0  0  0  0  0  0  0  0
  -28.7957  -11.8365   19.4264 N   0  0  0  0  0  0  0  0  0  0  0  0
  -26.4649   -7.9709   19.5710 N   0  0  0  0  0  0  0  0  0  0  0  0
  -25.4406  -33.7967   24.1170 N   0  0  0  0  0  0  0  0  0  0  0  0
  -21.7685  -33.0221   18.7364 N   0  0  0  0  0  0  0  0  0  0  0  0
  -22.7205  -32.4740   15.2924 N   0  3  0  0  0  0  0  0  0  0  0  0
  -28.4430   -8.9291   18.9170 O   0  0  0  0  0  0  0  0  0  0  0  0
  -24.5271  -31.7338   23.5404 O   0  0  0  0  0  0  0  0  0  0  0  0
  -22.9926  -34.4914   20.8698 O   0  0  0  0  0  0  0  0  0  0  0  0
  -22.3395  -31.0376   17.6816 O   0  0  0  0  0  0  0  0  0  0  0  0
  -28.8601  -16.1248   18.3881 O   0  0  0  0  0  0  0  0  0  0  0  0
  -21.3724   -7.2742   21.7194 O   0  0  0  0  0  0  0  0  0  0  0  0
  -27.1685  -27.1152   20.4610 O   0  0  0  0  0  0  0  0  0  1  0  0
  -22.5276   -2.3417   23.8965 F   0  0  0  0  0  0  0  0  0  0  0  0
  -20.3749   -6.5469   24.1930 F   0  0  0  0  0  0  0  0  0  0  0  0
  1  2  1  0  0  0  0
  1  5  2  0  0  0  0
  2  6  2  0  0  0  0
  3  8  2  0  0  0  0
  3 15  1  0  0  0  0
  4  9  1  0  0  0  0
  4 15  2  0  0  0  0
  5 17  1  0  0  0  0
  6 19  1  0  0  0  0
  7 10  2  0  0  0  0
  7 18  1  0  0  0  0
  8 27  1  0  0  0  0
  9 27  2  0  0  0  0
 10 28  1  0  0  0  0
 11 12  2  0  0  0  0
 11 29  1  0  0  0  0
 12 30  1  0  0  0  0
 13 20  1  0  0  0  0
 13 28  2  0  0  0  0
 14 30  2  0  0  0  0
 14 31  1  0  0  0  0
 15 32  1  0  0  0  0
 16 32  1  0  0  0  0
 16 33  2  0  0  0  0
 16 34  1  0  0  0  0
 17 19  2  0  0  0  0
 17 39  1  0  0  0  0
 18 20  2  0  0  0  0
 18 40  1  0  0  0  0
 19 52  1  0  0  0  0
 20 41  1  0  0  0  0
 21 23  1  0  0  0  0
 21 24  2  0  0  0  0
 21 55  1  0  0  0  0
 22 23  2  0  0  0  0
 22 25  1  0  0  0  0
 22 56  1  0  0  0  0
 23 64  1  0  0  0  0
 24 26  1  0  0  0  0
 24 57  1  0  0  0  0
 25 26  2  0  0  0  0
 25 58  1  0  0  0  0
 26 70  1  0  0  0  0
 27 84  1  0  0  0  0
 28 85  1  0  0  0  0
 29 31  2  0  0  0  0
 29 84  1  0  0  0  0
 30 86  1  0  0  0  0
 31 87  1  0  0  0  0
 32 68  2  0  0  0  0
 33 69  1  0  0  0  0
 33 74  1  0  0  0  0
 34 75  1  0  0  0  0
 34 79  2  0  0  0  0
 35 53  1  0  0  0  0
 35 76  1  0  0  0  0
 35 80  2  0  0  0  0
 36 65  1  0  0  0  0
 36 71  1  0  0  0  0
 36 81  2  0  0  0  0
 37 66  1  0  0  0  0
 37 77  1  0  0  0  0
 37 82  2  0  0  0  0
 38 72  1  0  0  0  0
 38 73  1  0  0  0  0
 38 83  2  0  0  0  0
 39 42  1  0  0  0  0
 40 53  1  0  0  0  0
 41 71  1  0  0  0  0
 42 44  1  0  0  0  0
 43 45  1  0  0  0  0
 43 46  1  0  0  0  0
 44 52  1  0  0  0  0
 45 54  1  0  0  0  0
 46 72  1  0  0  0  0
 47 49  1  0  0  0  0
 47 70  1  0  0  0  0
 48 50  1  0  0  0  0
 48 70  1  0  0  0  0
 49 73  1  0  0  0  0
 50 73  1  0  0  0  0
 51 54  1  0  0  0  0
 51 72  1  0  0  0  0
 52 76  1  0  0  0  0
 53 71  1  0  0  0  0
 54 69  1  0  0  0  0
 59 66  1  0  0  0  0
 60 67  1  0  0  0  0
 61 67  1  0  0  0  0
 62 67  1  0  0  0  0
 63 78  1  0  0  0  0
 64 85  1  0  0  0  0
 65 67  1  0  0  0  0
 65 77  1  0  0  0  0
 66 78  1  0  0  0  0
 68 69  1  0  0  0  0
M  CHG  1  78   1
M  ISO  4  38 100  64 101  73 100  85 101
M  END
> <Batch ID>
0164

> <Smiles>
CNC(C)C(=O)NC(C(=O)N1Cc2cc([101O:1][101CH2:1]c3c(C)c(C)c(N4CC[100N:0]([100C:0](=O)N5CCCC(n6nc(-c7ccc(Oc8ccc(F)cc8F)cc7)c(C(N)=O)c6N)C5)CC4)c(C)c3C)ccc2CC1C(=O)NC1CCCc2ccccc21)C(C)(C)C

> <Shape>
0.280

> <Color>
0.085

> <Negative vol penalty>
0.000

$$$$

  -OEChem-04052322193D

 82 91  0     1  0  0  0  0  0999 V2000
  -29.8753  -35.5275   21.4203 C   0  0  0  0  0  0  0  0  0  0  0  0
  -30.2106  -34.3686   20.7275 C   0  0  0  0  0  0  0  0  0  0  0  0
  -26.0030   -9.7947   23.1221 C   0  0  0  0  0  0  0  0  0  0  0  0
  -25.2804   -8.5384   21.1890 C   0  0  0  0  0  0  0  0  0  0  0  0
  -29.0541  -35.4533   22.5446 C   0  0  0  0  0  0  0  0  0  0  0  0
  -29.7258  -33.1346   21.1594 C   0  0  0  0  0  0  0  0  0  0  0  0
  -27.6167  -26.7712   18.6345 C   0  0  0  0  0  0  0  0  0  0  0  0
  -25.5076   -8.7938   23.9578 C   0  0  0  0  0  0  0  0  0  0  0  0
  -24.7851   -7.5375   22.0247 C   0  0  0  0  0  0  0  0  0  0  0  0
  -27.8531  -25.4090   18.8143 C   0  0  0  0  0  0  0  0  0  0  0  0
  -23.0083   -4.8199   23.6580 C   0  0  0  0  0  0  0  0  0  0  0  0
  -21.7443   -4.3037   23.3727 C   0  0  0  0  0  0  0  0  0  0  0  0
  -26.3778  -25.4111   20.7229 C   0  0  0  0  0  0  0  0  0  0  0  0
  -20.7829   -6.5022   23.6552 C   0  0  0  0  0  0  0  0  0  0  0  0
  -25.8893   -9.6670   21.7377 C   0  0  0  0  0  0  0  0  0  0  0  0
  -27.6959  -10.7914   20.3306 C   0  0  0  0  0  0  0  0  0  0  0  0
  -28.5512  -34.2188   22.9848 C   0  0  0  0  0  0  0  0  0  0  0  0
  -26.7662  -27.4671   19.5056 C   0  0  0  0  0  0  0  0  0  0  0  0
  -28.8982  -33.0436   22.2915 C   0  0  0  0  0  0  0  0  0  0  0  0
  -26.1303  -26.7815   20.5504 C   0  0  0  0  0  0  0  0  0  0  0  0
  -24.8987   -7.6652   23.4091 C   0  0  0  0  0  0  0  0  0  0  0  0
  -27.2359  -24.7294   19.8603 C   0  0  0  0  0  0  0  0  0  0  0  0
  -23.1597   -6.1771   23.9420 C   0  0  0  0  0  0  0  0  0  0  0  0
  -20.6316   -5.1449   23.3713 C   0  0  0  0  0  0  0  0  0  0  0  0
  -22.0470   -7.0183   23.9405 C   0  0  0  0  0  0  0  0  0  0  0  0
  -26.4003  -10.7009   20.8739 C   0  0  0  0  0  0  0  0  0  0  0  0
  -27.6763  -11.9458   19.5866 C   0  0  0  0  0  0  0  0  0  0  0  0
  -27.9259  -20.0078   18.8880 C   0  0  0  0  0  0  0  0  0  0  0  0
  -28.8167   -9.9107   20.4846 C   0  0  0  0  0  0  0  0  0  0  0  0
  -27.1238  -29.8941   21.5268 C   0  0  0  0  0  0  0  0  0  0  0  0
  -23.9034  -29.6251   21.8089 C   0  0  0  0  0  0  0  0  0  0  0  0
  -21.1251  -27.6622   21.5354 C   0  0  0  0  0  0  0  0  0  0  0  0
  -26.2548  -17.4128   19.4105 C   0  0  0  0  0  0  0  0  0  0  0  0
  -27.7056  -34.1830   24.2332 C   0  0  0  0  0  0  0  0  0  0  0  0
  -26.5006  -28.9306   19.2820 C   0  0  0  0  0  0  0  0  0  0  0  0
  -25.1925  -27.4783   21.5010 C   0  0  0  0  0  0  0  0  0  0  0  0
  -26.9285  -32.8803   24.4053 C   0  0  0  0  0  0  0  0  0  0  0  0
  -23.8317  -14.9202   18.1949 C   0  0  0  0  0  0  0  0  0  0  0  0
  -29.2998  -17.3590   17.3634 C   0  0  0  0  0  0  0  0  0  0  0  0
  -27.8352  -31.6803   24.1508 C   0  0  0  0  0  0  0  0  0  0  0  0
  -24.3682  -13.6168   18.7886 C   0  0  0  0  0  0  0  0  0  0  0  0
  -29.7920  -18.2589   18.4900 C   0  0  0  0  0  0  0  0  0  0  0  0
  -28.6519  -19.1129   20.6982 C   0  0  0  0  0  0  0  0  0  0  0  0
  -24.1752  -16.1275   19.0639 C   0  0  0  0  0  0  0  0  0  0  0  0
  -28.2180  -16.5280   18.0343 C   0  0  0  0  0  0  0  0  0  0  0  0
  -26.1403  -14.9555   19.9832 C   0  0  0  0  0  0  0  0  0  0  0  0
  -28.3719  -31.6892   22.7144 C   0  0  1  0  0  0  0  0  0  0  0  0
  -28.1359  -20.5309   20.3229 C   0  0  1  0  0  0  0  0  0  0  0  0
  -26.0188  -29.6492   20.5385 C   0  0  1  0  0  0  0  0  0  0  0  0
  -25.8720  -13.7275   19.1024 C   0  0  1  0  0  0  0  0  0  0  0  0
  -28.5077  -18.6214   19.2338 C   0  0  1  0  0  0  0  0  0  0  0  0
  -18.6386  -27.7101   21.8708 C   0  0  0  0  0  0  0  0  0  0  0  0
  -29.2834  -22.0574   21.9311 C   0  0  0  0  0  0  0  0  0  0  0  0
  -24.3093  -29.4348   24.8271 C   0  0  0  0  0  0  0  0  0  0  0  0
  -21.9755  -28.5480   25.0148 C   0  0  0  0  0  0  0  0  0  0  0  0
  -22.3673  -30.8443   24.1224 C   0  0  0  0  0  0  0  0  0  0  0  0
  -20.6120  -27.0809   18.6793 C   0  0  0  0  0  0  0  0  0  0  0  0
  -28.7365  -22.8987   19.6306 C   0  0  0  0  0  0  0  0  0  1  0  0
  -22.9700  -28.8424   22.7007 C   0  0  1  0  0  0  0  0  0  0  0  0
  -19.7771  -27.9098   20.8826 C   0  0  2  0  0  0  0  0  0  0  0  0
  -29.1326  -21.6656   20.4551 C   0  0  2  0  0  0  0  0  0  0  0  0
  -22.9247  -29.4044   24.1497 C   0  0  0  0  0  0  0  0  0  0  0  0
  -25.6150  -11.7169   20.5066 N   0  0  0  0  0  0  0  0  0  0  0  0
  -26.4194  -12.4569   19.7245 N   0  0  0  0  0  0  0  0  0  0  0  0
  -24.9700  -28.9109   21.2448 N   0  0  0  0  0  0  0  0  0  0  0  0
  -25.6067  -16.1716   19.3600 N   0  0  0  0  0  0  0  0  0  0  0  0
  -27.5956  -17.4480   19.0071 N   0  0  0  0  0  0  0  0  0  0  0  0
  -28.6119  -12.5635   18.8346 N   0  0  0  0  0  0  0  0  0  0  0  0
  -28.6649   -8.7695   21.2839 N   0  0  0  0  0  0  0  0  0  0  0  0
  -27.3554  -31.2303   21.7922 N   0  0  0  0  0  0  0  0  0  0  0  0
  -21.6772  -28.8271   22.0250 N   0  0  0  0  0  0  0  0  0  0  0  0
  -19.5761  -26.9757   19.7389 N   0  3  0  0  0  0  0  0  0  0  0  0
  -27.4820  -20.5036   17.8734 O   0  0  0  0  0  0  0  0  0  0  0  0
  -29.9252  -10.1378   19.9430 O   0  0  0  0  0  0  0  0  0  0  0  0
  -27.7209  -28.9412   22.0138 O   0  0  0  0  0  0  0  0  0  0  0  0
  -23.6899  -30.8243   21.6142 O   0  0  0  0  0  0  0  0  0  0  0  0
  -21.6354  -26.5465   21.6075 O   0  0  0  0  0  0  0  0  0  0  0  0
  -25.6511  -18.4355   19.7566 O   0  0  0  0  0  0  0  0  0  0  0  0
  -24.4154   -6.6881   24.2242 O   0  0  0  0  0  0  0  0  0  0  0  0
  -27.4670  -23.3904   20.0397 O   0  0  0  0  0  0  0  0  0  1  0  0
  -19.4180   -4.6495   23.0957 F   0  0  0  0  0  0  0  0  0  0  0  0
  -22.1863   -8.3233   24.2114 F   0  0  0  0  0  0  0  0  0  0  0  0
  1  2  1  0  0  0  0
  1  5  2  0  0  0  0
  2  6  2  0  0  0  0
  3  8  2  0  0  0  0
  3 15  1  0  0  0  0
  4  9  1  0  0  0  0
  4 15  2  0  0  0  0
  5 17  1  0  0  0  0
  6 19  1  0  0  0  0
  7 10  2  0  0  0  0
  7 18  1  0  0  0  0
  8 21  1  0  0  0  0
  9 21  2  0  0  0  0
 10 22  1  0  0  0  0
 11 12  2  0  0  0  0
 11 23  1  0  0  0  0
 12 24  1  0  0  0  0
 13 20  1  0  0  0  0
 13 22  2  0  0  0  0
 14 24  2  0  0  0  0
 14 25  1  0  0  0  0
 15 26  1  0  0  0  0
 16 26  1  0  0  0  0
 16 27  2  0  0  0  0
 16 29  1  0  0  0  0
 17 19  2  0  0  0  0
 17 34  1  0  0  0  0
 18 20  2  0  0  0  0
 18 35  1  0  0  0  0
 19 47  1  0  0  0  0
 20 36  1  0  0  0  0
 21 79  1  0  0  0  0
 22 80  1  0  0  0  0
 23 25  2  0  0  0  0
 23 79  1  0  0  0  0
 24 81  1  0  0  0  0
 25 82  1  0  0  0  0
 26 63  2  0  0  0  0
 27 64  1  0  0  0  0
 27 68  1  0  0  0  0
 28 48  1  0  0  0  0
 28 51  1  0  0  0  0
 28 73  2  0  0  0  0
 29 69  1  0  0  0  0
 29 74  2  0  0  0  0
 30 49  1  0  0  0  0
 30 70  1  0  0  0  0
 30 75  2  0  0  0  0
 31 59  1  0  0  0  0
 31 65  1  0  0  0  0
 31 76  2  0  0  0  0
 32 60  1  0  0  0  0
 32 71  1  0  0  0  0
 32 77  2  0  0  0  0
 33 66  1  0  0  0  0
 33 67  1  0  0  0  0
 33 78  2  0  0  0  0
 34 37  1  0  0  0  0
 35 49  1  0  0  0  0
 36 65  1  0  0  0  0
 37 40  1  0  0  0  0
 38 41  1  0  0  0  0
 38 44  1  0  0  0  0
 39 42  1  0  0  0  0
 39 45  1  0  0  0  0
 40 47  1  0  0  0  0
 41 50  1  0  0  0  0
 42 51  1  0  0  0  0
 43 48  1  0  0  0  0
 43 51  1  0  0  0  0
 44 66  1  0  0  0  0
 45 67  1  0  0  0  0
 46 50  1  0  0  0  0
 46 66  1  0  0  0  0
 47 70  1  0  0  0  0
 48 61  1  0  0  0  0
 49 65  1  0  0  0  0
 50 64  1  0  0  0  0
 51 67  1  0  0  0  0
 52 60  1  0  0  0  0
 53 61  1  0  0  0  0
 54 62  1  0  0  0  0
 55 62  1  0  0  0  0
 56 62  1  0  0  0  0
 57 72  1  0  0  0  0
 58 61  1  0  0  0  0
 58 80  1  0  0  0  0
 59 62  1  0  0  0  0
 59 71  1  0  0  0  0
 60 72  1  0  0  0  0
 63 64  1  0  0  0  0
M  CHG  1  72   1
M  ISO  4  33 100  58 101  67 100  80 101
M  END
> <Batch ID>
0164

> <Smiles>
CNC(C)C(=O)NC(C(=O)N1Cc2cc([101O:1][101CH2:1]C(C)C3CC4(CCC[100N:0]4[100C:0](=O)N4CCCC(n5nc(-c6ccc(Oc7ccc(F)cc7F)cc6)c(C(N)=O)c5N)C4)C3=O)ccc2CC1C(=O)NC1CCCc2ccccc21)C(C)(C)C

> <Shape>
0.268

> <Color>
0.061

> <Negative vol penalty>
0.000

$$$$

  -OEChem-04052322193D

 87 96  0     1  0  0  0  0  0999 V2000
  -30.5928  -24.9232   36.9398 C   0  0  0  0  0  0  0  0  0  0  0  0
  -30.7841  -23.8562   36.0677 C   0  0  0  0  0  0  0  0  0  0  0  0
  -23.0008   -9.8940   19.9814 C   0  0  0  0  0  0  0  0  0  0  0  0
  -23.7309   -9.9440   22.2839 C   0  0  0  0  0  0  0  0  0  0  0  0
  -29.4094  -25.6588   36.8904 C   0  0  0  0  0  0  0  0  0  0  0  0
  -29.7916  -23.5236   35.1464 C   0  0  0  0  0  0  0  0  0  0  0  0
  -30.6080  -21.3481   29.4802 C   0  0  0  0  0  0  0  0  0  0  0  0
  -22.2362   -8.7585   20.2485 C   0  0  0  0  0  0  0  0  0  0  0  0
  -22.9662   -8.8084   22.5510 C   0  0  0  0  0  0  0  0  0  0  0  0
  -30.5625  -20.0573   28.9554 C   0  0  0  0  0  0  0  0  0  0  0  0
  -23.2133   -5.4701   22.0758 C   0  0  0  0  0  0  0  0  0  0  0  0
  -23.8036   -4.4530   22.8258 C   0  0  0  0  0  0  0  0  0  0  0  0
  -27.7211  -16.2705   24.4481 C   0  0  0  0  0  0  0  0  0  0  0  0
  -28.2707  -20.4141   28.2924 C   0  0  0  0  0  0  0  0  0  0  0  0
  -26.6379  -18.5570   23.2727 C   0  0  0  0  0  0  0  0  0  0  0  0
  -22.0831   -4.6925   24.5049 C   0  0  0  0  0  0  0  0  0  0  0  0
  -23.7482  -10.4868   20.9992 C   0  0  0  0  0  0  0  0  0  0  0  0
  -24.1303  -13.0030   20.8244 C   0  0  0  0  0  0  0  0  0  0  0  0
  -28.4059  -25.3411   35.9615 C   0  0  0  0  0  0  0  0  0  0  0  0
  -29.4799  -22.1792   29.4246 C   0  0  0  0  0  0  0  0  0  0  0  0
  -28.5931  -24.2549   35.0855 C   0  0  0  0  0  0  0  0  0  0  0  0
  -28.4965  -17.4228   24.3200 C   0  0  0  0  0  0  0  0  0  0  0  0
  -28.3052  -21.7160   28.8149 C   0  0  0  0  0  0  0  0  0  0  0  0
  -26.4041  -16.2613   23.9885 C   0  0  0  0  0  0  0  0  0  0  0  0
  -27.9549  -18.5661   23.7323 C   0  0  0  0  0  0  0  0  0  0  0  0
  -25.8625  -17.4046   23.4009 C   0  0  0  0  0  0  0  0  0  0  0  0
  -22.2188   -8.2156   21.5333 C   0  0  0  0  0  0  0  0  0  0  0  0
  -29.3928  -19.5890   28.3640 C   0  0  0  0  0  0  0  0  0  0  0  0
  -22.0579   -6.0985   22.5404 C   0  0  0  0  0  0  0  0  0  0  0  0
  -23.2385   -4.0641   24.0404 C   0  0  0  0  0  0  0  0  0  0  0  0
  -21.4928   -5.7097   23.7549 C   0  0  0  0  0  0  0  0  0  0  0  0
  -24.5388  -11.6595   20.7238 C   0  0  0  0  0  0  0  0  0  0  0  0
  -25.2384  -13.7271   20.4582 C   0  0  0  0  0  0  0  0  0  0  0  0
  -22.8625  -13.5476   21.2141 C   0  0  0  0  0  0  0  0  0  0  0  0
  -27.6174  -23.5803   31.5861 C   0  0  0  0  0  0  0  0  0  0  0  0
  -26.2807  -24.9571   28.9707 C   0  0  0  0  0  0  0  0  0  0  0  0
  -25.6706  -24.8180   25.6159 C   0  0  0  0  0  0  0  0  0  0  0  0
  -30.7343  -14.6678   20.6957 C   0  0  0  0  0  0  0  0  0  0  0  0
  -27.1240  -26.1355   35.9776 C   0  0  0  0  0  0  0  0  0  0  0  0
  -29.5535  -23.5786   29.9713 C   0  0  0  0  0  0  0  0  0  0  0  0
  -27.0730  -22.5758   28.7119 C   0  0  0  0  0  0  0  0  0  0  0  0
  -26.2787  -25.9531   34.7196 C   0  0  0  0  0  0  0  0  0  0  0  0
  -29.5913  -12.2448   18.3507 C   0  0  0  0  0  0  0  0  0  0  0  0
  -26.1705  -24.4750   34.3588 C   0  0  0  0  0  0  0  0  0  0  0  0
  -28.1440  -11.9830   18.7712 C   0  0  0  0  0  0  0  0  0  0  0  0
  -30.4960  -12.4802   19.5582 C   0  0  0  0  0  0  0  0  0  0  0  0
  -28.5879  -13.2724   20.9017 C   0  0  0  0  0  0  0  0  0  0  0  0
  -31.4339  -16.1221   25.5427 C   0  0  0  0  0  0  0  0  0  0  0  0
  -27.5503  -23.8788   34.0553 C   0  0  1  0  0  0  0  0  0  0  0  0
  -29.9395  -17.4118   24.8323 C   0  0  1  0  0  0  0  0  0  0  0  0
  -28.1854  -24.1566   30.3200 C   0  0  1  0  0  0  0  0  0  0  0  0
  -30.2362  -16.8095   26.2341 C   0  0  2  0  0  0  0  0  0  0  0  0
  -27.6265  -13.0846   19.7156 C   0  0  2  0  0  0  0  0  0  0  0  0
  -25.5935  -15.0157   24.1356 C   0  0  0  0  0  0  0  0  0  0  0  0
  -28.7682  -19.8100   23.5869 C   0  0  0  0  0  0  0  0  0  0  0  0
  -24.4555  -17.4184   22.9005 C   0  0  0  0  0  0  0  0  0  0  0  0
  -24.5194  -26.0682   23.7695 C   0  0  0  0  0  0  0  0  0  0  0  0
  -23.5813  -23.9489   29.9742 C   0  0  0  0  0  0  0  0  0  0  0  0
  -22.6509  -24.3759   27.6895 C   0  0  0  0  0  0  0  0  0  0  0  0
  -23.5475  -26.2697   29.0431 C   0  0  0  0  0  0  0  0  0  0  0  0
  -28.2067  -25.2066   24.1407 C   0  0  0  0  0  0  0  0  0  0  0  0
  -30.5648  -17.7878   27.3452 C   0  0  0  0  0  0  0  0  0  1  0  0
  -30.8170  -16.8458   21.8825 C   0  0  0  0  0  0  0  0  0  0  0  0
  -31.6085  -16.6920   23.1679 C   0  0  0  0  0  0  0  0  0  0  0  0
  -25.1536  -24.5992   28.0323 C   0  0  1  0  0  0  0  0  0  0  0  0
  -25.8251  -25.8570   24.5200 C   0  0  2  0  0  0  0  0  0  0  0  0
  -23.7558  -24.7813   28.6883 C   0  0  0  0  0  0  0  0  0  0  0  0
  -25.8073  -11.5348   20.3248 N   0  0  0  0  0  0  0  0  0  0  0  0
  -26.2055  -12.8092   20.1714 N   0  0  0  0  0  0  0  0  0  0  0  0
  -27.1928  -23.9343   29.2667 N   0  0  0  0  0  0  0  0  0  0  0  0
  -29.9499  -13.5376   20.4123 N   0  0  0  0  0  0  0  0  0  0  0  0
  -25.4702  -15.0532   20.3568 N   0  0  0  0  0  0  0  0  0  0  0  0
  -21.8325  -12.6620   21.5591 N   0  0  0  0  0  0  0  0  0  0  0  0
  -27.9862  -24.2625   32.7298 N   0  0  0  0  0  0  0  0  0  0  0  0
  -25.3568  -25.3964   26.8275 N   0  0  0  0  0  0  0  0  0  0  0  0
  -30.1385  -15.6252   21.5076 N   0  0  0  0  0  0  0  0  0  0  0  0
  -30.7070  -16.2682   24.2636 N   0  3  1  0  0  0  0  0  0  0  0  0
  -26.8651  -25.4282   23.5425 N   0  3  0  0  0  0  0  0  0  0  0  0
  -22.6445  -14.7826   21.2393 O   0  0  0  0  0  0  0  0  0  0  0  0
  -26.8966  -22.5910   31.5294 O   0  0  0  0  0  0  0  0  0  0  0  0
  -26.3532  -26.1041   29.4189 O   0  0  0  0  0  0  0  0  0  0  0  0
  -25.8103  -23.6134   25.4161 O   0  0  0  0  0  0  0  0  0  0  0  0
  -31.8786  -14.8154   20.2533 O   0  0  0  0  0  0  0  0  0  0  0  0
  -21.4726   -7.1077   21.7943 O   0  0  0  0  0  0  0  0  0  0  0  0
  -29.3455  -18.3292   27.8517 O   0  0  0  0  0  0  0  0  0  1  0  0
  -23.8046   -3.0863   24.7597 F   0  0  0  0  0  0  0  0  0  0  0  0
  -20.3822   -6.3089   24.2058 F   0  0  0  0  0  0  0  0  0  0  0  0
  1  2  1  0  0  0  0
  1  5  2  0  0  0  0
  2  6  2  0  0  0  0
  3  8  2  0  0  0  0
  3 17  1  0  0  0  0
  4  9  1  0  0  0  0
  4 17  2  0  0  0  0
  5 19  1  0  0  0  0
  6 21  1  0  0  0  0
  7 10  2  0  0  0  0
  7 20  1  0  0  0  0
  8 27  1  0  0  0  0
  9 27  2  0  0  0  0
 10 28  1  0  0  0  0
 11 12  2  0  0  0  0
 11 29  1  0  0  0  0
 12 30  1  0  0  0  0
 13 22  1  0  0  0  0
 13 24  2  0  0  0  0
 14 23  1  0  0  0  0
 14 28  2  0  0  0  0
 15 25  1  0  0  0  0
 15 26  2  0  0  0  0
 16 30  2  0  0  0  0
 16 31  1  0  0  0  0
 17 32  1  0  0  0  0
 18 32  1  0  0  0  0
 18 33  2  0  0  0  0
 18 34  1  0  0  0  0
 19 21  2  0  0  0  0
 19 39  1  0  0  0  0
 20 23  2  0  0  0  0
 20 40  1  0  0  0  0
 21 49  1  0  0  0  0
 22 25  2  0  0  0  0
 22 50  1  0  0  0  0
 23 41  1  0  0  0  0
 24 26  1  0  0  0  0
 24 54  1  0  0  0  0
 25 55  1  0  0  0  0
 26 56  1  0  0  0  0
 27 84  1  0  0  0  0
 28 85  1  0  0  0  0
 29 31  2  0  0  0  0
 29 84  1  0  0  0  0
 30 86  1  0  0  0  0
 31 87  1  0  0  0  0
 32 68  2  0  0  0  0
 33 69  1  0  0  0  0
 33 72  1  0  0  0  0
 34 73  1  0  0  0  0
 34 79  2  0  0  0  0
 35 51  1  0  0  0  0
 35 74  1  0  0  0  0
 35 80  2  0  0  0  0
 36 65  1  0  0  0  0
 36 70  1  0  0  0  0
 36 81  2  0  0  0  0
 37 66  1  0  0  0  0
 37 75  1  0  0  0  0
 37 82  2  0  0  0  0
 38 71  1  0  0  0  0
 38 76  1  0  0  0  0
 38 83  2  0  0  0  0
 39 42  1  0  0  0  0
 40 51  1  0  0  0  0
 41 70  1  0  0  0  0
 42 44  1  0  0  0  0
 43 45  1  0  0  0  0
 43 46  1  0  0  0  0
 44 49  1  0  0  0  0
 45 53  1  0  0  0  0
 46 71  1  0  0  0  0
 47 53  1  0  0  0  0
 47 71  1  0  0  0  0
 48 52  1  0  0  0  0
 48 77  1  0  0  0  0
 49 74  1  0  0  0  0
 50 52  1  0  0  0  0
 50 77  1  0  0  0  0
 51 70  1  0  0  0  0
 52 62  1  0  0  0  0
 53 69  1  0  0  0  0
 57 66  1  0  0  0  0
 58 67  1  0  0  0  0
 59 67  1  0  0  0  0
 60 67  1  0  0  0  0
 61 78  1  0  0  0  0
 62 85  1  0  0  0  0
 63 64  1  0  0  0  0
 63 76  1  0  0  0  0
 64 77  1  0  0  0  0
 65 67  1  0  0  0  0
 65 75  1  0  0  0  0
 66 78  1  0  0  0  0
 68 69  1  0  0  0  0
M  CHG  2  77   1  78   1
M  ISO  4  38 100  62 101  76 100  85 101
M  END
> <Batch ID>
0164

> <Smiles>
CNC(C)C(=O)NC(C(=O)N1Cc2cc([101O:1][101CH2:1]C3CN(CC[100NH:0][100C:0](=O)N4CCCC(n5nc(-c6ccc(Oc7ccc(F)cc7F)cc6)c(C(N)=O)c5N)C4)C3c3cc(C)c(C)cc3C)ccc2CC1C(=O)NC1CCCc2ccccc21)C(C)(C)C

> <Shape>
0.168

> <Color>
0.193

> <Negative vol penalty>
0.000

$$$$

  -OEChem-04052322193D

 89 99  0     1  0  0  0  0  0999 V2000
  -25.4523  -16.0468   13.2068 C   0  0  0  0  0  0  0  0  0  0  0  0
  -26.3744  -15.4573   14.0656 C   0  0  0  0  0  0  0  0  0  0  0  0
  -27.3440  -23.5706   20.8413 C   0  0  0  0  0  0  0  0  0  0  0  0
  -29.7367  -23.4993   20.5144 C   0  0  0  0  0  0  0  0  0  0  0  0
  -24.3612  -16.7411   13.7277 C   0  0  0  0  0  0  0  0  0  0  0  0
  -26.2065  -15.5627   15.4459 C   0  0  0  0  0  0  0  0  0  0  0  0
  -27.6370  -11.3558   19.6603 C   0  0  0  0  0  0  0  0  0  0  0  0
  -27.3274  -24.9032   20.4295 C   0  0  0  0  0  0  0  0  0  0  0  0
  -29.7202  -24.8319   20.1025 C   0  0  0  0  0  0  0  0  0  0  0  0
  -28.7399  -11.2064   20.4999 C   0  0  0  0  0  0  0  0  0  0  0  0
  -26.7063  -28.4317   19.8074 C   0  0  0  0  0  0  0  0  0  0  0  0
  -25.9538  -29.3348   20.5583 C   0  0  0  0  0  0  0  0  0  0  0  0
  -27.5316  -12.3084   22.2733 C   0  0  0  0  0  0  0  0  0  0  0  0
  -27.2951  -28.8341   22.5045 C   0  0  0  0  0  0  0  0  0  0  0  0
  -35.5034  -14.6439   24.3761 C   0  0  0  0  0  0  0  0  0  0  0  0
  -28.5487  -22.8687   20.8838 C   0  0  0  0  0  0  0  0  0  0  0  0
  -28.1557  -20.9826   22.5559 C   0  0  0  0  0  0  0  0  0  0  0  0
  -24.1746  -16.8469   15.1150 C   0  0  0  0  0  0  0  0  0  0  0  0
  -26.4750  -11.9934   20.1183 C   0  0  0  0  0  0  0  0  0  0  0  0
  -25.1126  -16.2602   15.9858 C   0  0  0  0  0  0  0  0  0  0  0  0
  -26.4143  -12.4623   21.4383 C   0  0  0  0  0  0  0  0  0  0  0  0
  -34.5517  -14.1250   23.5132 C   0  0  0  0  0  0  0  0  0  0  0  0
  -34.5069  -12.7452   23.3473 C   0  0  0  0  0  0  0  0  0  0  0  0
  -35.4027  -11.9379   24.0395 C   0  0  0  0  0  0  0  0  0  0  0  0
  -28.5155  -25.5338   20.0601 C   0  0  0  0  0  0  0  0  0  0  0  0
  -28.6884  -11.6854   21.8057 C   0  0  0  0  0  0  0  0  0  0  0  0
  -27.7531  -27.7297   20.4051 C   0  0  0  0  0  0  0  0  0  0  0  0
  -26.2482  -29.5360   21.9068 C   0  0  0  0  0  0  0  0  0  0  0  0
  -28.0475  -27.9309   21.7536 C   0  0  0  0  0  0  0  0  0  0  0  0
  -28.5665  -21.4923   21.3096 C   0  0  0  0  0  0  0  0  0  0  0  0
  -36.3165  -12.5547   24.8787 C   0  0  0  0  0  0  0  0  0  0  0  0
  -28.3701  -19.6293   22.4610 C   0  0  0  0  0  0  0  0  0  0  0  0
  -27.6275  -21.6709   23.6973 C   0  0  0  0  0  0  0  0  0  0  0  0
  -24.8739  -14.6091   19.2827 C   0  0  0  0  0  0  0  0  0  0  0  0
  -22.7435  -13.5354   21.4806 C   0  0  0  0  0  0  0  0  0  0  0  0
  -22.1536  -11.6512   24.2643 C   0  0  0  0  0  0  0  0  0  0  0  0
  -32.0883  -15.8746   20.1305 C   0  0  0  0  0  0  0  0  0  0  0  0
  -23.0055  -17.6478   15.6313 C   0  0  0  0  0  0  0  0  0  0  0  0
  -25.2842  -12.1227   19.2085 C   0  0  0  0  0  0  0  0  0  0  0  0
  -25.1831  -13.1361   21.9848 C   0  0  0  0  0  0  0  0  0  0  0  0
  -22.6965  -17.3940   17.1045 C   0  0  0  0  0  0  0  0  0  0  0  0
  -28.8797  -16.4148   18.7637 C   0  0  0  0  0  0  0  0  0  0  0  0
  -23.9772  -17.4295   17.9324 C   0  0  0  0  0  0  0  0  0  0  0  0
  -28.4345  -17.7437   19.3686 C   0  0  0  0  0  0  0  0  0  0  0  0
  -36.3333  -17.5464   19.4916 C   0  0  0  0  0  0  0  0  0  0  0  0
  -36.3306  -18.5418   20.6156 C   0  0  0  0  0  0  0  0  0  0  0  0
  -35.4807  -16.2793   21.6083 C   0  0  0  0  0  0  0  0  0  0  0  0
  -30.3687  -16.4368   18.4452 C   0  0  0  0  0  0  0  0  0  0  0  0
  -30.7943  -18.0555   20.2761 C   0  0  0  0  0  0  0  0  0  0  0  0
  -33.8864  -17.6563   20.3835 C   0  0  0  0  0  0  0  0  0  0  0  0
  -24.9514  -16.3315   17.4888 C   0  0  1  0  0  0  0  0  0  0  0  0
  -24.3377  -13.2464   19.6193 C   0  0  1  0  0  0  0  0  0  0  0  0
  -29.2866  -18.0921   20.5991 C   0  0  1  0  0  0  0  0  0  0  0  0
  -34.1729  -15.4928   21.4463 C   0  0  1  0  0  0  0  0  0  0  0  0
  -35.3435  -17.4026   20.6228 C   0  0  0  0  0  0  0  0  0  0  0  0
  -35.3788  -10.4543   23.8842 C   0  0  0  0  0  0  0  0  0  0  0  0
  -37.3044  -11.7398   25.6478 C   0  0  0  0  0  0  0  0  0  0  0  0
  -20.8334  -10.5276   26.0786 C   0  0  0  0  0  0  0  0  0  0  0  0
  -22.9193  -16.2777   22.8068 C   0  0  0  0  0  0  0  0  0  0  0  0
  -21.8588  -15.2829   24.8449 C   0  0  0  0  0  0  0  0  0  0  0  0
  -20.6107  -15.3237   22.6854 C   0  0  0  0  0  0  0  0  0  0  0  0
  -21.7107   -9.2388   22.6080 C   0  0  0  0  0  0  0  0  0  0  0  0
  -33.6078  -15.0477   22.7902 C   0  0  0  0  0  0  0  0  0  0  0  0
  -33.4987  -12.1344   22.4274 C   0  0  0  0  0  0  0  0  0  0  0  0
  -32.0752  -12.0828   23.0003 C   0  0  0  0  0  0  0  0  0  0  0  0
  -31.0522  -11.5285   22.0156 C   0  0  0  0  0  0  0  0  0  1  0  0
  -22.5510  -13.7272   22.9656 C   0  0  1  0  0  0  0  0  0  0  0  0
  -21.0737  -10.6322   24.5806 C   0  0  2  0  0  0  0  0  0  0  0  0
  -22.0090  -15.1420   23.3151 C   0  0  0  0  0  0  0  0  0  0  0  0
  -36.3902  -13.8916   25.0656 N   0  0  0  0  0  0  0  0  0  0  0  0
  -29.0086  -20.5403   20.4836 N   0  0  0  0  0  0  0  0  0  0  0  0
  -28.8769  -19.4188   21.2123 N   0  0  0  0  0  0  0  0  0  0  0  0
  -24.0472  -13.2444   21.0545 N   0  0  0  0  0  0  0  0  0  0  0  0
  -31.1687  -16.7976   19.6166 N   0  0  0  0  0  0  0  0  0  0  0  0
  -33.2488  -16.3831   20.7261 N   0  0  0  0  0  0  0  0  0  0  0  0
  -28.1727  -18.6107   23.3246 N   0  0  0  0  0  0  0  0  0  0  0  0
  -28.5231  -22.1419   24.6670 N   0  0  0  0  0  0  0  0  0  0  0  0
  -24.5401  -15.0479   18.0156 N   0  0  0  0  0  0  0  0  0  0  0  0
  -21.6954  -12.6327   23.4111 N   0  0  0  0  0  0  0  0  0  0  0  0
  -21.4658   -9.2872   24.0725 N   0  3  0  0  0  0  0  0  0  0  0  0
  -26.3965  -21.8483   23.8608 O   0  0  0  0  0  0  0  0  0  0  0  0
  -25.5399  -15.2180   20.1118 O   0  0  0  0  0  0  0  0  0  0  0  0
  -21.7716  -13.6328   20.7273 O   0  0  0  0  0  0  0  0  0  0  0  0
  -23.2888  -11.5852   24.7305 O   0  0  0  0  0  0  0  0  0  0  0  0
  -31.8997  -14.6552   20.0312 O   0  0  0  0  0  0  0  0  0  0  0  0
  -28.4996  -26.8341   19.6580 O   0  0  0  0  0  0  0  0  0  0  0  0
  -29.7714  -11.5405   22.6329 O   0  0  0  0  0  0  0  0  0  1  0  0
  -25.5266  -30.4045   22.6274 F   0  0  0  0  0  0  0  0  0  0  0  0
  -29.0527  -27.2603   22.3329 F   0  0  0  0  0  0  0  0  0  0  0  0
  1  2  1  0  0  0  0
  1  5  2  0  0  0  0
  2  6  2  0  0  0  0
  3  8  2  0  0  0  0
  3 16  1  0  0  0  0
  4  9  1  0  0  0  0
  4 16  2  0  0  0  0
  5 18  1  0  0  0  0
  6 20  1  0  0  0  0
  7 10  2  0  0  0  0
  7 19  1  0  0  0  0
  8 25  1  0  0  0  0
  9 25  2  0  0  0  0
 10 26  1  0  0  0  0
 11 12  2  0  0  0  0
 11 27  1  0  0  0  0
 12 28  1  0  0  0  0
 13 21  1  0  0  0  0
 13 26  2  0  0  0  0
 14 28  2  0  0  0  0
 14 29  1  0  0  0  0
 15 22  2  0  0  0  0
 15 70  1  0  0  0  0
 16 30  1  0  0  0  0
 17 30  1  0  0  0  0
 17 32  2  0  0  0  0
 17 33  1  0  0  0  0
 18 20  2  0  0  0  0
 18 38  1  0  0  0  0
 19 21  2  0  0  0  0
 19 39  1  0  0  0  0
 20 51  1  0  0  0  0
 21 40  1  0  0  0  0
 22 23  1  0  0  0  0
 22 63  1  0  0  0  0
 23 24  2  0  0  0  0
 23 64  1  0  0  0  0
 24 31  1  0  0  0  0
 24 56  1  0  0  0  0
 25 86  1  0  0  0  0
 26 87  1  0  0  0  0
 27 29  2  0  0  0  0
 27 86  1  0  0  0  0
 28 88  1  0  0  0  0
 29 89  1  0  0  0  0
 30 71  2  0  0  0  0
 31 57  1  0  0  0  0
 31 70  2  0  0  0  0
 32 72  1  0  0  0  0
 32 76  1  0  0  0  0
 33 77  1  0  0  0  0
 33 81  2  0  0  0  0
 34 52  1  0  0  0  0
 34 78  1  0  0  0  0
 34 82  2  0  0  0  0
 35 67  1  0  0  0  0
 35 73  1  0  0  0  0
 35 83  2  0  0  0  0
 36 68  1  0  0  0  0
 36 79  1  0  0  0  0
 36 84  2  0  0  0  0
 37 74  1  0  0  0  0
 37 75  1  0  0  0  0
 37 85  2  0  0  0  0
 38 41  1  0  0  0  0
 39 52  1  0  0  0  0
 40 73  1  0  0  0  0
 41 43  1  0  0  0  0
 42 44  1  0  0  0  0
 42 48  1  0  0  0  0
 43 51  1  0  0  0  0
 44 53  1  0  0  0  0
 45 46  1  0  0  0  0
 45 55  1  0  0  0  0
 46 55  1  0  0  0  0
 47 54  1  0  0  0  0
 47 55  1  0  0  0  0
 48 74  1  0  0  0  0
 49 53  1  0  0  0  0
 49 74  1  0  0  0  0
 50 55  1  0  0  0  0
 50 75  1  0  0  0  0
 51 78  1  0  0  0  0
 52 73  1  0  0  0  0
 53 72  1  0  0  0  0
 54 63  1  0  0  0  0
 54 75  1  0  0  0  0
 58 68  1  0  0  0  0
 59 69  1  0  0  0  0
 60 69  1  0  0  0  0
 61 69  1  0  0  0  0
 62 80  1  0  0  0  0
 64 65  1  0  0  0  0
 65 66  1  0  0  0  0
 66 87  1  0  0  0  0
 67 69  1  0  0  0  0
 67 79  1  0  0  0  0
 68 80  1  0  0  0  0
 71 72  1  0  0  0  0
M  CHG  1  80   1
M  ISO  4  37 100  66 101  75 100  87 101
M  END
> <Batch ID>
0164

> <Smiles>
CNC(C)C(=O)NC(C(=O)N1Cc2cc([101O:1][101CH2:1]CCc3c(CC4CC5(CC5)C[100N:0]4[100C:0](=O)N4CCCC(n5nc(-c6ccc(Oc7ccc(F)cc7F)cc6)c(C(N)=O)c5N)C4)cnc(C)c3C)ccc2CC1C(=O)NC1CCCc2ccccc21)C(C)(C)C

> <Shape>
0.169

> <Color>
0.098

> <Negative vol penalty>
0.000

$$$$

  -OEChem-04052322193D

 88 97  0     1  0  0  0  0  0999 V2000
  -28.4992  -33.7145   23.2681 C   0  0  0  0  0  0  0  0  0  0  0  0
  -28.5292  -32.3327   23.1100 C   0  0  0  0  0  0  0  0  0  0  0  0
  -24.4886  -14.3120   23.7293 C   0  0  0  0  0  0  0  0  0  0  0  0
  -24.0215  -15.6128   21.7477 C   0  0  0  0  0  0  0  0  0  0  0  0
  -27.3091  -34.3489   23.6219 C   0  0  0  0  0  0  0  0  0  0  0  0
  -27.3693  -31.5842   23.3066 C   0  0  0  0  0  0  0  0  0  0  0  0
  -26.6653  -28.1067   19.6933 C   0  0  0  0  0  0  0  0  0  0  0  0
  -23.9743  -15.3369   24.5234 C   0  0  0  0  0  0  0  0  0  0  0  0
  -23.5071  -16.6377   22.5418 C   0  0  0  0  0  0  0  0  0  0  0  0
  -27.4237  -26.9398   19.7762 C   0  0  0  0  0  0  0  0  0  0  0  0
  -24.7128  -19.1523   24.4534 C   0  0  0  0  0  0  0  0  0  0  0  0
  -25.1003  -20.4588   24.1564 C   0  0  0  0  0  0  0  0  0  0  0  0
  -25.5346  -25.7875   20.7368 C   0  0  0  0  0  0  0  0  0  0  0  0
  -22.7914  -21.0557   23.7694 C   0  0  0  0  0  0  0  0  0  0  0  0
  -24.5123  -14.4499   22.3414 C   0  0  0  0  0  0  0  0  0  0  0  0
  -24.3377  -12.3042   20.9729 C   0  0  0  0  0  0  0  0  0  0  0  0
  -26.1317  -33.6088   23.8135 C   0  0  0  0  0  0  0  0  0  0  0  0
  -25.3370  -28.1258   20.1423 C   0  0  0  0  0  0  0  0  0  0  0  0
  -26.1626  -32.2091   23.6646 C   0  0  0  0  0  0  0  0  0  0  0  0
  -24.7607  -26.9553   20.6561 C   0  0  0  0  0  0  0  0  0  0  0  0
  -29.9759  -22.8944   21.3097 C   0  0  0  0  0  0  0  0  0  0  0  0
  -29.7806  -22.5579   18.9253 C   0  0  0  0  0  0  0  0  0  0  0  0
  -29.5807  -23.3537   20.0533 C   0  0  0  0  0  0  0  0  0  0  0  0
  -30.5711  -21.6394   21.4381 C   0  0  0  0  0  0  0  0  0  0  0  0
  -30.3757  -21.3029   19.0536 C   0  0  0  0  0  0  0  0  0  0  0  0
  -30.7709  -20.8436   20.3100 C   0  0  0  0  0  0  0  0  0  0  0  0
  -23.4835  -16.4997   23.9297 C   0  0  0  0  0  0  0  0  0  0  0  0
  -26.8593  -25.7807   20.3007 C   0  0  0  0  0  0  0  0  0  0  0  0
  -23.3645  -18.7973   24.4083 C   0  0  0  0  0  0  0  0  0  0  0  0
  -24.1396  -21.4106   23.8145 C   0  0  0  0  0  0  0  0  0  0  0  0
  -22.4038  -19.7491   24.0664 C   0  0  0  0  0  0  0  0  0  0  0  0
  -25.0440  -13.3918   21.5206 C   0  0  0  0  0  0  0  0  0  0  0  0
  -25.2866  -11.5921   20.2808 C   0  0  0  0  0  0  0  0  0  0  0  0
  -22.9481  -11.9676   21.0802 C   0  0  0  0  0  0  0  0  0  0  0  0
  -23.7550  -29.7074   22.4005 C   0  0  0  0  0  0  0  0  0  0  0  0
  -21.1821  -28.2364   21.0819 C   0  0  0  0  0  0  0  0  0  0  0  0
  -19.9571  -25.6243   19.2588 C   0  0  0  0  0  0  0  0  0  0  0  0
  -30.0188  -14.3334   21.7300 C   0  0  0  0  0  0  0  0  0  0  0  0
  -24.8802  -34.3337   24.2414 C   0  0  0  0  0  0  0  0  0  0  0  0
  -24.5240  -29.3854   20.0213 C   0  0  0  0  0  0  0  0  0  0  0  0
  -23.3325  -26.9178   21.1331 C   0  0  0  0  0  0  0  0  0  0  0  0
  -23.6080  -33.5086   24.0650 C   0  0  0  0  0  0  0  0  0  0  0  0
  -28.3610  -13.9048   18.4008 C   0  0  0  0  0  0  0  0  0  0  0  0
  -23.8079  -32.0969   24.6072 C   0  0  0  0  0  0  0  0  0  0  0  0
  -27.9982  -12.4220   18.4444 C   0  0  0  0  0  0  0  0  0  0  0  0
  -31.9082  -17.5235   21.5911 C   0  0  0  0  0  0  0  0  0  0  0  0
  -29.6666  -17.8544   20.4894 C   0  0  0  0  0  0  0  0  0  0  0  0
  -29.5895  -14.1883   19.2535 C   0  0  0  0  0  0  0  0  0  0  0  0
  -31.3403  -16.3239   22.3462 C   0  0  0  0  0  0  0  0  0  0  0  0
  -29.1375  -16.6529   21.2670 C   0  0  0  0  0  0  0  0  0  0  0  0
  -29.0426  -12.2884   20.7503 C   0  0  0  0  0  0  0  0  0  0  0  0
  -24.9193  -31.3654   23.8449 C   0  0  1  0  0  0  0  0  0  0  0  0
  -23.3409  -29.4278   20.9835 C   0  0  1  0  0  0  0  0  0  0  0  0
  -27.8258  -11.9027   19.8852 C   0  0  1  0  0  0  0  0  0  0  0  0
  -30.8112  -18.5319   21.2450 C   0  0  0  0  0  0  0  0  0  0  0  0
  -29.7607  -23.7480   22.5199 C   0  0  0  0  0  0  0  0  0  0  0  0
  -29.3576  -23.0515   17.5776 C   0  0  0  0  0  0  0  0  0  0  0  0
  -30.9934  -21.1499   22.7881 C   0  0  0  0  0  0  0  0  0  0  0  0
  -30.5893  -20.4516   17.8405 C   0  0  0  0  0  0  0  0  0  0  0  0
  -17.8086  -24.6732   18.3777 C   0  0  0  0  0  0  0  0  0  0  0  0
  -20.4915  -27.2166   23.8735 C   0  0  0  0  0  0  0  0  0  0  0  0
  -18.9550  -25.5510   22.8091 C   0  0  0  0  0  0  0  0  0  0  0  0
  -18.5293  -27.9932   22.5315 C   0  0  0  0  0  0  0  0  0  0  0  0
  -20.8610  -25.8777   16.4521 C   0  0  0  0  0  0  0  0  0  0  0  0
  -28.9425  -24.7001   19.9157 C   0  0  0  0  0  0  0  0  0  1  0  0
  -20.4674  -26.9260   21.3081 C   0  0  1  0  0  0  0  0  0  0  0  0
  -18.9951  -25.5784   18.0854 C   0  0  2  0  0  0  0  0  0  0  0  0
  -19.6383  -26.9226   22.6234 C   0  0  0  0  0  0  0  0  0  0  0  0
  -26.3415  -13.3762   21.2039 N   0  0  0  0  0  0  0  0  0  0  0  0
  -26.4580  -12.2699   20.4497 N   0  0  0  0  0  0  0  0  0  0  0  0
  -22.5805  -28.1765   20.9998 N   0  0  0  0  0  0  0  0  0  0  0  0
  -29.4215  -13.6989   20.6264 N   0  0  0  0  0  0  0  0  0  0  0  0
  -30.2145  -15.7217   21.6313 N   0  0  0  0  0  0  0  0  0  0  0  0
  -25.2249  -10.4585   19.5503 N   0  0  0  0  0  0  0  0  0  0  0  0
  -22.1131  -12.8077   21.8294 N   0  0  0  0  0  0  0  0  0  0  0  0
  -31.3608  -19.5986   20.4375 N   0  0  0  0  0  0  0  0  0  0  0  0
  -24.4321  -30.9008   22.5638 N   0  0  0  0  0  0  0  0  0  0  0  0
  -19.6805  -26.6772   20.1051 N   0  0  0  0  0  0  0  0  0  0  0  0
  -19.6870  -25.0680   16.8681 N   0  3  0  0  0  0  0  0  0  0  0  0
  -22.4646  -10.9432   20.5415 O   0  0  0  0  0  0  0  0  0  0  0  0
  -23.4792  -28.9007   23.2809 O   0  0  0  0  0  0  0  0  0  0  0  0
  -20.5234  -29.2738   20.9745 O   0  0  0  0  0  0  0  0  0  0  0  0
  -20.8610  -24.8057   19.4116 O   0  0  0  0  0  0  0  0  0  0  0  0
  -30.3517  -13.7010   22.7400 O   0  0  0  0  0  0  0  0  0  0  0  0
  -22.9813  -17.4999   24.7042 O   0  0  0  0  0  0  0  0  0  0  0  0
  -27.6030  -24.6321   20.3840 O   0  0  0  0  0  0  0  0  0  1  0  0
  -24.5118  -22.6656   23.5308 F   0  0  0  0  0  0  0  0  0  0  0  0
  -21.1070  -19.4143   24.0225 F   0  0  0  0  0  0  0  0  0  0  0  0
  1  2  1  0  0  0  0
  1  5  2  0  0  0  0
  2  6  2  0  0  0  0
  3  8  2  0  0  0  0
  3 15  1  0  0  0  0
  4  9  1  0  0  0  0
  4 15  2  0  0  0  0
  5 17  1  0  0  0  0
  6 19  1  0  0  0  0
  7 10  2  0  0  0  0
  7 18  1  0  0  0  0
  8 27  1  0  0  0  0
  9 27  2  0  0  0  0
 10 28  1  0  0  0  0
 11 12  2  0  0  0  0
 11 29  1  0  0  0  0
 12 30  1  0  0  0  0
 13 20  1  0  0  0  0
 13 28  2  0  0  0  0
 14 30  2  0  0  0  0
 14 31  1  0  0  0  0
 15 32  1  0  0  0  0
 16 32  1  0  0  0  0
 16 33  2  0  0  0  0
 16 34  1  0  0  0  0
 17 19  2  0  0  0  0
 17 39  1  0  0  0  0
 18 20  2  0  0  0  0
 18 40  1  0  0  0  0
 19 52  1  0  0  0  0
 20 41  1  0  0  0  0
 21 23  1  0  0  0  0
 21 24  2  0  0  0  0
 21 56  1  0  0  0  0
 22 23  2  0  0  0  0
 22 25  1  0  0  0  0
 22 57  1  0  0  0  0
 23 65  1  0  0  0  0
 24 26  1  0  0  0  0
 24 58  1  0  0  0  0
 25 26  2  0  0  0  0
 25 59  1  0  0  0  0
 26 76  1  0  0  0  0
 27 85  1  0  0  0  0
 28 86  1  0  0  0  0
 29 31  2  0  0  0  0
 29 85  1  0  0  0  0
 30 87  1  0  0  0  0
 31 88  1  0  0  0  0
 32 69  2  0  0  0  0
 33 70  1  0  0  0  0
 33 74  1  0  0  0  0
 34 75  1  0  0  0  0
 34 80  2  0  0  0  0
 35 53  1  0  0  0  0
 35 77  1  0  0  0  0
 35 81  2  0  0  0  0
 36 66  1  0  0  0  0
 36 71  1  0  0  0  0
 36 82  2  0  0  0  0
 37 67  1  0  0  0  0
 37 78  1  0  0  0  0
 37 83  2  0  0  0  0
 38 72  1  0  0  0  0
 38 73  1  0  0  0  0
 38 84  2  0  0  0  0
 39 42  1  0  0  0  0
 40 53  1  0  0  0  0
 41 71  1  0  0  0  0
 42 44  1  0  0  0  0
 43 45  1  0  0  0  0
 43 48  1  0  0  0  0
 44 52  1  0  0  0  0
 45 54  1  0  0  0  0
 46 49  1  0  0  0  0
 46 55  1  0  0  0  0
 47 50  1  0  0  0  0
 47 55  1  0  0  0  0
 48 72  1  0  0  0  0
 49 73  1  0  0  0  0
 50 73  1  0  0  0  0
 51 54  1  0  0  0  0
 51 72  1  0  0  0  0
 52 77  1  0  0  0  0
 53 71  1  0  0  0  0
 54 70  1  0  0  0  0
 55 76  1  0  0  0  0
 60 67  1  0  0  0  0
 61 68  1  0  0  0  0
 62 68  1  0  0  0  0
 63 68  1  0  0  0  0
 64 79  1  0  0  0  0
 65 86  1  0  0  0  0
 66 68  1  0  0  0  0
 66 78  1  0  0  0  0
 67 79  1  0  0  0  0
 69 70  1  0  0  0  0
M  CHG  1  79   1
M  ISO  4  38 100  65 101  73 100  86 101
M  END
> <Batch ID>
0164

> <Smiles>
CNC(C)C(=O)NC(C(=O)N1Cc2cc([101O:1][101CH2:1]c3c(C)c(C)c(NC4CC[100N:0]([100C:0](=O)N5CCCC(n6nc(-c7ccc(Oc8ccc(F)cc8F)cc7)c(C(N)=O)c6N)C5)CC4)c(C)c3C)ccc2CC1C(=O)NC1CCCc2ccccc21)C(C)(C)C

> <Shape>
0.301

> <Color>
0.078

> <Negative vol penalty>
0.000

$$$$

  -OEChem-04052322193D

 94104  0     1  0  0  0  0  0999 V2000
  -17.0041  -29.3207   24.5996 C   0  0  0  0  0  0  0  0  0  0  0  0
  -17.1672  -28.2042   23.7858 C   0  0  0  0  0  0  0  0  0  0  0  0
  -28.3191  -17.7103   18.8021 C   0  0  0  0  0  0  0  0  0  0  0  0
  -30.4185  -18.1355   17.6847 C   0  0  0  0  0  0  0  0  0  0  0  0
  -17.7704  -30.4635   24.3749 C   0  0  0  0  0  0  0  0  0  0  0  0
  -18.0961  -28.2303   22.7461 C   0  0  0  0  0  0  0  0  0  0  0  0
  -22.5974  -23.9543   19.1726 C   0  0  0  0  0  0  0  0  0  0  0  0
  -28.8510  -16.5475   19.3591 C   0  0  0  0  0  0  0  0  0  0  0  0
  -30.9505  -16.9726   18.2418 C   0  0  0  0  0  0  0  0  0  0  0  0
  -22.9193  -23.5779   17.8694 C   0  0  0  0  0  0  0  0  0  0  0  0
  -29.5430  -13.2758   20.7879 C   0  0  0  0  0  0  0  0  0  0  0  0
  -28.7570  -12.1239   20.7613 C   0  0  0  0  0  0  0  0  0  0  0  0
  -17.6051  -22.2253   14.8629 C   0  0  0  0  0  0  0  0  0  0  0  0
  -17.7885  -19.8726   14.3451 C   0  0  0  0  0  0  0  0  0  0  0  0
  -24.2439  -25.5791   17.6249 C   0  0  0  0  0  0  0  0  0  0  0  0
  -16.5046  -20.5913   16.2614 C   0  0  0  0  0  0  0  0  0  0  0  0
  -28.6953  -12.2217   18.3480 C   0  0  0  0  0  0  0  0  0  0  0  0
  -29.1028  -18.5044   17.9648 C   0  0  0  0  0  0  0  0  0  0  0  0
  -28.5832  -21.0017   17.9368 C   0  0  0  0  0  0  0  0  0  0  0  0
  -18.7160  -30.5003   23.3381 C   0  0  0  0  0  0  0  0  0  0  0  0
  -23.0884  -25.1534   19.7090 C   0  0  0  0  0  0  0  0  0  0  0  0
  -18.8749  -29.3752   22.5066 C   0  0  0  0  0  0  0  0  0  0  0  0
  -18.0942  -21.2016   14.0516 C   0  0  0  0  0  0  0  0  0  0  0  0
  -23.9289  -25.9672   18.9361 C   0  0  0  0  0  0  0  0  0  0  0  0
  -16.8103  -21.9202   15.9679 C   0  0  0  0  0  0  0  0  0  0  0  0
  -30.1667  -16.1786   19.0790 C   0  0  0  0  0  0  0  0  0  0  0  0
  -23.7403  -24.3917   17.0943 C   0  0  0  0  0  0  0  0  0  0  0  0
  -29.9051  -13.9008   19.5946 C   0  0  0  0  0  0  0  0  0  0  0  0
  -16.9937  -19.5675   15.4501 C   0  0  0  0  0  0  0  0  0  0  0  0
  -28.3332  -11.5968   19.5413 C   0  0  0  0  0  0  0  0  0  0  0  0
  -29.4813  -13.3737   18.3746 C   0  0  0  0  0  0  0  0  0  0  0  0
  -28.5537  -19.7054   17.3886 C   0  0  0  0  0  0  0  0  0  0  0  0
  -27.9336  -21.7810   17.0109 C   0  0  0  0  0  0  0  0  0  0  0  0
  -29.1474  -21.4605   19.1725 C   0  0  0  0  0  0  0  0  0  0  0  0
  -21.7659  -27.8290   20.8026 C   0  0  0  0  0  0  0  0  0  0  0  0
  -24.8234  -28.5471   21.6142 C   0  0  0  0  0  0  0  0  0  0  0  0
  -28.1567  -28.0594   21.0683 C   0  0  0  0  0  0  0  0  0  0  0  0
  -23.8147  -20.3709   12.9893 C   0  0  0  0  0  0  0  0  0  0  0  0
  -19.4877  -31.7748   23.1042 C   0  0  0  0  0  0  0  0  0  0  0  0
  -22.7537  -25.5320   21.1257 C   0  0  0  0  0  0  0  0  0  0  0  0
  -24.4984  -27.2544   19.4721 C   0  0  0  0  0  0  0  0  0  0  0  0
  -20.7158  -31.5892   22.2167 C   0  0  0  0  0  0  0  0  0  0  0  0
  -26.9937  -22.0814   12.3504 C   0  0  0  0  0  0  0  0  0  0  0  0
  -20.3646  -30.7590   20.9862 C   0  0  0  0  0  0  0  0  0  0  0  0
  -27.7759  -21.7251   13.6100 C   0  0  0  0  0  0  0  0  0  0  0  0
  -22.5694  -18.8046   10.2920 C   0  0  0  0  0  0  0  0  0  0  0  0
  -26.0522  -20.9584   11.9134 C   0  0  0  0  0  0  0  0  0  0  0  0
  -23.6939  -19.8351   10.4327 C   0  0  0  0  0  0  0  0  0  0  0  0
  -25.9242  -20.1435   14.2528 C   0  0  0  0  0  0  0  0  0  0  0  0
  -18.9389  -21.5256   12.8763 C   0  0  2  0  0  0  0  0  0  0  0  0
  -19.8898  -29.3562   21.3842 C   0  0  1  0  0  0  0  0  0  0  0  0
  -22.8916  -27.0277   21.3929 C   0  0  1  0  0  0  0  0  0  0  0  0
  -20.3086  -20.8842   12.7527 C   0  0  2  0  0  0  0  0  0  0  0  0
  -20.1959  -22.3518   13.0762 C   0  0  1  0  0  0  0  0  0  0  0  0
  -26.8204  -21.2938   14.7325 C   0  0  1  0  0  0  0  0  0  0  0  0
  -21.9355  -19.3851   11.5654 C   0  0  2  0  0  0  0  0  0  0  0  0
  -16.2868  -23.0151   16.8348 C   0  0  0  0  0  0  0  0  0  0  0  0
  -30.4141  -28.8151   21.8622 C   0  0  0  0  0  0  0  0  0  0  0  0
  -19.6439  -19.7577   10.6097 C   0  0  0  0  0  0  0  0  0  0  0  0
  -19.6951  -24.6807   12.2799 C   0  0  0  0  0  0  0  0  0  0  0  0
  -24.4821  -31.1653   20.0848 C   0  0  0  0  0  0  0  0  0  0  0  0
  -26.9731  -31.4166   20.0978 C   0  0  0  0  0  0  0  0  0  0  0  0
  -25.7142  -31.3754   22.2510 C   0  0  0  0  0  0  0  0  0  0  0  0
  -28.9006  -25.3248   21.9214 C   0  0  0  0  0  0  0  0  0  0  0  0
  -17.2258  -17.2740   14.8653 C   0  0  0  0  0  0  0  0  0  0  0  0
  -23.9632  -24.6015   13.4847 C   0  0  0  0  0  0  0  0  0  0  0  0
  -22.0654  -23.7710   12.0892 C   0  0  0  0  0  0  0  0  0  0  0  0
  -24.2976  -25.0749   14.8855 C   0  0  0  0  0  0  0  0  0  1  0  0
  -25.9777  -29.2370   20.9282 C   0  0  1  0  0  0  0  0  0  0  0  0
  -29.3046  -27.7876   22.0237 C   0  0  2  0  0  0  0  0  0  0  0  0
  -20.8026  -20.3779   11.3949 C   0  0  1  0  0  0  0  0  0  0  0  0
  -20.5588  -23.4147   12.0962 C   0  0  1  0  0  0  0  0  0  0  0  0
  -25.7746  -30.7754   20.8294 C   0  0  0  0  0  0  0  0  0  0  0  0
  -27.9343  -19.6596   16.2062 N   0  0  0  0  0  0  0  0  0  0  0  0
  -27.5684  -20.9369   16.0038 N   0  0  0  0  0  0  0  0  0  0  0  0
  -24.1370  -27.5844   20.8606 N   0  0  0  0  0  0  0  0  0  0  0  0
  -25.2085  -20.4892   13.0190 N   0  0  0  0  0  0  0  0  0  0  0  0
  -23.2152  -20.0616   11.7886 N   0  0  0  0  0  0  0  0  0  0  0  0
  -27.6448  -23.0990   16.9682 N   0  0  0  0  0  0  0  0  0  0  0  0
  -29.7791  -20.5272   20.0058 N   0  0  0  0  0  0  0  0  0  0  0  0
  -21.0184  -28.5215   21.7359 N   0  0  0  0  0  0  0  0  0  0  0  0
  -27.1800  -28.8383   21.6520 N   0  0  0  0  0  0  0  0  0  0  0  0
  -29.8772  -26.4345   21.7738 N   0  3  0  0  0  0  0  0  0  0  0  0
  -22.5239  -24.2254   13.4234 N   0  3  0  0  0  0  0  0  0  0  0  0
  -29.0787  -22.6594   19.5348 O   0  0  0  0  0  0  0  0  0  0  0  0
  -21.5896  -27.8209   19.5899 O   0  0  0  0  0  0  0  0  0  0  0  0
  -24.5456  -28.8462   22.7783 O   0  0  0  0  0  0  0  0  0  0  0  0
  -28.1308  -27.6274   19.9180 O   0  0  0  0  0  0  0  0  0  0  0  0
  -23.1252  -20.5061   14.0087 O   0  0  0  0  0  0  0  0  0  0  0  0
  -30.6862  -15.0440   19.6226 O   0  0  0  0  0  0  0  0  0  0  0  0
  -16.6942  -18.2711   15.7366 O   0  0  0  0  0  0  0  0  0  0  0  0
  -24.0577  -24.0243   15.8126 O   0  0  0  0  0  0  0  0  0  1  0  0
  -27.5797  -10.4896   19.5159 F   0  0  0  0  0  0  0  0  0  0  0  0
  -29.8270  -13.9691   17.2249 F   0  0  0  0  0  0  0  0  0  0  0  0
  1  2  1  0  0  0  0
  1  5  2  0  0  0  0
  2  6  2  0  0  0  0
  3  8  2  0  0  0  0
  3 18  1  0  0  0  0
  4  9  1  0  0  0  0
  4 18  2  0  0  0  0
  5 20  1  0  0  0  0
  6 22  1  0  0  0  0
  7 10  2  0  0  0  0
  7 21  1  0  0  0  0
  8 26  1  0  0  0  0
  9 26  2  0  0  0  0
 10 27  1  0  0  0  0
 11 12  2  0  0  0  0
 11 28  1  0  0  0  0
 12 30  1  0  0  0  0
 13 23  1  0  0  0  0
 13 25  2  0  0  0  0
 14 23  2  0  0  0  0
 14 29  1  0  0  0  0
 15 24  1  0  0  0  0
 15 27  2  0  0  0  0
 16 25  1  0  0  0  0
 16 29  2  0  0  0  0
 17 30  2  0  0  0  0
 17 31  1  0  0  0  0
 18 32  1  0  0  0  0
 19 32  1  0  0  0  0
 19 33  2  0  0  0  0
 19 34  1  0  0  0  0
 20 22  2  0  0  0  0
 20 39  1  0  0  0  0
 21 24  2  0  0  0  0
 21 40  1  0  0  0  0
 22 51  1  0  0  0  0
 23 50  1  0  0  0  0
 24 41  1  0  0  0  0
 25 57  1  0  0  0  0
 26 90  1  0  0  0  0
 27 92  1  0  0  0  0
 28 31  2  0  0  0  0
 28 90  1  0  0  0  0
 29 91  1  0  0  0  0
 30 93  1  0  0  0  0
 31 94  1  0  0  0  0
 32 74  2  0  0  0  0
 33 75  1  0  0  0  0
 33 79  1  0  0  0  0
 34 80  1  0  0  0  0
 34 85  2  0  0  0  0
 35 52  1  0  0  0  0
 35 81  1  0  0  0  0
 35 86  2  0  0  0  0
 36 69  1  0  0  0  0
 36 76  1  0  0  0  0
 36 87  2  0  0  0  0
 37 70  1  0  0  0  0
 37 82  1  0  0  0  0
 37 88  2  0  0  0  0
 38 77  1  0  0  0  0
 38 78  1  0  0  0  0
 38 89  2  0  0  0  0
 39 42  1  0  0  0  0
 40 52  1  0  0  0  0
 41 76  1  0  0  0  0
 42 44  1  0  0  0  0
 43 45  1  0  0  0  0
 43 47  1  0  0  0  0
 44 51  1  0  0  0  0
 45 55  1  0  0  0  0
 46 48  1  0  0  0  0
 46 56  1  0  0  0  0
 47 77  1  0  0  0  0
 48 78  1  0  0  0  0
 49 55  1  0  0  0  0
 49 77  1  0  0  0  0
 50 53  1  0  0  0  0
 50 54  1  0  0  0  0
 51 81  1  0  0  0  0
 52 76  1  0  0  0  0
 53 54  1  0  0  0  0
 53 71  1  0  0  0  0
 54 72  1  0  0  0  0
 55 75  1  0  0  0  0
 56 71  1  0  0  0  0
 56 78  1  0  0  0  0
 58 70  1  0  0  0  0
 59 71  1  0  0  0  0
 60 72  1  0  0  0  0
 61 73  1  0  0  0  0
 62 73  1  0  0  0  0
 63 73  1  0  0  0  0
 64 83  1  0  0  0  0
 65 91  1  0  0  0  0
 66 68  1  0  0  0  0
 66 84  1  0  0  0  0
 67 72  1  0  0  0  0
 67 84  1  0  0  0  0
 68 92  1  0  0  0  0
 69 73  1  0  0  0  0
 69 82  1  0  0  0  0
 70 83  1  0  0  0  0
 74 75  1  0  0  0  0
M  CHG  2  83   1  84   1
M  ISO  4  38 100  68 101  78 100  92 101
M  END
> <Batch ID>
0164

> <Smiles>
CNC(C)C(=O)NC(C(=O)N1Cc2cc([101O:1][101CH2:1]CNCC(C)C3C(c4cc(C)cc(OC)c4)C3C(C)C3CC[100N:0]3[100C:0](=O)N3CCCC(n4nc(-c5ccc(Oc6ccc(F)cc6F)cc5)c(C(N)=O)c4N)C3)ccc2CC1C(=O)NC1CCCc2ccccc21)C(C)(C)C

> <Shape>
0.184

> <Color>
0.067

> <Negative vol penalty>
0.000

$$$$

  -OEChem-04052322193D

 90 99  0     1  0  0  0  0  0999 V2000
  -30.7670  -35.3798   22.5538 C   0  0  0  0  0  0  0  0  0  0  0  0
  -30.6855  -34.1902   21.8371 C   0  0  0  0  0  0  0  0  0  0  0  0
  -24.2879   -9.5395   22.1141 C   0  0  0  0  0  0  0  0  0  0  0  0
  -23.1709  -10.3967   20.1508 C   0  0  0  0  0  0  0  0  0  0  0  0
  -30.0240  -35.5404   23.7226 C   0  0  0  0  0  0  0  0  0  0  0  0
  -29.8617  -33.1600   22.2894 C   0  0  0  0  0  0  0  0  0  0  0  0
  -26.6816  -29.2114   18.8541 C   0  0  0  0  0  0  0  0  0  0  0  0
  -23.2723   -8.5981   22.2810 C   0  0  0  0  0  0  0  0  0  0  0  0
  -22.1552   -9.4552   20.3177 C   0  0  0  0  0  0  0  0  0  0  0  0
  -26.9366  -27.9011   18.4520 C   0  0  0  0  0  0  0  0  0  0  0  0
  -22.3859   -5.6252   20.9361 C   0  0  0  0  0  0  0  0  0  0  0  0
  -22.7596   -4.3124   21.2231 C   0  0  0  0  0  0  0  0  0  0  0  0
  -28.1873  -21.5922   18.3794 C   0  0  0  0  0  0  0  0  0  0  0  0
  -25.6115  -27.0841   20.2948 C   0  0  0  0  0  0  0  0  0  0  0  0
  -25.4968  -22.3075   18.5597 C   0  0  0  0  0  0  0  0  0  0  0  0
  -21.5328   -4.4176   23.3018 C   0  0  0  0  0  0  0  0  0  0  0  0
  -24.2372  -10.4388   21.0491 C   0  0  0  0  0  0  0  0  0  0  0  0
  -26.4726  -11.2601   20.1347 C   0  0  0  0  0  0  0  0  0  0  0  0
  -29.1833  -34.5153   24.1843 C   0  0  0  0  0  0  0  0  0  0  0  0
  -25.8973  -29.4682   19.9878 C   0  0  0  0  0  0  0  0  0  0  0  0
  -29.1078  -33.3066   23.4662 C   0  0  0  0  0  0  0  0  0  0  0  0
  -27.2003  -20.7110   17.9380 C   0  0  0  0  0  0  0  0  0  0  0  0
  -25.3459  -28.3987   20.7077 C   0  0  0  0  0  0  0  0  0  0  0  0
  -27.8291  -22.8311   18.9111 C   0  0  0  0  0  0  0  0  0  0  0  0
  -25.8551  -21.0687   18.0281 C   0  0  0  0  0  0  0  0  0  0  0  0
  -26.4839  -23.1887   19.0012 C   0  0  0  0  0  0  0  0  0  0  0  0
  -22.2060   -8.5560   21.3828 C   0  0  0  0  0  0  0  0  0  0  0  0
  -26.4039  -26.8371   19.1741 C   0  0  0  0  0  0  0  0  0  0  0  0
  -21.5857   -6.3343   21.8320 C   0  0  0  0  0  0  0  0  0  0  0  0
  -22.3331   -3.7086   22.4060 C   0  0  0  0  0  0  0  0  0  0  0  0
  -21.1591   -5.7305   23.0148 C   0  0  0  0  0  0  0  0  0  0  0  0
  -25.2858  -11.4119   20.8765 C   0  0  0  0  0  0  0  0  0  0  0  0
  -27.1268  -12.4585   20.2847 C   0  0  0  0  0  0  0  0  0  0  0  0
  -26.9418  -10.1365   19.3778 C   0  0  0  0  0  0  0  0  0  0  0  0
  -26.3982  -30.8878   22.7873 C   0  0  0  0  0  0  0  0  0  0  0  0
  -23.2100  -30.4169   23.1558 C   0  0  0  0  0  0  0  0  0  0  0  0
  -20.4270  -28.6351   22.3034 C   0  0  0  0  0  0  0  0  0  0  0  0
  -27.0995  -18.0382   20.3902 C   0  0  0  0  0  0  0  0  0  0  0  0
  -28.4357  -34.7172   25.4785 C   0  0  0  0  0  0  0  0  0  0  0  0
  -25.6094  -30.8879   20.3928 C   0  0  0  0  0  0  0  0  0  0  0  0
  -24.4806  -28.6213   21.9202 C   0  0  0  0  0  0  0  0  0  0  0  0
  -27.2998  -33.7192   25.6878 C   0  0  0  0  0  0  0  0  0  0  0  0
  -26.2109  -16.3430   23.3924 C   0  0  0  0  0  0  0  0  0  0  0  0
  -27.7700  -32.3020   25.3759 C   0  0  0  0  0  0  0  0  0  0  0  0
  -25.9830  -14.8987   22.9432 C   0  0  0  0  0  0  0  0  0  0  0  0
  -28.5058  -19.5567   16.1252 C   0  0  0  0  0  0  0  0  0  0  0  0
  -25.7381  -17.3428   22.3394 C   0  0  0  0  0  0  0  0  0  0  0  0
  -26.0709  -15.6897   20.5421 C   0  0  0  0  0  0  0  0  0  0  0  0
  -27.6078  -19.3905   17.3718 C   0  0  1  0  0  0  0  0  0  0  0  0
  -28.2065  -32.1754   23.9113 C   0  0  1  0  0  0  0  0  0  0  0  0
  -25.2221  -31.0232   21.8622 C   0  0  1  0  0  0  0  0  0  0  0  0
  -29.8639  -18.9501   16.5007 C   0  0  1  0  0  0  0  0  0  0  0  0
  -29.4923  -17.8599   17.5158 C   0  0  2  0  0  0  0  0  0  0  0  0
  -26.5832  -14.6442   21.5474 C   0  0  2  0  0  0  0  0  0  0  0  0
  -28.4507  -18.5821   18.3808 C   0  0  2  0  0  0  0  0  0  0  0  0
  -28.9032  -23.7577   19.3782 C   0  0  0  0  0  0  0  0  0  0  0  0
  -24.7810  -20.1419   17.5613 C   0  0  0  0  0  0  0  0  0  0  0  0
  -30.6794  -17.3454   18.3194 C   0  0  0  0  0  0  0  0  0  0  0  0
  -17.9732  -28.4579   22.7983 C   0  0  0  0  0  0  0  0  0  0  0  0
  -30.9389  -19.5492   14.3013 C   0  0  0  0  0  0  0  0  0  0  0  0
  -23.8460  -29.0427   25.8048 C   0  0  0  0  0  0  0  0  0  0  0  0
  -21.5370  -28.0752   25.7773 C   0  0  0  0  0  0  0  0  0  0  0  0
  -21.8501  -30.5485   25.8635 C   0  0  0  0  0  0  0  0  0  0  0  0
  -19.6996  -29.2345   19.4980 C   0  0  0  0  0  0  0  0  0  0  0  0
  -32.3647  -16.9546   14.7356 C   0  0  0  0  0  0  0  0  0  0  0  0
  -26.0745  -24.5154   19.5702 C   0  0  0  0  0  0  0  0  0  1  0  0
  -22.3507  -29.3098   23.7171 C   0  0  1  0  0  0  0  0  0  0  0  0
  -19.0321  -29.0776   21.8997 C   0  0  2  0  0  0  0  0  0  0  0  0
  -30.6255  -18.4352   15.2883 C   0  0  1  0  0  0  0  0  0  0  0  0
  -22.4138  -29.2395   25.2690 C   0  0  0  0  0  0  0  0  0  0  0  0
  -25.1890  -12.6119   21.4548 N   0  0  0  0  0  0  0  0  0  0  0  0
  -26.3235  -13.2252   21.0766 N   0  0  0  0  0  0  0  0  0  0  0  0
  -24.2333  -30.0273   22.2800 N   0  0  0  0  0  0  0  0  0  0  0  0
  -26.3451  -17.0471   21.0394 N   0  0  0  0  0  0  0  0  0  0  0  0
  -28.3051  -12.9206   19.8152 N   0  0  0  0  0  0  0  0  0  0  0  0
  -26.1452   -8.9843   19.3289 N   0  0  0  0  0  0  0  0  0  0  0  0
  -27.0505  -32.0782   23.0460 N   0  0  0  0  0  0  0  0  0  0  0  0
  -21.0100  -29.5229   23.1826 N   0  0  0  0  0  0  0  0  0  0  0  0
  -27.6450  -17.6733   19.1655 N   0  0  0  0  0  0  0  0  0  0  0  0
  -18.7481  -28.6761   20.4929 N   0  3  0  0  0  0  0  0  0  0  0  0
  -28.0426  -10.1477   18.7765 O   0  0  0  0  0  0  0  0  0  0  0  0
  -26.6913  -29.7852   23.2346 O   0  0  0  0  0  0  0  0  0  0  0  0
  -22.9773  -31.5850   23.4769 O   0  0  0  0  0  0  0  0  0  0  0  0
  -20.9459  -27.6030   21.8839 O   0  0  0  0  0  0  0  0  0  0  0  0
  -27.2783  -19.1632   20.8691 O   0  0  0  0  0  0  0  0  0  0  0  0
  -21.2148   -7.6374   21.5452 O   0  0  0  0  0  0  0  0  0  0  0  0
  -26.6518  -25.5571   18.7842 O   0  0  0  0  0  0  0  0  0  1  0  0
  -31.8426  -17.8347   15.7201 O   0  0  0  0  0  0  0  0  0  0  0  0
  -22.6908   -2.4473   22.6807 F   0  0  0  0  0  0  0  0  0  0  0  0
  -20.3893   -6.4063   23.8788 F   0  0  0  0  0  0  0  0  0  0  0  0
  1  2  1  0  0  0  0
  1  5  2  0  0  0  0
  2  6  2  0  0  0  0
  3  8  2  0  0  0  0
  3 17  1  0  0  0  0
  4  9  1  0  0  0  0
  4 17  2  0  0  0  0
  5 19  1  0  0  0  0
  6 21  1  0  0  0  0
  7 10  2  0  0  0  0
  7 20  1  0  0  0  0
  8 27  1  0  0  0  0
  9 27  2  0  0  0  0
 10 28  1  0  0  0  0
 11 12  2  0  0  0  0
 11 29  1  0  0  0  0
 12 30  1  0  0  0  0
 13 22  2  0  0  0  0
 13 24  1  0  0  0  0
 14 23  1  0  0  0  0
 14 28  2  0  0  0  0
 15 25  2  0  0  0  0
 15 26  1  0  0  0  0
 16 30  2  0  0  0  0
 16 31  1  0  0  0  0
 17 32  1  0  0  0  0
 18 32  1  0  0  0  0
 18 33  2  0  0  0  0
 18 34  1  0  0  0  0
 19 21  2  0  0  0  0
 19 39  1  0  0  0  0
 20 23  2  0  0  0  0
 20 40  1  0  0  0  0
 21 50  1  0  0  0  0
 22 25  1  0  0  0  0
 22 49  1  0  0  0  0
 23 41  1  0  0  0  0
 24 26  2  0  0  0  0
 24 56  1  0  0  0  0
 25 57  1  0  0  0  0
 26 66  1  0  0  0  0
 27 86  1  0  0  0  0
 28 87  1  0  0  0  0
 29 31  2  0  0  0  0
 29 86  1  0  0  0  0
 30 89  1  0  0  0  0
 31 90  1  0  0  0  0
 32 71  2  0  0  0  0
 33 72  1  0  0  0  0
 33 75  1  0  0  0  0
 34 76  1  0  0  0  0
 34 81  2  0  0  0  0
 35 51  1  0  0  0  0
 35 77  1  0  0  0  0
 35 82  2  0  0  0  0
 36 67  1  0  0  0  0
 36 73  1  0  0  0  0
 36 83  2  0  0  0  0
 37 68  1  0  0  0  0
 37 78  1  0  0  0  0
 37 84  2  0  0  0  0
 38 74  1  0  0  0  0
 38 79  1  0  0  0  0
 38 85  2  0  0  0  0
 39 42  1  0  0  0  0
 40 51  1  0  0  0  0
 41 73  1  0  0  0  0
 42 44  1  0  0  0  0
 43 45  1  0  0  0  0
 43 47  1  0  0  0  0
 44 50  1  0  0  0  0
 45 54  1  0  0  0  0
 46 49  1  0  0  0  0
 46 52  1  0  0  0  0
 47 74  1  0  0  0  0
 48 54  1  0  0  0  0
 48 74  1  0  0  0  0
 49 55  1  0  0  0  0
 50 77  1  0  0  0  0
 51 73  1  0  0  0  0
 52 53  1  0  0  0  0
 52 69  1  0  0  0  0
 53 55  1  0  0  0  0
 53 58  1  0  0  0  0
 54 72  1  0  0  0  0
 55 79  1  0  0  0  0
 59 68  1  0  0  0  0
 60 69  1  0  0  0  0
 61 70  1  0  0  0  0
 62 70  1  0  0  0  0
 63 70  1  0  0  0  0
 64 80  1  0  0  0  0
 65 88  1  0  0  0  0
 66 87  1  0  0  0  0
 67 70  1  0  0  0  0
 67 78  1  0  0  0  0
 68 80  1  0  0  0  0
 69 88  1  0  0  0  0
 71 72  1  0  0  0  0
M  CHG  1  80   1
M  ISO  4  38 100  66 101  79 100  87 101
M  END
> <Batch ID>
0164

> <Smiles>
CNC(C)C(=O)NC(C(=O)N1Cc2cc([101O:1][101CH2:1]c3cc(C)c(C4CC(C(C)OC)C(C)C4[100NH:0][100C:0](=O)N4CCCC(n5nc(-c6ccc(Oc7ccc(F)cc7F)cc6)c(C(N)=O)c5N)C4)cc3C)ccc2CC1C(=O)NC1CCCc2ccccc21)C(C)(C)C

> <Shape>
0.277

> <Color>
0.085

> <Negative vol penalty>
0.000

$$$$

  -OEChem-04052322193D

 85 95  0     1  0  0  0  0  0999 V2000
  -29.1252  -31.8307   26.5413 C   0  0  0  0  0  0  0  0  0  0  0  0
  -29.0809  -30.9496   25.4656 C   0  0  0  0  0  0  0  0  0  0  0  0
  -23.1421  -10.2737   21.8539 C   0  0  0  0  0  0  0  0  0  0  0  0
  -24.3081   -8.7274   20.4096 C   0  0  0  0  0  0  0  0  0  0  0  0
  -27.9705  -32.0861   27.2797 C   0  0  0  0  0  0  0  0  0  0  0  0
  -27.8820  -30.3224   25.1285 C   0  0  0  0  0  0  0  0  0  0  0  0
  -26.9969  -30.3753   20.1426 C   0  0  0  0  0  0  0  0  0  0  0  0
  -21.9292   -9.6717   21.5194 C   0  0  0  0  0  0  0  0  0  0  0  0
  -23.0952   -8.1252   20.0750 C   0  0  0  0  0  0  0  0  0  0  0  0
  -27.6911  -29.4513   19.3629 C   0  0  0  0  0  0  0  0  0  0  0  0
  -18.5641   -8.3102   21.3245 C   0  0  0  0  0  0  0  0  0  0  0  0
  -17.6694   -8.0356   22.3588 C   0  0  0  0  0  0  0  0  0  0  0  0
  -28.4369  -21.2465   17.9007 C   0  0  0  0  0  0  0  0  0  0  0  0
  -29.4329  -22.2889   19.8393 C   0  0  0  0  0  0  0  0  0  0  0  0
  -25.7412  -28.0317   19.3197 C   0  0  0  0  0  0  0  0  0  0  0  0
  -19.3164   -6.6110   23.4053 C   0  0  0  0  0  0  0  0  0  0  0  0
  -24.3316   -9.8017   21.2990 C   0  0  0  0  0  0  0  0  0  0  0  0
  -26.4417  -10.0776   22.7056 C   0  0  0  0  0  0  0  0  0  0  0  0
  -26.7547  -31.4691   26.9455 C   0  0  0  0  0  0  0  0  0  0  0  0
  -25.6708  -30.1289   20.5266 C   0  0  0  0  0  0  0  0  0  0  0  0
  -26.7102  -30.5687   25.8640 C   0  0  0  0  0  0  0  0  0  0  0  0
  -29.0790  -21.1386   19.1342 C   0  0  0  0  0  0  0  0  0  0  0  0
  -25.0315  -28.9553   20.1022 C   0  0  0  0  0  0  0  0  0  0  0  0
  -28.5026  -23.6552   18.0773 C   0  0  0  0  0  0  0  0  0  0  0  0
  -28.1487  -22.5049   17.3722 C   0  0  0  0  0  0  0  0  0  0  0  0
  -29.1447  -23.5472   19.3108 C   0  0  0  0  0  0  0  0  0  0  0  0
  -21.9057   -8.5974   20.6300 C   0  0  0  0  0  0  0  0  0  0  0  0
  -27.0643  -28.2780   18.9537 C   0  0  0  0  0  0  0  0  0  0  0  0
  -19.8350   -7.7352   21.3306 C   0  0  0  0  0  0  0  0  0  0  0  0
  -18.0455   -7.1860   23.3991 C   0  0  0  0  0  0  0  0  0  0  0  0
  -20.2111   -6.8856   22.3710 C   0  0  0  0  0  0  0  0  0  0  0  0
  -25.5847  -10.4236   21.6437 C   0  0  0  0  0  0  0  0  0  0  0  0
  -27.4886  -10.9608   22.6037 C   0  0  0  0  0  0  0  0  0  0  0  0
  -26.3038   -9.0496   23.6956 C   0  0  0  0  0  0  0  0  0  0  0  0
  -24.1732  -29.7521   23.3048 C   0  0  0  0  0  0  0  0  0  0  0  0
  -21.5266  -29.7187   21.4294 C   0  0  0  0  0  0  0  0  0  0  0  0
  -20.1653  -29.1655   18.3492 C   0  0  0  0  0  0  0  0  0  0  0  0
  -27.6968  -16.4146   20.2138 C   0  0  0  0  0  0  0  0  0  0  0  0
  -25.5435  -31.7401   27.8024 C   0  0  0  0  0  0  0  0  0  0  0  0
  -24.9271  -31.1480   21.3455 C   0  0  0  0  0  0  0  0  0  0  0  0
  -23.6028  -28.6530   20.4706 C   0  0  0  0  0  0  0  0  0  0  0  0
  -24.2289  -31.3223   27.1484 C   0  0  0  0  0  0  0  0  0  0  0  0
  -29.9067  -13.5669   19.4270 C   0  0  0  0  0  0  0  0  0  0  0  0
  -24.3516  -29.9253   26.5483 C   0  0  0  0  0  0  0  0  0  0  0  0
  -29.0842  -12.3998   19.9650 C   0  0  0  0  0  0  0  0  0  0  0  0
  -28.9013  -19.4499   21.0809 C   0  0  0  0  0  0  0  0  0  0  0  0
  -26.7763  -25.3232   17.1214 C   0  0  0  0  0  0  0  0  0  0  0  0
  -29.0235  -14.6804   18.8657 C   0  0  0  0  0  0  0  0  0  0  0  0
  -27.1743  -14.0009   20.3700 C   0  0  0  0  0  0  0  0  0  0  0  0
  -29.3877  -19.7940   19.6984 C   0  0  1  0  0  0  0  0  0  0  0  0
  -28.1970  -24.9922   17.5149 C   0  0  1  0  0  0  0  0  0  0  0  0
  -25.4230  -29.8879   25.4520 C   0  0  1  0  0  0  0  0  0  0  0  0
  -23.7466  -30.5552   22.1087 C   0  0  1  0  0  0  0  0  0  0  0  0
  -28.0443  -12.8928   20.9829 C   0  0  1  0  0  0  0  0  0  0  0  0
  -28.2616  -18.8036   19.8879 C   0  0  1  0  0  0  0  0  0  0  0  0
  -27.3793  -25.9689   18.3314 C   0  0  1  0  0  0  0  0  0  1  0  0
  -27.4617  -22.5910   16.0483 C   0  0  0  0  0  0  0  0  0  0  0  0
  -29.5362  -24.7623   20.0868 C   0  0  0  0  0  0  0  0  0  0  0  0
  -17.9698  -29.1829   17.1339 C   0  0  0  0  0  0  0  0  0  0  0  0
  -20.7780  -27.0712   22.7486 C   0  0  0  0  0  0  0  0  0  0  0  0
  -19.1555  -26.6801   20.8824 C   0  0  0  0  0  0  0  0  0  0  0  0
  -18.8624  -28.6401   22.3974 C   0  0  0  0  0  0  0  0  0  0  0  0
  -21.0855  -31.2659   16.4784 C   0  0  0  0  0  0  0  0  0  0  0  0
  -20.7420  -28.6506   20.7065 C   0  0  1  0  0  0  0  0  0  0  0  0
  -19.2039  -29.9880   17.5104 C   0  0  2  0  0  0  0  0  0  0  0  0
  -19.9121  -27.7650   21.6782 C   0  0  0  0  0  0  0  0  0  0  0  0
  -26.0471  -11.4469   20.9205 N   0  0  0  0  0  0  0  0  0  0  0  0
  -27.2059  -11.7516   21.5291 N   0  0  0  0  0  0  0  0  0  0  0  0
  -22.9199  -29.6775   21.2778 N   0  0  0  0  0  0  0  0  0  0  0  0
  -27.9940  -15.0938   19.8323 N   0  0  0  0  0  0  0  0  0  0  0  0
  -28.6141  -11.1305   23.3295 N   0  0  0  0  0  0  0  0  0  0  0  0
  -25.1668   -8.2312   23.6551 N   0  0  0  0  0  0  0  0  0  0  0  0
  -24.9134  -30.4666   24.2273 N   0  0  0  0  0  0  0  0  0  0  0  0
  -19.9446  -29.3414   19.6989 N   0  0  0  0  0  0  0  0  0  0  0  0
  -28.4554  -17.4069   19.6031 N   0  0  0  0  0  0  0  0  0  0  0  0
  -19.8690  -30.4427   16.2566 N   0  3  0  0  0  0  0  0  0  0  0  0
  -27.1555   -8.8730   24.5995 O   0  0  0  0  0  0  0  0  0  0  0  0
  -23.8530  -28.5720   23.3856 O   0  0  0  0  0  0  0  0  0  0  0  0
  -20.9250  -30.5629   22.0980 O   0  0  0  0  0  0  0  0  0  0  0  0
  -21.0235  -28.4367   17.8565 O   0  0  0  0  0  0  0  0  0  0  0  0
  -26.8156  -16.6925   21.0347 O   0  0  0  0  0  0  0  0  0  0  0  0
  -20.7224   -8.0095   20.3035 O   0  0  0  0  0  0  0  0  0  0  0  0
  -27.7398  -27.3741   18.1931 O   0  0  0  0  0  0  0  0  0  1  0  0
  -17.1868   -6.9236   24.3931 F   0  0  0  0  0  0  0  0  0  0  0  0
  -21.4310   -6.3312   22.3829 F   0  0  0  0  0  0  0  0  0  0  0  0
  1  2  1  0  0  0  0
  1  5  2  0  0  0  0
  2  6  2  0  0  0  0
  3  8  2  0  0  0  0
  3 17  1  0  0  0  0
  4  9  1  0  0  0  0
  4 17  2  0  0  0  0
  5 19  1  0  0  0  0
  6 21  1  0  0  0  0
  7 10  2  0  0  0  0
  7 20  1  0  0  0  0
  8 27  1  0  0  0  0
  9 27  2  0  0  0  0
 10 28  1  0  0  0  0
 11 12  2  0  0  0  0
 11 29  1  0  0  0  0
 12 30  1  0  0  0  0
 13 22  1  0  0  0  0
 13 25  2  0  0  0  0
 14 22  2  0  0  0  0
 14 26  1  0  0  0  0
 15 23  1  0  0  0  0
 15 28  2  0  0  0  0
 16 30  2  0  0  0  0
 16 31  1  0  0  0  0
 17 32  1  0  0  0  0
 18 32  1  0  0  0  0
 18 33  2  0  0  0  0
 18 34  1  0  0  0  0
 19 21  2  0  0  0  0
 19 39  1  0  0  0  0
 20 23  2  0  0  0  0
 20 40  1  0  0  0  0
 21 52  1  0  0  0  0
 22 50  1  0  0  0  0
 23 41  1  0  0  0  0
 24 25  1  0  0  0  0
 24 26  2  0  0  0  0
 24 51  1  0  0  0  0
 25 57  1  0  0  0  0
 26 58  1  0  0  0  0
 27 82  1  0  0  0  0
 28 83  1  0  0  0  0
 29 31  2  0  0  0  0
 29 82  1  0  0  0  0
 30 84  1  0  0  0  0
 31 85  1  0  0  0  0
 32 67  2  0  0  0  0
 33 68  1  0  0  0  0
 33 71  1  0  0  0  0
 34 72  1  0  0  0  0
 34 77  2  0  0  0  0
 35 53  1  0  0  0  0
 35 73  1  0  0  0  0
 35 78  2  0  0  0  0
 36 64  1  0  0  0  0
 36 69  1  0  0  0  0
 36 79  2  0  0  0  0
 37 65  1  0  0  0  0
 37 74  1  0  0  0  0
 37 80  2  0  0  0  0
 38 70  1  0  0  0  0
 38 75  1  0  0  0  0
 38 81  2  0  0  0  0
 39 42  1  0  0  0  0
 40 53  1  0  0  0  0
 41 69  1  0  0  0  0
 42 44  1  0  0  0  0
 43 45  1  0  0  0  0
 43 48  1  0  0  0  0
 44 52  1  0  0  0  0
 45 54  1  0  0  0  0
 46 50  1  0  0  0  0
 46 55  1  0  0  0  0
 47 51  1  0  0  0  0
 47 56  1  0  0  0  0
 48 70  1  0  0  0  0
 49 54  1  0  0  0  0
 49 70  1  0  0  0  0
 50 55  1  0  0  0  0
 51 56  1  0  0  0  0
 52 73  1  0  0  0  0
 53 69  1  0  0  0  0
 54 68  1  0  0  0  0
 55 75  1  0  0  0  0
 56 83  1  0  0  0  0
 59 65  1  0  0  0  0
 60 66  1  0  0  0  0
 61 66  1  0  0  0  0
 62 66  1  0  0  0  0
 63 76  1  0  0  0  0
 64 66  1  0  0  0  0
 64 74  1  0  0  0  0
 65 76  1  0  0  0  0
 67 68  1  0  0  0  0
M  CHG  1  76   1
M  ISO  4  38 100  56 101  75 100  83 101
M  END
> <Batch ID>
0164

> <Smiles>
CNC(C)C(=O)NC(C(=O)N1Cc2cc([101O:1][101CH:1]3CC3c3c(C)cc(C4CC4[100NH:0][100C:0](=O)N4CCCC(n5nc(-c6ccc(Oc7ccc(F)cc7F)cc6)c(C(N)=O)c5N)C4)cc3C)ccc2CC1C(=O)NC1CCCc2ccccc21)C(C)(C)C

> <Shape>
0.289

> <Color>
0.079

> <Negative vol penalty>
0.000

$$$$

  -OEChem-04052322193D

 86 95  0     1  0  0  0  0  0999 V2000
  -16.1551  -27.5458   25.9504 C   0  0  0  0  0  0  0  0  0  0  0  0
  -17.2143  -26.6727   25.7244 C   0  0  0  0  0  0  0  0  0  0  0  0
  -22.9080  -17.1242   19.4459 C   0  0  0  0  0  0  0  0  0  0  0  0
  -22.1641  -14.8419   19.7196 C   0  0  0  0  0  0  0  0  0  0  0  0
  -16.0988  -28.7622   25.2713 C   0  0  0  0  0  0  0  0  0  0  0  0
  -18.2174  -27.0150   24.8183 C   0  0  0  0  0  0  0  0  0  0  0  0
  -24.1707  -25.6363   25.2223 C   0  0  0  0  0  0  0  0  0  0  0  0
  -21.8272  -17.3751   18.6007 C   0  0  0  0  0  0  0  0  0  0  0  0
  -21.0832  -15.0928   18.8744 C   0  0  0  0  0  0  0  0  0  0  0  0
  -24.9425  -24.6318   24.6400 C   0  0  0  0  0  0  0  0  0  0  0  0
  -18.0540  -16.5767   19.0809 C   0  0  0  0  0  0  0  0  0  0  0  0
  -16.8014  -16.1081   19.4767 C   0  0  0  0  0  0  0  0  0  0  0  0
  -25.6011  -26.1591   22.8928 C   0  0  0  0  0  0  0  0  0  0  0  0
  -27.5225  -21.7927   21.7195 C   0  0  0  0  0  0  0  0  0  0  0  0
  -16.6720  -14.7626   17.4741 C   0  0  0  0  0  0  0  0  0  0  0  0
  -23.0765  -15.8575   20.0053 C   0  0  0  0  0  0  0  0  0  0  0  0
  -24.2329  -15.7521   22.2767 C   0  0  0  0  0  0  0  0  0  0  0  0
  -17.1067  -29.1238   24.3636 C   0  0  0  0  0  0  0  0  0  0  0  0
  -24.0995  -26.9087   24.6372 C   0  0  0  0  0  0  0  0  0  0  0  0
  -18.1738  -28.2368   24.1254 C   0  0  0  0  0  0  0  0  0  0  0  0
  -24.8298  -27.1788   23.4710 C   0  0  0  0  0  0  0  0  0  0  0  0
  -29.1972  -20.7788   20.3039 C   0  0  0  0  0  0  0  0  0  0  0  0
  -28.1956  -20.6579   21.2672 C   0  0  0  0  0  0  0  0  0  0  0  0
  -27.8507  -23.0485   21.2085 C   0  0  0  0  0  0  0  0  0  0  0  0
  -29.5256  -22.0345   19.7929 C   0  0  0  0  0  0  0  0  0  0  0  0
  -28.8523  -23.1693   20.2452 C   0  0  0  0  0  0  0  0  0  0  0  0
  -20.9147  -16.3595   18.3149 C   0  0  0  0  0  0  0  0  0  0  0  0
  -25.6556  -24.8923   23.4735 C   0  0  0  0  0  0  0  0  0  0  0  0
  -18.6157  -16.1384   17.8816 C   0  0  0  0  0  0  0  0  0  0  0  0
  -16.1103  -15.2010   18.6733 C   0  0  0  0  0  0  0  0  0  0  0  0
  -17.9247  -15.2314   17.0783 C   0  0  0  0  0  0  0  0  0  0  0  0
  -24.1931  -15.5975   20.8780 C   0  0  0  0  0  0  0  0  0  0  0  0
  -25.5071  -15.3780   22.6274 C   0  0  0  0  0  0  0  0  0  0  0  0
  -23.2096  -16.1942   23.1783 C   0  0  0  0  0  0  0  0  0  0  0  0
  -21.7694  -28.6813   23.3993 C   0  0  0  0  0  0  0  0  0  0  0  0
  -24.1045  -30.9253   23.2142 C   0  0  0  0  0  0  0  0  0  0  0  0
  -27.4395  -31.6288   23.0415 C   0  0  0  0  0  0  0  0  0  0  0  0
  -30.6775  -15.3042   19.8673 C   0  0  0  0  0  0  0  0  0  0  0  0
  -16.9781  -30.4285   23.6179 C   0  0  0  0  0  0  0  0  0  0  0  0
  -23.2837  -27.9892   25.2925 C   0  0  0  0  0  0  0  0  0  0  0  0
  -24.8031  -28.5341   22.8147 C   0  0  0  0  0  0  0  0  0  0  0  0
  -18.2759  -30.8809   22.9537 C   0  0  0  0  0  0  0  0  0  0  0  0
  -29.1061  -12.5520   21.2486 C   0  0  0  0  0  0  0  0  0  0  0  0
  -18.9266  -29.7204   22.2076 C   0  0  0  0  0  0  0  0  0  0  0  0
  -27.6662  -13.0228   21.4537 C   0  0  0  0  0  0  0  0  0  0  0  0
  -30.7033  -18.8447   20.9440 C   0  0  0  0  0  0  0  0  0  0  0  0
  -28.9791  -18.5521   19.1158 C   0  0  0  0  0  0  0  0  0  0  0  0
  -29.6585  -13.0470   19.9166 C   0  0  0  0  0  0  0  0  0  0  0  0
  -31.4129  -17.5886   20.4440 C   0  0  0  0  0  0  0  0  0  0  0  0
  -29.7280  -17.3046   18.6562 C   0  0  0  0  0  0  0  0  0  0  0  0
  -28.1613  -15.0146   19.9531 C   0  0  0  0  0  0  0  0  0  0  0  0
  -29.9278  -19.5428   19.8135 C   0  0  0  0  0  0  0  0  0  0  0  0
  -19.2939  -28.5834   23.1686 C   0  0  1  0  0  0  0  0  0  0  0  0
  -22.8753  -29.0979   24.3274 C   0  0  1  0  0  0  0  0  0  0  0  0
  -27.5564  -14.5493   21.2927 C   0  0  1  0  0  0  0  0  0  0  0  0
  -27.8252  -19.3252   21.8310 C   0  0  0  0  0  0  0  0  0  0  0  0
  -30.5996  -22.1641   18.7592 C   0  0  0  0  0  0  0  0  0  0  0  0
  -29.2029  -24.5174   19.6995 C   0  0  0  0  0  0  0  0  0  0  0  0
  -29.0400  -33.5531   22.8611 C   0  0  0  0  0  0  0  0  0  0  0  0
  -23.4161  -31.2174   20.2560 C   0  0  0  0  0  0  0  0  0  0  0  0
  -25.6017  -32.3956   19.9353 C   0  0  0  0  0  0  0  0  0  0  0  0
  -23.8686  -33.3735   21.4396 C   0  0  0  0  0  0  0  0  0  0  0  0
  -28.7186  -30.9578   25.6246 C   0  0  0  0  0  0  0  0  0  0  0  0
  -27.1140  -24.2476   21.7090 C   0  0  0  0  0  0  0  0  0  1  0  0
  -25.1341  -31.3140   22.1809 C   0  0  1  0  0  0  0  0  0  0  0  0
  -28.3012  -32.6178   23.8055 C   0  0  2  0  0  0  0  0  0  0  0  0
  -24.5043  -32.0489   20.9640 C   0  0  0  0  0  0  0  0  0  0  0  0
  -25.3502  -15.1595   20.3745 N   0  0  0  0  0  0  0  0  0  0  0  0
  -26.1289  -15.0357   21.4628 N   0  0  0  0  0  0  0  0  0  0  0  0
  -23.9858  -29.5557   23.4899 N   0  0  0  0  0  0  0  0  0  0  0  0
  -29.5300  -14.4995   19.7999 N   0  0  0  0  0  0  0  0  0  0  0  0
  -30.4865  -16.6912   19.7549 N   0  0  0  0  0  0  0  0  0  0  0  0
  -26.1450  -15.3117   23.8153 N   0  0  0  0  0  0  0  0  0  0  0  0
  -21.9579  -16.5397   22.6508 N   0  0  0  0  0  0  0  0  0  0  0  0
  -20.5009  -28.9083   23.8981 N   0  0  0  0  0  0  0  0  0  0  0  0
  -26.1488  -32.0887   22.8870 N   0  0  0  0  0  0  0  0  0  0  0  0
  -29.3074  -31.8957   24.6344 N   0  3  0  0  0  0  0  0  0  0  0  0
  -23.4046  -16.2960   24.4133 O   0  0  0  0  0  0  0  0  0  0  0  0
  -22.0465  -28.1915   22.3107 O   0  0  0  0  0  0  0  0  0  0  0  0
  -23.4353  -31.8050   23.7619 O   0  0  0  0  0  0  0  0  0  0  0  0
  -27.8693  -30.5572   22.6203 O   0  0  0  0  0  0  0  0  0  0  0  0
  -31.8039  -14.8166   20.0237 O   0  0  0  0  0  0  0  0  0  0  0  0
  -19.8598  -16.6041   17.4904 O   0  0  0  0  0  0  0  0  0  0  0  0
  -26.4146  -23.9064   22.8986 O   0  0  0  0  0  0  0  0  0  1  0  0
  -14.9081  -14.7498   19.0543 F   0  0  0  0  0  0  0  0  0  0  0  0
  -18.4597  -14.8058   15.9257 F   0  0  0  0  0  0  0  0  0  0  0  0
  1  2  1  0  0  0  0
  1  5  2  0  0  0  0
  2  6  2  0  0  0  0
  3  8  2  0  0  0  0
  3 16  1  0  0  0  0
  4  9  1  0  0  0  0
  4 16  2  0  0  0  0
  5 18  1  0  0  0  0
  6 20  1  0  0  0  0
  7 10  2  0  0  0  0
  7 19  1  0  0  0  0
  8 27  1  0  0  0  0
  9 27  2  0  0  0  0
 10 28  1  0  0  0  0
 11 12  2  0  0  0  0
 11 29  1  0  0  0  0
 12 30  1  0  0  0  0
 13 21  1  0  0  0  0
 13 28  2  0  0  0  0
 14 23  2  0  0  0  0
 14 24  1  0  0  0  0
 15 30  2  0  0  0  0
 15 31  1  0  0  0  0
 16 32  1  0  0  0  0
 17 32  1  0  0  0  0
 17 33  2  0  0  0  0
 17 34  1  0  0  0  0
 18 20  2  0  0  0  0
 18 39  1  0  0  0  0
 19 21  2  0  0  0  0
 19 40  1  0  0  0  0
 20 53  1  0  0  0  0
 21 41  1  0  0  0  0
 22 23  1  0  0  0  0
 22 25  2  0  0  0  0
 22 52  1  0  0  0  0
 23 56  1  0  0  0  0
 24 26  2  0  0  0  0
 24 64  1  0  0  0  0
 25 26  1  0  0  0  0
 25 57  1  0  0  0  0
 26 58  1  0  0  0  0
 27 83  1  0  0  0  0
 28 84  1  0  0  0  0
 29 31  2  0  0  0  0
 29 83  1  0  0  0  0
 30 85  1  0  0  0  0
 31 86  1  0  0  0  0
 32 68  2  0  0  0  0
 33 69  1  0  0  0  0
 33 73  1  0  0  0  0
 34 74  1  0  0  0  0
 34 78  2  0  0  0  0
 35 54  1  0  0  0  0
 35 75  1  0  0  0  0
 35 79  2  0  0  0  0
 36 65  1  0  0  0  0
 36 70  1  0  0  0  0
 36 80  2  0  0  0  0
 37 66  1  0  0  0  0
 37 76  1  0  0  0  0
 37 81  2  0  0  0  0
 38 71  1  0  0  0  0
 38 72  1  0  0  0  0
 38 82  2  0  0  0  0
 39 42  1  0  0  0  0
 40 54  1  0  0  0  0
 41 70  1  0  0  0  0
 42 44  1  0  0  0  0
 43 45  1  0  0  0  0
 43 48  1  0  0  0  0
 44 53  1  0  0  0  0
 45 55  1  0  0  0  0
 46 49  1  0  0  0  0
 46 52  1  0  0  0  0
 47 50  1  0  0  0  0
 47 52  1  0  0  0  0
 48 71  1  0  0  0  0
 49 72  1  0  0  0  0
 50 72  1  0  0  0  0
 51 55  1  0  0  0  0
 51 71  1  0  0  0  0
 53 75  1  0  0  0  0
 54 70  1  0  0  0  0
 55 69  1  0  0  0  0
 59 66  1  0  0  0  0
 60 67  1  0  0  0  0
 61 67  1  0  0  0  0
 62 67  1  0  0  0  0
 63 77  1  0  0  0  0
 64 84  1  0  0  0  0
 65 67  1  0  0  0  0
 65 76  1  0  0  0  0
 66 77  1  0  0  0  0
 68 69  1  0  0  0  0
M  CHG  1  77   1
M  ISO  4  38 100  64 101  72 100  84 101
M  END
> <Batch ID>
0164

> <Smiles>
CNC(C)C(=O)NC(C(=O)N1Cc2cc([101O:1][101CH2:1]c3cc(C)c(C4CC[100N:0]([100C:0](=O)N5CCCC(n6nc(-c7ccc(Oc8ccc(F)cc8F)cc7)c(C(N)=O)c6N)C5)CC4)c(C)c3C)ccc2CC1C(=O)NC1CCCc2ccccc21)C(C)(C)C

> <Shape>
0.220

> <Color>
0.079

> <Negative vol penalty>
0.000

$$$$

  -OEChem-04052322193D

 89 99  0     1  0  0  0  0  0999 V2000
  -28.6519  -33.4644   28.2560 C   0  0  0  0  0  0  0  0  0  0  0  0
  -28.4205  -32.3644   27.4364 C   0  0  0  0  0  0  0  0  0  0  0  0
  -26.5347   -8.3338   21.8503 C   0  0  0  0  0  0  0  0  0  0  0  0
  -24.6006   -8.1127   20.4194 C   0  0  0  0  0  0  0  0  0  0  0  0
  -27.7414  -34.5201   28.2775 C   0  0  0  0  0  0  0  0  0  0  0  0
  -27.2777  -32.3189   26.6386 C   0  0  0  0  0  0  0  0  0  0  0  0
  -28.2613  -30.7568   21.9230 C   0  0  0  0  0  0  0  0  0  0  0  0
  -26.0917   -7.2551   22.6156 C   0  0  0  0  0  0  0  0  0  0  0  0
  -24.1576   -7.0340   21.1847 C   0  0  0  0  0  0  0  0  0  0  0  0
  -28.4415  -29.3878   21.7303 C   0  0  0  0  0  0  0  0  0  0  0  0
  -22.3321   -4.4507   22.9747 C   0  0  0  0  0  0  0  0  0  0  0  0
  -20.9829   -4.4162   23.3268 C   0  0  0  0  0  0  0  0  0  0  0  0
  -26.1760  -29.2096   20.9211 C   0  0  0  0  0  0  0  0  0  0  0  0
  -28.1916  -23.0265   21.6874 C   0  0  0  0  0  0  0  0  0  0  0  0
  -21.2328   -6.5187   24.4904 C   0  0  0  0  0  0  0  0  0  0  0  0
  -25.7890   -8.7627   20.7521 C   0  0  0  0  0  0  0  0  0  0  0  0
  -27.0858   -9.8313   18.8328 C   0  0  0  0  0  0  0  0  0  0  0  0
  -26.5918  -34.4919   27.4724 C   0  0  0  0  0  0  0  0  0  0  0  0
  -27.0315  -31.3616   21.6259 C   0  0  0  0  0  0  0  0  0  0  0  0
  -26.3503  -33.3746   26.6504 C   0  0  0  0  0  0  0  0  0  0  0  0
  -25.9836  -30.5869   21.1085 C   0  0  0  0  0  0  0  0  0  0  0  0
  -29.5301  -24.7712   19.9467 C   0  0  0  0  0  0  0  0  0  0  0  0
  -29.5530  -23.3849   19.7062 C   0  0  0  0  0  0  0  0  0  0  0  0
  -28.1862  -24.3958   21.9367 C   0  0  0  0  0  0  0  0  0  0  0  0
  -28.8538  -25.2637   21.0731 C   0  0  0  0  0  0  0  0  0  0  0  0
  -24.9033   -6.6051   22.2829 C   0  0  0  0  0  0  0  0  0  0  0  0
  -27.3979  -28.6135   21.2320 C   0  0  0  0  0  0  0  0  0  0  0  0
  -23.1317   -5.5192   23.3804 C   0  0  0  0  0  0  0  0  0  0  0  0
  -28.8688  -22.5234   20.5770 C   0  0  0  0  0  0  0  0  0  0  0  0
  -20.4332   -5.4502   24.0847 C   0  0  0  0  0  0  0  0  0  0  0  0
  -22.5821   -6.5532   24.1383 C   0  0  0  0  0  0  0  0  0  0  0  0
  -26.2458   -9.8773   19.9615 C   0  0  0  0  0  0  0  0  0  0  0  0
  -27.2182  -11.1436   18.4496 C   0  0  0  0  0  0  0  0  0  0  0  0
  -27.6922   -8.7032   18.1882 C   0  0  0  0  0  0  0  0  0  0  0  0
  -24.8346  -32.9229   23.3110 C   0  0  0  0  0  0  0  0  0  0  0  0
  -23.5041  -33.4098   20.3930 C   0  0  0  0  0  0  0  0  0  0  0  0
  -23.1640  -32.3831   17.1561 C   0  0  0  0  0  0  0  0  0  0  0  0
  -28.0423  -16.3540   19.4425 C   0  0  0  0  0  0  0  0  0  0  0  0
  -25.6125  -35.6352   27.5650 C   0  0  0  0  0  0  0  0  0  0  0  0
  -26.8617  -32.8442   21.8142 C   0  0  0  0  0  0  0  0  0  0  0  0
  -30.2681  -25.7383   19.0550 C   0  0  0  0  0  0  0  0  0  0  0  0
  -30.2452  -22.8059   18.4975 C   0  0  0  0  0  0  0  0  0  0  0  0
  -24.6502  -31.1915   20.7548 C   0  0  0  0  0  0  0  0  0  0  0  0
  -24.6162  -35.6788   26.4092 C   0  0  0  0  0  0  0  0  0  0  0  0
  -30.6286  -25.1480   17.6930 C   0  0  0  0  0  0  0  0  0  0  0  0
  -31.2470  -23.7658   17.8586 C   0  0  0  0  0  0  0  0  0  0  0  0
  -24.7351  -15.2847   19.9334 C   0  0  0  0  0  0  0  0  0  0  0  0
  -24.0360  -34.2918   26.1519 C   0  0  0  0  0  0  0  0  0  0  0  0
  -24.8984  -13.7655   19.8942 C   0  0  0  0  0  0  0  0  0  0  0  0
  -27.4765  -19.9555   18.7670 C   0  0  0  0  0  0  0  0  0  0  0  0
  -27.2918  -19.5451   21.2583 C   0  0  0  0  0  0  0  0  0  0  0  0
  -25.8746  -15.9640   20.6949 C   0  0  0  0  0  0  0  0  0  0  0  0
  -28.2974  -18.6729   18.6415 C   0  0  0  0  0  0  0  0  0  0  0  0
  -28.1194  -18.2748   21.0765 C   0  0  0  0  0  0  0  0  0  0  0  0
  -27.3870  -14.0788   20.1707 C   0  0  0  0  0  0  0  0  0  0  0  0
  -25.1347  -33.2996   25.7521 C   0  0  1  0  0  0  0  0  0  0  0  0
  -25.4027  -33.2644   21.9626 C   0  0  1  0  0  0  0  0  0  0  0  0
  -26.2879  -13.3726   19.3616 C   0  0  1  0  0  0  0  0  0  0  0  0
  -27.5621  -20.5766   20.1616 C   0  0  0  0  0  0  0  0  0  0  0  0
  -27.4578  -24.9069   23.1367 C   0  0  0  0  0  0  0  0  0  0  0  0
  -21.9797  -32.9607   15.0204 C   0  0  0  0  0  0  0  0  0  0  0  0
  -20.9145  -32.2545   21.5195 C   0  0  0  0  0  0  0  0  0  0  0  0
  -20.0990  -31.9739   19.1690 C   0  0  0  0  0  0  0  0  0  0  0  0
  -20.6114  -34.2523   20.0459 C   0  0  0  0  0  0  0  0  0  0  0  0
  -25.7165  -32.8067   15.7193 C   0  0  0  0  0  0  0  0  0  0  0  0
  -28.8444  -26.7312   21.3759 C   0  0  0  0  0  0  0  0  0  1  0  0
  -22.5115  -32.6654   19.5329 C   0  0  1  0  0  0  0  0  0  0  0  0
  -23.2447  -33.1432   15.8445 C   0  0  2  0  0  0  0  0  0  0  0  0
  -21.0585  -32.7745   20.0752 C   0  0  0  0  0  0  0  0  0  0  0  0
  -25.8710  -11.1203   20.2751 N   0  0  0  0  0  0  0  0  0  0  0  0
  -26.4785  -11.8677   19.3378 N   0  0  0  0  0  0  0  0  0  0  0  0
  -24.5313  -32.6441   20.9626 N   0  0  0  0  0  0  0  0  0  0  0  0
  -27.1786  -15.5282   20.1777 N   0  0  0  0  0  0  0  0  0  0  0  0
  -27.9917  -17.7310   19.7178 N   0  0  0  0  0  0  0  0  0  0  0  0
  -27.8941  -11.7373   17.4431 N   0  0  0  0  0  0  0  0  0  0  0  0
  -27.4517   -7.4256   18.7119 N   0  0  0  0  0  0  0  0  0  0  0  0
  -25.5139  -33.4957   24.3693 N   0  0  0  0  0  0  0  0  0  0  0  0
  -22.6831  -33.1756   18.1769 N   0  0  0  0  0  0  0  0  0  0  0  0
  -24.4035  -32.6646   15.0389 N   0  3  0  0  0  0  0  0  0  0  0  0
  -28.4387   -8.8261   17.1877 O   0  0  0  0  0  0  0  0  0  0  0  0
  -23.8517  -32.1949   23.3858 O   0  0  0  0  0  0  0  0  0  0  0  0
  -23.3770  -34.6270   20.5477 O   0  0  0  0  0  0  0  0  0  0  0  0
  -23.4911  -31.2033   17.2635 O   0  0  0  0  0  0  0  0  0  0  0  0
  -28.8102  -15.8923   18.5892 O   0  0  0  0  0  0  0  0  0  0  0  0
  -24.4709   -5.5523   23.0293 O   0  0  0  0  0  0  0  0  0  0  0  0
  -28.8435  -21.1717   20.3545 O   0  0  0  0  0  0  0  0  0  0  0  0
  -27.5723  -27.2666   21.0422 O   0  0  0  0  0  0  0  0  0  1  0  0
  -19.1372   -5.4177   24.4215 F   0  0  0  0  0  0  0  0  0  0  0  0
  -23.3450   -7.5829   24.5300 F   0  0  0  0  0  0  0  0  0  0  0  0
  1  2  1  0  0  0  0
  1  5  2  0  0  0  0
  2  6  2  0  0  0  0
  3  8  2  0  0  0  0
  3 16  1  0  0  0  0
  4  9  1  0  0  0  0
  4 16  2  0  0  0  0
  5 18  1  0  0  0  0
  6 20  1  0  0  0  0
  7 10  2  0  0  0  0
  7 19  1  0  0  0  0
  8 26  1  0  0  0  0
  9 26  2  0  0  0  0
 10 27  1  0  0  0  0
 11 12  2  0  0  0  0
 11 28  1  0  0  0  0
 12 30  1  0  0  0  0
 13 21  1  0  0  0  0
 13 27  2  0  0  0  0
 14 24  2  0  0  0  0
 14 29  1  0  0  0  0
 15 30  2  0  0  0  0
 15 31  1  0  0  0  0
 16 32  1  0  0  0  0
 17 32  1  0  0  0  0
 17 33  2  0  0  0  0
 17 34  1  0  0  0  0
 18 20  2  0  0  0  0
 18 39  1  0  0  0  0
 19 21  2  0  0  0  0
 19 40  1  0  0  0  0
 20 56  1  0  0  0  0
 21 43  1  0  0  0  0
 22 23  1  0  0  0  0
 22 25  2  0  0  0  0
 22 41  1  0  0  0  0
 23 29  2  0  0  0  0
 23 42  1  0  0  0  0
 24 25  1  0  0  0  0
 24 60  1  0  0  0  0
 25 66  1  0  0  0  0
 26 85  1  0  0  0  0
 27 87  1  0  0  0  0
 28 31  2  0  0  0  0
 28 85  1  0  0  0  0
 29 86  1  0  0  0  0
 30 88  1  0  0  0  0
 31 89  1  0  0  0  0
 32 70  2  0  0  0  0
 33 71  1  0  0  0  0
 33 75  1  0  0  0  0
 34 76  1  0  0  0  0
 34 80  2  0  0  0  0
 35 57  1  0  0  0  0
 35 77  1  0  0  0  0
 35 81  2  0  0  0  0
 36 67  1  0  0  0  0
 36 72  1  0  0  0  0
 36 82  2  0  0  0  0
 37 68  1  0  0  0  0
 37 78  1  0  0  0  0
 37 83  2  0  0  0  0
 38 73  1  0  0  0  0
 38 74  1  0  0  0  0
 38 84  2  0  0  0  0
 39 44  1  0  0  0  0
 40 57  1  0  0  0  0
 41 45  1  0  0  0  0
 42 46  1  0  0  0  0
 43 72  1  0  0  0  0
 44 48  1  0  0  0  0
 45 46  1  0  0  0  0
 47 49  1  0  0  0  0
 47 52  1  0  0  0  0
 48 56  1  0  0  0  0
 49 58  1  0  0  0  0
 50 53  1  0  0  0  0
 50 59  1  0  0  0  0
 51 54  1  0  0  0  0
 51 59  1  0  0  0  0
 52 73  1  0  0  0  0
 53 74  1  0  0  0  0
 54 74  1  0  0  0  0
 55 58  1  0  0  0  0
 55 73  1  0  0  0  0
 56 77  1  0  0  0  0
 57 72  1  0  0  0  0
 58 71  1  0  0  0  0
 59 86  1  0  0  0  0
 61 68  1  0  0  0  0
 62 69  1  0  0  0  0
 63 69  1  0  0  0  0
 64 69  1  0  0  0  0
 65 79  1  0  0  0  0
 66 87  1  0  0  0  0
 67 69  1  0  0  0  0
 67 78  1  0  0  0  0
 68 79  1  0  0  0  0
 70 71  1  0  0  0  0
M  CHG  1  79   1
M  ISO  4  38 100  66 101  74 100  87 101
M  END
> <Batch ID>
0164

> <Smiles>
CNC(C)C(=O)NC(C(=O)N1Cc2cc([101O:1][101CH2:1]c3c(C)cc(OC4CC[100N:0]([100C:0](=O)N5CCCC(n6nc(-c7ccc(Oc8ccc(F)cc8F)cc7)c(C(N)=O)c6N)C5)CC4)c4c3CCCC4)ccc2CC1C(=O)NC1CCCc2ccccc21)C(C)(C)C

> <Shape>
0.250

> <Color>
0.071

> <Negative vol penalty>
0.000

$$$$

  -OEChem-04052322193D

 88 97  0     1  0  0  0  0  0999 V2000
  -28.7701  -36.6047   24.7688 C   0  0  0  0  0  0  0  0  0  0  0  0
  -28.9095  -35.2213   24.7223 C   0  0  0  0  0  0  0  0  0  0  0  0
  -23.2242   -9.7629   19.8434 C   0  0  0  0  0  0  0  0  0  0  0  0
  -24.0014   -9.7037   22.1302 C   0  0  0  0  0  0  0  0  0  0  0  0
  -27.5135  -37.1837   24.5965 C   0  0  0  0  0  0  0  0  0  0  0  0
  -27.7921  -34.4160   24.5045 C   0  0  0  0  0  0  0  0  0  0  0  0
  -27.6055  -29.1390   21.4022 C   0  0  0  0  0  0  0  0  0  0  0  0
  -22.5849   -8.5372   20.0290 C   0  0  0  0  0  0  0  0  0  0  0  0
  -23.3620   -8.4780   22.3158 C   0  0  0  0  0  0  0  0  0  0  0  0
  -27.6275  -27.8073   21.8144 C   0  0  0  0  0  0  0  0  0  0  0  0
  -19.7296   -7.4061   21.4435 C   0  0  0  0  0  0  0  0  0  0  0  0
  -18.4272   -7.2748   20.9616 C   0  0  0  0  0  0  0  0  0  0  0  0
  -25.2182  -27.7422   21.7126 C   0  0  0  0  0  0  0  0  0  0  0  0
  -27.6688  -19.4131   24.7840 C   0  0  0  0  0  0  0  0  0  0  0  0
  -19.1403   -5.4668   19.5265 C   0  0  0  0  0  0  0  0  0  0  0  0
  -23.9326  -10.3462   20.8940 C   0  0  0  0  0  0  0  0  0  0  0  0
  -24.0543  -12.8941   20.9194 C   0  0  0  0  0  0  0  0  0  0  0  0
  -26.3817  -36.3856   24.3669 C   0  0  0  0  0  0  0  0  0  0  0  0
  -26.3870  -29.7866   21.1522 C   0  0  0  0  0  0  0  0  0  0  0  0
  -26.5190  -34.9848   24.3303 C   0  0  0  0  0  0  0  0  0  0  0  0
  -25.1836  -29.0813   21.2949 C   0  0  0  0  0  0  0  0  0  0  0  0
  -27.8420  -19.8417   23.4679 C   0  0  0  0  0  0  0  0  0  0  0  0
  -28.7121  -19.1563   22.6200 C   0  0  0  0  0  0  0  0  0  0  0  0
  -29.4090  -18.0423   23.0882 C   0  0  0  0  0  0  0  0  0  0  0  0
  -29.2358  -17.6138   24.4043 C   0  0  0  0  0  0  0  0  0  0  0  0
  -22.6537   -7.8948   21.2652 C   0  0  0  0  0  0  0  0  0  0  0  0
  -26.4337  -27.1095   21.9725 C   0  0  0  0  0  0  0  0  0  0  0  0
  -20.7374   -6.5678   20.9668 C   0  0  0  0  0  0  0  0  0  0  0  0
  -18.1326   -6.3052   20.0032 C   0  0  0  0  0  0  0  0  0  0  0  0
  -28.3658  -18.2992   25.2522 C   0  0  0  0  0  0  0  0  0  0  0  0
  -20.4428   -5.5981   20.0083 C   0  0  0  0  0  0  0  0  0  0  0  0
  -24.5938  -11.6120   20.7027 C   0  0  0  0  0  0  0  0  0  0  0  0
  -25.0744  -13.7550   20.5959 C   0  0  0  0  0  0  0  0  0  0  0  0
  -22.7479  -13.2730   21.3728 C   0  0  0  0  0  0  0  0  0  0  0  0
  -24.8822  -32.2937   22.3987 C   0  0  0  0  0  0  0  0  0  0  0  0
  -22.8042  -31.7642   19.9647 C   0  0  0  0  0  0  0  0  0  0  0  0
  -21.4758  -29.5683   17.7153 C   0  0  0  0  0  0  0  0  0  0  0  0
  -30.4514  -15.2326   20.8209 C   0  0  0  0  0  0  0  0  0  0  0  0
  -25.0366  -37.0546   24.2336 C   0  0  0  0  0  0  0  0  0  0  0  0
  -26.3815  -31.2155   20.6824 C   0  0  0  0  0  0  0  0  0  0  0  0
  -23.8499  -29.7248   21.0196 C   0  0  0  0  0  0  0  0  0  0  0  0
  -23.9631  -36.1500   23.6341 C   0  0  0  0  0  0  0  0  0  0  0  0
  -29.5020  -12.8998   18.3043 C   0  0  0  0  0  0  0  0  0  0  0  0
  -23.9888  -34.7777   24.2997 C   0  0  0  0  0  0  0  0  0  0  0  0
  -28.0992  -12.4583   18.7252 C   0  0  0  0  0  0  0  0  0  0  0  0
  -30.4075  -13.1298   19.5122 C   0  0  0  0  0  0  0  0  0  0  0  0
  -28.4625  -13.6125   20.9467 C   0  0  0  0  0  0  0  0  0  0  0  0
  -27.8475  -22.3783   22.6962 C   0  0  0  0  0  0  0  0  0  0  0  0
  -26.3030  -21.9297   24.0171 C   0  0  0  0  0  0  0  0  0  0  0  0
  -27.0652  -21.0688   22.9764 C   0  0  0  0  0  0  0  0  0  0  0  0
  -25.3347  -34.0790   24.0716 C   0  0  1  0  0  0  0  0  0  0  0  0
  -25.0598  -31.9280   20.9522 C   0  0  1  0  0  0  0  0  0  0  0  0
  -27.4964  -13.4222   19.7648 C   0  0  2  0  0  0  0  0  0  0  0  0
  -28.8948  -19.6207   21.2103 C   0  0  0  0  0  0  0  0  0  0  0  0
  -29.9708  -16.4230   24.9272 C   0  0  0  0  0  0  0  0  0  0  0  0
  -19.7691  -29.4175   15.8818 C   0  0  0  0  0  0  0  0  0  0  0  0
  -25.9401  -24.5991   25.0075 C   0  0  0  0  0  0  0  0  0  0  0  0
  -20.5757  -31.6979   22.0478 C   0  0  0  0  0  0  0  0  0  0  0  0
  -19.1002  -30.6246   20.3334 C   0  0  0  0  0  0  0  0  0  0  0  0
  -19.9996  -32.9182   19.9423 C   0  0  0  0  0  0  0  0  0  0  0  0
  -23.5289  -28.8618   15.7042 C   0  0  0  0  0  0  0  0  0  0  0  0
  -30.3427  -17.3061   22.1803 C   0  0  0  0  0  0  0  0  0  0  0  0
  -27.5310  -25.4065   23.2180 C   0  0  0  0  0  0  0  0  0  1  0  0
  -21.5570  -30.9328   19.7856 C   0  0  1  0  0  0  0  0  0  0  0  0
  -21.2274  -29.6826   16.2221 C   0  0  2  0  0  0  0  0  0  0  0  0
  -27.1082  -24.2398   24.1035 C   0  0  2  0  0  0  0  0  0  0  0  0
  -20.3330  -31.5316   20.5344 C   0  0  0  0  0  0  0  0  0  0  0  0
  -25.8583  -11.6503   20.2745 N   0  0  0  0  0  0  0  0  0  0  0  0
  -26.1220  -12.9669   20.2194 N   0  0  0  0  0  0  0  0  0  0  0  0
  -23.8966  -31.1255   20.5686 N   0  0  0  0  0  0  0  0  0  0  0  0
  -29.7784  -14.0541   20.4587 N   0  0  0  0  0  0  0  0  0  0  0  0
  -25.1686  -15.1017   20.5995 N   0  0  0  0  0  0  0  0  0  0  0  0
  -21.8213  -12.2617   21.6608 N   0  0  0  0  0  0  0  0  0  0  0  0
  -25.3991  -33.5306   22.7339 N   0  0  0  0  0  0  0  0  0  0  0  0
  -21.3653  -30.7892   18.3464 N   0  0  0  0  0  0  0  0  0  0  0  0
  -29.7820  -16.0561   21.7179 N   0  0  0  0  0  0  0  0  0  0  0  0
  -26.6872  -23.1086   23.2271 N   0  3  0  0  0  0  0  0  0  0  0  0
  -22.0690  -28.7016   15.4804 N   0  3  0  0  0  0  0  0  0  0  0  0
  -22.4070  -14.4732   21.5024 O   0  0  0  0  0  0  0  0  0  0  0  0
  -24.3166  -31.5122   23.1544 O   0  0  0  0  0  0  0  0  0  0  0  0
  -22.8115  -32.9351   19.5764 O   0  0  0  0  0  0  0  0  0  0  0  0
  -21.7376  -28.5018   18.2673 O   0  0  0  0  0  0  0  0  0  0  0  0
  -31.5638  -15.5316   20.3736 O   0  0  0  0  0  0  0  0  0  0  0  0
  -22.0297   -6.6988   21.4467 O   0  0  0  0  0  0  0  0  0  0  0  0
  -26.4523  -25.8098   22.3753 O   0  0  0  0  0  0  0  0  0  1  0  0
  -16.8815   -6.1782   19.5417 F   0  0  0  0  0  0  0  0  0  0  0  0
  -28.1919  -17.8953   26.5185 F   0  0  0  0  0  0  0  0  0  0  0  0
  -21.4065   -4.7891   19.5474 F   0  0  0  0  0  0  0  0  0  0  0  0
  1  2  1  0  0  0  0
  1  5  2  0  0  0  0
  2  6  2  0  0  0  0
  3  8  2  0  0  0  0
  3 16  1  0  0  0  0
  4  9  1  0  0  0  0
  4 16  2  0  0  0  0
  5 18  1  0  0  0  0
  6 20  1  0  0  0  0
  7 10  2  0  0  0  0
  7 19  1  0  0  0  0
  8 26  1  0  0  0  0
  9 26  2  0  0  0  0
 10 27  1  0  0  0  0
 11 12  2  0  0  0  0
 11 28  1  0  0  0  0
 12 29  1  0  0  0  0
 13 21  1  0  0  0  0
 13 27  2  0  0  0  0
 14 22  1  0  0  0  0
 14 30  2  0  0  0  0
 15 29  2  0  0  0  0
 15 31  1  0  0  0  0
 16 32  1  0  0  0  0
 17 32  1  0  0  0  0
 17 33  2  0  0  0  0
 17 34  1  0  0  0  0
 18 20  2  0  0  0  0
 18 39  1  0  0  0  0
 19 21  2  0  0  0  0
 19 40  1  0  0  0  0
 20 51  1  0  0  0  0
 21 41  1  0  0  0  0
 22 23  2  0  0  0  0
 22 50  1  0  0  0  0
 23 24  1  0  0  0  0
 23 54  1  0  0  0  0
 24 25  2  0  0  0  0
 24 62  1  0  0  0  0
 25 30  1  0  0  0  0
 25 55  1  0  0  0  0
 26 84  1  0  0  0  0
 27 85  1  0  0  0  0
 28 31  2  0  0  0  0
 28 84  1  0  0  0  0
 29 86  1  0  0  0  0
 30 87  1  0  0  0  0
 31 88  1  0  0  0  0
 32 68  2  0  0  0  0
 33 69  1  0  0  0  0
 33 72  1  0  0  0  0
 34 73  1  0  0  0  0
 34 79  2  0  0  0  0
 35 52  1  0  0  0  0
 35 74  1  0  0  0  0
 35 80  2  0  0  0  0
 36 64  1  0  0  0  0
 36 70  1  0  0  0  0
 36 81  2  0  0  0  0
 37 65  1  0  0  0  0
 37 75  1  0  0  0  0
 37 82  2  0  0  0  0
 38 71  1  0  0  0  0
 38 76  1  0  0  0  0
 38 83  2  0  0  0  0
 39 42  1  0  0  0  0
 40 52  1  0  0  0  0
 41 70  1  0  0  0  0
 42 44  1  0  0  0  0
 43 45  1  0  0  0  0
 43 46  1  0  0  0  0
 44 51  1  0  0  0  0
 45 53  1  0  0  0  0
 46 71  1  0  0  0  0
 47 53  1  0  0  0  0
 47 71  1  0  0  0  0
 48 50  1  0  0  0  0
 48 77  1  0  0  0  0
 49 50  1  0  0  0  0
 49 77  1  0  0  0  0
 51 74  1  0  0  0  0
 52 70  1  0  0  0  0
 53 69  1  0  0  0  0
 56 65  1  0  0  0  0
 57 66  1  0  0  0  0
 58 67  1  0  0  0  0
 59 67  1  0  0  0  0
 60 67  1  0  0  0  0
 61 78  1  0  0  0  0
 62 76  1  0  0  0  0
 63 66  1  0  0  0  0
 63 85  1  0  0  0  0
 64 67  1  0  0  0  0
 64 75  1  0  0  0  0
 65 78  1  0  0  0  0
 66 77  1  0  0  0  0
 68 69  1  0  0  0  0
M  CHG  2  77   1  78   1
M  ISO  4  38 100  63 101  76 100  85 101
M  END
> <Batch ID>
0164

> <Smiles>
CNC(C)C(=O)NC(C(=O)N1Cc2cc([101O:1][101CH2:1]C(C)N3CC(c4cc(F)c(C)c(C[100NH:0][100C:0](=O)N5CCCC(n6nc(-c7ccc(Oc8ccc(F)cc8F)cc7)c(C(N)=O)c6N)C5)c4C)C3)ccc2CC1C(=O)NC1CCCc2ccccc21)C(C)(C)C

> <Shape>
0.278

> <Color>
0.187

> <Negative vol penalty>
0.000

$$$$

  -OEChem-04052322193D

 85 95  0     1  0  0  0  0  0999 V2000
  -20.1621  -32.8549   26.3285 C   0  0  0  0  0  0  0  0  0  0  0  0
  -21.4049  -32.5069   25.8094 C   0  0  0  0  0  0  0  0  0  0  0  0
  -26.6999  -13.2146   21.2536 C   0  0  0  0  0  0  0  0  0  0  0  0
  -25.4768  -12.7022   19.2340 C   0  0  0  0  0  0  0  0  0  0  0  0
  -19.0749  -31.9973   26.1656 C   0  0  0  0  0  0  0  0  0  0  0  0
  -21.5616  -31.3005   25.1278 C   0  0  0  0  0  0  0  0  0  0  0  0
  -24.2299  -31.8156   20.8546 C   0  0  0  0  0  0  0  0  0  0  0  0
  -25.7335  -12.5490   22.0078 C   0  0  0  0  0  0  0  0  0  0  0  0
  -24.5104  -12.0365   19.9882 C   0  0  0  0  0  0  0  0  0  0  0  0
  -25.6149  -31.9179   20.9772 C   0  0  0  0  0  0  0  0  0  0  0  0
  -24.1628   -9.0314   21.4943 C   0  0  0  0  0  0  0  0  0  0  0  0
  -23.7219   -7.7917   21.0312 C   0  0  0  0  0  0  0  0  0  0  0  0
  -25.8325  -29.5870   20.3955 C   0  0  0  0  0  0  0  0  0  0  0  0
  -21.4681   -8.6491   20.8818 C   0  0  0  0  0  0  0  0  0  0  0  0
  -26.5715  -13.2912   19.8668 C   0  0  0  0  0  0  0  0  0  0  0  0
  -28.7344  -13.4282   18.5211 C   0  0  0  0  0  0  0  0  0  0  0  0
  -19.2161  -30.7843   25.4733 C   0  0  0  0  0  0  0  0  0  0  0  0
  -23.6340  -30.5934   20.5116 C   0  0  0  0  0  0  0  0  0  0  0  0
  -20.4756  -30.4253   24.9566 C   0  0  0  0  0  0  0  0  0  0  0  0
  -24.4399  -29.4724   20.2667 C   0  0  0  0  0  0  0  0  0  0  0  0
  -30.0248  -25.2612   19.1297 C   0  0  0  0  0  0  0  0  0  0  0  0
  -24.6388  -11.9600   21.3750 C   0  0  0  0  0  0  0  0  0  0  0  0
  -26.4163  -30.8028   20.7505 C   0  0  0  0  0  0  0  0  0  0  0  0
  -23.2563  -10.0799   21.6514 C   0  0  0  0  0  0  0  0  0  0  0  0
  -22.3746   -7.6006   20.7249 C   0  0  0  0  0  0  0  0  0  0  0  0
  -21.9090   -9.8888   21.3451 C   0  0  0  0  0  0  0  0  0  0  0  0
  -27.5692  -13.9791   19.0873 C   0  0  0  0  0  0  0  0  0  0  0  0
  -28.7639  -25.7603   19.3851 C   0  0  0  0  0  0  0  0  0  0  0  0
  -31.0745  -26.0950   19.4572 C   0  0  0  0  0  0  0  0  0  0  0  0
  -29.3398  -14.4846   17.8855 C   0  0  0  0  0  0  0  0  0  0  0  0
  -29.6390  -27.6957   20.1946 C   0  0  0  0  0  0  0  0  0  0  0  0
  -29.2256  -12.0820   18.5658 C   0  0  0  0  0  0  0  0  0  0  0  0
  -21.5906  -28.6169   21.9335 C   0  0  0  0  0  0  0  0  0  0  0  0
  -21.7087  -27.0700   19.0847 C   0  0  0  0  0  0  0  0  0  0  0  0
  -23.4321  -26.4149   16.2128 C   0  0  0  0  0  0  0  0  0  0  0  0
  -28.9843  -20.3336   18.9632 C   0  0  0  0  0  0  0  0  0  0  0  0
  -18.0231  -29.8680   25.3635 C   0  0  0  0  0  0  0  0  0  0  0  0
  -22.1404  -30.5062   20.3573 C   0  0  0  0  0  0  0  0  0  0  0  0
  -23.8509  -28.1424   19.8761 C   0  0  0  0  0  0  0  0  0  0  0  0
  -18.1852  -28.7815   24.3036 C   0  0  0  0  0  0  0  0  0  0  0  0
  -28.3717  -18.6339   15.7463 C   0  0  0  0  0  0  0  0  0  0  0  0
  -19.5549  -28.1205   24.4217 C   0  0  0  0  0  0  0  0  0  0  0  0
  -28.1503  -17.1975   16.2109 C   0  0  0  0  0  0  0  0  0  0  0  0
  -31.1280  -22.9288   19.2553 C   0  0  0  0  0  0  0  0  0  0  0  0
  -30.0386  -30.2471   20.1113 C   0  0  0  0  0  0  0  0  0  0  0  0
  -27.8547  -19.6515   16.7623 C   0  0  0  0  0  0  0  0  0  0  0  0
  -28.1877  -18.0194   18.5980 C   0  0  0  0  0  0  0  0  0  0  0  0
  -30.2390  -23.9114   18.5392 C   0  0  1  0  0  0  0  0  0  0  0  0
  -20.6796  -29.1367   24.1897 C   0  0  1  0  0  0  0  0  0  0  0  0
  -29.4260  -29.0399   20.7823 C   0  0  1  0  0  0  0  0  0  0  0  0
  -21.6064  -29.0849   20.5057 C   0  0  1  0  0  0  0  0  0  0  0  0
  -28.7453  -16.9825   17.6110 C   0  0  1  0  0  0  0  0  0  0  0  0
  -29.6448  -22.7051   19.2315 C   0  0  1  0  0  0  0  0  0  0  0  0
  -28.5564  -30.0381   20.0498 C   0  0  1  0  0  0  0  0  0  1  0  0
  -27.5496  -24.9491   19.0711 C   0  0  0  0  0  0  0  0  0  0  0  0
  -32.4856  -25.6639   19.2255 C   0  0  0  0  0  0  0  0  0  0  0  0
  -23.2904  -25.0830   14.0907 C   0  0  0  0  0  0  0  0  0  0  0  0
  -22.4072  -24.5348   20.6322 C   0  0  0  0  0  0  0  0  0  0  0  0
  -23.1716  -23.5139   18.4777 C   0  0  0  0  0  0  0  0  0  0  0  0
  -20.7890  -24.1988   18.7552 C   0  0  0  0  0  0  0  0  0  0  0  0
  -23.5133  -28.8546   14.5394 C   0  0  0  0  0  0  0  0  0  0  0  0
  -22.5677  -25.9768   18.4965 C   0  0  1  0  0  0  0  0  0  0  0  0
  -23.0023  -26.4194   14.7569 C   0  0  2  0  0  0  0  0  0  0  0  0
  -22.2451  -24.5805   19.0996 C   0  0  0  0  0  0  0  0  0  0  0  0
  -27.4400  -15.2841   18.8338 N   0  0  0  0  0  0  0  0  0  0  0  0
  -28.5335  -26.9778   19.9188 N   0  0  0  0  0  0  0  0  0  0  0  0
  -30.9173  -27.3232   19.9931 N   0  0  0  0  0  0  0  0  0  0  0  0
  -28.5320  -15.5621   18.1014 N   0  0  0  0  0  0  0  0  0  0  0  0
  -22.3850  -28.1061   19.7441 N   0  0  0  0  0  0  0  0  0  0  0  0
  -28.3862  -19.3895   18.1091 N   0  0  0  0  0  0  0  0  0  0  0  0
  -30.4791  -14.5876   17.1686 N   0  0  0  0  0  0  0  0  0  0  0  0
  -28.4797  -11.1213   19.2622 N   0  0  0  0  0  0  0  0  0  0  0  0
  -20.8327  -29.4073   22.7763 N   0  0  0  0  0  0  0  0  0  0  0  0
  -22.3965  -26.0569   17.0499 N   0  0  0  0  0  0  0  0  0  0  0  0
  -29.0649  -21.6311   18.4701 N   0  0  0  0  0  0  0  0  0  0  0  0
  -23.7260  -27.4843   14.0064 N   0  3  0  0  0  0  0  0  0  0  0  0
  -30.3028  -11.7445   18.0186 O   0  0  0  0  0  0  0  0  0  0  0  0
  -22.2184  -27.6122   22.2469 O   0  0  0  0  0  0  0  0  0  0  0  0
  -20.4831  -27.0106   18.9573 O   0  0  0  0  0  0  0  0  0  0  0  0
  -24.5733  -26.6970   16.5713 O   0  0  0  0  0  0  0  0  0  0  0  0
  -29.4112  -20.0449   20.0866 O   0  0  0  0  0  0  0  0  0  0  0  0
  -23.6957  -11.3102   22.1106 O   0  0  0  0  0  0  0  0  0  0  0  0
  -27.7683  -30.8998   20.8701 O   0  0  0  0  0  0  0  0  0  1  0  0
  -21.9517   -6.4106   20.2786 F   0  0  0  0  0  0  0  0  0  0  0  0
  -21.0337  -10.8926   21.4927 F   0  0  0  0  0  0  0  0  0  0  0  0
  1  2  1  0  0  0  0
  1  5  2  0  0  0  0
  2  6  2  0  0  0  0
  3  8  2  0  0  0  0
  3 15  1  0  0  0  0
  4  9  1  0  0  0  0
  4 15  2  0  0  0  0
  5 17  1  0  0  0  0
  6 19  1  0  0  0  0
  7 10  2  0  0  0  0
  7 18  1  0  0  0  0
  8 22  1  0  0  0  0
  9 22  2  0  0  0  0
 10 23  1  0  0  0  0
 11 12  2  0  0  0  0
 11 24  1  0  0  0  0
 12 25  1  0  0  0  0
 13 20  1  0  0  0  0
 13 23  2  0  0  0  0
 14 25  2  0  0  0  0
 14 26  1  0  0  0  0
 15 27  1  0  0  0  0
 16 27  1  0  0  0  0
 16 30  2  0  0  0  0
 16 32  1  0  0  0  0
 17 19  2  0  0  0  0
 17 37  1  0  0  0  0
 18 20  2  0  0  0  0
 18 38  1  0  0  0  0
 19 49  1  0  0  0  0
 20 39  1  0  0  0  0
 21 28  1  0  0  0  0
 21 29  2  0  0  0  0
 21 48  1  0  0  0  0
 22 82  1  0  0  0  0
 23 83  1  0  0  0  0
 24 26  2  0  0  0  0
 24 82  1  0  0  0  0
 25 84  1  0  0  0  0
 26 85  1  0  0  0  0
 27 65  2  0  0  0  0
 28 55  1  0  0  0  0
 28 66  2  0  0  0  0
 29 56  1  0  0  0  0
 29 67  1  0  0  0  0
 30 68  1  0  0  0  0
 30 71  1  0  0  0  0
 31 50  1  0  0  0  0
 31 66  1  0  0  0  0
 31 67  2  0  0  0  0
 32 72  1  0  0  0  0
 32 77  2  0  0  0  0
 33 51  1  0  0  0  0
 33 73  1  0  0  0  0
 33 78  2  0  0  0  0
 34 62  1  0  0  0  0
 34 69  1  0  0  0  0
 34 79  2  0  0  0  0
 35 63  1  0  0  0  0
 35 74  1  0  0  0  0
 35 80  2  0  0  0  0
 36 70  1  0  0  0  0
 36 75  1  0  0  0  0
 36 81  2  0  0  0  0
 37 40  1  0  0  0  0
 38 51  1  0  0  0  0
 39 69  1  0  0  0  0
 40 42  1  0  0  0  0
 41 43  1  0  0  0  0
 41 46  1  0  0  0  0
 42 49  1  0  0  0  0
 43 52  1  0  0  0  0
 44 48  1  0  0  0  0
 44 53  1  0  0  0  0
 45 50  1  0  0  0  0
 45 54  1  0  0  0  0
 46 70  1  0  0  0  0
 47 52  1  0  0  0  0
 47 70  1  0  0  0  0
 48 53  1  0  0  0  0
 49 73  1  0  0  0  0
 50 54  1  0  0  0  0
 51 69  1  0  0  0  0
 52 68  1  0  0  0  0
 53 75  1  0  0  0  0
 54 83  1  0  0  0  0
 57 63  1  0  0  0  0
 58 64  1  0  0  0  0
 59 64  1  0  0  0  0
 60 64  1  0  0  0  0
 61 76  1  0  0  0  0
 62 64  1  0  0  0  0
 62 74  1  0  0  0  0
 63 76  1  0  0  0  0
 65 68  1  0  0  0  0
M  CHG  1  76   1
M  ISO  4  36 100  54 101  75 100  83 101
M  END
> <Batch ID>
0164

> <Smiles>
CNC(C)C(=O)NC(C(=O)N1Cc2cc([101O:1][101CH:1]3CC3c3nc(C)c(C4CC4[100NH:0][100C:0](=O)N4CCCC(n5nc(-c6ccc(Oc7ccc(F)cc7F)cc6)c(C(N)=O)c5N)C4)c(C)n3)ccc2CC1C(=O)NC1CCCc2ccccc21)C(C)(C)C

> <Shape>
0.276

> <Color>
0.091

> <Negative vol penalty>
0.000

$$$$

  -OEChem-04052322193D

 89 98  0     1  0  0  0  0  0999 V2000
  -24.5356  -36.6418   16.1970 C   0  0  0  0  0  0  0  0  0  0  0  0
  -25.0020  -35.3340   16.1086 C   0  0  0  0  0  0  0  0  0  0  0  0
  -22.7225  -10.1831   21.3030 C   0  0  0  0  0  0  0  0  0  0  0  0
  -24.5386   -8.8442   22.1669 C   0  0  0  0  0  0  0  0  0  0  0  0
  -24.6174  -37.3295   17.4071 C   0  0  0  0  0  0  0  0  0  0  0  0
  -25.5514  -34.7136   17.2301 C   0  0  0  0  0  0  0  0  0  0  0  0
  -25.1375  -28.7915   18.7343 C   0  0  0  0  0  0  0  0  0  0  0  0
  -21.9929   -9.0237   21.0399 C   0  0  0  0  0  0  0  0  0  0  0  0
  -23.8090   -7.6848   21.9039 C   0  0  0  0  0  0  0  0  0  0  0  0
  -26.0110  -27.7179   18.5666 C   0  0  0  0  0  0  0  0  0  0  0  0
  -22.2785   -4.3888   21.7932 C   0  0  0  0  0  0  0  0  0  0  0  0
  -22.2454   -3.4044   22.7809 C   0  0  0  0  0  0  0  0  0  0  0  0
  -26.8323  -28.0433   20.8113 C   0  0  0  0  0  0  0  0  0  0  0  0
  -21.2381   -4.9766   24.3140 C   0  0  0  0  0  0  0  0  0  0  0  0
  -23.9954  -10.0933   21.8664 C   0  0  0  0  0  0  0  0  0  0  0  0
  -24.7442  -12.0481   23.3243 C   0  0  0  0  0  0  0  0  0  0  0  0
  -25.1593  -36.7139   18.5464 C   0  0  0  0  0  0  0  0  0  0  0  0
  -25.1125  -29.5071   19.9399 C   0  0  0  0  0  0  0  0  0  0  0  0
  -25.6418  -35.3942   18.4562 C   0  0  0  0  0  0  0  0  0  0  0  0
  -25.9557  -29.1240   20.9927 C   0  0  0  0  0  0  0  0  0  0  0  0
  -22.5361   -7.7746   21.3404 C   0  0  0  0  0  0  0  0  0  0  0  0
  -26.8606  -27.3454   19.6042 C   0  0  0  0  0  0  0  0  0  0  0  0
  -21.7915   -5.6671   22.0660 C   0  0  0  0  0  0  0  0  0  0  0  0
  -21.7252   -3.6983   24.0413 C   0  0  0  0  0  0  0  0  0  0  0  0
  -21.2712   -5.9610   23.3263 C   0  0  0  0  0  0  0  0  0  0  0  0
  -24.7498  -11.2905   22.1379 C   0  0  0  0  0  0  0  0  0  0  0  0
  -25.6205  -13.0769   23.0789 C   0  0  0  0  0  0  0  0  0  0  0  0
  -24.0124  -11.8405   24.5397 C   0  0  0  0  0  0  0  0  0  0  0  0
  -25.7006  -32.5174   20.7742 C   0  0  0  0  0  0  0  0  0  0  0  0
  -24.6298  -31.5148   23.6674 C   0  0  0  0  0  0  0  0  0  0  0  0
  -24.1102  -28.9222   25.8250 C   0  0  0  0  0  0  0  0  0  0  0  0
  -27.7487  -16.9921   19.8904 C   0  0  0  0  0  0  0  0  0  0  0  0
  -25.2700  -37.5136   19.8203 C   0  0  0  0  0  0  0  0  0  0  0  0
  -24.1456  -30.6460   20.1144 C   0  0  0  0  0  0  0  0  0  0  0  0
  -25.9533  -29.8469   22.3140 C   0  0  0  0  0  0  0  0  0  0  0  0
  -25.5229  -36.6562   21.0577 C   0  0  0  0  0  0  0  0  0  0  0  0
  -28.9114  -13.7868   19.3137 C   0  0  0  0  0  0  0  0  0  0  0  0
  -26.6241  -35.6366   20.7847 C   0  0  0  0  0  0  0  0  0  0  0  0
  -27.9385  -12.9010   20.0913 C   0  0  0  0  0  0  0  0  0  0  0  0
  -24.7323  -22.7024   19.9722 C   0  0  0  0  0  0  0  0  0  0  0  0
  -28.1731  -14.9176   18.6067 C   0  0  0  0  0  0  0  0  0  0  0  0
  -26.3790  -14.8993   20.3096 C   0  0  0  0  0  0  0  0  0  0  0  0
  -25.3679  -17.8250   19.6631 C   0  0  0  0  0  0  0  0  0  0  0  0
  -26.0214  -23.1388   20.6576 C   0  0  0  0  0  0  0  0  0  0  0  0
  -27.3467  -22.4263   18.6441 C   0  0  0  0  0  0  0  0  0  0  0  0
  -26.7207  -20.3604   20.1386 C   0  0  0  0  0  0  0  0  0  0  0  0
  -26.2217  -34.6787   19.6569 C   0  0  1  0  0  0  0  0  0  0  0  0
  -24.5685  -31.6275   21.2030 C   0  0  1  0  0  0  0  0  0  0  0  0
  -26.0601  -21.9851   17.9381 C   0  0  2  0  0  0  0  0  0  0  0  0
  -27.0745  -13.7391   21.0503 C   0  0  1  0  0  0  0  0  0  0  0  0
  -24.9499  -21.6009   18.9330 C   0  0  1  0  0  0  0  0  0  0  0  0
  -27.0512  -19.1203   20.9650 C   0  0  1  0  0  0  0  0  0  0  0  0
  -25.0194  -19.0643   18.8259 C   0  0  1  0  0  0  0  0  0  0  0  0
  -26.3656  -20.8771   16.9276 C   0  0  0  0  0  0  0  0  0  0  0  0
  -23.5528  -19.0028   18.4029 C   0  0  0  0  0  0  0  0  0  0  0  0
  -26.3971  -18.1653   24.6582 C   0  0  0  0  0  0  0  0  0  0  0  0
  -23.2554  -28.4188   28.1300 C   0  0  0  0  0  0  0  0  0  0  0  0
  -27.2196  -32.5991   24.8620 C   0  0  0  0  0  0  0  0  0  0  0  0
  -26.7514  -31.2539   26.9209 C   0  0  0  0  0  0  0  0  0  0  0  0
  -25.1719  -33.0543   26.2236 C   0  0  0  0  0  0  0  0  0  0  0  0
  -21.9556  -27.1873   24.7729 C   0  0  0  0  0  0  0  0  0  0  0  0
  -26.3731  -19.1223   22.3381 C   0  0  0  0  0  0  0  0  0  0  0  0
  -27.0545  -18.1452   23.2875 C   0  0  0  0  0  0  0  0  0  0  0  0
  -28.2833  -24.0983   20.2403 C   0  0  0  0  0  0  0  0  0  0  0  0
  -28.0554  -25.5511   20.6086 C   0  0  0  0  0  0  0  0  0  1  0  0
  -25.2696  -30.9072   24.8923 C   0  0  1  0  0  0  0  0  0  0  0  0
  -22.9015  -28.5294   26.6551 C   0  0  2  0  0  0  0  0  0  0  0  0
  -26.1048  -31.9410   25.6992 C   0  0  0  0  0  0  0  0  0  0  0  0
  -25.5649  -11.7950   21.2077 N   0  0  0  0  0  0  0  0  0  0  0  0
  -26.0796  -12.8808   21.8097 N   0  0  0  0  0  0  0  0  0  0  0  0
  -24.9944  -30.9576   22.4335 N   0  0  0  0  0  0  0  0  0  0  0  0
  -27.3606  -15.6875   19.5485 N   0  0  0  0  0  0  0  0  0  0  0  0
  -26.7246  -17.8957   20.2213 N   0  0  0  0  0  0  0  0  0  0  0  0
  -26.0354  -14.1212   23.8272 N   0  0  0  0  0  0  0  0  0  0  0  0
  -23.1560  -10.7341   24.6232 N   0  0  0  0  0  0  0  0  0  0  0  0
  -25.2957  -33.6806   20.1478 N   0  0  0  0  0  0  0  0  0  0  0  0
  -24.1893  -30.2880   25.6525 N   0  0  0  0  0  0  0  0  0  0  0  0
  -27.0336  -23.5430   19.6135 N   0  3  2  0  0  0  0  0  0  0  0  0
  -25.2875  -20.3165   19.6507 N   0  3  1  0  0  0  0  0  0  0  0  0
  -22.3657  -27.2152   26.2005 N   0  3  0  0  0  0  0  0  0  0  0  0
  -24.1024  -12.6223   25.5165 O   0  0  0  0  0  0  0  0  0  0  0  0
  -26.8560  -32.1748   20.9966 O   0  0  0  0  0  0  0  0  0  0  0  0
  -23.8303  -32.4447   23.8009 O   0  0  0  0  0  0  0  0  0  0  0  0
  -24.9067  -28.1000   25.3776 O   0  0  0  0  0  0  0  0  0  0  0  0
  -28.9394  -17.3285   19.8983 O   0  0  0  0  0  0  0  0  0  0  0  0
  -21.8244   -6.6431   21.0841 O   0  0  0  0  0  0  0  0  0  0  0  0
  -27.7208  -26.2908   19.4418 O   0  0  0  0  0  0  0  0  0  1  0  0
  -21.6920   -2.7525   24.9892 F   0  0  0  0  0  0  0  0  0  0  0  0
  -20.8008   -7.1870   23.5939 F   0  0  0  0  0  0  0  0  0  0  0  0
  1  2  1  0  0  0  0
  1  5  2  0  0  0  0
  2  6  2  0  0  0  0
  3  8  2  0  0  0  0
  3 15  1  0  0  0  0
  4  9  1  0  0  0  0
  4 15  2  0  0  0  0
  5 17  1  0  0  0  0
  6 19  1  0  0  0  0
  7 10  2  0  0  0  0
  7 18  1  0  0  0  0
  8 21  1  0  0  0  0
  9 21  2  0  0  0  0
 10 22  1  0  0  0  0
 11 12  2  0  0  0  0
 11 23  1  0  0  0  0
 12 24  1  0  0  0  0
 13 20  1  0  0  0  0
 13 22  2  0  0  0  0
 14 24  2  0  0  0  0
 14 25  1  0  0  0  0
 15 26  1  0  0  0  0
 16 26  1  0  0  0  0
 16 27  2  0  0  0  0
 16 28  1  0  0  0  0
 17 19  2  0  0  0  0
 17 33  1  0  0  0  0
 18 20  2  0  0  0  0
 18 34  1  0  0  0  0
 19 47  1  0  0  0  0
 20 35  1  0  0  0  0
 21 86  1  0  0  0  0
 22 87  1  0  0  0  0
 23 25  2  0  0  0  0
 23 86  1  0  0  0  0
 24 88  1  0  0  0  0
 25 89  1  0  0  0  0
 26 69  2  0  0  0  0
 27 70  1  0  0  0  0
 27 74  1  0  0  0  0
 28 75  1  0  0  0  0
 28 81  2  0  0  0  0
 29 48  1  0  0  0  0
 29 76  1  0  0  0  0
 29 82  2  0  0  0  0
 30 66  1  0  0  0  0
 30 71  1  0  0  0  0
 30 83  2  0  0  0  0
 31 67  1  0  0  0  0
 31 77  1  0  0  0  0
 31 84  2  0  0  0  0
 32 72  1  0  0  0  0
 32 73  1  0  0  0  0
 32 85  2  0  0  0  0
 33 36  1  0  0  0  0
 34 48  1  0  0  0  0
 35 71  1  0  0  0  0
 36 38  1  0  0  0  0
 37 39  1  0  0  0  0
 37 41  1  0  0  0  0
 38 47  1  0  0  0  0
 39 50  1  0  0  0  0
 40 44  1  0  0  0  0
 40 51  1  0  0  0  0
 41 72  1  0  0  0  0
 42 50  1  0  0  0  0
 42 72  1  0  0  0  0
 43 53  1  0  0  0  0
 43 73  1  0  0  0  0
 44 78  1  0  0  0  0
 45 49  1  0  0  0  0
 45 78  1  0  0  0  0
 46 52  1  0  0  0  0
 46 79  1  0  0  0  0
 47 76  1  0  0  0  0
 48 71  1  0  0  0  0
 49 51  1  0  0  0  0
 49 54  1  0  0  0  0
 50 70  1  0  0  0  0
 51 79  1  0  0  0  0
 52 62  1  0  0  0  0
 52 73  1  0  0  0  0
 53 55  1  0  0  0  0
 53 79  1  0  0  0  0
 56 63  1  0  0  0  0
 57 67  1  0  0  0  0
 58 68  1  0  0  0  0
 59 68  1  0  0  0  0
 60 68  1  0  0  0  0
 61 80  1  0  0  0  0
 62 63  1  0  0  0  0
 64 65  1  0  0  0  0
 64 78  1  0  0  0  0
 65 87  1  0  0  0  0
 66 68  1  0  0  0  0
 66 77  1  0  0  0  0
 67 80  1  0  0  0  0
 69 70  1  0  0  0  0
M  CHG  3  78   1  79   1  80   1
M  ISO  4  32 100  65 101  73 100  87 101
M  END
> <Batch ID>
0164

> <Smiles>
CCCC1CN(C2CCN(C[101CH2:1][101O:1]c3ccc4c(c3)CN(C(=O)C(NC(=O)C(C)NC)C(C)(C)C)C(C(=O)NC3CCCc5ccccc53)C4)CC2C)C(C)C[100N:0]1[100C:0](=O)N1CCCC(n2nc(-c3ccc(Oc4ccc(F)cc4F)cc3)c(C(N)=O)c2N)C1

> <Shape>
0.244

> <Color>
0.116

> <Negative vol penalty>
0.000

$$$$

  -OEChem-04052322193D

 85 93  0     1  0  0  0  0  0999 V2000
  -21.9978  -18.1460   23.3519 C   0  0  0  0  0  0  0  0  0  0  0  0
  -23.1146  -18.8236   22.8733 C   0  0  0  0  0  0  0  0  0  0  0  0
  -25.4386  -14.5654   22.2509 C   0  0  0  0  0  0  0  0  0  0  0  0
  -25.5472  -13.7672   19.9731 C   0  0  0  0  0  0  0  0  0  0  0  0
  -20.7241  -18.6785   23.1566 C   0  0  0  0  0  0  0  0  0  0  0  0
  -22.9582  -20.0335   22.1980 C   0  0  0  0  0  0  0  0  0  0  0  0
  -26.7431  -24.8460   22.3423 C   0  0  0  0  0  0  0  0  0  0  0  0
  -24.4627  -13.6113   22.5387 C   0  0  0  0  0  0  0  0  0  0  0  0
  -24.5713  -12.8131   20.2610 C   0  0  0  0  0  0  0  0  0  0  0  0
  -27.7413  -25.2807   21.4715 C   0  0  0  0  0  0  0  0  0  0  0  0
  -24.4084   -9.7997   21.7819 C   0  0  0  0  0  0  0  0  0  0  0  0
  -24.6189   -8.5001   21.3211 C   0  0  0  0  0  0  0  0  0  0  0  0
  -26.1675  -26.7803   20.4257 C   0  0  0  0  0  0  0  0  0  0  0  0
  -22.5812   -8.6280   20.0294 C   0  0  0  0  0  0  0  0  0  0  0  0
  -25.9808  -14.6434   20.9680 C   0  0  0  0  0  0  0  0  0  0  0  0
  -28.3835  -15.4814   20.7880 C   0  0  0  0  0  0  0  0  0  0  0  0
  -20.5527  -19.9003   22.4870 C   0  0  0  0  0  0  0  0  0  0  0  0
  -25.4446  -25.3681   22.2541 C   0  0  0  0  0  0  0  0  0  0  0  0
  -21.6809  -20.5821   21.9923 C   0  0  0  0  0  0  0  0  0  0  0  0
  -25.1553  -26.3524   21.2983 C   0  0  0  0  0  0  0  0  0  0  0  0
  -24.0290  -12.7351   21.5438 C   0  0  0  0  0  0  0  0  0  0  0  0
  -27.4529  -26.2458   20.5111 C   0  0  0  0  0  0  0  0  0  0  0  0
  -23.2842  -10.5134   21.3666 C   0  0  0  0  0  0  0  0  0  0  0  0
  -23.7054   -7.9143   20.4448 C   0  0  0  0  0  0  0  0  0  0  0  0
  -22.3706   -9.9276   20.4903 C   0  0  0  0  0  0  0  0  0  0  0  0
  -26.9885  -15.6292   20.6699 C   0  0  0  0  0  0  0  0  0  0  0  0
  -28.8923  -16.6925   20.3870 C   0  0  0  0  0  0  0  0  0  0  0  0
  -29.1508  -14.3505   21.2214 C   0  0  0  0  0  0  0  0  0  0  0  0
  -22.5741  -24.1499   21.6376 C   0  0  0  0  0  0  0  0  0  0  0  0
  -21.5735  -27.1448   22.3808 C   0  0  0  0  0  0  0  0  0  0  0  0
  -22.3092  -30.4684   22.6234 C   0  0  0  0  0  0  0  0  0  0  0  0
  -29.0271  -20.8546   16.8365 C   0  0  0  0  0  0  0  0  0  0  0  0
  -19.1528  -20.4127   22.2583 C   0  0  0  0  0  0  0  0  0  0  0  0
  -24.3859  -24.9081   23.2184 C   0  0  0  0  0  0  0  0  0  0  0  0
  -23.7824  -26.9594   21.1757 C   0  0  0  0  0  0  0  0  0  0  0  0
  -19.1006  -21.8858   21.8614 C   0  0  0  0  0  0  0  0  0  0  0  0
  -26.5820  -21.1033   19.4930 C   0  0  0  0  0  0  0  0  0  0  0  0
  -20.1305  -22.1830   20.7761 C   0  0  0  0  0  0  0  0  0  0  0  0
  -26.5884  -19.6773   20.0467 C   0  0  0  0  0  0  0  0  0  0  0  0
  -26.7398  -21.1077   17.9753 C   0  0  0  0  0  0  0  0  0  0  0  0
  -27.9570  -18.9655   18.0318 C   0  0  0  0  0  0  0  0  0  0  0  0
  -29.1175  -25.6305   15.2544 C   0  0  0  0  0  0  0  0  0  0  0  0
  -21.5540  -21.9095   21.2767 C   0  0  1  0  0  0  0  0  0  0  0  0
  -22.9683  -25.1346   22.7020 C   0  0  1  0  0  0  0  0  0  0  0  0
  -29.6253  -25.1700   16.6232 C   0  0  1  0  0  0  0  0  0  0  0  0
  -30.6108  -23.9884   16.4856 C   0  0  2  0  0  0  0  0  0  0  0  0
  -27.8236  -18.8942   19.5638 C   0  0  2  0  0  0  0  0  0  0  0  0
  -29.9725  -22.8339   15.6765 C   0  0  2  0  0  0  0  0  0  0  0  0
  -29.4623  -23.2818   14.2732 C   0  0  0  0  0  0  0  0  0  0  0  0
  -31.1301  -23.4932   17.8434 C   0  0  0  0  0  0  0  0  0  0  0  0
  -28.6858  -22.1289   13.5998 C   0  0  0  0  0  0  0  0  0  0  0  0
  -30.6352  -23.6758   13.3548 C   0  0  0  0  0  0  0  0  0  0  0  0
  -21.2768  -32.6759   23.2225 C   0  0  0  0  0  0  0  0  0  0  0  0
  -31.4526  -26.8779   16.5536 C   0  0  0  0  0  0  0  0  0  0  0  0
  -20.1160  -27.1878   19.7005 C   0  0  0  0  0  0  0  0  0  0  0  0
  -19.9210  -29.6737   19.9255 C   0  0  0  0  0  0  0  0  0  0  0  0
  -18.8320  -28.1821   21.6024 C   0  0  0  0  0  0  0  0  0  0  0  0
  -27.8389  -25.0023   13.2277 C   0  0  0  0  0  0  0  0  0  0  0  0
  -24.2197  -30.8907   24.8439 C   0  0  0  0  0  0  0  0  0  0  0  0
  -29.2407  -27.5081   17.5595 C   0  0  0  0  0  0  0  0  0  0  0  0
  -28.0119  -27.1001   18.3631 C   0  0  0  0  0  0  0  0  0  1  0  0
  -21.3490  -28.4202   21.6050 C   0  0  1  0  0  0  0  0  0  0  0  0
  -22.0617  -31.4766   23.7310 C   0  0  2  0  0  0  0  0  0  0  0  0
  -30.2485  -26.3690   17.3468 C   0  0  1  0  0  0  0  0  0  0  0  0
  -20.0800  -28.3533   20.7091 C   0  0  0  0  0  0  0  0  0  0  0  0
  -26.6337  -16.8389   20.2286 N   0  0  0  0  0  0  0  0  0  0  0  0
  -27.8131  -17.4623   20.0659 N   0  0  0  0  0  0  0  0  0  0  0  0
  -22.7795  -26.4723   22.1372 N   0  0  0  0  0  0  0  0  0  0  0  0
  -27.9439  -20.3618   17.5829 N   0  0  0  0  0  0  0  0  0  0  0  0
  -30.1530  -17.1636   20.2813 N   0  0  0  0  0  0  0  0  0  0  0  0
  -28.4691  -13.1852   21.5980 N   0  0  0  0  0  0  0  0  0  0  0  0
  -22.0068  -22.9891   22.1275 N   0  0  0  0  0  0  0  0  0  0  0  0
  -21.3303  -29.4980   22.5880 N   0  0  0  0  0  0  0  0  0  0  0  0
  -28.9335  -22.1843   16.4443 N   0  0  0  0  0  0  0  0  0  0  0  0
  -28.5105  -24.4788   14.4779 N   0  3  2  0  0  0  0  0  0  0  0  0
  -23.3559  -31.9634   24.2870 N   0  3  0  0  0  0  0  0  0  0  0  0
  -30.4031  -14.3780   21.2888 O   0  0  0  0  0  0  0  0  0  0  0  0
  -22.7689  -24.4238   20.4592 O   0  0  0  0  0  0  0  0  0  0  0  0
  -20.7139  -26.7631   23.1789 O   0  0  0  0  0  0  0  0  0  0  0  0
  -23.2724  -30.5372   21.8631 O   0  0  0  0  0  0  0  0  0  0  0  0
  -30.0083  -20.1621   16.5454 O   0  0  0  0  0  0  0  0  0  0  0  0
  -23.0770  -11.8038   21.8244 O   0  0  0  0  0  0  0  0  0  0  0  0
  -28.4319  -26.6744   19.6535 O   0  0  0  0  0  0  0  0  0  1  0  0
  -23.9086   -6.6668   20.0012 F   0  0  0  0  0  0  0  0  0  0  0  0
  -21.2894  -10.6087   20.0868 F   0  0  0  0  0  0  0  0  0  0  0  0
  1  2  1  0  0  0  0
  1  5  2  0  0  0  0
  2  6  2  0  0  0  0
  3  8  2  0  0  0  0
  3 15  1  0  0  0  0
  4  9  1  0  0  0  0
  4 15  2  0  0  0  0
  5 17  1  0  0  0  0
  6 19  1  0  0  0  0
  7 10  2  0  0  0  0
  7 18  1  0  0  0  0
  8 21  1  0  0  0  0
  9 21  2  0  0  0  0
 10 22  1  0  0  0  0
 11 12  2  0  0  0  0
 11 23  1  0  0  0  0
 12 24  1  0  0  0  0
 13 20  1  0  0  0  0
 13 22  2  0  0  0  0
 14 24  2  0  0  0  0
 14 25  1  0  0  0  0
 15 26  1  0  0  0  0
 16 26  1  0  0  0  0
 16 27  2  0  0  0  0
 16 28  1  0  0  0  0
 17 19  2  0  0  0  0
 17 33  1  0  0  0  0
 18 20  2  0  0  0  0
 18 34  1  0  0  0  0
 19 43  1  0  0  0  0
 20 35  1  0  0  0  0
 21 82  1  0  0  0  0
 22 83  1  0  0  0  0
 23 25  2  0  0  0  0
 23 82  1  0  0  0  0
 24 84  1  0  0  0  0
 25 85  1  0  0  0  0
 26 66  2  0  0  0  0
 27 67  1  0  0  0  0
 27 70  1  0  0  0  0
 28 71  1  0  0  0  0
 28 77  2  0  0  0  0
 29 44  1  0  0  0  0
 29 72  1  0  0  0  0
 29 78  2  0  0  0  0
 30 62  1  0  0  0  0
 30 68  1  0  0  0  0
 30 79  2  0  0  0  0
 31 63  1  0  0  0  0
 31 73  1  0  0  0  0
 31 80  2  0  0  0  0
 32 69  1  0  0  0  0
 32 74  1  0  0  0  0
 32 81  2  0  0  0  0
 33 36  1  0  0  0  0
 34 44  1  0  0  0  0
 35 68  1  0  0  0  0
 36 38  1  0  0  0  0
 37 39  1  0  0  0  0
 37 40  1  0  0  0  0
 38 43  1  0  0  0  0
 39 47  1  0  0  0  0
 40 69  1  0  0  0  0
 41 47  1  0  0  0  0
 41 69  1  0  0  0  0
 42 45  1  0  0  0  0
 42 75  1  0  0  0  0
 43 72  1  0  0  0  0
 44 68  1  0  0  0  0
 45 46  1  0  0  0  0
 45 64  1  0  0  0  0
 46 48  1  0  0  0  0
 46 50  1  0  0  0  0
 47 67  1  0  0  0  0
 48 49  1  0  0  0  0
 48 74  1  0  0  0  0
 49 51  1  0  0  0  0
 49 52  1  0  0  0  0
 49 75  1  0  0  0  0
 53 63  1  0  0  0  0
 54 64  1  0  0  0  0
 55 65  1  0  0  0  0
 56 65  1  0  0  0  0
 57 65  1  0  0  0  0
 58 75  1  0  0  0  0
 59 76  1  0  0  0  0
 60 61  1  0  0  0  0
 60 64  1  0  0  0  0
 61 83  1  0  0  0  0
 62 65  1  0  0  0  0
 62 73  1  0  0  0  0
 63 76  1  0  0  0  0
 66 67  1  0  0  0  0
M  CHG  2  75   1  76   1
M  ISO  4  32 100  61 101  74 100  83 101
M  END
> <Batch ID>
0164

> <Smiles>
CNC(C)C(=O)NC(C(=O)N1Cc2cc([101O:1][101CH2:1]CC(C)C3CN(C)C(C)(C)C([100NH:0][100C:0](=O)N4CCCC(n5nc(-c6ccc(Oc7ccc(F)cc7F)cc6)c(C(N)=O)c5N)C4)C3C)ccc2CC1C(=O)NC1CCCc2ccccc21)C(C)(C)C

> <Shape>
0.201

> <Color>
0.065

> <Negative vol penalty>
0.000

$$$$

  -OEChem-04052322193D

 88 97  0     1  0  0  0  0  0999 V2000
  -17.0667  -29.7645   24.8086 C   0  0  0  0  0  0  0  0  0  0  0  0
  -18.3471  -29.5252   25.2972 C   0  0  0  0  0  0  0  0  0  0  0  0
  -26.0318  -13.5397   21.5471 C   0  0  0  0  0  0  0  0  0  0  0  0
  -25.0224  -13.1493   19.3870 C   0  0  0  0  0  0  0  0  0  0  0  0
  -16.7699  -29.4956   23.4731 C   0  0  0  0  0  0  0  0  0  0  0  0
  -19.3312  -29.0157   24.4508 C   0  0  0  0  0  0  0  0  0  0  0  0
  -26.3961  -29.2947   23.2993 C   0  0  0  0  0  0  0  0  0  0  0  0
  -25.0725  -12.7213   22.1433 C   0  0  0  0  0  0  0  0  0  0  0  0
  -24.0631  -12.3308   19.9833 C   0  0  0  0  0  0  0  0  0  0  0  0
  -27.4959  -28.4524   23.1427 C   0  0  0  0  0  0  0  0  0  0  0  0
  -21.8426  -12.9663   23.1088 C   0  0  0  0  0  0  0  0  0  0  0  0
  -21.2430  -13.4213   24.2831 C   0  0  0  0  0  0  0  0  0  0  0  0
  -26.8900  -28.1003   20.8345 C   0  0  0  0  0  0  0  0  0  0  0  0
  -31.6257  -28.8602   20.4736 C   0  0  0  0  0  0  0  0  0  0  0  0
  -31.6370  -27.3809   18.1084 C   0  0  0  0  0  0  0  0  0  0  0  0
  -22.0716  -11.4800   25.4585 C   0  0  0  0  0  0  0  0  0  0  0  0
  -26.0067  -13.7538   20.1690 C   0  0  0  0  0  0  0  0  0  0  0  0
  -28.2479  -14.2085   19.0385 C   0  0  0  0  0  0  0  0  0  0  0  0
  -17.7534  -28.9916   22.6075 C   0  0  0  0  0  0  0  0  0  0  0  0
  -25.5273  -29.5380   22.2258 C   0  0  0  0  0  0  0  0  0  0  0  0
  -19.0469  -28.7384   23.1028 C   0  0  0  0  0  0  0  0  0  0  0  0
  -25.7813  -28.9481   20.9793 C   0  0  0  0  0  0  0  0  0  0  0  0
  -31.8196  -29.5021   19.2505 C   0  0  0  0  0  0  0  0  0  0  0  0
  -31.4375  -27.4786   20.5141 C   0  0  0  0  0  0  0  0  0  0  0  0
  -31.8252  -28.7625   18.0679 C   0  0  0  0  0  0  0  0  0  0  0  0
  -24.0881  -12.1168   21.3614 C   0  0  0  0  0  0  0  0  0  0  0  0
  -27.7414  -27.8527   21.9110 C   0  0  0  0  0  0  0  0  0  0  0  0
  -22.5567  -11.7680   23.1093 C   0  0  0  0  0  0  0  0  0  0  0  0
  -31.4431  -26.7390   19.3315 C   0  0  0  0  0  0  0  0  0  0  0  0
  -21.3575  -12.6782   25.4580 C   0  0  0  0  0  0  0  0  0  0  0  0
  -22.6712  -11.0249   24.2842 C   0  0  0  0  0  0  0  0  0  0  0  0
  -26.9971  -14.5996   19.5526 C   0  0  0  0  0  0  0  0  0  0  0  0
  -28.8045  -15.3723   18.5672 C   0  0  0  0  0  0  0  0  0  0  0  0
  -28.8526  -12.9093   18.9913 C   0  0  0  0  0  0  0  0  0  0  0  0
  -22.4428  -29.0065   21.6715 C   0  0  0  0  0  0  0  0  0  0  0  0
  -23.0381  -30.6950   18.9665 C   0  0  0  0  0  0  0  0  0  0  0  0
  -25.3149  -31.7608   16.6585 C   0  0  0  0  0  0  0  0  0  0  0  0
  -30.0620  -20.5753   18.9680 C   0  0  0  0  0  0  0  0  0  0  0  0
  -17.3725  -28.6718   21.1837 C   0  0  0  0  0  0  0  0  0  0  0  0
  -24.3604  -30.4703   22.4037 C   0  0  0  0  0  0  0  0  0  0  0  0
  -24.8904  -29.1930   19.7898 C   0  0  0  0  0  0  0  0  0  0  0  0
  -18.5729  -28.4858   20.2592 C   0  0  0  0  0  0  0  0  0  0  0  0
  -26.7886  -19.9505   17.8650 C   0  0  0  0  0  0  0  0  0  0  0  0
  -19.6163  -27.5858   20.9135 C   0  0  0  0  0  0  0  0  0  0  0  0
  -26.6467  -18.4586   18.1658 C   0  0  0  0  0  0  0  0  0  0  0  0
  -30.6150  -23.9417   17.5156 C   0  0  0  0  0  0  0  0  0  0  0  0
  -29.1795  -24.1640   19.5892 C   0  0  0  0  0  0  0  0  0  0  0  0
  -27.5310  -20.6913   18.9785 C   0  0  0  0  0  0  0  0  0  0  0  0
  -31.1231  -22.6000   18.0413 C   0  0  0  0  0  0  0  0  0  0  0  0
  -29.7230  -22.8201   20.0688 C   0  0  0  0  0  0  0  0  0  0  0  0
  -28.7026  -18.6103   19.6212 C   0  0  0  0  0  0  0  0  0  0  0  0
  -20.1480  -28.2095   22.2096 C   0  0  1  0  0  0  0  0  0  0  0  0
  -23.2506  -30.2401   21.3826 C   0  0  1  0  0  0  0  0  0  0  0  0
  -28.0123  -17.8284   18.4927 C   0  0  1  0  0  0  0  0  0  0  0  0
  -30.1411  -24.8717   18.6330 C   0  0  0  0  0  0  0  0  0  0  0  0
  -32.0207  -30.9819   19.2315 C   0  0  0  0  0  0  0  0  0  0  0  0
  -32.0308  -29.4273   16.7465 C   0  0  0  0  0  0  0  0  0  0  0  0
  -32.4524  -26.9643   22.7585 C   0  0  0  0  0  0  0  0  0  0  0  0
  -25.4964  -33.0950   14.5409 C   0  0  0  0  0  0  0  0  0  0  0  0
  -21.8462  -28.3644   17.3989 C   0  0  0  0  0  0  0  0  0  0  0  0
  -22.9006  -29.3060   15.3325 C   0  0  0  0  0  0  0  0  0  0  0  0
  -21.1834  -30.6281   16.5678 C   0  0  0  0  0  0  0  0  0  0  0  0
  -27.1396  -33.7235   17.9144 C   0  0  0  0  0  0  0  0  0  0  0  0
  -29.9599  -27.2969   22.5632 C   0  0  0  0  0  0  0  0  0  1  0  0
  -31.2305  -26.8081   21.8321 C   0  0  1  0  0  0  0  0  0  0  0  0
  -23.4887  -30.3493   17.5678 C   0  0  1  0  0  0  0  0  0  0  0  0
  -25.5758  -33.1309   16.0591 C   0  0  2  0  0  0  0  0  0  0  0  0
  -22.3706  -29.6556   16.7395 C   0  0  0  0  0  0  0  0  0  0  0  0
  -26.7720  -15.9095   19.4204 N   0  0  0  0  0  0  0  0  0  0  0  0
  -27.8890  -16.3517   18.8181 N   0  0  0  0  0  0  0  0  0  0  0  0
  -23.7588  -30.1072   20.0157 N   0  0  0  0  0  0  0  0  0  0  0  0
  -28.8076  -20.0309   19.2817 N   0  0  0  0  0  0  0  0  0  0  0  0
  -30.1588  -21.9770   18.9474 N   0  0  0  0  0  0  0  0  0  0  0  0
  -29.9829  -15.6433   17.9668 N   0  0  0  0  0  0  0  0  0  0  0  0
  -28.1431  -11.8225   19.5201 N   0  0  0  0  0  0  0  0  0  0  0  0
  -21.1048  -29.2539   21.9125 N   0  0  0  0  0  0  0  0  0  0  0  0
  -23.9853  -31.5891   16.9808 N   0  0  0  0  0  0  0  0  0  0  0  0
  -26.9300  -33.6169   16.4476 N   0  3  0  0  0  0  0  0  0  0  0  0
  -29.9954  -12.7206   18.5096 O   0  0  0  0  0  0  0  0  0  0  0  0
  -22.9924  -27.9113   21.6741 O   0  0  0  0  0  0  0  0  0  0  0  0
  -22.0863  -31.4641   19.1225 O   0  0  0  0  0  0  0  0  0  0  0  0
  -26.2013  -30.9250   16.8209 O   0  0  0  0  0  0  0  0  0  0  0  0
  -31.0368  -19.8554   18.7177 O   0  0  0  0  0  0  0  0  0  0  0  0
  -23.1520  -11.3180   21.9428 O   0  0  0  0  0  0  0  0  0  0  0  0
  -31.2612  -25.3813   19.3535 O   0  0  0  0  0  0  0  0  0  0  0  0
  -28.8210  -27.0241   21.7546 O   0  0  0  0  0  0  0  0  0  1  0  0
  -20.7830  -13.1161   26.5859 F   0  0  0  0  0  0  0  0  0  0  0  0
  -23.3570   -9.8736   24.2911 F   0  0  0  0  0  0  0  0  0  0  0  0
  1  2  1  0  0  0  0
  1  5  2  0  0  0  0
  2  6  2  0  0  0  0
  3  8  2  0  0  0  0
  3 17  1  0  0  0  0
  4  9  1  0  0  0  0
  4 17  2  0  0  0  0
  5 19  1  0  0  0  0
  6 21  1  0  0  0  0
  7 10  2  0  0  0  0
  7 20  1  0  0  0  0
  8 26  1  0  0  0  0
  9 26  2  0  0  0  0
 10 27  1  0  0  0  0
 11 12  2  0  0  0  0
 11 28  1  0  0  0  0
 12 30  1  0  0  0  0
 13 22  1  0  0  0  0
 13 27  2  0  0  0  0
 14 23  2  0  0  0  0
 14 24  1  0  0  0  0
 15 25  2  0  0  0  0
 15 29  1  0  0  0  0
 16 30  2  0  0  0  0
 16 31  1  0  0  0  0
 17 32  1  0  0  0  0
 18 32  1  0  0  0  0
 18 33  2  0  0  0  0
 18 34  1  0  0  0  0
 19 21  2  0  0  0  0
 19 39  1  0  0  0  0
 20 22  2  0  0  0  0
 20 40  1  0  0  0  0
 21 52  1  0  0  0  0
 22 41  1  0  0  0  0
 23 25  1  0  0  0  0
 23 56  1  0  0  0  0
 24 29  2  0  0  0  0
 24 65  1  0  0  0  0
 25 57  1  0  0  0  0
 26 84  1  0  0  0  0
 27 86  1  0  0  0  0
 28 31  2  0  0  0  0
 28 84  1  0  0  0  0
 29 85  1  0  0  0  0
 30 87  1  0  0  0  0
 31 88  1  0  0  0  0
 32 69  2  0  0  0  0
 33 70  1  0  0  0  0
 33 74  1  0  0  0  0
 34 75  1  0  0  0  0
 34 79  2  0  0  0  0
 35 53  1  0  0  0  0
 35 76  1  0  0  0  0
 35 80  2  0  0  0  0
 36 66  1  0  0  0  0
 36 71  1  0  0  0  0
 36 81  2  0  0  0  0
 37 67  1  0  0  0  0
 37 77  1  0  0  0  0
 37 82  2  0  0  0  0
 38 72  1  0  0  0  0
 38 73  1  0  0  0  0
 38 83  2  0  0  0  0
 39 42  1  0  0  0  0
 40 53  1  0  0  0  0
 41 71  1  0  0  0  0
 42 44  1  0  0  0  0
 43 45  1  0  0  0  0
 43 48  1  0  0  0  0
 44 52  1  0  0  0  0
 45 54  1  0  0  0  0
 46 49  1  0  0  0  0
 46 55  1  0  0  0  0
 47 50  1  0  0  0  0
 47 55  1  0  0  0  0
 48 72  1  0  0  0  0
 49 73  1  0  0  0  0
 50 73  1  0  0  0  0
 51 54  1  0  0  0  0
 51 72  1  0  0  0  0
 52 76  1  0  0  0  0
 53 71  1  0  0  0  0
 54 70  1  0  0  0  0
 55 85  1  0  0  0  0
 58 65  1  0  0  0  0
 59 67  1  0  0  0  0
 60 68  1  0  0  0  0
 61 68  1  0  0  0  0
 62 68  1  0  0  0  0
 63 78  1  0  0  0  0
 64 65  1  0  0  0  0
 64 86  1  0  0  0  0
 66 68  1  0  0  0  0
 66 77  1  0  0  0  0
 67 78  1  0  0  0  0
 69 70  1  0  0  0  0
M  CHG  1  78   1
M  ISO  4  38 100  64 101  73 100  86 101
M  END
> <Batch ID>
0164

> <Smiles>
CNC(C)C(=O)NC(C(=O)N1Cc2cc([101O:1][101CH2:1]C(C)c3cc(C)c(C)cc3OC3CC[100N:0]([100C:0](=O)N4CCCC(n5nc(-c6ccc(Oc7ccc(F)cc7F)cc6)c(C(N)=O)c5N)C4)CC3)ccc2CC1C(=O)NC1CCCc2ccccc21)C(C)(C)C

> <Shape>
0.270

> <Color>
0.082

> <Negative vol penalty>
0.000

$$$$

  -OEChem-04052322193D

 85 94  0     1  0  0  0  0  0999 V2000
  -34.7847  -36.3076   19.7610 C   0  0  0  0  0  0  0  0  0  0  0  0
  -34.4528  -34.9708   19.5660 C   0  0  0  0  0  0  0  0  0  0  0  0
  -24.8334   -8.7303   21.7034 C   0  0  0  0  0  0  0  0  0  0  0  0
  -24.3031   -8.2741   19.3909 C   0  0  0  0  0  0  0  0  0  0  0  0
  -34.1943  -37.0270   20.7991 C   0  0  0  0  0  0  0  0  0  0  0  0
  -33.5310  -34.3522   20.4098 C   0  0  0  0  0  0  0  0  0  0  0  0
  -29.4635  -30.0351   18.8853 C   0  0  0  0  0  0  0  0  0  0  0  0
  -23.6352   -8.1338   22.0959 C   0  0  0  0  0  0  0  0  0  0  0  0
  -23.1049   -7.6775   19.7833 C   0  0  0  0  0  0  0  0  0  0  0  0
  -29.4754  -28.6471   19.0160 C   0  0  0  0  0  0  0  0  0  0  0  0
  -20.8848   -6.4089   23.7315 C   0  0  0  0  0  0  0  0  0  0  0  0
  -20.9230   -5.5257   24.8105 C   0  0  0  0  0  0  0  0  0  0  0  0
  -28.2306  -28.8363   21.0737 C   0  0  0  0  0  0  0  0  0  0  0  0
  -30.0248  -22.5416   20.7323 C   0  0  0  0  0  0  0  0  0  0  0  0
  -22.4720   -4.1182   23.6035 C   0  0  0  0  0  0  0  0  0  0  0  0
  -28.4000  -22.4861   18.9964 C   0  0  0  0  0  0  0  0  0  0  0  0
  -25.1674   -8.8005   20.3509 C   0  0  0  0  0  0  0  0  0  0  0  0
  -27.6541   -8.7892   19.7820 C   0  0  0  0  0  0  0  0  0  0  0  0
  -33.2575  -36.4196   21.6501 C   0  0  0  0  0  0  0  0  0  0  0  0
  -28.8435  -30.8361   19.8551 C   0  0  0  0  0  0  0  0  0  0  0  0
  -32.9285  -35.0637   21.4612 C   0  0  0  0  0  0  0  0  0  0  0  0
  -28.2100  -30.2341   20.9516 C   0  0  0  0  0  0  0  0  0  0  0  0
  -30.1767  -23.9049   20.5050 C   0  0  0  0  0  0  0  0  0  0  0  0
  -22.7710   -7.6073   21.1359 C   0  0  0  0  0  0  0  0  0  0  0  0
  -28.8614  -28.0477   20.1118 C   0  0  0  0  0  0  0  0  0  0  0  0
  -21.6402   -6.1467   22.5885 C   0  0  0  0  0  0  0  0  0  0  0  0
  -29.1216  -21.8114   19.9679 C   0  0  0  0  0  0  0  0  0  0  0  0
  -21.7166   -4.3804   24.7465 C   0  0  0  0  0  0  0  0  0  0  0  0
  -22.4338   -5.0014   22.5245 C   0  0  0  0  0  0  0  0  0  0  0  0
  -26.4047   -9.4171   19.9448 C   0  0  0  0  0  0  0  0  0  0  0  0
  -29.4081  -24.4859   19.5093 C   0  0  0  0  0  0  0  0  0  0  0  0
  -28.4974   -9.7994   19.3884 C   0  0  0  0  0  0  0  0  0  0  0  0
  -28.0197   -7.4156   19.9696 C   0  0  0  0  0  0  0  0  0  0  0  0
  -29.8291  -33.0929   21.8648 C   0  0  0  0  0  0  0  0  0  0  0  0
  -26.6587  -33.3727   22.4914 C   0  0  0  0  0  0  0  0  0  0  0  0
  -23.5667  -31.9284   22.4900 C   0  0  0  0  0  0  0  0  0  0  0  0
  -28.5898  -15.5129   20.2457 C   0  0  0  0  0  0  0  0  0  0  0  0
  -32.6812  -37.2247   22.7878 C   0  0  0  0  0  0  0  0  0  0  0  0
  -28.8162  -32.3304   19.6857 C   0  0  0  0  0  0  0  0  0  0  0  0
  -27.5131  -31.0481   22.0100 C   0  0  0  0  0  0  0  0  0  0  0  0
  -31.4332  -36.5993   23.4056 C   0  0  0  0  0  0  0  0  0  0  0  0
  -28.5187  -13.9867   17.0854 C   0  0  0  0  0  0  0  0  0  0  0  0
  -31.6494  -35.1099   23.6538 C   0  0  0  0  0  0  0  0  0  0  0  0
  -28.0863  -12.5653   17.4446 C   0  0  0  0  0  0  0  0  0  0  0  0
  -30.3710  -18.6578   19.4183 C   0  0  0  0  0  0  0  0  0  0  0  0
  -27.9631  -18.8502   18.6603 C   0  0  0  0  0  0  0  0  0  0  0  0
  -27.7621  -15.0385   17.8985 C   0  0  0  0  0  0  0  0  0  0  0  0
  -29.9489  -17.5656   20.3998 C   0  0  0  0  0  0  0  0  0  0  0  0
  -27.5958  -17.7570   19.6611 C   0  0  0  0  0  0  0  0  0  0  0  0
  -27.3953  -13.4072   19.7209 C   0  0  0  0  0  0  0  0  0  0  0  0
  -31.9144  -34.3644   22.3402 C   0  0  1  0  0  0  0  0  0  0  0  0
  -28.6014  -33.0768   20.9987 C   0  0  1  0  0  0  0  0  0  0  0  0
  -28.1802  -12.3259   18.9620 C   0  0  1  0  0  0  0  0  0  0  0  0
  -29.2269  -19.6097   19.0674 C   0  0  0  0  0  0  0  0  0  0  0  0
  -31.1427  -24.6926   21.3206 C   0  0  0  0  0  0  0  0  0  0  0  0
  -21.1757  -32.3919   23.0949 C   0  0  0  0  0  0  0  0  0  0  0  0
  -27.3378  -33.0098   25.4439 C   0  0  0  0  0  0  0  0  0  0  0  0
  -24.9174  -32.5320   25.8701 C   0  0  0  0  0  0  0  0  0  0  0  0
  -25.6096  -34.7564   24.9780 C   0  0  0  0  0  0  0  0  0  0  0  0
  -22.6646  -31.5446   19.6976 C   0  0  0  0  0  0  0  0  0  0  0  0
  -29.5296  -25.9464   19.2207 C   0  0  0  0  0  0  0  0  0  1  0  0
  -25.7011  -32.7317   23.4666 C   0  0  1  0  0  0  0  0  0  0  0  0
  -22.2222  -32.4271   21.9920 C   0  0  2  0  0  0  0  0  0  0  0  0
  -25.9062  -33.2420   24.9209 C   0  0  0  0  0  0  0  0  0  0  0  0
  -28.5204  -23.8092   18.7465 N   0  0  0  0  0  0  0  0  0  0  0  0
  -26.4461  -10.7250   19.6768 N   0  0  0  0  0  0  0  0  0  0  0  0
  -27.7317  -10.9271   19.3416 N   0  0  0  0  0  0  0  0  0  0  0  0
  -27.5191  -32.5058   21.8029 N   0  0  0  0  0  0  0  0  0  0  0  0
  -27.8473  -14.7458   19.3355 N   0  0  0  0  0  0  0  0  0  0  0  0
  -28.7372  -16.8793   19.9527 N   0  0  0  0  0  0  0  0  0  0  0  0
  -29.8117   -9.8242   19.0814 N   0  0  0  0  0  0  0  0  0  0  0  0
  -27.0300   -6.5103   20.3759 N   0  0  0  0  0  0  0  0  0  0  0  0
  -30.6771  -34.1560   21.6190 N   0  0  0  0  0  0  0  0  0  0  0  0
  -24.3621  -32.9629   22.9355 N   0  0  0  0  0  0  0  0  0  0  0  0
  -21.7426  -31.5822   20.8619 N   0  3  0  0  0  0  0  0  0  0  0  0
  -29.1931   -7.0064   19.7983 O   0  0  0  0  0  0  0  0  0  0  0  0
  -29.9942  -32.2074   22.6956 O   0  0  0  0  0  0  0  0  0  0  0  0
  -26.6391  -34.5969   22.3407 O   0  0  0  0  0  0  0  0  0  0  0  0
  -23.8786  -30.7396   22.4879 O   0  0  0  0  0  0  0  0  0  0  0  0
  -29.0943  -15.0098   21.2573 O   0  0  0  0  0  0  0  0  0  0  0  0
  -21.6018   -7.0249   21.5185 O   0  0  0  0  0  0  0  0  0  0  0  0
  -28.9481  -20.4678   20.1716 O   0  0  0  0  0  0  0  0  0  0  0  0
  -28.8722  -26.6835   20.2431 O   0  0  0  0  0  0  0  0  0  1  0  0
  -21.7543   -3.5332   25.7833 F   0  0  0  0  0  0  0  0  0  0  0  0
  -23.1625   -4.7448   21.4296 F   0  0  0  0  0  0  0  0  0  0  0  0
  1  2  1  0  0  0  0
  1  5  2  0  0  0  0
  2  6  2  0  0  0  0
  3  8  2  0  0  0  0
  3 17  1  0  0  0  0
  4  9  1  0  0  0  0
  4 17  2  0  0  0  0
  5 19  1  0  0  0  0
  6 21  1  0  0  0  0
  7 10  2  0  0  0  0
  7 20  1  0  0  0  0
  8 24  1  0  0  0  0
  9 24  2  0  0  0  0
 10 25  1  0  0  0  0
 11 12  2  0  0  0  0
 11 26  1  0  0  0  0
 12 28  1  0  0  0  0
 13 22  1  0  0  0  0
 13 25  2  0  0  0  0
 14 23  1  0  0  0  0
 14 27  2  0  0  0  0
 15 28  2  0  0  0  0
 15 29  1  0  0  0  0
 16 27  1  0  0  0  0
 16 65  2  0  0  0  0
 17 30  1  0  0  0  0
 18 30  1  0  0  0  0
 18 32  2  0  0  0  0
 18 33  1  0  0  0  0
 19 21  2  0  0  0  0
 19 38  1  0  0  0  0
 20 22  2  0  0  0  0
 20 39  1  0  0  0  0
 21 51  1  0  0  0  0
 22 40  1  0  0  0  0
 23 31  2  0  0  0  0
 23 55  1  0  0  0  0
 24 81  1  0  0  0  0
 25 83  1  0  0  0  0
 26 29  2  0  0  0  0
 26 81  1  0  0  0  0
 27 82  1  0  0  0  0
 28 84  1  0  0  0  0
 29 85  1  0  0  0  0
 30 66  2  0  0  0  0
 31 61  1  0  0  0  0
 31 65  1  0  0  0  0
 32 67  1  0  0  0  0
 32 71  1  0  0  0  0
 33 72  1  0  0  0  0
 33 76  2  0  0  0  0
 34 52  1  0  0  0  0
 34 73  1  0  0  0  0
 34 77  2  0  0  0  0
 35 62  1  0  0  0  0
 35 68  1  0  0  0  0
 35 78  2  0  0  0  0
 36 63  1  0  0  0  0
 36 74  1  0  0  0  0
 36 79  2  0  0  0  0
 37 69  1  0  0  0  0
 37 70  1  0  0  0  0
 37 80  2  0  0  0  0
 38 41  1  0  0  0  0
 39 52  1  0  0  0  0
 40 68  1  0  0  0  0
 41 43  1  0  0  0  0
 42 44  1  0  0  0  0
 42 47  1  0  0  0  0
 43 51  1  0  0  0  0
 44 53  1  0  0  0  0
 45 48  1  0  0  0  0
 45 54  1  0  0  0  0
 46 49  1  0  0  0  0
 46 54  1  0  0  0  0
 47 69  1  0  0  0  0
 48 70  1  0  0  0  0
 49 70  1  0  0  0  0
 50 53  1  0  0  0  0
 50 69  1  0  0  0  0
 51 73  1  0  0  0  0
 52 68  1  0  0  0  0
 53 67  1  0  0  0  0
 54 82  1  0  0  0  0
 56 63  1  0  0  0  0
 57 64  1  0  0  0  0
 58 64  1  0  0  0  0
 59 64  1  0  0  0  0
 60 75  1  0  0  0  0
 61 83  1  0  0  0  0
 62 64  1  0  0  0  0
 62 74  1  0  0  0  0
 63 75  1  0  0  0  0
 66 67  1  0  0  0  0
M  CHG  1  75   1
M  ISO  4  37 100  61 101  70 100  83 101
M  END
> <Batch ID>
0164

> <Smiles>
CNC(C)C(=O)NC(C(=O)N1Cc2cc([101O:1][101CH2:1]c3ncc(OC4CC[100N:0]([100C:0](=O)N5CCCC(n6nc(-c7ccc(Oc8ccc(F)cc8F)cc7)c(C(N)=O)c6N)C5)CC4)cc3C)ccc2CC1C(=O)NC1CCCc2ccccc21)C(C)(C)C

> <Shape>
0.262

> <Color>
0.103

> <Negative vol penalty>
0.000

$$$$

  -OEChem-04052322193D

 89 99  0     1  0  0  0  0  0999 V2000
  -31.4732  -33.9518   14.7042 C   0  0  0  0  0  0  0  0  0  0  0  0
  -30.8432  -32.7571   15.0379 C   0  0  0  0  0  0  0  0  0  0  0  0
  -23.6538   -9.9989   22.0119 C   0  0  0  0  0  0  0  0  0  0  0  0
  -25.0540   -8.0305   22.0546 C   0  0  0  0  0  0  0  0  0  0  0  0
  -31.8620  -34.8376   15.7081 C   0  0  0  0  0  0  0  0  0  0  0  0
  -30.6025  -32.4472   16.3759 C   0  0  0  0  0  0  0  0  0  0  0  0
  -25.7944  -29.4063   18.6433 C   0  0  0  0  0  0  0  0  0  0  0  0
  -22.5314   -9.1961   21.8087 C   0  0  0  0  0  0  0  0  0  0  0  0
  -23.9315   -7.2277   21.8514 C   0  0  0  0  0  0  0  0  0  0  0  0
  -25.6188  -28.0753   19.0193 C   0  0  0  0  0  0  0  0  0  0  0  0
  -21.3813   -6.0008   23.6984 C   0  0  0  0  0  0  0  0  0  0  0  0
  -21.2544   -4.8557   24.4848 C   0  0  0  0  0  0  0  0  0  0  0  0
  -29.0794  -23.0083   19.0593 C   0  0  0  0  0  0  0  0  0  0  0  0
  -26.0945  -28.6659   21.3094 C   0  0  0  0  0  0  0  0  0  0  0  0
  -21.2618   -3.4875   22.4936 C   0  0  0  0  0  0  0  0  0  0  0  0
  -24.9151   -9.4161   22.1348 C   0  0  0  0  0  0  0  0  0  0  0  0
  -26.6150  -10.6554   23.5778 C   0  0  0  0  0  0  0  0  0  0  0  0
  -31.6172  -34.5429   17.0587 C   0  0  0  0  0  0  0  0  0  0  0  0
  -26.1327  -30.3768   19.5973 C   0  0  0  0  0  0  0  0  0  0  0  0
  -30.9896  -33.3294   17.3990 C   0  0  0  0  0  0  0  0  0  0  0  0
  -28.6453  -22.8582   20.3764 C   0  0  0  0  0  0  0  0  0  0  0  0
  -26.2713  -30.0089   20.9433 C   0  0  0  0  0  0  0  0  0  0  0  0
  -29.1264  -20.4932   20.2654 C   0  0  0  0  0  0  0  0  0  0  0  0
  -29.5369  -21.9008   18.3452 C   0  0  0  0  0  0  0  0  0  0  0  0
  -28.6689  -21.6007   20.9794 C   0  0  0  0  0  0  0  0  0  0  0  0
  -29.5605  -20.6433   18.9483 C   0  0  0  0  0  0  0  0  0  0  0  0
  -22.6702   -7.8105   21.7284 C   0  0  0  0  0  0  0  0  0  0  0  0
  -25.7717  -27.7044   20.3521 C   0  0  0  0  0  0  0  0  0  0  0  0
  -21.4484   -5.8892   22.3096 C   0  0  0  0  0  0  0  0  0  0  0  0
  -21.1947   -3.5991   23.8824 C   0  0  0  0  0  0  0  0  0  0  0  0
  -21.3886   -4.6325   21.7072 C   0  0  0  0  0  0  0  0  0  0  0  0
  -26.0750  -10.2448   22.3442 C   0  0  0  0  0  0  0  0  0  0  0  0
  -27.7035  -11.4212   23.2383 C   0  0  0  0  0  0  0  0  0  0  0  0
  -26.1723  -10.3700   24.9113 C   0  0  0  0  0  0  0  0  0  0  0  0
  -28.6076  -32.3221   20.0381 C   0  0  0  0  0  0  0  0  0  0  0  0
  -26.7575  -33.5000   22.4281 C   0  0  0  0  0  0  0  0  0  0  0  0
  -24.2180  -32.9840   24.6488 C   0  0  0  0  0  0  0  0  0  0  0  0
  -30.2114  -15.2291   20.1999 C   0  0  0  0  0  0  0  0  0  0  0  0
  -32.0982  -35.5098   18.1114 C   0  0  0  0  0  0  0  0  0  0  0  0
  -26.2924  -31.8130   19.1798 C   0  0  0  0  0  0  0  0  0  0  0  0
  -26.6139  -31.0161   22.0094 C   0  0  0  0  0  0  0  0  0  0  0  0
  -31.4699  -35.2786   19.4834 C   0  0  0  0  0  0  0  0  0  0  0  0
  -30.0277  -12.0732   18.8016 C   0  0  0  0  0  0  0  0  0  0  0  0
  -31.5008  -33.7962   19.8417 C   0  0  0  0  0  0  0  0  0  0  0  0
  -29.0286  -11.3378   19.6944 C   0  0  0  0  0  0  0  0  0  0  0  0
  -28.2279  -18.1245   20.2050 C   0  0  0  0  0  0  0  0  0  0  0  0
  -30.5810  -18.5636   21.0294 C   0  0  0  0  0  0  0  0  0  0  0  0
  -27.9307  -25.4673   20.3957 C   0  0  0  0  0  0  0  0  0  0  0  0
  -26.6202  -24.2345   21.5267 C   0  0  0  0  0  0  0  0  0  0  0  0
  -29.5750  -13.5051   18.5404 C   0  0  0  0  0  0  0  0  0  0  0  0
  -28.2833  -16.7380   20.8528 C   0  0  0  0  0  0  0  0  0  0  0  0
  -30.5712  -17.1823   21.6778 C   0  0  0  0  0  0  0  0  0  0  0  0
  -28.3485  -13.5790   20.6871 C   0  0  0  0  0  0  0  0  0  0  0  0
  -28.1301  -24.1308   21.1665 C   0  0  0  0  0  0  0  0  0  0  0  0
  -29.1519  -19.1256   20.9216 C   0  0  0  0  0  0  0  0  0  0  0  0
  -30.6888  -32.9690   18.8377 C   0  0  1  0  0  0  0  0  0  0  0  0
  -27.1407  -32.6270   20.1520 C   0  0  1  0  0  0  0  0  0  0  0  0
  -28.7615  -12.1243   20.9900 C   0  0  1  0  0  0  0  0  0  0  0  0
  -26.7352  -25.7617   21.3285 C   0  0  0  0  0  0  0  0  0  1  0  0
  -29.9962  -22.0890   16.9367 C   0  0  0  0  0  0  0  0  0  0  0  0
  -28.2023  -21.4455   22.3920 C   0  0  0  0  0  0  0  0  0  0  0  0
  -30.0511  -19.4570   18.1799 C   0  0  0  0  0  0  0  0  0  0  0  0
  -22.9585  -34.1183   26.4993 C   0  0  0  0  0  0  0  0  0  0  0  0
  -29.1166  -33.0456   24.3090 C   0  0  0  0  0  0  0  0  0  0  0  0
  -27.5356  -33.2802   26.2361 C   0  0  0  0  0  0  0  0  0  0  0  0
  -27.8892  -35.1936   24.6751 C   0  0  0  0  0  0  0  0  0  0  0  0
  -21.6556  -32.7894   23.1807 C   0  0  0  0  0  0  0  0  0  0  0  0
  -26.5723  -33.1824   23.8922 C   0  0  1  0  0  0  0  0  0  0  0  0
  -23.0070  -33.8261   25.0076 C   0  0  2  0  0  0  0  0  0  0  0  0
  -27.7739  -33.6559   24.7579 C   0  0  0  0  0  0  0  0  0  0  0  0
  -26.7636  -10.7113   21.2991 N   0  0  0  0  0  0  0  0  0  0  0  0
  -27.7474  -11.4230   21.8751 N   0  0  0  0  0  0  0  0  0  0  0  0
  -26.7661  -32.4067   21.5503 N   0  0  0  0  0  0  0  0  0  0  0  0
  -29.3284  -14.2170   19.7943 N   0  0  0  0  0  0  0  0  0  0  0  0
  -29.6727  -16.2733   20.9666 N   0  0  0  0  0  0  0  0  0  0  0  0
  -28.6176  -12.0866   23.9758 N   0  0  0  0  0  0  0  0  0  0  0  0
  -25.0364   -9.5666   25.0806 N   0  0  0  0  0  0  0  0  0  0  0  0
  -29.2725  -33.0963   19.1064 N   0  0  0  0  0  0  0  0  0  0  0  0
  -25.2917  -33.7654   24.2776 N   0  0  0  0  0  0  0  0  0  0  0  0
  -21.7523  -33.1181   24.6263 N   0  3  0  0  0  0  0  0  0  0  0  0
  -26.7568  -10.8277   25.9224 O   0  0  0  0  0  0  0  0  0  0  0  0
  -29.1001  -31.4501   20.7443 O   0  0  0  0  0  0  0  0  0  0  0  0
  -26.8825  -34.6754   22.0753 O   0  0  0  0  0  0  0  0  0  0  0  0
  -24.2132  -31.7559   24.6968 O   0  0  0  0  0  0  0  0  0  0  0  0
  -31.4106  -15.2017   19.8960 O   0  0  0  0  0  0  0  0  0  0  0  0
  -21.5751   -7.0269   21.5304 O   0  0  0  0  0  0  0  0  0  0  0  0
  -25.6011  -26.4031   20.7225 O   0  0  0  0  0  0  0  0  0  1  0  0
  -21.0744   -2.4995   24.6378 F   0  0  0  0  0  0  0  0  0  0  0  0
  -21.4538   -4.5189   20.3736 F   0  0  0  0  0  0  0  0  0  0  0  0
  1  2  1  0  0  0  0
  1  5  2  0  0  0  0
  2  6  2  0  0  0  0
  3  8  2  0  0  0  0
  3 16  1  0  0  0  0
  4  9  1  0  0  0  0
  4 16  2  0  0  0  0
  5 18  1  0  0  0  0
  6 20  1  0  0  0  0
  7 10  2  0  0  0  0
  7 19  1  0  0  0  0
  8 27  1  0  0  0  0
  9 27  2  0  0  0  0
 10 28  1  0  0  0  0
 11 12  2  0  0  0  0
 11 29  1  0  0  0  0
 12 30  1  0  0  0  0
 13 21  1  0  0  0  0
 13 24  2  0  0  0  0
 14 22  1  0  0  0  0
 14 28  2  0  0  0  0
 15 30  2  0  0  0  0
 15 31  1  0  0  0  0
 16 32  1  0  0  0  0
 17 32  1  0  0  0  0
 17 33  2  0  0  0  0
 17 34  1  0  0  0  0
 18 20  2  0  0  0  0
 18 39  1  0  0  0  0
 19 22  2  0  0  0  0
 19 40  1  0  0  0  0
 20 56  1  0  0  0  0
 21 25  2  0  0  0  0
 21 54  1  0  0  0  0
 22 41  1  0  0  0  0
 23 25  1  0  0  0  0
 23 26  2  0  0  0  0
 23 55  1  0  0  0  0
 24 26  1  0  0  0  0
 24 60  1  0  0  0  0
 25 61  1  0  0  0  0
 26 62  1  0  0  0  0
 27 86  1  0  0  0  0
 28 87  1  0  0  0  0
 29 31  2  0  0  0  0
 29 86  1  0  0  0  0
 30 88  1  0  0  0  0
 31 89  1  0  0  0  0
 32 71  2  0  0  0  0
 33 72  1  0  0  0  0
 33 76  1  0  0  0  0
 34 77  1  0  0  0  0
 34 81  2  0  0  0  0
 35 57  1  0  0  0  0
 35 78  1  0  0  0  0
 35 82  2  0  0  0  0
 36 68  1  0  0  0  0
 36 73  1  0  0  0  0
 36 83  2  0  0  0  0
 37 69  1  0  0  0  0
 37 79  1  0  0  0  0
 37 84  2  0  0  0  0
 38 74  1  0  0  0  0
 38 75  1  0  0  0  0
 38 85  2  0  0  0  0
 39 42  1  0  0  0  0
 40 57  1  0  0  0  0
 41 73  1  0  0  0  0
 42 44  1  0  0  0  0
 43 45  1  0  0  0  0
 43 50  1  0  0  0  0
 44 56  1  0  0  0  0
 45 58  1  0  0  0  0
 46 51  1  0  0  0  0
 46 55  1  0  0  0  0
 47 52  1  0  0  0  0
 47 55  1  0  0  0  0
 48 54  1  0  0  0  0
 48 59  1  0  0  0  0
 49 54  1  0  0  0  0
 49 59  1  0  0  0  0
 50 74  1  0  0  0  0
 51 75  1  0  0  0  0
 52 75  1  0  0  0  0
 53 58  1  0  0  0  0
 53 74  1  0  0  0  0
 56 78  1  0  0  0  0
 57 73  1  0  0  0  0
 58 72  1  0  0  0  0
 59 87  1  0  0  0  0
 63 69  1  0  0  0  0
 64 70  1  0  0  0  0
 65 70  1  0  0  0  0
 66 70  1  0  0  0  0
 67 80  1  0  0  0  0
 68 70  1  0  0  0  0
 68 79  1  0  0  0  0
 69 80  1  0  0  0  0
 71 72  1  0  0  0  0
M  CHG  1  80   1
M  ISO  4  38 100  59 101  75 100  87 101
M  END
> <Batch ID>
0164

> <Smiles>
CNC(C)C(=O)NC(C(=O)N1Cc2cc([101O:1][101CH:1]3CC(c4cc(C)c(C)c(C5CC[100N:0]([100C:0](=O)N6CCCC(n7nc(-c8ccc(Oc9ccc(F)cc9F)cc8)c(C(N)=O)c7N)C6)CC5)c4C)C3)ccc2CC1C(=O)NC1CCCc2ccccc21)C(C)(C)C

> <Shape>
0.277

> <Color>
0.121

> <Negative vol penalty>
0.000

$$$$

  -OEChem-04052322193D

 87 96  0     1  0  0  0  0  0999 V2000
  -29.3040  -35.1580   24.9707 C   0  0  0  0  0  0  0  0  0  0  0  0
  -29.4852  -33.9390   24.3253 C   0  0  0  0  0  0  0  0  0  0  0  0
  -22.2058   -7.7330   19.1374 C   0  0  0  0  0  0  0  0  0  0  0  0
  -22.8152   -7.0336   21.3682 C   0  0  0  0  0  0  0  0  0  0  0  0
  -28.0923  -35.4387   25.6007 C   0  0  0  0  0  0  0  0  0  0  0  0
  -28.4549  -32.9995   24.3103 C   0  0  0  0  0  0  0  0  0  0  0  0
  -27.0875  -29.1072   19.7840 C   0  0  0  0  0  0  0  0  0  0  0  0
  -22.0840   -6.3980   18.7521 C   0  0  0  0  0  0  0  0  0  0  0  0
  -22.6934   -5.6986   20.9830 C   0  0  0  0  0  0  0  0  0  0  0  0
  -27.3884  -27.7610   19.5817 C   0  0  0  0  0  0  0  0  0  0  0  0
  -22.1919   -2.1100   20.6843 C   0  0  0  0  0  0  0  0  0  0  0  0
  -21.5152   -1.2452   21.5444 C   0  0  0  0  0  0  0  0  0  0  0  0
  -25.2472  -27.1493   20.5094 C   0  0  0  0  0  0  0  0  0  0  0  0
  -28.5212  -21.4905   19.9533 C   0  0  0  0  0  0  0  0  0  0  0  0
  -19.5260   -2.6016   21.3431 C   0  0  0  0  0  0  0  0  0  0  0  0
  -22.5715   -8.0508   20.4455 C   0  0  0  0  0  0  0  0  0  0  0  0
  -21.6912  -10.2560   21.3782 C   0  0  0  0  0  0  0  0  0  0  0  0
  -27.0433  -34.5060   25.5851 C   0  0  0  0  0  0  0  0  0  0  0  0
  -25.8668  -29.4848   20.3616 C   0  0  0  0  0  0  0  0  0  0  0  0
  -27.2284  -33.2674   24.9417 C   0  0  0  0  0  0  0  0  0  0  0  0
  -24.9323  -28.5011   20.7157 C   0  0  0  0  0  0  0  0  0  0  0  0
  -28.4008  -22.8714   20.1084 C   0  0  0  0  0  0  0  0  0  0  0  0
  -28.0226  -23.1052   17.7336 C   0  0  0  0  0  0  0  0  0  0  0  0
  -28.1515  -23.6788   18.9986 C   0  0  0  0  0  0  0  0  0  0  0  0
  -28.1430  -21.7242   17.5786 C   0  0  0  0  0  0  0  0  0  0  0  0
  -28.3923  -20.9168   18.6884 C   0  0  0  0  0  0  0  0  0  0  0  0
  -22.3277   -5.3807   19.6749 C   0  0  0  0  0  0  0  0  0  0  0  0
  -26.4694  -26.7817   19.9470 C   0  0  0  0  0  0  0  0  0  0  0  0
  -21.5358   -3.2207   20.1537 C   0  0  0  0  0  0  0  0  0  0  0  0
  -20.1823   -1.4910   21.8738 C   0  0  0  0  0  0  0  0  0  0  0  0
  -20.2028   -3.4665   20.4831 C   0  0  0  0  0  0  0  0  0  0  0  0
  -22.6980   -9.4297   20.8439 C   0  0  0  0  0  0  0  0  0  0  0  0
  -22.3128  -11.4628   21.5877 C   0  0  0  0  0  0  0  0  0  0  0  0
  -20.3172   -9.9592   21.6601 C   0  0  0  0  0  0  0  0  0  0  0  0
  -25.0192  -31.0199   23.0128 C   0  0  0  0  0  0  0  0  0  0  0  0
  -22.0509  -30.8062   21.7221 C   0  0  0  0  0  0  0  0  0  0  0  0
  -19.9245  -29.1884   19.5989 C   0  0  0  0  0  0  0  0  0  0  0  0
  -25.5126  -15.5105   20.1102 C   0  0  0  0  0  0  0  0  0  0  0  0
  -25.7682  -34.8352   26.3203 C   0  0  0  0  0  0  0  0  0  0  0  0
  -25.5463  -30.9424   20.5486 C   0  0  0  0  0  0  0  0  0  0  0  0
  -23.5991  -28.8550   21.3207 C   0  0  0  0  0  0  0  0  0  0  0  0
  -24.5949  -33.9368   25.9374 C   0  0  0  0  0  0  0  0  0  0  0  0
  -27.2000  -12.7324   21.4383 C   0  0  0  0  0  0  0  0  0  0  0  0
  -25.0255  -32.4736   25.9229 C   0  0  0  0  0  0  0  0  0  0  0  0
  -26.0918  -11.6798   21.4465 C   0  0  0  0  0  0  0  0  0  0  0  0
  -28.4486  -17.1796   19.1192 C   0  0  0  0  0  0  0  0  0  0  0  0
  -26.6766  -18.7703   19.9545 C   0  0  0  0  0  0  0  0  0  0  0  0
  -27.1659  -13.5907   20.1724 C   0  0  0  0  0  0  0  0  0  0  0  0
  -27.9685  -16.1387   20.1348 C   0  0  0  0  0  0  0  0  0  0  0  0
  -26.2517  -17.7123   20.9689 C   0  0  0  0  0  0  0  0  0  0  0  0
  -24.7429  -13.1643   19.9155 C   0  0  0  0  0  0  0  0  0  0  0  0
  -26.1259  -32.2325   24.8824 C   0  0  1  0  0  0  0  0  0  0  0  0
  -24.4865  -31.1888   21.6180 C   0  0  1  0  0  0  0  0  0  0  0  0
  -24.7158  -12.3245   21.2020 C   0  0  1  0  0  0  0  0  0  0  0  0
  -28.1551  -18.6049   19.5933 C   0  0  0  0  0  0  0  0  0  0  0  0
  -28.5419  -23.4606   21.4738 C   0  0  0  0  0  0  0  0  0  0  0  0
  -27.7556  -23.9718   16.5433 C   0  0  0  0  0  0  0  0  0  0  0  0
  -28.0013  -21.1093   16.2213 C   0  0  0  0  0  0  0  0  0  0  0  0
  -17.5507  -29.2205   18.7855 C   0  0  0  0  0  0  0  0  0  0  0  0
  -21.1379  -29.5411   24.3443 C   0  0  0  0  0  0  0  0  0  0  0  0
  -19.0787  -28.7459   23.1629 C   0  0  0  0  0  0  0  0  0  0  0  0
  -19.5320  -31.1904   23.3670 C   0  0  0  0  0  0  0  0  0  0  0  0
  -20.7663  -29.6800   16.8045 C   0  0  0  0  0  0  0  0  0  0  0  0
  -28.0243  -25.1598   19.1675 C   0  0  0  0  0  0  0  0  0  1  0  0
  -20.9282  -29.7989   21.7839 C   0  0  1  0  0  0  0  0  0  0  0  0
  -18.9697  -29.7088   18.5395 C   0  0  2  0  0  0  0  0  0  0  0  0
  -20.1950  -29.8120   23.1549 C   0  0  0  0  0  0  0  0  0  0  0  0
  -23.8700  -10.0585   20.7214 N   0  0  0  0  0  0  0  0  0  0  0  0
  -23.6036  -11.2927   21.1816 N   0  0  0  0  0  0  0  0  0  0  0  0
  -23.3350  -30.2935   21.4894 N   0  0  0  0  0  0  0  0  0  0  0  0
  -25.8241  -14.1510   19.9596 N   0  0  0  0  0  0  0  0  0  0  0  0
  -26.5593  -16.3656   20.4862 N   0  0  0  0  0  0  0  0  0  0  0  0
  -21.8755  -12.6423   22.0777 N   0  0  0  0  0  0  0  0  0  0  0  0
  -19.8421   -8.6697   21.3848 N   0  0  0  0  0  0  0  0  0  0  0  0
  -28.5149  -19.5452   18.5548 N   0  0  0  0  0  0  0  0  0  0  0  0
  -25.5591  -32.1718   23.5522 N   0  0  0  0  0  0  0  0  0  0  0  0
  -20.0648  -30.0793   20.6419 N   0  0  0  0  0  0  0  0  0  0  0  0
  -19.3967  -29.2503   17.1873 N   0  3  0  0  0  0  0  0  0  0  0  0
  -19.5297  -10.8171   22.1265 O   0  0  0  0  0  0  0  0  0  0  0  0
  -24.9444  -29.9258   23.5597 O   0  0  0  0  0  0  0  0  0  0  0  0
  -21.7969  -32.0045   21.8675 O   0  0  0  0  0  0  0  0  0  0  0  0
  -20.4864  -28.0989   19.5118 O   0  0  0  0  0  0  0  0  0  0  0  0
  -24.3663  -15.9359   19.9198 O   0  0  0  0  0  0  0  0  0  0  0  0
  -22.2087   -4.0779   19.2993 O   0  0  0  0  0  0  0  0  0  0  0  0
  -26.7629  -25.4572   19.7498 O   0  0  0  0  0  0  0  0  0  1  0  0
  -19.5321   -0.6596   22.6985 F   0  0  0  0  0  0  0  0  0  0  0  0
  -19.5668   -4.5312   19.9755 F   0  0  0  0  0  0  0  0  0  0  0  0
  1  2  1  0  0  0  0
  1  5  2  0  0  0  0
  2  6  2  0  0  0  0
  3  8  2  0  0  0  0
  3 16  1  0  0  0  0
  4  9  1  0  0  0  0
  4 16  2  0  0  0  0
  5 18  1  0  0  0  0
  6 20  1  0  0  0  0
  7 10  2  0  0  0  0
  7 19  1  0  0  0  0
  8 27  1  0  0  0  0
  9 27  2  0  0  0  0
 10 28  1  0  0  0  0
 11 12  2  0  0  0  0
 11 29  1  0  0  0  0
 12 30  1  0  0  0  0
 13 21  1  0  0  0  0
 13 28  2  0  0  0  0
 14 22  2  0  0  0  0
 14 26  1  0  0  0  0
 15 30  2  0  0  0  0
 15 31  1  0  0  0  0
 16 32  1  0  0  0  0
 17 32  1  0  0  0  0
 17 33  2  0  0  0  0
 17 34  1  0  0  0  0
 18 20  2  0  0  0  0
 18 39  1  0  0  0  0
 19 21  2  0  0  0  0
 19 40  1  0  0  0  0
 20 52  1  0  0  0  0
 21 41  1  0  0  0  0
 22 24  1  0  0  0  0
 22 56  1  0  0  0  0
 23 24  2  0  0  0  0
 23 25  1  0  0  0  0
 23 57  1  0  0  0  0
 24 64  1  0  0  0  0
 25 26  2  0  0  0  0
 25 58  1  0  0  0  0
 26 75  1  0  0  0  0
 27 84  1  0  0  0  0
 28 85  1  0  0  0  0
 29 31  2  0  0  0  0
 29 84  1  0  0  0  0
 30 86  1  0  0  0  0
 31 87  1  0  0  0  0
 32 68  2  0  0  0  0
 33 69  1  0  0  0  0
 33 73  1  0  0  0  0
 34 74  1  0  0  0  0
 34 79  2  0  0  0  0
 35 53  1  0  0  0  0
 35 76  1  0  0  0  0
 35 80  2  0  0  0  0
 36 65  1  0  0  0  0
 36 70  1  0  0  0  0
 36 81  2  0  0  0  0
 37 66  1  0  0  0  0
 37 77  1  0  0  0  0
 37 82  2  0  0  0  0
 38 71  1  0  0  0  0
 38 72  1  0  0  0  0
 38 83  2  0  0  0  0
 39 42  1  0  0  0  0
 40 53  1  0  0  0  0
 41 70  1  0  0  0  0
 42 44  1  0  0  0  0
 43 45  1  0  0  0  0
 43 48  1  0  0  0  0
 44 52  1  0  0  0  0
 45 54  1  0  0  0  0
 46 49  1  0  0  0  0
 46 55  1  0  0  0  0
 47 50  1  0  0  0  0
 47 55  1  0  0  0  0
 48 71  1  0  0  0  0
 49 72  1  0  0  0  0
 50 72  1  0  0  0  0
 51 54  1  0  0  0  0
 51 71  1  0  0  0  0
 52 76  1  0  0  0  0
 53 70  1  0  0  0  0
 54 69  1  0  0  0  0
 55 75  1  0  0  0  0
 59 66  1  0  0  0  0
 60 67  1  0  0  0  0
 61 67  1  0  0  0  0
 62 67  1  0  0  0  0
 63 78  1  0  0  0  0
 64 85  1  0  0  0  0
 65 67  1  0  0  0  0
 65 77  1  0  0  0  0
 66 78  1  0  0  0  0
 68 69  1  0  0  0  0
M  CHG  1  78   1
M  ISO  4  38 100  64 101  72 100  85 101
M  END
> <Batch ID>
0164

> <Smiles>
CNC(C)C(=O)NC(C(=O)N1Cc2cc([101O:1][101CH2:1]c3c(C)cc(NC4CC[100N:0]([100C:0](=O)N5CCCC(n6nc(-c7ccc(Oc8ccc(F)cc8F)cc7)c(C(N)=O)c6N)C5)CC4)c(C)c3C)ccc2CC1C(=O)NC1CCCc2ccccc21)C(C)(C)C

> <Shape>
0.282

> <Color>
0.075

> <Negative vol penalty>
0.000

$$$$

  -OEChem-04052322193D

 89 98  0     1  0  0  0  0  0999 V2000
  -16.7616  -27.4843   22.9587 C   0  0  0  0  0  0  0  0  0  0  0  0
  -17.8270  -26.8455   22.3324 C   0  0  0  0  0  0  0  0  0  0  0  0
  -26.2001  -12.8785   21.5578 C   0  0  0  0  0  0  0  0  0  0  0  0
  -25.8149  -13.5343   19.2646 C   0  0  0  0  0  0  0  0  0  0  0  0
  -16.7622  -28.8724   23.0898 C   0  0  0  0  0  0  0  0  0  0  0  0
  -18.8932  -27.5945   21.8358 C   0  0  0  0  0  0  0  0  0  0  0  0
  -24.7930  -25.9578   21.6960 C   0  0  0  0  0  0  0  0  0  0  0  0
  -25.0322  -12.1163   21.5360 C   0  0  0  0  0  0  0  0  0  0  0  0
  -24.6469  -12.7720   19.2428 C   0  0  0  0  0  0  0  0  0  0  0  0
  -25.5952  -25.4261   20.6874 C   0  0  0  0  0  0  0  0  0  0  0  0
  -24.0473   -9.1003   20.3669 C   0  0  0  0  0  0  0  0  0  0  0  0
  -24.1010   -7.8163   20.9092 C   0  0  0  0  0  0  0  0  0  0  0  0
  -26.3855  -27.6424   20.1559 C   0  0  0  0  0  0  0  0  0  0  0  0
  -22.3971   -8.4218   22.5114 C   0  0  0  0  0  0  0  0  0  0  0  0
  -26.5915  -13.5875   20.4221 C   0  0  0  0  0  0  0  0  0  0  0  0
  -29.0963  -13.9516   20.1045 C   0  0  0  0  0  0  0  0  0  0  0  0
  -17.8335  -29.6380   22.6032 C   0  0  0  0  0  0  0  0  0  0  0  0
  -24.7727  -27.3394   21.9354 C   0  0  0  0  0  0  0  0  0  0  0  0
  -18.9075  -28.9943   21.9593 C   0  0  0  0  0  0  0  0  0  0  0  0
  -25.5841  -28.1889   21.1699 C   0  0  0  0  0  0  0  0  0  0  0  0
  -26.4190  -25.2078   15.9308 C   0  0  0  0  0  0  0  0  0  0  0  0
  -25.4958  -26.1116   15.4169 C   0  0  0  0  0  0  0  0  0  0  0  0
  -26.1621  -23.8432   15.8587 C   0  0  0  0  0  0  0  0  0  0  0  0
  -24.2556  -12.0630   20.3786 C   0  0  0  0  0  0  0  0  0  0  0  0
  -26.3895  -26.2687   19.9152 C   0  0  0  0  0  0  0  0  0  0  0  0
  -23.1686  -10.0451   20.8969 C   0  0  0  0  0  0  0  0  0  0  0  0
  -23.2759   -7.4770   21.9814 C   0  0  0  0  0  0  0  0  0  0  0  0
  -22.3434   -9.7058   21.9691 C   0  0  0  0  0  0  0  0  0  0  0  0
  -27.7976  -14.3755   20.4441 C   0  0  0  0  0  0  0  0  0  0  0  0
  -24.3402  -25.6038   14.8454 C   0  0  0  0  0  0  0  0  0  0  0  0
  -24.9766  -23.4370   15.2676 C   0  0  0  0  0  0  0  0  0  0  0  0
  -29.8802  -15.0641   20.2901 C   0  0  0  0  0  0  0  0  0  0  0  0
  -29.5533  -12.6671   19.6608 C   0  0  0  0  0  0  0  0  0  0  0  0
  -22.5482  -29.6061   21.8047 C   0  0  0  0  0  0  0  0  0  0  0  0
  -24.9083  -31.4497   23.0512 C   0  0  0  0  0  0  0  0  0  0  0  0
  -28.2527  -31.9730   23.4845 C   0  0  0  0  0  0  0  0  0  0  0  0
  -28.7090  -20.9355   20.2167 C   0  0  0  0  0  0  0  0  0  0  0  0
  -17.7673  -31.1397   22.7261 C   0  0  0  0  0  0  0  0  0  0  0  0
  -23.9220  -27.8943   23.0449 C   0  0  0  0  0  0  0  0  0  0  0  0
  -25.6138  -29.6770   21.4003 C   0  0  0  0  0  0  0  0  0  0  0  0
  -19.1116  -31.8287   22.5062 C   0  0  0  0  0  0  0  0  0  0  0  0
  -30.1385  -19.0709   22.8918 C   0  0  0  0  0  0  0  0  0  0  0  0
  -19.8031  -31.2671   21.2680 C   0  0  0  0  0  0  0  0  0  0  0  0
  -29.8179  -17.6179   22.5372 C   0  0  0  0  0  0  0  0  0  0  0  0
  -29.0028  -20.0122   22.4965 C   0  0  0  0  0  0  0  0  0  0  0  0
  -28.2581  -18.4603   20.7328 C   0  0  0  0  0  0  0  0  0  0  0  0
  -27.0364  -22.4243   17.7389 C   0  0  0  0  0  0  0  0  0  0  0  0
  -28.1502  -22.3317   15.5865 C   0  0  0  0  0  0  0  0  0  0  0  0
  -20.0939  -29.7702   21.4297 C   0  0  1  0  0  0  0  0  0  0  0  0
  -23.5903  -29.3720   22.8615 C   0  0  1  0  0  0  0  0  0  0  0  0
  -29.3975  -17.4805   21.0615 C   0  0  2  0  0  0  0  0  0  0  0  0
  -28.3837  -21.7087   17.8810 C   0  0  2  0  0  0  0  0  0  0  0  0
  -28.6180  -21.1803   16.4735 C   0  0  2  0  0  0  0  0  0  0  0  0
  -25.7428  -27.5818   15.4778 C   0  0  0  0  0  0  0  0  0  0  0  0
  -23.3126  -26.5256   14.2743 C   0  0  0  0  0  0  0  0  0  0  0  0
  -24.6421  -21.9845   15.1602 C   0  0  0  0  0  0  0  0  0  0  0  0
  -28.5638  -26.4676   15.5505 C   0  0  0  0  0  0  0  0  0  0  0  0
  -29.8772  -33.5846   24.5145 C   0  0  0  0  0  0  0  0  0  0  0  0
  -24.4289  -33.3982   20.7526 C   0  0  0  0  0  0  0  0  0  0  0  0
  -26.6408  -34.4487   21.2740 C   0  0  0  0  0  0  0  0  0  0  0  0
  -24.8155  -34.4801   22.9740 C   0  0  0  0  0  0  0  0  0  0  0  0
  -29.3443  -29.8982   25.2907 C   0  0  0  0  0  0  0  0  0  0  0  0
  -27.4296  -26.5860   17.8002 C   0  0  0  0  0  0  0  0  0  1  0  0
  -27.7040  -25.7128   16.5682 C   0  0  1  0  0  0  0  0  0  0  0  0
  -26.0101  -32.3078   22.4780 C   0  0  1  0  0  0  0  0  0  0  0  0
  -29.0673  -32.3138   24.7193 C   0  0  2  0  0  0  0  0  0  0  0  0
  -25.4720  -33.6309   21.8638 C   0  0  0  0  0  0  0  0  0  0  0  0
  -27.7547  -15.6573   20.8173 N   0  0  0  0  0  0  0  0  0  0  0  0
  -24.0558  -24.2851   14.7572 N   0  0  0  0  0  0  0  0  0  0  0  0
  -29.0362  -16.0483   20.7134 N   0  0  0  0  0  0  0  0  0  0  0  0
  -27.0581  -22.9244   16.3618 N   0  0  3  0  0  0  0  0  0  0  0  0
  -24.7598  -30.1723   22.4926 N   0  0  0  0  0  0  0  0  0  0  0  0
  -28.6534  -19.8330   21.0852 N   0  0  0  0  0  0  0  0  0  0  0  0
  -31.2021  -15.2866   20.1309 N   0  0  0  0  0  0  0  0  0  0  0  0
  -28.6152  -11.6348   19.5240 N   0  0  0  0  0  0  0  0  0  0  0  0
  -21.2500  -29.5685   22.2767 N   0  0  0  0  0  0  0  0  0  0  0  0
  -26.9796  -32.4982   23.5514 N   0  0  0  0  0  0  0  0  0  0  0  0
  -28.3683  -20.6775   18.8945 N   0  0  0  0  0  0  0  0  0  0  0  0
  -30.0392  -20.8685   16.2399 N   0  3  0  0  0  0  0  0  0  0  0  0
  -30.0079  -31.2039   25.0420 N   0  3  0  0  0  0  0  0  0  0  0  0
  -30.7605  -12.4368   19.4094 O   0  0  0  0  0  0  0  0  0  0  0  0
  -22.8962  -29.8075   20.6471 O   0  0  0  0  0  0  0  0  0  0  0  0
  -24.2098  -31.8936   23.9659 O   0  0  0  0  0  0  0  0  0  0  0  0
  -28.7022  -31.3104   22.5520 O   0  0  0  0  0  0  0  0  0  0  0  0
  -29.0431  -22.0649   20.5906 O   0  0  0  0  0  0  0  0  0  0  0  0
  -23.1159  -11.3192   20.3569 O   0  0  0  0  0  0  0  0  0  0  0  0
  -27.1730  -25.7524   18.9296 O   0  0  0  0  0  0  0  0  0  1  0  0
  -23.3264   -6.2435   22.5011 F   0  0  0  0  0  0  0  0  0  0  0  0
  -21.4963  -10.6088   22.4818 F   0  0  0  0  0  0  0  0  0  0  0  0
  1  2  1  0  0  0  0
  1  5  2  0  0  0  0
  2  6  2  0  0  0  0
  3  8  2  0  0  0  0
  3 15  1  0  0  0  0
  4  9  1  0  0  0  0
  4 15  2  0  0  0  0
  5 17  1  0  0  0  0
  6 19  1  0  0  0  0
  7 10  2  0  0  0  0
  7 18  1  0  0  0  0
  8 24  1  0  0  0  0
  9 24  2  0  0  0  0
 10 25  1  0  0  0  0
 11 12  2  0  0  0  0
 11 26  1  0  0  0  0
 12 27  1  0  0  0  0
 13 20  1  0  0  0  0
 13 25  2  0  0  0  0
 14 27  2  0  0  0  0
 14 28  1  0  0  0  0
 15 29  1  0  0  0  0
 16 29  1  0  0  0  0
 16 32  2  0  0  0  0
 16 33  1  0  0  0  0
 17 19  2  0  0  0  0
 17 38  1  0  0  0  0
 18 20  2  0  0  0  0
 18 39  1  0  0  0  0
 19 49  1  0  0  0  0
 20 40  1  0  0  0  0
 21 22  1  0  0  0  0
 21 23  2  0  0  0  0
 21 64  1  0  0  0  0
 22 30  2  0  0  0  0
 22 54  1  0  0  0  0
 23 31  1  0  0  0  0
 23 71  1  0  0  0  0
 24 86  1  0  0  0  0
 25 87  1  0  0  0  0
 26 28  2  0  0  0  0
 26 86  1  0  0  0  0
 27 88  1  0  0  0  0
 28 89  1  0  0  0  0
 29 68  2  0  0  0  0
 30 55  1  0  0  0  0
 30 69  1  0  0  0  0
 31 56  1  0  0  0  0
 31 69  2  0  0  0  0
 32 70  1  0  0  0  0
 32 74  1  0  0  0  0
 33 75  1  0  0  0  0
 33 81  2  0  0  0  0
 34 50  1  0  0  0  0
 34 76  1  0  0  0  0
 34 82  2  0  0  0  0
 35 65  1  0  0  0  0
 35 72  1  0  0  0  0
 35 83  2  0  0  0  0
 36 66  1  0  0  0  0
 36 77  1  0  0  0  0
 36 84  2  0  0  0  0
 37 73  1  0  0  0  0
 37 78  1  0  0  0  0
 37 85  2  0  0  0  0
 38 41  1  0  0  0  0
 39 50  1  0  0  0  0
 40 72  1  0  0  0  0
 41 43  1  0  0  0  0
 42 44  1  0  0  0  0
 42 45  1  0  0  0  0
 43 49  1  0  0  0  0
 44 51  1  0  0  0  0
 45 73  1  0  0  0  0
 46 51  1  0  0  0  0
 46 73  1  0  0  0  0
 47 52  1  0  0  0  0
 47 71  1  0  0  0  0
 48 53  1  0  0  0  0
 48 71  1  0  0  0  0
 49 76  1  0  0  0  0
 50 72  1  0  0  0  0
 51 70  1  0  0  0  0
 52 53  1  0  0  0  0
 52 78  1  0  0  0  0
 53 79  1  0  0  0  0
 57 64  1  0  0  0  0
 58 66  1  0  0  0  0
 59 67  1  0  0  0  0
 60 67  1  0  0  0  0
 61 67  1  0  0  0  0
 62 80  1  0  0  0  0
 63 64  1  0  0  0  0
 63 87  1  0  0  0  0
 65 67  1  0  0  0  0
 65 77  1  0  0  0  0
 66 80  1  0  0  0  0
 68 70  1  0  0  0  0
M  CHG  2  79   1  80   1
M  ISO  4  37 100  63 101  78 100  87 101
M  END
> <Batch ID>
0164

> <Smiles>
CNC(C)C(=O)NC(C(=O)N1Cc2cc([101O:1][101CH2:1]C(C)c3c(C)c(C)nc(C)c3N3CC(N)C([100NH:0][100C:0](=O)N4CCCC(n5nc(-c6ccc(Oc7ccc(F)cc7F)cc6)c(C(N)=O)c5N)C4)C3)ccc2CC1C(=O)NC1CCCc2ccccc21)C(C)(C)C

> <Shape>
0.293

> <Color>
0.073

> <Negative vol penalty>
0.000

$$$$

  -OEChem-04052322193D

 85 94  0     1  0  0  0  0  0999 V2000
  -25.7198  -38.1887   19.6186 C   0  0  0  0  0  0  0  0  0  0  0  0
  -25.9609  -37.0508   18.8553 C   0  0  0  0  0  0  0  0  0  0  0  0
  -24.6241   -9.2617   21.9720 C   0  0  0  0  0  0  0  0  0  0  0  0
  -23.3843   -9.7014   19.9455 C   0  0  0  0  0  0  0  0  0  0  0  0
  -25.8579  -38.1388   21.0050 C   0  0  0  0  0  0  0  0  0  0  0  0
  -26.3414  -35.8626   19.4780 C   0  0  0  0  0  0  0  0  0  0  0  0
  -25.6779  -28.7593   18.8309 C   0  0  0  0  0  0  0  0  0  0  0  0
  -23.4887   -8.6857   22.5417 C   0  0  0  0  0  0  0  0  0  0  0  0
  -22.2488   -9.1253   20.5152 C   0  0  0  0  0  0  0  0  0  0  0  0
  -26.4573  -27.6040   18.7904 C   0  0  0  0  0  0  0  0  0  0  0  0
  -21.8411   -5.7376   22.3759 C   0  0  0  0  0  0  0  0  0  0  0  0
  -21.9988   -4.5306   23.0569 C   0  0  0  0  0  0  0  0  0  0  0  0
  -26.5874  -27.6147   21.1992 C   0  0  0  0  0  0  0  0  0  0  0  0
  -21.1738   -5.5636   25.0790 C   0  0  0  0  0  0  0  0  0  0  0  0
  -30.3074  -21.8769   19.1063 C   0  0  0  0  0  0  0  0  0  0  0  0
  -24.5719   -9.7696   20.6739 C   0  0  0  0  0  0  0  0  0  0  0  0
  -26.7418   -9.7156   19.3336 C   0  0  0  0  0  0  0  0  0  0  0  0
  -26.2309  -36.9468   21.6460 C   0  0  0  0  0  0  0  0  0  0  0  0
  -25.3560  -29.3581   20.0573 C   0  0  0  0  0  0  0  0  0  0  0  0
  -26.4859  -35.7971   20.8743 C   0  0  0  0  0  0  0  0  0  0  0  0
  -25.8016  -28.7761   21.2526 C   0  0  0  0  0  0  0  0  0  0  0  0
  -28.1980  -22.8618   18.6194 C   0  0  0  0  0  0  0  0  0  0  0  0
  -28.7734  -24.1136   18.8068 C   0  0  0  0  0  0  0  0  0  0  0  0
  -28.9728  -21.7171   18.7701 C   0  0  0  0  0  0  0  0  0  0  0  0
  -22.3011   -8.6174   21.8133 C   0  0  0  0  0  0  0  0  0  0  0  0
  -26.9146  -27.0331   19.9745 C   0  0  0  0  0  0  0  0  0  0  0  0
  -21.3498   -6.8577   23.0465 C   0  0  0  0  0  0  0  0  0  0  0  0
  -21.6651   -4.4435   24.4084 C   0  0  0  0  0  0  0  0  0  0  0  0
  -21.0161   -6.7707   24.3980 C   0  0  0  0  0  0  0  0  0  0  0  0
  -25.7443  -10.3653   20.0850 C   0  0  0  0  0  0  0  0  0  0  0  0
  -30.1169  -24.1662   19.1416 C   0  0  0  0  0  0  0  0  0  0  0  0
  -27.6287  -10.7119   19.0061 C   0  0  0  0  0  0  0  0  0  0  0  0
  -26.8563   -8.3349   18.9644 C   0  0  0  0  0  0  0  0  0  0  0  0
  -25.9416  -32.1801   21.3979 C   0  0  0  0  0  0  0  0  0  0  0  0
  -23.9571  -31.0583   23.7056 C   0  0  0  0  0  0  0  0  0  0  0  0
  -22.5700  -28.3643   25.2757 C   0  0  0  0  0  0  0  0  0  0  0  0
  -27.1453  -16.4232   18.2480 C   0  0  0  0  0  0  0  0  0  0  0  0
  -26.4133  -36.9539   23.1431 C   0  0  0  0  0  0  0  0  0  0  0  0
  -24.4920  -30.5890   20.0853 C   0  0  0  0  0  0  0  0  0  0  0  0
  -25.4668  -29.3685   22.5962 C   0  0  0  0  0  0  0  0  0  0  0  0
  -26.4560  -35.5574   23.7581 C   0  0  0  0  0  0  0  0  0  0  0  0
  -29.3043  -14.9062   20.5667 C   0  0  0  0  0  0  0  0  0  0  0  0
  -27.3800  -34.6481   22.9543 C   0  0  0  0  0  0  0  0  0  0  0  0
  -28.7296  -13.4917   20.6366 C   0  0  0  0  0  0  0  0  0  0  0  0
  -28.2058  -15.9686   20.5039 C   0  0  0  0  0  0  0  0  0  0  0  0
  -29.0016  -19.5586   17.5584 C   0  0  0  0  0  0  0  0  0  0  0  0
  -27.8417  -19.7753   19.7615 C   0  0  0  0  0  0  0  0  0  0  0  0
  -28.0137  -18.4630   17.1668 C   0  0  0  0  0  0  0  0  0  0  0  0
  -26.8677  -18.6860   19.3263 C   0  0  0  0  0  0  0  0  0  0  0  0
  -26.6476  -14.3377   19.4889 C   0  0  0  0  0  0  0  0  0  0  0  0
  -26.8764  -34.4830   21.5153 C   0  0  1  0  0  0  0  0  0  0  0  0
  -24.6551  -31.4046   21.3642 C   0  0  1  0  0  0  0  0  0  0  0  0
  -27.7283  -13.2453   19.4941 C   0  0  2  0  0  0  0  0  0  0  0  0
  -26.7509  -22.7486   18.2574 C   0  0  0  0  0  0  0  0  0  0  0  0
  -30.7901  -25.4824   19.3559 C   0  0  0  0  0  0  0  0  0  0  0  0
  -21.0149  -27.7625   27.1510 C   0  0  0  0  0  0  0  0  0  0  0  0
  -26.1532  -31.6919   25.7269 C   0  0  0  0  0  0  0  0  0  0  0  0
  -24.9609  -30.2325   27.3751 C   0  0  0  0  0  0  0  0  0  0  0  0
  -23.8412  -32.2747   26.4815 C   0  0  0  0  0  0  0  0  0  0  0  0
  -20.6831  -27.0200   23.4341 C   0  0  0  0  0  0  0  0  0  0  0  0
  -27.9687  -25.3606   18.6527 C   0  0  0  0  0  0  0  0  0  1  0  0
  -24.1368  -30.2644   24.9770 C   0  0  1  0  0  0  0  0  0  0  0  0
  -21.1357  -28.0525   25.6630 C   0  0  2  0  0  0  0  0  0  0  0  0
  -24.7811  -31.1056   26.1149 C   0  0  0  0  0  0  0  0  0  0  0  0
  -30.9015  -23.0762   19.2966 N   0  0  0  0  0  0  0  0  0  0  0  0
  -25.9754  -11.6732   20.2269 N   0  0  0  0  0  0  0  0  0  0  0  0
  -27.1282  -11.8533   19.5601 N   0  0  0  0  0  0  0  0  0  0  0  0
  -28.4389  -20.4344   18.5919 N   0  0  0  0  0  0  0  0  0  0  0  0
  -24.6245  -30.5757   22.5709 N   0  0  0  0  0  0  0  0  0  0  0  0
  -27.2532  -15.6695   19.4263 N   0  0  0  0  0  0  0  0  0  0  0  0
  -27.4645  -17.7873   18.3361 N   0  0  0  0  0  0  0  0  0  0  0  0
  -28.7800  -10.7142   18.3013 N   0  0  0  0  0  0  0  0  0  0  0  0
  -25.8571   -7.4461   19.3838 N   0  0  0  0  0  0  0  0  0  0  0  0
  -25.7714  -33.5495   21.4705 N   0  0  0  0  0  0  0  0  0  0  0  0
  -22.8244  -29.7192   25.3067 N   0  0  0  0  0  0  0  0  0  0  0  0
  -20.6428  -26.8641   24.9110 N   0  3  0  0  0  0  0  0  0  0  0  0
  -27.8248   -7.8992   18.2968 O   0  0  0  0  0  0  0  0  0  0  0  0
  -27.0097  -31.5804   21.3622 O   0  0  0  0  0  0  0  0  0  0  0  0
  -23.2449  -32.0655   23.7171 O   0  0  0  0  0  0  0  0  0  0  0  0
  -23.3844  -27.4929   24.9791 O   0  0  0  0  0  0  0  0  0  0  0  0
  -26.7886  -15.9101   17.1802 O   0  0  0  0  0  0  0  0  0  0  0  0
  -21.1930   -8.0552   22.3688 O   0  0  0  0  0  0  0  0  0  0  0  0
  -27.6813  -25.8980   19.9376 O   0  0  0  0  0  0  0  0  0  1  0  0
  -21.8152   -3.2839   25.0618 F   0  0  0  0  0  0  0  0  0  0  0  0
  -20.5424   -7.8430   25.0473 F   0  0  0  0  0  0  0  0  0  0  0  0
  1  2  1  0  0  0  0
  1  5  2  0  0  0  0
  2  6  2  0  0  0  0
  3  8  2  0  0  0  0
  3 16  1  0  0  0  0
  4  9  1  0  0  0  0
  4 16  2  0  0  0  0
  5 18  1  0  0  0  0
  6 20  1  0  0  0  0
  7 10  2  0  0  0  0
  7 19  1  0  0  0  0
  8 25  1  0  0  0  0
  9 25  2  0  0  0  0
 10 26  1  0  0  0  0
 11 12  2  0  0  0  0
 11 27  1  0  0  0  0
 12 28  1  0  0  0  0
 13 21  1  0  0  0  0
 13 26  2  0  0  0  0
 14 28  2  0  0  0  0
 14 29  1  0  0  0  0
 15 24  2  0  0  0  0
 15 65  1  0  0  0  0
 16 30  1  0  0  0  0
 17 30  1  0  0  0  0
 17 32  2  0  0  0  0
 17 33  1  0  0  0  0
 18 20  2  0  0  0  0
 18 38  1  0  0  0  0
 19 21  2  0  0  0  0
 19 39  1  0  0  0  0
 20 51  1  0  0  0  0
 21 40  1  0  0  0  0
 22 23  2  0  0  0  0
 22 24  1  0  0  0  0
 22 54  1  0  0  0  0
 23 31  1  0  0  0  0
 23 61  1  0  0  0  0
 24 68  1  0  0  0  0
 25 82  1  0  0  0  0
 26 83  1  0  0  0  0
 27 29  2  0  0  0  0
 27 82  1  0  0  0  0
 28 84  1  0  0  0  0
 29 85  1  0  0  0  0
 30 66  2  0  0  0  0
 31 55  1  0  0  0  0
 31 65  2  0  0  0  0
 32 67  1  0  0  0  0
 32 72  1  0  0  0  0
 33 73  1  0  0  0  0
 33 77  2  0  0  0  0
 34 52  1  0  0  0  0
 34 74  1  0  0  0  0
 34 78  2  0  0  0  0
 35 62  1  0  0  0  0
 35 69  1  0  0  0  0
 35 79  2  0  0  0  0
 36 63  1  0  0  0  0
 36 75  1  0  0  0  0
 36 80  2  0  0  0  0
 37 70  1  0  0  0  0
 37 71  1  0  0  0  0
 37 81  2  0  0  0  0
 38 41  1  0  0  0  0
 39 52  1  0  0  0  0
 40 69  1  0  0  0  0
 41 43  1  0  0  0  0
 42 44  1  0  0  0  0
 42 45  1  0  0  0  0
 43 51  1  0  0  0  0
 44 53  1  0  0  0  0
 45 70  1  0  0  0  0
 46 48  1  0  0  0  0
 46 68  1  0  0  0  0
 47 49  1  0  0  0  0
 47 68  1  0  0  0  0
 48 71  1  0  0  0  0
 49 71  1  0  0  0  0
 50 53  1  0  0  0  0
 50 70  1  0  0  0  0
 51 74  1  0  0  0  0
 52 69  1  0  0  0  0
 53 67  1  0  0  0  0
 56 63  1  0  0  0  0
 57 64  1  0  0  0  0
 58 64  1  0  0  0  0
 59 64  1  0  0  0  0
 60 76  1  0  0  0  0
 61 83  1  0  0  0  0
 62 64  1  0  0  0  0
 62 75  1  0  0  0  0
 63 76  1  0  0  0  0
 66 67  1  0  0  0  0
M  CHG  1  76   1
M  ISO  4  37 100  61 101  71 100  83 101
M  END
> <Batch ID>
0164

> <Smiles>
CNC(C)C(=O)NC(C(=O)N1Cc2cc([101O:1][101CH2:1]c3c(C)ncc(N4CC[100N:0]([100C:0](=O)N5CCCC(n6nc(-c7ccc(Oc8ccc(F)cc8F)cc7)c(C(N)=O)c6N)C5)CC4)c3C)ccc2CC1C(=O)NC1CCCc2ccccc21)C(C)(C)C

> <Shape>
0.305

> <Color>
0.117

> <Negative vol penalty>
0.000

$$$$

  -OEChem-04052322193D

 90 99  0     1  0  0  0  0  0999 V2000
  -21.6991  -36.8725   17.8199 C   0  0  0  0  0  0  0  0  0  0  0  0
  -22.1039  -35.6548   17.2824 C   0  0  0  0  0  0  0  0  0  0  0  0
  -23.3164  -15.6680   24.5515 C   0  0  0  0  0  0  0  0  0  0  0  0
  -24.5387  -13.7849   25.4441 C   0  0  0  0  0  0  0  0  0  0  0  0
  -22.2983  -37.3533   18.9834 C   0  0  0  0  0  0  0  0  0  0  0  0
  -23.1090  -34.9177   17.9076 C   0  0  0  0  0  0  0  0  0  0  0  0
  -25.1514  -28.1565   19.1041 C   0  0  0  0  0  0  0  0  0  0  0  0
  -22.7335  -15.8818   25.8006 C   0  0  0  0  0  0  0  0  0  0  0  0
  -23.9559  -13.9986   26.6932 C   0  0  0  0  0  0  0  0  0  0  0  0
  -26.2638  -27.3273   18.9677 C   0  0  0  0  0  0  0  0  0  0  0  0
  -20.9972  -13.3673   28.2027 C   0  0  0  0  0  0  0  0  0  0  0  0
  -20.5077  -12.2555   28.8882 C   0  0  0  0  0  0  0  0  0  0  0  0
  -27.1721  -28.2188   21.0170 C   0  0  0  0  0  0  0  0  0  0  0  0
  -32.0482  -24.6886   18.4351 C   0  0  0  0  0  0  0  0  0  0  0  0
  -22.0246  -12.7124   30.7123 C   0  0  0  0  0  0  0  0  0  0  0  0
  -24.2189  -14.6195   24.3732 C   0  0  0  0  0  0  0  0  0  0  0  0
  -24.1589  -14.1140   21.8735 C   0  0  0  0  0  0  0  0  0  0  0  0
  -23.3045  -36.6170   19.6286 C   0  0  0  0  0  0  0  0  0  0  0  0
  -25.0459  -29.0325   20.1941 C   0  0  0  0  0  0  0  0  0  0  0  0
  -23.7231  -35.3897   19.0801 C   0  0  0  0  0  0  0  0  0  0  0  0
  -26.0561  -29.0563   21.1662 C   0  0  0  0  0  0  0  0  0  0  0  0
  -30.8824  -25.4529   18.3893 C   0  0  0  0  0  0  0  0  0  0  0  0
  -31.9856  -23.3418   18.7929 C   0  0  0  0  0  0  0  0  0  0  0  0
  -29.6539  -24.8705   18.7012 C   0  0  0  0  0  0  0  0  0  0  0  0
  -29.5913  -23.5237   19.0590 C   0  0  0  0  0  0  0  0  0  0  0  0
  -30.7572  -22.7594   19.1048 C   0  0  0  0  0  0  0  0  0  0  0  0
  -23.0533  -15.0471   26.8714 C   0  0  0  0  0  0  0  0  0  0  0  0
  -27.2757  -27.3604   19.9227 C   0  0  0  0  0  0  0  0  0  0  0  0
  -22.0005  -14.1516   28.7719 C   0  0  0  0  0  0  0  0  0  0  0  0
  -21.0213  -11.9281   30.1430 C   0  0  0  0  0  0  0  0  0  0  0  0
  -22.5141  -13.8241   30.0268 C   0  0  0  0  0  0  0  0  0  0  0  0
  -24.8209  -14.3979   23.0830 C   0  0  0  0  0  0  0  0  0  0  0  0
  -25.1682  -13.9914   20.9501 C   0  0  0  0  0  0  0  0  0  0  0  0
  -22.7568  -13.9737   21.6084 C   0  0  0  0  0  0  0  0  0  0  0  0
  -24.8704  -32.1888   20.5263 C   0  0  0  0  0  0  0  0  0  0  0  0
  -24.3873  -31.4426   23.6459 C   0  0  0  0  0  0  0  0  0  0  0  0
  -24.7949  -29.1989   26.1849 C   0  0  0  0  0  0  0  0  0  0  0  0
  -30.7381  -16.1724   20.6843 C   0  0  0  0  0  0  0  0  0  0  0  0
  -23.9557  -37.2000   20.8577 C   0  0  0  0  0  0  0  0  0  0  0  0
  -23.8269  -29.9013   20.3408 C   0  0  0  0  0  0  0  0  0  0  0  0
  -25.9812  -29.9642   22.3657 C   0  0  0  0  0  0  0  0  0  0  0  0
  -24.7522  -36.1797   21.6670 C   0  0  0  0  0  0  0  0  0  0  0  0
  -29.7731  -12.7469   20.5793 C   0  0  0  0  0  0  0  0  0  0  0  0
  -25.6365  -35.3426   20.7482 C   0  0  0  0  0  0  0  0  0  0  0  0
  -28.3347  -12.7560   21.0999 C   0  0  0  0  0  0  0  0  0  0  0  0
  -30.8291  -19.6545   21.1977 C   0  0  0  0  0  0  0  0  0  0  0  0
  -30.6410  -13.7752   21.3012 C   0  0  0  0  0  0  0  0  0  0  0  0
  -31.4383  -20.9427   20.6419 C   0  0  0  0  0  0  0  0  0  0  0  0
  -28.6679  -15.1588   21.8170 C   0  0  0  0  0  0  0  0  0  0  0  0
  -30.4871  -20.4286   18.3862 C   0  0  0  0  0  0  0  0  0  0  0  0
  -24.7928  -34.5492   19.7431 C   0  0  1  0  0  0  0  0  0  0  0  0
  -24.0675  -31.1248   21.2198 C   0  0  1  0  0  0  0  0  0  0  0  0
  -27.7403  -14.1771   21.0806 C   0  0  2  0  0  0  0  0  0  0  0  0
  -30.6796  -18.5871   20.1141 C   0  0  2  0  0  0  0  0  0  0  0  0
  -29.8630  -19.1516   18.9497 C   0  0  2  0  0  0  0  0  0  0  0  0
  -30.9768  -26.8929   18.0034 C   0  0  0  0  0  0  0  0  0  0  0  0
  -33.2515  -22.5485   18.8329 C   0  0  0  0  0  0  0  0  0  0  0  0
  -28.2710  -22.9026   19.3934 C   0  0  0  0  0  0  0  0  0  0  0  0
  -24.3283  -28.8854   28.6306 C   0  0  0  0  0  0  0  0  0  0  0  0
  -26.6856  -33.3315   24.3241 C   0  0  0  0  0  0  0  0  0  0  0  0
  -26.7947  -32.2730   26.5903 C   0  0  0  0  0  0  0  0  0  0  0  0
  -24.7278  -33.4720   25.8739 C   0  0  0  0  0  0  0  0  0  0  0  0
  -23.1035  -26.8241   25.6764 C   0  0  0  0  0  0  0  0  0  0  0  0
  -28.5715  -18.3173   16.9905 C   0  0  0  0  0  0  0  0  0  0  0  0
  -31.0510  -18.0918   17.0342 C   0  0  0  0  0  0  0  0  0  0  0  0
  -28.4017  -25.6957   18.6512 C   0  0  0  0  0  0  0  0  0  1  0  0
  -25.2796  -31.2295   24.8448 C   0  0  1  0  0  0  0  0  0  0  0  0
  -23.8213  -28.6559   27.2153 C   0  0  2  0  0  0  0  0  0  0  0  0
  -25.8746  -32.5607   25.3848 C   0  0  0  0  0  0  0  0  0  0  0  0
  -26.1482  -14.4524   22.9439 N   0  0  0  0  0  0  0  0  0  0  0  0
  -26.3283  -14.2009   21.6361 N   0  0  0  0  0  0  0  0  0  0  0  0
  -30.6964  -21.4071   19.4643 N   0  0  2  0  0  0  0  0  0  0  0  0
  -24.7724  -30.7991   22.4613 N   0  0  0  0  0  0  0  0  0  0  0  0
  -30.0221  -15.1018   21.2447 N   0  0  0  0  0  0  0  0  0  0  0  0
  -25.1677  -13.7259   19.6266 N   0  0  0  0  0  0  0  0  0  0  0  0
  -22.1784  -12.7026   21.7269 N   0  0  0  0  0  0  0  0  0  0  0  0
  -24.2044  -33.3907   20.3803 N   0  0  0  0  0  0  0  0  0  0  0  0
  -24.4840  -30.4917   25.8199 N   0  0  0  0  0  0  0  0  0  0  0  0
  -30.0760  -17.3938   20.6642 N   0  0  0  0  0  0  0  0  0  0  0  0
  -23.6223  -27.1920   27.0189 N   0  3  0  0  0  0  0  0  0  0  0  0
  -29.7905  -18.1398   17.8585 N   0  3  0  0  0  0  0  0  0  0  0  0
  -22.0416  -14.9436   21.2603 O   0  0  0  0  0  0  0  0  0  0  0  0
  -26.0103  -31.9384   20.1527 O   0  0  0  0  0  0  0  0  0  0  0  0
  -23.3816  -32.1480   23.7584 O   0  0  0  0  0  0  0  0  0  0  0  0
  -25.7392  -28.5432   25.7502 O   0  0  0  0  0  0  0  0  0  0  0  0
  -31.8806  -16.0478   20.2304 O   0  0  0  0  0  0  0  0  0  0  0  0
  -22.4849  -15.2555   28.0905 O   0  0  0  0  0  0  0  0  0  0  0  0
  -28.3629  -26.5525   19.7916 O   0  0  0  0  0  0  0  0  0  1  0  0
  -20.5501  -10.8613   30.8019 F   0  0  0  0  0  0  0  0  0  0  0  0
  -23.4772  -14.5745   30.5793 F   0  0  0  0  0  0  0  0  0  0  0  0
  1  2  1  0  0  0  0
  1  5  2  0  0  0  0
  2  6  2  0  0  0  0
  3  8  2  0  0  0  0
  3 16  1  0  0  0  0
  4  9  1  0  0  0  0
  4 16  2  0  0  0  0
  5 18  1  0  0  0  0
  6 20  1  0  0  0  0
  7 10  2  0  0  0  0
  7 19  1  0  0  0  0
  8 27  1  0  0  0  0
  9 27  2  0  0  0  0
 10 28  1  0  0  0  0
 11 12  2  0  0  0  0
 11 29  1  0  0  0  0
 12 30  1  0  0  0  0
 13 21  1  0  0  0  0
 13 28  2  0  0  0  0
 14 22  2  0  0  0  0
 14 23  1  0  0  0  0
 15 30  2  0  0  0  0
 15 31  1  0  0  0  0
 16 32  1  0  0  0  0
 17 32  1  0  0  0  0
 17 33  2  0  0  0  0
 17 34  1  0  0  0  0
 18 20  2  0  0  0  0
 18 39  1  0  0  0  0
 19 21  2  0  0  0  0
 19 40  1  0  0  0  0
 20 51  1  0  0  0  0
 21 41  1  0  0  0  0
 22 24  1  0  0  0  0
 22 56  1  0  0  0  0
 23 26  2  0  0  0  0
 23 57  1  0  0  0  0
 24 25  2  0  0  0  0
 24 66  1  0  0  0  0
 25 26  1  0  0  0  0
 25 58  1  0  0  0  0
 26 72  1  0  0  0  0
 27 87  1  0  0  0  0
 28 88  1  0  0  0  0
 29 31  2  0  0  0  0
 29 87  1  0  0  0  0
 30 89  1  0  0  0  0
 31 90  1  0  0  0  0
 32 70  2  0  0  0  0
 33 71  1  0  0  0  0
 33 75  1  0  0  0  0
 34 76  1  0  0  0  0
 34 82  2  0  0  0  0
 35 52  1  0  0  0  0
 35 77  1  0  0  0  0
 35 83  2  0  0  0  0
 36 67  1  0  0  0  0
 36 73  1  0  0  0  0
 36 84  2  0  0  0  0
 37 68  1  0  0  0  0
 37 78  1  0  0  0  0
 37 85  2  0  0  0  0
 38 74  1  0  0  0  0
 38 79  1  0  0  0  0
 38 86  2  0  0  0  0
 39 42  1  0  0  0  0
 40 52  1  0  0  0  0
 41 73  1  0  0  0  0
 42 44  1  0  0  0  0
 43 45  1  0  0  0  0
 43 47  1  0  0  0  0
 44 51  1  0  0  0  0
 45 53  1  0  0  0  0
 46 48  1  0  0  0  0
 46 54  1  0  0  0  0
 47 74  1  0  0  0  0
 48 72  1  0  0  0  0
 49 53  1  0  0  0  0
 49 74  1  0  0  0  0
 50 55  1  0  0  0  0
 50 72  1  0  0  0  0
 51 77  1  0  0  0  0
 52 73  1  0  0  0  0
 53 71  1  0  0  0  0
 54 55  1  0  0  0  0
 54 79  1  0  0  0  0
 55 81  1  0  0  0  0
 59 68  1  0  0  0  0
 60 69  1  0  0  0  0
 61 69  1  0  0  0  0
 62 69  1  0  0  0  0
 63 80  1  0  0  0  0
 64 81  1  0  0  0  0
 65 81  1  0  0  0  0
 66 88  1  0  0  0  0
 67 69  1  0  0  0  0
 67 78  1  0  0  0  0
 68 80  1  0  0  0  0
 70 71  1  0  0  0  0
M  CHG  2  80   1  81   1
M  ISO  4  38 100  66 101  79 100  88 101
M  END
> <Batch ID>
0164

> <Smiles>
CNC(C)C(=O)NC(C(=O)N1Cc2cc([101O:1][101CH2:1]c3c(C)cc(C)c(N4CCC([100NH:0][100C:0](=O)N5CCCC(n6nc(-c7ccc(Oc8ccc(F)cc8F)cc7)c(C(N)=O)c6N)C5)C(N(C)C)C4)c3C)ccc2CC1C(=O)NC1CCCc2ccccc21)C(C)(C)C

> <Shape>
0.250

> <Color>
0.108

> <Negative vol penalty>
0.000

$$$$

  -OEChem-04052322193D

 87 96  0     1  0  0  0  0  0999 V2000
  -24.2092   -6.4856   24.1850 C   0  0  0  0  0  0  0  0  0  0  0  0
  -25.3695   -7.2293   23.9953 C   0  0  0  0  0  0  0  0  0  0  0  0
  -23.0219  -26.9034   20.9945 C   0  0  0  0  0  0  0  0  0  0  0  0
  -23.4968  -28.6624   22.5811 C   0  0  0  0  0  0  0  0  0  0  0  0
  -23.1079   -6.6901   23.3549 C   0  0  0  0  0  0  0  0  0  0  0  0
  -25.4295   -8.1774   22.9745 C   0  0  0  0  0  0  0  0  0  0  0  0
  -28.4144  -13.5237   23.0863 C   0  0  0  0  0  0  0  0  0  0  0  0
  -21.8825  -26.5563   21.7203 C   0  0  0  0  0  0  0  0  0  0  0  0
  -22.3574  -28.3153   23.3069 C   0  0  0  0  0  0  0  0  0  0  0  0
  -29.6548  -13.9161   22.5851 C   0  0  0  0  0  0  0  0  0  0  0  0
  -21.1512  -24.8302   24.5327 C   0  0  0  0  0  0  0  0  0  0  0  0
  -20.9249  -23.4751   24.7736 C   0  0  0  0  0  0  0  0  0  0  0  0
  -28.5775  -14.7666   20.6014 C   0  0  0  0  0  0  0  0  0  0  0  0
  -31.7133  -19.8813   21.0732 C   0  0  0  0  0  0  0  0  0  0  0  0
  -31.5078  -17.5540   19.5487 C   0  0  0  0  0  0  0  0  0  0  0  0
  -18.8199  -23.6173   23.5963 C   0  0  0  0  0  0  0  0  0  0  0  0
  -23.8291  -27.9564   21.4249 C   0  0  0  0  0  0  0  0  0  0  0  0
  -25.0932  -29.2434   19.6211 C   0  0  0  0  0  0  0  0  0  0  0  0
  -23.1510   -7.6480   22.3296 C   0  0  0  0  0  0  0  0  0  0  0  0
  -27.2454  -13.7404   22.3427 C   0  0  0  0  0  0  0  0  0  0  0  0
  -24.3281   -8.3940   22.1290 C   0  0  0  0  0  0  0  0  0  0  0  0
  -27.3232  -14.3783   21.0965 C   0  0  0  0  0  0  0  0  0  0  0  0
  -30.9772  -19.8864   19.8884 C   0  0  0  0  0  0  0  0  0  0  0  0
  -30.8744  -18.7227   19.1261 C   0  0  0  0  0  0  0  0  0  0  0  0
  -32.2440  -17.5489   20.7335 C   0  0  0  0  0  0  0  0  0  0  0  0
  -21.5502  -27.2623   22.8765 C   0  0  0  0  0  0  0  0  0  0  0  0
  -29.7369  -14.5350   21.3412 C   0  0  0  0  0  0  0  0  0  0  0  0
  -20.2118  -25.5790   23.8238 C   0  0  0  0  0  0  0  0  0  0  0  0
  -32.3467  -18.7125   21.4957 C   0  0  0  0  0  0  0  0  0  0  0  0
  -19.7593  -22.8686   24.3053 C   0  0  0  0  0  0  0  0  0  0  0  0
  -19.0462  -24.9725   23.3555 C   0  0  0  0  0  0  0  0  0  0  0  0
  -25.0066  -28.3150   20.6759 C   0  0  0  0  0  0  0  0  0  0  0  0
  -26.4158  -29.2208   19.2515 C   0  0  0  0  0  0  0  0  0  0  0  0
  -24.0696  -30.0537   19.0285 C   0  0  0  0  0  0  0  0  0  0  0  0
  -25.0190  -11.8648   21.0664 C   0  0  0  0  0  0  0  0  0  0  0  0
  -23.5763  -14.6918   20.3958 C   0  0  0  0  0  0  0  0  0  0  0  0
  -23.8866  -18.0487   19.8655 C   0  0  0  0  0  0  0  0  0  0  0  0
  -30.7217  -25.2474   19.5942 C   0  0  0  0  0  0  0  0  0  0  0  0
  -21.9519   -7.8003   21.4276 C   0  0  0  0  0  0  0  0  0  0  0  0
  -25.9122  -13.3353   22.9092 C   0  0  0  0  0  0  0  0  0  0  0  0
  -26.0958  -14.6521   20.2677 C   0  0  0  0  0  0  0  0  0  0  0  0
  -21.9662   -9.0878   20.6075 C   0  0  0  0  0  0  0  0  0  0  0  0
  -30.7875  -28.4061   20.9964 C   0  0  0  0  0  0  0  0  0  0  0  0
  -23.3376   -9.3027   19.9752 C   0  0  0  0  0  0  0  0  0  0  0  0
  -29.3232  -28.8442   20.9741 C   0  0  0  0  0  0  0  0  0  0  0  0
  -29.8374  -22.0185   20.6478 C   0  0  0  0  0  0  0  0  0  0  0  0
  -31.1882  -22.0004   18.5065 C   0  0  0  0  0  0  0  0  0  0  0  0
  -30.9122  -26.9394   21.3919 C   0  0  0  0  0  0  0  0  0  0  0  0
  -29.1822  -23.3273   20.1974 C   0  0  0  0  0  0  0  0  0  0  0  0
  -30.4846  -23.2908   18.0962 C   0  0  0  0  0  0  0  0  0  0  0  0
  -28.6665  -26.4356   20.4858 C   0  0  0  0  0  0  0  0  0  0  0  0
  -30.2982  -21.1699   19.4490 C   0  0  0  0  0  0  0  0  0  0  0  0
  -24.4231   -9.4492   21.0484 C   0  0  1  0  0  0  0  0  0  0  0  0
  -24.8424  -13.1414   21.8390 C   0  0  1  0  0  0  0  0  0  0  0  0
  -28.4810  -27.9131   20.0841 C   0  0  1  0  0  0  0  0  0  0  0  0
  -30.0913  -18.7044   17.8546 C   0  0  0  0  0  0  0  0  0  0  0  0
  -22.5360  -20.0870   19.3010 C   0  0  0  0  0  0  0  0  0  0  0  0
  -23.4152  -13.7770   17.4894 C   0  0  0  0  0  0  0  0  0  0  0  0
  -22.9582  -16.1515   16.8403 C   0  0  0  0  0  0  0  0  0  0  0  0
  -21.3678  -14.9399   18.3321 C   0  0  0  0  0  0  0  0  0  0  0  0
  -24.6185  -19.3796   22.4056 C   0  0  0  0  0  0  0  0  0  0  0  0
  -33.1135  -19.9569   23.3717 C   0  0  0  0  0  0  0  0  0  0  0  0
  -32.9164  -16.2892   21.1700 C   0  0  0  0  0  0  0  0  0  0  0  0
  -31.9479  -15.2829   21.7972 C   0  0  0  0  0  0  0  0  0  1  0  0
  -23.6133  -15.6634   19.2410 C   0  0  1  0  0  0  0  0  0  0  0  0
  -23.1124  -19.2317   20.4185 C   0  0  2  0  0  0  0  0  0  0  0  0
  -22.8621  -15.1262   17.9902 C   0  0  0  0  0  0  0  0  0  0  0  0
  -26.1807  -27.7442   20.9580 N   0  0  0  0  0  0  0  0  0  0  0  0
  -27.0176  -28.3153   20.0751 N   0  0  0  0  0  0  0  0  0  0  0  0
  -24.8160  -14.2317   20.8620 N   0  0  0  0  0  0  0  0  0  0  0  0
  -30.0956  -26.0887   20.5262 N   0  0  0  0  0  0  0  0  0  0  0  0
  -30.0590  -24.0543   19.2690 N   0  0  0  0  0  0  0  0  0  0  0  0
  -27.1112  -29.8873   18.3056 N   0  0  0  0  0  0  0  0  0  0  0  0
  -22.7644  -29.9534   19.5293 N   0  0  0  0  0  0  0  0  0  0  0  0
  -24.3841  -10.7741   21.6292 N   0  0  0  0  0  0  0  0  0  0  0  0
  -23.0933  -16.9265   19.7536 N   0  0  0  0  0  0  0  0  0  0  0  0
  -24.0012  -20.0873   21.2545 N   0  3  0  0  0  0  0  0  0  0  0  0
  -24.3021  -30.8313   18.0720 O   0  0  0  0  0  0  0  0  0  0  0  0
  -25.6809  -11.8694   20.0351 O   0  0  0  0  0  0  0  0  0  0  0  0
  -22.4880  -14.3589   20.8715 O   0  0  0  0  0  0  0  0  0  0  0  0
  -25.0751  -18.1148   19.5597 O   0  0  0  0  0  0  0  0  0  0  0  0
  -31.8081  -25.5444   19.0818 O   0  0  0  0  0  0  0  0  0  0  0  0
  -20.4382  -26.9240   23.5848 O   0  0  0  0  0  0  0  0  0  0  0  0
  -33.0612  -18.7246   22.6558 O   0  0  0  0  0  0  0  0  0  0  0  0
  -30.9549  -14.9211   20.8459 O   0  0  0  0  0  0  0  0  0  1  0  0
  -19.5429  -21.5669   24.5353 F   0  0  0  0  0  0  0  0  0  0  0  0
  -18.1406  -25.6864   22.6728 F   0  0  0  0  0  0  0  0  0  0  0  0
  1  2  1  0  0  0  0
  1  5  2  0  0  0  0
  2  6  2  0  0  0  0
  3  8  2  0  0  0  0
  3 17  1  0  0  0  0
  4  9  1  0  0  0  0
  4 17  2  0  0  0  0
  5 19  1  0  0  0  0
  6 21  1  0  0  0  0
  7 10  2  0  0  0  0
  7 20  1  0  0  0  0
  8 26  1  0  0  0  0
  9 26  2  0  0  0  0
 10 27  1  0  0  0  0
 11 12  2  0  0  0  0
 11 28  1  0  0  0  0
 12 30  1  0  0  0  0
 13 22  1  0  0  0  0
 13 27  2  0  0  0  0
 14 23  2  0  0  0  0
 14 29  1  0  0  0  0
 15 24  2  0  0  0  0
 15 25  1  0  0  0  0
 16 30  2  0  0  0  0
 16 31  1  0  0  0  0
 17 32  1  0  0  0  0
 18 32  1  0  0  0  0
 18 33  2  0  0  0  0
 18 34  1  0  0  0  0
 19 21  2  0  0  0  0
 19 39  1  0  0  0  0
 20 22  2  0  0  0  0
 20 40  1  0  0  0  0
 21 53  1  0  0  0  0
 22 41  1  0  0  0  0
 23 24  1  0  0  0  0
 23 52  1  0  0  0  0
 24 56  1  0  0  0  0
 25 29  2  0  0  0  0
 25 63  1  0  0  0  0
 26 83  1  0  0  0  0
 27 85  1  0  0  0  0
 28 31  2  0  0  0  0
 28 83  1  0  0  0  0
 29 84  1  0  0  0  0
 30 86  1  0  0  0  0
 31 87  1  0  0  0  0
 32 68  2  0  0  0  0
 33 69  1  0  0  0  0
 33 73  1  0  0  0  0
 34 74  1  0  0  0  0
 34 78  2  0  0  0  0
 35 54  1  0  0  0  0
 35 75  1  0  0  0  0
 35 79  2  0  0  0  0
 36 65  1  0  0  0  0
 36 70  1  0  0  0  0
 36 80  2  0  0  0  0
 37 66  1  0  0  0  0
 37 76  1  0  0  0  0
 37 81  2  0  0  0  0
 38 71  1  0  0  0  0
 38 72  1  0  0  0  0
 38 82  2  0  0  0  0
 39 42  1  0  0  0  0
 40 54  1  0  0  0  0
 41 70  1  0  0  0  0
 42 44  1  0  0  0  0
 43 45  1  0  0  0  0
 43 48  1  0  0  0  0
 44 53  1  0  0  0  0
 45 55  1  0  0  0  0
 46 49  1  0  0  0  0
 46 52  1  0  0  0  0
 47 50  1  0  0  0  0
 47 52  1  0  0  0  0
 48 71  1  0  0  0  0
 49 72  1  0  0  0  0
 50 72  1  0  0  0  0
 51 55  1  0  0  0  0
 51 71  1  0  0  0  0
 53 75  1  0  0  0  0
 54 70  1  0  0  0  0
 55 69  1  0  0  0  0
 57 66  1  0  0  0  0
 58 67  1  0  0  0  0
 59 67  1  0  0  0  0
 60 67  1  0  0  0  0
 61 77  1  0  0  0  0
 62 84  1  0  0  0  0
 63 64  1  0  0  0  0
 64 85  1  0  0  0  0
 65 67  1  0  0  0  0
 65 76  1  0  0  0  0
 66 77  1  0  0  0  0
 68 69  1  0  0  0  0
M  CHG  1  77   1
M  ISO  4  38 100  64 101  72 100  85 101
M  END
> <Batch ID>
0164

> <Smiles>
CNC(C)C(=O)NC(C(=O)N1Cc2cc([101O:1][101CH2:1]Cc3cc(C)c(C4CC[100N:0]([100C:0](=O)N5CCCC(n6nc(-c7ccc(Oc8ccc(F)cc8F)cc7)c(C(N)=O)c6N)C5)CC4)cc3OC)ccc2CC1C(=O)NC1CCCc2ccccc21)C(C)(C)C

> <Shape>
0.259

> <Color>
0.073

> <Negative vol penalty>
0.000

$$$$

  -OEChem-04052322193D

 87 96  0     1  0  0  0  0  0999 V2000
  -26.6450  -11.2448   20.9526 C   0  0  0  0  0  0  0  0  0  0  0  0
  -26.2716  -12.4212   20.3107 C   0  0  0  0  0  0  0  0  0  0  0  0
  -23.9756  -30.3206   20.9184 C   0  0  0  0  0  0  0  0  0  0  0  0
  -25.6745  -29.7143   22.5256 C   0  0  0  0  0  0  0  0  0  0  0  0
  -25.6837  -10.4703   21.6006 C   0  0  0  0  0  0  0  0  0  0  0  0
  -24.9364  -12.8233   20.3156 C   0  0  0  0  0  0  0  0  0  0  0  0
  -25.7065  -15.5916   24.3466 C   0  0  0  0  0  0  0  0  0  0  0  0
  -23.3980  -31.1800   21.8530 C   0  0  0  0  0  0  0  0  0  0  0  0
  -25.0970  -30.5737   23.4602 C   0  0  0  0  0  0  0  0  0  0  0  0
  -27.0402  -15.9589   24.1726 C   0  0  0  0  0  0  0  0  0  0  0  0
  -24.2808  -32.8798   26.1498 C   0  0  0  0  0  0  0  0  0  0  0  0
  -25.1305  -33.7117   26.8789 C   0  0  0  0  0  0  0  0  0  0  0  0
  -26.3909  -17.4496   22.3907 C   0  0  0  0  0  0  0  0  0  0  0  0
  -25.8990  -34.7265   24.8255 C   0  0  0  0  0  0  0  0  0  0  0  0
  -25.1138  -29.5877   21.2547 C   0  0  0  0  0  0  0  0  0  0  0  0
  -26.7112  -29.0130   19.3506 C   0  0  0  0  0  0  0  0  0  0  0  0
  -24.3376  -10.8680   21.6217 C   0  0  0  0  0  0  0  0  0  0  0  0
  -24.7047  -16.1434   23.5353 C   0  0  0  0  0  0  0  0  0  0  0  0
  -23.9560  -12.0526   20.9634 C   0  0  0  0  0  0  0  0  0  0  0  0
  -25.0450  -17.0896   22.5581 C   0  0  0  0  0  0  0  0  0  0  0  0
  -30.1161  -14.9585   18.9954 C   0  0  0  0  0  0  0  0  0  0  0  0
  -30.4833  -15.0373   20.3342 C   0  0  0  0  0  0  0  0  0  0  0  0
  -29.7676  -16.1150   18.3067 C   0  0  0  0  0  0  0  0  0  0  0  0
  -23.9587  -31.3065   23.1239 C   0  0  0  0  0  0  0  0  0  0  0  0
  -27.3829  -16.8858   23.1927 C   0  0  0  0  0  0  0  0  0  0  0  0
  -24.2402  -32.9712   24.7585 C   0  0  0  0  0  0  0  0  0  0  0  0
  -25.9395  -34.6350   26.2168 C   0  0  0  0  0  0  0  0  0  0  0  0
  -25.0493  -33.8946   24.0964 C   0  0  0  0  0  0  0  0  0  0  0  0
  -25.7105  -28.6995   20.2898 C   0  0  0  0  0  0  0  0  0  0  0  0
  -30.4860  -16.2865   20.9335 C   0  0  0  0  0  0  0  0  0  0  0  0
  -29.8021  -17.3160   18.9969 C   0  0  0  0  0  0  0  0  0  0  0  0
  -26.9302  -27.8364   18.6766 C   0  0  0  0  0  0  0  0  0  0  0  0
  -27.3828  -30.2565   19.1091 C   0  0  0  0  0  0  0  0  0  0  0  0
  -22.6113  -14.9745   21.4484 C   0  0  0  0  0  0  0  0  0  0  0  0
  -21.5111  -18.0260   21.4342 C   0  0  0  0  0  0  0  0  0  0  0  0
  -22.1446  -21.3367   21.9681 C   0  0  0  0  0  0  0  0  0  0  0  0
  -27.7979  -22.4411   18.6876 C   0  0  0  0  0  0  0  0  0  0  0  0
  -23.3268   -9.9736   22.2948 C   0  0  0  0  0  0  0  0  0  0  0  0
  -23.2675  -15.7568   23.7534 C   0  0  0  0  0  0  0  0  0  0  0  0
  -24.0047  -17.7266   21.6746 C   0  0  0  0  0  0  0  0  0  0  0  0
  -21.9937  -10.6629   22.5735 C   0  0  0  0  0  0  0  0  0  0  0  0
  -24.3365  -23.4939   18.7006 C   0  0  0  0  0  0  0  0  0  0  0  0
  -21.5235  -11.4331   21.3437 C   0  0  0  0  0  0  0  0  0  0  0  0
  -24.4736  -24.9792   19.0392 C   0  0  0  0  0  0  0  0  0  0  0  0
  -25.3571  -22.6550   19.4646 C   0  0  0  0  0  0  0  0  0  0  0  0
  -26.9104  -24.5616   19.6078 C   0  0  0  0  0  0  0  0  0  0  0  0
  -28.2019  -18.7550   17.6931 C   0  0  0  0  0  0  0  0  0  0  0  0
  -29.6859  -19.8160   18.7379 C   0  0  0  0  0  0  0  0  0  0  0  0
  -22.5216  -12.5349   20.9678 C   0  0  1  0  0  0  0  0  0  0  0  0
  -22.3916  -15.9966   22.5276 C   0  0  1  0  0  0  0  0  0  0  0  0
  -25.9223  -25.4654   18.8485 C   0  0  2  0  0  0  0  0  0  0  0  0
  -28.5797  -20.2414   17.7620 C   0  0  0  0  0  0  0  0  0  0  0  0
  -30.0974  -13.6347   18.3000 C   0  0  0  0  0  0  0  0  0  0  0  0
  -30.8632  -13.8143   21.0998 C   0  0  0  0  0  0  0  0  0  0  0  0
  -29.3693  -16.0529   16.8689 C   0  0  0  0  0  0  0  0  0  0  0  0
  -31.5737  -17.7780   22.6434 C   0  0  0  0  0  0  0  0  0  0  0  0
  -21.0607  -23.5961   21.8355 C   0  0  0  0  0  0  0  0  0  0  0  0
  -21.7998  -17.9835   18.3970 C   0  0  0  0  0  0  0  0  0  0  0  0
  -21.6318  -20.4815   18.4158 C   0  0  0  0  0  0  0  0  0  0  0  0
  -19.7228  -19.0986   19.2320 C   0  0  0  0  0  0  0  0  0  0  0  0
  -22.5099  -21.8105   24.8666 C   0  0  0  0  0  0  0  0  0  0  0  0
  -29.6751  -16.2677   23.3329 C   0  0  0  0  0  0  0  0  0  1  0  0
  -30.8781  -16.4367   22.3950 C   0  0  1  0  0  0  0  0  0  0  0  0
  -21.8186  -19.2697   20.6356 C   0  0  1  0  0  0  0  0  0  0  0  0
  -21.3702  -22.4013   22.7240 C   0  0  2  0  0  0  0  0  0  0  0  0
  -21.2633  -19.1951   19.1853 C   0  0  0  0  0  0  0  0  0  0  0  0
  -25.3207  -27.4238   20.2215 N   0  0  0  0  0  0  0  0  0  0  0  0
  -30.1536  -17.4320   20.2971 N   0  0  0  0  0  0  0  0  0  0  0  0
  -26.0802  -26.9253   19.2312 N   0  0  0  0  0  0  0  0  0  0  0  0
  -29.4454  -18.4988   18.3022 N   0  0  0  0  0  0  0  0  0  0  0  0
  -22.6141  -17.3113   21.9224 N   0  0  0  0  0  0  0  0  0  0  0  0
  -26.7172  -23.1585   19.2248 N   0  0  0  0  0  0  0  0  0  0  0  0
  -27.7649  -27.5027   17.6694 N   0  0  0  0  0  0  0  0  0  0  0  0
  -27.0367  -31.3659   19.8924 N   0  0  0  0  0  0  0  0  0  0  0  0
  -22.3727  -13.6736   21.8485 N   0  0  0  0  0  0  0  0  0  0  0  0
  -21.3066  -20.3920   21.4145 N   0  0  0  0  0  0  0  0  0  0  0  0
  -27.5423  -21.1178   18.3441 N   0  0  0  0  0  0  0  0  0  0  0  0
  -22.1559  -22.8788   23.8968 N   0  3  0  0  0  0  0  0  0  0  0  0
  -28.2522  -30.3842   18.2138 O   0  0  0  0  0  0  0  0  0  0  0  0
  -22.9692  -15.3393   20.3346 O   0  0  0  0  0  0  0  0  0  0  0  0
  -20.3354  -17.7047   21.6242 O   0  0  0  0  0  0  0  0  0  0  0  0
  -23.3700  -21.3446   21.8748 O   0  0  0  0  0  0  0  0  0  0  0  0
  -28.9156  -22.9405   18.5172 O   0  0  0  0  0  0  0  0  0  0  0  0
  -23.3956  -32.1452   24.0361 O   0  0  0  0  0  0  0  0  0  0  0  0
  -28.6840  -17.2456   23.0203 O   0  0  0  0  0  0  0  0  0  1  0  0
  -26.7543  -35.4349   26.9172 F   0  0  0  0  0  0  0  0  0  0  0  0
  -25.0138  -33.9878   22.7600 F   0  0  0  0  0  0  0  0  0  0  0  0
  1  2  1  0  0  0  0
  1  5  2  0  0  0  0
  2  6  2  0  0  0  0
  3  8  2  0  0  0  0
  3 15  1  0  0  0  0
  4  9  1  0  0  0  0
  4 15  2  0  0  0  0
  5 17  1  0  0  0  0
  6 19  1  0  0  0  0
  7 10  2  0  0  0  0
  7 18  1  0  0  0  0
  8 24  1  0  0  0  0
  9 24  2  0  0  0  0
 10 25  1  0  0  0  0
 11 12  2  0  0  0  0
 11 26  1  0  0  0  0
 12 27  1  0  0  0  0
 13 20  1  0  0  0  0
 13 25  2  0  0  0  0
 14 27  2  0  0  0  0
 14 28  1  0  0  0  0
 15 29  1  0  0  0  0
 16 29  1  0  0  0  0
 16 32  2  0  0  0  0
 16 33  1  0  0  0  0
 17 19  2  0  0  0  0
 17 38  1  0  0  0  0
 18 20  2  0  0  0  0
 18 39  1  0  0  0  0
 19 49  1  0  0  0  0
 20 40  1  0  0  0  0
 21 22  1  0  0  0  0
 21 23  2  0  0  0  0
 21 53  1  0  0  0  0
 22 30  2  0  0  0  0
 22 54  1  0  0  0  0
 23 31  1  0  0  0  0
 23 55  1  0  0  0  0
 24 84  1  0  0  0  0
 25 85  1  0  0  0  0
 26 28  2  0  0  0  0
 26 84  1  0  0  0  0
 27 86  1  0  0  0  0
 28 87  1  0  0  0  0
 29 67  2  0  0  0  0
 30 63  1  0  0  0  0
 30 68  1  0  0  0  0
 31 68  2  0  0  0  0
 31 70  1  0  0  0  0
 32 69  1  0  0  0  0
 32 73  1  0  0  0  0
 33 74  1  0  0  0  0
 33 79  2  0  0  0  0
 34 50  1  0  0  0  0
 34 75  1  0  0  0  0
 34 80  2  0  0  0  0
 35 64  1  0  0  0  0
 35 71  1  0  0  0  0
 35 81  2  0  0  0  0
 36 65  1  0  0  0  0
 36 76  1  0  0  0  0
 36 82  2  0  0  0  0
 37 72  1  0  0  0  0
 37 77  1  0  0  0  0
 37 83  2  0  0  0  0
 38 41  1  0  0  0  0
 39 50  1  0  0  0  0
 40 71  1  0  0  0  0
 41 43  1  0  0  0  0
 42 44  1  0  0  0  0
 42 45  1  0  0  0  0
 43 49  1  0  0  0  0
 44 51  1  0  0  0  0
 45 72  1  0  0  0  0
 46 51  1  0  0  0  0
 46 72  1  0  0  0  0
 47 52  1  0  0  0  0
 47 70  1  0  0  0  0
 48 52  1  0  0  0  0
 48 70  1  0  0  0  0
 49 75  1  0  0  0  0
 50 71  1  0  0  0  0
 51 69  1  0  0  0  0
 52 77  1  0  0  0  0
 56 63  1  0  0  0  0
 57 65  1  0  0  0  0
 58 66  1  0  0  0  0
 59 66  1  0  0  0  0
 60 66  1  0  0  0  0
 61 78  1  0  0  0  0
 62 63  1  0  0  0  0
 62 85  1  0  0  0  0
 64 66  1  0  0  0  0
 64 76  1  0  0  0  0
 65 78  1  0  0  0  0
 67 69  1  0  0  0  0
M  CHG  1  78   1
M  ISO  4  37 100  62 101  77 100  85 101
M  END
> <Batch ID>
0164

> <Smiles>
CNC(C)C(=O)NC(C(=O)N1Cc2cc([101O:1][101CH2:1]C(C)c3nc(N4CC([100NH:0][100C:0](=O)N5CCCC(n6nc(-c7ccc(Oc8ccc(F)cc8F)cc7)c(C(N)=O)c6N)C5)C4)c(C)c(C)c3C)ccc2CC1C(=O)NC1CCCc2ccccc21)C(C)(C)C

> <Shape>
0.216

> <Color>
0.088

> <Negative vol penalty>
0.000

$$$$

  -OEChem-04052322193D

 86 95  0     1  0  0  0  0  0999 V2000
  -32.3448  -14.3522   21.0692 C   0  0  0  0  0  0  0  0  0  0  0  0
  -31.5364  -15.4458   21.3625 C   0  0  0  0  0  0  0  0  0  0  0  0
  -25.9402  -28.0862   21.6038 C   0  0  0  0  0  0  0  0  0  0  0  0
  -25.2767  -29.5265   19.7810 C   0  0  0  0  0  0  0  0  0  0  0  0
  -31.8133  -13.2554   20.3921 C   0  0  0  0  0  0  0  0  0  0  0  0
  -30.1961  -15.4436   20.9778 C   0  0  0  0  0  0  0  0  0  0  0  0
  -25.4933  -17.9390   24.0048 C   0  0  0  0  0  0  0  0  0  0  0  0
  -26.2087  -27.0615   20.6964 C   0  0  0  0  0  0  0  0  0  0  0  0
  -25.5453  -28.5018   18.8736 C   0  0  0  0  0  0  0  0  0  0  0  0
  -24.8191  -19.1504   23.8565 C   0  0  0  0  0  0  0  0  0  0  0  0
  -27.4123  -24.1846   18.8283 C   0  0  0  0  0  0  0  0  0  0  0  0
  -28.5988  -23.4694   18.9902 C   0  0  0  0  0  0  0  0  0  0  0  0
  -23.1392  -18.0454   22.5239 C   0  0  0  0  0  0  0  0  0  0  0  0
  -29.8657  -25.5070   18.7061 C   0  0  0  0  0  0  0  0  0  0  0  0
  -25.4742  -29.3188   21.1461 C   0  0  0  0  0  0  0  0  0  0  0  0
  -26.0890  -31.3658   22.5387 C   0  0  0  0  0  0  0  0  0  0  0  0
  -30.4633  -13.2357   20.0075 C   0  0  0  0  0  0  0  0  0  0  0  0
  -25.0004  -16.7719   23.4036 C   0  0  0  0  0  0  0  0  0  0  0  0
  -29.6463  -14.3461   20.2938 C   0  0  0  0  0  0  0  0  0  0  0  0
  -23.8075  -16.8200   22.6681 C   0  0  0  0  0  0  0  0  0  0  0  0
  -21.0422  -24.9378   22.9113 C   0  0  0  0  0  0  0  0  0  0  0  0
  -20.5341  -23.8200   23.5730 C   0  0  0  0  0  0  0  0  0  0  0  0
  -22.3663  -24.9467   22.4727 C   0  0  0  0  0  0  0  0  0  0  0  0
  -21.3502  -22.7110   23.7963 C   0  0  0  0  0  0  0  0  0  0  0  0
  -23.1824  -23.8377   22.6960 C   0  0  0  0  0  0  0  0  0  0  0  0
  -22.6743  -22.7199   23.3578 C   0  0  0  0  0  0  0  0  0  0  0  0
  -26.0113  -27.2693   19.3313 C   0  0  0  0  0  0  0  0  0  0  0  0
  -23.6434  -19.2043   23.1136 C   0  0  0  0  0  0  0  0  0  0  0  0
  -27.4524  -25.5610   18.6052 C   0  0  0  0  0  0  0  0  0  0  0  0
  -29.8255  -24.1306   18.9291 C   0  0  0  0  0  0  0  0  0  0  0  0
  -28.6791  -26.2221   18.5442 C   0  0  0  0  0  0  0  0  0  0  0  0
  -25.1960  -30.3775   22.0830 C   0  0  0  0  0  0  0  0  0  0  0  0
  -25.3457  -32.1256   23.4085 C   0  0  0  0  0  0  0  0  0  0  0  0
  -27.4673  -31.5781   22.2054 C   0  0  0  0  0  0  0  0  0  0  0  0
  -26.0885  -14.7491   21.2063 C   0  0  0  0  0  0  0  0  0  0  0  0
  -23.4213  -13.0763   21.9872 C   0  0  0  0  0  0  0  0  0  0  0  0
  -20.2600  -13.0988   23.2727 C   0  0  0  0  0  0  0  0  0  0  0  0
  -20.3456  -29.8964   22.5207 C   0  0  0  0  0  0  0  0  0  0  0  0
  -29.9457  -12.0478   19.2358 C   0  0  0  0  0  0  0  0  0  0  0  0
  -25.7251  -15.4679   23.5953 C   0  0  0  0  0  0  0  0  0  0  0  0
  -23.2257  -15.5914   22.0196 C   0  0  0  0  0  0  0  0  0  0  0  0
  -28.4219  -11.9657   19.1940 C   0  0  0  0  0  0  0  0  0  0  0  0
  -21.5004  -30.9294   26.0397 C   0  0  0  0  0  0  0  0  0  0  0  0
  -27.8232  -13.3261   18.8509 C   0  0  0  0  0  0  0  0  0  0  0  0
  -22.8809  -31.4375   25.6456 C   0  0  0  0  0  0  0  0  0  0  0  0
  -19.9795  -26.5113   21.1988 C   0  0  0  0  0  0  0  0  0  0  0  0
  -20.9801  -29.9428   24.9982 C   0  0  0  0  0  0  0  0  0  0  0  0
  -19.4874  -27.9465   21.2805 C   0  0  0  0  0  0  0  0  0  0  0  0
  -20.6677  -27.4410   23.3016 C   0  0  0  0  0  0  0  0  0  0  0  0
  -21.5736  -31.8065   23.4601 C   0  0  0  0  0  0  0  0  0  0  0  0
  -20.1601  -26.1370   22.6700 C   0  0  2  0  0  0  0  0  0  0  0  0
  -28.1814  -14.3706   19.9150 C   0  0  1  0  0  0  0  0  0  0  0  0
  -25.4081  -14.4431   22.5105 C   0  0  1  0  0  0  0  0  0  0  0  0
  -22.8941  -32.0285   24.2233 C   0  0  2  0  0  0  0  0  0  0  0  0
  -19.1136  -23.8108   24.0433 C   0  0  0  0  0  0  0  0  0  0  0  0
  -22.9118  -26.1462   21.7636 C   0  0  0  0  0  0  0  0  0  0  0  0
  -20.8057  -21.5132   24.5089 C   0  0  0  0  0  0  0  0  0  0  0  0
  -24.6030  -23.8468   22.2261 C   0  0  0  0  0  0  0  0  0  0  0  0
  -18.3153  -11.5852   23.7464 C   0  0  0  0  0  0  0  0  0  0  0  0
  -22.7138  -13.0605   19.0192 C   0  0  0  0  0  0  0  0  0  0  0  0
  -20.3803  -12.4087   19.6502 C   0  0  0  0  0  0  0  0  0  0  0  0
  -22.2879  -10.9000   20.2046 C   0  0  0  0  0  0  0  0  0  0  0  0
  -20.3860  -13.6540   26.1770 C   0  0  0  0  0  0  0  0  0  0  0  0
  -23.5497  -21.5305   23.5991 C   0  0  0  0  0  0  0  0  0  1  0  0
  -21.9932  -13.0520   21.4984 C   0  0  1  0  0  0  0  0  0  0  0  0
  -19.5850  -12.2108   24.3024 C   0  0  2  0  0  0  0  0  0  0  0  0
  -21.8556  -12.3790   20.1036 C   0  0  0  0  0  0  0  0  0  0  0  0
  -23.9785  -30.4960   22.6192 N   0  0  0  0  0  0  0  0  0  0  0  0
  -24.1012  -31.5677   23.4208 N   0  0  0  0  0  0  0  0  0  0  0  0
  -23.9744  -14.3414   22.2306 N   0  0  0  0  0  0  0  0  0  0  0  0
  -21.0038  -30.4615   23.6255 N   0  0  0  0  0  0  0  0  0  0  0  0
  -20.1520  -28.5177   22.4519 N   0  0  0  0  0  0  0  0  0  0  0  0
  -25.6417  -33.2097   24.1564 N   0  0  0  0  0  0  0  0  0  0  0  0
  -28.0766  -30.7046   21.2943 N   0  0  0  0  0  0  0  0  0  0  0  0
  -27.3517  -14.2015   21.0886 N   0  0  0  0  0  0  0  0  0  0  0  0
  -21.2123  -12.4109   22.5509 N   0  0  0  0  0  0  0  0  0  0  0  0
  -19.2277  -13.0017   25.5139 N   0  3  0  0  0  0  0  0  0  0  0  0
  -28.1431  -32.5048   22.7133 O   0  0  0  0  0  0  0  0  0  0  0  0
  -25.5097  -15.4304   20.3681 O   0  0  0  0  0  0  0  0  0  0  0  0
  -24.0216  -12.0116   22.1539 O   0  0  0  0  0  0  0  0  0  0  0  0
  -19.9688  -14.2832   23.1213 O   0  0  0  0  0  0  0  0  0  0  0  0
  -19.9530  -30.6186   21.5903 O   0  0  0  0  0  0  0  0  0  0  0  0
  -26.2735  -26.2697   18.4455 O   0  0  0  0  0  0  0  0  0  0  0  0
  -22.9789  -20.3942   22.9656 O   0  0  0  0  0  0  0  0  0  1  0  0
  -30.9648  -23.4439   19.0862 F   0  0  0  0  0  0  0  0  0  0  0  0
  -28.7239  -27.5445   18.3314 F   0  0  0  0  0  0  0  0  0  0  0  0
  1  2  1  0  0  0  0
  1  5  2  0  0  0  0
  2  6  2  0  0  0  0
  3  8  2  0  0  0  0
  3 15  1  0  0  0  0
  4  9  1  0  0  0  0
  4 15  2  0  0  0  0
  5 17  1  0  0  0  0
  6 19  1  0  0  0  0
  7 10  2  0  0  0  0
  7 18  1  0  0  0  0
  8 27  1  0  0  0  0
  9 27  2  0  0  0  0
 10 28  1  0  0  0  0
 11 12  2  0  0  0  0
 11 29  1  0  0  0  0
 12 30  1  0  0  0  0
 13 20  1  0  0  0  0
 13 28  2  0  0  0  0
 14 30  2  0  0  0  0
 14 31  1  0  0  0  0
 15 32  1  0  0  0  0
 16 32  1  0  0  0  0
 16 33  2  0  0  0  0
 16 34  1  0  0  0  0
 17 19  2  0  0  0  0
 17 39  1  0  0  0  0
 18 20  2  0  0  0  0
 18 40  1  0  0  0  0
 19 52  1  0  0  0  0
 20 41  1  0  0  0  0
 21 22  1  0  0  0  0
 21 23  2  0  0  0  0
 21 51  1  0  0  0  0
 22 24  2  0  0  0  0
 22 55  1  0  0  0  0
 23 25  1  0  0  0  0
 23 56  1  0  0  0  0
 24 26  1  0  0  0  0
 24 57  1  0  0  0  0
 25 26  2  0  0  0  0
 25 58  1  0  0  0  0
 26 64  1  0  0  0  0
 27 83  1  0  0  0  0
 28 84  1  0  0  0  0
 29 31  2  0  0  0  0
 29 83  1  0  0  0  0
 30 85  1  0  0  0  0
 31 86  1  0  0  0  0
 32 68  2  0  0  0  0
 33 69  1  0  0  0  0
 33 73  1  0  0  0  0
 34 74  1  0  0  0  0
 34 78  2  0  0  0  0
 35 53  1  0  0  0  0
 35 75  1  0  0  0  0
 35 79  2  0  0  0  0
 36 65  1  0  0  0  0
 36 70  1  0  0  0  0
 36 80  2  0  0  0  0
 37 66  1  0  0  0  0
 37 76  1  0  0  0  0
 37 81  2  0  0  0  0
 38 71  1  0  0  0  0
 38 72  1  0  0  0  0
 38 82  2  0  0  0  0
 39 42  1  0  0  0  0
 40 53  1  0  0  0  0
 41 70  1  0  0  0  0
 42 44  1  0  0  0  0
 43 45  1  0  0  0  0
 43 47  1  0  0  0  0
 44 52  1  0  0  0  0
 45 54  1  0  0  0  0
 46 48  1  0  0  0  0
 46 51  1  0  0  0  0
 47 71  1  0  0  0  0
 48 72  1  0  0  0  0
 49 51  1  0  0  0  0
 49 72  1  0  0  0  0
 50 54  1  0  0  0  0
 50 71  1  0  0  0  0
 52 75  1  0  0  0  0
 53 70  1  0  0  0  0
 54 69  1  0  0  0  0
 59 66  1  0  0  0  0
 60 67  1  0  0  0  0
 61 67  1  0  0  0  0
 62 67  1  0  0  0  0
 63 77  1  0  0  0  0
 64 84  1  0  0  0  0
 65 67  1  0  0  0  0
 65 76  1  0  0  0  0
 66 77  1  0  0  0  0
 68 69  1  0  0  0  0
M  CHG  1  77   1
M  ISO  4  38 100  64 101  72 100  84 101
M  END
> <Batch ID>
0164

> <Smiles>
CNC(C)C(=O)NC(C(=O)N1Cc2cc([101O:1][101CH2:1]c3c(C)c(C)c(C4CC[100N:0]([100C:0](=O)N5CCCC(n6nc(-c7ccc(Oc8ccc(F)cc8F)cc7)c(C(N)=O)c6N)C5)C4)c(C)c3C)ccc2CC1C(=O)NC1CCCc2ccccc21)C(C)(C)C

> <Shape>
0.258

> <Color>
0.082

> <Negative vol penalty>
0.000

$$$$

  -OEChem-04052322193D

 87 97  0     1  0  0  0  0  0999 V2000
  -29.3741  -35.3608   22.7732 C   0  0  0  0  0  0  0  0  0  0  0  0
  -29.4130  -33.9852   22.5693 C   0  0  0  0  0  0  0  0  0  0  0  0
  -21.9993  -15.7017   21.4206 C   0  0  0  0  0  0  0  0  0  0  0  0
  -22.5779  -16.2563   19.1414 C   0  0  0  0  0  0  0  0  0  0  0  0
  -28.2727  -35.9404   23.4015 C   0  0  0  0  0  0  0  0  0  0  0  0
  -28.3507  -33.1882   22.9946 C   0  0  0  0  0  0  0  0  0  0  0  0
  -26.9732  -29.7711   19.5203 C   0  0  0  0  0  0  0  0  0  0  0  0
  -20.8664  -16.5103   21.3298 C   0  0  0  0  0  0  0  0  0  0  0  0
  -21.4449  -17.0648   19.0506 C   0  0  0  0  0  0  0  0  0  0  0  0
  -27.7684  -28.6327   19.3966 C   0  0  0  0  0  0  0  0  0  0  0  0
  -20.5066  -20.1589   20.0391 C   0  0  0  0  0  0  0  0  0  0  0  0
  -20.6543  -21.4185   19.4586 C   0  0  0  0  0  0  0  0  0  0  0  0
  -26.1789  -27.3864   20.7155 C   0  0  0  0  0  0  0  0  0  0  0  0
  -31.5238  -20.4142   20.4464 C   0  0  0  0  0  0  0  0  0  0  0  0
  -19.0481  -20.8219   17.7553 C   0  0  0  0  0  0  0  0  0  0  0  0
  -22.8551  -15.5748   20.3265 C   0  0  0  0  0  0  0  0  0  0  0  0
  -24.1201  -13.3701   20.1103 C   0  0  0  0  0  0  0  0  0  0  0  0
  -27.1921  -35.1513   23.8261 C   0  0  0  0  0  0  0  0  0  0  0  0
  -25.7782  -29.7285   20.2529 C   0  0  0  0  0  0  0  0  0  0  0  0
  -27.2344  -33.7576   23.6304 C   0  0  0  0  0  0  0  0  0  0  0  0
  -25.3690  -28.5250   20.8448 C   0  0  0  0  0  0  0  0  0  0  0  0
  -30.5815  -20.5347   19.4311 C   0  0  0  0  0  0  0  0  0  0  0  0
  -30.0393  -21.7810   19.1378 C   0  0  0  0  0  0  0  0  0  0  0  0
  -20.5892  -17.1918   20.1448 C   0  0  0  0  0  0  0  0  0  0  0  0
  -27.3728  -27.4408   19.9967 C   0  0  0  0  0  0  0  0  0  0  0  0
  -19.6297  -19.2307   19.4777 C   0  0  0  0  0  0  0  0  0  0  0  0
  -19.9250  -21.7501   18.3167 C   0  0  0  0  0  0  0  0  0  0  0  0
  -18.9005  -19.5622   18.3358 C   0  0  0  0  0  0  0  0  0  0  0  0
  -24.0259  -14.7401   20.4199 C   0  0  0  0  0  0  0  0  0  0  0  0
  -31.8876  -21.5613   21.1331 C   0  0  0  0  0  0  0  0  0  0  0  0
  -30.4694  -22.8669   19.8832 C   0  0  0  0  0  0  0  0  0  0  0  0
  -25.4314  -13.0500   20.3644 C   0  0  0  0  0  0  0  0  0  0  0  0
  -23.1124  -12.4675   19.6353 C   0  0  0  0  0  0  0  0  0  0  0  0
  -24.6883  -31.1950   22.8539 C   0  0  0  0  0  0  0  0  0  0  0  0
  -21.9355  -29.6570   22.0930 C   0  0  0  0  0  0  0  0  0  0  0  0
  -20.4207  -27.0428   20.5061 C   0  0  0  0  0  0  0  0  0  0  0  0
  -30.4218  -16.4794   20.5389 C   0  0  0  0  0  0  0  0  0  0  0  0
  -26.0445  -35.8172   24.5432 C   0  0  0  0  0  0  0  0  0  0  0  0
  -24.9183  -30.9584   20.3545 C   0  0  0  0  0  0  0  0  0  0  0  0
  -24.0849  -28.4215   21.6250 C   0  0  0  0  0  0  0  0  0  0  0  0
  -24.7924  -34.9480   24.6275 C   0  0  0  0  0  0  0  0  0  0  0  0
  -29.1435  -14.2863   23.0797 C   0  0  0  0  0  0  0  0  0  0  0  0
  -27.6974  -22.5579   18.3724 C   0  0  0  0  0  0  0  0  0  0  0  0
  -27.7772  -21.0888   18.0975 C   0  0  0  0  0  0  0  0  0  0  0  0
  -25.1535  -33.5328   25.0675 C   0  0  0  0  0  0  0  0  0  0  0  0
  -27.6835  -14.0727   22.6936 C   0  0  0  0  0  0  0  0  0  0  0  0
  -29.5978  -15.6969   22.7295 C   0  0  0  0  0  0  0  0  0  0  0  0
  -31.0810  -18.0030   18.6046 C   0  0  0  0  0  0  0  0  0  0  0  0
  -29.0693  -18.2943   19.2324 C   0  0  0  0  0  0  0  0  0  0  0  0
  -27.9791  -15.8063   20.8529 C   0  0  0  0  0  0  0  0  0  0  0  0
  -30.1402  -19.2312   18.6198 C   0  0  0  0  0  0  0  0  0  0  0  0
  -29.0258  -21.9279   18.0505 C   0  0  0  0  0  0  0  0  0  0  0  0
  -26.0905  -32.8626   24.0554 C   0  0  1  0  0  0  0  0  0  0  0  0
  -23.9784  -30.9327   21.5558 C   0  0  1  0  0  0  0  0  0  0  0  0
  -27.4677  -14.3959   21.2081 C   0  0  2  0  0  0  0  0  0  0  0  0
  -32.8964  -21.4693   22.2289 C   0  0  0  0  0  0  0  0  0  0  0  0
  -18.1619  -26.0303   20.0938 C   0  0  0  0  0  0  0  0  0  0  0  0
  -21.9171  -28.5467   24.9349 C   0  0  0  0  0  0  0  0  0  0  0  0
  -20.2370  -26.8483   24.1860 C   0  0  0  0  0  0  0  0  0  0  0  0
  -19.6812  -29.2781   24.0862 C   0  0  0  0  0  0  0  0  0  0  0  0
  -20.6684  -27.3960   17.5781 C   0  0  0  0  0  0  0  0  0  0  0  0
  -30.2963  -25.3211   20.2986 C   0  0  0  0  0  0  0  0  0  0  0  0
  -29.5538  -26.5262   19.7462 C   0  0  0  0  0  0  0  0  0  1  0  0
  -21.3319  -28.3151   22.4309 C   0  0  1  0  0  0  0  0  0  0  0  0
  -19.2236  -26.9871   19.5742 C   0  0  2  0  0  0  0  0  0  0  0  0
  -20.8170  -28.2492   23.8965 C   0  0  0  0  0  0  0  0  0  0  0  0
  -25.1850  -15.2549   20.8389 N   0  0  0  0  0  0  0  0  0  0  0  0
  -31.3828  -22.7890   20.8767 N   0  0  0  0  0  0  0  0  0  0  0  0
  -26.0199  -14.2028   20.7944 N   0  0  0  0  0  0  0  0  0  0  0  0
  -23.2817  -29.6530   21.7012 N   0  0  0  0  0  0  0  0  0  0  0  0
  -29.3559  -16.0195   21.3201 N   0  0  0  0  0  0  0  0  0  0  0  0
  -30.1470  -17.3652   19.5219 N   0  0  0  0  0  0  0  0  0  0  0  0
  -26.1269  -11.8977   20.2598 N   0  0  0  0  0  0  0  0  0  0  0  0
  -21.8173  -12.9613   19.4275 N   0  0  0  0  0  0  0  0  0  0  0  0
  -29.9212  -24.1409   19.5908 N   0  0  0  0  0  0  0  0  0  0  0  0
  -25.3457  -32.4095   22.9002 N   0  0  0  0  0  0  0  0  0  0  0  0
  -20.3054  -28.0642   21.4251 N   0  0  0  0  0  0  0  0  0  0  0  0
  -19.6433  -26.5322   18.2185 N   0  3  0  0  0  0  0  0  0  0  0  0
  -23.3493  -11.2550   19.4177 O   0  0  0  0  0  0  0  0  0  0  0  0
  -24.6417  -30.3581   23.7478 O   0  0  0  0  0  0  0  0  0  0  0  0
  -21.2361  -30.6705   22.1668 O   0  0  0  0  0  0  0  0  0  0  0  0
  -21.3620  -26.2563   20.4290 O   0  0  0  0  0  0  0  0  0  0  0  0
  -31.5903  -16.1350   20.7607 O   0  0  0  0  0  0  0  0  0  0  0  0
  -19.4836  -17.9807   20.0557 O   0  0  0  0  0  0  0  0  0  0  0  0
  -28.1529  -26.3205   19.8772 O   0  0  0  0  0  0  0  0  0  1  0  0
  -20.0658  -22.9603   17.7603 F   0  0  0  0  0  0  0  0  0  0  0  0
  -18.0556  -18.6750   17.7926 F   0  0  0  0  0  0  0  0  0  0  0  0
  1  2  1  0  0  0  0
  1  5  2  0  0  0  0
  2  6  2  0  0  0  0
  3  8  2  0  0  0  0
  3 16  1  0  0  0  0
  4  9  1  0  0  0  0
  4 16  2  0  0  0  0
  5 18  1  0  0  0  0
  6 20  1  0  0  0  0
  7 10  2  0  0  0  0
  7 19  1  0  0  0  0
  8 24  1  0  0  0  0
  9 24  2  0  0  0  0
 10 25  1  0  0  0  0
 11 12  2  0  0  0  0
 11 26  1  0  0  0  0
 12 27  1  0  0  0  0
 13 21  1  0  0  0  0
 13 25  2  0  0  0  0
 14 22  2  0  0  0  0
 14 30  1  0  0  0  0
 15 27  2  0  0  0  0
 15 28  1  0  0  0  0
 16 29  1  0  0  0  0
 17 29  1  0  0  0  0
 17 32  2  0  0  0  0
 17 33  1  0  0  0  0
 18 20  2  0  0  0  0
 18 38  1  0  0  0  0
 19 21  2  0  0  0  0
 19 39  1  0  0  0  0
 20 53  1  0  0  0  0
 21 40  1  0  0  0  0
 22 23  1  0  0  0  0
 22 51  1  0  0  0  0
 23 31  2  0  0  0  0
 23 52  1  0  0  0  0
 24 84  1  0  0  0  0
 25 85  1  0  0  0  0
 26 28  2  0  0  0  0
 26 84  1  0  0  0  0
 27 86  1  0  0  0  0
 28 87  1  0  0  0  0
 29 67  2  0  0  0  0
 30 56  1  0  0  0  0
 30 68  2  0  0  0  0
 31 68  1  0  0  0  0
 31 75  1  0  0  0  0
 32 69  1  0  0  0  0
 32 73  1  0  0  0  0
 33 74  1  0  0  0  0
 33 79  2  0  0  0  0
 34 54  1  0  0  0  0
 34 76  1  0  0  0  0
 34 80  2  0  0  0  0
 35 64  1  0  0  0  0
 35 70  1  0  0  0  0
 35 81  2  0  0  0  0
 36 65  1  0  0  0  0
 36 77  1  0  0  0  0
 36 82  2  0  0  0  0
 37 71  1  0  0  0  0
 37 72  1  0  0  0  0
 37 83  2  0  0  0  0
 38 41  1  0  0  0  0
 39 54  1  0  0  0  0
 40 70  1  0  0  0  0
 41 45  1  0  0  0  0
 42 46  1  0  0  0  0
 42 47  1  0  0  0  0
 43 44  1  0  0  0  0
 43 52  1  0  0  0  0
 44 52  1  0  0  0  0
 45 53  1  0  0  0  0
 46 55  1  0  0  0  0
 47 71  1  0  0  0  0
 48 51  1  0  0  0  0
 48 72  1  0  0  0  0
 49 51  1  0  0  0  0
 49 72  1  0  0  0  0
 50 55  1  0  0  0  0
 50 71  1  0  0  0  0
 53 76  1  0  0  0  0
 54 70  1  0  0  0  0
 55 69  1  0  0  0  0
 57 65  1  0  0  0  0
 58 66  1  0  0  0  0
 59 66  1  0  0  0  0
 60 66  1  0  0  0  0
 61 78  1  0  0  0  0
 62 63  1  0  0  0  0
 62 75  1  0  0  0  0
 63 85  1  0  0  0  0
 64 66  1  0  0  0  0
 64 77  1  0  0  0  0
 65 78  1  0  0  0  0
 67 69  1  0  0  0  0
M  CHG  1  78   1
M  ISO  4  37 100  63 101  72 100  85 101
M  END
> <Batch ID>
0164

> <Smiles>
CNC(C)C(=O)NC(C(=O)N1Cc2cc([101O:1][101CH2:1]CNc3nc(C)cc(C4C[100N:0]([100C:0](=O)N5CCCC(n6nc(-c7ccc(Oc8ccc(F)cc8F)cc7)c(C(N)=O)c6N)C5)C4)c3C3CC3)ccc2CC1C(=O)NC1CCCc2ccccc21)C(C)(C)C

> <Shape>
0.280

> <Color>
0.080

> <Negative vol penalty>
0.000

$$$$

  -OEChem-04052322193D

 88 97  0     1  0  0  0  0  0999 V2000
  -17.9928  -25.7877   21.8283 C   0  0  0  0  0  0  0  0  0  0  0  0
  -19.2955  -25.3600   22.0643 C   0  0  0  0  0  0  0  0  0  0  0  0
  -24.5607   -9.1449   21.8462 C   0  0  0  0  0  0  0  0  0  0  0  0
  -22.7976  -10.1431   20.5301 C   0  0  0  0  0  0  0  0  0  0  0  0
  -17.7613  -27.0634   21.3156 C   0  0  0  0  0  0  0  0  0  0  0  0
  -20.3674  -26.2075   21.7866 C   0  0  0  0  0  0  0  0  0  0  0  0
  -25.6357  -26.6155   24.8825 C   0  0  0  0  0  0  0  0  0  0  0  0
  -23.6126   -8.4142   22.5622 C   0  0  0  0  0  0  0  0  0  0  0  0
  -21.8494   -9.4123   21.2461 C   0  0  0  0  0  0  0  0  0  0  0  0
  -26.9001  -26.0728   24.6579 C   0  0  0  0  0  0  0  0  0  0  0  0
  -21.7567   -5.6242   22.1099 C   0  0  0  0  0  0  0  0  0  0  0  0
  -22.0164   -4.2727   22.3374 C   0  0  0  0  0  0  0  0  0  0  0  0
  -27.5826  -28.1227   23.5847 C   0  0  0  0  0  0  0  0  0  0  0  0
  -29.6541  -22.0213   22.0957 C   0  0  0  0  0  0  0  0  0  0  0  0
  -29.1337  -24.4019   20.7376 C   0  0  0  0  0  0  0  0  0  0  0  0
  -21.9426   -4.6598   24.7210 C   0  0  0  0  0  0  0  0  0  0  0  0
  -24.1532  -10.0094   20.8302 C   0  0  0  0  0  0  0  0  0  0  0  0
  -25.7924  -10.3750   18.9100 C   0  0  0  0  0  0  0  0  0  0  0  0
  -18.8305  -27.9305   21.0406 C   0  0  0  0  0  0  0  0  0  0  0  0
  -25.3313  -27.9141   24.4496 C   0  0  0  0  0  0  0  0  0  0  0  0
  -20.1501  -27.4955   21.2685 C   0  0  0  0  0  0  0  0  0  0  0  0
  -26.3143  -28.6804   23.8074 C   0  0  0  0  0  0  0  0  0  0  0  0
  -30.3247  -23.1903   22.4553 C   0  0  0  0  0  0  0  0  0  0  0  0
  -30.0644  -24.3806   21.7763 C   0  0  0  0  0  0  0  0  0  0  0  0
  -28.7234  -22.0425   21.0569 C   0  0  0  0  0  0  0  0  0  0  0  0
  -22.2569   -8.5478   22.2621 C   0  0  0  0  0  0  0  0  0  0  0  0
  -27.8729  -26.8254   24.0063 C   0  0  0  0  0  0  0  0  0  0  0  0
  -21.5900   -6.4935   23.1879 C   0  0  0  0  0  0  0  0  0  0  0  0
  -28.4632  -23.2329   20.3779 C   0  0  0  0  0  0  0  0  0  0  0  0
  -22.1093   -3.7906   23.6429 C   0  0  0  0  0  0  0  0  0  0  0  0
  -21.6829   -6.0113   24.4935 C   0  0  0  0  0  0  0  0  0  0  0  0
  -25.1321  -10.7650   20.0906 C   0  0  0  0  0  0  0  0  0  0  0  0
  -26.6143  -11.4339   18.6105 C   0  0  0  0  0  0  0  0  0  0  0  0
  -25.6733   -9.1640   18.1518 C   0  0  0  0  0  0  0  0  0  0  0  0
  -23.2444  -29.1652   22.4042 C   0  0  0  0  0  0  0  0  0  0  0  0
  -24.3832  -31.9728   23.5631 C   0  0  0  0  0  0  0  0  0  0  0  0
  -26.9330  -33.6603   25.0788 C   0  0  0  0  0  0  0  0  0  0  0  0
  -26.3938  -17.1113   19.6810 C   0  0  0  0  0  0  0  0  0  0  0  0
  -18.5331  -29.2828   20.4427 C   0  0  0  0  0  0  0  0  0  0  0  0
  -23.9710  -28.4947   24.7234 C   0  0  0  0  0  0  0  0  0  0  0  0
  -26.0443  -30.0868   23.3410 C   0  0  0  0  0  0  0  0  0  0  0  0
  -19.7051  -30.2573   20.5276 C   0  0  0  0  0  0  0  0  0  0  0  0
  -29.0292  -15.0083   20.6664 C   0  0  0  0  0  0  0  0  0  0  0  0
  -20.9978  -29.5772   20.0880 C   0  0  0  0  0  0  0  0  0  0  0  0
  -28.3894  -13.6285   20.5159 C   0  0  0  0  0  0  0  0  0  0  0  0
  -28.0564  -16.0297   21.2578 C   0  0  0  0  0  0  0  0  0  0  0  0
  -28.1994  -20.3329   19.3450 C   0  0  0  0  0  0  0  0  0  0  0  0
  -27.7966  -19.8826   21.7701 C   0  0  0  0  0  0  0  0  0  0  0  0
  -27.0521  -19.3881   18.9977 C   0  0  0  0  0  0  0  0  0  0  0  0
  -26.6495  -18.9567   21.3807 C   0  0  0  0  0  0  0  0  0  0  0  0
  -26.1323  -14.7484   20.3777 C   0  0  0  0  0  0  0  0  0  0  0  0
  -21.3379  -28.3948   21.0033 C   0  0  1  0  0  0  0  0  0  0  0  0
  -23.6096  -29.6397   23.7823 C   0  0  1  0  0  0  0  0  0  0  0  0
  -27.0681  -13.7150   19.7315 C   0  0  2  0  0  0  0  0  0  0  0  0
  -31.3182  -23.1434   23.5695 C   0  0  0  0  0  0  0  0  0  0  0  0
  -31.6331  -26.1806   20.9821 C   0  0  0  0  0  0  0  0  0  0  0  0
  -27.5873  -35.9534   25.8604 C   0  0  0  0  0  0  0  0  0  0  0  0
  -24.9340  -32.7965   20.6773 C   0  0  0  0  0  0  0  0  0  0  0  0
  -26.4157  -34.6149   21.5525 C   0  0  0  0  0  0  0  0  0  0  0  0
  -23.9858  -34.6086   22.1166 C   0  0  0  0  0  0  0  0  0  0  0  0
  -27.1706  -32.7613   27.8885 C   0  0  0  0  0  0  0  0  0  0  0  0
  -26.2055  -23.5681   19.7099 C   0  0  0  0  0  0  0  0  0  0  0  0
  -29.8101  -26.7521   22.6287 C   0  0  0  0  0  0  0  0  0  1  0  0
  -30.7712  -25.6446   22.1418 C   0  0  1  0  0  0  0  0  0  0  0  0
  -25.5121  -32.9035   23.1913 C   0  0  1  0  0  0  0  0  0  0  0  0
  -26.9452  -34.6301   26.2466 C   0  0  2  0  0  0  0  0  0  0  0  0
  -25.2167  -33.7037   21.8914 C   0  0  0  0  0  0  0  0  0  0  0  0
  -25.5027  -11.9769   20.5124 N   0  0  0  0  0  0  0  0  0  0  0  0
  -26.4048  -12.3576   19.5919 N   0  0  0  0  0  0  0  0  0  0  0  0
  -28.0567  -20.8617   20.7058 N   0  0  0  0  0  0  0  0  0  0  0  0
  -24.6972  -30.6077   23.6263 N   0  0  0  0  0  0  0  0  0  0  0  0
  -26.7969  -16.0474   20.5018 N   0  0  0  0  0  0  0  0  0  0  0  0
  -26.8360  -18.3937   20.0419 N   0  0  0  0  0  0  0  0  0  0  0  0
  -27.4886  -11.6556   17.6061 N   0  0  0  0  0  0  0  0  0  0  0  0
  -24.7822   -8.1797   18.6005 N   0  0  0  0  0  0  0  0  0  0  0  0
  -21.9043  -28.8664   22.2488 N   0  0  0  0  0  0  0  0  0  0  0  0
  -25.7568  -33.7370   24.3634 N   0  0  0  0  0  0  0  0  0  0  0  0
  -27.7073  -34.0540   27.3904 N   0  3  0  0  0  0  0  0  0  0  0  0
  -26.3496   -8.9538   17.1164 O   0  0  0  0  0  0  0  0  0  0  0  0
  -24.1139  -29.0780   21.5451 O   0  0  0  0  0  0  0  0  0  0  0  0
  -23.2657  -32.4403   23.7961 O   0  0  0  0  0  0  0  0  0  0  0  0
  -27.8744  -32.9123   24.8243 O   0  0  0  0  0  0  0  0  0  0  0  0
  -25.6844  -16.9285   18.6839 O   0  0  0  0  0  0  0  0  0  0  0  0
  -21.3315   -7.8348   22.9604 O   0  0  0  0  0  0  0  0  0  0  0  0
  -27.5565  -23.2749   19.3609 O   0  0  0  0  0  0  0  0  0  0  0  0
  -29.1158  -26.2944   23.7837 O   0  0  0  0  0  0  0  0  0  1  0  0
  -22.3572   -2.4925   23.8613 F   0  0  0  0  0  0  0  0  0  0  0  0
  -21.5225   -6.8414   25.5332 F   0  0  0  0  0  0  0  0  0  0  0  0
  1  2  1  0  0  0  0
  1  5  2  0  0  0  0
  2  6  2  0  0  0  0
  3  8  2  0  0  0  0
  3 17  1  0  0  0  0
  4  9  1  0  0  0  0
  4 17  2  0  0  0  0
  5 19  1  0  0  0  0
  6 21  1  0  0  0  0
  7 10  2  0  0  0  0
  7 20  1  0  0  0  0
  8 26  1  0  0  0  0
  9 26  2  0  0  0  0
 10 27  1  0  0  0  0
 11 12  2  0  0  0  0
 11 28  1  0  0  0  0
 12 30  1  0  0  0  0
 13 22  1  0  0  0  0
 13 27  2  0  0  0  0
 14 23  1  0  0  0  0
 14 25  2  0  0  0  0
 15 24  1  0  0  0  0
 15 29  2  0  0  0  0
 16 30  2  0  0  0  0
 16 31  1  0  0  0  0
 17 32  1  0  0  0  0
 18 32  1  0  0  0  0
 18 33  2  0  0  0  0
 18 34  1  0  0  0  0
 19 21  2  0  0  0  0
 19 39  1  0  0  0  0
 20 22  2  0  0  0  0
 20 40  1  0  0  0  0
 21 52  1  0  0  0  0
 22 41  1  0  0  0  0
 23 24  2  0  0  0  0
 23 55  1  0  0  0  0
 24 64  1  0  0  0  0
 25 29  1  0  0  0  0
 25 70  1  0  0  0  0
 26 84  1  0  0  0  0
 27 86  1  0  0  0  0
 28 31  2  0  0  0  0
 28 84  1  0  0  0  0
 29 85  1  0  0  0  0
 30 87  1  0  0  0  0
 31 88  1  0  0  0  0
 32 68  2  0  0  0  0
 33 69  1  0  0  0  0
 33 74  1  0  0  0  0
 34 75  1  0  0  0  0
 34 79  2  0  0  0  0
 35 53  1  0  0  0  0
 35 76  1  0  0  0  0
 35 80  2  0  0  0  0
 36 65  1  0  0  0  0
 36 71  1  0  0  0  0
 36 81  2  0  0  0  0
 37 66  1  0  0  0  0
 37 77  1  0  0  0  0
 37 82  2  0  0  0  0
 38 72  1  0  0  0  0
 38 73  1  0  0  0  0
 38 83  2  0  0  0  0
 39 42  1  0  0  0  0
 40 53  1  0  0  0  0
 41 71  1  0  0  0  0
 42 44  1  0  0  0  0
 43 45  1  0  0  0  0
 43 46  1  0  0  0  0
 44 52  1  0  0  0  0
 45 54  1  0  0  0  0
 46 72  1  0  0  0  0
 47 49  1  0  0  0  0
 47 70  1  0  0  0  0
 48 50  1  0  0  0  0
 48 70  1  0  0  0  0
 49 73  1  0  0  0  0
 50 73  1  0  0  0  0
 51 54  1  0  0  0  0
 51 72  1  0  0  0  0
 52 76  1  0  0  0  0
 53 71  1  0  0  0  0
 54 69  1  0  0  0  0
 56 64  1  0  0  0  0
 57 66  1  0  0  0  0
 58 67  1  0  0  0  0
 59 67  1  0  0  0  0
 60 67  1  0  0  0  0
 61 78  1  0  0  0  0
 62 85  1  0  0  0  0
 63 64  1  0  0  0  0
 63 86  1  0  0  0  0
 65 67  1  0  0  0  0
 65 77  1  0  0  0  0
 66 78  1  0  0  0  0
 68 69  1  0  0  0  0
M  CHG  1  78   1
M  ISO  4  38 100  63 101  73 100  86 101
M  END
> <Batch ID>
0164

> <Smiles>
CNC(C)C(=O)NC(C(=O)N1Cc2cc([101O:1][101CH2:1]C(C)c3cc(OC)c(N4CC[100N:0]([100C:0](=O)N5CCCC(n6nc(-c7ccc(Oc8ccc(F)cc8F)cc7)c(C(N)=O)c6N)C5)CC4)cc3C)ccc2CC1C(=O)NC1CCCc2ccccc21)C(C)(C)C

> <Shape>
0.301

> <Color>
0.104

> <Negative vol penalty>
0.000

$$$$

  -OEChem-04052322193D

 85 94  0     1  0  0  0  0  0999 V2000
  -28.9252  -32.5886   26.1100 C   0  0  0  0  0  0  0  0  0  0  0  0
  -28.8376  -31.4259   25.3511 C   0  0  0  0  0  0  0  0  0  0  0  0
  -23.0898  -10.6054   21.5456 C   0  0  0  0  0  0  0  0  0  0  0  0
  -24.4471   -8.6821   21.0017 C   0  0  0  0  0  0  0  0  0  0  0  0
  -27.7661  -33.1889   26.5999 C   0  0  0  0  0  0  0  0  0  0  0  0
  -27.5907  -30.8623   25.0825 C   0  0  0  0  0  0  0  0  0  0  0  0
  -27.0981  -29.4515   20.2439 C   0  0  0  0  0  0  0  0  0  0  0  0
  -21.9389   -9.8806   21.2364 C   0  0  0  0  0  0  0  0  0  0  0  0
  -23.2962   -7.9573   20.6925 C   0  0  0  0  0  0  0  0  0  0  0  0
  -27.7112  -28.2588   19.8629 C   0  0  0  0  0  0  0  0  0  0  0  0
  -20.6939   -5.4871   20.1053 C   0  0  0  0  0  0  0  0  0  0  0  0
  -20.5972   -4.1836   20.5921 C   0  0  0  0  0  0  0  0  0  0  0  0
  -29.6641  -24.3166   17.3402 C   0  0  0  0  0  0  0  0  0  0  0  0
  -25.5891  -27.1232   20.0244 C   0  0  0  0  0  0  0  0  0  0  0  0
  -20.7605   -5.0162   22.8542 C   0  0  0  0  0  0  0  0  0  0  0  0
  -30.0646  -23.0418   16.9739 C   0  0  0  0  0  0  0  0  0  0  0  0
  -24.3439  -10.0062   21.4283 C   0  0  0  0  0  0  0  0  0  0  0  0
  -26.1684  -10.8482   22.9999 C   0  0  0  0  0  0  0  0  0  0  0  0
  -26.5038  -32.6378   26.3290 C   0  0  0  0  0  0  0  0  0  0  0  0
  -25.7255  -29.4867   20.5291 C   0  0  0  0  0  0  0  0  0  0  0  0
  -26.4137  -31.4551   25.5703 C   0  0  0  0  0  0  0  0  0  0  0  0
  -24.9604  -28.3181   20.4064 C   0  0  0  0  0  0  0  0  0  0  0  0
  -29.3944  -24.5532   18.6836 C   0  0  0  0  0  0  0  0  0  0  0  0
  -29.5316  -23.5223   19.6065 C   0  0  0  0  0  0  0  0  0  0  0  0
  -22.0420   -8.5566   20.8098 C   0  0  0  0  0  0  0  0  0  0  0  0
  -26.9573  -27.0938   19.7559 C   0  0  0  0  0  0  0  0  0  0  0  0
  -20.8240   -6.5553   20.9930 C   0  0  0  0  0  0  0  0  0  0  0  0
  -20.6305   -3.9481   21.9665 C   0  0  0  0  0  0  0  0  0  0  0  0
  -20.8573   -6.3198   22.3674 C   0  0  0  0  0  0  0  0  0  0  0  0
  -25.5332  -10.7545   21.7470 C   0  0  0  0  0  0  0  0  0  0  0  0
  -29.9379  -22.2830   19.1386 C   0  0  0  0  0  0  0  0  0  0  0  0
  -27.2460  -11.6704   22.7779 C   0  0  0  0  0  0  0  0  0  0  0  0
  -25.8159  -10.2458   24.2523 C   0  0  0  0  0  0  0  0  0  0  0  0
  -23.9857  -30.1669   23.1009 C   0  0  0  0  0  0  0  0  0  0  0  0
  -21.5091  -29.8434   21.0311 C   0  0  0  0  0  0  0  0  0  0  0  0
  -20.3178  -28.5098   18.1244 C   0  0  0  0  0  0  0  0  0  0  0  0
  -29.5696  -16.0583   20.7400 C   0  0  0  0  0  0  0  0  0  0  0  0
  -25.2823  -33.2962   26.9198 C   0  0  0  0  0  0  0  0  0  0  0  0
  -25.0740  -30.7870   20.9130 C   0  0  0  0  0  0  0  0  0  0  0  0
  -23.4797  -28.3072   20.6819 C   0  0  0  0  0  0  0  0  0  0  0  0
  -23.9746  -32.8439   26.2751 C   0  0  0  0  0  0  0  0  0  0  0  0
  -29.2573  -13.3928   18.4759 C   0  0  0  0  0  0  0  0  0  0  0  0
  -23.9432  -31.3247   26.1406 C   0  0  0  0  0  0  0  0  0  0  0  0
  -28.3034  -12.4656   19.2285 C   0  0  0  0  0  0  0  0  0  0  0  0
  -29.3095  -19.1549   19.0871 C   0  0  0  0  0  0  0  0  0  0  0  0
  -31.0381  -19.1911   20.9252 C   0  0  0  0  0  0  0  0  0  0  0  0
  -28.8606  -14.8631   18.6206 C   0  0  0  0  0  0  0  0  0  0  0  0
  -29.6659  -17.6925   18.8043 C   0  0  0  0  0  0  0  0  0  0  0  0
  -31.3788  -17.7421   20.5884 C   0  0  0  0  0  0  0  0  0  0  0  0
  -27.7488  -14.3794   20.7766 C   0  0  0  0  0  0  0  0  0  0  0  0
  -25.0778  -30.8274   25.2368 C   0  0  1  0  0  0  0  0  0  0  0  0
  -23.7678  -30.5978   21.6781 C   0  0  1  0  0  0  0  0  0  0  0  0
  -28.1555  -12.8998   20.6977 C   0  0  1  0  0  0  0  0  0  0  0  0
  -30.4923  -19.9151   19.6917 C   0  0  0  0  0  0  0  0  0  0  0  0
  -29.2465  -23.7572   21.0532 C   0  0  0  0  0  0  0  0  0  0  0  0
  -18.2442  -28.3905   16.7161 C   0  0  0  0  0  0  0  0  0  0  0  0
  -20.2971  -27.8419   22.9895 C   0  0  0  0  0  0  0  0  0  0  0  0
  -18.7800  -27.0700   21.1535 C   0  0  0  0  0  0  0  0  0  0  0  0
  -18.6542  -29.4253   21.9656 C   0  0  0  0  0  0  0  0  0  0  0  0
  -21.6633  -29.8036   15.8277 C   0  0  0  0  0  0  0  0  0  0  0  0
  -28.9610  -25.9177   19.1073 C   0  0  0  0  0  0  0  0  0  1  0  0
  -20.6378  -28.6971   20.5773 C   0  0  1  0  0  0  0  0  0  0  0  0
  -19.5479  -29.1303   16.9726 C   0  0  2  0  0  0  0  0  0  0  0  0
  -19.6205  -28.2580   21.6681 C   0  0  0  0  0  0  0  0  0  0  0  0
  -30.2090  -22.0152   17.8415 N   0  0  0  0  0  0  0  0  0  0  0  0
  -26.1554  -11.4609   20.7994 N   0  0  0  0  0  0  0  0  0  0  0  0
  -27.1926  -12.0064   21.4571 N   0  0  0  0  0  0  0  0  0  0  0  0
  -22.8899  -29.6020   21.0600 N   0  0  0  0  0  0  0  0  0  0  0  0
  -28.6923  -15.2197   20.0362 N   0  0  0  0  0  0  0  0  0  0  0  0
  -30.2288  -17.0528   20.0022 N   0  0  0  0  0  0  0  0  0  0  0  0
  -28.2244  -12.1316   23.5856 N   0  0  0  0  0  0  0  0  0  0  0  0
  -24.6781   -9.4291   24.3041 N   0  0  0  0  0  0  0  0  0  0  0  0
  -30.0760  -21.2527   20.0517 N   0  0  0  0  0  0  0  0  0  0  0  0
  -24.7483  -31.0470   23.8448 N   0  0  0  0  0  0  0  0  0  0  0  0
  -20.0237  -29.1224   19.3241 N   0  0  0  0  0  0  0  0  0  0  0  0
  -20.3627  -29.0931   15.7253 N   0  3  0  0  0  0  0  0  0  0  0  0
  -26.4806  -10.4396   25.2983 O   0  0  0  0  0  0  0  0  0  0  0  0
  -23.4968  -29.1146   23.4951 O   0  0  0  0  0  0  0  0  0  0  0  0
  -20.9844  -30.9158   21.3415 O   0  0  0  0  0  0  0  0  0  0  0  0
  -21.0990  -27.5727   17.9753 O   0  0  0  0  0  0  0  0  0  0  0  0
  -29.7532  -15.9265   21.9566 O   0  0  0  0  0  0  0  0  0  0  0  0
  -20.9192   -7.8489   20.5082 O   0  0  0  0  0  0  0  0  0  0  0  0
  -27.5652  -25.9051   19.3774 O   0  0  0  0  0  0  0  0  0  1  0  0
  -20.5360   -2.6964   22.4339 F   0  0  0  0  0  0  0  0  0  0  0  0
  -20.9809   -7.3419   23.2252 F   0  0  0  0  0  0  0  0  0  0  0  0
  1  2  1  0  0  0  0
  1  5  2  0  0  0  0
  2  6  2  0  0  0  0
  3  8  2  0  0  0  0
  3 17  1  0  0  0  0
  4  9  1  0  0  0  0
  4 17  2  0  0  0  0
  5 19  1  0  0  0  0
  6 21  1  0  0  0  0
  7 10  2  0  0  0  0
  7 20  1  0  0  0  0
  8 25  1  0  0  0  0
  9 25  2  0  0  0  0
 10 26  1  0  0  0  0
 11 12  2  0  0  0  0
 11 27  1  0  0  0  0
 12 28  1  0  0  0  0
 13 16  2  0  0  0  0
 13 23  1  0  0  0  0
 14 22  1  0  0  0  0
 14 26  2  0  0  0  0
 15 28  2  0  0  0  0
 15 29  1  0  0  0  0
 16 65  1  0  0  0  0
 17 30  1  0  0  0  0
 18 30  1  0  0  0  0
 18 32  2  0  0  0  0
 18 33  1  0  0  0  0
 19 21  2  0  0  0  0
 19 38  1  0  0  0  0
 20 22  2  0  0  0  0
 20 39  1  0  0  0  0
 21 51  1  0  0  0  0
 22 40  1  0  0  0  0
 23 24  2  0  0  0  0
 23 61  1  0  0  0  0
 24 31  1  0  0  0  0
 24 55  1  0  0  0  0
 25 82  1  0  0  0  0
 26 83  1  0  0  0  0
 27 29  2  0  0  0  0
 27 82  1  0  0  0  0
 28 84  1  0  0  0  0
 29 85  1  0  0  0  0
 30 66  2  0  0  0  0
 31 65  2  0  0  0  0
 31 73  1  0  0  0  0
 32 67  1  0  0  0  0
 32 71  1  0  0  0  0
 33 72  1  0  0  0  0
 33 77  2  0  0  0  0
 34 52  1  0  0  0  0
 34 74  1  0  0  0  0
 34 78  2  0  0  0  0
 35 62  1  0  0  0  0
 35 68  1  0  0  0  0
 35 79  2  0  0  0  0
 36 63  1  0  0  0  0
 36 75  1  0  0  0  0
 36 80  2  0  0  0  0
 37 69  1  0  0  0  0
 37 70  1  0  0  0  0
 37 81  2  0  0  0  0
 38 41  1  0  0  0  0
 39 52  1  0  0  0  0
 40 68  1  0  0  0  0
 41 43  1  0  0  0  0
 42 44  1  0  0  0  0
 42 47  1  0  0  0  0
 43 51  1  0  0  0  0
 44 53  1  0  0  0  0
 45 48  1  0  0  0  0
 45 54  1  0  0  0  0
 46 49  1  0  0  0  0
 46 54  1  0  0  0  0
 47 69  1  0  0  0  0
 48 70  1  0  0  0  0
 49 70  1  0  0  0  0
 50 53  1  0  0  0  0
 50 69  1  0  0  0  0
 51 74  1  0  0  0  0
 52 68  1  0  0  0  0
 53 67  1  0  0  0  0
 54 73  1  0  0  0  0
 56 63  1  0  0  0  0
 57 64  1  0  0  0  0
 58 64  1  0  0  0  0
 59 64  1  0  0  0  0
 60 76  1  0  0  0  0
 61 83  1  0  0  0  0
 62 64  1  0  0  0  0
 62 75  1  0  0  0  0
 63 76  1  0  0  0  0
 66 67  1  0  0  0  0
M  CHG  1  76   1
M  ISO  4  37 100  61 101  70 100  83 101
M  END
> <Batch ID>
0164

> <Smiles>
CNC(C)C(=O)NC(C(=O)N1Cc2cc([101O:1][101CH2:1]c3ccnc(NC4CC[100N:0]([100C:0](=O)N5CCCC(n6nc(-c7ccc(Oc8ccc(F)cc8F)cc7)c(C(N)=O)c6N)C5)CC4)c3C)ccc2CC1C(=O)NC1CCCc2ccccc21)C(C)(C)C

> <Shape>
0.349

> <Color>
0.093

> <Negative vol penalty>
0.000

$$$$

  -OEChem-04052322193D

 89 98  0     1  0  0  0  0  0999 V2000
  -19.1060  -24.8469   24.1974 C   0  0  0  0  0  0  0  0  0  0  0  0
  -20.1889  -24.7112   23.3346 C   0  0  0  0  0  0  0  0  0  0  0  0
  -23.4265  -10.3383   21.8887 C   0  0  0  0  0  0  0  0  0  0  0  0
  -24.9356   -8.4575   22.0379 C   0  0  0  0  0  0  0  0  0  0  0  0
  -18.4104  -26.0538   24.2567 C   0  0  0  0  0  0  0  0  0  0  0  0
  -20.5761  -25.7821   22.5298 C   0  0  0  0  0  0  0  0  0  0  0  0
  -25.5916  -26.4815   22.5075 C   0  0  0  0  0  0  0  0  0  0  0  0
  -22.3585   -9.4651   21.6829 C   0  0  0  0  0  0  0  0  0  0  0  0
  -23.8675   -7.5843   21.8321 C   0  0  0  0  0  0  0  0  0  0  0  0
  -26.3509  -25.6211   21.7156 C   0  0  0  0  0  0  0  0  0  0  0  0
  -21.4826   -4.8430   21.7058 C   0  0  0  0  0  0  0  0  0  0  0  0
  -21.3974   -3.7172   22.5248 C   0  0  0  0  0  0  0  0  0  0  0  0
  -26.4788  -27.3177   20.0055 C   0  0  0  0  0  0  0  0  0  0  0  0
  -30.3331  -20.8707   15.8081 C   0  0  0  0  0  0  0  0  0  0  0  0
  -21.2529   -5.1431   24.4698 C   0  0  0  0  0  0  0  0  0  0  0  0
  -24.7151   -9.8346   22.0661 C   0  0  0  0  0  0  0  0  0  0  0  0
  -26.2981  -11.2181   23.5110 C   0  0  0  0  0  0  0  0  0  0  0  0
  -18.7952  -27.1431   23.4592 C   0  0  0  0  0  0  0  0  0  0  0  0
  -25.2604  -27.7646   22.0489 C   0  0  0  0  0  0  0  0  0  0  0  0
  -19.8841  -27.0042   22.5775 C   0  0  0  0  0  0  0  0  0  0  0  0
  -25.7173  -28.1933   20.7945 C   0  0  0  0  0  0  0  0  0  0  0  0
  -30.2542  -21.5930   14.6175 C   0  0  0  0  0  0  0  0  0  0  0  0
  -29.7376  -22.8887   14.6207 C   0  0  0  0  0  0  0  0  0  0  0  0
  -29.2997  -23.4619   15.8146 C   0  0  0  0  0  0  0  0  0  0  0  0
  -29.8952  -21.4439   17.0020 C   0  0  0  0  0  0  0  0  0  0  0  0
  -22.5790   -8.0881   21.6547 C   0  0  0  0  0  0  0  0  0  0  0  0
  -26.7922  -26.0381   20.4632 C   0  0  0  0  0  0  0  0  0  0  0  0
  -21.4531   -6.1189   22.2687 C   0  0  0  0  0  0  0  0  0  0  0  0
  -29.3785  -22.7395   17.0052 C   0  0  0  0  0  0  0  0  0  0  0  0
  -21.2825   -3.8672   23.9068 C   0  0  0  0  0  0  0  0  0  0  0  0
  -21.3382   -6.2690   23.6507 C   0  0  0  0  0  0  0  0  0  0  0  0
  -25.8189  -10.7361   22.2782 C   0  0  0  0  0  0  0  0  0  0  0  0
  -27.3502  -12.0346   23.1749 C   0  0  0  0  0  0  0  0  0  0  0  0
  -25.8337  -10.9516   24.8410 C   0  0  0  0  0  0  0  0  0  0  0  0
  -22.5442  -29.2839   21.4028 C   0  0  0  0  0  0  0  0  0  0  0  0
  -24.5195  -31.8211   20.9749 C   0  0  0  0  0  0  0  0  0  0  0  0
  -27.6533  -32.9637   20.2535 C   0  0  0  0  0  0  0  0  0  0  0  0
  -29.6653  -15.8793   20.2314 C   0  0  0  0  0  0  0  0  0  0  0  0
  -17.9833  -28.4125   23.5234 C   0  0  0  0  0  0  0  0  0  0  0  0
  -24.4631  -28.6903   22.9263 C   0  0  0  0  0  0  0  0  0  0  0  0
  -25.4060  -29.5683   20.2646 C   0  0  0  0  0  0  0  0  0  0  0  0
  -18.6900  -29.6191   22.9111 C   0  0  0  0  0  0  0  0  0  0  0  0
  -29.7571  -12.6829   18.7811 C   0  0  0  0  0  0  0  0  0  0  0  0
  -19.2950  -29.2541   21.5592 C   0  0  0  0  0  0  0  0  0  0  0  0
  -28.7712  -11.9200   19.6655 C   0  0  0  0  0  0  0  0  0  0  0  0
  -29.4397  -18.3787   17.7636 C   0  0  0  0  0  0  0  0  0  0  0  0
  -30.9383  -19.0540   19.6783 C   0  0  0  0  0  0  0  0  0  0  0  0
  -29.2708  -14.0997   18.4706 C   0  0  0  0  0  0  0  0  0  0  0  0
  -29.9018  -16.9288   17.9359 C   0  0  0  0  0  0  0  0  0  0  0  0
  -31.3903  -17.6009   19.7938 C   0  0  0  0  0  0  0  0  0  0  0  0
  -27.9419  -14.1302   20.5567 C   0  0  0  0  0  0  0  0  0  0  0  0
  -20.3499  -28.1509   21.7067 C   0  0  1  0  0  0  0  0  0  0  0  0
  -23.7499  -29.7886   22.1438 C   0  0  1  0  0  0  0  0  0  0  0  0
  -28.4310  -12.7232   20.9336 C   0  0  1  0  0  0  0  0  0  0  0  0
  -30.5031  -19.3688   18.2447 C   0  0  0  0  0  0  0  0  0  0  0  0
  -30.7298  -20.9566   13.3527 C   0  0  0  0  0  0  0  0  0  0  0  0
  -29.6531  -23.6622   13.3430 C   0  0  0  0  0  0  0  0  0  0  0  0
  -28.7443  -24.8509   15.8243 C   0  0  0  0  0  0  0  0  0  0  0  0
  -28.9515  -35.0881   19.9386 C   0  0  0  0  0  0  0  0  0  0  0  0
  -23.2490  -32.1871   18.2250 C   0  0  0  0  0  0  0  0  0  0  0  0
  -25.1786  -33.6575   17.6062 C   0  0  0  0  0  0  0  0  0  0  0  0
  -23.6618  -34.3136   19.4748 C   0  0  0  0  0  0  0  0  0  0  0  0
  -29.4725  -32.3212   22.4978 C   0  0  0  0  0  0  0  0  0  0  0  0
  -27.2983  -23.8006   19.8361 C   0  0  0  0  0  0  0  0  0  1  0  0
  -27.5817  -23.1017   18.5205 C   0  0  0  0  0  0  0  0  0  0  0  0
  -25.2795  -32.3990   19.8055 C   0  0  1  0  0  0  0  0  0  0  0  0
  -28.5223  -34.0123   20.9241 C   0  0  2  0  0  0  0  0  0  0  0  0
  -24.3466  -33.1127   18.7868 C   0  0  0  0  0  0  0  0  0  0  0  0
  -26.5097  -11.2072   21.2366 N   0  0  0  0  0  0  0  0  0  0  0  0
  -27.4337  -11.9938   21.8142 N   0  0  0  0  0  0  0  0  0  0  0  0
  -24.6180  -30.4344   21.1571 N   0  0  0  0  0  0  0  0  0  0  0  0
  -28.9205  -14.8123   19.7072 N   0  0  0  0  0  0  0  0  0  0  0  0
  -30.3536  -16.6867   19.3136 N   0  0  0  0  0  0  0  0  0  0  0  0
  -28.2027  -12.7762   23.9135 N   0  0  0  0  0  0  0  0  0  0  0  0
  -24.7414  -10.0893   25.0071 N   0  0  0  0  0  0  0  0  0  0  0  0
  -29.9791  -20.7151   18.1750 N   0  0  0  0  0  0  0  0  0  0  0  0
  -21.5890  -28.7009   22.2134 N   0  0  0  0  0  0  0  0  0  0  0  0
  -26.3118  -33.2587   20.3744 N   0  0  0  0  0  0  0  0  0  0  0  0
  -29.7465  -33.3825   21.4950 N   0  3  0  0  0  0  0  0  0  0  0  0
  -26.3612  -11.4759   25.8512 O   0  0  0  0  0  0  0  0  0  0  0  0
  -22.4842  -29.4152   20.1859 O   0  0  0  0  0  0  0  0  0  0  0  0
  -23.8683  -32.5733   21.7041 O   0  0  0  0  0  0  0  0  0  0  0  0
  -28.1182  -31.9831   19.6766 O   0  0  0  0  0  0  0  0  0  0  0  0
  -29.7125  -16.0982   21.4484 O   0  0  0  0  0  0  0  0  0  0  0  0
  -21.5370   -7.2357   21.4542 O   0  0  0  0  0  0  0  0  0  0  0  0
  -27.5380  -25.1944   19.6828 O   0  0  0  0  0  0  0  0  0  1  0  0
  -28.9494  -23.3007   18.1728 O   0  0  0  0  0  0  0  0  0  0  0  0
  -21.1992   -2.7860   24.6931 F   0  0  0  0  0  0  0  0  0  0  0  0
  -21.3080   -7.4922   24.1972 F   0  0  0  0  0  0  0  0  0  0  0  0
  1  2  1  0  0  0  0
  1  5  2  0  0  0  0
  2  6  2  0  0  0  0
  3  8  2  0  0  0  0
  3 16  1  0  0  0  0
  4  9  1  0  0  0  0
  4 16  2  0  0  0  0
  5 18  1  0  0  0  0
  6 20  1  0  0  0  0
  7 10  2  0  0  0  0
  7 19  1  0  0  0  0
  8 26  1  0  0  0  0
  9 26  2  0  0  0  0
 10 27  1  0  0  0  0
 11 12  2  0  0  0  0
 11 28  1  0  0  0  0
 12 30  1  0  0  0  0
 13 21  1  0  0  0  0
 13 27  2  0  0  0  0
 14 22  1  0  0  0  0
 14 25  2  0  0  0  0
 15 30  2  0  0  0  0
 15 31  1  0  0  0  0
 16 32  1  0  0  0  0
 17 32  1  0  0  0  0
 17 33  2  0  0  0  0
 17 34  1  0  0  0  0
 18 20  2  0  0  0  0
 18 39  1  0  0  0  0
 19 21  2  0  0  0  0
 19 40  1  0  0  0  0
 20 52  1  0  0  0  0
 21 41  1  0  0  0  0
 22 23  2  0  0  0  0
 22 56  1  0  0  0  0
 23 24  1  0  0  0  0
 23 57  1  0  0  0  0
 24 29  2  0  0  0  0
 24 58  1  0  0  0  0
 25 29  1  0  0  0  0
 25 76  1  0  0  0  0
 26 85  1  0  0  0  0
 27 86  1  0  0  0  0
 28 31  2  0  0  0  0
 28 85  1  0  0  0  0
 29 87  1  0  0  0  0
 30 88  1  0  0  0  0
 31 89  1  0  0  0  0
 32 69  2  0  0  0  0
 33 70  1  0  0  0  0
 33 74  1  0  0  0  0
 34 75  1  0  0  0  0
 34 80  2  0  0  0  0
 35 53  1  0  0  0  0
 35 77  1  0  0  0  0
 35 81  2  0  0  0  0
 36 66  1  0  0  0  0
 36 71  1  0  0  0  0
 36 82  2  0  0  0  0
 37 67  1  0  0  0  0
 37 78  1  0  0  0  0
 37 83  2  0  0  0  0
 38 72  1  0  0  0  0
 38 73  1  0  0  0  0
 38 84  2  0  0  0  0
 39 42  1  0  0  0  0
 40 53  1  0  0  0  0
 41 71  1  0  0  0  0
 42 44  1  0  0  0  0
 43 45  1  0  0  0  0
 43 48  1  0  0  0  0
 44 52  1  0  0  0  0
 45 54  1  0  0  0  0
 46 49  1  0  0  0  0
 46 55  1  0  0  0  0
 47 50  1  0  0  0  0
 47 55  1  0  0  0  0
 48 72  1  0  0  0  0
 49 73  1  0  0  0  0
 50 73  1  0  0  0  0
 51 54  1  0  0  0  0
 51 72  1  0  0  0  0
 52 77  1  0  0  0  0
 53 71  1  0  0  0  0
 54 70  1  0  0  0  0
 55 76  1  0  0  0  0
 59 67  1  0  0  0  0
 60 68  1  0  0  0  0
 61 68  1  0  0  0  0
 62 68  1  0  0  0  0
 63 79  1  0  0  0  0
 64 65  1  0  0  0  0
 64 86  1  0  0  0  0
 65 87  1  0  0  0  0
 66 68  1  0  0  0  0
 66 78  1  0  0  0  0
 67 79  1  0  0  0  0
 69 70  1  0  0  0  0
M  CHG  1  79   1
M  ISO  4  38 100  64 101  73 100  86 101
M  END
> <Batch ID>
0164

> <Smiles>
CNC(C)C(=O)NC(C(=O)N1Cc2cc([101O:1][101CH2:1]COc3c(NC4CC[100N:0]([100C:0](=O)N5CCCC(n6nc(-c7ccc(Oc8ccc(F)cc8F)cc7)c(C(N)=O)c6N)C5)CC4)cc(C)c(C)c3C)ccc2CC1C(=O)NC1CCCc2ccccc21)C(C)(C)C

> <Shape>
0.262

> <Color>
0.104

> <Negative vol penalty>
0.000

$$$$

  -OEChem-04052322193D

 90 99  0     1  0  0  0  0  0999 V2000
  -18.7980  -25.4880   23.8278 C   0  0  0  0  0  0  0  0  0  0  0  0
  -19.8746  -25.3530   22.9571 C   0  0  0  0  0  0  0  0  0  0  0  0
  -23.2133  -10.5956   20.9548 C   0  0  0  0  0  0  0  0  0  0  0  0
  -24.6801   -9.0357   22.0737 C   0  0  0  0  0  0  0  0  0  0  0  0
  -18.1408  -26.7127   23.9373 C   0  0  0  0  0  0  0  0  0  0  0  0
  -20.2939  -26.4425   22.1945 C   0  0  0  0  0  0  0  0  0  0  0  0
  -25.3289  -26.9844   22.1850 C   0  0  0  0  0  0  0  0  0  0  0  0
  -22.2234   -9.6153   20.8858 C   0  0  0  0  0  0  0  0  0  0  0  0
  -23.6902   -8.0554   22.0048 C   0  0  0  0  0  0  0  0  0  0  0  0
  -26.0594  -26.1330   21.3572 C   0  0  0  0  0  0  0  0  0  0  0  0
  -20.8518   -7.2635   23.6592 C   0  0  0  0  0  0  0  0  0  0  0  0
  -20.6106   -6.5065   24.8057 C   0  0  0  0  0  0  0  0  0  0  0  0
  -26.2376  -27.8917   19.7158 C   0  0  0  0  0  0  0  0  0  0  0  0
  -21.1781   -4.4936   23.5960 C   0  0  0  0  0  0  0  0  0  0  0  0
  -24.4417  -10.3058   21.5487 C   0  0  0  0  0  0  0  0  0  0  0  0
  -25.6676  -12.2505   22.6545 C   0  0  0  0  0  0  0  0  0  0  0  0
  -18.5584  -27.8204   23.1828 C   0  0  0  0  0  0  0  0  0  0  0  0
  -25.0374  -28.2946   21.7791 C   0  0  0  0  0  0  0  0  0  0  0  0
  -19.6408  -27.6829   22.2930 C   0  0  0  0  0  0  0  0  0  0  0  0
  -25.5054  -28.7586   20.5414 C   0  0  0  0  0  0  0  0  0  0  0  0
  -30.3204  -23.4634   17.4878 C   0  0  0  0  0  0  0  0  0  0  0  0
  -29.8239  -22.2926   16.9148 C   0  0  0  0  0  0  0  0  0  0  0  0
  -29.5555  -24.1614   18.4224 C   0  0  0  0  0  0  0  0  0  0  0  0
  -27.7973  -22.5180   18.2108 C   0  0  0  0  0  0  0  0  0  0  0  0
  -28.5623  -21.8199   17.2763 C   0  0  0  0  0  0  0  0  0  0  0  0
  -28.2940  -23.6887   18.7838 C   0  0  0  0  0  0  0  0  0  0  0  0
  -22.4618   -8.3453   21.4109 C   0  0  0  0  0  0  0  0  0  0  0  0
  -26.5114  -26.5857   20.1212 C   0  0  0  0  0  0  0  0  0  0  0  0
  -21.2561   -6.6355   22.4811 C   0  0  0  0  0  0  0  0  0  0  0  0
  -20.7737   -5.1216   24.7741 C   0  0  0  0  0  0  0  0  0  0  0  0
  -21.4193   -5.2506   22.4495 C   0  0  0  0  0  0  0  0  0  0  0  0
  -25.4648  -11.3178   21.6197 C   0  0  0  0  0  0  0  0  0  0  0  0
  -26.7568  -12.9822   22.2486 C   0  0  0  0  0  0  0  0  0  0  0  0
  -24.9369  -12.4386   23.8736 C   0  0  0  0  0  0  0  0  0  0  0  0
  -22.3693  -29.9231   21.2023 C   0  0  0  0  0  0  0  0  0  0  0  0
  -24.4228  -32.4121   20.8701 C   0  0  0  0  0  0  0  0  0  0  0  0
  -27.5898  -33.4837   20.1855 C   0  0  0  0  0  0  0  0  0  0  0  0
  -29.6758  -15.6596   18.4623 C   0  0  0  0  0  0  0  0  0  0  0  0
  -17.7870  -29.1111   23.3001 C   0  0  0  0  0  0  0  0  0  0  0  0
  -24.2713  -29.2090   22.6951 C   0  0  0  0  0  0  0  0  0  0  0  0
  -25.2367  -30.1628   20.0678 C   0  0  0  0  0  0  0  0  0  0  0  0
  -18.5302  -30.3185   22.7343 C   0  0  0  0  0  0  0  0  0  0  0  0
  -30.0307  -12.2198   18.4788 C   0  0  0  0  0  0  0  0  0  0  0  0
  -19.1211  -29.9890   21.3671 C   0  0  0  0  0  0  0  0  0  0  0  0
  -28.8944  -11.7407   19.3816 C   0  0  0  0  0  0  0  0  0  0  0  0
  -29.5651  -13.3521   17.5708 C   0  0  0  0  0  0  0  0  0  0  0  0
  -27.8593  -14.0589   19.2169 C   0  0  0  0  0  0  0  0  0  0  0  0
  -27.5558  -16.9816   18.0483 C   0  0  0  0  0  0  0  0  0  0  0  0
  -29.4825  -19.1657   18.0963 C   0  0  0  0  0  0  0  0  0  0  0  0
  -20.1410  -28.8483   21.4673 C   0  0  1  0  0  0  0  0  0  0  0  0
  -23.5916  -30.3597   21.9592 C   0  0  1  0  0  0  0  0  0  0  0  0
  -28.2773  -12.9145   20.1625 C   0  0  1  0  0  0  0  0  0  0  0  0
  -29.5291  -18.0467   19.1336 C   0  0  1  0  0  0  0  0  0  0  0  0
  -27.4913  -18.1022   17.0003 C   0  0  1  0  0  0  0  0  0  0  0  0
  -31.6746  -23.9696   17.1016 C   0  0  0  0  0  0  0  0  0  0  0  0
  -30.6455  -21.5429   15.9139 C   0  0  0  0  0  0  0  0  0  0  0  0
  -30.0886  -25.4168   19.0380 C   0  0  0  0  0  0  0  0  0  0  0  0
  -26.4440  -22.0103   18.5982 C   0  0  0  0  0  0  0  0  0  0  0  0
  -28.9041  -18.4500   20.4722 C   0  0  0  0  0  0  0  0  0  0  0  0
  -26.0422  -18.3181   16.5675 C   0  0  0  0  0  0  0  0  0  0  0  0
  -28.9537  -35.5771   19.9518 C   0  0  0  0  0  0  0  0  0  0  0  0
  -23.1597  -32.9275   18.1408 C   0  0  0  0  0  0  0  0  0  0  0  0
  -25.1336  -34.3602   17.5755 C   0  0  0  0  0  0  0  0  0  0  0  0
  -23.6415  -34.9883   19.4733 C   0  0  0  0  0  0  0  0  0  0  0  0
  -29.3917  -32.6951   22.3969 C   0  0  0  0  0  0  0  0  0  0  0  0
  -28.0281  -20.5611   16.6592 C   0  0  0  0  0  0  0  0  0  0  0  0
  -27.4735  -24.4365   19.7872 C   0  0  0  0  0  0  0  0  0  1  0  0
  -25.1986  -33.0122   19.7225 C   0  0  1  0  0  0  0  0  0  0  0  0
  -28.4926  -34.4767   20.8949 C   0  0  2  0  0  0  0  0  0  0  0  0
  -24.2869  -33.7949   18.7358 C   0  0  0  0  0  0  0  0  0  0  0  0
  -26.3538  -11.4435   20.6307 N   0  0  0  0  0  0  0  0  0  0  0  0
  -27.1256  -12.4638   21.0422 N   0  0  0  0  0  0  0  0  0  0  0  0
  -24.4780  -31.0168   20.9965 N   0  0  0  0  0  0  0  0  0  0  0  0
  -28.9812  -14.4455   18.3476 N   0  0  0  0  0  0  0  0  0  0  0  0
  -28.9036  -16.8243   18.6105 N   0  0  0  0  0  0  0  0  0  0  0  0
  -27.4254  -14.0122   22.8094 N   0  0  0  0  0  0  0  0  0  0  0  0
  -23.8448  -11.5997   24.1341 N   0  0  0  0  0  0  0  0  0  0  0  0
  -21.3976  -29.3384   21.9918 N   0  0  0  0  0  0  0  0  0  0  0  0
  -26.2585  -33.8156   20.3221 N   0  0  0  0  0  0  0  0  0  0  0  0
  -28.0685  -19.3791   17.5973 N   0  3  2  0  0  0  0  0  0  0  0  0
  -29.6973  -33.7865   21.4365 N   0  3  0  0  0  0  0  0  0  0  0  0
  -25.2332  -13.3350   24.6995 O   0  0  0  0  0  0  0  0  0  0  0  0
  -22.3114  -30.1047   19.9918 O   0  0  0  0  0  0  0  0  0  0  0  0
  -23.7969  -33.1546   21.6307 O   0  0  0  0  0  0  0  0  0  0  0  0
  -28.0225  -32.5128   19.5685 O   0  0  0  0  0  0  0  0  0  0  0  0
  -30.9122  -15.6993   18.4332 O   0  0  0  0  0  0  0  0  0  0  0  0
  -21.4960   -7.3885   21.3440 O   0  0  0  0  0  0  0  0  0  0  0  0
  -27.2293  -25.7503   19.3049 O   0  0  0  0  0  0  0  0  0  1  0  0
  -20.5435   -4.3950   25.8756 F   0  0  0  0  0  0  0  0  0  0  0  0
  -21.8086   -4.6418   21.3210 F   0  0  0  0  0  0  0  0  0  0  0  0
  1  2  1  0  0  0  0
  1  5  2  0  0  0  0
  2  6  2  0  0  0  0
  3  8  2  0  0  0  0
  3 15  1  0  0  0  0
  4  9  1  0  0  0  0
  4 15  2  0  0  0  0
  5 17  1  0  0  0  0
  6 19  1  0  0  0  0
  7 10  2  0  0  0  0
  7 18  1  0  0  0  0
  8 27  1  0  0  0  0
  9 27  2  0  0  0  0
 10 28  1  0  0  0  0
 11 12  2  0  0  0  0
 11 29  1  0  0  0  0
 12 30  1  0  0  0  0
 13 20  1  0  0  0  0
 13 28  2  0  0  0  0
 14 30  2  0  0  0  0
 14 31  1  0  0  0  0
 15 32  1  0  0  0  0
 16 32  1  0  0  0  0
 16 33  2  0  0  0  0
 16 34  1  0  0  0  0
 17 19  2  0  0  0  0
 17 39  1  0  0  0  0
 18 20  2  0  0  0  0
 18 40  1  0  0  0  0
 19 50  1  0  0  0  0
 20 41  1  0  0  0  0
 21 22  1  0  0  0  0
 21 23  2  0  0  0  0
 21 55  1  0  0  0  0
 22 25  2  0  0  0  0
 22 56  1  0  0  0  0
 23 26  1  0  0  0  0
 23 57  1  0  0  0  0
 24 25  1  0  0  0  0
 24 26  2  0  0  0  0
 24 58  1  0  0  0  0
 25 66  1  0  0  0  0
 26 67  1  0  0  0  0
 27 87  1  0  0  0  0
 28 88  1  0  0  0  0
 29 31  2  0  0  0  0
 29 87  1  0  0  0  0
 30 89  1  0  0  0  0
 31 90  1  0  0  0  0
 32 71  2  0  0  0  0
 33 72  1  0  0  0  0
 33 76  1  0  0  0  0
 34 77  1  0  0  0  0
 34 82  2  0  0  0  0
 35 51  1  0  0  0  0
 35 78  1  0  0  0  0
 35 83  2  0  0  0  0
 36 68  1  0  0  0  0
 36 73  1  0  0  0  0
 36 84  2  0  0  0  0
 37 69  1  0  0  0  0
 37 79  1  0  0  0  0
 37 85  2  0  0  0  0
 38 74  1  0  0  0  0
 38 75  1  0  0  0  0
 38 86  2  0  0  0  0
 39 42  1  0  0  0  0
 40 51  1  0  0  0  0
 41 73  1  0  0  0  0
 42 44  1  0  0  0  0
 43 45  1  0  0  0  0
 43 46  1  0  0  0  0
 44 50  1  0  0  0  0
 45 52  1  0  0  0  0
 46 74  1  0  0  0  0
 47 52  1  0  0  0  0
 47 74  1  0  0  0  0
 48 54  1  0  0  0  0
 48 75  1  0  0  0  0
 49 53  1  0  0  0  0
 49 80  1  0  0  0  0
 50 78  1  0  0  0  0
 51 73  1  0  0  0  0
 52 72  1  0  0  0  0
 53 59  1  0  0  0  0
 53 75  1  0  0  0  0
 54 60  1  0  0  0  0
 54 80  1  0  0  0  0
 61 69  1  0  0  0  0
 62 70  1  0  0  0  0
 63 70  1  0  0  0  0
 64 70  1  0  0  0  0
 65 81  1  0  0  0  0
 66 80  1  0  0  0  0
 67 88  1  0  0  0  0
 68 70  1  0  0  0  0
 68 79  1  0  0  0  0
 69 81  1  0  0  0  0
 71 72  1  0  0  0  0
M  CHG  2  80   1  81   1
M  ISO  4  38 100  67 101  75 100  88 101
M  END
> <Batch ID>
0164

> <Smiles>
CNC(C)C(=O)NC(C(=O)N1Cc2cc([101O:1][101CH2:1]c3c(C)c(C)c(C)c(CN4CC(C)[100N:0]([100C:0](=O)N5CCCC(n6nc(-c7ccc(Oc8ccc(F)cc8F)cc7)c(C(N)=O)c6N)C5)CC4C)c3C)ccc2CC1C(=O)NC1CCCc2ccccc21)C(C)(C)C

> <Shape>
0.303

> <Color>
0.116

> <Negative vol penalty>
0.000

$$$$

  -OEChem-04052322193D

 89 98  0     1  0  0  0  0  0999 V2000
  -26.5800  -38.4837   22.7792 C   0  0  0  0  0  0  0  0  0  0  0  0
  -27.2160  -37.5465   21.9713 C   0  0  0  0  0  0  0  0  0  0  0  0
  -24.5384  -10.1817   23.1528 C   0  0  0  0  0  0  0  0  0  0  0  0
  -24.4719   -8.6732   21.2668 C   0  0  0  0  0  0  0  0  0  0  0  0
  -25.8565  -38.0642   23.8947 C   0  0  0  0  0  0  0  0  0  0  0  0
  -27.1296  -36.1892   22.2792 C   0  0  0  0  0  0  0  0  0  0  0  0
  -26.8919  -29.7560   19.1370 C   0  0  0  0  0  0  0  0  0  0  0  0
  -23.3934   -9.5799   23.6746 C   0  0  0  0  0  0  0  0  0  0  0  0
  -23.3268   -8.0713   21.7886 C   0  0  0  0  0  0  0  0  0  0  0  0
  -27.5234  -28.5137   19.1773 C   0  0  0  0  0  0  0  0  0  0  0  0
  -22.5746   -5.8158   24.1902 C   0  0  0  0  0  0  0  0  0  0  0  0
  -22.5187   -4.4221   24.1883 C   0  0  0  0  0  0  0  0  0  0  0  0
  -26.1798  -27.8994   21.0843 C   0  0  0  0  0  0  0  0  0  0  0  0
  -20.5399   -4.5035   22.8046 C   0  0  0  0  0  0  0  0  0  0  0  0
  -25.0776   -9.7284   21.9488 C   0  0  0  0  0  0  0  0  0  0  0  0
  -27.5982   -9.9865   21.6523 C   0  0  0  0  0  0  0  0  0  0  0  0
  -25.7532  -36.7004   24.2109 C   0  0  0  0  0  0  0  0  0  0  0  0
  -25.9057  -30.0840   20.0784 C   0  0  0  0  0  0  0  0  0  0  0  0
  -26.4051  -35.7512   23.4007 C   0  0  0  0  0  0  0  0  0  0  0  0
  -25.5356  -29.1456   21.0522 C   0  0  0  0  0  0  0  0  0  0  0  0
  -30.1935  -24.4290   20.4180 C   0  0  0  0  0  0  0  0  0  0  0  0
  -29.3170  -24.7337   19.3826 C   0  0  0  0  0  0  0  0  0  0  0  0
  -30.6752  -23.1318   20.5546 C   0  0  0  0  0  0  0  0  0  0  0  0
  -22.7876   -8.5247   22.9926 C   0  0  0  0  0  0  0  0  0  0  0  0
  -27.1694  -27.5862   20.1528 C   0  0  0  0  0  0  0  0  0  0  0  0
  -21.6131   -6.5534   23.4994 C   0  0  0  0  0  0  0  0  0  0  0  0
  -21.5014   -3.7659   23.4954 C   0  0  0  0  0  0  0  0  0  0  0  0
  -20.5958   -5.8972   22.8065 C   0  0  0  0  0  0  0  0  0  0  0  0
  -26.2601  -10.3501   21.4090 C   0  0  0  0  0  0  0  0  0  0  0  0
  -28.9558  -23.7136   18.5173 C   0  0  0  0  0  0  0  0  0  0  0  0
  -30.2530  -22.1834   19.6370 C   0  0  0  0  0  0  0  0  0  0  0  0
  -28.3361  -10.8778   20.9123 C   0  0  0  0  0  0  0  0  0  0  0  0
  -28.1268   -8.9370   22.4737 C   0  0  0  0  0  0  0  0  0  0  0  0
  -25.6064  -32.3055   22.3321 C   0  0  0  0  0  0  0  0  0  0  0  0
  -22.6183  -31.0725   22.6030 C   0  0  0  0  0  0  0  0  0  0  0  0
  -20.5297  -28.4121   22.1480 C   0  0  0  0  0  0  0  0  0  0  0  0
  -29.4999  -15.8089   19.1415 C   0  0  0  0  0  0  0  0  0  0  0  0
  -24.9993  -36.2985   25.4538 C   0  0  0  0  0  0  0  0  0  0  0  0
  -25.2151  -31.4182   20.0049 C   0  0  0  0  0  0  0  0  0  0  0  0
  -24.4685  -29.4411   22.0733 C   0  0  0  0  0  0  0  0  0  0  0  0
  -24.6448  -34.8143   25.4980 C   0  0  0  0  0  0  0  0  0  0  0  0
  -26.9287  -14.1978   17.3745 C   0  0  0  0  0  0  0  0  0  0  0  0
  -25.8540  -33.9652   25.1189 C   0  0  0  0  0  0  0  0  0  0  0  0
  -26.6270  -13.0126   18.2913 C   0  0  0  0  0  0  0  0  0  0  0  0
  -28.9717  -19.2871   19.2462 C   0  0  0  0  0  0  0  0  0  0  0  0
  -31.4076  -18.6954   18.9565 C   0  0  0  0  0  0  0  0  0  0  0  0
  -27.1843  -15.4828   18.1643 C   0  0  0  0  0  0  0  0  0  0  0  0
  -28.5922  -18.0605   18.4115 C   0  0  0  0  0  0  0  0  0  0  0  0
  -30.9825  -17.5009   18.1070 C   0  0  0  0  0  0  0  0  0  0  0  0
  -27.9275  -14.1647   20.1211 C   0  0  0  0  0  0  0  0  0  0  0  0
  -26.3141  -34.2682   23.6878 C   0  0  1  0  0  0  0  0  0  0  0  0
  -24.5880  -31.8402   21.3300 C   0  0  1  0  0  0  0  0  0  0  0  0
  -27.7236  -12.8466   19.3583 C   0  0  1  0  0  0  0  0  0  0  0  0
  -30.3617  -19.8105   18.8770 C   0  0  0  0  0  0  0  0  0  0  0  0
  -30.6166  -25.4933   21.3797 C   0  0  0  0  0  0  0  0  0  0  0  0
  -28.0173  -23.9802   17.3862 C   0  0  0  0  0  0  0  0  0  0  0  0
  -32.9839  -22.3048   21.1373 C   0  0  0  0  0  0  0  0  0  0  0  0
  -31.0287  -21.7355   22.6233 C   0  0  0  0  0  0  0  0  0  0  0  0
  -18.1517  -27.6919   22.4999 C   0  0  0  0  0  0  0  0  0  0  0  0
  -23.1671  -30.7254   25.5843 C   0  0  0  0  0  0  0  0  0  0  0  0
  -21.2039  -29.1756   25.6943 C   0  0  0  0  0  0  0  0  0  0  0  0
  -20.8739  -31.5590   25.0359 C   0  0  0  0  0  0  0  0  0  0  0  0
  -20.1102  -27.9786   19.2506 C   0  0  0  0  0  0  0  0  0  0  0  0
  -28.7836  -26.1163   19.2094 C   0  0  0  0  0  0  0  0  0  1  0  0
  -31.6167  -22.7828   21.6599 C   0  0  0  0  0  0  0  0  0  0  0  0
  -21.9871  -29.9684   23.4163 C   0  0  1  0  0  0  0  0  0  0  0  0
  -19.1464  -28.3115   21.5308 C   0  0  2  0  0  0  0  0  0  0  0  0
  -21.8295  -30.3520   24.9148 C   0  0  0  0  0  0  0  0  0  0  0  0
  -26.1513  -11.3912   20.5794 N   0  0  0  0  0  0  0  0  0  0  0  0
  -29.4028  -22.4417   18.6181 N   0  0  0  0  0  0  0  0  0  0  0  0
  -27.4304  -11.6896   20.2950 N   0  0  0  0  0  0  0  0  0  0  0  0
  -23.8270  -30.7617   21.9640 N   0  0  0  0  0  0  0  0  0  0  0  0
  -28.2080  -15.2646   19.1958 N   0  0  0  0  0  0  0  0  0  0  0  0
  -29.6456  -17.0376   18.4805 N   0  0  0  0  0  0  0  0  0  0  0  0
  -29.6648  -11.0385   20.7359 N   0  0  0  0  0  0  0  0  0  0  0  0
  -27.2284   -8.1131   23.1654 N   0  0  0  0  0  0  0  0  0  0  0  0
  -30.7261  -20.8898   19.7682 N   0  0  0  0  0  0  0  0  0  0  0  0
  -25.4452  -33.6191   22.7295 N   0  0  0  0  0  0  0  0  0  0  0  0
  -20.7327  -29.6362   22.7495 N   0  0  0  0  0  0  0  0  0  0  0  0
  -19.1883  -27.4724   20.2998 N   0  3  0  0  0  0  0  0  0  0  0  0
  -29.3598   -8.7461   22.6037 O   0  0  0  0  0  0  0  0  0  0  0  0
  -26.4732  -31.5297   22.7173 O   0  0  0  0  0  0  0  0  0  0  0  0
  -22.0559  -32.1680   22.5313 O   0  0  0  0  0  0  0  0  0  0  0  0
  -21.3468  -27.4951   22.1045 O   0  0  0  0  0  0  0  0  0  0  0  0
  -30.4668  -15.2311   19.6538 O   0  0  0  0  0  0  0  0  0  0  0  0
  -21.6704   -7.9370   23.5016 O   0  0  0  0  0  0  0  0  0  0  0  0
  -27.7889  -26.3647   20.1950 O   0  0  0  0  0  0  0  0  0  1  0  0
  -21.4487   -2.4275   23.4924 F   0  0  0  0  0  0  0  0  0  0  0  0
  -19.6699   -6.6003   22.1400 F   0  0  0  0  0  0  0  0  0  0  0  0
  1  2  1  0  0  0  0
  1  5  2  0  0  0  0
  2  6  2  0  0  0  0
  3  8  2  0  0  0  0
  3 15  1  0  0  0  0
  4  9  1  0  0  0  0
  4 15  2  0  0  0  0
  5 17  1  0  0  0  0
  6 19  1  0  0  0  0
  7 10  2  0  0  0  0
  7 18  1  0  0  0  0
  8 24  1  0  0  0  0
  9 24  2  0  0  0  0
 10 25  1  0  0  0  0
 11 12  2  0  0  0  0
 11 26  1  0  0  0  0
 12 27  1  0  0  0  0
 13 20  1  0  0  0  0
 13 25  2  0  0  0  0
 14 27  2  0  0  0  0
 14 28  1  0  0  0  0
 15 29  1  0  0  0  0
 16 29  1  0  0  0  0
 16 32  2  0  0  0  0
 16 33  1  0  0  0  0
 17 19  2  0  0  0  0
 17 38  1  0  0  0  0
 18 20  2  0  0  0  0
 18 39  1  0  0  0  0
 19 51  1  0  0  0  0
 20 40  1  0  0  0  0
 21 22  2  0  0  0  0
 21 23  1  0  0  0  0
 21 55  1  0  0  0  0
 22 30  1  0  0  0  0
 22 64  1  0  0  0  0
 23 31  2  0  0  0  0
 23 65  1  0  0  0  0
 24 86  1  0  0  0  0
 25 87  1  0  0  0  0
 26 28  2  0  0  0  0
 26 86  1  0  0  0  0
 27 88  1  0  0  0  0
 28 89  1  0  0  0  0
 29 69  2  0  0  0  0
 30 56  1  0  0  0  0
 30 70  2  0  0  0  0
 31 70  1  0  0  0  0
 31 77  1  0  0  0  0
 32 71  1  0  0  0  0
 32 75  1  0  0  0  0
 33 76  1  0  0  0  0
 33 81  2  0  0  0  0
 34 52  1  0  0  0  0
 34 78  1  0  0  0  0
 34 82  2  0  0  0  0
 35 66  1  0  0  0  0
 35 72  1  0  0  0  0
 35 83  2  0  0  0  0
 36 67  1  0  0  0  0
 36 79  1  0  0  0  0
 36 84  2  0  0  0  0
 37 73  1  0  0  0  0
 37 74  1  0  0  0  0
 37 85  2  0  0  0  0
 38 41  1  0  0  0  0
 39 52  1  0  0  0  0
 40 72  1  0  0  0  0
 41 43  1  0  0  0  0
 42 44  1  0  0  0  0
 42 47  1  0  0  0  0
 43 51  1  0  0  0  0
 44 53  1  0  0  0  0
 45 48  1  0  0  0  0
 45 54  1  0  0  0  0
 46 49  1  0  0  0  0
 46 54  1  0  0  0  0
 47 73  1  0  0  0  0
 48 74  1  0  0  0  0
 49 74  1  0  0  0  0
 50 53  1  0  0  0  0
 50 73  1  0  0  0  0
 51 78  1  0  0  0  0
 52 72  1  0  0  0  0
 53 71  1  0  0  0  0
 54 77  1  0  0  0  0
 57 65  1  0  0  0  0
 58 65  1  0  0  0  0
 59 67  1  0  0  0  0
 60 68  1  0  0  0  0
 61 68  1  0  0  0  0
 62 68  1  0  0  0  0
 63 80  1  0  0  0  0
 64 87  1  0  0  0  0
 66 68  1  0  0  0  0
 66 79  1  0  0  0  0
 67 80  1  0  0  0  0
 69 71  1  0  0  0  0
M  CHG  1  80   1
M  ISO  4  37 100  64 101  74 100  87 101
M  END
> <Batch ID>
0164

> <Smiles>
CNC(C)C(=O)NC(C(=O)N1Cc2cc([101O:1][101CH2:1]c3c(C)nc(NC4CC[100N:0]([100C:0](=O)N5CCCC(n6nc(-c7ccc(Oc8ccc(F)cc8F)cc7)c(C(N)=O)c6N)C5)CC4)c(C(C)C)c3C)ccc2CC1C(=O)NC1CCCc2ccccc21)C(C)(C)C

> <Shape>
0.329

> <Color>
0.102

> <Negative vol penalty>
0.000

$$$$

  -OEChem-04052322193D

 89 98  0     1  0  0  0  0  0999 V2000
  -21.4401  -33.8008   26.7977 C   0  0  0  0  0  0  0  0  0  0  0  0
  -22.0262  -32.6171   27.2345 C   0  0  0  0  0  0  0  0  0  0  0  0
  -23.4512   -9.7375   20.9340 C   0  0  0  0  0  0  0  0  0  0  0  0
  -24.0730  -10.4951   23.1423 C   0  0  0  0  0  0  0  0  0  0  0  0
  -21.0785  -33.9458   25.4590 C   0  0  0  0  0  0  0  0  0  0  0  0
  -22.2500  -31.5771   26.3329 C   0  0  0  0  0  0  0  0  0  0  0  0
  -26.9380  -27.6366   26.3479 C   0  0  0  0  0  0  0  0  0  0  0  0
  -22.8250   -8.6233   21.4926 C   0  0  0  0  0  0  0  0  0  0  0  0
  -23.4467   -9.3810   23.7009 C   0  0  0  0  0  0  0  0  0  0  0  0
  -27.0650  -26.3317   26.8221 C   0  0  0  0  0  0  0  0  0  0  0  0
  -19.9033   -7.9254   23.0449 C   0  0  0  0  0  0  0  0  0  0  0  0
  -18.6393   -7.5834   22.5643 C   0  0  0  0  0  0  0  0  0  0  0  0
  -28.6184  -21.2127   20.4947 C   0  0  0  0  0  0  0  0  0  0  0  0
  -28.7245  -18.8036   19.0231 C   0  0  0  0  0  0  0  0  0  0  0  0
  -26.6005  -25.4891   24.6099 C   0  0  0  0  0  0  0  0  0  0  0  0
  -19.4833   -5.4253   21.8803 C   0  0  0  0  0  0  0  0  0  0  0  0
  -24.0753  -10.6734   21.7589 C   0  0  0  0  0  0  0  0  0  0  0  0
  -24.1450  -13.0796   20.9146 C   0  0  0  0  0  0  0  0  0  0  0  0
  -21.3068  -32.9107   24.5386 C   0  0  0  0  0  0  0  0  0  0  0  0
  -26.6300  -27.8778   25.0013 C   0  0  0  0  0  0  0  0  0  0  0  0
  -21.8898  -31.7079   24.9809 C   0  0  0  0  0  0  0  0  0  0  0  0
  -29.3263  -20.1197   20.9716 C   0  0  0  0  0  0  0  0  0  0  0  0
  -29.3760  -18.9211   20.2420 C   0  0  0  0  0  0  0  0  0  0  0  0
  -26.4727  -26.7981   24.1206 C   0  0  0  0  0  0  0  0  0  0  0  0
  -27.9453  -21.0924   19.2773 C   0  0  0  0  0  0  0  0  0  0  0  0
  -27.9985  -19.8970   18.5464 C   0  0  0  0  0  0  0  0  0  0  0  0
  -22.8227   -8.4451   22.8760 C   0  0  0  0  0  0  0  0  0  0  0  0
  -26.8933  -25.2576   25.9537 C   0  0  0  0  0  0  0  0  0  0  0  0
  -20.9573   -7.0174   22.9431 C   0  0  0  0  0  0  0  0  0  0  0  0
  -18.4293   -6.3334   21.9820 C   0  0  0  0  0  0  0  0  0  0  0  0
  -20.7473   -5.7674   22.3609 C   0  0  0  0  0  0  0  0  0  0  0  0
  -24.7229  -11.8242   21.1824 C   0  0  0  0  0  0  0  0  0  0  0  0
  -25.1676  -13.8200   20.3736 C   0  0  0  0  0  0  0  0  0  0  0  0
  -22.8037  -13.5358   21.1352 C   0  0  0  0  0  0  0  0  0  0  0  0
  -24.2233  -29.2761   23.4663 C   0  0  0  0  0  0  0  0  0  0  0  0
  -26.1034  -28.7793   20.8700 C   0  0  0  0  0  0  0  0  0  0  0  0
  -28.6135  -26.9854   19.4111 C   0  0  0  0  0  0  0  0  0  0  0  0
  -30.4869  -15.5081   20.3825 C   0  0  0  0  0  0  0  0  0  0  0  0
  -20.8557  -33.0958   23.1114 C   0  0  0  0  0  0  0  0  0  0  0  0
  -26.5229  -29.2917   24.4997 C   0  0  0  0  0  0  0  0  0  0  0  0
  -26.1612  -27.0037   22.6615 C   0  0  0  0  0  0  0  0  0  0  0  0
  -21.4694  -32.0879   22.1430 C   0  0  0  0  0  0  0  0  0  0  0  0
  -29.7560  -12.4188   18.7705 C   0  0  0  0  0  0  0  0  0  0  0  0
  -21.3848  -30.6770   22.7164 C   0  0  0  0  0  0  0  0  0  0  0  0
  -28.3368  -12.0895   19.2371 C   0  0  0  0  0  0  0  0  0  0  0  0
  -30.2632  -18.4838   22.3691 C   0  0  0  0  0  0  0  0  0  0  0  0
  -30.5730  -13.0849   19.8754 C   0  0  0  0  0  0  0  0  0  0  0  0
  -28.5263  -13.9469   20.9438 C   0  0  0  0  0  0  0  0  0  0  0  0
  -30.1630  -20.0162   22.2180 C   0  0  2  0  0  0  0  0  0  0  0  0
  -22.1714  -30.5664   24.0281 C   0  0  1  0  0  0  0  0  0  0  0  0
  -30.2459  -17.9147   20.9387 C   0  0  1  0  0  0  0  0  0  0  0  0
  -25.6995  -29.4113   23.2209 C   0  0  1  0  0  0  0  0  0  0  0  0
  -27.6462  -13.3245   19.8464 C   0  0  2  0  0  0  0  0  0  0  0  0
  -27.1750  -22.2655   18.7628 C   0  0  0  0  0  0  0  0  0  0  0  0
  -27.2871  -19.7721   17.2378 C   0  0  0  0  0  0  0  0  0  0  0  0
  -29.9042  -26.7865   17.2682 C   0  0  0  0  0  0  0  0  0  0  0  0
  -31.6205  -21.6736   24.5136 C   0  0  0  0  0  0  0  0  0  0  0  0
  -23.7216  -27.3862   19.5675 C   0  0  0  0  0  0  0  0  0  0  0  0
  -25.3015  -26.4026   17.8929 C   0  0  0  0  0  0  0  0  0  0  0  0
  -25.0224  -28.8772   18.0380 C   0  0  0  0  0  0  0  0  0  0  0  0
  -31.1738  -27.6044   20.7604 C   0  0  0  0  0  0  0  0  0  0  0  0
  -29.5718  -20.6783   23.4532 C   0  0  0  0  0  0  0  0  0  0  0  0
  -28.4442  -22.3525   27.4555 C   0  0  0  0  0  0  0  0  0  0  0  0
  -29.7861  -20.8012   26.0301 C   0  0  0  0  0  0  0  0  0  0  0  0
  -27.9093  -23.7700   27.5063 C   0  0  0  0  0  0  0  0  0  1  0  0
  -26.2709  -27.6612   19.8695 C   0  0  1  0  0  0  0  0  0  0  0  0
  -29.8518  -27.4216   18.6490 C   0  0  2  0  0  0  0  0  0  0  0  0
  -30.5015  -20.6391   24.6818 C   0  0  2  0  0  0  0  0  0  0  0  0
  -25.0830  -27.5776   18.8698 C   0  0  0  0  0  0  0  0  0  0  0  0
  -26.0126  -11.7666   20.8396 N   0  0  0  0  0  0  0  0  0  0  0  0
  -26.2534  -12.9950   20.3508 N   0  0  0  0  0  0  0  0  0  0  0  0
  -26.0600  -28.4047   22.2204 N   0  0  0  0  0  0  0  0  0  0  0  0
  -29.8633  -14.2498   20.4095 N   0  0  0  0  0  0  0  0  0  0  0  0
  -25.2348  -15.0896   19.9198 N   0  0  0  0  0  0  0  0  0  0  0  0
  -21.8798  -12.6460   21.6999 N   0  0  0  0  0  0  0  0  0  0  0  0
  -23.5902  -30.4687   23.7598 N   0  0  0  0  0  0  0  0  0  0  0  0
  -27.5696  -27.8695   19.2383 N   0  0  0  0  0  0  0  0  0  0  0  0
  -29.7424  -16.5597   20.9026 N   0  0  0  0  0  0  0  0  0  0  0  0
  -31.0824  -27.0306   19.3932 N   0  3  0  0  0  0  0  0  0  0  0  0
  -29.1852  -22.1536   26.1844 N   0  3  0  0  0  0  0  0  0  0  0  0
  -22.4313  -14.6928   20.8253 O   0  0  0  0  0  0  0  0  0  0  0  0
  -23.6974  -28.1717   23.3932 O   0  0  0  0  0  0  0  0  0  0  0  0
  -26.0214  -29.9428   20.4685 O   0  0  0  0  0  0  0  0  0  0  0  0
  -28.5748  -25.9607   20.0887 O   0  0  0  0  0  0  0  0  0  0  0  0
  -31.6210  -15.6824   19.9237 O   0  0  0  0  0  0  0  0  0  0  0  0
  -22.2114   -7.3581   23.4214 O   0  0  0  0  0  0  0  0  0  0  0  0
  -27.0161  -23.9829   26.4141 O   0  0  0  0  0  0  0  0  0  1  0  0
  -17.2151   -6.0045   21.5220 F   0  0  0  0  0  0  0  0  0  0  0  0
  -21.7557   -4.8904   22.2614 F   0  0  0  0  0  0  0  0  0  0  0  0
  1  2  1  0  0  0  0
  1  5  2  0  0  0  0
  2  6  2  0  0  0  0
  3  8  2  0  0  0  0
  3 17  1  0  0  0  0
  4  9  1  0  0  0  0
  4 17  2  0  0  0  0
  5 19  1  0  0  0  0
  6 21  1  0  0  0  0
  7 10  2  0  0  0  0
  7 20  1  0  0  0  0
  8 27  1  0  0  0  0
  9 27  2  0  0  0  0
 10 28  1  0  0  0  0
 11 12  2  0  0  0  0
 11 29  1  0  0  0  0
 12 30  1  0  0  0  0
 13 22  1  0  0  0  0
 13 25  2  0  0  0  0
 14 23  1  0  0  0  0
 14 26  2  0  0  0  0
 15 24  1  0  0  0  0
 15 28  2  0  0  0  0
 16 30  2  0  0  0  0
 16 31  1  0  0  0  0
 17 32  1  0  0  0  0
 18 32  1  0  0  0  0
 18 33  2  0  0  0  0
 18 34  1  0  0  0  0
 19 21  2  0  0  0  0
 19 39  1  0  0  0  0
 20 24  2  0  0  0  0
 20 40  1  0  0  0  0
 21 50  1  0  0  0  0
 22 23  2  0  0  0  0
 22 49  1  0  0  0  0
 23 51  1  0  0  0  0
 24 41  1  0  0  0  0
 25 26  1  0  0  0  0
 25 54  1  0  0  0  0
 26 55  1  0  0  0  0
 27 86  1  0  0  0  0
 28 87  1  0  0  0  0
 29 31  2  0  0  0  0
 29 86  1  0  0  0  0
 30 88  1  0  0  0  0
 31 89  1  0  0  0  0
 32 70  2  0  0  0  0
 33 71  1  0  0  0  0
 33 74  1  0  0  0  0
 34 75  1  0  0  0  0
 34 81  2  0  0  0  0
 35 52  1  0  0  0  0
 35 76  1  0  0  0  0
 35 82  2  0  0  0  0
 36 66  1  0  0  0  0
 36 72  1  0  0  0  0
 36 83  2  0  0  0  0
 37 67  1  0  0  0  0
 37 77  1  0  0  0  0
 37 84  2  0  0  0  0
 38 73  1  0  0  0  0
 38 78  1  0  0  0  0
 38 85  2  0  0  0  0
 39 42  1  0  0  0  0
 40 52  1  0  0  0  0
 41 72  1  0  0  0  0
 42 44  1  0  0  0  0
 43 45  1  0  0  0  0
 43 47  1  0  0  0  0
 44 50  1  0  0  0  0
 45 53  1  0  0  0  0
 46 49  1  0  0  0  0
 46 51  1  0  0  0  0
 47 73  1  0  0  0  0
 48 53  1  0  0  0  0
 48 73  1  0  0  0  0
 49 62  1  0  0  0  0
 50 76  1  0  0  0  0
 51 78  1  0  0  0  0
 52 72  1  0  0  0  0
 53 71  1  0  0  0  0
 56 67  1  0  0  0  0
 57 68  1  0  0  0  0
 58 69  1  0  0  0  0
 59 69  1  0  0  0  0
 60 69  1  0  0  0  0
 61 79  1  0  0  0  0
 62 68  1  0  0  0  0
 63 65  1  0  0  0  0
 63 80  1  0  0  0  0
 64 68  1  0  0  0  0
 64 80  1  0  0  0  0
 65 87  1  0  0  0  0
 66 69  1  0  0  0  0
 66 77  1  0  0  0  0
 67 79  1  0  0  0  0
 70 71  1  0  0  0  0
M  CHG  2  79   1  80   1
M  ISO  4  38 100  65 101  78 100  87 101
M  END
> <Batch ID>
0164

> <Smiles>
CNC(C)C(=O)NC(C(=O)N1Cc2cc([101O:1][101CH2:1]CNCC(C)CC3CC([100NH:0][100C:0](=O)N4CCCC(n5nc(-c6ccc(Oc7ccc(F)cc7F)cc6)c(C(N)=O)c5N)C4)c4cc(C)c(C)cc43)ccc2CC1C(=O)NC1CCCc2ccccc21)C(C)(C)C

> <Shape>
0.284

> <Color>
0.154

> <Negative vol penalty>
0.000

$$$$

  -OEChem-04052322193D

 88 96  0     1  0  0  0  0  0999 V2000
  -17.0142  -27.8879   22.0132 C   0  0  0  0  0  0  0  0  0  0  0  0
  -17.9850  -27.8550   21.0173 C   0  0  0  0  0  0  0  0  0  0  0  0
  -27.7773  -14.3004   22.0212 C   0  0  0  0  0  0  0  0  0  0  0  0
  -27.3366  -14.8264   19.7047 C   0  0  0  0  0  0  0  0  0  0  0  0
  -17.2456  -28.6033   23.1873 C   0  0  0  0  0  0  0  0  0  0  0  0
  -19.1875  -28.5383   21.1945 C   0  0  0  0  0  0  0  0  0  0  0  0
  -24.7194  -26.8345   19.1944 C   0  0  0  0  0  0  0  0  0  0  0  0
  -27.0227  -13.1336   21.8999 C   0  0  0  0  0  0  0  0  0  0  0  0
  -26.5819  -13.6595   19.5834 C   0  0  0  0  0  0  0  0  0  0  0  0
  -25.4692  -27.2062   18.0793 C   0  0  0  0  0  0  0  0  0  0  0  0
  -23.4754  -12.6054   20.4015 C   0  0  0  0  0  0  0  0  0  0  0  0
  -22.2476  -12.6930   19.7454 C   0  0  0  0  0  0  0  0  0  0  0  0
  -26.6531  -28.8233   19.4218 C   0  0  0  0  0  0  0  0  0  0  0  0
  -30.1903  -25.1541   16.0433 C   0  0  0  0  0  0  0  0  0  0  0  0
  -28.5225  -23.0398   15.3146 C   0  0  0  0  0  0  0  0  0  0  0  0
  -23.0101  -11.0917   18.1048 C   0  0  0  0  0  0  0  0  0  0  0  0
  -27.9342  -15.1468   20.9236 C   0  0  0  0  0  0  0  0  0  0  0  0
  -30.0943  -16.4999   20.8189 C   0  0  0  0  0  0  0  0  0  0  0  0
  -18.4555  -29.2878   23.3831 C   0  0  0  0  0  0  0  0  0  0  0  0
  -24.9237  -27.4631   20.4312 C   0  0  0  0  0  0  0  0  0  0  0  0
  -19.4348  -29.2646   22.3717 C   0  0  0  0  0  0  0  0  0  0  0  0
  -25.9065  -28.4559   20.5517 C   0  0  0  0  0  0  0  0  0  0  0  0
  -29.2269  -25.3358   15.0511 C   0  0  0  0  0  0  0  0  0  0  0  0
  -30.3199  -23.9152   16.6711 C   0  0  0  0  0  0  0  0  0  0  0  0
  -28.3930  -24.2787   14.6868 C   0  0  0  0  0  0  0  0  0  0  0  0
  -26.4250  -12.8132   20.6810 C   0  0  0  0  0  0  0  0  0  0  0  0
  -26.4342  -28.2028   18.1922 C   0  0  0  0  0  0  0  0  0  0  0  0
  -24.4706  -11.7610   19.9092 C   0  0  0  0  0  0  0  0  0  0  0  0
  -29.4859  -22.8581   16.3068 C   0  0  0  0  0  0  0  0  0  0  0  0
  -22.0150  -11.9361   18.5971 C   0  0  0  0  0  0  0  0  0  0  0  0
  -24.2379  -11.0041   18.7609 C   0  0  0  0  0  0  0  0  0  0  0  0
  -28.7132  -16.3525   21.0485 C   0  0  0  0  0  0  0  0  0  0  0  0
  -30.3447  -17.8265   21.0716 C   0  0  0  0  0  0  0  0  0  0  0  0
  -31.0641  -15.5248   20.4135 C   0  0  0  0  0  0  0  0  0  0  0  0
  -23.1296  -29.2252   22.3753 C   0  0  0  0  0  0  0  0  0  0  0  0
  -25.7038  -28.9844   24.3343 C   0  0  0  0  0  0  0  0  0  0  0  0
  -29.0620  -28.4685   24.6554 C   0  0  0  0  0  0  0  0  0  0  0  0
  -28.9920  -23.2171   20.5646 C   0  0  0  0  0  0  0  0  0  0  0  0
  -18.6411  -30.0865   24.6489 C   0  0  0  0  0  0  0  0  0  0  0  0
  -24.1253  -27.0320   21.6307 C   0  0  0  0  0  0  0  0  0  0  0  0
  -26.1786  -29.1474   21.8618 C   0  0  0  0  0  0  0  0  0  0  0  0
  -20.0930  -30.4746   24.9169 C   0  0  0  0  0  0  0  0  0  0  0  0
  -27.4340  -21.3815   23.1875 C   0  0  0  0  0  0  0  0  0  0  0  0
  -20.7403  -31.0269   23.6508 C   0  0  0  0  0  0  0  0  0  0  0  0
  -27.7365  -19.9222   22.8425 C   0  0  0  0  0  0  0  0  0  0  0  0
  -27.1858  -22.2180   21.9343 C   0  0  0  0  0  0  0  0  0  0  0  0
  -28.5562  -20.6860   20.5746 C   0  0  0  0  0  0  0  0  0  0  0  0
  -20.7620  -29.9727   22.5374 C   0  0  1  0  0  0  0  0  0  0  0  0
  -24.0611  -28.0979   22.7203 C   0  0  1  0  0  0  0  0  0  0  0  0
  -28.8687  -19.8148   21.8033 C   0  0  2  0  0  0  0  0  0  0  0  0
  -27.3542  -24.4491   13.6274 C   0  0  0  0  0  0  0  0  0  0  0  0
  -30.3939  -26.9883   13.5935 C   0  0  0  0  0  0  0  0  0  0  0  0
  -30.8838  -28.3684   26.3783 C   0  0  0  0  0  0  0  0  0  0  0  0
  -28.6687  -29.2005   14.6954 C   0  0  0  0  0  0  0  0  0  0  0  0
  -32.0056  -24.3447   20.1046 C   0  0  0  0  0  0  0  0  0  0  0  0
  -25.6826  -32.0293   24.5299 C   0  0  0  0  0  0  0  0  0  0  0  0
  -28.0123  -31.9175   25.4401 C   0  0  0  0  0  0  0  0  0  0  0  0
  -26.1351  -30.8485   26.6875 C   0  0  0  0  0  0  0  0  0  0  0  0
  -29.6891  -25.6520   23.9973 C   0  0  0  0  0  0  0  0  0  0  0  0
  -28.7072  -20.6174   16.4752 C   0  0  0  0  0  0  0  0  0  0  0  0
  -31.3559  -23.7387   17.7318 C   0  0  0  0  0  0  0  0  0  0  0  0
  -27.4136  -27.5643   16.1212 C   0  0  0  0  0  0  0  0  0  1  0  0
  -29.1051  -26.6971   14.3783 C   0  0  2  0  0  0  0  0  0  0  0  0
  -26.9640  -29.7879   24.5474 C   0  0  1  0  0  0  0  0  0  0  0  0
  -29.8590  -27.5720   25.5858 C   0  0  2  0  0  0  0  0  0  0  0  0
  -28.7431  -27.8312   15.3882 C   0  0  1  0  0  0  0  0  0  0  0  0
  -30.8472  -24.0665   19.1518 C   0  0  1  0  0  0  0  0  0  0  0  0
  -26.6923  -31.1343   25.2760 C   0  0  0  0  0  0  0  0  0  0  0  0
  -28.1273  -17.4943   21.4187 N   0  0  0  0  0  0  0  0  0  0  0  0
  -29.1452  -18.3718   21.4238 N   0  0  0  0  0  0  0  0  0  0  0  0
  -25.3676  -28.6952   23.0042 N   0  0  0  0  0  0  0  0  0  0  0  0
  -28.2967  -22.0733   20.9904 N   0  0  0  0  0  0  0  0  0  0  0  0
  -31.4717  -18.5681   21.0248 N   0  0  0  0  0  0  0  0  0  0  0  0
  -30.6369  -14.2077   20.1965 N   0  0  0  0  0  0  0  0  0  0  0  0
  -21.8218  -29.0148   22.7689 N   0  0  0  0  0  0  0  0  0  0  0  0
  -27.8958  -28.9084   25.2450 N   0  0  0  0  0  0  0  0  0  0  0  0
  -30.0349  -22.9906   19.6748 N   0  0  0  0  0  0  0  0  0  0  0  0
  -30.5781  -26.5250   24.8062 N   0  3  0  0  0  0  0  0  0  0  0  0
  -32.2767  -15.8094   20.2644 O   0  0  0  0  0  0  0  0  0  0  0  0
  -23.5654  -30.2134   21.7963 O   0  0  0  0  0  0  0  0  0  0  0  0
  -25.0460  -28.6206   25.3123 O   0  0  0  0  0  0  0  0  0  0  0  0
  -29.4384  -28.7532   23.5206 O   0  0  0  0  0  0  0  0  0  0  0  0
  -28.7079  -24.3553   20.9530 O   0  0  0  0  0  0  0  0  0  0  0  0
  -25.6887  -11.6746   20.5622 O   0  0  0  0  0  0  0  0  0  0  0  0
  -29.6001  -21.6413   16.9091 O   0  0  0  0  0  0  0  0  0  0  0  0
  -27.1669  -28.5680   17.1052 O   0  0  0  0  0  0  0  0  0  1  0  0
  -20.8353  -12.0191   17.9680 F   0  0  0  0  0  0  0  0  0  0  0  0
  -25.1897  -10.1903   18.2840 F   0  0  0  0  0  0  0  0  0  0  0  0
  1  2  1  0  0  0  0
  1  5  2  0  0  0  0
  2  6  2  0  0  0  0
  3  8  2  0  0  0  0
  3 17  1  0  0  0  0
  4  9  1  0  0  0  0
  4 17  2  0  0  0  0
  5 19  1  0  0  0  0
  6 21  1  0  0  0  0
  7 10  2  0  0  0  0
  7 20  1  0  0  0  0
  8 26  1  0  0  0  0
  9 26  2  0  0  0  0
 10 27  1  0  0  0  0
 11 12  2  0  0  0  0
 11 28  1  0  0  0  0
 12 30  1  0  0  0  0
 13 22  1  0  0  0  0
 13 27  2  0  0  0  0
 14 23  1  0  0  0  0
 14 24  2  0  0  0  0
 15 25  1  0  0  0  0
 15 29  2  0  0  0  0
 16 30  2  0  0  0  0
 16 31  1  0  0  0  0
 17 32  1  0  0  0  0
 18 32  1  0  0  0  0
 18 33  2  0  0  0  0
 18 34  1  0  0  0  0
 19 21  2  0  0  0  0
 19 39  1  0  0  0  0
 20 22  2  0  0  0  0
 20 40  1  0  0  0  0
 21 48  1  0  0  0  0
 22 41  1  0  0  0  0
 23 25  2  0  0  0  0
 23 63  1  0  0  0  0
 24 29  1  0  0  0  0
 24 61  1  0  0  0  0
 25 51  1  0  0  0  0
 26 84  1  0  0  0  0
 27 86  1  0  0  0  0
 28 31  2  0  0  0  0
 28 84  1  0  0  0  0
 29 85  1  0  0  0  0
 30 87  1  0  0  0  0
 31 88  1  0  0  0  0
 32 69  2  0  0  0  0
 33 70  1  0  0  0  0
 33 73  1  0  0  0  0
 34 74  1  0  0  0  0
 34 79  2  0  0  0  0
 35 49  1  0  0  0  0
 35 75  1  0  0  0  0
 35 80  2  0  0  0  0
 36 64  1  0  0  0  0
 36 71  1  0  0  0  0
 36 81  2  0  0  0  0
 37 65  1  0  0  0  0
 37 76  1  0  0  0  0
 37 82  2  0  0  0  0
 38 72  1  0  0  0  0
 38 77  1  0  0  0  0
 38 83  2  0  0  0  0
 39 42  1  0  0  0  0
 40 49  1  0  0  0  0
 41 71  1  0  0  0  0
 42 44  1  0  0  0  0
 43 45  1  0  0  0  0
 43 46  1  0  0  0  0
 44 48  1  0  0  0  0
 45 50  1  0  0  0  0
 46 72  1  0  0  0  0
 47 50  1  0  0  0  0
 47 72  1  0  0  0  0
 48 75  1  0  0  0  0
 49 71  1  0  0  0  0
 50 70  1  0  0  0  0
 52 63  1  0  0  0  0
 53 65  1  0  0  0  0
 54 66  1  0  0  0  0
 55 67  1  0  0  0  0
 56 68  1  0  0  0  0
 57 68  1  0  0  0  0
 58 68  1  0  0  0  0
 59 78  1  0  0  0  0
 60 85  1  0  0  0  0
 61 67  1  0  0  0  0
 62 66  1  0  0  0  0
 62 86  1  0  0  0  0
 63 66  1  0  0  0  0
 64 68  1  0  0  0  0
 64 76  1  0  0  0  0
 65 78  1  0  0  0  0
 67 77  1  0  0  0  0
 69 70  1  0  0  0  0
M  CHG  1  78   1
M  ISO  4  38 100  62 101  77 100  86 101
M  END
> <Batch ID>
0164

> <Smiles>
CNC(C)C(=O)NC(C(=O)N1Cc2cc([101O:1][101CH2:1]C(C)C(C)c3cc(CC(C)[100NH:0][100C:0](=O)N4CCCC(n5nc(-c6ccc(Oc7ccc(F)cc7F)cc6)c(C(N)=O)c5N)C4)c(OC)cc3C)ccc2CC1C(=O)NC1CCCc2ccccc21)C(C)(C)C

> <Shape>
0.273

> <Color>
0.065

> <Negative vol penalty>
0.000

$$$$

  -OEChem-04052322193D

 90100  0     1  0  0  0  0  0999 V2000
  -20.1344  -34.1006   24.0235 C   0  0  0  0  0  0  0  0  0  0  0  0
  -21.4307  -33.7074   23.7064 C   0  0  0  0  0  0  0  0  0  0  0  0
  -23.1298  -10.6691   21.3019 C   0  0  0  0  0  0  0  0  0  0  0  0
  -24.2237   -8.5385   21.6192 C   0  0  0  0  0  0  0  0  0  0  0  0
  -19.1557  -33.1385   24.2689 C   0  0  0  0  0  0  0  0  0  0  0  0
  -21.7491  -32.3516   23.6354 C   0  0  0  0  0  0  0  0  0  0  0  0
  -30.7849  -20.1760   18.3707 C   0  0  0  0  0  0  0  0  0  0  0  0
  -31.0058  -21.3787   17.6997 C   0  0  0  0  0  0  0  0  0  0  0  0
  -25.7329  -29.7007   19.8134 C   0  0  0  0  0  0  0  0  0  0  0  0
  -21.9340  -10.0121   21.0123 C   0  0  0  0  0  0  0  0  0  0  0  0
  -23.0278   -7.8814   21.3297 C   0  0  0  0  0  0  0  0  0  0  0  0
  -27.0579  -29.2971   19.9715 C   0  0  0  0  0  0  0  0  0  0  0  0
  -20.1429   -7.1437   22.9277 C   0  0  0  0  0  0  0  0  0  0  0  0
  -19.7697   -6.0853   23.7560 C   0  0  0  0  0  0  0  0  0  0  0  0
  -26.3108  -27.0554   20.4573 C   0  0  0  0  0  0  0  0  0  0  0  0
  -29.8212  -21.3877   20.2255 C   0  0  0  0  0  0  0  0  0  0  0  0
  -19.8008   -4.5896   21.8588 C   0  0  0  0  0  0  0  0  0  0  0  0
  -24.2747   -9.9323   21.6052 C   0  0  0  0  0  0  0  0  0  0  0  0
  -25.9650  -11.0318   23.1678 C   0  0  0  0  0  0  0  0  0  0  0  0
  -30.1925  -20.1804   19.6336 C   0  0  0  0  0  0  0  0  0  0  0  0
  -19.4599  -31.7702   24.1915 C   0  0  0  0  0  0  0  0  0  0  0  0
  -24.6845  -28.7857   19.9870 C   0  0  0  0  0  0  0  0  0  0  0  0
  -20.7738  -31.3703   23.8813 C   0  0  0  0  0  0  0  0  0  0  0  0
  -30.6344  -22.5860   18.2917 C   0  0  0  0  0  0  0  0  0  0  0  0
  -24.9734  -27.4494   20.2983 C   0  0  0  0  0  0  0  0  0  0  0  0
  -21.8829   -8.6183   21.0262 C   0  0  0  0  0  0  0  0  0  0  0  0
  -27.3470  -27.9749   20.2963 C   0  0  0  0  0  0  0  0  0  0  0  0
  -20.3449   -6.9251   21.5649 C   0  0  0  0  0  0  0  0  0  0  0  0
  -19.5987   -4.8083   23.2216 C   0  0  0  0  0  0  0  0  0  0  0  0
  -30.0421  -22.5905   19.5546 C   0  0  0  0  0  0  0  0  0  0  0  0
  -20.1739   -5.6481   21.0305 C   0  0  0  0  0  0  0  0  0  0  0  0
  -25.5105  -10.6104   21.9039 C   0  0  0  0  0  0  0  0  0  0  0  0
  -27.1815  -11.6181   22.9173 C   0  0  0  0  0  0  0  0  0  0  0  0
  -25.3432  -10.9045   24.4535 C   0  0  0  0  0  0  0  0  0  0  0  0
  -22.2185  -28.5514   21.9789 C   0  0  0  0  0  0  0  0  0  0  0  0
  -21.4223  -26.0457   20.0788 C   0  0  0  0  0  0  0  0  0  0  0  0
  -22.4361  -23.6381   17.8828 C   0  0  0  0  0  0  0  0  0  0  0  0
  -30.5210  -14.8272   19.9897 C   0  0  0  0  0  0  0  0  0  0  0  0
  -18.3800  -30.7672   24.5113 C   0  0  0  0  0  0  0  0  0  0  0  0
  -23.2618  -29.2307   19.7866 C   0  0  0  0  0  0  0  0  0  0  0  0
  -23.8852  -26.4233   20.4755 C   0  0  0  0  0  0  0  0  0  0  0  0
  -18.7084  -29.3501   24.0484 C   0  0  0  0  0  0  0  0  0  0  0  0
  -30.0458  -11.6329   18.7571 C   0  0  0  0  0  0  0  0  0  0  0  0
  -32.1909  -24.0946   16.6808 C   0  0  0  0  0  0  0  0  0  0  0  0
  -20.1347  -28.9776   24.4403 C   0  0  0  0  0  0  0  0  0  0  0  0
  -28.8609  -11.1042   19.5651 C   0  0  0  0  0  0  0  0  0  0  0  0
  -32.2006  -25.5877   17.0605 C   0  0  0  0  0  0  0  0  0  0  0  0
  -28.9794  -17.9559   19.5993 C   0  0  0  0  0  0  0  0  0  0  0  0
  -31.2666  -18.1324   20.6703 C   0  0  0  0  0  0  0  0  0  0  0  0
  -29.8320  -13.0903   18.3651 C   0  0  0  0  0  0  0  0  0  0  0  0
  -28.7665  -16.6244   20.3252 C   0  0  0  0  0  0  0  0  0  0  0  0
  -30.9902  -16.8149   21.3888 C   0  0  0  0  0  0  0  0  0  0  0  0
  -28.4010  -13.4816   20.3443 C   0  0  0  0  0  0  0  0  0  0  0  0
  -29.9520  -18.8723   20.3633 C   0  0  0  0  0  0  0  0  0  0  0  0
  -30.8867  -23.9529   17.5254 C   0  0  2  0  0  0  0  0  0  0  0  0
  -21.1521  -29.9092   23.7705 C   0  0  1  0  0  0  0  0  0  0  0  0
  -22.2500  -28.3334   20.4926 C   0  0  1  0  0  0  0  0  0  0  0  0
  -28.5680  -12.0100   20.7743 C   0  0  1  0  0  0  0  0  0  0  0  0
  -31.4054  -25.1918   18.3224 C   0  0  2  0  0  0  0  0  0  0  0  0
  -21.5641  -21.7134   16.5291 C   0  0  0  0  0  0  0  0  0  0  0  0
  -21.2785  -24.3383   22.6035 C   0  0  0  0  0  0  0  0  0  0  0  0
  -21.3531  -22.3030   21.1475 C   0  0  0  0  0  0  0  0  0  0  0  0
  -19.4541  -23.9082   20.9479 C   0  0  0  0  0  0  0  0  0  0  0  0
  -23.2462  -24.9111   15.3368 C   0  0  0  0  0  0  0  0  0  0  0  0
  -30.8085  -27.3493   19.4307 C   0  0  0  0  0  0  0  0  0  0  0  0
  -29.6272  -28.2645   19.6859 C   0  0  0  0  0  0  0  0  0  1  0  0
  -21.7321  -24.5682   20.0723 C   0  0  1  0  0  0  0  0  0  0  0  0
  -21.8797  -23.2011   16.5397 C   0  0  2  0  0  0  0  0  0  0  0  0
  -20.9751  -23.7990   21.1914 C   0  0  0  0  0  0  0  0  0  0  0  0
  -26.3683  -10.9042   20.9231 N   0  0  0  0  0  0  0  0  0  0  0  0
  -27.3741  -11.5165   21.5709 N   0  0  0  0  0  0  0  0  0  0  0  0
  -22.5097  -26.9087   20.2754 N   0  0  0  0  0  0  0  0  0  0  0  0
  -29.5531  -13.9166   19.5395 N   0  0  0  0  0  0  0  0  0  0  0  0
  -30.0551  -15.9864   20.6281 N   0  0  0  0  0  0  0  0  0  0  0  0
  -28.0946  -12.2055   23.7196 N   0  0  0  0  0  0  0  0  0  0  0  0
  -24.0932  -10.2753   24.5318 N   0  0  0  0  0  0  0  0  0  0  0  0
  -21.3407  -29.5386   22.3843 N   0  0  0  0  0  0  0  0  0  0  0  0
  -21.4430  -24.0965   18.7223 N   0  0  0  0  0  0  0  0  0  0  0  0
  -30.3483  -26.1519   18.6632 N   0  3  0  0  0  0  0  0  0  0  0  0
  -22.8634  -23.4806   15.4557 N   0  3  0  0  0  0  0  0  0  0  0  0
  -25.8725  -11.3506   25.4996 O   0  0  0  0  0  0  0  0  0  0  0  0
  -22.9364  -27.8730   22.7044 O   0  0  0  0  0  0  0  0  0  0  0  0
  -20.2595  -26.4205   19.9086 O   0  0  0  0  0  0  0  0  0  0  0  0
  -23.6316  -23.5754   18.1608 O   0  0  0  0  0  0  0  0  0  0  0  0
  -31.7301  -14.6171   19.8317 O   0  0  0  0  0  0  0  0  0  0  0  0
  -20.7161   -7.9768   20.7440 O   0  0  0  0  0  0  0  0  0  0  0  0
  -28.6487  -27.5756   20.4530 O   0  0  0  0  0  0  0  0  0  1  0  0
  -19.2419   -3.7916   24.0174 F   0  0  0  0  0  0  0  0  0  0  0  0
  -29.6819  -23.7461   20.1298 F   0  0  0  0  0  0  0  0  0  0  0  0
  -20.3678   -5.4318   19.7223 F   0  0  0  0  0  0  0  0  0  0  0  0
  1  2  1  0  0  0  0
  1  5  2  0  0  0  0
  2  6  2  0  0  0  0
  3 10  2  0  0  0  0
  3 18  1  0  0  0  0
  4 11  1  0  0  0  0
  4 18  2  0  0  0  0
  5 21  1  0  0  0  0
  6 23  1  0  0  0  0
  7  8  2  0  0  0  0
  7 20  1  0  0  0  0
  8 24  1  0  0  0  0
  9 12  2  0  0  0  0
  9 22  1  0  0  0  0
 10 26  1  0  0  0  0
 11 26  2  0  0  0  0
 12 27  1  0  0  0  0
 13 14  2  0  0  0  0
 13 28  1  0  0  0  0
 14 29  1  0  0  0  0
 15 25  1  0  0  0  0
 15 27  2  0  0  0  0
 16 20  2  0  0  0  0
 16 30  1  0  0  0  0
 17 29  2  0  0  0  0
 17 31  1  0  0  0  0
 18 32  1  0  0  0  0
 19 32  1  0  0  0  0
 19 33  2  0  0  0  0
 19 34  1  0  0  0  0
 20 54  1  0  0  0  0
 21 23  2  0  0  0  0
 21 39  1  0  0  0  0
 22 25  2  0  0  0  0
 22 40  1  0  0  0  0
 23 56  1  0  0  0  0
 24 30  2  0  0  0  0
 24 55  1  0  0  0  0
 25 41  1  0  0  0  0
 26 86  1  0  0  0  0
 27 87  1  0  0  0  0
 28 31  2  0  0  0  0
 28 86  1  0  0  0  0
 29 88  1  0  0  0  0
 30 89  1  0  0  0  0
 31 90  1  0  0  0  0
 32 70  2  0  0  0  0
 33 71  1  0  0  0  0
 33 75  1  0  0  0  0
 34 76  1  0  0  0  0
 34 81  2  0  0  0  0
 35 57  1  0  0  0  0
 35 77  1  0  0  0  0
 35 82  2  0  0  0  0
 36 67  1  0  0  0  0
 36 72  1  0  0  0  0
 36 83  2  0  0  0  0
 37 68  1  0  0  0  0
 37 78  1  0  0  0  0
 37 84  2  0  0  0  0
 38 73  1  0  0  0  0
 38 74  1  0  0  0  0
 38 85  2  0  0  0  0
 39 42  1  0  0  0  0
 40 57  1  0  0  0  0
 41 72  1  0  0  0  0
 42 45  1  0  0  0  0
 43 46  1  0  0  0  0
 43 50  1  0  0  0  0
 44 47  1  0  0  0  0
 44 55  1  0  0  0  0
 45 56  1  0  0  0  0
 46 58  1  0  0  0  0
 47 59  1  0  0  0  0
 48 51  1  0  0  0  0
 48 54  1  0  0  0  0
 49 52  1  0  0  0  0
 49 54  1  0  0  0  0
 50 73  1  0  0  0  0
 51 74  1  0  0  0  0
 52 74  1  0  0  0  0
 53 58  1  0  0  0  0
 53 73  1  0  0  0  0
 55 59  1  0  0  0  0
 56 77  1  0  0  0  0
 57 72  1  0  0  0  0
 58 71  1  0  0  0  0
 59 79  1  0  0  0  0
 60 68  1  0  0  0  0
 61 69  1  0  0  0  0
 62 69  1  0  0  0  0
 63 69  1  0  0  0  0
 64 80  1  0  0  0  0
 65 66  1  0  0  0  0
 65 79  1  0  0  0  0
 66 87  1  0  0  0  0
 67 69  1  0  0  0  0
 67 78  1  0  0  0  0
 68 80  1  0  0  0  0
 70 71  1  0  0  0  0
M  CHG  2  79   1  80   1
M  ISO  4  38 100  66 101  74 100  87 101
M  END
> <Batch ID>
0164

> <Smiles>
CNC(C)C(=O)NC(C(=O)N1Cc2cc([101O:1][101CH2:1]CNC3CCC3c3ccc(C4CC[100N:0]([100C:0](=O)N5CCCC(n6nc(-c7ccc(Oc8ccc(F)cc8F)cc7)c(C(N)=O)c6N)C5)CC4)cc3F)ccc2CC1C(=O)NC1CCCc2ccccc21)C(C)(C)C

> <Shape>
0.278

> <Color>
0.115

> <Negative vol penalty>
0.000

$$$$

  -OEChem-04052322193D

 91100  0     1  0  0  0  0  0999 V2000
  -16.3510  -29.0750   23.6482 C   0  0  0  0  0  0  0  0  0  0  0  0
  -17.2279  -28.0943   23.1958 C   0  0  0  0  0  0  0  0  0  0  0  0
  -26.4638  -12.8127   21.1992 C   0  0  0  0  0  0  0  0  0  0  0  0
  -26.0523  -14.5053   19.5251 C   0  0  0  0  0  0  0  0  0  0  0  0
  -16.8350  -30.3367   23.9914 C   0  0  0  0  0  0  0  0  0  0  0  0
  -18.5893  -28.3752   23.0853 C   0  0  0  0  0  0  0  0  0  0  0  0
  -23.2373  -24.5115   24.0720 C   0  0  0  0  0  0  0  0  0  0  0  0
  -25.1215  -12.4368   21.1493 C   0  0  0  0  0  0  0  0  0  0  0  0
  -24.7099  -14.1294   19.4751 C   0  0  0  0  0  0  0  0  0  0  0  0
  -24.0271  -23.7542   23.2080 C   0  0  0  0  0  0  0  0  0  0  0  0
  -22.1741  -13.5596   22.3645 C   0  0  0  0  0  0  0  0  0  0  0  0
  -21.5147  -13.3514   23.5758 C   0  0  0  0  0  0  0  0  0  0  0  0
  -25.7032  -25.4889   23.2292 C   0  0  0  0  0  0  0  0  0  0  0  0
  -21.0651  -11.0648   22.9380 C   0  0  0  0  0  0  0  0  0  0  0  0
  -26.9292  -13.8469   20.3872 C   0  0  0  0  0  0  0  0  0  0  0  0
  -29.4356  -13.4305   20.1584 C   0  0  0  0  0  0  0  0  0  0  0  0
  -18.2043  -30.6302   23.8942 C   0  0  0  0  0  0  0  0  0  0  0  0
  -23.6705  -25.7702   24.5132 C   0  0  0  0  0  0  0  0  0  0  0  0
  -19.0919  -29.6424   23.4262 C   0  0  0  0  0  0  0  0  0  0  0  0
  -24.9183  -26.2591   24.1008 C   0  0  0  0  0  0  0  0  0  0  0  0
  -30.3012  -23.2609   16.6840 C   0  0  0  0  0  0  0  0  0  0  0  0
  -31.5996  -23.5045   16.2659 C   0  0  0  0  0  0  0  0  0  0  0  0
  -32.6034  -22.6150   16.6592 C   0  0  0  0  0  0  0  0  0  0  0  0
  -32.2986  -21.4963   17.4510 C   0  0  0  0  0  0  0  0  0  0  0  0
  -30.9876  -21.2556   17.8634 C   0  0  0  0  0  0  0  0  0  0  0  0
  -30.0140  -22.1555   17.4738 C   0  0  0  0  0  0  0  0  0  0  0  0
  -24.2446  -13.0952   20.2872 C   0  0  0  0  0  0  0  0  0  0  0  0
  -25.2589  -24.2441   22.7842 C   0  0  0  0  0  0  0  0  0  0  0  0
  -22.2790  -12.5205   21.4399 C   0  0  0  0  0  0  0  0  0  0  0  0
  -20.9602  -12.1040   23.8626 C   0  0  0  0  0  0  0  0  0  0  0  0
  -21.7245  -11.2731   21.7266 C   0  0  0  0  0  0  0  0  0  0  0  0
  -28.3156  -14.2360   20.4388 C   0  0  0  0  0  0  0  0  0  0  0  0
  -30.5125  -14.2610   20.3502 C   0  0  0  0  0  0  0  0  0  0  0  0
  -29.4970  -12.0545   19.7601 C   0  0  0  0  0  0  0  0  0  0  0  0
  -22.5862  -28.7441   24.2232 C   0  0  0  0  0  0  0  0  0  0  0  0
  -31.0575  -20.2415   20.1273 C   0  0  0  0  0  0  0  0  0  0  0  0
  -25.0211  -29.4152   26.2588 C   0  0  0  0  0  0  0  0  0  0  0  0
  -28.0576  -28.5251   27.5370 C   0  0  0  0  0  0  0  0  0  0  0  0
  -18.6740  -32.0231   24.2316 C   0  0  0  0  0  0  0  0  0  0  0  0
  -22.8187  -26.5631   25.4663 C   0  0  0  0  0  0  0  0  0  0  0  0
  -25.4380  -27.5955   24.5617 C   0  0  0  0  0  0  0  0  0  0  0  0
  -20.1826  -32.1229   24.4422 C   0  0  0  0  0  0  0  0  0  0  0  0
  -31.9053  -18.0810   22.8574 C   0  0  0  0  0  0  0  0  0  0  0  0
  -20.9266  -31.3945   23.3273 C   0  0  0  0  0  0  0  0  0  0  0  0
  -31.1597  -16.7865   22.5357 C   0  0  0  0  0  0  0  0  0  0  0  0
  -31.1119  -19.3068   22.4159 C   0  0  0  0  0  0  0  0  0  0  0  0
  -29.9776  -17.9980   20.6490 C   0  0  0  0  0  0  0  0  0  0  0  0
  -20.5788  -29.9011   23.3162 C   0  0  1  0  0  0  0  0  0  0  0  0
  -23.1290  -28.0566   25.4440 C   0  0  1  0  0  0  0  0  0  0  0  0
  -30.7583  -16.7342   21.0510 C   0  0  2  0  0  0  0  0  0  0  0  0
  -28.1233  -23.3463   17.4651 C   0  0  2  0  0  0  0  0  0  0  0  0
  -29.0340  -23.9949   16.3793 C   0  0  0  0  0  0  0  0  0  0  0  0
  -31.9441  -24.6982   15.4403 C   0  0  0  0  0  0  0  0  0  0  0  0
  -34.0202  -22.8617   16.2417 C   0  0  0  0  0  0  0  0  0  0  0  0
  -33.3881  -20.5544   17.8591 C   0  0  0  0  0  0  0  0  0  0  0  0
  -27.8699  -26.1889   16.1560 C   0  0  0  0  0  0  0  0  0  0  0  0
  -28.2832  -22.1375   14.8748 C   0  0  0  0  0  0  0  0  0  0  0  0
  -29.8143  -29.2915   29.1569 C   0  0  0  0  0  0  0  0  0  0  0  0
  -25.9613  -31.5067   24.2458 C   0  0  0  0  0  0  0  0  0  0  0  0
  -28.1685  -31.5498   25.4269 C   0  0  0  0  0  0  0  0  0  0  0  0
  -26.0948  -32.2263   26.6372 C   0  0  0  0  0  0  0  0  0  0  0  0
  -27.7480  -26.0971   29.2007 C   0  0  0  0  0  0  0  0  0  0  0  0
  -30.6345  -20.0667   18.6904 C   0  0  0  0  0  0  0  0  0  0  0  0
  -27.9624  -24.1280   18.7705 C   0  0  0  0  0  0  0  0  0  0  0  0
  -29.1620  -25.5164   16.4695 C   0  0  0  0  0  0  0  0  0  0  0  0
  -28.5468  -23.6023   14.9728 C   0  0  0  0  0  0  0  0  0  0  0  0
  -26.8828  -24.2235   21.0468 C   0  0  0  0  0  0  0  0  0  1  0  0
  -26.4760  -29.7854   26.1001 C   0  0  1  0  0  0  0  0  0  0  0  0
  -28.5650  -28.4457   28.9656 C   0  0  2  0  0  0  0  0  0  0  0  0
  -27.0807  -23.3935   19.7822 C   0  0  1  0  0  0  0  0  0  0  0  0
  -26.6648  -31.2427   25.5921 C   0  0  0  0  0  0  0  0  0  0  0  0
  -28.6501  -15.4825   20.7827 N   0  0  0  0  0  0  0  0  0  0  0  0
  -29.9924  -15.4665   20.7198 N   0  0  0  0  0  0  0  0  0  0  0  0
  -24.5658  -28.3361   25.4881 N   0  0  0  0  0  0  0  0  0  0  0  0
  -30.7303  -19.2085   21.0060 N   0  0  0  0  0  0  0  0  0  0  0  0
  -31.8442  -14.0705   20.2373 N   0  0  0  0  0  0  0  0  0  0  0  0
  -29.4741  -11.7535   18.3914 N   0  0  0  0  0  0  0  0  0  0  0  0
  -21.2926  -29.2081   24.3673 N   0  0  0  0  0  0  0  0  0  0  0  0
  -27.1088  -29.5142   27.3864 N   0  0  0  0  0  0  0  0  0  0  0  0
  -28.8929  -27.0361   29.3211 N   0  3  0  0  0  0  0  0  0  0  0  0
  -29.5534  -11.1188   20.5936 O   0  0  0  0  0  0  0  0  0  0  0  0
  -23.2895  -28.8472   23.2250 O   0  0  0  0  0  0  0  0  0  0  0  0
  -31.6631  -21.2648   20.4564 O   0  0  0  0  0  0  0  0  0  0  0  0
  -24.3163  -30.0554   27.0431 O   0  0  0  0  0  0  0  0  0  0  0  0
  -28.4650  -27.7863   26.6434 O   0  0  0  0  0  0  0  0  0  0  0  0
  -28.6874  -22.0469   17.8068 O   0  0  0  0  0  0  0  0  0  0  0  0
  -25.8054  -23.1501   19.1888 O   0  0  0  0  0  0  0  0  0  0  0  0
  -22.9347  -12.7286   20.2380 O   0  0  0  0  0  0  0  0  0  0  0  0
  -26.0315  -23.5072   21.9404 O   0  0  0  0  0  0  0  0  0  1  0  0
  -20.3283  -11.9037   25.0266 F   0  0  0  0  0  0  0  0  0  0  0  0
  -21.8231  -10.2707   20.8428 F   0  0  0  0  0  0  0  0  0  0  0  0
  1  2  1  0  0  0  0
  1  5  2  0  0  0  0
  2  6  2  0  0  0  0
  3  8  2  0  0  0  0
  3 15  1  0  0  0  0
  4  9  1  0  0  0  0
  4 15  2  0  0  0  0
  5 17  1  0  0  0  0
  6 19  1  0  0  0  0
  7 10  2  0  0  0  0
  7 18  1  0  0  0  0
  8 27  1  0  0  0  0
  9 27  2  0  0  0  0
 10 28  1  0  0  0  0
 11 12  2  0  0  0  0
 11 29  1  0  0  0  0
 12 30  1  0  0  0  0
 13 20  1  0  0  0  0
 13 28  2  0  0  0  0
 14 30  2  0  0  0  0
 14 31  1  0  0  0  0
 15 32  1  0  0  0  0
 16 32  1  0  0  0  0
 16 33  2  0  0  0  0
 16 34  1  0  0  0  0
 17 19  2  0  0  0  0
 17 39  1  0  0  0  0
 18 20  2  0  0  0  0
 18 40  1  0  0  0  0
 19 48  1  0  0  0  0
 20 41  1  0  0  0  0
 21 22  1  0  0  0  0
 21 26  2  0  0  0  0
 21 52  1  0  0  0  0
 22 23  2  0  0  0  0
 22 53  1  0  0  0  0
 23 24  1  0  0  0  0
 23 54  1  0  0  0  0
 24 25  2  0  0  0  0
 24 55  1  0  0  0  0
 25 26  1  0  0  0  0
 25 63  1  0  0  0  0
 26 86  1  0  0  0  0
 27 88  1  0  0  0  0
 28 89  1  0  0  0  0
 29 31  2  0  0  0  0
 29 88  1  0  0  0  0
 30 90  1  0  0  0  0
 31 91  1  0  0  0  0
 32 72  2  0  0  0  0
 33 73  1  0  0  0  0
 33 76  1  0  0  0  0
 34 77  1  0  0  0  0
 34 81  2  0  0  0  0
 35 49  1  0  0  0  0
 35 78  1  0  0  0  0
 35 82  2  0  0  0  0
 36 63  1  0  0  0  0
 36 75  1  0  0  0  0
 36 83  2  0  0  0  0
 37 68  1  0  0  0  0
 37 74  1  0  0  0  0
 37 84  2  0  0  0  0
 38 69  1  0  0  0  0
 38 79  1  0  0  0  0
 38 85  2  0  0  0  0
 39 42  1  0  0  0  0
 40 49  1  0  0  0  0
 41 74  1  0  0  0  0
 42 44  1  0  0  0  0
 43 45  1  0  0  0  0
 43 46  1  0  0  0  0
 44 48  1  0  0  0  0
 45 50  1  0  0  0  0
 46 75  1  0  0  0  0
 47 50  1  0  0  0  0
 47 75  1  0  0  0  0
 48 78  1  0  0  0  0
 49 74  1  0  0  0  0
 50 73  1  0  0  0  0
 51 52  1  0  0  0  0
 51 64  1  0  0  0  0
 51 86  1  0  0  0  0
 52 65  1  0  0  0  0
 52 66  1  0  0  0  0
 56 65  1  0  0  0  0
 57 66  1  0  0  0  0
 58 69  1  0  0  0  0
 59 71  1  0  0  0  0
 60 71  1  0  0  0  0
 61 71  1  0  0  0  0
 62 80  1  0  0  0  0
 64 70  1  0  0  0  0
 67 70  1  0  0  0  0
 67 89  1  0  0  0  0
 68 71  1  0  0  0  0
 68 79  1  0  0  0  0
 69 80  1  0  0  0  0
 70 87  1  0  0  0  0
 72 73  1  0  0  0  0
M  CHG  1  80   1
M  ISO  4  36 100  63 100  67 101  89 101
M  END
> <Batch ID>
0164

> <Smiles>
CCC1(CC)c2c(C)c(C)c(C)c([100CH2:0][100C:0](=O)N3CCCC(n4nc(-c5ccc(Oc6ccc(F)cc6F)cc5)c(C(N)=O)c4N)C3)c2OC1CC(O)[101CH2:1][101O:1]c1ccc2c(c1)CN(C(=O)C(NC(=O)C(C)NC)C(C)(C)C)C(C(=O)NC1CCCc3ccccc31)C2

> <Shape>
0.236

> <Color>
0.076

> <Negative vol penalty>
0.000

$$$$

  -OEChem-04052322193D

 83 92  0     1  0  0  0  0  0999 V2000
  -27.3633  -33.5895   22.6709 C   0  0  0  0  0  0  0  0  0  0  0  0
  -27.8211  -32.3268   22.3084 C   0  0  0  0  0  0  0  0  0  0  0  0
  -22.9994   -9.8933   19.9852 C   0  0  0  0  0  0  0  0  0  0  0  0
  -23.7247   -9.9525   22.2890 C   0  0  0  0  0  0  0  0  0  0  0  0
  -26.3905  -33.7193   23.6612 C   0  0  0  0  0  0  0  0  0  0  0  0
  -27.3071  -31.1931   22.9369 C   0  0  0  0  0  0  0  0  0  0  0  0
  -26.3519  -25.6971   20.4096 C   0  0  0  0  0  0  0  0  0  0  0  0
  -22.2335   -8.7593   20.2554 C   0  0  0  0  0  0  0  0  0  0  0  0
  -22.9587   -8.8185   22.5592 C   0  0  0  0  0  0  0  0  0  0  0  0
  -27.0970  -24.5187   20.4176 C   0  0  0  0  0  0  0  0  0  0  0  0
  -23.2048   -5.4781   22.0987 C   0  0  0  0  0  0  0  0  0  0  0  0
  -23.7930   -4.4638   22.8542 C   0  0  0  0  0  0  0  0  0  0  0  0
  -29.1228  -20.0448   23.1447 C   0  0  0  0  0  0  0  0  0  0  0  0
  -28.8487  -18.2244   21.0601 C   0  0  0  0  0  0  0  0  0  0  0  0
  -25.7715  -23.7003   22.2595 C   0  0  0  0  0  0  0  0  0  0  0  0
  -22.0690   -4.7115   24.5287 C   0  0  0  0  0  0  0  0  0  0  0  0
  -23.7450  -10.4899   21.0019 C   0  0  0  0  0  0  0  0  0  0  0  0
  -24.1290  -13.0051   20.8173 C   0  0  0  0  0  0  0  0  0  0  0  0
  -25.8573  -32.5860   24.2953 C   0  0  0  0  0  0  0  0  0  0  0  0
  -25.3164  -25.8908   21.3352 C   0  0  0  0  0  0  0  0  0  0  0  0
  -26.3272  -31.3079   23.9375 C   0  0  0  0  0  0  0  0  0  0  0  0
  -30.0132  -18.9624   23.0521 C   0  0  0  0  0  0  0  0  0  0  0  0
  -29.8606  -18.0195   22.0153 C   0  0  0  0  0  0  0  0  0  0  0  0
  -25.0131  -24.8809   22.2595 C   0  0  0  0  0  0  0  0  0  0  0  0
  -27.9784  -19.3108   21.1564 C   0  0  0  0  0  0  0  0  0  0  0  0
  -28.1117  -20.2176   22.2018 C   0  0  0  0  0  0  0  0  0  0  0  0
  -22.2131   -8.2219   21.5424 C   0  0  0  0  0  0  0  0  0  0  0  0
  -26.8087  -23.5213   21.3445 C   0  0  0  0  0  0  0  0  0  0  0  0
  -22.0488   -6.1092   22.5582 C   0  0  0  0  0  0  0  0  0  0  0  0
  -23.2251   -4.0805   24.0692 C   0  0  0  0  0  0  0  0  0  0  0  0
  -21.4809   -5.7259   23.7732 C   0  0  0  0  0  0  0  0  0  0  0  0
  -24.5369  -11.6610   20.7233 C   0  0  0  0  0  0  0  0  0  0  0  0
  -25.2383  -13.7270   20.4504 C   0  0  0  0  0  0  0  0  0  0  0  0
  -22.8607  -13.5521   21.2020 C   0  0  0  0  0  0  0  0  0  0  0  0
  -24.7532  -27.9759   23.6673 C   0  0  0  0  0  0  0  0  0  0  0  0
  -21.8896  -26.4582   23.8035 C   0  0  0  0  0  0  0  0  0  0  0  0
  -20.0740  -23.6360   23.1827 C   0  0  0  0  0  0  0  0  0  0  0  0
  -30.7342  -14.6654   20.6954 C   0  0  0  0  0  0  0  0  0  0  0  0
  -24.8415  -32.7791   25.3933 C   0  0  0  0  0  0  0  0  0  0  0  0
  -24.5046  -27.1564   21.2961 C   0  0  0  0  0  0  0  0  0  0  0  0
  -31.0851  -18.8194   24.1038 C   0  0  0  0  0  0  0  0  0  0  0  0
  -23.8984  -25.0313   23.2610 C   0  0  0  0  0  0  0  0  0  0  0  0
  -24.0774  -31.5058   25.7470 C   0  0  0  0  0  0  0  0  0  0  0  0
  -32.2210  -17.8965   23.6742 C   0  0  0  0  0  0  0  0  0  0  0  0
  -29.5947  -12.2331   18.3583 C   0  0  0  0  0  0  0  0  0  0  0  0
  -25.0382  -30.3301   25.8941 C   0  0  0  0  0  0  0  0  0  0  0  0
  -31.6548  -16.5916   23.1312 C   0  0  0  0  0  0  0  0  0  0  0  0
  -28.1464  -11.9741   18.7768 C   0  0  0  0  0  0  0  0  0  0  0  0
  -30.4970  -12.4731   19.5667 C   0  0  0  0  0  0  0  0  0  0  0  0
  -28.5866  -13.2722   20.9028 C   0  0  0  0  0  0  0  0  0  0  0  0
  -25.7761  -30.0528   24.5788 C   0  0  1  0  0  0  0  0  0  0  0  0
  -30.8158  -16.8484   21.8731 C   0  0  1  0  0  0  0  0  0  0  0  0
  -23.8082  -27.4607   22.6189 C   0  0  1  0  0  0  0  0  0  0  0  0
  -27.6276  -13.0799   19.7155 C   0  0  2  0  0  0  0  0  0  0  0  0
  -26.9127  -19.4801   20.1238 C   0  0  0  0  0  0  0  0  0  0  0  0
  -17.7670  -22.6819   23.4378 C   0  0  0  0  0  0  0  0  0  0  0  0
  -22.3960  -26.0366   26.7828 C   0  0  0  0  0  0  0  0  0  0  0  0
  -20.5862  -24.3066   26.7745 C   0  0  0  0  0  0  0  0  0  0  0  0
  -20.0482  -26.6746   26.2037 C   0  0  0  0  0  0  0  0  0  0  0  0
  -19.7682  -23.2896   20.2594 C   0  0  0  0  0  0  0  0  0  0  0  0
  -27.1853  -21.3907   22.3318 C   0  0  0  0  0  0  0  0  0  1  0  0
  -21.3461  -25.2660   24.5534 C   0  0  1  0  0  0  0  0  0  0  0  0
  -18.7219  -23.4328   22.5229 C   0  0  2  0  0  0  0  0  0  0  0  0
  -21.1164  -25.5686   26.0611 C   0  0  0  0  0  0  0  0  0  0  0  0
  -25.8062  -11.5338   20.3274 N   0  0  0  0  0  0  0  0  0  0  0  0
  -26.2055  -12.8073   20.1695 N   0  0  0  0  0  0  0  0  0  0  0  0
  -23.1375  -26.2895   23.1870 N   0  0  0  0  0  0  0  0  0  0  0  0
  -29.9497  -13.5345   20.4152 N   0  0  0  0  0  0  0  0  0  0  0  0
  -25.4711  -15.0525   20.3438 N   0  0  0  0  0  0  0  0  0  0  0  0
  -21.8295  -12.6686   21.5486 N   0  0  0  0  0  0  0  0  0  0  0  0
  -24.9139  -29.3483   23.6543 N   0  0  0  0  0  0  0  0  0  0  0  0
  -20.1455  -24.8467   23.8385 N   0  0  0  0  0  0  0  0  0  0  0  0
  -30.1374  -15.6266   21.5020 N   0  0  0  0  0  0  0  0  0  0  0  0
  -18.8731  -22.6549   21.2608 N   0  3  0  0  0  0  0  0  0  0  0  0
  -22.6434  -14.7874   21.2216 O   0  0  0  0  0  0  0  0  0  0  0  0
  -25.2952  -27.1869   24.4323 O   0  0  0  0  0  0  0  0  0  0  0  0
  -21.2279  -27.4983   23.7602 O   0  0  0  0  0  0  0  0  0  0  0  0
  -20.9751  -22.8022   23.1253 O   0  0  0  0  0  0  0  0  0  0  0  0
  -31.8795  -14.8104   20.2548 O   0  0  0  0  0  0  0  0  0  0  0  0
  -21.4657   -7.1155   21.8066 O   0  0  0  0  0  0  0  0  0  0  0  0
  -27.5349  -22.3704   21.3549 O   0  0  0  0  0  0  0  0  0  1  0  0
  -23.7891   -3.1054   24.7939 F   0  0  0  0  0  0  0  0  0  0  0  0
  -20.3697   -6.3277   24.2192 F   0  0  0  0  0  0  0  0  0  0  0  0
  1  2  1  0  0  0  0
  1  5  2  0  0  0  0
  2  6  2  0  0  0  0
  3  8  2  0  0  0  0
  3 17  1  0  0  0  0
  4  9  1  0  0  0  0
  4 17  2  0  0  0  0
  5 19  1  0  0  0  0
  6 21  1  0  0  0  0
  7 10  2  0  0  0  0
  7 20  1  0  0  0  0
  8 27  1  0  0  0  0
  9 27  2  0  0  0  0
 10 28  1  0  0  0  0
 11 12  2  0  0  0  0
 11 29  1  0  0  0  0
 12 30  1  0  0  0  0
 13 22  2  0  0  0  0
 13 26  1  0  0  0  0
 14 23  2  0  0  0  0
 14 25  1  0  0  0  0
 15 24  1  0  0  0  0
 15 28  2  0  0  0  0
 16 30  2  0  0  0  0
 16 31  1  0  0  0  0
 17 32  1  0  0  0  0
 18 32  1  0  0  0  0
 18 33  2  0  0  0  0
 18 34  1  0  0  0  0
 19 21  2  0  0  0  0
 19 39  1  0  0  0  0
 20 24  2  0  0  0  0
 20 40  1  0  0  0  0
 21 51  1  0  0  0  0
 22 23  1  0  0  0  0
 22 41  1  0  0  0  0
 23 52  1  0  0  0  0
 24 42  1  0  0  0  0
 25 26  2  0  0  0  0
 25 55  1  0  0  0  0
 26 61  1  0  0  0  0
 27 80  1  0  0  0  0
 28 81  1  0  0  0  0
 29 31  2  0  0  0  0
 29 80  1  0  0  0  0
 30 82  1  0  0  0  0
 31 83  1  0  0  0  0
 32 65  2  0  0  0  0
 33 66  1  0  0  0  0
 33 69  1  0  0  0  0
 34 70  1  0  0  0  0
 34 75  2  0  0  0  0
 35 53  1  0  0  0  0
 35 71  1  0  0  0  0
 35 76  2  0  0  0  0
 36 62  1  0  0  0  0
 36 67  1  0  0  0  0
 36 77  2  0  0  0  0
 37 63  1  0  0  0  0
 37 72  1  0  0  0  0
 37 78  2  0  0  0  0
 38 68  1  0  0  0  0
 38 73  1  0  0  0  0
 38 79  2  0  0  0  0
 39 43  1  0  0  0  0
 40 53  1  0  0  0  0
 41 44  1  0  0  0  0
 42 67  1  0  0  0  0
 43 46  1  0  0  0  0
 44 47  1  0  0  0  0
 45 48  1  0  0  0  0
 45 49  1  0  0  0  0
 46 51  1  0  0  0  0
 47 52  1  0  0  0  0
 48 54  1  0  0  0  0
 49 68  1  0  0  0  0
 50 54  1  0  0  0  0
 50 68  1  0  0  0  0
 51 71  1  0  0  0  0
 52 73  1  0  0  0  0
 53 67  1  0  0  0  0
 54 66  1  0  0  0  0
 56 63  1  0  0  0  0
 57 64  1  0  0  0  0
 58 64  1  0  0  0  0
 59 64  1  0  0  0  0
 60 74  1  0  0  0  0
 61 81  1  0  0  0  0
 62 64  1  0  0  0  0
 62 72  1  0  0  0  0
 63 74  1  0  0  0  0
 65 66  1  0  0  0  0
M  CHG  1  74   1
M  ISO  4  38 100  61 101  73 100  81 101
M  END
> <Batch ID>
0164

> <Smiles>
CNC(C)C(=O)NC(C(=O)N1Cc2cc([101O:1][101CH2:1]c3cc4c(cc3C)C([100NH:0][100C:0](=O)N3CCCC(n5nc(-c6ccc(Oc7ccc(F)cc7F)cc6)c(C(N)=O)c5N)C3)CCC4)ccc2CC1C(=O)NC1CCCc2ccccc21)C(C)(C)C

> <Shape>
0.288

> <Color>
0.202

> <Negative vol penalty>
0.000

$$$$

  -OEChem-04052322193D

 85 94  0     1  0  0  0  0  0999 V2000
  -26.7489  -35.1835   23.8280 C   0  0  0  0  0  0  0  0  0  0  0  0
  -27.2256  -33.8988   23.5879 C   0  0  0  0  0  0  0  0  0  0  0  0
  -23.7615  -10.1615   21.8636 C   0  0  0  0  0  0  0  0  0  0  0  0
  -25.1220   -8.1727   22.0388 C   0  0  0  0  0  0  0  0  0  0  0  0
  -25.4016  -35.3813   24.1274 C   0  0  0  0  0  0  0  0  0  0  0  0
  -26.3554  -32.8109   23.6481 C   0  0  0  0  0  0  0  0  0  0  0  0
  -26.5444  -27.7503   20.2041 C   0  0  0  0  0  0  0  0  0  0  0  0
  -22.6221   -9.3696   21.7221 C   0  0  0  0  0  0  0  0  0  0  0  0
  -23.9825   -7.3807   21.8974 C   0  0  0  0  0  0  0  0  0  0  0  0
  -27.0549  -26.4744   20.4390 C   0  0  0  0  0  0  0  0  0  0  0  0
  -21.4186   -6.3392   23.8370 C   0  0  0  0  0  0  0  0  0  0  0  0
  -21.2731   -5.2551   24.7025 C   0  0  0  0  0  0  0  0  0  0  0  0
  -24.8594  -25.7240   21.0991 C   0  0  0  0  0  0  0  0  0  0  0  0
  -28.8945  -20.7783   22.6638 C   0  0  0  0  0  0  0  0  0  0  0  0
  -21.2417   -3.7504   22.8126 C   0  0  0  0  0  0  0  0  0  0  0  0
  -25.0115   -9.5631   22.0219 C   0  0  0  0  0  0  0  0  0  0  0  0
  -26.7442  -10.8657   23.3668 C   0  0  0  0  0  0  0  0  0  0  0  0
  -24.5125  -34.2963   24.1818 C   0  0  0  0  0  0  0  0  0  0  0  0
  -25.1874  -28.0259   20.4257 C   0  0  0  0  0  0  0  0  0  0  0  0
  -24.9952  -32.9942   23.9498 C   0  0  0  0  0  0  0  0  0  0  0  0
  -24.3336  -27.0036   20.8638 C   0  0  0  0  0  0  0  0  0  0  0  0
  -28.5634  -22.1110   22.4454 C   0  0  0  0  0  0  0  0  0  0  0  0
  -28.4567  -22.5909   21.1448 C   0  0  0  0  0  0  0  0  0  0  0  0
  -22.7325   -7.9792   21.7390 C   0  0  0  0  0  0  0  0  0  0  0  0
  -26.2130  -25.4617   20.8893 C   0  0  0  0  0  0  0  0  0  0  0  0
  -21.4755   -6.1289   22.4592 C   0  0  0  0  0  0  0  0  0  0  0  0
  -21.1847   -3.9607   24.1904 C   0  0  0  0  0  0  0  0  0  0  0  0
  -21.3871   -4.8345   21.9470 C   0  0  0  0  0  0  0  0  0  0  0  0
  -26.1891  -10.3806   22.1675 C   0  0  0  0  0  0  0  0  0  0  0  0
  -29.1072  -19.9731   21.5566 C   0  0  0  0  0  0  0  0  0  0  0  0
  -28.6892  -21.7045   20.1055 C   0  0  0  0  0  0  0  0  0  0  0  0
  -27.8459  -11.5833   22.9696 C   0  0  0  0  0  0  0  0  0  0  0  0
  -26.3034  -10.6839   24.7189 C   0  0  0  0  0  0  0  0  0  0  0  0
  -23.5804  -29.9776   22.3524 C   0  0  0  0  0  0  0  0  0  0  0  0
  -21.0263  -28.9136   20.6593 C   0  0  0  0  0  0  0  0  0  0  0  0
  -19.6529  -26.4647   18.7194 C   0  0  0  0  0  0  0  0  0  0  0  0
  -30.4127  -15.1160   19.6601 C   0  0  0  0  0  0  0  0  0  0  0  0
  -23.0744  -34.5543   24.5558 C   0  0  0  0  0  0  0  0  0  0  0  0
  -24.6469  -29.4006   20.1421 C   0  0  0  0  0  0  0  0  0  0  0  0
  -22.8650  -27.2426   21.0976 C   0  0  0  0  0  0  0  0  0  0  0  0
  -22.1423  -33.3897   24.2316 C   0  0  0  0  0  0  0  0  0  0  0  0
  -30.1576  -11.8741   18.4882 C   0  0  0  0  0  0  0  0  0  0  0  0
  -22.7517  -32.0720   24.6996 C   0  0  0  0  0  0  0  0  0  0  0  0
  -29.1490  -11.2238   19.4349 C   0  0  0  0  0  0  0  0  0  0  0  0
  -28.4054  -17.5695   21.1662 C   0  0  0  0  0  0  0  0  0  0  0  0
  -30.8620  -18.1813   21.1916 C   0  0  0  0  0  0  0  0  0  0  0  0
  -29.7324  -13.2930   18.1288 C   0  0  0  0  0  0  0  0  0  0  0  0
  -28.7925  -16.0984   21.3425 C   0  0  0  0  0  0  0  0  0  0  0  0
  -31.1890  -16.7045   21.3930 C   0  0  0  0  0  0  0  0  0  0  0  0
  -28.5198  -13.5427   20.2701 C   0  0  0  0  0  0  0  0  0  0  0  0
  -24.0774  -31.7914   23.9816 C   0  0  1  0  0  0  0  0  0  0  0  0
  -29.4688  -18.5133   21.7562 C   0  0  0  0  0  0  0  0  0  0  0  0
  -23.3534  -29.7007   20.8932 C   0  0  1  0  0  0  0  0  0  0  0  0
  -28.9051  -12.1047   20.6730 C   0  0  1  0  0  0  0  0  0  0  0  0
  -28.3311  -23.0030   23.6199 C   0  0  0  0  0  0  0  0  0  0  0  0
  -28.5880  -22.1611   18.6867 C   0  0  0  0  0  0  0  0  0  0  0  0
  -17.5353  -25.8603   17.5160 C   0  0  0  0  0  0  0  0  0  0  0  0
  -19.7263  -28.1797   23.3204 C   0  0  0  0  0  0  0  0  0  0  0  0
  -18.1019  -26.7559   22.0546 C   0  0  0  0  0  0  0  0  0  0  0  0
  -18.1771  -29.2168   21.6535 C   0  0  0  0  0  0  0  0  0  0  0  0
  -21.0228  -26.4069   16.0967 C   0  0  0  0  0  0  0  0  0  0  0  0
  -28.1006  -24.0151   20.8801 C   0  0  0  0  0  0  0  0  0  1  0  0
  -20.0585  -27.7629   20.7942 C   0  0  1  0  0  0  0  0  0  0  0  0
  -18.8978  -26.5265   17.4039 C   0  0  2  0  0  0  0  0  0  0  0  0
  -19.0440  -27.9745   21.9532 C   0  0  0  0  0  0  0  0  0  0  0  0
  -26.8810  -10.7582   21.0892 N   0  0  0  0  0  0  0  0  0  0  0  0
  -29.0127  -20.4033   20.2785 N   0  0  0  0  0  0  0  0  0  0  0  0
  -27.8821  -11.4884   21.6095 N   0  0  0  0  0  0  0  0  0  0  0  0
  -22.3854  -28.6049   20.8121 N   0  0  0  0  0  0  0  0  0  0  0  0
  -29.5073  -14.0962   19.3305 N   0  0  0  0  0  0  0  0  0  0  0  0
  -30.1454  -15.8519   20.8243 N   0  0  0  0  0  0  0  0  0  0  0  0
  -28.7774  -12.2800   23.6546 N   0  0  0  0  0  0  0  0  0  0  0  0
  -25.1525   -9.9178   24.9492 N   0  0  0  0  0  0  0  0  0  0  0  0
  -23.8328  -31.3053   22.6405 N   0  0  0  0  0  0  0  0  0  0  0  0
  -19.4412  -27.5929   19.4833 N   0  0  0  0  0  0  0  0  0  0  0  0
  -19.6702  -25.8390   16.3306 N   0  3  0  0  0  0  0  0  0  0  0  0
  -26.9027  -11.1995   25.6928 O   0  0  0  0  0  0  0  0  0  0  0  0
  -23.5290  -29.0552   23.1576 O   0  0  0  0  0  0  0  0  0  0  0  0
  -20.5929  -30.0434   20.4200 O   0  0  0  0  0  0  0  0  0  0  0  0
  -20.3568  -25.5093   19.0392 O   0  0  0  0  0  0  0  0  0  0  0  0
  -31.4023  -15.3550   18.9567 O   0  0  0  0  0  0  0  0  0  0  0  0
  -21.6208   -7.2062   21.6012 O   0  0  0  0  0  0  0  0  0  0  0  0
  -26.7123  -24.2070   21.1216 O   0  0  0  0  0  0  0  0  0  1  0  0
  -21.0466   -2.9196   25.0217 F   0  0  0  0  0  0  0  0  0  0  0  0
  -21.4424   -4.6261   20.6244 F   0  0  0  0  0  0  0  0  0  0  0  0
  1  2  1  0  0  0  0
  1  5  2  0  0  0  0
  2  6  2  0  0  0  0
  3  8  2  0  0  0  0
  3 16  1  0  0  0  0
  4  9  1  0  0  0  0
  4 16  2  0  0  0  0
  5 18  1  0  0  0  0
  6 20  1  0  0  0  0
  7 10  2  0  0  0  0
  7 19  1  0  0  0  0
  8 24  1  0  0  0  0
  9 24  2  0  0  0  0
 10 25  1  0  0  0  0
 11 12  2  0  0  0  0
 11 26  1  0  0  0  0
 12 27  1  0  0  0  0
 13 21  1  0  0  0  0
 13 25  2  0  0  0  0
 14 22  2  0  0  0  0
 14 30  1  0  0  0  0
 15 27  2  0  0  0  0
 15 28  1  0  0  0  0
 16 29  1  0  0  0  0
 17 29  1  0  0  0  0
 17 32  2  0  0  0  0
 17 33  1  0  0  0  0
 18 20  2  0  0  0  0
 18 38  1  0  0  0  0
 19 21  2  0  0  0  0
 19 39  1  0  0  0  0
 20 51  1  0  0  0  0
 21 40  1  0  0  0  0
 22 23  1  0  0  0  0
 22 55  1  0  0  0  0
 23 31  2  0  0  0  0
 23 62  1  0  0  0  0
 24 82  1  0  0  0  0
 25 83  1  0  0  0  0
 26 28  2  0  0  0  0
 26 82  1  0  0  0  0
 27 84  1  0  0  0  0
 28 85  1  0  0  0  0
 29 66  2  0  0  0  0
 30 52  1  0  0  0  0
 30 67  2  0  0  0  0
 31 56  1  0  0  0  0
 31 67  1  0  0  0  0
 32 68  1  0  0  0  0
 32 72  1  0  0  0  0
 33 73  1  0  0  0  0
 33 77  2  0  0  0  0
 34 53  1  0  0  0  0
 34 74  1  0  0  0  0
 34 78  2  0  0  0  0
 35 63  1  0  0  0  0
 35 69  1  0  0  0  0
 35 79  2  0  0  0  0
 36 64  1  0  0  0  0
 36 75  1  0  0  0  0
 36 80  2  0  0  0  0
 37 70  1  0  0  0  0
 37 71  1  0  0  0  0
 37 81  2  0  0  0  0
 38 41  1  0  0  0  0
 39 53  1  0  0  0  0
 40 69  1  0  0  0  0
 41 43  1  0  0  0  0
 42 44  1  0  0  0  0
 42 47  1  0  0  0  0
 43 51  1  0  0  0  0
 44 54  1  0  0  0  0
 45 48  1  0  0  0  0
 45 52  1  0  0  0  0
 46 49  1  0  0  0  0
 46 52  1  0  0  0  0
 47 70  1  0  0  0  0
 48 71  1  0  0  0  0
 49 71  1  0  0  0  0
 50 54  1  0  0  0  0
 50 70  1  0  0  0  0
 51 74  1  0  0  0  0
 53 69  1  0  0  0  0
 54 68  1  0  0  0  0
 57 64  1  0  0  0  0
 58 65  1  0  0  0  0
 59 65  1  0  0  0  0
 60 65  1  0  0  0  0
 61 76  1  0  0  0  0
 62 83  1  0  0  0  0
 63 65  1  0  0  0  0
 63 75  1  0  0  0  0
 64 76  1  0  0  0  0
 66 68  1  0  0  0  0
M  CHG  1  76   1
M  ISO  4  37 100  62 101  71 100  83 101
M  END
> <Batch ID>
0164

> <Smiles>
CNC(C)C(=O)NC(C(=O)N1Cc2cc([101O:1][101CH2:1]c3c(C)cc(C4CC[100N:0]([100C:0](=O)N5CCCC(n6nc(-c7ccc(Oc8ccc(F)cc8F)cc7)c(C(N)=O)c6N)C5)CC4)nc3C)ccc2CC1C(=O)NC1CCCc2ccccc21)C(C)(C)C

> <Shape>
0.322

> <Color>
0.100

> <Negative vol penalty>
0.000

$$$$

  -OEChem-04052322193D

 86 95  0     1  0  0  0  0  0999 V2000
  -28.3994  -32.1355   27.0640 C   0  0  0  0  0  0  0  0  0  0  0  0
  -28.3855  -31.0469   26.1979 C   0  0  0  0  0  0  0  0  0  0  0  0
  -23.5859  -10.1299   22.2295 C   0  0  0  0  0  0  0  0  0  0  0  0
  -23.9741   -8.9227   20.1730 C   0  0  0  0  0  0  0  0  0  0  0  0
  -27.2031  -32.7565   27.4206 C   0  0  0  0  0  0  0  0  0  0  0  0
  -27.1750  -30.5779   25.6887 C   0  0  0  0  0  0  0  0  0  0  0  0
  -27.4023  -29.6051   20.7242 C   0  0  0  0  0  0  0  0  0  0  0  0
  -22.2231   -9.8472   22.1382 C   0  0  0  0  0  0  0  0  0  0  0  0
  -22.6113   -8.6400   20.0817 C   0  0  0  0  0  0  0  0  0  0  0  0
  -28.0181  -28.4160   20.3359 C   0  0  0  0  0  0  0  0  0  0  0  0
  -19.2853   -7.2934   19.4965 C   0  0  0  0  0  0  0  0  0  0  0  0
  -18.9132   -5.9907   19.1644 C   0  0  0  0  0  0  0  0  0  0  0  0
  -25.8517  -27.3909   20.0617 C   0  0  0  0  0  0  0  0  0  0  0  0
  -27.9291  -22.8181   19.8706 C   0  0  0  0  0  0  0  0  0  0  0  0
  -20.0467   -5.1654   21.1319 C   0  0  0  0  0  0  0  0  0  0  0  0
  -24.4615   -9.6677   21.2469 C   0  0  0  0  0  0  0  0  0  0  0  0
  -26.8572   -9.1874   21.9800 C   0  0  0  0  0  0  0  0  0  0  0  0
  -25.9783  -32.3010   26.9079 C   0  0  0  0  0  0  0  0  0  0  0  0
  -26.0046  -29.6928   20.7948 C   0  0  0  0  0  0  0  0  0  0  0  0
  -25.9611  -31.1926   26.0398 C   0  0  0  0  0  0  0  0  0  0  0  0
  -25.2207  -28.5830   20.4487 C   0  0  0  0  0  0  0  0  0  0  0  0
  -27.8132  -23.8568   18.9535 C   0  0  0  0  0  0  0  0  0  0  0  0
  -28.4645  -23.7706   17.7280 C   0  0  0  0  0  0  0  0  0  0  0  0
  -21.7357   -9.1022   21.0644 C   0  0  0  0  0  0  0  0  0  0  0  0
  -27.2428  -27.3078   20.0074 C   0  0  0  0  0  0  0  0  0  0  0  0
  -20.0381   -7.5320   20.6463 C   0  0  0  0  0  0  0  0  0  0  0  0
  -19.2939   -4.9267   19.9821 C   0  0  0  0  0  0  0  0  0  0  0  0
  -20.4188   -6.4681   21.4640 C   0  0  0  0  0  0  0  0  0  0  0  0
  -25.8693   -9.9599   21.3403 C   0  0  0  0  0  0  0  0  0  0  0  0
  -29.2133  -22.6338   17.4701 C   0  0  0  0  0  0  0  0  0  0  0  0
  -28.7017  -21.7238   19.5166 C   0  0  0  0  0  0  0  0  0  0  0  0
  -28.0213   -9.8901   21.7863 C   0  0  0  0  0  0  0  0  0  0  0  0
  -26.7336   -7.9457   22.6861 C   0  0  0  0  0  0  0  0  0  0  0  0
  -23.9066  -30.2520   23.1163 C   0  0  0  0  0  0  0  0  0  0  0  0
  -21.7807  -30.2406   20.6662 C   0  0  0  0  0  0  0  0  0  0  0  0
  -21.0140  -29.2224   17.5004 C   0  0  0  0  0  0  0  0  0  0  0  0
  -29.2459  -15.4814   20.9944 C   0  0  0  0  0  0  0  0  0  0  0  0
  -24.7067  -32.9749   27.3593 C   0  0  0  0  0  0  0  0  0  0  0  0
  -25.3551  -30.9908   21.1897 C   0  0  0  0  0  0  0  0  0  0  0  0
  -23.7158  -28.6315   20.4887 C   0  0  0  0  0  0  0  0  0  0  0  0
  -23.5010  -32.6514   26.4808 C   0  0  0  0  0  0  0  0  0  0  0  0
  -30.1088  -12.9282   18.7437 C   0  0  0  0  0  0  0  0  0  0  0  0
  -23.4279  -31.1529   26.2052 C   0  0  0  0  0  0  0  0  0  0  0  0
  -29.2083  -11.7882   19.2184 C   0  0  0  0  0  0  0  0  0  0  0  0
  -28.7829  -18.5401   19.3156 C   0  0  0  0  0  0  0  0  0  0  0  0
  -29.9197  -18.8346   21.5491 C   0  0  0  0  0  0  0  0  0  0  0  0
  -29.3875  -14.2770   18.7689 C   0  0  0  0  0  0  0  0  0  0  0  0
  -29.5010  -17.1980   19.1464 C   0  0  0  0  0  0  0  0  0  0  0  0
  -30.6344  -17.5051   21.3237 C   0  0  0  0  0  0  0  0  0  0  0  0
  -27.8758  -13.4661   20.5511 C   0  0  0  0  0  0  0  0  0  0  0  0
  -24.6704  -30.6702   25.4470 C   0  0  1  0  0  0  0  0  0  0  0  0
  -23.9368  -30.8115   21.7221 C   0  0  1  0  0  0  0  0  0  0  0  0
  -28.5913  -12.1069   20.5919 C   0  0  1  0  0  0  0  0  0  0  0  0
  -29.5774  -19.4941   20.2107 C   0  0  0  0  0  0  0  0  0  0  0  0
  -28.3609  -24.8718   16.7269 C   0  0  0  0  0  0  0  0  0  0  0  0
  -29.9355  -22.4857   16.1709 C   0  0  0  0  0  0  0  0  0  0  0  0
  -19.1885  -29.3367   15.7822 C   0  0  0  0  0  0  0  0  0  0  0  0
  -20.1891  -28.1534   22.2219 C   0  0  0  0  0  0  0  0  0  0  0  0
  -18.9535  -27.6229   20.1100 C   0  0  0  0  0  0  0  0  0  0  0  0
  -18.7983  -29.9056   21.1039 C   0  0  0  0  0  0  0  0  0  0  0  0
  -22.7617  -30.6263   15.5681 C   0  0  0  0  0  0  0  0  0  0  0  0
  -26.9877  -25.0497   19.3059 C   0  0  0  0  0  0  0  0  0  1  0  0
  -20.9459  -29.1865   19.9800 C   0  0  1  0  0  0  0  0  0  0  0  0
  -20.4644  -29.9788   16.3044 C   0  0  2  0  0  0  0  0  0  0  0  0
  -19.7501  -28.7153   20.8549 C   0  0  0  0  0  0  0  0  0  0  0  0
  -26.3627  -11.0685   20.7822 N   0  0  0  0  0  0  0  0  0  0  0  0
  -29.3492  -21.6044   18.3359 N   0  0  0  0  0  0  0  0  0  0  0  0
  -27.6734  -10.9978   21.0706 N   0  0  0  0  0  0  0  0  0  0  0  0
  -23.1279  -29.9212   20.8871 N   0  0  0  0  0  0  0  0  0  0  0  0
  -28.7817  -14.5185   20.0859 N   0  0  0  0  0  0  0  0  0  0  0  0
  -29.8509  -16.6263   20.4546 N   0  0  0  0  0  0  0  0  0  0  0  0
  -29.2983   -9.6624   22.1602 N   0  0  0  0  0  0  0  0  0  0  0  0
  -25.4646   -7.3602   22.7911 N   0  0  0  0  0  0  0  0  0  0  0  0
  -28.8089  -20.6980   20.4389 N   0  0  0  0  0  0  0  0  0  0  0  0
  -24.5768  -31.0231   24.0466 N   0  0  0  0  0  0  0  0  0  0  0  0
  -20.5580  -29.7483   18.6907 N   0  0  0  0  0  0  0  0  0  0  0  0
  -21.4655  -30.0003   15.2006 N   0  3  0  0  0  0  0  0  0  0  0  0
  -27.7167   -7.3806   23.2225 O   0  0  0  0  0  0  0  0  0  0  0  0
  -23.3175  -29.1993   23.3322 O   0  0  0  0  0  0  0  0  0  0  0  0
  -21.2585  -31.3109   20.9877 O   0  0  0  0  0  0  0  0  0  0  0  0
  -21.7690  -28.2590   17.3897 O   0  0  0  0  0  0  0  0  0  0  0  0
  -29.1268  -15.3276   22.2164 O   0  0  0  0  0  0  0  0  0  0  0  0
  -20.4060   -8.8260   20.9751 O   0  0  0  0  0  0  0  0  0  0  0  0
  -27.8455  -26.1376   19.6260 O   0  0  0  0  0  0  0  0  0  1  0  0
  -18.9353   -3.6760   19.6639 F   0  0  0  0  0  0  0  0  0  0  0  0
  -21.1410   -6.6912   22.5705 F   0  0  0  0  0  0  0  0  0  0  0  0
  1  2  1  0  0  0  0
  1  5  2  0  0  0  0
  2  6  2  0  0  0  0
  3  8  2  0  0  0  0
  3 16  1  0  0  0  0
  4  9  1  0  0  0  0
  4 16  2  0  0  0  0
  5 18  1  0  0  0  0
  6 20  1  0  0  0  0
  7 10  2  0  0  0  0
  7 19  1  0  0  0  0
  8 24  1  0  0  0  0
  9 24  2  0  0  0  0
 10 25  1  0  0  0  0
 11 12  2  0  0  0  0
 11 26  1  0  0  0  0
 12 27  1  0  0  0  0
 13 21  1  0  0  0  0
 13 25  2  0  0  0  0
 14 22  1  0  0  0  0
 14 31  2  0  0  0  0
 15 27  2  0  0  0  0
 15 28  1  0  0  0  0
 16 29  1  0  0  0  0
 17 29  1  0  0  0  0
 17 32  2  0  0  0  0
 17 33  1  0  0  0  0
 18 20  2  0  0  0  0
 18 38  1  0  0  0  0
 19 21  2  0  0  0  0
 19 39  1  0  0  0  0
 20 51  1  0  0  0  0
 21 40  1  0  0  0  0
 22 23  2  0  0  0  0
 22 62  1  0  0  0  0
 23 30  1  0  0  0  0
 23 55  1  0  0  0  0
 24 83  1  0  0  0  0
 25 84  1  0  0  0  0
 26 28  2  0  0  0  0
 26 83  1  0  0  0  0
 27 85  1  0  0  0  0
 28 86  1  0  0  0  0
 29 66  2  0  0  0  0
 30 56  1  0  0  0  0
 30 67  2  0  0  0  0
 31 67  1  0  0  0  0
 31 74  1  0  0  0  0
 32 68  1  0  0  0  0
 32 72  1  0  0  0  0
 33 73  1  0  0  0  0
 33 78  2  0  0  0  0
 34 52  1  0  0  0  0
 34 75  1  0  0  0  0
 34 79  2  0  0  0  0
 35 63  1  0  0  0  0
 35 69  1  0  0  0  0
 35 80  2  0  0  0  0
 36 64  1  0  0  0  0
 36 76  1  0  0  0  0
 36 81  2  0  0  0  0
 37 70  1  0  0  0  0
 37 71  1  0  0  0  0
 37 82  2  0  0  0  0
 38 41  1  0  0  0  0
 39 52  1  0  0  0  0
 40 69  1  0  0  0  0
 41 43  1  0  0  0  0
 42 44  1  0  0  0  0
 42 47  1  0  0  0  0
 43 51  1  0  0  0  0
 44 53  1  0  0  0  0
 45 48  1  0  0  0  0
 45 54  1  0  0  0  0
 46 49  1  0  0  0  0
 46 54  1  0  0  0  0
 47 70  1  0  0  0  0
 48 71  1  0  0  0  0
 49 71  1  0  0  0  0
 50 53  1  0  0  0  0
 50 70  1  0  0  0  0
 51 75  1  0  0  0  0
 52 69  1  0  0  0  0
 53 68  1  0  0  0  0
 54 74  1  0  0  0  0
 57 64  1  0  0  0  0
 58 65  1  0  0  0  0
 59 65  1  0  0  0  0
 60 65  1  0  0  0  0
 61 77  1  0  0  0  0
 62 84  1  0  0  0  0
 63 65  1  0  0  0  0
 63 76  1  0  0  0  0
 64 77  1  0  0  0  0
 66 68  1  0  0  0  0
M  CHG  1  77   1
M  ISO  4  37 100  62 101  71 100  84 101
M  END
> <Batch ID>
0164

> <Smiles>
CNC(C)C(=O)NC(C(=O)N1Cc2cc([101O:1][101CH2:1]c3cc(NC4CC[100N:0]([100C:0](=O)N5CCCC(n6nc(-c7ccc(Oc8ccc(F)cc8F)cc7)c(C(N)=O)c6N)C5)CC4)nc(C)c3C)ccc2CC1C(=O)NC1CCCc2ccccc21)C(C)(C)C

> <Shape>
0.301

> <Color>
0.104

> <Negative vol penalty>
0.000

$$$$

  -OEChem-04052322193D

 90100  0     1  0  0  0  0  0999 V2000
  -26.6971  -29.7516   12.5200 C   0  0  0  0  0  0  0  0  0  0  0  0
  -27.3260  -28.8536   13.3764 C   0  0  0  0  0  0  0  0  0  0  0  0
  -23.9638  -10.9115   23.6203 C   0  0  0  0  0  0  0  0  0  0  0  0
  -24.5211   -9.4576   21.7729 C   0  0  0  0  0  0  0  0  0  0  0  0
  -26.2574  -30.9831   13.0036 C   0  0  0  0  0  0  0  0  0  0  0  0
  -27.5165  -29.1871   14.7169 C   0  0  0  0  0  0  0  0  0  0  0  0
  -26.3390  -25.3872   17.8505 C   0  0  0  0  0  0  0  0  0  0  0  0
  -23.4888   -9.8151   24.3399 C   0  0  0  0  0  0  0  0  0  0  0  0
  -24.0460   -8.3612   22.4925 C   0  0  0  0  0  0  0  0  0  0  0  0
  -27.2705  -24.3582   17.9816 C   0  0  0  0  0  0  0  0  0  0  0  0
  -21.0513   -6.9890   23.2538 C   0  0  0  0  0  0  0  0  0  0  0  0
  -20.2346   -6.0785   22.5834 C   0  0  0  0  0  0  0  0  0  0  0  0
  -30.0980  -17.2838   21.7766 C   0  0  0  0  0  0  0  0  0  0  0  0
  -28.0457  -25.3313   20.0483 C   0  0  0  0  0  0  0  0  0  0  0  0
  -21.8295   -4.3194   23.0296 C   0  0  0  0  0  0  0  0  0  0  0  0
  -24.4800  -10.7328   22.3368 C   0  0  0  0  0  0  0  0  0  0  0  0
  -24.2444  -13.0079   21.2073 C   0  0  0  0  0  0  0  0  0  0  0  0
  -26.4340  -31.3279   14.3529 C   0  0  0  0  0  0  0  0  0  0  0  0
  -26.2612  -26.4037   18.8134 C   0  0  0  0  0  0  0  0  0  0  0  0
  -27.0800  -30.4249   15.2188 C   0  0  0  0  0  0  0  0  0  0  0  0
  -31.4034  -16.9913   22.1715 C   0  0  0  0  0  0  0  0  0  0  0  0
  -27.1107  -26.3707   19.9285 C   0  0  0  0  0  0  0  0  0  0  0  0
  -30.7587  -19.5524   21.2727 C   0  0  0  0  0  0  0  0  0  0  0  0
  -29.7757  -18.5644   21.3271 C   0  0  0  0  0  0  0  0  0  0  0  0
  -32.3865  -17.9794   22.1171 C   0  0  0  0  0  0  0  0  0  0  0  0
  -32.0641  -19.2600   21.6677 C   0  0  0  0  0  0  0  0  0  0  0  0
  -23.5299   -8.5399   23.7760 C   0  0  0  0  0  0  0  0  0  0  0  0
  -28.1260  -24.3316   19.0791 C   0  0  0  0  0  0  0  0  0  0  0  0
  -22.2572   -6.5647   23.8120 C   0  0  0  0  0  0  0  0  0  0  0  0
  -20.6236   -4.7436   22.4713 C   0  0  0  0  0  0  0  0  0  0  0  0
  -22.6463   -5.2299   23.6999 C   0  0  0  0  0  0  0  0  0  0  0  0
  -24.9703  -11.8650   21.5928 C   0  0  0  0  0  0  0  0  0  0  0  0
  -25.1547  -13.7799   20.5278 C   0  0  0  0  0  0  0  0  0  0  0  0
  -22.8701  -13.3420   21.4426 C   0  0  0  0  0  0  0  0  0  0  0  0
  -26.6779  -29.5548   18.7873 C   0  0  0  0  0  0  0  0  0  0  0  0
  -25.6266  -29.3276   21.8476 C   0  0  0  0  0  0  0  0  0  0  0  0
  -25.2195  -27.4020   24.6357 C   0  0  0  0  0  0  0  0  0  0  0  0
  -31.0603  -14.2107   20.6831 C   0  0  0  0  0  0  0  0  0  0  0  0
  -25.9843  -32.6900   14.8190 C   0  0  0  0  0  0  0  0  0  0  0  0
  -25.2329  -27.4922   18.6712 C   0  0  0  0  0  0  0  0  0  0  0  0
  -27.0536  -27.4271   21.0004 C   0  0  0  0  0  0  0  0  0  0  0  0
  -25.8890  -32.8134   16.3375 C   0  0  0  0  0  0  0  0  0  0  0  0
  -31.1185  -13.9599   24.3001 C   0  0  0  0  0  0  0  0  0  0  0  0
  -29.1116  -13.4682   17.8759 C   0  0  0  0  0  0  0  0  0  0  0  0
  -31.1623  -21.2962   19.4848 C   0  0  0  0  0  0  0  0  0  0  0  0
  -30.6089  -22.0230   21.8554 C   0  0  0  0  0  0  0  0  0  0  0  0
  -31.4960  -15.4294   24.1629 C   0  0  0  0  0  0  0  0  0  0  0  0
  -27.1351  -32.2338   16.9994 C   0  0  0  0  0  0  0  0  0  0  0  0
  -27.7602  -13.0615   18.4601 C   0  0  0  0  0  0  0  0  0  0  0  0
  -31.3787  -22.8024   19.2917 C   0  0  0  0  0  0  0  0  0  0  0  0
  -30.0884  -23.3914   21.3961 C   0  0  0  0  0  0  0  0  0  0  0  0
  -30.2549  -12.9295   18.7267 C   0  0  0  0  0  0  0  0  0  0  0  0
  -30.2818  -13.7087   23.0553 C   0  0  0  0  0  0  0  0  0  0  0  0
  -28.8448  -12.9752   20.7621 C   0  0  0  0  0  0  0  0  0  0  0  0
  -30.4058  -20.9446   20.7820 C   0  0  0  0  0  0  0  0  0  0  0  0
  -31.7263  -15.5957   22.6550 C   0  0  1  0  0  0  0  0  0  0  0  0
  -27.2828  -30.7402   16.6849 C   0  0  1  0  0  0  0  0  0  0  0  0
  -25.5896  -28.7563   19.4472 C   0  0  1  0  0  0  0  0  0  0  0  0
  -27.6507  -13.4905   19.9327 C   0  0  2  0  0  0  0  0  0  0  0  0
  -30.2554  -23.6408   19.8921 C   0  0  0  0  0  0  0  0  0  1  0  0
  -28.3702  -18.8512   20.9095 C   0  0  0  0  0  0  0  0  0  0  0  0
  -33.7856  -17.6631   22.5418 C   0  0  0  0  0  0  0  0  0  0  0  0
  -33.1189  -20.3198   21.6093 C   0  0  0  0  0  0  0  0  0  0  0  0
  -24.3646  -27.5044   26.9928 C   0  0  0  0  0  0  0  0  0  0  0  0
  -28.1402  -30.8377   22.6910 C   0  0  0  0  0  0  0  0  0  0  0  0
  -27.7192  -30.0854   25.0416 C   0  0  0  0  0  0  0  0  0  0  0  0
  -26.0547  -31.5365   23.8812 C   0  0  0  0  0  0  0  0  0  0  0  0
  -23.1735  -25.3301   24.1067 C   0  0  0  0  0  0  0  0  0  0  0  0
  -26.2829  -29.1152   23.1904 C   0  0  1  0  0  0  0  0  0  0  0  0
  -24.0234  -27.1867   25.5452 C   0  0  2  0  0  0  0  0  0  0  0  0
  -27.0519  -30.3747   23.6800 C   0  0  0  0  0  0  0  0  0  0  0  0
  -26.2437  -11.9033   21.1912 N   0  0  0  0  0  0  0  0  0  0  0  0
  -26.3249  -13.0796   20.5464 N   0  0  0  0  0  0  0  0  0  0  0  0
  -26.0355  -28.4740   20.8131 N   0  0  0  0  0  0  0  0  0  0  0  0
  -30.1189  -13.3360   20.1259 N   0  0  0  0  0  0  0  0  0  0  0  0
  -30.9015  -14.5502   22.0298 N   0  0  0  0  0  0  0  0  0  0  0  0
  -25.0603  -14.9826   19.9220 N   0  0  0  0  0  0  0  0  0  0  0  0
  -22.0754  -12.4361   22.1583 N   0  0  0  0  0  0  0  0  0  0  0  0
  -26.3773  -29.9599   17.5008 N   0  0  0  0  0  0  0  0  0  0  0  0
  -25.2279  -28.6702   24.0945 N   0  0  0  0  0  0  0  0  0  0  0  0
  -23.5641  -25.7709   25.4705 N   0  3  0  0  0  0  0  0  0  0  0  0
  -22.3576  -14.4046   21.0163 O   0  0  0  0  0  0  0  0  0  0  0  0
  -27.7131  -29.7875   19.4004 O   0  0  0  0  0  0  0  0  0  0  0  0
  -24.7772  -30.2133   21.7229 O   0  0  0  0  0  0  0  0  0  0  0  0
  -26.0641  -26.5334   24.4290 O   0  0  0  0  0  0  0  0  0  0  0  0
  -32.0077  -14.6496   20.0185 O   0  0  0  0  0  0  0  0  0  0  0  0
  -23.0666   -7.4698   24.4779 O   0  0  0  0  0  0  0  0  0  0  0  0
  -29.0424  -23.3222   19.2101 O   0  0  0  0  0  0  0  0  0  1  0  0
  -19.8384   -3.8690   21.8289 F   0  0  0  0  0  0  0  0  0  0  0  0
  -23.8031   -4.8162   24.2352 F   0  0  0  0  0  0  0  0  0  0  0  0
  1  2  1  0  0  0  0
  1  5  2  0  0  0  0
  2  6  2  0  0  0  0
  3  8  2  0  0  0  0
  3 16  1  0  0  0  0
  4  9  1  0  0  0  0
  4 16  2  0  0  0  0
  5 18  1  0  0  0  0
  6 20  1  0  0  0  0
  7 10  2  0  0  0  0
  7 19  1  0  0  0  0
  8 27  1  0  0  0  0
  9 27  2  0  0  0  0
 10 28  1  0  0  0  0
 11 12  2  0  0  0  0
 11 29  1  0  0  0  0
 12 30  1  0  0  0  0
 13 21  1  0  0  0  0
 13 24  2  0  0  0  0
 14 22  1  0  0  0  0
 14 28  2  0  0  0  0
 15 30  2  0  0  0  0
 15 31  1  0  0  0  0
 16 32  1  0  0  0  0
 17 32  1  0  0  0  0
 17 33  2  0  0  0  0
 17 34  1  0  0  0  0
 18 20  2  0  0  0  0
 18 39  1  0  0  0  0
 19 22  2  0  0  0  0
 19 40  1  0  0  0  0
 20 57  1  0  0  0  0
 21 25  2  0  0  0  0
 21 56  1  0  0  0  0
 22 41  1  0  0  0  0
 23 24  1  0  0  0  0
 23 26  2  0  0  0  0
 23 55  1  0  0  0  0
 24 61  1  0  0  0  0
 25 26  1  0  0  0  0
 25 62  1  0  0  0  0
 26 63  1  0  0  0  0
 27 87  1  0  0  0  0
 28 88  1  0  0  0  0
 29 31  2  0  0  0  0
 29 87  1  0  0  0  0
 30 89  1  0  0  0  0
 31 90  1  0  0  0  0
 32 72  2  0  0  0  0
 33 73  1  0  0  0  0
 33 77  1  0  0  0  0
 34 78  1  0  0  0  0
 34 82  2  0  0  0  0
 35 58  1  0  0  0  0
 35 79  1  0  0  0  0
 35 83  2  0  0  0  0
 36 69  1  0  0  0  0
 36 74  1  0  0  0  0
 36 84  2  0  0  0  0
 37 70  1  0  0  0  0
 37 80  1  0  0  0  0
 37 85  2  0  0  0  0
 38 75  1  0  0  0  0
 38 76  1  0  0  0  0
 38 86  2  0  0  0  0
 39 42  1  0  0  0  0
 40 58  1  0  0  0  0
 41 74  1  0  0  0  0
 42 48  1  0  0  0  0
 43 47  1  0  0  0  0
 43 53  1  0  0  0  0
 44 49  1  0  0  0  0
 44 52  1  0  0  0  0
 45 50  1  0  0  0  0
 45 55  1  0  0  0  0
 46 51  1  0  0  0  0
 46 55  1  0  0  0  0
 47 56  1  0  0  0  0
 48 57  1  0  0  0  0
 49 59  1  0  0  0  0
 50 60  1  0  0  0  0
 51 60  1  0  0  0  0
 52 75  1  0  0  0  0
 53 76  1  0  0  0  0
 54 59  1  0  0  0  0
 54 75  1  0  0  0  0
 56 76  1  0  0  0  0
 57 79  1  0  0  0  0
 58 74  1  0  0  0  0
 59 73  1  0  0  0  0
 60 88  1  0  0  0  0
 64 70  1  0  0  0  0
 65 71  1  0  0  0  0
 66 71  1  0  0  0  0
 67 71  1  0  0  0  0
 68 81  1  0  0  0  0
 69 71  1  0  0  0  0
 69 80  1  0  0  0  0
 70 81  1  0  0  0  0
 72 73  1  0  0  0  0
M  CHG  1  81   1
M  ISO  4  38 100  60 101  76 100  88 101
M  END
> <Batch ID>
0164

> <Smiles>
CNC(C)C(=O)NC(C(=O)N1Cc2cc([101O:1][101CH:1]3CCC(c4c(C)cc(C5CCC[100N:0]5[100C:0](=O)N5CCCC(n6nc(-c7ccc(Oc8ccc(F)cc8F)cc7)c(C(N)=O)c6N)C5)c(C)c4C)CC3)ccc2CC1C(=O)NC1CCCc2ccccc21)C(C)(C)C

> <Shape>
0.277

> <Color>
0.174

> <Negative vol penalty>
0.000

$$$$

  -OEChem-04052322193D

 87 96  0     1  0  0  0  0  0999 V2000
  -21.7922  -34.8401   15.5001 C   0  0  0  0  0  0  0  0  0  0  0  0
  -22.5631  -33.6827   15.5405 C   0  0  0  0  0  0  0  0  0  0  0  0
  -24.8115   -9.1102   21.1159 C   0  0  0  0  0  0  0  0  0  0  0  0
  -22.9212   -9.6335   22.5266 C   0  0  0  0  0  0  0  0  0  0  0  0
  -21.9097  -35.7902   16.5137 C   0  0  0  0  0  0  0  0  0  0  0  0
  -23.4528  -33.4753   16.5940 C   0  0  0  0  0  0  0  0  0  0  0  0
  -24.9012  -28.1208   19.1896 C   0  0  0  0  0  0  0  0  0  0  0  0
  -24.8595   -7.8254   21.6568 C   0  0  0  0  0  0  0  0  0  0  0  0
  -22.9692   -8.3487   23.0675 C   0  0  0  0  0  0  0  0  0  0  0  0
  -25.9812  -27.2563   19.0166 C   0  0  0  0  0  0  0  0  0  0  0  0
  -22.3671   -5.0888   24.5603 C   0  0  0  0  0  0  0  0  0  0  0  0
  -21.1635   -4.3979   24.7003 C   0  0  0  0  0  0  0  0  0  0  0  0
  -27.0843  -28.2652   20.9099 C   0  0  0  0  0  0  0  0  0  0  0  0
  -20.8041   -4.5409   22.3155 C   0  0  0  0  0  0  0  0  0  0  0  0
  -23.8424  -10.0143   21.5508 C   0  0  0  0  0  0  0  0  0  0  0  0
  -23.0657  -11.7623   19.8630 C   0  0  0  0  0  0  0  0  0  0  0  0
  -22.7942  -35.5899   17.5852 C   0  0  0  0  0  0  0  0  0  0  0  0
  -24.9094  -29.0729   20.2190 C   0  0  0  0  0  0  0  0  0  0  0  0
  -23.5832  -34.4243   17.6222 C   0  0  0  0  0  0  0  0  0  0  0  0
  -26.0020  -29.1389   21.0954 C   0  0  0  0  0  0  0  0  0  0  0  0
  -31.5873  -24.3520   18.1922 C   0  0  0  0  0  0  0  0  0  0  0  0
  -30.4830  -25.1966   18.1748 C   0  0  0  0  0  0  0  0  0  0  0  0
  -31.4513  -23.0483   18.6561 C   0  0  0  0  0  0  0  0  0  0  0  0
  -23.9384   -7.4446   22.6326 C   0  0  0  0  0  0  0  0  0  0  0  0
  -27.0743  -27.3304   19.8750 C   0  0  0  0  0  0  0  0  0  0  0  0
  -22.7892   -5.5058   23.2979 C   0  0  0  0  0  0  0  0  0  0  0  0
  -20.3820   -4.1239   23.5779 C   0  0  0  0  0  0  0  0  0  0  0  0
  -22.0077   -5.2318   22.1755 C   0  0  0  0  0  0  0  0  0  0  0  0
  -23.7926  -11.3418   20.9928 C   0  0  0  0  0  0  0  0  0  0  0  0
  -29.2744  -24.6933   18.6284 C   0  0  0  0  0  0  0  0  0  0  0  0
  -30.1994  -22.6412   19.0883 C   0  0  0  0  0  0  0  0  0  0  0  0
  -23.3509  -13.1011   19.7500 C   0  0  0  0  0  0  0  0  0  0  0  0
  -22.2091  -11.0101   18.9935 C   0  0  0  0  0  0  0  0  0  0  0  0
  -24.8238  -32.2482   20.3385 C   0  0  0  0  0  0  0  0  0  0  0  0
  -24.6049  -31.7334   23.5337 C   0  0  0  0  0  0  0  0  0  0  0  0
  -25.1932  -29.6624   26.1816 C   0  0  0  0  0  0  0  0  0  0  0  0
  -26.7095  -17.2874   19.7368 C   0  0  0  0  0  0  0  0  0  0  0  0
  -22.9211  -36.6673   18.6330 C   0  0  0  0  0  0  0  0  0  0  0  0
  -23.7248  -29.9803   20.4087 C   0  0  0  0  0  0  0  0  0  0  0  0
  -26.0508  -30.1297   22.2287 C   0  0  0  0  0  0  0  0  0  0  0  0
  -23.6139  -36.1971   19.9094 C   0  0  0  0  0  0  0  0  0  0  0  0
  -25.6715  -16.2652   22.9316 C   0  0  0  0  0  0  0  0  0  0  0  0
  -24.8760  -35.4093   19.5726 C   0  0  0  0  0  0  0  0  0  0  0  0
  -25.0256  -14.9148   22.6230 C   0  0  0  0  0  0  0  0  0  0  0  0
  -29.0821  -19.5955   20.9335 C   0  0  0  0  0  0  0  0  0  0  0  0
  -27.9224  -20.4081   18.8449 C   0  0  0  0  0  0  0  0  0  0  0  0
  -26.9547  -16.4838   22.1279 C   0  0  0  0  0  0  0  0  0  0  0  0
  -27.7843  -18.9061   21.3651 C   0  0  0  0  0  0  0  0  0  0  0  0
  -26.6446  -19.7290   19.3297 C   0  0  0  0  0  0  0  0  0  0  0  0
  -26.1392  -14.9588   20.3592 C   0  0  0  0  0  0  0  0  0  0  0  0
  -24.5414  -34.1518   18.7613 C   0  0  1  0  0  0  0  0  0  0  0  0
  -24.0655  -31.2556   21.1736 C   0  0  1  0  0  0  0  0  0  0  0  0
  -24.8166  -14.7355   21.1088 C   0  0  1  0  0  0  0  0  0  0  0  0
  -28.8055  -20.8010   20.0320 C   0  0  0  0  0  0  0  0  0  0  0  0
  -32.9154  -24.8447   17.7125 C   0  0  0  0  0  0  0  0  0  0  0  0
  -30.5971  -26.6004   17.6822 C   0  0  0  0  0  0  0  0  0  0  0  0
  -32.6244  -22.1249   18.6840 C   0  0  0  0  0  0  0  0  0  0  0  0
  -24.9393  -29.5318   28.6748 C   0  0  0  0  0  0  0  0  0  0  0  0
  -26.9896  -33.6065   23.8723 C   0  0  0  0  0  0  0  0  0  0  0  0
  -27.2790  -32.7059   26.1904 C   0  0  0  0  0  0  0  0  0  0  0  0
  -25.1799  -33.9038   25.5726 C   0  0  0  0  0  0  0  0  0  0  0  0
  -23.4187  -27.3014   25.9936 C   0  0  0  0  0  0  0  0  0  0  0  0
  -28.0531  -25.5533   18.6340 C   0  0  0  0  0  0  0  0  0  1  0  0
  -25.5957  -31.5819   24.6625 C   0  0  1  0  0  0  0  0  0  0  0  0
  -24.3046  -29.2171   27.3290 C   0  0  2  0  0  0  0  0  0  0  0  0
  -26.2613  -32.9321   25.0520 C   0  0  0  0  0  0  0  0  0  0  0  0
  -24.4876  -12.3331   21.5571 N   0  0  0  0  0  0  0  0  0  0  0  0
  -29.1035  -23.4329   19.0864 N   0  0  0  0  0  0  0  0  0  0  0  0
  -24.1986  -13.3898   20.7787 N   0  0  0  0  0  0  0  0  0  0  0  0
  -24.8712  -30.9995   22.3691 N   0  0  0  0  0  0  0  0  0  0  0  0
  -26.7151  -16.2627   20.6949 N   0  0  0  0  0  0  0  0  0  0  0  0
  -26.9492  -18.5907   20.1973 N   0  0  0  0  0  0  0  0  0  0  0  0
  -22.9568  -14.0478   18.8720 N   0  0  0  0  0  0  0  0  0  0  0  0
  -22.0259   -9.6451   19.2532 N   0  0  0  0  0  0  0  0  0  0  0  0
  -30.0570  -21.3461   19.5538 N   0  0  0  0  0  0  0  0  0  0  0  0
  -24.0182  -33.1164   19.6267 N   0  0  0  0  0  0  0  0  0  0  0  0
  -24.8757  -30.9341   25.7535 N   0  0  0  0  0  0  0  0  0  0  0  0
  -24.0613  -27.7487   27.2561 N   0  3  0  0  0  0  0  0  0  0  0  0
  -21.6364  -11.5293   18.0056 O   0  0  0  0  0  0  0  0  0  0  0  0
  -26.0491  -32.2287   20.3409 O   0  0  0  0  0  0  0  0  0  0  0  0
  -23.6267  -32.4700   23.6824 O   0  0  0  0  0  0  0  0  0  0  0  0
  -26.0827  -28.9544   25.7145 O   0  0  0  0  0  0  0  0  0  0  0  0
  -26.5028  -17.0519   18.5398 O   0  0  0  0  0  0  0  0  0  0  0  0
  -23.9848   -6.1910   23.1605 O   0  0  0  0  0  0  0  0  0  0  0  0
  -28.1376  -26.4822   19.7068 O   0  0  0  0  0  0  0  0  0  1  0  0
  -19.2270   -3.4591   23.7123 F   0  0  0  0  0  0  0  0  0  0  0  0
  -22.4085   -5.6289   20.9600 F   0  0  0  0  0  0  0  0  0  0  0  0
  1  2  1  0  0  0  0
  1  5  2  0  0  0  0
  2  6  2  0  0  0  0
  3  8  2  0  0  0  0
  3 15  1  0  0  0  0
  4  9  1  0  0  0  0
  4 15  2  0  0  0  0
  5 17  1  0  0  0  0
  6 19  1  0  0  0  0
  7 10  2  0  0  0  0
  7 18  1  0  0  0  0
  8 24  1  0  0  0  0
  9 24  2  0  0  0  0
 10 25  1  0  0  0  0
 11 12  2  0  0  0  0
 11 26  1  0  0  0  0
 12 27  1  0  0  0  0
 13 20  1  0  0  0  0
 13 25  2  0  0  0  0
 14 27  2  0  0  0  0
 14 28  1  0  0  0  0
 15 29  1  0  0  0  0
 16 29  1  0  0  0  0
 16 32  2  0  0  0  0
 16 33  1  0  0  0  0
 17 19  2  0  0  0  0
 17 38  1  0  0  0  0
 18 20  2  0  0  0  0
 18 39  1  0  0  0  0
 19 51  1  0  0  0  0
 20 40  1  0  0  0  0
 21 22  1  0  0  0  0
 21 23  2  0  0  0  0
 21 55  1  0  0  0  0
 22 30  2  0  0  0  0
 22 56  1  0  0  0  0
 23 31  1  0  0  0  0
 23 57  1  0  0  0  0
 24 84  1  0  0  0  0
 25 85  1  0  0  0  0
 26 28  2  0  0  0  0
 26 84  1  0  0  0  0
 27 86  1  0  0  0  0
 28 87  1  0  0  0  0
 29 67  2  0  0  0  0
 30 63  1  0  0  0  0
 30 68  1  0  0  0  0
 31 68  2  0  0  0  0
 31 75  1  0  0  0  0
 32 69  1  0  0  0  0
 32 73  1  0  0  0  0
 33 74  1  0  0  0  0
 33 79  2  0  0  0  0
 34 52  1  0  0  0  0
 34 76  1  0  0  0  0
 34 80  2  0  0  0  0
 35 64  1  0  0  0  0
 35 70  1  0  0  0  0
 35 81  2  0  0  0  0
 36 65  1  0  0  0  0
 36 77  1  0  0  0  0
 36 82  2  0  0  0  0
 37 71  1  0  0  0  0
 37 72  1  0  0  0  0
 37 83  2  0  0  0  0
 38 41  1  0  0  0  0
 39 52  1  0  0  0  0
 40 70  1  0  0  0  0
 41 43  1  0  0  0  0
 42 44  1  0  0  0  0
 42 47  1  0  0  0  0
 43 51  1  0  0  0  0
 44 53  1  0  0  0  0
 45 48  1  0  0  0  0
 45 54  1  0  0  0  0
 46 49  1  0  0  0  0
 46 54  1  0  0  0  0
 47 71  1  0  0  0  0
 48 72  1  0  0  0  0
 49 72  1  0  0  0  0
 50 53  1  0  0  0  0
 50 71  1  0  0  0  0
 51 76  1  0  0  0  0
 52 70  1  0  0  0  0
 53 69  1  0  0  0  0
 54 75  1  0  0  0  0
 58 65  1  0  0  0  0
 59 66  1  0  0  0  0
 60 66  1  0  0  0  0
 61 66  1  0  0  0  0
 62 78  1  0  0  0  0
 63 85  1  0  0  0  0
 64 66  1  0  0  0  0
 64 77  1  0  0  0  0
 65 78  1  0  0  0  0
 67 69  1  0  0  0  0
M  CHG  1  78   1
M  ISO  4  37 100  63 101  72 100  85 101
M  END
> <Batch ID>
0164

> <Smiles>
CNC(C)C(=O)NC(C(=O)N1Cc2cc([101O:1][101CH2:1]c3nc(NC4CC[100N:0]([100C:0](=O)N5CCCC(n6nc(-c7ccc(Oc8ccc(F)cc8F)cc7)c(C(N)=O)c6N)C5)CC4)c(C)c(C)c3C)ccc2CC1C(=O)NC1CCCc2ccccc21)C(C)(C)C

> <Shape>
0.294

> <Color>
0.111

> <Negative vol penalty>
0.000

$$$$

  -OEChem-04052322193D

 87 96  0     1  0  0  0  0  0999 V2000
  -32.3959  -27.9768   14.7431 C   0  0  0  0  0  0  0  0  0  0  0  0
  -31.9670  -27.2537   15.8515 C   0  0  0  0  0  0  0  0  0  0  0  0
  -24.5458   -9.0328   21.6585 C   0  0  0  0  0  0  0  0  0  0  0  0
  -22.6645  -10.4901   21.2410 C   0  0  0  0  0  0  0  0  0  0  0  0
  -32.2813  -29.3663   14.7318 C   0  0  0  0  0  0  0  0  0  0  0  0
  -31.4244  -27.9198   16.9498 C   0  0  0  0  0  0  0  0  0  0  0  0
  -27.2315  -25.6839   18.7007 C   0  0  0  0  0  0  0  0  0  0  0  0
  -23.7561   -8.2562   22.5063 C   0  0  0  0  0  0  0  0  0  0  0  0
  -21.8747   -9.7134   22.0888 C   0  0  0  0  0  0  0  0  0  0  0  0
  -27.3981  -24.5428   19.4842 C   0  0  0  0  0  0  0  0  0  0  0  0
  -21.3906   -5.8589   22.2051 C   0  0  0  0  0  0  0  0  0  0  0  0
  -21.4660   -4.4725   22.0716 C   0  0  0  0  0  0  0  0  0  0  0  0
  -27.0765  -25.8691   21.4734 C   0  0  0  0  0  0  0  0  0  0  0  0
  -22.2111   -4.2925   24.3628 C   0  0  0  0  0  0  0  0  0  0  0  0
  -31.7357  -21.1937   21.3875 C   0  0  0  0  0  0  0  0  0  0  0  0
  -24.0000  -10.1498   21.0259 C   0  0  0  0  0  0  0  0  0  0  0  0
  -24.9935  -10.7859   18.7640 C   0  0  0  0  0  0  0  0  0  0  0  0
  -31.7281  -30.0490   15.8266 C   0  0  0  0  0  0  0  0  0  0  0  0
  -26.9965  -26.9301   19.2991 C   0  0  0  0  0  0  0  0  0  0  0  0
  -31.3035  -29.3198   16.9537 C   0  0  0  0  0  0  0  0  0  0  0  0
  -26.9047  -27.0240   20.6951 C   0  0  0  0  0  0  0  0  0  0  0  0
  -30.1513  -22.3117   22.7646 C   0  0  0  0  0  0  0  0  0  0  0  0
  -31.1187  -23.2694   23.0479 C   0  0  0  0  0  0  0  0  0  0  0  0
  -30.4576  -21.2509   21.9195 C   0  0  0  0  0  0  0  0  0  0  0  0
  -22.4206   -8.5964   22.7214 C   0  0  0  0  0  0  0  0  0  0  0  0
  -27.3236  -24.6358   20.8709 C   0  0  0  0  0  0  0  0  0  0  0  0
  -21.7256   -6.4622   23.4173 C   0  0  0  0  0  0  0  0  0  0  0  0
  -21.8762   -3.6893   23.1505 C   0  0  0  0  0  0  0  0  0  0  0  0
  -22.1358   -5.6789   24.4962 C   0  0  0  0  0  0  0  0  0  0  0  0
  -24.8154  -10.9529   20.1505 C   0  0  0  0  0  0  0  0  0  0  0  0
  -32.3673  -23.1217   22.4655 C   0  0  0  0  0  0  0  0  0  0  0  0
  -25.8535  -11.7946   18.4044 C   0  0  0  0  0  0  0  0  0  0  0  0
  -24.4316   -9.8066   17.8802 C   0  0  0  0  0  0  0  0  0  0  0  0
  -28.5369  -29.7096   19.3717 C   0  0  0  0  0  0  0  0  0  0  0  0
  -25.8757  -30.6995   20.9402 C   0  0  0  0  0  0  0  0  0  0  0  0
  -23.1614  -29.8839   22.8413 C   0  0  0  0  0  0  0  0  0  0  0  0
  -26.9835  -17.0513   20.5299 C   0  0  0  0  0  0  0  0  0  0  0  0
  -31.6683  -31.5555   15.7877 C   0  0  0  0  0  0  0  0  0  0  0  0
  -26.7924  -28.1469   18.4388 C   0  0  0  0  0  0  0  0  0  0  0  0
  -26.6342  -28.3349   21.3857 C   0  0  0  0  0  0  0  0  0  0  0  0
  -30.7372  -32.1554   16.8382 C   0  0  0  0  0  0  0  0  0  0  0  0
  -29.3807  -14.5141   20.1359 C   0  0  0  0  0  0  0  0  0  0  0  0
  -30.9799  -31.5088   18.1983 C   0  0  0  0  0  0  0  0  0  0  0  0
  -28.4932  -13.2825   19.9587 C   0  0  0  0  0  0  0  0  0  0  0  0
  -28.8379  -15.4624   21.2061 C   0  0  0  0  0  0  0  0  0  0  0  0
  -29.1316  -20.0566   20.2040 C   0  0  0  0  0  0  0  0  0  0  0  0
  -29.4350  -19.0916   22.4893 C   0  0  0  0  0  0  0  0  0  0  0  0
  -27.7855  -19.3442   20.1019 C   0  0  0  0  0  0  0  0  0  0  0  0
  -28.0794  -18.4075   22.3520 C   0  0  0  0  0  0  0  0  0  0  0  0
  -26.5410  -14.6309   20.8177 C   0  0  0  0  0  0  0  0  0  0  0  0
  -30.6867  -30.0043   18.1541 C   0  0  1  0  0  0  0  0  0  0  0  0
  -27.0694  -29.4534   19.1762 C   0  0  1  0  0  0  0  0  0  0  0  0
  -27.0299  -13.6877   19.7075 C   0  0  2  0  0  0  0  0  0  0  0  0
  -30.8212  -24.4192   23.9509 C   0  0  0  0  0  0  0  0  0  0  0  0
  -33.4472  -24.1187   22.7329 C   0  0  0  0  0  0  0  0  0  0  0  0
  -28.8287  -22.3371   24.9051 C   0  0  0  0  0  0  0  0  0  0  0  0
  -21.1888  -30.9125   24.0025 C   0  0  0  0  0  0  0  0  0  0  0  0
  -27.7106  -31.7055   23.1608 C   0  0  0  0  0  0  0  0  0  0  0  0
  -25.7093  -31.8374   24.6594 C   0  0  0  0  0  0  0  0  0  0  0  0
  -25.8164  -33.2384   22.5982 C   0  0  0  0  0  0  0  0  0  0  0  0
  -21.2428  -28.3394   21.2003 C   0  0  0  0  0  0  0  0  0  0  0  0
  -28.0453  -23.7081   22.9384 C   0  0  0  0  0  0  0  0  0  1  0  0
  -28.7869  -22.4235   23.3678 C   0  0  1  0  0  0  0  0  0  0  0  0
  -25.4421  -30.7471   22.3855 C   0  0  1  0  0  0  0  0  0  0  0  0
  -21.6971  -30.2665   22.7230 C   0  0  2  0  0  0  0  0  0  0  0  0
  -26.1766  -31.8576   23.1884 C   0  0  0  0  0  0  0  0  0  0  0  0
  -32.7019  -22.1050   21.6396 N   0  0  0  0  0  0  0  0  0  0  0  0
  -25.5069  -11.9862   20.6384 N   0  0  0  0  0  0  0  0  0  0  0  0
  -26.1279  -12.4776   19.5526 N   0  0  0  0  0  0  0  0  0  0  0  0
  -29.5174  -20.2617   21.6043 N   0  0  0  0  0  0  0  0  0  0  0  0
  -26.4480  -29.4971   20.5014 N   0  0  0  0  0  0  0  0  0  0  0  0
  -27.4290  -15.7881   20.9470 N   0  0  0  0  0  0  0  0  0  0  0  0
  -27.7353  -18.1597   20.9503 N   0  0  0  0  0  0  0  0  0  0  0  0
  -26.3943  -12.1550   17.2212 N   0  0  0  0  0  0  0  0  0  0  0  0
  -23.5668   -8.8420   18.4149 N   0  0  0  0  0  0  0  0  0  0  0  0
  -29.2598  -29.7661   18.1954 N   0  0  0  0  0  0  0  0  0  0  0  0
  -23.9894  -30.8814   22.3716 N   0  0  0  0  0  0  0  0  0  0  0  0
  -20.8675  -29.0604   22.4438 N   0  3  0  0  0  0  0  0  0  0  0  0
  -24.7018   -9.7776   16.6556 O   0  0  0  0  0  0  0  0  0  0  0  0
  -28.9804  -29.8475   20.5058 O   0  0  0  0  0  0  0  0  0  0  0  0
  -25.7061  -31.6902   20.2251 O   0  0  0  0  0  0  0  0  0  0  0  0
  -23.5335  -28.8093   23.3074 O   0  0  0  0  0  0  0  0  0  0  0  0
  -25.9773  -17.1831   19.8222 O   0  0  0  0  0  0  0  0  0  0  0  0
  -21.6496   -7.8386   23.5484 O   0  0  0  0  0  0  0  0  0  0  0  0
  -27.4876  -23.5163   21.6431 O   0  0  0  0  0  0  0  0  0  1  0  0
  -21.9469   -2.3578   23.0227 F   0  0  0  0  0  0  0  0  0  0  0  0
  -22.4578   -6.2527   25.6637 F   0  0  0  0  0  0  0  0  0  0  0  0
  1  2  1  0  0  0  0
  1  5  2  0  0  0  0
  2  6  2  0  0  0  0
  3  8  2  0  0  0  0
  3 16  1  0  0  0  0
  4  9  1  0  0  0  0
  4 16  2  0  0  0  0
  5 18  1  0  0  0  0
  6 20  1  0  0  0  0
  7 10  2  0  0  0  0
  7 19  1  0  0  0  0
  8 25  1  0  0  0  0
  9 25  2  0  0  0  0
 10 26  1  0  0  0  0
 11 12  2  0  0  0  0
 11 27  1  0  0  0  0
 12 28  1  0  0  0  0
 13 21  1  0  0  0  0
 13 26  2  0  0  0  0
 14 28  2  0  0  0  0
 14 29  1  0  0  0  0
 15 24  2  0  0  0  0
 15 67  1  0  0  0  0
 16 30  1  0  0  0  0
 17 30  1  0  0  0  0
 17 32  2  0  0  0  0
 17 33  1  0  0  0  0
 18 20  2  0  0  0  0
 18 38  1  0  0  0  0
 19 21  2  0  0  0  0
 19 39  1  0  0  0  0
 20 51  1  0  0  0  0
 21 40  1  0  0  0  0
 22 23  2  0  0  0  0
 22 24  1  0  0  0  0
 22 63  1  0  0  0  0
 23 31  1  0  0  0  0
 23 54  1  0  0  0  0
 24 70  1  0  0  0  0
 25 84  1  0  0  0  0
 26 85  1  0  0  0  0
 27 29  2  0  0  0  0
 27 84  1  0  0  0  0
 28 86  1  0  0  0  0
 29 87  1  0  0  0  0
 30 68  2  0  0  0  0
 31 55  1  0  0  0  0
 31 67  2  0  0  0  0
 32 69  1  0  0  0  0
 32 74  1  0  0  0  0
 33 75  1  0  0  0  0
 33 79  2  0  0  0  0
 34 52  1  0  0  0  0
 34 76  1  0  0  0  0
 34 80  2  0  0  0  0
 35 64  1  0  0  0  0
 35 71  1  0  0  0  0
 35 81  2  0  0  0  0
 36 65  1  0  0  0  0
 36 77  1  0  0  0  0
 36 82  2  0  0  0  0
 37 72  1  0  0  0  0
 37 73  1  0  0  0  0
 37 83  2  0  0  0  0
 38 41  1  0  0  0  0
 39 52  1  0  0  0  0
 40 71  1  0  0  0  0
 41 43  1  0  0  0  0
 42 44  1  0  0  0  0
 42 45  1  0  0  0  0
 43 51  1  0  0  0  0
 44 53  1  0  0  0  0
 45 72  1  0  0  0  0
 46 48  1  0  0  0  0
 46 70  1  0  0  0  0
 47 49  1  0  0  0  0
 47 70  1  0  0  0  0
 48 73  1  0  0  0  0
 49 73  1  0  0  0  0
 50 53  1  0  0  0  0
 50 72  1  0  0  0  0
 51 76  1  0  0  0  0
 52 71  1  0  0  0  0
 53 69  1  0  0  0  0
 56 63  1  0  0  0  0
 57 65  1  0  0  0  0
 58 66  1  0  0  0  0
 59 66  1  0  0  0  0
 60 66  1  0  0  0  0
 61 78  1  0  0  0  0
 62 63  1  0  0  0  0
 62 85  1  0  0  0  0
 64 66  1  0  0  0  0
 64 77  1  0  0  0  0
 65 78  1  0  0  0  0
 68 69  1  0  0  0  0
M  CHG  1  78   1
M  ISO  4  37 100  62 101  73 100  85 101
M  END
> <Batch ID>
0164

> <Smiles>
CNC(C)C(=O)NC(C(=O)N1Cc2cc([101O:1][101CH2:1]C(C)c3c(N4CC[100N:0]([100C:0](=O)N5CCCC(n6nc(-c7ccc(Oc8ccc(F)cc8F)cc7)c(C(N)=O)c6N)C5)CC4)cnc(C)c3C)ccc2CC1C(=O)NC1CCCc2ccccc21)C(C)(C)C

> <Shape>
0.249

> <Color>
0.089

> <Negative vol penalty>
0.000

$$$$

  -OEChem-04052322193D

 88 97  0     1  0  0  0  0  0999 V2000
  -21.3585  -32.9668   14.5501 C   0  0  0  0  0  0  0  0  0  0  0  0
  -22.1646  -31.8339   14.5962 C   0  0  0  0  0  0  0  0  0  0  0  0
  -23.0104   -9.8970   19.9704 C   0  0  0  0  0  0  0  0  0  0  0  0
  -23.6708   -9.9570   22.2937 C   0  0  0  0  0  0  0  0  0  0  0  0
  -20.7824  -33.4591   15.7204 C   0  0  0  0  0  0  0  0  0  0  0  0
  -22.3959  -31.1932   15.8130 C   0  0  0  0  0  0  0  0  0  0  0  0
  -23.5196  -24.6759   18.5658 C   0  0  0  0  0  0  0  0  0  0  0  0
  -22.2253   -8.7720   20.2226 C   0  0  0  0  0  0  0  0  0  0  0  0
  -22.8856   -8.8320   22.5459 C   0  0  0  0  0  0  0  0  0  0  0  0
  -24.4159  -23.9936   19.3873 C   0  0  0  0  0  0  0  0  0  0  0  0
  -23.1095   -5.4876   22.1036 C   0  0  0  0  0  0  0  0  0  0  0  0
  -23.6653   -4.4699   22.8788 C   0  0  0  0  0  0  0  0  0  0  0  0
  -23.3040  -24.8875   21.3326 C   0  0  0  0  0  0  0  0  0  0  0  0
  -28.5632  -20.6524   23.8875 C   0  0  0  0  0  0  0  0  0  0  0  0
  -26.8365  -20.6037   22.1985 C   0  0  0  0  0  0  0  0  0  0  0  0
  -21.8974   -4.7416   24.5030 C   0  0  0  0  0  0  0  0  0  0  0  0
  -23.7332  -10.4894   21.0059 C   0  0  0  0  0  0  0  0  0  0  0  0
  -24.1487  -12.9998   20.8239 C   0  0  0  0  0  0  0  0  0  0  0  0
  -20.9989  -32.8186   16.9507 C   0  0  0  0  0  0  0  0  0  0  0  0
  -22.5139  -25.4792   19.1223 C   0  0  0  0  0  0  0  0  0  0  0  0
  -21.8232  -31.6782   17.0011 C   0  0  0  0  0  0  0  0  0  0  0  0
  -22.3947  -25.5770   20.5159 C   0  0  0  0  0  0  0  0  0  0  0  0
  -27.6069  -19.9464   23.1577 C   0  0  0  0  0  0  0  0  0  0  0  0
  -28.7491  -22.0157   23.6581 C   0  0  0  0  0  0  0  0  0  0  0  0
  -27.0223  -21.9670   21.9691 C   0  0  0  0  0  0  0  0  0  0  0  0
  -27.9787  -22.6730   22.6989 C   0  0  0  0  0  0  0  0  0  0  0  0
  -22.1629   -8.2395   21.5103 C   0  0  0  0  0  0  0  0  0  0  0  0
  -24.3100  -24.1016   20.7709 C   0  0  0  0  0  0  0  0  0  0  0  0
  -21.9477   -6.1323   22.5280 C   0  0  0  0  0  0  0  0  0  0  0  0
  -23.0593   -4.0969   24.0785 C   0  0  0  0  0  0  0  0  0  0  0  0
  -21.3416   -5.7593   23.7277 C   0  0  0  0  0  0  0  0  0  0  0  0
  -24.5449  -11.6512   20.7459 C   0  0  0  0  0  0  0  0  0  0  0  0
  -25.2755  -13.7088   20.4862 C   0  0  0  0  0  0  0  0  0  0  0  0
  -22.8759  -13.5614   21.1708 C   0  0  0  0  0  0  0  0  0  0  0  0
  -21.7900  -28.5719   19.0018 C   0  0  0  0  0  0  0  0  0  0  0  0
  -19.1665  -27.6233   20.6571 C   0  0  0  0  0  0  0  0  0  0  0  0
  -17.7187  -25.3246   22.7227 C   0  0  0  0  0  0  0  0  0  0  0  0
  -30.6605  -14.6688   20.7121 C   0  0  0  0  0  0  0  0  0  0  0  0
  -20.3933  -33.4153   18.1963 C   0  0  0  0  0  0  0  0  0  0  0  0
  -21.5384  -26.1875   18.2227 C   0  0  0  0  0  0  0  0  0  0  0  0
  -21.3200  -26.4102   21.1634 C   0  0  0  0  0  0  0  0  0  0  0  0
  -20.3841  -32.4600   19.3870 C   0  0  0  0  0  0  0  0  0  0  0  0
  -29.6717  -12.1869   18.5174 C   0  0  0  0  0  0  0  0  0  0  0  0
  -21.7415  -31.7803   19.5365 C   0  0  0  0  0  0  0  0  0  0  0  0
  -28.2138  -11.9272   18.8965 C   0  0  0  0  0  0  0  0  0  0  0  0
  -29.0663  -17.8931   21.6004 C   0  0  0  0  0  0  0  0  0  0  0  0
  -28.4786  -16.1803   23.3525 C   0  0  0  0  0  0  0  0  0  0  0  0
  -30.5317  -12.3861   19.7602 C   0  0  0  0  0  0  0  0  0  0  0  0
  -30.2820  -17.0546   21.2152 C   0  0  0  0  0  0  0  0  0  0  0  0
  -29.7074  -15.3775   22.9384 C   0  0  0  0  0  0  0  0  0  0  0  0
  -28.5961  -13.2356   21.0436 C   0  0  0  0  0  0  0  0  0  0  0  0
  -22.0777  -30.9411   18.2980 C   0  0  1  0  0  0  0  0  0  0  0  0
  -20.8728  -27.3871   18.8900 C   0  0  1  0  0  0  0  0  0  0  0  0
  -28.6686  -17.6760   23.0661 C   0  0  0  0  0  0  0  0  0  0  0  0
  -27.6777  -13.0342   19.8215 C   0  0  2  0  0  0  0  0  0  0  0  0
  -29.7806  -22.7485   24.4523 C   0  0  0  0  0  0  0  0  0  0  0  0
  -28.1785  -24.1346   22.4529 C   0  0  0  0  0  0  0  0  0  0  0  0
  -25.6378  -18.8299   25.2300 C   0  0  0  0  0  0  0  0  0  0  0  0
  -15.5762  -24.8396   23.9358 C   0  0  0  0  0  0  0  0  0  0  0  0
  -19.8698  -29.7392   22.7400 C   0  0  0  0  0  0  0  0  0  0  0  0
  -18.3108  -28.5931   24.3288 C   0  0  0  0  0  0  0  0  0  0  0  0
  -17.4321  -29.5688   22.2079 C   0  0  0  0  0  0  0  0  0  0  0  0
  -17.3200  -22.7915   21.2450 C   0  0  0  0  0  0  0  0  0  0  0  0
  -26.1845  -22.6474   20.9362 C   0  0  0  0  0  0  0  0  0  1  0  0
  -26.9483  -18.1504   24.8517 C   0  0  0  0  0  0  0  0  0  0  0  0
  -27.4037  -18.4596   23.4084 C   0  0  1  0  0  0  0  0  0  0  0  0
  -18.8255  -27.4611   22.1187 C   0  0  1  0  0  0  0  0  0  0  0  0
  -16.3757  -24.6196   22.6610 C   0  0  2  0  0  0  0  0  0  0  0  0
  -18.6311  -28.8263   22.8369 C   0  0  0  0  0  0  0  0  0  0  0  0
  -25.8235  -11.5094   20.3867 N   0  0  0  0  0  0  0  0  0  0  0  0
  -26.2405  -12.7780   20.2358 N   0  0  0  0  0  0  0  0  0  0  0  0
  -20.3942  -27.0886   20.2414 N   0  0  0  0  0  0  0  0  0  0  0  0
  -29.9873  -13.4417   20.6141 N   0  0  0  0  0  0  0  0  0  0  0  0
  -30.0848  -15.6435   21.5438 N   0  0  0  0  0  0  0  0  0  0  0  0
  -25.5251  -15.0314   20.3819 N   0  0  0  0  0  0  0  0  0  0  0  0
  -21.8260  -12.6899   21.4909 N   0  0  0  0  0  0  0  0  0  0  0  0
  -21.3489  -29.6909   18.3215 N   0  0  0  0  0  0  0  0  0  0  0  0
  -17.6587  -26.5869   22.1711 N   0  0  0  0  0  0  0  0  0  0  0  0
  -16.5683  -23.1537   22.4741 N   0  3  0  0  0  0  0  0  0  0  0  0
  -22.6711  -14.7989   21.1801 O   0  0  0  0  0  0  0  0  0  0  0  0
  -22.8207  -28.4784   19.6579 O   0  0  0  0  0  0  0  0  0  0  0  0
  -18.3697  -28.1968   19.9102 O   0  0  0  0  0  0  0  0  0  0  0  0
  -18.7199  -24.8086   23.2146 O   0  0  0  0  0  0  0  0  0  0  0  0
  -31.7093  -14.8848   20.0921 O   0  0  0  0  0  0  0  0  0  0  0  0
  -21.3966   -7.1419   21.7569 O   0  0  0  0  0  0  0  0  0  0  0  0
  -25.1902  -23.4325   21.5808 O   0  0  0  0  0  0  0  0  0  1  0  0
  -23.5922   -3.1186   24.8221 F   0  0  0  0  0  0  0  0  0  0  0  0
  -20.2246   -6.3743   24.1401 F   0  0  0  0  0  0  0  0  0  0  0  0
  1  2  1  0  0  0  0
  1  5  2  0  0  0  0
  2  6  2  0  0  0  0
  3  8  2  0  0  0  0
  3 17  1  0  0  0  0
  4  9  1  0  0  0  0
  4 17  2  0  0  0  0
  5 19  1  0  0  0  0
  6 21  1  0  0  0  0
  7 10  2  0  0  0  0
  7 20  1  0  0  0  0
  8 27  1  0  0  0  0
  9 27  2  0  0  0  0
 10 28  1  0  0  0  0
 11 12  2  0  0  0  0
 11 29  1  0  0  0  0
 12 30  1  0  0  0  0
 13 22  1  0  0  0  0
 13 28  2  0  0  0  0
 14 23  1  0  0  0  0
 14 24  2  0  0  0  0
 15 23  2  0  0  0  0
 15 25  1  0  0  0  0
 16 30  2  0  0  0  0
 16 31  1  0  0  0  0
 17 32  1  0  0  0  0
 18 32  1  0  0  0  0
 18 33  2  0  0  0  0
 18 34  1  0  0  0  0
 19 21  2  0  0  0  0
 19 39  1  0  0  0  0
 20 22  2  0  0  0  0
 20 40  1  0  0  0  0
 21 52  1  0  0  0  0
 22 41  1  0  0  0  0
 23 66  1  0  0  0  0
 24 26  1  0  0  0  0
 24 56  1  0  0  0  0
 25 26  2  0  0  0  0
 25 64  1  0  0  0  0
 26 57  1  0  0  0  0
 27 85  1  0  0  0  0
 28 86  1  0  0  0  0
 29 31  2  0  0  0  0
 29 85  1  0  0  0  0
 30 87  1  0  0  0  0
 31 88  1  0  0  0  0
 32 70  2  0  0  0  0
 33 71  1  0  0  0  0
 33 75  1  0  0  0  0
 34 76  1  0  0  0  0
 34 80  2  0  0  0  0
 35 53  1  0  0  0  0
 35 77  1  0  0  0  0
 35 81  2  0  0  0  0
 36 67  1  0  0  0  0
 36 72  1  0  0  0  0
 36 82  2  0  0  0  0
 37 68  1  0  0  0  0
 37 78  1  0  0  0  0
 37 83  2  0  0  0  0
 38 73  1  0  0  0  0
 38 74  1  0  0  0  0
 38 84  2  0  0  0  0
 39 42  1  0  0  0  0
 40 53  1  0  0  0  0
 41 72  1  0  0  0  0
 42 44  1  0  0  0  0
 43 45  1  0  0  0  0
 43 48  1  0  0  0  0
 44 52  1  0  0  0  0
 45 55  1  0  0  0  0
 46 49  1  0  0  0  0
 46 54  1  0  0  0  0
 47 50  1  0  0  0  0
 47 54  1  0  0  0  0
 48 73  1  0  0  0  0
 49 74  1  0  0  0  0
 50 74  1  0  0  0  0
 51 55  1  0  0  0  0
 51 73  1  0  0  0  0
 52 77  1  0  0  0  0
 53 72  1  0  0  0  0
 54 66  1  0  0  0  0
 55 71  1  0  0  0  0
 58 65  1  0  0  0  0
 59 68  1  0  0  0  0
 60 69  1  0  0  0  0
 61 69  1  0  0  0  0
 62 69  1  0  0  0  0
 63 79  1  0  0  0  0
 64 86  1  0  0  0  0
 65 66  1  0  0  0  0
 67 69  1  0  0  0  0
 67 78  1  0  0  0  0
 68 79  1  0  0  0  0
 70 71  1  0  0  0  0
M  CHG  1  79   1
M  ISO  4  38 100  64 101  74 100  86 101
M  END
> <Batch ID>
0164

> <Smiles>
CCC(c1cc(C)c(C)c([101CH2:1][101O:1]c2ccc3c(c2)CN(C(=O)C(NC(=O)C(C)NC)C(C)(C)C)C(C(=O)NC2CCCc4ccccc42)C3)c1)C1CC[100N:0]([100C:0](=O)N2CCCC(n3nc(-c4ccc(Oc5ccc(F)cc5F)cc4)c(C(N)=O)c3N)C2)CC1

> <Shape>
0.245

> <Color>
0.203

> <Negative vol penalty>
0.000

$$$$

  -OEChem-04052322193D

 86 95  0     1  0  0  0  0  0999 V2000
  -27.5858  -16.8048   12.7240 C   0  0  0  0  0  0  0  0  0  0  0  0
  -27.8140  -16.8276   14.0962 C   0  0  0  0  0  0  0  0  0  0  0  0
  -23.1941   -9.8431   19.9688 C   0  0  0  0  0  0  0  0  0  0  0  0
  -23.6633  -10.0061   22.3332 C   0  0  0  0  0  0  0  0  0  0  0  0
  -27.9740  -17.8874   11.9359 C   0  0  0  0  0  0  0  0  0  0  0  0
  -28.4316  -17.9327   14.6809 C   0  0  0  0  0  0  0  0  0  0  0  0
  -27.3175  -20.2628   20.2338 C   0  0  0  0  0  0  0  0  0  0  0  0
  -22.4081   -8.7147   20.2026 C   0  0  0  0  0  0  0  0  0  0  0  0
  -22.8772   -8.8777   22.5670 C   0  0  0  0  0  0  0  0  0  0  0  0
  -27.9669  -20.1185   21.4591 C   0  0  0  0  0  0  0  0  0  0  0  0
  -19.5879   -8.1435   22.8149 C   0  0  0  0  0  0  0  0  0  0  0  0
  -18.6908   -8.1902   23.8820 C   0  0  0  0  0  0  0  0  0  0  0  0
  -31.0085  -16.2965   25.0460 C   0  0  0  0  0  0  0  0  0  0  0  0
  -29.1851  -22.1594   21.0469 C   0  0  0  0  0  0  0  0  0  0  0  0
  -33.0224  -14.9486   23.5902 C   0  0  0  0  0  0  0  0  0  0  0  0
  -19.8026   -6.3016   24.8992 C   0  0  0  0  0  0  0  0  0  0  0  0
  -23.8218  -10.4887   21.0342 C   0  0  0  0  0  0  0  0  0  0  0  0
  -24.2129  -12.9972   20.7845 C   0  0  0  0  0  0  0  0  0  0  0  0
  -28.5879  -19.0104   12.5125 C   0  0  0  0  0  0  0  0  0  0  0  0
  -27.6056  -21.3525   19.3996 C   0  0  0  0  0  0  0  0  0  0  0  0
  -28.8295  -19.0308   13.8995 C   0  0  0  0  0  0  0  0  0  0  0  0
  -32.1391  -16.9609   24.6055 C   0  0  0  0  0  0  0  0  0  0  0  0
  -28.5362  -22.3165   19.8127 C   0  0  0  0  0  0  0  0  0  0  0  0
  -30.8892  -14.9342   24.7593 C   0  0  0  0  0  0  0  0  0  0  0  0
  -31.8893  -14.2650   24.0345 C   0  0  0  0  0  0  0  0  0  0  0  0
  -33.1240  -16.2923   23.8943 C   0  0  0  0  0  0  0  0  0  0  0  0
  -22.2496   -8.2321   21.5016 C   0  0  0  0  0  0  0  0  0  0  0  0
  -28.9029  -21.0653   21.8645 C   0  0  0  0  0  0  0  0  0  0  0  0
  -20.5922   -7.1758   22.7898 C   0  0  0  0  0  0  0  0  0  0  0  0
  -18.7982   -7.2693   24.9241 C   0  0  0  0  0  0  0  0  0  0  0  0
  -20.6996   -6.2549   23.8320 C   0  0  0  0  0  0  0  0  0  0  0  0
  -24.6343  -11.6540   20.7933 C   0  0  0  0  0  0  0  0  0  0  0  0
  -25.3526  -13.7128   20.5099 C   0  0  0  0  0  0  0  0  0  0  0  0
  -22.9079  -13.5487   21.0050 C   0  0  0  0  0  0  0  0  0  0  0  0
  -28.8004  -21.6824   16.4726 C   0  0  0  0  0  0  0  0  0  0  0  0
  -28.0684  -24.8066   16.9476 C   0  0  0  0  0  0  0  0  0  0  0  0
  -27.4960  -27.3449   19.1558 C   0  0  0  0  0  0  0  0  0  0  0  0
  -31.1751  -12.5779   21.3234 C   0  0  0  0  0  0  0  0  0  0  0  0
  -29.0327  -20.1365   11.6132 C   0  0  0  0  0  0  0  0  0  0  0  0
  -26.8769  -21.5079   18.0929 C   0  0  0  0  0  0  0  0  0  0  0  0
  -28.8662  -23.5155   18.9630 C   0  0  0  0  0  0  0  0  0  0  0  0
  -29.3423  -21.4293   12.3636 C   0  0  0  0  0  0  0  0  0  0  0  0
  -29.5523  -13.3430   18.2480 C   0  0  0  0  0  0  0  0  0  0  0  0
  -30.2048  -21.1421   13.5885 C   0  0  0  0  0  0  0  0  0  0  0  0
  -28.0699  -13.1181   18.5508 C   0  0  0  0  0  0  0  0  0  0  0  0
  -30.4363  -12.3298   18.9720 C   0  0  0  0  0  0  0  0  0  0  0  0
  -28.7380  -12.0241   20.7316 C   0  0  0  0  0  0  0  0  0  0  0  0
  -29.4743  -20.2221   14.5741 C   0  0  1  0  0  0  0  0  0  0  0  0
  -32.4990  -18.3928   24.7207 C   0  0  1  0  0  0  0  0  0  0  0  0
  -27.6247  -22.3835   17.0922 C   0  0  1  0  0  0  0  0  0  0  0  0
  -27.8105  -13.0566   20.0681 C   0  0  2  0  0  0  0  0  0  0  0  0
  -33.9681  -18.3328   24.2582 C   0  0  1  0  0  0  0  0  0  0  0  0
  -29.6740  -14.2036   25.2319 C   0  0  0  0  0  0  0  0  0  0  0  0
  -34.9463  -18.3556   25.4333 C   0  0  0  0  0  0  0  0  0  0  0  0
  -26.9589  -29.7946   19.2452 C   0  0  0  0  0  0  0  0  0  0  0  0
  -30.9592  -25.4642   16.2257 C   0  0  0  0  0  0  0  0  0  0  0  0
  -30.6222  -27.7308   17.2344 C   0  0  0  0  0  0  0  0  0  0  0  0
  -29.2620  -27.0294   15.2645 C   0  0  0  0  0  0  0  0  0  0  0  0
  -24.9470  -26.8526   20.5768 C   0  0  0  0  0  0  0  0  0  0  0  0
  -31.7592  -12.8088   23.7244 C   0  0  0  0  0  0  0  0  0  0  0  0
  -31.6419  -20.6801   24.1990 C   0  0  0  0  0  0  0  0  0  0  0  0
  -30.8600  -21.4564   23.1579 C   0  0  0  0  0  0  0  0  0  1  0  0
  -28.7929  -25.9986   17.5249 C   0  0  1  0  0  0  0  0  0  0  0  0
  -26.3916  -28.3836   19.2323 C   0  0  2  0  0  0  0  0  0  0  0  0
  -29.9045  -26.5323   16.5777 C   0  0  0  0  0  0  0  0  0  0  0  0
  -25.9398  -11.5215   20.5439 N   0  0  0  0  0  0  0  0  0  0  0  0
  -26.3485  -12.7907   20.3758 N   0  0  0  0  0  0  0  0  0  0  0  0
  -28.1319  -23.6197   17.6912 N   0  0  0  0  0  0  0  0  0  0  0  0
  -30.1417  -12.3223   20.4070 N   0  0  0  0  0  0  0  0  0  0  0  0
  -25.5900  -15.0346   20.3724 N   0  0  0  0  0  0  0  0  0  0  0  0
  -21.8487  -12.6714   21.2749 N   0  0  0  0  0  0  0  0  0  0  0  0
  -28.4920  -20.9692   15.3299 N   0  0  0  0  0  0  0  0  0  0  0  0
  -27.7655  -26.9809   17.8534 N   0  0  0  0  0  0  0  0  0  0  0  0
  -30.8090  -12.5581   22.6637 N   0  0  0  0  0  0  0  0  0  0  0  0
  -31.7257  -19.2559   23.7878 N   0  3  0  0  0  0  0  0  0  0  0  0
  -25.5837  -28.1906   20.4696 N   0  3  0  0  0  0  0  0  0  0  0  0
  -22.6845  -14.7817   20.9476 O   0  0  0  0  0  0  0  0  0  0  0  0
  -29.9059  -21.7823   16.9919 O   0  0  0  0  0  0  0  0  0  0  0  0
  -27.4623  -24.9262   15.8798 O   0  0  0  0  0  0  0  0  0  0  0  0
  -28.0654  -26.9035   20.1515 O   0  0  0  0  0  0  0  0  0  0  0  0
  -32.3367  -12.8120   20.9729 O   0  0  0  0  0  0  0  0  0  0  0  0
  -34.1753  -17.0930   23.5260 O   0  0  0  0  0  0  0  0  0  0  0  0
  -21.4825   -7.1312   21.7301 O   0  0  0  0  0  0  0  0  0  0  0  0
  -29.5387  -20.9266   23.0597 O   0  0  0  0  0  0  0  0  0  1  0  0
  -17.9376   -7.3152   25.9496 F   0  0  0  0  0  0  0  0  0  0  0  0
  -21.6631   -5.3237   23.8141 F   0  0  0  0  0  0  0  0  0  0  0  0
  1  2  1  0  0  0  0
  1  5  2  0  0  0  0
  2  6  2  0  0  0  0
  3  8  2  0  0  0  0
  3 17  1  0  0  0  0
  4  9  1  0  0  0  0
  4 17  2  0  0  0  0
  5 19  1  0  0  0  0
  6 21  1  0  0  0  0
  7 10  2  0  0  0  0
  7 20  1  0  0  0  0
  8 27  1  0  0  0  0
  9 27  2  0  0  0  0
 10 28  1  0  0  0  0
 11 12  2  0  0  0  0
 11 29  1  0  0  0  0
 12 30  1  0  0  0  0
 13 22  1  0  0  0  0
 13 24  2  0  0  0  0
 14 23  1  0  0  0  0
 14 28  2  0  0  0  0
 15 25  2  0  0  0  0
 15 26  1  0  0  0  0
 16 30  2  0  0  0  0
 16 31  1  0  0  0  0
 17 32  1  0  0  0  0
 18 32  1  0  0  0  0
 18 33  2  0  0  0  0
 18 34  1  0  0  0  0
 19 21  2  0  0  0  0
 19 39  1  0  0  0  0
 20 23  2  0  0  0  0
 20 40  1  0  0  0  0
 21 48  1  0  0  0  0
 22 26  2  0  0  0  0
 22 49  1  0  0  0  0
 23 41  1  0  0  0  0
 24 25  1  0  0  0  0
 24 53  1  0  0  0  0
 25 60  1  0  0  0  0
 26 82  1  0  0  0  0
 27 83  1  0  0  0  0
 28 84  1  0  0  0  0
 29 31  2  0  0  0  0
 29 83  1  0  0  0  0
 30 85  1  0  0  0  0
 31 86  1  0  0  0  0
 32 66  2  0  0  0  0
 33 67  1  0  0  0  0
 33 70  1  0  0  0  0
 34 71  1  0  0  0  0
 34 77  2  0  0  0  0
 35 50  1  0  0  0  0
 35 72  1  0  0  0  0
 35 78  2  0  0  0  0
 36 63  1  0  0  0  0
 36 68  1  0  0  0  0
 36 79  2  0  0  0  0
 37 64  1  0  0  0  0
 37 73  1  0  0  0  0
 37 80  2  0  0  0  0
 38 69  1  0  0  0  0
 38 74  1  0  0  0  0
 38 81  2  0  0  0  0
 39 42  1  0  0  0  0
 40 50  1  0  0  0  0
 41 68  1  0  0  0  0
 42 44  1  0  0  0  0
 43 45  1  0  0  0  0
 43 46  1  0  0  0  0
 44 48  1  0  0  0  0
 45 51  1  0  0  0  0
 46 69  1  0  0  0  0
 47 51  1  0  0  0  0
 47 69  1  0  0  0  0
 48 72  1  0  0  0  0
 49 52  1  0  0  0  0
 49 75  1  0  0  0  0
 50 68  1  0  0  0  0
 51 67  1  0  0  0  0
 52 54  1  0  0  0  0
 52 82  1  0  0  0  0
 55 64  1  0  0  0  0
 56 65  1  0  0  0  0
 57 65  1  0  0  0  0
 58 65  1  0  0  0  0
 59 76  1  0  0  0  0
 60 74  1  0  0  0  0
 61 62  1  0  0  0  0
 61 75  1  0  0  0  0
 62 84  1  0  0  0  0
 63 65  1  0  0  0  0
 63 73  1  0  0  0  0
 64 76  1  0  0  0  0
 66 67  1  0  0  0  0
M  CHG  2  75   1  76   1
M  ISO  4  38 100  62 101  74 100  84 101
M  END
> <Batch ID>
0164

> <Smiles>
CNC(C)C(=O)NC(C(=O)N1Cc2cc([101O:1][101CH2:1]CNC3c4cc(C)c(C[100NH:0][100C:0](=O)N5CCCC(n6nc(-c7ccc(Oc8ccc(F)cc8F)cc7)c(C(N)=O)c6N)C5)cc4OC3C)ccc2CC1C(=O)NC1CCCc2ccccc21)C(C)(C)C

> <Shape>
0.212

> <Color>
0.180

> <Negative vol penalty>
0.000

$$$$

  -OEChem-04052322193D

 90 99  0     1  0  0  0  0  0999 V2000
  -31.7932  -29.6486   14.3787 C   0  0  0  0  0  0  0  0  0  0  0  0
  -32.0735  -28.4926   15.1001 C   0  0  0  0  0  0  0  0  0  0  0  0
  -23.9057   -9.5612   21.2795 C   0  0  0  0  0  0  0  0  0  0  0  0
  -24.4563  -10.5457   23.4160 C   0  0  0  0  0  0  0  0  0  0  0  0
  -30.8645  -30.5663   14.8680 C   0  0  0  0  0  0  0  0  0  0  0  0
  -31.4260  -28.2540   16.3118 C   0  0  0  0  0  0  0  0  0  0  0  0
  -28.9308  -22.8863   20.3463 C   0  0  0  0  0  0  0  0  0  0  0  0
  -23.4449   -8.4147   21.9265 C   0  0  0  0  0  0  0  0  0  0  0  0
  -23.9955   -9.3992   24.0631 C   0  0  0  0  0  0  0  0  0  0  0  0
  -29.0085  -22.3904   21.6470 C   0  0  0  0  0  0  0  0  0  0  0  0
  -22.6305   -6.8764   26.2971 C   0  0  0  0  0  0  0  0  0  0  0  0
  -21.8164   -7.0458   27.4170 C   0  0  0  0  0  0  0  0  0  0  0  0
  -29.0739  -17.4763   21.9004 C   0  0  0  0  0  0  0  0  0  0  0  0
  -27.3646  -24.0076   22.3554 C   0  0  0  0  0  0  0  0  0  0  0  0
  -30.3350  -19.0528   19.9750 C   0  0  0  0  0  0  0  0  0  0  0  0
  -20.2030   -8.2315   26.0648 C   0  0  0  0  0  0  0  0  0  0  0  0
  -24.4114  -10.6268   22.0242 C   0  0  0  0  0  0  0  0  0  0  0  0
  -24.1416  -12.9567   21.0211 C   0  0  0  0  0  0  0  0  0  0  0  0
  -30.1982  -30.3342   16.0816 C   0  0  0  0  0  0  0  0  0  0  0  0
  -28.0760  -23.9555   20.0421 C   0  0  0  0  0  0  0  0  0  0  0  0
  -30.4885  -29.1701   16.8185 C   0  0  0  0  0  0  0  0  0  0  0  0
  -30.4590  -17.6384   21.9298 C   0  0  0  0  0  0  0  0  0  0  0  0
  -27.2760  -24.5135   21.0495 C   0  0  0  0  0  0  0  0  0  0  0  0
  -28.3193  -18.1023   20.9082 C   0  0  0  0  0  0  0  0  0  0  0  0
  -31.0895  -18.4267   20.9671 C   0  0  0  0  0  0  0  0  0  0  0  0
  -28.9499  -18.8906   19.9456 C   0  0  0  0  0  0  0  0  0  0  0  0
  -23.4898   -8.3336   23.3183 C   0  0  0  0  0  0  0  0  0  0  0  0
  -28.2275  -22.9529   22.6524 C   0  0  0  0  0  0  0  0  0  0  0  0
  -22.2310   -7.3847   25.0611 C   0  0  0  0  0  0  0  0  0  0  0  0
  -20.6026   -7.7233   27.3008 C   0  0  0  0  0  0  0  0  0  0  0  0
  -21.0172   -8.0622   24.9449 C   0  0  0  0  0  0  0  0  0  0  0  0
  -24.8881  -11.8112   21.3564 C   0  0  0  0  0  0  0  0  0  0  0  0
  -25.0458  -13.7878   20.4061 C   0  0  0  0  0  0  0  0  0  0  0  0
  -22.7550  -13.2438   21.2456 C   0  0  0  0  0  0  0  0  0  0  0  0
  -28.4836  -26.9118   18.9475 C   0  0  0  0  0  0  0  0  0  0  0  0
  -25.2405  -26.9158   18.8783 C   0  0  0  0  0  0  0  0  0  0  0  0
  -22.3155  -25.6276   20.0749 C   0  0  0  0  0  0  0  0  0  0  0  0
  -30.9949  -14.3053   20.7262 C   0  0  0  0  0  0  0  0  0  0  0  0
  -29.2374  -31.3780   16.5934 C   0  0  0  0  0  0  0  0  0  0  0  0
  -27.9840  -24.4613   18.6286 C   0  0  0  0  0  0  0  0  0  0  0  0
  -26.3273  -25.6496   20.7706 C   0  0  0  0  0  0  0  0  0  0  0  0
  -28.3185  -30.8691   17.7011 C   0  0  0  0  0  0  0  0  0  0  0  0
  -29.0654  -13.6822   17.8106 C   0  0  0  0  0  0  0  0  0  0  0  0
  -29.1182  -30.0958   18.7448 C   0  0  0  0  0  0  0  0  0  0  0  0
  -27.7067  -13.2398   18.3564 C   0  0  0  0  0  0  0  0  0  0  0  0
  -31.4663  -15.2812   24.3899 C   0  0  0  0  0  0  0  0  0  0  0  0
  -30.2152  -13.1650   18.6723 C   0  0  0  0  0  0  0  0  0  0  0  0
  -28.7539  -13.0484   20.6515 C   0  0  0  0  0  0  0  0  0  0  0  0
  -31.2717  -16.9405   23.0328 C   0  0  1  0  0  0  0  0  0  0  0  0
  -29.7885  -28.8639   18.1247 C   0  0  1  0  0  0  0  0  0  0  0  0
  -27.4595  -25.8911   18.5386 C   0  0  1  0  0  0  0  0  0  0  0  0
  -30.5259  -16.5107   24.3407 C   0  0  2  0  0  0  0  0  0  0  0  0
  -27.5595  -13.5925   19.8490 C   0  0  2  0  0  0  0  0  0  0  0  0
  -31.6635  -15.4372   22.8663 C   0  0  2  0  0  0  0  0  0  0  0  0
  -26.8380  -17.9133   20.8963 C   0  0  0  0  0  0  0  0  0  0  0  0
  -32.5710  -18.6136   20.9820 C   0  0  0  0  0  0  0  0  0  0  0  0
  -28.1631  -19.5699   18.8731 C   0  0  0  0  0  0  0  0  0  0  0  0
  -19.8262  -25.8574   19.8556 C   0  0  0  0  0  0  0  0  0  0  0  0
  -30.1835  -16.8130   26.8238 C   0  0  0  0  0  0  0  0  0  0  0  0
  -25.3329  -29.4742   20.5384 C   0  0  0  0  0  0  0  0  0  0  0  0
  -22.9136  -29.1267   21.0810 C   0  0  0  0  0  0  0  0  0  0  0  0
  -23.6217  -29.4752   18.7146 C   0  0  0  0  0  0  0  0  0  0  0  0
  -22.0226  -22.8324   19.1475 C   0  0  0  0  0  0  0  0  0  0  0  0
  -29.1213  -20.9927   25.6247 C   0  0  0  0  0  0  0  0  0  0  0  0
  -30.0559  -19.8538   26.0040 C   0  0  0  0  0  0  0  0  0  0  0  0
  -29.2013  -21.3879   24.1552 C   0  0  0  0  0  0  0  0  0  1  0  0
  -24.1507  -27.2825   19.8565 C   0  0  1  0  0  0  0  0  0  0  0  0
  -21.0689  -25.1306   19.3654 C   0  0  2  0  0  0  0  0  0  0  0  0
  -30.6101  -17.4671   25.5194 C   0  0  2  0  0  0  0  0  0  0  0  0
  -24.0240  -28.8195   20.0536 C   0  0  0  0  0  0  0  0  0  0  0  0
  -26.1678  -11.9027   20.9849 N   0  0  0  0  0  0  0  0  0  0  0  0
  -26.2325  -13.1156   20.4099 N   0  0  0  0  0  0  0  0  0  0  0  0
  -26.2778  -26.1133   19.3742 N   0  0  0  0  0  0  0  0  0  0  0  0
  -30.0153  -13.5395   20.0746 N   0  0  0  0  0  0  0  0  0  0  0  0
  -24.9334  -15.0207   19.8677 N   0  0  0  0  0  0  0  0  0  0  0  0
  -21.9691  -12.2798   21.8916 N   0  0  0  0  0  0  0  0  0  0  0  0
  -28.8238  -27.8001   17.9453 N   0  0  0  0  0  0  0  0  0  0  0  0
  -22.9340  -26.6398   19.3719 N   0  0  0  0  0  0  0  0  0  0  0  0
  -30.7314  -14.6296   22.0529 N   0  0  0  0  0  0  0  0  0  0  0  0
  -20.8844  -23.6711   19.6036 N   0  3  0  0  0  0  0  0  0  0  0  0
  -29.7100  -18.6234   25.2544 N   0  3  0  0  0  0  0  0  0  0  0  0
  -22.2247  -14.3166   20.8695 O   0  0  0  0  0  0  0  0  0  0  0  0
  -28.9307  -26.8955   20.0883 O   0  0  0  0  0  0  0  0  0  0  0  0
  -25.1702  -27.3203   17.7151 O   0  0  0  0  0  0  0  0  0  0  0  0
  -22.6999  -25.1667   21.1474 O   0  0  0  0  0  0  0  0  0  0  0  0
  -32.0307  -14.6841   20.1686 O   0  0  0  0  0  0  0  0  0  0  0  0
  -23.0400   -7.2151   23.9500 O   0  0  0  0  0  0  0  0  0  0  0  0
  -28.3019  -22.4712   23.9229 O   0  0  0  0  0  0  0  0  0  1  0  0
  -19.8202   -7.8845   28.3760 F   0  0  0  0  0  0  0  0  0  0  0  0
  -20.6275   -8.5516   23.7598 F   0  0  0  0  0  0  0  0  0  0  0  0
  1  2  1  0  0  0  0
  1  5  2  0  0  0  0
  2  6  2  0  0  0  0
  3  8  2  0  0  0  0
  3 17  1  0  0  0  0
  4  9  1  0  0  0  0
  4 17  2  0  0  0  0
  5 19  1  0  0  0  0
  6 21  1  0  0  0  0
  7 10  2  0  0  0  0
  7 20  1  0  0  0  0
  8 27  1  0  0  0  0
  9 27  2  0  0  0  0
 10 28  1  0  0  0  0
 11 12  2  0  0  0  0
 11 29  1  0  0  0  0
 12 30  1  0  0  0  0
 13 22  1  0  0  0  0
 13 24  2  0  0  0  0
 14 23  1  0  0  0  0
 14 28  2  0  0  0  0
 15 25  1  0  0  0  0
 15 26  2  0  0  0  0
 16 30  2  0  0  0  0
 16 31  1  0  0  0  0
 17 32  1  0  0  0  0
 18 32  1  0  0  0  0
 18 33  2  0  0  0  0
 18 34  1  0  0  0  0
 19 21  2  0  0  0  0
 19 39  1  0  0  0  0
 20 23  2  0  0  0  0
 20 40  1  0  0  0  0
 21 50  1  0  0  0  0
 22 25  2  0  0  0  0
 22 49  1  0  0  0  0
 23 41  1  0  0  0  0
 24 26  1  0  0  0  0
 24 55  1  0  0  0  0
 25 56  1  0  0  0  0
 26 57  1  0  0  0  0
 27 87  1  0  0  0  0
 28 88  1  0  0  0  0
 29 31  2  0  0  0  0
 29 87  1  0  0  0  0
 30 89  1  0  0  0  0
 31 90  1  0  0  0  0
 32 71  2  0  0  0  0
 33 72  1  0  0  0  0
 33 75  1  0  0  0  0
 34 76  1  0  0  0  0
 34 82  2  0  0  0  0
 35 51  1  0  0  0  0
 35 77  1  0  0  0  0
 35 83  2  0  0  0  0
 36 67  1  0  0  0  0
 36 73  1  0  0  0  0
 36 84  2  0  0  0  0
 37 68  1  0  0  0  0
 37 78  1  0  0  0  0
 37 85  2  0  0  0  0
 38 74  1  0  0  0  0
 38 79  1  0  0  0  0
 38 86  2  0  0  0  0
 39 42  1  0  0  0  0
 40 51  1  0  0  0  0
 41 73  1  0  0  0  0
 42 44  1  0  0  0  0
 43 45  1  0  0  0  0
 43 47  1  0  0  0  0
 44 50  1  0  0  0  0
 45 53  1  0  0  0  0
 46 52  1  0  0  0  0
 46 54  1  0  0  0  0
 47 74  1  0  0  0  0
 48 53  1  0  0  0  0
 48 74  1  0  0  0  0
 49 52  1  0  0  0  0
 49 54  1  0  0  0  0
 50 77  1  0  0  0  0
 51 73  1  0  0  0  0
 52 69  1  0  0  0  0
 53 72  1  0  0  0  0
 54 79  1  0  0  0  0
 58 68  1  0  0  0  0
 59 69  1  0  0  0  0
 60 70  1  0  0  0  0
 61 70  1  0  0  0  0
 62 70  1  0  0  0  0
 63 80  1  0  0  0  0
 64 65  1  0  0  0  0
 64 66  1  0  0  0  0
 65 81  1  0  0  0  0
 66 88  1  0  0  0  0
 67 70  1  0  0  0  0
 67 78  1  0  0  0  0
 68 80  1  0  0  0  0
 69 81  1  0  0  0  0
 71 72  1  0  0  0  0
M  CHG  2  80   1  81   1
M  ISO  4  38 100  66 101  79 100  88 101
M  END
> <Batch ID>
0164

> <Smiles>
CNC(C)C(=O)NC(C(=O)N1Cc2cc([101O:1][101CH2:1]CCNC(C)C3CC([100NH:0][100C:0](=O)N4CCCC(n5nc(-c6ccc(Oc7ccc(F)cc7F)cc6)c(C(N)=O)c5N)C4)C3c3cc(C)c(C)cc3C)ccc2CC1C(=O)NC1CCCc2ccccc21)C(C)(C)C

> <Shape>
0.249

> <Color>
0.136

> <Negative vol penalty>
0.000

$$$$

  -OEChem-04052322193D

 87 96  0     1  0  0  0  0  0999 V2000
  -31.8538  -15.2878   21.7082 C   0  0  0  0  0  0  0  0  0  0  0  0
  -30.8404  -16.2403   21.6737 C   0  0  0  0  0  0  0  0  0  0  0  0
  -27.3665  -25.5309   21.4136 C   0  0  0  0  0  0  0  0  0  0  0  0
  -26.3298  -25.0140   19.2934 C   0  0  0  0  0  0  0  0  0  0  0  0
  -31.6223  -14.0069   21.2086 C   0  0  0  0  0  0  0  0  0  0  0  0
  -29.5951  -15.9126   21.1386 C   0  0  0  0  0  0  0  0  0  0  0  0
  -24.1325  -17.9567   23.0061 C   0  0  0  0  0  0  0  0  0  0  0  0
  -27.5362  -24.1691   21.6627 C   0  0  0  0  0  0  0  0  0  0  0  0
  -26.4995  -23.6521   19.5425 C   0  0  0  0  0  0  0  0  0  0  0  0
  -23.2991  -18.9702   22.5349 C   0  0  0  0  0  0  0  0  0  0  0  0
  -26.9858  -20.0500   19.4577 C   0  0  0  0  0  0  0  0  0  0  0  0
  -27.4704  -19.2554   18.4188 C   0  0  0  0  0  0  0  0  0  0  0  0
  -18.5369  -24.8758   22.8117 C   0  0  0  0  0  0  0  0  0  0  0  0
  -22.0523  -17.3445   21.2614 C   0  0  0  0  0  0  0  0  0  0  0  0
  -29.4849  -20.5869   18.3401 C   0  0  0  0  0  0  0  0  0  0  0  0
  -26.7632  -25.9534   20.2289 C   0  0  0  0  0  0  0  0  0  0  0  0
  -27.4875  -28.2243   19.3201 C   0  0  0  0  0  0  0  0  0  0  0  0
  -30.3705  -13.6605   20.6760 C   0  0  0  0  0  0  0  0  0  0  0  0
  -23.9385  -16.6289   22.5992 C   0  0  0  0  0  0  0  0  0  0  0  0
  -29.3470  -14.6263   20.6303 C   0  0  0  0  0  0  0  0  0  0  0  0
  -19.0891  -26.1645   22.7363 C   0  0  0  0  0  0  0  0  0  0  0  0
  -22.8830  -16.3157   21.7309 C   0  0  0  0  0  0  0  0  0  0  0  0
  -19.3212  -23.7499   22.5690 C   0  0  0  0  0  0  0  0  0  0  0  0
  -20.6672  -23.8987   22.2526 C   0  0  0  0  0  0  0  0  0  0  0  0
  -21.2327  -25.1725   22.1840 C   0  0  0  0  0  0  0  0  0  0  0  0
  -20.4560  -26.3176   22.4304 C   0  0  0  0  0  0  0  0  0  0  0  0
  -27.1028  -23.2296   20.7271 C   0  0  0  0  0  0  0  0  0  0  0  0
  -22.2605  -18.6646   21.6602 C   0  0  0  0  0  0  0  0  0  0  0  0
  -27.7506  -21.1132   19.9378 C   0  0  0  0  0  0  0  0  0  0  0  0
  -28.7199  -19.5239   17.8600 C   0  0  0  0  0  0  0  0  0  0  0  0
  -29.0002  -21.3816   19.3790 C   0  0  0  0  0  0  0  0  0  0  0  0
  -26.5871  -27.3601   19.9713 C   0  0  0  0  0  0  0  0  0  0  0  0
  -26.8587  -29.4454   19.3288 C   0  0  0  0  0  0  0  0  0  0  0  0
  -28.7770  -27.9480   18.7574 C   0  0  0  0  0  0  0  0  0  0  0  0
  -25.6735  -14.4948   21.0058 C   0  0  0  0  0  0  0  0  0  0  0  0
  -23.2304  -12.5071   21.7822 C   0  0  0  0  0  0  0  0  0  0  0  0
  -19.9479  -12.1507   22.6453 C   0  0  0  0  0  0  0  0  0  0  0  0
  -22.0414  -27.8800   21.3925 C   0  0  0  0  0  0  0  0  0  0  0  0
  -30.1823  -12.2775   20.1046 C   0  0  0  0  0  0  0  0  0  0  0  0
  -24.8297  -15.5433   23.1376 C   0  0  0  0  0  0  0  0  0  0  0  0
  -18.1866  -27.3473   22.9763 C   0  0  0  0  0  0  0  0  0  0  0  0
  -22.6199  -14.9030   21.2797 C   0  0  0  0  0  0  0  0  0  0  0  0
  -28.7183  -11.8984   19.8968 C   0  0  0  0  0  0  0  0  0  0  0  0
  -18.8343  -28.6579   22.5414 C   0  0  0  0  0  0  0  0  0  0  0  0
  -24.4050  -30.3310   22.7754 C   0  0  0  0  0  0  0  0  0  0  0  0
  -27.9640  -13.0356   19.2151 C   0  0  0  0  0  0  0  0  0  0  0  0
  -24.8510  -31.0755   21.5234 C   0  0  0  0  0  0  0  0  0  0  0  0
  -22.9569  -29.8596   22.6788 C   0  0  0  0  0  0  0  0  0  0  0  0
  -23.1450  -29.7446   20.1958 C   0  0  0  0  0  0  0  0  0  0  0  0
  -27.9751  -14.3016   20.0804 C   0  0  1  0  0  0  0  0  0  0  0  0
  -24.8586  -14.3006   22.2532 C   0  0  1  0  0  0  0  0  0  0  0  0
  -24.5857  -30.2820   20.2355 C   0  0  2  0  0  0  0  0  0  0  0  0
  -20.2950  -28.7343   23.0063 C   0  0  1  0  0  0  0  0  0  0  0  0
  -18.6950  -22.3975   22.6746 C   0  0  0  0  0  0  0  0  0  0  0  0
  -22.7288  -25.1799   22.0926 C   0  0  0  0  0  0  0  0  0  0  0  0
  -20.3833  -28.7411   24.5397 C   0  0  0  0  0  0  0  0  0  0  0  0
  -18.2300  -10.4008   23.1780 C   0  0  0  0  0  0  0  0  0  0  0  0
  -22.1093  -20.3136   18.9877 C   0  0  0  0  0  0  0  0  0  0  0  0
  -23.0053  -11.8287   18.8159 C   0  0  0  0  0  0  0  0  0  0  0  0
  -20.7420  -10.8640   19.2797 C   0  0  0  0  0  0  0  0  0  0  0  0
  -22.7627   -9.8723   20.3548 C   0  0  0  0  0  0  0  0  0  0  0  0
  -19.5277  -13.2269   25.3701 C   0  0  0  0  0  0  0  0  0  0  0  0
  -21.5019  -22.6768   22.0217 C   0  0  0  0  0  0  0  0  0  0  0  0
  -21.2662  -22.0033   20.6575 C   0  0  0  0  0  0  0  0  0  0  0  0
  -21.9195  -12.1228   21.1398 C   0  0  1  0  0  0  0  0  0  0  0  0
  -19.2770  -11.3471   23.7446 C   0  0  2  0  0  0  0  0  0  0  0  0
  -22.0618  -20.7073   20.4585 C   0  0  1  0  0  0  0  0  0  1  0  0
  -22.1133  -11.1989   19.9043 C   0  0  0  0  0  0  0  0  0  0  0  0
  -25.4713  -27.9796   20.3652 N   0  0  0  0  0  0  0  0  0  0  0  0
  -25.6664  -29.2461   19.9605 N   0  0  0  0  0  0  0  0  0  0  0  0
  -21.0614  -27.6240   22.3808 N   0  0  0  0  0  0  0  0  0  0  0  0
  -23.5225  -13.8776   21.8288 N   0  0  0  0  0  0  0  0  0  0  0  0
  -22.6856  -29.1268   21.4422 N   0  0  0  0  0  0  0  0  0  0  0  0
  -27.2149  -30.6593   18.8578 N   0  0  0  0  0  0  0  0  0  0  0  0
  -29.2733  -26.6395   18.8347 N   0  0  0  0  0  0  0  0  0  0  0  0
  -27.0125  -14.1877   21.1551 N   0  0  0  0  0  0  0  0  0  0  0  0
  -21.1012  -11.5412   22.1984 N   0  0  0  0  0  0  0  0  0  0  0  0
  -18.6102  -12.2572   24.7183 N   0  3  0  0  0  0  0  0  0  0  0  0
  -29.4758  -28.8387   18.2172 O   0  0  0  0  0  0  0  0  0  0  0  0
  -25.1276  -14.8923   19.9833 O   0  0  0  0  0  0  0  0  0  0  0  0
  -23.9649  -11.6243   22.2327 O   0  0  0  0  0  0  0  0  0  0  0  0
  -19.4924  -13.2111   22.2227 O   0  0  0  0  0  0  0  0  0  0  0  0
  -22.2917  -27.0598   20.4992 O   0  0  0  0  0  0  0  0  0  0  0  0
  -27.2684  -21.9006   20.9698 O   0  0  0  0  0  0  0  0  0  0  0  0
  -21.4410  -19.6581   21.1953 O   0  0  0  0  0  0  0  0  0  1  0  0
  -29.1859  -18.7598   16.8634 F   0  0  0  0  0  0  0  0  0  0  0  0
  -29.7401  -22.4008   19.8369 F   0  0  0  0  0  0  0  0  0  0  0  0
  1  2  1  0  0  0  0
  1  5  2  0  0  0  0
  2  6  2  0  0  0  0
  3  8  2  0  0  0  0
  3 16  1  0  0  0  0
  4  9  1  0  0  0  0
  4 16  2  0  0  0  0
  5 18  1  0  0  0  0
  6 20  1  0  0  0  0
  7 10  2  0  0  0  0
  7 19  1  0  0  0  0
  8 27  1  0  0  0  0
  9 27  2  0  0  0  0
 10 28  1  0  0  0  0
 11 12  2  0  0  0  0
 11 29  1  0  0  0  0
 12 30  1  0  0  0  0
 13 21  1  0  0  0  0
 13 23  2  0  0  0  0
 14 22  1  0  0  0  0
 14 28  2  0  0  0  0
 15 30  2  0  0  0  0
 15 31  1  0  0  0  0
 16 32  1  0  0  0  0
 17 32  1  0  0  0  0
 17 33  2  0  0  0  0
 17 34  1  0  0  0  0
 18 20  2  0  0  0  0
 18 39  1  0  0  0  0
 19 22  2  0  0  0  0
 19 40  1  0  0  0  0
 20 50  1  0  0  0  0
 21 26  2  0  0  0  0
 21 41  1  0  0  0  0
 22 42  1  0  0  0  0
 23 24  1  0  0  0  0
 23 54  1  0  0  0  0
 24 25  2  0  0  0  0
 24 63  1  0  0  0  0
 25 26  1  0  0  0  0
 25 55  1  0  0  0  0
 26 71  1  0  0  0  0
 27 84  1  0  0  0  0
 28 85  1  0  0  0  0
 29 31  2  0  0  0  0
 29 84  1  0  0  0  0
 30 86  1  0  0  0  0
 31 87  1  0  0  0  0
 32 69  2  0  0  0  0
 33 70  1  0  0  0  0
 33 74  1  0  0  0  0
 34 75  1  0  0  0  0
 34 79  2  0  0  0  0
 35 51  1  0  0  0  0
 35 76  1  0  0  0  0
 35 80  2  0  0  0  0
 36 65  1  0  0  0  0
 36 72  1  0  0  0  0
 36 81  2  0  0  0  0
 37 66  1  0  0  0  0
 37 77  1  0  0  0  0
 37 82  2  0  0  0  0
 38 71  1  0  0  0  0
 38 73  1  0  0  0  0
 38 83  2  0  0  0  0
 39 43  1  0  0  0  0
 40 51  1  0  0  0  0
 41 44  1  0  0  0  0
 42 72  1  0  0  0  0
 43 46  1  0  0  0  0
 44 53  1  0  0  0  0
 45 47  1  0  0  0  0
 45 48  1  0  0  0  0
 46 50  1  0  0  0  0
 47 52  1  0  0  0  0
 48 73  1  0  0  0  0
 49 52  1  0  0  0  0
 49 73  1  0  0  0  0
 50 76  1  0  0  0  0
 51 72  1  0  0  0  0
 52 70  1  0  0  0  0
 53 56  1  0  0  0  0
 53 71  1  0  0  0  0
 57 66  1  0  0  0  0
 58 67  1  0  0  0  0
 59 68  1  0  0  0  0
 60 68  1  0  0  0  0
 61 68  1  0  0  0  0
 62 78  1  0  0  0  0
 63 64  1  0  0  0  0
 64 67  1  0  0  0  0
 65 68  1  0  0  0  0
 65 77  1  0  0  0  0
 66 78  1  0  0  0  0
 67 85  1  0  0  0  0
 69 70  1  0  0  0  0
M  CHG  1  78   1
M  ISO  4  38 100  67 101  71 100  85 101
M  END
> <Batch ID>
0164

> <Smiles>
CNC(C)C(=O)NC(C(=O)N1Cc2cc([101O:1][101CH:1](C)CCc3c(C)cc4c(c3C)[100N:0]([100C:0](=O)N3CCCC(n5nc(-c6ccc(Oc7ccc(F)cc7F)cc6)c(C(N)=O)c5N)C3)C(C)CC4)ccc2CC1C(=O)NC1CCCc2ccccc21)C(C)(C)C

> <Shape>
0.273

> <Color>
0.066

> <Negative vol penalty>
0.000

$$$$

  -OEChem-04052322193D

 88 97  0     1  0  0  0  0  0999 V2000
  -17.9038  -32.0350   20.4806 C   0  0  0  0  0  0  0  0  0  0  0  0
  -19.1495  -31.7529   19.9291 C   0  0  0  0  0  0  0  0  0  0  0  0
  -24.0811   -9.5950   22.1060 C   0  0  0  0  0  0  0  0  0  0  0  0
  -22.9792   -9.9929   19.9930 C   0  0  0  0  0  0  0  0  0  0  0  0
  -17.6813  -31.8253   21.8409 C   0  0  0  0  0  0  0  0  0  0  0  0
  -20.1738  -31.2619   20.7379 C   0  0  0  0  0  0  0  0  0  0  0  0
  -24.5162  -27.2466   19.1484 C   0  0  0  0  0  0  0  0  0  0  0  0
  -23.3565   -8.4133   22.2613 C   0  0  0  0  0  0  0  0  0  0  0  0
  -22.2546   -8.8111   20.1483 C   0  0  0  0  0  0  0  0  0  0  0  0
  -25.8427  -27.4079   18.7507 C   0  0  0  0  0  0  0  0  0  0  0  0
  -20.2397   -7.5090   23.2058 C   0  0  0  0  0  0  0  0  0  0  0  0
  -19.6697   -7.2585   24.4540 C   0  0  0  0  0  0  0  0  0  0  0  0
  -26.5641  -27.0140   21.0187 C   0  0  0  0  0  0  0  0  0  0  0  0
  -20.9620   -5.2252   24.6359 C   0  0  0  0  0  0  0  0  0  0  0  0
  -23.8924  -10.3849   20.9718 C   0  0  0  0  0  0  0  0  0  0  0  0
  -25.8924  -11.7600   20.1868 C   0  0  0  0  0  0  0  0  0  0  0  0
  -18.7005  -31.3225   22.6649 C   0  0  0  0  0  0  0  0  0  0  0  0
  -24.2024  -26.9781   20.4885 C   0  0  0  0  0  0  0  0  0  0  0  0
  -19.9651  -31.0466   22.1108 C   0  0  0  0  0  0  0  0  0  0  0  0
  -25.2330  -26.8471   21.4303 C   0  0  0  0  0  0  0  0  0  0  0  0
  -22.4433   -8.0213   21.2825 C   0  0  0  0  0  0  0  0  0  0  0  0
  -26.8667  -27.2945   19.6865 C   0  0  0  0  0  0  0  0  0  0  0  0
  -21.1708   -6.6176   22.6726 C   0  0  0  0  0  0  0  0  0  0  0  0
  -20.0309   -6.1166   25.1691 C   0  0  0  0  0  0  0  0  0  0  0  0
  -21.5319   -5.4758   23.3877 C   0  0  0  0  0  0  0  0  0  0  0  0
  -24.6401  -11.6060   20.8111 C   0  0  0  0  0  0  0  0  0  0  0  0
  -26.1674  -13.1013   20.2950 C   0  0  0  0  0  0  0  0  0  0  0  0
  -26.7321  -10.7784   19.5646 C   0  0  0  0  0  0  0  0  0  0  0  0
  -22.5427  -28.4768   22.7474 C   0  0  0  0  0  0  0  0  0  0  0  0
  -23.1165  -25.7604   24.4250 C   0  0  0  0  0  0  0  0  0  0  0  0
  -30.2085  -25.3959   18.7656 C   0  0  0  0  0  0  0  0  0  0  0  0
  -25.0768  -23.0072   24.8985 C   0  0  0  0  0  0  0  0  0  0  0  0
  -24.0962  -18.3607   19.6557 C   0  0  0  0  0  0  0  0  0  0  0  0
  -18.4270  -31.1569   24.1389 C   0  0  0  0  0  0  0  0  0  0  0  0
  -22.7682  -26.7803   20.8962 C   0  0  0  0  0  0  0  0  0  0  0  0
  -24.9504  -26.5397   22.8774 C   0  0  0  0  0  0  0  0  0  0  0  0
  -19.4520  -30.2803   24.8538 C   0  0  0  0  0  0  0  0  0  0  0  0
  -23.9210  -16.7357   22.9828 C   0  0  0  0  0  0  0  0  0  0  0  0
  -20.8686  -30.6820   24.4553 C   0  0  0  0  0  0  0  0  0  0  0  0
  -24.1207  -15.2605   22.6404 C   0  0  0  0  0  0  0  0  0  0  0  0
  -26.4576  -20.5029   18.2876 C   0  0  0  0  0  0  0  0  0  0  0  0
  -27.6067  -18.6395   19.5483 C   0  0  0  0  0  0  0  0  0  0  0  0
  -28.4686  -22.8898   20.1444 C   0  0  0  0  0  0  0  0  0  0  0  0
  -23.2909  -17.5055   21.8263 C   0  0  0  0  0  0  0  0  0  0  0  0
  -25.3748  -19.5102   17.8727 C   0  0  0  0  0  0  0  0  0  0  0  0
  -26.4831  -17.6868   19.1290 C   0  0  0  0  0  0  0  0  0  0  0  0
  -24.2343  -15.8983   20.1987 C   0  0  0  0  0  0  0  0  0  0  0  0
  -21.0939  -30.4894   22.9507 C   0  0  1  0  0  0  0  0  0  0  0  0
  -22.5318  -27.0188   22.3844 C   0  0  1  0  0  0  0  0  0  0  0  0
  -24.9082  -15.1047   21.3282 C   0  0  2  0  0  0  0  0  0  0  0  0
  -29.4831  -23.0254   19.0206 C   0  0  1  0  0  0  0  0  0  0  0  0
  -27.7748  -19.7712   18.5367 C   0  0  0  0  0  0  0  0  0  0  0  0
  -28.3825  -21.3842   20.3910 C   0  0  2  0  0  0  0  0  0  0  0  0
  -29.1068  -21.8807   18.0877 C   0  0  1  0  0  0  0  0  0  0  0  0
  -29.3358  -20.8953   21.4734 C   0  0  0  0  0  0  0  0  0  0  0  0
  -30.2246  -21.4640   17.1462 C   0  0  0  0  0  0  0  0  0  0  0  0
  -25.3169  -20.9897   26.3714 C   0  0  0  0  0  0  0  0  0  0  0  0
  -24.2454  -27.5202   26.6473 C   0  0  0  0  0  0  0  0  0  0  0  0
  -25.3086  -25.4773   27.6296 C   0  0  0  0  0  0  0  0  0  0  0  0
  -22.8253  -25.6206   27.4406 C   0  0  0  0  0  0  0  0  0  0  0  0
  -24.7359  -21.1558   22.6149 C   0  0  0  0  0  0  0  0  0  0  0  0
  -29.9399  -26.6192   17.9031 C   0  0  0  0  0  0  0  0  0  0  0  0
  -28.4926  -27.0827   17.9639 C   0  0  0  0  0  0  0  0  0  1  0  0
  -24.2101  -25.2871   25.3518 C   0  0  1  0  0  0  0  0  0  0  0  0
  -24.7273  -21.5415   25.0827 C   0  0  2  0  0  0  0  0  0  0  0  0
  -24.1529  -25.9840   26.7405 C   0  0  0  0  0  0  0  0  0  0  0  0
  -24.1532  -12.7575   21.2812 N   0  0  0  0  0  0  0  0  0  0  0  0
  -25.1046  -13.6478   20.9523 N   0  0  0  0  0  0  0  0  0  0  0  0
  -23.5317  -26.3612   23.2281 N   0  0  0  0  0  0  0  0  0  0  0  0
  -24.0294  -17.3043   20.5794 N   0  0  0  0  0  0  0  0  0  0  0  0
  -25.2449  -18.4304   18.8530 N   0  0  0  0  0  0  0  0  0  0  0  0
  -27.2122  -13.8548   19.8912 N   0  0  0  0  0  0  0  0  0  0  0  0
  -26.2978   -9.4460   19.5410 N   0  0  0  0  0  0  0  0  0  0  0  0
  -21.3089  -29.0909   22.6468 N   0  0  0  0  0  0  0  0  0  0  0  0
  -29.4307  -24.3079   18.3770 N   0  0  0  0  0  0  0  0  0  0  0  0
  -24.0974  -23.8337   25.4075 N   0  0  0  0  0  0  0  0  0  0  0  0
  -28.7866  -20.7478   19.0575 N   0  3  2  0  0  0  0  0  0  0  0  0
  -25.2521  -20.7368   23.9434 N   0  3  0  0  0  0  0  0  0  0  0  0
  -27.8423  -11.0713   19.0594 O   0  0  0  0  0  0  0  0  0  0  0  0
  -23.5924  -29.0051   23.0946 O   0  0  0  0  0  0  0  0  0  0  0  0
  -21.9373  -25.5964   24.7477 O   0  0  0  0  0  0  0  0  0  0  0  0
  -31.0178  -25.3874   19.6892 O   0  0  0  0  0  0  0  0  0  0  0  0
  -26.1165  -23.3816   24.3605 O   0  0  0  0  0  0  0  0  0  0  0  0
  -23.1848  -19.1919   19.5570 O   0  0  0  0  0  0  0  0  0  0  0  0
  -21.7363   -6.8681   21.4337 O   0  0  0  0  0  0  0  0  0  0  0  0
  -28.1714  -27.4533   19.2985 O   0  0  0  0  0  0  0  0  0  1  0  0
  -19.4847   -5.8769   26.3684 F   0  0  0  0  0  0  0  0  0  0  0  0
  -22.4267   -4.6164   22.8812 F   0  0  0  0  0  0  0  0  0  0  0  0
  1  2  1  0  0  0  0
  1  5  2  0  0  0  0
  2  6  2  0  0  0  0
  3  8  2  0  0  0  0
  3 15  1  0  0  0  0
  4  9  1  0  0  0  0
  4 15  2  0  0  0  0
  5 17  1  0  0  0  0
  6 19  1  0  0  0  0
  7 10  2  0  0  0  0
  7 18  1  0  0  0  0
  8 21  1  0  0  0  0
  9 21  2  0  0  0  0
 10 22  1  0  0  0  0
 11 12  2  0  0  0  0
 11 23  1  0  0  0  0
 12 24  1  0  0  0  0
 13 20  1  0  0  0  0
 13 22  2  0  0  0  0
 14 24  2  0  0  0  0
 14 25  1  0  0  0  0
 15 26  1  0  0  0  0
 16 26  1  0  0  0  0
 16 27  2  0  0  0  0
 16 28  1  0  0  0  0
 17 19  2  0  0  0  0
 17 34  1  0  0  0  0
 18 20  2  0  0  0  0
 18 35  1  0  0  0  0
 19 48  1  0  0  0  0
 20 36  1  0  0  0  0
 21 85  1  0  0  0  0
 22 86  1  0  0  0  0
 23 25  2  0  0  0  0
 23 85  1  0  0  0  0
 24 87  1  0  0  0  0
 25 88  1  0  0  0  0
 26 67  2  0  0  0  0
 27 68  1  0  0  0  0
 27 72  1  0  0  0  0
 28 73  1  0  0  0  0
 28 79  2  0  0  0  0
 29 49  1  0  0  0  0
 29 74  1  0  0  0  0
 29 80  2  0  0  0  0
 30 64  1  0  0  0  0
 30 69  1  0  0  0  0
 30 81  2  0  0  0  0
 31 62  1  0  0  0  0
 31 75  1  0  0  0  0
 31 82  2  0  0  0  0
 32 65  1  0  0  0  0
 32 76  1  0  0  0  0
 32 83  2  0  0  0  0
 33 70  1  0  0  0  0
 33 71  1  0  0  0  0
 33 84  2  0  0  0  0
 34 37  1  0  0  0  0
 35 49  1  0  0  0  0
 36 69  1  0  0  0  0
 37 39  1  0  0  0  0
 38 40  1  0  0  0  0
 38 44  1  0  0  0  0
 39 48  1  0  0  0  0
 40 50  1  0  0  0  0
 41 45  1  0  0  0  0
 41 52  1  0  0  0  0
 42 46  1  0  0  0  0
 42 52  1  0  0  0  0
 43 51  1  0  0  0  0
 43 53  1  0  0  0  0
 44 70  1  0  0  0  0
 45 71  1  0  0  0  0
 46 71  1  0  0  0  0
 47 50  1  0  0  0  0
 47 70  1  0  0  0  0
 48 74  1  0  0  0  0
 49 69  1  0  0  0  0
 50 68  1  0  0  0  0
 51 54  1  0  0  0  0
 51 75  1  0  0  0  0
 52 77  1  0  0  0  0
 53 55  1  0  0  0  0
 53 77  1  0  0  0  0
 54 56  1  0  0  0  0
 54 77  1  0  0  0  0
 57 65  1  0  0  0  0
 58 66  1  0  0  0  0
 59 66  1  0  0  0  0
 60 66  1  0  0  0  0
 61 78  1  0  0  0  0
 62 63  1  0  0  0  0
 63 86  1  0  0  0  0
 64 66  1  0  0  0  0
 64 76  1  0  0  0  0
 65 78  1  0  0  0  0
 67 68  1  0  0  0  0
M  CHG  2  77   1  78   1
M  ISO  4  33 100  63 101  71 100  86 101
M  END
> <Batch ID>
0164

> <Smiles>
CNC(C)C(=O)NC(C(=O)N1Cc2cc([101O:1][101CH2:1]CC(=O)NC3CC(C)N(C4CC[100N:0]([100C:0](=O)N5CCCC(n6nc(-c7ccc(Oc8ccc(F)cc8F)cc7)c(C(N)=O)c6N)C5)CC4)C3C)ccc2CC1C(=O)NC1CCCc2ccccc21)C(C)(C)C

> <Shape>
0.248

> <Color>
0.122

> <Negative vol penalty>
0.000

$$$$

  -OEChem-04052322193D

 89 98  0     1  0  0  0  0  0999 V2000
  -32.3345  -13.2141   21.4209 C   0  0  0  0  0  0  0  0  0  0  0  0
  -31.8247  -14.4959   21.6014 C   0  0  0  0  0  0  0  0  0  0  0  0
  -27.8895  -25.1755   19.7167 C   0  0  0  0  0  0  0  0  0  0  0  0
  -29.0161  -26.6848   21.2299 C   0  0  0  0  0  0  0  0  0  0  0  0
  -31.6016  -12.2681   20.7055 C   0  0  0  0  0  0  0  0  0  0  0  0
  -30.5822  -14.8327   21.0657 C   0  0  0  0  0  0  0  0  0  0  0  0
  -24.8618  -18.9384   22.3836 C   0  0  0  0  0  0  0  0  0  0  0  0
  -28.8882  -24.2238   19.9224 C   0  0  0  0  0  0  0  0  0  0  0  0
  -30.0148  -25.7330   21.4357 C   0  0  0  0  0  0  0  0  0  0  0  0
  -24.0648  -19.9041   21.7704 C   0  0  0  0  0  0  0  0  0  0  0  0
  -29.7159  -21.9527   22.2867 C   0  0  0  0  0  0  0  0  0  0  0  0
  -29.3191  -20.6336   22.5059 C   0  0  0  0  0  0  0  0  0  0  0  0
  -22.8521  -18.1644   20.6205 C   0  0  0  0  0  0  0  0  0  0  0  0
  -30.5539  -19.9370   20.5495 C   0  0  0  0  0  0  0  0  0  0  0  0
  -27.9534  -26.4061   20.3704 C   0  0  0  0  0  0  0  0  0  0  0  0
  -26.5575  -27.9888   18.9373 C   0  0  0  0  0  0  0  0  0  0  0  0
  -30.3451  -12.5906   20.1690 C   0  0  0  0  0  0  0  0  0  0  0  0
  -24.6667  -17.5767   22.1111 C   0  0  0  0  0  0  0  0  0  0  0  0
  -29.8323  -13.8905   20.3413 C   0  0  0  0  0  0  0  0  0  0  0  0
  -23.6463  -17.1833   21.2336 C   0  0  0  0  0  0  0  0  0  0  0  0
  -19.5692  -21.4346   22.5046 C   0  0  0  0  0  0  0  0  0  0  0  0
  -19.9795  -22.0097   21.2766 C   0  0  0  0  0  0  0  0  0  0  0  0
  -29.9509  -24.5025   20.7819 C   0  0  0  0  0  0  0  0  0  0  0  0
  -23.0617  -19.5173   20.8865 C   0  0  0  0  0  0  0  0  0  0  0  0
  -30.5317  -22.2640   21.1988 C   0  0  0  0  0  0  0  0  0  0  0  0
  -29.7381  -19.6257   21.6374 C   0  0  0  0  0  0  0  0  0  0  0  0
  -30.9507  -21.2561   20.3303 C   0  0  0  0  0  0  0  0  0  0  0  0
  -26.9224  -27.3898   20.1579 C   0  0  0  0  0  0  0  0  0  0  0  0
  -19.6674  -22.4124   23.4699 C   0  0  0  0  0  0  0  0  0  0  0  0
  -20.3161  -23.3214   21.5288 C   0  0  0  0  0  0  0  0  0  0  0  0
  -25.5356  -28.8453   19.2671 C   0  0  0  0  0  0  0  0  0  0  0  0
  -27.0942  -27.7888   17.6229 C   0  0  0  0  0  0  0  0  0  0  0  0
  -26.4394  -15.2685   20.8330 C   0  0  0  0  0  0  0  0  0  0  0  0
  -23.9357  -13.3986   21.7032 C   0  0  0  0  0  0  0  0  0  0  0  0
  -20.6134  -13.1679   22.4489 C   0  0  0  0  0  0  0  0  0  0  0  0
  -21.5416  -29.0193   23.5543 C   0  0  0  0  0  0  0  0  0  0  0  0
  -29.6109  -11.5487   19.3627 C   0  0  0  0  0  0  0  0  0  0  0  0
  -25.5173  -16.5460   22.8013 C   0  0  0  0  0  0  0  0  0  0  0  0
  -23.3829  -15.7333   20.9229 C   0  0  0  0  0  0  0  0  0  0  0  0
  -28.1349  -11.8734   19.1478 C   0  0  0  0  0  0  0  0  0  0  0  0
  -23.8681  -31.4881   22.8839 C   0  0  0  0  0  0  0  0  0  0  0  0
  -27.9653  -13.3265   18.7159 C   0  0  0  0  0  0  0  0  0  0  0  0
  -24.8900  -30.7887   21.9874 C   0  0  0  0  0  0  0  0  0  0  0  0
  -19.4709  -25.9978   23.0311 C   0  0  0  0  0  0  0  0  0  0  0  0
  -21.8558  -25.2920   23.4948 C   0  0  0  0  0  0  0  0  0  0  0  0
  -23.4158  -30.5715   24.0151 C   0  0  0  0  0  0  0  0  0  0  0  0
  -19.7531  -27.3269   23.7276 C   0  0  0  0  0  0  0  0  0  0  0  0
  -22.0834  -26.6351   24.1823 C   0  0  0  0  0  0  0  0  0  0  0  0
  -23.8641  -28.5588   22.6502 C   0  0  0  0  0  0  0  0  0  0  0  0
  -28.4771  -14.2865   19.7966 C   0  0  1  0  0  0  0  0  0  0  0  0
  -25.5674  -15.2160   22.0555 C   0  0  1  0  0  0  0  0  0  0  0  0
  -24.3482  -29.4400   21.4815 C   0  0  2  0  0  0  0  0  0  0  0  0
  -20.3761  -24.8756   23.5680 C   0  0  0  0  0  0  0  0  0  0  0  0
  -19.1175  -20.0436   22.7141 C   0  0  0  0  0  0  0  0  0  0  0  0
  -19.3663  -22.3568   24.9163 C   0  0  0  0  0  0  0  0  0  0  0  0
  -19.7946  -24.7225   19.4994 C   0  0  0  0  0  0  0  0  0  0  0  0
  -22.1700  -24.0226   19.9715 C   0  0  0  0  0  0  0  0  0  0  0  0
  -18.8483  -11.5014   23.0849 C   0  0  0  0  0  0  0  0  0  0  0  0
  -23.8322  -12.4108   18.8182 C   0  0  0  0  0  0  0  0  0  0  0  0
  -21.5369  -11.5230   19.2779 C   0  0  0  0  0  0  0  0  0  0  0  0
  -23.4935  -10.6316   20.5428 C   0  0  0  0  0  0  0  0  0  0  0  0
  -20.0887  -14.5318   25.0225 C   0  0  0  0  0  0  0  0  0  0  0  0
  -20.9482  -20.0838   19.9545 C   0  0  0  0  0  0  0  0  0  1  0  0
  -20.0396  -21.3296   19.9664 C   0  0  1  0  0  0  0  0  0  0  0  0
  -20.8080  -24.3724   20.6124 C   0  0  0  0  0  0  0  0  0  0  0  0
  -22.6490  -12.9609   21.0461 C   0  0  1  0  0  0  0  0  0  0  0  0
  -19.8829  -12.4923   23.5953 C   0  0  2  0  0  0  0  0  0  0  0  0
  -22.8839  -11.9091   19.9254 C   0  0  0  0  0  0  0  0  0  0  0  0
  -26.1918  -27.8287   21.1864 N   0  0  0  0  0  0  0  0  0  0  0  0
  -20.1227  -23.5549   22.8653 N   0  0  0  0  0  0  0  0  0  0  0  0
  -25.3577  -28.7127   20.6128 N   0  0  0  0  0  0  0  0  0  0  0  0
  -24.2453  -14.7634   21.6178 N   0  0  0  0  0  0  0  0  0  0  0  0
  -22.9152  -29.2993   23.4948 N   0  0  0  0  0  0  0  0  0  0  0  0
  -21.1739  -27.6685   23.6688 N   0  0  0  0  0  0  0  0  0  0  0  0
  -24.7809  -29.6914   18.5343 N   0  0  0  0  0  0  0  0  0  0  0  0
  -28.1623  -28.5956   17.2075 N   0  0  0  0  0  0  0  0  0  0  0  0
  -27.5130  -14.3994   20.8701 N   0  0  0  0  0  0  0  0  0  0  0  0
  -21.7764  -12.5032   22.1218 N   0  0  0  0  0  0  0  0  0  0  0  0
  -19.1870  -13.5072   24.4359 N   0  3  0  0  0  0  0  0  0  0  0  0
  -26.6293  -26.9316   16.8340 O   0  0  0  0  0  0  0  0  0  0  0  0
  -26.1581  -16.0394   19.9229 O   0  0  0  0  0  0  0  0  0  0  0  0
  -24.6366  -12.5616   22.2775 O   0  0  0  0  0  0  0  0  0  0  0  0
  -20.1925  -14.1817   21.8961 O   0  0  0  0  0  0  0  0  0  0  0  0
  -20.6933  -29.9186   23.5026 O   0  0  0  0  0  0  0  0  0  0  0  0
  -18.7211  -20.9243   19.5611 O   0  0  0  0  0  0  0  0  0  0  0  0
  -30.9255  -23.5739   20.9830 O   0  0  0  0  0  0  0  0  0  0  0  0
  -22.2769  -20.4650   20.2815 O   0  0  0  0  0  0  0  0  0  1  0  0
  -29.3582  -18.3588   21.8489 F   0  0  0  0  0  0  0  0  0  0  0  0
  -31.7354  -21.5489   19.2842 F   0  0  0  0  0  0  0  0  0  0  0  0
  1  2  1  0  0  0  0
  1  5  2  0  0  0  0
  2  6  2  0  0  0  0
  3  8  2  0  0  0  0
  3 15  1  0  0  0  0
  4  9  1  0  0  0  0
  4 15  2  0  0  0  0
  5 17  1  0  0  0  0
  6 19  1  0  0  0  0
  7 10  2  0  0  0  0
  7 18  1  0  0  0  0
  8 23  1  0  0  0  0
  9 23  2  0  0  0  0
 10 24  1  0  0  0  0
 11 12  2  0  0  0  0
 11 25  1  0  0  0  0
 12 26  1  0  0  0  0
 13 20  1  0  0  0  0
 13 24  2  0  0  0  0
 14 26  2  0  0  0  0
 14 27  1  0  0  0  0
 15 28  1  0  0  0  0
 16 28  1  0  0  0  0
 16 31  2  0  0  0  0
 16 32  1  0  0  0  0
 17 19  2  0  0  0  0
 17 37  1  0  0  0  0
 18 20  2  0  0  0  0
 18 38  1  0  0  0  0
 19 50  1  0  0  0  0
 20 39  1  0  0  0  0
 21 22  1  0  0  0  0
 21 29  2  0  0  0  0
 21 54  1  0  0  0  0
 22 30  2  0  0  0  0
 22 64  1  0  0  0  0
 23 86  1  0  0  0  0
 24 87  1  0  0  0  0
 25 27  2  0  0  0  0
 25 86  1  0  0  0  0
 26 88  1  0  0  0  0
 27 89  1  0  0  0  0
 28 69  2  0  0  0  0
 29 55  1  0  0  0  0
 29 70  1  0  0  0  0
 30 65  1  0  0  0  0
 30 70  1  0  0  0  0
 31 71  1  0  0  0  0
 31 75  1  0  0  0  0
 32 76  1  0  0  0  0
 32 80  2  0  0  0  0
 33 51  1  0  0  0  0
 33 77  1  0  0  0  0
 33 81  2  0  0  0  0
 34 66  1  0  0  0  0
 34 72  1  0  0  0  0
 34 82  2  0  0  0  0
 35 67  1  0  0  0  0
 35 78  1  0  0  0  0
 35 83  2  0  0  0  0
 36 73  1  0  0  0  0
 36 74  1  0  0  0  0
 36 84  2  0  0  0  0
 37 40  1  0  0  0  0
 38 51  1  0  0  0  0
 39 72  1  0  0  0  0
 40 42  1  0  0  0  0
 41 43  1  0  0  0  0
 41 46  1  0  0  0  0
 42 50  1  0  0  0  0
 43 52  1  0  0  0  0
 44 47  1  0  0  0  0
 44 53  1  0  0  0  0
 45 48  1  0  0  0  0
 45 53  1  0  0  0  0
 46 73  1  0  0  0  0
 47 74  1  0  0  0  0
 48 74  1  0  0  0  0
 49 52  1  0  0  0  0
 49 73  1  0  0  0  0
 50 77  1  0  0  0  0
 51 72  1  0  0  0  0
 52 71  1  0  0  0  0
 53 70  1  0  0  0  0
 56 65  1  0  0  0  0
 57 65  1  0  0  0  0
 58 67  1  0  0  0  0
 59 68  1  0  0  0  0
 60 68  1  0  0  0  0
 61 68  1  0  0  0  0
 62 79  1  0  0  0  0
 63 64  1  0  0  0  0
 63 87  1  0  0  0  0
 64 85  1  0  0  0  0
 66 68  1  0  0  0  0
 66 78  1  0  0  0  0
 67 79  1  0  0  0  0
 69 71  1  0  0  0  0
M  CHG  1  79   1
M  ISO  4  36 100  63 101  74 100  87 101
M  END
> <Batch ID>
0164

> <Smiles>
CNC(C)C(=O)NC(C(=O)N1Cc2cc([101O:1][101CH2:1]C(O)c3c(C)c(C)n(C4CC[100N:0]([100C:0](=O)N5CCCC(n6nc(-c7ccc(Oc8ccc(F)cc8F)cc7)c(C(N)=O)c6N)C5)CC4)c3C(C)C)ccc2CC1C(=O)NC1CCCc2ccccc21)C(C)(C)C

> <Shape>
0.230

> <Color>
0.057

> <Negative vol penalty>
0.000

$$$$

  -OEChem-04052322193D

 89 99  0     1  0  0  0  0  0999 V2000
  -26.5945  -23.8562   20.1432 C   0  0  0  0  0  0  0  0  0  0  0  0
  -26.4757  -24.6770   21.2602 C   0  0  0  0  0  0  0  0  0  0  0  0
  -23.8005  -12.2912   21.7718 C   0  0  0  0  0  0  0  0  0  0  0  0
  -23.6143  -12.0974   19.3708 C   0  0  0  0  0  0  0  0  0  0  0  0
  -27.4599  -24.2096   19.1088 C   0  0  0  0  0  0  0  0  0  0  0  0
  -27.2233  -25.8512   21.3438 C   0  0  0  0  0  0  0  0  0  0  0  0
  -23.4978  -28.4520   19.3785 C   0  0  0  0  0  0  0  0  0  0  0  0
  -22.6672  -11.4924   21.9242 C   0  0  0  0  0  0  0  0  0  0  0  0
  -22.4810  -11.2986   19.5232 C   0  0  0  0  0  0  0  0  0  0  0  0
  -22.3945  -27.7306   19.8323 C   0  0  0  0  0  0  0  0  0  0  0  0
  -20.0340   -9.2071   22.9531 C   0  0  0  0  0  0  0  0  0  0  0  0
  -20.0785   -8.1944   23.9111 C   0  0  0  0  0  0  0  0  0  0  0  0
  -23.0342  -23.1419   24.3290 C   0  0  0  0  0  0  0  0  0  0  0  0
  -22.7647  -28.5775   22.0605 C   0  0  0  0  0  0  0  0  0  0  0  0
  -22.9667  -23.8284   27.0321 C   0  0  0  0  0  0  0  0  0  0  0  0
  -21.9484   -7.1871   22.7596 C   0  0  0  0  0  0  0  0  0  0  0  0
  -24.2740  -12.5937   20.4951 C   0  0  0  0  0  0  0  0  0  0  0  0
  -26.7836  -12.9911   20.2675 C   0  0  0  0  0  0  0  0  0  0  0  0
  -28.2112  -25.3935   19.1754 C   0  0  0  0  0  0  0  0  0  0  0  0
  -24.2507  -29.2343   20.2660 C   0  0  0  0  0  0  0  0  0  0  0  0
  -28.1006  -26.2200   20.3099 C   0  0  0  0  0  0  0  0  0  0  0  0
  -22.3098  -24.2581   24.7471 C   0  0  0  0  0  0  0  0  0  0  0  0
  -23.7248  -22.3688   25.2624 C   0  0  0  0  0  0  0  0  0  0  0  0
  -23.8756  -29.3099   21.6149 C   0  0  0  0  0  0  0  0  0  0  0  0
  -22.2761  -24.6014   26.0986 C   0  0  0  0  0  0  0  0  0  0  0  0
  -23.6911  -22.7121   26.6139 C   0  0  0  0  0  0  0  0  0  0  0  0
  -22.0075  -10.9961   20.7999 C   0  0  0  0  0  0  0  0  0  0  0  0
  -22.0295  -27.7910   21.1740 C   0  0  0  0  0  0  0  0  0  0  0  0
  -20.9467   -9.2098   21.8982 C   0  0  0  0  0  0  0  0  0  0  0  0
  -21.0357   -7.1844   23.8144 C   0  0  0  0  0  0  0  0  0  0  0  0
  -21.9039   -8.1998   21.8015 C   0  0  0  0  0  0  0  0  0  0  0  0
  -25.4443  -13.4193   20.3370 C   0  0  0  0  0  0  0  0  0  0  0  0
  -27.5069  -14.1490   20.1171 C   0  0  0  0  0  0  0  0  0  0  0  0
  -27.3254  -11.6653   20.3329 C   0  0  0  0  0  0  0  0  0  0  0  0
  -27.2668  -29.2142   21.2693 C   0  0  0  0  0  0  0  0  0  0  0  0
  -26.3855  -31.9661   22.7433 C   0  0  0  0  0  0  0  0  0  0  0  0
  -23.8769  -33.8868   24.0336 C   0  0  0  0  0  0  0  0  0  0  0  0
  -26.6330  -19.7694   21.5641 C   0  0  0  0  0  0  0  0  0  0  0  0
  -29.1689  -25.7097   18.0540 C   0  0  0  0  0  0  0  0  0  0  0  0
  -25.4222  -30.0276   19.7554 C   0  0  0  0  0  0  0  0  0  0  0  0
  -24.6387  -30.1510   22.6042 C   0  0  0  0  0  0  0  0  0  0  0  0
  -29.6451  -27.1600   18.0503 C   0  0  0  0  0  0  0  0  0  0  0  0
  -27.1762  -18.5804   18.3641 C   0  0  0  0  0  0  0  0  0  0  0  0
  -20.1078  -24.6478   23.4969 C   0  0  0  0  0  0  0  0  0  0  0  0
  -30.0598  -27.5893   19.4541 C   0  0  0  0  0  0  0  0  0  0  0  0
  -26.9287  -17.0772   18.4881 C   0  0  0  0  0  0  0  0  0  0  0  0
  -19.7350  -25.0574   22.0671 C   0  0  0  0  0  0  0  0  0  0  0  0
  -23.8421  -20.4894   23.5666 C   0  0  0  0  0  0  0  0  0  0  0  0
  -25.9746  -21.5028   24.4805 C   0  0  0  0  0  0  0  0  0  0  0  0
  -22.1313  -25.0840   22.2858 C   0  0  0  0  0  0  0  0  0  0  0  0
  -26.1505  -19.3705   19.1685 C   0  0  0  0  0  0  0  0  0  0  0  0
  -24.6519  -19.2887   23.0691 C   0  0  0  0  0  0  0  0  0  0  0  0
  -26.7272  -20.2706   23.9866 C   0  0  0  0  0  0  0  0  0  0  0  0
  -25.8529  -17.4962   20.7549 C   0  0  0  0  0  0  0  0  0  0  0  0
  -21.5687  -25.0823   23.7155 C   0  0  2  0  0  0  0  0  0  0  0  0
  -24.5050  -21.1589   24.7839 C   0  0  0  0  0  0  0  0  0  0  0  0
  -28.8762  -27.5143   20.4262 C   0  0  1  0  0  0  0  0  0  0  0  0
  -26.4240  -30.3850   20.8491 C   0  0  1  0  0  0  0  0  0  0  0  0
  -26.8687  -16.6465   19.9644 C   0  0  1  0  0  0  0  0  0  0  0  0
  -20.9926  -25.6688   21.4614 C   0  0  2  0  0  0  0  0  0  1  0  0
  -21.5078  -25.7923   26.5696 C   0  0  0  0  0  0  0  0  0  0  0  0
  -24.4219  -21.8992   27.6314 C   0  0  0  0  0  0  0  0  0  0  0  0
  -23.4699  -36.0681   25.2057 C   0  0  0  0  0  0  0  0  0  0  0  0
  -27.4299  -30.7605   25.3444 C   0  0  0  0  0  0  0  0  0  0  0  0
  -26.1629  -32.5248   26.5895 C   0  0  0  0  0  0  0  0  0  0  0  0
  -27.9865  -33.1765   25.0171 C   0  0  0  0  0  0  0  0  0  0  0  0
  -22.1742  -34.8868   21.8291 C   0  0  0  0  0  0  0  0  0  0  0  0
  -25.7975  -32.3175   24.0886 C   0  0  1  0  0  0  0  0  0  0  0  0
  -23.5454  -35.3583   23.8628 C   0  0  2  0  0  0  0  0  0  0  0  0
  -26.8308  -32.1773   25.2419 C   0  0  0  0  0  0  0  0  0  0  0  0
  -25.3213  -14.7456   20.2390 N   0  0  0  0  0  0  0  0  0  0  0  0
  -26.5925  -15.1609   20.1065 N   0  0  0  0  0  0  0  0  0  0  0  0
  -25.7802  -30.9034   22.0578 N   0  0  0  0  0  0  0  0  0  0  0  0
  -26.1214  -18.9299   20.5630 N   0  0  0  0  0  0  0  0  0  0  0  0
  -26.0528  -19.6674   22.8374 N   0  0  0  0  0  0  0  0  0  0  0  0
  -28.8295  -14.3901   19.9944 N   0  0  0  0  0  0  0  0  0  0  0  0
  -26.4412  -10.5891   20.4891 N   0  0  0  0  0  0  0  0  0  0  0  0
  -27.9978  -28.6495   20.2416 N   0  0  0  0  0  0  0  0  0  0  0  0
  -25.2338  -33.6560   23.9507 N   0  0  0  0  0  0  0  0  0  0  0  0
  -22.2340  -35.5172   23.1729 N   0  3  0  0  0  0  0  0  0  0  0  0
  -28.5584  -11.4428   20.2717 O   0  0  0  0  0  0  0  0  0  0  0  0
  -27.2558  -28.8510   22.4397 O   0  0  0  0  0  0  0  0  0  0  0  0
  -27.3421  -32.6155   22.3132 O   0  0  0  0  0  0  0  0  0  0  0  0
  -23.0184  -33.0285   24.2253 O   0  0  0  0  0  0  0  0  0  0  0  0
  -27.5544  -20.5628   21.3347 O   0  0  0  0  0  0  0  0  0  0  0  0
  -20.9017  -10.2164   20.9482 O   0  0  0  0  0  0  0  0  0  0  0  0
  -20.9459  -27.0824   21.6227 O   0  0  0  0  0  0  0  0  0  1  0  0
  -21.0792   -6.2127   24.7354 F   0  0  0  0  0  0  0  0  0  0  0  0
  -22.7840   -8.1978   20.7910 F   0  0  0  0  0  0  0  0  0  0  0  0
  1  2  1  0  0  0  0
  1  5  2  0  0  0  0
  2  6  2  0  0  0  0
  3  8  2  0  0  0  0
  3 17  1  0  0  0  0
  4  9  1  0  0  0  0
  4 17  2  0  0  0  0
  5 19  1  0  0  0  0
  6 21  1  0  0  0  0
  7 10  2  0  0  0  0
  7 20  1  0  0  0  0
  8 27  1  0  0  0  0
  9 27  2  0  0  0  0
 10 28  1  0  0  0  0
 11 12  2  0  0  0  0
 11 29  1  0  0  0  0
 12 30  1  0  0  0  0
 13 22  1  0  0  0  0
 13 23  2  0  0  0  0
 14 24  1  0  0  0  0
 14 28  2  0  0  0  0
 15 25  1  0  0  0  0
 15 26  2  0  0  0  0
 16 30  2  0  0  0  0
 16 31  1  0  0  0  0
 17 32  1  0  0  0  0
 18 32  1  0  0  0  0
 18 33  2  0  0  0  0
 18 34  1  0  0  0  0
 19 21  2  0  0  0  0
 19 39  1  0  0  0  0
 20 24  2  0  0  0  0
 20 40  1  0  0  0  0
 21 57  1  0  0  0  0
 22 25  2  0  0  0  0
 22 55  1  0  0  0  0
 23 26  1  0  0  0  0
 23 56  1  0  0  0  0
 24 41  1  0  0  0  0
 25 61  1  0  0  0  0
 26 62  1  0  0  0  0
 27 86  1  0  0  0  0
 28 87  1  0  0  0  0
 29 31  2  0  0  0  0
 29 86  1  0  0  0  0
 30 88  1  0  0  0  0
 31 89  1  0  0  0  0
 32 71  2  0  0  0  0
 33 72  1  0  0  0  0
 33 76  1  0  0  0  0
 34 77  1  0  0  0  0
 34 81  2  0  0  0  0
 35 58  1  0  0  0  0
 35 78  1  0  0  0  0
 35 82  2  0  0  0  0
 36 68  1  0  0  0  0
 36 73  1  0  0  0  0
 36 83  2  0  0  0  0
 37 69  1  0  0  0  0
 37 79  1  0  0  0  0
 37 84  2  0  0  0  0
 38 74  1  0  0  0  0
 38 75  1  0  0  0  0
 38 85  2  0  0  0  0
 39 42  1  0  0  0  0
 40 58  1  0  0  0  0
 41 73  1  0  0  0  0
 42 45  1  0  0  0  0
 43 46  1  0  0  0  0
 43 51  1  0  0  0  0
 44 47  1  0  0  0  0
 44 55  1  0  0  0  0
 45 57  1  0  0  0  0
 46 59  1  0  0  0  0
 47 60  1  0  0  0  0
 48 52  1  0  0  0  0
 48 56  1  0  0  0  0
 49 53  1  0  0  0  0
 49 56  1  0  0  0  0
 50 55  1  0  0  0  0
 50 60  1  0  0  0  0
 51 74  1  0  0  0  0
 52 75  1  0  0  0  0
 53 75  1  0  0  0  0
 54 59  1  0  0  0  0
 54 74  1  0  0  0  0
 57 78  1  0  0  0  0
 58 73  1  0  0  0  0
 59 72  1  0  0  0  0
 60 87  1  0  0  0  0
 63 69  1  0  0  0  0
 64 70  1  0  0  0  0
 65 70  1  0  0  0  0
 66 70  1  0  0  0  0
 67 80  1  0  0  0  0
 68 70  1  0  0  0  0
 68 79  1  0  0  0  0
 69 80  1  0  0  0  0
 71 72  1  0  0  0  0
M  CHG  1  80   1
M  ISO  4  38 100  60 101  75 100  87 101
M  END
> <Batch ID>
0164

> <Smiles>
CNC(C)C(=O)NC(C(=O)N1Cc2cc([101O:1][101CH:1]3CCC(c4cc(C5CC[100N:0]([100C:0](=O)N6CCCC(n7nc(-c8ccc(Oc9ccc(F)cc9F)cc8)c(C(N)=O)c7N)C6)CC5)c(C)cc4C)C3)ccc2CC1C(=O)NC1CCCc2ccccc21)C(C)(C)C

> <Shape>
0.281

> <Color>
0.062

> <Negative vol penalty>
0.000

$$$$

  -OEChem-04052322193D

 91101  0     1  0  0  0  0  0999 V2000
  -31.3715  -30.6574   24.9199 C   0  0  0  0  0  0  0  0  0  0  0  0
  -31.9987  -29.4908   24.4945 C   0  0  0  0  0  0  0  0  0  0  0  0
  -21.1216  -23.0371   22.9798 C   0  0  0  0  0  0  0  0  0  0  0  0
  -20.6124  -22.7080   25.3185 C   0  0  0  0  0  0  0  0  0  0  0  0
  -29.9801  -30.7153   24.9857 C   0  0  0  0  0  0  0  0  0  0  0  0
  -31.2347  -28.3808   24.1357 C   0  0  0  0  0  0  0  0  0  0  0  0
  -31.2459  -22.8189   19.6211 C   0  0  0  0  0  0  0  0  0  0  0  0
  -20.1817  -24.0659   22.9199 C   0  0  0  0  0  0  0  0  0  0  0  0
  -19.6724  -23.7369   25.2586 C   0  0  0  0  0  0  0  0  0  0  0  0
  -31.1098  -21.4314   19.6211 C   0  0  0  0  0  0  0  0  0  0  0  0
  -19.9964  -27.3251   23.8011 C   0  0  0  0  0  0  0  0  0  0  0  0
  -20.3628  -28.5006   23.1457 C   0  0  0  0  0  0  0  0  0  0  0  0
  -29.0006  -14.1457   19.1389 C   0  0  0  0  0  0  0  0  0  0  0  0
  -28.7109  -21.6729   19.6989 C   0  0  0  0  0  0  0  0  0  0  0  0
  -29.2583  -11.6343   20.3260 C   0  0  0  0  0  0  0  0  0  0  0  0
  -18.5424  -28.1985   21.5862 C   0  0  0  0  0  0  0  0  0  0  0  0
  -21.3369  -22.3581   24.1791 C   0  0  0  0  0  0  0  0  0  0  0  0
  -27.9857  -13.6551   19.9604 C   0  0  0  0  0  0  0  0  0  0  0  0
  -23.6749  -21.4093   24.5555 C   0  0  0  0  0  0  0  0  0  0  0  0
  -29.1983  -29.6087   24.6183 C   0  0  0  0  0  0  0  0  0  0  0  0
  -30.1140  -23.6452   19.6710 C   0  0  0  0  0  0  0  0  0  0  0  0
  -29.8315  -28.4235   24.1979 C   0  0  0  0  0  0  0  0  0  0  0  0
  -28.8353  -23.0706   19.6968 C   0  0  0  0  0  0  0  0  0  0  0  0
  -28.1145  -12.3994   20.5540 C   0  0  0  0  0  0  0  0  0  0  0  0
  -30.2733  -12.1248   19.5044 C   0  0  0  0  0  0  0  0  0  0  0  0
  -19.4571  -24.4158   24.0593 C   0  0  0  0  0  0  0  0  0  0  0  0
  -29.8422  -20.8582   19.6629 C   0  0  0  0  0  0  0  0  0  0  0  0
  -18.9030  -26.5863   23.3490 C   0  0  0  0  0  0  0  0  0  0  0  0
  -19.6359  -28.9373   22.0382 C   0  0  0  0  0  0  0  0  0  0  0  0
  -18.1760  -27.0230   22.2416 C   0  0  0  0  0  0  0  0  0  0  0  0
  -30.1444  -13.3805   18.9108 C   0  0  0  0  0  0  0  0  0  0  0  0
  -22.3074  -21.2948   24.2415 C   0  0  0  0  0  0  0  0  0  0  0  0
  -24.1533  -20.1241   24.4797 C   0  0  0  0  0  0  0  0  0  0  0  0
  -26.7917  -14.4870   20.1831 C   0  0  0  0  0  0  0  0  0  0  0  0
  -26.6958  -15.3775   21.1953 C   0  0  0  0  0  0  0  0  0  0  0  0
  -24.4438  -22.5734   24.8863 C   0  0  0  0  0  0  0  0  0  0  0  0
  -29.0082  -25.8136   21.7152 C   0  0  0  0  0  0  0  0  0  0  0  0
  -26.7758  -26.2806   19.4086 C   0  0  0  0  0  0  0  0  0  0  0  0
  -25.0737  -25.0293   16.7283 C   0  0  0  0  0  0  0  0  0  0  0  0
  -23.0686  -15.3997   21.0977 C   0  0  0  0  0  0  0  0  0  0  0  0
  -27.6989  -29.7029   24.7511 C   0  0  0  0  0  0  0  0  0  0  0  0
  -30.2769  -25.1402   19.6433 C   0  0  0  0  0  0  0  0  0  0  0  0
  -27.5876  -23.9136   19.7307 C   0  0  0  0  0  0  0  0  0  0  0  0
  -25.6825  -14.2804   19.1788 C   0  0  0  0  0  0  0  0  0  0  0  0
  -25.4467  -16.2092   21.4193 C   0  0  0  0  0  0  0  0  0  0  0  0
  -26.9505  -28.6076   23.9959 C   0  0  0  0  0  0  0  0  0  0  0  0
  -22.1414  -15.6194   24.6701 C   0  0  0  0  0  0  0  0  0  0  0  0
  -27.5833  -27.2459   24.2648 C   0  0  0  0  0  0  0  0  0  0  0  0
  -22.1513  -17.1262   24.9249 C   0  0  0  0  0  0  0  0  0  0  0  0
  -29.6770  -17.4579   22.1388 C   0  0  0  0  0  0  0  0  0  0  0  0
  -21.8062  -15.2908   23.2181 C   0  0  0  0  0  0  0  0  0  0  0  0
  -22.6874  -17.4806   22.4835 C   0  0  0  0  0  0  0  0  0  0  0  0
  -29.0364  -27.2067   23.7766 C   0  0  1  0  0  0  0  0  0  0  0  0
  -29.0736  -25.8831   20.2157 C   0  0  1  0  0  0  0  0  0  0  0  0
  -28.2141  -17.1006   22.1081 C   0  0  1  0  0  0  0  0  0  0  0  0
  -28.8924  -17.6081   20.8619 C   0  0  1  0  0  0  0  0  0  0  0  0
  -23.0725  -17.8462   23.9245 C   0  0  1  0  0  0  0  0  0  0  0  0
  -24.6515  -15.4156   19.1863 C   0  0  2  0  0  0  0  0  0  0  0  0
  -27.0471  -11.8424   21.4403 C   0  0  0  0  0  0  0  0  0  0  0  0
  -31.4823  -11.2735   19.2856 C   0  0  0  0  0  0  0  0  0  0  0  0
  -25.1247  -16.6403   18.3965 C   0  0  0  0  0  0  0  0  0  0  0  0
  -23.2848  -25.6319   15.0748 C   0  0  0  0  0  0  0  0  0  0  0  0
  -24.6497  -25.8422   21.5527 C   0  0  0  0  0  0  0  0  0  0  0  0
  -22.9731  -25.5093   19.7234 C   0  0  0  0  0  0  0  0  0  0  0  0
  -24.1496  -27.6971   19.9515 C   0  0  0  0  0  0  0  0  0  0  0  0
  -26.9272  -24.7342   14.4400 C   0  0  0  0  0  0  0  0  0  0  0  0
  -27.7838  -15.6568   22.2015 C   0  0  0  0  0  0  0  0  0  0  0  0
  -28.5713  -18.9638   20.3355 C   0  0  0  0  0  0  0  0  0  1  0  0
  -25.4232  -25.6884   19.0942 C   0  0  1  0  0  0  0  0  0  0  0  0
  -24.7786  -25.6155   15.3594 C   0  0  2  0  0  0  0  0  0  0  0  0
  -24.3223  -26.1681   20.0818 C   0  0  0  0  0  0  0  0  0  0  0  0
  -21.9408  -20.0363   23.9850 N   0  0  0  0  0  0  0  0  0  0  0  0
  -23.0851  -19.3482   24.1378 N   0  0  0  0  0  0  0  0  0  0  0  0
  -27.7992  -25.3704   19.7085 N   0  0  0  0  0  0  0  0  0  0  0  0
  -24.3232  -15.7665   20.5761 N   0  0  0  0  0  0  0  0  0  0  0  0
  -22.6692  -16.0233   22.2914 N   0  0  0  0  0  0  0  0  0  0  0  0
  -25.3795  -19.5934   24.6728 N   0  0  0  0  0  0  0  0  0  0  0  0
  -23.7953  -23.8154   24.9191 N   0  0  0  0  0  0  0  0  0  0  0  0
  -29.0825  -27.0443   22.3393 N   0  0  0  0  0  0  0  0  0  0  0  0
  -25.1526  -26.0077   17.6967 N   0  0  0  0  0  0  0  0  0  0  0  0
  -25.4507  -24.8150   14.2972 N   0  3  0  0  0  0  0  0  0  0  0  0
  -25.6732  -22.5161   25.1291 O   0  0  0  0  0  0  0  0  0  0  0  0
  -28.8969  -24.7242   22.2653 O   0  0  0  0  0  0  0  0  0  0  0  0
  -26.9208  -27.5053   19.3817 O   0  0  0  0  0  0  0  0  0  0  0  0
  -25.2160  -23.8237   16.9200 O   0  0  0  0  0  0  0  0  0  0  0  0
  -22.3525  -14.5596   20.5387 O   0  0  0  0  0  0  0  0  0  0  0  0
  -18.5400  -25.4199   24.0012 O   0  0  0  0  0  0  0  0  0  0  0  0
  -29.7055  -19.4941   19.6637 O   0  0  0  0  0  0  0  0  0  1  0  0
  -19.9869  -30.0670   21.4099 F   0  0  0  0  0  0  0  0  0  0  0  0
  -17.1239  -26.3181   21.8034 F   0  0  0  0  0  0  0  0  0  0  0  0
  -31.3809  -14.0189   17.8897 Cl  0  0  0  0  0  0  0  0  0  0  0  0
  1  2  1  0  0  0  0
  1  5  2  0  0  0  0
  2  6  2  0  0  0  0
  3  8  2  0  0  0  0
  3 17  1  0  0  0  0
  4  9  1  0  0  0  0
  4 17  2  0  0  0  0
  5 20  1  0  0  0  0
  6 22  1  0  0  0  0
  7 10  2  0  0  0  0
  7 21  1  0  0  0  0
  8 26  1  0  0  0  0
  9 26  2  0  0  0  0
 10 27  1  0  0  0  0
 11 12  2  0  0  0  0
 11 28  1  0  0  0  0
 12 29  1  0  0  0  0
 13 18  1  0  0  0  0
 13 31  2  0  0  0  0
 14 23  1  0  0  0  0
 14 27  2  0  0  0  0
 15 24  1  0  0  0  0
 15 25  2  0  0  0  0
 16 29  2  0  0  0  0
 16 30  1  0  0  0  0
 17 32  1  0  0  0  0
 18 24  2  0  0  0  0
 18 34  1  0  0  0  0
 19 32  1  0  0  0  0
 19 33  2  0  0  0  0
 19 36  1  0  0  0  0
 20 22  2  0  0  0  0
 20 41  1  0  0  0  0
 21 23  2  0  0  0  0
 21 42  1  0  0  0  0
 22 53  1  0  0  0  0
 23 43  1  0  0  0  0
 24 59  1  0  0  0  0
 25 31  1  0  0  0  0
 25 60  1  0  0  0  0
 26 87  1  0  0  0  0
 27 88  1  0  0  0  0
 28 30  2  0  0  0  0
 28 87  1  0  0  0  0
 29 89  1  0  0  0  0
 30 90  1  0  0  0  0
 31 91  1  0  0  0  0
 32 72  2  0  0  0  0
 33 73  1  0  0  0  0
 33 77  1  0  0  0  0
 34 35  2  0  0  0  0
 34 44  1  0  0  0  0
 35 45  1  0  0  0  0
 35 67  1  0  0  0  0
 36 78  1  0  0  0  0
 36 82  2  0  0  0  0
 37 54  1  0  0  0  0
 37 79  1  0  0  0  0
 37 83  2  0  0  0  0
 38 69  1  0  0  0  0
 38 74  1  0  0  0  0
 38 84  2  0  0  0  0
 39 70  1  0  0  0  0
 39 80  1  0  0  0  0
 39 85  2  0  0  0  0
 40 75  1  0  0  0  0
 40 76  1  0  0  0  0
 40 86  2  0  0  0  0
 41 46  1  0  0  0  0
 42 54  1  0  0  0  0
 43 74  1  0  0  0  0
 44 58  1  0  0  0  0
 45 75  1  0  0  0  0
 46 48  1  0  0  0  0
 47 49  1  0  0  0  0
 47 51  1  0  0  0  0
 48 53  1  0  0  0  0
 49 57  1  0  0  0  0
 50 55  1  0  0  0  0
 50 56  1  0  0  0  0
 51 76  1  0  0  0  0
 52 57  1  0  0  0  0
 52 76  1  0  0  0  0
 53 79  1  0  0  0  0
 54 74  1  0  0  0  0
 55 56  1  0  0  0  0
 55 67  1  0  0  0  0
 56 68  1  0  0  0  0
 57 73  1  0  0  0  0
 58 61  1  0  0  0  0
 58 75  1  0  0  0  0
 62 70  1  0  0  0  0
 63 71  1  0  0  0  0
 64 71  1  0  0  0  0
 65 71  1  0  0  0  0
 66 81  1  0  0  0  0
 68 88  1  0  0  0  0
 69 71  1  0  0  0  0
 69 80  1  0  0  0  0
 70 81  1  0  0  0  0
 72 73  1  0  0  0  0
M  CHG  1  81   1
M  ISO  4  40 100  68 101  75 100  88 101
M  END
> <Batch ID>
0164

> <Smiles>
CNC(C)C(=O)NC(C(=O)N1Cc2cc([101O:1][101CH2:1]C3CC3CC3=C(c4cc(Cl)c(C)cc4C)CC(C)[100N:0]([100C:0](=O)N4CCCC(n5nc(-c6ccc(Oc7ccc(F)cc7F)cc6)c(C(N)=O)c5N)C4)C3)ccc2CC1C(=O)NC1CCCc2ccccc21)C(C)(C)C

> <Shape>
0.210

> <Color>
0.066

> <Negative vol penalty>
0.000

$$$$

  -OEChem-04052322193D

 86 95  0     1  0  0  0  0  0999 V2000
  -17.1801  -28.2298   23.3575 C   0  0  0  0  0  0  0  0  0  0  0  0
  -18.3942  -28.0528   22.7016 C   0  0  0  0  0  0  0  0  0  0  0  0
  -22.8198  -10.5217   21.8473 C   0  0  0  0  0  0  0  0  0  0  0  0
  -24.6269   -8.9185   21.8186 C   0  0  0  0  0  0  0  0  0  0  0  0
  -16.9781  -29.3547   24.1561 C   0  0  0  0  0  0  0  0  0  0  0  0
  -19.4066  -29.0011   22.8432 C   0  0  0  0  0  0  0  0  0  0  0  0
  -23.9425  -26.8957   23.6423 C   0  0  0  0  0  0  0  0  0  0  0  0
  -21.9026   -9.4917   21.6389 C   0  0  0  0  0  0  0  0  0  0  0  0
  -23.7097   -7.8884   21.6102 C   0  0  0  0  0  0  0  0  0  0  0  0
  -24.6029  -26.3666   22.5343 C   0  0  0  0  0  0  0  0  0  0  0  0
  -21.5370   -6.0779   23.4600 C   0  0  0  0  0  0  0  0  0  0  0  0
  -21.6861   -4.9163   24.2178 C   0  0  0  0  0  0  0  0  0  0  0  0
  -25.9610  -28.3559   22.4015 C   0  0  0  0  0  0  0  0  0  0  0  0
  -27.0967  -24.3822   18.4708 C   0  0  0  0  0  0  0  0  0  0  0  0
  -21.9616   -3.6298   22.1914 C   0  0  0  0  0  0  0  0  0  0  0  0
  -29.8146  -24.6010   18.3671 C   0  0  0  0  0  0  0  0  0  0  0  0
  -24.1819  -10.2351   21.9372 C   0  0  0  0  0  0  0  0  0  0  0  0
  -25.5879  -11.7926   23.3881 C   0  0  0  0  0  0  0  0  0  0  0  0
  -17.9921  -30.3124   24.3153 C   0  0  0  0  0  0  0  0  0  0  0  0
  -24.2794  -28.1656   24.1323 C   0  0  0  0  0  0  0  0  0  0  0  0
  -19.2175  -30.1405   23.6437 C   0  0  0  0  0  0  0  0  0  0  0  0
  -25.3051  -28.8977   23.5174 C   0  0  0  0  0  0  0  0  0  0  0  0
  -27.6791  -25.6446   18.4508 C   0  0  0  0  0  0  0  0  0  0  0  0
  -29.0633  -25.7647   18.3980 C   0  0  0  0  0  0  0  0  0  0  0  0
  -22.3476   -8.1750   21.5203 C   0  0  0  0  0  0  0  0  0  0  0  0
  -25.6104  -27.0979   21.9120 C   0  0  0  0  0  0  0  0  0  0  0  0
  -21.6002   -6.0154   22.0680 C   0  0  0  0  0  0  0  0  0  0  0  0
  -21.8984   -3.6923   23.5835 C   0  0  0  0  0  0  0  0  0  0  0  0
  -21.8126   -4.7914   21.4337 C   0  0  0  0  0  0  0  0  0  0  0  0
  -25.1299  -11.2988   22.1519 C   0  0  0  0  0  0  0  0  0  0  0  0
  -27.9360  -23.2803   18.4365 C   0  0  0  0  0  0  0  0  0  0  0  0
  -26.4696  -12.7911   23.0536 C   0  0  0  0  0  0  0  0  0  0  0  0
  -25.2468  -11.3850   24.7198 C   0  0  0  0  0  0  0  0  0  0  0  0
  -22.7324  -30.9213   24.4737 C   0  0  0  0  0  0  0  0  0  0  0  0
  -25.4605  -31.8182   25.9822 C   0  0  0  0  0  0  0  0  0  0  0  0
  -28.8125  -31.3553   26.4253 C   0  0  0  0  0  0  0  0  0  0  0  0
  -27.9497  -17.1149   20.2393 C   0  0  0  0  0  0  0  0  0  0  0  0
  -17.7103  -31.5358   25.1512 C   0  0  0  0  0  0  0  0  0  0  0  0
  -23.5758  -28.7109   25.3448 C   0  0  0  0  0  0  0  0  0  0  0  0
  -25.7185  -30.2571   24.0170 C   0  0  0  0  0  0  0  0  0  0  0  0
  -18.9677  -32.3048   25.5485 C   0  0  0  0  0  0  0  0  0  0  0  0
  -28.4944  -14.0569   18.6019 C   0  0  0  0  0  0  0  0  0  0  0  0
  -19.8845  -32.4881   24.3432 C   0  0  0  0  0  0  0  0  0  0  0  0
  -27.6985  -13.0947   19.4835 C   0  0  0  0  0  0  0  0  0  0  0  0
  -27.1781  -19.6604   17.9343 C   0  0  0  0  0  0  0  0  0  0  0  0
  -28.6443  -20.4829   19.8162 C   0  0  0  0  0  0  0  0  0  0  0  0
  -27.7628  -15.3846   18.3969 C   0  0  0  0  0  0  0  0  0  0  0  0
  -27.8839  -18.3029   18.0008 C   0  0  0  0  0  0  0  0  0  0  0  0
  -29.3377  -19.1234   19.8263 C   0  0  0  0  0  0  0  0  0  0  0  0
  -26.5619  -15.0852   20.5385 C   0  0  0  0  0  0  0  0  0  0  0  0
  -20.3489  -31.1345   23.7923 C   0  0  1  0  0  0  0  0  0  0  0  0
  -23.6486  -30.2315   25.4444 C   0  0  1  0  0  0  0  0  0  0  0  0
  -27.2981  -13.7642   20.8103 C   0  0  1  0  0  0  0  0  0  0  0  0
  -28.0861  -20.7909   18.4244 C   0  0  0  0  0  0  0  0  0  0  0  0
  -29.7390  -27.0917   18.3745 C   0  0  0  0  0  0  0  0  0  0  0  0
  -30.7758  -32.2656   27.6958 C   0  0  0  0  0  0  0  0  0  0  0  0
  -25.5695  -34.2122   24.0936 C   0  0  0  0  0  0  0  0  0  0  0  0
  -27.9654  -34.5301   24.7471 C   0  0  0  0  0  0  0  0  0  0  0  0
  -26.1688  -34.7272   26.4664 C   0  0  0  0  0  0  0  0  0  0  0  0
  -29.2737  -28.7713   27.7925 C   0  0  0  0  0  0  0  0  0  0  0  0
  -26.8028  -26.8528   18.4864 C   0  0  0  0  0  0  0  0  0  0  0  0
  -26.7522  -27.5123   19.8673 C   0  0  0  0  0  0  0  0  0  1  0  0
  -26.7635  -32.4468   25.5509 C   0  0  1  0  0  0  0  0  0  0  0  0
  -29.6556  -31.2372   27.6822 C   0  0  2  0  0  0  0  0  0  0  0  0
  -26.6079  -33.9543   25.2037 C   0  0  0  0  0  0  0  0  0  0  0  0
  -29.2847  -23.3574   18.3851 N   0  0  0  0  0  0  0  0  0  0  0  0
  -25.6754  -11.9316   21.1099 N   0  0  0  0  0  0  0  0  0  0  0  0
  -26.4853  -12.8333   21.6905 N   0  0  0  0  0  0  0  0  0  0  0  0
  -24.9964  -30.7499   25.2016 N   0  0  0  0  0  0  0  0  0  0  0  0
  -27.3659  -15.9647   19.6874 N   0  0  0  0  0  0  0  0  0  0  0  0
  -28.4434  -18.0720   19.3404 N   0  0  0  0  0  0  0  0  0  0  0  0
  -27.2252  -13.6285   23.7954 N   0  0  0  0  0  0  0  0  0  0  0  0
  -24.3240  -10.3430   24.8839 N   0  0  0  0  0  0  0  0  0  0  0  0
  -27.3421  -22.0308   18.4571 N   0  0  0  0  0  0  0  0  0  0  0  0
  -21.4002  -30.5851   24.6214 N   0  0  0  0  0  0  0  0  0  0  0  0
  -27.7207  -32.1750   26.6179 N   0  0  0  0  0  0  0  0  0  0  0  0
  -30.2630  -29.8793   27.7728 N   0  3  0  0  0  0  0  0  0  0  0  0
  -25.7333  -11.9397   25.7343 O   0  0  0  0  0  0  0  0  0  0  0  0
  -23.1993  -31.7020   23.6526 O   0  0  0  0  0  0  0  0  0  0  0  0
  -24.8796  -32.2541   26.9792 O   0  0  0  0  0  0  0  0  0  0  0  0
  -29.0964  -30.7810   25.3764 O   0  0  0  0  0  0  0  0  0  0  0  0
  -28.0253  -17.2774   21.4636 O   0  0  0  0  0  0  0  0  0  0  0  0
  -21.4529   -7.1697   21.3171 O   0  0  0  0  0  0  0  0  0  0  0  0
  -26.2607  -26.5805   20.8223 O   0  0  0  0  0  0  0  0  0  1  0  0
  -22.0430   -2.5772   24.3113 F   0  0  0  0  0  0  0  0  0  0  0  0
  -21.8754   -4.7253   20.0967 F   0  0  0  0  0  0  0  0  0  0  0  0
  1  2  1  0  0  0  0
  1  5  2  0  0  0  0
  2  6  2  0  0  0  0
  3  8  2  0  0  0  0
  3 17  1  0  0  0  0
  4  9  1  0  0  0  0
  4 17  2  0  0  0  0
  5 19  1  0  0  0  0
  6 21  1  0  0  0  0
  7 10  2  0  0  0  0
  7 20  1  0  0  0  0
  8 25  1  0  0  0  0
  9 25  2  0  0  0  0
 10 26  1  0  0  0  0
 11 12  2  0  0  0  0
 11 27  1  0  0  0  0
 12 28  1  0  0  0  0
 13 22  1  0  0  0  0
 13 26  2  0  0  0  0
 14 23  1  0  0  0  0
 14 31  2  0  0  0  0
 15 28  2  0  0  0  0
 15 29  1  0  0  0  0
 16 24  1  0  0  0  0
 16 66  2  0  0  0  0
 17 30  1  0  0  0  0
 18 30  1  0  0  0  0
 18 32  2  0  0  0  0
 18 33  1  0  0  0  0
 19 21  2  0  0  0  0
 19 38  1  0  0  0  0
 20 22  2  0  0  0  0
 20 39  1  0  0  0  0
 21 51  1  0  0  0  0
 22 40  1  0  0  0  0
 23 24  2  0  0  0  0
 23 61  1  0  0  0  0
 24 55  1  0  0  0  0
 25 83  1  0  0  0  0
 26 84  1  0  0  0  0
 27 29  2  0  0  0  0
 27 83  1  0  0  0  0
 28 85  1  0  0  0  0
 29 86  1  0  0  0  0
 30 67  2  0  0  0  0
 31 66  1  0  0  0  0
 31 74  1  0  0  0  0
 32 68  1  0  0  0  0
 32 72  1  0  0  0  0
 33 73  1  0  0  0  0
 33 78  2  0  0  0  0
 34 52  1  0  0  0  0
 34 75  1  0  0  0  0
 34 79  2  0  0  0  0
 35 63  1  0  0  0  0
 35 69  1  0  0  0  0
 35 80  2  0  0  0  0
 36 64  1  0  0  0  0
 36 76  1  0  0  0  0
 36 81  2  0  0  0  0
 37 70  1  0  0  0  0
 37 71  1  0  0  0  0
 37 82  2  0  0  0  0
 38 41  1  0  0  0  0
 39 52  1  0  0  0  0
 40 69  1  0  0  0  0
 41 43  1  0  0  0  0
 42 44  1  0  0  0  0
 42 47  1  0  0  0  0
 43 51  1  0  0  0  0
 44 53  1  0  0  0  0
 45 48  1  0  0  0  0
 45 54  1  0  0  0  0
 46 49  1  0  0  0  0
 46 54  1  0  0  0  0
 47 70  1  0  0  0  0
 48 71  1  0  0  0  0
 49 71  1  0  0  0  0
 50 53  1  0  0  0  0
 50 70  1  0  0  0  0
 51 75  1  0  0  0  0
 52 69  1  0  0  0  0
 53 68  1  0  0  0  0
 54 74  1  0  0  0  0
 56 64  1  0  0  0  0
 57 65  1  0  0  0  0
 58 65  1  0  0  0  0
 59 65  1  0  0  0  0
 60 77  1  0  0  0  0
 61 62  1  0  0  0  0
 62 84  1  0  0  0  0
 63 65  1  0  0  0  0
 63 76  1  0  0  0  0
 64 77  1  0  0  0  0
 67 68  1  0  0  0  0
M  CHG  1  77   1
M  ISO  4  37 100  62 101  71 100  84 101
M  END
> <Batch ID>
0164

> <Smiles>
CNC(C)C(=O)NC(C(=O)N1Cc2cc([101O:1][101CH2:1]Cc3cc(NC4CC[100N:0]([100C:0](=O)N5CCCC(n6nc(-c7ccc(Oc8ccc(F)cc8F)cc7)c(C(N)=O)c6N)C5)CC4)ncc3C)ccc2CC1C(=O)NC1CCCc2ccccc21)C(C)(C)C

> <Shape>
0.303

> <Color>
0.099

> <Negative vol penalty>
0.000

$$$$

  -OEChem-04052322193D

 86 95  0     1  0  0  0  0  0999 V2000
  -20.9238  -30.8255   24.1788 C   0  0  0  0  0  0  0  0  0  0  0  0
  -22.0688  -30.0911   23.8871 C   0  0  0  0  0  0  0  0  0  0  0  0
  -25.9928  -13.7309   19.5945 C   0  0  0  0  0  0  0  0  0  0  0  0
  -25.0832  -13.5610   21.8263 C   0  0  0  0  0  0  0  0  0  0  0  0
  -19.6682  -30.3177   23.8480 C   0  0  0  0  0  0  0  0  0  0  0  0
  -21.9586  -28.8478   23.2654 C   0  0  0  0  0  0  0  0  0  0  0  0
  -25.2971  -28.2541   19.5041 C   0  0  0  0  0  0  0  0  0  0  0  0
  -25.9233  -12.3442   19.4606 C   0  0  0  0  0  0  0  0  0  0  0  0
  -25.0136  -12.1743   21.6924 C   0  0  0  0  0  0  0  0  0  0  0  0
  -26.6106  -27.9515   19.8605 C   0  0  0  0  0  0  0  0  0  0  0  0
  -24.2593   -8.6195   21.8035 C   0  0  0  0  0  0  0  0  0  0  0  0
  -23.0912   -7.9843   22.2249 C   0  0  0  0  0  0  0  0  0  0  0  0
  -26.2018  -25.6255   19.3688 C   0  0  0  0  0  0  0  0  0  0  0  0
  -21.8139   -9.2774   20.6332 C   0  0  0  0  0  0  0  0  0  0  0  0
  -25.5728  -14.3393   20.7774 C   0  0  0  0  0  0  0  0  0  0  0  0
  -24.6496  -16.7094   20.5824 C   0  0  0  0  0  0  0  0  0  0  0  0
  -19.5432  -29.0719   23.2133 C   0  0  0  0  0  0  0  0  0  0  0  0
  -24.4214  -27.2413   19.0872 C   0  0  0  0  0  0  0  0  0  0  0  0
  -20.7001  -28.3222   22.9271 C   0  0  0  0  0  0  0  0  0  0  0  0
  -24.8784  -25.9182   19.0052 C   0  0  0  0  0  0  0  0  0  0  0  0
  -33.2280  -22.9638   22.4122 C   0  0  0  0  0  0  0  0  0  0  0  0
  -32.2117  -23.6435   21.7174 C   0  0  0  0  0  0  0  0  0  0  0  0
  -34.1645  -23.6945   23.1571 C   0  0  0  0  0  0  0  0  0  0  0  0
  -32.1717  -25.0448   21.7539 C   0  0  0  0  0  0  0  0  0  0  0  0
  -34.1092  -25.0873   23.1923 C   0  0  0  0  0  0  0  0  0  0  0  0
  -33.1150  -25.7622   22.4891 C   0  0  0  0  0  0  0  0  0  0  0  0
  -25.4337  -11.5660   20.5095 C   0  0  0  0  0  0  0  0  0  0  0  0
  -27.0623  -26.6366   19.7956 C   0  0  0  0  0  0  0  0  0  0  0  0
  -24.2047   -9.5837   20.7969 C   0  0  0  0  0  0  0  0  0  0  0  0
  -21.8685   -8.3132   21.6398 C   0  0  0  0  0  0  0  0  0  0  0  0
  -22.9820   -9.9126   20.2118 C   0  0  0  0  0  0  0  0  0  0  0  0
  -25.6450  -15.7716   20.9166 C   0  0  0  0  0  0  0  0  0  0  0  0
  -25.2026  -17.9255   20.9013 C   0  0  0  0  0  0  0  0  0  0  0  0
  -23.3419  -16.4999   20.0330 C   0  0  0  0  0  0  0  0  0  0  0  0
  -21.6783  -26.0595   20.1746 C   0  0  0  0  0  0  0  0  0  0  0  0
  -21.7709  -24.3523   17.4179 C   0  0  0  0  0  0  0  0  0  0  0  0
  -23.6460  -23.0197   14.8970 C   0  0  0  0  0  0  0  0  0  0  0  0
  -30.0248  -20.7319   20.7882 C   0  0  0  0  0  0  0  0  0  0  0  0
  -18.1620  -28.5430   22.9178 C   0  0  0  0  0  0  0  0  0  0  0  0
  -23.0154  -27.5881   18.6806 C   0  0  0  0  0  0  0  0  0  0  0  0
  -33.2916  -21.4580   22.4117 C   0  0  0  0  0  0  0  0  0  0  0  0
  -23.9840  -24.7974   18.5446 C   0  0  0  0  0  0  0  0  0  0  0  0
  -31.1871  -22.9007   20.8997 C   0  0  0  0  0  0  0  0  0  0  0  0
  -18.1529  -27.3860   21.9221 C   0  0  0  0  0  0  0  0  0  0  0  0
  -28.8650  -19.4351   23.8457 C   0  0  0  0  0  0  0  0  0  0  0  0
  -19.2218  -26.3603   22.2858 C   0  0  0  0  0  0  0  0  0  0  0  0
  -27.8098  -18.4364   23.3717 C   0  0  0  0  0  0  0  0  0  0  0  0
  -32.5048  -20.8422   21.2595 C   0  0  0  0  0  0  0  0  0  0  0  0
  -30.1084  -19.4215   22.9548 C   0  0  0  0  0  0  0  0  0  0  0  0
  -28.7622  -18.6167   21.0423 C   0  0  0  0  0  0  0  0  0  0  0  0
  -20.6230  -26.9807   22.2309 C   0  0  1  0  0  0  0  0  0  0  0  0
  -22.0600  -26.4015   18.7621 C   0  0  1  0  0  0  0  0  0  0  0  0
  -27.4774  -18.6500   21.8844 C   0  0  1  0  0  0  0  0  0  0  0  0
  -35.2449  -22.9904   23.9200 C   0  0  0  0  0  0  0  0  0  0  0  0
  -35.1186  -25.8585   23.9835 C   0  0  0  0  0  0  0  0  0  0  0  0
  -33.0605  -27.2572   22.5215 C   0  0  0  0  0  0  0  0  0  0  0  0
  -23.4448  -21.6445   12.8076 C   0  0  0  0  0  0  0  0  0  0  0  0
  -21.4163  -21.8380   19.1098 C   0  0  0  0  0  0  0  0  0  0  0  0
  -22.1660  -20.4896   17.1380 C   0  0  0  0  0  0  0  0  0  0  0  0
  -20.0898  -21.8645   16.9898 C   0  0  0  0  0  0  0  0  0  0  0  0
  -24.7246  -25.2041   13.2166 C   0  0  0  0  0  0  0  0  0  0  0  0
  -31.1087  -25.7925   21.0072 C   0  0  0  0  0  0  0  0  0  0  0  0
  -29.9857  -26.3388   21.8980 C   0  0  0  0  0  0  0  0  0  0  0  0
  -28.9581  -27.1633   21.1314 C   0  0  0  0  0  0  0  0  0  1  0  0
  -22.3405  -23.0162   17.0065 C   0  0  1  0  0  0  0  0  0  0  0  0
  -23.4731  -23.0494   13.3891 C   0  0  2  0  0  0  0  0  0  0  0  0
  -21.5197  -21.8227   17.5716 C   0  0  0  0  0  0  0  0  0  0  0  0
  -26.7469  -16.3430   21.4098 N   0  0  0  0  0  0  0  0  0  0  0  0
  -26.4473  -17.6529   21.3878 N   0  0  0  0  0  0  0  0  0  0  0  0
  -22.6160  -25.1861   18.1639 N   0  0  0  0  0  0  0  0  0  0  0  0
  -31.1782  -21.4562   21.1353 N   0  0  0  0  0  0  0  0  0  0  0  0
  -29.7407  -19.5847   21.5426 N   0  0  0  0  0  0  0  0  0  0  0  0
  -24.7409  -19.1907   20.8102 N   0  0  0  0  0  0  0  0  0  0  0  0
  -22.9322  -15.1866   19.7653 N   0  0  0  0  0  0  0  0  0  0  0  0
  -21.0719  -27.0950   20.8598 N   0  0  0  0  0  0  0  0  0  0  0  0
  -22.4321  -23.0423   15.5507 N   0  0  0  0  0  0  0  0  0  0  0  0
  -24.5940  -23.7985   12.7539 N   0  3  0  0  0  0  0  0  0  0  0  0
  -22.5662  -17.4504   19.7715 O   0  0  0  0  0  0  0  0  0  0  0  0
  -21.9150  -24.9388   20.6099 O   0  0  0  0  0  0  0  0  0  0  0  0
  -20.6211  -24.6484   17.0834 O   0  0  0  0  0  0  0  0  0  0  0  0
  -24.7475  -22.9767   15.4405 O   0  0  0  0  0  0  0  0  0  0  0  0
  -29.2944  -21.0915   19.8560 O   0  0  0  0  0  0  0  0  0  0  0  0
  -25.3654  -10.2129   20.3791 O   0  0  0  0  0  0  0  0  0  0  0  0
  -28.3527  -26.3364   20.1459 O   0  0  0  0  0  0  0  0  0  1  0  0
  -20.7471   -7.7020   22.0435 F   0  0  0  0  0  0  0  0  0  0  0  0
  -22.9234  -10.8372   19.2436 F   0  0  0  0  0  0  0  0  0  0  0  0
  1  2  1  0  0  0  0
  1  5  2  0  0  0  0
  2  6  2  0  0  0  0
  3  8  2  0  0  0  0
  3 15  1  0  0  0  0
  4  9  1  0  0  0  0
  4 15  2  0  0  0  0
  5 17  1  0  0  0  0
  6 19  1  0  0  0  0
  7 10  2  0  0  0  0
  7 18  1  0  0  0  0
  8 27  1  0  0  0  0
  9 27  2  0  0  0  0
 10 28  1  0  0  0  0
 11 12  2  0  0  0  0
 11 29  1  0  0  0  0
 12 30  1  0  0  0  0
 13 20  1  0  0  0  0
 13 28  2  0  0  0  0
 14 30  2  0  0  0  0
 14 31  1  0  0  0  0
 15 32  1  0  0  0  0
 16 32  1  0  0  0  0
 16 33  2  0  0  0  0
 16 34  1  0  0  0  0
 17 19  2  0  0  0  0
 17 39  1  0  0  0  0
 18 20  2  0  0  0  0
 18 40  1  0  0  0  0
 19 51  1  0  0  0  0
 20 42  1  0  0  0  0
 21 22  1  0  0  0  0
 21 23  2  0  0  0  0
 21 41  1  0  0  0  0
 22 24  2  0  0  0  0
 22 43  1  0  0  0  0
 23 25  1  0  0  0  0
 23 54  1  0  0  0  0
 24 26  1  0  0  0  0
 24 62  1  0  0  0  0
 25 26  2  0  0  0  0
 25 55  1  0  0  0  0
 26 56  1  0  0  0  0
 27 83  1  0  0  0  0
 28 84  1  0  0  0  0
 29 31  2  0  0  0  0
 29 83  1  0  0  0  0
 30 85  1  0  0  0  0
 31 86  1  0  0  0  0
 32 68  2  0  0  0  0
 33 69  1  0  0  0  0
 33 73  1  0  0  0  0
 34 74  1  0  0  0  0
 34 78  2  0  0  0  0
 35 52  1  0  0  0  0
 35 75  1  0  0  0  0
 35 79  2  0  0  0  0
 36 65  1  0  0  0  0
 36 70  1  0  0  0  0
 36 80  2  0  0  0  0
 37 66  1  0  0  0  0
 37 76  1  0  0  0  0
 37 81  2  0  0  0  0
 38 71  1  0  0  0  0
 38 72  1  0  0  0  0
 38 82  2  0  0  0  0
 39 44  1  0  0  0  0
 40 52  1  0  0  0  0
 41 48  1  0  0  0  0
 42 70  1  0  0  0  0
 43 71  1  0  0  0  0
 44 46  1  0  0  0  0
 45 47  1  0  0  0  0
 45 49  1  0  0  0  0
 46 51  1  0  0  0  0
 47 53  1  0  0  0  0
 48 71  1  0  0  0  0
 49 72  1  0  0  0  0
 50 53  1  0  0  0  0
 50 72  1  0  0  0  0
 51 75  1  0  0  0  0
 52 70  1  0  0  0  0
 53 69  1  0  0  0  0
 57 66  1  0  0  0  0
 58 67  1  0  0  0  0
 59 67  1  0  0  0  0
 60 67  1  0  0  0  0
 61 77  1  0  0  0  0
 62 63  1  0  0  0  0
 63 64  1  0  0  0  0
 64 84  1  0  0  0  0
 65 67  1  0  0  0  0
 65 76  1  0  0  0  0
 66 77  1  0  0  0  0
 68 69  1  0  0  0  0
M  CHG  1  77   1
M  ISO  4  38 100  64 101  71 100  84 101
M  END
> <Batch ID>
0164

> <Smiles>
CNC(C)C(=O)NC(C(=O)N1Cc2cc([101O:1][101CH2:1]CCc3c(C)c(C)c(C)c4c3C[100N:0]([100C:0](=O)N3CCCC(n5nc(-c6ccc(Oc7ccc(F)cc7F)cc6)c(C(N)=O)c5N)C3)CC4)ccc2CC1C(=O)NC1CCCc2ccccc21)C(C)(C)C

> <Shape>
0.208

> <Color>
0.089

> <Negative vol penalty>
0.000

$$$$

  -OEChem-04052322193D

 91100  0     1  0  0  0  0  0999 V2000
  -18.1239  -24.1865   22.8092 C   0  0  0  0  0  0  0  0  0  0  0  0
  -19.4655  -24.0743   22.4587 C   0  0  0  0  0  0  0  0  0  0  0  0
  -23.8516   -9.5438   22.5530 C   0  0  0  0  0  0  0  0  0  0  0  0
  -23.7093   -9.5406   20.1412 C   0  0  0  0  0  0  0  0  0  0  0  0
  -17.5826  -25.4382   23.0993 C   0  0  0  0  0  0  0  0  0  0  0  0
  -20.2665  -25.2141   22.3971 C   0  0  0  0  0  0  0  0  0  0  0  0
  -24.7770  -24.5402   24.5986 C   0  0  0  0  0  0  0  0  0  0  0  0
  -22.8580   -8.5667   22.6130 C   0  0  0  0  0  0  0  0  0  0  0  0
  -22.7157   -8.5635   20.2011 C   0  0  0  0  0  0  0  0  0  0  0  0
  -25.7386  -23.8343   23.8770 C   0  0  0  0  0  0  0  0  0  0  0  0
  -22.6253   -5.2210   22.1823 C   0  0  0  0  0  0  0  0  0  0  0  0
  -22.8267   -4.1438   23.0451 C   0  0  0  0  0  0  0  0  0  0  0  0
  -26.7763  -25.9154   23.2355 C   0  0  0  0  0  0  0  0  0  0  0  0
  -20.8168   -4.7327   24.2495 C   0  0  0  0  0  0  0  0  0  0  0  0
  -24.2773  -10.0308   21.3172 C   0  0  0  0  0  0  0  0  0  0  0  0
  -26.6936  -10.8358   21.1727 C   0  0  0  0  0  0  0  0  0  0  0  0
  -18.3797  -26.5927   23.0506 C   0  0  0  0  0  0  0  0  0  0  0  0
  -24.8014  -25.9418   24.6352 C   0  0  0  0  0  0  0  0  0  0  0  0
  -19.7351  -26.4826   22.6855 C   0  0  0  0  0  0  0  0  0  0  0  0
  -25.8153  -26.6366   23.9604 C   0  0  0  0  0  0  0  0  0  0  0  0
  -27.9574  -20.5692   18.3056 C   0  0  0  0  0  0  0  0  0  0  0  0
  -27.1237  -19.8717   17.4315 C   0  0  0  0  0  0  0  0  0  0  0  0
  -28.1952  -17.8003   18.0626 C   0  0  0  0  0  0  0  0  0  0  0  0
  -27.2426  -18.4873   17.3101 C   0  0  0  0  0  0  0  0  0  0  0  0
  -29.0290  -18.4978   18.9366 C   0  0  0  0  0  0  0  0  0  0  0  0
  -22.2901   -8.0765   21.4370 C   0  0  0  0  0  0  0  0  0  0  0  0
  -26.7367  -24.5219   23.1929 C   0  0  0  0  0  0  0  0  0  0  0  0
  -21.5197   -6.0542   22.3531 C   0  0  0  0  0  0  0  0  0  0  0  0
  -28.9101  -19.8823   19.0581 C   0  0  0  0  0  0  0  0  0  0  0  0
  -21.9224   -3.8996   24.0787 C   0  0  0  0  0  0  0  0  0  0  0  0
  -20.6154   -5.8100   23.3867 C   0  0  0  0  0  0  0  0  0  0  0  0
  -25.3032  -11.0406   21.2547 C   0  0  0  0  0  0  0  0  0  0  0  0
  -27.2256  -12.1016   21.1388 C   0  0  0  0  0  0  0  0  0  0  0  0
  -27.4377   -9.6110   21.1309 C   0  0  0  0  0  0  0  0  0  0  0  0
  -22.8196  -28.2450   23.7017 C   0  0  0  0  0  0  0  0  0  0  0  0
  -24.9783  -30.1647   25.1771 C   0  0  0  0  0  0  0  0  0  0  0  0
  -28.1793  -30.6218   26.2685 C   0  0  0  0  0  0  0  0  0  0  0  0
  -25.0373  -17.3993   19.4076 C   0  0  0  0  0  0  0  0  0  0  0  0
  -17.7385  -27.9297   23.3264 C   0  0  0  0  0  0  0  0  0  0  0  0
  -23.7727  -26.6876   25.4401 C   0  0  0  0  0  0  0  0  0  0  0  0
  -25.8978  -28.1403   23.9847 C   0  0  0  0  0  0  0  0  0  0  0  0
  -18.7458  -29.0428   23.6028 C   0  0  0  0  0  0  0  0  0  0  0  0
  -26.3544  -16.5702   22.6099 C   0  0  0  0  0  0  0  0  0  0  0  0
  -19.8685  -29.0153   22.5704 C   0  0  0  0  0  0  0  0  0  0  0  0
  -26.3598  -15.0405   22.6183 C   0  0  0  0  0  0  0  0  0  0  0  0
  -27.4674  -22.5470   19.8666 C   0  0  0  0  0  0  0  0  0  0  0  0
  -29.1631  -24.0167   19.0236 C   0  0  0  0  0  0  0  0  0  0  0  0
  -25.1412  -17.1262   21.8675 C   0  0  0  0  0  0  0  0  0  0  0  0
  -24.9679  -15.0789   20.5064 C   0  0  0  0  0  0  0  0  0  0  0  0
  -27.8340  -22.0722   18.4418 C   0  0  1  0  0  0  0  0  0  0  0  0
  -20.6421  -27.6928   22.6318 C   0  0  1  0  0  0  0  0  0  0  0  0
  -23.5913  -28.1327   24.9860 C   0  0  1  0  0  0  0  0  0  0  0  0
  -28.6347  -23.4250   20.3265 C   0  0  1  0  0  0  0  0  0  0  0  0
  -29.1439  -22.8135   18.0805 C   0  0  1  0  0  0  0  0  0  0  0  0
  -26.2018  -14.4714   21.1955 C   0  0  2  0  0  0  0  0  0  0  0  0
  -26.1031  -20.6093   16.6233 C   0  0  0  0  0  0  0  0  0  0  0  0
  -28.3236  -16.3155   17.9327 C   0  0  0  0  0  0  0  0  0  0  0  0
  -30.0530  -17.7671   19.7461 C   0  0  0  0  0  0  0  0  0  0  0  0
  -29.2189  -23.2186   16.6148 C   0  0  0  0  0  0  0  0  0  0  0  0
  -29.6520  -32.3075   27.4030 C   0  0  0  0  0  0  0  0  0  0  0  0
  -25.1406  -31.7646   22.5840 C   0  0  0  0  0  0  0  0  0  0  0  0
  -27.2560  -32.7980   23.4356 C   0  0  0  0  0  0  0  0  0  0  0  0
  -25.1145  -33.1510   24.6652 C   0  0  0  0  0  0  0  0  0  0  0  0
  -28.7106  -28.8009   28.5403 C   0  0  0  0  0  0  0  0  0  0  0  0
  -31.1282  -20.4768   19.6765 C   0  0  0  0  0  0  0  0  0  0  0  0
  -26.3469  -17.7386   16.3740 C   0  0  0  0  0  0  0  0  0  0  0  0
  -28.2268  -24.4807   21.3398 C   0  0  0  0  0  0  0  0  0  1  0  0
  -24.9385  -17.5101   16.9303 C   0  0  0  0  0  0  0  0  0  0  0  0
  -26.2344  -30.8859   24.7514 C   0  0  1  0  0  0  0  0  0  0  0  0
  -28.7309  -31.1127   27.5949 C   0  0  2  0  0  0  0  0  0  0  0  0
  -25.9339  -32.1216   23.8568 C   0  0  0  0  0  0  0  0  0  0  0  0
  -24.9727  -12.3346   21.2720 N   0  0  0  0  0  0  0  0  0  0  0  0
  -26.1630  -12.9544   21.2005 N   0  0  0  0  0  0  0  0  0  0  0  0
  -24.8653  -28.8247   24.7805 N   0  0  0  0  0  0  0  0  0  0  0  0
  -25.0499  -16.5479   20.5247 N   0  0  0  0  0  0  0  0  0  0  0  0
  -28.4941  -12.5573   21.0627 N   0  0  0  0  0  0  0  0  0  0  0  0
  -26.7338   -8.3998   21.1747 N   0  0  0  0  0  0  0  0  0  0  0  0
  -21.5542  -27.6924   23.7555 N   0  0  0  0  0  0  0  0  0  0  0  0
  -26.9611  -31.1983   25.9772 N   0  0  0  0  0  0  0  0  0  0  0  0
  -24.9551  -16.7692   18.1719 N   0  0  0  0  0  0  0  0  0  0  0  0
  -29.5009  -30.0291   28.2686 N   0  3  0  0  0  0  0  0  0  0  0  0
  -28.6906   -9.5912   21.0733 O   0  0  0  0  0  0  0  0  0  0  0  0
  -23.3335  -28.7937   22.7340 O   0  0  0  0  0  0  0  0  0  0  0  0
  -24.1320  -30.7661   25.8432 O   0  0  0  0  0  0  0  0  0  0  0  0
  -28.7718  -29.8111   25.5598 O   0  0  0  0  0  0  0  0  0  0  0  0
  -25.1005  -18.6296   19.5041 O   0  0  0  0  0  0  0  0  0  0  0  0
  -21.3207   -7.1229   21.4951 O   0  0  0  0  0  0  0  0  0  0  0  0
  -29.7255  -20.5642   19.9135 O   0  0  0  0  0  0  0  0  0  0  0  0
  -27.6761  -23.8353   22.4873 O   0  0  0  0  0  0  0  0  0  1  0  0
  -22.1151   -2.8641   24.9063 F   0  0  0  0  0  0  0  0  0  0  0  0
  -19.5507   -6.6062   23.5550 F   0  0  0  0  0  0  0  0  0  0  0  0
  1  2  1  0  0  0  0
  1  5  2  0  0  0  0
  2  6  2  0  0  0  0
  3  8  2  0  0  0  0
  3 15  1  0  0  0  0
  4  9  1  0  0  0  0
  4 15  2  0  0  0  0
  5 17  1  0  0  0  0
  6 19  1  0  0  0  0
  7 10  2  0  0  0  0
  7 18  1  0  0  0  0
  8 26  1  0  0  0  0
  9 26  2  0  0  0  0
 10 27  1  0  0  0  0
 11 12  2  0  0  0  0
 11 28  1  0  0  0  0
 12 30  1  0  0  0  0
 13 20  1  0  0  0  0
 13 27  2  0  0  0  0
 14 30  2  0  0  0  0
 14 31  1  0  0  0  0
 15 32  1  0  0  0  0
 16 32  1  0  0  0  0
 16 33  2  0  0  0  0
 16 34  1  0  0  0  0
 17 19  2  0  0  0  0
 17 39  1  0  0  0  0
 18 20  2  0  0  0  0
 18 40  1  0  0  0  0
 19 51  1  0  0  0  0
 20 41  1  0  0  0  0
 21 22  1  0  0  0  0
 21 29  2  0  0  0  0
 21 50  1  0  0  0  0
 22 24  2  0  0  0  0
 22 56  1  0  0  0  0
 23 24  1  0  0  0  0
 23 25  2  0  0  0  0
 23 57  1  0  0  0  0
 24 66  1  0  0  0  0
 25 29  1  0  0  0  0
 25 58  1  0  0  0  0
 26 87  1  0  0  0  0
 27 89  1  0  0  0  0
 28 31  2  0  0  0  0
 28 87  1  0  0  0  0
 29 88  1  0  0  0  0
 30 90  1  0  0  0  0
 31 91  1  0  0  0  0
 32 72  2  0  0  0  0
 33 73  1  0  0  0  0
 33 76  1  0  0  0  0
 34 77  1  0  0  0  0
 34 82  2  0  0  0  0
 35 52  1  0  0  0  0
 35 78  1  0  0  0  0
 35 83  2  0  0  0  0
 36 69  1  0  0  0  0
 36 74  1  0  0  0  0
 36 84  2  0  0  0  0
 37 70  1  0  0  0  0
 37 79  1  0  0  0  0
 37 85  2  0  0  0  0
 38 75  1  0  0  0  0
 38 80  1  0  0  0  0
 38 86  2  0  0  0  0
 39 42  1  0  0  0  0
 40 52  1  0  0  0  0
 41 74  1  0  0  0  0
 42 44  1  0  0  0  0
 43 45  1  0  0  0  0
 43 48  1  0  0  0  0
 44 51  1  0  0  0  0
 45 55  1  0  0  0  0
 46 50  1  0  0  0  0
 46 53  1  0  0  0  0
 47 53  1  0  0  0  0
 47 54  1  0  0  0  0
 48 75  1  0  0  0  0
 49 55  1  0  0  0  0
 49 75  1  0  0  0  0
 50 54  1  0  0  0  0
 51 78  1  0  0  0  0
 52 74  1  0  0  0  0
 53 67  1  0  0  0  0
 54 59  1  0  0  0  0
 55 73  1  0  0  0  0
 60 70  1  0  0  0  0
 61 71  1  0  0  0  0
 62 71  1  0  0  0  0
 63 71  1  0  0  0  0
 64 81  1  0  0  0  0
 65 88  1  0  0  0  0
 66 68  1  0  0  0  0
 67 89  1  0  0  0  0
 68 80  1  0  0  0  0
 69 71  1  0  0  0  0
 69 79  1  0  0  0  0
 70 81  1  0  0  0  0
 72 73  1  0  0  0  0
M  CHG  1  81   1
M  ISO  4  38 100  67 101  80 100  89 101
M  END
> <Batch ID>
0164

> <Smiles>
CNC(C)C(=O)NC(C(=O)N1Cc2cc([101O:1][101CH2:1]C3CC(C)C(c4c(C)c(CC[100NH:0][100C:0](=O)N5CCCC(n6nc(-c7ccc(Oc8ccc(F)cc8F)cc7)c(C(N)=O)c6N)C5)c(C)c(C)c4OC)C3)ccc2CC1C(=O)NC1CCCc2ccccc21)C(C)(C)C

> <Shape>
0.287

> <Color>
0.106

> <Negative vol penalty>
0.000

$$$$

  -OEChem-04052322193D

 87 96  0     1  0  0  0  0  0999 V2000
  -17.2911  -31.7731   23.0994 C   0  0  0  0  0  0  0  0  0  0  0  0
  -18.5289  -32.2317   22.6603 C   0  0  0  0  0  0  0  0  0  0  0  0
  -25.9537  -15.1772   20.4679 C   0  0  0  0  0  0  0  0  0  0  0  0
  -27.9508  -14.4140   21.5931 C   0  0  0  0  0  0  0  0  0  0  0  0
  -17.1933  -30.5381   23.7391 C   0  0  0  0  0  0  0  0  0  0  0  0
  -19.6700  -31.4560   22.8616 C   0  0  0  0  0  0  0  0  0  0  0  0
  -25.9693  -29.8992   19.8265 C   0  0  0  0  0  0  0  0  0  0  0  0
  -25.5493  -13.8544   20.2884 C   0  0  0  0  0  0  0  0  0  0  0  0
  -27.5464  -13.0911   21.4137 C   0  0  0  0  0  0  0  0  0  0  0  0
  -27.3298  -29.8596   20.1285 C   0  0  0  0  0  0  0  0  0  0  0  0
  -24.1160  -11.4148   22.1396 C   0  0  0  0  0  0  0  0  0  0  0  0
  -22.7855  -11.1005   22.4161 C   0  0  0  0  0  0  0  0  0  0  0  0
  -27.0287  -27.7069   21.1747 C   0  0  0  0  0  0  0  0  0  0  0  0
  -22.4825  -10.3738   20.1319 C   0  0  0  0  0  0  0  0  0  0  0  0
  -27.1545  -15.4570   21.1203 C   0  0  0  0  0  0  0  0  0  0  0  0
  -27.2787  -17.6619   22.3972 C   0  0  0  0  0  0  0  0  0  0  0  0
  -18.3324  -29.7425   23.9398 C   0  0  0  0  0  0  0  0  0  0  0  0
  -25.1249  -28.8462   20.2066 C   0  0  0  0  0  0  0  0  0  0  0  0
  -19.5877  -30.2098   23.5058 C   0  0  0  0  0  0  0  0  0  0  0  0
  -25.6583  -27.7344   20.8741 C   0  0  0  0  0  0  0  0  0  0  0  0
  -30.3018  -25.6810   15.2723 C   0  0  0  0  0  0  0  0  0  0  0  0
  -31.2276  -26.3398   14.4711 C   0  0  0  0  0  0  0  0  0  0  0  0
  -30.3811  -25.7964   16.6557 C   0  0  0  0  0  0  0  0  0  0  0  0
  -26.3456  -12.8114   20.7613 C   0  0  0  0  0  0  0  0  0  0  0  0
  -27.8592  -28.7646   20.8052 C   0  0  0  0  0  0  0  0  0  0  0  0
  -24.6298  -11.2087   20.8592 C   0  0  0  0  0  0  0  0  0  0  0  0
  -21.9687  -10.5800   21.4123 C   0  0  0  0  0  0  0  0  0  0  0  0
  -23.8130  -10.6882   19.8554 C   0  0  0  0  0  0  0  0  0  0  0  0
  -27.5731  -16.8232   21.3055 C   0  0  0  0  0  0  0  0  0  0  0  0
  -32.2057  -27.0956   15.0972 C   0  0  0  0  0  0  0  0  0  0  0  0
  -31.3972  -26.5764   17.1840 C   0  0  0  0  0  0  0  0  0  0  0  0
  -27.9024  -18.8482   22.0967 C   0  0  0  0  0  0  0  0  0  0  0  0
  -26.5104  -17.3927   23.5774 C   0  0  0  0  0  0  0  0  0  0  0  0
  -22.5938  -28.5761   22.1104 C   0  0  0  0  0  0  0  0  0  0  0  0
  -22.5150  -25.5561   20.9289 C   0  0  0  0  0  0  0  0  0  0  0  0
  -24.2046  -22.9620   19.4925 C   0  0  0  0  0  0  0  0  0  0  0  0
  -28.9028  -22.8455   18.4400 C   0  0  0  0  0  0  0  0  0  0  0  0
  -18.1843  -28.4359   24.6784 C   0  0  0  0  0  0  0  0  0  0  0  0
  -23.6644  -28.8920   19.8499 C   0  0  0  0  0  0  0  0  0  0  0  0
  -24.7980  -26.5689   21.2862 C   0  0  0  0  0  0  0  0  0  0  0  0
  -19.3847  -27.5065   24.5186 C   0  0  0  0  0  0  0  0  0  0  0  0
  -31.2564  -20.0052   18.5162 C   0  0  0  0  0  0  0  0  0  0  0  0
  -20.6860  -28.2743   24.7279 C   0  0  0  0  0  0  0  0  0  0  0  0
  -30.4477  -18.9751   19.2991 C   0  0  0  0  0  0  0  0  0  0  0  0
  -31.9882  -26.2148   20.8054 C   0  0  0  0  0  0  0  0  0  0  0  0
  -30.3664  -20.8926   17.6469 C   0  0  0  0  0  0  0  0  0  0  0  0
  -31.6792  -25.5639   19.4589 C   0  0  0  0  0  0  0  0  0  0  0  0
  -31.4050  -27.9630   19.2754 C   0  0  0  0  0  0  0  0  0  0  0  0
  -28.4607  -20.5291   19.1898 C   0  0  0  0  0  0  0  0  0  0  0  0
  -20.8446  -29.3861   23.6837 C   0  0  1  0  0  0  0  0  0  0  0  0
  -22.8039  -27.9994   20.7389 C   0  0  1  0  0  0  0  0  0  0  0  0
  -31.2623  -27.5581   20.7487 C   0  0  1  0  0  0  0  0  0  0  0  0
  -29.3344  -19.6595   20.1068 C   0  0  1  0  0  0  0  0  0  0  0  0
  -29.2247  -24.8526   14.6475 C   0  0  0  0  0  0  0  0  0  0  0  0
  -31.1682  -26.2359   12.9838 C   0  0  0  0  0  0  0  0  0  0  0  0
  -33.2280  -27.8258   14.2891 C   0  0  0  0  0  0  0  0  0  0  0  0
  -23.8811  -20.6104   18.6787 C   0  0  0  0  0  0  0  0  0  0  0  0
  -22.5057  -24.5617   23.8135 C   0  0  0  0  0  0  0  0  0  0  0  0
  -23.1362  -22.2939   22.9604 C   0  0  0  0  0  0  0  0  0  0  0  0
  -20.9687  -23.3230   22.2781 C   0  0  0  0  0  0  0  0  0  0  0  0
  -24.9556  -23.6932   16.7248 C   0  0  0  0  0  0  0  0  0  0  0  0
  -29.3976  -25.0967   17.5347 C   0  0  0  0  0  0  0  0  0  0  0  0
  -29.7980  -27.4359   21.1678 C   0  0  0  0  0  0  0  0  0  1  0  0
  -23.1271  -24.2353   21.3289 C   0  0  1  0  0  0  0  0  0  0  0  0
  -23.8754  -22.0831   18.2994 C   0  0  2  0  0  0  0  0  0  0  0  0
  -22.4505  -23.6262   22.5893 C   0  0  0  0  0  0  0  0  0  0  0  0
  -28.3251  -17.4257   20.3805 N   0  0  0  0  0  0  0  0  0  0  0  0
  -32.3147  -27.2314   16.4378 N   0  0  0  0  0  0  0  0  0  0  0  0
  -28.5085  -18.6556   20.8902 N   0  0  0  0  0  0  0  0  0  0  0  0
  -31.4838  -26.6934   18.5555 N   0  0  3  0  0  0  0  0  0  0  0  0
  -23.3751  -26.6634   20.9203 N   0  0  0  0  0  0  0  0  0  0  0  0
  -29.2693  -21.4876   18.4262 N   0  0  0  0  0  0  0  0  0  0  0  0
  -27.9859  -20.0269   22.7495 N   0  0  0  0  0  0  0  0  0  0  0  0
  -25.9393  -16.1216   23.7273 N   0  0  0  0  0  0  0  0  0  0  0  0
  -21.2708  -28.8321   22.4164 N   0  0  0  0  0  0  0  0  0  0  0  0
  -23.0660  -23.3825   20.1468 N   0  0  0  0  0  0  0  0  0  0  0  0
  -29.6582  -23.6851   17.6291 N   0  0  0  0  0  0  0  0  0  0  0  0
  -24.8721  -22.2920   17.2114 N   0  3  0  0  0  0  0  0  0  0  0  0
  -26.3218  -18.2590   24.4647 O   0  0  0  0  0  0  0  0  0  0  0  0
  -23.5602  -28.7727   22.8377 O   0  0  0  0  0  0  0  0  0  0  0  0
  -21.3196  -25.6022   20.6280 O   0  0  0  0  0  0  0  0  0  0  0  0
  -25.3567  -23.2442   19.8143 O   0  0  0  0  0  0  0  0  0  0  0  0
  -27.9668  -23.2798   19.1204 O   0  0  0  0  0  0  0  0  0  0  0  0
  -25.9512  -11.5205   20.5865 O   0  0  0  0  0  0  0  0  0  0  0  0
  -29.1867  -28.7237   21.1017 O   0  0  0  0  0  0  0  0  0  1  0  0
  -20.6914  -10.2768   21.6783 F   0  0  0  0  0  0  0  0  0  0  0  0
  -24.3013  -10.4869   18.6238 F   0  0  0  0  0  0  0  0  0  0  0  0
  1  2  1  0  0  0  0
  1  5  2  0  0  0  0
  2  6  2  0  0  0  0
  3  8  2  0  0  0  0
  3 15  1  0  0  0  0
  4  9  1  0  0  0  0
  4 15  2  0  0  0  0
  5 17  1  0  0  0  0
  6 19  1  0  0  0  0
  7 10  2  0  0  0  0
  7 18  1  0  0  0  0
  8 24  1  0  0  0  0
  9 24  2  0  0  0  0
 10 25  1  0  0  0  0
 11 12  2  0  0  0  0
 11 26  1  0  0  0  0
 12 27  1  0  0  0  0
 13 20  1  0  0  0  0
 13 25  2  0  0  0  0
 14 27  2  0  0  0  0
 14 28  1  0  0  0  0
 15 29  1  0  0  0  0
 16 29  1  0  0  0  0
 16 32  2  0  0  0  0
 16 33  1  0  0  0  0
 17 19  2  0  0  0  0
 17 38  1  0  0  0  0
 18 20  2  0  0  0  0
 18 39  1  0  0  0  0
 19 50  1  0  0  0  0
 20 40  1  0  0  0  0
 21 22  2  0  0  0  0
 21 23  1  0  0  0  0
 21 54  1  0  0  0  0
 22 30  1  0  0  0  0
 22 55  1  0  0  0  0
 23 31  2  0  0  0  0
 23 62  1  0  0  0  0
 24 84  1  0  0  0  0
 25 85  1  0  0  0  0
 26 28  2  0  0  0  0
 26 84  1  0  0  0  0
 27 86  1  0  0  0  0
 28 87  1  0  0  0  0
 29 67  2  0  0  0  0
 30 56  1  0  0  0  0
 30 68  2  0  0  0  0
 31 68  1  0  0  0  0
 31 70  1  0  0  0  0
 32 69  1  0  0  0  0
 32 73  1  0  0  0  0
 33 74  1  0  0  0  0
 33 79  2  0  0  0  0
 34 51  1  0  0  0  0
 34 75  1  0  0  0  0
 34 80  2  0  0  0  0
 35 64  1  0  0  0  0
 35 71  1  0  0  0  0
 35 81  2  0  0  0  0
 36 65  1  0  0  0  0
 36 76  1  0  0  0  0
 36 82  2  0  0  0  0
 37 72  1  0  0  0  0
 37 77  1  0  0  0  0
 37 83  2  0  0  0  0
 38 41  1  0  0  0  0
 39 51  1  0  0  0  0
 40 71  1  0  0  0  0
 41 43  1  0  0  0  0
 42 44  1  0  0  0  0
 42 46  1  0  0  0  0
 43 50  1  0  0  0  0
 44 53  1  0  0  0  0
 45 47  1  0  0  0  0
 45 52  1  0  0  0  0
 46 72  1  0  0  0  0
 47 70  1  0  0  0  0
 48 52  1  0  0  0  0
 48 70  1  0  0  0  0
 49 53  1  0  0  0  0
 49 72  1  0  0  0  0
 50 75  1  0  0  0  0
 51 71  1  0  0  0  0
 52 63  1  0  0  0  0
 53 69  1  0  0  0  0
 57 65  1  0  0  0  0
 58 66  1  0  0  0  0
 59 66  1  0  0  0  0
 60 66  1  0  0  0  0
 61 78  1  0  0  0  0
 62 77  1  0  0  0  0
 63 85  1  0  0  0  0
 64 66  1  0  0  0  0
 64 76  1  0  0  0  0
 65 78  1  0  0  0  0
 67 69  1  0  0  0  0
M  CHG  1  78   1
M  ISO  4  37 100  63 101  77 100  85 101
M  END
> <Batch ID>
0164

> <Smiles>
CNC(C)C(=O)NC(C(=O)N1Cc2cc([101O:1][101CH2:1]C3CCN(c4nc(C)c(C)c(C)c4C[100NH:0][100C:0](=O)N4CCCC(n5nc(-c6ccc(Oc7ccc(F)cc7F)cc6)c(C(N)=O)c5N)C4)C3)ccc2CC1C(=O)NC1CCCc2ccccc21)C(C)(C)C

> <Shape>
0.237

> <Color>
0.068

> <Negative vol penalty>
0.000

$$$$

  -OEChem-04052322193D

 89 98  0     1  0  0  0  0  0999 V2000
  -19.4623  -32.0272   15.2612 C   0  0  0  0  0  0  0  0  0  0  0  0
  -20.7160  -31.4295   15.3413 C   0  0  0  0  0  0  0  0  0  0  0  0
  -25.4418   -9.6703   22.6380 C   0  0  0  0  0  0  0  0  0  0  0  0
  -23.1085   -9.9055   22.0572 C   0  0  0  0  0  0  0  0  0  0  0  0
  -19.0495  -32.9143   16.2545 C   0  0  0  0  0  0  0  0  0  0  0  0
  -21.5581  -31.7195   16.4143 C   0  0  0  0  0  0  0  0  0  0  0  0
  -25.4769  -27.8948   19.1568 C   0  0  0  0  0  0  0  0  0  0  0  0
  -25.1158   -8.6544   23.5364 C   0  0  0  0  0  0  0  0  0  0  0  0
  -22.7825   -8.8895   22.9557 C   0  0  0  0  0  0  0  0  0  0  0  0
  -26.8515  -27.7047   19.0221 C   0  0  0  0  0  0  0  0  0  0  0  0
  -21.3764   -6.1107   24.8317 C   0  0  0  0  0  0  0  0  0  0  0  0
  -20.4787   -5.1314   24.4066 C   0  0  0  0  0  0  0  0  0  0  0  0
  -27.2312  -29.1575   20.9101 C   0  0  0  0  0  0  0  0  0  0  0  0
  -29.8053  -23.7793   21.5454 C   0  0  0  0  0  0  0  0  0  0  0  0
  -21.9830   -4.5310   22.6138 C   0  0  0  0  0  0  0  0  0  0  0  0
  -24.4381  -10.2959   21.8984 C   0  0  0  0  0  0  0  0  0  0  0  0
  -25.0988  -11.2045   19.6081 C   0  0  0  0  0  0  0  0  0  0  0  0
  -19.8831  -33.2079   17.3452 C   0  0  0  0  0  0  0  0  0  0  0  0
  -24.9688  -28.7278   20.1640 C   0  0  0  0  0  0  0  0  0  0  0  0
  -21.1566  -32.6124   17.4224 C   0  0  0  0  0  0  0  0  0  0  0  0
  -25.8496  -29.3545   21.0570 C   0  0  0  0  0  0  0  0  0  0  0  0
  -30.1840  -25.1088   21.7312 C   0  0  0  0  0  0  0  0  0  0  0  0
  -30.6480  -25.8593   20.6508 C   0  0  0  0  0  0  0  0  0  0  0  0
  -30.7334  -25.2802   19.3847 C   0  0  0  0  0  0  0  0  0  0  0  0
  -23.7862   -8.2639   23.6952 C   0  0  0  0  0  0  0  0  0  0  0  0
  -27.7290  -28.3384   19.8970 C   0  0  0  0  0  0  0  0  0  0  0  0
  -22.5773   -6.3003   24.1479 C   0  0  0  0  0  0  0  0  0  0  0  0
  -29.8907  -23.2002   20.2793 C   0  0  0  0  0  0  0  0  0  0  0  0
  -30.3547  -23.9506   19.1990 C   0  0  0  0  0  0  0  0  0  0  0  0
  -20.7820   -4.3415   23.2977 C   0  0  0  0  0  0  0  0  0  0  0  0
  -22.8806   -5.5104   23.0390 C   0  0  0  0  0  0  0  0  0  0  0  0
  -24.7741  -11.3458   20.9706 C   0  0  0  0  0  0  0  0  0  0  0  0
  -25.3346  -12.4869   19.1765 C   0  0  0  0  0  0  0  0  0  0  0  0
  -25.1799  -10.0199   18.8044 C   0  0  0  0  0  0  0  0  0  0  0  0
  -23.2650  -31.4108   20.2087 C   0  0  0  0  0  0  0  0  0  0  0  0
  -23.2566  -30.8921   23.4108 C   0  0  0  0  0  0  0  0  0  0  0  0
  -24.7531  -29.4455   26.1154 C   0  0  0  0  0  0  0  0  0  0  0  0
  -27.4896  -17.3779   19.6728 C   0  0  0  0  0  0  0  0  0  0  0  0
  -19.4123  -34.2094   18.3698 C   0  0  0  0  0  0  0  0  0  0  0  0
  -23.4821  -28.9012   20.3126 C   0  0  0  0  0  0  0  0  0  0  0  0
  -25.3539  -30.2426   22.1678 C   0  0  0  0  0  0  0  0  0  0  0  0
  -20.2142  -34.1752   19.6683 C   0  0  0  0  0  0  0  0  0  0  0  0
  -24.4712  -16.9350   21.4092 C   0  0  0  0  0  0  0  0  0  0  0  0
  -21.7100  -34.1426   19.3712 C   0  0  0  0  0  0  0  0  0  0  0  0
  -24.3024  -15.4173   21.3419 C   0  0  0  0  0  0  0  0  0  0  0  0
  -27.4382  -21.0538   19.1899 C   0  0  0  0  0  0  0  0  0  0  0  0
  -28.1300  -20.5447   21.5715 C   0  0  0  0  0  0  0  0  0  0  0  0
  -25.9242  -17.3391   21.6647 C   0  0  0  0  0  0  0  0  0  0  0  0
  -27.8786  -19.6471   18.7875 C   0  0  0  0  0  0  0  0  0  0  0  0
  -28.5577  -19.1521   21.1141 C   0  0  0  0  0  0  0  0  0  0  0  0
  -26.7199  -15.2324   20.6424 C   0  0  0  0  0  0  0  0  0  0  0  0
  -22.0887  -32.8825   18.5836 C   0  0  1  0  0  0  0  0  0  0  0  0
  -23.1008  -30.1791   21.0535 C   0  0  1  0  0  0  0  0  0  0  0  0
  -25.2801  -14.7970   20.3281 C   0  0  1  0  0  0  0  0  0  0  0  0
  -28.1654  -21.5663   20.4335 C   0  0  0  0  0  0  0  0  0  0  0  0
  -30.0842  -25.7044   23.0974 C   0  0  0  0  0  0  0  0  0  0  0  0
  -31.2303  -26.0792   18.2220 C   0  0  0  0  0  0  0  0  0  0  0  0
  -24.5363  -29.2309   28.6062 C   0  0  0  0  0  0  0  0  0  0  0  0
  -24.3347  -33.7268   23.7465 C   0  0  0  0  0  0  0  0  0  0  0  0
  -24.9834  -33.1279   26.0893 C   0  0  0  0  0  0  0  0  0  0  0  0
  -22.5842  -33.0728   25.4085 C   0  0  0  0  0  0  0  0  0  0  0  0
  -24.4449  -26.5066   25.9517 C   0  0  0  0  0  0  0  0  0  0  0  0
  -31.6627  -22.7338   17.6292 C   0  0  0  0  0  0  0  0  0  0  0  0
  -31.0528  -27.2854   20.8521 C   0  0  0  0  0  0  0  0  0  0  0  0
  -29.8559  -28.2327   20.9558 C   0  0  0  0  0  0  0  0  0  1  0  0
  -24.1549  -31.2828   24.5595 C   0  0  1  0  0  0  0  0  0  0  0  0
  -24.1883  -28.6203   27.2575 C   0  0  2  0  0  0  0  0  0  0  0  0
  -24.0240  -32.7874   24.9289 C   0  0  0  0  0  0  0  0  0  0  0  0
  -24.8005  -12.6176   21.3777 N   0  0  0  0  0  0  0  0  0  0  0  0
  -25.1446  -13.2872   20.2644 N   0  0  0  0  0  0  0  0  0  0  0  0
  -23.8921  -30.3858   22.2681 N   0  0  0  0  0  0  0  0  0  0  0  0
  -26.8219  -16.6921   20.6985 N   0  0  0  0  0  0  0  0  0  0  0  0
  -27.8212  -18.7212   19.9181 N   0  0  0  0  0  0  0  0  0  0  0  0
  -25.6840  -12.9967   17.9763 N   0  0  0  0  0  0  0  0  0  0  0  0
  -24.9063   -8.7841   19.4063 N   0  0  0  0  0  0  0  0  0  0  0  0
  -22.1474  -31.7351   19.4635 N   0  0  0  0  0  0  0  0  0  0  0  0
  -23.8402  -30.3695   25.6527 N   0  0  0  0  0  0  0  0  0  0  0  0
  -24.7339  -27.2342   27.2143 N   0  3  0  0  0  0  0  0  0  0  0  0
  -25.5019  -10.0546   17.5925 O   0  0  0  0  0  0  0  0  0  0  0  0
  -24.3266  -32.0226   20.2324 O   0  0  0  0  0  0  0  0  0  0  0  0
  -22.0356  -31.0244   23.5259 O   0  0  0  0  0  0  0  0  0  0  0  0
  -25.8916  -29.2888   25.6798 O   0  0  0  0  0  0  0  0  0  0  0  0
  -27.7704  -16.8273   18.6008 O   0  0  0  0  0  0  0  0  0  0  0  0
  -23.4677   -7.2725   24.5717 O   0  0  0  0  0  0  0  0  0  0  0  0
  -29.5154  -21.8933   20.1111 O   0  0  0  0  0  0  0  0  0  0  0  0
  -30.4361  -23.3784   17.9636 O   0  0  0  0  0  0  0  0  0  0  0  0
  -29.0806  -28.1538   19.7665 O   0  0  0  0  0  0  0  0  0  1  0  0
  -19.9207   -3.4000   22.8904 F   0  0  0  0  0  0  0  0  0  0  0  0
  -24.0332   -5.6870   22.3787 F   0  0  0  0  0  0  0  0  0  0  0  0
  1  2  1  0  0  0  0
  1  5  2  0  0  0  0
  2  6  2  0  0  0  0
  3  8  2  0  0  0  0
  3 16  1  0  0  0  0
  4  9  1  0  0  0  0
  4 16  2  0  0  0  0
  5 18  1  0  0  0  0
  6 20  1  0  0  0  0
  7 10  2  0  0  0  0
  7 19  1  0  0  0  0
  8 25  1  0  0  0  0
  9 25  2  0  0  0  0
 10 26  1  0  0  0  0
 11 12  2  0  0  0  0
 11 27  1  0  0  0  0
 12 30  1  0  0  0  0
 13 21  1  0  0  0  0
 13 26  2  0  0  0  0
 14 22  2  0  0  0  0
 14 28  1  0  0  0  0
 15 30  2  0  0  0  0
 15 31  1  0  0  0  0
 16 32  1  0  0  0  0
 17 32  1  0  0  0  0
 17 33  2  0  0  0  0
 17 34  1  0  0  0  0
 18 20  2  0  0  0  0
 18 39  1  0  0  0  0
 19 21  2  0  0  0  0
 19 40  1  0  0  0  0
 20 52  1  0  0  0  0
 21 41  1  0  0  0  0
 22 23  1  0  0  0  0
 22 56  1  0  0  0  0
 23 24  2  0  0  0  0
 23 64  1  0  0  0  0
 24 29  1  0  0  0  0
 24 57  1  0  0  0  0
 25 84  1  0  0  0  0
 26 87  1  0  0  0  0
 27 31  2  0  0  0  0
 27 84  1  0  0  0  0
 28 29  2  0  0  0  0
 28 85  1  0  0  0  0
 29 86  1  0  0  0  0
 30 88  1  0  0  0  0
 31 89  1  0  0  0  0
 32 69  2  0  0  0  0
 33 70  1  0  0  0  0
 33 74  1  0  0  0  0
 34 75  1  0  0  0  0
 34 79  2  0  0  0  0
 35 53  1  0  0  0  0
 35 76  1  0  0  0  0
 35 80  2  0  0  0  0
 36 66  1  0  0  0  0
 36 71  1  0  0  0  0
 36 81  2  0  0  0  0
 37 67  1  0  0  0  0
 37 77  1  0  0  0  0
 37 82  2  0  0  0  0
 38 72  1  0  0  0  0
 38 73  1  0  0  0  0
 38 83  2  0  0  0  0
 39 42  1  0  0  0  0
 40 53  1  0  0  0  0
 41 71  1  0  0  0  0
 42 44  1  0  0  0  0
 43 45  1  0  0  0  0
 43 48  1  0  0  0  0
 44 52  1  0  0  0  0
 45 54  1  0  0  0  0
 46 49  1  0  0  0  0
 46 55  1  0  0  0  0
 47 50  1  0  0  0  0
 47 55  1  0  0  0  0
 48 72  1  0  0  0  0
 49 73  1  0  0  0  0
 50 73  1  0  0  0  0
 51 54  1  0  0  0  0
 51 72  1  0  0  0  0
 52 76  1  0  0  0  0
 53 71  1  0  0  0  0
 54 70  1  0  0  0  0
 55 85  1  0  0  0  0
 58 67  1  0  0  0  0
 59 68  1  0  0  0  0
 60 68  1  0  0  0  0
 61 68  1  0  0  0  0
 62 78  1  0  0  0  0
 63 86  1  0  0  0  0
 64 65  1  0  0  0  0
 65 87  1  0  0  0  0
 66 68  1  0  0  0  0
 66 77  1  0  0  0  0
 67 78  1  0  0  0  0
 69 70  1  0  0  0  0
M  CHG  1  78   1
M  ISO  4  38 100  65 101  73 100  87 101
M  END
> <Batch ID>
0164

> <Smiles>
CNC(C)C(=O)NC(C(=O)N1Cc2cc([101O:1][101CH2:1]Cc3c(C)cc(OC4CC[100N:0]([100C:0](=O)N5CCCC(n6nc(-c7ccc(Oc8ccc(F)cc8F)cc7)c(C(N)=O)c6N)C5)CC4)c(OC)c3C)ccc2CC1C(=O)NC1CCCc2ccccc21)C(C)(C)C

> <Shape>
0.285

> <Color>
0.069

> <Negative vol penalty>
0.000

$$$$

  -OEChem-04052322193D

 86 95  0     1  0  0  0  0  0999 V2000
  -27.6363  -38.0971   22.2094 C   0  0  0  0  0  0  0  0  0  0  0  0
  -28.1774  -36.9049   21.7392 C   0  0  0  0  0  0  0  0  0  0  0  0
  -21.8200  -10.2217   20.8882 C   0  0  0  0  0  0  0  0  0  0  0  0
  -23.4881   -9.6367   22.5351 C   0  0  0  0  0  0  0  0  0  0  0  0
  -26.6551  -38.0734   23.1997 C   0  0  0  0  0  0  0  0  0  0  0  0
  -27.7383  -35.6881   22.2598 C   0  0  0  0  0  0  0  0  0  0  0  0
  -27.1536  -30.3899   19.2442 C   0  0  0  0  0  0  0  0  0  0  0  0
  -21.5131   -8.8716   20.7193 C   0  0  0  0  0  0  0  0  0  0  0  0
  -23.1812   -8.2865   22.3663 C   0  0  0  0  0  0  0  0  0  0  0  0
  -27.9749  -29.2671   19.1527 C   0  0  0  0  0  0  0  0  0  0  0  0
  -20.7808   -6.1339   23.3788 C   0  0  0  0  0  0  0  0  0  0  0  0
  -20.6388   -5.3546   24.5269 C   0  0  0  0  0  0  0  0  0  0  0  0
  -26.7029  -28.2015   20.9036 C   0  0  0  0  0  0  0  0  0  0  0  0
  -22.4432   -3.9303   23.7835 C   0  0  0  0  0  0  0  0  0  0  0  0
  -22.8075  -10.6043   21.7961 C   0  0  0  0  0  0  0  0  0  0  0  0
  -22.5396  -12.8965   22.8831 C   0  0  0  0  0  0  0  0  0  0  0  0
  -26.1968  -36.8553   23.7258 C   0  0  0  0  0  0  0  0  0  0  0  0
  -26.1057  -30.4314   20.1752 C   0  0  0  0  0  0  0  0  0  0  0  0
  -26.7509  -35.6480   23.2590 C   0  0  0  0  0  0  0  0  0  0  0  0
  -25.8681  -29.3250   21.0032 C   0  0  0  0  0  0  0  0  0  0  0  0
  -22.1937   -7.9040   21.4584 C   0  0  0  0  0  0  0  0  0  0  0  0
  -27.7515  -28.1738   19.9845 C   0  0  0  0  0  0  0  0  0  0  0  0
  -21.7540   -5.8113   22.4330 C   0  0  0  0  0  0  0  0  0  0  0  0
  -21.4700   -4.2529   24.7293 C   0  0  0  0  0  0  0  0  0  0  0  0
  -22.5852   -4.7096   22.6353 C   0  0  0  0  0  0  0  0  0  0  0  0
  -23.1254  -11.9988   21.9706 C   0  0  0  0  0  0  0  0  0  0  0  0
  -23.1841  -14.0877   22.6547 C   0  0  0  0  0  0  0  0  0  0  0  0
  -21.5053  -12.6735   23.8507 C   0  0  0  0  0  0  0  0  0  0  0  0
  -25.4013  -32.2575   22.6797 C   0  0  0  0  0  0  0  0  0  0  0  0
  -22.6441  -30.5488   22.6573 C   0  0  0  0  0  0  0  0  0  0  0  0
  -21.0203  -27.6805   21.7725 C   0  0  0  0  0  0  0  0  0  0  0  0
  -25.1272  -17.9035   19.3723 C   0  0  0  0  0  0  0  0  0  0  0  0
  -25.1684  -36.8820   24.8286 C   0  0  0  0  0  0  0  0  0  0  0  0
  -25.2121  -31.6394   20.2429 C   0  0  0  0  0  0  0  0  0  0  0  0
  -24.7439  -29.3114   22.0053 C   0  0  0  0  0  0  0  0  0  0  0  0
  -24.4895  -35.5346   25.0611 C   0  0  0  0  0  0  0  0  0  0  0  0
  -27.3014  -15.1486   19.9351 C   0  0  0  0  0  0  0  0  0  0  0  0
  -25.5256  -34.4162   25.1101 C   0  0  0  0  0  0  0  0  0  0  0  0
  -26.3513  -14.1413   20.5801 C   0  0  0  0  0  0  0  0  0  0  0  0
  -25.2149  -19.2050   16.2778 C   0  0  0  0  0  0  0  0  0  0  0  0
  -24.7839  -20.3834   17.1752 C   0  0  0  0  0  0  0  0  0  0  0  0
  -27.6550  -18.9512   16.9219 C   0  0  0  0  0  0  0  0  0  0  0  0
  -26.6288  -15.9349   18.8086 C   0  0  0  0  0  0  0  0  0  0  0  0
  -24.4150  -15.5826   19.8522 C   0  0  0  0  0  0  0  0  0  0  0  0
  -26.2828  -34.3070   23.7811 C   0  0  1  0  0  0  0  0  0  0  0  0
  -24.4945  -31.7774   21.5821 C   0  0  1  0  0  0  0  0  0  0  0  0
  -26.9638  -20.8710   18.4654 C   0  0  1  0  0  0  0  0  0  0  0  0
  -25.0491  -14.8259   21.0291 C   0  0  1  0  0  0  0  0  0  0  0  0
  -26.2268  -18.4136   17.1245 C   0  0  1  0  0  0  0  0  0  0  0  0
  -25.5719  -20.1921   18.4819 C   0  0  2  0  0  0  0  0  0  0  0  0
  -27.7750  -20.4579   17.2143 C   0  0  1  0  0  0  0  0  0  0  0  0
  -18.7810  -26.5579   21.9232 C   0  0  0  0  0  0  0  0  0  0  0  0
  -26.0755  -22.7693   19.8497 C   0  0  0  0  0  0  0  0  0  0  0  0
  -23.1714  -29.8960   25.5908 C   0  0  0  0  0  0  0  0  0  0  0  0
  -21.4800  -28.0586   25.4138 C   0  0  0  0  0  0  0  0  0  0  0  0
  -20.7877  -30.4278   25.0526 C   0  0  0  0  0  0  0  0  0  0  0  0
  -20.7438  -27.5783   18.8276 C   0  0  0  0  0  0  0  0  0  0  0  0
  -29.8146  -20.9004   16.1340 C   0  0  0  0  0  0  0  0  0  0  0  0
  -29.3802  -25.2980   18.5012 C   0  0  0  0  0  0  0  0  0  0  0  0
  -28.2075  -23.0927   18.4960 C   0  0  0  0  0  0  0  0  0  0  0  0
  -29.1229  -26.7870   18.6237 C   0  0  0  0  0  0  0  0  0  1  0  0
  -22.1791  -29.2611   23.2934 C   0  0  1  0  0  0  0  0  0  0  0  0
  -19.6859  -27.4490   21.0866 C   0  0  2  0  0  0  0  0  0  0  0  0
  -26.8471  -22.3936   18.5844 C   0  0  1  0  0  0  0  0  0  0  0  0
  -21.9270  -29.4116   24.8202 C   0  0  0  0  0  0  0  0  0  0  0  0
  -24.0694  -12.5708   21.2184 N   0  0  0  0  0  0  0  0  0  0  0  0
  -24.0816  -13.8407   21.6579 N   0  0  0  0  0  0  0  0  0  0  0  0
  -23.9016  -30.5185   22.0380 N   0  0  0  0  0  0  0  0  0  0  0  0
  -25.3656  -16.5278   19.2603 N   0  0  0  0  0  0  0  0  0  0  0  0
  -25.7911  -18.7475   18.4809 N   0  0  0  0  0  0  0  0  0  0  0  0
  -23.0649  -15.3118   23.2113 N   0  0  0  0  0  0  0  0  0  0  0  0
  -20.9522  -11.3899   23.9538 N   0  0  0  0  0  0  0  0  0  0  0  0
  -25.4709  -33.6331   22.7907 N   0  0  0  0  0  0  0  0  0  0  0  0
  -21.0103  -28.8297   22.5344 N   0  0  0  0  0  0  0  0  0  0  0  0
  -19.8907  -26.7989   19.7613 N   0  3  0  0  0  0  0  0  0  0  0  0
  -28.0909  -24.5643   18.6284 N   0  3  0  0  0  0  0  0  0  0  0  0
  -21.0727  -13.5896   24.5904 O   0  0  0  0  0  0  0  0  0  0  0  0
  -25.9928  -31.4404   23.3755 O   0  0  0  0  0  0  0  0  0  0  0  0
  -21.9151  -31.5430   22.7018 O   0  0  0  0  0  0  0  0  0  0  0  0
  -21.9747  -26.9162   21.6480 O   0  0  0  0  0  0  0  0  0  0  0  0
  -24.3401  -18.3524   20.2157 O   0  0  0  0  0  0  0  0  0  0  0  0
  -21.8943   -6.5864   21.2940 O   0  0  0  0  0  0  0  0  0  0  0  0
  -28.5579  -27.0690   19.8972 O   0  0  0  0  0  0  0  0  0  1  0  0
  -29.1553  -20.7684   17.3845 O   0  0  0  0  0  0  0  0  0  0  0  0
  -21.3345   -3.5056   25.8326 F   0  0  0  0  0  0  0  0  0  0  0  0
  -23.5227   -4.3955   21.7308 F   0  0  0  0  0  0  0  0  0  0  0  0
  1  2  1  0  0  0  0
  1  5  2  0  0  0  0
  2  6  2  0  0  0  0
  3  8  2  0  0  0  0
  3 15  1  0  0  0  0
  4  9  1  0  0  0  0
  4 15  2  0  0  0  0
  5 17  1  0  0  0  0
  6 19  1  0  0  0  0
  7 10  2  0  0  0  0
  7 18  1  0  0  0  0
  8 21  1  0  0  0  0
  9 21  2  0  0  0  0
 10 22  1  0  0  0  0
 11 12  2  0  0  0  0
 11 23  1  0  0  0  0
 12 24  1  0  0  0  0
 13 20  1  0  0  0  0
 13 22  2  0  0  0  0
 14 24  2  0  0  0  0
 14 25  1  0  0  0  0
 15 26  1  0  0  0  0
 16 26  1  0  0  0  0
 16 27  2  0  0  0  0
 16 28  1  0  0  0  0
 17 19  2  0  0  0  0
 17 33  1  0  0  0  0
 18 20  2  0  0  0  0
 18 34  1  0  0  0  0
 19 45  1  0  0  0  0
 20 35  1  0  0  0  0
 21 82  1  0  0  0  0
 22 83  1  0  0  0  0
 23 25  2  0  0  0  0
 23 82  1  0  0  0  0
 24 85  1  0  0  0  0
 25 86  1  0  0  0  0
 26 66  2  0  0  0  0
 27 67  1  0  0  0  0
 27 71  1  0  0  0  0
 28 72  1  0  0  0  0
 28 77  2  0  0  0  0
 29 46  1  0  0  0  0
 29 73  1  0  0  0  0
 29 78  2  0  0  0  0
 30 62  1  0  0  0  0
 30 68  1  0  0  0  0
 30 79  2  0  0  0  0
 31 63  1  0  0  0  0
 31 74  1  0  0  0  0
 31 80  2  0  0  0  0
 32 69  1  0  0  0  0
 32 70  1  0  0  0  0
 32 81  2  0  0  0  0
 33 36  1  0  0  0  0
 34 46  1  0  0  0  0
 35 68  1  0  0  0  0
 36 38  1  0  0  0  0
 37 39  1  0  0  0  0
 37 43  1  0  0  0  0
 38 45  1  0  0  0  0
 39 48  1  0  0  0  0
 40 41  1  0  0  0  0
 40 49  1  0  0  0  0
 41 50  1  0  0  0  0
 42 49  1  0  0  0  0
 42 51  1  0  0  0  0
 43 69  1  0  0  0  0
 44 48  1  0  0  0  0
 44 69  1  0  0  0  0
 45 73  1  0  0  0  0
 46 68  1  0  0  0  0
 47 50  1  0  0  0  0
 47 51  1  0  0  0  0
 47 64  1  0  0  0  0
 48 67  1  0  0  0  0
 49 70  1  0  0  0  0
 50 70  1  0  0  0  0
 51 84  1  0  0  0  0
 52 63  1  0  0  0  0
 53 64  1  0  0  0  0
 54 65  1  0  0  0  0
 55 65  1  0  0  0  0
 56 65  1  0  0  0  0
 57 75  1  0  0  0  0
 58 84  1  0  0  0  0
 59 61  1  0  0  0  0
 59 76  1  0  0  0  0
 60 64  1  0  0  0  0
 60 76  1  0  0  0  0
 61 83  1  0  0  0  0
 62 65  1  0  0  0  0
 62 74  1  0  0  0  0
 63 75  1  0  0  0  0
 66 67  1  0  0  0  0
M  CHG  2  75   1  76   1
M  ISO  4  32 100  61 101  70 100  83 101
M  END
> <Batch ID>
0164

> <Smiles>
CNC(C)C(=O)NC(C(=O)N1Cc2cc([101O:1][101CH2:1]CNCC(C)C3C(OC)CC4CCC3[100N:0]4[100C:0](=O)N3CCCC(n4nc(-c5ccc(Oc6ccc(F)cc6F)cc5)c(C(N)=O)c4N)C3)ccc2CC1C(=O)NC1CCCc2ccccc21)C(C)(C)C

> <Shape>
0.299

> <Color>
0.086

> <Negative vol penalty>
0.000

$$$$

  -OEChem-04052322193D

 90 99  0     1  0  0  0  0  0999 V2000
  -19.1913  -19.3545    9.2575 C   0  0  0  0  0  0  0  0  0  0  0  0
  -20.4580  -19.4956    9.8150 C   0  0  0  0  0  0  0  0  0  0  0  0
  -22.6963  -10.2406   20.1747 C   0  0  0  0  0  0  0  0  0  0  0  0
  -24.2638   -9.5481   21.8777 C   0  0  0  0  0  0  0  0  0  0  0  0
  -18.3752  -18.2922    9.6442 C   0  0  0  0  0  0  0  0  0  0  0  0
  -20.9090  -18.5751   10.7604 C   0  0  0  0  0  0  0  0  0  0  0  0
  -26.6530  -16.5905   11.5180 C   0  0  0  0  0  0  0  0  0  0  0  0
  -21.9573   -9.0758   20.3812 C   0  0  0  0  0  0  0  0  0  0  0  0
  -23.5248   -8.3833   22.0843 C   0  0  0  0  0  0  0  0  0  0  0  0
  -27.6626  -16.9573   12.4068 C   0  0  0  0  0  0  0  0  0  0  0  0
  -19.8564   -6.1126   20.2090 C   0  0  0  0  0  0  0  0  0  0  0  0
  -19.4215   -5.4108   19.0848 C   0  0  0  0  0  0  0  0  0  0  0  0
  -27.0352  -15.1375   13.8608 C   0  0  0  0  0  0  0  0  0  0  0  0
  -30.9244  -19.5934   21.0796 C   0  0  0  0  0  0  0  0  0  0  0  0
  -21.7144   -5.1118   18.3845 C   0  0  0  0  0  0  0  0  0  0  0  0
  -23.8496  -10.4767   20.9229 C   0  0  0  0  0  0  0  0  0  0  0  0
  -24.1701  -13.0068   20.8620 C   0  0  0  0  0  0  0  0  0  0  0  0
  -18.8201  -17.3527   10.5876 C   0  0  0  0  0  0  0  0  0  0  0  0
  -25.8185  -15.4993   11.7996 C   0  0  0  0  0  0  0  0  0  0  0  0
  -20.0976  -17.5000   11.1610 C   0  0  0  0  0  0  0  0  0  0  0  0
  -26.0174  -14.7574   12.9727 C   0  0  0  0  0  0  0  0  0  0  0  0
  -31.1518  -18.9597   18.7594 C   0  0  0  0  0  0  0  0  0  0  0  0
  -30.7206  -19.8670   19.7272 C   0  0  0  0  0  0  0  0  0  0  0  0
  -31.5594  -18.4126   21.4644 C   0  0  0  0  0  0  0  0  0  0  0  0
  -31.7868  -17.7788   19.1442 C   0  0  0  0  0  0  0  0  0  0  0  0
  -31.9906  -17.5053   20.4967 C   0  0  0  0  0  0  0  0  0  0  0  0
  -22.3715   -8.1471   21.3360 C   0  0  0  0  0  0  0  0  0  0  0  0
  -27.8519  -16.2326   13.5799 C   0  0  0  0  0  0  0  0  0  0  0  0
  -21.2203   -6.3142   20.4210 C   0  0  0  0  0  0  0  0  0  0  0  0
  -20.3505   -4.9103   18.1726 C   0  0  0  0  0  0  0  0  0  0  0  0
  -22.1493   -5.8137   19.5088 C   0  0  0  0  0  0  0  0  0  0  0  0
  -24.6137  -11.6795   20.7096 C   0  0  0  0  0  0  0  0  0  0  0  0
  -25.2642  -13.7734   20.5433 C   0  0  0  0  0  0  0  0  0  0  0  0
  -22.8839  -13.5025   21.2566 C   0  0  0  0  0  0  0  0  0  0  0  0
  -22.6987  -15.1269   12.2813 C   0  0  0  0  0  0  0  0  0  0  0  0
  -23.4751  -11.9775   12.3119 C   0  0  0  0  0  0  0  0  0  0  0  0
  -25.8593   -9.5859   12.8047 C   0  0  0  0  0  0  0  0  0  0  0  0
  -30.6056  -14.8673   21.0129 C   0  0  0  0  0  0  0  0  0  0  0  0
  -17.8839  -16.2480   11.0092 C   0  0  0  0  0  0  0  0  0  0  0  0
  -24.7513  -15.1002   10.8177 C   0  0  0  0  0  0  0  0  0  0  0  0
  -25.1617  -13.5653   13.3117 C   0  0  0  0  0  0  0  0  0  0  0  0
  -18.5820  -15.1035   11.7393 C   0  0  0  0  0  0  0  0  0  0  0  0
  -29.6841  -12.4935   18.4412 C   0  0  0  0  0  0  0  0  0  0  0  0
  -19.5304  -15.6483   12.8026 C   0  0  0  0  0  0  0  0  0  0  0  0
  -28.2357  -12.1805   18.8211 C   0  0  0  0  0  0  0  0  0  0  0  0
  -30.0083  -18.2544   16.5591 C   0  0  0  0  0  0  0  0  0  0  0  0
  -32.1787  -19.3399   16.3943 C   0  0  0  0  0  0  0  0  0  0  0  0
  -30.5546  -12.6724   19.6816 C   0  0  0  0  0  0  0  0  0  0  0  0
  -28.6135  -13.3928   21.0183 C   0  0  0  0  0  0  0  0  0  0  0  0
  -30.9293  -19.2595   17.2903 C   0  0  2  0  0  0  0  0  0  0  0  0
  -20.6320  -16.5079   12.1711 C   0  0  1  0  0  0  0  0  0  0  0  0
  -23.6288  -14.2859   11.4534 C   0  0  1  0  0  0  0  0  0  0  0  0
  -30.6626  -17.9589   15.1973 C   0  0  2  0  0  0  0  0  0  0  0  0
  -27.6774  -13.2230   19.8080 C   0  0  2  0  0  0  0  0  0  0  0  0
  -31.6522  -19.1216   14.9638 C   0  0  0  0  0  0  0  0  0  0  0  0
  -30.0376  -21.1383   19.3419 C   0  0  0  0  0  0  0  0  0  0  0  0
  -31.7662  -18.1440   22.9192 C   0  0  0  0  0  0  0  0  0  0  0  0
  -32.2499  -16.8058   18.1060 C   0  0  0  0  0  0  0  0  0  0  0  0
  -30.9862  -20.3971   14.4184 C   0  0  0  0  0  0  0  0  0  0  0  0
  -32.7926  -18.7196   14.0207 C   0  0  0  0  0  0  0  0  0  0  0  0
  -34.0964  -16.1240   20.3587 C   0  0  0  0  0  0  0  0  0  0  0  0
  -26.1852   -7.0977   12.7944 C   0  0  0  0  0  0  0  0  0  0  0  0
  -22.0606  -11.7835   15.0086 C   0  0  0  0  0  0  0  0  0  0  0  0
  -23.2149   -9.5927   15.3779 C   0  0  0  0  0  0  0  0  0  0  0  0
  -21.6347   -9.8612   13.4665 C   0  0  0  0  0  0  0  0  0  0  0  0
  -27.8675   -9.7414   10.6363 C   0  0  0  0  0  0  0  0  0  0  0  0
  -29.6377  -17.7156   14.0970 C   0  0  0  0  0  0  0  0  0  1  0  0
  -32.6707  -16.2392   20.9123 C   0  0  2  0  0  0  0  0  0  0  0  0
  -23.8950  -10.9902   13.3740 C   0  0  1  0  0  0  0  0  0  0  0  0
  -26.2606   -8.3781   11.9773 C   0  0  2  0  0  0  0  0  0  0  0  0
  -22.7164  -10.5805   14.3016 C   0  0  0  0  0  0  0  0  0  0  0  0
  -25.8902  -11.6036   20.3237 N   0  0  0  0  0  0  0  0  0  0  0  0
  -26.2580  -12.8929   20.2310 N   0  0  0  0  0  0  0  0  0  0  0  0
  -24.1275  -13.2185   12.3230 N   0  0  0  0  0  0  0  0  0  0  0  0
  -29.9778  -13.6911   20.5702 N   0  0  0  0  0  0  0  0  0  0  0  0
  -25.4636  -15.1079   20.5023 N   0  0  0  0  0  0  0  0  0  0  0  0
  -22.6400  -13.7168   22.6200 N   0  0  0  0  0  0  0  0  0  0  0  0
  -21.6456  -15.6684   11.5692 N   0  0  0  0  0  0  0  0  0  0  0  0
  -24.5175   -9.8740   12.6704 N   0  0  0  0  0  0  0  0  0  0  0  0
  -31.8990  -15.0718   20.5482 N   0  0  0  0  0  0  0  0  0  0  0  0
  -27.6552   -8.5341   11.4756 N   0  3  0  0  0  0  0  0  0  0  0  0
  -21.9722  -13.7325   20.4263 O   0  0  0  0  0  0  0  0  0  0  0  0
  -22.9194  -15.2724   13.4779 O   0  0  0  0  0  0  0  0  0  0  0  0
  -22.6054  -11.6567   11.4980 O   0  0  0  0  0  0  0  0  0  0  0  0
  -26.6555  -10.2090   13.5034 O   0  0  0  0  0  0  0  0  0  0  0  0
  -30.0521  -15.6786   21.7630 O   0  0  0  0  0  0  0  0  0  0  0  0
  -21.6505   -7.0105   21.5380 O   0  0  0  0  0  0  0  0  0  0  0  0
  -28.8362  -16.5888   14.4495 O   0  0  0  0  0  0  0  0  0  1  0  0
  -19.9328   -4.2350   17.0939 F   0  0  0  0  0  0  0  0  0  0  0  0
  -23.4609   -6.0032   19.7076 F   0  0  0  0  0  0  0  0  0  0  0  0
  1  2  1  0  0  0  0
  1  5  2  0  0  0  0
  2  6  2  0  0  0  0
  3  8  2  0  0  0  0
  3 16  1  0  0  0  0
  4  9  1  0  0  0  0
  4 16  2  0  0  0  0
  5 18  1  0  0  0  0
  6 20  1  0  0  0  0
  7 10  2  0  0  0  0
  7 19  1  0  0  0  0
  8 27  1  0  0  0  0
  9 27  2  0  0  0  0
 10 28  1  0  0  0  0
 11 12  2  0  0  0  0
 11 29  1  0  0  0  0
 12 30  1  0  0  0  0
 13 21  1  0  0  0  0
 13 28  2  0  0  0  0
 14 23  2  0  0  0  0
 14 24  1  0  0  0  0
 15 30  2  0  0  0  0
 15 31  1  0  0  0  0
 16 32  1  0  0  0  0
 17 32  1  0  0  0  0
 17 33  2  0  0  0  0
 17 34  1  0  0  0  0
 18 20  2  0  0  0  0
 18 39  1  0  0  0  0
 19 21  2  0  0  0  0
 19 40  1  0  0  0  0
 20 51  1  0  0  0  0
 21 41  1  0  0  0  0
 22 23  1  0  0  0  0
 22 25  2  0  0  0  0
 22 50  1  0  0  0  0
 23 56  1  0  0  0  0
 24 26  2  0  0  0  0
 24 57  1  0  0  0  0
 25 26  1  0  0  0  0
 25 58  1  0  0  0  0
 26 68  1  0  0  0  0
 27 87  1  0  0  0  0
 28 88  1  0  0  0  0
 29 31  2  0  0  0  0
 29 87  1  0  0  0  0
 30 89  1  0  0  0  0
 31 90  1  0  0  0  0
 32 72  2  0  0  0  0
 33 73  1  0  0  0  0
 33 76  1  0  0  0  0
 34 77  1  0  0  0  0
 34 82  2  0  0  0  0
 35 52  1  0  0  0  0
 35 78  1  0  0  0  0
 35 83  2  0  0  0  0
 36 69  1  0  0  0  0
 36 74  1  0  0  0  0
 36 84  2  0  0  0  0
 37 70  1  0  0  0  0
 37 79  1  0  0  0  0
 37 85  2  0  0  0  0
 38 75  1  0  0  0  0
 38 80  1  0  0  0  0
 38 86  2  0  0  0  0
 39 42  1  0  0  0  0
 40 52  1  0  0  0  0
 41 74  1  0  0  0  0
 42 44  1  0  0  0  0
 43 45  1  0  0  0  0
 43 48  1  0  0  0  0
 44 51  1  0  0  0  0
 45 54  1  0  0  0  0
 46 50  1  0  0  0  0
 46 53  1  0  0  0  0
 47 50  1  0  0  0  0
 47 55  1  0  0  0  0
 48 75  1  0  0  0  0
 49 54  1  0  0  0  0
 49 75  1  0  0  0  0
 51 78  1  0  0  0  0
 52 74  1  0  0  0  0
 53 55  1  0  0  0  0
 53 67  1  0  0  0  0
 54 73  1  0  0  0  0
 55 59  1  0  0  0  0
 55 60  1  0  0  0  0
 61 68  1  0  0  0  0
 62 70  1  0  0  0  0
 63 71  1  0  0  0  0
 64 71  1  0  0  0  0
 65 71  1  0  0  0  0
 66 81  1  0  0  0  0
 67 88  1  0  0  0  0
 68 80  1  0  0  0  0
 69 71  1  0  0  0  0
 69 79  1  0  0  0  0
 70 81  1  0  0  0  0
 72 73  1  0  0  0  0
M  CHG  1  81   1
M  ISO  4  38 100  67 101  80 100  88 101
M  END
> <Batch ID>
0164

> <Smiles>
CNC(C)C(=O)NC(C(=O)N1Cc2cc([101O:1][101CH2:1]C3CC(c4c(C)cc(C)c(C(C)[100NH:0][100C:0](=O)N5CCCC(n6nc(-c7ccc(Oc8ccc(F)cc8F)cc7)c(C(N)=O)c6N)C5)c4C)CC3(C)C)ccc2CC1C(=O)NC1CCCc2ccccc21)C(C)(C)C

> <Shape>
0.151

> <Color>
0.152

> <Negative vol penalty>
0.000

$$$$

  -OEChem-04052322193D

 86 95  0     1  0  0  0  0  0999 V2000
  -25.8101  -30.4900   23.4084 C   0  0  0  0  0  0  0  0  0  0  0  0
  -25.3392  -29.2379   23.7902 C   0  0  0  0  0  0  0  0  0  0  0  0
  -23.5165  -12.7529   19.3986 C   0  0  0  0  0  0  0  0  0  0  0  0
  -24.6043  -14.0314   21.1362 C   0  0  0  0  0  0  0  0  0  0  0  0
  -26.2398  -30.7024   22.0991 C   0  0  0  0  0  0  0  0  0  0  0  0
  -25.2967  -28.1976   22.8626 C   0  0  0  0  0  0  0  0  0  0  0  0
  -27.0482  -23.8376   24.7513 C   0  0  0  0  0  0  0  0  0  0  0  0
  -24.6422  -11.9358   19.2950 C   0  0  0  0  0  0  0  0  0  0  0  0
  -25.7300  -13.2142   21.0327 C   0  0  0  0  0  0  0  0  0  0  0  0
  -26.1957  -23.1176   25.5870 C   0  0  0  0  0  0  0  0  0  0  0  0
  -29.0288  -11.6895   20.9760 C   0  0  0  0  0  0  0  0  0  0  0  0
  -30.2789  -12.3077   20.9546 C   0  0  0  0  0  0  0  0  0  0  0  0
  -25.6286  -21.6647   23.7467 C   0  0  0  0  0  0  0  0  0  0  0  0
  -19.9445  -22.2492   23.9416 C   0  0  0  0  0  0  0  0  0  0  0  0
  -29.6485  -13.5136   18.9582 C   0  0  0  0  0  0  0  0  0  0  0  0
  -23.4976  -13.8007   20.3192 C   0  0  0  0  0  0  0  0  0  0  0  0
  -21.2204  -14.4552   21.2645 C   0  0  0  0  0  0  0  0  0  0  0  0
  -26.2116  -29.6616   21.1576 C   0  0  0  0  0  0  0  0  0  0  0  0
  -27.1893  -23.4827   23.4020 C   0  0  0  0  0  0  0  0  0  0  0  0
  -25.7251  -28.3967   21.5391 C   0  0  0  0  0  0  0  0  0  0  0  0
  -26.4856  -22.3802   22.8966 C   0  0  0  0  0  0  0  0  0  0  0  0
  -20.3899  -24.5777   24.3690 C   0  0  0  0  0  0  0  0  0  0  0  0
  -20.6022  -23.2357   24.6699 C   0  0  0  0  0  0  0  0  0  0  0  0
  -25.7490  -12.1664   20.1121 C   0  0  0  0  0  0  0  0  0  0  0  0
  -25.4835  -22.0327   25.0841 C   0  0  0  0  0  0  0  0  0  0  0  0
  -28.0885  -11.9832   19.9884 C   0  0  0  0  0  0  0  0  0  0  0  0
  -30.5888  -13.2198   19.9457 C   0  0  0  0  0  0  0  0  0  0  0  0
  -28.3983  -12.8952   18.9795 C   0  0  0  0  0  0  0  0  0  0  0  0
  -22.3353  -14.6455   20.4263 C   0  0  0  0  0  0  0  0  0  0  0  0
  -19.0843  -22.6324   22.9225 C   0  0  0  0  0  0  0  0  0  0  0  0
  -19.5185  -24.9021   23.3389 C   0  0  0  0  0  0  0  0  0  0  0  0
  -20.4005  -15.5232   20.9931 C   0  0  0  0  0  0  0  0  0  0  0  0
  -20.9501  -13.4068   22.2044 C   0  0  0  0  0  0  0  0  0  0  0  0
  -26.6063  -24.9253   20.6303 C   0  0  0  0  0  0  0  0  0  0  0  0
  -28.0346  -22.2850   19.4009 C   0  0  0  0  0  0  0  0  0  0  0  0
  -28.6791  -18.7370   19.2843 C   0  0  0  0  0  0  0  0  0  0  0  0
  -19.6535  -20.9806   20.0963 C   0  0  0  0  0  0  0  0  0  0  0  0
  -26.6422  -29.9519   19.7416 C   0  0  0  0  0  0  0  0  0  0  0  0
  -28.1334  -24.2531   22.5202 C   0  0  0  0  0  0  0  0  0  0  0  0
  -26.6174  -21.9459   21.4605 C   0  0  0  0  0  0  0  0  0  0  0  0
  -26.9158  -28.6957   18.9185 C   0  0  0  0  0  0  0  0  0  0  0  0
  -20.6115  -18.9830   17.3091 C   0  0  0  0  0  0  0  0  0  0  0  0
  -21.9040  -26.6709   24.3880 C   0  0  0  0  0  0  0  0  0  0  0  0
  -22.5863  -25.6356   25.2264 C   0  0  0  0  0  0  0  0  0  0  0  0
  -25.7925  -27.6805   19.1043 C   0  0  0  0  0  0  0  0  0  0  0  0
  -21.0590  -17.6638   17.9411 C   0  0  0  0  0  0  0  0  0  0  0  0
  -20.9956  -20.1819   18.1735 C   0  0  0  0  0  0  0  0  0  0  0  0
  -20.9866  -18.7881   20.2060 C   0  0  0  0  0  0  0  0  0  0  0  0
  -21.0842  -25.6550   25.1368 C   0  0  0  0  0  0  0  0  0  0  0  0
  -25.6868  -27.2365   20.5683 C   0  0  1  0  0  0  0  0  0  0  0  0
  -27.8079  -24.1195   21.0358 C   0  0  1  0  0  0  0  0  0  0  0  0
  -20.5721  -17.5465   19.3980 C   0  0  2  0  0  0  0  0  0  0  0  0
  -19.2238  -26.3037   22.9391 C   0  0  0  0  0  0  0  0  0  0  0  0
  -30.2158  -17.4054   17.8138 C   0  0  0  0  0  0  0  0  0  0  0  0
  -25.5666  -21.9212   17.6439 C   0  0  0  0  0  0  0  0  0  0  0  0
  -26.3113  -19.5715   17.2050 C   0  0  0  0  0  0  0  0  0  0  0  0
  -27.7422  -21.4857   16.4899 C   0  0  0  0  0  0  0  0  0  0  0  0
  -30.0484  -17.5279   21.6128 C   0  0  0  0  0  0  0  0  0  0  0  0
  -18.3454  -21.6411   22.0992 C   0  0  0  0  0  0  0  0  0  0  0  0
  -22.6696  -21.4219   27.2494 C   0  0  0  0  0  0  0  0  0  0  0  0
  -21.7282  -21.4908   26.0530 C   0  0  0  0  0  0  0  0  0  0  0  0
  -24.0339  -22.0410   26.9694 C   0  0  0  0  0  0  0  0  0  1  0  0
  -27.5597  -20.9253   18.9485 C   0  0  1  0  0  0  0  0  0  0  0  0
  -30.0346  -18.0628   19.1731 C   0  0  2  0  0  0  0  0  0  0  0  0
  -26.7908  -20.9851   17.5985 C   0  0  0  0  0  0  0  0  0  0  0  0
  -22.2359  -15.7476   19.6783 N   0  0  0  0  0  0  0  0  0  0  0  0
  -21.0487  -16.2594   20.0455 N   0  0  0  0  0  0  0  0  0  0  0  0
  -18.8982  -23.9319   22.6536 N   0  3  0  0  0  0  0  0  0  0  0  0
  -27.5480  -22.7348   20.6365 N   0  0  0  0  0  0  0  0  0  0  0  0
  -20.5028  -20.0087   19.5421 N   0  0  0  0  0  0  0  0  0  0  0  0
  -19.1955  -15.8950   21.4750 N   0  0  0  0  0  0  0  0  0  0  0  0
  -21.8992  -12.3873   22.3594 N   0  0  0  0  0  0  0  0  0  0  0  0
  -21.4635  -22.8620   25.6897 N   0  0  0  0  0  0  0  0  0  0  0  0
  -26.7254  -26.2788   20.8821 N   0  0  0  0  0  0  0  0  0  0  0  0
  -28.7395  -20.0674   18.9268 N   0  0  0  0  0  0  0  0  0  0  0  0
  -19.2272  -20.7363   21.3960 N   0  0  0  0  0  0  0  0  0  0  0  0
  -30.1806  -17.0166   20.2243 N   0  3  0  0  0  0  0  0  0  0  0  0
  -19.8906  -13.3664   22.8748 O   0  0  0  0  0  0  0  0  0  0  0  0
  -25.6430  -24.3611   20.1248 O   0  0  0  0  0  0  0  0  0  0  0  0
  -28.8143  -22.9215   18.6876 O   0  0  0  0  0  0  0  0  0  0  0  0
  -27.6671  -18.1421   19.6482 O   0  0  0  0  0  0  0  0  0  0  0  0
  -19.2970  -21.9886   19.4767 O   0  0  0  0  0  0  0  0  0  0  0  0
  -26.8475  -11.3691   20.0114 O   0  0  0  0  0  0  0  0  0  0  0  0
  -24.6501  -21.3286   25.8974 O   0  0  0  0  0  0  0  0  0  1  0  0
  -31.7888  -13.8146   19.9262 F   0  0  0  0  0  0  0  0  0  0  0  0
  -27.4986  -13.1823   18.0288 F   0  0  0  0  0  0  0  0  0  0  0  0
  1  2  1  0  0  0  0
  1  5  2  0  0  0  0
  2  6  2  0  0  0  0
  3  8  2  0  0  0  0
  3 16  1  0  0  0  0
  4  9  1  0  0  0  0
  4 16  2  0  0  0  0
  5 18  1  0  0  0  0
  6 20  1  0  0  0  0
  7 10  2  0  0  0  0
  7 19  1  0  0  0  0
  8 24  1  0  0  0  0
  9 24  2  0  0  0  0
 10 25  1  0  0  0  0
 11 12  2  0  0  0  0
 11 26  1  0  0  0  0
 12 27  1  0  0  0  0
 13 21  1  0  0  0  0
 13 25  2  0  0  0  0
 14 23  1  0  0  0  0
 14 30  2  0  0  0  0
 15 27  2  0  0  0  0
 15 28  1  0  0  0  0
 16 29  1  0  0  0  0
 17 29  1  0  0  0  0
 17 32  2  0  0  0  0
 17 33  1  0  0  0  0
 18 20  2  0  0  0  0
 18 38  1  0  0  0  0
 19 21  2  0  0  0  0
 19 39  1  0  0  0  0
 20 50  1  0  0  0  0
 21 40  1  0  0  0  0
 22 23  2  0  0  0  0
 22 31  1  0  0  0  0
 22 49  1  0  0  0  0
 23 73  1  0  0  0  0
 24 83  1  0  0  0  0
 25 84  1  0  0  0  0
 26 28  2  0  0  0  0
 26 83  1  0  0  0  0
 27 85  1  0  0  0  0
 28 86  1  0  0  0  0
 29 66  2  0  0  0  0
 30 59  1  0  0  0  0
 30 68  1  0  0  0  0
 31 53  1  0  0  0  0
 31 68  2  0  0  0  0
 32 67  1  0  0  0  0
 32 71  1  0  0  0  0
 33 72  1  0  0  0  0
 33 78  2  0  0  0  0
 34 51  1  0  0  0  0
 34 74  1  0  0  0  0
 34 79  2  0  0  0  0
 35 63  1  0  0  0  0
 35 69  1  0  0  0  0
 35 80  2  0  0  0  0
 36 64  1  0  0  0  0
 36 75  1  0  0  0  0
 36 81  2  0  0  0  0
 37 70  1  0  0  0  0
 37 76  1  0  0  0  0
 37 82  2  0  0  0  0
 38 41  1  0  0  0  0
 39 51  1  0  0  0  0
 40 69  1  0  0  0  0
 41 45  1  0  0  0  0
 42 46  1  0  0  0  0
 42 47  1  0  0  0  0
 43 44  1  0  0  0  0
 43 49  1  0  0  0  0
 44 49  1  0  0  0  0
 45 50  1  0  0  0  0
 46 52  1  0  0  0  0
 47 70  1  0  0  0  0
 48 52  1  0  0  0  0
 48 70  1  0  0  0  0
 50 74  1  0  0  0  0
 51 69  1  0  0  0  0
 52 67  1  0  0  0  0
 54 64  1  0  0  0  0
 55 65  1  0  0  0  0
 56 65  1  0  0  0  0
 57 65  1  0  0  0  0
 58 77  1  0  0  0  0
 59 76  1  0  0  0  0
 60 61  1  0  0  0  0
 60 62  1  0  0  0  0
 61 73  1  0  0  0  0
 62 84  1  0  0  0  0
 63 65  1  0  0  0  0
 63 75  1  0  0  0  0
 64 77  1  0  0  0  0
 66 67  1  0  0  0  0
M  CHG  2  68   1  77   1
M  ISO  4  37 100  62 101  76 100  84 101
M  END
> <Batch ID>
0164

> <Smiles>
CNC(C)C(=O)NC(C(=O)N1Cc2cc([101O:1][101CH2:1]CCNc3cc(C[100NH:0][100C:0](=O)N4CCCC(n5nc(-c6ccc(Oc7ccc(F)cc7F)cc6)c(C(N)=O)c5N)C4)nc(C)c3C3CC3)ccc2CC1C(=O)NC1CCCc2ccccc21)C(C)(C)C

> <Shape>
0.192

> <Color>
0.081

> <Negative vol penalty>
0.000

$$$$

  -OEChem-04052322193D

 88 97  0     1  0  0  0  0  0999 V2000
  -18.1306  -30.0495   25.7013 C   0  0  0  0  0  0  0  0  0  0  0  0
  -19.5184  -30.0009   25.7854 C   0  0  0  0  0  0  0  0  0  0  0  0
  -25.1583  -14.7356   18.8251 C   0  0  0  0  0  0  0  0  0  0  0  0
  -23.6836  -14.6900   20.7383 C   0  0  0  0  0  0  0  0  0  0  0  0
  -17.4705  -29.3612   24.6843 C   0  0  0  0  0  0  0  0  0  0  0  0
  -20.2469  -29.2630   24.8531 C   0  0  0  0  0  0  0  0  0  0  0  0
  -26.5213  -29.2745   21.3966 C   0  0  0  0  0  0  0  0  0  0  0  0
  -25.6120  -13.4558   19.1443 C   0  0  0  0  0  0  0  0  0  0  0  0
  -24.1372  -13.4102   21.0575 C   0  0  0  0  0  0  0  0  0  0  0  0
  -27.6126  -28.4448   21.1425 C   0  0  0  0  0  0  0  0  0  0  0  0
  -23.5997  -10.2442   20.0048 C   0  0  0  0  0  0  0  0  0  0  0  0
  -22.6453   -9.2871   20.3491 C   0  0  0  0  0  0  0  0  0  0  0  0
  -26.3703  -27.3604   19.3818 C   0  0  0  0  0  0  0  0  0  0  0  0
  -23.6861   -9.0279   22.5140 C   0  0  0  0  0  0  0  0  0  0  0  0
  -24.1941  -15.3527   19.6221 C   0  0  0  0  0  0  0  0  0  0  0  0
  -22.6385  -17.0097   18.4636 C   0  0  0  0  0  0  0  0  0  0  0  0
  -18.1918  -28.6224   23.7333 C   0  0  0  0  0  0  0  0  0  0  0  0
  -25.3405  -29.1459   20.6512 C   0  0  0  0  0  0  0  0  0  0  0  0
  -19.5957  -28.5631   23.8232 C   0  0  0  0  0  0  0  0  0  0  0  0
  -25.2664  -28.1914   19.6267 C   0  0  0  0  0  0  0  0  0  0  0  0
  -31.9492  -22.9594   18.8618 C   0  0  0  0  0  0  0  0  0  0  0  0
  -33.2876  -24.7556   19.7481 C   0  0  0  0  0  0  0  0  0  0  0  0
  -32.0443  -24.2433   19.3899 C   0  0  0  0  0  0  0  0  0  0  0  0
  -25.1014  -12.7931   20.2604 C   0  0  0  0  0  0  0  0  0  0  0  0
  -27.5361  -27.4856   20.1369 C   0  0  0  0  0  0  0  0  0  0  0  0
  -24.5974  -10.5932   20.9151 C   0  0  0  0  0  0  0  0  0  0  0  0
  -22.6884   -8.6790   21.6037 C   0  0  0  0  0  0  0  0  0  0  0  0
  -24.6405   -9.9851   22.1697 C   0  0  0  0  0  0  0  0  0  0  0  0
  -23.7254  -16.6750   19.2933 C   0  0  0  0  0  0  0  0  0  0  0  0
  -33.1090  -22.2141   18.7040 C   0  0  0  0  0  0  0  0  0  0  0  0
  -34.4135  -23.9648   19.5681 C   0  0  0  0  0  0  0  0  0  0  0  0
  -22.6085  -18.3829   18.4743 C   0  0  0  0  0  0  0  0  0  0  0  0
  -21.7365  -16.1558   17.7475 C   0  0  0  0  0  0  0  0  0  0  0  0
  -22.3241  -28.4137   21.3360 C   0  0  0  0  0  0  0  0  0  0  0  0
  -21.8449  -29.1541   18.2144 C   0  0  0  0  0  0  0  0  0  0  0  0
  -23.1501  -29.4601   15.0759 C   0  0  0  0  0  0  0  0  0  0  0  0
  -26.6103  -22.5839   19.3590 C   0  0  0  0  0  0  0  0  0  0  0  0
  -17.4313  -27.8562   22.6801 C   0  0  0  0  0  0  0  0  0  0  0  0
  -24.1818  -30.0665   20.9198 C   0  0  0  0  0  0  0  0  0  0  0  0
  -24.0288  -28.0267   18.7843 C   0  0  0  0  0  0  0  0  0  0  0  0
  -18.3004  -27.4031   21.5098 C   0  0  0  0  0  0  0  0  0  0  0  0
  -23.7221  -22.1405   21.2056 C   0  0  0  0  0  0  0  0  0  0  0  0
  -19.5960  -26.7782   22.0176 C   0  0  0  0  0  0  0  0  0  0  0  0
  -23.2775  -20.7220   20.8498 C   0  0  0  0  0  0  0  0  0  0  0  0
  -29.9622  -21.5729   19.6042 C   0  0  0  0  0  0  0  0  0  0  0  0
  -29.6400  -23.4565   17.9436 C   0  0  0  0  0  0  0  0  0  0  0  0
  -25.2344  -22.2100   21.3833 C   0  0  0  0  0  0  0  0  0  0  0  0
  -28.5938  -21.0147   19.2033 C   0  0  0  0  0  0  0  0  0  0  0  0
  -28.2959  -22.8416   17.5643 C   0  0  0  0  0  0  0  0  0  0  0  0
  -25.5707  -20.3185   19.8254 C   0  0  0  0  0  0  0  0  0  0  0  0
  -30.6073  -22.3763   18.4606 C   0  0  0  0  0  0  0  0  0  0  0  0
  -20.4225  -27.7937   22.8159 C   0  0  1  0  0  0  0  0  0  0  0  0
  -22.8473  -29.5024   20.4422 C   0  0  1  0  0  0  0  0  0  0  0  0
  -24.0465  -20.1919   19.6267 C   0  0  1  0  0  0  0  0  0  0  0  0
  -33.4181  -26.1309   20.3164 C   0  0  0  0  0  0  0  0  0  0  0  0
  -33.1134  -20.8341   18.1506 C   0  0  0  0  0  0  0  0  0  0  0  0
  -35.7852  -24.4190   19.9184 C   0  0  0  0  0  0  0  0  0  0  0  0
  -22.5050  -30.0466   12.7228 C   0  0  0  0  0  0  0  0  0  0  0  0
  -20.5187  -26.4242   17.9000 C   0  0  0  0  0  0  0  0  0  0  0  0
  -20.7605  -26.6699   15.4202 C   0  0  0  0  0  0  0  0  0  0  0  0
  -19.3622  -28.2900   16.7018 C   0  0  0  0  0  0  0  0  0  0  0  0
  -25.0214  -31.7519   15.0109 C   0  0  0  0  0  0  0  0  0  0  0  0
  -30.1060  -25.0084   20.7622 C   0  0  0  0  0  0  0  0  0  0  0  0
  -29.4511  -26.3609   20.9878 C   0  0  0  0  0  0  0  0  0  1  0  0
  -21.8796  -28.3851   16.9157 C   0  0  1  0  0  0  0  0  0  0  0  0
  -23.0448  -30.5694   14.0450 C   0  0  2  0  0  0  0  0  0  0  0  0
  -20.6530  -27.4438   16.7514 C   0  0  0  0  0  0  0  0  0  0  0  0
  -24.3415  -17.7489   19.7944 N   0  0  0  0  0  0  0  0  0  0  0  0
  -23.6394  -18.7719   19.2781 N   0  0  0  0  0  0  0  0  0  0  0  0
  -34.2934  -22.7318   19.0573 N   0  3  0  0  0  0  0  0  0  0  0  0
  -22.9203  -28.9462   19.0896 N   0  0  0  0  0  0  0  0  0  0  0  0
  -25.9280  -21.6947   20.2030 N   0  0  0  0  0  0  0  0  0  0  0  0
  -27.7307  -22.0825   18.6795 N   0  0  0  0  0  0  0  0  0  0  0  0
  -21.8013  -19.2833   17.8745 N   0  0  0  0  0  0  0  0  0  0  0  0
  -21.9091  -14.7685   17.8465 N   0  0  0  0  0  0  0  0  0  0  0  0
  -30.8790  -25.0259   19.5614 N   0  0  0  0  0  0  0  0  0  0  0  0
  -21.1065  -28.7031   21.9217 N   0  0  0  0  0  0  0  0  0  0  0  0
  -22.0163  -29.3789   15.8564 N   0  0  0  0  0  0  0  0  0  0  0  0
  -24.3833  -31.1766   13.7990 N   0  3  0  0  0  0  0  0  0  0  0  0
  -20.8151  -16.6100   17.0275 O   0  0  0  0  0  0  0  0  0  0  0  0
  -22.9762  -27.3865   21.4821 O   0  0  0  0  0  0  0  0  0  0  0  0
  -20.9021  -29.9167   18.4406 O   0  0  0  0  0  0  0  0  0  0  0  0
  -24.1377  -28.7354   15.1762 O   0  0  0  0  0  0  0  0  0  0  0  0
  -26.2404  -23.7565   19.2197 O   0  0  0  0  0  0  0  0  0  0  0  0
  -25.5437  -11.5442   20.5721 O   0  0  0  0  0  0  0  0  0  0  0  0
  -28.6070  -26.6684   19.8855 O   0  0  0  0  0  0  0  0  0  1  0  0
  -21.7709   -7.7610   21.9348 F   0  0  0  0  0  0  0  0  0  0  0  0
  -25.5959  -10.3171   23.0488 F   0  0  0  0  0  0  0  0  0  0  0  0
  1  2  1  0  0  0  0
  1  5  2  0  0  0  0
  2  6  2  0  0  0  0
  3  8  2  0  0  0  0
  3 15  1  0  0  0  0
  4  9  1  0  0  0  0
  4 15  2  0  0  0  0
  5 17  1  0  0  0  0
  6 19  1  0  0  0  0
  7 10  2  0  0  0  0
  7 18  1  0  0  0  0
  8 24  1  0  0  0  0
  9 24  2  0  0  0  0
 10 25  1  0  0  0  0
 11 12  2  0  0  0  0
 11 26  1  0  0  0  0
 12 27  1  0  0  0  0
 13 20  1  0  0  0  0
 13 25  2  0  0  0  0
 14 27  2  0  0  0  0
 14 28  1  0  0  0  0
 15 29  1  0  0  0  0
 16 29  1  0  0  0  0
 16 32  2  0  0  0  0
 16 33  1  0  0  0  0
 17 19  2  0  0  0  0
 17 38  1  0  0  0  0
 18 20  2  0  0  0  0
 18 39  1  0  0  0  0
 19 52  1  0  0  0  0
 20 40  1  0  0  0  0
 21 23  2  0  0  0  0
 21 30  1  0  0  0  0
 21 51  1  0  0  0  0
 22 23  1  0  0  0  0
 22 31  2  0  0  0  0
 22 55  1  0  0  0  0
 23 76  1  0  0  0  0
 24 85  1  0  0  0  0
 25 86  1  0  0  0  0
 26 28  2  0  0  0  0
 26 85  1  0  0  0  0
 27 87  1  0  0  0  0
 28 88  1  0  0  0  0
 29 68  2  0  0  0  0
 30 56  1  0  0  0  0
 30 70  2  0  0  0  0
 31 57  1  0  0  0  0
 31 70  1  0  0  0  0
 32 69  1  0  0  0  0
 32 74  1  0  0  0  0
 33 75  1  0  0  0  0
 33 80  2  0  0  0  0
 34 53  1  0  0  0  0
 34 77  1  0  0  0  0
 34 81  2  0  0  0  0
 35 65  1  0  0  0  0
 35 71  1  0  0  0  0
 35 82  2  0  0  0  0
 36 66  1  0  0  0  0
 36 78  1  0  0  0  0
 36 83  2  0  0  0  0
 37 72  1  0  0  0  0
 37 73  1  0  0  0  0
 37 84  2  0  0  0  0
 38 41  1  0  0  0  0
 39 53  1  0  0  0  0
 40 71  1  0  0  0  0
 41 43  1  0  0  0  0
 42 44  1  0  0  0  0
 42 47  1  0  0  0  0
 43 52  1  0  0  0  0
 44 54  1  0  0  0  0
 45 48  1  0  0  0  0
 45 51  1  0  0  0  0
 46 49  1  0  0  0  0
 46 51  1  0  0  0  0
 47 72  1  0  0  0  0
 48 73  1  0  0  0  0
 49 73  1  0  0  0  0
 50 54  1  0  0  0  0
 50 72  1  0  0  0  0
 52 77  1  0  0  0  0
 53 71  1  0  0  0  0
 54 69  1  0  0  0  0
 58 66  1  0  0  0  0
 59 67  1  0  0  0  0
 60 67  1  0  0  0  0
 61 67  1  0  0  0  0
 62 79  1  0  0  0  0
 63 64  1  0  0  0  0
 63 76  1  0  0  0  0
 64 86  1  0  0  0  0
 65 67  1  0  0  0  0
 65 78  1  0  0  0  0
 66 79  1  0  0  0  0
 68 69  1  0  0  0  0
M  CHG  2  70   1  79   1
M  ISO  4  37 100  64 101  73 100  86 101
M  END
> <Batch ID>
0164

> <Smiles>
CNC(C)C(=O)NC(C(=O)N1Cc2cc([101O:1][101CH2:1]CNc3c(C)c(C)nc(C)c3C3CC[100N:0]([100C:0](=O)N4CCCC(n5nc(-c6ccc(Oc7ccc(F)cc7F)cc6)c(C(N)=O)c5N)C4)CC3)ccc2CC1C(=O)NC1CCCc2ccccc21)C(C)(C)C

> <Shape>
0.226

> <Color>
0.092

> <Negative vol penalty>
0.000

$$$$

  -OEChem-04052322193D

 84 92  0     1  0  0  0  0  0999 V2000
  -17.0123  -29.3972   24.6216 C   0  0  0  0  0  0  0  0  0  0  0  0
  -17.0940  -28.1746   23.9628 C   0  0  0  0  0  0  0  0  0  0  0  0
  -27.0604  -13.7764   22.4326 C   0  0  0  0  0  0  0  0  0  0  0  0
  -26.8665  -12.9718   20.1628 C   0  0  0  0  0  0  0  0  0  0  0  0
  -17.8141  -30.4625   24.2136 C   0  0  0  0  0  0  0  0  0  0  0  0
  -17.9767  -28.0169   22.8949 C   0  0  0  0  0  0  0  0  0  0  0  0
  -21.0913  -22.9574   21.4095 C   0  0  0  0  0  0  0  0  0  0  0  0
  -26.4378  -12.6177   22.8966 C   0  0  0  0  0  0  0  0  0  0  0  0
  -26.2439  -11.8130   20.6268 C   0  0  0  0  0  0  0  0  0  0  0  0
  -20.8590  -21.9553   20.4684 C   0  0  0  0  0  0  0  0  0  0  0  0
  -23.1701  -10.8920   21.6918 C   0  0  0  0  0  0  0  0  0  0  0  0
  -22.0314  -10.4533   21.0163 C   0  0  0  0  0  0  0  0  0  0  0  0
  -22.3130  -23.0881   18.9122 C   0  0  0  0  0  0  0  0  0  0  0  0
  -23.1378   -8.3670   20.5062 C   0  0  0  0  0  0  0  0  0  0  0  0
  -20.6632  -19.5998   14.1812 C   0  0  0  0  0  0  0  0  0  0  0  0
  -27.2747  -13.9535   21.0657 C   0  0  0  0  0  0  0  0  0  0  0  0
  -29.2967  -15.3567   20.3946 C   0  0  0  0  0  0  0  0  0  0  0  0
  -18.7140  -30.3149   23.1464 C   0  0  0  0  0  0  0  0  0  0  0  0
  -21.9290  -24.0399   21.1045 C   0  0  0  0  0  0  0  0  0  0  0  0
  -18.7902  -29.0816   22.4714 C   0  0  0  0  0  0  0  0  0  0  0  0
  -22.5564  -24.1013   19.8520 C   0  0  0  0  0  0  0  0  0  0  0  0
  -20.6890  -18.8680   16.4440 C   0  0  0  0  0  0  0  0  0  0  0  0
  -19.3755  -18.4392   16.2884 C   0  0  0  0  0  0  0  0  0  0  0  0
  -26.0296  -11.6359   21.9937 C   0  0  0  0  0  0  0  0  0  0  0  0
  -21.4676  -22.0220   19.2185 C   0  0  0  0  0  0  0  0  0  0  0  0
  -24.2928  -10.0683   21.7744 C   0  0  0  0  0  0  0  0  0  0  0  0
  -21.3522  -19.4605   15.3752 C   0  0  0  0  0  0  0  0  0  0  0  0
  -22.0152   -9.1908   20.4235 C   0  0  0  0  0  0  0  0  0  0  0  0
  -24.2766   -8.8058   21.1816 C   0  0  0  0  0  0  0  0  0  0  0  0
  -27.9173  -15.1505   20.5857 C   0  0  0  0  0  0  0  0  0  0  0  0
  -18.7749  -18.6245   15.0536 C   0  0  0  0  0  0  0  0  0  0  0  0
  -29.3900  -16.6454   19.9289 C   0  0  0  0  0  0  0  0  0  0  0  0
  -30.3955  -14.4631   20.6180 C   0  0  0  0  0  0  0  0  0  0  0  0
  -21.5383  -27.1869   20.8869 C   0  0  0  0  0  0  0  0  0  0  0  0
  -24.7565  -27.1661   20.4802 C   0  0  0  0  0  0  0  0  0  0  0  0
  -27.5464  -25.4421   19.5363 C   0  0  0  0  0  0  0  0  0  0  0  0
  -25.3815  -19.9610   17.0067 C   0  0  0  0  0  0  0  0  0  0  0  0
  -19.5260  -31.5090   22.7111 C   0  0  0  0  0  0  0  0  0  0  0  0
  -22.1905  -25.0988   22.1402 C   0  0  0  0  0  0  0  0  0  0  0  0
  -23.4804  -25.2318   19.4825 C   0  0  0  0  0  0  0  0  0  0  0  0
  -20.7054  -31.1483   21.8115 C   0  0  0  0  0  0  0  0  0  0  0  0
  -27.1909  -20.8695   20.1017 C   0  0  0  0  0  0  0  0  0  0  0  0
  -20.2670  -30.1765   20.7205 C   0  0  0  0  0  0  0  0  0  0  0  0
  -27.6531  -19.4976   20.5823 C   0  0  0  0  0  0  0  0  0  0  0  0
  -25.8428  -20.8043   19.3848 C   0  0  0  0  0  0  0  0  0  0  0  0
  -26.2788  -18.4474   18.7446 C   0  0  0  0  0  0  0  0  0  0  0  0
  -19.7533  -28.8640   21.3246 C   0  0  1  0  0  0  0  0  0  0  0  0
  -22.6552  -26.4214   21.5383 C   0  0  1  0  0  0  0  0  0  0  0  0
  -27.6567  -18.4914   19.4219 C   0  0  2  0  0  0  0  0  0  0  0  0
  -18.6379  -17.7988   17.4161 C   0  0  0  0  0  0  0  0  0  0  0  0
  -17.3649  -18.1859   14.8268 C   0  0  0  0  0  0  0  0  0  0  0  0
  -29.9864  -24.9764   19.1801 C   0  0  0  0  0  0  0  0  0  0  0  0
  -24.3181  -28.7727   17.9236 C   0  0  0  0  0  0  0  0  0  0  0  0
  -26.6536  -28.1868   17.2377 C   0  0  0  0  0  0  0  0  0  0  0  0
  -26.2615  -29.5234   19.3071 C   0  0  0  0  0  0  0  0  0  0  0  0
  -27.8505  -24.3282   22.2613 C   0  0  0  0  0  0  0  0  0  0  0  0
  -21.3988  -18.6954   17.7649 C   0  0  0  0  0  0  0  0  0  0  0  0
  -24.3630  -21.5623   15.3608 C   0  0  0  0  0  0  0  0  0  0  0  0
  -20.9698  -19.7356   18.7940 C   0  0  0  0  0  0  0  0  0  1  0  0
  -22.8749  -21.2829   15.2489 C   0  0  0  0  0  0  0  0  0  0  0  0
  -25.6834  -27.0622   19.2932 C   0  0  1  0  0  0  0  0  0  0  0  0
  -28.9004  -25.2747   20.2020 C   0  0  2  0  0  0  0  0  0  0  0  0
  -25.7103  -28.3658   18.4464 C   0  0  0  0  0  0  0  0  0  0  0  0
  -19.3871  -19.1957   13.9922 N   0  0  0  0  0  0  0  0  0  0  0  0
  -27.1868  -16.2225   20.2676 N   0  0  0  0  0  0  0  0  0  0  0  0
  -28.1106  -17.1147   19.8720 N   0  0  0  0  0  0  0  0  0  0  0  0
  -23.6995  -26.2462   20.5268 N   0  0  0  0  0  0  0  0  0  0  0  0
  -25.8380  -19.7834   18.3250 N   0  0  0  0  0  0  0  0  0  0  0  0
  -30.4407  -17.4117   19.5667 N   0  0  0  0  0  0  0  0  0  0  0  0
  -30.1222  -13.1752   21.0987 N   0  0  0  0  0  0  0  0  0  0  0  0
  -20.8614  -28.0331   21.7443 N   0  0  0  0  0  0  0  0  0  0  0  0
  -26.9838  -26.6676   19.8241 N   0  0  0  0  0  0  0  0  0  0  0  0
  -24.8859  -21.2247   16.7005 N   0  0  0  0  0  0  0  0  0  0  0  0
  -28.8595  -24.1551   21.1848 N   0  3  0  0  0  0  0  0  0  0  0  0
  -31.5857  -14.8023   20.4134 O   0  0  0  0  0  0  0  0  0  0  0  0
  -21.3088  -27.0231   19.6944 O   0  0  0  0  0  0  0  0  0  0  0  0
  -24.9669  -28.0270   21.3382 O   0  0  0  0  0  0  0  0  0  0  0  0
  -27.0403  -24.5741   18.8285 O   0  0  0  0  0  0  0  0  0  0  0  0
  -25.4043  -19.0607   16.1604 O   0  0  0  0  0  0  0  0  0  0  0  0
  -25.4223  -10.5050   22.4461 O   0  0  0  0  0  0  0  0  0  0  0  0
  -21.2421  -21.0456   18.2979 O   0  0  0  0  0  0  0  0  0  1  0  0
  -22.6343  -19.8940   15.4802 O   0  0  0  0  0  0  0  0  0  0  0  0
  -20.9210   -8.7690   19.7761 F   0  0  0  0  0  0  0  0  0  0  0  0
  -25.3516   -8.0094   21.2587 F   0  0  0  0  0  0  0  0  0  0  0  0
  1  2  1  0  0  0  0
  1  5  2  0  0  0  0
  2  6  2  0  0  0  0
  3  8  2  0  0  0  0
  3 16  1  0  0  0  0
  4  9  1  0  0  0  0
  4 16  2  0  0  0  0
  5 18  1  0  0  0  0
  6 20  1  0  0  0  0
  7 10  2  0  0  0  0
  7 19  1  0  0  0  0
  8 24  1  0  0  0  0
  9 24  2  0  0  0  0
 10 25  1  0  0  0  0
 11 12  2  0  0  0  0
 11 26  1  0  0  0  0
 12 28  1  0  0  0  0
 13 21  1  0  0  0  0
 13 25  2  0  0  0  0
 14 28  2  0  0  0  0
 14 29  1  0  0  0  0
 15 27  2  0  0  0  0
 15 64  1  0  0  0  0
 16 30  1  0  0  0  0
 17 30  1  0  0  0  0
 17 32  2  0  0  0  0
 17 33  1  0  0  0  0
 18 20  2  0  0  0  0
 18 38  1  0  0  0  0
 19 21  2  0  0  0  0
 19 39  1  0  0  0  0
 20 47  1  0  0  0  0
 21 40  1  0  0  0  0
 22 23  2  0  0  0  0
 22 27  1  0  0  0  0
 22 57  1  0  0  0  0
 23 31  1  0  0  0  0
 23 50  1  0  0  0  0
 24 80  1  0  0  0  0
 25 81  1  0  0  0  0
 26 29  2  0  0  0  0
 26 80  1  0  0  0  0
 27 82  1  0  0  0  0
 28 83  1  0  0  0  0
 29 84  1  0  0  0  0
 30 65  2  0  0  0  0
 31 51  1  0  0  0  0
 31 64  2  0  0  0  0
 32 66  1  0  0  0  0
 32 69  1  0  0  0  0
 33 70  1  0  0  0  0
 33 75  2  0  0  0  0
 34 48  1  0  0  0  0
 34 71  1  0  0  0  0
 34 76  2  0  0  0  0
 35 61  1  0  0  0  0
 35 67  1  0  0  0  0
 35 77  2  0  0  0  0
 36 62  1  0  0  0  0
 36 72  1  0  0  0  0
 36 78  2  0  0  0  0
 37 68  1  0  0  0  0
 37 73  1  0  0  0  0
 37 79  2  0  0  0  0
 38 41  1  0  0  0  0
 39 48  1  0  0  0  0
 40 67  1  0  0  0  0
 41 43  1  0  0  0  0
 42 44  1  0  0  0  0
 42 45  1  0  0  0  0
 43 47  1  0  0  0  0
 44 49  1  0  0  0  0
 45 68  1  0  0  0  0
 46 49  1  0  0  0  0
 46 68  1  0  0  0  0
 47 71  1  0  0  0  0
 48 67  1  0  0  0  0
 49 66  1  0  0  0  0
 52 62  1  0  0  0  0
 53 63  1  0  0  0  0
 54 63  1  0  0  0  0
 55 63  1  0  0  0  0
 56 74  1  0  0  0  0
 57 59  1  0  0  0  0
 58 60  1  0  0  0  0
 58 73  1  0  0  0  0
 59 81  1  0  0  0  0
 60 82  1  0  0  0  0
 61 63  1  0  0  0  0
 61 72  1  0  0  0  0
 62 74  1  0  0  0  0
 65 66  1  0  0  0  0
M  CHG  1  74   1
M  ISO  4  37 100  59 101  73 100  81 101
M  END
> <Batch ID>
0164

> <Smiles>
CNC(C)C(=O)NC(C(=O)N1Cc2cc([101O:1][101CH2:1]Cc3c(OCC[100NH:0][100C:0](=O)N4CCCC(n5nc(-c6ccc(Oc7ccc(F)cc7F)cc6)c(C(N)=O)c5N)C4)cnc(C)c3C)ccc2CC1C(=O)NC1CCCc2ccccc21)C(C)(C)C

> <Shape>
0.196

> <Color>
0.069

> <Negative vol penalty>
0.000

$$$$

  -OEChem-04052322193D

 89 99  0     1  0  0  0  0  0999 V2000
  -18.1972  -33.1288   24.5703 C   0  0  0  0  0  0  0  0  0  0  0  0
  -19.5773  -33.0226   24.7095 C   0  0  0  0  0  0  0  0  0  0  0  0
  -27.0496  -12.7731   18.1008 C   0  0  0  0  0  0  0  0  0  0  0  0
  -27.0419  -11.5784   20.2008 C   0  0  0  0  0  0  0  0  0  0  0  0
  -17.4568  -32.0356   24.1222 C   0  0  0  0  0  0  0  0  0  0  0  0
  -20.2178  -31.8228   24.4018 C   0  0  0  0  0  0  0  0  0  0  0  0
  -26.3871  -29.3012   21.7755 C   0  0  0  0  0  0  0  0  0  0  0  0
  -28.0393  -11.9173   17.6175 C   0  0  0  0  0  0  0  0  0  0  0  0
  -28.0316  -10.7225   19.7174 C   0  0  0  0  0  0  0  0  0  0  0  0
  -27.3970  -28.3909   22.0840 C   0  0  0  0  0  0  0  0  0  0  0  0
  -30.3109   -9.8229   15.7023 C   0  0  0  0  0  0  0  0  0  0  0  0
  -30.1593   -9.3205   14.4099 C   0  0  0  0  0  0  0  0  0  0  0  0
  -26.0253  -26.5935   21.2430 C   0  0  0  0  0  0  0  0  0  0  0  0
  -29.3049  -23.7661   20.3679 C   0  0  0  0  0  0  0  0  0  0  0  0
  -28.0745   -8.2851   15.0570 C   0  0  0  0  0  0  0  0  0  0  0  0
  -26.5509  -12.6037   19.3925 C   0  0  0  0  0  0  0  0  0  0  0  0
  -24.1350  -13.3190   19.7916 C   0  0  0  0  0  0  0  0  0  0  0  0
  -18.0896  -30.8248   23.7996 C   0  0  0  0  0  0  0  0  0  0  0  0
  -25.1824  -28.8624   21.2075 C   0  0  0  0  0  0  0  0  0  0  0  0
  -19.4850  -30.7120   23.9503 C   0  0  0  0  0  0  0  0  0  0  0  0
  -25.0028  -27.5006   20.9259 C   0  0  0  0  0  0  0  0  0  0  0  0
  -29.0552  -23.1980   19.1251 C   0  0  0  0  0  0  0  0  0  0  0  0
  -29.6942  -23.6882   17.9794 C   0  0  0  0  0  0  0  0  0  0  0  0
  -28.5303  -10.8920   18.4258 C   0  0  0  0  0  0  0  0  0  0  0  0
  -27.2151  -27.0364   21.8204 C   0  0  0  0  0  0  0  0  0  0  0  0
  -29.3443   -9.5564   16.6720 C   0  0  0  0  0  0  0  0  0  0  0  0
  -29.0411   -8.5516   14.0873 C   0  0  0  0  0  0  0  0  0  0  0  0
  -28.2261   -8.7875   16.3494 C   0  0  0  0  0  0  0  0  0  0  0  0
  -25.5289  -13.4878   19.8925 C   0  0  0  0  0  0  0  0  0  0  0  0
  -30.5795  -24.7595   18.1440 C   0  0  0  0  0  0  0  0  0  0  0  0
  -30.1955  -24.8204   20.4260 C   0  0  0  0  0  0  0  0  0  0  0  0
  -23.6092  -14.4223   20.4184 C   0  0  0  0  0  0  0  0  0  0  0  0
  -23.3826  -12.2596   19.1856 C   0  0  0  0  0  0  0  0  0  0  0  0
  -22.1313  -28.9187   22.0972 C   0  0  0  0  0  0  0  0  0  0  0  0
  -21.6439  -27.7446   19.1129 C   0  0  0  0  0  0  0  0  0  0  0  0
  -22.8963  -26.0602   16.4219 C   0  0  0  0  0  0  0  0  0  0  0  0
  -25.5127  -19.8802   21.4350 C   0  0  0  0  0  0  0  0  0  0  0  0
  -17.2417  -29.6560   23.3643 C   0  0  0  0  0  0  0  0  0  0  0  0
  -24.1134  -29.8604   20.8559 C   0  0  0  0  0  0  0  0  0  0  0  0
  -23.7361  -26.9809   20.2982 C   0  0  0  0  0  0  0  0  0  0  0  0
  -31.2622  -25.4028   16.9666 C   0  0  0  0  0  0  0  0  0  0  0  0
  -18.0411  -28.5368   22.7019 C   0  0  0  0  0  0  0  0  0  0  0  0
  -31.2749  -24.5312   15.7152 C   0  0  0  0  0  0  0  0  0  0  0  0
  -24.5671  -17.5997   23.8544 C   0  0  0  0  0  0  0  0  0  0  0  0
  -29.8907  -23.9416   15.4675 C   0  0  0  0  0  0  0  0  0  0  0  0
  -19.2900  -28.2179   23.5176 C   0  0  0  0  0  0  0  0  0  0  0  0
  -24.5649  -16.2632   23.1128 C   0  0  0  0  0  0  0  0  0  0  0  0
  -28.5109  -20.8426   19.8849 C   0  0  0  0  0  0  0  0  0  0  0  0
  -26.6449  -22.5096   19.4990 C   0  0  0  0  0  0  0  0  0  0  0  0
  -25.7622  -18.4509   23.4414 C   0  0  0  0  0  0  0  0  0  0  0  0
  -27.4790  -19.7117   19.8456 C   0  0  0  0  0  0  0  0  0  0  0  0
  -25.6643  -21.3418   19.4427 C   0  0  0  0  0  0  0  0  0  0  0  0
  -25.8428  -17.3756   21.2154 C   0  0  0  0  0  0  0  0  0  0  0  0
  -28.0521  -22.0615   19.0643 C   0  0  0  0  0  0  0  0  0  0  0  0
  -29.4394  -23.0450   16.6330 C   0  0  1  0  0  0  0  0  0  0  0  0
  -20.2189  -29.4350   23.6028 C   0  0  1  0  0  0  0  0  0  0  0  0
  -22.7246  -29.2374   20.7540 C   0  0  1  0  0  0  0  0  0  0  0  0
  -24.6484  -16.4751   21.5908 C   0  0  1  0  0  0  0  0  0  0  0  0
  -30.1098  -21.6671   16.5603 C   0  0  0  0  0  0  0  0  0  0  0  0
  -22.2486  -25.2218   14.1470 C   0  0  0  0  0  0  0  0  0  0  0  0
  -20.0819  -25.4622   20.4015 C   0  0  0  0  0  0  0  0  0  0  0  0
  -20.2854  -24.2003   18.2487 C   0  0  0  0  0  0  0  0  0  0  0  0
  -19.0614  -26.3731   18.3078 C   0  0  0  0  0  0  0  0  0  0  0  0
  -24.9550  -27.7222   15.0957 C   0  0  0  0  0  0  0  0  0  0  0  0
  -30.4901  -25.4601   21.7415 C   0  0  0  0  0  0  0  0  0  0  0  0
  -29.5433  -26.6189   22.0673 C   0  0  0  0  0  0  0  0  0  1  0  0
  -21.5820  -26.3646   18.5038 C   0  0  1  0  0  0  0  0  0  0  0  0
  -22.8621  -26.3682   14.9358 C   0  0  2  0  0  0  0  0  0  0  0  0
  -20.2759  -25.6093   18.8791 C   0  0  0  0  0  0  0  0  0  0  0  0
  -25.8674  -14.6101   20.5328 N   0  0  0  0  0  0  0  0  0  0  0  0
  -30.8315  -25.3313   19.3497 N   0  0  0  0  0  0  0  0  0  0  0  0
  -24.6786  -15.1565   20.8399 N   0  0  0  0  0  0  0  0  0  0  0  0
  -22.7179  -27.9952   19.9787 N   0  0  0  0  0  0  0  0  0  0  0  0
  -25.8083  -18.6259   21.9899 N   0  0  0  0  0  0  0  0  0  0  0  0
  -26.1500  -20.2081   20.2289 N   0  0  0  0  0  0  0  0  0  0  0  0
  -22.3412  -14.8265   20.6444 N   0  0  0  0  0  0  0  0  0  0  0  0
  -24.0808  -11.2026   18.5859 N   0  0  0  0  0  0  0  0  0  0  0  0
  -20.9571  -29.5948   22.3683 N   0  0  0  0  0  0  0  0  0  0  0  0
  -21.7784  -26.5424   17.0692 N   0  0  0  0  0  0  0  0  0  0  0  0
  -24.2416  -26.6054   14.4242 N   0  3  0  0  0  0  0  0  0  0  0  0
  -22.1284  -12.2588   19.1617 O   0  0  0  0  0  0  0  0  0  0  0  0
  -22.6963  -28.1176   22.8325 O   0  0  0  0  0  0  0  0  0  0  0  0
  -20.7754  -28.5720   18.8252 O   0  0  0  0  0  0  0  0  0  0  0  0
  -23.8203  -25.4495   16.9545 O   0  0  0  0  0  0  0  0  0  0  0  0
  -24.7255  -20.6613   21.9839 O   0  0  0  0  0  0  0  0  0  0  0  0
  -29.4959  -10.0565   17.9544 O   0  0  0  0  0  0  0  0  0  0  0  0
  -28.2058  -26.1394   22.1233 O   0  0  0  0  0  0  0  0  0  1  0  0
  -28.8949   -8.0705   12.8458 F   0  0  0  0  0  0  0  0  0  0  0  0
  -27.2936   -8.5291   17.2765 F   0  0  0  0  0  0  0  0  0  0  0  0
  1  2  1  0  0  0  0
  1  5  2  0  0  0  0
  2  6  2  0  0  0  0
  3  8  2  0  0  0  0
  3 16  1  0  0  0  0
  4  9  1  0  0  0  0
  4 16  2  0  0  0  0
  5 18  1  0  0  0  0
  6 20  1  0  0  0  0
  7 10  2  0  0  0  0
  7 19  1  0  0  0  0
  8 24  1  0  0  0  0
  9 24  2  0  0  0  0
 10 25  1  0  0  0  0
 11 12  2  0  0  0  0
 11 26  1  0  0  0  0
 12 27  1  0  0  0  0
 13 21  1  0  0  0  0
 13 25  2  0  0  0  0
 14 22  2  0  0  0  0
 14 31  1  0  0  0  0
 15 27  2  0  0  0  0
 15 28  1  0  0  0  0
 16 29  1  0  0  0  0
 17 29  1  0  0  0  0
 17 32  2  0  0  0  0
 17 33  1  0  0  0  0
 18 20  2  0  0  0  0
 18 38  1  0  0  0  0
 19 21  2  0  0  0  0
 19 39  1  0  0  0  0
 20 56  1  0  0  0  0
 21 40  1  0  0  0  0
 22 23  1  0  0  0  0
 22 54  1  0  0  0  0
 23 30  2  0  0  0  0
 23 55  1  0  0  0  0
 24 86  1  0  0  0  0
 25 87  1  0  0  0  0
 26 28  2  0  0  0  0
 26 86  1  0  0  0  0
 27 88  1  0  0  0  0
 28 89  1  0  0  0  0
 29 70  2  0  0  0  0
 30 41  1  0  0  0  0
 30 71  1  0  0  0  0
 31 65  1  0  0  0  0
 31 71  2  0  0  0  0
 32 72  1  0  0  0  0
 32 76  1  0  0  0  0
 33 77  1  0  0  0  0
 33 81  2  0  0  0  0
 34 57  1  0  0  0  0
 34 78  1  0  0  0  0
 34 82  2  0  0  0  0
 35 67  1  0  0  0  0
 35 73  1  0  0  0  0
 35 83  2  0  0  0  0
 36 68  1  0  0  0  0
 36 79  1  0  0  0  0
 36 84  2  0  0  0  0
 37 74  1  0  0  0  0
 37 75  1  0  0  0  0
 37 85  2  0  0  0  0
 38 42  1  0  0  0  0
 39 57  1  0  0  0  0
 40 73  1  0  0  0  0
 41 43  1  0  0  0  0
 42 46  1  0  0  0  0
 43 45  1  0  0  0  0
 44 47  1  0  0  0  0
 44 50  1  0  0  0  0
 45 55  1  0  0  0  0
 46 56  1  0  0  0  0
 47 58  1  0  0  0  0
 48 51  1  0  0  0  0
 48 54  1  0  0  0  0
 49 52  1  0  0  0  0
 49 54  1  0  0  0  0
 50 74  1  0  0  0  0
 51 75  1  0  0  0  0
 52 75  1  0  0  0  0
 53 58  1  0  0  0  0
 53 74  1  0  0  0  0
 55 59  1  0  0  0  0
 56 78  1  0  0  0  0
 57 73  1  0  0  0  0
 58 72  1  0  0  0  0
 60 68  1  0  0  0  0
 61 69  1  0  0  0  0
 62 69  1  0  0  0  0
 63 69  1  0  0  0  0
 64 80  1  0  0  0  0
 65 66  1  0  0  0  0
 66 87  1  0  0  0  0
 67 69  1  0  0  0  0
 67 79  1  0  0  0  0
 68 80  1  0  0  0  0
 70 72  1  0  0  0  0
M  CHG  1  80   1
M  ISO  4  37 100  66 101  75 100  87 101
M  END
> <Batch ID>
0164

> <Smiles>
CNC(C)C(=O)NC(C(=O)N1Cc2cc([101O:1][101CH2:1]Cc3cc(C4CC[100N:0]([100C:0](=O)N5CCCC(n6nc(-c7ccc(Oc8ccc(F)cc8F)cc7)c(C(N)=O)c6N)C5)CC4)c4c(n3)CCCC4C)ccc2CC1C(=O)NC1CCCc2ccccc21)C(C)(C)C

> <Shape>
0.218

> <Color>
0.082

> <Negative vol penalty>
0.000

$$$$

  -OEChem-04052322193D

 88 97  0     1  0  0  0  0  0999 V2000
  -18.9316  -24.6965   24.4592 C   0  0  0  0  0  0  0  0  0  0  0  0
  -20.2341  -24.5411   23.9956 C   0  0  0  0  0  0  0  0  0  0  0  0
  -24.5099   -8.8479   21.7423 C   0  0  0  0  0  0  0  0  0  0  0  0
  -22.6814   -9.9133   20.5768 C   0  0  0  0  0  0  0  0  0  0  0  0
  -18.2259  -25.8645   24.1734 C   0  0  0  0  0  0  0  0  0  0  0  0
  -20.8312  -25.5533   23.2450 C   0  0  0  0  0  0  0  0  0  0  0  0
  -26.7366  -27.1749   23.2902 C   0  0  0  0  0  0  0  0  0  0  0  0
  -23.5996   -8.0813   22.4698 C   0  0  0  0  0  0  0  0  0  0  0  0
  -21.7711   -9.1467   21.3042 C   0  0  0  0  0  0  0  0  0  0  0  0
  -27.8006  -26.8661   22.4439 C   0  0  0  0  0  0  0  0  0  0  0  0
  -21.7137   -5.3189   21.9748 C   0  0  0  0  0  0  0  0  0  0  0  0
  -21.9812   -3.9575   22.1177 C   0  0  0  0  0  0  0  0  0  0  0  0
  -27.4326  -28.9239   21.2401 C   0  0  0  0  0  0  0  0  0  0  0  0
  -27.8955  -25.4386   17.8719 C   0  0  0  0  0  0  0  0  0  0  0  0
  -22.0373   -4.2206   24.5187 C   0  0  0  0  0  0  0  0  0  0  0  0
  -24.0508   -9.7640   20.7958 C   0  0  0  0  0  0  0  0  0  0  0  0
  -25.5851  -10.2282   18.8113 C   0  0  0  0  0  0  0  0  0  0  0  0
  -18.8180  -26.8955   23.4271 C   0  0  0  0  0  0  0  0  0  0  0  0
  -26.0044  -28.3574   23.1107 C   0  0  0  0  0  0  0  0  0  0  0  0
  -20.1322  -26.7356   22.9478 C   0  0  0  0  0  0  0  0  0  0  0  0
  -26.3613  -29.2467   22.0870 C   0  0  0  0  0  0  0  0  0  0  0  0
  -29.2078  -25.5979   18.3030 C   0  0  0  0  0  0  0  0  0  0  0  0
  -27.3154  -24.1750   17.8804 C   0  0  0  0  0  0  0  0  0  0  0  0
  -22.2302   -8.2307   22.2507 C   0  0  0  0  0  0  0  0  0  0  0  0
  -28.1469  -27.7392   21.4169 C   0  0  0  0  0  0  0  0  0  0  0  0
  -21.6081   -6.1313   23.1038 C   0  0  0  0  0  0  0  0  0  0  0  0
  -22.1430   -3.4083   23.3897 C   0  0  0  0  0  0  0  0  0  0  0  0
  -21.7699   -5.5821   24.3757 C   0  0  0  0  0  0  0  0  0  0  0  0
  -24.9907  -10.5566   20.0445 C   0  0  0  0  0  0  0  0  0  0  0  0
  -29.8917  -24.4709   18.7295 C   0  0  0  0  0  0  0  0  0  0  0  0
  -28.0841  -23.1116   18.3256 C   0  0  0  0  0  0  0  0  0  0  0  0
  -26.3928  -11.3010   18.5230 C   0  0  0  0  0  0  0  0  0  0  0  0
  -25.4216   -9.0581   17.9991 C   0  0  0  0  0  0  0  0  0  0  0  0
  -22.9751  -29.0385   22.4305 C   0  0  0  0  0  0  0  0  0  0  0  0
  -23.9511  -32.0878   22.9513 C   0  0  0  0  0  0  0  0  0  0  0  0
  -26.5198  -34.3331   23.0362 C   0  0  0  0  0  0  0  0  0  0  0  0
  -26.0357  -16.9900   20.3153 C   0  0  0  0  0  0  0  0  0  0  0  0
  -17.9990  -28.1198   23.1033 C   0  0  0  0  0  0  0  0  0  0  0  0
  -24.8763  -28.6889   24.0487 C   0  0  0  0  0  0  0  0  0  0  0  0
  -25.6200  -30.5387   21.8648 C   0  0  0  0  0  0  0  0  0  0  0  0
  -18.8354  -29.3018   22.6199 C   0  0  0  0  0  0  0  0  0  0  0  0
  -28.9277  -14.7599   20.6421 C   0  0  0  0  0  0  0  0  0  0  0  0
  -19.8439  -28.8480   21.5693 C   0  0  0  0  0  0  0  0  0  0  0  0
  -28.2817  -13.3902   20.4281 C   0  0  0  0  0  0  0  0  0  0  0  0
  -27.9754  -15.7053   21.3643 C   0  0  0  0  0  0  0  0  0  0  0  0
  -26.3407  -19.4331   19.6401 C   0  0  0  0  0  0  0  0  0  0  0  0
  -28.1691  -18.3461   19.6344 C   0  0  0  0  0  0  0  0  0  0  0  0
  -26.0079  -14.5244   20.4723 C   0  0  0  0  0  0  0  0  0  0  0  0
  -20.8229  -27.8213   22.1515 C   0  0  1  0  0  0  0  0  0  0  0  0
  -23.8740  -29.6730   23.4536 C   0  0  1  0  0  0  0  0  0  0  0  0
  -27.6137  -19.5008   18.7792 C   0  0  0  0  0  0  0  0  0  0  0  0
  -26.9134  -13.5211   19.7342 C   0  0  2  0  0  0  0  0  0  0  0  0
  -25.9110  -23.9921   17.4194 C   0  0  0  0  0  0  0  0  0  0  0  0
  -31.3032  -24.5831   19.2050 C   0  0  0  0  0  0  0  0  0  0  0  0
  -30.7582  -26.7658   15.9129 C   0  0  0  0  0  0  0  0  0  0  0  0
  -27.0022  -36.7595   23.4574 C   0  0  0  0  0  0  0  0  0  0  0  0
  -22.8154  -32.7875   20.2071 C   0  0  0  0  0  0  0  0  0  0  0  0
  -24.1377  -34.9122   20.2787 C   0  0  0  0  0  0  0  0  0  0  0  0
  -22.3686  -34.4881   21.9855 C   0  0  0  0  0  0  0  0  0  0  0  0
  -28.2982  -33.7033   25.3165 C   0  0  0  0  0  0  0  0  0  0  0  0
  -28.3858  -20.8042   18.8164 C   0  0  0  0  0  0  0  0  0  0  0  0
  -29.9226  -27.5921   16.8833 C   0  0  0  0  0  0  0  0  0  0  0  0
  -29.1109  -27.9330   19.2514 C   0  0  0  0  0  0  0  0  0  1  0  0
  -29.8351  -26.9492   18.2975 C   0  0  1  0  0  0  0  0  0  0  0  0
  -24.5327  -33.1854   22.0934 C   0  0  1  0  0  0  0  0  0  0  0  0
  -26.9171  -35.3705   24.0708 C   0  0  2  0  0  0  0  0  0  0  0  0
  -23.4765  -33.8181   21.1439 C   0  0  0  0  0  0  0  0  0  0  0  0
  -25.3871  -11.7450   20.5077 N   0  0  0  0  0  0  0  0  0  0  0  0
  -29.3618  -23.2274   18.7520 N   0  0  0  0  0  0  0  0  0  0  0  0
  -26.2394  -12.1727   19.5607 N   0  0  0  0  0  0  0  0  0  0  0  0
  -24.5207  -30.8151   22.8042 N   0  0  0  0  0  0  0  0  0  0  0  0
  -26.6980  -15.8062   20.6514 N   0  0  0  0  0  0  0  0  0  0  0  0
  -26.7935  -18.1044   20.0428 N   0  0  0  0  0  0  0  0  0  0  0  0
  -27.2123  -11.5743   17.4856 N   0  0  0  0  0  0  0  0  0  0  0  0
  -24.5530   -8.0520   18.4438 N   0  0  0  0  0  0  0  0  0  0  0  0
  -21.8263  -28.4813   22.9591 N   0  0  0  0  0  0  0  0  0  0  0  0
  -25.1557  -34.1336   23.0107 N   0  0  0  0  0  0  0  0  0  0  0  0
  -28.2447  -35.0341   24.6584 N   0  3  0  0  0  0  0  0  0  0  0  0
  -26.0404   -8.9017   16.9192 O   0  0  0  0  0  0  0  0  0  0  0  0
  -23.2989  -29.0546   21.2487 O   0  0  0  0  0  0  0  0  0  0  0  0
  -23.0303  -32.3515   23.7286 O   0  0  0  0  0  0  0  0  0  0  0  0
  -27.3374  -33.7599   22.3196 O   0  0  0  0  0  0  0  0  0  0  0  0
  -24.8017  -17.0452   20.2288 O   0  0  0  0  0  0  0  0  0  0  0  0
  -21.3416   -7.4826   22.9602 O   0  0  0  0  0  0  0  0  0  0  0  0
  -29.1914  -27.4379   20.5836 O   0  0  0  0  0  0  0  0  0  1  0  0
  -27.5472  -21.8497   18.3498 O   0  0  0  0  0  0  0  0  0  0  0  0
  -22.3984   -2.1006   23.5269 F   0  0  0  0  0  0  0  0  0  0  0  0
  -21.6683   -6.3573   25.4641 F   0  0  0  0  0  0  0  0  0  0  0  0
  1  2  1  0  0  0  0
  1  5  2  0  0  0  0
  2  6  2  0  0  0  0
  3  8  2  0  0  0  0
  3 16  1  0  0  0  0
  4  9  1  0  0  0  0
  4 16  2  0  0  0  0
  5 18  1  0  0  0  0
  6 20  1  0  0  0  0
  7 10  2  0  0  0  0
  7 19  1  0  0  0  0
  8 24  1  0  0  0  0
  9 24  2  0  0  0  0
 10 25  1  0  0  0  0
 11 12  2  0  0  0  0
 11 26  1  0  0  0  0
 12 27  1  0  0  0  0
 13 21  1  0  0  0  0
 13 25  2  0  0  0  0
 14 22  1  0  0  0  0
 14 23  2  0  0  0  0
 15 27  2  0  0  0  0
 15 28  1  0  0  0  0
 16 29  1  0  0  0  0
 17 29  1  0  0  0  0
 17 32  2  0  0  0  0
 17 33  1  0  0  0  0
 18 20  2  0  0  0  0
 18 38  1  0  0  0  0
 19 21  2  0  0  0  0
 19 39  1  0  0  0  0
 20 49  1  0  0  0  0
 21 40  1  0  0  0  0
 22 30  2  0  0  0  0
 22 64  1  0  0  0  0
 23 31  1  0  0  0  0
 23 53  1  0  0  0  0
 24 84  1  0  0  0  0
 25 85  1  0  0  0  0
 26 28  2  0  0  0  0
 26 84  1  0  0  0  0
 27 87  1  0  0  0  0
 28 88  1  0  0  0  0
 29 68  2  0  0  0  0
 30 54  1  0  0  0  0
 30 69  1  0  0  0  0
 31 69  2  0  0  0  0
 31 86  1  0  0  0  0
 32 70  1  0  0  0  0
 32 74  1  0  0  0  0
 33 75  1  0  0  0  0
 33 79  2  0  0  0  0
 34 50  1  0  0  0  0
 34 76  1  0  0  0  0
 34 80  2  0  0  0  0
 35 65  1  0  0  0  0
 35 71  1  0  0  0  0
 35 81  2  0  0  0  0
 36 66  1  0  0  0  0
 36 77  1  0  0  0  0
 36 82  2  0  0  0  0
 37 72  1  0  0  0  0
 37 73  1  0  0  0  0
 37 83  2  0  0  0  0
 38 41  1  0  0  0  0
 39 50  1  0  0  0  0
 40 71  1  0  0  0  0
 41 43  1  0  0  0  0
 42 44  1  0  0  0  0
 42 45  1  0  0  0  0
 43 49  1  0  0  0  0
 44 52  1  0  0  0  0
 45 72  1  0  0  0  0
 46 51  1  0  0  0  0
 46 73  1  0  0  0  0
 47 51  1  0  0  0  0
 47 73  1  0  0  0  0
 48 52  1  0  0  0  0
 48 72  1  0  0  0  0
 49 76  1  0  0  0  0
 50 71  1  0  0  0  0
 51 61  1  0  0  0  0
 52 70  1  0  0  0  0
 55 62  1  0  0  0  0
 56 66  1  0  0  0  0
 57 67  1  0  0  0  0
 58 67  1  0  0  0  0
 59 67  1  0  0  0  0
 60 78  1  0  0  0  0
 61 86  1  0  0  0  0
 62 64  1  0  0  0  0
 63 64  1  0  0  0  0
 63 85  1  0  0  0  0
 65 67  1  0  0  0  0
 65 77  1  0  0  0  0
 66 78  1  0  0  0  0
 68 70  1  0  0  0  0
M  CHG  1  78   1
M  ISO  4  37 100  63 101  73 100  85 101
M  END
> <Batch ID>
0164

> <Smiles>
CCC(c1cc(C)c(OCC2C[100N:0]([100C:0](=O)N3CCCC(n4nc(-c5ccc(Oc6ccc(F)cc6F)cc5)c(C(N)=O)c4N)C3)C2)nc1C)[101CH2:1][101O:1]c1ccc2c(c1)CN(C(=O)C(NC(=O)C(C)NC)C(C)(C)C)C(C(=O)NC1CCCc3ccccc31)C2

> <Shape>
0.331

> <Color>
0.112

> <Negative vol penalty>
0.000

$$$$

  -OEChem-04052322193D

 89 98  0     1  0  0  0  0  0999 V2000
  -28.5033  -33.7303   23.2496 C   0  0  0  0  0  0  0  0  0  0  0  0
  -28.5329  -32.3468   23.1066 C   0  0  0  0  0  0  0  0  0  0  0  0
  -24.4949  -14.2671   23.7445 C   0  0  0  0  0  0  0  0  0  0  0  0
  -24.0266  -15.5893   21.7774 C   0  0  0  0  0  0  0  0  0  0  0  0
  -27.3114  -34.3697   23.5876 C   0  0  0  0  0  0  0  0  0  0  0  0
  -27.3706  -31.6018   23.3026 C   0  0  0  0  0  0  0  0  0  0  0  0
  -26.6895  -28.0864   19.7217 C   0  0  0  0  0  0  0  0  0  0  0  0
  -23.9837  -15.2846   24.5501 C   0  0  0  0  0  0  0  0  0  0  0  0
  -23.5153  -16.6068   22.5830 C   0  0  0  0  0  0  0  0  0  0  0  0
  -27.4459  -26.9195   19.8228 C   0  0  0  0  0  0  0  0  0  0  0  0
  -24.7287  -19.0992   24.5185 C   0  0  0  0  0  0  0  0  0  0  0  0
  -25.1180  -20.4082   24.2345 C   0  0  0  0  0  0  0  0  0  0  0  0
  -25.5483  -25.7798   20.7817 C   0  0  0  0  0  0  0  0  0  0  0  0
  -29.7948  -22.5520   19.0140 C   0  0  0  0  0  0  0  0  0  0  0  0
  -22.8095  -21.0130   23.8577 C   0  0  0  0  0  0  0  0  0  0  0  0
  -24.5164  -14.4195   22.3581 C   0  0  0  0  0  0  0  0  0  0  0  0
  -24.3357  -12.2884   20.9676 C   0  0  0  0  0  0  0  0  0  0  0  0
  -26.1317  -33.6331   23.7783 C   0  0  0  0  0  0  0  0  0  0  0  0
  -25.3579  -28.1117   20.1606 C   0  0  0  0  0  0  0  0  0  0  0  0
  -26.1620  -32.2318   23.6447 C   0  0  0  0  0  0  0  0  0  0  0  0
  -24.7764  -26.9475   20.6826 C   0  0  0  0  0  0  0  0  0  0  0  0
  -29.5978  -23.3380   20.1493 C   0  0  0  0  0  0  0  0  0  0  0  0
  -30.3872  -21.2945   19.1306 C   0  0  0  0  0  0  0  0  0  0  0  0
  -29.9933  -22.8667   21.4011 C   0  0  0  0  0  0  0  0  0  0  0  0
  -30.5857  -21.6093   21.5177 C   0  0  0  0  0  0  0  0  0  0  0  0
  -30.7827  -20.8232   20.3824 C   0  0  0  0  0  0  0  0  0  0  0  0
  -23.4939  -16.4544   23.9694 C   0  0  0  0  0  0  0  0  0  0  0  0
  -26.8762  -25.7668   20.3556 C   0  0  0  0  0  0  0  0  0  0  0  0
  -23.3798  -18.7471   24.4721 C   0  0  0  0  0  0  0  0  0  0  0  0
  -24.1584  -21.3651   23.9041 C   0  0  0  0  0  0  0  0  0  0  0  0
  -22.4202  -19.7040   24.1417 C   0  0  0  0  0  0  0  0  0  0  0  0
  -25.0449  -13.3691   21.5254 C   0  0  0  0  0  0  0  0  0  0  0  0
  -25.2822  -11.5819   20.2665 C   0  0  0  0  0  0  0  0  0  0  0  0
  -22.9457  -11.9532   21.0738 C   0  0  0  0  0  0  0  0  0  0  0  0
  -23.7610  -29.7192   22.3898 C   0  0  0  0  0  0  0  0  0  0  0  0
  -21.1963  -28.2370   21.0678 C   0  0  0  0  0  0  0  0  0  0  0  0
  -19.9818  -25.6068   19.2639 C   0  0  0  0  0  0  0  0  0  0  0  0
  -30.0217  -14.2998   21.7358 C   0  0  0  0  0  0  0  0  0  0  0  0
  -24.8779  -34.3639   24.1890 C   0  0  0  0  0  0  0  0  0  0  0  0
  -24.5473  -29.3709   20.0199 C   0  0  0  0  0  0  0  0  0  0  0  0
  -23.3447  -26.9167   21.1493 C   0  0  0  0  0  0  0  0  0  0  0  0
  -23.6061  -33.5384   24.0121 C   0  0  0  0  0  0  0  0  0  0  0  0
  -28.3573  -13.9088   18.4053 C   0  0  0  0  0  0  0  0  0  0  0  0
  -23.8002  -32.1324   24.5709 C   0  0  0  0  0  0  0  0  0  0  0  0
  -27.9921  -12.4263   18.4341 C   0  0  0  0  0  0  0  0  0  0  0  0
  -31.9163  -17.4879   21.6269 C   0  0  0  0  0  0  0  0  0  0  0  0
  -29.6734  -17.8342   20.5325 C   0  0  0  0  0  0  0  0  0  0  0  0
  -29.5878  -14.1812   19.2587 C   0  0  0  0  0  0  0  0  0  0  0  0
  -31.3477  -16.2815   22.3704 C   0  0  0  0  0  0  0  0  0  0  0  0
  -29.1436  -16.6256   21.2986 C   0  0  0  0  0  0  0  0  0  0  0  0
  -29.0401  -12.2669   20.7366 C   0  0  0  0  0  0  0  0  0  0  0  0
  -24.9164  -31.3914   23.8249 C   0  0  1  0  0  0  0  0  0  0  0  0
  -23.3571  -29.4249   20.9727 C   0  0  1  0  0  0  0  0  0  0  0  0
  -27.8212  -11.8922   19.8697 C   0  0  1  0  0  0  0  0  0  0  0  0
  -30.8206  -18.5018   21.2931 C   0  0  0  0  0  0  0  0  0  0  0  0
  -29.7808  -23.7125   22.6168 C   0  0  0  0  0  0  0  0  0  0  0  0
  -31.0091  -21.1072   22.8629 C   0  0  0  0  0  0  0  0  0  0  0  0
  -31.5264  -21.1555   16.8863 C   0  0  0  0  0  0  0  0  0  0  0  0
  -29.2537  -20.1148   17.2129 C   0  0  0  0  0  0  0  0  0  0  0  0
  -17.8388  -24.6486   18.3771 C   0  0  0  0  0  0  0  0  0  0  0  0
  -20.4837  -27.2481   23.8650 C   0  0  0  0  0  0  0  0  0  0  0  0
  -18.9532  -25.5728   22.8071 C   0  0  0  0  0  0  0  0  0  0  0  0
  -18.5324  -28.0124   22.5002 C   0  0  0  0  0  0  0  0  0  0  0  0
  -20.9069  -25.8289   16.4614 C   0  0  0  0  0  0  0  0  0  0  0  0
  -28.9614  -24.6809   19.9972 C   0  0  0  0  0  0  0  0  0  1  0  0
  -30.5849  -20.4753   17.8965 C   0  0  0  0  0  0  0  0  0  0  0  0
  -20.4784  -26.9299   21.3028 C   0  0  1  0  0  0  0  0  0  0  0  0
  -19.0286  -25.5493   18.0839 C   0  0  2  0  0  0  0  0  0  0  0  0
  -19.6395  -26.9416   22.6119 C   0  0  0  0  0  0  0  0  0  0  0  0
  -26.3417  -13.3545   21.2062 N   0  0  0  0  0  0  0  0  0  0  0  0
  -26.4550  -12.2560   20.4404 N   0  0  0  0  0  0  0  0  0  0  0  0
  -22.5952  -28.1747   20.9968 N   0  0  0  0  0  0  0  0  0  0  0  0
  -29.4214  -13.6779   20.6268 N   0  0  0  0  0  0  0  0  0  0  0  0
  -30.2196  -15.6888   21.6512 N   0  0  0  0  0  0  0  0  0  0  0  0
  -25.2172  -10.4561   19.5243 N   0  0  0  0  0  0  0  0  0  0  0  0
  -22.1135  -12.7868   21.8332 N   0  0  0  0  0  0  0  0  0  0  0  0
  -31.3706  -19.5759   20.4959 N   0  0  0  0  0  0  0  0  0  0  0  0
  -24.4383  -30.9136   22.5452 N   0  0  0  0  0  0  0  0  0  0  0  0
  -19.7002  -26.6690   20.0967 N   0  0  0  0  0  0  0  0  0  0  0  0
  -19.7288  -25.0251   16.8774 N   0  3  0  0  0  0  0  0  0  0  0  0
  -22.4595  -10.9352   20.5254 O   0  0  0  0  0  0  0  0  0  0  0  0
  -23.4777  -28.9225   23.2767 O   0  0  0  0  0  0  0  0  0  0  0  0
  -20.5396  -29.2739   20.9444 O   0  0  0  0  0  0  0  0  0  0  0  0
  -20.8836  -24.7889   19.4322 O   0  0  0  0  0  0  0  0  0  0  0  0
  -30.3552  -13.6564   22.7386 O   0  0  0  0  0  0  0  0  0  0  0  0
  -22.9948  -17.4474   24.7552 O   0  0  0  0  0  0  0  0  0  0  0  0
  -27.6177  -24.6186   20.4568 O   0  0  0  0  0  0  0  0  0  1  0  0
  -24.5323  -22.6224   23.6328 F   0  0  0  0  0  0  0  0  0  0  0  0
  -21.1227  -19.3720   24.0967 F   0  0  0  0  0  0  0  0  0  0  0  0
  1  2  1  0  0  0  0
  1  5  2  0  0  0  0
  2  6  2  0  0  0  0
  3  8  2  0  0  0  0
  3 16  1  0  0  0  0
  4  9  1  0  0  0  0
  4 16  2  0  0  0  0
  5 18  1  0  0  0  0
  6 20  1  0  0  0  0
  7 10  2  0  0  0  0
  7 19  1  0  0  0  0
  8 27  1  0  0  0  0
  9 27  2  0  0  0  0
 10 28  1  0  0  0  0
 11 12  2  0  0  0  0
 11 29  1  0  0  0  0
 12 30  1  0  0  0  0
 13 21  1  0  0  0  0
 13 28  2  0  0  0  0
 14 22  1  0  0  0  0
 14 23  2  0  0  0  0
 15 30  2  0  0  0  0
 15 31  1  0  0  0  0
 16 32  1  0  0  0  0
 17 32  1  0  0  0  0
 17 33  2  0  0  0  0
 17 34  1  0  0  0  0
 18 20  2  0  0  0  0
 18 39  1  0  0  0  0
 19 21  2  0  0  0  0
 19 40  1  0  0  0  0
 20 52  1  0  0  0  0
 21 41  1  0  0  0  0
 22 24  2  0  0  0  0
 22 65  1  0  0  0  0
 23 26  1  0  0  0  0
 23 66  1  0  0  0  0
 24 25  1  0  0  0  0
 24 56  1  0  0  0  0
 25 26  2  0  0  0  0
 25 57  1  0  0  0  0
 26 77  1  0  0  0  0
 27 86  1  0  0  0  0
 28 87  1  0  0  0  0
 29 31  2  0  0  0  0
 29 86  1  0  0  0  0
 30 88  1  0  0  0  0
 31 89  1  0  0  0  0
 32 70  2  0  0  0  0
 33 71  1  0  0  0  0
 33 75  1  0  0  0  0
 34 76  1  0  0  0  0
 34 81  2  0  0  0  0
 35 53  1  0  0  0  0
 35 78  1  0  0  0  0
 35 82  2  0  0  0  0
 36 67  1  0  0  0  0
 36 72  1  0  0  0  0
 36 83  2  0  0  0  0
 37 68  1  0  0  0  0
 37 79  1  0  0  0  0
 37 84  2  0  0  0  0
 38 73  1  0  0  0  0
 38 74  1  0  0  0  0
 38 85  2  0  0  0  0
 39 42  1  0  0  0  0
 40 53  1  0  0  0  0
 41 72  1  0  0  0  0
 42 44  1  0  0  0  0
 43 45  1  0  0  0  0
 43 48  1  0  0  0  0
 44 52  1  0  0  0  0
 45 54  1  0  0  0  0
 46 49  1  0  0  0  0
 46 55  1  0  0  0  0
 47 50  1  0  0  0  0
 47 55  1  0  0  0  0
 48 73  1  0  0  0  0
 49 74  1  0  0  0  0
 50 74  1  0  0  0  0
 51 54  1  0  0  0  0
 51 73  1  0  0  0  0
 52 78  1  0  0  0  0
 53 72  1  0  0  0  0
 54 71  1  0  0  0  0
 55 77  1  0  0  0  0
 58 66  1  0  0  0  0
 59 66  1  0  0  0  0
 60 68  1  0  0  0  0
 61 69  1  0  0  0  0
 62 69  1  0  0  0  0
 63 69  1  0  0  0  0
 64 80  1  0  0  0  0
 65 87  1  0  0  0  0
 67 69  1  0  0  0  0
 67 79  1  0  0  0  0
 68 80  1  0  0  0  0
 70 71  1  0  0  0  0
M  CHG  1  80   1
M  ISO  4  38 100  65 101  74 100  87 101
M  END
> <Batch ID>
0164

> <Smiles>
CNC(C)C(=O)NC(C(=O)N1Cc2cc([101O:1][101CH2:1]c3cc(C(C)C)c(NC4CC[100N:0]([100C:0](=O)N5CCCC(n6nc(-c7ccc(Oc8ccc(F)cc8F)cc7)c(C(N)=O)c6N)C5)CC4)c(C)c3C)ccc2CC1C(=O)NC1CCCc2ccccc21)C(C)(C)C

> <Shape>
0.294

> <Color>
0.076

> <Negative vol penalty>
0.000

$$$$

  -OEChem-04052322193D

 95105  0     1  0  0  0  0  0999 V2000
  -26.8807  -36.4598   22.1929 C   0  0  0  0  0  0  0  0  0  0  0  0
  -27.7454  -35.5823   21.5467 C   0  0  0  0  0  0  0  0  0  0  0  0
  -24.4507  -10.5945   23.3150 C   0  0  0  0  0  0  0  0  0  0  0  0
  -24.9010  -12.8916   23.9132 C   0  0  0  0  0  0  0  0  0  0  0  0
  -25.9498  -35.9713   23.1088 C   0  0  0  0  0  0  0  0  0  0  0  0
  -27.6804  -34.2158   21.8167 C   0  0  0  0  0  0  0  0  0  0  0  0
  -28.5945  -27.8512   18.6586 C   0  0  0  0  0  0  0  0  0  0  0  0
  -24.2030  -10.2942   24.6544 C   0  0  0  0  0  0  0  0  0  0  0  0
  -24.6533  -12.5913   25.2526 C   0  0  0  0  0  0  0  0  0  0  0  0
  -29.2804  -26.6502   18.8345 C   0  0  0  0  0  0  0  0  0  0  0  0
  -21.6776  -10.6839   26.8687 C   0  0  0  0  0  0  0  0  0  0  0  0
  -20.5547   -9.9105   27.1628 C   0  0  0  0  0  0  0  0  0  0  0  0
  -23.0200  -16.7319   18.7730 C   0  0  0  0  0  0  0  0  0  0  0  0
  -27.5787  -25.9112   20.3763 C   0  0  0  0  0  0  0  0  0  0  0  0
  -21.9736   -8.2308   28.1639 C   0  0  0  0  0  0  0  0  0  0  0  0
  -24.7998  -11.8932   22.9444 C   0  0  0  0  0  0  0  0  0  0  0  0
  -24.1235  -12.6371   20.5999 C   0  0  0  0  0  0  0  0  0  0  0  0
  -25.8668  -34.5971   23.3830 C   0  0  0  0  0  0  0  0  0  0  0  0
  -27.3992  -28.0961   19.3498 C   0  0  0  0  0  0  0  0  0  0  0  0
  -26.7484  -33.7086   22.7381 C   0  0  0  0  0  0  0  0  0  0  0  0
  -23.4485  -17.4772   19.8714 C   0  0  0  0  0  0  0  0  0  0  0  0
  -26.8782  -27.1150   20.2055 C   0  0  0  0  0  0  0  0  0  0  0  0
  -21.7151  -16.8729   18.3007 C   0  0  0  0  0  0  0  0  0  0  0  0
  -22.5721  -18.3634   20.4976 C   0  0  0  0  0  0  0  0  0  0  0  0
  -20.8387  -17.7591   18.9269 C   0  0  0  0  0  0  0  0  0  0  0  0
  -21.2671  -18.5043   20.0254 C   0  0  0  0  0  0  0  0  0  0  0  0
  -24.3043  -11.2927   25.6232 C   0  0  0  0  0  0  0  0  0  0  0  0
  -28.7740  -25.6811   19.6956 C   0  0  0  0  0  0  0  0  0  0  0  0
  -22.9486  -10.2307   27.2222 C   0  0  0  0  0  0  0  0  0  0  0  0
  -20.7026   -8.6840   27.8104 C   0  0  0  0  0  0  0  0  0  0  0  0
  -23.0966   -9.0042   27.8698 C   0  0  0  0  0  0  0  0  0  0  0  0
  -25.0563  -12.2038   21.5610 C   0  0  0  0  0  0  0  0  0  0  0  0
  -24.8607  -12.7926   19.4515 C   0  0  0  0  0  0  0  0  0  0  0  0
  -22.7163  -12.8778   20.7333 C   0  0  0  0  0  0  0  0  0  0  0  0
  -26.4450  -30.2442   21.4897 C   0  0  0  0  0  0  0  0  0  0  0  0
  -23.5625  -28.8211   21.0562 C   0  0  0  0  0  0  0  0  0  0  0  0
  -21.8140  -26.0461   20.1134 C   0  0  0  0  0  0  0  0  0  0  0  0
  -28.4031  -14.9105   21.0300 C   0  0  0  0  0  0  0  0  0  0  0  0
  -24.8761  -34.1215   24.4159 C   0  0  0  0  0  0  0  0  0  0  0  0
  -26.6575  -29.3858   19.1288 C   0  0  0  0  0  0  0  0  0  0  0  0
  -25.5883  -27.3207   20.9554 C   0  0  0  0  0  0  0  0  0  0  0  0
  -24.6196  -32.6174   24.3667 C   0  0  0  0  0  0  0  0  0  0  0  0
  -29.4370  -11.7932   20.2677 C   0  0  0  0  0  0  0  0  0  0  0  0
  -25.9367  -31.8541   24.2703 C   0  0  0  0  0  0  0  0  0  0  0  0
  -28.8771  -21.2613   18.0537 C   0  0  0  0  0  0  0  0  0  0  0  0
  -27.9884  -21.0690   20.4136 C   0  0  0  0  0  0  0  0  0  0  0  0
  -28.4589  -11.4031   19.1518 C   0  0  0  0  0  0  0  0  0  0  0  0
  -29.5069  -22.6060   18.4045 C   0  0  0  0  0  0  0  0  0  0  0  0
  -28.6202  -22.4145   20.7577 C   0  0  0  0  0  0  0  0  0  0  0  0
  -24.9715  -16.2391   21.4685 C   0  0  0  0  0  0  0  0  0  0  0  0
  -25.8418  -16.9791   19.2137 C   0  0  0  0  0  0  0  0  0  0  0  0
  -29.9484  -13.2183   20.1023 C   0  0  0  0  0  0  0  0  0  0  0  0
  -26.4096  -16.0363   21.9327 C   0  0  0  0  0  0  0  0  0  0  0  0
  -27.9958  -13.8636   18.7616 C   0  0  0  0  0  0  0  0  0  0  0  0
  -24.8740  -17.3042   20.3656 C   0  0  1  0  0  0  0  0  0  0  0  0
  -26.6919  -32.2168   22.9859 C   0  0  1  0  0  0  0  0  0  0  0  0
  -25.7166  -29.7384   20.2767 C   0  0  1  0  0  0  0  0  0  0  0  0
  -28.7513  -20.3571   19.2878 C   0  0  0  0  0  0  0  0  0  0  0  0
  -27.3615  -12.4558   18.8647 C   0  0  2  0  0  0  0  0  0  0  0  0
  -28.7477  -23.3091   19.5265 C   0  0  0  0  0  0  0  0  0  1  0  0
  -27.2809  -16.7411   19.6950 C   0  0  1  0  0  0  0  0  0  0  0  0
  -21.2816  -16.0638   17.1222 C   0  0  0  0  0  0  0  0  0  0  0  0
  -23.0343  -19.1616   21.6755 C   0  0  0  0  0  0  0  0  0  0  0  0
  -19.4395  -17.9076   18.4188 C   0  0  0  0  0  0  0  0  0  0  0  0
  -20.3272  -19.4554   20.6969 C   0  0  0  0  0  0  0  0  0  0  0  0
  -19.4715  -25.1709   19.9030 C   0  0  0  0  0  0  0  0  0  0  0  0
  -29.3825  -17.7352   20.6218 C   0  0  0  0  0  0  0  0  0  0  0  0
  -23.4344  -28.4433   24.0813 C   0  0  0  0  0  0  0  0  0  0  0  0
  -21.6048  -26.7717   23.7250 C   0  0  0  0  0  0  0  0  0  0  0  0
  -21.2783  -29.1437   23.0252 C   0  0  0  0  0  0  0  0  0  0  0  0
  -22.0999  -25.6513   17.1943 C   0  0  0  0  0  0  0  0  0  0  0  0
  -28.0696  -19.0395   18.9237 C   0  0  0  0  0  0  0  0  0  0  0  0
  -22.8357  -27.6620   21.6944 C   0  0  1  0  0  0  0  0  0  0  0  0
  -20.6190  -25.8728   19.1934 C   0  0  2  0  0  0  0  0  0  0  0  0
  -27.9821  -18.0466   20.0933 C   0  0  1  0  0  0  0  0  0  0  0  0
  -22.3136  -28.0018   23.1190 C   0  0  0  0  0  0  0  0  0  0  0  0
  -26.2918  -12.0910   21.0662 N   0  0  0  0  0  0  0  0  0  0  0  0
  -26.1404  -12.4556   19.7816 N   0  0  0  0  0  0  0  0  0  0  0  0
  -24.9033  -28.6007   20.7107 N   0  0  0  0  0  0  0  0  0  0  0  0
  -28.8334  -14.1448   19.9347 N   0  0  0  0  0  0  0  0  0  0  0  0
  -27.3106  -15.7673   20.8107 N   0  0  0  0  0  0  0  0  0  0  0  0
  -24.5326  -13.1831   18.2015 N   0  0  0  0  0  0  0  0  0  0  0  0
  -22.1183  -12.6687   21.9834 N   0  0  0  0  0  0  0  0  0  0  0  0
  -26.1108  -31.5360   21.8486 N   0  0  0  0  0  0  0  0  0  0  0  0
  -21.7925  -27.2668   20.7542 N   0  0  0  0  0  0  0  0  0  0  0  0
  -20.9974  -25.0654   17.9993 N   0  3  0  0  0  0  0  0  0  0  0  0
  -22.0072  -13.2509   19.7682 O   0  0  0  0  0  0  0  0  0  0  0  0
  -27.2496  -29.5158   22.0587 O   0  0  0  0  0  0  0  0  0  0  0  0
  -22.9606  -29.8806   20.8647 O   0  0  0  0  0  0  0  0  0  0  0  0
  -22.6780  -25.1831   20.2528 O   0  0  0  0  0  0  0  0  0  0  0  0
  -28.9443  -14.8222   22.1390 O   0  0  0  0  0  0  0  0  0  0  0  0
  -24.0624  -11.0001   26.9303 O   0  0  0  0  0  0  0  0  0  0  0  0
  -29.4461  -24.5006   19.8707 O   0  0  0  0  0  0  0  0  0  1  0  0
  -19.6241   -7.9421   28.0940 F   0  0  0  0  0  0  0  0  0  0  0  0
  -24.3150   -8.5642   28.2130 F   0  0  0  0  0  0  0  0  0  0  0  0
  1  2  1  0  0  0  0
  1  5  2  0  0  0  0
  2  6  2  0  0  0  0
  3  8  2  0  0  0  0
  3 16  1  0  0  0  0
  4  9  1  0  0  0  0
  4 16  2  0  0  0  0
  5 18  1  0  0  0  0
  6 20  1  0  0  0  0
  7 10  2  0  0  0  0
  7 19  1  0  0  0  0
  8 27  1  0  0  0  0
  9 27  2  0  0  0  0
 10 28  1  0  0  0  0
 11 12  2  0  0  0  0
 11 29  1  0  0  0  0
 12 30  1  0  0  0  0
 13 21  1  0  0  0  0
 13 23  2  0  0  0  0
 14 22  1  0  0  0  0
 14 28  2  0  0  0  0
 15 30  2  0  0  0  0
 15 31  1  0  0  0  0
 16 32  1  0  0  0  0
 17 32  1  0  0  0  0
 17 33  2  0  0  0  0
 17 34  1  0  0  0  0
 18 20  2  0  0  0  0
 18 39  1  0  0  0  0
 19 22  2  0  0  0  0
 19 40  1  0  0  0  0
 20 56  1  0  0  0  0
 21 24  2  0  0  0  0
 21 55  1  0  0  0  0
 22 41  1  0  0  0  0
 23 25  1  0  0  0  0
 23 62  1  0  0  0  0
 24 26  1  0  0  0  0
 24 63  1  0  0  0  0
 25 26  2  0  0  0  0
 25 64  1  0  0  0  0
 26 65  1  0  0  0  0
 27 92  1  0  0  0  0
 28 93  1  0  0  0  0
 29 31  2  0  0  0  0
 29 92  1  0  0  0  0
 30 94  1  0  0  0  0
 31 95  1  0  0  0  0
 32 77  2  0  0  0  0
 33 78  1  0  0  0  0
 33 82  1  0  0  0  0
 34 83  1  0  0  0  0
 34 87  2  0  0  0  0
 35 57  1  0  0  0  0
 35 84  1  0  0  0  0
 35 88  2  0  0  0  0
 36 73  1  0  0  0  0
 36 79  1  0  0  0  0
 36 89  2  0  0  0  0
 37 74  1  0  0  0  0
 37 85  1  0  0  0  0
 37 90  2  0  0  0  0
 38 80  1  0  0  0  0
 38 81  1  0  0  0  0
 38 91  2  0  0  0  0
 39 42  1  0  0  0  0
 40 57  1  0  0  0  0
 41 79  1  0  0  0  0
 42 44  1  0  0  0  0
 43 47  1  0  0  0  0
 43 52  1  0  0  0  0
 44 56  1  0  0  0  0
 45 48  1  0  0  0  0
 45 58  1  0  0  0  0
 46 49  1  0  0  0  0
 46 58  1  0  0  0  0
 47 59  1  0  0  0  0
 48 60  1  0  0  0  0
 49 60  1  0  0  0  0
 50 53  1  0  0  0  0
 50 55  1  0  0  0  0
 51 55  1  0  0  0  0
 51 61  1  0  0  0  0
 52 80  1  0  0  0  0
 53 81  1  0  0  0  0
 54 59  1  0  0  0  0
 54 80  1  0  0  0  0
 56 84  1  0  0  0  0
 57 79  1  0  0  0  0
 58 72  1  0  0  0  0
 59 78  1  0  0  0  0
 60 93  1  0  0  0  0
 61 75  1  0  0  0  0
 61 81  1  0  0  0  0
 66 74  1  0  0  0  0
 67 75  1  0  0  0  0
 68 76  1  0  0  0  0
 69 76  1  0  0  0  0
 70 76  1  0  0  0  0
 71 86  1  0  0  0  0
 72 75  1  0  0  0  0
 73 76  1  0  0  0  0
 73 85  1  0  0  0  0
 74 86  1  0  0  0  0
 77 78  1  0  0  0  0
M  CHG  1  86   1
M  ISO  4  38 100  60 101  81 100  93 101
M  END
> <Batch ID>
0164

> <Smiles>
CNC(C)C(=O)NC(C(=O)N1Cc2cc([101O:1][101CH:1]3CCC(CC(C)C4CC(c5cc(C)c(C)c(C)c5C)CC[100N:0]4[100C:0](=O)N4CCCC(n5nc(-c6ccc(Oc7ccc(F)cc7F)cc6)c(C(N)=O)c5N)C4)CC3)ccc2CC1C(=O)NC1CCCc2ccccc21)C(C)(C)C

> <Shape>
0.280

> <Color>
0.087

> <Negative vol penalty>
0.000

$$$$

  -OEChem-04052322193D

 86 95  0     1  0  0  0  0  0999 V2000
  -16.7765  -26.8537   21.6361 C   0  0  0  0  0  0  0  0  0  0  0  0
  -17.9807  -26.8597   20.9395 C   0  0  0  0  0  0  0  0  0  0  0  0
  -26.5425  -14.5510   20.2022 C   0  0  0  0  0  0  0  0  0  0  0  0
  -24.2801  -14.5745   21.0496 C   0  0  0  0  0  0  0  0  0  0  0  0
  -16.6397  -27.6151   22.7960 C   0  0  0  0  0  0  0  0  0  0  0  0
  -19.0485  -27.6281   21.4018 C   0  0  0  0  0  0  0  0  0  0  0  0
  -23.4432  -25.1143   21.2890 C   0  0  0  0  0  0  0  0  0  0  0  0
  -26.6314  -13.1865   20.4774 C   0  0  0  0  0  0  0  0  0  0  0  0
  -24.3690  -13.2100   21.3249 C   0  0  0  0  0  0  0  0  0  0  0  0
  -24.0756  -24.9927   20.0525 C   0  0  0  0  0  0  0  0  0  0  0  0
  -24.1715  -10.3062   19.6075 C   0  0  0  0  0  0  0  0  0  0  0  0
  -23.0932   -9.5010   19.2408 C   0  0  0  0  0  0  0  0  0  0  0  0
  -25.5534  -26.8078   20.6364 C   0  0  0  0  0  0  0  0  0  0  0  0
  -22.7933   -8.8515   21.5485 C   0  0  0  0  0  0  0  0  0  0  0  0
  -25.3668  -15.2451   20.4883 C   0  0  0  0  0  0  0  0  0  0  0  0
  -24.8330  -17.2544   19.0100 C   0  0  0  0  0  0  0  0  0  0  0  0
  -17.7095  -28.3857   23.2781 C   0  0  0  0  0  0  0  0  0  0  0  0
  -23.8547  -26.0925   22.2057 C   0  0  0  0  0  0  0  0  0  0  0  0
  -18.9255  -28.4016   22.5686 C   0  0  0  0  0  0  0  0  0  0  0  0
  -24.9262  -26.9381   21.8849 C   0  0  0  0  0  0  0  0  0  0  0  0
  -25.5447  -12.5160   21.0388 C   0  0  0  0  0  0  0  0  0  0  0  0
  -25.1289  -25.8413   19.7248 C   0  0  0  0  0  0  0  0  0  0  0  0
  -24.5608  -10.3840   20.9447 C   0  0  0  0  0  0  0  0  0  0  0  0
  -22.4041   -8.7737   20.2113 C   0  0  0  0  0  0  0  0  0  0  0  0
  -23.8717   -9.6567   21.9152 C   0  0  0  0  0  0  0  0  0  0  0  0
  -25.2745  -16.6547   20.2047 C   0  0  0  0  0  0  0  0  0  0  0  0
  -24.9343  -18.6038   19.2453 C   0  0  0  0  0  0  0  0  0  0  0  0
  -24.3724  -16.6460   17.7961 C   0  0  0  0  0  0  0  0  0  0  0  0
  -29.6169  -23.4494   19.3668 C   0  0  0  0  0  0  0  0  0  0  0  0
  -22.4773  -28.6144   23.5645 C   0  0  0  0  0  0  0  0  0  0  0  0
  -25.2476  -28.7311   25.2480 C   0  0  0  0  0  0  0  0  0  0  0  0
  -28.5629  -27.9419   25.4296 C   0  0  0  0  0  0  0  0  0  0  0  0
  -28.2596  -22.4233   21.9682 C   0  0  0  0  0  0  0  0  0  0  0  0
  -17.4989  -29.2296   24.5103 C   0  0  0  0  0  0  0  0  0  0  0  0
  -23.1798  -26.1932   23.5461 C   0  0  0  0  0  0  0  0  0  0  0  0
  -25.4195  -27.9912   22.8421 C   0  0  0  0  0  0  0  0  0  0  0  0
  -18.7990  -29.7230   25.1401 C   0  0  0  0  0  0  0  0  0  0  0  0
  -31.6922  -21.4124   21.5205 C   0  0  0  0  0  0  0  0  0  0  0  0
  -25.1498  -21.4477   23.2660 C   0  0  0  0  0  0  0  0  0  0  0  0
  -19.7312  -30.2832   24.0705 C   0  0  0  0  0  0  0  0  0  0  0  0
  -31.6533  -22.5419   20.4989 C   0  0  0  0  0  0  0  0  0  0  0  0
  -24.8188  -20.1600   22.5150 C   0  0  0  0  0  0  0  0  0  0  0  0
  -29.9100  -26.6912   17.5215 C   0  0  0  0  0  0  0  0  0  0  0  0
  -26.6351  -21.5164   23.5968 C   0  0  0  0  0  0  0  0  0  0  0  0
  -30.2593  -20.9062   21.5304 C   0  0  0  0  0  0  0  0  0  0  0  0
  -30.4818  -25.7466   19.6292 C   0  0  0  0  0  0  0  0  0  0  0  0
  -27.2027  -20.1375   21.6191 C   0  0  0  0  0  0  0  0  0  0  0  0
  -20.1147  -29.2029   23.0521 C   0  0  1  0  0  0  0  0  0  0  0  0
  -30.2652  -23.1494   20.6812 C   0  0  2  0  0  0  0  0  0  0  0  0
  -23.3449  -27.5631   24.1968 C   0  0  1  0  0  0  0  0  0  0  0  0
  -31.0240  -26.7008   18.5707 C   0  0  1  0  0  0  0  0  0  0  0  0
  -25.7060  -20.0113   21.2682 C   0  0  1  0  0  0  0  0  0  0  0  0
  -29.3409  -25.2616   17.5623 C   0  0  2  0  0  0  0  0  0  0  0  0
  -32.3561  -26.2217   17.9972 C   0  0  0  0  0  0  0  0  0  0  0  0
  -30.5718  -28.2036   26.9105 C   0  0  0  0  0  0  0  0  0  0  0  0
  -27.4929  -25.8722   15.9809 C   0  0  0  0  0  0  0  0  0  0  0  0
  -25.5121  -31.6415   24.3708 C   0  0  0  0  0  0  0  0  0  0  0  0
  -27.9197  -31.5554   25.0524 C   0  0  0  0  0  0  0  0  0  0  0  0
  -26.1299  -31.2104   26.7555 C   0  0  0  0  0  0  0  0  0  0  0  0
  -28.8585  -25.0137   25.7419 C   0  0  0  0  0  0  0  0  0  0  0  0
  -27.1260  -26.0845   18.4565 C   0  0  0  0  0  0  0  0  0  1  0  0
  -26.5887  -29.3968   25.0549 C   0  0  1  0  0  0  0  0  0  0  0  0
  -29.3909  -27.3200   26.5396 C   0  0  2  0  0  0  0  0  0  0  0  0
  -27.8303  -25.2895   17.3525 C   0  0  2  0  0  0  0  0  0  0  0  0
  -26.5273  -30.9326   25.2894 C   0  0  0  0  0  0  0  0  0  0  0  0
  -25.6300  -17.5498   21.1302 N   0  0  0  0  0  0  0  0  0  0  0  0
  -25.4120  -18.7256   20.5169 N   0  0  0  0  0  0  0  0  0  0  0  0
  -29.7487  -24.7382   18.8754 N   0  0  0  0  0  0  0  0  0  0  0  0
  -24.7230  -28.0546   24.1376 N   0  0  0  0  0  0  0  0  0  0  0  0
  -27.4602  -21.3563   22.3986 N   0  0  0  0  0  0  0  0  0  0  0  0
  -29.4570  -22.1108   21.3181 N   0  0  0  0  0  0  0  0  0  0  0  0
  -24.6605  -19.6861   18.4864 N   0  0  0  0  0  0  0  0  0  0  0  0
  -24.3315  -15.2469   17.7237 N   0  0  0  0  0  0  0  0  0  0  0  0
  -21.1264  -28.3262   23.6020 N   0  0  0  0  0  0  0  0  0  0  0  0
  -27.5222  -28.6956   25.9298 N   0  0  0  0  0  0  0  0  0  0  0  0
  -29.9138  -25.9911   26.1135 N   0  3  0  0  0  0  0  0  0  0  0  0
  -24.0235  -17.3229   16.7993 O   0  0  0  0  0  0  0  0  0  0  0  0
  -29.0086  -22.5530   18.7752 O   0  0  0  0  0  0  0  0  0  0  0  0
  -22.9951  -29.6138   23.0799 O   0  0  0  0  0  0  0  0  0  0  0  0
  -24.6895  -28.8025   26.3457 O   0  0  0  0  0  0  0  0  0  0  0  0
  -28.8163  -27.7786   24.2382 O   0  0  0  0  0  0  0  0  0  0  0  0
  -27.9307  -23.5989   22.1737 O   0  0  0  0  0  0  0  0  0  0  0  0
  -25.6311  -11.1845   21.3073 O   0  0  0  0  0  0  0  0  0  0  0  0
  -25.7519  -25.7243   18.5096 O   0  0  0  0  0  0  0  0  0  1  0  0
  -21.3676   -8.0017   19.8592 F   0  0  0  0  0  0  0  0  0  0  0  0
  -24.2403   -9.7284   23.2016 F   0  0  0  0  0  0  0  0  0  0  0  0
  1  2  1  0  0  0  0
  1  5  2  0  0  0  0
  2  6  2  0  0  0  0
  3  8  2  0  0  0  0
  3 15  1  0  0  0  0
  4  9  1  0  0  0  0
  4 15  2  0  0  0  0
  5 17  1  0  0  0  0
  6 19  1  0  0  0  0
  7 10  2  0  0  0  0
  7 18  1  0  0  0  0
  8 21  1  0  0  0  0
  9 21  2  0  0  0  0
 10 22  1  0  0  0  0
 11 12  2  0  0  0  0
 11 23  1  0  0  0  0
 12 24  1  0  0  0  0
 13 20  1  0  0  0  0
 13 22  2  0  0  0  0
 14 24  2  0  0  0  0
 14 25  1  0  0  0  0
 15 26  1  0  0  0  0
 16 26  1  0  0  0  0
 16 27  2  0  0  0  0
 16 28  1  0  0  0  0
 17 19  2  0  0  0  0
 17 34  1  0  0  0  0
 18 20  2  0  0  0  0
 18 35  1  0  0  0  0
 19 48  1  0  0  0  0
 20 36  1  0  0  0  0
 21 83  1  0  0  0  0
 22 84  1  0  0  0  0
 23 25  2  0  0  0  0
 23 83  1  0  0  0  0
 24 85  1  0  0  0  0
 25 86  1  0  0  0  0
 26 66  2  0  0  0  0
 27 67  1  0  0  0  0
 27 72  1  0  0  0  0
 28 73  1  0  0  0  0
 28 77  2  0  0  0  0
 29 49  1  0  0  0  0
 29 68  1  0  0  0  0
 29 78  2  0  0  0  0
 30 50  1  0  0  0  0
 30 74  1  0  0  0  0
 30 79  2  0  0  0  0
 31 62  1  0  0  0  0
 31 69  1  0  0  0  0
 31 80  2  0  0  0  0
 32 63  1  0  0  0  0
 32 75  1  0  0  0  0
 32 81  2  0  0  0  0
 33 70  1  0  0  0  0
 33 71  1  0  0  0  0
 33 82  2  0  0  0  0
 34 37  1  0  0  0  0
 35 50  1  0  0  0  0
 36 69  1  0  0  0  0
 37 40  1  0  0  0  0
 38 41  1  0  0  0  0
 38 45  1  0  0  0  0
 39 42  1  0  0  0  0
 39 44  1  0  0  0  0
 40 48  1  0  0  0  0
 41 49  1  0  0  0  0
 42 52  1  0  0  0  0
 43 51  1  0  0  0  0
 43 53  1  0  0  0  0
 44 70  1  0  0  0  0
 45 71  1  0  0  0  0
 46 51  1  0  0  0  0
 46 68  1  0  0  0  0
 47 52  1  0  0  0  0
 47 70  1  0  0  0  0
 48 74  1  0  0  0  0
 49 71  1  0  0  0  0
 50 69  1  0  0  0  0
 51 54  1  0  0  0  0
 52 67  1  0  0  0  0
 53 64  1  0  0  0  0
 53 68  1  0  0  0  0
 55 63  1  0  0  0  0
 56 64  1  0  0  0  0
 57 65  1  0  0  0  0
 58 65  1  0  0  0  0
 59 65  1  0  0  0  0
 60 76  1  0  0  0  0
 61 64  1  0  0  0  0
 61 84  1  0  0  0  0
 62 65  1  0  0  0  0
 62 75  1  0  0  0  0
 63 76  1  0  0  0  0
 66 67  1  0  0  0  0
M  CHG  1  76   1
M  ISO  4  33 100  61 101  71 100  84 101
M  END
> <Batch ID>
0164

> <Smiles>
CNC(C)C(=O)NC(C(=O)N1Cc2cc([101O:1][101CH2:1]C(C)C3CC(C)CN3C(=O)C3CCC[100N:0]3[100C:0](=O)N3CCCC(n4nc(-c5ccc(Oc6ccc(F)cc6F)cc5)c(C(N)=O)c4N)C3)ccc2CC1C(=O)NC1CCCc2ccccc21)C(C)(C)C

> <Shape>
0.253

> <Color>
0.075

> <Negative vol penalty>
0.000

$$$$

  -OEChem-04052322193D

 84 94  0     1  0  0  0  0  0999 V2000
  -28.8251  -34.4162   23.3039 C   0  0  0  0  0  0  0  0  0  0  0  0
  -29.4841  -33.2819   22.8405 C   0  0  0  0  0  0  0  0  0  0  0  0
  -23.1519   -9.9813   19.8796 C   0  0  0  0  0  0  0  0  0  0  0  0
  -23.7230   -9.8881   22.2253 C   0  0  0  0  0  0  0  0  0  0  0  0
  -27.4867  -34.3361   23.6861 C   0  0  0  0  0  0  0  0  0  0  0  0
  -28.8052  -32.0666   22.7602 C   0  0  0  0  0  0  0  0  0  0  0  0
  -28.5159  -26.0824   18.8330 C   0  0  0  0  0  0  0  0  0  0  0  0
  -22.3860   -8.8240   20.0201 C   0  0  0  0  0  0  0  0  0  0  0  0
  -22.9571   -8.7308   22.3658 C   0  0  0  0  0  0  0  0  0  0  0  0
  -28.5584  -24.6964   18.9773 C   0  0  0  0  0  0  0  0  0  0  0  0
  -23.2804   -5.4327   21.6955 C   0  0  0  0  0  0  0  0  0  0  0  0
  -23.8318   -4.3743   22.4174 C   0  0  0  0  0  0  0  0  0  0  0  0
  -26.2253  -24.6946   19.5901 C   0  0  0  0  0  0  0  0  0  0  0  0
  -21.9981   -4.4891   23.9863 C   0  0  0  0  0  0  0  0  0  0  0  0
  -23.8204  -10.5133   20.9822 C   0  0  0  0  0  0  0  0  0  0  0  0
  -24.1799  -13.0388   20.9959 C   0  0  0  0  0  0  0  0  0  0  0  0
  -26.7883  -33.1213   23.6013 C   0  0  0  0  0  0  0  0  0  0  0  0
  -27.3285  -26.7873   19.0773 C   0  0  0  0  0  0  0  0  0  0  0  0
  -27.4565  -31.9699   23.1429 C   0  0  0  0  0  0  0  0  0  0  0  0
  -26.1696  -26.0893   19.4458 C   0  0  0  0  0  0  0  0  0  0  0  0
  -22.2886   -8.1987   21.2632 C   0  0  0  0  0  0  0  0  0  0  0  0
  -27.4138  -24.0025   19.3587 C   0  0  0  0  0  0  0  0  0  0  0  0
  -22.0878   -6.0194   22.1189 C   0  0  0  0  0  0  0  0  0  0  0  0
  -23.1907   -3.9025   23.5628 C   0  0  0  0  0  0  0  0  0  0  0  0
  -21.4467   -5.5475   23.2643 C   0  0  0  0  0  0  0  0  0  0  0  0
  -24.6122  -11.7084   20.8376 C   0  0  0  0  0  0  0  0  0  0  0  0
  -25.3007  -13.7950   20.7539 C   0  0  0  0  0  0  0  0  0  0  0  0
  -22.8815  -13.5457   21.3318 C   0  0  0  0  0  0  0  0  0  0  0  0
  -26.4389  -29.0367   21.1395 C   0  0  0  0  0  0  0  0  0  0  0  0
  -23.7111  -29.0185   19.3842 C   0  0  0  0  0  0  0  0  0  0  0  0
  -21.6292  -27.3161   17.2831 C   0  0  0  0  0  0  0  0  0  0  0  0
  -29.7047  -14.6330   17.2767 C   0  0  0  0  0  0  0  0  0  0  0  0
  -25.3558  -33.0732   24.0705 C   0  0  0  0  0  0  0  0  0  0  0  0
  -27.2922  -28.2795   18.8913 C   0  0  0  0  0  0  0  0  0  0  0  0
  -24.8646  -26.7970   19.7000 C   0  0  0  0  0  0  0  0  0  0  0  0
  -24.6025  -31.8312   23.6012 C   0  0  0  0  0  0  0  0  0  0  0  0
  -30.1514  -12.4810   20.2620 C   0  0  0  0  0  0  0  0  0  0  0  0
  -25.4449  -30.5794   23.8254 C   0  0  0  0  0  0  0  0  0  0  0  0
  -28.7106  -12.1380   20.6381 C   0  0  0  0  0  0  0  0  0  0  0  0
  -25.5937  -19.3253   15.6108 C   0  0  0  0  0  0  0  0  0  0  0  0
  -25.0003  -18.6032   16.7780 C   0  0  0  0  0  0  0  0  0  0  0  0
  -27.4669  -17.4628   18.3006 C   0  0  0  0  0  0  0  0  0  0  0  0
  -28.0763  -17.6521   15.8856 C   0  0  0  0  0  0  0  0  0  0  0  0
  -26.4449  -20.5862   17.7024 C   0  0  0  0  0  0  0  0  0  0  0  0
  -30.2984  -12.7556   18.7683 C   0  0  0  0  0  0  0  0  0  0  0  0
  -28.6878  -16.5723   18.5232 C   0  0  0  0  0  0  0  0  0  0  0  0
  -29.3104  -16.7883   16.1425 C   0  0  0  0  0  0  0  0  0  0  0  0
  -27.9297  -13.4570   18.6316 C   0  0  0  0  0  0  0  0  0  0  0  0
  -26.7472  -30.6390   23.0179 C   0  0  1  0  0  0  0  0  0  0  0  0
  -26.1618  -28.9507   19.6652 C   0  0  1  0  0  0  0  0  0  0  0  0
  -27.8059  -20.5432   18.4093 C   0  0  1  0  0  0  0  0  0  0  0  0
  -28.6666  -19.6164   17.5148 C   0  0  1  0  0  0  0  0  0  0  0  0
  -27.7417  -13.2233   20.1375 C   0  0  1  0  0  0  0  0  0  0  0  0
  -26.3477  -19.2822   16.9299 C   0  0  0  0  0  0  0  0  0  0  0  0
  -27.6503  -18.4725   17.1228 C   0  0  0  0  0  0  0  0  0  0  0  0
  -29.2724  -20.3571   16.3130 C   0  0  0  0  0  0  0  0  0  0  0  0
  -19.4577  -27.5484   16.0469 C   0  0  0  0  0  0  0  0  0  0  0  0
  -22.1842  -28.5952   21.9917 C   0  0  0  0  0  0  0  0  0  0  0  0
  -20.1999  -27.8952   20.6350 C   0  0  0  0  0  0  0  0  0  0  0  0
  -21.1135  -30.2050   20.4054 C   0  0  0  0  0  0  0  0  0  0  0  0
  -22.9527  -26.9704   14.6586 C   0  0  0  0  0  0  0  0  0  0  0  0
  -28.3678  -21.9317   18.6824 C   0  0  0  0  0  0  0  0  0  1  0  0
  -22.4078  -28.2588   19.4417 C   0  0  1  0  0  0  0  0  0  0  0  0
  -20.9674  -27.7178   15.9772 C   0  0  2  0  0  0  0  0  0  0  0  0
  -21.5013  -28.7251   20.6156 C   0  0  0  0  0  0  0  0  0  0  0  0
  -25.9065  -11.6211   20.5195 N   0  0  0  0  0  0  0  0  0  0  0  0
  -26.2972  -12.9063   20.4759 N   0  0  0  0  0  0  0  0  0  0  0  0
  -24.8815  -28.2570   19.5111 N   0  0  0  0  0  0  0  0  0  0  0  0
  -29.3328  -13.7530   18.3070 N   0  0  0  0  0  0  0  0  0  0  0  0
  -29.1052  -15.9036   17.2865 N   0  0  0  0  0  0  0  0  0  0  0  0
  -25.5211  -15.1269   20.7539 N   0  0  0  0  0  0  0  0  0  0  0  0
  -21.8423  -12.6304   21.5477 N   0  0  0  0  0  0  0  0  0  0  0  0
  -26.4942  -30.3284   21.6272 N   0  0  0  0  0  0  0  0  0  0  0  0
  -21.7969  -28.3960   18.1240 N   0  0  0  0  0  0  0  0  0  0  0  0
  -21.4830  -26.8817   14.8566 N   0  3  0  0  0  0  0  0  0  0  0  0
  -22.6458  -14.7745   21.4212 O   0  0  0  0  0  0  0  0  0  0  0  0
  -26.5897  -28.0072   21.7869 O   0  0  0  0  0  0  0  0  0  0  0  0
  -23.6916  -30.2416   19.2251 O   0  0  0  0  0  0  0  0  0  0  0  0
  -21.9606  -26.1595   17.5336 O   0  0  0  0  0  0  0  0  0  0  0  0
  -30.5156  -14.3046   16.4021 O   0  0  0  0  0  0  0  0  0  0  0  0
  -21.5412   -7.0696   21.4007 O   0  0  0  0  0  0  0  0  0  0  0  0
  -27.4531  -22.6379   19.5021 O   0  0  0  0  0  0  0  0  0  1  0  0
  -23.7196   -2.8850   24.2552 F   0  0  0  0  0  0  0  0  0  0  0  0
  -20.3001   -6.1063   23.6754 F   0  0  0  0  0  0  0  0  0  0  0  0
  1  2  1  0  0  0  0
  1  5  2  0  0  0  0
  2  6  2  0  0  0  0
  3  8  2  0  0  0  0
  3 15  1  0  0  0  0
  4  9  1  0  0  0  0
  4 15  2  0  0  0  0
  5 17  1  0  0  0  0
  6 19  1  0  0  0  0
  7 10  2  0  0  0  0
  7 18  1  0  0  0  0
  8 21  1  0  0  0  0
  9 21  2  0  0  0  0
 10 22  1  0  0  0  0
 11 12  2  0  0  0  0
 11 23  1  0  0  0  0
 12 24  1  0  0  0  0
 13 20  1  0  0  0  0
 13 22  2  0  0  0  0
 14 24  2  0  0  0  0
 14 25  1  0  0  0  0
 15 26  1  0  0  0  0
 16 26  1  0  0  0  0
 16 27  2  0  0  0  0
 16 28  1  0  0  0  0
 17 19  2  0  0  0  0
 17 33  1  0  0  0  0
 18 20  2  0  0  0  0
 18 34  1  0  0  0  0
 19 49  1  0  0  0  0
 20 35  1  0  0  0  0
 21 81  1  0  0  0  0
 22 82  1  0  0  0  0
 23 25  2  0  0  0  0
 23 81  1  0  0  0  0
 24 83  1  0  0  0  0
 25 84  1  0  0  0  0
 26 66  2  0  0  0  0
 27 67  1  0  0  0  0
 27 71  1  0  0  0  0
 28 72  1  0  0  0  0
 28 76  2  0  0  0  0
 29 50  1  0  0  0  0
 29 73  1  0  0  0  0
 29 77  2  0  0  0  0
 30 63  1  0  0  0  0
 30 68  1  0  0  0  0
 30 78  2  0  0  0  0
 31 64  1  0  0  0  0
 31 74  1  0  0  0  0
 31 79  2  0  0  0  0
 32 69  1  0  0  0  0
 32 70  1  0  0  0  0
 32 80  2  0  0  0  0
 33 36  1  0  0  0  0
 34 50  1  0  0  0  0
 35 68  1  0  0  0  0
 36 38  1  0  0  0  0
 37 39  1  0  0  0  0
 37 45  1  0  0  0  0
 38 49  1  0  0  0  0
 39 53  1  0  0  0  0
 40 41  1  0  0  0  0
 40 54  1  0  0  0  0
 41 54  1  0  0  0  0
 42 46  1  0  0  0  0
 42 55  1  0  0  0  0
 43 47  1  0  0  0  0
 43 55  1  0  0  0  0
 44 51  1  0  0  0  0
 44 54  1  0  0  0  0
 45 69  1  0  0  0  0
 46 70  1  0  0  0  0
 47 70  1  0  0  0  0
 48 53  1  0  0  0  0
 48 69  1  0  0  0  0
 49 73  1  0  0  0  0
 50 68  1  0  0  0  0
 51 52  1  0  0  0  0
 51 62  1  0  0  0  0
 52 55  1  0  0  0  0
 52 56  1  0  0  0  0
 53 67  1  0  0  0  0
 54 55  1  0  0  0  0
 57 64  1  0  0  0  0
 58 65  1  0  0  0  0
 59 65  1  0  0  0  0
 60 65  1  0  0  0  0
 61 75  1  0  0  0  0
 62 82  1  0  0  0  0
 63 65  1  0  0  0  0
 63 74  1  0  0  0  0
 64 75  1  0  0  0  0
 66 67  1  0  0  0  0
M  CHG  1  75   1
M  ISO  4  32 100  62 101  70 100  82 101
M  END
> <Batch ID>
0164

> <Smiles>
CNC(C)C(=O)NC(C(=O)N1Cc2cc([101O:1][101CH2:1]C3CC4(CC4)C4(CC[100N:0]([100C:0](=O)N5CCCC(n6nc(-c7ccc(Oc8ccc(F)cc8F)cc7)c(C(N)=O)c6N)C5)CC4)C3C)ccc2CC1C(=O)NC1CCCc2ccccc21)C(C)(C)C

> <Shape>
0.295

> <Color>
0.185

> <Negative vol penalty>
0.000

$$$$
