
  -OEChem-04052322223D

 89 99  0     1  0  0  0  0  0999 V2000
  -26.7674  -34.5112   25.1144 C   0  0  0  0  0  0  0  0  0  0  0  0
  -27.1816  -33.2923   24.5870 C   0  0  0  0  0  0  0  0  0  0  0  0
  -22.7578  -12.1235   19.4332 C   0  0  0  0  0  0  0  0  0  0  0  0
  -23.7225  -10.0093   18.7727 C   0  0  0  0  0  0  0  0  0  0  0  0
  -25.4499  -34.6734   25.5408 C   0  0  0  0  0  0  0  0  0  0  0  0
  -26.2787  -32.2344   24.4867 C   0  0  0  0  0  0  0  0  0  0  0  0
  -26.5497  -29.8659   20.0189 C   0  0  0  0  0  0  0  0  0  0  0  0
  -21.8206  -12.0170   18.4057 C   0  0  0  0  0  0  0  0  0  0  0  0
  -22.7852   -9.9027   17.7451 C   0  0  0  0  0  0  0  0  0  0  0  0
  -27.6048  -28.9734   19.8344 C   0  0  0  0  0  0  0  0  0  0  0  0
  -19.5363   -9.0313   17.4198 C   0  0  0  0  0  0  0  0  0  0  0  0
  -18.9050   -7.7998   17.2457 C   0  0  0  0  0  0  0  0  0  0  0  0
  -26.1203  -27.1308   20.3035 C   0  0  0  0  0  0  0  0  0  0  0  0
  -31.7100  -21.0837   18.3843 C   0  0  0  0  0  0  0  0  0  0  0  0
  -19.7871   -7.6651   15.0005 C   0  0  0  0  0  0  0  0  0  0  0  0
  -23.7088  -11.1197   19.6167 C   0  0  0  0  0  0  0  0  0  0  0  0
  -24.5494  -10.7582   21.9980 C   0  0  0  0  0  0  0  0  0  0  0  0
  -24.5278  -33.6199   25.4367 C   0  0  0  0  0  0  0  0  0  0  0  0
  -25.2724  -29.3974   20.3584 C   0  0  0  0  0  0  0  0  0  0  0  0
  -24.9479  -32.3822   24.9134 C   0  0  0  0  0  0  0  0  0  0  0  0
  -25.0501  -28.0192   20.4893 C   0  0  0  0  0  0  0  0  0  0  0  0
  -29.7429  -20.1832   19.4595 C   0  0  0  0  0  0  0  0  0  0  0  0
  -29.6870  -22.3995   18.4993 C   0  0  0  0  0  0  0  0  0  0  0  0
  -31.0729  -20.0448   19.0628 C   0  0  0  0  0  0  0  0  0  0  0  0
  -31.0171  -22.2611   18.1026 C   0  0  0  0  0  0  0  0  0  0  0  0
  -29.0498  -21.3605   19.1778 C   0  0  0  0  0  0  0  0  0  0  0  0
  -21.8343  -10.9066   17.5616 C   0  0  0  0  0  0  0  0  0  0  0  0
  -27.3909  -27.6058   19.9795 C   0  0  0  0  0  0  0  0  0  0  0  0
  -20.2930   -9.5798   16.3843 C   0  0  0  0  0  0  0  0  0  0  0  0
  -19.0304   -7.1166   16.0361 C   0  0  0  0  0  0  0  0  0  0  0  0
  -20.4184   -8.8967   15.1746 C   0  0  0  0  0  0  0  0  0  0  0  0
  -24.6776  -11.2294   20.6776 C   0  0  0  0  0  0  0  0  0  0  0  0
  -25.7317  -11.1074   22.6035 C   0  0  0  0  0  0  0  0  0  0  0  0
  -23.4591  -10.0665   22.6213 C   0  0  0  0  0  0  0  0  0  0  0  0
  -23.3273  -29.7868   22.8421 C   0  0  0  0  0  0  0  0  0  0  0  0
  -21.2592  -28.1108   20.9884 C   0  0  0  0  0  0  0  0  0  0  0  0
  -20.8007  -25.8915   18.4366 C   0  0  0  0  0  0  0  0  0  0  0  0
  -29.7401  -15.2988   21.7035 C   0  0  0  0  0  0  0  0  0  0  0  0
  -23.1267  -33.8278   25.9546 C   0  0  0  0  0  0  0  0  0  0  0  0
  -24.1386  -30.3713   20.5278 C   0  0  0  0  0  0  0  0  0  0  0  0
  -23.6929  -27.4639   20.8329 C   0  0  0  0  0  0  0  0  0  0  0  0
  -22.1348  -32.7746   25.4675 C   0  0  0  0  0  0  0  0  0  0  0  0
  -30.3462  -11.8961   21.6530 C   0  0  0  0  0  0  0  0  0  0  0  0
  -22.7254  -31.3760   25.6159 C   0  0  0  0  0  0  0  0  0  0  0  0
  -28.9527  -11.2807   21.5278 C   0  0  0  0  0  0  0  0  0  0  0  0
  -28.9611  -17.7755   19.3420 C   0  0  0  0  0  0  0  0  0  0  0  0
  -29.7224  -18.7514   21.5506 C   0  0  0  0  0  0  0  0  0  0  0  0
  -27.9175  -24.3072   19.2395 C   0  0  0  0  0  0  0  0  0  0  0  0
  -29.6500  -25.0968   18.2952 C   0  0  0  0  0  0  0  0  0  0  0  0
  -30.4796  -13.1293   20.7670 C   0  0  0  0  0  0  0  0  0  0  0  0
  -28.2921  -16.6283   20.1046 C   0  0  0  0  0  0  0  0  0  0  0  0
  -29.0158  -17.5998   22.2599 C   0  0  0  0  0  0  0  0  0  0  0  0
  -28.0519  -13.5791   20.9143 C   0  0  0  0  0  0  0  0  0  0  0  0
  -29.0522  -19.0519   20.1976 C   0  0  0  0  0  0  0  0  0  0  0  0
  -28.9023  -23.7376   18.1784 C   0  0  0  0  0  0  0  0  0  0  0  0
  -23.9916  -31.2187   24.7654 C   0  0  1  0  0  0  0  0  0  0  0  0
  -22.9978  -29.8184   21.3765 C   0  0  1  0  0  0  0  0  0  0  0  0
  -27.8588  -12.3293   21.7970 C   0  0  1  0  0  0  0  0  0  0  0  0
  -28.3212  -25.7229   18.7719 C   0  0  0  0  0  0  0  0  0  1  0  0
  -31.8380  -18.7949   19.3537 C   0  0  0  0  0  0  0  0  0  0  0  0
  -31.7196  -23.3609   17.3769 C   0  0  0  0  0  0  0  0  0  0  0  0
  -27.6233  -21.5118   19.6007 C   0  0  0  0  0  0  0  0  0  0  0  0
  -18.9978  -24.6848   17.1755 C   0  0  0  0  0  0  0  0  0  0  0  0
  -20.9013  -26.1960   23.3369 C   0  0  0  0  0  0  0  0  0  0  0  0
  -19.8844  -24.5490   21.7490 C   0  0  0  0  0  0  0  0  0  0  0  0
  -18.7906  -26.7601   22.1198 C   0  0  0  0  0  0  0  0  0  0  0  0
  -21.5777  -27.1628   15.8794 C   0  0  0  0  0  0  0  0  0  0  0  0
  -20.9412  -26.6477   20.7952 C   0  0  1  0  0  0  0  0  0  0  0  0
  -19.8817  -25.9212   17.2288 C   0  0  2  0  0  0  0  0  0  0  0  0
  -20.1555  -26.0485   21.9956 C   0  0  0  0  0  0  0  0  0  0  0  0
  -25.8488  -11.8323   20.4567 N   0  0  0  0  0  0  0  0  0  0  0  0
  -26.4673  -11.7422   21.6465 N   0  0  0  0  0  0  0  0  0  0  0  0
  -22.6179  -28.4567   20.9947 N   0  0  0  0  0  0  0  0  0  0  0  0
  -29.4215  -14.0988   21.0502 N   0  0  0  0  0  0  0  0  0  0  0  0
  -28.9471  -16.4165   21.4029 N   0  0  0  0  0  0  0  0  0  0  0  0
  -26.2033  -10.9305   23.8560 N   0  0  0  0  0  0  0  0  0  0  0  0
  -22.3196   -9.7869   21.8547 N   0  0  0  0  0  0  0  0  0  0  0  0
  -23.6447  -31.0219   23.3742 N   0  0  0  0  0  0  0  0  0  0  0  0
  -20.2467  -26.5464   19.5162 N   0  0  0  0  0  0  0  0  0  0  0  0
  -20.6800  -25.9827   15.9718 N   0  3  0  0  0  0  0  0  0  0  0  0
  -23.4877   -9.7215   23.8270 O   0  0  0  0  0  0  0  0  0  0  0  0
  -23.2944  -28.7209   23.4459 O   0  0  0  0  0  0  0  0  0  0  0  0
  -20.3359  -28.9179   21.1213 O   0  0  0  0  0  0  0  0  0  0  0  0
  -21.8986  -25.3391   18.4248 O   0  0  0  0  0  0  0  0  0  0  0  0
  -30.6772  -15.3682   22.5087 O   0  0  0  0  0  0  0  0  0  0  0  0
  -20.9198  -10.8022   16.5590 O   0  0  0  0  0  0  0  0  0  0  0  0
  -28.4311  -26.7225   19.7985 O   0  0  0  0  0  0  0  0  0  1  0  0
  -18.4254   -5.9333   15.8695 F   0  0  0  0  0  0  0  0  0  0  0  0
  -21.1449   -9.4180   14.1766 F   0  0  0  0  0  0  0  0  0  0  0  0
  1  2  1  0  0  0  0
  1  5  2  0  0  0  0
  2  6  2  0  0  0  0
  3  8  2  0  0  0  0
  3 16  1  0  0  0  0
  4  9  1  0  0  0  0
  4 16  2  0  0  0  0
  5 18  1  0  0  0  0
  6 20  1  0  0  0  0
  7 10  2  0  0  0  0
  7 19  1  0  0  0  0
  8 27  1  0  0  0  0
  9 27  2  0  0  0  0
 10 28  1  0  0  0  0
 11 12  2  0  0  0  0
 11 29  1  0  0  0  0
 12 30  1  0  0  0  0
 13 21  1  0  0  0  0
 13 28  2  0  0  0  0
 14 24  1  0  0  0  0
 14 25  2  0  0  0  0
 15 30  2  0  0  0  0
 15 31  1  0  0  0  0
 16 32  1  0  0  0  0
 17 32  1  0  0  0  0
 17 33  2  0  0  0  0
 17 34  1  0  0  0  0
 18 20  2  0  0  0  0
 18 39  1  0  0  0  0
 19 21  2  0  0  0  0
 19 40  1  0  0  0  0
 20 56  1  0  0  0  0
 21 41  1  0  0  0  0
 22 24  2  0  0  0  0
 22 26  1  0  0  0  0
 22 54  1  0  0  0  0
 23 25  1  0  0  0  0
 23 26  2  0  0  0  0
 23 55  1  0  0  0  0
 24 60  1  0  0  0  0
 25 61  1  0  0  0  0
 26 62  1  0  0  0  0
 27 86  1  0  0  0  0
 28 87  1  0  0  0  0
 29 31  2  0  0  0  0
 29 86  1  0  0  0  0
 30 88  1  0  0  0  0
 31 89  1  0  0  0  0
 32 71  2  0  0  0  0
 33 72  1  0  0  0  0
 33 76  1  0  0  0  0
 34 77  1  0  0  0  0
 34 81  2  0  0  0  0
 35 57  1  0  0  0  0
 35 78  1  0  0  0  0
 35 82  2  0  0  0  0
 36 68  1  0  0  0  0
 36 73  1  0  0  0  0
 36 83  2  0  0  0  0
 37 69  1  0  0  0  0
 37 79  1  0  0  0  0
 37 84  2  0  0  0  0
 38 74  1  0  0  0  0
 38 75  1  0  0  0  0
 38 85  2  0  0  0  0
 39 42  1  0  0  0  0
 40 57  1  0  0  0  0
 41 73  1  0  0  0  0
 42 44  1  0  0  0  0
 43 45  1  0  0  0  0
 43 50  1  0  0  0  0
 44 56  1  0  0  0  0
 45 58  1  0  0  0  0
 46 51  1  0  0  0  0
 46 54  1  0  0  0  0
 47 52  1  0  0  0  0
 47 54  1  0  0  0  0
 48 55  1  0  0  0  0
 48 59  1  0  0  0  0
 49 55  1  0  0  0  0
 49 59  1  0  0  0  0
 50 74  1  0  0  0  0
 51 75  1  0  0  0  0
 52 75  1  0  0  0  0
 53 58  1  0  0  0  0
 53 74  1  0  0  0  0
 56 78  1  0  0  0  0
 57 73  1  0  0  0  0
 58 72  1  0  0  0  0
 59 87  1  0  0  0  0
 63 69  1  0  0  0  0
 64 70  1  0  0  0  0
 65 70  1  0  0  0  0
 66 70  1  0  0  0  0
 67 80  1  0  0  0  0
 68 70  1  0  0  0  0
 68 79  1  0  0  0  0
 69 80  1  0  0  0  0
 71 72  1  0  0  0  0
M  CHG  1  80   1
M  ISO  4  38 100  59 101  75 100  87 101
M  END
> <Batch ID>
0165

> <Smiles>
CNC(C)C(=O)NC(C(=O)N1Cc2cc([101O:1][101CH:1]3CC(c4c(C)cc(C)c(C5CC[100N:0]([100C:0](=O)N6CCCC(n7nc(-c8ccc(Oc9ccc(F)cc9F)cc8)c(C(N)=O)c7N)C6)CC5)c4C)C3)ccc2CC1C(=O)NC1CCCc2ccccc21)C(C)(C)C

> <Shape>
0.285

> <Color>
0.078

> <Negative vol penalty>
0.000

$$$$

  -OEChem-04052322223D

 88 98  0     1  0  0  0  0  0999 V2000
  -25.4355  -35.7092   21.3850 C   0  0  0  0  0  0  0  0  0  0  0  0
  -26.0872  -34.4807   21.4234 C   0  0  0  0  0  0  0  0  0  0  0  0
  -25.8715  -13.9121   20.9480 C   0  0  0  0  0  0  0  0  0  0  0  0
  -25.5136  -12.5329   18.9970 C   0  0  0  0  0  0  0  0  0  0  0  0
  -24.1623  -35.8392   21.9382 C   0  0  0  0  0  0  0  0  0  0  0  0
  -25.4665  -33.3816   22.0160 C   0  0  0  0  0  0  0  0  0  0  0  0
  -25.9083  -29.1699   19.2392 C   0  0  0  0  0  0  0  0  0  0  0  0
  -24.8756  -13.2102   21.6270 C   0  0  0  0  0  0  0  0  0  0  0  0
  -24.5177  -11.8308   19.6760 C   0  0  0  0  0  0  0  0  0  0  0  0
  -27.1292  -28.4987   19.2903 C   0  0  0  0  0  0  0  0  0  0  0  0
  -24.3407   -9.3783   21.9942 C   0  0  0  0  0  0  0  0  0  0  0  0
  -24.3483   -7.9870   21.8950 C   0  0  0  0  0  0  0  0  0  0  0  0
  -31.9182  -26.9210   19.9924 C   0  0  0  0  0  0  0  0  0  0  0  0
  -30.6627  -25.0131   19.1601 C   0  0  0  0  0  0  0  0  0  0  0  0
  -26.1909  -26.9236   20.8581 C   0  0  0  0  0  0  0  0  0  0  0  0
  -22.1398   -8.0448   20.9171 C   0  0  0  0  0  0  0  0  0  0  0  0
  -26.1904  -13.5735   19.6330 C   0  0  0  0  0  0  0  0  0  0  0  0
  -28.5936  -13.9990   18.8903 C   0  0  0  0  0  0  0  0  0  0  0  0
  -23.5217  -34.7388   22.5294 C   0  0  0  0  0  0  0  0  0  0  0  0
  -24.8209  -28.7286   20.0068 C   0  0  0  0  0  0  0  0  0  0  0  0
  -24.1841  -33.4974   22.5789 C   0  0  0  0  0  0  0  0  0  0  0  0
  -33.0238  -26.0954   20.1173 C   0  0  0  0  0  0  0  0  0  0  0  0
  -31.7784  -24.1847   19.3008 C   0  0  0  0  0  0  0  0  0  0  0  0
  -24.9565  -27.5894   20.8130 C   0  0  0  0  0  0  0  0  0  0  0  0
  -32.9586  -24.7358   19.7793 C   0  0  0  0  0  0  0  0  0  0  0  0
  -30.7319  -26.3714   19.5038 C   0  0  0  0  0  0  0  0  0  0  0  0
  -24.1987  -12.1695   20.9910 C   0  0  0  0  0  0  0  0  0  0  0  0
  -27.2716  -27.3771   20.1020 C   0  0  0  0  0  0  0  0  0  0  0  0
  -23.2327  -10.1028   21.5549 C   0  0  0  0  0  0  0  0  0  0  0  0
  -23.2478   -7.3202   21.3564 C   0  0  0  0  0  0  0  0  0  0  0  0
  -22.1322   -9.4361   21.0163 C   0  0  0  0  0  0  0  0  0  0  0  0
  -27.2187  -14.2987   18.9308 C   0  0  0  0  0  0  0  0  0  0  0  0
  -29.1356  -14.9799   18.0963 C   0  0  0  0  0  0  0  0  0  0  0  0
  -29.3162  -12.9294   19.5144 C   0  0  0  0  0  0  0  0  0  0  0  0
  -23.0710  -29.9817   22.3459 C   0  0  0  0  0  0  0  0  0  0  0  0
  -21.3198  -27.2792   21.9561 C   0  0  0  0  0  0  0  0  0  0  0  0
  -21.1930  -24.0361   20.9009 C   0  0  0  0  0  0  0  0  0  0  0  0
  -29.6164  -20.1805   16.4399 C   0  0  0  0  0  0  0  0  0  0  0  0
  -22.1647  -34.9395   23.1563 C   0  0  0  0  0  0  0  0  0  0  0  0
  -23.5027  -29.4479   19.9201 C   0  0  0  0  0  0  0  0  0  0  0  0
  -34.3751  -26.4575   20.6467 C   0  0  0  0  0  0  0  0  0  0  0  0
  -23.8137  -27.0632   21.6410 C   0  0  0  0  0  0  0  0  0  0  0  0
  -21.4222  -33.6346   23.4322 C   0  0  0  0  0  0  0  0  0  0  0  0
  -35.2203  -25.2864   20.1234 C   0  0  0  0  0  0  0  0  0  0  0  0
  -26.9285  -18.4346   15.1458 C   0  0  0  0  0  0  0  0  0  0  0  0
  -22.3490  -32.6241   24.1006 C   0  0  0  0  0  0  0  0  0  0  0  0
  -26.8677  -17.1720   16.0051 C   0  0  0  0  0  0  0  0  0  0  0  0
  -30.2262  -22.1821   19.2577 C   0  0  0  0  0  0  0  0  0  0  0  0
  -32.0225  -22.4278   17.4906 C   0  0  0  0  0  0  0  0  0  0  0  0
  -27.2363  -19.6603   15.9981 C   0  0  0  0  0  0  0  0  0  0  0  0
  -30.0821  -20.7064   18.8745 C   0  0  0  0  0  0  0  0  0  0  0  0
  -31.8553  -20.9457   17.1683 C   0  0  0  0  0  0  0  0  0  0  0  0
  -28.4517  -18.2842   17.6556 C   0  0  0  0  0  0  0  0  0  0  0  0
  -31.6381  -22.7146   18.9535 C   0  0  0  0  0  0  0  0  0  0  0  0
  -23.5334  -32.2759   23.1909 C   0  0  1  0  0  0  0  0  0  0  0  0
  -22.6135  -29.2146   21.1376 C   0  0  1  0  0  0  0  0  0  0  0  0
  -28.1494  -17.0099   16.8413 C   0  0  1  0  0  0  0  0  0  0  0  0
  -34.2810  -24.0530   20.0425 C   0  0  0  0  0  0  0  0  0  0  0  0
  -34.2378  -23.2986   21.3780 C   0  0  0  0  0  0  0  0  0  0  0  0
  -34.7148  -23.1111   18.9164 C   0  0  0  0  0  0  0  0  0  0  0  0
  -19.6357  -22.0744   20.7461 C   0  0  0  0  0  0  0  0  0  0  0  0
  -21.6555  -26.7798   24.9474 C   0  0  0  0  0  0  0  0  0  0  0  0
  -20.9358  -24.4130   24.5623 C   0  0  0  0  0  0  0  0  0  0  0  0
  -19.3704  -26.2886   24.0577 C   0  0  0  0  0  0  0  0  0  0  0  0
  -21.4010  -23.9560   17.9498 C   0  0  0  0  0  0  0  0  0  0  0  0
  -29.5239  -27.2344   19.3520 C   0  0  0  0  0  0  0  0  0  1  0  0
  -21.3548  -25.8887   22.5429 C   0  0  1  0  0  0  0  0  0  0  0  0
  -20.1901  -23.2978   20.0329 C   0  0  2  0  0  0  0  0  0  0  0  0
  -20.8514  -25.8533   24.0136 C   0  0  0  0  0  0  0  0  0  0  0  0
  -26.9066  -15.3851   18.2194 N   0  0  0  0  0  0  0  0  0  0  0  0
  -28.0930  -15.7768   17.7243 N   0  0  0  0  0  0  0  0  0  0  0  0
  -22.5469  -27.8046   21.5271 N   0  0  0  0  0  0  0  0  0  0  0  0
  -28.4577  -19.4659   16.7792 N   0  0  0  0  0  0  0  0  0  0  0  0
  -30.5024  -20.4878   17.4835 N   0  0  0  0  0  0  0  0  0  0  0  0
  -30.3975  -15.2301   17.6871 N   0  0  0  0  0  0  0  0  0  0  0  0
  -28.6046  -12.0093   20.2963 N   0  0  0  0  0  0  0  0  0  0  0  0
  -23.1219  -31.3498   22.1577 N   0  0  0  0  0  0  0  0  0  0  0  0
  -20.5944  -25.0414   21.6306 N   0  0  0  0  0  0  0  0  0  0  0  0
  -20.8325  -22.8514   18.7645 N   0  3  0  0  0  0  0  0  0  0  0  0
  -30.5586  -12.8031   19.3960 O   0  0  0  0  0  0  0  0  0  0  0  0
  -23.3552  -29.3774   23.3734 O   0  0  0  0  0  0  0  0  0  0  0  0
  -20.2424  -27.8743   21.8746 O   0  0  0  0  0  0  0  0  0  0  0  0
  -22.3872  -23.7474   20.9316 O   0  0  0  0  0  0  0  0  0  0  0  0
  -29.8469  -20.5235   15.2736 O   0  0  0  0  0  0  0  0  0  0  0  0
  -23.2271  -11.4841   21.6534 O   0  0  0  0  0  0  0  0  0  0  0  0
  -28.4707  -26.7160   20.1546 O   0  0  0  0  0  0  0  0  0  1  0  0
  -23.2558   -5.9843   21.2598 F   0  0  0  0  0  0  0  0  0  0  0  0
  -21.0654  -10.1269   20.5915 F   0  0  0  0  0  0  0  0  0  0  0  0
  1  2  1  0  0  0  0
  1  5  2  0  0  0  0
  2  6  2  0  0  0  0
  3  8  2  0  0  0  0
  3 17  1  0  0  0  0
  4  9  1  0  0  0  0
  4 17  2  0  0  0  0
  5 19  1  0  0  0  0
  6 21  1  0  0  0  0
  7 10  2  0  0  0  0
  7 20  1  0  0  0  0
  8 27  1  0  0  0  0
  9 27  2  0  0  0  0
 10 28  1  0  0  0  0
 11 12  2  0  0  0  0
 11 29  1  0  0  0  0
 12 30  1  0  0  0  0
 13 22  2  0  0  0  0
 13 26  1  0  0  0  0
 14 23  1  0  0  0  0
 14 26  2  0  0  0  0
 15 24  1  0  0  0  0
 15 28  2  0  0  0  0
 16 30  2  0  0  0  0
 16 31  1  0  0  0  0
 17 32  1  0  0  0  0
 18 32  1  0  0  0  0
 18 33  2  0  0  0  0
 18 34  1  0  0  0  0
 19 21  2  0  0  0  0
 19 39  1  0  0  0  0
 20 24  2  0  0  0  0
 20 40  1  0  0  0  0
 21 55  1  0  0  0  0
 22 25  1  0  0  0  0
 22 41  1  0  0  0  0
 23 25  2  0  0  0  0
 23 54  1  0  0  0  0
 24 42  1  0  0  0  0
 25 58  1  0  0  0  0
 26 66  1  0  0  0  0
 27 85  1  0  0  0  0
 28 86  1  0  0  0  0
 29 31  2  0  0  0  0
 29 85  1  0  0  0  0
 30 87  1  0  0  0  0
 31 88  1  0  0  0  0
 32 70  2  0  0  0  0
 33 71  1  0  0  0  0
 33 75  1  0  0  0  0
 34 76  1  0  0  0  0
 34 80  2  0  0  0  0
 35 56  1  0  0  0  0
 35 77  1  0  0  0  0
 35 81  2  0  0  0  0
 36 67  1  0  0  0  0
 36 72  1  0  0  0  0
 36 82  2  0  0  0  0
 37 68  1  0  0  0  0
 37 78  1  0  0  0  0
 37 83  2  0  0  0  0
 38 73  1  0  0  0  0
 38 74  1  0  0  0  0
 38 84  2  0  0  0  0
 39 43  1  0  0  0  0
 40 56  1  0  0  0  0
 41 44  1  0  0  0  0
 42 72  1  0  0  0  0
 43 46  1  0  0  0  0
 44 58  1  0  0  0  0
 45 47  1  0  0  0  0
 45 50  1  0  0  0  0
 46 55  1  0  0  0  0
 47 57  1  0  0  0  0
 48 51  1  0  0  0  0
 48 54  1  0  0  0  0
 49 52  1  0  0  0  0
 49 54  1  0  0  0  0
 50 73  1  0  0  0  0
 51 74  1  0  0  0  0
 52 74  1  0  0  0  0
 53 57  1  0  0  0  0
 53 73  1  0  0  0  0
 55 77  1  0  0  0  0
 56 72  1  0  0  0  0
 57 71  1  0  0  0  0
 58 59  1  0  0  0  0
 58 60  1  0  0  0  0
 61 68  1  0  0  0  0
 62 69  1  0  0  0  0
 63 69  1  0  0  0  0
 64 69  1  0  0  0  0
 65 79  1  0  0  0  0
 66 86  1  0  0  0  0
 67 69  1  0  0  0  0
 67 78  1  0  0  0  0
 68 79  1  0  0  0  0
 70 71  1  0  0  0  0
M  CHG  1  79   1
M  ISO  4  38 100  66 101  74 100  86 101
M  END
> <Batch ID>
0165

> <Smiles>
CNC(C)C(=O)NC(C(=O)N1Cc2cc([101O:1][101CH2:1]c3cc4c(c(C5CC[100N:0]([100C:0](=O)N6CCCC(n7nc(-c8ccc(Oc9ccc(F)cc9F)cc8)c(C(N)=O)c7N)C6)CC5)c3)C(C)(C)CC4)ccc2CC1C(=O)NC1CCCc2ccccc21)C(C)(C)C

> <Shape>
0.249

> <Color>
0.082

> <Negative vol penalty>
0.000

$$$$

  -OEChem-04052322223D

 85 94  0     1  0  0  0  0  0999 V2000
  -29.8037  -11.4912   19.5005 C   0  0  0  0  0  0  0  0  0  0  0  0
  -29.7554  -12.8611   19.2625 C   0  0  0  0  0  0  0  0  0  0  0  0
  -18.2160  -24.9421   20.6735 C   0  0  0  0  0  0  0  0  0  0  0  0
  -17.6217  -25.0928   23.0104 C   0  0  0  0  0  0  0  0  0  0  0  0
  -28.6423  -10.8045   19.8518 C   0  0  0  0  0  0  0  0  0  0  0  0
  -28.5453  -13.5448   19.3746 C   0  0  0  0  0  0  0  0  0  0  0  0
  -29.0070  -17.9097   21.9004 C   0  0  0  0  0  0  0  0  0  0  0  0
  -29.8647  -22.7100   17.6579 C   0  0  0  0  0  0  0  0  0  0  0  0
  -17.1839  -24.0262   20.4701 C   0  0  0  0  0  0  0  0  0  0  0  0
  -16.5895  -24.1769   22.8070 C   0  0  0  0  0  0  0  0  0  0  0  0
  -29.5463  -18.9925   21.2073 C   0  0  0  0  0  0  0  0  0  0  0  0
  -13.5698  -22.1522   22.8277 C   0  0  0  0  0  0  0  0  0  0  0  0
  -30.5737  -23.6988   16.9760 C   0  0  0  0  0  0  0  0  0  0  0  0
  -12.3285  -22.4358   23.3971 C   0  0  0  0  0  0  0  0  0  0  0  0
  -28.9878  -24.3799   19.1678 C   0  0  0  0  0  0  0  0  0  0  0  0
  -27.3249  -19.8620   20.8493 C   0  0  0  0  0  0  0  0  0  0  0  0
  -12.2094  -24.4820   22.1180 C   0  0  0  0  0  0  0  0  0  0  0  0
  -18.4349  -25.4754   21.9437 C   0  0  0  0  0  0  0  0  0  0  0  0
  -19.4283  -27.8228   22.0459 C   0  0  0  0  0  0  0  0  0  0  0  0
  -27.4192  -11.4819   19.9777 C   0  0  0  0  0  0  0  0  0  0  0  0
  -27.6195  -17.7891   22.0641 C   0  0  0  0  0  0  0  0  0  0  0  0
  -27.3662  -12.8663   19.7266 C   0  0  0  0  0  0  0  0  0  0  0  0
  -29.6969  -25.3688   18.4859 C   0  0  0  0  0  0  0  0  0  0  0  0
  -26.7706  -18.7781   21.5471 C   0  0  0  0  0  0  0  0  0  0  0  0
  -29.0717  -23.0505   18.7538 C   0  0  0  0  0  0  0  0  0  0  0  0
  -16.3706  -23.6436   21.5368 C   0  0  0  0  0  0  0  0  0  0  0  0
  -28.7051  -19.9674   20.6791 C   0  0  0  0  0  0  0  0  0  0  0  0
  -14.1311  -23.0335   21.9035 C   0  0  0  0  0  0  0  0  0  0  0  0
  -11.6483  -23.6007   23.0422 C   0  0  0  0  0  0  0  0  0  0  0  0
  -30.4899  -25.0282   17.3900 C   0  0  0  0  0  0  0  0  0  0  0  0
  -13.4508  -24.1984   21.5487 C   0  0  0  0  0  0  0  0  0  0  0  0
  -19.5013  -26.4211   22.1546 C   0  0  0  0  0  0  0  0  0  0  0  0
  -20.6975  -28.2566   22.3416 C   0  0  0  0  0  0  0  0  0  0  0  0
  -28.4348  -27.2466   20.9113 C   0  0  0  0  0  0  0  0  0  0  0  0
  -18.3130  -28.6579   21.7079 C   0  0  0  0  0  0  0  0  0  0  0  0
  -25.4313  -15.6653   21.1670 C   0  0  0  0  0  0  0  0  0  0  0  0
  -23.4717  -17.4935   22.9946 C   0  0  0  0  0  0  0  0  0  0  0  0
  -22.8266  -20.5341   24.4036 C   0  0  0  0  0  0  0  0  0  0  0  0
  -26.1246  -27.7739   21.5057 C   0  0  0  0  0  0  0  0  0  0  0  0
  -26.1812  -10.6886   20.3136 C   0  0  0  0  0  0  0  0  0  0  0  0
  -27.0551  -16.6290   22.8374 C   0  0  0  0  0  0  0  0  0  0  0  0
  -25.2754  -18.7057   21.7129 C   0  0  0  0  0  0  0  0  0  0  0  0
  -29.8318  -27.0184   21.3370 C   0  0  0  0  0  0  0  0  0  0  0  0
  -25.0112  -11.5527   20.7770 C   0  0  0  0  0  0  0  0  0  0  0  0
  -30.6172  -27.1710   20.0337 C   0  0  0  0  0  0  0  0  0  0  0  0
  -24.6605  -25.8175   24.2738 C   0  0  0  0  0  0  0  0  0  0  0  0
  -24.8330  -12.7513   19.8505 C   0  0  0  0  0  0  0  0  0  0  0  0
  -23.1792  -25.8708   23.9133 C   0  0  0  0  0  0  0  0  0  0  0  0
  -25.5530  -25.8074   23.0335 C   0  0  0  0  0  0  0  0  0  0  0  0
  -23.8018  -26.9960   21.7410 C   0  0  0  0  0  0  0  0  0  0  0  0
  -29.6051  -26.8084   18.9373 C   0  0  2  0  0  0  0  0  0  0  0  0
  -26.0772  -13.6475   19.8623 C   0  0  1  0  0  0  0  0  0  0  0  0
  -25.5959  -16.3391   22.4999 C   0  0  1  0  0  0  0  0  0  0  0  0
  -22.8929  -27.0552   22.9780 C   0  0  1  0  0  0  0  0  0  0  0  0
  -21.1296  -21.7329   25.8109 C   0  0  0  0  0  0  0  0  0  0  0  0
  -21.6183  -17.6999   20.5796 C   0  0  0  0  0  0  0  0  0  0  0  0
  -20.4800  -19.6248   21.7054 C   0  0  0  0  0  0  0  0  0  0  0  0
  -20.4501  -17.3670   22.7657 C   0  0  0  0  0  0  0  0  0  0  0  0
  -27.0698  -27.2875   18.8485 C   0  0  0  0  0  0  0  0  0  0  0  0
  -24.8030  -21.0635   26.5419 C   0  0  0  0  0  0  0  0  0  0  0  0
  -28.3088  -21.9867   19.4870 C   0  0  0  0  0  0  0  0  0  1  0  0
  -22.5983  -18.7000   22.7487 C   0  0  1  0  0  0  0  0  0  0  0  0
  -22.4182  -20.9252   25.8124 C   0  0  2  0  0  0  0  0  0  0  0  0
  -21.3147  -18.3486   21.9449 C   0  0  0  0  0  0  0  0  0  0  0  0
  -20.7205  -25.9929   22.4928 N   0  0  0  0  0  0  0  0  0  0  0  0
  -21.4253  -27.1322   22.5991 N   0  0  0  0  0  0  0  0  0  0  0  0
  -28.3145  -27.1096   19.5897 N   0  0  0  0  0  0  0  0  0  0  0  0
  -24.7713  -17.5489   22.4714 N   0  0  0  0  0  0  0  0  0  0  0  0
  -25.2176  -26.9018   22.1129 N   0  0  0  0  0  0  0  0  0  0  0  0
  -21.2509  -29.4864   22.4037 N   0  0  0  0  0  0  0  0  0  0  0  0
  -17.0811  -28.0486   21.4332 N   0  0  0  0  0  0  0  0  0  0  0  0
  -26.1021  -14.4621   21.0583 N   0  0  0  0  0  0  0  0  0  0  0  0
  -22.3407  -19.2910   24.0575 N   0  0  0  0  0  0  0  0  0  0  0  0
  -27.5132  -27.5340   21.8162 N   0  3  0  0  0  0  0  0  0  0  0  0
  -23.4858  -21.7446   26.4525 N   0  3  0  0  0  0  0  0  0  0  0  0
  -18.4101  -29.9065   21.6352 O   0  0  0  0  0  0  0  0  0  0  0  0
  -24.7451  -16.1968   20.3019 O   0  0  0  0  0  0  0  0  0  0  0  0
  -23.0198  -16.5400   23.6337 O   0  0  0  0  0  0  0  0  0  0  0  0
  -23.5054  -21.2605   23.6810 O   0  0  0  0  0  0  0  0  0  0  0  0
  -25.8371  -28.6861   20.7375 O   0  0  0  0  0  0  0  0  0  0  0  0
  -15.3632  -22.7500   21.3386 O   0  0  0  0  0  0  0  0  0  0  0  0
  -29.2289  -21.0249   20.0015 O   0  0  0  0  0  0  0  0  0  1  0  0
  -10.4555  -23.8722   23.5879 F   0  0  0  0  0  0  0  0  0  0  0  0
  -31.1761  -25.9712   16.7293 F   0  0  0  0  0  0  0  0  0  0  0  0
  -13.9844  -25.0482   20.6605 F   0  0  0  0  0  0  0  0  0  0  0  0
  1  2  1  0  0  0  0
  1  5  2  0  0  0  0
  2  6  2  0  0  0  0
  3  9  2  0  0  0  0
  3 18  1  0  0  0  0
  4 10  1  0  0  0  0
  4 18  2  0  0  0  0
  5 20  1  0  0  0  0
  6 22  1  0  0  0  0
  7 11  2  0  0  0  0
  7 21  1  0  0  0  0
  8 13  2  0  0  0  0
  8 25  1  0  0  0  0
  9 26  1  0  0  0  0
 10 26  2  0  0  0  0
 11 27  1  0  0  0  0
 12 14  2  0  0  0  0
 12 28  1  0  0  0  0
 13 30  1  0  0  0  0
 14 29  1  0  0  0  0
 15 23  1  0  0  0  0
 15 25  2  0  0  0  0
 16 24  1  0  0  0  0
 16 27  2  0  0  0  0
 17 29  2  0  0  0  0
 17 31  1  0  0  0  0
 18 32  1  0  0  0  0
 19 32  1  0  0  0  0
 19 33  2  0  0  0  0
 19 35  1  0  0  0  0
 20 22  2  0  0  0  0
 20 40  1  0  0  0  0
 21 24  2  0  0  0  0
 21 41  1  0  0  0  0
 22 52  1  0  0  0  0
 23 30  2  0  0  0  0
 23 51  1  0  0  0  0
 24 42  1  0  0  0  0
 25 61  1  0  0  0  0
 26 81  1  0  0  0  0
 27 82  1  0  0  0  0
 28 31  2  0  0  0  0
 28 81  1  0  0  0  0
 29 83  1  0  0  0  0
 30 84  1  0  0  0  0
 31 85  1  0  0  0  0
 32 65  2  0  0  0  0
 33 66  1  0  0  0  0
 33 70  1  0  0  0  0
 34 43  1  0  0  0  0
 34 67  1  0  0  0  0
 34 74  2  0  0  0  0
 35 71  1  0  0  0  0
 35 76  2  0  0  0  0
 36 53  1  0  0  0  0
 36 72  1  0  0  0  0
 36 77  2  0  0  0  0
 37 62  1  0  0  0  0
 37 68  1  0  0  0  0
 37 78  2  0  0  0  0
 38 63  1  0  0  0  0
 38 73  1  0  0  0  0
 38 79  2  0  0  0  0
 39 69  1  0  0  0  0
 39 74  1  0  0  0  0
 39 80  2  0  0  0  0
 40 44  1  0  0  0  0
 41 53  1  0  0  0  0
 42 68  1  0  0  0  0
 43 45  1  0  0  0  0
 44 47  1  0  0  0  0
 45 51  1  0  0  0  0
 46 48  1  0  0  0  0
 46 49  1  0  0  0  0
 47 52  1  0  0  0  0
 48 54  1  0  0  0  0
 49 69  1  0  0  0  0
 50 54  1  0  0  0  0
 50 69  1  0  0  0  0
 51 67  1  0  0  0  0
 52 72  1  0  0  0  0
 53 68  1  0  0  0  0
 54 66  1  0  0  0  0
 55 63  1  0  0  0  0
 56 64  1  0  0  0  0
 57 64  1  0  0  0  0
 58 64  1  0  0  0  0
 59 67  1  0  0  0  0
 60 75  1  0  0  0  0
 61 82  1  0  0  0  0
 62 64  1  0  0  0  0
 62 73  1  0  0  0  0
 63 75  1  0  0  0  0
 65 66  1  0  0  0  0
M  CHG  2  74   1  75   1
M  ISO  4  39 100  61 101  74 100  82 101
M  END
> <Batch ID>
0165

> <Smiles>
CNC(C)C(=O)NC(C(=O)N1Cc2cc([101O:1][101CH2:1]c3ccc(F)c(C4CCC(=[100N:0][100C:0](=O)N5CCCC(n6nc(-c7ccc(Oc8ccc(F)cc8F)cc7)c(C(N)=O)c6N)C5)N4C)c3)ccc2CC1C(=O)NC1CCCc2ccccc21)C(C)(C)C

> <Shape>
0.229

> <Color>
0.062

> <Negative vol penalty>
0.000

$$$$

  -OEChem-04052322223D

 92102  0     1  0  0  0  0  0999 V2000
  -28.7306  -30.2696   27.5487 C   0  0  0  0  0  0  0  0  0  0  0  0
  -28.6200  -29.8890   26.2152 C   0  0  0  0  0  0  0  0  0  0  0  0
  -23.4357  -10.1865   22.0050 C   0  0  0  0  0  0  0  0  0  0  0  0
  -24.7676   -8.3629   21.1462 C   0  0  0  0  0  0  0  0  0  0  0  0
  -27.5819  -30.4654   28.3141 C   0  0  0  0  0  0  0  0  0  0  0  0
  -27.3604  -29.7028   25.6466 C   0  0  0  0  0  0  0  0  0  0  0  0
  -31.7655  -19.7611   19.3644 C   0  0  0  0  0  0  0  0  0  0  0  0
  -26.9678  -31.8141   21.0604 C   0  0  0  0  0  0  0  0  0  0  0  0
  -31.7905  -21.0862   19.7980 C   0  0  0  0  0  0  0  0  0  0  0  0
  -22.3175   -9.3534   22.0401 C   0  0  0  0  0  0  0  0  0  0  0  0
  -23.6494   -7.5297   21.1812 C   0  0  0  0  0  0  0  0  0  0  0  0
  -27.5435  -31.1278   19.9921 C   0  0  0  0  0  0  0  0  0  0  0  0
  -21.2301   -4.8235   21.3848 C   0  0  0  0  0  0  0  0  0  0  0  0
  -21.3930   -3.5398   21.9053 C   0  0  0  0  0  0  0  0  0  0  0  0
  -25.3723  -30.2743   19.3783 C   0  0  0  0  0  0  0  0  0  0  0  0
  -22.0888   -4.4844   24.0173 C   0  0  0  0  0  0  0  0  0  0  0  0
  -24.6607   -9.6913   21.5580 C   0  0  0  0  0  0  0  0  0  0  0  0
  -26.7574  -10.7553   22.5477 C   0  0  0  0  0  0  0  0  0  0  0  0
  -26.3074  -30.2910   27.7520 C   0  0  0  0  0  0  0  0  0  0  0  0
  -25.5893  -31.7268   21.3026 C   0  0  0  0  0  0  0  0  0  0  0  0
  -30.5608  -19.1665   18.9642 C   0  0  0  0  0  0  0  0  0  0  0  0
  -26.1936  -29.8952   26.4057 C   0  0  0  0  0  0  0  0  0  0  0  0
  -24.7812  -30.9626   20.4488 C   0  0  0  0  0  0  0  0  0  0  0  0
  -29.3756  -19.9251   18.9764 C   0  0  0  0  0  0  0  0  0  0  0  0
  -30.6143  -21.8309   19.8299 C   0  0  0  0  0  0  0  0  0  0  0  0
  -29.4117  -21.2533   19.4237 C   0  0  0  0  0  0  0  0  0  0  0  0
  -22.4244   -8.0250   21.6282 C   0  0  0  0  0  0  0  0  0  0  0  0
  -26.7462  -30.3554   19.1525 C   0  0  0  0  0  0  0  0  0  0  0  0
  -21.4966   -5.9378   22.1805 C   0  0  0  0  0  0  0  0  0  0  0  0
  -21.8223   -3.3702   23.2216 C   0  0  0  0  0  0  0  0  0  0  0  0
  -21.9259   -5.7682   23.4968 C   0  0  0  0  0  0  0  0  0  0  0  0
  -25.8160  -10.5515   21.5211 C   0  0  0  0  0  0  0  0  0  0  0  0
  -27.6510  -11.6552   22.0205 C   0  0  0  0  0  0  0  0  0  0  0  0
  -26.8186  -10.1822   23.8606 C   0  0  0  0  0  0  0  0  0  0  0  0
  -23.7962  -30.6567   23.6991 C   0  0  0  0  0  0  0  0  0  0  0  0
  -21.3770  -31.8905   21.9249 C   0  0  0  0  0  0  0  0  0  0  0  0
  -20.2271  -32.8379   18.8546 C   0  0  0  0  0  0  0  0  0  0  0  0
  -28.8978  -16.1347   19.3326 C   0  0  0  0  0  0  0  0  0  0  0  0
  -25.0955  -30.4682   28.6320 C   0  0  0  0  0  0  0  0  0  0  0  0
  -24.9797  -32.4947   22.4432 C   0  0  0  0  0  0  0  0  0  0  0  0
  -28.0540  -19.3137   18.5746 C   0  0  0  0  0  0  0  0  0  0  0  0
  -30.5662  -17.7432   18.4666 C   0  0  0  0  0  0  0  0  0  0  0  0
  -23.2931  -30.8524   20.6536 C   0  0  0  0  0  0  0  0  0  0  0  0
  -23.7919  -30.6145   27.8512 C   0  0  0  0  0  0  0  0  0  0  0  0
  -28.2399  -13.3463   17.2974 C   0  0  0  0  0  0  0  0  0  0  0  0
  -23.7025  -29.5543   26.7582 C   0  0  0  0  0  0  0  0  0  0  0  0
  -27.6195  -12.3762   18.3021 C   0  0  0  0  0  0  0  0  0  0  0  0
  -31.1164  -26.5273   18.4709 C   0  0  0  0  0  0  0  0  0  0  0  0
  -29.3401  -26.1159   20.2252 C   0  0  0  0  0  0  0  0  0  0  0  0
  -27.7614  -14.7825   17.5167 C   0  0  0  0  0  0  0  0  0  0  0  0
  -27.3304  -14.3037   19.9042 C   0  0  0  0  0  0  0  0  0  0  0  0
  -30.0249  -26.7079   17.4224 C   0  0  0  0  0  0  0  0  0  0  0  0
  -28.2626  -26.2999   19.1628 C   0  0  0  0  0  0  0  0  0  0  0  0
  -24.8445  -29.7075   25.7462 C   0  0  1  0  0  0  0  0  0  0  0  0
  -23.6426  -31.9214   22.9025 C   0  0  1  0  0  0  0  0  0  0  0  0
  -27.8381  -12.8623   19.7459 C   0  0  1  0  0  0  0  0  0  0  0  0
  -30.6802  -25.6604   19.6506 C   0  0  0  0  0  0  0  0  0  0  0  0
  -28.1926  -18.0036   17.7736 C   0  0  1  0  0  0  0  0  0  0  0  0
  -28.1597  -22.0733   19.4840 C   0  0  0  0  0  0  0  0  0  0  0  0
  -28.4952  -18.2755   16.2959 C   0  0  0  0  0  0  0  0  0  0  0  0
  -18.1973  -33.7740   17.7141 C   0  0  0  0  0  0  0  0  0  0  0  0
  -20.0207  -29.1633   22.1057 C   0  0  0  0  0  0  0  0  0  0  0  0
  -18.5337  -29.8550   20.2141 C   0  0  0  0  0  0  0  0  0  0  0  0
  -18.4785  -31.1147   22.3665 C   0  0  0  0  0  0  0  0  0  0  0  0
  -21.6986  -35.2431   17.9553 C   0  0  0  0  0  0  0  0  0  0  0  0
  -30.6709  -23.2461   20.3059 C   0  0  0  0  0  0  0  0  0  0  0  0
  -27.7020  -27.5447   17.0767 C   0  0  0  0  0  0  0  0  0  0  0  0
  -26.6783  -28.4685   17.7065 C   0  0  0  0  0  0  0  0  0  1  0  0
  -20.4745  -31.3645   20.8350 C   0  0  1  0  0  0  0  0  0  0  0  0
  -19.5213  -34.0984   18.3883 C   0  0  2  0  0  0  0  0  0  0  0  0
  -19.4051  -30.3747   21.3773 C   0  0  0  0  0  0  0  0  0  0  0  0
  -26.0863  -11.2648   20.4246 N   0  0  0  0  0  0  0  0  0  0  0  0
  -27.2077  -11.9255   20.7593 N   0  0  0  0  0  0  0  0  0  0  0  0
  -22.7451  -31.6166   21.7863 N   0  0  0  0  0  0  0  0  0  0  0  0
  -29.2217  -17.1584   18.4198 N   0  0  0  0  0  0  0  0  0  0  0  0
  -27.9508  -15.1876   18.9150 N   0  0  0  0  0  0  0  0  0  0  0  0
  -28.7649  -12.2338   22.5173 N   0  0  0  0  0  0  0  0  0  0  0  0
  -25.8202   -9.2750   24.2408 N   0  0  0  0  0  0  0  0  0  0  0  0
  -24.5697  -30.7980   24.8354 N   0  0  0  0  0  0  0  0  0  0  0  0
  -19.9196  -32.5351   20.1641 N   0  0  0  0  0  0  0  0  0  0  0  0
  -28.7717  -27.2276   18.0855 N   0  3  0  0  0  0  0  0  0  0  0  0
  -30.5685  -24.2418   19.2049 N   0  3  0  0  0  0  0  0  0  0  0  0
  -20.3739  -34.8403   17.4169 N   0  3  0  0  0  0  0  0  0  0  0  0
  -27.7224  -10.4788   24.6783 O   0  0  0  0  0  0  0  0  0  0  0  0
  -23.2519  -29.6292   23.3123 O   0  0  0  0  0  0  0  0  0  0  0  0
  -20.8870  -32.5272   22.8609 O   0  0  0  0  0  0  0  0  0  0  0  0
  -20.9735  -32.1850   18.1285 O   0  0  0  0  0  0  0  0  0  0  0  0
  -29.4172  -16.0746   20.4541 O   0  0  0  0  0  0  0  0  0  0  0  0
  -21.3336   -7.2117   21.6625 O   0  0  0  0  0  0  0  0  0  0  0  0
  -27.3096  -29.6791   18.1020 O   0  0  0  0  0  0  0  0  0  1  0  0
  -21.9773   -2.1373   23.7218 F   0  0  0  0  0  0  0  0  0  0  0  0
  -22.1823   -6.8349   24.2664 F   0  0  0  0  0  0  0  0  0  0  0  0
  1  2  1  0  0  0  0
  1  5  2  0  0  0  0
  2  6  2  0  0  0  0
  3 10  2  0  0  0  0
  3 17  1  0  0  0  0
  4 11  1  0  0  0  0
  4 17  2  0  0  0  0
  5 19  1  0  0  0  0
  6 22  1  0  0  0  0
  7  9  2  0  0  0  0
  7 21  1  0  0  0  0
  8 12  2  0  0  0  0
  8 20  1  0  0  0  0
  9 25  1  0  0  0  0
 10 27  1  0  0  0  0
 11 27  2  0  0  0  0
 12 28  1  0  0  0  0
 13 14  2  0  0  0  0
 13 29  1  0  0  0  0
 14 30  1  0  0  0  0
 15 23  1  0  0  0  0
 15 28  2  0  0  0  0
 16 30  2  0  0  0  0
 16 31  1  0  0  0  0
 17 32  1  0  0  0  0
 18 32  1  0  0  0  0
 18 33  2  0  0  0  0
 18 34  1  0  0  0  0
 19 22  2  0  0  0  0
 19 39  1  0  0  0  0
 20 23  2  0  0  0  0
 20 40  1  0  0  0  0
 21 24  2  0  0  0  0
 21 42  1  0  0  0  0
 22 54  1  0  0  0  0
 23 43  1  0  0  0  0
 24 26  1  0  0  0  0
 24 41  1  0  0  0  0
 25 26  2  0  0  0  0
 25 66  1  0  0  0  0
 26 59  1  0  0  0  0
 27 89  1  0  0  0  0
 28 90  1  0  0  0  0
 29 31  2  0  0  0  0
 29 89  1  0  0  0  0
 30 91  1  0  0  0  0
 31 92  1  0  0  0  0
 32 72  2  0  0  0  0
 33 73  1  0  0  0  0
 33 77  1  0  0  0  0
 34 78  1  0  0  0  0
 34 84  2  0  0  0  0
 35 55  1  0  0  0  0
 35 79  1  0  0  0  0
 35 85  2  0  0  0  0
 36 69  1  0  0  0  0
 36 74  1  0  0  0  0
 36 86  2  0  0  0  0
 37 70  1  0  0  0  0
 37 80  1  0  0  0  0
 37 87  2  0  0  0  0
 38 75  1  0  0  0  0
 38 76  1  0  0  0  0
 38 88  2  0  0  0  0
 39 44  1  0  0  0  0
 40 55  1  0  0  0  0
 41 58  1  0  0  0  0
 42 75  1  0  0  0  0
 43 74  1  0  0  0  0
 44 46  1  0  0  0  0
 45 47  1  0  0  0  0
 45 50  1  0  0  0  0
 46 54  1  0  0  0  0
 47 56  1  0  0  0  0
 48 52  1  0  0  0  0
 48 57  1  0  0  0  0
 49 53  1  0  0  0  0
 49 57  1  0  0  0  0
 50 76  1  0  0  0  0
 51 56  1  0  0  0  0
 51 76  1  0  0  0  0
 52 81  1  0  0  0  0
 53 81  1  0  0  0  0
 54 79  1  0  0  0  0
 55 74  1  0  0  0  0
 56 73  1  0  0  0  0
 57 82  1  0  0  0  0
 58 60  1  0  0  0  0
 58 75  1  0  0  0  0
 61 70  1  0  0  0  0
 62 71  1  0  0  0  0
 63 71  1  0  0  0  0
 64 71  1  0  0  0  0
 65 83  1  0  0  0  0
 66 82  1  0  0  0  0
 67 68  1  0  0  0  0
 67 81  1  0  0  0  0
 68 90  1  0  0  0  0
 69 71  1  0  0  0  0
 69 80  1  0  0  0  0
 70 83  1  0  0  0  0
 72 73  1  0  0  0  0
M  CHG  3  81   1  82   1  83   1
M  ISO  4  38 100  68 101  75 100  90 101
M  END
> <Batch ID>
0165

> <Smiles>
CNC(C)C(=O)NC(C(=O)N1Cc2cc([101O:1][101CH2:1]CN3CCC(NCc4ccc5c(c4C)CC(C)[100N:0]([100C:0](=O)N4CCCC(n6nc(-c7ccc(Oc8ccc(F)cc8F)cc7)c(C(N)=O)c6N)C4)C5)CC3)ccc2CC1C(=O)NC1CCCc2ccccc21)C(C)(C)C

> <Shape>
0.272

> <Color>
0.057

> <Negative vol penalty>
0.000

$$$$

  -OEChem-04052322223D

 86 95  0     1  0  0  0  0  0999 V2000
  -17.7213  -26.4978   20.7083 C   0  0  0  0  0  0  0  0  0  0  0  0
  -18.9044  -26.7193   20.0107 C   0  0  0  0  0  0  0  0  0  0  0  0
  -29.1081  -11.5289   18.4658 C   0  0  0  0  0  0  0  0  0  0  0  0
  -28.6481  -10.6801   20.6805 C   0  0  0  0  0  0  0  0  0  0  0  0
  -17.3897  -27.3100   21.7919 C   0  0  0  0  0  0  0  0  0  0  0  0
  -19.7562  -27.7541   20.3958 C   0  0  0  0  0  0  0  0  0  0  0  0
  -24.6149  -26.3310   20.5071 C   0  0  0  0  0  0  0  0  0  0  0  0
  -29.7684  -10.3420   18.1481 C   0  0  0  0  0  0  0  0  0  0  0  0
  -29.3084   -9.4932   20.3628 C   0  0  0  0  0  0  0  0  0  0  0  0
  -25.2817  -26.2464   19.2857 C   0  0  0  0  0  0  0  0  0  0  0  0
  -28.9338   -7.1894   17.2552 C   0  0  0  0  0  0  0  0  0  0  0  0
  -28.6543   -6.6024   16.0212 C   0  0  0  0  0  0  0  0  0  0  0  0
  -26.2875  -28.4010   19.6923 C   0  0  0  0  0  0  0  0  0  0  0  0
  -28.5571  -24.8006   18.1155 C   0  0  0  0  0  0  0  0  0  0  0  0
  -29.4827  -26.3743   19.6978 C   0  0  0  0  0  0  0  0  0  0  0  0
  -30.9799   -6.8043   15.3983 C   0  0  0  0  0  0  0  0  0  0  0  0
  -28.5480  -11.6980   19.7321 C   0  0  0  0  0  0  0  0  0  0  0  0
  -26.4989  -13.2096   19.8867 C   0  0  0  0  0  0  0  0  0  0  0  0
  -18.2425  -28.3491   22.1964 C   0  0  0  0  0  0  0  0  0  0  0  0
  -24.7711  -27.4581   21.3267 C   0  0  0  0  0  0  0  0  0  0  0  0
  -19.4351  -28.5818   21.4850 C   0  0  0  0  0  0  0  0  0  0  0  0
  -25.6235  -28.4964   20.9248 C   0  0  0  0  0  0  0  0  0  0  0  0
  -29.8011  -24.0020   20.0265 C   0  0  0  0  0  0  0  0  0  0  0  0
  -28.7595  -26.1159   18.5334 C   0  0  0  0  0  0  0  0  0  0  0  0
  -29.0778  -23.7436   18.8621 C   0  0  0  0  0  0  0  0  0  0  0  0
  -30.0035  -25.3173   20.4444 C   0  0  0  0  0  0  0  0  0  0  0  0
  -29.8685   -9.3242   19.0965 C   0  0  0  0  0  0  0  0  0  0  0  0
  -26.1159  -27.2827   18.8767 C   0  0  0  0  0  0  0  0  0  0  0  0
  -30.2364   -7.5839   17.5608 C   0  0  0  0  0  0  0  0  0  0  0  0
  -29.6773   -6.4098   15.0927 C   0  0  0  0  0  0  0  0  0  0  0  0
  -31.2594   -7.3913   16.6324 C   0  0  0  0  0  0  0  0  0  0  0  0
  -27.8663  -12.9240   20.0611 C   0  0  0  0  0  0  0  0  0  0  0  0
  -26.3546  -14.4944   20.3501 C   0  0  0  0  0  0  0  0  0  0  0  0
  -25.4526  -12.3869   19.3536 C   0  0  0  0  0  0  0  0  0  0  0  0
  -22.8214  -29.7049   22.4464 C   0  0  0  0  0  0  0  0  0  0  0  0
  -25.4567  -30.6167   24.1036 C   0  0  0  0  0  0  0  0  0  0  0  0
  -28.8605  -30.6397   24.3492 C   0  0  0  0  0  0  0  0  0  0  0  0
  -30.6516  -18.7618   20.8542 C   0  0  0  0  0  0  0  0  0  0  0  0
  -17.8187  -29.2307   23.3445 C   0  0  0  0  0  0  0  0  0  0  0  0
  -24.0657  -27.5222   22.6536 C   0  0  0  0  0  0  0  0  0  0  0  0
  -25.8411  -29.7188   21.7774 C   0  0  0  0  0  0  0  0  0  0  0  0
  -18.9569  -30.0686   23.9214 C   0  0  0  0  0  0  0  0  0  0  0  0
  -28.2257  -17.6008   23.4578 C   0  0  0  0  0  0  0  0  0  0  0  0
  -19.7543  -30.7292   22.8013 C   0  0  0  0  0  0  0  0  0  0  0  0
  -27.8041  -16.2508   22.8801 C   0  0  0  0  0  0  0  0  0  0  0  0
  -29.2609  -21.9366   21.3912 C   0  0  0  0  0  0  0  0  0  0  0  0
  -31.3995  -22.0347   20.0399 C   0  0  0  0  0  0  0  0  0  0  0  0
  -29.6405  -17.9696   23.0270 C   0  0  0  0  0  0  0  0  0  0  0  0
  -29.8408  -20.7606   22.1819 C   0  0  0  0  0  0  0  0  0  0  0  0
  -31.9370  -20.8777   20.8774 C   0  0  0  0  0  0  0  0  0  0  0  0
  -29.4194  -16.6246   20.9614 C   0  0  0  0  0  0  0  0  0  0  0  0
  -30.3678  -22.8523   20.8380 C   0  0  0  0  0  0  0  0  0  0  0  0
  -20.3969  -29.6785   21.8877 C   0  0  1  0  0  0  0  0  0  0  0  0
  -23.8966  -28.9469   23.1723 C   0  0  1  0  0  0  0  0  0  0  0  0
  -27.9874  -16.2252   21.3532 C   0  0  1  0  0  0  0  0  0  0  0  0
  -28.8479  -22.3443   18.3923 C   0  0  0  0  0  0  0  0  0  0  0  0
  -30.7745  -25.6207   21.6875 C   0  0  0  0  0  0  0  0  0  0  0  0
  -28.7224  -27.2711   16.2957 C   0  0  0  0  0  0  0  0  0  0  0  0
  -30.7256  -31.4962   25.7932 C   0  0  0  0  0  0  0  0  0  0  0  0
  -25.0565  -33.4155   22.9562 C   0  0  0  0  0  0  0  0  0  0  0  0
  -27.4051  -33.9543   23.6360 C   0  0  0  0  0  0  0  0  0  0  0  0
  -25.7118  -33.3611   25.3691 C   0  0  0  0  0  0  0  0  0  0  0  0
  -29.8203  -27.9019   24.9343 C   0  0  0  0  0  0  0  0  0  0  0  0
  -28.2022  -27.2459   17.7356 C   0  0  1  0  0  0  0  0  0  1  0  0
  -26.6106  -31.5551   23.8450 C   0  0  1  0  0  0  0  0  0  0  0  0
  -29.7887  -30.3321   25.5103 C   0  0  2  0  0  0  0  0  0  0  0  0
  -26.1906  -33.0495   23.9344 C   0  0  0  0  0  0  0  0  0  0  0  0
  -28.5426  -13.9454   20.5935 N   0  0  0  0  0  0  0  0  0  0  0  0
  -27.5961  -14.8853   20.7577 N   0  0  0  0  0  0  0  0  0  0  0  0
  -25.1243  -29.7375   23.0632 N   0  0  0  0  0  0  0  0  0  0  0  0
  -29.7997  -17.9022   21.5679 N   0  0  0  0  0  0  0  0  0  0  0  0
  -30.8468  -20.0455   21.3857 N   0  0  0  0  0  0  0  0  0  0  0  0
  -25.2882  -15.3168   20.4446 N   0  0  0  0  0  0  0  0  0  0  0  0
  -25.7742  -11.0923   18.9235 N   0  0  0  0  0  0  0  0  0  0  0  0
  -21.5735  -29.1154   22.5147 N   0  0  0  0  0  0  0  0  0  0  0  0
  -27.6642  -31.1737   24.7792 N   0  0  0  0  0  0  0  0  0  0  0  0
  -30.6132  -29.1277   25.2094 N   0  3  0  0  0  0  0  0  0  0  0  0
  -24.2709  -12.7937   19.2463 O   0  0  0  0  0  0  0  0  0  0  0  0
  -23.1027  -30.7483   21.8686 O   0  0  0  0  0  0  0  0  0  0  0  0
  -24.8764  -30.6572   25.1914 O   0  0  0  0  0  0  0  0  0  0  0  0
  -29.1675  -30.4308   23.1776 O   0  0  0  0  0  0  0  0  0  0  0  0
  -31.2004  -18.4041   19.8046 O   0  0  0  0  0  0  0  0  0  0  0  0
  -30.5125   -8.1658   18.7867 O   0  0  0  0  0  0  0  0  0  0  0  0
  -26.7693  -27.2027   17.6812 O   0  0  0  0  0  0  0  0  0  1  0  0
  -29.4090   -5.8447   13.9083 F   0  0  0  0  0  0  0  0  0  0  0  0
  -32.5130   -7.7672   16.9208 F   0  0  0  0  0  0  0  0  0  0  0  0
  1  2  1  0  0  0  0
  1  5  2  0  0  0  0
  2  6  2  0  0  0  0
  3  8  2  0  0  0  0
  3 17  1  0  0  0  0
  4  9  1  0  0  0  0
  4 17  2  0  0  0  0
  5 19  1  0  0  0  0
  6 21  1  0  0  0  0
  7 10  2  0  0  0  0
  7 20  1  0  0  0  0
  8 27  1  0  0  0  0
  9 27  2  0  0  0  0
 10 28  1  0  0  0  0
 11 12  2  0  0  0  0
 11 29  1  0  0  0  0
 12 30  1  0  0  0  0
 13 22  1  0  0  0  0
 13 28  2  0  0  0  0
 14 24  1  0  0  0  0
 14 25  2  0  0  0  0
 15 24  2  0  0  0  0
 15 26  1  0  0  0  0
 16 30  2  0  0  0  0
 16 31  1  0  0  0  0
 17 32  1  0  0  0  0
 18 32  1  0  0  0  0
 18 33  2  0  0  0  0
 18 34  1  0  0  0  0
 19 21  2  0  0  0  0
 19 39  1  0  0  0  0
 20 22  2  0  0  0  0
 20 40  1  0  0  0  0
 21 53  1  0  0  0  0
 22 41  1  0  0  0  0
 23 25  1  0  0  0  0
 23 26  2  0  0  0  0
 23 52  1  0  0  0  0
 24 64  1  0  0  0  0
 25 56  1  0  0  0  0
 26 57  1  0  0  0  0
 27 83  1  0  0  0  0
 28 84  1  0  0  0  0
 29 31  2  0  0  0  0
 29 83  1  0  0  0  0
 30 85  1  0  0  0  0
 31 86  1  0  0  0  0
 32 68  2  0  0  0  0
 33 69  1  0  0  0  0
 33 73  1  0  0  0  0
 34 74  1  0  0  0  0
 34 78  2  0  0  0  0
 35 54  1  0  0  0  0
 35 75  1  0  0  0  0
 35 79  2  0  0  0  0
 36 65  1  0  0  0  0
 36 70  1  0  0  0  0
 36 80  2  0  0  0  0
 37 66  1  0  0  0  0
 37 76  1  0  0  0  0
 37 81  2  0  0  0  0
 38 71  1  0  0  0  0
 38 72  1  0  0  0  0
 38 82  2  0  0  0  0
 39 42  1  0  0  0  0
 40 54  1  0  0  0  0
 41 70  1  0  0  0  0
 42 44  1  0  0  0  0
 43 45  1  0  0  0  0
 43 48  1  0  0  0  0
 44 53  1  0  0  0  0
 45 55  1  0  0  0  0
 46 49  1  0  0  0  0
 46 52  1  0  0  0  0
 47 50  1  0  0  0  0
 47 52  1  0  0  0  0
 48 71  1  0  0  0  0
 49 72  1  0  0  0  0
 50 72  1  0  0  0  0
 51 55  1  0  0  0  0
 51 71  1  0  0  0  0
 53 75  1  0  0  0  0
 54 70  1  0  0  0  0
 55 69  1  0  0  0  0
 58 64  1  0  0  0  0
 59 66  1  0  0  0  0
 60 67  1  0  0  0  0
 61 67  1  0  0  0  0
 62 67  1  0  0  0  0
 63 77  1  0  0  0  0
 64 84  1  0  0  0  0
 65 67  1  0  0  0  0
 65 76  1  0  0  0  0
 66 77  1  0  0  0  0
 68 69  1  0  0  0  0
M  CHG  1  77   1
M  ISO  4  38 100  64 101  72 100  84 101
M  END
> <Batch ID>
0165

> <Smiles>
CNC(C)C(=O)NC(C(=O)N1Cc2cc([101O:1][101CH:1](C)c3cc(C)c(C4CC[100N:0]([100C:0](=O)N5CCCC(n6nc(-c7ccc(Oc8ccc(F)cc8F)cc7)c(C(N)=O)c6N)C5)CC4)c(C)c3)ccc2CC1C(=O)NC1CCCc2ccccc21)C(C)(C)C

> <Shape>
0.290

> <Color>
0.074

> <Negative vol penalty>
0.000

$$$$

  -OEChem-04052322223D

 88 98  0     1  0  0  0  0  0999 V2000
  -26.0657  -38.2625   19.3132 C   0  0  0  0  0  0  0  0  0  0  0  0
  -26.2490  -37.0940   18.5807 C   0  0  0  0  0  0  0  0  0  0  0  0
  -24.6333   -8.9933   21.9077 C   0  0  0  0  0  0  0  0  0  0  0  0
  -23.1033   -9.8281   20.2345 C   0  0  0  0  0  0  0  0  0  0  0  0
  -26.2247  -38.2478   20.6983 C   0  0  0  0  0  0  0  0  0  0  0  0
  -26.5925  -35.9103   19.2329 C   0  0  0  0  0  0  0  0  0  0  0  0
  -25.6381  -28.8233   18.8093 C   0  0  0  0  0  0  0  0  0  0  0  0
  -23.5823   -8.3244   22.5350 C   0  0  0  0  0  0  0  0  0  0  0  0
  -22.0523   -9.1592   20.8619 C   0  0  0  0  0  0  0  0  0  0  0  0
  -26.3705  -27.6370   18.7915 C   0  0  0  0  0  0  0  0  0  0  0  0
  -21.8178   -5.4761   22.0805 C   0  0  0  0  0  0  0  0  0  0  0  0
  -22.0360   -4.1584   22.4823 C   0  0  0  0  0  0  0  0  0  0  0  0
  -26.5408  -27.7132   21.1965 C   0  0  0  0  0  0  0  0  0  0  0  0
  -30.2763  -21.8477   20.6095 C   0  0  0  0  0  0  0  0  0  0  0  0
  -21.5848   -4.7821   24.7724 C   0  0  0  0  0  0  0  0  0  0  0  0
  -24.3938   -9.7452   20.7574 C   0  0  0  0  0  0  0  0  0  0  0  0
  -26.3179   -9.9398   19.0938 C   0  0  0  0  0  0  0  0  0  0  0  0
  -26.5609  -37.0612   21.3688 C   0  0  0  0  0  0  0  0  0  0  0  0
  -25.3605  -29.4702   20.0220 C   0  0  0  0  0  0  0  0  0  0  0  0
  -26.7574  -35.8800   20.6281 C   0  0  0  0  0  0  0  0  0  0  0  0
  -25.8026  -28.9061   21.2272 C   0  0  0  0  0  0  0  0  0  0  0  0
  -30.1565  -24.2026   21.1358 C   0  0  0  0  0  0  0  0  0  0  0  0
  -30.9105  -23.0461   20.9368 C   0  0  0  0  0  0  0  0  0  0  0  0
  -28.7682  -24.1607   21.0073 C   0  0  0  0  0  0  0  0  0  0  0  0
  -28.8880  -21.8058   20.4809 C   0  0  0  0  0  0  0  0  0  0  0  0
  -22.2918   -8.4073   22.0122 C   0  0  0  0  0  0  0  0  0  0  0  0
  -26.8244  -27.0833   19.9849 C   0  0  0  0  0  0  0  0  0  0  0  0
  -21.4831   -6.4469   23.0246 C   0  0  0  0  0  0  0  0  0  0  0  0
  -21.9194   -3.8113   23.8283 C   0  0  0  0  0  0  0  0  0  0  0  0
  -21.3666   -6.0998   24.3706 C   0  0  0  0  0  0  0  0  0  0  0  0
  -28.1339  -22.9623   20.6799 C   0  0  0  0  0  0  0  0  0  0  0  0
  -25.4790  -10.4368   20.1092 C   0  0  0  0  0  0  0  0  0  0  0  0
  -27.1786  -10.9752   18.8222 C   0  0  0  0  0  0  0  0  0  0  0  0
  -26.3191   -8.6571   18.4534 C   0  0  0  0  0  0  0  0  0  0  0  0
  -26.0794  -32.3047   21.2682 C   0  0  0  0  0  0  0  0  0  0  0  0
  -24.0906  -31.3314   23.6388 C   0  0  0  0  0  0  0  0  0  0  0  0
  -22.6244  -28.7422   25.3101 C   0  0  0  0  0  0  0  0  0  0  0  0
  -26.7992  -16.7276   19.2619 C   0  0  0  0  0  0  0  0  0  0  0  0
  -26.7682  -37.1049   22.8620 C   0  0  0  0  0  0  0  0  0  0  0  0
  -24.5464  -30.7350   20.0264 C   0  0  0  0  0  0  0  0  0  0  0  0
  -25.5137  -29.5507   22.5575 C   0  0  0  0  0  0  0  0  0  0  0  0
  -26.7659  -35.7265   23.5179 C   0  0  0  0  0  0  0  0  0  0  0  0
  -29.2414  -14.7732   20.8605 C   0  0  0  0  0  0  0  0  0  0  0  0
  -30.6012  -26.6963   20.6283 C   0  0  0  0  0  0  0  0  0  0  0  0
  -31.9269  -26.0028   20.5848 C   0  0  0  0  0  0  0  0  0  0  0  0
  -27.6397  -34.7578   22.7276 C   0  0  0  0  0  0  0  0  0  0  0  0
  -28.6315  -13.3761   20.7516 C   0  0  0  0  0  0  0  0  0  0  0  0
  -28.1884  -15.8346   21.1835 C   0  0  0  0  0  0  0  0  0  0  0  0
  -28.6402  -19.9252   18.8903 C   0  0  0  0  0  0  0  0  0  0  0  0
  -27.8563  -19.7152   21.2541 C   0  0  0  0  0  0  0  0  0  0  0  0
  -27.5612  -18.9335   18.4637 C   0  0  0  0  0  0  0  0  0  0  0  0
  -26.7843  -18.7381   20.7842 C   0  0  0  0  0  0  0  0  0  0  0  0
  -26.4268  -14.4432   20.1448 C   0  0  0  0  0  0  0  0  0  0  0  0
  -30.8410  -25.4857   21.4876 C   0  0  0  0  0  0  0  0  0  0  0  0
  -27.1062  -34.5708   21.3021 C   0  0  1  0  0  0  0  0  0  0  0  0
  -24.7628  -31.5806   21.2776 C   0  0  1  0  0  0  0  0  0  0  0  0
  -27.4518  -13.3638   19.7632 C   0  0  2  0  0  0  0  0  0  0  0  0
  -32.3984  -23.0615   21.0700 C   0  0  0  0  0  0  0  0  0  0  0  0
  -21.0780  -28.2584   27.2263 C   0  0  0  0  0  0  0  0  0  0  0  0
  -26.3433  -31.9356   25.6062 C   0  0  0  0  0  0  0  0  0  0  0  0
  -25.1216  -30.5741   27.3155 C   0  0  0  0  0  0  0  0  0  0  0  0
  -24.0689  -32.6323   26.3784 C   0  0  0  0  0  0  0  0  0  0  0  0
  -20.6555  -27.4210   23.5390 C   0  0  0  0  0  0  0  0  0  0  0  0
  -27.9747  -25.4125   21.2263 C   0  0  0  0  0  0  0  0  0  1  0  0
  -24.2599  -30.5685   24.9305 C   0  0  1  0  0  0  0  0  0  0  0  0
  -21.1855  -28.4995   25.7287 C   0  0  2  0  0  0  0  0  0  0  0  0
  -24.9557  -31.4163   26.0326 C   0  0  0  0  0  0  0  0  0  0  0  0
  -25.7796  -11.6903   20.4590 N   0  0  0  0  0  0  0  0  0  0  0  0
  -26.8171  -11.9897   19.6590 N   0  0  0  0  0  0  0  0  0  0  0  0
  -28.2838  -20.5861   20.1505 N   0  0  0  0  0  0  0  0  0  0  0  0
  -24.7194  -30.7894   22.5090 N   0  0  0  0  0  0  0  0  0  0  0  0
  -27.0651  -15.7577   20.2399 N   0  0  0  0  0  0  0  0  0  0  0  0
  -27.1805  -18.0462   19.5560 N   0  0  0  0  0  0  0  0  0  0  0  0
  -28.2018  -11.1076   17.9516 N   0  0  0  0  0  0  0  0  0  0  0  0
  -25.3664   -7.7099   18.8530 N   0  0  0  0  0  0  0  0  0  0  0  0
  -25.9646  -33.6813   21.3024 N   0  0  0  0  0  0  0  0  0  0  0  0
  -22.9326  -30.0861   25.2966 N   0  0  0  0  0  0  0  0  0  0  0  0
  -20.6336  -27.3102   25.0203 N   0  3  0  0  0  0  0  0  0  0  0  0
  -27.1510   -8.3539   17.5649 O   0  0  0  0  0  0  0  0  0  0  0  0
  -27.1222  -31.6619   21.2341 O   0  0  0  0  0  0  0  0  0  0  0  0
  -23.4191  -32.3661   23.6311 O   0  0  0  0  0  0  0  0  0  0  0  0
  -23.3986  -27.8306   25.0273 O   0  0  0  0  0  0  0  0  0  0  0  0
  -26.2571  -16.4351   18.1888 O   0  0  0  0  0  0  0  0  0  0  0  0
  -21.2660   -7.7546   22.6239 O   0  0  0  0  0  0  0  0  0  0  0  0
  -27.5454  -25.9171   19.9702 O   0  0  0  0  0  0  0  0  0  1  0  0
  -22.1275   -2.5455   24.2139 F   0  0  0  0  0  0  0  0  0  0  0  0
  -21.0442   -7.0278   25.2820 F   0  0  0  0  0  0  0  0  0  0  0  0
  -26.4079  -22.9115   20.5191 Cl  0  0  0  0  0  0  0  0  0  0  0  0
  1  2  1  0  0  0  0
  1  5  2  0  0  0  0
  2  6  2  0  0  0  0
  3  8  2  0  0  0  0
  3 16  1  0  0  0  0
  4  9  1  0  0  0  0
  4 16  2  0  0  0  0
  5 18  1  0  0  0  0
  6 20  1  0  0  0  0
  7 10  2  0  0  0  0
  7 19  1  0  0  0  0
  8 26  1  0  0  0  0
  9 26  2  0  0  0  0
 10 27  1  0  0  0  0
 11 12  2  0  0  0  0
 11 28  1  0  0  0  0
 12 29  1  0  0  0  0
 13 21  1  0  0  0  0
 13 27  2  0  0  0  0
 14 23  2  0  0  0  0
 14 25  1  0  0  0  0
 15 29  2  0  0  0  0
 15 30  1  0  0  0  0
 16 32  1  0  0  0  0
 17 32  1  0  0  0  0
 17 33  2  0  0  0  0
 17 34  1  0  0  0  0
 18 20  2  0  0  0  0
 18 39  1  0  0  0  0
 19 21  2  0  0  0  0
 19 40  1  0  0  0  0
 20 55  1  0  0  0  0
 21 41  1  0  0  0  0
 22 23  1  0  0  0  0
 22 24  2  0  0  0  0
 22 54  1  0  0  0  0
 23 58  1  0  0  0  0
 24 31  1  0  0  0  0
 24 64  1  0  0  0  0
 25 31  2  0  0  0  0
 25 70  1  0  0  0  0
 26 84  1  0  0  0  0
 27 85  1  0  0  0  0
 28 30  2  0  0  0  0
 28 84  1  0  0  0  0
 29 86  1  0  0  0  0
 30 87  1  0  0  0  0
 31 88  1  0  0  0  0
 32 68  2  0  0  0  0
 33 69  1  0  0  0  0
 33 74  1  0  0  0  0
 34 75  1  0  0  0  0
 34 79  2  0  0  0  0
 35 56  1  0  0  0  0
 35 76  1  0  0  0  0
 35 80  2  0  0  0  0
 36 65  1  0  0  0  0
 36 71  1  0  0  0  0
 36 81  2  0  0  0  0
 37 66  1  0  0  0  0
 37 77  1  0  0  0  0
 37 82  2  0  0  0  0
 38 72  1  0  0  0  0
 38 73  1  0  0  0  0
 38 83  2  0  0  0  0
 39 42  1  0  0  0  0
 40 56  1  0  0  0  0
 41 71  1  0  0  0  0
 42 46  1  0  0  0  0
 43 47  1  0  0  0  0
 43 48  1  0  0  0  0
 44 45  1  0  0  0  0
 44 54  1  0  0  0  0
 45 54  1  0  0  0  0
 46 55  1  0  0  0  0
 47 57  1  0  0  0  0
 48 72  1  0  0  0  0
 49 51  1  0  0  0  0
 49 70  1  0  0  0  0
 50 52  1  0  0  0  0
 50 70  1  0  0  0  0
 51 73  1  0  0  0  0
 52 73  1  0  0  0  0
 53 57  1  0  0  0  0
 53 72  1  0  0  0  0
 55 76  1  0  0  0  0
 56 71  1  0  0  0  0
 57 69  1  0  0  0  0
 59 66  1  0  0  0  0
 60 67  1  0  0  0  0
 61 67  1  0  0  0  0
 62 67  1  0  0  0  0
 63 78  1  0  0  0  0
 64 85  1  0  0  0  0
 65 67  1  0  0  0  0
 65 77  1  0  0  0  0
 66 78  1  0  0  0  0
 68 69  1  0  0  0  0
M  CHG  1  78   1
M  ISO  4  38 100  64 101  73 100  85 101
M  END
> <Batch ID>
0165

> <Smiles>
CNC(C)C(=O)NC(C(=O)N1Cc2cc([101O:1][101CH2:1]c3c(Cl)c(N4CC[100N:0]([100C:0](=O)N5CCCC(n6nc(-c7ccc(Oc8ccc(F)cc8F)cc7)c(C(N)=O)c6N)C5)CC4)cc(C)c3C3CC3)ccc2CC1C(=O)NC1CCCc2ccccc21)C(C)(C)C

> <Shape>
0.321

> <Color>
0.124

> <Negative vol penalty>
0.000

$$$$

  -OEChem-04052322223D

 87 97  0     1  0  0  0  0  0999 V2000
  -21.1194  -23.8243   31.3250 C   0  0  0  0  0  0  0  0  0  0  0  0
  -21.4814  -24.5120   30.1711 C   0  0  0  0  0  0  0  0  0  0  0  0
  -26.6608  -12.3924   21.7261 C   0  0  0  0  0  0  0  0  0  0  0  0
  -25.7294  -13.9917   20.1731 C   0  0  0  0  0  0  0  0  0  0  0  0
  -21.4351  -22.4727   31.4576 C   0  0  0  0  0  0  0  0  0  0  0  0
  -22.1604  -23.8487   29.1496 C   0  0  0  0  0  0  0  0  0  0  0  0
  -21.6119  -24.8217   23.1281 C   0  0  0  0  0  0  0  0  0  0  0  0
  -25.4275  -11.7449   21.7990 C   0  0  0  0  0  0  0  0  0  0  0  0
  -24.4961  -13.3442   20.2460 C   0  0  0  0  0  0  0  0  0  0  0  0
  -22.3775  -25.5553   22.2229 C   0  0  0  0  0  0  0  0  0  0  0  0
  -23.6437   -9.5658   19.9276 C   0  0  0  0  0  0  0  0  0  0  0  0
  -23.6374   -8.1729   19.8533 C   0  0  0  0  0  0  0  0  0  0  0  0
  -27.3226  -26.0769   19.6947 C   0  0  0  0  0  0  0  0  0  0  0  0
  -23.5622  -23.5464   21.6062 C   0  0  0  0  0  0  0  0  0  0  0  0
  -29.3648  -27.0199   20.6213 C   0  0  0  0  0  0  0  0  0  0  0  0
  -22.6142   -8.0609   22.0391 C   0  0  0  0  0  0  0  0  0  0  0  0
  -26.8117  -13.5159   20.9132 C   0  0  0  0  0  0  0  0  0  0  0  0
  -29.3100  -13.6375   20.4116 C   0  0  0  0  0  0  0  0  0  0  0  0
  -22.1097  -21.7902   30.4331 C   0  0  0  0  0  0  0  0  0  0  0  0
  -21.8234  -23.4446   23.2873 C   0  0  0  0  0  0  0  0  0  0  0  0
  -22.4866  -22.4871   29.2692 C   0  0  0  0  0  0  0  0  0  0  0  0
  -26.6694  -27.2624   19.9999 C   0  0  0  0  0  0  0  0  0  0  0  0
  -22.7961  -22.7972   22.5122 C   0  0  0  0  0  0  0  0  0  0  0  0
  -27.3600  -28.3185   20.6122 C   0  0  0  0  0  0  0  0  0  0  0  0
  -28.7029  -28.2080   20.9348 C   0  0  0  0  0  0  0  0  0  0  0  0
  -28.6795  -25.9620   20.0056 C   0  0  0  0  0  0  0  0  0  0  0  0
  -24.3451  -12.2208   21.0590 C   0  0  0  0  0  0  0  0  0  0  0  0
  -23.3548  -24.9182   21.4639 C   0  0  0  0  0  0  0  0  0  0  0  0
  -23.1353  -10.2062   21.0577 C   0  0  0  0  0  0  0  0  0  0  0  0
  -23.1226   -7.4205   20.9090 C   0  0  0  0  0  0  0  0  0  0  0  0
  -22.6205   -9.4538   22.1134 C   0  0  0  0  0  0  0  0  0  0  0  0
  -28.0853  -14.1855   20.8379 C   0  0  0  0  0  0  0  0  0  0  0  0
  -30.2069  -14.6714   20.5254 C   0  0  0  0  0  0  0  0  0  0  0  0
  -29.6099  -12.3124   19.9536 C   0  0  0  0  0  0  0  0  0  0  0  0
  -22.7270  -21.5776   25.6959 C   0  0  0  0  0  0  0  0  0  0  0  0
  -22.0649  -19.2010   23.5899 C   0  0  0  0  0  0  0  0  0  0  0  0
  -21.7281  -18.2223   20.3379 C   0  0  0  0  0  0  0  0  0  0  0  0
  -29.5051  -20.5231   20.3458 C   0  0  0  0  0  0  0  0  0  0  0  0
  -22.4711  -20.3409   30.6419 C   0  0  0  0  0  0  0  0  0  0  0  0
  -20.9709  -22.6626   24.2486 C   0  0  0  0  0  0  0  0  0  0  0  0
  -26.4504  -29.4743   20.8846 C   0  0  0  0  0  0  0  0  0  0  0  0
  -23.0486  -21.3171   22.6308 C   0  0  0  0  0  0  0  0  0  0  0  0
  -22.8610  -19.6188   29.3547 C   0  0  0  0  0  0  0  0  0  0  0  0
  -25.2875  -29.1655   19.9296 C   0  0  0  0  0  0  0  0  0  0  0  0
  -31.0278  -18.6563   23.0452 C   0  0  0  0  0  0  0  0  0  0  0  0
  -23.8378  -20.4640   28.5434 C   0  0  0  0  0  0  0  0  0  0  0  0
  -30.5550  -17.2352   22.7342 C   0  0  0  0  0  0  0  0  0  0  0  0
  -29.9410  -19.6819   22.7353 C   0  0  0  0  0  0  0  0  0  0  0  0
  -28.9497  -18.2086   21.0280 C   0  0  0  0  0  0  0  0  0  0  0  0
  -30.4676  -24.2392   20.4123 C   0  0  0  0  0  0  0  0  0  0  0  0
  -28.7764  -23.5247   19.3882 C   0  0  0  0  0  0  0  0  0  0  0  0
  -23.2020  -21.7963   28.1285 C   0  0  1  0  0  0  0  0  0  0  0  0
  -21.6223  -21.3594   24.7011 C   0  0  1  0  0  0  0  0  0  0  0  0
  -30.0123  -17.1278   21.2970 C   0  0  2  0  0  0  0  0  0  0  0  0
  -30.1205  -22.8888   19.7698 C   0  0  0  0  0  0  0  0  0  0  0  0
  -25.2163  -27.6210   19.7901 C   0  0  1  0  0  0  0  0  0  0  0  0
  -29.4368  -29.3184   21.6029 C   0  0  0  0  0  0  0  0  0  0  0  0
  -24.6838  -27.2226   18.4112 C   0  0  0  0  0  0  0  0  0  0  0  0
  -21.2178  -16.2091   18.9294 C   0  0  0  0  0  0  0  0  0  0  0  0
  -24.8748  -18.1301   24.1069 C   0  0  0  0  0  0  0  0  0  0  0  0
  -24.6528  -16.7443   22.0336 C   0  0  0  0  0  0  0  0  0  0  0  0
  -23.1013  -16.3737   23.9515 C   0  0  0  0  0  0  0  0  0  0  0  0
  -19.3280  -19.5024   19.1718 C   0  0  0  0  0  0  0  0  0  0  0  0
  -24.3474  -27.0027   20.8935 C   0  0  0  0  0  0  0  0  0  1  0  0
  -22.8500  -18.4550   22.5382 C   0  0  1  0  0  0  0  0  0  0  0  0
  -20.6431  -17.4293   19.6318 C   0  0  2  0  0  0  0  0  0  0  0  0
  -23.8665  -17.4540   23.1565 C   0  0  0  0  0  0  0  0  0  0  0  0
  -28.1911  -15.4679   21.1960 N   0  0  0  0  0  0  0  0  0  0  0  0
  -29.4929  -15.7343   20.9950 N   0  0  0  0  0  0  0  0  0  0  0  0
  -29.3679  -24.7666   19.7026 N   0  0  0  0  0  0  0  0  0  0  0  0
  -22.1936  -20.5972   23.5890 N   0  0  0  0  0  0  0  0  0  0  0  0
  -29.4816  -19.5384   21.3463 N   0  0  0  0  0  0  0  0  0  0  0  0
  -31.5289  -14.7659   20.2687 N   0  0  0  0  0  0  0  0  0  0  0  0
  -29.5007  -12.0383   18.5834 N   0  0  0  0  0  0  0  0  0  0  0  0
  -22.3033  -21.6011   27.0110 N   0  0  0  0  0  0  0  0  0  0  0  0
  -21.8661  -17.8384   21.6550 N   0  0  0  0  0  0  0  0  0  0  0  0
  -30.0253  -21.7585   20.7167 N   0  0  0  0  0  0  0  0  0  0  0  0
  -19.9594  -18.2781   18.6154 N   0  3  0  0  0  0  0  0  0  0  0  0
  -29.9484  -11.3941   20.7383 O   0  0  0  0  0  0  0  0  0  0  0  0
  -23.8787  -21.7131   25.2998 O   0  0  0  0  0  0  0  0  0  0  0  0
  -21.3576  -18.5688   24.3784 O   0  0  0  0  0  0  0  0  0  0  0  0
  -22.3897  -19.0924   19.7761 O   0  0  0  0  0  0  0  0  0  0  0  0
  -29.0978  -20.3210   19.1965 O   0  0  0  0  0  0  0  0  0  0  0  0
  -23.1416  -11.5891   21.1297 O   0  0  0  0  0  0  0  0  0  0  0  0
  -24.1040  -25.6320   20.5801 O   0  0  0  0  0  0  0  0  0  1  0  0
  -23.1152   -6.0830   20.8368 F   0  0  0  0  0  0  0  0  0  0  0  0
  -22.1297  -10.0635   23.2012 F   0  0  0  0  0  0  0  0  0  0  0  0
  1  2  1  0  0  0  0
  1  5  2  0  0  0  0
  2  6  2  0  0  0  0
  3  8  2  0  0  0  0
  3 17  1  0  0  0  0
  4  9  1  0  0  0  0
  4 17  2  0  0  0  0
  5 19  1  0  0  0  0
  6 21  1  0  0  0  0
  7 10  2  0  0  0  0
  7 20  1  0  0  0  0
  8 27  1  0  0  0  0
  9 27  2  0  0  0  0
 10 28  1  0  0  0  0
 11 12  2  0  0  0  0
 11 29  1  0  0  0  0
 12 30  1  0  0  0  0
 13 22  1  0  0  0  0
 13 26  2  0  0  0  0
 14 23  1  0  0  0  0
 14 28  2  0  0  0  0
 15 25  2  0  0  0  0
 15 26  1  0  0  0  0
 16 30  2  0  0  0  0
 16 31  1  0  0  0  0
 17 32  1  0  0  0  0
 18 32  1  0  0  0  0
 18 33  2  0  0  0  0
 18 34  1  0  0  0  0
 19 21  2  0  0  0  0
 19 39  1  0  0  0  0
 20 23  2  0  0  0  0
 20 40  1  0  0  0  0
 21 52  1  0  0  0  0
 22 24  2  0  0  0  0
 22 56  1  0  0  0  0
 23 42  1  0  0  0  0
 24 25  1  0  0  0  0
 24 41  1  0  0  0  0
 25 57  1  0  0  0  0
 26 70  1  0  0  0  0
 27 84  1  0  0  0  0
 28 85  1  0  0  0  0
 29 31  2  0  0  0  0
 29 84  1  0  0  0  0
 30 86  1  0  0  0  0
 31 87  1  0  0  0  0
 32 68  2  0  0  0  0
 33 69  1  0  0  0  0
 33 73  1  0  0  0  0
 34 74  1  0  0  0  0
 34 79  2  0  0  0  0
 35 53  1  0  0  0  0
 35 75  1  0  0  0  0
 35 80  2  0  0  0  0
 36 65  1  0  0  0  0
 36 71  1  0  0  0  0
 36 81  2  0  0  0  0
 37 66  1  0  0  0  0
 37 76  1  0  0  0  0
 37 82  2  0  0  0  0
 38 72  1  0  0  0  0
 38 77  1  0  0  0  0
 38 83  2  0  0  0  0
 39 43  1  0  0  0  0
 40 53  1  0  0  0  0
 41 44  1  0  0  0  0
 42 71  1  0  0  0  0
 43 46  1  0  0  0  0
 44 56  1  0  0  0  0
 45 47  1  0  0  0  0
 45 48  1  0  0  0  0
 46 52  1  0  0  0  0
 47 54  1  0  0  0  0
 48 72  1  0  0  0  0
 49 54  1  0  0  0  0
 49 72  1  0  0  0  0
 50 55  1  0  0  0  0
 50 70  1  0  0  0  0
 51 55  1  0  0  0  0
 51 70  1  0  0  0  0
 52 75  1  0  0  0  0
 53 71  1  0  0  0  0
 54 69  1  0  0  0  0
 55 77  1  0  0  0  0
 56 58  1  0  0  0  0
 56 64  1  0  0  0  0
 59 66  1  0  0  0  0
 60 67  1  0  0  0  0
 61 67  1  0  0  0  0
 62 67  1  0  0  0  0
 63 78  1  0  0  0  0
 64 85  1  0  0  0  0
 65 67  1  0  0  0  0
 65 76  1  0  0  0  0
 66 78  1  0  0  0  0
 68 69  1  0  0  0  0
M  CHG  1  78   1
M  ISO  4  38 100  64 101  77 100  85 101
M  END
> <Batch ID>
0165

> <Smiles>
CNC(C)C(=O)NC(C(=O)N1Cc2cc([101O:1][101CH2:1]C3(C)CCc4c(C)cc(N5CC([100NH:0][100C:0](=O)N6CCCC(n7nc(-c8ccc(Oc9ccc(F)cc9F)cc8)c(C(N)=O)c7N)C6)C5)cc43)ccc2CC1C(=O)NC1CCCc2ccccc21)C(C)(C)C

> <Shape>
0.221

> <Color>
0.076

> <Negative vol penalty>
0.000

$$$$

  -OEChem-04052322223D

 86 95  0     1  0  0  0  0  0999 V2000
  -21.6554  -12.7829   19.2479 C   0  0  0  0  0  0  0  0  0  0  0  0
  -21.6388  -13.9698   19.9735 C   0  0  0  0  0  0  0  0  0  0  0  0
  -29.4023  -26.9073   19.6404 C   0  0  0  0  0  0  0  0  0  0  0  0
  -28.2674  -26.9122   21.7733 C   0  0  0  0  0  0  0  0  0  0  0  0
  -22.8324  -12.0415   19.1532 C   0  0  0  0  0  0  0  0  0  0  0  0
  -22.7990  -14.4154   20.6058 C   0  0  0  0  0  0  0  0  0  0  0  0
  -23.6125  -19.3649   19.9095 C   0  0  0  0  0  0  0  0  0  0  0  0
  -19.7276  -23.4491   25.2271 C   0  0  0  0  0  0  0  0  0  0  0  0
  -19.5610  -24.7777   24.8364 C   0  0  0  0  0  0  0  0  0  0  0  0
  -30.6336  -26.9047   20.2956 C   0  0  0  0  0  0  0  0  0  0  0  0
  -29.4988  -26.9095   22.4285 C   0  0  0  0  0  0  0  0  0  0  0  0
  -22.8605  -20.2487   20.6823 C   0  0  0  0  0  0  0  0  0  0  0  0
  -31.9140  -29.1455   23.2020 C   0  0  0  0  0  0  0  0  0  0  0  0
  -32.0787  -30.0206   24.2755 C   0  0  0  0  0  0  0  0  0  0  0  0
  -24.7344  -20.5278   22.1756 C   0  0  0  0  0  0  0  0  0  0  0  0
  -32.5083  -28.1460   25.7378 C   0  0  0  0  0  0  0  0  0  0  0  0
  -28.2191  -26.9111   20.3793 C   0  0  0  0  0  0  0  0  0  0  0  0
  -26.4567  -25.9435   18.8092 C   0  0  0  0  0  0  0  0  0  0  0  0
  -24.0101  -12.4832   19.7766 C   0  0  0  0  0  0  0  0  0  0  0  0
  -24.9296  -19.0470   20.2706 C   0  0  0  0  0  0  0  0  0  0  0  0
  -23.9925  -13.6785   20.5205 C   0  0  0  0  0  0  0  0  0  0  0  0
  -25.5018  -19.6417   21.4043 C   0  0  0  0  0  0  0  0  0  0  0  0
  -20.3105  -22.5326   24.3518 C   0  0  0  0  0  0  0  0  0  0  0  0
  -20.7265  -22.9447   23.0859 C   0  0  0  0  0  0  0  0  0  0  0  0
  -20.5599  -24.2734   22.6952 C   0  0  0  0  0  0  0  0  0  0  0  0
  -19.9771  -25.1898   23.5705 C   0  0  0  0  0  0  0  0  0  0  0  0
  -30.6819  -26.9058   21.6896 C   0  0  0  0  0  0  0  0  0  0  0  0
  -23.4204  -20.8280   21.8172 C   0  0  0  0  0  0  0  0  0  0  0  0
  -32.0464  -27.7705   23.3963 C   0  0  0  0  0  0  0  0  0  0  0  0
  -32.3759  -29.5209   25.5434 C   0  0  0  0  0  0  0  0  0  0  0  0
  -32.3436  -27.2708   24.6642 C   0  0  0  0  0  0  0  0  0  0  0  0
  -26.9468  -26.9143   19.7030 C   0  0  0  0  0  0  0  0  0  0  0  0
  -25.2146  -26.4052   18.4479 C   0  0  0  0  0  0  0  0  0  0  0  0
  -27.0693  -24.7325   18.3468 C   0  0  0  0  0  0  0  0  0  0  0  0
  -26.4467  -16.3794   21.0990 C   0  0  0  0  0  0  0  0  0  0  0  0
  -29.0602  -18.2984   21.0024 C   0  0  0  0  0  0  0  0  0  0  0  0
  -30.3462  -21.4539   21.1915 C   0  0  0  0  0  0  0  0  0  0  0  0
  -21.2752  -30.0325   21.1266 C   0  0  0  0  0  0  0  0  0  0  0  0
  -25.2460  -11.6236   19.6855 C   0  0  0  0  0  0  0  0  0  0  0  0
  -25.7364  -18.1125   19.4115 C   0  0  0  0  0  0  0  0  0  0  0  0
  -26.9185  -19.3491   21.8236 C   0  0  0  0  0  0  0  0  0  0  0  0
  -26.5277  -12.3568   20.0726 C   0  0  0  0  0  0  0  0  0  0  0  0
  -22.7393  -30.4641   17.9100 C   0  0  0  0  0  0  0  0  0  0  0  0
  -26.3250  -13.1397   21.3660 C   0  0  0  0  0  0  0  0  0  0  0  0
  -23.9394  -29.5157   17.9241 C   0  0  0  0  0  0  0  0  0  0  0  0
  -22.5162  -31.1123   19.2746 C   0  0  0  0  0  0  0  0  0  0  0  0
  -23.6037  -29.2165   20.4134 C   0  0  0  0  0  0  0  0  0  0  0  0
  -20.3987  -27.6395   23.9130 C   0  0  0  0  0  0  0  0  0  0  0  0
  -19.0028  -26.9370   22.0555 C   0  0  0  0  0  0  0  0  0  0  0  0
  -25.2370  -14.2075   21.1998 C   0  0  1  0  0  0  0  0  0  0  0  0
  -26.8961  -17.4633   20.1605 C   0  0  1  0  0  0  0  0  0  0  0  0
  -23.8348  -28.4960   19.0741 C   0  0  2  0  0  0  0  0  0  0  0  0
  -20.1516  -28.8396   22.9904 C   0  0  2  0  0  0  0  0  0  0  0  0
  -18.8891  -28.4530   22.2240 C   0  0  2  0  0  0  0  0  0  0  0  0
  -20.4777  -21.1162   24.7959 C   0  0  0  0  0  0  0  0  0  0  0  0
  -21.0067  -24.7139   21.3363 C   0  0  0  0  0  0  0  0  0  0  0  0
  -32.0671  -23.2772   21.0850 C   0  0  0  0  0  0  0  0  0  0  0  0
  -29.6917  -17.3705   23.8397 C   0  0  0  0  0  0  0  0  0  0  0  0
  -31.2646  -19.3071   24.0484 C   0  0  0  0  0  0  0  0  0  0  0  0
  -31.6797  -17.5448   22.3324 C   0  0  0  0  0  0  0  0  0  0  0  0
  -29.8885  -21.8760   18.2982 C   0  0  0  0  0  0  0  0  0  0  0  0
  -21.3532  -21.9569   22.1464 C   0  0  0  0  0  0  0  0  0  1  0  0
  -29.7785  -19.1774   21.9976 C   0  0  1  0  0  0  0  0  0  0  0  0
  -31.3360  -22.1928   20.3090 C   0  0  2  0  0  0  0  0  0  0  0  0
  -30.5763  -18.3542   23.0480 C   0  0  0  0  0  0  0  0  0  0  0  0
  -26.0863  -27.9172   19.8976 N   0  0  0  0  0  0  0  0  0  0  0  0
  -25.0430  -27.5790   19.1209 N   0  0  0  0  0  0  0  0  0  0  0  0
  -19.8030  -26.5077   23.2025 N   0  0  3  0  0  0  0  0  0  0  0  0
  -27.6646  -18.4241   20.9546 N   0  0  0  0  0  0  0  0  0  0  0  0
  -22.4242  -30.0911   20.3208 N   0  0  0  0  0  0  0  0  0  0  0  0
  -24.2633  -25.9176   17.6234 N   0  0  0  0  0  0  0  0  0  0  0  0
  -26.8524  -23.5541   19.0739 N   0  0  0  0  0  0  0  0  0  0  0  0
  -25.7575  -15.3521   20.4833 N   0  0  0  0  0  0  0  0  0  0  0  0
  -30.5954  -20.0979   21.2141 N   0  0  0  0  0  0  0  0  0  0  0  0
  -21.2664  -29.0309   22.0897 N   0  0  0  0  0  0  0  0  0  0  0  0
  -17.6932  -28.7544   23.0628 N   0  3  0  0  0  0  0  0  0  0  0  0
  -30.6310  -22.8304   19.1612 N   0  3  0  0  0  0  0  0  0  0  0  0
  -27.8013  -24.6997   17.3286 O   0  0  0  0  0  0  0  0  0  0  0  0
  -26.7072  -16.4678   22.2932 O   0  0  0  0  0  0  0  0  0  0  0  0
  -29.7140  -17.5337   20.2887 O   0  0  0  0  0  0  0  0  0  0  0  0
  -29.4447  -22.0232   21.8028 O   0  0  0  0  0  0  0  0  0  0  0  0
  -20.3251  -30.8114   20.9939 O   0  0  0  0  0  0  0  0  0  0  0  0
  -31.8833  -26.9030   22.3293 O   0  0  0  0  0  0  0  0  0  0  0  0
  -22.6884  -21.6905   22.5737 O   0  0  0  0  0  0  0  0  0  1  0  0
  -32.5356  -30.3615   26.5740 F   0  0  0  0  0  0  0  0  0  0  0  0
  -32.4732  -25.9510   24.8568 F   0  0  0  0  0  0  0  0  0  0  0  0
  1  2  1  0  0  0  0
  1  5  2  0  0  0  0
  2  6  2  0  0  0  0
  3 10  2  0  0  0  0
  3 17  1  0  0  0  0
  4 11  1  0  0  0  0
  4 17  2  0  0  0  0
  5 19  1  0  0  0  0
  6 21  1  0  0  0  0
  7 12  2  0  0  0  0
  7 20  1  0  0  0  0
  8  9  1  0  0  0  0
  8 23  2  0  0  0  0
  9 26  2  0  0  0  0
 10 27  1  0  0  0  0
 11 27  2  0  0  0  0
 12 28  1  0  0  0  0
 13 14  2  0  0  0  0
 13 29  1  0  0  0  0
 14 30  1  0  0  0  0
 15 22  1  0  0  0  0
 15 28  2  0  0  0  0
 16 30  2  0  0  0  0
 16 31  1  0  0  0  0
 17 32  1  0  0  0  0
 18 32  1  0  0  0  0
 18 33  2  0  0  0  0
 18 34  1  0  0  0  0
 19 21  2  0  0  0  0
 19 39  1  0  0  0  0
 20 22  2  0  0  0  0
 20 40  1  0  0  0  0
 21 50  1  0  0  0  0
 22 41  1  0  0  0  0
 23 24  1  0  0  0  0
 23 55  1  0  0  0  0
 24 25  2  0  0  0  0
 24 62  1  0  0  0  0
 25 26  1  0  0  0  0
 25 56  1  0  0  0  0
 26 68  1  0  0  0  0
 27 83  1  0  0  0  0
 28 84  1  0  0  0  0
 29 31  2  0  0  0  0
 29 83  1  0  0  0  0
 30 85  1  0  0  0  0
 31 86  1  0  0  0  0
 32 66  2  0  0  0  0
 33 67  1  0  0  0  0
 33 71  1  0  0  0  0
 34 72  1  0  0  0  0
 34 78  2  0  0  0  0
 35 51  1  0  0  0  0
 35 73  1  0  0  0  0
 35 79  2  0  0  0  0
 36 63  1  0  0  0  0
 36 69  1  0  0  0  0
 36 80  2  0  0  0  0
 37 64  1  0  0  0  0
 37 74  1  0  0  0  0
 37 81  2  0  0  0  0
 38 70  1  0  0  0  0
 38 75  1  0  0  0  0
 38 82  2  0  0  0  0
 39 42  1  0  0  0  0
 40 51  1  0  0  0  0
 41 69  1  0  0  0  0
 42 44  1  0  0  0  0
 43 45  1  0  0  0  0
 43 46  1  0  0  0  0
 44 50  1  0  0  0  0
 45 52  1  0  0  0  0
 46 70  1  0  0  0  0
 47 52  1  0  0  0  0
 47 70  1  0  0  0  0
 48 53  1  0  0  0  0
 48 68  1  0  0  0  0
 49 54  1  0  0  0  0
 49 68  1  0  0  0  0
 50 73  1  0  0  0  0
 51 69  1  0  0  0  0
 52 67  1  0  0  0  0
 53 54  1  0  0  0  0
 53 75  1  0  0  0  0
 54 76  1  0  0  0  0
 57 64  1  0  0  0  0
 58 65  1  0  0  0  0
 59 65  1  0  0  0  0
 60 65  1  0  0  0  0
 61 77  1  0  0  0  0
 62 84  1  0  0  0  0
 63 65  1  0  0  0  0
 63 74  1  0  0  0  0
 64 77  1  0  0  0  0
 66 67  1  0  0  0  0
M  CHG  2  76   1  77   1
M  ISO  4  38 100  62 101  75 100  84 101
M  END
> <Batch ID>
0165

> <Smiles>
CNC(C)C(=O)NC(C(=O)N1Cc2cc([101O:1][101CH2:1]c3c(C)ccc(N4CC(N)C([100NH:0][100C:0](=O)N5CCCC(n6nc(-c7ccc(Oc8ccc(F)cc8F)cc7)c(C(N)=O)c6N)C5)C4)c3C)ccc2CC1C(=O)NC1CCCc2ccccc21)C(C)(C)C

> <Shape>
0.217

> <Color>
0.077

> <Negative vol penalty>
0.000

$$$$

  -OEChem-04052322223D

 87 96  0     1  0  0  0  0  0999 V2000
  -23.6944   -8.0572   21.5366 C   0  0  0  0  0  0  0  0  0  0  0  0
  -24.5608   -9.1444   21.4846 C   0  0  0  0  0  0  0  0  0  0  0  0
  -25.2802  -30.3899   22.6998 C   0  0  0  0  0  0  0  0  0  0  0  0
  -27.2367  -30.7326   21.3244 C   0  0  0  0  0  0  0  0  0  0  0  0
  -22.3326   -8.2407   21.3003 C   0  0  0  0  0  0  0  0  0  0  0  0
  -24.0661  -10.4156   21.1951 C   0  0  0  0  0  0  0  0  0  0  0  0
  -25.9586  -13.9798   24.2544 C   0  0  0  0  0  0  0  0  0  0  0  0
  -25.6084  -31.5200   23.4484 C   0  0  0  0  0  0  0  0  0  0  0  0
  -27.5649  -31.8629   22.0731 C   0  0  0  0  0  0  0  0  0  0  0  0
  -27.2506  -14.4293   23.9855 C   0  0  0  0  0  0  0  0  0  0  0  0
  -25.3525  -34.8769   23.1339 C   0  0  0  0  0  0  0  0  0  0  0  0
  -24.3288  -35.7759   23.4333 C   0  0  0  0  0  0  0  0  0  0  0  0
  -26.3390  -16.3762   22.8910 C   0  0  0  0  0  0  0  0  0  0  0  0
  -29.0851  -16.5360   18.0881 C   0  0  0  0  0  0  0  0  0  0  0  0
  -24.7098  -35.4239   25.7930 C   0  0  0  0  0  0  0  0  0  0  0  0
  -26.0944  -29.9961   21.6378 C   0  0  0  0  0  0  0  0  0  0  0  0
  -24.9533  -28.7771   19.7092 C   0  0  0  0  0  0  0  0  0  0  0  0
  -21.8195   -9.5163   21.0173 C   0  0  0  0  0  0  0  0  0  0  0  0
  -24.8451  -14.7210   23.8334 C   0  0  0  0  0  0  0  0  0  0  0  0
  -22.6964  -10.6160   20.9534 C   0  0  0  0  0  0  0  0  0  0  0  0
  -25.0339  -15.9353   23.1581 C   0  0  0  0  0  0  0  0  0  0  0  0
  -29.5158  -15.2336   18.3151 C   0  0  0  0  0  0  0  0  0  0  0  0
  -30.0706  -14.8951   19.5443 C   0  0  0  0  0  0  0  0  0  0  0  0
  -26.7508  -32.2566   23.1351 C   0  0  0  0  0  0  0  0  0  0  0  0
  -27.4410  -15.6262   23.3011 C   0  0  0  0  0  0  0  0  0  0  0  0
  -26.0547  -34.2513   24.1641 C   0  0  0  0  0  0  0  0  0  0  0  0
  -24.0075  -36.0494   24.7628 C   0  0  0  0  0  0  0  0  0  0  0  0
  -25.7334  -34.5248   25.4936 C   0  0  0  0  0  0  0  0  0  0  0  0
  -25.7562  -28.8284   20.8644 C   0  0  0  0  0  0  0  0  0  0  0  0
  -30.1718  -15.8877   20.5056 C   0  0  0  0  0  0  0  0  0  0  0  0
  -29.2301  -17.4551   19.1147 C   0  0  0  0  0  0  0  0  0  0  0  0
  -24.9405  -27.4491   19.3586 C   0  0  0  0  0  0  0  0  0  0  0  0
  -24.2794  -29.8352   19.0150 C   0  0  0  0  0  0  0  0  0  0  0  0
  -22.4090  -14.1858   21.8629 C   0  0  0  0  0  0  0  0  0  0  0  0
  -21.3796  -17.0504   22.9839 C   0  0  0  0  0  0  0  0  0  0  0  0
  -22.1558  -20.0515   24.4114 C   0  0  0  0  0  0  0  0  0  0  0  0
  -27.3136  -22.7077   18.5031 C   0  0  0  0  0  0  0  0  0  0  0  0
  -20.3472   -9.6575   20.7222 C   0  0  0  0  0  0  0  0  0  0  0  0
  -23.4581  -14.2358   24.1548 C   0  0  0  0  0  0  0  0  0  0  0  0
  -23.8720  -16.7783   22.7025 C   0  0  0  0  0  0  0  0  0  0  0  0
  -19.8475  -11.0983   20.7916 C   0  0  0  0  0  0  0  0  0  0  0  0
  -26.5192  -23.3564   21.8628 C   0  0  0  0  0  0  0  0  0  0  0  0
  -20.7946  -12.0285   20.0402 C   0  0  0  0  0  0  0  0  0  0  0  0
  -26.1828  -24.8464   21.8132 C   0  0  0  0  0  0  0  0  0  0  0  0
  -27.7233  -23.0112   20.9851 C   0  0  0  0  0  0  0  0  0  0  0  0
  -27.3843  -19.0002   18.5369 C   0  0  0  0  0  0  0  0  0  0  0  0
  -29.5025  -19.8572   19.5495 C   0  0  0  0  0  0  0  0  0  0  0  0
  -27.2045  -20.3386   17.8255 C   0  0  0  0  0  0  0  0  0  0  0  0
  -29.2919  -21.1743   18.8110 C   0  0  0  0  0  0  0  0  0  0  0  0
  -27.2595  -24.9598   19.5339 C   0  0  0  0  0  0  0  0  0  0  0  0
  -22.1941  -12.0145   20.6670 C   0  0  1  0  0  0  0  0  0  0  0  0
  -22.3932  -14.8138   23.2278 C   0  0  1  0  0  0  0  0  0  0  0  0
  -26.0174  -25.3273   20.3606 C   0  0  2  0  0  0  0  0  0  0  0  0
  -29.3731  -14.2202   17.2281 C   0  0  0  0  0  0  0  0  0  0  0  0
  -30.5447  -13.5065   19.8140 C   0  0  0  0  0  0  0  0  0  0  0  0
  -31.5086  -16.7936   22.4354 C   0  0  0  0  0  0  0  0  0  0  0  0
  -21.1076  -22.2010   25.1717 C   0  0  0  0  0  0  0  0  0  0  0  0
  -21.1526  -17.9635   20.0813 C   0  0  0  0  0  0  0  0  0  0  0  0
  -21.0370  -20.3246   20.9061 C   0  0  0  0  0  0  0  0  0  0  0  0
  -19.2669  -18.6908   21.5542 C   0  0  0  0  0  0  0  0  0  0  0  0
  -23.0121  -19.6140   27.2104 C   0  0  0  0  0  0  0  0  0  0  0  0
  -29.7121  -15.0750   22.8601 C   0  0  0  0  0  0  0  0  0  1  0  0
  -30.7598  -15.5831   21.8446 C   0  0  1  0  0  0  0  0  0  0  0  0
  -21.5717  -18.4905   22.5738 C   0  0  1  0  0  0  0  0  0  0  0  0
  -21.5396  -20.8009   25.5790 C   0  0  2  0  0  0  0  0  0  0  0  0
  -20.7791  -18.8507   21.2856 C   0  0  0  0  0  0  0  0  0  0  0  0
  -26.2197  -27.6284   21.2239 N   0  0  0  0  0  0  0  0  0  0  0  0
  -29.7644  -17.1636   20.3218 N   0  0  0  0  0  0  0  0  0  0  0  0
  -25.7064  -26.8106   20.2891 N   0  0  0  0  0  0  0  0  0  0  0  0
  -28.7928  -18.7635   18.8718 N   0  0  0  0  0  0  0  0  0  0  0  0
  -22.5353  -16.2583   23.0349 N   0  0  0  0  0  0  0  0  0  0  0  0
  -27.5378  -23.5247   19.6213 N   0  0  0  0  0  0  0  0  0  0  0  0
  -27.8754  -21.4217   18.5343 N   0  0  0  0  0  0  0  0  0  0  0  0
  -24.3490  -26.7770   18.3483 N   0  0  0  0  0  0  0  0  0  0  0  0
  -24.3979  -31.1409   19.5103 N   0  0  0  0  0  0  0  0  0  0  0  0
  -22.2168  -12.8174   21.8708 N   0  0  0  0  0  0  0  0  0  0  0  0
  -21.2190  -19.2968   23.7375 N   0  0  0  0  0  0  0  0  0  0  0  0
  -22.5202  -20.9176   26.6951 N   0  3  0  0  0  0  0  0  0  0  0  0
  -23.5791  -29.6265   17.9954 O   0  0  0  0  0  0  0  0  0  0  0  0
  -22.5814  -14.8908   20.8755 O   0  0  0  0  0  0  0  0  0  0  0  0
  -20.2467  -16.6451   23.2559 O   0  0  0  0  0  0  0  0  0  0  0  0
  -23.3480  -20.1307   24.1237 O   0  0  0  0  0  0  0  0  0  0  0  0
  -26.6494  -23.1002   17.5358 O   0  0  0  0  0  0  0  0  0  0  0  0
  -27.0712  -33.3596   23.8652 O   0  0  0  0  0  0  0  0  0  0  0  0
  -28.7094  -16.0698   23.0350 O   0  0  0  0  0  0  0  0  0  1  0  0
  -23.0256  -36.9139   25.0502 F   0  0  0  0  0  0  0  0  0  0  0  0
  -26.4053  -33.9278   26.4875 F   0  0  0  0  0  0  0  0  0  0  0  0
  1  2  1  0  0  0  0
  1  5  2  0  0  0  0
  2  6  2  0  0  0  0
  3  8  2  0  0  0  0
  3 16  1  0  0  0  0
  4  9  1  0  0  0  0
  4 16  2  0  0  0  0
  5 18  1  0  0  0  0
  6 20  1  0  0  0  0
  7 10  2  0  0  0  0
  7 19  1  0  0  0  0
  8 24  1  0  0  0  0
  9 24  2  0  0  0  0
 10 25  1  0  0  0  0
 11 12  2  0  0  0  0
 11 26  1  0  0  0  0
 12 27  1  0  0  0  0
 13 21  1  0  0  0  0
 13 25  2  0  0  0  0
 14 22  2  0  0  0  0
 14 31  1  0  0  0  0
 15 27  2  0  0  0  0
 15 28  1  0  0  0  0
 16 29  1  0  0  0  0
 17 29  1  0  0  0  0
 17 32  2  0  0  0  0
 17 33  1  0  0  0  0
 18 20  2  0  0  0  0
 18 38  1  0  0  0  0
 19 21  2  0  0  0  0
 19 39  1  0  0  0  0
 20 51  1  0  0  0  0
 21 40  1  0  0  0  0
 22 23  1  0  0  0  0
 22 54  1  0  0  0  0
 23 30  2  0  0  0  0
 23 55  1  0  0  0  0
 24 84  1  0  0  0  0
 25 85  1  0  0  0  0
 26 28  2  0  0  0  0
 26 84  1  0  0  0  0
 27 86  1  0  0  0  0
 28 87  1  0  0  0  0
 29 67  2  0  0  0  0
 30 63  1  0  0  0  0
 30 68  1  0  0  0  0
 31 68  2  0  0  0  0
 31 70  1  0  0  0  0
 32 69  1  0  0  0  0
 32 74  1  0  0  0  0
 33 75  1  0  0  0  0
 33 79  2  0  0  0  0
 34 52  1  0  0  0  0
 34 76  1  0  0  0  0
 34 80  2  0  0  0  0
 35 64  1  0  0  0  0
 35 71  1  0  0  0  0
 35 81  2  0  0  0  0
 36 65  1  0  0  0  0
 36 77  1  0  0  0  0
 36 82  2  0  0  0  0
 37 72  1  0  0  0  0
 37 73  1  0  0  0  0
 37 83  2  0  0  0  0
 38 41  1  0  0  0  0
 39 52  1  0  0  0  0
 40 71  1  0  0  0  0
 41 43  1  0  0  0  0
 42 44  1  0  0  0  0
 42 45  1  0  0  0  0
 43 51  1  0  0  0  0
 44 53  1  0  0  0  0
 45 72  1  0  0  0  0
 46 48  1  0  0  0  0
 46 70  1  0  0  0  0
 47 49  1  0  0  0  0
 47 70  1  0  0  0  0
 48 73  1  0  0  0  0
 49 73  1  0  0  0  0
 50 53  1  0  0  0  0
 50 72  1  0  0  0  0
 51 76  1  0  0  0  0
 52 71  1  0  0  0  0
 53 69  1  0  0  0  0
 56 63  1  0  0  0  0
 57 65  1  0  0  0  0
 58 66  1  0  0  0  0
 59 66  1  0  0  0  0
 60 66  1  0  0  0  0
 61 78  1  0  0  0  0
 62 63  1  0  0  0  0
 62 85  1  0  0  0  0
 64 66  1  0  0  0  0
 64 77  1  0  0  0  0
 65 78  1  0  0  0  0
 67 69  1  0  0  0  0
M  CHG  1  78   1
M  ISO  4  37 100  62 101  73 100  85 101
M  END
> <Batch ID>
0165

> <Smiles>
CNC(C)C(=O)NC(C(=O)N1Cc2cc([101O:1][101CH2:1]C(C)c3nc(N4CC[100N:0]([100C:0](=O)N5CCCC(n6nc(-c7ccc(Oc8ccc(F)cc8F)cc7)c(C(N)=O)c6N)C5)CC4)cc(C)c3C)ccc2CC1C(=O)NC1CCCc2ccccc21)C(C)(C)C

> <Shape>
0.234

> <Color>
0.075

> <Negative vol penalty>
0.000

$$$$

  -OEChem-04052322223D

 82 91  0     1  0  0  0  0  0999 V2000
  -26.4603  -37.3134   23.4989 C   0  0  0  0  0  0  0  0  0  0  0  0
  -27.1220  -36.2238   22.9417 C   0  0  0  0  0  0  0  0  0  0  0  0
  -24.5573  -13.6381   20.4699 C   0  0  0  0  0  0  0  0  0  0  0  0
  -26.7993  -13.1123   21.2006 C   0  0  0  0  0  0  0  0  0  0  0  0
  -25.3791  -37.1077   24.3548 C   0  0  0  0  0  0  0  0  0  0  0  0
  -26.7034  -34.9278   23.2409 C   0  0  0  0  0  0  0  0  0  0  0  0
  -26.7806  -30.0784   19.5016 C   0  0  0  0  0  0  0  0  0  0  0  0
  -24.3072  -12.2819   20.2610 C   0  0  0  0  0  0  0  0  0  0  0  0
  -26.5492  -11.7560   20.9918 C   0  0  0  0  0  0  0  0  0  0  0  0
  -27.6742  -29.0178   19.3593 C   0  0  0  0  0  0  0  0  0  0  0  0
  -23.5441   -9.5723   22.1342 C   0  0  0  0  0  0  0  0  0  0  0  0
  -22.3331   -9.0576   22.5969 C   0  0  0  0  0  0  0  0  0  0  0  0
  -26.2844  -27.6626   20.7914 C   0  0  0  0  0  0  0  0  0  0  0  0
  -21.7469   -8.4112   20.3440 C   0  0  0  0  0  0  0  0  0  0  0  0
  -31.5701  -25.7525   19.4182 C   0  0  0  0  0  0  0  0  0  0  0  0
  -25.8033  -14.0534   20.9396 C   0  0  0  0  0  0  0  0  0  0  0  0
  -25.8485  -16.1863   22.3384 C   0  0  0  0  0  0  0  0  0  0  0  0
  -24.9410  -35.8088   24.6570 C   0  0  0  0  0  0  0  0  0  0  0  0
  -25.6358  -29.9424   20.2999 C   0  0  0  0  0  0  0  0  0  0  0  0
  -25.6161  -34.7046   24.1027 C   0  0  0  0  0  0  0  0  0  0  0  0
  -25.3765  -28.7222   20.9401 C   0  0  0  0  0  0  0  0  0  0  0  0
  -30.5490  -23.4131   18.4312 C   0  0  0  0  0  0  0  0  0  0  0  0
  -30.2591  -25.7473   18.9775 C   0  0  0  0  0  0  0  0  0  0  0  0
  -29.7477  -24.5570   18.4753 C   0  0  0  0  0  0  0  0  0  0  0  0
  -25.3032  -11.3408   20.5220 C   0  0  0  0  0  0  0  0  0  0  0  0
  -27.4277  -27.8106   20.0066 C   0  0  0  0  0  0  0  0  0  0  0  0
  -23.8565   -9.5066   20.7763 C   0  0  0  0  0  0  0  0  0  0  0  0
  -21.4345   -8.4771   21.7019 C   0  0  0  0  0  0  0  0  0  0  0  0
  -22.9579   -8.9260   19.8812 C   0  0  0  0  0  0  0  0  0  0  0  0
  -26.0624  -15.4543   21.1550 C   0  0  0  0  0  0  0  0  0  0  0  0
  -31.8668  -23.5241   18.8875 C   0  0  0  0  0  0  0  0  0  0  0  0
  -26.2495  -17.4631   22.0296 C   0  0  0  0  0  0  0  0  0  0  0  0
  -25.3335  -15.7509   23.6036 C   0  0  0  0  0  0  0  0  0  0  0  0
  -24.5487  -31.3692   22.9241 C   0  0  0  0  0  0  0  0  0  0  0  0
  -21.9207  -29.5562   22.3508 C   0  0  0  0  0  0  0  0  0  0  0  0
  -20.5832  -26.7674   20.9085 C   0  0  0  0  0  0  0  0  0  0  0  0
  -30.5027  -19.7965   18.7423 C   0  0  0  0  0  0  0  0  0  0  0  0
  -23.7973  -35.6352   25.6249 C   0  0  0  0  0  0  0  0  0  0  0  0
  -24.6679  -31.0873   20.4216 C   0  0  0  0  0  0  0  0  0  0  0  0
  -24.1514  -28.5184   21.7923 C   0  0  0  0  0  0  0  0  0  0  0  0
  -30.0017  -22.1271   17.8637 C   0  0  0  0  0  0  0  0  0  0  0  0
  -32.7784  -22.3248   18.8861 C   0  0  0  0  0  0  0  0  0  0  0  0
  -23.1807  -34.2391   25.5950 C   0  0  0  0  0  0  0  0  0  0  0  0
  -26.8798  -20.0182   17.8555 C   0  0  0  0  0  0  0  0  0  0  0  0
  -24.2716  -33.1731   25.6169 C   0  0  0  0  0  0  0  0  0  0  0  0
  -26.3037  -18.8758   18.6911 C   0  0  0  0  0  0  0  0  0  0  0  0
  -32.3135  -21.2588   17.9003 C   0  0  0  0  0  0  0  0  0  0  0  0
  -28.3253  -19.7389   17.4621 C   0  0  0  0  0  0  0  0  0  0  0  0
  -28.6567  -18.3225   19.4617 C   0  0  0  0  0  0  0  0  0  0  0  0
  -25.1762  -33.2841   24.3837 C   0  0  1  0  0  0  0  0  0  0  0  0
  -23.7997  -31.0052   21.6734 C   0  0  1  0  0  0  0  0  0  0  0  0
  -27.2037  -18.5697   19.9006 C   0  0  2  0  0  0  0  0  0  0  0  0
  -28.3361  -24.5190   17.9785 C   0  0  0  0  0  0  0  0  0  0  0  0
  -18.4138  -25.5339   20.6443 C   0  0  0  0  0  0  0  0  0  0  0  0
  -22.1599  -28.5274   25.2134 C   0  0  0  0  0  0  0  0  0  0  0  0
  -20.6141  -26.6571   24.5964 C   0  0  0  0  0  0  0  0  0  0  0  0
  -19.8221  -29.0194   24.4736 C   0  0  0  0  0  0  0  0  0  0  0  0
  -20.6403  -27.0624   17.9642 C   0  0  0  0  0  0  0  0  0  0  0  0
  -29.4447  -26.9925   19.0483 C   0  0  0  0  0  0  0  0  0  1  0  0
  -21.4681  -28.1729   22.7513 C   0  0  1  0  0  0  0  0  0  0  0  0
  -19.3494  -26.5727   20.0457 C   0  0  2  0  0  0  0  0  0  0  0  0
  -21.0402  -28.0983   24.2443 C   0  0  0  0  0  0  0  0  0  0  0  0
  -32.3831  -24.6738   19.3882 N   0  0  0  0  0  0  0  0  0  0  0  0
  -26.5604  -16.2038   20.1680 N   0  0  0  0  0  0  0  0  0  0  0  0
  -26.6628  -17.4201   20.7305 N   0  0  0  0  0  0  0  0  0  0  0  0
  -23.2384  -29.6695   21.8854 N   0  0  0  0  0  0  0  0  0  0  0  0
  -30.8919  -20.9799   18.0961 N   0  0  0  0  0  0  0  0  0  0  0  0
  -29.1536  -19.4232   18.6332 N   0  0  0  0  0  0  0  0  0  0  0  0
  -26.2854  -18.6072   22.7452 N   0  0  0  0  0  0  0  0  0  0  0  0
  -24.9696  -14.4053   23.7496 N   0  0  0  0  0  0  0  0  0  0  0  0
  -24.5213  -32.7179   23.2239 N   0  0  0  0  0  0  0  0  0  0  0  0
  -20.4188  -27.7981   21.8096 N   0  0  0  0  0  0  0  0  0  0  0  0
  -19.7386  -26.1229   18.6793 N   0  3  0  0  0  0  0  0  0  0  0  0
  -25.1847  -16.5355   24.5710 O   0  0  0  0  0  0  0  0  0  0  0  0
  -25.1087  -30.4913   23.5701 O   0  0  0  0  0  0  0  0  0  0  0  0
  -21.1318  -30.5003   22.4407 O   0  0  0  0  0  0  0  0  0  0  0  0
  -21.5905  -26.0722   20.7969 O   0  0  0  0  0  0  0  0  0  0  0  0
  -31.3092  -19.1190   19.3921 O   0  0  0  0  0  0  0  0  0  0  0  0
  -25.0595  -10.0173   20.3185 O   0  0  0  0  0  0  0  0  0  0  0  0
  -28.3045  -26.7670   19.8691 O   0  0  0  0  0  0  0  0  0  1  0  0
  -20.2723   -7.9815   22.1466 F   0  0  0  0  0  0  0  0  0  0  0  0
  -23.2530   -8.8588   18.5758 F   0  0  0  0  0  0  0  0  0  0  0  0
  1  2  1  0  0  0  0
  1  5  2  0  0  0  0
  2  6  2  0  0  0  0
  3  8  2  0  0  0  0
  3 16  1  0  0  0  0
  4  9  1  0  0  0  0
  4 16  2  0  0  0  0
  5 18  1  0  0  0  0
  6 20  1  0  0  0  0
  7 10  2  0  0  0  0
  7 19  1  0  0  0  0
  8 25  1  0  0  0  0
  9 25  2  0  0  0  0
 10 26  1  0  0  0  0
 11 12  2  0  0  0  0
 11 27  1  0  0  0  0
 12 28  1  0  0  0  0
 13 21  1  0  0  0  0
 13 26  2  0  0  0  0
 14 28  2  0  0  0  0
 14 29  1  0  0  0  0
 15 23  1  0  0  0  0
 15 63  2  0  0  0  0
 16 30  1  0  0  0  0
 17 30  1  0  0  0  0
 17 32  2  0  0  0  0
 17 33  1  0  0  0  0
 18 20  2  0  0  0  0
 18 38  1  0  0  0  0
 19 21  2  0  0  0  0
 19 39  1  0  0  0  0
 20 50  1  0  0  0  0
 21 40  1  0  0  0  0
 22 24  1  0  0  0  0
 22 31  2  0  0  0  0
 22 41  1  0  0  0  0
 23 24  2  0  0  0  0
 23 59  1  0  0  0  0
 24 53  1  0  0  0  0
 25 79  1  0  0  0  0
 26 80  1  0  0  0  0
 27 29  2  0  0  0  0
 27 79  1  0  0  0  0
 28 81  1  0  0  0  0
 29 82  1  0  0  0  0
 30 64  2  0  0  0  0
 31 42  1  0  0  0  0
 31 63  1  0  0  0  0
 32 65  1  0  0  0  0
 32 69  1  0  0  0  0
 33 70  1  0  0  0  0
 33 74  2  0  0  0  0
 34 51  1  0  0  0  0
 34 71  1  0  0  0  0
 34 75  2  0  0  0  0
 35 60  1  0  0  0  0
 35 66  1  0  0  0  0
 35 76  2  0  0  0  0
 36 61  1  0  0  0  0
 36 72  1  0  0  0  0
 36 77  2  0  0  0  0
 37 67  1  0  0  0  0
 37 68  1  0  0  0  0
 37 78  2  0  0  0  0
 38 43  1  0  0  0  0
 39 51  1  0  0  0  0
 40 66  1  0  0  0  0
 41 67  1  0  0  0  0
 42 47  1  0  0  0  0
 43 45  1  0  0  0  0
 44 46  1  0  0  0  0
 44 48  1  0  0  0  0
 45 50  1  0  0  0  0
 46 52  1  0  0  0  0
 47 67  1  0  0  0  0
 48 68  1  0  0  0  0
 49 52  1  0  0  0  0
 49 68  1  0  0  0  0
 50 71  1  0  0  0  0
 51 66  1  0  0  0  0
 52 65  1  0  0  0  0
 54 61  1  0  0  0  0
 55 62  1  0  0  0  0
 56 62  1  0  0  0  0
 57 62  1  0  0  0  0
 58 73  1  0  0  0  0
 59 80  1  0  0  0  0
 60 62  1  0  0  0  0
 60 72  1  0  0  0  0
 61 73  1  0  0  0  0
 64 65  1  0  0  0  0
M  CHG  1  73   1
M  ISO  4  37 100  59 101  67 100  80 101
M  END
> <Batch ID>
0165

> <Smiles>
CNC(C)C(=O)NC(C(=O)N1Cc2cc([101O:1][101CH2:1]c3cnc4c(c3C)C[100N:0]([100C:0](=O)N3CCCC(n5nc(-c6ccc(Oc7ccc(F)cc7F)cc6)c(C(N)=O)c5N)C3)CC4)ccc2CC1C(=O)NC1CCCc2ccccc21)C(C)(C)C

> <Shape>
0.316

> <Color>
0.083

> <Negative vol penalty>
0.000

$$$$

  -OEChem-04052322223D

 90100  0     1  0  0  0  0  0999 V2000
  -15.4050  -32.0169   22.3565 C   0  0  0  0  0  0  0  0  0  0  0  0
  -16.6449  -32.6187   22.1668 C   0  0  0  0  0  0  0  0  0  0  0  0
  -24.4277  -12.2902   19.8230 C   0  0  0  0  0  0  0  0  0  0  0  0
  -25.4762  -12.6178   21.9749 C   0  0  0  0  0  0  0  0  0  0  0  0
  -15.3313  -30.7180   22.8580 C   0  0  0  0  0  0  0  0  0  0  0  0
  -17.8118  -31.9223   22.4794 C   0  0  0  0  0  0  0  0  0  0  0  0
  -24.6228  -31.2123   20.3764 C   0  0  0  0  0  0  0  0  0  0  0  0
  -29.4806  -28.6819   19.9174 C   0  0  0  0  0  0  0  0  0  0  0  0
  -24.6197  -10.9135   19.9391 C   0  0  0  0  0  0  0  0  0  0  0  0
  -25.6682  -11.2410   22.0909 C   0  0  0  0  0  0  0  0  0  0  0  0
  -25.9184  -31.2529   20.8898 C   0  0  0  0  0  0  0  0  0  0  0  0
  -29.6079  -27.3940   19.3972 C   0  0  0  0  0  0  0  0  0  0  0  0
  -24.5092   -7.2815   19.8315 C   0  0  0  0  0  0  0  0  0  0  0  0
  -23.4425   -6.4475   19.4966 C   0  0  0  0  0  0  0  0  0  0  0  0
  -25.6718  -28.9853   21.6751 C   0  0  0  0  0  0  0  0  0  0  0  0
  -22.0925   -7.4859   21.2101 C   0  0  0  0  0  0  0  0  0  0  0  0
  -24.8560  -13.1423   20.8409 C   0  0  0  0  0  0  0  0  0  0  0  0
  -23.5428  -15.3071   21.1522 C   0  0  0  0  0  0  0  0  0  0  0  0
  -16.4982  -30.0018   23.1678 C   0  0  0  0  0  0  0  0  0  0  0  0
  -23.8368  -30.0597   20.5183 C   0  0  0  0  0  0  0  0  0  0  0  0
  -17.7536  -30.6131   22.9868 C   0  0  0  0  0  0  0  0  0  0  0  0
  -24.3675  -28.9318   21.1603 C   0  0  0  0  0  0  0  0  0  0  0  0
  -30.2272  -29.0603   21.0333 C   0  0  0  0  0  0  0  0  0  0  0  0
  -31.1010  -28.1507   21.6289 C   0  0  0  0  0  0  0  0  0  0  0  0
  -31.2283  -26.8627   21.1087 C   0  0  0  0  0  0  0  0  0  0  0  0
  -25.2399  -10.3889   21.0730 C   0  0  0  0  0  0  0  0  0  0  0  0
  -26.4420  -30.1403   21.5418 C   0  0  0  0  0  0  0  0  0  0  0  0
  -30.4817  -26.4844   19.9928 C   0  0  0  0  0  0  0  0  0  0  0  0
  -24.3675   -8.2177   20.8558 C   0  0  0  0  0  0  0  0  0  0  0  0
  -22.2342   -6.5497   20.1858 C   0  0  0  0  0  0  0  0  0  0  0  0
  -23.1592   -8.3199   21.5451 C   0  0  0  0  0  0  0  0  0  0  0  0
  -24.6585  -14.5646   20.7214 C   0  0  0  0  0  0  0  0  0  0  0  0
  -23.8405  -16.6037   20.8107 C   0  0  0  0  0  0  0  0  0  0  0  0
  -22.3444  -14.8643   21.8030 C   0  0  0  0  0  0  0  0  0  0  0  0
  -21.0826  -29.3858   21.9549 C   0  0  0  0  0  0  0  0  0  0  0  0
  -21.4802  -26.5095   20.5089 C   0  0  0  0  0  0  0  0  0  0  0  0
  -23.6142  -24.2268   19.1371 C   0  0  0  0  0  0  0  0  0  0  0  0
  -27.1177  -20.8279   20.4770 C   0  0  0  0  0  0  0  0  0  0  0  0
  -16.3668  -28.6175   23.7519 C   0  0  0  0  0  0  0  0  0  0  0  0
  -22.4507  -30.0227   19.9354 C   0  0  0  0  0  0  0  0  0  0  0  0
  -23.5719  -27.6630   21.3210 C   0  0  0  0  0  0  0  0  0  0  0  0
  -17.6622  -27.8113   23.7054 C   0  0  0  0  0  0  0  0  0  0  0  0
  -27.5217  -18.4957   17.9151 C   0  0  0  0  0  0  0  0  0  0  0  0
  -18.8351  -28.6571   24.1910 C   0  0  0  0  0  0  0  0  0  0  0  0
  -29.0147  -23.4220   17.8291 C   0  0  0  0  0  0  0  0  0  0  0  0
  -30.2436  -22.6239   18.2889 C   0  0  0  0  0  0  0  0  0  0  0  0
  -26.7159  -17.3119   18.4489 C   0  0  0  0  0  0  0  0  0  0  0  0
  -28.3407  -19.1733   19.0152 C   0  0  0  0  0  0  0  0  0  0  0  0
  -27.4671  -23.1718   19.8218 C   0  0  0  0  0  0  0  0  0  0  0  0
  -29.4399  -21.8235   20.5638 C   0  0  0  0  0  0  0  0  0  0  0  0
  -26.7357  -18.3952   20.7278 C   0  0  0  0  0  0  0  0  0  0  0  0
  -19.0427  -29.8810   23.2908 C   0  0  1  0  0  0  0  0  0  0  0  0
  -21.5553  -28.9747   20.5892 C   0  0  1  0  0  0  0  0  0  0  0  0
  -28.4679  -24.0897   19.1050 C   0  0  1  0  0  0  0  0  0  0  0  0
  -30.3151  -22.8397   19.8105 C   0  0  2  0  0  0  0  0  0  0  0  0
  -25.8582  -17.7282   19.6571 C   0  0  2  0  0  0  0  0  0  0  0  0
  -29.7124  -24.2340   19.9804 C   0  0  0  0  0  0  0  0  0  0  0  0
  -31.9013  -28.5589   22.8251 C   0  0  0  0  0  0  0  0  0  0  0  0
  -32.1630  -25.8818   21.7418 C   0  0  0  0  0  0  0  0  0  0  0  0
  -31.1045  -31.4177   20.9668 C   0  0  0  0  0  0  0  0  0  0  0  0
  -23.6497  -21.9544   18.0729 C   0  0  0  0  0  0  0  0  0  0  0  0
  -21.1263  -25.2219   23.2524 C   0  0  0  0  0  0  0  0  0  0  0  0
  -22.0978  -23.1149   22.3116 C   0  0  0  0  0  0  0  0  0  0  0  0
  -19.9704  -24.0286   21.3830 C   0  0  0  0  0  0  0  0  0  0  0  0
  -24.7052  -25.3020   16.6048 C   0  0  0  0  0  0  0  0  0  0  0  0
  -28.6483  -31.0117   21.3711 C   0  0  0  0  0  0  0  0  0  1  0  0
  -30.0720  -30.4456   21.5701 C   0  0  1  0  0  0  0  0  0  0  0  0
  -22.1495  -25.2088   20.8819 C   0  0  1  0  0  0  0  0  0  0  0  0
  -23.5588  -23.4532   17.8321 C   0  0  2  0  0  0  0  0  0  0  0  0
  -21.3505  -24.4179   21.9561 C   0  0  0  0  0  0  0  0  0  0  0  0
  -25.5951  -15.3261   20.1497 N   0  0  0  0  0  0  0  0  0  0  0  0
  -25.0685  -16.5606   20.2188 N   0  0  0  0  0  0  0  0  0  0  0  0
  -22.2194  -27.6783   20.7395 N   0  0  0  0  0  0  0  0  0  0  0  0
  -27.4914  -19.5143   20.1625 N   0  0  0  0  0  0  0  0  0  0  0  0
  -28.0260  -21.8487   20.1343 N   0  0  0  0  0  0  0  0  0  0  0  0
  -23.1690  -17.7650   20.9619 N   0  0  0  0  0  0  0  0  0  0  0  0
  -22.2004  -13.4980   22.0804 N   0  0  0  0  0  0  0  0  0  0  0  0
  -19.7097  -29.4992   22.0645 N   0  0  0  0  0  0  0  0  0  0  0  0
  -22.3534  -24.4819   19.6336 N   0  0  0  0  0  0  0  0  0  0  0  0
  -24.6852  -23.8556   16.9431 N   0  3  0  0  0  0  0  0  0  0  0  0
  -21.4212  -15.6545   22.1142 O   0  0  0  0  0  0  0  0  0  0  0  0
  -21.9025  -29.5839   22.8438 O   0  0  0  0  0  0  0  0  0  0  0  0
  -20.3462  -26.4887   20.0238 O   0  0  0  0  0  0  0  0  0  0  0  0
  -24.6705  -24.5672   19.6653 O   0  0  0  0  0  0  0  0  0  0  0  0
  -26.0440  -21.0788   21.0388 O   0  0  0  0  0  0  0  0  0  0  0  0
  -25.4272   -9.0456   21.1867 O   0  0  0  0  0  0  0  0  0  0  0  0
  -30.5930  -25.2230   19.4671 O   0  0  0  0  0  0  0  0  0  0  0  0
  -27.7144  -30.1777   22.0478 O   0  0  0  0  0  0  0  0  0  1  0  0
  -21.2094   -5.7497   19.8630 F   0  0  0  0  0  0  0  0  0  0  0  0
  -23.0167   -9.2182   22.5292 F   0  0  0  0  0  0  0  0  0  0  0  0
  1  2  1  0  0  0  0
  1  5  2  0  0  0  0
  2  6  2  0  0  0  0
  3  9  2  0  0  0  0
  3 17  1  0  0  0  0
  4 10  1  0  0  0  0
  4 17  2  0  0  0  0
  5 19  1  0  0  0  0
  6 21  1  0  0  0  0
  7 11  2  0  0  0  0
  7 20  1  0  0  0  0
  8 12  2  0  0  0  0
  8 23  1  0  0  0  0
  9 26  1  0  0  0  0
 10 26  2  0  0  0  0
 11 27  1  0  0  0  0
 12 28  1  0  0  0  0
 13 14  2  0  0  0  0
 13 29  1  0  0  0  0
 14 30  1  0  0  0  0
 15 22  1  0  0  0  0
 15 27  2  0  0  0  0
 16 30  2  0  0  0  0
 16 31  1  0  0  0  0
 17 32  1  0  0  0  0
 18 32  1  0  0  0  0
 18 33  2  0  0  0  0
 18 34  1  0  0  0  0
 19 21  2  0  0  0  0
 19 39  1  0  0  0  0
 20 22  2  0  0  0  0
 20 40  1  0  0  0  0
 21 52  1  0  0  0  0
 22 41  1  0  0  0  0
 23 24  2  0  0  0  0
 23 67  1  0  0  0  0
 24 25  1  0  0  0  0
 24 58  1  0  0  0  0
 25 28  2  0  0  0  0
 25 59  1  0  0  0  0
 26 86  1  0  0  0  0
 27 88  1  0  0  0  0
 28 87  1  0  0  0  0
 29 31  2  0  0  0  0
 29 86  1  0  0  0  0
 30 89  1  0  0  0  0
 31 90  1  0  0  0  0
 32 71  2  0  0  0  0
 33 72  1  0  0  0  0
 33 76  1  0  0  0  0
 34 77  1  0  0  0  0
 34 81  2  0  0  0  0
 35 53  1  0  0  0  0
 35 78  1  0  0  0  0
 35 82  2  0  0  0  0
 36 68  1  0  0  0  0
 36 73  1  0  0  0  0
 36 83  2  0  0  0  0
 37 69  1  0  0  0  0
 37 79  1  0  0  0  0
 37 84  2  0  0  0  0
 38 74  1  0  0  0  0
 38 75  1  0  0  0  0
 38 85  2  0  0  0  0
 39 42  1  0  0  0  0
 40 53  1  0  0  0  0
 41 73  1  0  0  0  0
 42 44  1  0  0  0  0
 43 47  1  0  0  0  0
 43 48  1  0  0  0  0
 44 52  1  0  0  0  0
 45 46  1  0  0  0  0
 45 54  1  0  0  0  0
 46 55  1  0  0  0  0
 47 56  1  0  0  0  0
 48 74  1  0  0  0  0
 49 54  1  0  0  0  0
 49 75  1  0  0  0  0
 50 55  1  0  0  0  0
 50 75  1  0  0  0  0
 51 56  1  0  0  0  0
 51 74  1  0  0  0  0
 52 78  1  0  0  0  0
 53 73  1  0  0  0  0
 54 57  1  0  0  0  0
 55 57  1  0  0  0  0
 56 72  1  0  0  0  0
 57 87  1  0  0  0  0
 60 67  1  0  0  0  0
 61 69  1  0  0  0  0
 62 70  1  0  0  0  0
 63 70  1  0  0  0  0
 64 70  1  0  0  0  0
 65 80  1  0  0  0  0
 66 67  1  0  0  0  0
 66 88  1  0  0  0  0
 68 70  1  0  0  0  0
 68 79  1  0  0  0  0
 69 80  1  0  0  0  0
 71 72  1  0  0  0  0
M  CHG  1  80   1
M  ISO  4  38 100  66 101  75 100  88 101
M  END
> <Batch ID>
0165

> <Smiles>
CNC(C)C(=O)NC(C(=O)N1Cc2cc([101O:1][101CH2:1]C(C)c3ccc(OC4C5CCC4C[100N:0]([100C:0](=O)N4CCCC(n6nc(-c7ccc(Oc8ccc(F)cc8F)cc7)c(C(N)=O)c6N)C4)C5)c(C)c3C)ccc2CC1C(=O)NC1CCCc2ccccc21)C(C)(C)C

> <Shape>
0.273

> <Color>
0.086

> <Negative vol penalty>
0.000

$$$$

  -OEChem-04052322223D

 87 97  0     1  0  0  0  0  0999 V2000
  -31.7117  -34.1692   21.5153 C   0  0  0  0  0  0  0  0  0  0  0  0
  -31.2742  -33.0340   20.8405 C   0  0  0  0  0  0  0  0  0  0  0  0
  -23.8067   -9.3609   20.6044 C   0  0  0  0  0  0  0  0  0  0  0  0
  -22.8140  -11.0469   22.0218 C   0  0  0  0  0  0  0  0  0  0  0  0
  -31.2162  -34.4577   22.7862 C   0  0  0  0  0  0  0  0  0  0  0  0
  -30.3417  -32.1859   21.4369 C   0  0  0  0  0  0  0  0  0  0  0  0
  -25.9096  -29.0296   18.6262 C   0  0  0  0  0  0  0  0  0  0  0  0
  -22.8589   -8.4355   21.0413 C   0  0  0  0  0  0  0  0  0  0  0  0
  -21.8661  -10.1215   22.4586 C   0  0  0  0  0  0  0  0  0  0  0  0
  -25.8232  -27.7020   18.2094 C   0  0  0  0  0  0  0  0  0  0  0  0
  -22.3452   -6.4900   23.7571 C   0  0  0  0  0  0  0  0  0  0  0  0
  -22.7955   -5.2153   24.1007 C   0  0  0  0  0  0  0  0  0  0  0  0
  -25.1281  -20.8264   20.3347 C   0  0  0  0  0  0  0  0  0  0  0  0
  -24.6752  -27.1407   20.2554 C   0  0  0  0  0  0  0  0  0  0  0  0
  -21.3730   -4.2545   22.4006 C   0  0  0  0  0  0  0  0  0  0  0  0
  -23.7843  -10.6666   21.0947 C   0  0  0  0  0  0  0  0  0  0  0  0
  -24.6596  -12.4900   19.5402 C   0  0  0  0  0  0  0  0  0  0  0  0
  -30.2700  -33.6178   23.3944 C   0  0  0  0  0  0  0  0  0  0  0  0
  -25.3881  -29.4213   19.8676 C   0  0  0  0  0  0  0  0  0  0  0  0
  -29.8341  -32.4626   22.7177 C   0  0  0  0  0  0  0  0  0  0  0  0
  -25.8210  -21.9495   19.8831 C   0  0  0  0  0  0  0  0  0  0  0  0
  -24.7539  -28.4744   20.6845 C   0  0  0  0  0  0  0  0  0  0  0  0
  -27.1662  -19.9555   21.2963 C   0  0  0  0  0  0  0  0  0  0  0  0
  -25.8007  -19.8293   21.0413 C   0  0  0  0  0  0  0  0  0  0  0  0
  -27.1866  -22.0757   20.1381 C   0  0  0  0  0  0  0  0  0  0  0  0
  -27.8592  -21.0787   20.8447 C   0  0  0  0  0  0  0  0  0  0  0  0
  -21.8886   -8.8158   21.9684 C   0  0  0  0  0  0  0  0  0  0  0  0
  -25.2085  -26.7567   19.0253 C   0  0  0  0  0  0  0  0  0  0  0  0
  -21.4088   -6.6469   22.7352 C   0  0  0  0  0  0  0  0  0  0  0  0
  -22.3094   -4.0976   23.4225 C   0  0  0  0  0  0  0  0  0  0  0  0
  -20.9227   -5.5292   22.0570 C   0  0  0  0  0  0  0  0  0  0  0  0
  -24.7635  -11.6228   20.6442 C   0  0  0  0  0  0  0  0  0  0  0  0
  -25.8424  -13.1882   19.5395 C   0  0  0  0  0  0  0  0  0  0  0  0
  -23.5896  -12.6502   18.5994 C   0  0  0  0  0  0  0  0  0  0  0  0
  -26.6145  -30.6598   22.5258 C   0  0  0  0  0  0  0  0  0  0  0  0
  -23.4998  -30.8430   23.4132 C   0  0  0  0  0  0  0  0  0  0  0  0
  -20.3112  -29.6817   23.0516 C   0  0  0  0  0  0  0  0  0  0  0  0
  -29.7475  -16.0366   22.4542 C   0  0  0  0  0  0  0  0  0  0  0  0
  -29.7988  -33.9454   24.7892 C   0  0  0  0  0  0  0  0  0  0  0  0
  -25.4656  -30.8626   20.2909 C   0  0  0  0  0  0  0  0  0  0  0  0
  -24.1601  -28.8477   22.0174 C   0  0  0  0  0  0  0  0  0  0  0  0
  -28.5322  -33.1967   25.1958 C   0  0  0  0  0  0  0  0  0  0  0  0
  -30.1097  -12.4746   22.1175 C   0  0  0  0  0  0  0  0  0  0  0  0
  -28.6464  -31.7190   24.8348 C   0  0  0  0  0  0  0  0  0  0  0  0
  -28.7330  -11.9961   21.6685 C   0  0  0  0  0  0  0  0  0  0  0  0
  -23.8564  -23.6224   19.7496 C   0  0  0  0  0  0  0  0  0  0  0  0
  -29.9909  -13.6590   23.0673 C   0  0  0  0  0  0  0  0  0  0  0  0
  -27.5585  -17.3404   21.8473 C   0  0  0  0  0  0  0  0  0  0  0  0
  -29.3641  -18.4374   21.6755 C   0  0  0  0  0  0  0  0  0  0  0  0
  -27.8686  -14.3682   21.9964 C   0  0  0  0  0  0  0  0  0  0  0  0
  -25.0791  -23.0020   19.1274 C   0  0  1  0  0  0  0  0  0  0  0  0
  -27.9283  -18.8219   22.1008 C   0  0  0  0  0  0  0  0  0  0  0  0
  -28.8050  -31.5315   23.3211 C   0  0  1  0  0  0  0  0  0  0  0  0
  -25.3569  -31.0485   21.8012 C   0  0  1  0  0  0  0  0  0  0  0  0
  -27.9379  -13.1542   21.0488 C   0  0  2  0  0  0  0  0  0  0  0  0
  -25.1168  -24.4233   19.6295 C   0  0  1  0  0  0  0  0  0  1  0  0
  -27.9299  -23.2800   19.6529 C   0  0  0  0  0  0  0  0  0  0  0  0
  -29.3233  -21.2109   21.1204 C   0  0  0  0  0  0  0  0  0  0  0  0
  -17.9860  -30.0003   23.9400 C   0  0  0  0  0  0  0  0  0  0  0  0
  -24.2619  -29.3220   25.9461 C   0  0  0  0  0  0  0  0  0  0  0  0
  -21.8306  -28.8466   26.3085 C   0  0  0  0  0  0  0  0  0  0  0  0
  -22.6517  -31.2021   26.3028 C   0  0  0  0  0  0  0  0  0  0  0  0
  -19.2774  -30.4657   20.3915 C   0  0  0  0  0  0  0  0  0  0  0  0
  -25.0386  -18.6364   21.5166 C   0  0  0  0  0  0  0  0  0  0  0  0
  -22.5349  -29.9250   24.1240 C   0  0  1  0  0  0  0  0  0  0  0  0
  -18.9895  -30.4065   22.8719 C   0  0  2  0  0  0  0  0  0  0  0  0
  -22.8326  -29.8162   25.6462 C   0  0  0  0  0  0  0  0  0  0  0  0
  -25.9209  -11.7560   21.2974 N   0  0  0  0  0  0  0  0  0  0  0  0
  -26.5552  -12.7150   20.6016 N   0  0  0  0  0  0  0  0  0  0  0  0
  -24.2665  -30.2681   22.3897 N   0  0  0  0  0  0  0  0  0  0  0  0
  -29.1982  -14.7501   22.4923 N   0  0  0  0  0  0  0  0  0  0  0  0
  -28.9803  -17.0567   21.9431 N   0  0  0  0  0  0  0  0  0  0  0  0
  -26.3319  -14.1546   18.7340 N   0  0  0  0  0  0  0  0  0  0  0  0
  -22.4463  -11.8529   18.7458 N   0  0  0  0  0  0  0  0  0  0  0  0
  -27.5291  -31.6874   22.6561 N   0  0  0  0  0  0  0  0  0  0  0  0
  -21.1976  -30.4164   23.8103 N   0  0  0  0  0  0  0  0  0  0  0  0
  -18.4058  -30.0959   21.5363 N   0  3  0  0  0  0  0  0  0  0  0  0
  -23.6525  -13.4643   17.6472 O   0  0  0  0  0  0  0  0  0  0  0  0
  -26.7448  -29.5130   22.9375 O   0  0  0  0  0  0  0  0  0  0  0  0
  -23.5655  -32.0282   23.7487 O   0  0  0  0  0  0  0  0  0  0  0  0
  -20.5336  -28.5729   22.5703 O   0  0  0  0  0  0  0  0  0  0  0  0
  -30.8808  -16.2761   22.8916 O   0  0  0  0  0  0  0  0  0  0  0  0
  -23.6921  -19.0113   21.7768 O   0  0  0  0  0  0  0  0  0  0  0  0
  -20.9634   -7.9131   22.3947 O   0  0  0  0  0  0  0  0  0  0  0  0
  -25.1223  -25.4413   18.6154 O   0  0  0  0  0  0  0  0  0  1  0  0
  -22.7430   -2.8737   23.7515 F   0  0  0  0  0  0  0  0  0  0  0  0
  -20.0239   -5.6738   21.0736 F   0  0  0  0  0  0  0  0  0  0  0  0
  1  2  1  0  0  0  0
  1  5  2  0  0  0  0
  2  6  2  0  0  0  0
  3  8  2  0  0  0  0
  3 16  1  0  0  0  0
  4  9  1  0  0  0  0
  4 16  2  0  0  0  0
  5 18  1  0  0  0  0
  6 20  1  0  0  0  0
  7 10  2  0  0  0  0
  7 19  1  0  0  0  0
  8 27  1  0  0  0  0
  9 27  2  0  0  0  0
 10 28  1  0  0  0  0
 11 12  2  0  0  0  0
 11 29  1  0  0  0  0
 12 30  1  0  0  0  0
 13 21  1  0  0  0  0
 13 24  2  0  0  0  0
 14 22  1  0  0  0  0
 14 28  2  0  0  0  0
 15 30  2  0  0  0  0
 15 31  1  0  0  0  0
 16 32  1  0  0  0  0
 17 32  1  0  0  0  0
 17 33  2  0  0  0  0
 17 34  1  0  0  0  0
 18 20  2  0  0  0  0
 18 39  1  0  0  0  0
 19 22  2  0  0  0  0
 19 40  1  0  0  0  0
 20 53  1  0  0  0  0
 21 25  2  0  0  0  0
 21 51  1  0  0  0  0
 22 41  1  0  0  0  0
 23 24  1  0  0  0  0
 23 26  2  0  0  0  0
 23 52  1  0  0  0  0
 24 64  1  0  0  0  0
 25 26  1  0  0  0  0
 25 57  1  0  0  0  0
 26 58  1  0  0  0  0
 27 84  1  0  0  0  0
 28 85  1  0  0  0  0
 29 31  2  0  0  0  0
 29 84  1  0  0  0  0
 30 86  1  0  0  0  0
 31 87  1  0  0  0  0
 32 68  2  0  0  0  0
 33 69  1  0  0  0  0
 33 73  1  0  0  0  0
 34 74  1  0  0  0  0
 34 78  2  0  0  0  0
 35 54  1  0  0  0  0
 35 75  1  0  0  0  0
 35 79  2  0  0  0  0
 36 65  1  0  0  0  0
 36 70  1  0  0  0  0
 36 80  2  0  0  0  0
 37 66  1  0  0  0  0
 37 76  1  0  0  0  0
 37 81  2  0  0  0  0
 38 71  1  0  0  0  0
 38 72  1  0  0  0  0
 38 82  2  0  0  0  0
 39 42  1  0  0  0  0
 40 54  1  0  0  0  0
 41 70  1  0  0  0  0
 42 44  1  0  0  0  0
 43 45  1  0  0  0  0
 43 47  1  0  0  0  0
 44 53  1  0  0  0  0
 45 55  1  0  0  0  0
 46 51  1  0  0  0  0
 46 56  1  0  0  0  0
 47 71  1  0  0  0  0
 48 52  1  0  0  0  0
 48 72  1  0  0  0  0
 49 52  1  0  0  0  0
 49 72  1  0  0  0  0
 50 55  1  0  0  0  0
 50 71  1  0  0  0  0
 51 56  1  0  0  0  0
 53 75  1  0  0  0  0
 54 70  1  0  0  0  0
 55 69  1  0  0  0  0
 56 85  1  0  0  0  0
 59 66  1  0  0  0  0
 60 67  1  0  0  0  0
 61 67  1  0  0  0  0
 62 67  1  0  0  0  0
 63 77  1  0  0  0  0
 64 83  1  0  0  0  0
 65 67  1  0  0  0  0
 65 76  1  0  0  0  0
 66 77  1  0  0  0  0
 68 69  1  0  0  0  0
M  CHG  1  77   1
M  ISO  4  38 100  56 101  72 100  85 101
M  END
> <Batch ID>
0165

> <Smiles>
CNC(C)C(=O)NC(C(=O)N1Cc2cc([101O:1][101CH:1]3CC3c3cc(CO)c(C4C[100N:0]([100C:0](=O)N5CCCC(n6nc(-c7ccc(Oc8ccc(F)cc8F)cc7)c(C(N)=O)c6N)C5)C4)c(C)c3C)ccc2CC1C(=O)NC1CCCc2ccccc21)C(C)(C)C

> <Shape>
0.265

> <Color>
0.098

> <Negative vol penalty>
0.000

$$$$

  -OEChem-04052322223D

 84 93  0     1  0  0  0  0  0999 V2000
  -27.3783  -37.6565   22.1335 C   0  0  0  0  0  0  0  0  0  0  0  0
  -28.0427  -36.5054   21.7227 C   0  0  0  0  0  0  0  0  0  0  0  0
  -24.4155   -9.7720   21.2590 C   0  0  0  0  0  0  0  0  0  0  0  0
  -24.9904  -10.8365   23.3503 C   0  0  0  0  0  0  0  0  0  0  0  0
  -26.2346  -37.5553   22.9245 C   0  0  0  0  0  0  0  0  0  0  0  0
  -27.5644  -35.2521   22.1036 C   0  0  0  0  0  0  0  0  0  0  0  0
  -27.0836  -28.5061   19.7424 C   0  0  0  0  0  0  0  0  0  0  0  0
  -24.1894   -8.5715   21.9321 C   0  0  0  0  0  0  0  0  0  0  0  0
  -24.7642   -9.6359   24.0235 C   0  0  0  0  0  0  0  0  0  0  0  0
  -27.3780  -27.2024   20.1393 C   0  0  0  0  0  0  0  0  0  0  0  0
  -23.1117   -5.3197   23.1484 C   0  0  0  0  0  0  0  0  0  0  0  0
  -21.9634   -4.5989   22.8209 C   0  0  0  0  0  0  0  0  0  0  0  0
  -25.3479  -27.1466   21.4410 C   0  0  0  0  0  0  0  0  0  0  0  0
  -20.5952   -6.4738   23.4916 C   0  0  0  0  0  0  0  0  0  0  0  0
  -24.8161  -10.9045   21.9680 C   0  0  0  0  0  0  0  0  0  0  0  0
  -24.1141  -13.1632   21.0124 C   0  0  0  0  0  0  0  0  0  0  0  0
  -25.7365  -36.2999   23.3072 C   0  0  0  0  0  0  0  0  0  0  0  0
  -25.9226  -29.1447   20.2012 C   0  0  0  0  0  0  0  0  0  0  0  0
  -26.4137  -35.1340   22.9016 C   0  0  0  0  0  0  0  0  0  0  0  0
  -25.0396  -28.4575   21.0464 C   0  0  0  0  0  0  0  0  0  0  0  0
  -24.3637   -8.5034   23.3144 C   0  0  0  0  0  0  0  0  0  0  0  0
  -26.5116  -26.5235   20.9910 C   0  0  0  0  0  0  0  0  0  0  0  0
  -23.0018   -6.6176   23.6476 C   0  0  0  0  0  0  0  0  0  0  0  0
  -20.7051   -5.1759   22.9924 C   0  0  0  0  0  0  0  0  0  0  0  0
  -21.7435   -7.1946   23.8192 C   0  0  0  0  0  0  0  0  0  0  0  0
  -25.0504  -12.1448   21.2731 C   0  0  0  0  0  0  0  0  0  0  0  0
  -24.8271  -14.1190   20.3309 C   0  0  0  0  0  0  0  0  0  0  0  0
  -22.7240  -13.2385   21.3556 C   0  0  0  0  0  0  0  0  0  0  0  0
  -25.3274  -31.7340   21.9463 C   0  0  0  0  0  0  0  0  0  0  0  0
  -22.2473  -31.0679   21.1769 C   0  0  0  0  0  0  0  0  0  0  0  0
  -19.9375  -28.7451   20.2195 C   0  0  0  0  0  0  0  0  0  0  0  0
  -29.6389  -17.1506   20.2031 C   0  0  0  0  0  0  0  0  0  0  0  0
  -24.5238  -36.2421   24.2021 C   0  0  0  0  0  0  0  0  0  0  0  0
  -25.6057  -30.5417   19.7424 C   0  0  0  0  0  0  0  0  0  0  0  0
  -23.7699  -29.0912   21.5509 C   0  0  0  0  0  0  0  0  0  0  0  0
  -23.8677  -34.8647   24.2506 C   0  0  0  0  0  0  0  0  0  0  0  0
  -29.4428  -13.9803   18.2923 C   0  0  0  0  0  0  0  0  0  0  0  0
  -24.9208  -33.7782   24.4439 C   0  0  0  0  0  0  0  0  0  0  0  0
  -28.2484  -13.2796   18.9372 C   0  0  0  0  0  0  0  0  0  0  0  0
  -29.0072  -20.4419   21.1004 C   0  0  0  0  0  0  0  0  0  0  0  0
  -27.1107  -19.5501   19.6897 C   0  0  0  0  0  0  0  0  0  0  0  0
  -30.1412  -14.9227   19.2675 C   0  0  0  0  0  0  0  0  0  0  0  0
  -29.1596  -19.0531   21.7151 C   0  0  0  0  0  0  0  0  0  0  0  0
  -27.3189  -18.1677   20.3152 C   0  0  0  0  0  0  0  0  0  0  0  0
  -28.0368  -15.2266   20.5329 C   0  0  0  0  0  0  0  0  0  0  0  0
  -26.0946  -22.2695   19.3533 C   0  0  0  0  0  0  0  0  0  0  0  0
  -25.9115  -33.7558   23.2737 C   0  0  1  0  0  0  0  0  0  0  0  0
  -24.6557  -31.2781   20.6819 C   0  0  1  0  0  0  0  0  0  0  0  0
  -27.2851  -14.3033   19.5622 C   0  0  2  0  0  0  0  0  0  0  0  0
  -27.5680  -20.6573   20.6370 C   0  0  0  0  0  0  0  0  0  0  0  0
  -26.9184  -24.2665   20.3617 C   0  0  1  0  0  0  0  0  0  1  0  0
  -27.8829  -23.1635   20.7903 C   0  0  2  0  0  0  0  0  0  0  0  0
  -25.6027  -23.5201   20.0900 C   0  0  0  0  0  0  0  0  0  0  0  0
  -29.3433  -23.5079   20.5437 C   0  0  0  0  0  0  0  0  0  0  0  0
  -24.6637  -24.3441   19.2012 C   0  0  0  0  0  0  0  0  0  0  0  0
  -24.8451  -23.1446   21.3772 C   0  0  0  0  0  0  0  0  0  0  0  0
  -17.4940  -28.4918   19.7074 C   0  0  0  0  0  0  0  0  0  0  0  0
  -21.6164  -31.1453   24.1611 C   0  0  0  0  0  0  0  0  0  0  0  0
  -19.4584  -29.9772   23.6642 C   0  0  0  0  0  0  0  0  0  0  0  0
  -19.9017  -32.2363   22.7037 C   0  0  0  0  0  0  0  0  0  0  0  0
  -20.4894  -27.9021   17.4368 C   0  0  0  0  0  0  0  0  0  0  0  0
  -21.1481  -30.2350   21.7909 C   0  0  1  0  0  0  0  0  0  0  0  0
  -18.8756  -28.7682   19.1350 C   0  0  2  0  0  0  0  0  0  0  0  0
  -20.5560  -30.8869   23.0722 C   0  0  0  0  0  0  0  0  0  0  0  0
  -26.2656  -12.4271   20.7960 N   0  0  0  0  0  0  0  0  0  0  0  0
  -26.0977  -13.6337   20.2285 N   0  0  0  0  0  0  0  0  0  0  0  0
  -23.5074  -30.4609   21.0791 N   0  0  0  0  0  0  0  0  0  0  0  0
  -29.1978  -15.8553   19.8846 N   0  0  0  0  0  0  0  0  0  0  0  0
  -28.7017  -18.0137   20.7910 N   0  0  0  0  0  0  0  0  0  0  0  0
  -24.4850  -15.3187   19.8151 N   0  0  0  0  0  0  0  0  0  0  0  0
  -22.1501  -12.1693   22.0568 N   0  0  0  0  0  0  0  0  0  0  0  0
  -25.3212  -33.1043   22.1241 N   0  0  0  0  0  0  0  0  0  0  0  0
  -20.1714  -30.0036   20.7322 N   0  0  0  0  0  0  0  0  0  0  0  0
  -27.4740  -21.9646   19.9372 N   0  3  2  0  0  0  0  0  0  0  0  0
  -19.1701  -27.7376   18.0996 N   0  3  0  0  0  0  0  0  0  0  0  0
  -22.0081  -14.2175   21.0353 O   0  0  0  0  0  0  0  0  0  0  0  0
  -25.8138  -30.9038   22.7052 O   0  0  0  0  0  0  0  0  0  0  0  0
  -21.9954  -32.2123   20.7914 O   0  0  0  0  0  0  0  0  0  0  0  0
  -20.5005  -27.7133   20.5787 O   0  0  0  0  0  0  0  0  0  0  0  0
  -30.7994  -17.5132   19.9733 O   0  0  0  0  0  0  0  0  0  0  0  0
  -24.1429   -7.3322   23.9716 O   0  0  0  0  0  0  0  0  0  0  0  0
  -26.7995  -25.2401   21.3840 O   0  0  0  0  0  0  0  0  0  1  0  0
  -19.6025   -4.4842   22.6764 F   0  0  0  0  0  0  0  0  0  0  0  0
  -21.6317   -8.4415   24.2972 F   0  0  0  0  0  0  0  0  0  0  0  0
  1  2  1  0  0  0  0
  1  5  2  0  0  0  0
  2  6  2  0  0  0  0
  3  8  2  0  0  0  0
  3 15  1  0  0  0  0
  4  9  1  0  0  0  0
  4 15  2  0  0  0  0
  5 17  1  0  0  0  0
  6 19  1  0  0  0  0
  7 10  2  0  0  0  0
  7 18  1  0  0  0  0
  8 21  1  0  0  0  0
  9 21  2  0  0  0  0
 10 22  1  0  0  0  0
 11 12  2  0  0  0  0
 11 23  1  0  0  0  0
 12 24  1  0  0  0  0
 13 20  1  0  0  0  0
 13 22  2  0  0  0  0
 14 24  2  0  0  0  0
 14 25  1  0  0  0  0
 15 26  1  0  0  0  0
 16 26  1  0  0  0  0
 16 27  2  0  0  0  0
 16 28  1  0  0  0  0
 17 19  2  0  0  0  0
 17 33  1  0  0  0  0
 18 20  2  0  0  0  0
 18 34  1  0  0  0  0
 19 47  1  0  0  0  0
 20 35  1  0  0  0  0
 21 81  1  0  0  0  0
 22 82  1  0  0  0  0
 23 25  2  0  0  0  0
 23 81  1  0  0  0  0
 24 83  1  0  0  0  0
 25 84  1  0  0  0  0
 26 65  2  0  0  0  0
 27 66  1  0  0  0  0
 27 70  1  0  0  0  0
 28 71  1  0  0  0  0
 28 76  2  0  0  0  0
 29 48  1  0  0  0  0
 29 72  1  0  0  0  0
 29 77  2  0  0  0  0
 30 62  1  0  0  0  0
 30 67  1  0  0  0  0
 30 78  2  0  0  0  0
 31 63  1  0  0  0  0
 31 73  1  0  0  0  0
 31 79  2  0  0  0  0
 32 68  1  0  0  0  0
 32 69  1  0  0  0  0
 32 80  2  0  0  0  0
 33 36  1  0  0  0  0
 34 48  1  0  0  0  0
 35 67  1  0  0  0  0
 36 38  1  0  0  0  0
 37 39  1  0  0  0  0
 37 42  1  0  0  0  0
 38 47  1  0  0  0  0
 39 49  1  0  0  0  0
 40 43  1  0  0  0  0
 40 50  1  0  0  0  0
 41 44  1  0  0  0  0
 41 50  1  0  0  0  0
 42 68  1  0  0  0  0
 43 69  1  0  0  0  0
 44 69  1  0  0  0  0
 45 49  1  0  0  0  0
 45 68  1  0  0  0  0
 46 53  1  0  0  0  0
 46 74  1  0  0  0  0
 47 72  1  0  0  0  0
 48 67  1  0  0  0  0
 49 66  1  0  0  0  0
 50 74  1  0  0  0  0
 51 52  1  0  0  0  0
 51 53  1  0  0  0  0
 51 82  1  0  0  0  0
 52 54  1  0  0  0  0
 52 74  1  0  0  0  0
 53 55  1  0  0  0  0
 53 56  1  0  0  0  0
 57 63  1  0  0  0  0
 58 64  1  0  0  0  0
 59 64  1  0  0  0  0
 60 64  1  0  0  0  0
 61 75  1  0  0  0  0
 62 64  1  0  0  0  0
 62 73  1  0  0  0  0
 63 75  1  0  0  0  0
 65 66  1  0  0  0  0
M  CHG  2  74   1  75   1
M  ISO  4  32 100  51 101  69 100  82 101
M  END
> <Batch ID>
0165

> <Smiles>
CNC(C)C(=O)NC(C(=O)N1Cc2cc([101O:1][101CH:1]3C(C)N(C4CC[100N:0]([100C:0](=O)N5CCCC(n6nc(-c7ccc(Oc8ccc(F)cc8F)cc7)c(C(N)=O)c6N)C5)CC4)CC3(C)C)ccc2CC1C(=O)NC1CCCc2ccccc21)C(C)(C)C

> <Shape>
0.323

> <Color>
0.120

> <Negative vol penalty>
0.000

$$$$

  -OEChem-04052322223D

 94105  0     1  0  0  0  0  0999 V2000
  -18.4710  -30.5165   24.2755 C   0  0  0  0  0  0  0  0  0  0  0  0
  -19.8533  -30.4639   24.1277 C   0  0  0  0  0  0  0  0  0  0  0  0
  -22.9543  -15.3932   22.4705 C   0  0  0  0  0  0  0  0  0  0  0  0
  -25.0126  -14.3517   21.7525 C   0  0  0  0  0  0  0  0  0  0  0  0
  -17.6834  -29.4518   23.8393 C   0  0  0  0  0  0  0  0  0  0  0  0
  -20.4490  -29.3460   23.5447 C   0  0  0  0  0  0  0  0  0  0  0  0
  -30.4840  -25.9858   17.2311 C   0  0  0  0  0  0  0  0  0  0  0  0
  -25.4323  -29.2656   19.9857 C   0  0  0  0  0  0  0  0  0  0  0  0
  -29.8554  -25.5774   16.0564 C   0  0  0  0  0  0  0  0  0  0  0  0
  -22.2268  -14.3488   21.8999 C   0  0  0  0  0  0  0  0  0  0  0  0
  -24.2851  -13.3072   21.1820 C   0  0  0  0  0  0  0  0  0  0  0  0
  -26.7711  -28.9829   20.2527 C   0  0  0  0  0  0  0  0  0  0  0  0
  -22.7107  -10.5068   22.2306 C   0  0  0  0  0  0  0  0  0  0  0  0
  -23.1579   -9.2059   22.4612 C   0  0  0  0  0  0  0  0  0  0  0  0
  -30.8512  -23.5556   22.6305 C   0  0  0  0  0  0  0  0  0  0  0  0
  -29.6464  -23.3777   16.9821 C   0  0  0  0  0  0  0  0  0  0  0  0
  -26.4317  -26.7107   19.5171 C   0  0  0  0  0  0  0  0  0  0  0  0
  -23.4358   -8.8800   20.0834 C   0  0  0  0  0  0  0  0  0  0  0  0
  -24.3472  -15.3947   22.3967 C   0  0  0  0  0  0  0  0  0  0  0  0
  -25.5949  -16.5456   24.3010 C   0  0  0  0  0  0  0  0  0  0  0  0
  -18.2690  -28.3246   23.2418 C   0  0  0  0  0  0  0  0  0  0  0  0
  -24.5790  -28.2684   19.4918 C   0  0  0  0  0  0  0  0  0  0  0  0
  -30.7080  -25.1048   18.3212 C   0  0  0  0  0  0  0  0  0  0  0  0
  -19.6687  -28.2647   23.1013 C   0  0  0  0  0  0  0  0  0  0  0  0
  -31.1414  -23.9066   21.2993 C   0  0  0  0  0  0  0  0  0  0  0  0
  -30.2858  -23.7664   18.1877 C   0  0  0  0  0  0  0  0  0  0  0  0
  -25.0830  -26.9840   19.2422 C   0  0  0  0  0  0  0  0  0  0  0  0
  -31.0746  -25.2510   20.9042 C   0  0  0  0  0  0  0  0  0  0  0  0
  -30.4214  -25.8559   23.1825 C   0  0  0  0  0  0  0  0  0  0  0  0
  -29.4337  -24.2666   15.9315 C   0  0  0  0  0  0  0  0  0  0  0  0
  -30.4936  -24.5238   23.5657 C   0  0  0  0  0  0  0  0  0  0  0  0
  -30.7123  -26.2155   21.8665 C   0  0  0  0  0  0  0  0  0  0  0  0
  -22.8922  -13.3058   21.2557 C   0  0  0  0  0  0  0  0  0  0  0  0
  -27.2703  -27.7045   20.0211 C   0  0  0  0  0  0  0  0  0  0  0  0
  -22.6260  -10.9943   20.9264 C   0  0  0  0  0  0  0  0  0  0  0  0
  -23.5205   -8.3925   21.3876 C   0  0  0  0  0  0  0  0  0  0  0  0
  -22.9886  -10.1809   19.8528 C   0  0  0  0  0  0  0  0  0  0  0  0
  -25.0993  -16.4736   22.9853 C   0  0  0  0  0  0  0  0  0  0  0  0
  -26.2320  -17.7608   24.3619 C   0  0  0  0  0  0  0  0  0  0  0  0
  -25.4889  -15.5986   25.3723 C   0  0  0  0  0  0  0  0  0  0  0  0
  -21.9352  -26.8539   20.5468 C   0  0  0  0  0  0  0  0  0  0  0  0
  -21.9711  -25.4708   17.6129 C   0  0  0  0  0  0  0  0  0  0  0  0
  -23.7824  -24.5112   14.8843 C   0  0  0  0  0  0  0  0  0  0  0  0
  -28.7428  -21.0990   20.1896 C   0  0  0  0  0  0  0  0  0  0  0  0
  -17.3805  -27.1779   22.8289 C   0  0  0  0  0  0  0  0  0  0  0  0
  -23.1438  -28.5966   19.1837 C   0  0  0  0  0  0  0  0  0  0  0  0
  -31.4726  -22.8210   20.3139 C   0  0  0  0  0  0  0  0  0  0  0  0
  -24.2133  -25.8836   18.6935 C   0  0  0  0  0  0  0  0  0  0  0  0
  -18.0590  -26.1924   21.8810 C   0  0  0  0  0  0  0  0  0  0  0  0
  -26.1197  -22.1479   22.4517 C   0  0  0  0  0  0  0  0  0  0  0  0
  -30.9577  -28.0637   24.4121 C   0  0  0  0  0  0  0  0  0  0  0  0
  -30.8271  -27.0046   25.4616 C   0  0  0  0  0  0  0  0  0  0  0  0
  -19.4533  -25.8377   22.3880 C   0  0  0  0  0  0  0  0  0  0  0  0
  -25.6091  -20.8022   22.9700 C   0  0  0  0  0  0  0  0  0  0  0  0
  -26.4971  -22.0644   20.9756 C   0  0  0  0  0  0  0  0  0  0  0  0
  -26.9823  -19.6560   21.1700 C   0  0  0  0  0  0  0  0  0  0  0  0
  -31.4396  -25.7243   19.5085 C   0  0  1  0  0  0  0  0  0  0  0  0
  -30.0367  -26.8968   24.1871 C   0  0  0  0  0  0  0  0  0  0  0  0
  -20.3499  -27.0801   22.4512 C   0  0  1  0  0  0  0  0  0  0  0  0
  -30.4080  -22.6667   19.2272 C   0  0  1  0  0  0  0  0  0  0  0  0
  -22.2399  -27.3677   19.1682 C   0  0  1  0  0  0  0  0  0  0  0  0
  -26.6054  -19.6687   22.6626 C   0  0  2  0  0  0  0  0  0  0  0  0
  -28.7587  -23.8083   14.6844 C   0  0  0  0  0  0  0  0  0  0  0  0
  -30.1911  -24.0998   24.9654 C   0  0  0  0  0  0  0  0  0  0  0  0
  -32.9623  -25.7266   19.2874 C   0  0  0  0  0  0  0  0  0  0  0  0
  -23.5420  -23.3704   12.6621 C   0  0  0  0  0  0  0  0  0  0  0  0
  -21.7905  -22.7702   19.0215 C   0  0  0  0  0  0  0  0  0  0  0  0
  -22.5035  -21.6845   16.8812 C   0  0  0  0  0  0  0  0  0  0  0  0
  -20.3708  -22.9753   16.9729 C   0  0  0  0  0  0  0  0  0  0  0  0
  -24.6991  -26.9147   13.4207 C   0  0  0  0  0  0  0  0  0  0  0  0
  -30.6374  -27.6764   21.5262 C   0  0  0  0  0  0  0  0  0  0  0  0
  -29.2018  -28.1612   21.3314 C   0  0  0  0  0  0  0  0  0  1  0  0
  -22.5734  -24.2151   17.0302 C   0  0  1  0  0  0  0  0  0  0  0  0
  -23.5415  -24.7015   13.3976 C   0  0  2  0  0  0  0  0  0  0  0  0
  -21.8257  -22.9313   17.4886 C   0  0  0  0  0  0  0  0  0  0  0  0
  -25.3960  -17.5569   22.2626 N   0  0  0  0  0  0  0  0  0  0  0  0
  -26.0848  -18.3212   23.1272 N   0  0  0  0  0  0  0  0  0  0  0  0
  -22.8156  -26.2522   18.4143 N   0  0  0  0  0  0  0  0  0  0  0  0
  -27.4619  -20.9781   20.7537 N   0  0  0  0  0  0  0  0  0  0  0  0
  -26.8982  -18.3941   25.3506 N   0  0  0  0  0  0  0  0  0  0  0  0
  -24.8003  -14.4003   25.1391 N   0  0  0  0  0  0  0  0  0  0  0  0
  -20.8223  -27.4303   21.1289 N   0  0  0  0  0  0  0  0  0  0  0  0
  -22.5990  -24.4076   15.5843 N   0  0  0  0  0  0  0  0  0  0  0  0
  -29.1179  -22.3836   19.8158 N   0  0  0  0  0  0  0  0  0  0  0  0
  -24.6029  -25.5651   12.8072 N   0  3  0  0  0  0  0  0  0  0  0  0
  -25.9758  -15.8159   26.5077 O   0  0  0  0  0  0  0  0  0  0  0  0
  -22.6554  -25.9967   21.0451 O   0  0  0  0  0  0  0  0  0  0  0  0
  -20.7969  -25.7518   17.3603 O   0  0  0  0  0  0  0  0  0  0  0  0
  -24.9079  -24.4560   15.3750 O   0  0  0  0  0  0  0  0  0  0  0  0
  -29.4989  -20.1338   20.0353 O   0  0  0  0  0  0  0  0  0  0  0  0
  -22.1826  -12.2864   20.6991 O   0  0  0  0  0  0  0  0  0  0  0  0
  -28.5858  -27.4237   20.2833 O   0  0  0  0  0  0  0  0  0  1  0  0
  -23.9514   -7.1437   21.6093 F   0  0  0  0  0  0  0  0  0  0  0  0
  -22.9105  -10.6441   18.5978 F   0  0  0  0  0  0  0  0  0  0  0  0
  1  2  1  0  0  0  0
  1  5  2  0  0  0  0
  2  6  2  0  0  0  0
  3 10  2  0  0  0  0
  3 19  1  0  0  0  0
  4 11  1  0  0  0  0
  4 19  2  0  0  0  0
  5 21  1  0  0  0  0
  6 24  1  0  0  0  0
  7  9  2  0  0  0  0
  7 23  1  0  0  0  0
  8 12  2  0  0  0  0
  8 22  1  0  0  0  0
  9 30  1  0  0  0  0
 10 33  1  0  0  0  0
 11 33  2  0  0  0  0
 12 34  1  0  0  0  0
 13 14  2  0  0  0  0
 13 35  1  0  0  0  0
 14 36  1  0  0  0  0
 15 25  2  0  0  0  0
 15 31  1  0  0  0  0
 16 26  1  0  0  0  0
 16 30  2  0  0  0  0
 17 27  1  0  0  0  0
 17 34  2  0  0  0  0
 18 36  2  0  0  0  0
 18 37  1  0  0  0  0
 19 38  1  0  0  0  0
 20 38  1  0  0  0  0
 20 39  2  0  0  0  0
 20 40  1  0  0  0  0
 21 24  2  0  0  0  0
 21 45  1  0  0  0  0
 22 27  2  0  0  0  0
 22 46  1  0  0  0  0
 23 26  2  0  0  0  0
 23 57  1  0  0  0  0
 24 59  1  0  0  0  0
 25 28  1  0  0  0  0
 25 47  1  0  0  0  0
 26 60  1  0  0  0  0
 27 48  1  0  0  0  0
 28 32  2  0  0  0  0
 28 57  1  0  0  0  0
 29 31  2  0  0  0  0
 29 32  1  0  0  0  0
 29 58  1  0  0  0  0
 30 63  1  0  0  0  0
 31 64  1  0  0  0  0
 32 71  1  0  0  0  0
 33 91  1  0  0  0  0
 34 92  1  0  0  0  0
 35 37  2  0  0  0  0
 35 91  1  0  0  0  0
 36 93  1  0  0  0  0
 37 94  1  0  0  0  0
 38 76  2  0  0  0  0
 39 77  1  0  0  0  0
 39 80  1  0  0  0  0
 40 81  1  0  0  0  0
 40 86  2  0  0  0  0
 41 61  1  0  0  0  0
 41 82  1  0  0  0  0
 41 87  2  0  0  0  0
 42 73  1  0  0  0  0
 42 78  1  0  0  0  0
 42 88  2  0  0  0  0
 43 74  1  0  0  0  0
 43 83  1  0  0  0  0
 43 89  2  0  0  0  0
 44 79  1  0  0  0  0
 44 84  1  0  0  0  0
 44 90  2  0  0  0  0
 45 49  1  0  0  0  0
 46 61  1  0  0  0  0
 47 60  1  0  0  0  0
 48 78  1  0  0  0  0
 49 53  1  0  0  0  0
 50 54  1  0  0  0  0
 50 55  1  0  0  0  0
 51 52  1  0  0  0  0
 51 58  1  0  0  0  0
 52 58  1  0  0  0  0
 53 59  1  0  0  0  0
 54 62  1  0  0  0  0
 55 79  1  0  0  0  0
 56 62  1  0  0  0  0
 56 79  1  0  0  0  0
 57 65  1  0  0  0  0
 59 82  1  0  0  0  0
 60 84  1  0  0  0  0
 61 78  1  0  0  0  0
 62 77  1  0  0  0  0
 66 74  1  0  0  0  0
 67 75  1  0  0  0  0
 68 75  1  0  0  0  0
 69 75  1  0  0  0  0
 70 85  1  0  0  0  0
 71 72  1  0  0  0  0
 72 92  1  0  0  0  0
 73 75  1  0  0  0  0
 73 83  1  0  0  0  0
 74 85  1  0  0  0  0
 76 77  1  0  0  0  0
M  CHG  1  85   1
M  ISO  4  44 100  72 101  84 100  92 101
M  END
> <Batch ID>
0165

> <Smiles>
CNC(C)C(=O)NC(C(=O)N1Cc2cc([101O:1][101CH2:1]Cc3c(C4CC4)c(C)cc4c3C(C)c3ccc(C)cc3C([100NH:0][100C:0](=O)N3CCCC(n5nc(-c6ccc(Oc7ccc(F)cc7F)cc6)c(C(N)=O)c5N)C3)C4)ccc2CC1C(=O)NC1CCCc2ccccc21)C(C)(C)C

> <Shape>
0.240

> <Color>
0.075

> <Negative vol penalty>
0.000

$$$$

  -OEChem-04052322223D

 88 98  0     1  0  0  0  0  0999 V2000
  -21.7893  -18.1952   29.5335 C   0  0  0  0  0  0  0  0  0  0  0  0
  -21.7702  -19.5832   29.6248 C   0  0  0  0  0  0  0  0  0  0  0  0
  -30.8656  -17.8762   21.5030 C   0  0  0  0  0  0  0  0  0  0  0  0
  -29.3014  -17.6043   19.6819 C   0  0  0  0  0  0  0  0  0  0  0  0
  -22.3132  -17.5796   28.3975 C   0  0  0  0  0  0  0  0  0  0  0  0
  -22.2761  -20.3566   28.5806 C   0  0  0  0  0  0  0  0  0  0  0  0
  -21.2454  -26.6239   25.2679 C   0  0  0  0  0  0  0  0  0  0  0  0
  -31.3603  -16.5931   21.2697 C   0  0  0  0  0  0  0  0  0  0  0  0
  -29.7961  -16.3211   19.4486 C   0  0  0  0  0  0  0  0  0  0  0  0
  -21.9467  -27.7639   24.8774 C   0  0  0  0  0  0  0  0  0  0  0  0
  -29.4572  -13.2377   20.7933 C   0  0  0  0  0  0  0  0  0  0  0  0
  -28.5325  -12.2148   20.5834 C   0  0  0  0  0  0  0  0  0  0  0  0
  -26.5236  -30.0909   23.3463 C   0  0  0  0  0  0  0  0  0  0  0  0
  -22.7545  -26.5925   22.9295 C   0  0  0  0  0  0  0  0  0  0  0  0
  -28.1765  -30.8699   24.9524 C   0  0  0  0  0  0  0  0  0  0  0  0
  -29.4739  -11.8130   18.3949 C   0  0  0  0  0  0  0  0  0  0  0  0
  -29.8360  -18.3818   20.7092 C   0  0  0  0  0  0  0  0  0  0  0  0
  -28.7297  -20.1867   22.1325 C   0  0  0  0  0  0  0  0  0  0  0  0
  -22.8169  -18.3459   27.3346 C   0  0  0  0  0  0  0  0  0  0  0  0
  -21.3023  -25.4543   24.4964 C   0  0  0  0  0  0  0  0  0  0  0  0
  -22.8085  -19.7507   27.4299 C   0  0  0  0  0  0  0  0  0  0  0  0
  -25.5963  -30.9426   23.9292 C   0  0  0  0  0  0  0  0  0  0  0  0
  -22.0510  -25.4398   23.3109 C   0  0  0  0  0  0  0  0  0  0  0  0
  -25.9575  -31.7516   25.0165 C   0  0  0  0  0  0  0  0  0  0  0  0
  -27.2392  -31.7194   25.5419 C   0  0  0  0  0  0  0  0  0  0  0  0
  -27.8213  -30.0615   23.8624 C   0  0  0  0  0  0  0  0  0  0  0  0
  -30.8256  -15.8156   20.2425 C   0  0  0  0  0  0  0  0  0  0  0  0
  -22.7036  -27.7475   23.7096 C   0  0  0  0  0  0  0  0  0  0  0  0
  -30.3903  -13.5483   19.8041 C   0  0  0  0  0  0  0  0  0  0  0  0
  -28.5408  -11.5024   19.3842 C   0  0  0  0  0  0  0  0  0  0  0  0
  -30.3987  -12.8359   18.6049 C   0  0  0  0  0  0  0  0  0  0  0  0
  -29.3242  -19.7070   20.9500 C   0  0  0  0  0  0  0  0  0  0  0  0
  -28.4176  -21.4949   21.8536 C   0  0  0  0  0  0  0  0  0  0  0  0
  -28.4820  -19.5104   23.3722 C   0  0  0  0  0  0  0  0  0  0  0  0
  -22.3276  -22.4869   24.9937 C   0  0  0  0  0  0  0  0  0  0  0  0
  -21.0461  -21.9683   22.0593 C   0  0  0  0  0  0  0  0  0  0  0  0
  -20.0815  -23.2571   19.0501 C   0  0  0  0  0  0  0  0  0  0  0  0
  -29.7597  -26.4662   19.7017 C   0  0  0  0  0  0  0  0  0  0  0  0
  -23.4164  -17.6349   26.1473 C   0  0  0  0  0  0  0  0  0  0  0  0
  -20.5187  -24.2413   24.9173 C   0  0  0  0  0  0  0  0  0  0  0  0
  -24.7926  -32.5520   25.5064 C   0  0  0  0  0  0  0  0  0  0  0  0
  -22.1285  -24.2158   22.4368 C   0  0  0  0  0  0  0  0  0  0  0  0
  -23.5901  -18.5318   24.9242 C   0  0  0  0  0  0  0  0  0  0  0  0
  -23.8577  -32.4868   24.2892 C   0  0  0  0  0  0  0  0  0  0  0  0
  -28.4410  -24.0231   17.4725 C   0  0  0  0  0  0  0  0  0  0  0  0
  -24.2208  -19.8621   25.3231 C   0  0  0  0  0  0  0  0  0  0  0  0
  -28.5101  -22.7218   18.2736 C   0  0  0  0  0  0  0  0  0  0  0  0
  -30.6821  -27.8837   23.0393 C   0  0  0  0  0  0  0  0  0  0  0  0
  -29.6356  -24.9289   17.7632 C   0  0  0  0  0  0  0  0  0  0  0  0
  -30.1438  -29.1186   23.7615 C   0  0  0  0  0  0  0  0  0  0  0  0
  -29.9272  -23.9198   19.9927 C   0  0  0  0  0  0  0  0  0  0  0  0
  -28.4919  -28.3203   22.1829 C   0  0  0  0  0  0  0  0  0  0  0  0
  -23.3253  -20.6242   26.3074 C   0  0  1  0  0  0  0  0  0  0  0  0
  -21.0618  -22.9442   24.3257 C   0  0  1  0  0  0  0  0  0  0  0  0
  -28.7151  -22.9979   19.7753 C   0  0  2  0  0  0  0  0  0  0  0  0
  -29.8868  -27.8749   21.7409 C   0  0  2  0  0  0  0  0  0  0  0  0
  -24.1399  -31.1373   23.5755 C   0  0  1  0  0  0  0  0  0  0  0  0
  -27.6234  -32.5612   26.7088 C   0  0  0  0  0  0  0  0  0  0  0  0
  -23.8894  -31.2546   22.0698 C   0  0  0  0  0  0  0  0  0  0  0  0
  -19.1045  -22.5812   16.8397 C   0  0  0  0  0  0  0  0  0  0  0  0
  -23.7430  -20.8109   21.2239 C   0  0  0  0  0  0  0  0  0  0  0  0
  -23.0238  -21.0410   18.8369 C   0  0  0  0  0  0  0  0  0  0  0  0
  -21.7580  -19.5449   20.3803 C   0  0  0  0  0  0  0  0  0  0  0  0
  -17.7109  -24.9859   19.4380 C   0  0  0  0  0  0  0  0  0  0  0  0
  -23.2890  -30.0064   24.1685 C   0  0  0  0  0  0  0  0  0  1  0  0
  -21.5552  -22.0515   20.6405 C   0  0  1  0  0  0  0  0  0  0  0  0
  -18.8072  -23.0862   18.2430 C   0  0  2  0  0  0  0  0  0  0  0  0
  -22.5203  -20.8847   20.2877 C   0  0  0  0  0  0  0  0  0  0  0  0
  -29.3869  -20.6348   19.9913 N   0  0  0  0  0  0  0  0  0  0  0  0
  -28.8277  -21.7106   20.5709 N   0  0  0  0  0  0  0  0  0  0  0  0
  -28.7616  -29.2255   23.2988 N   0  0  3  0  0  0  0  0  0  0  0  0
  -21.3498  -23.0530   22.8941 N   0  0  0  0  0  0  0  0  0  0  0  0
  -29.7734  -25.1526   19.2044 N   0  0  0  0  0  0  0  0  0  0  0  0
  -27.8350  -22.4701   22.5829 N   0  0  0  0  0  0  0  0  0  0  0  0
  -27.2605  -18.8432   23.5368 N   0  0  0  0  0  0  0  0  0  0  0  0
  -22.2257  -21.2530   25.6075 N   0  0  0  0  0  0  0  0  0  0  0  0
  -20.3744  -22.1292   19.7871 N   0  0  0  0  0  0  0  0  0  0  0  0
  -29.8894  -26.5890   21.0797 N   0  0  0  0  0  0  0  0  0  0  0  0
  -18.0862  -24.3857   18.1319 N   0  3  0  0  0  0  0  0  0  0  0  0
  -29.3122  -19.5120   24.3126 O   0  0  0  0  0  0  0  0  0  0  0  0
  -23.3234  -23.2000   24.9540 O   0  0  0  0  0  0  0  0  0  0  0  0
  -20.3967  -20.9805   22.4117 O   0  0  0  0  0  0  0  0  0  0  0  0
  -20.7521  -24.2868   19.0261 O   0  0  0  0  0  0  0  0  0  0  0  0
  -29.6353  -27.4559   18.9724 O   0  0  0  0  0  0  0  0  0  0  0  0
  -31.3083  -14.5636   20.0144 O   0  0  0  0  0  0  0  0  0  0  0  0
  -23.3896  -28.8586   23.3265 O   0  0  0  0  0  0  0  0  0  1  0  0
  -27.6537  -10.5192   19.1833 F   0  0  0  0  0  0  0  0  0  0  0  0
  -31.2934  -13.1289   17.6513 F   0  0  0  0  0  0  0  0  0  0  0  0
  1  2  1  0  0  0  0
  1  5  2  0  0  0  0
  2  6  2  0  0  0  0
  3  8  2  0  0  0  0
  3 17  1  0  0  0  0
  4  9  1  0  0  0  0
  4 17  2  0  0  0  0
  5 19  1  0  0  0  0
  6 21  1  0  0  0  0
  7 10  2  0  0  0  0
  7 20  1  0  0  0  0
  8 27  1  0  0  0  0
  9 27  2  0  0  0  0
 10 28  1  0  0  0  0
 11 12  2  0  0  0  0
 11 29  1  0  0  0  0
 12 30  1  0  0  0  0
 13 22  1  0  0  0  0
 13 26  2  0  0  0  0
 14 23  1  0  0  0  0
 14 28  2  0  0  0  0
 15 25  2  0  0  0  0
 15 26  1  0  0  0  0
 16 30  2  0  0  0  0
 16 31  1  0  0  0  0
 17 32  1  0  0  0  0
 18 32  1  0  0  0  0
 18 33  2  0  0  0  0
 18 34  1  0  0  0  0
 19 21  2  0  0  0  0
 19 39  1  0  0  0  0
 20 23  2  0  0  0  0
 20 40  1  0  0  0  0
 21 53  1  0  0  0  0
 22 24  2  0  0  0  0
 22 57  1  0  0  0  0
 23 42  1  0  0  0  0
 24 25  1  0  0  0  0
 24 41  1  0  0  0  0
 25 58  1  0  0  0  0
 26 71  1  0  0  0  0
 27 85  1  0  0  0  0
 28 86  1  0  0  0  0
 29 31  2  0  0  0  0
 29 85  1  0  0  0  0
 30 87  1  0  0  0  0
 31 88  1  0  0  0  0
 32 69  2  0  0  0  0
 33 70  1  0  0  0  0
 33 74  1  0  0  0  0
 34 75  1  0  0  0  0
 34 80  2  0  0  0  0
 35 54  1  0  0  0  0
 35 76  1  0  0  0  0
 35 81  2  0  0  0  0
 36 66  1  0  0  0  0
 36 72  1  0  0  0  0
 36 82  2  0  0  0  0
 37 67  1  0  0  0  0
 37 77  1  0  0  0  0
 37 83  2  0  0  0  0
 38 73  1  0  0  0  0
 38 78  1  0  0  0  0
 38 84  2  0  0  0  0
 39 43  1  0  0  0  0
 40 54  1  0  0  0  0
 41 44  1  0  0  0  0
 42 72  1  0  0  0  0
 43 46  1  0  0  0  0
 44 57  1  0  0  0  0
 45 47  1  0  0  0  0
 45 49  1  0  0  0  0
 46 53  1  0  0  0  0
 47 55  1  0  0  0  0
 48 50  1  0  0  0  0
 48 56  1  0  0  0  0
 49 73  1  0  0  0  0
 50 71  1  0  0  0  0
 51 55  1  0  0  0  0
 51 73  1  0  0  0  0
 52 56  1  0  0  0  0
 52 71  1  0  0  0  0
 53 76  1  0  0  0  0
 54 72  1  0  0  0  0
 55 70  1  0  0  0  0
 56 78  1  0  0  0  0
 57 59  1  0  0  0  0
 57 65  1  0  0  0  0
 60 67  1  0  0  0  0
 61 68  1  0  0  0  0
 62 68  1  0  0  0  0
 63 68  1  0  0  0  0
 64 79  1  0  0  0  0
 65 86  1  0  0  0  0
 66 68  1  0  0  0  0
 66 77  1  0  0  0  0
 67 79  1  0  0  0  0
 69 70  1  0  0  0  0
M  CHG  1  79   1
M  ISO  4  38 100  65 101  78 100  86 101
M  END
> <Batch ID>
0165

> <Smiles>
CNC(C)C(=O)NC(C(=O)N1Cc2cc([101O:1][101CH2:1]C3(C)CCc4c(C)cc(N5CCC([100NH:0][100C:0](=O)N6CCCC(n7nc(-c8ccc(Oc9ccc(F)cc9F)cc8)c(C(N)=O)c7N)C6)C5)cc43)ccc2CC1C(=O)NC1CCCc2ccccc21)C(C)(C)C

> <Shape>
0.228

> <Color>
0.068

> <Negative vol penalty>
0.000

$$$$

  -OEChem-04052322223D

 94104  0     1  0  0  0  0  0999 V2000
  -31.8457  -24.3165    7.4158 C   0  0  0  0  0  0  0  0  0  0  0  0
  -31.5565  -23.9507    8.7266 C   0  0  0  0  0  0  0  0  0  0  0  0
  -22.6680  -10.1977   20.1633 C   0  0  0  0  0  0  0  0  0  0  0  0
  -24.3214   -9.4098   21.7389 C   0  0  0  0  0  0  0  0  0  0  0  0
  -31.5780  -25.6136    6.9801 C   0  0  0  0  0  0  0  0  0  0  0  0
  -31.0006  -24.8822    9.6027 C   0  0  0  0  0  0  0  0  0  0  0  0
  -26.9495  -23.7813   14.0617 C   0  0  0  0  0  0  0  0  0  0  0  0
  -21.9326   -9.0272   20.3496 C   0  0  0  0  0  0  0  0  0  0  0  0
  -23.5860   -8.2393   21.9253 C   0  0  0  0  0  0  0  0  0  0  0  0
  -27.0938  -23.6024   15.4369 C   0  0  0  0  0  0  0  0  0  0  0  0
  -20.8394   -7.2717   23.6401 C   0  0  0  0  0  0  0  0  0  0  0  0
  -20.6556   -6.8251   24.9486 C   0  0  0  0  0  0  0  0  0  0  0  0
  -33.4136  -18.4225   21.1449 C   0  0  0  0  0  0  0  0  0  0  0  0
  -26.5739  -25.9316   15.7884 C   0  0  0  0  0  0  0  0  0  0  0  0
  -33.6327  -18.7866   18.3877 C   0  0  0  0  0  0  0  0  0  0  0  0
  -21.7766   -4.7564   24.4000 C   0  0  0  0  0  0  0  0  0  0  0  0
  -23.8624  -10.3890   20.8579 C   0  0  0  0  0  0  0  0  0  0  0  0
  -24.1983  -12.9172   20.9108 C   0  0  0  0  0  0  0  0  0  0  0  0
  -31.0096  -26.5587    7.8486 C   0  0  0  0  0  0  0  0  0  0  0  0
  -26.6265  -25.0414   13.5379 C   0  0  0  0  0  0  0  0  0  0  0  0
  -30.7263  -26.1936    9.1786 C   0  0  0  0  0  0  0  0  0  0  0  0
  -32.2862  -18.2975   20.3332 C   0  0  0  0  0  0  0  0  0  0  0  0
  -26.4236  -26.1233   14.4064 C   0  0  0  0  0  0  0  0  0  0  0  0
  -34.6506  -18.7297   20.5781 C   0  0  0  0  0  0  0  0  0  0  0  0
  -32.3958  -18.4795   18.9546 C   0  0  0  0  0  0  0  0  0  0  0  0
  -34.7601  -18.9117   19.1995 C   0  0  0  0  0  0  0  0  0  0  0  0
  -22.3916   -8.0480   21.2306 C   0  0  0  0  0  0  0  0  0  0  0  0
  -26.9088  -24.6783   16.3002 C   0  0  0  0  0  0  0  0  0  0  0  0
  -21.4917   -6.4606   22.7115 C   0  0  0  0  0  0  0  0  0  0  0  0
  -21.1242   -5.5674   25.3286 C   0  0  0  0  0  0  0  0  0  0  0  0
  -21.9603   -5.2030   23.0914 C   0  0  0  0  0  0  0  0  0  0  0  0
  -24.6228  -11.5976   20.6654 C   0  0  0  0  0  0  0  0  0  0  0  0
  -25.2791  -13.6942   20.5722 C   0  0  0  0  0  0  0  0  0  0  0  0
  -22.9395  -13.3977   21.4009 C   0  0  0  0  0  0  0  0  0  0  0  0
  -28.0609  -27.0897   11.5756 C   0  0  0  0  0  0  0  0  0  0  0  0
  -25.2538  -28.6954   11.8287 C   0  0  0  0  0  0  0  0  0  0  0  0
  -22.4297  -29.3259   13.6380 C   0  0  0  0  0  0  0  0  0  0  0  0
  -30.7572  -14.7250   20.6645 C   0  0  0  0  0  0  0  0  0  0  0  0
  -30.7820  -27.9622    7.3457 C   0  0  0  0  0  0  0  0  0  0  0  0
  -26.4483  -25.2118   12.0542 C   0  0  0  0  0  0  0  0  0  0  0  0
  -26.0558  -27.4918   13.8960 C   0  0  0  0  0  0  0  0  0  0  0  0
  -29.8453  -28.7817    8.2297 C   0  0  0  0  0  0  0  0  0  0  0  0
  -29.5657  -12.5030   18.1636 C   0  0  0  0  0  0  0  0  0  0  0  0
  -30.2271  -28.6279    9.6985 C   0  0  0  0  0  0  0  0  0  0  0  0
  -30.0325  -23.1548   19.4848 C   0  0  0  0  0  0  0  0  0  0  0  0
  -28.1872  -21.4255   19.4891 C   0  0  0  0  0  0  0  0  0  0  0  0
  -28.1401  -12.1758   18.6113 C   0  0  0  0  0  0  0  0  0  0  0  0
  -29.0675  -24.1777   18.8930 C   0  0  0  0  0  0  0  0  0  0  0  0
  -27.2274  -22.4530   18.8966 C   0  0  0  0  0  0  0  0  0  0  0  0
  -30.5133  -12.6399   19.3533 C   0  0  0  0  0  0  0  0  0  0  0  0
  -28.6496  -13.2636   20.8379 C   0  0  0  0  0  0  0  0  0  0  0  0
  -29.9918  -17.7999   22.8391 C   0  0  0  0  0  0  0  0  0  0  0  0
  -30.0999  -27.1685   10.1518 C   0  0  1  0  0  0  0  0  0  0  0  0
  -30.9378  -17.9585   20.9759 C   0  0  1  0  0  0  0  0  0  0  0  0
  -26.6225  -26.6556   11.5933 C   0  0  1  0  0  0  0  0  0  0  0  0
  -29.2941  -22.0956   20.3149 C   0  0  0  0  0  0  0  0  0  0  0  0
  -27.6441  -13.1716   19.6772 C   0  0  2  0  0  0  0  0  0  0  0  0
  -30.8740  -16.8273   22.0338 C   0  0  2  0  0  0  0  0  0  0  0  0
  -27.9665  -23.5075   18.0755 C   0  0  0  0  0  0  0  0  0  1  0  0
  -35.8434  -18.8595   21.4672 C   0  0  0  0  0  0  0  0  0  0  0  0
  -31.2010  -18.3489   18.0684 C   0  0  0  0  0  0  0  0  0  0  0  0
  -36.0735  -19.2421   18.5700 C   0  0  0  0  0  0  0  0  0  0  0  0
  -20.3391  -30.7136   13.6069 C   0  0  0  0  0  0  0  0  0  0  0  0
  -31.3860  -21.7485   21.6462 C   0  0  0  0  0  0  0  0  0  0  0  0
  -28.9038  -20.4076   22.9282 C   0  0  0  0  0  0  0  0  0  0  0  0
  -26.8756  -31.1522   12.6312 C   0  0  0  0  0  0  0  0  0  0  0  0
  -24.7608  -32.1819   13.4888 C   0  0  0  0  0  0  0  0  0  0  0  0
  -24.9795  -31.6186   11.0686 C   0  0  0  0  0  0  0  0  0  0  0  0
  -20.6980  -26.9258   13.6215 C   0  0  0  0  0  0  0  0  0  0  0  0
  -24.7081  -29.7550   12.7553 C   0  0  1  0  0  0  0  0  0  0  0  0
  -20.9668  -29.3790   13.2360 C   0  0  2  0  0  0  0  0  0  0  0  0
  -30.2726  -21.0527   20.8518 C   0  0  1  0  0  0  0  0  0  0  0  0
  -29.6141  -19.9179   21.6711 C   0  0  1  0  0  0  0  0  0  0  0  0
  -25.3398  -31.1517   12.4958 C   0  0  0  0  0  0  0  0  0  0  0  0
  -25.8756  -11.5360   20.2063 N   0  0  0  0  0  0  0  0  0  0  0  0
  -26.2475  -12.8266   20.1604 N   0  0  0  0  0  0  0  0  0  0  0  0
  -25.8992  -27.6093   12.4368 N   0  0  0  0  0  0  0  0  0  0  0  0
  -29.9854  -13.6034   20.3226 N   0  0  0  0  0  0  0  0  0  0  0  0
  -25.4861  -15.0281   20.5896 N   0  0  0  0  0  0  0  0  0  0  0  0
  -22.7724  -13.5417   22.7850 N   0  0  0  0  0  0  0  0  0  0  0  0
  -28.7120  -26.8308   10.3846 N   0  0  0  0  0  0  0  0  0  0  0  0
  -23.2572  -29.7186   12.6073 N   0  0  0  0  0  0  0  0  0  0  0  0
  -30.1867  -15.5994   21.5836 N   0  0  0  0  0  0  0  0  0  0  0  0
  -30.6204  -18.8986   22.0825 N   0  3  1  0  0  0  0  0  0  0  0  0
  -20.2030  -28.2952   13.9163 N   0  3  0  0  0  0  0  0  0  0  0  0
  -21.9854  -13.6751   20.6352 O   0  0  0  0  0  0  0  0  0  0  0  0
  -28.5439  -27.6215   12.5684 O   0  0  0  0  0  0  0  0  0  0  0  0
  -25.1065  -28.8231   10.6107 O   0  0  0  0  0  0  0  0  0  0  0  0
  -22.8010  -28.9749   14.7558 O   0  0  0  0  0  0  0  0  0  0  0  0
  -31.8741  -14.9428   20.1824 O   0  0  0  0  0  0  0  0  0  0  0  0
  -21.6741   -6.9058   21.4129 O   0  0  0  0  0  0  0  0  0  0  0  0
  -27.0496  -24.5065   17.6428 O   0  0  0  0  0  0  0  0  0  1  0  0
  -20.9490   -5.1393   26.5857 F   0  0  0  0  0  0  0  0  0  0  0  0
  -22.5888   -4.4198   22.2040 F   0  0  0  0  0  0  0  0  0  0  0  0
  1  2  1  0  0  0  0
  1  5  2  0  0  0  0
  2  6  2  0  0  0  0
  3  8  2  0  0  0  0
  3 17  1  0  0  0  0
  4  9  1  0  0  0  0
  4 17  2  0  0  0  0
  5 19  1  0  0  0  0
  6 21  1  0  0  0  0
  7 10  2  0  0  0  0
  7 20  1  0  0  0  0
  8 27  1  0  0  0  0
  9 27  2  0  0  0  0
 10 28  1  0  0  0  0
 11 12  2  0  0  0  0
 11 29  1  0  0  0  0
 12 30  1  0  0  0  0
 13 22  1  0  0  0  0
 13 24  2  0  0  0  0
 14 23  1  0  0  0  0
 14 28  2  0  0  0  0
 15 25  1  0  0  0  0
 15 26  2  0  0  0  0
 16 30  2  0  0  0  0
 16 31  1  0  0  0  0
 17 32  1  0  0  0  0
 18 32  1  0  0  0  0
 18 33  2  0  0  0  0
 18 34  1  0  0  0  0
 19 21  2  0  0  0  0
 19 39  1  0  0  0  0
 20 23  2  0  0  0  0
 20 40  1  0  0  0  0
 21 53  1  0  0  0  0
 22 25  2  0  0  0  0
 22 54  1  0  0  0  0
 23 41  1  0  0  0  0
 24 26  1  0  0  0  0
 24 60  1  0  0  0  0
 25 61  1  0  0  0  0
 26 62  1  0  0  0  0
 27 91  1  0  0  0  0
 28 92  1  0  0  0  0
 29 31  2  0  0  0  0
 29 91  1  0  0  0  0
 30 93  1  0  0  0  0
 31 94  1  0  0  0  0
 32 75  2  0  0  0  0
 33 76  1  0  0  0  0
 33 79  1  0  0  0  0
 34 80  1  0  0  0  0
 34 86  2  0  0  0  0
 35 55  1  0  0  0  0
 35 81  1  0  0  0  0
 35 87  2  0  0  0  0
 36 70  1  0  0  0  0
 36 77  1  0  0  0  0
 36 88  2  0  0  0  0
 37 71  1  0  0  0  0
 37 82  1  0  0  0  0
 37 89  2  0  0  0  0
 38 78  1  0  0  0  0
 38 83  1  0  0  0  0
 38 90  2  0  0  0  0
 39 42  1  0  0  0  0
 40 55  1  0  0  0  0
 41 77  1  0  0  0  0
 42 44  1  0  0  0  0
 43 47  1  0  0  0  0
 43 50  1  0  0  0  0
 44 53  1  0  0  0  0
 45 48  1  0  0  0  0
 45 56  1  0  0  0  0
 46 49  1  0  0  0  0
 46 56  1  0  0  0  0
 47 57  1  0  0  0  0
 48 59  1  0  0  0  0
 49 59  1  0  0  0  0
 50 78  1  0  0  0  0
 51 57  1  0  0  0  0
 51 78  1  0  0  0  0
 52 58  1  0  0  0  0
 52 84  1  0  0  0  0
 53 81  1  0  0  0  0
 54 58  1  0  0  0  0
 54 84  1  0  0  0  0
 55 77  1  0  0  0  0
 56 72  1  0  0  0  0
 57 76  1  0  0  0  0
 58 83  1  0  0  0  0
 59 92  1  0  0  0  0
 63 71  1  0  0  0  0
 64 72  1  0  0  0  0
 65 73  1  0  0  0  0
 66 74  1  0  0  0  0
 67 74  1  0  0  0  0
 68 74  1  0  0  0  0
 69 85  1  0  0  0  0
 70 74  1  0  0  0  0
 70 82  1  0  0  0  0
 71 85  1  0  0  0  0
 72 73  1  0  0  0  0
 73 84  1  0  0  0  0
 75 76  1  0  0  0  0
M  CHG  2  84   1  85   1
M  ISO  4  38 100  59 101  83 100  92 101
M  END
> <Batch ID>
0165

> <Smiles>
CNC(C)C(=O)NC(C(=O)N1Cc2cc([101O:1][101CH:1]3CCC(C(C)C(C)N4CC([100NH:0][100C:0](=O)N5CCCC(n6nc(-c7ccc(Oc8ccc(F)cc8F)cc7)c(C(N)=O)c6N)C5)C4c4cc(C)c(C)cc4C)CC3)ccc2CC1C(=O)NC1CCCc2ccccc21)C(C)(C)C

> <Shape>
0.224

> <Color>
0.169

> <Negative vol penalty>
0.000

$$$$

  -OEChem-04052322223D

 83 92  0     1  0  0  0  0  0999 V2000
  -29.1286  -33.7931   19.8578 C   0  0  0  0  0  0  0  0  0  0  0  0
  -29.4224  -32.4432   19.6943 C   0  0  0  0  0  0  0  0  0  0  0  0
  -23.0115  -11.4108   23.0132 C   0  0  0  0  0  0  0  0  0  0  0  0
  -23.3001   -9.9533   21.1081 C   0  0  0  0  0  0  0  0  0  0  0  0
  -28.4250  -34.2209   20.9829 C   0  0  0  0  0  0  0  0  0  0  0  0
  -29.0136  -31.5203   20.6564 C   0  0  0  0  0  0  0  0  0  0  0  0
  -27.2075  -25.7490   19.6889 C   0  0  0  0  0  0  0  0  0  0  0  0
  -22.1696  -10.4697   23.6057 C   0  0  0  0  0  0  0  0  0  0  0  0
  -22.4582   -9.0121   21.7006 C   0  0  0  0  0  0  0  0  0  0  0  0
  -27.8717  -24.5279   19.7955 C   0  0  0  0  0  0  0  0  0  0  0  0
  -22.6700   -6.6482   24.1063 C   0  0  0  0  0  0  0  0  0  0  0  0
  -23.0735   -5.3133   24.0813 C   0  0  0  0  0  0  0  0  0  0  0  0
  -31.3942  -19.4609   21.3565 C   0  0  0  0  0  0  0  0  0  0  0  0
  -26.9782  -24.2428   22.0180 C   0  0  0  0  0  0  0  0  0  0  0  0
  -21.0784   -4.7333   22.8482 C   0  0  0  0  0  0  0  0  0  0  0  0
  -23.5767  -11.1527   21.7643 C   0  0  0  0  0  0  0  0  0  0  0  0
  -24.1256  -13.4497   20.8001 C   0  0  0  0  0  0  0  0  0  0  0  0
  -27.9990  -33.3016   21.9545 C   0  0  0  0  0  0  0  0  0  0  0  0
  -26.4310  -26.2321   20.7520 C   0  0  0  0  0  0  0  0  0  0  0  0
  -28.3048  -31.9364   21.7962 C   0  0  0  0  0  0  0  0  0  0  0  0
  -30.8248  -18.3461   20.7444 C   0  0  0  0  0  0  0  0  0  0  0  0
  -26.3030  -25.4691   21.9214 C   0  0  0  0  0  0  0  0  0  0  0  0
  -30.8677  -20.7242   21.1121 C   0  0  0  0  0  0  0  0  0  0  0  0
  -21.8930   -9.2703   22.9494 C   0  0  0  0  0  0  0  0  0  0  0  0
  -27.7595  -23.7759   20.9613 C   0  0  0  0  0  0  0  0  0  0  0  0
  -21.4706   -7.0258   23.5024 C   0  0  0  0  0  0  0  0  0  0  0  0
  -22.2778   -4.3558   23.4522 C   0  0  0  0  0  0  0  0  0  0  0  0
  -20.6749   -6.0683   22.8733 C   0  0  0  0  0  0  0  0  0  0  0  0
  -24.4460  -12.1247   21.1515 C   0  0  0  0  0  0  0  0  0  0  0  0
  -29.7467  -18.5523   19.8833 C   0  0  0  0  0  0  0  0  0  0  0  0
  -29.7906  -20.8242   20.2466 C   0  0  0  0  0  0  0  0  0  0  0  0
  -25.2834  -13.9502   20.2564 C   0  0  0  0  0  0  0  0  0  0  0  0
  -22.8919  -14.1643   20.9516 C   0  0  0  0  0  0  0  0  0  0  0  0
  -30.8390  -14.5647   20.4722 C   0  0  0  0  0  0  0  0  0  0  0  0
  -26.5422  -28.7968   22.6265 C   0  0  0  0  0  0  0  0  0  0  0  0
  -23.7175  -27.6376   23.7217 C   0  0  0  0  0  0  0  0  0  0  0  0
  -21.6639  -24.9471   24.1584 C   0  0  0  0  0  0  0  0  0  0  0  0
  -27.2824  -33.8174   23.1772 C   0  0  0  0  0  0  0  0  0  0  0  0
  -25.6992  -27.5386   20.6110 C   0  0  0  0  0  0  0  0  0  0  0  0
  -31.3724  -16.9575   20.9217 C   0  0  0  0  0  0  0  0  0  0  0  0
  -25.4653  -25.9337   23.0837 C   0  0  0  0  0  0  0  0  0  0  0  0
  -29.1483  -17.3534   19.2026 C   0  0  0  0  0  0  0  0  0  0  0  0
  -26.5589  -32.7277   23.9642 C   0  0  0  0  0  0  0  0  0  0  0  0
  -28.9711  -16.2238   20.2168 C   0  0  0  0  0  0  0  0  0  0  0  0
  -29.5499  -11.6314   18.8678 C   0  0  0  0  0  0  0  0  0  0  0  0
  -27.4654  -31.5159   24.1551 C   0  0  0  0  0  0  0  0  0  0  0  0
  -28.0891  -11.5906   19.3145 C   0  0  0  0  0  0  0  0  0  0  0  0
  -30.4555  -12.1743   19.9688 C   0  0  0  0  0  0  0  0  0  0  0  0
  -28.5860  -13.4771   20.9329 C   0  0  0  0  0  0  0  0  0  0  0  0
  -27.8568  -30.9017   22.8056 C   0  0  1  0  0  0  0  0  0  0  0  0
  -25.3512  -28.1764   21.9525 C   0  0  1  0  0  0  0  0  0  0  0  0
  -27.6329  -12.9636   19.8391 C   0  0  2  0  0  0  0  0  0  0  0  0
  -30.2720  -15.8649   20.9839 C   0  0  1  0  0  0  0  0  0  0  0  0
  -31.4621  -21.9193   21.7754 C   0  0  0  0  0  0  0  0  0  0  0  0
  -29.8954  -15.6537   22.4316 C   0  0  0  0  0  0  0  0  0  0  0  0
  -19.4364  -24.3045   25.1189 C   0  0  0  0  0  0  0  0  0  0  0  0
  -24.8903  -27.7860   26.5346 C   0  0  0  0  0  0  0  0  0  0  0  0
  -23.0432  -26.2836   27.3087 C   0  0  0  0  0  0  0  0  0  0  0  0
  -22.5082  -28.5266   26.3572 C   0  0  0  0  0  0  0  0  0  0  0  0
  -20.6595  -24.0422   21.5257 C   0  0  0  0  0  0  0  0  0  0  0  0
  -29.1848  -22.1645   19.9476 C   0  0  0  0  0  0  0  0  0  1  0  0
  -23.3057  -26.6857   24.8187 C   0  0  1  0  0  0  0  0  0  0  0  0
  -20.1858  -24.7513   23.8733 C   0  0  2  0  0  0  0  0  0  0  0  0
  -23.4543  -27.3124   26.2338 C   0  0  0  0  0  0  0  0  0  0  0  0
  -25.7083  -11.8036   20.8557 N   0  0  0  0  0  0  0  0  0  0  0  0
  -29.2183  -19.7706   19.6226 N   0  0  0  0  0  0  0  0  0  0  0  0
  -26.1913  -12.9340   20.3127 N   0  0  0  0  0  0  0  0  0  0  0  0
  -29.9759  -13.4689   20.4559 N   0  0  0  0  0  0  0  0  0  0  0  0
  -24.7742  -27.2206   22.9000 N   0  0  0  0  0  0  0  0  0  0  0  0
  -25.6031  -15.1560   19.7403 N   0  0  0  0  0  0  0  0  0  0  0  0
  -21.9585  -14.1148   19.9072 N   0  0  0  0  0  0  0  0  0  0  0  0
  -26.7657  -30.1139   22.2733 N   0  0  0  0  0  0  0  0  0  0  0  0
  -21.9504  -26.2529   24.4961 N   0  0  0  0  0  0  0  0  0  0  0  0
  -19.9945  -23.7201   22.8145 N   0  3  0  0  0  0  0  0  0  0  0  0
  -22.6320  -14.8403   21.9758 O   0  0  0  0  0  0  0  0  0  0  0  0
  -32.0134  -14.5267   20.0960 O   0  0  0  0  0  0  0  0  0  0  0  0
  -27.2082  -28.1304   23.4101 O   0  0  0  0  0  0  0  0  0  0  0  0
  -23.1187  -28.7084   23.5940 O   0  0  0  0  0  0  0  0  0  0  0  0
  -22.4819  -24.0322   24.0920 O   0  0  0  0  0  0  0  0  0  0  0  0
  -21.0717   -8.3516   23.5274 O   0  0  0  0  0  0  0  0  0  0  0  0
  -28.4074  -22.5840   21.0682 O   0  0  0  0  0  0  0  0  0  1  0  0
  -22.6662   -3.0742   23.4269 F   0  0  0  0  0  0  0  0  0  0  0  0
  -19.5222   -6.4252   22.2903 F   0  0  0  0  0  0  0  0  0  0  0  0
  1  2  1  0  0  0  0
  1  5  2  0  0  0  0
  2  6  2  0  0  0  0
  3  8  2  0  0  0  0
  3 16  1  0  0  0  0
  4  9  1  0  0  0  0
  4 16  2  0  0  0  0
  5 18  1  0  0  0  0
  6 20  1  0  0  0  0
  7 10  2  0  0  0  0
  7 19  1  0  0  0  0
  8 24  1  0  0  0  0
  9 24  2  0  0  0  0
 10 25  1  0  0  0  0
 11 12  2  0  0  0  0
 11 26  1  0  0  0  0
 12 27  1  0  0  0  0
 13 21  2  0  0  0  0
 13 23  1  0  0  0  0
 14 22  1  0  0  0  0
 14 25  2  0  0  0  0
 15 27  2  0  0  0  0
 15 28  1  0  0  0  0
 16 29  1  0  0  0  0
 17 29  1  0  0  0  0
 17 32  2  0  0  0  0
 17 33  1  0  0  0  0
 18 20  2  0  0  0  0
 18 38  1  0  0  0  0
 19 22  2  0  0  0  0
 19 39  1  0  0  0  0
 20 50  1  0  0  0  0
 21 30  1  0  0  0  0
 21 40  1  0  0  0  0
 22 41  1  0  0  0  0
 23 31  2  0  0  0  0
 23 54  1  0  0  0  0
 24 80  1  0  0  0  0
 25 81  1  0  0  0  0
 26 28  2  0  0  0  0
 26 80  1  0  0  0  0
 27 82  1  0  0  0  0
 28 83  1  0  0  0  0
 29 65  2  0  0  0  0
 30 42  1  0  0  0  0
 30 66  2  0  0  0  0
 31 61  1  0  0  0  0
 31 66  1  0  0  0  0
 32 67  1  0  0  0  0
 32 70  1  0  0  0  0
 33 71  1  0  0  0  0
 33 75  2  0  0  0  0
 34 53  1  0  0  0  0
 34 68  1  0  0  0  0
 34 76  2  0  0  0  0
 35 51  1  0  0  0  0
 35 72  1  0  0  0  0
 35 77  2  0  0  0  0
 36 62  1  0  0  0  0
 36 69  1  0  0  0  0
 36 78  2  0  0  0  0
 37 63  1  0  0  0  0
 37 73  1  0  0  0  0
 37 79  2  0  0  0  0
 38 43  1  0  0  0  0
 39 51  1  0  0  0  0
 40 53  1  0  0  0  0
 41 69  1  0  0  0  0
 42 44  1  0  0  0  0
 43 46  1  0  0  0  0
 44 53  1  0  0  0  0
 45 47  1  0  0  0  0
 45 48  1  0  0  0  0
 46 50  1  0  0  0  0
 47 52  1  0  0  0  0
 48 68  1  0  0  0  0
 49 52  1  0  0  0  0
 49 68  1  0  0  0  0
 50 72  1  0  0  0  0
 51 69  1  0  0  0  0
 52 67  1  0  0  0  0
 53 55  1  0  0  0  0
 56 63  1  0  0  0  0
 57 64  1  0  0  0  0
 58 64  1  0  0  0  0
 59 64  1  0  0  0  0
 60 74  1  0  0  0  0
 61 81  1  0  0  0  0
 62 64  1  0  0  0  0
 62 73  1  0  0  0  0
 63 74  1  0  0  0  0
 65 67  1  0  0  0  0
M  CHG  1  74   1
M  ISO  4  34 100  53 100  61 101  81 101
M  END
> <Batch ID>
0165

> <Smiles>
CNC(C)C(=O)NC(C(=O)N1Cc2cc([101O:1][101CH2:1]c3nc4c(cc3C)C[100C:0](C)([100C:0](=O)N3CCCC(n5nc(-c6ccc(Oc7ccc(F)cc7F)cc6)c(C(N)=O)c5N)C3)CC4)ccc2CC1C(=O)NC1CCCc2ccccc21)C(C)(C)C

> <Shape>
0.266

> <Color>
0.151

> <Negative vol penalty>
0.000

$$$$

  -OEChem-04052322223D

 86 95  0     1  0  0  0  0  0999 V2000
  -15.6248  -26.1567   23.5372 C   0  0  0  0  0  0  0  0  0  0  0  0
  -16.6145  -25.6189   22.7224 C   0  0  0  0  0  0  0  0  0  0  0  0
  -22.4350  -14.1994   20.0904 C   0  0  0  0  0  0  0  0  0  0  0  0
  -24.1235  -15.7261   20.8999 C   0  0  0  0  0  0  0  0  0  0  0  0
  -15.7258  -27.4768   23.9713 C   0  0  0  0  0  0  0  0  0  0  0  0
  -17.7116  -26.3970   22.3512 C   0  0  0  0  0  0  0  0  0  0  0  0
  -23.9485  -24.0054   20.3649 C   0  0  0  0  0  0  0  0  0  0  0  0
  -21.5353  -15.2584   19.9698 C   0  0  0  0  0  0  0  0  0  0  0  0
  -23.2237  -16.7852   20.7793 C   0  0  0  0  0  0  0  0  0  0  0  0
  -25.1634  -23.5565   19.8465 C   0  0  0  0  0  0  0  0  0  0  0  0
  -21.2609  -19.8342   21.0261 C   0  0  0  0  0  0  0  0  0  0  0  0
  -21.1846  -20.7434   22.0811 C   0  0  0  0  0  0  0  0  0  0  0  0
  -25.8975  -25.8426   19.5589 C   0  0  0  0  0  0  0  0  0  0  0  0
  -20.5363  -18.9573   23.5734 C   0  0  0  0  0  0  0  0  0  0  0  0
  -23.7291  -14.4333   20.5555 C   0  0  0  0  0  0  0  0  0  0  0  0
  -24.5150  -12.1888   21.4787 C   0  0  0  0  0  0  0  0  0  0  0  0
  -16.8187  -28.2747   23.5946 C   0  0  0  0  0  0  0  0  0  0  0  0
  -23.7093  -25.3760   20.4967 C   0  0  0  0  0  0  0  0  0  0  0  0
  -17.8438  -27.7240   22.7987 C   0  0  0  0  0  0  0  0  0  0  0  0
  -24.6874  -26.2980   20.0891 C   0  0  0  0  0  0  0  0  0  0  0  0
  -21.9296  -16.5513   20.3142 C   0  0  0  0  0  0  0  0  0  0  0  0
  -26.1354  -24.4729   19.4443 C   0  0  0  0  0  0  0  0  0  0  0  0
  -20.9749  -18.4865   21.2447 C   0  0  0  0  0  0  0  0  0  0  0  0
  -20.8223  -20.3050   23.3548 C   0  0  0  0  0  0  0  0  0  0  0  0
  -20.6127  -18.0481   22.5183 C   0  0  0  0  0  0  0  0  0  0  0  0
  -24.6588  -13.3397   20.6809 C   0  0  0  0  0  0  0  0  0  0  0  0
  -25.6593  -11.4653   21.2474 C   0  0  0  0  0  0  0  0  0  0  0  0
  -23.4427  -11.8077   22.3509 C   0  0  0  0  0  0  0  0  0  0  0  0
  -21.3441  -28.0793   21.5803 C   0  0  0  0  0  0  0  0  0  0  0  0
  -24.1528  -28.9498   22.4542 C   0  0  0  0  0  0  0  0  0  0  0  0
  -26.4251  -30.0095   24.3559 C   0  0  0  0  0  0  0  0  0  0  0  0
  -28.9044  -14.5324   21.6705 C   0  0  0  0  0  0  0  0  0  0  0  0
  -16.8819  -29.6947   24.0994 C   0  0  0  0  0  0  0  0  0  0  0  0
  -22.3912  -25.9056   20.9926 C   0  0  0  0  0  0  0  0  0  0  0  0
  -24.3727  -27.7634   20.2171 C   0  0  0  0  0  0  0  0  0  0  0  0
  -17.8417  -30.5683   23.2983 C   0  0  0  0  0  0  0  0  0  0  0  0
  -28.4862  -13.7984   18.2542 C   0  0  0  0  0  0  0  0  0  0  0  0
  -19.1829  -29.8656   23.1493 C   0  0  0  0  0  0  0  0  0  0  0  0
  -28.0508  -12.3319   18.3355 C   0  0  0  0  0  0  0  0  0  0  0  0
  -29.1337  -18.2354   21.5933 C   0  0  0  0  0  0  0  0  0  0  0  0
  -31.3398  -17.2635   20.8602 C   0  0  0  0  0  0  0  0  0  0  0  0
  -30.1813  -21.0444   18.9537 C   0  0  0  0  0  0  0  0  0  0  0  0
  -29.5843  -14.1419   19.2575 C   0  0  0  0  0  0  0  0  0  0  0  0
  -28.8052  -16.9173   22.2905 C   0  0  0  0  0  0  0  0  0  0  0  0
  -30.9748  -15.9666   21.5764 C   0  0  0  0  0  0  0  0  0  0  0  0
  -30.4100  -19.5975   19.3877 C   0  0  0  0  0  0  0  0  0  0  0  0
  -28.9179  -12.2535   20.6960 C   0  0  0  0  0  0  0  0  0  0  0  0
  -19.0307  -28.5609   22.3571 C   0  0  1  0  0  0  0  0  0  0  0  0
  -22.5321  -27.1950   21.8213 C   0  0  1  0  0  0  0  0  0  0  0  0
  -27.7526  -11.8439   19.7712 C   0  0  1  0  0  0  0  0  0  0  0  0
  -30.6465  -18.4638   21.5140 C   0  0  0  0  0  0  0  0  0  0  0  0
  -30.5243  -21.8630   20.1876 C   0  0  2  0  0  0  0  0  0  0  0  0
  -30.3412  -20.8913   21.3478 C   0  0  2  0  0  0  0  0  0  0  0  0
  -31.0518  -21.3559   22.6140 C   0  0  0  0  0  0  0  0  0  0  0  0
  -27.9458  -31.7761   25.2854 C   0  0  0  0  0  0  0  0  0  0  0  0
  -30.9809  -24.8587   19.4054 C   0  0  0  0  0  0  0  0  0  0  0  0
  -24.8810  -29.6889   19.5859 C   0  0  0  0  0  0  0  0  0  0  0  0
  -26.5558  -31.3080   20.5034 C   0  0  0  0  0  0  0  0  0  0  0  0
  -24.1299  -31.6100   21.0000 C   0  0  0  0  0  0  0  0  0  0  0  0
  -25.3753  -29.6349   27.0976 C   0  0  0  0  0  0  0  0  0  0  0  0
  -28.4664  -24.8515   19.1565 C   0  0  0  0  0  0  0  0  0  1  0  0
  -25.3984  -29.7287   22.1151 C   0  0  1  0  0  0  0  0  0  0  0  0
  -26.6264  -31.0386   25.4536 C   0  0  2  0  0  0  0  0  0  0  0  0
  -29.7383  -24.0114   19.1852 C   0  0  2  0  0  0  0  0  0  0  0  0
  -25.2424  -30.5563   20.8081 C   0  0  0  0  0  0  0  0  0  0  0  0
  -25.8044  -13.3511   19.9941 N   0  0  0  0  0  0  0  0  0  0  0  0
  -26.3908  -12.1985   20.3599 N   0  0  0  0  0  0  0  0  0  0  0  0
  -23.7072  -28.0238   21.5032 N   0  0  0  0  0  0  0  0  0  0  0  0
  -29.2203  -13.6816   20.6010 N   0  0  0  0  0  0  0  0  0  0  0  0
  -29.5191  -15.7953   21.6810 N   0  0  0  0  0  0  0  0  0  0  0  0
  -30.9317  -19.6808   20.7577 N   0  0  2  0  0  0  0  0  0  0  0  0
  -26.1012  -10.2800   21.7187 N   0  0  0  0  0  0  0  0  0  0  0  0
  -22.3880  -11.0511   21.8221 N   0  0  0  0  0  0  0  0  0  0  0  0
  -20.2742  -27.8246   22.4169 N   0  0  0  0  0  0  0  0  0  0  0  0
  -25.7140  -30.5276   23.2942 N   0  0  0  0  0  0  0  0  0  0  0  0
  -29.6357  -23.0356   20.3084 N   0  3  0  0  0  0  0  0  0  0  0  0
  -26.6241  -30.3783   26.7896 N   0  3  0  0  0  0  0  0  0  0  0  0
  -23.4124  -12.1425   23.5594 O   0  0  0  0  0  0  0  0  0  0  0  0
  -21.3937  -28.9315   20.7011 O   0  0  0  0  0  0  0  0  0  0  0  0
  -23.5849  -29.1588   23.5299 O   0  0  0  0  0  0  0  0  0  0  0  0
  -26.8586  -28.8619   24.4311 O   0  0  0  0  0  0  0  0  0  0  0  0
  -28.1173  -14.1919   22.5624 O   0  0  0  0  0  0  0  0  0  0  0  0
  -21.0520  -17.5850   20.1964 O   0  0  0  0  0  0  0  0  0  0  0  0
  -27.3290  -24.0248   18.9398 O   0  0  0  0  0  0  0  0  0  1  0  0
  -20.7505  -21.1779   24.3681 F   0  0  0  0  0  0  0  0  0  0  0  0
  -20.3379  -16.7545   22.7347 F   0  0  0  0  0  0  0  0  0  0  0  0
  1  2  1  0  0  0  0
  1  5  2  0  0  0  0
  2  6  2  0  0  0  0
  3  8  2  0  0  0  0
  3 15  1  0  0  0  0
  4  9  1  0  0  0  0
  4 15  2  0  0  0  0
  5 17  1  0  0  0  0
  6 19  1  0  0  0  0
  7 10  2  0  0  0  0
  7 18  1  0  0  0  0
  8 21  1  0  0  0  0
  9 21  2  0  0  0  0
 10 22  1  0  0  0  0
 11 12  2  0  0  0  0
 11 23  1  0  0  0  0
 12 24  1  0  0  0  0
 13 20  1  0  0  0  0
 13 22  2  0  0  0  0
 14 24  2  0  0  0  0
 14 25  1  0  0  0  0
 15 26  1  0  0  0  0
 16 26  1  0  0  0  0
 16 27  2  0  0  0  0
 16 28  1  0  0  0  0
 17 19  2  0  0  0  0
 17 33  1  0  0  0  0
 18 20  2  0  0  0  0
 18 34  1  0  0  0  0
 19 48  1  0  0  0  0
 20 35  1  0  0  0  0
 21 83  1  0  0  0  0
 22 84  1  0  0  0  0
 23 25  2  0  0  0  0
 23 83  1  0  0  0  0
 24 85  1  0  0  0  0
 25 86  1  0  0  0  0
 26 66  2  0  0  0  0
 27 67  1  0  0  0  0
 27 72  1  0  0  0  0
 28 73  1  0  0  0  0
 28 78  2  0  0  0  0
 29 49  1  0  0  0  0
 29 74  1  0  0  0  0
 29 79  2  0  0  0  0
 30 62  1  0  0  0  0
 30 68  1  0  0  0  0
 30 80  2  0  0  0  0
 31 63  1  0  0  0  0
 31 75  1  0  0  0  0
 31 81  2  0  0  0  0
 32 69  1  0  0  0  0
 32 70  1  0  0  0  0
 32 82  2  0  0  0  0
 33 36  1  0  0  0  0
 34 49  1  0  0  0  0
 35 68  1  0  0  0  0
 36 38  1  0  0  0  0
 37 39  1  0  0  0  0
 37 43  1  0  0  0  0
 38 48  1  0  0  0  0
 39 50  1  0  0  0  0
 40 44  1  0  0  0  0
 40 51  1  0  0  0  0
 41 45  1  0  0  0  0
 41 51  1  0  0  0  0
 42 46  1  0  0  0  0
 42 52  1  0  0  0  0
 43 69  1  0  0  0  0
 44 70  1  0  0  0  0
 45 70  1  0  0  0  0
 46 71  1  0  0  0  0
 47 50  1  0  0  0  0
 47 69  1  0  0  0  0
 48 74  1  0  0  0  0
 49 68  1  0  0  0  0
 50 67  1  0  0  0  0
 51 71  1  0  0  0  0
 52 53  1  0  0  0  0
 52 76  1  0  0  0  0
 53 54  1  0  0  0  0
 53 71  1  0  0  0  0
 55 63  1  0  0  0  0
 56 64  1  0  0  0  0
 57 65  1  0  0  0  0
 58 65  1  0  0  0  0
 59 65  1  0  0  0  0
 60 77  1  0  0  0  0
 61 64  1  0  0  0  0
 61 84  1  0  0  0  0
 62 65  1  0  0  0  0
 62 75  1  0  0  0  0
 63 77  1  0  0  0  0
 64 76  1  0  0  0  0
 66 67  1  0  0  0  0
M  CHG  2  76   1  77   1
M  ISO  4  32 100  61 101  70 100  84 101
M  END
> <Batch ID>
0165

> <Smiles>
CNC(C)C(=O)NC(C(=O)N1Cc2cc([101O:1][101CH2:1]C(C)NC3CCN(C4CC[100N:0]([100C:0](=O)N5CCCC(n6nc(-c7ccc(Oc8ccc(F)cc8F)cc7)c(C(N)=O)c6N)C5)CC4)C3C)ccc2CC1C(=O)NC1CCCc2ccccc21)C(C)(C)C

> <Shape>
0.314

> <Color>
0.068

> <Negative vol penalty>
0.000

$$$$

  -OEChem-04052322223D

 86 96  0     1  0  0  0  0  0999 V2000
  -28.9325  -31.7911   26.4597 C   0  0  0  0  0  0  0  0  0  0  0  0
  -28.9892  -30.5337   25.8672 C   0  0  0  0  0  0  0  0  0  0  0  0
  -23.9884   -9.7331   21.9112 C   0  0  0  0  0  0  0  0  0  0  0  0
  -24.5710  -11.1242   23.7987 C   0  0  0  0  0  0  0  0  0  0  0  0
  -27.7549  -32.5352   26.4019 C   0  0  0  0  0  0  0  0  0  0  0  0
  -27.8679  -30.0191   25.2175 C   0  0  0  0  0  0  0  0  0  0  0  0
  -29.0042  -27.9145   20.7538 C   0  0  0  0  0  0  0  0  0  0  0  0
  -23.5647   -8.7291   22.7819 C   0  0  0  0  0  0  0  0  0  0  0  0
  -24.1472  -10.1202   24.6694 C   0  0  0  0  0  0  0  0  0  0  0  0
  -29.5675  -26.6394   20.7761 C   0  0  0  0  0  0  0  0  0  0  0  0
  -21.2172   -8.9415   25.8719 C   0  0  0  0  0  0  0  0  0  0  0  0
  -20.4252   -9.3182   26.9566 C   0  0  0  0  0  0  0  0  0  0  0  0
  -29.4715  -20.2565   17.7121 C   0  0  0  0  0  0  0  0  0  0  0  0
  -27.4130  -25.6853   20.2594 C   0  0  0  0  0  0  0  0  0  0  0  0
  -22.0888   -8.4439   28.4749 C   0  0  0  0  0  0  0  0  0  0  0  0
  -24.4916  -10.9306   22.4196 C   0  0  0  0  0  0  0  0  0  0  0  0
  -24.1545  -13.0152   20.9884 C   0  0  0  0  0  0  0  0  0  0  0  0
  -26.6215  -32.0336   25.7428 C   0  0  0  0  0  0  0  0  0  0  0  0
  -27.6366  -28.0841   20.4945 C   0  0  0  0  0  0  0  0  0  0  0  0
  -26.6735  -30.7567   25.1519 C   0  0  0  0  0  0  0  0  0  0  0  0
  -29.4425  -21.1954   18.7432 C   0  0  0  0  0  0  0  0  0  0  0  0
  -26.8353  -26.9638   20.2319 C   0  0  0  0  0  0  0  0  0  0  0  0
  -29.2912  -20.7756   20.0648 C   0  0  0  0  0  0  0  0  0  0  0  0
  -29.3491  -18.8977   18.0026 C   0  0  0  0  0  0  0  0  0  0  0  0
  -29.1688  -19.4168   20.3552 C   0  0  0  0  0  0  0  0  0  0  0  0
  -29.1978  -18.4778   19.3241 C   0  0  0  0  0  0  0  0  0  0  0  0
  -23.6441   -8.9227   24.1609 C   0  0  0  0  0  0  0  0  0  0  0  0
  -28.7713  -25.5243   20.5317 C   0  0  0  0  0  0  0  0  0  0  0  0
  -22.4450   -8.3160   26.0887 C   0  0  0  0  0  0  0  0  0  0  0  0
  -20.8610   -9.0694   28.2580 C   0  0  0  0  0  0  0  0  0  0  0  0
  -22.8808   -8.0672   27.3902 C   0  0  0  0  0  0  0  0  0  0  0  0
  -24.9300  -11.9679   21.5207 C   0  0  0  0  0  0  0  0  0  0  0  0
  -25.0281  -13.7222   20.1988 C   0  0  0  0  0  0  0  0  0  0  0  0
  -22.7684  -13.3217   21.1898 C   0  0  0  0  0  0  0  0  0  0  0  0
  -25.1749  -29.2665   22.1211 C   0  0  0  0  0  0  0  0  0  0  0  0
  -23.6008  -28.7922   19.3247 C   0  0  0  0  0  0  0  0  0  0  0  0
  -23.3985  -27.1079   16.3634 C   0  0  0  0  0  0  0  0  0  0  0  0
  -29.9947  -16.0880   19.3390 C   0  0  0  0  0  0  0  0  0  0  0  0
  -25.3564  -32.8547   25.7473 C   0  0  0  0  0  0  0  0  0  0  0  0
  -27.0497  -29.4682   20.4477 C   0  0  0  0  0  0  0  0  0  0  0  0
  -25.3658  -27.0935   19.9284 C   0  0  0  0  0  0  0  0  0  0  0  0
  -24.3288  -32.3959   24.7158 C   0  0  0  0  0  0  0  0  0  0  0  0
  -29.7179  -12.6045   18.6567 C   0  0  0  0  0  0  0  0  0  0  0  0
  -30.2880  -23.0402   17.1445 C   0  0  0  0  0  0  0  0  0  0  0  0
  -30.9358  -23.2869   18.4710 C   0  0  0  0  0  0  0  0  0  0  0  0
  -28.2636  -21.5835   22.3730 C   0  0  0  0  0  0  0  0  0  0  0  0
  -24.1681  -30.8796   24.7604 C   0  0  0  0  0  0  0  0  0  0  0  0
  -28.3838  -12.2145   19.2972 C   0  0  0  0  0  0  0  0  0  0  0  0
  -28.0884  -23.1106   22.4383 C   0  0  0  0  0  0  0  0  0  0  0  0
  -30.4602  -13.6514   19.4853 C   0  0  0  0  0  0  0  0  0  0  0  0
  -28.3450  -14.4605   20.4551 C   0  0  0  0  0  0  0  0  0  0  0  0
  -29.5755  -22.6442   18.4104 C   0  0  0  0  0  0  0  0  0  0  0  0
  -29.2596  -21.8098   21.1989 C   0  0  2  0  0  0  0  0  0  0  0  0
  -25.4858  -30.1748   24.4165 C   0  0  1  0  0  0  0  0  0  0  0  0
  -25.5421  -29.4862   20.6807 C   0  0  1  0  0  0  0  0  0  0  0  0
  -27.5309  -13.4562   19.6232 C   0  0  2  0  0  0  0  0  0  0  0  0
  -28.4993  -23.1536   20.9497 C   0  0  2  0  0  0  0  0  0  1  0  0
  -29.3836  -17.9159   16.8763 C   0  0  0  0  0  0  0  0  0  0  0  0
  -29.0070  -18.9742   21.7757 C   0  0  0  0  0  0  0  0  0  0  0  0
  -21.9805  -26.9103   14.3025 C   0  0  0  0  0  0  0  0  0  0  0  0
  -21.5309  -27.2014   20.9043 C   0  0  0  0  0  0  0  0  0  0  0  0
  -20.7050  -26.2576   18.7374 C   0  0  0  0  0  0  0  0  0  0  0  0
  -20.5736  -28.7130   19.1570 C   0  0  0  0  0  0  0  0  0  0  0  0
  -25.6305  -27.9400   14.6072 C   0  0  0  0  0  0  0  0  0  0  0  0
  -22.8245  -27.6498   18.7153 C   0  0  1  0  0  0  0  0  0  0  0  0
  -23.1797  -27.5929   14.9417 C   0  0  2  0  0  0  0  0  0  0  0  0
  -21.4357  -27.4525   19.3861 C   0  0  0  0  0  0  0  0  0  0  0  0
  -26.1987  -12.0025   21.1042 N   0  0  0  0  0  0  0  0  0  0  0  0
  -26.2269  -13.0802   20.3018 N   0  0  0  0  0  0  0  0  0  0  0  0
  -24.8373  -28.4673   19.9002 N   0  0  0  0  0  0  0  0  0  0  0  0
  -29.5918  -14.8002   19.7515 N   0  0  0  0  0  0  0  0  0  0  0  0
  -24.8799  -14.8243   19.4332 N   0  0  0  0  0  0  0  0  0  0  0  0
  -22.0163  -12.4920   22.0325 N   0  0  0  0  0  0  0  0  0  0  0  0
  -29.0732  -17.0971   19.6170 N   0  0  0  0  0  0  0  0  0  0  0  0
  -25.7136  -30.1984   22.9875 N   0  0  0  0  0  0  0  0  0  0  0  0
  -22.7634  -27.9164   17.2823 N   0  0  0  0  0  0  0  0  0  0  0  0
  -24.3816  -27.3098   14.1072 N   0  3  0  0  0  0  0  0  0  0  0  0
  -22.2094  -14.2927   20.6258 O   0  0  0  0  0  0  0  0  0  0  0  0
  -24.4547  -28.3223   22.4237 O   0  0  0  0  0  0  0  0  0  0  0  0
  -23.1307  -29.9319   19.2851 O   0  0  0  0  0  0  0  0  0  0  0  0
  -24.0629  -26.1094   16.6318 O   0  0  0  0  0  0  0  0  0  0  0  0
  -31.0653  -16.2773   18.7561 O   0  0  0  0  0  0  0  0  0  0  0  0
  -23.2304   -7.9433   25.0108 O   0  0  0  0  0  0  0  0  0  0  0  0
  -29.3184  -24.2785   20.5535 O   0  0  0  0  0  0  0  0  0  1  0  0
  -20.1011   -9.4326   29.2996 F   0  0  0  0  0  0  0  0  0  0  0  0
  -24.0599   -7.4676   27.6048 F   0  0  0  0  0  0  0  0  0  0  0  0
  1  2  1  0  0  0  0
  1  5  2  0  0  0  0
  2  6  2  0  0  0  0
  3  8  2  0  0  0  0
  3 16  1  0  0  0  0
  4  9  1  0  0  0  0
  4 16  2  0  0  0  0
  5 18  1  0  0  0  0
  6 20  1  0  0  0  0
  7 10  2  0  0  0  0
  7 19  1  0  0  0  0
  8 27  1  0  0  0  0
  9 27  2  0  0  0  0
 10 28  1  0  0  0  0
 11 12  2  0  0  0  0
 11 29  1  0  0  0  0
 12 30  1  0  0  0  0
 13 21  2  0  0  0  0
 13 24  1  0  0  0  0
 14 22  1  0  0  0  0
 14 28  2  0  0  0  0
 15 30  2  0  0  0  0
 15 31  1  0  0  0  0
 16 32  1  0  0  0  0
 17 32  1  0  0  0  0
 17 33  2  0  0  0  0
 17 34  1  0  0  0  0
 18 20  2  0  0  0  0
 18 39  1  0  0  0  0
 19 22  2  0  0  0  0
 19 40  1  0  0  0  0
 20 54  1  0  0  0  0
 21 23  1  0  0  0  0
 21 52  1  0  0  0  0
 22 41  1  0  0  0  0
 23 25  2  0  0  0  0
 23 53  1  0  0  0  0
 24 26  2  0  0  0  0
 24 58  1  0  0  0  0
 25 26  1  0  0  0  0
 25 59  1  0  0  0  0
 26 74  1  0  0  0  0
 27 83  1  0  0  0  0
 28 84  1  0  0  0  0
 29 31  2  0  0  0  0
 29 83  1  0  0  0  0
 30 85  1  0  0  0  0
 31 86  1  0  0  0  0
 32 68  2  0  0  0  0
 33 69  1  0  0  0  0
 33 72  1  0  0  0  0
 34 73  1  0  0  0  0
 34 78  2  0  0  0  0
 35 55  1  0  0  0  0
 35 75  1  0  0  0  0
 35 79  2  0  0  0  0
 36 65  1  0  0  0  0
 36 70  1  0  0  0  0
 36 80  2  0  0  0  0
 37 66  1  0  0  0  0
 37 76  1  0  0  0  0
 37 81  2  0  0  0  0
 38 71  1  0  0  0  0
 38 74  1  0  0  0  0
 38 82  2  0  0  0  0
 39 42  1  0  0  0  0
 40 55  1  0  0  0  0
 41 70  1  0  0  0  0
 42 47  1  0  0  0  0
 43 48  1  0  0  0  0
 43 50  1  0  0  0  0
 44 45  1  0  0  0  0
 44 52  1  0  0  0  0
 45 52  1  0  0  0  0
 46 49  1  0  0  0  0
 46 53  1  0  0  0  0
 47 54  1  0  0  0  0
 48 56  1  0  0  0  0
 49 57  1  0  0  0  0
 50 71  1  0  0  0  0
 51 56  1  0  0  0  0
 51 71  1  0  0  0  0
 53 57  1  0  0  0  0
 54 75  1  0  0  0  0
 55 70  1  0  0  0  0
 56 69  1  0  0  0  0
 57 84  1  0  0  0  0
 60 66  1  0  0  0  0
 61 67  1  0  0  0  0
 62 67  1  0  0  0  0
 63 67  1  0  0  0  0
 64 77  1  0  0  0  0
 65 67  1  0  0  0  0
 65 76  1  0  0  0  0
 66 77  1  0  0  0  0
 68 69  1  0  0  0  0
M  CHG  1  77   1
M  ISO  4  38 100  57 101  74 100  84 101
M  END
> <Batch ID>
0165

> <Smiles>
CNC(C)C(=O)NC(C(=O)N1Cc2cc([101O:1][101CH:1]3CCC3c3c(C4CC4)cc(C)c([100NH:0][100C:0](=O)N4CCCC(n5nc(-c6ccc(Oc7ccc(F)cc7F)cc6)c(C(N)=O)c5N)C4)c3C)ccc2CC1C(=O)NC1CCCc2ccccc21)C(C)(C)C

> <Shape>
0.315

> <Color>
0.113

> <Negative vol penalty>
0.000

$$$$

  -OEChem-04052322223D

 86 95  0     1  0  0  0  0  0999 V2000
  -29.1846  -30.6268   26.8093 C   0  0  0  0  0  0  0  0  0  0  0  0
  -29.0628  -29.4924   26.0132 C   0  0  0  0  0  0  0  0  0  0  0  0
  -23.0798  -10.7302   21.1926 C   0  0  0  0  0  0  0  0  0  0  0  0
  -24.1879   -8.6041   21.4905 C   0  0  0  0  0  0  0  0  0  0  0  0
  -28.1014  -31.4917   26.9587 C   0  0  0  0  0  0  0  0  0  0  0  0
  -27.8572  -29.2218   25.3669 C   0  0  0  0  0  0  0  0  0  0  0  0
  -28.5104  -27.8133   20.5467 C   0  0  0  0  0  0  0  0  0  0  0  0
  -21.8959  -10.0678   20.8684 C   0  0  0  0  0  0  0  0  0  0  0  0
  -23.0040   -7.9416   21.1663 C   0  0  0  0  0  0  0  0  0  0  0  0
  -28.9199  -26.5006   20.3168 C   0  0  0  0  0  0  0  0  0  0  0  0
  -20.1776   -5.6895   20.7685 C   0  0  0  0  0  0  0  0  0  0  0  0
  -19.7979   -4.6106   21.5667 C   0  0  0  0  0  0  0  0  0  0  0  0
  -26.6447  -25.8875   19.8006 C   0  0  0  0  0  0  0  0  0  0  0  0
  -19.7155   -6.0652   23.4939 C   0  0  0  0  0  0  0  0  0  0  0  0
  -24.2258   -9.9984   21.5036 C   0  0  0  0  0  0  0  0  0  0  0  0
  -25.8761  -11.0837   23.1181 C   0  0  0  0  0  0  0  0  0  0  0  0
  -26.8849  -31.2367   26.3062 C   0  0  0  0  0  0  0  0  0  0  0  0
  -27.1608  -28.1711   20.4156 C   0  0  0  0  0  0  0  0  0  0  0  0
  -26.7562  -30.0834   25.5088 C   0  0  0  0  0  0  0  0  0  0  0  0
  -26.2209  -27.2059   20.0268 C   0  0  0  0  0  0  0  0  0  0  0  0
  -30.6642  -20.6019   18.6188 C   0  0  0  0  0  0  0  0  0  0  0  0
  -30.6430  -22.0067   18.4371 C   0  0  0  0  0  0  0  0  0  0  0  0
  -21.8580   -8.6735   20.8552 C   0  0  0  0  0  0  0  0  0  0  0  0
  -27.9866  -25.5368   19.9465 C   0  0  0  0  0  0  0  0  0  0  0  0
  -20.3265   -6.9564   21.3330 C   0  0  0  0  0  0  0  0  0  0  0  0
  -19.5668   -4.7984   22.9294 C   0  0  0  0  0  0  0  0  0  0  0  0
  -20.0954   -7.1442   22.6957 C   0  0  0  0  0  0  0  0  0  0  0  0
  -25.4493  -10.6821   21.8381 C   0  0  0  0  0  0  0  0  0  0  0  0
  -30.0828  -20.3361   19.8389 C   0  0  0  0  0  0  0  0  0  0  0  0
  -30.0493  -22.5567   19.5518 C   0  0  0  0  0  0  0  0  0  0  0  0
  -27.0914  -11.6858   22.9015 C   0  0  0  0  0  0  0  0  0  0  0  0
  -25.2317  -10.9264   24.3892 C   0  0  0  0  0  0  0  0  0  0  0  0
  -24.9410  -29.3110   22.3845 C   0  0  0  0  0  0  0  0  0  0  0  0
  -23.1825  -29.5006   19.6653 C   0  0  0  0  0  0  0  0  0  0  0  0
  -22.6336  -28.3869   16.4865 C   0  0  0  0  0  0  0  0  0  0  0  0
  -30.4546  -14.9801   20.0987 C   0  0  0  0  0  0  0  0  0  0  0  0
  -25.7271  -32.1756   26.5359 C   0  0  0  0  0  0  0  0  0  0  0  0
  -26.7394  -29.5973   20.6411 C   0  0  0  0  0  0  0  0  0  0  0  0
  -24.7635  -27.5433   19.8527 C   0  0  0  0  0  0  0  0  0  0  0  0
  -24.6018  -32.0156   25.5169 C   0  0  0  0  0  0  0  0  0  0  0  0
  -30.0321  -11.8061   18.7966 C   0  0  0  0  0  0  0  0  0  0  0  0
  -24.2661  -30.5407   25.3195 C   0  0  0  0  0  0  0  0  0  0  0  0
  -28.8375  -11.2513   19.5721 C   0  0  0  0  0  0  0  0  0  0  0  0
  -28.8913  -18.1018   19.7394 C   0  0  0  0  0  0  0  0  0  0  0  0
  -31.1566  -18.2781   20.8561 C   0  0  0  0  0  0  0  0  0  0  0  0
  -29.8119  -13.2688   18.4286 C   0  0  0  0  0  0  0  0  0  0  0  0
  -28.6775  -16.7547   20.4356 C   0  0  0  0  0  0  0  0  0  0  0  0
  -30.8793  -16.9446   21.5440 C   0  0  0  0  0  0  0  0  0  0  0  0
  -28.3410  -13.6090   20.3878 C   0  0  0  0  0  0  0  0  0  0  0  0
  -25.4725  -29.7688   24.7717 C   0  0  1  0  0  0  0  0  0  0  0  0
  -29.8410  -19.0120   20.5388 C   0  0  0  0  0  0  0  0  0  0  0  0
  -25.2582  -29.7364   20.9788 C   0  0  1  0  0  0  0  0  0  0  0  0
  -28.5138  -12.1309   20.7927 C   0  0  1  0  0  0  0  0  0  0  0  0
  -31.2078  -19.6036   17.6750 C   0  0  0  0  0  0  0  0  0  0  0  0
  -31.1638  -22.7482   17.2700 C   0  0  0  0  0  0  0  0  0  0  0  0
  -27.5897  -21.3444   21.6320 C   0  0  0  0  0  0  0  0  0  0  0  0
  -21.0997  -28.7031   14.5257 C   0  0  0  0  0  0  0  0  0  0  0  0
  -21.0223  -27.8916   21.0989 C   0  0  0  0  0  0  0  0  0  0  0  0
  -19.9824  -27.4321   18.8683 C   0  0  0  0  0  0  0  0  0  0  0  0
  -20.1624  -29.7773   19.6991 C   0  0  0  0  0  0  0  0  0  0  0  0
  -24.8563  -29.2663   14.7415 C   0  0  0  0  0  0  0  0  0  0  0  0
  -29.7754  -23.9708   19.8861 C   0  0  0  0  0  0  0  0  0  1  0  0
  -29.0682  -21.6889   21.6840 C   0  0  0  0  0  0  0  0  0  0  0  0
  -22.2472  -28.5713   18.9300 C   0  0  1  0  0  0  0  0  0  0  0  0
  -22.4018  -29.1317   15.1842 C   0  0  2  0  0  0  0  0  0  0  0  0
  -20.8807  -28.4110   19.6541 C   0  0  0  0  0  0  0  0  0  0  0  0
  -26.3224  -11.0023   20.8794 N   0  0  0  0  0  0  0  0  0  0  0  0
  -29.7132  -21.5319   20.3972 N   0  0  0  0  0  0  0  0  0  0  0  0
  -27.3100  -11.6115   21.5573 N   0  0  0  0  0  0  0  0  0  0  0  0
  -24.3997  -28.9500   20.0907 N   0  0  0  0  0  0  0  0  0  0  0  0
  -29.5038  -14.0698   19.6131 N   0  0  0  0  0  0  0  0  0  0  0  0
  -29.9662  -16.1226   20.7503 N   0  0  0  0  0  0  0  0  0  0  0  0
  -27.9837  -12.2663   23.7317 N   0  0  0  0  0  0  0  0  0  0  0  0
  -23.9866  -10.2843   24.4321 N   0  0  0  0  0  0  0  0  0  0  0  0
  -25.6289  -30.0152   23.3542 N   0  0  0  0  0  0  0  0  0  0  0  0
  -22.1455  -29.0873   17.5692 N   0  0  0  0  0  0  0  0  0  0  0  0
  -23.5182  -28.8702   14.2321 N   0  3  0  0  0  0  0  0  0  0  0  0
  -25.7371  -11.3575   25.4532 O   0  0  0  0  0  0  0  0  0  0  0  0
  -24.1309  -28.4115   22.5753 O   0  0  0  0  0  0  0  0  0  0  0  0
  -22.8485  -30.6737   19.8491 O   0  0  0  0  0  0  0  0  0  0  0  0
  -23.1886  -27.2915   16.5377 O   0  0  0  0  0  0  0  0  0  0  0  0
  -31.6683  -14.7840   19.9593 O   0  0  0  0  0  0  0  0  0  0  0  0
  -20.7028   -8.0268   20.5391 O   0  0  0  0  0  0  0  0  0  0  0  0
  -28.3857  -24.2476   19.7210 O   0  0  0  0  0  0  0  0  0  1  0  0
  -19.2006   -3.7624   23.6954 F   0  0  0  0  0  0  0  0  0  0  0  0
  -20.2355   -8.3592   23.2435 F   0  0  0  0  0  0  0  0  0  0  0  0
  1  2  1  0  0  0  0
  1  5  2  0  0  0  0
  2  6  2  0  0  0  0
  3  8  2  0  0  0  0
  3 15  1  0  0  0  0
  4  9  1  0  0  0  0
  4 15  2  0  0  0  0
  5 17  1  0  0  0  0
  6 19  1  0  0  0  0
  7 10  2  0  0  0  0
  7 18  1  0  0  0  0
  8 23  1  0  0  0  0
  9 23  2  0  0  0  0
 10 24  1  0  0  0  0
 11 12  2  0  0  0  0
 11 25  1  0  0  0  0
 12 26  1  0  0  0  0
 13 20  1  0  0  0  0
 13 24  2  0  0  0  0
 14 26  2  0  0  0  0
 14 27  1  0  0  0  0
 15 28  1  0  0  0  0
 16 28  1  0  0  0  0
 16 31  2  0  0  0  0
 16 32  1  0  0  0  0
 17 19  2  0  0  0  0
 17 37  1  0  0  0  0
 18 20  2  0  0  0  0
 18 38  1  0  0  0  0
 19 50  1  0  0  0  0
 20 39  1  0  0  0  0
 21 22  1  0  0  0  0
 21 29  2  0  0  0  0
 21 54  1  0  0  0  0
 22 30  2  0  0  0  0
 22 55  1  0  0  0  0
 23 83  1  0  0  0  0
 24 84  1  0  0  0  0
 25 27  2  0  0  0  0
 25 83  1  0  0  0  0
 26 85  1  0  0  0  0
 27 86  1  0  0  0  0
 28 67  2  0  0  0  0
 29 51  1  0  0  0  0
 29 68  1  0  0  0  0
 30 62  1  0  0  0  0
 30 68  1  0  0  0  0
 31 69  1  0  0  0  0
 31 73  1  0  0  0  0
 32 74  1  0  0  0  0
 32 78  2  0  0  0  0
 33 52  1  0  0  0  0
 33 75  1  0  0  0  0
 33 79  2  0  0  0  0
 34 64  1  0  0  0  0
 34 70  1  0  0  0  0
 34 80  2  0  0  0  0
 35 65  1  0  0  0  0
 35 76  1  0  0  0  0
 35 81  2  0  0  0  0
 36 71  1  0  0  0  0
 36 72  1  0  0  0  0
 36 82  2  0  0  0  0
 37 40  1  0  0  0  0
 38 52  1  0  0  0  0
 39 70  1  0  0  0  0
 40 42  1  0  0  0  0
 41 43  1  0  0  0  0
 41 46  1  0  0  0  0
 42 50  1  0  0  0  0
 43 53  1  0  0  0  0
 44 47  1  0  0  0  0
 44 51  1  0  0  0  0
 45 48  1  0  0  0  0
 45 51  1  0  0  0  0
 46 71  1  0  0  0  0
 47 72  1  0  0  0  0
 48 72  1  0  0  0  0
 49 53  1  0  0  0  0
 49 71  1  0  0  0  0
 50 75  1  0  0  0  0
 52 70  1  0  0  0  0
 53 69  1  0  0  0  0
 56 63  1  0  0  0  0
 57 65  1  0  0  0  0
 58 66  1  0  0  0  0
 59 66  1  0  0  0  0
 60 66  1  0  0  0  0
 61 77  1  0  0  0  0
 62 84  1  0  0  0  0
 63 68  1  0  0  0  0
 64 66  1  0  0  0  0
 64 76  1  0  0  0  0
 65 77  1  0  0  0  0
 67 69  1  0  0  0  0
M  CHG  1  77   1
M  ISO  4  36 100  62 101  72 100  84 101
M  END
> <Batch ID>
0165

> <Smiles>
CCn1c(C2CC[100N:0]([100C:0](=O)N3CCCC(n4nc(-c5ccc(Oc6ccc(F)cc6F)cc5)c(C(N)=O)c4N)C3)CC2)c(C)c(C)c1[101CH2:1][101O:1]c1ccc2c(c1)CN(C(=O)C(NC(=O)C(C)NC)C(C)(C)C)C(C(=O)NC1CCCc3ccccc31)C2

> <Shape>
0.304

> <Color>
0.095

> <Negative vol penalty>
0.000

$$$$

  -OEChem-04052322223D

 86 95  0     1  0  0  0  0  0999 V2000
  -19.7028  -12.8467   18.2558 C   0  0  0  0  0  0  0  0  0  0  0  0
  -20.3941  -14.0536   18.2853 C   0  0  0  0  0  0  0  0  0  0  0  0
  -18.9347  -29.4018   22.0761 C   0  0  0  0  0  0  0  0  0  0  0  0
  -20.4425  -27.6209   22.7021 C   0  0  0  0  0  0  0  0  0  0  0  0
  -20.1762  -11.7555   18.9833 C   0  0  0  0  0  0  0  0  0  0  0  0
  -21.5587  -14.1703   19.0433 C   0  0  0  0  0  0  0  0  0  0  0  0
  -26.5088  -17.5147   17.6949 C   0  0  0  0  0  0  0  0  0  0  0  0
  -17.8992  -28.4773   21.9398 C   0  0  0  0  0  0  0  0  0  0  0  0
  -19.4070  -26.6963   22.5659 C   0  0  0  0  0  0  0  0  0  0  0  0
  -26.9320  -18.7751   18.1144 C   0  0  0  0  0  0  0  0  0  0  0  0
  -17.8249  -25.0801   20.0528 C   0  0  0  0  0  0  0  0  0  0  0  0
  -18.1013  -23.8928   19.3750 C   0  0  0  0  0  0  0  0  0  0  0  0
  -28.3129  -17.7432   19.8019 C   0  0  0  0  0  0  0  0  0  0  0  0
  -28.4565  -24.1554   21.2182 C   0  0  0  0  0  0  0  0  0  0  0  0
  -29.3009  -23.1728   18.7476 C   0  0  0  0  0  0  0  0  0  0  0  0
  -17.5275  -22.6300   21.3533 C   0  0  0  0  0  0  0  0  0  0  0  0
  -20.2064  -28.9737   22.4572 C   0  0  0  0  0  0  0  0  0  0  0  0
  -21.6346  -30.6392   23.7587 C   0  0  0  0  0  0  0  0  0  0  0  0
  -21.3525  -11.8561   19.7428 C   0  0  0  0  0  0  0  0  0  0  0  0
  -26.9769  -16.3575   18.3340 C   0  0  0  0  0  0  0  0  0  0  0  0
  -22.0476  -13.0799   19.7826 C   0  0  0  0  0  0  0  0  0  0  0  0
  -27.8961  -16.4691   19.3869 C   0  0  0  0  0  0  0  0  0  0  0  0
  -27.8903  -22.9905   20.7005 C   0  0  0  0  0  0  0  0  0  0  0  0
  -29.4449  -24.8291   20.5005 C   0  0  0  0  0  0  0  0  0  0  0  0
  -28.3125  -22.4992   19.4652 C   0  0  0  0  0  0  0  0  0  0  0  0
  -18.1353  -27.1245   22.1847 C   0  0  0  0  0  0  0  0  0  0  0  0
  -27.8319  -18.8896   19.1700 C   0  0  0  0  0  0  0  0  0  0  0  0
  -17.3999  -25.0425   21.3808 C   0  0  0  0  0  0  0  0  0  0  0  0
  -17.9526  -22.6677   20.0252 C   0  0  0  0  0  0  0  0  0  0  0  0
  -29.8671  -24.3377   19.2653 C   0  0  0  0  0  0  0  0  0  0  0  0
  -17.2512  -23.8174   22.0310 C   0  0  0  0  0  0  0  0  0  0  0  0
  -21.2765  -29.9282   22.5976 C   0  0  0  0  0  0  0  0  0  0  0  0
  -22.7050  -31.4089   23.3736 C   0  0  0  0  0  0  0  0  0  0  0  0
  -21.0518  -30.6067   25.0683 C   0  0  0  0  0  0  0  0  0  0  0  0
  -25.6213  -13.9982   19.9771 C   0  0  0  0  0  0  0  0  0  0  0  0
  -28.6131  -12.7472   19.8979 C   0  0  0  0  0  0  0  0  0  0  0  0
  -31.9701  -13.2821   19.5951 C   0  0  0  0  0  0  0  0  0  0  0  0
  -26.7902  -30.8325   19.0342 C   0  0  0  0  0  0  0  0  0  0  0  0
  -21.7994  -10.6633   20.5504 C   0  0  0  0  0  0  0  0  0  0  0  0
  -26.5313  -15.0041   17.8520 C   0  0  0  0  0  0  0  0  0  0  0  0
  -28.4442  -15.2569   20.0929 C   0  0  0  0  0  0  0  0  0  0  0  0
  -23.2456  -10.7593   21.0293 C   0  0  0  0  0  0  0  0  0  0  0  0
  -24.5733  -33.5728   19.5372 C   0  0  0  0  0  0  0  0  0  0  0  0
  -23.5211  -12.1373   21.6227 C   0  0  0  0  0  0  0  0  0  0  0  0
  -23.5093  -33.0136   20.4833 C   0  0  0  0  0  0  0  0  0  0  0  0
  -29.3833  -29.5766   20.7080 C   0  0  0  0  0  0  0  0  0  0  0  0
  -25.0475  -32.5212   18.5365 C   0  0  0  0  0  0  0  0  0  0  0  0
  -24.4506  -30.6997   20.0855 C   0  0  0  0  0  0  0  0  0  0  0  0
  -30.4979  -28.5420   20.7020 C   0  0  0  0  0  0  0  0  0  0  0  0
  -28.4002  -27.5836   19.8866 C   0  0  0  0  0  0  0  0  0  0  0  0
  -23.3282  -13.2385   20.5731 C   0  0  1  0  0  0  0  0  0  0  0  0
  -26.6765  -13.9153   18.9106 C   0  0  1  0  0  0  0  0  0  0  0  0
  -23.9818  -31.7072   21.1492 C   0  0  2  0  0  0  0  0  0  0  0  0
  -28.4222  -29.0795   19.6419 C   0  0  1  0  0  0  0  0  0  0  0  0
  -26.8346  -22.2861   21.4877 C   0  0  0  0  0  0  0  0  0  0  0  0
  -34.1671  -12.0697   19.6089 C   0  0  0  0  0  0  0  0  0  0  0  0
  -28.4557  -12.5014   22.9351 C   0  0  0  0  0  0  0  0  0  0  0  0
  -30.9412  -12.2028   22.9701 C   0  0  0  0  0  0  0  0  0  0  0  0
  -29.5041  -10.5449   21.7831 C   0  0  0  0  0  0  0  0  0  0  0  0
  -32.5835  -14.1228   16.8246 C   0  0  0  0  0  0  0  0  0  0  0  0
  -30.0478  -26.0750   21.0560 C   0  0  0  0  0  0  0  0  0  0  0  0
  -27.7183  -21.2483   18.8877 C   0  0  0  0  0  0  0  0  0  1  0  0
  -29.8351  -12.8415   20.7793 C   0  0  1  0  0  0  0  0  0  0  0  0
  -33.0274  -12.5949   18.7500 C   0  0  2  0  0  0  0  0  0  0  0  0
  -29.6724  -12.0458   22.1051 C   0  0  0  0  0  0  0  0  0  0  0  0
  -22.0561  -30.2204   21.5531 N   0  0  0  0  0  0  0  0  0  0  0  0
  -22.9146  -31.1235   22.0564 N   0  0  0  0  0  0  0  0  0  0  0  0
  -27.9735  -13.9561   19.5892 N   0  0  0  0  0  0  0  0  0  0  0  0
  -25.4834  -31.3081   19.2323 N   0  0  0  0  0  0  0  0  0  0  0  0
  -23.4778  -32.2953   24.0364 N   0  0  0  0  0  0  0  0  0  0  0  0
  -19.9576  -29.7599   25.2919 N   0  0  0  0  0  0  0  0  0  0  0  0
  -24.4687  -13.2946   19.6840 N   0  0  0  0  0  0  0  0  0  0  0  0
  -30.9635  -12.4131   19.9598 N   0  0  0  0  0  0  0  0  0  0  0  0
  -27.1241  -29.6809   19.7363 N   0  0  0  0  0  0  0  0  0  0  0  0
  -29.8531  -27.2702   20.1794 N   0  3  2  0  0  0  0  0  0  0  0  0
  -33.5914  -13.5466   17.7514 N   0  3  0  0  0  0  0  0  0  0  0  0
  -21.4781  -31.3200   26.0079 O   0  0  0  0  0  0  0  0  0  0  0  0
  -25.8375  -14.6510   20.9915 O   0  0  0  0  0  0  0  0  0  0  0  0
  -28.2440  -11.6423   19.4921 O   0  0  0  0  0  0  0  0  0  0  0  0
  -32.0328  -14.4700   19.9042 O   0  0  0  0  0  0  0  0  0  0  0  0
  -27.6011  -31.3958   18.2911 O   0  0  0  0  0  0  0  0  0  0  0  0
  -17.1251  -26.2221   22.0521 O   0  0  0  0  0  0  0  0  0  0  0  0
  -28.2461  -20.1187   19.5819 O   0  0  0  0  0  0  0  0  0  1  0  0
  -18.2166  -21.5275   19.3738 F   0  0  0  0  0  0  0  0  0  0  0  0
  -30.8163  -24.9782   18.5683 F   0  0  0  0  0  0  0  0  0  0  0  0
  -16.8420  -23.7748   23.3064 F   0  0  0  0  0  0  0  0  0  0  0  0
  1  2  1  0  0  0  0
  1  5  2  0  0  0  0
  2  6  2  0  0  0  0
  3  8  2  0  0  0  0
  3 17  1  0  0  0  0
  4  9  1  0  0  0  0
  4 17  2  0  0  0  0
  5 19  1  0  0  0  0
  6 21  1  0  0  0  0
  7 10  2  0  0  0  0
  7 20  1  0  0  0  0
  8 26  1  0  0  0  0
  9 26  2  0  0  0  0
 10 27  1  0  0  0  0
 11 12  2  0  0  0  0
 11 28  1  0  0  0  0
 12 29  1  0  0  0  0
 13 22  1  0  0  0  0
 13 27  2  0  0  0  0
 14 23  1  0  0  0  0
 14 24  2  0  0  0  0
 15 25  1  0  0  0  0
 15 30  2  0  0  0  0
 16 29  2  0  0  0  0
 16 31  1  0  0  0  0
 17 32  1  0  0  0  0
 18 32  1  0  0  0  0
 18 33  2  0  0  0  0
 18 34  1  0  0  0  0
 19 21  2  0  0  0  0
 19 39  1  0  0  0  0
 20 22  2  0  0  0  0
 20 40  1  0  0  0  0
 21 51  1  0  0  0  0
 22 41  1  0  0  0  0
 23 25  2  0  0  0  0
 23 55  1  0  0  0  0
 24 30  1  0  0  0  0
 24 61  1  0  0  0  0
 25 62  1  0  0  0  0
 26 82  1  0  0  0  0
 27 83  1  0  0  0  0
 28 31  2  0  0  0  0
 28 82  1  0  0  0  0
 29 84  1  0  0  0  0
 30 85  1  0  0  0  0
 31 86  1  0  0  0  0
 32 66  2  0  0  0  0
 33 67  1  0  0  0  0
 33 70  1  0  0  0  0
 34 71  1  0  0  0  0
 34 77  2  0  0  0  0
 35 52  1  0  0  0  0
 35 72  1  0  0  0  0
 35 78  2  0  0  0  0
 36 63  1  0  0  0  0
 36 68  1  0  0  0  0
 36 79  2  0  0  0  0
 37 64  1  0  0  0  0
 37 73  1  0  0  0  0
 37 80  2  0  0  0  0
 38 69  1  0  0  0  0
 38 74  1  0  0  0  0
 38 81  2  0  0  0  0
 39 42  1  0  0  0  0
 40 52  1  0  0  0  0
 41 68  1  0  0  0  0
 42 44  1  0  0  0  0
 43 45  1  0  0  0  0
 43 47  1  0  0  0  0
 44 51  1  0  0  0  0
 45 53  1  0  0  0  0
 46 49  1  0  0  0  0
 46 54  1  0  0  0  0
 47 69  1  0  0  0  0
 48 53  1  0  0  0  0
 48 69  1  0  0  0  0
 49 75  1  0  0  0  0
 50 54  1  0  0  0  0
 50 75  1  0  0  0  0
 51 72  1  0  0  0  0
 52 68  1  0  0  0  0
 53 67  1  0  0  0  0
 54 74  1  0  0  0  0
 56 64  1  0  0  0  0
 57 65  1  0  0  0  0
 58 65  1  0  0  0  0
 59 65  1  0  0  0  0
 60 76  1  0  0  0  0
 61 75  1  0  0  0  0
 62 83  1  0  0  0  0
 63 65  1  0  0  0  0
 63 73  1  0  0  0  0
 64 76  1  0  0  0  0
 66 67  1  0  0  0  0
M  CHG  2  75   1  76   1
M  ISO  4  38 100  62 101  74 100  83 101
M  END
> <Batch ID>
0165

> <Smiles>
CNC(C)C(=O)NC(C(=O)N1Cc2cc([101O:1][101CH2:1]c3cc(F)c(CN4CCC([100NH:0][100C:0](=O)N5CCCC(n6nc(-c7ccc(Oc8ccc(F)cc8F)cc7)c(C(N)=O)c6N)C5)C4)cc3C)ccc2CC1C(=O)NC1CCCc2ccccc21)C(C)(C)C

> <Shape>
0.266

> <Color>
0.061

> <Negative vol penalty>
0.000

$$$$

  -OEChem-04052322223D

 92103  0     1  0  0  0  0  0999 V2000
  -19.1863  -24.2474   21.9609 C   0  0  0  0  0  0  0  0  0  0  0  0
  -20.3846  -24.5556   21.3248 C   0  0  0  0  0  0  0  0  0  0  0  0
  -22.7349  -10.5692   21.4681 C   0  0  0  0  0  0  0  0  0  0  0  0
  -24.1149   -8.6526   20.9587 C   0  0  0  0  0  0  0  0  0  0  0  0
  -18.3978  -25.2673   22.4919 C   0  0  0  0  0  0  0  0  0  0  0  0
  -20.7946  -25.8842   21.2185 C   0  0  0  0  0  0  0  0  0  0  0  0
  -25.6964  -26.4996   22.3315 C   0  0  0  0  0  0  0  0  0  0  0  0
  -21.7053  -10.0334   20.6946 C   0  0  0  0  0  0  0  0  0  0  0  0
  -23.0852   -8.1168   20.1852 C   0  0  0  0  0  0  0  0  0  0  0  0
  -26.6215  -26.1433   21.3512 C   0  0  0  0  0  0  0  0  0  0  0  0
  -20.6894   -6.0719   18.3696 C   0  0  0  0  0  0  0  0  0  0  0  0
  -20.3961   -4.7174   18.5274 C   0  0  0  0  0  0  0  0  0  0  0  0
  -30.9325  -21.6642   19.6882 C   0  0  0  0  0  0  0  0  0  0  0  0
  -26.8511  -28.4636   20.7329 C   0  0  0  0  0  0  0  0  0  0  0  0
  -29.4092  -22.1659   17.8384 C   0  0  0  0  0  0  0  0  0  0  0  0
  -19.8941   -5.0978   20.8598 C   0  0  0  0  0  0  0  0  0  0  0  0
  -23.9398   -9.8788   21.6001 C   0  0  0  0  0  0  0  0  0  0  0  0
  -25.2293  -10.2286   23.7732 C   0  0  0  0  0  0  0  0  0  0  0  0
  -18.8031  -26.6082   22.4006 C   0  0  0  0  0  0  0  0  0  0  0  0
  -25.3329  -27.8418   22.5128 C   0  0  0  0  0  0  0  0  0  0  0  0
  -20.0101  -26.9231   21.7477 C   0  0  0  0  0  0  0  0  0  0  0  0
  -31.2634  -22.9932   19.6698 C   0  0  0  0  0  0  0  0  0  0  0  0
  -25.9231  -28.8347   21.7179 C   0  0  0  0  0  0  0  0  0  0  0  0
  -30.7043  -23.8864   18.7817 C   0  0  0  0  0  0  0  0  0  0  0  0
  -29.7740  -23.5158   17.8478 C   0  0  0  0  0  0  0  0  0  0  0  0
  -29.9834  -21.2490   18.7490 C   0  0  0  0  0  0  0  0  0  0  0  0
  -21.8804   -8.8072   20.0532 C   0  0  0  0  0  0  0  0  0  0  0  0
  -27.1969  -27.1250   20.5498 C   0  0  0  0  0  0  0  0  0  0  0  0
  -20.5850   -6.9394   19.4569 C   0  0  0  0  0  0  0  0  0  0  0  0
  -19.9985   -4.2303   19.7724 C   0  0  0  0  0  0  0  0  0  0  0  0
  -20.1873   -6.4523   20.7020 C   0  0  0  0  0  0  0  0  0  0  0  0
  -25.0040  -10.4320   22.3986 C   0  0  0  0  0  0  0  0  0  0  0  0
  -26.3554  -10.9650   24.0492 C   0  0  0  0  0  0  0  0  0  0  0  0
  -24.4871   -9.4442   24.7163 C   0  0  0  0  0  0  0  0  0  0  0  0
  -22.6217  -29.4837   22.2729 C   0  0  0  0  0  0  0  0  0  0  0  0
  -24.4348  -31.8989   23.4569 C   0  0  0  0  0  0  0  0  0  0  0  0
  -27.5401  -33.2466   23.8900 C   0  0  0  0  0  0  0  0  0  0  0  0
  -28.7155  -15.7037   21.7330 C   0  0  0  0  0  0  0  0  0  0  0  0
  -17.8943  -27.6801   22.9481 C   0  0  0  0  0  0  0  0  0  0  0  0
  -24.3535  -28.2127   23.5925 C   0  0  0  0  0  0  0  0  0  0  0  0
  -25.5820  -30.2920   21.8861 C   0  0  0  0  0  0  0  0  0  0  0  0
  -18.5828  -29.0312   23.1237 C   0  0  0  0  0  0  0  0  0  0  0  0
  -30.3548  -12.6113   22.0144 C   0  0  0  0  0  0  0  0  0  0  0  0
  -19.3941  -29.3825   21.8806 C   0  0  0  0  0  0  0  0  0  0  0  0
  -29.1813  -11.6691   22.2817 C   0  0  0  0  0  0  0  0  0  0  0  0
  -29.9206  -17.5240   18.9721 C   0  0  0  0  0  0  0  0  0  0  0  0
  -29.4413  -19.0023   20.9602 C   0  0  0  0  0  0  0  0  0  0  0  0
  -32.9661  -24.9228   19.4764 C   0  0  0  0  0  0  0  0  0  0  0  0
  -30.0133  -13.6678   20.9621 C   0  0  0  0  0  0  0  0  0  0  0  0
  -30.3506  -16.4072   19.9279 C   0  0  0  0  0  0  0  0  0  0  0  0
  -29.9059  -17.8704   21.8723 C   0  0  0  0  0  0  0  0  0  0  0  0
  -27.6117  -13.4957   21.5289 C   0  0  0  0  0  0  0  0  0  0  0  0
  -20.5009  -28.3501   21.6342 C   0  0  1  0  0  0  0  0  0  0  0  0
  -23.6717  -29.5548   23.3454 C   0  0  1  0  0  0  0  0  0  0  0  0
  -27.9056  -12.4591   22.6243 C   0  0  1  0  0  0  0  0  0  0  0  0
  -30.1262  -18.9070   19.5943 C   0  0  0  0  0  0  0  0  0  0  0  0
  -32.0883  -24.0193   20.3040 C   0  0  1  0  0  0  0  0  0  0  0  0
  -31.4801  -25.0060   19.2957 C   0  0  2  0  0  0  0  0  0  0  0  0
  -29.1877  -24.4908   16.8951 C   0  0  0  0  0  0  0  0  0  0  0  0
  -31.9808  -24.2414   21.7796 C   0  0  0  0  0  0  0  0  0  0  0  0
  -28.7009  -35.2476   24.8626 C   0  0  0  0  0  0  0  0  0  0  0  0
  -31.4827  -27.9860   18.4829 C   0  0  0  0  0  0  0  0  0  0  0  0
  -23.5293  -33.5784   21.0759 C   0  0  0  0  0  0  0  0  0  0  0  0
  -25.4059  -35.1611   21.5676 C   0  0  0  0  0  0  0  0  0  0  0  0
  -23.6008  -34.8077   23.2526 C   0  0  0  0  0  0  0  0  0  0  0  0
  -29.0781  -31.5766   25.7885 C   0  0  0  0  0  0  0  0  0  0  0  0
  -29.1054  -27.7407   19.2715 C   0  0  0  0  0  0  0  0  0  1  0  0
  -25.3011  -32.9792   22.8557 C   0  0  1  0  0  0  0  0  0  0  0  0
  -28.2250  -33.8254   25.1149 C   0  0  2  0  0  0  0  0  0  0  0  0
  -30.3605  -27.0131   18.8053 C   0  0  2  0  0  0  0  0  0  0  0  0
  -24.4645  -34.1040   22.1832 C   0  0  0  0  0  0  0  0  0  0  0  0
  -25.9138  -11.2348   21.8402 N   0  0  0  0  0  0  0  0  0  0  0  0
  -26.7216  -11.5425   22.8691 N   0  0  0  0  0  0  0  0  0  0  0  0
  -24.6144  -30.6036   22.9511 N   0  0  0  0  0  0  0  0  0  0  0  0
  -28.7686  -14.3667   21.3112 N   0  0  0  0  0  0  0  0  0  0  0  0
  -29.7049  -16.5668   21.2388 N   0  0  0  0  0  0  0  0  0  0  0  0
  -27.0581  -11.1685   25.1838 N   0  0  0  0  0  0  0  0  0  0  0  0
  -23.3559   -8.7506   24.2650 N   0  0  0  0  0  0  0  0  0  0  0  0
  -29.5979  -19.9208   18.7083 N   0  0  0  0  0  0  0  0  0  0  0  0
  -21.6123  -28.5765   22.5331 N   0  0  0  0  0  0  0  0  0  0  0  0
  -26.1759  -33.4441   23.9266 N   0  0  0  0  0  0  0  0  0  0  0  0
  -29.4042  -32.9949   25.4899 N   0  3  0  0  0  0  0  0  0  0  0  0
  -24.8078   -9.3739   25.9270 O   0  0  0  0  0  0  0  0  0  0  0  0
  -22.7194  -30.1999   21.2834 O   0  0  0  0  0  0  0  0  0  0  0  0
  -23.6335  -32.1922   24.3477 O   0  0  0  0  0  0  0  0  0  0  0  0
  -28.1542  -32.6796   22.9890 O   0  0  0  0  0  0  0  0  0  0  0  0
  -27.8356  -16.1032   22.5058 O   0  0  0  0  0  0  0  0  0  0  0  0
  -20.8757   -8.2840   19.2985 O   0  0  0  0  0  0  0  0  0  0  0  0
  -28.1055  -26.7775   19.5856 O   0  0  0  0  0  0  0  0  0  1  0  0
  -30.8119  -26.1542   19.8370 O   0  0  0  0  0  0  0  0  0  0  0  0
  -19.7154   -2.9298   19.9234 F   0  0  0  0  0  0  0  0  0  0  0  0
  -20.0841   -7.2810   21.7500 F   0  0  0  0  0  0  0  0  0  0  0  0
  1  2  1  0  0  0  0
  1  5  2  0  0  0  0
  2  6  2  0  0  0  0
  3  8  2  0  0  0  0
  3 17  1  0  0  0  0
  4  9  1  0  0  0  0
  4 17  2  0  0  0  0
  5 19  1  0  0  0  0
  6 21  1  0  0  0  0
  7 10  2  0  0  0  0
  7 20  1  0  0  0  0
  8 27  1  0  0  0  0
  9 27  2  0  0  0  0
 10 28  1  0  0  0  0
 11 12  2  0  0  0  0
 11 29  1  0  0  0  0
 12 30  1  0  0  0  0
 13 22  1  0  0  0  0
 13 26  2  0  0  0  0
 14 23  1  0  0  0  0
 14 28  2  0  0  0  0
 15 25  2  0  0  0  0
 15 26  1  0  0  0  0
 16 30  2  0  0  0  0
 16 31  1  0  0  0  0
 17 32  1  0  0  0  0
 18 32  1  0  0  0  0
 18 33  2  0  0  0  0
 18 34  1  0  0  0  0
 19 21  2  0  0  0  0
 19 39  1  0  0  0  0
 20 23  2  0  0  0  0
 20 40  1  0  0  0  0
 21 53  1  0  0  0  0
 22 24  2  0  0  0  0
 22 57  1  0  0  0  0
 23 41  1  0  0  0  0
 24 25  1  0  0  0  0
 24 58  1  0  0  0  0
 25 59  1  0  0  0  0
 26 79  1  0  0  0  0
 27 88  1  0  0  0  0
 28 89  1  0  0  0  0
 29 31  2  0  0  0  0
 29 88  1  0  0  0  0
 30 91  1  0  0  0  0
 31 92  1  0  0  0  0
 32 72  2  0  0  0  0
 33 73  1  0  0  0  0
 33 77  1  0  0  0  0
 34 78  1  0  0  0  0
 34 83  2  0  0  0  0
 35 54  1  0  0  0  0
 35 80  1  0  0  0  0
 35 84  2  0  0  0  0
 36 68  1  0  0  0  0
 36 74  1  0  0  0  0
 36 85  2  0  0  0  0
 37 69  1  0  0  0  0
 37 81  1  0  0  0  0
 37 86  2  0  0  0  0
 38 75  1  0  0  0  0
 38 76  1  0  0  0  0
 38 87  2  0  0  0  0
 39 42  1  0  0  0  0
 40 54  1  0  0  0  0
 41 74  1  0  0  0  0
 42 44  1  0  0  0  0
 43 45  1  0  0  0  0
 43 49  1  0  0  0  0
 44 53  1  0  0  0  0
 45 55  1  0  0  0  0
 46 50  1  0  0  0  0
 46 56  1  0  0  0  0
 47 51  1  0  0  0  0
 47 56  1  0  0  0  0
 48 57  1  0  0  0  0
 48 58  1  0  0  0  0
 49 75  1  0  0  0  0
 50 76  1  0  0  0  0
 51 76  1  0  0  0  0
 52 55  1  0  0  0  0
 52 75  1  0  0  0  0
 53 80  1  0  0  0  0
 54 74  1  0  0  0  0
 55 73  1  0  0  0  0
 56 79  1  0  0  0  0
 57 58  1  0  0  0  0
 57 60  1  0  0  0  0
 58 90  1  0  0  0  0
 61 69  1  0  0  0  0
 62 70  1  0  0  0  0
 63 71  1  0  0  0  0
 64 71  1  0  0  0  0
 65 71  1  0  0  0  0
 66 82  1  0  0  0  0
 67 70  1  0  0  0  0
 67 89  1  0  0  0  0
 68 71  1  0  0  0  0
 68 81  1  0  0  0  0
 69 82  1  0  0  0  0
 70 90  1  0  0  0  0
 72 73  1  0  0  0  0
M  CHG  1  82   1
M  ISO  4  38 100  67 101  76 100  89 101
M  END
> <Batch ID>
0165

> <Smiles>
CNC(C)C(=O)NC(C(=O)N1Cc2cc([101O:1][101CH2:1]C(C)OC34CC3(C)c3cc(NC5CC[100N:0]([100C:0](=O)N6CCCC(n7nc(-c8ccc(Oc9ccc(F)cc9F)cc8)c(C(N)=O)c7N)C6)CC5)cc(C)c34)ccc2CC1C(=O)NC1CCCc2ccccc21)C(C)(C)C

> <Shape>
0.309

> <Color>
0.088

> <Negative vol penalty>
0.000

$$$$

  -OEChem-04052322223D

 89 98  0     1  0  0  0  0  0999 V2000
  -28.1278  -36.1597   19.8169 C   0  0  0  0  0  0  0  0  0  0  0  0
  -28.4123  -34.8149   20.0318 C   0  0  0  0  0  0  0  0  0  0  0  0
  -25.1833  -16.4601   22.3050 C   0  0  0  0  0  0  0  0  0  0  0  0
  -24.0327  -16.5373   20.1819 C   0  0  0  0  0  0  0  0  0  0  0  0
  -27.0536  -36.7575   20.4746 C   0  0  0  0  0  0  0  0  0  0  0  0
  -27.6233  -34.0675   20.9055 C   0  0  0  0  0  0  0  0  0  0  0  0
  -26.4068  -29.5266   19.0227 C   0  0  0  0  0  0  0  0  0  0  0  0
  -24.7752  -17.7665   22.5737 C   0  0  0  0  0  0  0  0  0  0  0  0
  -23.6246  -17.8438   20.4506 C   0  0  0  0  0  0  0  0  0  0  0  0
  -27.3856  -28.5348   19.0696 C   0  0  0  0  0  0  0  0  0  0  0  0
  -22.5807  -21.3250   20.4173 C   0  0  0  0  0  0  0  0  0  0  0  0
  -22.6974  -22.2644   19.3929 C   0  0  0  0  0  0  0  0  0  0  0  0
  -26.3314  -27.5954   21.0254 C   0  0  0  0  0  0  0  0  0  0  0  0
  -29.0898  -23.3310   20.9233 C   0  0  0  0  0  0  0  0  0  0  0  0
  -31.7244  -24.2304   21.1050 C   0  0  0  0  0  0  0  0  0  0  0  0
  -25.0824  -21.8858   19.3175 C   0  0  0  0  0  0  0  0  0  0  0  0
  -24.8121  -15.8455   21.1090 C   0  0  0  0  0  0  0  0  0  0  0  0
  -24.5525  -13.3082   21.1565 C   0  0  0  0  0  0  0  0  0  0  0  0
  -26.2452  -36.0146   21.3494 C   0  0  0  0  0  0  0  0  0  0  0  0
  -25.3875  -29.5667   19.9848 C   0  0  0  0  0  0  0  0  0  0  0  0
  -26.5381  -34.6563   21.5765 C   0  0  0  0  0  0  0  0  0  0  0  0
  -25.3394  -28.5872   20.9870 C   0  0  0  0  0  0  0  0  0  0  0  0
  -29.3526  -24.6904   21.0923 C   0  0  0  0  0  0  0  0  0  0  0  0
  -30.1443  -22.4213   20.8453 C   0  0  0  0  0  0  0  0  0  0  0  0
  -30.6698  -25.1401   21.1831 C   0  0  0  0  0  0  0  0  0  0  0  0
  -23.9958  -18.4584   21.6466 C   0  0  0  0  0  0  0  0  0  0  0  0
  -27.3496  -27.5708   20.0727 C   0  0  0  0  0  0  0  0  0  0  0  0
  -23.7148  -20.6661   20.8920 C   0  0  0  0  0  0  0  0  0  0  0  0
  -31.4616  -22.8710   20.9361 C   0  0  0  0  0  0  0  0  0  0  0  0
  -23.9483  -22.5448   18.8430 C   0  0  0  0  0  0  0  0  0  0  0  0
  -24.9656  -20.9465   20.3420 C   0  0  0  0  0  0  0  0  0  0  0  0
  -25.2339  -14.4962   20.8306 C   0  0  0  0  0  0  0  0  0  0  0  0
  -25.3622  -12.3062   20.6802 C   0  0  0  0  0  0  0  0  0  0  0  0
  -23.2995  -13.1266   21.8294 C   0  0  0  0  0  0  0  0  0  0  0  0
  -24.4765  -31.6544   22.2019 C   0  0  0  0  0  0  0  0  0  0  0  0
  -30.0985  -20.5036   19.2491 C   0  0  0  0  0  0  0  0  0  0  0  0
  -22.0086  -29.5836   22.5811 C   0  0  0  0  0  0  0  0  0  0  0  0
  -20.8148  -26.4050   22.2376 C   0  0  0  0  0  0  0  0  0  0  0  0
  -29.2942  -15.2939   17.9599 C   0  0  0  0  0  0  0  0  0  0  0  0
  -25.1238  -36.7162   22.0738 C   0  0  0  0  0  0  0  0  0  0  0  0
  -24.3239  -30.6272   19.9046 C   0  0  0  0  0  0  0  0  0  0  0  0
  -24.2546  -28.5741   22.0317 C   0  0  0  0  0  0  0  0  0  0  0  0
  -24.1088  -35.7607   22.6961 C   0  0  0  0  0  0  0  0  0  0  0  0
  -29.5715  -13.0289   20.9256 C   0  0  0  0  0  0  0  0  0  0  0  0
  -24.8211  -34.6400   23.4466 C   0  0  0  0  0  0  0  0  0  0  0  0
  -28.7049  -11.8546   20.4754 C   0  0  0  0  0  0  0  0  0  0  0  0
  -30.1889  -13.7396   19.7293 C   0  0  0  0  0  0  0  0  0  0  0  0
  -30.0371  -18.6563   17.6102 C   0  0  0  0  0  0  0  0  0  0  0  0
  -29.1433  -18.2387   19.8862 C   0  0  0  0  0  0  0  0  0  0  0  0
  -30.7185  -17.2945   17.6418 C   0  0  0  0  0  0  0  0  0  0  0  0
  -29.8064  -16.8600   19.8875 C   0  0  0  0  0  0  0  0  0  0  0  0
  -28.2852  -13.0652   18.2911 C   0  0  0  0  0  0  0  0  0  0  0  0
  -25.6904  -33.8061   22.4977 C   0  0  1  0  0  0  0  0  0  0  0  0
  -23.6262  -30.8758   21.2383 C   0  0  1  0  0  0  0  0  0  0  0  0
  -27.6374  -12.2741   19.4454 C   0  0  2  0  0  0  0  0  0  0  0  0
  -30.9761  -26.5906   21.3641 C   0  0  0  0  0  0  0  0  0  0  0  0
  -18.7746  -25.0095   22.6705 C   0  0  0  0  0  0  0  0  0  0  0  0
  -22.6990  -29.5002   25.5521 C   0  0  0  0  0  0  0  0  0  0  0  0
  -21.3001  -27.4331   25.7478 C   0  0  0  0  0  0  0  0  0  0  0  0
  -20.2501  -29.5862   25.0521 C   0  0  0  0  0  0  0  0  0  0  0  0
  -20.4859  -25.7861   19.3623 C   0  0  0  0  0  0  0  0  0  0  0  0
  -33.8167  -22.5416   20.9652 C   0  0  0  0  0  0  0  0  0  0  0  0
  -29.8435  -20.9635   20.6626 C   0  0  0  0  0  0  0  0  0  0  0  0
  -28.2077  -25.6460   21.1749 C   0  0  0  0  0  0  0  0  0  1  0  0
  -21.7586  -28.3630   23.4335 C   0  0  1  0  0  0  0  0  0  0  0  0
  -19.5145  -25.8741   21.6617 C   0  0  2  0  0  0  0  0  0  0  0  0
  -21.5236  -28.7217   24.9280 C   0  0  0  0  0  0  0  0  0  0  0  0
  -26.3878  -14.2714   20.1966 N   0  0  0  0  0  0  0  0  0  0  0  0
  -26.4377  -12.9306   20.1202 N   0  0  0  0  0  0  0  0  0  0  0  0
  -23.2410  -29.6355   21.9146 N   0  0  0  0  0  0  0  0  0  0  0  0
  -29.8078  -19.1685   18.9637 N   0  0  0  0  0  0  0  0  0  0  0  0
  -29.1703  -14.1390   18.7513 N   0  0  0  0  0  0  0  0  0  0  0  0
  -29.9985  -16.3720   18.5168 N   0  0  0  0  0  0  0  0  0  0  0  0
  -25.2521  -10.9608   20.6901 N   0  0  0  0  0  0  0  0  0  0  0  0
  -22.5972  -14.2635   22.2521 N   0  0  0  0  0  0  0  0  0  0  0  0
  -24.8696  -32.8928   21.7317 N   0  0  0  0  0  0  0  0  0  0  0  0
  -20.6501  -27.6491   22.8089 N   0  0  0  0  0  0  0  0  0  0  0  0
  -19.7828  -25.0537   20.4468 N   0  3  0  0  0  0  0  0  0  0  0  0
  -22.8248  -11.9894   22.0638 O   0  0  0  0  0  0  0  0  0  0  0  0
  -24.7541  -31.1681   23.2919 O   0  0  0  0  0  0  0  0  0  0  0  0
  -30.5457  -21.3061   18.4257 O   0  0  0  0  0  0  0  0  0  0  0  0
  -21.1394  -30.4555   22.5037 O   0  0  0  0  0  0  0  0  0  0  0  0
  -21.8702  -25.7771   22.1891 O   0  0  0  0  0  0  0  0  0  0  0  0
  -28.7940  -15.3592   16.8300 O   0  0  0  0  0  0  0  0  0  0  0  0
  -23.5972  -19.7332   21.9086 O   0  0  0  0  0  0  0  0  0  0  0  0
  -32.5032  -21.9956   20.8632 O   0  0  0  0  0  0  0  0  0  0  0  0
  -28.3109  -26.5951   20.1216 O   0  0  0  0  0  0  0  0  0  1  0  0
  -24.0600  -23.4458   17.8581 F   0  0  0  0  0  0  0  0  0  0  0  0
  -26.0586  -20.3158   20.7930 F   0  0  0  0  0  0  0  0  0  0  0  0
  1  2  1  0  0  0  0
  1  5  2  0  0  0  0
  2  6  2  0  0  0  0
  3  8  2  0  0  0  0
  3 17  1  0  0  0  0
  4  9  1  0  0  0  0
  4 17  2  0  0  0  0
  5 19  1  0  0  0  0
  6 21  1  0  0  0  0
  7 10  2  0  0  0  0
  7 20  1  0  0  0  0
  8 26  1  0  0  0  0
  9 26  2  0  0  0  0
 10 27  1  0  0  0  0
 11 12  2  0  0  0  0
 11 28  1  0  0  0  0
 12 30  1  0  0  0  0
 13 22  1  0  0  0  0
 13 27  2  0  0  0  0
 14 23  1  0  0  0  0
 14 24  2  0  0  0  0
 15 25  1  0  0  0  0
 15 29  2  0  0  0  0
 16 30  2  0  0  0  0
 16 31  1  0  0  0  0
 17 32  1  0  0  0  0
 18 32  1  0  0  0  0
 18 33  2  0  0  0  0
 18 34  1  0  0  0  0
 19 21  2  0  0  0  0
 19 40  1  0  0  0  0
 20 22  2  0  0  0  0
 20 41  1  0  0  0  0
 21 53  1  0  0  0  0
 22 42  1  0  0  0  0
 23 25  2  0  0  0  0
 23 64  1  0  0  0  0
 24 29  1  0  0  0  0
 24 63  1  0  0  0  0
 25 56  1  0  0  0  0
 26 85  1  0  0  0  0
 27 87  1  0  0  0  0
 28 31  2  0  0  0  0
 28 85  1  0  0  0  0
 29 86  1  0  0  0  0
 30 88  1  0  0  0  0
 31 89  1  0  0  0  0
 32 68  2  0  0  0  0
 33 69  1  0  0  0  0
 33 74  1  0  0  0  0
 34 75  1  0  0  0  0
 34 79  2  0  0  0  0
 35 54  1  0  0  0  0
 35 76  1  0  0  0  0
 35 80  2  0  0  0  0
 36 63  1  0  0  0  0
 36 71  1  0  0  0  0
 36 81  2  0  0  0  0
 37 65  1  0  0  0  0
 37 70  1  0  0  0  0
 37 82  2  0  0  0  0
 38 66  1  0  0  0  0
 38 77  1  0  0  0  0
 38 83  2  0  0  0  0
 39 72  1  0  0  0  0
 39 73  1  0  0  0  0
 39 84  2  0  0  0  0
 40 43  1  0  0  0  0
 41 54  1  0  0  0  0
 42 70  1  0  0  0  0
 43 45  1  0  0  0  0
 44 46  1  0  0  0  0
 44 47  1  0  0  0  0
 45 53  1  0  0  0  0
 46 55  1  0  0  0  0
 47 72  1  0  0  0  0
 48 50  1  0  0  0  0
 48 71  1  0  0  0  0
 49 51  1  0  0  0  0
 49 71  1  0  0  0  0
 50 73  1  0  0  0  0
 51 73  1  0  0  0  0
 52 55  1  0  0  0  0
 52 72  1  0  0  0  0
 53 76  1  0  0  0  0
 54 70  1  0  0  0  0
 55 69  1  0  0  0  0
 57 66  1  0  0  0  0
 58 67  1  0  0  0  0
 59 67  1  0  0  0  0
 60 67  1  0  0  0  0
 61 78  1  0  0  0  0
 62 86  1  0  0  0  0
 64 87  1  0  0  0  0
 65 67  1  0  0  0  0
 65 77  1  0  0  0  0
 66 78  1  0  0  0  0
 68 69  1  0  0  0  0
M  CHG  1  78   1
M  ISO  4  39 100  64 101  73 100  87 101
M  END
> <Batch ID>
0165

> <Smiles>
CNC(C)C(=O)NC(C(=O)N1Cc2cc([101O:1][101CH2:1]c3cc(CC(=O)N4CC[100N:0]([100C:0](=O)N5CCCC(n6nc(-c7ccc(Oc8ccc(F)cc8F)cc7)c(C(N)=O)c6N)C5)CC4)c(OC)cc3C)ccc2CC1C(=O)NC1CCCc2ccccc21)C(C)(C)C

> <Shape>
0.289

> <Color>
0.089

> <Negative vol penalty>
0.000

$$$$

  -OEChem-04052322223D

 91101  0     1  0  0  0  0  0999 V2000
  -28.0959  -33.7121   22.1882 C   0  0  0  0  0  0  0  0  0  0  0  0
  -27.9796  -32.3440   21.9641 C   0  0  0  0  0  0  0  0  0  0  0  0
  -22.9829   -9.8607   20.0296 C   0  0  0  0  0  0  0  0  0  0  0  0
  -23.5548  -10.0934   22.3653 C   0  0  0  0  0  0  0  0  0  0  0  0
  -27.1485  -34.3723   22.9695 C   0  0  0  0  0  0  0  0  0  0  0  0
  -26.9164  -31.6351   22.5222 C   0  0  0  0  0  0  0  0  0  0  0  0
  -24.7693  -28.4422   19.2297 C   0  0  0  0  0  0  0  0  0  0  0  0
  -22.1626   -8.7757   20.3385 C   0  0  0  0  0  0  0  0  0  0  0  0
  -22.7344   -9.0084   22.6743 C   0  0  0  0  0  0  0  0  0  0  0  0
  -25.4319  -27.2405   18.9836 C   0  0  0  0  0  0  0  0  0  0  0  0
  -22.8968   -5.6355   22.5081 C   0  0  0  0  0  0  0  0  0  0  0  0
  -23.3985   -4.6722   23.3834 C   0  0  0  0  0  0  0  0  0  0  0  0
  -23.9290  -26.1094   20.4939 C   0  0  0  0  0  0  0  0  0  0  0  0
  -28.6364  -20.7598   23.3156 C   0  0  0  0  0  0  0  0  0  0  0  0
  -21.5763   -5.1091   24.9085 C   0  0  0  0  0  0  0  0  0  0  0  0
  -23.6791  -10.5195   21.0430 C   0  0  0  0  0  0  0  0  0  0  0  0
  -24.1598  -12.9983   20.6792 C   0  0  0  0  0  0  0  0  0  0  0  0
  -26.0678  -33.6729   23.5295 C   0  0  0  0  0  0  0  0  0  0  0  0
  -23.6865  -28.4887   20.1196 C   0  0  0  0  0  0  0  0  0  0  0  0
  -25.9544  -32.2863   23.3128 C   0  0  0  0  0  0  0  0  0  0  0  0
  -23.2527  -27.3125   20.7477 C   0  0  0  0  0  0  0  0  0  0  0  0
  -27.2277  -21.9922   21.2469 C   0  0  0  0  0  0  0  0  0  0  0  0
  -28.8811  -22.0975   23.0054 C   0  0  0  0  0  0  0  0  0  0  0  0
  -27.6873  -20.0382   22.5915 C   0  0  0  0  0  0  0  0  0  0  0  0
  -28.1768  -22.7137   21.9711 C   0  0  0  0  0  0  0  0  0  0  0  0
  -26.9829  -20.6545   21.5572 C   0  0  0  0  0  0  0  0  0  0  0  0
  -22.0383   -8.3496   21.6608 C   0  0  0  0  0  0  0  0  0  0  0  0
  -25.0136  -26.0744   19.6180 C   0  0  0  0  0  0  0  0  0  0  0  0
  -21.7349   -6.3356   22.8331 C   0  0  0  0  0  0  0  0  0  0  0  0
  -22.7382   -4.4090   24.5835 C   0  0  0  0  0  0  0  0  0  0  0  0
  -21.0747   -6.0723   24.0332 C   0  0  0  0  0  0  0  0  0  0  0  0
  -24.5271  -11.6400   20.7244 C   0  0  0  0  0  0  0  0  0  0  0  0
  -25.3150  -13.6549   20.3318 C   0  0  0  0  0  0  0  0  0  0  0  0
  -22.8881  -13.6115   20.9290 C   0  0  0  0  0  0  0  0  0  0  0  0
  -23.1010  -29.9822   22.8638 C   0  0  0  0  0  0  0  0  0  0  0  0
  -20.1403  -28.7163   22.4713 C   0  0  0  0  0  0  0  0  0  0  0  0
  -18.1890  -26.2884   21.0768 C   0  0  0  0  0  0  0  0  0  0  0  0
  -30.7084  -14.5207   20.6969 C   0  0  0  0  0  0  0  0  0  0  0  0
  -25.0949  -34.4210   24.4061 C   0  0  0  0  0  0  0  0  0  0  0  0
  -22.9655  -29.7878   20.3539 C   0  0  0  0  0  0  0  0  0  0  0  0
  -22.0828  -27.3051   21.6962 C   0  0  0  0  0  0  0  0  0  0  0  0
  -23.7912  -33.6657   24.6517 C   0  0  0  0  0  0  0  0  0  0  0  0
  -29.7468  -11.8914   18.6681 C   0  0  0  0  0  0  0  0  0  0  0  0
  -24.0770  -32.2134   25.0204 C   0  0  0  0  0  0  0  0  0  0  0  0
  -28.2698  -11.6924   19.0078 C   0  0  0  0  0  0  0  0  0  0  0  0
  -29.1571  -17.8375   21.2619 C   0  0  0  0  0  0  0  0  0  0  0  0
  -28.4625  -16.2830   23.1193 C   0  0  0  0  0  0  0  0  0  0  0  0
  -24.9686  -22.6285   20.1663 C   0  0  0  0  0  0  0  0  0  0  0  0
  -30.5629  -12.1721   19.9248 C   0  0  0  0  0  0  0  0  0  0  0  0
  -30.3667  -16.9464   20.9935 C   0  0  0  0  0  0  0  0  0  0  0  0
  -29.6873  -15.4249   22.8199 C   0  0  0  0  0  0  0  0  0  0  0  0
  -28.5998  -13.1609   21.0579 C   0  0  0  0  0  0  0  0  0  0  0  0
  -26.4722  -22.6522   20.1368 C   0  0  1  0  0  0  0  0  0  0  0  0
  -24.8015  -31.4872   23.8806 C   0  0  1  0  0  0  0  0  0  0  0  0
  -22.1997  -29.8167   21.6730 C   0  0  1  0  0  0  0  0  0  0  0  0
  -28.6983  -17.7468   22.7230 C   0  0  0  0  0  0  0  0  0  0  0  0
  -27.7246  -12.8807   19.8197 C   0  0  2  0  0  0  0  0  0  0  0  0
  -25.6978  -23.9097   20.4330 C   0  0  1  0  0  0  0  0  0  1  0  0
  -29.9040  -22.8469   23.7947 C   0  0  0  0  0  0  0  0  0  0  0  0
  -28.4429  -24.1486   21.6409 C   0  0  0  0  0  0  0  0  0  0  0  0
  -25.9667  -19.8756   20.7830 C   0  0  0  0  0  0  0  0  0  0  0  0
  -25.6145  -19.1316   24.6650 C   0  0  0  0  0  0  0  0  0  0  0  0
  -15.8115  -25.4928   20.9678 C   0  0  0  0  0  0  0  0  0  0  0  0
  -20.4071  -27.5421   25.2749 C   0  0  0  0  0  0  0  0  0  0  0  0
  -18.4914  -26.0202   24.7443 C   0  0  0  0  0  0  0  0  0  0  0  0
  -18.1535  -28.4917   24.7517 C   0  0  0  0  0  0  0  0  0  0  0  0
  -18.0668  -26.6903   18.1472 C   0  0  0  0  0  0  0  0  0  0  0  0
  -26.9223  -18.3976   24.3948 C   0  0  0  0  0  0  0  0  0  0  0  0
  -27.4399  -18.5807   22.9509 C   0  0  1  0  0  0  0  0  0  0  0  0
  -19.4674  -27.4260   22.8729 C   0  0  1  0  0  0  0  0  0  0  0  0
  -16.8761  -26.3632   20.3184 C   0  0  2  0  0  0  0  0  0  0  0  0
  -19.1531  -27.3702   24.3946 C   0  0  0  0  0  0  0  0  0  0  0  0
  -25.8149  -11.4440   20.4292 N   0  0  0  0  0  0  0  0  0  0  0  0
  -26.2669  -12.6877   20.1951 N   0  0  0  0  0  0  0  0  0  0  0  0
  -21.4144  -28.6014   21.8975 N   0  0  0  0  0  0  0  0  0  0  0  0
  -30.0109  -13.3036   20.6697 N   0  0  0  0  0  0  0  0  0  0  0  0
  -30.1241  -15.5705   21.4249 N   0  0  0  0  0  0  0  0  0  0  0  0
  -25.5993  -14.9596   20.1330 N   0  0  0  0  0  0  0  0  0  0  0  0
  -21.8066  -12.7900   21.2749 N   0  0  0  0  0  0  0  0  0  0  0  0
  -23.8677  -31.1314   22.8338 N   0  0  0  0  0  0  0  0  0  0  0  0
  -18.2947  -27.2930   22.0153 N   0  0  0  0  0  0  0  0  0  0  0  0
  -17.0634  -25.9062   18.9123 N   0  3  0  0  0  0  0  0  0  0  0  0
  -22.7121  -14.8497   20.8318 O   0  0  0  0  0  0  0  0  0  0  0  0
  -23.0997  -29.1309   23.7454 O   0  0  0  0  0  0  0  0  0  0  0  0
  -19.5539  -29.7862   22.6532 O   0  0  0  0  0  0  0  0  0  0  0  0
  -19.0345  -25.4228   20.8611 O   0  0  0  0  0  0  0  0  0  0  0  0
  -31.7850  -14.6650   20.1044 O   0  0  0  0  0  0  0  0  0  0  0  0
  -21.2377   -7.2910   21.9627 O   0  0  0  0  0  0  0  0  0  0  0  0
  -25.6684  -24.8833   19.3766 O   0  0  0  0  0  0  0  0  0  1  0  0
  -23.2192   -3.4829   25.4232 F   0  0  0  0  0  0  0  0  0  0  0  0
  -19.9574   -6.7409   24.3503 F   0  0  0  0  0  0  0  0  0  0  0  0
  1  2  1  0  0  0  0
  1  5  2  0  0  0  0
  2  6  2  0  0  0  0
  3  8  2  0  0  0  0
  3 16  1  0  0  0  0
  4  9  1  0  0  0  0
  4 16  2  0  0  0  0
  5 18  1  0  0  0  0
  6 20  1  0  0  0  0
  7 10  2  0  0  0  0
  7 19  1  0  0  0  0
  8 27  1  0  0  0  0
  9 27  2  0  0  0  0
 10 28  1  0  0  0  0
 11 12  2  0  0  0  0
 11 29  1  0  0  0  0
 12 30  1  0  0  0  0
 13 21  1  0  0  0  0
 13 28  2  0  0  0  0
 14 23  2  0  0  0  0
 14 24  1  0  0  0  0
 15 30  2  0  0  0  0
 15 31  1  0  0  0  0
 16 32  1  0  0  0  0
 17 32  1  0  0  0  0
 17 33  2  0  0  0  0
 17 34  1  0  0  0  0
 18 20  2  0  0  0  0
 18 39  1  0  0  0  0
 19 21  2  0  0  0  0
 19 40  1  0  0  0  0
 20 54  1  0  0  0  0
 21 41  1  0  0  0  0
 22 25  2  0  0  0  0
 22 26  1  0  0  0  0
 22 53  1  0  0  0  0
 23 25  1  0  0  0  0
 23 59  1  0  0  0  0
 24 26  2  0  0  0  0
 24 69  1  0  0  0  0
 25 60  1  0  0  0  0
 26 61  1  0  0  0  0
 27 88  1  0  0  0  0
 28 89  1  0  0  0  0
 29 31  2  0  0  0  0
 29 88  1  0  0  0  0
 30 90  1  0  0  0  0
 31 91  1  0  0  0  0
 32 73  2  0  0  0  0
 33 74  1  0  0  0  0
 33 78  1  0  0  0  0
 34 79  1  0  0  0  0
 34 83  2  0  0  0  0
 35 55  1  0  0  0  0
 35 80  1  0  0  0  0
 35 84  2  0  0  0  0
 36 70  1  0  0  0  0
 36 75  1  0  0  0  0
 36 85  2  0  0  0  0
 37 71  1  0  0  0  0
 37 81  1  0  0  0  0
 37 86  2  0  0  0  0
 38 76  1  0  0  0  0
 38 77  1  0  0  0  0
 38 87  2  0  0  0  0
 39 42  1  0  0  0  0
 40 55  1  0  0  0  0
 41 75  1  0  0  0  0
 42 44  1  0  0  0  0
 43 45  1  0  0  0  0
 43 49  1  0  0  0  0
 44 54  1  0  0  0  0
 45 57  1  0  0  0  0
 46 50  1  0  0  0  0
 46 56  1  0  0  0  0
 47 51  1  0  0  0  0
 47 56  1  0  0  0  0
 48 53  1  0  0  0  0
 48 58  1  0  0  0  0
 49 76  1  0  0  0  0
 50 77  1  0  0  0  0
 51 77  1  0  0  0  0
 52 57  1  0  0  0  0
 52 76  1  0  0  0  0
 53 58  1  0  0  0  0
 54 80  1  0  0  0  0
 55 75  1  0  0  0  0
 56 69  1  0  0  0  0
 57 74  1  0  0  0  0
 58 89  1  0  0  0  0
 62 68  1  0  0  0  0
 63 71  1  0  0  0  0
 64 72  1  0  0  0  0
 65 72  1  0  0  0  0
 66 72  1  0  0  0  0
 67 82  1  0  0  0  0
 68 69  1  0  0  0  0
 70 72  1  0  0  0  0
 70 81  1  0  0  0  0
 71 82  1  0  0  0  0
 73 74  1  0  0  0  0
M  CHG  1  82   1
M  ISO  4  38 100  58 101  77 100  89 101
M  END
> <Batch ID>
0165

> <Smiles>
CCC(c1cc(C)c(C)c(C2C[101CH:1]2[101O:1]c2ccc3c(c2)CN(C(=O)C(NC(=O)C(C)NC)C(C)(C)C)C(C(=O)NC2CCCc4ccccc42)C3)c1C)C1CC[100N:0]([100C:0](=O)N2CCCC(n3nc(-c4ccc(Oc5ccc(F)cc5F)cc4)c(C(N)=O)c3N)C2)CC1

> <Shape>
0.366

> <Color>
0.210

> <Negative vol penalty>
0.000

$$$$

  -OEChem-04052322223D

 86 95  0     1  0  0  0  0  0999 V2000
  -19.8492  -10.9958   21.1220 C   0  0  0  0  0  0  0  0  0  0  0  0
  -20.7019  -11.9798   21.6121 C   0  0  0  0  0  0  0  0  0  0  0  0
  -26.2504  -31.3472   22.4026 C   0  0  0  0  0  0  0  0  0  0  0  0
  -26.1262  -32.1804   20.1382 C   0  0  0  0  0  0  0  0  0  0  0  0
  -20.3464   -9.7263   20.8304 C   0  0  0  0  0  0  0  0  0  0  0  0
  -22.0520  -11.6944   21.8121 C   0  0  0  0  0  0  0  0  0  0  0  0
  -25.0888  -15.3633   20.0910 C   0  0  0  0  0  0  0  0  0  0  0  0
  -26.3082  -32.6561   22.8811 C   0  0  0  0  0  0  0  0  0  0  0  0
  -26.1840  -33.4894   20.6167 C   0  0  0  0  0  0  0  0  0  0  0  0
  -25.2203  -16.5041   20.8815 C   0  0  0  0  0  0  0  0  0  0  0  0
  -24.1512  -35.1958   23.4558 C   0  0  0  0  0  0  0  0  0  0  0  0
  -23.3499  -35.5220   24.5500 C   0  0  0  0  0  0  0  0  0  0  0  0
  -27.3207  -15.6700   21.7253 C   0  0  0  0  0  0  0  0  0  0  0  0
  -25.9193  -20.7649   25.5340 C   0  0  0  0  0  0  0  0  0  0  0  0
  -25.3205  -36.1131   25.8168 C   0  0  0  0  0  0  0  0  0  0  0  0
  -26.1595  -31.1093   21.0311 C   0  0  0  0  0  0  0  0  0  0  0  0
  -24.9457  -28.9832   20.3144 C   0  0  0  0  0  0  0  0  0  0  0  0
  -21.7053   -9.4280   21.0178 C   0  0  0  0  0  0  0  0  0  0  0  0
  -26.0686  -14.3605   20.1199 C   0  0  0  0  0  0  0  0  0  0  0  0
  -22.5676  -10.4193   21.5241 C   0  0  0  0  0  0  0  0  0  0  0  0
  -27.2005  -14.5186   20.9322 C   0  0  0  0  0  0  0  0  0  0  0  0
  -26.2097  -21.1209   22.7647 C   0  0  0  0  0  0  0  0  0  0  0  0
  -26.5140  -22.1754   23.6419 C   0  0  0  0  0  0  0  0  0  0  0  0
  -25.6182  -19.7211   24.6666 C   0  0  0  0  0  0  0  0  0  0  0  0
  -25.7603  -19.8983   23.2910 C   0  0  0  0  0  0  0  0  0  0  0  0
  -26.2750  -33.7272   21.9882 C   0  0  0  0  0  0  0  0  0  0  0  0
  -26.3349  -16.6563   21.7010 C   0  0  0  0  0  0  0  0  0  0  0  0
  -25.5371  -35.3281   23.5421 C   0  0  0  0  0  0  0  0  0  0  0  0
  -26.3626  -21.9849   25.0253 C   0  0  0  0  0  0  0  0  0  0  0  0
  -23.9346  -35.9807   25.7304 C   0  0  0  0  0  0  0  0  0  0  0  0
  -26.1217  -35.7868   24.7226 C   0  0  0  0  0  0  0  0  0  0  0  0
  -26.1003  -29.7574   20.5362 C   0  0  0  0  0  0  0  0  0  0  0  0
  -25.4218  -27.7831   19.8458 C   0  0  0  0  0  0  0  0  0  0  0  0
  -23.5661  -29.3187   20.5140 C   0  0  0  0  0  0  0  0  0  0  0  0
  -26.1100  -11.2876   20.9322 C   0  0  0  0  0  0  0  0  0  0  0  0
  -29.1427  -11.4281   19.7898 C   0  0  0  0  0  0  0  0  0  0  0  0
  -31.8852  -13.3303   19.0777 C   0  0  0  0  0  0  0  0  0  0  0  0
  -28.9382  -23.5801   19.9482 C   0  0  0  0  0  0  0  0  0  0  0  0
  -22.1871   -8.0275   20.7332 C   0  0  0  0  0  0  0  0  0  0  0  0
  -25.9250  -13.1482   19.2411 C   0  0  0  0  0  0  0  0  0  0  0  0
  -26.3411  -21.2801   21.2717 C   0  0  0  0  0  0  0  0  0  0  0  0
  -26.9908  -23.5073   23.1246 C   0  0  0  0  0  0  0  0  0  0  0  0
  -28.2906  -13.4805   20.9843 C   0  0  0  0  0  0  0  0  0  0  0  0
  -23.7053   -7.9170   20.6190 C   0  0  0  0  0  0  0  0  0  0  0  0
  -30.0400  -26.4288   18.3143 C   0  0  0  0  0  0  0  0  0  0  0  0
  -24.3824   -8.6604   21.7661 C   0  0  0  0  0  0  0  0  0  0  0  0
  -29.0260  -27.4975   18.7213 C   0  0  0  0  0  0  0  0  0  0  0  0
  -28.3249  -23.4165   22.3860 C   0  0  0  0  0  0  0  0  0  0  0  0
  -30.3925  -25.5332   19.4963 C   0  0  0  0  0  0  0  0  0  0  0  0
  -28.1851  -25.9282   20.5377 C   0  0  0  0  0  0  0  0  0  0  0  0
  -24.0433  -10.1555   21.7309 C   0  0  1  0  0  0  0  0  0  0  0  0
  -26.7319  -11.9520   19.7366 C   0  0  1  0  0  0  0  0  0  0  0  0
  -27.7876  -26.8610   19.3761 C   0  0  1  0  0  0  0  0  0  0  0  0
  -27.7622  -21.5570   20.7495 C   0  0  2  0  0  0  0  0  0  0  0  0
  -25.1456  -18.4242   25.2385 C   0  0  0  0  0  0  0  0  0  0  0  0
  -30.1186  -20.7437   20.5620 C   0  0  0  0  0  0  0  0  0  0  0  0
  -34.2253  -13.1576   18.1880 C   0  0  0  0  0  0  0  0  0  0  0  0
  -30.0669  -10.2626   22.4539 C   0  0  0  0  0  0  0  0  0  0  0  0
  -32.3937  -10.9924   21.8865 C   0  0  0  0  0  0  0  0  0  0  0  0
  -31.2257   -9.3238   20.4463 C   0  0  0  0  0  0  0  0  0  0  0  0
  -31.2747  -15.1173   16.7989 C   0  0  0  0  0  0  0  0  0  0  0  0
  -25.4265  -18.7403   22.3992 C   0  0  0  0  0  0  0  0  0  1  0  0
  -28.7895  -20.5125   21.1986 C   0  0  0  0  0  0  0  0  0  0  0  0
  -30.4949  -11.7432   20.3825 C   0  0  1  0  0  0  0  0  0  0  0  0
  -32.7652  -13.4065   17.8431 C   0  0  2  0  0  0  0  0  0  0  0  0
  -31.0240  -10.5993   21.2930 C   0  0  0  0  0  0  0  0  0  0  0  0
  -27.2252  -29.1041   20.2336 N   0  0  0  0  0  0  0  0  0  0  0  0
  -26.7798  -27.9066   19.8169 N   0  0  0  0  0  0  0  0  0  0  0  0
  -28.1014  -12.3102   20.1114 N   0  0  0  0  0  0  0  0  0  0  0  0
  -29.1914  -24.9526   20.0967 N   0  0  0  0  0  0  0  0  0  0  0  0
  -28.2237  -22.9418   20.9912 N   0  0  0  0  0  0  0  0  0  0  0  0
  -24.8072  -26.6448   19.4599 N   0  0  0  0  0  0  0  0  0  0  0  0
  -23.2527  -30.5948   21.0015 N   0  0  0  0  0  0  0  0  0  0  0  0
  -24.8253  -10.8274   20.7153 N   0  0  0  0  0  0  0  0  0  0  0  0
  -31.3681  -12.0650   19.2590 N   0  0  0  0  0  0  0  0  0  0  0  0
  -32.6545  -14.7512   17.2103 N   0  3  0  0  0  0  0  0  0  0  0  0
  -22.6397  -28.5052   20.2829 O   0  0  0  0  0  0  0  0  0  0  0  0
  -26.7490  -11.1979   21.9740 O   0  0  0  0  0  0  0  0  0  0  0  0
  -29.0167  -10.4399   19.0623 O   0  0  0  0  0  0  0  0  0  0  0  0
  -31.6802  -14.2957   19.8102 O   0  0  0  0  0  0  0  0  0  0  0  0
  -29.3237  -22.9603   18.9487 O   0  0  0  0  0  0  0  0  0  0  0  0
  -26.6468  -22.9783   25.9174 O   0  0  0  0  0  0  0  0  0  0  0  0
  -26.3312  -35.0046   22.4547 O   0  0  0  0  0  0  0  0  0  0  0  0
  -26.4664  -17.7772   22.4800 O   0  0  0  0  0  0  0  0  0  1  0  0
  -23.1649  -36.2953   26.7805 F   0  0  0  0  0  0  0  0  0  0  0  0
  -27.4525  -35.9172   24.8111 F   0  0  0  0  0  0  0  0  0  0  0  0
  1  2  1  0  0  0  0
  1  5  2  0  0  0  0
  2  6  2  0  0  0  0
  3  8  2  0  0  0  0
  3 16  1  0  0  0  0
  4  9  1  0  0  0  0
  4 16  2  0  0  0  0
  5 18  1  0  0  0  0
  6 20  1  0  0  0  0
  7 10  2  0  0  0  0
  7 19  1  0  0  0  0
  8 26  1  0  0  0  0
  9 26  2  0  0  0  0
 10 27  1  0  0  0  0
 11 12  2  0  0  0  0
 11 28  1  0  0  0  0
 12 30  1  0  0  0  0
 13 21  1  0  0  0  0
 13 27  2  0  0  0  0
 14 24  2  0  0  0  0
 14 29  1  0  0  0  0
 15 30  2  0  0  0  0
 15 31  1  0  0  0  0
 16 32  1  0  0  0  0
 17 32  1  0  0  0  0
 17 33  2  0  0  0  0
 17 34  1  0  0  0  0
 18 20  2  0  0  0  0
 18 39  1  0  0  0  0
 19 21  2  0  0  0  0
 19 40  1  0  0  0  0
 20 51  1  0  0  0  0
 21 43  1  0  0  0  0
 22 23  1  0  0  0  0
 22 25  2  0  0  0  0
 22 41  1  0  0  0  0
 23 29  2  0  0  0  0
 23 42  1  0  0  0  0
 24 25  1  0  0  0  0
 24 55  1  0  0  0  0
 25 62  1  0  0  0  0
 26 83  1  0  0  0  0
 27 84  1  0  0  0  0
 28 31  2  0  0  0  0
 28 83  1  0  0  0  0
 29 82  1  0  0  0  0
 30 85  1  0  0  0  0
 31 86  1  0  0  0  0
 32 67  2  0  0  0  0
 33 68  1  0  0  0  0
 33 72  1  0  0  0  0
 34 73  1  0  0  0  0
 34 77  2  0  0  0  0
 35 52  1  0  0  0  0
 35 74  1  0  0  0  0
 35 78  2  0  0  0  0
 36 64  1  0  0  0  0
 36 69  1  0  0  0  0
 36 79  2  0  0  0  0
 37 65  1  0  0  0  0
 37 75  1  0  0  0  0
 37 80  2  0  0  0  0
 38 70  1  0  0  0  0
 38 71  1  0  0  0  0
 38 81  2  0  0  0  0
 39 44  1  0  0  0  0
 40 52  1  0  0  0  0
 41 54  1  0  0  0  0
 42 48  1  0  0  0  0
 43 69  1  0  0  0  0
 44 46  1  0  0  0  0
 45 47  1  0  0  0  0
 45 49  1  0  0  0  0
 46 51  1  0  0  0  0
 47 53  1  0  0  0  0
 48 71  1  0  0  0  0
 49 70  1  0  0  0  0
 50 53  1  0  0  0  0
 50 70  1  0  0  0  0
 51 74  1  0  0  0  0
 52 69  1  0  0  0  0
 53 68  1  0  0  0  0
 54 63  1  0  0  0  0
 54 71  1  0  0  0  0
 56 63  1  0  0  0  0
 57 65  1  0  0  0  0
 58 66  1  0  0  0  0
 59 66  1  0  0  0  0
 60 66  1  0  0  0  0
 61 76  1  0  0  0  0
 62 84  1  0  0  0  0
 64 66  1  0  0  0  0
 64 75  1  0  0  0  0
 65 76  1  0  0  0  0
 67 68  1  0  0  0  0
M  CHG  1  76   1
M  ISO  4  38 100  62 101  71 100  84 101
M  END
> <Batch ID>
0165

> <Smiles>
CCC1Cc2c(c(O)cc(C)c2[101CH2:1][101O:1]c2ccc3c(c2)CN(C(=O)C(NC(=O)C(C)NC)C(C)(C)C)C(C(=O)NC2CCCc4ccccc42)C3)CC[100N:0]1[100C:0](=O)N1CCCC(n2nc(-c3ccc(Oc4ccc(F)cc4F)cc3)c(C(N)=O)c2N)C1

> <Shape>
0.293

> <Color>
0.086

> <Negative vol penalty>
0.000

$$$$

  -OEChem-04052322223D

 93103  0     1  0  0  0  0  0999 V2000
  -28.0006  -38.2183   24.2067 C   0  0  0  0  0  0  0  0  0  0  0  0
  -28.3106  -37.1634   25.0591 C   0  0  0  0  0  0  0  0  0  0  0  0
  -21.3129   -6.1646   22.2220 C   0  0  0  0  0  0  0  0  0  0  0  0
  -22.9043   -6.8178   23.9184 C   0  0  0  0  0  0  0  0  0  0  0  0
  -26.7508  -38.2714   23.5910 C   0  0  0  0  0  0  0  0  0  0  0  0
  -27.3704  -36.1615   25.2971 C   0  0  0  0  0  0  0  0  0  0  0  0
  -27.9484  -28.4303   24.3372 C   0  0  0  0  0  0  0  0  0  0  0  0
  -26.9741  -22.1451   24.1153 C   0  0  0  0  0  0  0  0  0  0  0  0
  -20.9179   -5.0829   23.0090 C   0  0  0  0  0  0  0  0  0  0  0  0
  -22.5092   -5.7361   24.7055 C   0  0  0  0  0  0  0  0  0  0  0  0
  -27.8765  -27.0650   24.0598 C   0  0  0  0  0  0  0  0  0  0  0  0
  -26.7241  -20.8082   23.8061 C   0  0  0  0  0  0  0  0  0  0  0  0
  -19.7440   -1.9416   24.4153 C   0  0  0  0  0  0  0  0  0  0  0  0
  -19.5924   -0.7039   23.7903 C   0  0  0  0  0  0  0  0  0  0  0  0
  -25.4793  -27.2349   23.7911 C   0  0  0  0  0  0  0  0  0  0  0  0
  -21.9158   -0.7530   23.1296 C   0  0  0  0  0  0  0  0  0  0  0  0
  -22.3062   -7.0320   22.6766 C   0  0  0  0  0  0  0  0  0  0  0  0
  -23.2644   -8.1022   20.5685 C   0  0  0  0  0  0  0  0  0  0  0  0
  -25.7984  -37.2645   23.8140 C   0  0  0  0  0  0  0  0  0  0  0  0
  -26.7865  -29.2070   24.3274 C   0  0  0  0  0  0  0  0  0  0  0  0
  -26.1062  -36.2018   24.6848 C   0  0  0  0  0  0  0  0  0  0  0  0
  -25.5467  -28.6053   24.0559 C   0  0  0  0  0  0  0  0  0  0  0  0
  -27.8841  -22.4865   21.9034 C   0  0  0  0  0  0  0  0  0  0  0  0
  -27.5540  -22.9843   23.1639 C   0  0  0  0  0  0  0  0  0  0  0  0
  -27.6342  -21.1494   21.5943 C   0  0  0  0  0  0  0  0  0  0  0  0
  -21.5160   -4.8687   24.2508 C   0  0  0  0  0  0  0  0  0  0  0  0
  -26.6450  -26.4688   23.7877 C   0  0  0  0  0  0  0  0  0  0  0  0
  -27.0542  -20.3103   22.5457 C   0  0  0  0  0  0  0  0  0  0  0  0
  -20.9815   -2.5850   24.3975 C   0  0  0  0  0  0  0  0  0  0  0  0
  -20.6782   -0.1096   23.1474 C   0  0  0  0  0  0  0  0  0  0  0  0
  -22.0674   -1.9907   23.7546 C   0  0  0  0  0  0  0  0  0  0  0  0
  -22.7151   -8.1493   21.8638 C   0  0  0  0  0  0  0  0  0  0  0  0
  -23.4786   -9.4181   20.2383 C   0  0  0  0  0  0  0  0  0  0  0  0
  -23.5549   -6.9702   19.7379 C   0  0  0  0  0  0  0  0  0  0  0  0
  -25.2564  -32.6065   24.7497 C   0  0  0  0  0  0  0  0  0  0  0  0
  -23.8440  -31.2830   22.3699 C   0  0  0  0  0  0  0  0  0  0  0  0
  -22.8337  -29.6447   19.5534 C   0  0  0  0  0  0  0  0  0  0  0  0
  -25.1860  -14.3957   21.2970 C   0  0  0  0  0  0  0  0  0  0  0  0
  -24.4436  -37.3897   23.1630 C   0  0  0  0  0  0  0  0  0  0  0  0
  -26.8086  -30.6693   24.6809 C   0  0  0  0  0  0  0  0  0  0  0  0
  -24.3186  -29.4734   24.0904 C   0  0  0  0  0  0  0  0  0  0  0  0
  -23.6401  -36.0918   23.1745 C   0  0  0  0  0  0  0  0  0  0  0  0
  -21.9642  -13.6779   22.4915 C   0  0  0  0  0  0  0  0  0  0  0  0
  -23.6851  -35.4483   24.5567 C   0  0  0  0  0  0  0  0  0  0  0  0
  -21.9125  -12.1587   22.3308 C   0  0  0  0  0  0  0  0  0  0  0  0
  -24.9622  -18.0826   20.9741 C   0  0  0  0  0  0  0  0  0  0  0  0
  -25.2935  -17.4872   23.4124 C   0  0  0  0  0  0  0  0  0  0  0  0
  -27.6786  -24.6440   20.5553 C   0  0  0  0  0  0  0  0  0  0  0  0
  -23.3258  -14.1542   23.0003 C   0  0  0  0  0  0  0  0  0  0  0  0
  -25.5568  -16.7291   20.5883 C   0  0  0  0  0  0  0  0  0  0  0  0
  -25.8836  -16.1498   22.9710 C   0  0  0  0  0  0  0  0  0  0  0  0
  -24.4182  -12.1581   22.0314 C   0  0  0  0  0  0  0  0  0  0  0  0
  -29.8490  -25.4403   21.1043 C   0  0  0  0  0  0  0  0  0  0  0  0
  -25.1220  -35.0830   24.9487 C   0  0  1  0  0  0  0  0  0  0  0  0
  -28.5102  -23.3953   20.8766 C   0  0  1  0  0  0  0  0  0  0  0  0
  -25.7830  -31.4978   23.8866 C   0  0  1  0  0  0  0  0  0  0  0  0
  -23.0812  -11.6545   21.4656 C   0  0  1  0  0  0  0  0  0  0  0  0
  -25.4423  -18.5695   22.3418 C   0  0  0  0  0  0  0  0  0  0  0  0
  -28.7075  -25.6979   20.1227 C   0  0  0  0  0  0  0  0  0  0  0  0
  -28.1552  -27.1172   20.2709 C   0  0  0  0  0  0  0  0  0  0  0  0
  -29.1598  -25.4817   18.6688 C   0  0  0  0  0  0  0  0  0  0  0  0
  -26.9804  -21.0258   19.1769 C   0  0  0  0  0  0  0  0  0  0  0  0
  -21.2746  -29.8639   17.5993 C   0  0  0  0  0  0  0  0  0  0  0  0
  -21.4861  -30.5961   24.1788 C   0  0  0  0  0  0  0  0  0  0  0  0
  -20.2126  -29.9046   22.1372 C   0  0  0  0  0  0  0  0  0  0  0  0
  -20.9760  -32.2661   22.3885 C   0  0  0  0  0  0  0  0  0  0  0  0
  -25.0670  -29.5581   17.6133 C   0  0  0  0  0  0  0  0  0  0  0  0
  -27.9854  -20.6082   20.2450 C   0  0  0  0  0  0  0  0  0  0  0  0
  -27.8108  -24.4120   23.5208 C   0  0  0  0  0  0  0  0  0  1  0  0
  -22.6745  -30.4607   21.8907 C   0  0  1  0  0  0  0  0  0  0  0  0
  -22.6835  -30.1100   18.1163 C   0  0  2  0  0  0  0  0  0  0  0  0
  -21.3624  -30.7949   22.6550 C   0  0  0  0  0  0  0  0  0  0  0  0
  -22.5884   -9.3963   22.3251 N   0  0  0  0  0  0  0  0  0  0  0  0
  -23.0612  -10.1450   21.3142 N   0  0  0  0  0  0  0  0  0  0  0  0
  -24.5935  -30.7591   23.4302 N   0  0  0  0  0  0  0  0  0  0  0  0
  -24.4099  -13.6161   22.1677 N   0  0  0  0  0  0  0  0  0  0  0  0
  -25.3811  -15.7412   21.6523 N   0  0  0  0  0  0  0  0  0  0  0  0
  -23.9815  -10.0127   19.1356 N   0  0  0  0  0  0  0  0  0  0  0  0
  -24.8222   -6.3793   19.8332 N   0  0  0  0  0  0  0  0  0  0  0  0
  -25.5379  -33.8726   24.2731 N   0  0  0  0  0  0  0  0  0  0  0  0
  -22.5948  -30.6659   20.4485 N   0  0  0  0  0  0  0  0  0  0  0  0
  -29.8687  -23.9473   21.2673 N   0  3  0  0  0  0  0  0  0  0  0  0
  -23.6411  -29.3848   17.2342 N   0  3  0  0  0  0  0  0  0  0  0  0
  -22.7212   -6.5068   18.9232 O   0  0  0  0  0  0  0  0  0  0  0  0
  -24.6386  -32.3345   25.7725 O   0  0  0  0  0  0  0  0  0  0  0  0
  -24.0853  -32.3636   21.8244 O   0  0  0  0  0  0  0  0  0  0  0  0
  -23.1295  -28.4898   19.8521 O   0  0  0  0  0  0  0  0  0  0  0  0
  -25.6731  -13.9223   20.2628 O   0  0  0  0  0  0  0  0  0  0  0  0
  -21.1306   -3.8134   25.0192 O   0  0  0  0  0  0  0  0  0  0  0  0
  -26.8011  -18.9943   22.2607 O   0  0  0  0  0  0  0  0  0  0  0  0
  -26.5821  -25.1267   23.5114 O   0  0  0  0  0  0  0  0  0  1  0  0
  -20.5329    1.0797   22.5485 F   0  0  0  0  0  0  0  0  0  0  0  0
  -23.2590   -2.6035   23.7352 F   0  0  0  0  0  0  0  0  0  0  0  0
  1  2  1  0  0  0  0
  1  5  2  0  0  0  0
  2  6  2  0  0  0  0
  3  9  2  0  0  0  0
  3 17  1  0  0  0  0
  4 10  1  0  0  0  0
  4 17  2  0  0  0  0
  5 19  1  0  0  0  0
  6 21  1  0  0  0  0
  7 11  2  0  0  0  0
  7 20  1  0  0  0  0
  8 12  1  0  0  0  0
  8 24  2  0  0  0  0
  9 26  1  0  0  0  0
 10 26  2  0  0  0  0
 11 27  1  0  0  0  0
 12 28  2  0  0  0  0
 13 14  2  0  0  0  0
 13 29  1  0  0  0  0
 14 30  1  0  0  0  0
 15 22  1  0  0  0  0
 15 27  2  0  0  0  0
 16 30  2  0  0  0  0
 16 31  1  0  0  0  0
 17 32  1  0  0  0  0
 18 32  1  0  0  0  0
 18 33  2  0  0  0  0
 18 34  1  0  0  0  0
 19 21  2  0  0  0  0
 19 39  1  0  0  0  0
 20 22  2  0  0  0  0
 20 40  1  0  0  0  0
 21 54  1  0  0  0  0
 22 41  1  0  0  0  0
 23 24  1  0  0  0  0
 23 25  2  0  0  0  0
 23 55  1  0  0  0  0
 24 69  1  0  0  0  0
 25 28  1  0  0  0  0
 25 68  1  0  0  0  0
 26 89  1  0  0  0  0
 27 91  1  0  0  0  0
 28 90  1  0  0  0  0
 29 31  2  0  0  0  0
 29 89  1  0  0  0  0
 30 92  1  0  0  0  0
 31 93  1  0  0  0  0
 32 73  2  0  0  0  0
 33 74  1  0  0  0  0
 33 78  1  0  0  0  0
 34 79  1  0  0  0  0
 34 84  2  0  0  0  0
 35 56  1  0  0  0  0
 35 80  1  0  0  0  0
 35 85  2  0  0  0  0
 36 70  1  0  0  0  0
 36 75  1  0  0  0  0
 36 86  2  0  0  0  0
 37 71  1  0  0  0  0
 37 81  1  0  0  0  0
 37 87  2  0  0  0  0
 38 76  1  0  0  0  0
 38 77  1  0  0  0  0
 38 88  2  0  0  0  0
 39 42  1  0  0  0  0
 40 56  1  0  0  0  0
 41 75  1  0  0  0  0
 42 44  1  0  0  0  0
 43 45  1  0  0  0  0
 43 49  1  0  0  0  0
 44 54  1  0  0  0  0
 45 57  1  0  0  0  0
 46 50  1  0  0  0  0
 46 58  1  0  0  0  0
 47 51  1  0  0  0  0
 47 58  1  0  0  0  0
 48 55  1  0  0  0  0
 48 59  1  0  0  0  0
 49 76  1  0  0  0  0
 50 77  1  0  0  0  0
 51 77  1  0  0  0  0
 52 57  1  0  0  0  0
 52 76  1  0  0  0  0
 53 59  1  0  0  0  0
 53 82  1  0  0  0  0
 54 80  1  0  0  0  0
 55 82  1  0  0  0  0
 56 75  1  0  0  0  0
 57 74  1  0  0  0  0
 58 90  1  0  0  0  0
 59 60  1  0  0  0  0
 59 61  1  0  0  0  0
 62 68  1  0  0  0  0
 63 71  1  0  0  0  0
 64 72  1  0  0  0  0
 65 72  1  0  0  0  0
 66 72  1  0  0  0  0
 67 83  1  0  0  0  0
 69 91  1  0  0  0  0
 70 72  1  0  0  0  0
 70 81  1  0  0  0  0
 71 83  1  0  0  0  0
 73 74  1  0  0  0  0
M  CHG  2  82   1  83   1
M  ISO  4  38 100  69 101  77 100  91 101
M  END
> <Batch ID>
0165

> <Smiles>
CCc1c(OC2CC[100N:0]([100C:0](=O)N3CCCC(n4nc(-c5ccc(Oc6ccc(F)cc6F)cc5)c(C(N)=O)c4N)C3)CC2)ccc([101CH2:1][101O:1]c2ccc3c(c2)CN(C(=O)C(NC(=O)C(C)NC)C(C)(C)C)C(C(=O)NC2CCCc4ccccc42)C3)c1C1CC(C)(C)CN1

> <Shape>
0.287

> <Color>
0.046

> <Negative vol penalty>
0.000

$$$$

  -OEChem-04052322223D

 89 99  0     1  0  0  0  0  0999 V2000
  -18.4457  -10.9858   18.0732 C   0  0  0  0  0  0  0  0  0  0  0  0
  -19.0172  -12.1457   17.5600 C   0  0  0  0  0  0  0  0  0  0  0  0
  -22.2429  -26.8434   20.8266 C   0  0  0  0  0  0  0  0  0  0  0  0
  -22.6047  -28.9475   21.9573 C   0  0  0  0  0  0  0  0  0  0  0  0
  -18.7909  -10.5460   19.3504 C   0  0  0  0  0  0  0  0  0  0  0  0
  -19.9336  -12.8672   18.3243 C   0  0  0  0  0  0  0  0  0  0  0  0
  -25.7890  -16.9381   17.6466 C   0  0  0  0  0  0  0  0  0  0  0  0
  -21.0917  -26.6334   21.5857 C   0  0  0  0  0  0  0  0  0  0  0  0
  -21.4535  -28.7376   22.7164 C   0  0  0  0  0  0  0  0  0  0  0  0
  -26.2842  -18.1845   18.0274 C   0  0  0  0  0  0  0  0  0  0  0  0
  -18.4116  -28.9265   24.6986 C   0  0  0  0  0  0  0  0  0  0  0  0
  -17.5318  -29.9977   24.8537 C   0  0  0  0  0  0  0  0  0  0  0  0
  -26.8649  -17.2864   20.1897 C   0  0  0  0  0  0  0  0  0  0  0  0
  -17.2297  -30.0963   22.4586 C   0  0  0  0  0  0  0  0  0  0  0  0
  -22.9994  -28.0004   21.0124 C   0  0  0  0  0  0  0  0  0  0  0  0
  -24.2803  -28.8705   18.9851 C   0  0  0  0  0  0  0  0  0  0  0  0
  -19.7193  -11.2572   20.1269 C   0  0  0  0  0  0  0  0  0  0  0  0
  -25.8181  -15.8574   18.5398 C   0  0  0  0  0  0  0  0  0  0  0  0
  -20.2906  -12.4372   19.6137 C   0  0  0  0  0  0  0  0  0  0  0  0
  -26.3718  -16.0266   19.8169 C   0  0  0  0  0  0  0  0  0  0  0  0
  -28.5531  -23.5051   23.8053 C   0  0  0  0  0  0  0  0  0  0  0  0
  -29.4977  -23.4778   24.8716 C   0  0  0  0  0  0  0  0  0  0  0  0
  -20.6970  -27.5805   22.5306 C   0  0  0  0  0  0  0  0  0  0  0  0
  -26.8196  -18.3595   19.3001 C   0  0  0  0  0  0  0  0  0  0  0  0
  -18.7005  -28.4402   23.4235 C   0  0  0  0  0  0  0  0  0  0  0  0
  -16.9408  -30.5826   23.7337 C   0  0  0  0  0  0  0  0  0  0  0  0
  -18.1095  -29.0250   22.3036 C   0  0  0  0  0  0  0  0  0  0  0  0
  -24.1890  -28.2176   20.2289 C   0  0  0  0  0  0  0  0  0  0  0  0
  -29.1604  -23.4018   22.5732 C   0  0  0  0  0  0  0  0  0  0  0  0
  -30.7912  -23.3544   24.4138 C   0  0  0  0  0  0  0  0  0  0  0  0
  -25.6147  -28.8141   18.6648 C   0  0  0  0  0  0  0  0  0  0  0  0
  -23.2509  -29.4741   18.1903 C   0  0  0  0  0  0  0  0  0  0  0  0
  -23.6159  -14.0205   19.9108 C   0  0  0  0  0  0  0  0  0  0  0  0
  -26.2058  -12.3878   20.9830 C   0  0  0  0  0  0  0  0  0  0  0  0
  -29.5307  -12.4107   21.7518 C   0  0  0  0  0  0  0  0  0  0  0  0
  -30.0075  -25.1898   20.1045 C   0  0  0  0  0  0  0  0  0  0  0  0
  -20.0254  -10.7686   21.5206 C   0  0  0  0  0  0  0  0  0  0  0  0
  -25.3043  -14.5125   18.1044 C   0  0  0  0  0  0  0  0  0  0  0  0
  -26.4450  -14.8932   20.8060 C   0  0  0  0  0  0  0  0  0  0  0  0
  -21.2870  -11.3857   22.1189 C   0  0  0  0  0  0  0  0  0  0  0  0
  -29.9504  -28.6085   20.6494 C   0  0  0  0  0  0  0  0  0  0  0  0
  -26.3069  -24.7608   23.3056 C   0  0  0  0  0  0  0  0  0  0  0  0
  -26.5041  -24.8125   24.7884 C   0  0  0  0  0  0  0  0  0  0  0  0
  -21.2994  -12.8950   21.8981 C   0  0  0  0  0  0  0  0  0  0  0  0
  -28.4752  -28.9743   20.4990 C   0  0  0  0  0  0  0  0  0  0  0  0
  -29.3055  -21.5592   19.8000 C   0  0  0  0  0  0  0  0  0  0  0  0
  -30.1078  -27.2921   21.3994 C   0  0  0  0  0  0  0  0  0  0  0  0
  -27.9085  -26.4928   20.5804 C   0  0  0  0  0  0  0  0  0  0  0  0
  -27.0404  -23.6343   24.0027 C   0  0  0  0  0  0  0  0  0  0  0  0
  -21.3073  -13.2336   20.4025 C   0  0  1  0  0  0  0  0  0  0  0  0
  -28.5220  -23.3918   21.1922 C   0  0  2  0  0  0  0  0  0  0  0  0
  -24.9150  -13.6142   19.2744 C   0  0  1  0  0  0  0  0  0  0  0  0
  -28.1609  -21.9634   20.7366 C   0  0  1  0  0  0  0  0  0  0  0  0
  -27.6930  -27.8273   19.8376 C   0  0  1  0  0  0  0  0  0  0  0  0
  -29.8597  -22.8648   19.2269 C   0  0  1  0  0  0  0  0  0  0  0  0
  -29.1320  -23.5740   26.3069 C   0  0  0  0  0  0  0  0  0  0  0  0
  -32.0499  -23.2904   25.1900 C   0  0  0  0  0  0  0  0  0  0  0  0
  -29.3954  -23.1218   17.7953 C   0  0  0  0  0  0  0  0  0  0  0  0
  -31.3569  -10.9377   22.6420 C   0  0  0  0  0  0  0  0  0  0  0  0
  -25.6745  -21.8793   21.0688 C   0  0  0  0  0  0  0  0  0  0  0  0
  -25.0771  -12.6957   23.8010 C   0  0  0  0  0  0  0  0  0  0  0  0
  -27.3324  -12.0796   24.6966 C   0  0  0  0  0  0  0  0  0  0  0  0
  -26.0550  -10.4471   23.3088 C   0  0  0  0  0  0  0  0  0  0  0  0
  -31.1112  -12.6691   19.2630 C   0  0  0  0  0  0  0  0  0  0  0  0
  -26.6984  -20.7251   19.0869 C   0  0  0  0  0  0  0  0  0  1  0  0
  -27.0919  -12.4702   22.2024 C   0  0  1  0  0  0  0  0  0  0  0  0
  -30.6535  -11.4529   21.3961 C   0  0  2  0  0  0  0  0  0  0  0  0
  -26.8016  -21.9210   20.0383 C   0  0  2  0  0  0  0  0  0  0  0  0
  -26.3861  -11.9452   23.4845 C   0  0  0  0  0  0  0  0  0  0  0  0
  -25.3713  -27.7785   20.6688 N   0  0  0  0  0  0  0  0  0  0  0  0
  -26.2181  -28.1562   19.6959 N   0  0  0  0  0  0  0  0  0  0  0  0
  -25.9240  -13.5991   20.3355 N   0  0  0  0  0  0  0  0  0  0  0  0
  -29.3377  -26.2206   20.7712 N   0  0  0  0  0  0  0  0  0  0  0  0
  -29.4133  -23.9213   20.1388 N   0  0  0  0  0  0  0  0  0  0  0  0
  -26.3191  -29.2636   17.6045 N   0  0  0  0  0  0  0  0  0  0  0  0
  -21.9335  -29.4433   18.6678 N   0  0  0  0  0  0  0  0  0  0  0  0
  -22.6325  -13.0517   19.8500 N   0  0  0  0  0  0  0  0  0  0  0  0
  -28.3202  -11.7599   21.8632 N   0  0  0  0  0  0  0  0  0  0  0  0
  -31.6614  -12.1333   20.5347 N   0  3  0  0  0  0  0  0  0  0  0  0
  -23.4896  -30.0101   17.0816 O   0  0  0  0  0  0  0  0  0  0  0  0
  -23.5139  -15.1301   20.4207 O   0  0  0  0  0  0  0  0  0  0  0  0
  -25.7851  -11.2884   20.6143 O   0  0  0  0  0  0  0  0  0  0  0  0
  -29.7103  -13.6151   21.9182 O   0  0  0  0  0  0  0  0  0  0  0  0
  -31.0985  -25.3802   19.5531 O   0  0  0  0  0  0  0  0  0  0  0  0
  -19.5735  -27.3761   23.2713 O   0  0  0  0  0  0  0  0  0  0  0  0
  -27.3066  -19.5839   19.6773 O   0  0  0  0  0  0  0  0  0  1  0  0
  -16.0948  -31.6103   23.8829 F   0  0  0  0  0  0  0  0  0  0  0  0
  -18.3823  -28.5614   21.0762 F   0  0  0  0  0  0  0  0  0  0  0  0
  -30.8628  -23.2725   22.7049 S   0  0  0  0  0  0  0  0  0  0  0  0
  1  2  1  0  0  0  0
  1  5  2  0  0  0  0
  2  6  2  0  0  0  0
  3  8  2  0  0  0  0
  3 15  1  0  0  0  0
  4  9  1  0  0  0  0
  4 15  2  0  0  0  0
  5 17  1  0  0  0  0
  6 19  1  0  0  0  0
  7 10  2  0  0  0  0
  7 18  1  0  0  0  0
  8 23  1  0  0  0  0
  9 23  2  0  0  0  0
 10 24  1  0  0  0  0
 11 12  2  0  0  0  0
 11 25  1  0  0  0  0
 12 26  1  0  0  0  0
 13 20  1  0  0  0  0
 13 24  2  0  0  0  0
 14 26  2  0  0  0  0
 14 27  1  0  0  0  0
 15 28  1  0  0  0  0
 16 28  1  0  0  0  0
 16 31  2  0  0  0  0
 16 32  1  0  0  0  0
 17 19  2  0  0  0  0
 17 37  1  0  0  0  0
 18 20  2  0  0  0  0
 18 38  1  0  0  0  0
 19 50  1  0  0  0  0
 20 39  1  0  0  0  0
 21 22  1  0  0  0  0
 21 29  2  0  0  0  0
 21 49  1  0  0  0  0
 22 30  2  0  0  0  0
 22 56  1  0  0  0  0
 23 85  1  0  0  0  0
 24 86  1  0  0  0  0
 25 27  2  0  0  0  0
 25 85  1  0  0  0  0
 26 87  1  0  0  0  0
 27 88  1  0  0  0  0
 28 70  2  0  0  0  0
 29 51  1  0  0  0  0
 29 89  1  0  0  0  0
 30 57  1  0  0  0  0
 30 89  1  0  0  0  0
 31 71  1  0  0  0  0
 31 75  1  0  0  0  0
 32 76  1  0  0  0  0
 32 80  2  0  0  0  0
 33 52  1  0  0  0  0
 33 77  1  0  0  0  0
 33 81  2  0  0  0  0
 34 66  1  0  0  0  0
 34 72  1  0  0  0  0
 34 82  2  0  0  0  0
 35 67  1  0  0  0  0
 35 78  1  0  0  0  0
 35 83  2  0  0  0  0
 36 73  1  0  0  0  0
 36 74  1  0  0  0  0
 36 84  2  0  0  0  0
 37 40  1  0  0  0  0
 38 52  1  0  0  0  0
 39 72  1  0  0  0  0
 40 44  1  0  0  0  0
 41 45  1  0  0  0  0
 41 47  1  0  0  0  0
 42 43  1  0  0  0  0
 42 49  1  0  0  0  0
 43 49  1  0  0  0  0
 44 50  1  0  0  0  0
 45 54  1  0  0  0  0
 46 53  1  0  0  0  0
 46 55  1  0  0  0  0
 47 73  1  0  0  0  0
 48 54  1  0  0  0  0
 48 73  1  0  0  0  0
 50 77  1  0  0  0  0
 51 53  1  0  0  0  0
 51 74  1  0  0  0  0
 52 72  1  0  0  0  0
 53 68  1  0  0  0  0
 54 71  1  0  0  0  0
 55 58  1  0  0  0  0
 55 74  1  0  0  0  0
 59 67  1  0  0  0  0
 60 68  1  0  0  0  0
 61 69  1  0  0  0  0
 62 69  1  0  0  0  0
 63 69  1  0  0  0  0
 64 79  1  0  0  0  0
 65 68  1  0  0  0  0
 65 86  1  0  0  0  0
 66 69  1  0  0  0  0
 66 78  1  0  0  0  0
 67 79  1  0  0  0  0
 70 71  1  0  0  0  0
M  CHG  1  79   1
M  ISO  4  36 100  65 101  74 100  86 101
M  END
> <Batch ID>
0165

> <Smiles>
CNC(C)C(=O)NC(C(=O)N1Cc2cc([101O:1][101CH2:1]C(C)C3CC(C)[100N:0]([100C:0](=O)N4CCCC(n5nc(-c6ccc(Oc7ccc(F)cc7F)cc6)c(C(N)=O)c5N)C4)C3c3sc(C)c(C)c3C3CC3)ccc2CC1C(=O)NC1CCCc2ccccc21)C(C)(C)C

> <Shape>
0.249

> <Color>
0.064

> <Negative vol penalty>
0.000

$$$$

  -OEChem-04052322223D

 83 93  0     1  0  0  0  0  0999 V2000
  -24.8127  -28.3125   22.4760 C   0  0  0  0  0  0  0  0  0  0  0  0
  -24.3842  -27.3090   21.6130 C   0  0  0  0  0  0  0  0  0  0  0  0
  -30.8031  -19.7188   19.5738 C   0  0  0  0  0  0  0  0  0  0  0  0
  -28.6154  -19.5465   20.5844 C   0  0  0  0  0  0  0  0  0  0  0  0
  -25.7913  -28.0384   23.4306 C   0  0  0  0  0  0  0  0  0  0  0  0
  -24.9348  -26.0311   21.7034 C   0  0  0  0  0  0  0  0  0  0  0  0
  -23.2092  -19.1338   20.8276 C   0  0  0  0  0  0  0  0  0  0  0  0
  -30.4836  -20.9908   19.0988 C   0  0  0  0  0  0  0  0  0  0  0  0
  -28.2958  -20.8185   20.1094 C   0  0  0  0  0  0  0  0  0  0  0  0
  -23.6486  -17.9896   20.1632 C   0  0  0  0  0  0  0  0  0  0  0  0
  -30.3079  -24.1365   20.3261 C   0  0  0  0  0  0  0  0  0  0  0  0
  -31.2612  -25.1434   20.4774 C   0  0  0  0  0  0  0  0  0  0  0  0
  -25.2757  -17.6111   21.9035 C   0  0  0  0  0  0  0  0  0  0  0  0
  -31.3286  -25.4397   18.0805 C   0  0  0  0  0  0  0  0  0  0  0  0
  -29.8690  -18.9966   20.3166 C   0  0  0  0  0  0  0  0  0  0  0  0
  -30.7937  -17.3602   22.0413 C   0  0  0  0  0  0  0  0  0  0  0  0
  -26.3472  -26.7540   23.5391 C   0  0  0  0  0  0  0  0  0  0  0  0
  -23.8081  -19.5320   22.0315 C   0  0  0  0  0  0  0  0  0  0  0  0
  -25.9227  -25.7399   22.6594 C   0  0  0  0  0  0  0  0  0  0  0  0
  -24.8403  -18.7593   22.5825 C   0  0  0  0  0  0  0  0  0  0  0  0
  -29.2299  -21.5406   19.3666 C   0  0  0  0  0  0  0  0  0  0  0  0
  -24.6839  -17.2297   20.6996 C   0  0  0  0  0  0  0  0  0  0  0  0
  -29.8649  -23.7812   19.0520 C   0  0  0  0  0  0  0  0  0  0  0  0
  -31.7716  -25.7950   19.3546 C   0  0  0  0  0  0  0  0  0  0  0  0
  -30.3753  -24.4328   17.9293 C   0  0  0  0  0  0  0  0  0  0  0  0
  -30.1984  -17.6825   20.8070 C   0  0  0  0  0  0  0  0  0  0  0  0
  -30.8940  -15.9905   22.0270 C   0  0  0  0  0  0  0  0  0  0  0  0
  -31.2180  -18.2220   23.1058 C   0  0  0  0  0  0  0  0  0  0  0  0
  -25.4266  -22.0935   22.9920 C   0  0  0  0  0  0  0  0  0  0  0  0
  -25.2428  -20.6423   25.8872 C   0  0  0  0  0  0  0  0  0  0  0  0
  -24.8698  -17.7499   27.6598 C   0  0  0  0  0  0  0  0  0  0  0  0
  -27.8163  -11.5541   20.0276 C   0  0  0  0  0  0  0  0  0  0  0  0
  -27.4363  -26.5179   24.5554 C   0  0  0  0  0  0  0  0  0  0  0  0
  -23.3047  -20.7540   22.7496 C   0  0  0  0  0  0  0  0  0  0  0  0
  -25.5029  -19.1326   23.8826 C   0  0  0  0  0  0  0  0  0  0  0  0
  -27.6999  -25.0402   24.8335 C   0  0  0  0  0  0  0  0  0  0  0  0
  -30.8809  -12.6528   18.4770 C   0  0  0  0  0  0  0  0  0  0  0  0
  -27.7941  -24.2595   23.5265 C   0  0  0  0  0  0  0  0  0  0  0  0
  -24.9408  -12.5962   16.8543 C   0  0  0  0  0  0  0  0  0  0  0  0
  -31.0751  -14.0540   19.0522 C   0  0  0  0  0  0  0  0  0  0  0  0
  -24.7412  -12.0535   18.2667 C   0  0  0  0  0  0  0  0  0  0  0  0
  -24.5456  -11.7400   21.7747 C   0  0  0  0  0  0  0  0  0  0  0  0
  -29.4023  -12.3574   18.2631 C   0  0  0  0  0  0  0  0  0  0  0  0
  -25.9797  -11.2268   21.7533 C   0  0  0  0  0  0  0  0  0  0  0  0
  -28.7674  -13.8739   20.1175 C   0  0  0  0  0  0  0  0  0  0  0  0
  -26.4782  -24.3347   22.7428 C   0  0  1  0  0  0  0  0  0  0  0  0
  -24.3326  -21.3510   23.7058 C   0  0  1  0  0  0  0  0  0  0  0  0
  -24.4594  -14.0416   16.9504 C   0  0  1  0  0  0  0  0  0  0  0  0
  -25.0965  -14.5050   18.2717 C   0  0  2  0  0  0  0  0  0  0  0  0
  -30.2514  -14.2345   20.3378 C   0  0  2  0  0  0  0  0  0  0  0  0
  -25.9191  -13.2254   20.4037 C   0  0  2  0  0  0  0  0  0  0  0  0
  -24.6366  -13.1646   21.2435 C   0  0  1  0  0  0  0  0  0  0  0  0
  -24.9541  -13.2675   19.1883 C   0  0  2  0  0  0  0  0  0  0  0  0
  -24.8749  -14.8695   15.7442 C   0  0  0  0  0  0  0  0  0  0  0  0
  -24.7996  -16.8755   30.0109 C   0  0  0  0  0  0  0  0  0  0  0  0
  -28.2761  -20.9129   26.0758 C   0  0  0  0  0  0  0  0  0  0  0  0
  -28.2421  -19.2237   27.9235 C   0  0  0  0  0  0  0  0  0  0  0  0
  -27.0513  -21.3980   28.2016 C   0  0  0  0  0  0  0  0  0  0  0  0
  -22.1062  -16.7448   27.3268 C   0  0  0  0  0  0  0  0  0  0  0  0
  -24.4686  -15.7729   18.8321 C   0  0  0  0  0  0  0  0  0  1  0  0
  -26.0956  -19.6519   26.6428 C   0  0  1  0  0  0  0  0  0  0  0  0
  -23.9823  -17.3993   28.8403 C   0  0  2  0  0  0  0  0  0  0  0  0
  -27.4053  -20.2904   27.1854 C   0  0  0  0  0  0  0  0  0  0  0  0
  -29.9389  -16.6042   20.0626 N   0  0  0  0  0  0  0  0  0  0  0  0
  -30.3733  -15.5911   20.8314 N   0  0  0  0  0  0  0  0  0  0  0  0
  -24.9795  -20.3394   24.5438 N   0  0  0  0  0  0  0  0  0  0  0  0
  -28.6309  -12.5556   19.4892 N   0  0  0  0  0  0  0  0  0  0  0  0
  -26.6543  -11.9689   20.6841 N   0  0  0  0  0  0  0  0  0  0  0  0
  -31.3761  -15.1008   22.9205 N   0  0  0  0  0  0  0  0  0  0  0  0
  -31.0412  -19.6044   22.9570 N   0  0  0  0  0  0  0  0  0  0  0  0
  -25.4981  -23.4356   23.3133 N   0  0  0  0  0  0  0  0  0  0  0  0
  -25.2382  -19.0786   27.6746 N   0  0  0  0  0  0  0  0  0  0  0  0
  -22.9934  -16.3540   28.4525 N   0  3  0  0  0  0  0  0  0  0  0  0
  -31.7535  -17.7805   24.1507 O   0  0  0  0  0  0  0  0  0  0  0  0
  -26.1531  -21.4930   22.2089 O   0  0  0  0  0  0  0  0  0  0  0  0
  -24.8196  -21.6440   26.4696 O   0  0  0  0  0  0  0  0  0  0  0  0
  -25.2060  -16.9266   26.8115 O   0  0  0  0  0  0  0  0  0  0  0  0
  -28.0819  -10.3553   19.8768 O   0  0  0  0  0  0  0  0  0  0  0  0
  -23.8061  -13.3799   20.0840 O   0  0  0  0  0  0  0  0  0  0  0  0
  -28.9178  -22.7818   18.9035 O   0  0  0  0  0  0  0  0  0  0  0  0
  -25.1188  -16.1031   20.0471 O   0  0  0  0  0  0  0  0  0  1  0  0
  -32.6859  -26.7630   19.5001 F   0  0  0  0  0  0  0  0  0  0  0  0
  -29.9527  -24.0965   16.7028 F   0  0  0  0  0  0  0  0  0  0  0  0
  1  2  1  0  0  0  0
  1  5  2  0  0  0  0
  2  6  2  0  0  0  0
  3  8  2  0  0  0  0
  3 15  1  0  0  0  0
  4  9  1  0  0  0  0
  4 15  2  0  0  0  0
  5 17  1  0  0  0  0
  6 19  1  0  0  0  0
  7 10  2  0  0  0  0
  7 18  1  0  0  0  0
  8 21  1  0  0  0  0
  9 21  2  0  0  0  0
 10 22  1  0  0  0  0
 11 12  2  0  0  0  0
 11 23  1  0  0  0  0
 12 24  1  0  0  0  0
 13 20  1  0  0  0  0
 13 22  2  0  0  0  0
 14 24  2  0  0  0  0
 14 25  1  0  0  0  0
 15 26  1  0  0  0  0
 16 26  1  0  0  0  0
 16 27  2  0  0  0  0
 16 28  1  0  0  0  0
 17 19  2  0  0  0  0
 17 33  1  0  0  0  0
 18 20  2  0  0  0  0
 18 34  1  0  0  0  0
 19 46  1  0  0  0  0
 20 35  1  0  0  0  0
 21 80  1  0  0  0  0
 22 81  1  0  0  0  0
 23 25  2  0  0  0  0
 23 80  1  0  0  0  0
 24 82  1  0  0  0  0
 25 83  1  0  0  0  0
 26 64  2  0  0  0  0
 27 65  1  0  0  0  0
 27 69  1  0  0  0  0
 28 70  1  0  0  0  0
 28 74  2  0  0  0  0
 29 47  1  0  0  0  0
 29 71  1  0  0  0  0
 29 75  2  0  0  0  0
 30 61  1  0  0  0  0
 30 66  1  0  0  0  0
 30 76  2  0  0  0  0
 31 62  1  0  0  0  0
 31 72  1  0  0  0  0
 31 77  2  0  0  0  0
 32 67  1  0  0  0  0
 32 68  1  0  0  0  0
 32 78  2  0  0  0  0
 33 36  1  0  0  0  0
 34 47  1  0  0  0  0
 35 66  1  0  0  0  0
 36 38  1  0  0  0  0
 37 40  1  0  0  0  0
 37 43  1  0  0  0  0
 38 46  1  0  0  0  0
 39 41  1  0  0  0  0
 39 48  1  0  0  0  0
 40 50  1  0  0  0  0
 41 53  1  0  0  0  0
 42 44  1  0  0  0  0
 42 52  1  0  0  0  0
 43 67  1  0  0  0  0
 44 68  1  0  0  0  0
 45 50  1  0  0  0  0
 45 67  1  0  0  0  0
 46 71  1  0  0  0  0
 47 66  1  0  0  0  0
 48 49  1  0  0  0  0
 48 54  1  0  0  0  0
 49 53  1  0  0  0  0
 49 60  1  0  0  0  0
 50 65  1  0  0  0  0
 51 52  1  0  0  0  0
 51 53  1  0  0  0  0
 51 68  1  0  0  0  0
 52 79  1  0  0  0  0
 53 79  1  0  0  0  0
 55 62  1  0  0  0  0
 56 63  1  0  0  0  0
 57 63  1  0  0  0  0
 58 63  1  0  0  0  0
 59 73  1  0  0  0  0
 60 81  1  0  0  0  0
 61 63  1  0  0  0  0
 61 72  1  0  0  0  0
 62 73  1  0  0  0  0
 64 65  1  0  0  0  0
M  CHG  1  73   1
M  ISO  4  32 100  60 101  68 100  81 101
M  END
> <Batch ID>
0165

> <Smiles>
CNC(C)C(=O)NC(C(=O)N1Cc2cc([101O:1][101CH2:1]C3C(C)CCC34OC3CC[100N:0]([100C:0](=O)N5CCCC(n6nc(-c7ccc(Oc8ccc(F)cc8F)cc7)c(C(N)=O)c6N)C5)C34)ccc2CC1C(=O)NC1CCCc2ccccc21)C(C)(C)C

> <Shape>
0.179

> <Color>
0.073

> <Negative vol penalty>
0.000

$$$$

  -OEChem-04052322223D

 89 98  0     1  0  0  0  0  0999 V2000
  -25.4750  -38.1242   19.5706 C   0  0  0  0  0  0  0  0  0  0  0  0
  -25.7322  -36.9888   18.8090 C   0  0  0  0  0  0  0  0  0  0  0  0
  -24.6147   -9.3705   21.9845 C   0  0  0  0  0  0  0  0  0  0  0  0
  -23.3489   -9.8412   19.9812 C   0  0  0  0  0  0  0  0  0  0  0  0
  -25.6359  -38.0847   20.9550 C   0  0  0  0  0  0  0  0  0  0  0  0
  -26.1516  -35.8135   19.4312 C   0  0  0  0  0  0  0  0  0  0  0  0
  -25.6540  -28.6928   18.8277 C   0  0  0  0  0  0  0  0  0  0  0  0
  -23.4789   -8.8123   22.5710 C   0  0  0  0  0  0  0  0  0  0  0  0
  -22.2131   -9.2829   20.5676 C   0  0  0  0  0  0  0  0  0  0  0  0
  -26.4610  -27.5569   18.7803 C   0  0  0  0  0  0  0  0  0  0  0  0
  -21.0041   -6.9370   24.4613 C   0  0  0  0  0  0  0  0  0  0  0  0
  -21.1520   -5.7262   25.1378 C   0  0  0  0  0  0  0  0  0  0  0  0
  -26.6284  -27.5829   21.1867 C   0  0  0  0  0  0  0  0  0  0  0  0
  -21.9249   -4.6825   23.1005 C   0  0  0  0  0  0  0  0  0  0  0  0
  -24.5497   -9.8851   20.6896 C   0  0  0  0  0  0  0  0  0  0  0  0
  -26.6953   -9.7983   19.3125 C   0  0  0  0  0  0  0  0  0  0  0  0
  -26.0482  -36.9056   21.5955 C   0  0  0  0  0  0  0  0  0  0  0  0
  -25.3366  -29.2897   20.0562 C   0  0  0  0  0  0  0  0  0  0  0  0
  -26.3195  -35.7586   20.8253 C   0  0  0  0  0  0  0  0  0  0  0  0
  -25.8151  -28.7248   21.2471 C   0  0  0  0  0  0  0  0  0  0  0  0
  -28.8696  -24.1243   18.7830 C   0  0  0  0  0  0  0  0  0  0  0  0
  -28.3072  -22.8645   18.6103 C   0  0  0  0  0  0  0  0  0  0  0  0
  -30.2193  -24.2401   19.0965 C   0  0  0  0  0  0  0  0  0  0  0  0
  -22.2781   -8.7685   21.8625 C   0  0  0  0  0  0  0  0  0  0  0  0
  -26.9507  -27.0034   19.9597 C   0  0  0  0  0  0  0  0  0  0  0  0
  -21.3164   -7.0206   23.1044 C   0  0  0  0  0  0  0  0  0  0  0  0
  -21.6125   -4.5989   24.4574 C   0  0  0  0  0  0  0  0  0  0  0  0
  -21.7769   -5.8933   22.4240 C   0  0  0  0  0  0  0  0  0  0  0  0
  -25.7224  -10.4624   20.0834 C   0  0  0  0  0  0  0  0  0  0  0  0
  -29.1308  -21.7605   18.7607 C   0  0  0  0  0  0  0  0  0  0  0  0
  -30.9573  -23.0745   19.2253 C   0  0  0  0  0  0  0  0  0  0  0  0
  -27.5942  -10.7801   18.9742 C   0  0  0  0  0  0  0  0  0  0  0  0
  -26.7789   -8.4174   18.9358 C   0  0  0  0  0  0  0  0  0  0  0  0
  -25.8731  -32.1320   21.3742 C   0  0  0  0  0  0  0  0  0  0  0  0
  -23.9533  -30.9733   23.7181 C   0  0  0  0  0  0  0  0  0  0  0  0
  -22.6579  -28.2539   25.3224 C   0  0  0  0  0  0  0  0  0  0  0  0
  -27.2004  -16.5024   18.2479 C   0  0  0  0  0  0  0  0  0  0  0  0
  -26.2538  -36.9248   23.0895 C   0  0  0  0  0  0  0  0  0  0  0  0
  -24.4430  -30.4991   20.0920 C   0  0  0  0  0  0  0  0  0  0  0  0
  -25.4868  -29.3157   22.5930 C   0  0  0  0  0  0  0  0  0  0  0  0
  -26.3406  -35.5329   23.7103 C   0  0  0  0  0  0  0  0  0  0  0  0
  -29.3707  -14.9369   20.5234 C   0  0  0  0  0  0  0  0  0  0  0  0
  -27.2741  -34.6425   22.8963 C   0  0  0  0  0  0  0  0  0  0  0  0
  -28.7721  -13.5326   20.5972 C   0  0  0  0  0  0  0  0  0  0  0  0
  -28.2905  -16.0190   20.4835 C   0  0  0  0  0  0  0  0  0  0  0  0
  -29.1007  -19.6072   17.5399 C   0  0  0  0  0  0  0  0  0  0  0  0
  -27.9821  -19.8348   19.7632 C   0  0  0  0  0  0  0  0  0  0  0  0
  -28.0868  -18.5311   17.1605 C   0  0  0  0  0  0  0  0  0  0  0  0
  -26.9815  -18.7650   19.3400 C   0  0  0  0  0  0  0  0  0  0  0  0
  -26.6865  -14.4206   19.4884 C   0  0  0  0  0  0  0  0  0  0  0  0
  -26.7523  -34.4578   21.4662 C   0  0  1  0  0  0  0  0  0  0  0  0
  -24.6058  -31.3249   21.3644 C   0  0  1  0  0  0  0  0  0  0  0  0
  -27.7474  -13.3091   19.4708 C   0  0  2  0  0  0  0  0  0  0  0  0
  -26.8600  -22.7167   18.2725 C   0  0  0  0  0  0  0  0  0  0  0  0
  -31.9520  -25.8665   18.2563 C   0  0  0  0  0  0  0  0  0  0  0  0
  -31.3888  -25.7816   20.7120 C   0  0  0  0  0  0  0  0  0  0  0  0
  -21.1476  -27.6234   27.2247 C   0  0  0  0  0  0  0  0  0  0  0  0
  -26.1643  -31.6711   25.7016 C   0  0  0  0  0  0  0  0  0  0  0  0
  -25.0343  -30.1910   27.3752 C   0  0  0  0  0  0  0  0  0  0  0  0
  -23.8507  -32.2004   26.4898 C   0  0  0  0  0  0  0  0  0  0  0  0
  -33.1810  -22.0474   19.7002 C   0  0  0  0  0  0  0  0  0  0  0  0
  -20.7763  -26.8542   23.5171 C   0  0  0  0  0  0  0  0  0  0  0  0
  -28.0259  -25.3500   18.6309 C   0  0  0  0  0  0  0  0  0  1  0  0
  -30.8429  -25.5837   19.2860 C   0  0  0  0  0  0  0  0  0  0  0  0
  -24.1724  -30.1905   24.9902 C   0  0  1  0  0  0  0  0  0  0  0  0
  -21.2380  -27.9088   25.7337 C   0  0  2  0  0  0  0  0  0  0  0  0
  -24.8134  -31.0530   26.1139 C   0  0  0  0  0  0  0  0  0  0  0  0
  -25.9792  -11.7653   20.2267 N   0  0  0  0  0  0  0  0  0  0  0  0
  -30.4461  -21.8333   19.0648 N   0  0  0  0  0  0  0  0  0  0  0  0
  -27.1237  -11.9278   19.5412 N   0  0  0  0  0  0  0  0  0  0  0  0
  -28.5712  -20.4883   18.5863 N   0  0  0  0  0  0  0  0  0  0  0  0
  -24.6145  -30.5016   22.5753 N   0  0  0  0  0  0  0  0  0  0  0  0
  -27.3147  -15.7417   19.4210 N   0  0  0  0  0  0  0  0  0  0  0  0
  -27.5454  -17.8602   18.3362 N   0  0  0  0  0  0  0  0  0  0  0  0
  -28.7334  -10.7650   18.2500 N   0  0  0  0  0  0  0  0  0  0  0  0
  -25.7712   -7.5447   19.3683 N   0  0  0  0  0  0  0  0  0  0  0  0
  -32.3340  -23.1844   19.5437 N   0  0  0  0  0  0  0  0  0  0  0  0
  -25.6702  -33.4971   21.4432 N   0  0  0  0  0  0  0  0  0  0  0  0
  -22.8792  -29.6147   25.3431 N   0  0  0  0  0  0  0  0  0  0  0  0
  -20.7629  -26.7047   24.9951 N   0  3  0  0  0  0  0  0  0  0  0  0
  -27.7280   -7.9675   18.2501 O   0  0  0  0  0  0  0  0  0  0  0  0
  -26.9550  -31.5586   21.3245 O   0  0  0  0  0  0  0  0  0  0  0  0
  -23.2166  -31.9626   23.7362 O   0  0  0  0  0  0  0  0  0  0  0  0
  -23.4889  -27.4013   25.0171 O   0  0  0  0  0  0  0  0  0  0  0  0
  -26.8166  -16.0004   17.1841 O   0  0  0  0  0  0  0  0  0  0  0  0
  -21.1697   -8.2236   22.4344 O   0  0  0  0  0  0  0  0  0  0  0  0
  -27.7449  -25.8870   19.9160 O   0  0  0  0  0  0  0  0  0  1  0  0
  -21.7560   -3.4366   25.1075 F   0  0  0  0  0  0  0  0  0  0  0  0
  -22.0797   -5.9678   21.1207 F   0  0  0  0  0  0  0  0  0  0  0  0
  1  2  1  0  0  0  0
  1  5  2  0  0  0  0
  2  6  2  0  0  0  0
  3  8  2  0  0  0  0
  3 15  1  0  0  0  0
  4  9  1  0  0  0  0
  4 15  2  0  0  0  0
  5 17  1  0  0  0  0
  6 19  1  0  0  0  0
  7 10  2  0  0  0  0
  7 18  1  0  0  0  0
  8 24  1  0  0  0  0
  9 24  2  0  0  0  0
 10 25  1  0  0  0  0
 11 12  2  0  0  0  0
 11 26  1  0  0  0  0
 12 27  1  0  0  0  0
 13 20  1  0  0  0  0
 13 25  2  0  0  0  0
 14 27  2  0  0  0  0
 14 28  1  0  0  0  0
 15 29  1  0  0  0  0
 16 29  1  0  0  0  0
 16 32  2  0  0  0  0
 16 33  1  0  0  0  0
 17 19  2  0  0  0  0
 17 38  1  0  0  0  0
 18 20  2  0  0  0  0
 18 39  1  0  0  0  0
 19 51  1  0  0  0  0
 20 40  1  0  0  0  0
 21 22  2  0  0  0  0
 21 23  1  0  0  0  0
 21 63  1  0  0  0  0
 22 30  1  0  0  0  0
 22 54  1  0  0  0  0
 23 31  2  0  0  0  0
 23 64  1  0  0  0  0
 24 86  1  0  0  0  0
 25 87  1  0  0  0  0
 26 28  2  0  0  0  0
 26 86  1  0  0  0  0
 27 88  1  0  0  0  0
 28 89  1  0  0  0  0
 29 68  2  0  0  0  0
 30 69  2  0  0  0  0
 30 71  1  0  0  0  0
 31 69  1  0  0  0  0
 31 77  1  0  0  0  0
 32 70  1  0  0  0  0
 32 75  1  0  0  0  0
 33 76  1  0  0  0  0
 33 81  2  0  0  0  0
 34 52  1  0  0  0  0
 34 78  1  0  0  0  0
 34 82  2  0  0  0  0
 35 65  1  0  0  0  0
 35 72  1  0  0  0  0
 35 83  2  0  0  0  0
 36 66  1  0  0  0  0
 36 79  1  0  0  0  0
 36 84  2  0  0  0  0
 37 73  1  0  0  0  0
 37 74  1  0  0  0  0
 37 85  2  0  0  0  0
 38 41  1  0  0  0  0
 39 52  1  0  0  0  0
 40 72  1  0  0  0  0
 41 43  1  0  0  0  0
 42 44  1  0  0  0  0
 42 45  1  0  0  0  0
 43 51  1  0  0  0  0
 44 53  1  0  0  0  0
 45 73  1  0  0  0  0
 46 48  1  0  0  0  0
 46 71  1  0  0  0  0
 47 49  1  0  0  0  0
 47 71  1  0  0  0  0
 48 74  1  0  0  0  0
 49 74  1  0  0  0  0
 50 53  1  0  0  0  0
 50 73  1  0  0  0  0
 51 78  1  0  0  0  0
 52 72  1  0  0  0  0
 53 70  1  0  0  0  0
 55 64  1  0  0  0  0
 56 64  1  0  0  0  0
 57 66  1  0  0  0  0
 58 67  1  0  0  0  0
 59 67  1  0  0  0  0
 60 67  1  0  0  0  0
 61 77  1  0  0  0  0
 62 80  1  0  0  0  0
 63 87  1  0  0  0  0
 65 67  1  0  0  0  0
 65 79  1  0  0  0  0
 66 80  1  0  0  0  0
 68 70  1  0  0  0  0
M  CHG  1  80   1
M  ISO  4  37 100  63 101  74 100  87 101
M  END
> <Batch ID>
0165

> <Smiles>
CNc1nc(N2CC[100N:0]([100C:0](=O)N3CCCC(n4nc(-c5ccc(Oc6ccc(F)cc6F)cc5)c(C(N)=O)c4N)C3)CC2)c(C)c([101CH2:1][101O:1]c2ccc3c(c2)CN(C(=O)C(NC(=O)C(C)NC)C(C)(C)C)C(C(=O)NC2CCCc4ccccc42)C3)c1C(C)C

> <Shape>
0.313

> <Color>
0.108

> <Negative vol penalty>
0.000

$$$$

  -OEChem-04052322223D

 90101  0     1  0  0  0  0  0999 V2000
  -17.7954  -29.0100   19.0436 C   0  0  0  0  0  0  0  0  0  0  0  0
  -18.9342  -28.2202   19.1656 C   0  0  0  0  0  0  0  0  0  0  0  0
  -23.5584   -9.6252   21.9018 C   0  0  0  0  0  0  0  0  0  0  0  0
  -24.2802  -10.9814   23.7664 C   0  0  0  0  0  0  0  0  0  0  0  0
  -17.7768  -30.2932   19.5884 C   0  0  0  0  0  0  0  0  0  0  0  0
  -20.0556  -28.7138   19.8315 C   0  0  0  0  0  0  0  0  0  0  0  0
  -22.0708  -25.3297   23.0146 C   0  0  0  0  0  0  0  0  0  0  0  0
  -23.0010   -8.7035   22.7880 C   0  0  0  0  0  0  0  0  0  0  0  0
  -23.7227  -10.0598   24.6526 C   0  0  0  0  0  0  0  0  0  0  0  0
  -22.8547  -24.3201   22.4579 C   0  0  0  0  0  0  0  0  0  0  0  0
  -21.7025   -5.8122   24.5708 C   0  0  0  0  0  0  0  0  0  0  0  0
  -21.9373   -4.4580   24.3332 C   0  0  0  0  0  0  0  0  0  0  0  0
  -24.8458  -25.5344   23.0745 C   0  0  0  0  0  0  0  0  0  0  0  0
  -24.3151   -4.8344   24.5380 C   0  0  0  0  0  0  0  0  0  0  0  0
  -24.1981  -10.7641   22.3910 C   0  0  0  0  0  0  0  0  0  0  0  0
  -24.1424  -12.8374   20.9057 C   0  0  0  0  0  0  0  0  0  0  0  0
  -18.8951  -30.7992   20.2697 C   0  0  0  0  0  0  0  0  0  0  0  0
  -22.6693  -26.4564   23.5966 C   0  0  0  0  0  0  0  0  0  0  0  0
  -20.0524  -30.0056   20.3847 C   0  0  0  0  0  0  0  0  0  0  0  0
  -24.0673  -26.5557   23.6401 C   0  0  0  0  0  0  0  0  0  0  0  0
  -26.9545  -20.6287   19.2373 C   0  0  0  0  0  0  0  0  0  0  0  0
  -26.0363  -21.5721   19.6847 C   0  0  0  0  0  0  0  0  0  0  0  0
  -25.3221  -21.3386   20.8547 C   0  0  0  0  0  0  0  0  0  0  0  0
  -23.0831   -8.9208   24.1634 C   0  0  0  0  0  0  0  0  0  0  0  0
  -24.2423  -24.4237   22.4852 C   0  0  0  0  0  0  0  0  0  0  0  0
  -22.7739   -6.6776   24.7919 C   0  0  0  0  0  0  0  0  0  0  0  0
  -23.2436   -3.9691   24.3168 C   0  0  0  0  0  0  0  0  0  0  0  0
  -24.0802   -6.1887   24.7755 C   0  0  0  0  0  0  0  0  0  0  0  0
  -24.7746  -11.7163   21.4761 C   0  0  0  0  0  0  0  0  0  0  0  0
  -25.5609  -20.1555   21.5351 C   0  0  0  0  0  0  0  0  0  0  0  0
  -27.1203  -19.4774   19.9902 C   0  0  0  0  0  0  0  0  0  0  0  0
  -25.1083  -13.4111   20.1155 C   0  0  0  0  0  0  0  0  0  0  0  0
  -22.8020  -13.3172   21.0750 C   0  0  0  0  0  0  0  0  0  0  0  0
  -22.6238  -29.5789   23.0036 C   0  0  0  0  0  0  0  0  0  0  0  0
  -24.3350  -29.7312   25.7551 C   0  0  0  0  0  0  0  0  0  0  0  0
  -26.3994  -28.1618   27.9736 C   0  0  0  0  0  0  0  0  0  0  0  0
  -30.4682  -15.1533   19.7562 C   0  0  0  0  0  0  0  0  0  0  0  0
  -18.8446  -32.2099   20.8006 C   0  0  0  0  0  0  0  0  0  0  0  0
  -21.8101  -27.5240   24.2167 C   0  0  0  0  0  0  0  0  0  0  0  0
  -24.7592  -27.7352   24.2714 C   0  0  0  0  0  0  0  0  0  0  0  0
  -19.9416  -32.5180   21.8165 C   0  0  0  0  0  0  0  0  0  0  0  0
  -29.6463  -11.7296   18.6638 C   0  0  0  0  0  0  0  0  0  0  0  0
  -26.9888  -21.1434   16.7059 C   0  0  0  0  0  0  0  0  0  0  0  0
  -27.6770  -19.8269   16.8892 C   0  0  0  0  0  0  0  0  0  0  0  0
  -21.2916  -32.0178   21.3126 C   0  0  0  0  0  0  0  0  0  0  0  0
  -28.2807  -11.4906   19.3080 C   0  0  0  0  0  0  0  0  0  0  0  0
  -30.4436  -17.8612   17.7910 C   0  0  0  0  0  0  0  0  0  0  0  0
  -29.3180  -16.9968   17.2015 C   0  0  0  0  0  0  0  0  0  0  0  0
  -30.4996  -12.6981   19.4791 C   0  0  0  0  0  0  0  0  0  0  0  0
  -28.4724  -13.7469   20.4190 C   0  0  0  0  0  0  0  0  0  0  0  0
  -29.4487  -18.6067   19.9980 C   0  0  0  0  0  0  0  0  0  0  0  0
  -27.5419  -17.2478   18.9779 C   0  0  0  0  0  0  0  0  0  0  0  0
  -27.7329  -20.8593   17.9824 C   0  0  0  0  0  0  0  0  0  0  0  0
  -21.2798  -30.4963   21.1213 C   0  0  1  0  0  0  0  0  0  0  0  0
  -22.5169  -28.8717   24.3250 C   0  0  1  0  0  0  0  0  0  0  0  0
  -27.5670  -12.8243   19.5914 C   0  0  2  0  0  0  0  0  0  0  0  0
  -30.3742  -17.6000   19.3021 C   0  0  1  0  0  0  0  0  0  0  0  0
  -28.6533  -16.3408   18.4246 C   0  0  2  0  0  0  0  0  0  0  0  0
  -25.8157  -22.8340   18.9126 C   0  0  0  0  0  0  0  0  0  0  0  0
  -24.8259  -19.8495   22.7992 C   0  0  0  0  0  0  0  0  0  0  0  0
  -27.6634  -28.5547   30.1056 C   0  0  0  0  0  0  0  0  0  0  0  0
  -26.4344  -31.3215   24.2145 C   0  0  0  0  0  0  0  0  0  0  0  0
  -28.0459  -30.8633   26.0750 C   0  0  0  0  0  0  0  0  0  0  0  0
  -25.9679  -32.1696   26.5205 C   0  0  0  0  0  0  0  0  0  0  0  0
  -24.8890  -26.0501   29.3944 C   0  0  0  0  0  0  0  0  0  0  0  0
  -24.3284  -22.3300   21.3605 C   0  0  0  0  0  0  0  0  0  1  0  0
  -25.8025  -29.6811   26.1056 C   0  0  1  0  0  0  0  0  0  0  0  0
  -26.3630  -28.0644   29.4881 C   0  0  2  0  0  0  0  0  0  0  0  0
  -26.5499  -30.9875   25.7152 C   0  0  0  0  0  0  0  0  0  0  0  0
  -26.0438  -11.5839   21.0817 N   0  0  0  0  0  0  0  0  0  0  0  0
  -26.4448  -19.2155   21.1315 N   0  0  0  0  0  0  0  0  0  0  0  0
  -26.2170  -12.6291   20.2550 N   0  0  0  0  0  0  0  0  0  0  0  0
  -28.0459  -18.5168   19.5439 N   0  0  0  0  0  0  0  0  0  0  0  0
  -23.8756  -28.7560   24.8585 N   0  0  0  0  0  0  0  0  0  0  0  0
  -29.7735  -13.9355   19.7679 N   0  0  0  0  0  0  0  0  0  0  0  0
  -29.7560  -16.2900   19.3734 N   0  0  0  0  0  0  0  0  0  0  0  0
  -25.1089  -14.5032   19.3218 N   0  0  0  0  0  0  0  0  0  0  0  0
  -21.9406  -12.6081   21.9232 N   0  0  0  0  0  0  0  0  0  0  0  0
  -21.4068  -29.8255   22.3974 N   0  0  0  0  0  0  0  0  0  0  0  0
  -25.8721  -29.3545   27.5257 N   0  0  0  0  0  0  0  0  0  0  0  0
  -26.1449  -26.6522   29.9113 N   0  3  0  0  0  0  0  0  0  0  0  0
  -22.3756  -14.3350   20.4785 O   0  0  0  0  0  0  0  0  0  0  0  0
  -23.7286  -29.8799   22.5671 O   0  0  0  0  0  0  0  0  0  0  0  0
  -23.6210  -30.5990   26.2639 O   0  0  0  0  0  0  0  0  0  0  0  0
  -26.8539  -27.2706   27.2596 O   0  0  0  0  0  0  0  0  0  0  0  0
  -31.6678  -15.2144   20.0538 O   0  0  0  0  0  0  0  0  0  0  0  0
  -22.5391   -8.0217   25.0284 O   0  0  0  0  0  0  0  0  0  0  0  0
  -25.0152  -23.4332   21.9382 O   0  0  0  0  0  0  0  0  0  1  0  0
  -23.4689   -2.6683   24.0902 F   0  0  0  0  0  0  0  0  0  0  0  0
  -25.1135   -7.0150   24.9885 F   0  0  0  0  0  0  0  0  0  0  0  0
  1  2  1  0  0  0  0
  1  5  2  0  0  0  0
  2  6  2  0  0  0  0
  3  8  2  0  0  0  0
  3 15  1  0  0  0  0
  4  9  1  0  0  0  0
  4 15  2  0  0  0  0
  5 17  1  0  0  0  0
  6 19  1  0  0  0  0
  7 10  2  0  0  0  0
  7 18  1  0  0  0  0
  8 24  1  0  0  0  0
  9 24  2  0  0  0  0
 10 25  1  0  0  0  0
 11 12  2  0  0  0  0
 11 26  1  0  0  0  0
 12 27  1  0  0  0  0
 13 20  1  0  0  0  0
 13 25  2  0  0  0  0
 14 27  2  0  0  0  0
 14 28  1  0  0  0  0
 15 29  1  0  0  0  0
 16 29  1  0  0  0  0
 16 32  2  0  0  0  0
 16 33  1  0  0  0  0
 17 19  2  0  0  0  0
 17 38  1  0  0  0  0
 18 20  2  0  0  0  0
 18 39  1  0  0  0  0
 19 54  1  0  0  0  0
 20 40  1  0  0  0  0
 21 22  1  0  0  0  0
 21 31  2  0  0  0  0
 21 53  1  0  0  0  0
 22 23  2  0  0  0  0
 22 59  1  0  0  0  0
 23 30  1  0  0  0  0
 23 66  1  0  0  0  0
 24 87  1  0  0  0  0
 25 88  1  0  0  0  0
 26 28  2  0  0  0  0
 26 87  1  0  0  0  0
 27 89  1  0  0  0  0
 28 90  1  0  0  0  0
 29 70  2  0  0  0  0
 30 60  1  0  0  0  0
 30 71  2  0  0  0  0
 31 71  1  0  0  0  0
 31 73  1  0  0  0  0
 32 72  1  0  0  0  0
 32 77  1  0  0  0  0
 33 78  1  0  0  0  0
 33 82  2  0  0  0  0
 34 55  1  0  0  0  0
 34 79  1  0  0  0  0
 34 83  2  0  0  0  0
 35 67  1  0  0  0  0
 35 74  1  0  0  0  0
 35 84  2  0  0  0  0
 36 68  1  0  0  0  0
 36 80  1  0  0  0  0
 36 85  2  0  0  0  0
 37 75  1  0  0  0  0
 37 76  1  0  0  0  0
 37 86  2  0  0  0  0
 38 41  1  0  0  0  0
 39 55  1  0  0  0  0
 40 74  1  0  0  0  0
 41 45  1  0  0  0  0
 42 46  1  0  0  0  0
 42 49  1  0  0  0  0
 43 44  1  0  0  0  0
 43 53  1  0  0  0  0
 44 53  1  0  0  0  0
 45 54  1  0  0  0  0
 46 56  1  0  0  0  0
 47 48  1  0  0  0  0
 47 57  1  0  0  0  0
 48 58  1  0  0  0  0
 49 75  1  0  0  0  0
 50 56  1  0  0  0  0
 50 75  1  0  0  0  0
 51 57  1  0  0  0  0
 51 73  1  0  0  0  0
 52 58  1  0  0  0  0
 52 73  1  0  0  0  0
 54 79  1  0  0  0  0
 55 74  1  0  0  0  0
 56 72  1  0  0  0  0
 57 76  1  0  0  0  0
 58 76  1  0  0  0  0
 61 68  1  0  0  0  0
 62 69  1  0  0  0  0
 63 69  1  0  0  0  0
 64 69  1  0  0  0  0
 65 81  1  0  0  0  0
 66 88  1  0  0  0  0
 67 69  1  0  0  0  0
 67 80  1  0  0  0  0
 68 81  1  0  0  0  0
 70 72  1  0  0  0  0
M  CHG  1  81   1
M  ISO  4  37 100  66 101  76 100  88 101
M  END
> <Batch ID>
0165

> <Smiles>
CNC(C)C(=O)NC(C(=O)N1Cc2cc([101O:1][101CH2:1]c3c(C)nc(N4CC5CCC(C4)[100N:0]5[100C:0](=O)N4CCCC(n5nc(-c6ccc(Oc7ccc(F)cc7F)cc6)c(C(N)=O)c5N)C4)c(C4CC4)c3C)ccc2CC1C(=O)NC1CCCc2ccccc21)C(C)(C)C

> <Shape>
0.224

> <Color>
0.146

> <Negative vol penalty>
0.000

$$$$

  -OEChem-04052322223D

 86 95  0     1  0  0  0  0  0999 V2000
  -27.4619  -37.3761   27.0611 C   0  0  0  0  0  0  0  0  0  0  0  0
  -28.2776  -36.3544   26.5855 C   0  0  0  0  0  0  0  0  0  0  0  0
  -24.6423   -8.8798   21.9421 C   0  0  0  0  0  0  0  0  0  0  0  0
  -23.6220   -9.4697   19.8330 C   0  0  0  0  0  0  0  0  0  0  0  0
  -26.0755  -37.2572   26.9745 C   0  0  0  0  0  0  0  0  0  0  0  0
  -27.7073  -35.2126   26.0240 C   0  0  0  0  0  0  0  0  0  0  0  0
  -28.9038  -30.2859   20.9631 C   0  0  0  0  0  0  0  0  0  0  0  0
  -23.5581   -8.0527   22.2352 C   0  0  0  0  0  0  0  0  0  0  0  0
  -22.5378   -8.6425   20.1261 C   0  0  0  0  0  0  0  0  0  0  0  0
  -28.9541  -28.9025   20.7971 C   0  0  0  0  0  0  0  0  0  0  0  0
  -22.4782   -4.9646   21.3807 C   0  0  0  0  0  0  0  0  0  0  0  0
  -22.7505   -3.6961   21.8929 C   0  0  0  0  0  0  0  0  0  0  0  0
  -26.5485  -28.8414   20.6279 C   0  0  0  0  0  0  0  0  0  0  0  0
  -21.5020   -4.2345   23.8900 C   0  0  0  0  0  0  0  0  0  0  0  0
  -24.6743   -9.5884   20.7409 C   0  0  0  0  0  0  0  0  0  0  0  0
  -26.9779  -10.0870   19.7650 C   0  0  0  0  0  0  0  0  0  0  0  0
  -25.4880  -36.1176   26.4028 C   0  0  0  0  0  0  0  0  0  0  0  0
  -27.6727  -30.9572   20.9737 C   0  0  0  0  0  0  0  0  0  0  0  0
  -26.3116  -35.0777   25.9309 C   0  0  0  0  0  0  0  0  0  0  0  0
  -26.4855  -30.2337   20.7917 C   0  0  0  0  0  0  0  0  0  0  0  0
  -28.3992  -22.5625   21.0024 C   0  0  0  0  0  0  0  0  0  0  0  0
  -28.5094  -23.9229   21.2681 C   0  0  0  0  0  0  0  0  0  0  0  0
  -28.7460  -22.0747   19.7474 C   0  0  0  0  0  0  0  0  0  0  0  0
  -22.5059   -7.9340   21.3273 C   0  0  0  0  0  0  0  0  0  0  0  0
  -27.7762  -28.1797   20.6324 C   0  0  0  0  0  0  0  0  0  0  0  0
  -21.7179   -5.8681   22.1232 C   0  0  0  0  0  0  0  0  0  0  0  0
  -22.2624   -3.3310   23.1475 C   0  0  0  0  0  0  0  0  0  0  0  0
  -21.2298   -5.5031   23.3778 C   0  0  0  0  0  0  0  0  0  0  0  0
  -25.7937  -10.4434   20.4377 C   0  0  0  0  0  0  0  0  0  0  0  0
  -28.9682  -24.7469   20.2531 C   0  0  0  0  0  0  0  0  0  0  0  0
  -29.1940  -22.9815   18.8003 C   0  0  0  0  0  0  0  0  0  0  0  0
  -27.7154  -11.2452   19.7312 C   0  0  0  0  0  0  0  0  0  0  0  0
  -27.3756   -8.8222   19.2194 C   0  0  0  0  0  0  0  0  0  0  0  0
  -26.0919  -32.7104   23.1024 C   0  0  0  0  0  0  0  0  0  0  0  0
  -24.0559  -33.1827   20.6217 C   0  0  0  0  0  0  0  0  0  0  0  0
  -22.8083  -32.0719   17.6457 C   0  0  0  0  0  0  0  0  0  0  0  0
  -28.2879  -16.5267   18.9427 C   0  0  0  0  0  0  0  0  0  0  0  0
  -23.9837  -36.0133   26.3741 C   0  0  0  0  0  0  0  0  0  0  0  0
  -27.6372  -32.4531   21.1271 C   0  0  0  0  0  0  0  0  0  0  0  0
  -25.1395  -30.9095   20.7751 C   0  0  0  0  0  0  0  0  0  0  0  0
  -23.4659  -34.9361   25.4244 C   0  0  0  0  0  0  0  0  0  0  0  0
  -27.0588  -15.6500   22.1145 C   0  0  0  0  0  0  0  0  0  0  0  0
  -24.2445  -33.6381   25.6140 C   0  0  0  0  0  0  0  0  0  0  0  0
  -26.7102  -14.1763   21.9085 C   0  0  0  0  0  0  0  0  0  0  0  0
  -26.6816  -16.5030   20.9023 C   0  0  0  0  0  0  0  0  0  0  0  0
  -29.7914  -19.8313   19.6986 C   0  0  0  0  0  0  0  0  0  0  0  0
  -27.3118  -20.0929   19.5275 C   0  0  0  0  0  0  0  0  0  0  0  0
  -29.6950  -18.5513   18.8727 C   0  0  0  0  0  0  0  0  0  0  0  0
  -27.2609  -18.8167   18.6948 C   0  0  0  0  0  0  0  0  0  0  0  0
  -26.8920  -14.5359   19.4175 C   0  0  0  0  0  0  0  0  0  0  0  0
  -25.7309  -33.8345   25.2925 C   0  0  1  0  0  0  0  0  0  0  0  0
  -26.2952  -32.9698   21.6364 C   0  0  1  0  0  0  0  0  0  0  0  0
  -27.3130  -13.6443   20.5961 C   0  0  2  0  0  0  0  0  0  0  0  0
  -27.9093  -21.6296   22.0648 C   0  0  0  0  0  0  0  0  0  0  0  0
  -28.1464  -24.4772   22.6050 C   0  0  0  0  0  0  0  0  0  0  0  0
  -29.5815  -22.5199   17.4328 C   0  0  0  0  0  0  0  0  0  0  0  0
  -21.1271  -32.6516   15.8751 C   0  0  0  0  0  0  0  0  0  0  0  0
  -21.8059  -32.2324   22.4504 C   0  0  0  0  0  0  0  0  0  0  0  0
  -20.3772  -31.9256   20.4174 C   0  0  0  0  0  0  0  0  0  0  0  0
  -21.2239  -34.1950   21.0136 C   0  0  0  0  0  0  0  0  0  0  0  0
  -24.9013  -32.2842   15.5641 C   0  0  0  0  0  0  0  0  0  0  0  0
  -29.1099  -26.2166   20.4800 C   0  0  0  0  0  0  0  0  0  1  0  0
  -22.8318  -32.4744   20.0935 C   0  0  1  0  0  0  0  0  0  0  0  0
  -22.5743  -32.7809   16.3240 C   0  0  2  0  0  0  0  0  0  0  0  0
  -21.5848  -32.6936   20.9960 C   0  0  0  0  0  0  0  0  0  0  0  0
  -25.7757  -11.7274   20.8050 N   0  0  0  0  0  0  0  0  0  0  0  0
  -29.3145  -24.3097   19.0216 N   0  0  0  0  0  0  0  0  0  0  0  0
  -26.9578  -12.1881   20.3615 N   0  0  0  0  0  0  0  0  0  0  0  0
  -28.6432  -20.7097   19.4501 N   0  0  0  0  0  0  0  0  0  0  0  0
  -25.1567  -32.3729   20.9352 N   0  0  0  0  0  0  0  0  0  0  0  0
  -27.2447  -15.9346   19.6702 N   0  0  0  0  0  0  0  0  0  0  0  0
  -28.3837  -17.9262   18.9960 N   0  0  0  0  0  0  0  0  0  0  0  0
  -28.9316  -11.5389   19.2242 N   0  0  0  0  0  0  0  0  0  0  0  0
  -26.4979   -7.7363   19.3411 N   0  0  0  0  0  0  0  0  0  0  0  0
  -25.9399  -33.8555   23.8606 N   0  0  0  0  0  0  0  0  0  0  0  0
  -22.6603  -32.9270   18.7172 N   0  0  0  0  0  0  0  0  0  0  0  0
  -23.4485  -32.2030   15.2643 N   0  3  0  0  0  0  0  0  0  0  0  0
  -28.4836   -8.6557   18.6555 O   0  0  0  0  0  0  0  0  0  0  0  0
  -26.0728  -31.5566   23.5148 O   0  0  0  0  0  0  0  0  0  0  0  0
  -24.0386  -34.4100   20.7445 O   0  0  0  0  0  0  0  0  0  0  0  0
  -23.0901  -30.8779   17.7204 O   0  0  0  0  0  0  0  0  0  0  0  0
  -29.0883  -15.8481   18.2873 O   0  0  0  0  0  0  0  0  0  0  0  0
  -21.4478   -7.1269   21.6130 O   0  0  0  0  0  0  0  0  0  0  0  0
  -27.8227  -26.8196   20.4697 O   0  0  0  0  0  0  0  0  0  1  0  0
  -22.5226   -2.1123   23.6386 F   0  0  0  0  0  0  0  0  0  0  0  0
  -20.4978   -6.3664   24.0952 F   0  0  0  0  0  0  0  0  0  0  0  0
  1  2  1  0  0  0  0
  1  5  2  0  0  0  0
  2  6  2  0  0  0  0
  3  8  2  0  0  0  0
  3 15  1  0  0  0  0
  4  9  1  0  0  0  0
  4 15  2  0  0  0  0
  5 17  1  0  0  0  0
  6 19  1  0  0  0  0
  7 10  2  0  0  0  0
  7 18  1  0  0  0  0
  8 24  1  0  0  0  0
  9 24  2  0  0  0  0
 10 25  1  0  0  0  0
 11 12  2  0  0  0  0
 11 26  1  0  0  0  0
 12 27  1  0  0  0  0
 13 20  1  0  0  0  0
 13 25  2  0  0  0  0
 14 27  2  0  0  0  0
 14 28  1  0  0  0  0
 15 29  1  0  0  0  0
 16 29  1  0  0  0  0
 16 32  2  0  0  0  0
 16 33  1  0  0  0  0
 17 19  2  0  0  0  0
 17 38  1  0  0  0  0
 18 20  2  0  0  0  0
 18 39  1  0  0  0  0
 19 51  1  0  0  0  0
 20 40  1  0  0  0  0
 21 22  1  0  0  0  0
 21 23  2  0  0  0  0
 21 54  1  0  0  0  0
 22 30  2  0  0  0  0
 22 55  1  0  0  0  0
 23 31  1  0  0  0  0
 23 69  1  0  0  0  0
 24 83  1  0  0  0  0
 25 84  1  0  0  0  0
 26 28  2  0  0  0  0
 26 83  1  0  0  0  0
 27 85  1  0  0  0  0
 28 86  1  0  0  0  0
 29 66  2  0  0  0  0
 30 62  1  0  0  0  0
 30 67  1  0  0  0  0
 31 56  1  0  0  0  0
 31 67  2  0  0  0  0
 32 68  1  0  0  0  0
 32 73  1  0  0  0  0
 33 74  1  0  0  0  0
 33 78  2  0  0  0  0
 34 52  1  0  0  0  0
 34 75  1  0  0  0  0
 34 79  2  0  0  0  0
 35 63  1  0  0  0  0
 35 70  1  0  0  0  0
 35 80  2  0  0  0  0
 36 64  1  0  0  0  0
 36 76  1  0  0  0  0
 36 81  2  0  0  0  0
 37 71  1  0  0  0  0
 37 72  1  0  0  0  0
 37 82  2  0  0  0  0
 38 41  1  0  0  0  0
 39 52  1  0  0  0  0
 40 70  1  0  0  0  0
 41 43  1  0  0  0  0
 42 44  1  0  0  0  0
 42 45  1  0  0  0  0
 43 51  1  0  0  0  0
 44 53  1  0  0  0  0
 45 71  1  0  0  0  0
 46 48  1  0  0  0  0
 46 69  1  0  0  0  0
 47 49  1  0  0  0  0
 47 69  1  0  0  0  0
 48 72  1  0  0  0  0
 49 72  1  0  0  0  0
 50 53  1  0  0  0  0
 50 71  1  0  0  0  0
 51 75  1  0  0  0  0
 52 70  1  0  0  0  0
 53 68  1  0  0  0  0
 57 64  1  0  0  0  0
 58 65  1  0  0  0  0
 59 65  1  0  0  0  0
 60 65  1  0  0  0  0
 61 77  1  0  0  0  0
 62 84  1  0  0  0  0
 63 65  1  0  0  0  0
 63 76  1  0  0  0  0
 64 77  1  0  0  0  0
 66 68  1  0  0  0  0
M  CHG  1  77   1
M  ISO  4  37 100  62 101  72 100  84 101
M  END
> <Batch ID>
0165

> <Smiles>
CNC(C)C(=O)NC(C(=O)N1Cc2cc([101O:1][101CH2:1]c3nc(C)c(N4CC[100N:0]([100C:0](=O)N5CCCC(n6nc(-c7ccc(Oc8ccc(F)cc8F)cc7)c(C(N)=O)c6N)C5)CC4)c(C)c3C)ccc2CC1C(=O)NC1CCCc2ccccc21)C(C)(C)C

> <Shape>
0.282

> <Color>
0.084

> <Negative vol penalty>
0.000

$$$$

  -OEChem-04052322223D

 87 96  0     1  0  0  0  0  0999 V2000
  -29.5514  -33.3175   27.1347 C   0  0  0  0  0  0  0  0  0  0  0  0
  -29.1666  -32.2047   26.3938 C   0  0  0  0  0  0  0  0  0  0  0  0
  -24.6824   -9.0509   22.0132 C   0  0  0  0  0  0  0  0  0  0  0  0
  -23.7480   -9.5368   19.8388 C   0  0  0  0  0  0  0  0  0  0  0  0
  -28.6533  -34.3652   27.3343 C   0  0  0  0  0  0  0  0  0  0  0  0
  -27.8830  -32.1384   25.8530 C   0  0  0  0  0  0  0  0  0  0  0  0
  -27.8782  -30.5228   21.0535 C   0  0  0  0  0  0  0  0  0  0  0  0
  -23.6222   -8.1832   22.2750 C   0  0  0  0  0  0  0  0  0  0  0  0
  -22.6878   -8.6690   20.1006 C   0  0  0  0  0  0  0  0  0  0  0  0
  -28.0300  -29.1531   20.8426 C   0  0  0  0  0  0  0  0  0  0  0  0
  -21.3523   -5.5643   23.3722 C   0  0  0  0  0  0  0  0  0  0  0  0
  -21.6529   -4.3252   23.9376 C   0  0  0  0  0  0  0  0  0  0  0  0
  -25.6477  -28.9438   20.5266 C   0  0  0  0  0  0  0  0  0  0  0  0
  -28.8001  -24.5662   18.9199 C   0  0  0  0  0  0  0  0  0  0  0  0
  -23.0274   -3.7861   22.0252 C   0  0  0  0  0  0  0  0  0  0  0  0
  -24.7453   -9.7278   20.7951 C   0  0  0  0  0  0  0  0  0  0  0  0
  -27.0721  -10.3052   19.9232 C   0  0  0  0  0  0  0  0  0  0  0  0
  -27.3613  -34.3160   26.7875 C   0  0  0  0  0  0  0  0  0  0  0  0
  -26.6066  -31.1126   21.0133 C   0  0  0  0  0  0  0  0  0  0  0  0
  -26.9664  -33.1858   26.0466 C   0  0  0  0  0  0  0  0  0  0  0  0
  -25.4827  -30.3217   20.7348 C   0  0  0  0  0  0  0  0  0  0  0  0
  -28.3600  -25.0374   20.1518 C   0  0  0  0  0  0  0  0  0  0  0  0
  -28.7753  -23.2016   18.6545 C   0  0  0  0  0  0  0  0  0  0  0  0
  -22.6249   -7.9922   21.3187 C   0  0  0  0  0  0  0  0  0  0  0  0
  -26.9144  -28.3629   20.5820 C   0  0  0  0  0  0  0  0  0  0  0  0
  -21.8892   -5.9144   22.1333 C   0  0  0  0  0  0  0  0  0  0  0  0
  -22.4905   -3.4360   23.2642 C   0  0  0  0  0  0  0  0  0  0  0  0
  -22.7267   -5.0252   21.4598 C   0  0  0  0  0  0  0  0  0  0  0  0
  -25.8399  -10.6248   20.5244 C   0  0  0  0  0  0  0  0  0  0  0  0
  -27.9081  -24.1102   21.0769 C   0  0  0  0  0  0  0  0  0  0  0  0
  -28.3050  -22.3565   19.6468 C   0  0  0  0  0  0  0  0  0  0  0  0
  -27.7582  -11.4947   19.8932 C   0  0  0  0  0  0  0  0  0  0  0  0
  -27.5534   -9.0458   19.4354 C   0  0  0  0  0  0  0  0  0  0  0  0
  -24.7921  -32.6763   23.1028 C   0  0  0  0  0  0  0  0  0  0  0  0
  -22.8761  -33.1125   20.5219 C   0  0  0  0  0  0  0  0  0  0  0  0
  -21.8795  -32.0401   17.4391 C   0  0  0  0  0  0  0  0  0  0  0  0
  -28.1360  -16.7739   18.9816 C   0  0  0  0  0  0  0  0  0  0  0  0
  -26.4098  -35.4515   27.0700 C   0  0  0  0  0  0  0  0  0  0  0  0
  -26.4628  -32.5960   21.2164 C   0  0  0  0  0  0  0  0  0  0  0  0
  -24.0980  -30.9095   20.6608 C   0  0  0  0  0  0  0  0  0  0  0  0
  -25.1937  -35.4710   26.1475 C   0  0  0  0  0  0  0  0  0  0  0  0
  -26.7839  -15.9269   22.1111 C   0  0  0  0  0  0  0  0  0  0  0  0
  -24.5886  -34.0755   26.0324 C   0  0  0  0  0  0  0  0  0  0  0  0
  -26.5122  -14.4338   21.9306 C   0  0  0  0  0  0  0  0  0  0  0  0
  -26.4327  -16.7290   20.8570 C   0  0  0  0  0  0  0  0  0  0  0  0
  -29.4500  -20.1629   19.7163 C   0  0  0  0  0  0  0  0  0  0  0  0
  -26.9735  -20.3059   19.4121 C   0  0  0  0  0  0  0  0  0  0  0  0
  -29.4536  -18.8582   18.9241 C   0  0  0  0  0  0  0  0  0  0  0  0
  -27.0227  -19.0069   18.6154 C   0  0  0  0  0  0  0  0  0  0  0  0
  -26.8071  -14.7346   19.4426 C   0  0  0  0  0  0  0  0  0  0  0  0
  -25.5910  -33.0880   25.4229 C   0  0  1  0  0  0  0  0  0  0  0  0
  -25.0622  -33.0050   21.6617 C   0  0  1  0  0  0  0  0  0  0  0  0
  -27.2054  -13.8951   20.6665 C   0  0  2  0  0  0  0  0  0  0  0  0
  -27.4232  -24.5592   22.4165 C   0  0  0  0  0  0  0  0  0  0  0  0
  -30.7359  -23.0110   17.0818 C   0  0  0  0  0  0  0  0  0  0  0  0
  -28.3992  -23.2319   16.1622 C   0  0  0  0  0  0  0  0  0  0  0  0
  -20.2687  -32.5787   15.5918 C   0  0  0  0  0  0  0  0  0  0  0  0
  -20.5923  -31.9491   22.1773 C   0  0  0  0  0  0  0  0  0  0  0  0
  -19.3073  -31.6300   20.0524 C   0  0  0  0  0  0  0  0  0  0  0  0
  -19.9652  -33.9244   20.7776 C   0  0  0  0  0  0  0  0  0  0  0  0
  -24.0706  -32.4675   15.4961 C   0  0  0  0  0  0  0  0  0  0  0  0
  -28.3841  -26.4984   20.4421 C   0  0  0  0  0  0  0  0  0  1  0  0
  -29.2480  -22.6997   17.3325 C   0  0  0  0  0  0  0  0  0  0  0  0
  -21.7345  -32.3480   19.8965 C   0  0  1  0  0  0  0  0  0  0  0  0
  -21.6758  -32.7834   16.1313 C   0  0  2  0  0  0  0  0  0  0  0  0
  -20.4255  -32.4512   20.7292 C   0  0  0  0  0  0  0  0  0  0  0  0
  -25.7459  -11.9161   20.8528 N   0  0  0  0  0  0  0  0  0  0  0  0
  -27.8691  -22.7771   20.8554 N   0  0  0  0  0  0  0  0  0  0  0  0
  -26.9278  -12.4183   20.4566 N   0  0  0  0  0  0  0  0  0  0  0  0
  -28.2784  -20.9808   19.3845 N   0  0  0  0  0  0  0  0  0  0  0  0
  -24.0084  -32.3637   20.8727 N   0  0  0  0  0  0  0  0  0  0  0  0
  -27.0837  -16.1542   19.6721 N   0  0  0  0  0  0  0  0  0  0  0  0
  -28.1667  -18.1772   18.9989 N   0  0  0  0  0  0  0  0  0  0  0  0
  -28.9849  -11.8301   19.4402 N   0  0  0  0  0  0  0  0  0  0  0  0
  -26.7196   -7.9245   19.5441 N   0  0  0  0  0  0  0  0  0  0  0  0
  -25.6708  -33.2691   23.9893 N   0  0  0  0  0  0  0  0  0  0  0  0
  -21.6132  -32.8416   18.5290 N   0  0  0  0  0  0  0  0  0  0  0  0
  -22.6463  -32.3046   15.1067 N   0  3  0  0  0  0  0  0  0  0  0  0
  -28.6955   -8.9152   18.9335 O   0  0  0  0  0  0  0  0  0  0  0  0
  -23.8549  -31.9405   23.3893 O   0  0  0  0  0  0  0  0  0  0  0  0
  -22.7701  -34.3305   20.6863 O   0  0  0  0  0  0  0  0  0  0  0  0
  -22.2354  -30.8648   17.4888 O   0  0  0  0  0  0  0  0  0  0  0  0
  -28.9987  -16.1153   18.3875 O   0  0  0  0  0  0  0  0  0  0  0  0
  -21.5903   -7.1453   21.5736 O   0  0  0  0  0  0  0  0  0  0  0  0
  -27.0606  -27.0165   20.3750 O   0  0  0  0  0  0  0  0  0  1  0  0
  -22.7804   -2.2467   23.8080 F   0  0  0  0  0  0  0  0  0  0  0  0
  -23.2465   -5.3564   20.2698 F   0  0  0  0  0  0  0  0  0  0  0  0
  1  2  1  0  0  0  0
  1  5  2  0  0  0  0
  2  6  2  0  0  0  0
  3  8  2  0  0  0  0
  3 16  1  0  0  0  0
  4  9  1  0  0  0  0
  4 16  2  0  0  0  0
  5 18  1  0  0  0  0
  6 20  1  0  0  0  0
  7 10  2  0  0  0  0
  7 19  1  0  0  0  0
  8 24  1  0  0  0  0
  9 24  2  0  0  0  0
 10 25  1  0  0  0  0
 11 12  2  0  0  0  0
 11 26  1  0  0  0  0
 12 27  1  0  0  0  0
 13 21  1  0  0  0  0
 13 25  2  0  0  0  0
 14 22  1  0  0  0  0
 14 23  2  0  0  0  0
 15 27  2  0  0  0  0
 15 28  1  0  0  0  0
 16 29  1  0  0  0  0
 17 29  1  0  0  0  0
 17 32  2  0  0  0  0
 17 33  1  0  0  0  0
 18 20  2  0  0  0  0
 18 38  1  0  0  0  0
 19 21  2  0  0  0  0
 19 39  1  0  0  0  0
 20 51  1  0  0  0  0
 21 40  1  0  0  0  0
 22 30  2  0  0  0  0
 22 62  1  0  0  0  0
 23 31  1  0  0  0  0
 23 63  1  0  0  0  0
 24 84  1  0  0  0  0
 25 85  1  0  0  0  0
 26 28  2  0  0  0  0
 26 84  1  0  0  0  0
 27 86  1  0  0  0  0
 28 87  1  0  0  0  0
 29 67  2  0  0  0  0
 30 54  1  0  0  0  0
 30 68  1  0  0  0  0
 31 68  2  0  0  0  0
 31 70  1  0  0  0  0
 32 69  1  0  0  0  0
 32 74  1  0  0  0  0
 33 75  1  0  0  0  0
 33 79  2  0  0  0  0
 34 52  1  0  0  0  0
 34 76  1  0  0  0  0
 34 80  2  0  0  0  0
 35 64  1  0  0  0  0
 35 71  1  0  0  0  0
 35 81  2  0  0  0  0
 36 65  1  0  0  0  0
 36 77  1  0  0  0  0
 36 82  2  0  0  0  0
 37 72  1  0  0  0  0
 37 73  1  0  0  0  0
 37 83  2  0  0  0  0
 38 41  1  0  0  0  0
 39 52  1  0  0  0  0
 40 71  1  0  0  0  0
 41 43  1  0  0  0  0
 42 44  1  0  0  0  0
 42 45  1  0  0  0  0
 43 51  1  0  0  0  0
 44 53  1  0  0  0  0
 45 72  1  0  0  0  0
 46 48  1  0  0  0  0
 46 70  1  0  0  0  0
 47 49  1  0  0  0  0
 47 70  1  0  0  0  0
 48 73  1  0  0  0  0
 49 73  1  0  0  0  0
 50 53  1  0  0  0  0
 50 72  1  0  0  0  0
 51 76  1  0  0  0  0
 52 71  1  0  0  0  0
 53 69  1  0  0  0  0
 55 63  1  0  0  0  0
 56 63  1  0  0  0  0
 57 65  1  0  0  0  0
 58 66  1  0  0  0  0
 59 66  1  0  0  0  0
 60 66  1  0  0  0  0
 61 78  1  0  0  0  0
 62 85  1  0  0  0  0
 64 66  1  0  0  0  0
 64 77  1  0  0  0  0
 65 78  1  0  0  0  0
 67 69  1  0  0  0  0
M  CHG  1  78   1
M  ISO  4  37 100  62 101  73 100  85 101
M  END
> <Batch ID>
0165

> <Smiles>
CNC(C)C(=O)NC(C(=O)N1Cc2cc([101O:1][101CH2:1]c3cc(C(C)C)c(N4CC[100N:0]([100C:0](=O)N5CCCC(n6nc(-c7ccc(Oc8ccc(F)cc8F)cc7)c(C(N)=O)c6N)C5)CC4)nc3C)ccc2CC1C(=O)NC1CCCc2ccccc21)C(C)(C)C

> <Shape>
0.281

> <Color>
0.084

> <Negative vol penalty>
0.000

$$$$

  -OEChem-04052322223D

 90100  0     1  0  0  0  0  0999 V2000
  -28.0738  -37.7003   22.2800 C   0  0  0  0  0  0  0  0  0  0  0  0
  -28.2239  -36.7595   21.2663 C   0  0  0  0  0  0  0  0  0  0  0  0
  -23.7630   -8.6394   20.1287 C   0  0  0  0  0  0  0  0  0  0  0  0
  -23.1748  -10.7137   21.2190 C   0  0  0  0  0  0  0  0  0  0  0  0
  -27.8466  -37.2813   23.5903 C   0  0  0  0  0  0  0  0  0  0  0  0
  -28.1480  -35.3990   21.5624 C   0  0  0  0  0  0  0  0  0  0  0  0
  -26.0217  -29.1768   18.7199 C   0  0  0  0  0  0  0  0  0  0  0  0
  -22.8251   -7.9633   20.9090 C   0  0  0  0  0  0  0  0  0  0  0  0
  -22.2369  -10.0375   21.9993 C   0  0  0  0  0  0  0  0  0  0  0  0
  -26.4935  -27.8883   18.4731 C   0  0  0  0  0  0  0  0  0  0  0  0
  -22.6085   -6.7648   24.0619 C   0  0  0  0  0  0  0  0  0  0  0  0
  -22.9969   -5.5553   24.6380 C   0  0  0  0  0  0  0  0  0  0  0  0
  -28.9708  -18.5088   19.5794 C   0  0  0  0  0  0  0  0  0  0  0  0
  -26.0184  -27.2828   20.7593 C   0  0  0  0  0  0  0  0  0  0  0  0
  -21.2296   -4.4194   23.4450 C   0  0  0  0  0  0  0  0  0  0  0  0
  -23.9379  -10.0146   20.2838 C   0  0  0  0  0  0  0  0  0  0  0  0
  -24.9366  -10.8068   18.0741 C   0  0  0  0  0  0  0  0  0  0  0  0
  -27.7582  -35.9152   23.9010 C   0  0  0  0  0  0  0  0  0  0  0  0
  -25.5540  -29.5317   19.9934 C   0  0  0  0  0  0  0  0  0  0  0  0
  -27.9208  -34.9613   22.8783 C   0  0  0  0  0  0  0  0  0  0  0  0
  -29.1387  -18.8823   20.9050 C   0  0  0  0  0  0  0  0  0  0  0  0
  -25.5387  -28.5757   21.0190 C   0  0  0  0  0  0  0  0  0  0  0  0
  -27.9081  -20.6600   19.0836 C   0  0  0  0  0  0  0  0  0  0  0  0
  -28.0869  -21.0337   20.4333 C   0  0  0  0  0  0  0  0  0  0  0  0
  -28.3675  -19.3885   18.6799 C   0  0  0  0  0  0  0  0  0  0  0  0
  -28.7025  -20.1348   21.3277 C   0  0  0  0  0  0  0  0  0  0  0  0
  -22.0620   -8.6624   21.8443 C   0  0  0  0  0  0  0  0  0  0  0  0
  -26.4946  -26.9419   19.4936 C   0  0  0  0  0  0  0  0  0  0  0  0
  -21.5305   -6.8016   23.1774 C   0  0  0  0  0  0  0  0  0  0  0  0
  -22.3075   -4.3826   24.3296 C   0  0  0  0  0  0  0  0  0  0  0  0
  -20.8411   -5.6289   22.8689 C   0  0  0  0  0  0  0  0  0  0  0  0
  -24.9070  -10.7135   19.4785 C   0  0  0  0  0  0  0  0  0  0  0  0
  -26.0447  -11.5722   17.8042 C   0  0  0  0  0  0  0  0  0  0  0  0
  -24.0424  -10.2514   17.1007 C   0  0  0  0  0  0  0  0  0  0  0  0
  -26.4316  -31.6494   22.1955 C   0  0  0  0  0  0  0  0  0  0  0  0
  -23.7291  -30.6423   23.6804 C   0  0  0  0  0  0  0  0  0  0  0  0
  -21.4035  -28.1815   24.1081 C   0  0  0  0  0  0  0  0  0  0  0  0
  -28.7167  -15.6531   21.2941 C   0  0  0  0  0  0  0  0  0  0  0  0
  -27.5585  -35.5095   25.3398 C   0  0  0  0  0  0  0  0  0  0  0  0
  -25.0235  -30.9181   20.2363 C   0  0  0  0  0  0  0  0  0  0  0  0
  -25.0283  -28.9005   22.3983 C   0  0  0  0  0  0  0  0  0  0  0  0
  -27.1183  -34.0575   25.5077 C   0  0  0  0  0  0  0  0  0  0  0  0
  -30.1164  -12.2202   20.3172 C   0  0  0  0  0  0  0  0  0  0  0  0
  -27.9737  -33.1369   24.6431 C   0  0  0  0  0  0  0  0  0  0  0  0
  -29.1140  -11.8519   19.2275 C   0  0  0  0  0  0  0  0  0  0  0  0
  -31.3672  -17.7712   21.8983 C   0  0  0  0  0  0  0  0  0  0  0  0
  -26.6516  -22.8628   18.7054 C   0  0  0  0  0  0  0  0  0  0  0  0
  -30.2036  -13.7277   20.5318 C   0  0  0  0  0  0  0  0  0  0  0  0
  -31.2592  -16.3121   21.4621 C   0  0  0  0  0  0  0  0  0  0  0  0
  -27.7228  -13.5101   20.5864 C   0  0  0  0  0  0  0  0  0  0  0  0
  -27.6213  -22.3741   20.9797 C   0  0  1  0  0  0  0  0  0  0  0  0
  -29.8343  -17.8674   21.9076 C   0  0  2  0  0  0  0  0  0  0  0  0
  -27.8202  -33.4770   23.1558 C   0  0  1  0  0  0  0  0  0  0  0  0
  -25.0493  -31.3183   21.7082 C   0  0  1  0  0  0  0  0  0  0  0  0
  -27.4964  -23.4230   19.8534 C   0  0  2  0  0  0  0  0  0  0  0  0
  -27.8340  -12.7078   19.2799 C   0  0  2  0  0  0  0  0  0  0  0  0
  -27.2932  -21.6118   18.0505 C   0  0  0  0  0  0  0  0  0  0  0  0
  -28.2939  -18.8771   17.2753 C   0  0  0  0  0  0  0  0  0  0  0  0
  -26.3379  -22.1745   21.8014 C   0  0  0  0  0  0  0  0  0  0  0  0
  -26.1814  -20.9136   17.2343 C   0  0  0  0  0  0  0  0  0  0  0  0
  -28.4023  -22.0658   17.0734 C   0  0  0  0  0  0  0  0  0  0  0  0
  -19.3341  -27.6328   25.4172 C   0  0  0  0  0  0  0  0  0  0  0  0
  -25.4379  -30.0983   26.1490 C   0  0  0  0  0  0  0  0  0  0  0  0
  -23.5650  -28.7039   27.0524 C   0  0  0  0  0  0  0  0  0  0  0  0
  -23.2138  -31.1368   26.6280 C   0  0  0  0  0  0  0  0  0  0  0  0
  -19.7740  -27.9339   21.6500 C   0  0  0  0  0  0  0  0  0  0  0  0
  -26.9320  -24.7610   20.3350 C   0  0  0  0  0  0  0  0  0  1  0  0
  -23.3954  -29.5503   24.6679 C   0  0  1  0  0  0  0  0  0  0  0  0
  -19.8862  -28.2221   24.1285 C   0  0  2  0  0  0  0  0  0  0  0  0
  -23.9145  -29.8664   26.0990 C   0  0  0  0  0  0  0  0  0  0  0  0
  -25.9162  -11.3672   20.0601 N   0  0  0  0  0  0  0  0  0  0  0  0
  -26.5903  -11.8785   19.0160 N   0  0  0  0  0  0  0  0  0  0  0  0
  -24.5258  -30.2713   22.5879 N   0  0  0  0  0  0  0  0  0  0  0  0
  -28.9056  -14.3569   20.7972 N   0  0  0  0  0  0  0  0  0  0  0  0
  -29.8187  -16.4390   21.5478 N   0  0  0  0  0  0  0  0  0  0  0  0
  -28.9189  -20.4904   22.6844 N   0  0  0  0  0  0  0  0  0  0  0  0
  -26.5958  -12.0062   16.6508 N   0  0  0  0  0  0  0  0  0  0  0  0
  -22.9350  -11.0115   16.7002 N   0  0  0  0  0  0  0  0  0  0  0  0
  -26.5743  -32.9491   22.6426 N   0  0  0  0  0  0  0  0  0  0  0  0
  -21.9522  -29.3528   24.5858 N   0  0  0  0  0  0  0  0  0  0  0  0
  -19.3318  -27.4476   22.9823 N   0  3  0  0  0  0  0  0  0  0  0  0
  -24.2110   -9.1081   16.6129 O   0  0  0  0  0  0  0  0  0  0  0  0
  -27.3037  -30.7889   22.1692 O   0  0  0  0  0  0  0  0  0  0  0  0
  -23.2929  -31.7809   23.8676 O   0  0  0  0  0  0  0  0  0  0  0  0
  -22.0385  -27.2067   23.7118 O   0  0  0  0  0  0  0  0  0  0  0  0
  -27.5818  -16.1105   21.4908 O   0  0  0  0  0  0  0  0  0  0  0  0
  -21.1466   -8.0030   22.6056 O   0  0  0  0  0  0  0  0  0  0  0  0
  -26.9596  -25.6718   19.2533 O   0  0  0  0  0  0  0  0  0  1  0  0
  -22.6816   -3.2210   24.8817 F   0  0  0  0  0  0  0  0  0  0  0  0
  -19.8055   -5.6578   22.0189 F   0  0  0  0  0  0  0  0  0  0  0  0
  1  2  1  0  0  0  0
  1  5  2  0  0  0  0
  2  6  2  0  0  0  0
  3  8  2  0  0  0  0
  3 16  1  0  0  0  0
  4  9  1  0  0  0  0
  4 16  2  0  0  0  0
  5 18  1  0  0  0  0
  6 20  1  0  0  0  0
  7 10  2  0  0  0  0
  7 19  1  0  0  0  0
  8 27  1  0  0  0  0
  9 27  2  0  0  0  0
 10 28  1  0  0  0  0
 11 12  2  0  0  0  0
 11 29  1  0  0  0  0
 12 30  1  0  0  0  0
 13 21  1  0  0  0  0
 13 25  2  0  0  0  0
 14 22  1  0  0  0  0
 14 28  2  0  0  0  0
 15 30  2  0  0  0  0
 15 31  1  0  0  0  0
 16 32  1  0  0  0  0
 17 32  1  0  0  0  0
 17 33  2  0  0  0  0
 17 34  1  0  0  0  0
 18 20  2  0  0  0  0
 18 39  1  0  0  0  0
 19 22  2  0  0  0  0
 19 40  1  0  0  0  0
 20 53  1  0  0  0  0
 21 26  2  0  0  0  0
 21 52  1  0  0  0  0
 22 41  1  0  0  0  0
 23 24  2  0  0  0  0
 23 25  1  0  0  0  0
 23 57  1  0  0  0  0
 24 26  1  0  0  0  0
 24 51  1  0  0  0  0
 25 58  1  0  0  0  0
 26 76  1  0  0  0  0
 27 87  1  0  0  0  0
 28 88  1  0  0  0  0
 29 31  2  0  0  0  0
 29 87  1  0  0  0  0
 30 89  1  0  0  0  0
 31 90  1  0  0  0  0
 32 71  2  0  0  0  0
 33 72  1  0  0  0  0
 33 77  1  0  0  0  0
 34 78  1  0  0  0  0
 34 82  2  0  0  0  0
 35 54  1  0  0  0  0
 35 79  1  0  0  0  0
 35 83  2  0  0  0  0
 36 68  1  0  0  0  0
 36 73  1  0  0  0  0
 36 84  2  0  0  0  0
 37 69  1  0  0  0  0
 37 80  1  0  0  0  0
 37 85  2  0  0  0  0
 38 74  1  0  0  0  0
 38 75  1  0  0  0  0
 38 86  2  0  0  0  0
 39 42  1  0  0  0  0
 40 54  1  0  0  0  0
 41 73  1  0  0  0  0
 42 44  1  0  0  0  0
 43 45  1  0  0  0  0
 43 48  1  0  0  0  0
 44 53  1  0  0  0  0
 45 56  1  0  0  0  0
 46 49  1  0  0  0  0
 46 52  1  0  0  0  0
 47 55  1  0  0  0  0
 47 57  1  0  0  0  0
 48 74  1  0  0  0  0
 49 75  1  0  0  0  0
 50 56  1  0  0  0  0
 50 74  1  0  0  0  0
 51 55  1  0  0  0  0
 51 59  1  0  0  0  0
 52 75  1  0  0  0  0
 53 79  1  0  0  0  0
 54 73  1  0  0  0  0
 55 67  1  0  0  0  0
 56 72  1  0  0  0  0
 57 60  1  0  0  0  0
 57 61  1  0  0  0  0
 62 69  1  0  0  0  0
 63 70  1  0  0  0  0
 64 70  1  0  0  0  0
 65 70  1  0  0  0  0
 66 81  1  0  0  0  0
 67 88  1  0  0  0  0
 68 70  1  0  0  0  0
 68 80  1  0  0  0  0
 69 81  1  0  0  0  0
 71 72  1  0  0  0  0
M  CHG  1  81   1
M  ISO  4  38 100  67 101  75 100  88 101
M  END
> <Batch ID>
0165

> <Smiles>
CNC(C)C(=O)NC(C(=O)N1Cc2cc([101O:1][101CH2:1]C3CC(C)(C)c4c(C)cc(C5CC[100N:0]5[100C:0](=O)N5CCCC(n6nc(-c7ccc(Oc8ccc(F)cc8F)cc7)c(C(N)=O)c6N)C5)c(N)c4C3C)ccc2CC1C(=O)NC1CCCc2ccccc21)C(C)(C)C

> <Shape>
0.329

> <Color>
0.108

> <Negative vol penalty>
0.000

$$$$

  -OEChem-04052322223D

 92102  0     1  0  0  0  0  0999 V2000
  -20.3310  -25.7864   29.1549 C   0  0  0  0  0  0  0  0  0  0  0  0
  -20.5395  -25.1795   27.9205 C   0  0  0  0  0  0  0  0  0  0  0  0
  -29.9710  -20.2520   20.7618 C   0  0  0  0  0  0  0  0  0  0  0  0
  -29.9477  -19.7387   18.4010 C   0  0  0  0  0  0  0  0  0  0  0  0
  -20.6675  -27.1271   29.3369 C   0  0  0  0  0  0  0  0  0  0  0  0
  -21.0836  -25.9134   26.8671 C   0  0  0  0  0  0  0  0  0  0  0  0
  -24.6938  -23.3700   24.3885 C   0  0  0  0  0  0  0  0  0  0  0  0
  -29.6695  -21.5834   20.4753 C   0  0  0  0  0  0  0  0  0  0  0  0
  -29.6461  -21.0701   18.1145 C   0  0  0  0  0  0  0  0  0  0  0  0
  -24.2782  -22.3937   23.4842 C   0  0  0  0  0  0  0  0  0  0  0  0
  -29.2251  -24.4083   16.7402 C   0  0  0  0  0  0  0  0  0  0  0  0
  -29.9277  -25.0238   15.7043 C   0  0  0  0  0  0  0  0  0  0  0  0
  -24.6329  -23.9369   21.6644 C   0  0  0  0  0  0  0  0  0  0  0  0
  -32.0028  -24.6283   16.8767 C   0  0  0  0  0  0  0  0  0  0  0  0
  -30.1102  -19.3297   19.7246 C   0  0  0  0  0  0  0  0  0  0  0  0
  -31.5606  -17.4656   20.6886 C   0  0  0  0  0  0  0  0  0  0  0  0
  -21.2250  -27.8751   28.2880 C   0  0  0  0  0  0  0  0  0  0  0  0
  -25.0722  -24.6428   23.9378 C   0  0  0  0  0  0  0  0  0  0  0  0
  -21.4267  -27.2657   27.0348 C   0  0  0  0  0  0  0  0  0  0  0  0
  -25.0553  -24.9269   22.5648 C   0  0  0  0  0  0  0  0  0  0  0  0
  -22.7258  -16.0865   18.4602 C   0  0  0  0  0  0  0  0  0  0  0  0
  -22.4102  -17.4446   18.4978 C   0  0  0  0  0  0  0  0  0  0  0  0
  -22.4270  -15.3321   17.3256 C   0  0  0  0  0  0  0  0  0  0  0  0
  -21.7955  -18.0484   17.4008 C   0  0  0  0  0  0  0  0  0  0  0  0
  -21.8123  -15.9359   16.2286 C   0  0  0  0  0  0  0  0  0  0  0  0
  -21.4966  -17.2940   16.2662 C   0  0  0  0  0  0  0  0  0  0  0  0
  -29.5070  -21.9924   19.1517 C   0  0  0  0  0  0  0  0  0  0  0  0
  -24.2450  -22.6780   22.1221 C   0  0  0  0  0  0  0  0  0  0  0  0
  -29.9114  -23.9029   17.8445 C   0  0  0  0  0  0  0  0  0  0  0  0
  -31.3166  -25.1338   15.7725 C   0  0  0  0  0  0  0  0  0  0  0  0
  -31.3002  -24.0129   17.9127 C   0  0  0  0  0  0  0  0  0  0  0  0
  -30.4223  -17.9543   20.0199 C   0  0  0  0  0  0  0  0  0  0  0  0
  -31.3849  -16.1036   20.7152 C   0  0  0  0  0  0  0  0  0  0  0  0
  -32.6771  -18.1789   21.2367 C   0  0  0  0  0  0  0  0  0  0  0  0
  -23.9973  -27.5980   24.4016 C   0  0  0  0  0  0  0  0  0  0  0  0
  -26.6351  -28.4076   22.6959 C   0  0  0  0  0  0  0  0  0  0  0  0
  -29.0063  -27.4922   20.4186 C   0  0  0  0  0  0  0  0  0  0  0  0
  -26.1282  -12.9252   20.2728 C   0  0  0  0  0  0  0  0  0  0  0  0
  -21.5288  -29.3343   28.5185 C   0  0  0  0  0  0  0  0  0  0  0  0
  -25.5436  -25.6764   24.9237 C   0  0  0  0  0  0  0  0  0  0  0  0
  -25.4709  -26.2713   22.0279 C   0  0  0  0  0  0  0  0  0  0  0  0
  -22.4484  -29.9395   27.4610 C   0  0  0  0  0  0  0  0  0  0  0  0
  -29.0911  -12.8006   18.0110 C   0  0  0  0  0  0  0  0  0  0  0  0
  -21.9870  -29.5430   26.0622 C   0  0  0  0  0  0  0  0  0  0  0  0
  -30.0435  -13.8689   18.5475 C   0  0  0  0  0  0  0  0  0  0  0  0
  -24.0868  -18.0449   20.4479 C   0  0  0  0  0  0  0  0  0  0  0  0
  -28.1701  -12.2465   19.0884 C   0  0  0  0  0  0  0  0  0  0  0  0
  -24.7985  -14.9147   19.3041 C   0  0  0  0  0  0  0  0  0  0  0  0
  -23.8945  -13.6027   21.0918 C   0  0  0  0  0  0  0  0  0  0  0  0
  -28.0009  -14.6086   19.8733 C   0  0  0  0  0  0  0  0  0  0  0  0
  -23.3928  -15.4352   19.6505 C   0  0  2  0  0  0  0  0  0  0  0  0
  -22.0377  -28.0218   25.8751 C   0  0  1  0  0  0  0  0  0  0  0  0
  -22.7437  -18.2870   19.7659 C   0  0  1  0  0  0  0  0  0  0  0  0
  -25.4162  -27.1036   24.3999 C   0  0  1  0  0  0  0  0  0  0  0  0
  -22.7343  -14.2055   20.3012 C   0  0  2  0  0  0  0  0  0  0  0  0
  -29.5372  -14.5233   19.8438 C   0  0  2  0  0  0  0  0  0  0  0  0
  -24.2734  -19.5651   20.3017 C   0  0  2  0  0  0  0  0  0  0  0  0
  -22.7665  -13.8753   17.2850 C   0  0  0  0  0  0  0  0  0  0  0  0
  -21.4597  -19.5054   17.4445 C   0  0  0  0  0  0  0  0  0  0  0  0
  -21.4919  -15.1274   15.0111 C   0  0  0  0  0  0  0  0  0  0  0  0
  -20.8380  -17.9432   15.0903 C   0  0  0  0  0  0  0  0  0  0  0  0
  -21.5435  -14.5437   21.1860 C   0  0  0  0  0  0  0  0  0  0  0  0
  -25.5078  -19.9865   19.5189 C   0  0  0  0  0  0  0  0  0  0  0  0
  -31.0088  -28.3805   19.1946 C   0  0  0  0  0  0  0  0  0  0  0  0
  -24.7979  -29.9875   20.8416 C   0  0  0  0  0  0  0  0  0  0  0  0
  -26.6553  -30.0442   19.1638 C   0  0  0  0  0  0  0  0  0  0  0  0
  -26.9554  -31.1266   21.3911 C   0  0  0  0  0  0  0  0  0  0  0  0
  -30.7885  -25.4586   21.6216 C   0  0  0  0  0  0  0  0  0  0  0  0
  -24.0821  -20.3677   21.5819 C   0  0  0  0  0  0  0  0  0  1  0  0
  -26.9424  -28.6035   21.2310 C   0  0  1  0  0  0  0  0  0  0  0  0
  -30.5176  -27.6346   20.4255 C   0  0  2  0  0  0  0  0  0  0  0  0
  -26.3280  -29.9156   20.6669 C   0  0  0  0  0  0  0  0  0  0  0  0
  -29.5853  -16.9820   19.6484 N   0  0  0  0  0  0  0  0  0  0  0  0
  -30.1983  -15.8686   20.0851 N   0  0  0  0  0  0  0  0  0  0  0  0
  -25.9180  -27.2506   23.0321 N   0  0  0  0  0  0  0  0  0  0  0  0
  -27.3567  -13.2981   19.7093 N   0  0  0  0  0  0  0  0  0  0  0  0
  -25.0712  -13.8359   20.2581 N   0  0  0  0  0  0  0  0  0  0  0  0
  -32.1311  -15.0962   21.2157 N   0  0  0  0  0  0  0  0  0  0  0  0
  -33.7881  -18.4142   20.4153 N   0  0  0  0  0  0  0  0  0  0  0  0
  -23.3987  -27.5858   25.6470 N   0  0  0  0  0  0  0  0  0  0  0  0
  -28.3933  -28.5200   21.1035 N   0  0  0  0  0  0  0  0  0  0  0  0
  -31.1642  -26.2921   20.4506 N   0  3  0  0  0  0  0  0  0  0  0  0
  -32.6958  -18.5810   22.4247 O   0  0  0  0  0  0  0  0  0  0  0  0
  -23.4841  -27.9649   23.3510 O   0  0  0  0  0  0  0  0  0  0  0  0
  -27.0234  -29.2464   23.5127 O   0  0  0  0  0  0  0  0  0  0  0  0
  -28.4272  -26.5643   19.8582 O   0  0  0  0  0  0  0  0  0  0  0  0
  -25.9756  -11.7891   20.7458 O   0  0  0  0  0  0  0  0  0  0  0  0
  -23.0912  -19.6586   19.4635 O   0  0  0  0  0  0  0  0  0  0  0  0
  -29.2125  -23.2915   18.8717 O   0  0  0  0  0  0  0  0  0  0  0  0
  -23.8358  -21.7191   21.2300 O   0  0  0  0  0  0  0  0  0  1  0  0
  -31.9913  -25.7234   14.7769 F   0  0  0  0  0  0  0  0  0  0  0  0
  -31.9651  -23.5282   18.9704 F   0  0  0  0  0  0  0  0  0  0  0  0
  1  2  1  0  0  0  0
  1  5  2  0  0  0  0
  2  6  2  0  0  0  0
  3  8  2  0  0  0  0
  3 15  1  0  0  0  0
  4  9  1  0  0  0  0
  4 15  2  0  0  0  0
  5 17  1  0  0  0  0
  6 19  1  0  0  0  0
  7 10  2  0  0  0  0
  7 18  1  0  0  0  0
  8 27  1  0  0  0  0
  9 27  2  0  0  0  0
 10 28  1  0  0  0  0
 11 12  2  0  0  0  0
 11 29  1  0  0  0  0
 12 30  1  0  0  0  0
 13 20  1  0  0  0  0
 13 28  2  0  0  0  0
 14 30  2  0  0  0  0
 14 31  1  0  0  0  0
 15 32  1  0  0  0  0
 16 32  1  0  0  0  0
 16 33  2  0  0  0  0
 16 34  1  0  0  0  0
 17 19  2  0  0  0  0
 17 39  1  0  0  0  0
 18 20  2  0  0  0  0
 18 40  1  0  0  0  0
 19 52  1  0  0  0  0
 20 41  1  0  0  0  0
 21 22  2  0  0  0  0
 21 23  1  0  0  0  0
 21 51  1  0  0  0  0
 22 24  1  0  0  0  0
 22 53  1  0  0  0  0
 23 25  2  0  0  0  0
 23 58  1  0  0  0  0
 24 26  2  0  0  0  0
 24 59  1  0  0  0  0
 25 26  1  0  0  0  0
 25 60  1  0  0  0  0
 26 61  1  0  0  0  0
 27 89  1  0  0  0  0
 28 90  1  0  0  0  0
 29 31  2  0  0  0  0
 29 89  1  0  0  0  0
 30 91  1  0  0  0  0
 31 92  1  0  0  0  0
 32 73  2  0  0  0  0
 33 74  1  0  0  0  0
 33 78  1  0  0  0  0
 34 79  1  0  0  0  0
 34 83  2  0  0  0  0
 35 54  1  0  0  0  0
 35 80  1  0  0  0  0
 35 84  2  0  0  0  0
 36 70  1  0  0  0  0
 36 75  1  0  0  0  0
 36 85  2  0  0  0  0
 37 71  1  0  0  0  0
 37 81  1  0  0  0  0
 37 86  2  0  0  0  0
 38 76  1  0  0  0  0
 38 77  1  0  0  0  0
 38 87  2  0  0  0  0
 39 42  1  0  0  0  0
 40 54  1  0  0  0  0
 41 75  1  0  0  0  0
 42 44  1  0  0  0  0
 43 45  1  0  0  0  0
 43 47  1  0  0  0  0
 44 52  1  0  0  0  0
 45 56  1  0  0  0  0
 46 53  1  0  0  0  0
 46 57  1  0  0  0  0
 47 76  1  0  0  0  0
 48 51  1  0  0  0  0
 48 77  1  0  0  0  0
 49 55  1  0  0  0  0
 49 77  1  0  0  0  0
 50 56  1  0  0  0  0
 50 76  1  0  0  0  0
 51 55  1  0  0  0  0
 52 80  1  0  0  0  0
 53 88  1  0  0  0  0
 54 75  1  0  0  0  0
 55 62  1  0  0  0  0
 56 74  1  0  0  0  0
 57 63  1  0  0  0  0
 57 69  1  0  0  0  0
 57 88  1  0  0  0  0
 64 71  1  0  0  0  0
 65 72  1  0  0  0  0
 66 72  1  0  0  0  0
 67 72  1  0  0  0  0
 68 82  1  0  0  0  0
 69 90  1  0  0  0  0
 70 72  1  0  0  0  0
 70 81  1  0  0  0  0
 71 82  1  0  0  0  0
 73 74  1  0  0  0  0
M  CHG  1  82   1
M  ISO  4  38 100  69 101  77 100  90 101
M  END
> <Batch ID>
0165

> <Smiles>
CNC(C)C(=O)NC(C(=O)N1Cc2cc([101O:1][101CH2:1]C3(C)CC(c4c(C)c(C)c(C)c(C)c4C4C[100N:0]([100C:0](=O)N5CCCC(n6nc(-c7ccc(Oc8ccc(F)cc8F)cc7)c(C(N)=O)c6N)C5)CC4C)O3)ccc2CC1C(=O)NC1CCCc2ccccc21)C(C)(C)C

> <Shape>
0.199

> <Color>
0.080

> <Negative vol penalty>
0.000

$$$$

  -OEChem-04052322223D

 89 98  0     1  0  0  0  0  0999 V2000
  -17.6281  -25.7678   22.8068 C   0  0  0  0  0  0  0  0  0  0  0  0
  -18.8879  -25.4473   22.3111 C   0  0  0  0  0  0  0  0  0  0  0  0
  -23.5159  -10.7596   22.4924 C   0  0  0  0  0  0  0  0  0  0  0  0
  -24.5621   -8.9038   21.3530 C   0  0  0  0  0  0  0  0  0  0  0  0
  -17.2154  -27.0988   22.8506 C   0  0  0  0  0  0  0  0  0  0  0  0
  -19.7353  -26.4577   21.8579 C   0  0  0  0  0  0  0  0  0  0  0  0
  -25.8410  -26.6182   22.3055 C   0  0  0  0  0  0  0  0  0  0  0  0
  -22.3621   -9.9972   22.6748 C   0  0  0  0  0  0  0  0  0  0  0  0
  -23.4084   -8.1413   21.5354 C   0  0  0  0  0  0  0  0  0  0  0  0
  -26.8563  -26.3093   21.4012 C   0  0  0  0  0  0  0  0  0  0  0  0
  -21.9596   -6.3756   24.0260 C   0  0  0  0  0  0  0  0  0  0  0  0
  -22.1163   -5.0597   24.4614 C   0  0  0  0  0  0  0  0  0  0  0  0
  -27.0208  -28.6395   20.7992 C   0  0  0  0  0  0  0  0  0  0  0  0
  -21.0278   -4.2665   22.4557 C   0  0  0  0  0  0  0  0  0  0  0  0
  -24.6159  -10.2129   21.8315 C   0  0  0  0  0  0  0  0  0  0  0  0
  -26.9132  -11.0907   22.5092 C   0  0  0  0  0  0  0  0  0  0  0  0
  -18.0619  -28.1269   22.4068 C   0  0  0  0  0  0  0  0  0  0  0  0
  -25.3998  -27.9408   22.4557 C   0  0  0  0  0  0  0  0  0  0  0  0
  -19.3330  -27.8037   21.8947 C   0  0  0  0  0  0  0  0  0  0  0  0
  -26.0016  -28.9629   21.7079 C   0  0  0  0  0  0  0  0  0  0  0  0
  -30.8330  -23.4440   17.7945 C   0  0  0  0  0  0  0  0  0  0  0  0
  -30.3524  -22.2369   17.2994 C   0  0  0  0  0  0  0  0  0  0  0  0
  -31.0581  -23.5891   19.1590 C   0  0  0  0  0  0  0  0  0  0  0  0
  -22.3084   -8.6881   22.1963 C   0  0  0  0  0  0  0  0  0  0  0  0
  -27.4443  -27.3196   20.6459 C   0  0  0  0  0  0  0  0  0  0  0  0
  -21.3369   -6.6369   22.8055 C   0  0  0  0  0  0  0  0  0  0  0  0
  -21.6504   -4.0052   23.6762 C   0  0  0  0  0  0  0  0  0  0  0  0
  -20.8711   -5.5824   22.0203 C   0  0  0  0  0  0  0  0  0  0  0  0
  -25.8078  -11.0001   21.6423 C   0  0  0  0  0  0  0  0  0  0  0  0
  -30.1146  -21.2139   18.2030 C   0  0  0  0  0  0  0  0  0  0  0  0
  -30.7886  -22.5055   19.9794 C   0  0  0  0  0  0  0  0  0  0  0  0
  -27.7719  -11.9594   21.8811 C   0  0  0  0  0  0  0  0  0  0  0  0
  -27.1433  -10.4472   23.7696 C   0  0  0  0  0  0  0  0  0  0  0  0
  -22.6393  -29.4498   22.0016 C   0  0  0  0  0  0  0  0  0  0  0  0
  -24.2348  -31.9475   23.3202 C   0  0  0  0  0  0  0  0  0  0  0  0
  -27.2276  -33.4432   23.9931 C   0  0  0  0  0  0  0  0  0  0  0  0
  -28.7756  -16.5923   19.2617 C   0  0  0  0  0  0  0  0  0  0  0  0
  -17.5536  -29.5467   22.4298 C   0  0  0  0  0  0  0  0  0  0  0  0
  -24.3221  -28.2613   23.4548 C   0  0  0  0  0  0  0  0  0  0  0  0
  -25.5781  -30.4016   21.8466 C   0  0  0  0  0  0  0  0  0  0  0  0
  -18.6565  -30.5911   22.2785 C   0  0  0  0  0  0  0  0  0  0  0  0
  -27.7304  -13.8481   17.2050 C   0  0  0  0  0  0  0  0  0  0  0  0
  -19.5971  -30.2129   21.1387 C   0  0  0  0  0  0  0  0  0  0  0  0
  -27.1942  -12.8759   18.2528 C   0  0  0  0  0  0  0  0  0  0  0  0
  -28.0623  -19.7825   17.6893 C   0  0  0  0  0  0  0  0  0  0  0  0
  -27.4118  -15.3048   17.5476 C   0  0  0  0  0  0  0  0  0  0  0  0
  -27.8321  -18.2804   17.6069 C   0  0  0  0  0  0  0  0  0  0  0  0
  -27.3033  -14.7290   19.9556 C   0  0  0  0  0  0  0  0  0  0  0  0
  -20.2905  -28.8738   21.4169 C   0  0  1  0  0  0  0  0  0  0  0  0
  -29.5925  -19.8796   17.7255 C   0  0  2  0  0  0  0  0  0  0  0  0
  -23.5974  -29.5694   23.1530 C   0  0  1  0  0  0  0  0  0  0  0  0
  -27.6768  -13.2697   19.6584 C   0  0  1  0  0  0  0  0  0  0  0  0
  -29.9922  -18.6746   18.6056 C   0  0  2  0  0  0  0  0  0  0  0  0
  -31.1047  -24.5828   16.8640 C   0  0  0  0  0  0  0  0  0  0  0  0
  -30.1021  -22.0506   15.8404 C   0  0  0  0  0  0  0  0  0  0  0  0
  -31.0082  -22.6015   21.4538 C   0  0  0  0  0  0  0  0  0  0  0  0
  -31.3483  -18.1014   18.2018 C   0  0  0  0  0  0  0  0  0  0  0  0
  -28.2102  -35.4959   25.0505 C   0  0  0  0  0  0  0  0  0  0  0  0
  -31.3214  -27.3685   20.0165 C   0  0  0  0  0  0  0  0  0  0  0  0
  -23.4381  -33.5865   20.8730 C   0  0  0  0  0  0  0  0  0  0  0  0
  -25.1915  -35.2571   21.5076 C   0  0  0  0  0  0  0  0  0  0  0  0
  -23.2793  -34.8129   23.0467 C   0  0  0  0  0  0  0  0  0  0  0  0
  -28.6915  -31.8454   26.0089 C   0  0  0  0  0  0  0  0  0  0  0  0
  -31.5735  -24.8715   19.7212 C   0  0  0  0  0  0  0  0  0  0  0  0
  -29.2676  -25.9045   20.0722 C   0  0  0  0  0  0  0  0  0  1  0  0
  -25.0921  -33.0698   22.7870 C   0  0  1  0  0  0  0  0  0  0  0  0
  -27.7857  -34.0518   25.2670 C   0  0  2  0  0  0  0  0  0  0  0  0
  -30.6635  -26.0981   19.4629 C   0  0  1  0  0  0  0  0  0  0  0  0
  -24.2571  -34.1543   22.0493 C   0  0  0  0  0  0  0  0  0  0  0  0
  -25.9486  -11.7513   20.5469 N   0  0  0  0  0  0  0  0  0  0  0  0
  -30.3211  -21.3174   19.5350 N   0  0  0  0  0  0  0  0  0  0  0  0
  -27.1526  -12.3224   20.7214 N   0  0  0  0  0  0  0  0  0  0  0  0
  -24.5161  -30.6635   22.8321 N   0  0  0  0  0  0  0  0  0  0  0  0
  -27.8150  -15.6315   18.9205 N   0  0  0  0  0  0  0  0  0  0  0  0
  -28.9023  -17.7035   18.4231 N   0  0  0  0  0  0  0  0  0  0  0  0
  -28.9887  -12.4406   22.2132 N   0  0  0  0  0  0  0  0  0  0  0  0
  -26.1575   -9.5854   24.2696 N   0  0  0  0  0  0  0  0  0  0  0  0
  -21.3679  -29.0502   22.3668 N   0  0  0  0  0  0  0  0  0  0  0  0
  -25.8568  -33.5742   23.9224 N   0  0  0  0  0  0  0  0  0  0  0  0
  -28.9708  -33.2785   25.7345 N   0  3  0  0  0  0  0  0  0  0  0  0
  -28.1848  -10.6436   24.4406 O   0  0  0  0  0  0  0  0  0  0  0  0
  -23.0246  -29.7029   20.8662 O   0  0  0  0  0  0  0  0  0  0  0  0
  -23.3529  -32.1996   24.1450 O   0  0  0  0  0  0  0  0  0  0  0  0
  -27.9372  -32.9086   23.1438 O   0  0  0  0  0  0  0  0  0  0  0  0
  -29.4664  -16.4784   20.2825 O   0  0  0  0  0  0  0  0  0  0  0  0
  -21.1828   -7.9438   22.3743 O   0  0  0  0  0  0  0  0  0  0  0  0
  -28.4418  -27.0187   19.7560 O   0  0  0  0  0  0  0  0  0  1  0  0
  -21.8023   -2.7415   24.0937 F   0  0  0  0  0  0  0  0  0  0  0  0
  -20.2731   -5.8271   20.8462 F   0  0  0  0  0  0  0  0  0  0  0  0
  1  2  1  0  0  0  0
  1  5  2  0  0  0  0
  2  6  2  0  0  0  0
  3  8  2  0  0  0  0
  3 15  1  0  0  0  0
  4  9  1  0  0  0  0
  4 15  2  0  0  0  0
  5 17  1  0  0  0  0
  6 19  1  0  0  0  0
  7 10  2  0  0  0  0
  7 18  1  0  0  0  0
  8 24  1  0  0  0  0
  9 24  2  0  0  0  0
 10 25  1  0  0  0  0
 11 12  2  0  0  0  0
 11 26  1  0  0  0  0
 12 27  1  0  0  0  0
 13 20  1  0  0  0  0
 13 25  2  0  0  0  0
 14 27  2  0  0  0  0
 14 28  1  0  0  0  0
 15 29  1  0  0  0  0
 16 29  1  0  0  0  0
 16 32  2  0  0  0  0
 16 33  1  0  0  0  0
 17 19  2  0  0  0  0
 17 38  1  0  0  0  0
 18 20  2  0  0  0  0
 18 39  1  0  0  0  0
 19 49  1  0  0  0  0
 20 40  1  0  0  0  0
 21 22  1  0  0  0  0
 21 23  2  0  0  0  0
 21 54  1  0  0  0  0
 22 30  2  0  0  0  0
 22 55  1  0  0  0  0
 23 31  1  0  0  0  0
 23 64  1  0  0  0  0
 24 86  1  0  0  0  0
 25 87  1  0  0  0  0
 26 28  2  0  0  0  0
 26 86  1  0  0  0  0
 27 88  1  0  0  0  0
 28 89  1  0  0  0  0
 29 70  2  0  0  0  0
 30 50  1  0  0  0  0
 30 71  1  0  0  0  0
 31 56  1  0  0  0  0
 31 71  2  0  0  0  0
 32 72  1  0  0  0  0
 32 76  1  0  0  0  0
 33 77  1  0  0  0  0
 33 81  2  0  0  0  0
 34 51  1  0  0  0  0
 34 78  1  0  0  0  0
 34 82  2  0  0  0  0
 35 66  1  0  0  0  0
 35 73  1  0  0  0  0
 35 83  2  0  0  0  0
 36 67  1  0  0  0  0
 36 79  1  0  0  0  0
 36 84  2  0  0  0  0
 37 74  1  0  0  0  0
 37 75  1  0  0  0  0
 37 85  2  0  0  0  0
 38 41  1  0  0  0  0
 39 51  1  0  0  0  0
 40 73  1  0  0  0  0
 41 43  1  0  0  0  0
 42 44  1  0  0  0  0
 42 46  1  0  0  0  0
 43 49  1  0  0  0  0
 44 52  1  0  0  0  0
 45 47  1  0  0  0  0
 45 50  1  0  0  0  0
 46 74  1  0  0  0  0
 47 75  1  0  0  0  0
 48 52  1  0  0  0  0
 48 74  1  0  0  0  0
 49 78  1  0  0  0  0
 50 53  1  0  0  0  0
 51 73  1  0  0  0  0
 52 72  1  0  0  0  0
 53 57  1  0  0  0  0
 53 75  1  0  0  0  0
 58 67  1  0  0  0  0
 59 68  1  0  0  0  0
 60 69  1  0  0  0  0
 61 69  1  0  0  0  0
 62 69  1  0  0  0  0
 63 80  1  0  0  0  0
 64 68  1  0  0  0  0
 65 68  1  0  0  0  0
 65 87  1  0  0  0  0
 66 69  1  0  0  0  0
 66 79  1  0  0  0  0
 67 80  1  0  0  0  0
 70 72  1  0  0  0  0
M  CHG  1  80   1
M  ISO  4  37 100  65 101  75 100  87 101
M  END
> <Batch ID>
0165

> <Smiles>
CNC(C)C(=O)NC(C(=O)N1Cc2cc([101O:1][101CH2:1]C(C)Cc3c(C)nc(C4CC[100N:0]([100C:0](=O)N5CCCC(n6nc(-c7ccc(Oc8ccc(F)cc8F)cc7)c(C(N)=O)c6N)C5)C4C)c(C)c3C)ccc2CC1C(=O)NC1CCCc2ccccc21)C(C)(C)C

> <Shape>
0.350

> <Color>
0.131

> <Negative vol penalty>
0.000

$$$$

  -OEChem-04052322223D

 85 96  0     1  0  0  0  0  0999 V2000
  -27.1221  -11.7278   17.3760 C   0  0  0  0  0  0  0  0  0  0  0  0
  -26.2780  -12.7508   16.9560 C   0  0  0  0  0  0  0  0  0  0  0  0
  -30.3496  -26.8919   21.4524 C   0  0  0  0  0  0  0  0  0  0  0  0
  -28.7812  -25.0727   21.7126 C   0  0  0  0  0  0  0  0  0  0  0  0
  -27.1448  -11.3512   18.7182 C   0  0  0  0  0  0  0  0  0  0  0  0
  -25.4552  -13.3970   17.8779 C   0  0  0  0  0  0  0  0  0  0  0  0
  -22.5694  -19.8078   19.2530 C   0  0  0  0  0  0  0  0  0  0  0  0
  -31.2822  -26.1981   22.2234 C   0  0  0  0  0  0  0  0  0  0  0  0
  -29.7139  -24.3789   22.4836 C   0  0  0  0  0  0  0  0  0  0  0  0
  -21.3352  -20.3983   19.5210 C   0  0  0  0  0  0  0  0  0  0  0  0
  -32.4805  -22.5105   21.9588 C   0  0  0  0  0  0  0  0  0  0  0  0
  -32.6631  -21.1546   21.6875 C   0  0  0  0  0  0  0  0  0  0  0  0
  -21.5168  -19.7167   21.8279 C   0  0  0  0  0  0  0  0  0  0  0  0
  -31.9963  -20.6130   23.9456 C   0  0  0  0  0  0  0  0  0  0  0  0
  -29.0990  -26.3292   21.1970 C   0  0  0  0  0  0  0  0  0  0  0  0
  -27.9728  -26.9852   19.0041 C   0  0  0  0  0  0  0  0  0  0  0  0
  -26.3290  -11.9996   19.6587 C   0  0  0  0  0  0  0  0  0  0  0  0
  -23.2827  -19.1568   20.2698 C   0  0  0  0  0  0  0  0  0  0  0  0
  -25.4660  -13.0278   19.2337 C   0  0  0  0  0  0  0  0  0  0  0  0
  -22.7610  -19.1210   21.5708 C   0  0  0  0  0  0  0  0  0  0  0  0
  -30.9644  -24.9416   22.7389 C   0  0  0  0  0  0  0  0  0  0  0  0
  -20.8073  -20.3503   20.8079 C   0  0  0  0  0  0  0  0  0  0  0  0
  -32.0559  -22.9178   23.2235 C   0  0  0  0  0  0  0  0  0  0  0  0
  -32.4210  -20.2058   22.6808 C   0  0  0  0  0  0  0  0  0  0  0  0
  -31.8138  -21.9690   24.2169 C   0  0  0  0  0  0  0  0  0  0  0  0
  -28.1349  -27.0456   20.4012 C   0  0  0  0  0  0  0  0  0  0  0  0
  -26.9329  -27.8431   18.7416 C   0  0  0  0  0  0  0  0  0  0  0  0
  -28.6975  -26.2218   18.0306 C   0  0  0  0  0  0  0  0  0  0  0  0
  -24.2790  -16.1779   20.7571 C   0  0  0  0  0  0  0  0  0  0  0  0
  -25.7502  -17.5045   23.3258 C   0  0  0  0  0  0  0  0  0  0  0  0
  -25.8629  -20.0347   25.6132 C   0  0  0  0  0  0  0  0  0  0  0  0
  -22.3424  -29.8155   22.0413 C   0  0  0  0  0  0  0  0  0  0  0  0
  -26.3536  -11.5257   21.0903 C   0  0  0  0  0  0  0  0  0  0  0  0
  -24.6252  -18.5480   19.9704 C   0  0  0  0  0  0  0  0  0  0  0  0
  -23.4966  -18.4520   22.7021 C   0  0  0  0  0  0  0  0  0  0  0  0
  -25.7248  -12.5134   22.0698 C   0  0  0  0  0  0  0  0  0  0  0  0
  -24.8219  -31.7934   20.4239 C   0  0  0  0  0  0  0  0  0  0  0  0
  -24.3901  -13.0208   21.5333 C   0  0  0  0  0  0  0  0  0  0  0  0
  -25.9376  -30.7955   20.1086 C   0  0  0  0  0  0  0  0  0  0  0  0
  -17.7558  -28.4637   22.7262 C   0  0  0  0  0  0  0  0  0  0  0  0
  -20.0962  -28.4915   23.6734 C   0  0  0  0  0  0  0  0  0  0  0  0
  -19.6771  -28.4741   21.1767 C   0  0  0  0  0  0  0  0  0  0  0  0
  -18.5423  -26.5012   23.7040 C   0  0  0  0  0  0  0  0  0  0  0  0
  -18.1787  -22.7288   22.1246 C   0  0  0  0  0  0  0  0  0  0  0  0
  -20.1705  -23.3238   21.6483 C   0  0  0  0  0  0  0  0  0  0  0  0
  -20.4777  -26.5088   22.1458 C   0  0  0  0  0  0  0  0  0  0  0  0
  -24.1503  -31.4855   21.7603 C   0  0  0  0  0  0  0  0  0  0  0  0
  -24.7681  -29.1062   21.5842 C   0  0  0  0  0  0  0  0  0  0  0  0
  -24.5768  -13.7694   20.2081 C   0  0  1  0  0  0  0  0  0  0  0  0
  -25.0257  -17.4648   20.9672 C   0  0  1  0  0  0  0  0  0  0  0  0
  -18.6303  -28.0147   23.9000 C   0  0  2  0  0  0  0  0  0  0  0  0
  -18.4056  -27.6970   21.5622 C   0  0  1  0  0  0  0  0  0  0  0  0
  -25.4380  -29.3424   20.2197 C   0  0  2  0  0  0  0  0  0  0  0  0
  -19.5258  -21.9784   22.0469 C   0  0  0  0  0  0  0  0  0  1  0  0
  -18.9765  -24.0361   22.3203 C   0  0  0  0  0  0  0  0  0  0  0  0
  -20.6398  -28.0264   22.2855 C   0  0  2  0  0  0  0  0  0  0  0  0
  -18.9489  -26.3842   22.2287 C   0  0  2  0  0  0  0  0  0  0  0  0
  -27.1559  -20.8263   27.6129 C   0  0  0  0  0  0  0  0  0  0  0  0
  -24.3829  -15.3869   25.0452 C   0  0  0  0  0  0  0  0  0  0  0  0
  -24.9239  -16.7725   27.0590 C   0  0  0  0  0  0  0  0  0  0  0  0
  -26.7648  -15.8460   25.6535 C   0  0  0  0  0  0  0  0  0  0  0  0
  -26.6438  -22.5476   24.2587 C   0  0  0  0  0  0  0  0  0  0  0  0
  -25.3682  -17.7567   24.7644 C   0  0  1  0  0  0  0  0  0  0  0  0
  -27.0099  -20.9012   26.1010 C   0  0  2  0  0  0  0  0  0  0  0  0
  -25.3449  -16.4515   25.6090 C   0  0  0  0  0  0  0  0  0  0  0  0
  -27.2674  -27.8763   20.9854 N   0  0  0  0  0  0  0  0  0  0  0  0
  -26.5503  -28.3459   19.9504 N   0  0  0  0  0  0  0  0  0  0  0  0
  -24.8025  -17.8658   22.3577 N   0  0  0  0  0  0  0  0  0  0  0  0
  -23.6982  -30.0927   21.8004 N   0  0  0  0  0  0  0  0  0  0  0  0
  -26.3175  -28.2090   17.5972 N   0  0  0  0  0  0  0  0  0  0  0  0
  -29.7361  -25.3904   18.4716 N   0  0  0  0  0  0  0  0  0  0  0  0
  -25.0887  -15.1017   20.4480 N   0  0  0  0  0  0  0  0  0  0  0  0
  -26.2908  -18.7725   25.2596 N   0  0  0  0  0  0  0  0  0  0  0  0
  -21.9970  -28.4697   22.0566 N   0  0  0  0  0  0  0  0  0  0  0  0
  -26.7822  -22.3241   25.7208 N   0  3  0  0  0  0  0  0  0  0  0  0
  -28.4427  -26.2877   16.8041 O   0  0  0  0  0  0  0  0  0  0  0  0
  -23.0588  -16.1622   20.8687 O   0  0  0  0  0  0  0  0  0  0  0  0
  -26.8518  -17.0119   23.0701 O   0  0  0  0  0  0  0  0  0  0  0  0
  -24.7027  -20.4361   25.5554 O   0  0  0  0  0  0  0  0  0  0  0  0
  -21.5010  -30.7020   22.2237 O   0  0  0  0  0  0  0  0  0  0  0  0
  -31.8744  -24.2643   23.4911 O   0  0  0  0  0  0  0  0  0  0  0  0
  -19.6025  -20.9253   21.0720 O   0  0  0  0  0  0  0  0  0  1  0  0
  -18.4631  -25.1927   21.6391 O   0  0  0  0  0  0  0  0  0  0  0  0
  -32.5949  -18.9036   22.4197 F   0  0  0  0  0  0  0  0  0  0  0  0
  -31.4045  -22.3540   25.4335 F   0  0  0  0  0  0  0  0  0  0  0  0
  1  2  1  0  0  0  0
  1  5  2  0  0  0  0
  2  6  2  0  0  0  0
  3  8  2  0  0  0  0
  3 15  1  0  0  0  0
  4  9  1  0  0  0  0
  4 15  2  0  0  0  0
  5 17  1  0  0  0  0
  6 19  1  0  0  0  0
  7 10  2  0  0  0  0
  7 18  1  0  0  0  0
  8 21  1  0  0  0  0
  9 21  2  0  0  0  0
 10 22  1  0  0  0  0
 11 12  2  0  0  0  0
 11 23  1  0  0  0  0
 12 24  1  0  0  0  0
 13 20  1  0  0  0  0
 13 22  2  0  0  0  0
 14 24  2  0  0  0  0
 14 25  1  0  0  0  0
 15 26  1  0  0  0  0
 16 26  1  0  0  0  0
 16 27  2  0  0  0  0
 16 28  1  0  0  0  0
 17 19  2  0  0  0  0
 17 33  1  0  0  0  0
 18 20  2  0  0  0  0
 18 34  1  0  0  0  0
 19 49  1  0  0  0  0
 20 35  1  0  0  0  0
 21 81  1  0  0  0  0
 22 82  1  0  0  0  0
 23 25  2  0  0  0  0
 23 81  1  0  0  0  0
 24 84  1  0  0  0  0
 25 85  1  0  0  0  0
 26 66  2  0  0  0  0
 27 67  1  0  0  0  0
 27 70  1  0  0  0  0
 28 71  1  0  0  0  0
 28 76  2  0  0  0  0
 29 50  1  0  0  0  0
 29 72  1  0  0  0  0
 29 77  2  0  0  0  0
 30 63  1  0  0  0  0
 30 68  1  0  0  0  0
 30 78  2  0  0  0  0
 31 64  1  0  0  0  0
 31 73  1  0  0  0  0
 31 79  2  0  0  0  0
 32 69  1  0  0  0  0
 32 74  1  0  0  0  0
 32 80  2  0  0  0  0
 33 36  1  0  0  0  0
 34 50  1  0  0  0  0
 35 68  1  0  0  0  0
 36 38  1  0  0  0  0
 37 39  1  0  0  0  0
 37 47  1  0  0  0  0
 38 49  1  0  0  0  0
 39 53  1  0  0  0  0
 40 51  1  0  0  0  0
 40 52  1  0  0  0  0
 41 51  1  0  0  0  0
 41 56  1  0  0  0  0
 42 52  1  0  0  0  0
 42 56  1  0  0  0  0
 43 51  1  0  0  0  0
 43 57  1  0  0  0  0
 44 54  1  0  0  0  0
 44 55  1  0  0  0  0
 45 54  1  0  0  0  0
 45 55  1  0  0  0  0
 46 56  1  0  0  0  0
 46 57  1  0  0  0  0
 47 69  1  0  0  0  0
 48 53  1  0  0  0  0
 48 69  1  0  0  0  0
 49 72  1  0  0  0  0
 50 68  1  0  0  0  0
 52 57  1  0  0  0  0
 53 67  1  0  0  0  0
 54 82  1  0  0  0  0
 55 83  1  0  0  0  0
 56 74  1  0  0  0  0
 57 83  1  0  0  0  0
 58 64  1  0  0  0  0
 59 65  1  0  0  0  0
 60 65  1  0  0  0  0
 61 65  1  0  0  0  0
 62 75  1  0  0  0  0
 63 65  1  0  0  0  0
 63 73  1  0  0  0  0
 64 75  1  0  0  0  0
 66 67  1  0  0  0  0
M  CHG  1  75   1
M  ISO  4  32 100  54 101  74 100  82 101
M  END
> <Batch ID>
0165

> <Smiles>
CNC(C)C(=O)NC(C(=O)N1Cc2cc([101O:1][101CH:1]3CC(OC45CC6CC4CC([100NH:0][100C:0](=O)N4CCCC(n7nc(-c8ccc(Oc9ccc(F)cc9F)cc8)c(C(N)=O)c7N)C4)(C6)C5)C3)ccc2CC1C(=O)NC1CCCc2ccccc21)C(C)(C)C

> <Shape>
0.182

> <Color>
0.112

> <Negative vol penalty>
0.000

$$$$

  -OEChem-04052322223D

 85 94  0     1  0  0  0  0  0999 V2000
  -30.1981  -33.4242   25.6553 C   0  0  0  0  0  0  0  0  0  0  0  0
  -29.4626  -32.3782   25.1072 C   0  0  0  0  0  0  0  0  0  0  0  0
  -23.8650   -9.5209   22.3509 C   0  0  0  0  0  0  0  0  0  0  0  0
  -23.3482   -9.5582   19.9911 C   0  0  0  0  0  0  0  0  0  0  0  0
  -29.5423  -34.5446   26.1636 C   0  0  0  0  0  0  0  0  0  0  0  0
  -28.0707  -32.4517   25.0681 C   0  0  0  0  0  0  0  0  0  0  0  0
  -26.1739  -31.0064   20.6006 C   0  0  0  0  0  0  0  0  0  0  0  0
  -22.9203   -8.5126   22.5419 C   0  0  0  0  0  0  0  0  0  0  0  0
  -22.4035   -8.5499   20.1821 C   0  0  0  0  0  0  0  0  0  0  0  0
  -26.1013  -29.6363   20.3529 C   0  0  0  0  0  0  0  0  0  0  0  0
  -22.7156   -5.1700   22.0751 C   0  0  0  0  0  0  0  0  0  0  0  0
  -23.0789   -4.0836   22.8709 C   0  0  0  0  0  0  0  0  0  0  0  0
  -23.7572  -29.6637   20.9217 C   0  0  0  0  0  0  0  0  0  0  0  0
  -23.8710  -23.6882   18.6716 C   0  0  0  0  0  0  0  0  0  0  0  0
  -21.2661   -4.5877   24.3864 C   0  0  0  0  0  0  0  0  0  0  0  0
  -24.0790  -10.0437   21.0755 C   0  0  0  0  0  0  0  0  0  0  0  0
  -26.4200  -10.9256   20.5759 C   0  0  0  0  0  0  0  0  0  0  0  0
  -28.1421  -34.6361   26.1219 C   0  0  0  0  0  0  0  0  0  0  0  0
  -25.0392  -31.7146   21.0219 C   0  0  0  0  0  0  0  0  0  0  0  0
  -27.3954  -33.5738   25.5775 C   0  0  0  0  0  0  0  0  0  0  0  0
  -23.8174  -31.0432   21.1716 C   0  0  0  0  0  0  0  0  0  0  0  0
  -23.7674  -25.0568   18.8943 C   0  0  0  0  0  0  0  0  0  0  0  0
  -23.6681  -25.5383   20.1948 C   0  0  0  0  0  0  0  0  0  0  0  0
  -22.1896   -8.0271   21.4575 C   0  0  0  0  0  0  0  0  0  0  0  0
  -24.8935  -28.9642   20.5162 C   0  0  0  0  0  0  0  0  0  0  0  0
  -21.6276   -5.9653   22.4350 C   0  0  0  0  0  0  0  0  0  0  0  0
  -22.3541   -3.7924   24.0266 C   0  0  0  0  0  0  0  0  0  0  0  0
  -20.9029   -5.6741   23.5906 C   0  0  0  0  0  0  0  0  0  0  0  0
  -25.0543  -11.0857   20.8777 C   0  0  0  0  0  0  0  0  0  0  0  0
  -23.6768  -24.6173   21.2299 C   0  0  0  0  0  0  0  0  0  0  0  0
  -23.8709  -22.8499   19.7749 C   0  0  0  0  0  0  0  0  0  0  0  0
  -26.9051  -12.2076   20.4891 C   0  0  0  0  0  0  0  0  0  0  0  0
  -27.1820   -9.7252   20.3905 C   0  0  0  0  0  0  0  0  0  0  0  0
  -24.2667  -33.3714   23.6223 C   0  0  0  0  0  0  0  0  0  0  0  0
  -21.6031  -34.0733   21.9091 C   0  0  0  0  0  0  0  0  0  0  0  0
  -19.4599  -33.2043   19.3995 C   0  0  0  0  0  0  0  0  0  0  0  0
  -24.5464  -17.3049   19.1171 C   0  0  0  0  0  0  0  0  0  0  0  0
  -27.4754  -35.8463   26.7266 C   0  0  0  0  0  0  0  0  0  0  0  0
  -25.1278  -33.1973   21.2592 C   0  0  0  0  0  0  0  0  0  0  0  0
  -22.5655  -31.7614   21.6023 C   0  0  0  0  0  0  0  0  0  0  0  0
  -26.0170  -36.0116   26.3070 C   0  0  0  0  0  0  0  0  0  0  0  0
  -26.1618  -16.6221   22.1608 C   0  0  0  0  0  0  0  0  0  0  0  0
  -25.2745  -34.6841   26.4229 C   0  0  0  0  0  0  0  0  0  0  0  0
  -26.1952  -15.0942   22.1509 C   0  0  0  0  0  0  0  0  0  0  0  0
  -24.8357  -17.1698   21.6307 C   0  0  0  0  0  0  0  0  0  0  0  0
  -25.1565  -20.9522   18.8402 C   0  0  0  0  0  0  0  0  0  0  0  0
  -23.3110  -20.5648   20.4803 C   0  0  0  0  0  0  0  0  0  0  0  0
  -24.8759  -19.5821   18.2287 C   0  0  0  0  0  0  0  0  0  0  0  0
  -23.0551  -19.2086   19.8323 C   0  0  0  0  0  0  0  0  0  0  0  0
  -24.4949  -15.1216   20.2866 C   0  0  0  0  0  0  0  0  0  0  0  0
  -25.8853  -33.6275   25.4945 C   0  0  1  0  0  0  0  0  0  0  0  0
  -24.0305  -33.7215   22.1803 C   0  0  1  0  0  0  0  0  0  0  0  0
  -25.8376  -14.5428   20.7592 C   0  0  2  0  0  0  0  0  0  0  0  0
  -23.7645  -25.9857   17.7256 C   0  0  0  0  0  0  0  0  0  0  0  0
  -23.5725  -25.0759   22.6477 C   0  0  0  0  0  0  0  0  0  0  0  0
  -17.3541  -33.9545   18.2593 C   0  0  0  0  0  0  0  0  0  0  0  0
  -19.9655  -33.0757   24.2825 C   0  0  0  0  0  0  0  0  0  0  0  0
  -17.9757  -32.9512   22.7680 C   0  0  0  0  0  0  0  0  0  0  0  0
  -19.0772  -35.1474   23.1993 C   0  0  0  0  0  0  0  0  0  0  0  0
  -20.8341  -33.4880   16.7937 C   0  0  0  0  0  0  0  0  0  0  0  0
  -23.5518  -27.0013   20.4627 C   0  0  0  0  0  0  0  0  0  1  0  0
  -20.2423  -33.4415   21.7417 C   0  0  1  0  0  0  0  0  0  0  0  0
  -18.8739  -34.0071   18.2521 C   0  0  2  0  0  0  0  0  0  0  0  0
  -19.3390  -33.6398   22.9916 C   0  0  0  0  0  0  0  0  0  0  0  0
  -24.6950  -12.3683   20.9762 N   0  0  0  0  0  0  0  0  0  0  0  0
  -23.7760  -23.2807   21.0528 N   0  0  0  0  0  0  0  0  0  0  0  0
  -25.8420  -13.0258   20.7350 N   0  0  0  0  0  0  0  0  0  0  0  0
  -23.9750  -21.4737   19.5359 N   0  0  0  0  0  0  0  0  0  0  0  0
  -22.7045  -33.2095   21.8283 N   0  0  0  0  0  0  0  0  0  0  0  0
  -24.5172  -16.5854   20.3211 N   0  0  0  0  0  0  0  0  0  0  0  0
  -24.2593  -18.6769   19.1909 N   0  0  0  0  0  0  0  0  0  0  0  0
  -28.1330  -12.7036   20.2273 N   0  0  0  0  0  0  0  0  0  0  0  0
  -26.5272   -8.4923   20.5151 N   0  0  0  0  0  0  0  0  0  0  0  0
  -25.4606  -33.8484   24.1288 N   0  0  0  0  0  0  0  0  0  0  0  0
  -19.6863  -33.9902   20.5096 N   0  0  0  0  0  0  0  0  0  0  0  0
  -19.3565  -33.4736   16.9470 N   0  3  0  0  0  0  0  0  0  0  0  0
  -28.4106   -9.7452   20.1384 O   0  0  0  0  0  0  0  0  0  0  0  0
  -23.4272  -32.7182   24.2308 O   0  0  0  0  0  0  0  0  0  0  0  0
  -21.6861  -35.2896   22.0973 O   0  0  0  0  0  0  0  0  0  0  0  0
  -19.6900  -31.9996   19.3203 O   0  0  0  0  0  0  0  0  0  0  0  0
  -24.8155  -16.7573   18.0407 O   0  0  0  0  0  0  0  0  0  0  0  0
  -21.2678   -7.0431   21.6434 O   0  0  0  0  0  0  0  0  0  0  0  0
  -24.8196  -27.6175   20.2741 O   0  0  0  0  0  0  0  0  0  1  0  0
  -22.7021   -2.7482   24.7899 F   0  0  0  0  0  0  0  0  0  0  0  0
  -19.8560   -6.4338   23.9408 F   0  0  0  0  0  0  0  0  0  0  0  0
  1  2  1  0  0  0  0
  1  5  2  0  0  0  0
  2  6  2  0  0  0  0
  3  8  2  0  0  0  0
  3 16  1  0  0  0  0
  4  9  1  0  0  0  0
  4 16  2  0  0  0  0
  5 18  1  0  0  0  0
  6 20  1  0  0  0  0
  7 10  2  0  0  0  0
  7 19  1  0  0  0  0
  8 24  1  0  0  0  0
  9 24  2  0  0  0  0
 10 25  1  0  0  0  0
 11 12  2  0  0  0  0
 11 26  1  0  0  0  0
 12 27  1  0  0  0  0
 13 21  1  0  0  0  0
 13 25  2  0  0  0  0
 14 22  2  0  0  0  0
 14 31  1  0  0  0  0
 15 27  2  0  0  0  0
 15 28  1  0  0  0  0
 16 29  1  0  0  0  0
 17 29  1  0  0  0  0
 17 32  2  0  0  0  0
 17 33  1  0  0  0  0
 18 20  2  0  0  0  0
 18 38  1  0  0  0  0
 19 21  2  0  0  0  0
 19 39  1  0  0  0  0
 20 51  1  0  0  0  0
 21 40  1  0  0  0  0
 22 23  1  0  0  0  0
 22 54  1  0  0  0  0
 23 30  2  0  0  0  0
 23 61  1  0  0  0  0
 24 82  1  0  0  0  0
 25 83  1  0  0  0  0
 26 28  2  0  0  0  0
 26 82  1  0  0  0  0
 27 84  1  0  0  0  0
 28 85  1  0  0  0  0
 29 65  2  0  0  0  0
 30 55  1  0  0  0  0
 30 66  1  0  0  0  0
 31 66  2  0  0  0  0
 31 68  1  0  0  0  0
 32 67  1  0  0  0  0
 32 72  1  0  0  0  0
 33 73  1  0  0  0  0
 33 77  2  0  0  0  0
 34 52  1  0  0  0  0
 34 74  1  0  0  0  0
 34 78  2  0  0  0  0
 35 62  1  0  0  0  0
 35 69  1  0  0  0  0
 35 79  2  0  0  0  0
 36 63  1  0  0  0  0
 36 75  1  0  0  0  0
 36 80  2  0  0  0  0
 37 70  1  0  0  0  0
 37 71  1  0  0  0  0
 37 81  2  0  0  0  0
 38 41  1  0  0  0  0
 39 52  1  0  0  0  0
 40 69  1  0  0  0  0
 41 43  1  0  0  0  0
 42 44  1  0  0  0  0
 42 45  1  0  0  0  0
 43 51  1  0  0  0  0
 44 53  1  0  0  0  0
 45 70  1  0  0  0  0
 46 48  1  0  0  0  0
 46 68  1  0  0  0  0
 47 49  1  0  0  0  0
 47 68  1  0  0  0  0
 48 71  1  0  0  0  0
 49 71  1  0  0  0  0
 50 53  1  0  0  0  0
 50 70  1  0  0  0  0
 51 74  1  0  0  0  0
 52 69  1  0  0  0  0
 53 67  1  0  0  0  0
 56 63  1  0  0  0  0
 57 64  1  0  0  0  0
 58 64  1  0  0  0  0
 59 64  1  0  0  0  0
 60 76  1  0  0  0  0
 61 83  1  0  0  0  0
 62 64  1  0  0  0  0
 62 75  1  0  0  0  0
 63 76  1  0  0  0  0
 65 67  1  0  0  0  0
M  CHG  1  76   1
M  ISO  4  37 100  61 101  71 100  83 101
M  END
> <Batch ID>
0165

> <Smiles>
CNC(C)C(=O)NC(C(=O)N1Cc2cc([101O:1][101CH2:1]c3c(C)cc(N4CC[100N:0]([100C:0](=O)N5CCCC(n6nc(-c7ccc(Oc8ccc(F)cc8F)cc7)c(C(N)=O)c6N)C5)CC4)nc3C)ccc2CC1C(=O)NC1CCCc2ccccc21)C(C)(C)C

> <Shape>
0.203

> <Color>
0.109

> <Negative vol penalty>
0.000

$$$$

  -OEChem-04052322223D

 87 96  0     1  0  0  0  0  0999 V2000
  -26.6378  -38.4756   22.8761 C   0  0  0  0  0  0  0  0  0  0  0  0
  -27.2770  -37.5397   22.0693 C   0  0  0  0  0  0  0  0  0  0  0  0
  -24.5264  -10.1646   23.1585 C   0  0  0  0  0  0  0  0  0  0  0  0
  -24.4878   -8.6478   21.2783 C   0  0  0  0  0  0  0  0  0  0  0  0
  -25.8987  -38.0533   23.9804 C   0  0  0  0  0  0  0  0  0  0  0  0
  -27.1784  -36.1810   22.3670 C   0  0  0  0  0  0  0  0  0  0  0  0
  -26.9358  -29.7706   19.1789 C   0  0  0  0  0  0  0  0  0  0  0  0
  -23.3774   -9.5608   23.6692 C   0  0  0  0  0  0  0  0  0  0  0  0
  -23.3388   -8.0439   21.7890 C   0  0  0  0  0  0  0  0  0  0  0  0
  -27.5587  -28.5239   19.2181 C   0  0  0  0  0  0  0  0  0  0  0  0
  -22.5660   -5.7960   24.1911 C   0  0  0  0  0  0  0  0  0  0  0  0
  -22.5152   -4.4021   24.1945 C   0  0  0  0  0  0  0  0  0  0  0  0
  -26.1894  -27.9056   21.1053 C   0  0  0  0  0  0  0  0  0  0  0  0
  -30.6584  -23.1092   20.5903 C   0  0  0  0  0  0  0  0  0  0  0  0
  -20.5527   -4.4703   22.7868 C   0  0  0  0  0  0  0  0  0  0  0  0
  -25.0816   -9.7081   21.9630 C   0  0  0  0  0  0  0  0  0  0  0  0
  -27.6046   -9.9742   21.6955 C   0  0  0  0  0  0  0  0  0  0  0  0
  -25.7831  -36.6881   24.2862 C   0  0  0  0  0  0  0  0  0  0  0  0
  -25.9409  -30.0987   20.1111 C   0  0  0  0  0  0  0  0  0  0  0  0
  -26.4382  -35.7402   23.4772 C   0  0  0  0  0  0  0  0  0  0  0  0
  -25.5536  -29.1561   21.0743 C   0  0  0  0  0  0  0  0  0  0  0  0
  -30.1882  -24.4111   20.4597 C   0  0  0  0  0  0  0  0  0  0  0  0
  -29.3255  -24.7316   19.4174 C   0  0  0  0  0  0  0  0  0  0  0  0
  -22.7836   -8.5005   22.9845 C   0  0  0  0  0  0  0  0  0  0  0  0
  -27.1876  -27.5923   20.1832 C   0  0  0  0  0  0  0  0  0  0  0  0
  -21.6102   -6.5271   23.4856 C   0  0  0  0  0  0  0  0  0  0  0  0
  -21.5086   -3.7392   23.4923 C   0  0  0  0  0  0  0  0  0  0  0  0
  -20.6036   -5.8642   22.7835 C   0  0  0  0  0  0  0  0  0  0  0  0
  -26.2682  -10.3318   21.4347 C   0  0  0  0  0  0  0  0  0  0  0  0
  -30.2394  -22.1719   19.6598 C   0  0  0  0  0  0  0  0  0  0  0  0
  -28.9663  -23.7217   18.5393 C   0  0  0  0  0  0  0  0  0  0  0  0
  -28.3481  -10.8650   20.9606 C   0  0  0  0  0  0  0  0  0  0  0  0
  -28.1271   -8.9301   22.5277 C   0  0  0  0  0  0  0  0  0  0  0  0
  -25.6298  -32.3069   22.3762 C   0  0  0  0  0  0  0  0  0  0  0  0
  -22.6310  -31.0915   22.6044 C   0  0  0  0  0  0  0  0  0  0  0  0
  -20.5307  -28.4479   22.1075 C   0  0  0  0  0  0  0  0  0  0  0  0
  -29.5153  -15.7927   19.1827 C   0  0  0  0  0  0  0  0  0  0  0  0
  -25.0124  -36.2828   25.5176 C   0  0  0  0  0  0  0  0  0  0  0  0
  -25.2598  -31.4378   20.0387 C   0  0  0  0  0  0  0  0  0  0  0  0
  -24.4767  -29.4518   22.0850 C   0  0  0  0  0  0  0  0  0  0  0  0
  -24.6479  -34.8008   25.5477 C   0  0  0  0  0  0  0  0  0  0  0  0
  -26.9712  -14.1648   17.3920 C   0  0  0  0  0  0  0  0  0  0  0  0
  -25.8559  -33.9463   25.1768 C   0  0  0  0  0  0  0  0  0  0  0  0
  -26.6628  -12.9824   18.3102 C   0  0  0  0  0  0  0  0  0  0  0  0
  -28.9733  -19.2694   19.2662 C   0  0  0  0  0  0  0  0  0  0  0  0
  -31.4146  -18.6853   19.0082 C   0  0  0  0  0  0  0  0  0  0  0  0
  -27.2127  -15.4540   18.1793 C   0  0  0  0  0  0  0  0  0  0  0  0
  -28.6082  -18.0378   18.4322 C   0  0  0  0  0  0  0  0  0  0  0  0
  -31.0040  -17.4857   18.1587 C   0  0  0  0  0  0  0  0  0  0  0  0
  -27.9372  -14.1470   20.1505 C   0  0  0  0  0  0  0  0  0  0  0  0
  -26.3344  -34.2559   23.7532 C   0  0  1  0  0  0  0  0  0  0  0  0
  -24.6201  -31.8550   21.3594 C   0  0  1  0  0  0  0  0  0  0  0  0
  -27.7472  -12.8248   19.3910 C   0  0  1  0  0  0  0  0  0  0  0  0
  -30.3657  -19.7962   18.9114 C   0  0  0  0  0  0  0  0  0  0  0  0
  -30.6224  -25.4435   21.4469 C   0  0  0  0  0  0  0  0  0  0  0  0
  -18.1443  -27.7407   22.4272 C   0  0  0  0  0  0  0  0  0  0  0  0
  -23.1432  -30.7210   25.5894 C   0  0  0  0  0  0  0  0  0  0  0  0
  -21.1689  -29.1833   25.6664 C   0  0  0  0  0  0  0  0  0  0  0  0
  -20.8618  -31.5730   25.0203 C   0  0  0  0  0  0  0  0  0  0  0  0
  -20.1420  -28.0364   19.2026 C   0  0  0  0  0  0  0  0  0  0  0  0
  -27.7923  -22.9134   16.6356 C   0  0  0  0  0  0  0  0  0  0  0  0
  -28.8032  -26.1185   19.2484 C   0  0  0  0  0  0  0  0  0  1  0  0
  -21.9834  -29.9861   23.4030 C   0  0  1  0  0  0  0  0  0  0  0  0
  -19.1541  -28.3603   21.4737 C   0  0  2  0  0  0  0  0  0  0  0  0
  -21.8110  -30.3607   24.9021 C   0  0  0  0  0  0  0  0  0  0  0  0
  -26.1656  -11.3690   20.5994 N   0  0  0  0  0  0  0  0  0  0  0  0
  -29.4025  -22.4456   18.6340 N   0  0  0  0  0  0  0  0  0  0  0  0
  -27.4470  -11.6708   20.3291 N   0  0  0  0  0  0  0  0  0  0  0  0
  -23.8449  -30.7772   21.9773 N   0  0  0  0  0  0  0  0  0  0  0  0
  -28.2248  -15.2439   19.2239 N   0  0  0  0  0  0  0  0  0  0  0  0
  -29.6645  -17.0191   18.5182 N   0  0  0  0  0  0  0  0  0  0  0  0
  -29.6782  -11.0298   20.7995 N   0  0  0  0  0  0  0  0  0  0  0  0
  -27.2235   -8.1058   23.2121 N   0  0  0  0  0  0  0  0  0  0  0  0
  -30.7155  -20.8807   19.8022 N   0  0  0  0  0  0  0  0  0  0  0  0
  -25.4725  -33.6189   22.7806 N   0  0  0  0  0  0  0  0  0  0  0  0
  -20.7347  -29.6665   22.7195 N   0  0  0  0  0  0  0  0  0  0  0  0
  -19.2048  -27.5292   20.2378 N   0  3  0  0  0  0  0  0  0  0  0  0
  -29.3591   -8.7443   22.6733 O   0  0  0  0  0  0  0  0  0  0  0  0
  -26.4872  -31.5230   22.7661 O   0  0  0  0  0  0  0  0  0  0  0  0
  -22.0765  -32.1911   22.5337 O   0  0  0  0  0  0  0  0  0  0  0  0
  -21.3425  -27.5259   22.0672 O   0  0  0  0  0  0  0  0  0  0  0  0
  -30.4780  -15.2206   19.7090 O   0  0  0  0  0  0  0  0  0  0  0  0
  -21.6625   -7.9109   23.4826 O   0  0  0  0  0  0  0  0  0  0  0  0
  -27.7988  -26.3666   20.2243 O   0  0  0  0  0  0  0  0  0  1  0  0
  -28.1187  -23.9966   17.4978 O   0  0  0  0  0  0  0  0  0  0  0  0
  -21.4607   -2.4006   23.4944 F   0  0  0  0  0  0  0  0  0  0  0  0
  -19.6833   -6.5611   22.1029 F   0  0  0  0  0  0  0  0  0  0  0  0
  1  2  1  0  0  0  0
  1  5  2  0  0  0  0
  2  6  2  0  0  0  0
  3  8  2  0  0  0  0
  3 16  1  0  0  0  0
  4  9  1  0  0  0  0
  4 16  2  0  0  0  0
  5 18  1  0  0  0  0
  6 20  1  0  0  0  0
  7 10  2  0  0  0  0
  7 19  1  0  0  0  0
  8 24  1  0  0  0  0
  9 24  2  0  0  0  0
 10 25  1  0  0  0  0
 11 12  2  0  0  0  0
 11 26  1  0  0  0  0
 12 27  1  0  0  0  0
 13 21  1  0  0  0  0
 13 25  2  0  0  0  0
 14 22  2  0  0  0  0
 14 30  1  0  0  0  0
 15 27  2  0  0  0  0
 15 28  1  0  0  0  0
 16 29  1  0  0  0  0
 17 29  1  0  0  0  0
 17 32  2  0  0  0  0
 17 33  1  0  0  0  0
 18 20  2  0  0  0  0
 18 38  1  0  0  0  0
 19 21  2  0  0  0  0
 19 39  1  0  0  0  0
 20 51  1  0  0  0  0
 21 40  1  0  0  0  0
 22 23  1  0  0  0  0
 22 55  1  0  0  0  0
 23 31  2  0  0  0  0
 23 62  1  0  0  0  0
 24 83  1  0  0  0  0
 25 84  1  0  0  0  0
 26 28  2  0  0  0  0
 26 83  1  0  0  0  0
 27 86  1  0  0  0  0
 28 87  1  0  0  0  0
 29 66  2  0  0  0  0
 30 67  2  0  0  0  0
 30 74  1  0  0  0  0
 31 67  1  0  0  0  0
 31 85  1  0  0  0  0
 32 68  1  0  0  0  0
 32 72  1  0  0  0  0
 33 73  1  0  0  0  0
 33 78  2  0  0  0  0
 34 52  1  0  0  0  0
 34 75  1  0  0  0  0
 34 79  2  0  0  0  0
 35 63  1  0  0  0  0
 35 69  1  0  0  0  0
 35 80  2  0  0  0  0
 36 64  1  0  0  0  0
 36 76  1  0  0  0  0
 36 81  2  0  0  0  0
 37 70  1  0  0  0  0
 37 71  1  0  0  0  0
 37 82  2  0  0  0  0
 38 41  1  0  0  0  0
 39 52  1  0  0  0  0
 40 69  1  0  0  0  0
 41 43  1  0  0  0  0
 42 44  1  0  0  0  0
 42 47  1  0  0  0  0
 43 51  1  0  0  0  0
 44 53  1  0  0  0  0
 45 48  1  0  0  0  0
 45 54  1  0  0  0  0
 46 49  1  0  0  0  0
 46 54  1  0  0  0  0
 47 70  1  0  0  0  0
 48 71  1  0  0  0  0
 49 71  1  0  0  0  0
 50 53  1  0  0  0  0
 50 70  1  0  0  0  0
 51 75  1  0  0  0  0
 52 69  1  0  0  0  0
 53 68  1  0  0  0  0
 54 74  1  0  0  0  0
 56 64  1  0  0  0  0
 57 65  1  0  0  0  0
 58 65  1  0  0  0  0
 59 65  1  0  0  0  0
 60 77  1  0  0  0  0
 61 85  1  0  0  0  0
 62 84  1  0  0  0  0
 63 65  1  0  0  0  0
 63 76  1  0  0  0  0
 64 77  1  0  0  0  0
 66 68  1  0  0  0  0
M  CHG  1  77   1
M  ISO  4  37 100  62 101  71 100  84 101
M  END
> <Batch ID>
0165

> <Smiles>
CNC(C)C(=O)NC(C(=O)N1Cc2cc([101O:1][101CH2:1]c3c(C)cc(NC4CC[100N:0]([100C:0](=O)N5CCCC(n6nc(-c7ccc(Oc8ccc(F)cc8F)cc7)c(C(N)=O)c6N)C5)CC4)nc3OC)ccc2CC1C(=O)NC1CCCc2ccccc21)C(C)(C)C

> <Shape>
0.331

> <Color>
0.103

> <Negative vol penalty>
0.000

$$$$

  -OEChem-04052322223D

 93103  0     1  0  0  0  0  0999 V2000
  -26.7436  -32.5096   25.3402 C   0  0  0  0  0  0  0  0  0  0  0  0
  -26.8323  -31.2207   24.8240 C   0  0  0  0  0  0  0  0  0  0  0  0
  -23.2954   -9.7948   19.9026 C   0  0  0  0  0  0  0  0  0  0  0  0
  -23.7131   -9.9370   22.2780 C   0  0  0  0  0  0  0  0  0  0  0  0
  -27.8041  -33.0402   26.0734 C   0  0  0  0  0  0  0  0  0  0  0  0
  -27.9822  -30.4621   25.0399 C   0  0  0  0  0  0  0  0  0  0  0  0
  -28.2940  -24.4006   25.8564 C   0  0  0  0  0  0  0  0  0  0  0  0
  -22.5624   -8.6249   20.1015 C   0  0  0  0  0  0  0  0  0  0  0  0
  -22.9801   -8.7671   22.4769 C   0  0  0  0  0  0  0  0  0  0  0  0
  -28.5978  -23.3517   24.9895 C   0  0  0  0  0  0  0  0  0  0  0  0
  -19.7273   -7.8668   22.6494 C   0  0  0  0  0  0  0  0  0  0  0  0
  -18.8100   -7.8493   23.7000 C   0  0  0  0  0  0  0  0  0  0  0  0
  -30.1212  -18.6249   14.6761 C   0  0  0  0  0  0  0  0  0  0  0  0
  -30.8851  -23.3895   25.7551 C   0  0  0  0  0  0  0  0  0  0  0  0
  -19.9957   -5.9995   24.7047 C   0  0  0  0  0  0  0  0  0  0  0  0
  -23.8709  -10.4508   20.9908 C   0  0  0  0  0  0  0  0  0  0  0  0
  -29.5458  -17.8120   16.8536 C   0  0  0  0  0  0  0  0  0  0  0  0
  -24.1412  -12.9797   20.7928 C   0  0  0  0  0  0  0  0  0  0  0  0
  -28.9637  -32.2841   26.3065 C   0  0  0  0  0  0  0  0  0  0  0  0
  -29.2877  -24.9599   26.6726 C   0  0  0  0  0  0  0  0  0  0  0  0
  -29.0598  -30.9835   25.7757 C   0  0  0  0  0  0  0  0  0  0  0  0
  -29.9809  -18.8898   16.0524 C   0  0  0  0  0  0  0  0  0  0  0  0
  -30.5908  -24.4437   26.6333 C   0  0  0  0  0  0  0  0  0  0  0  0
  -29.8506  -17.3663   14.1305 C   0  0  0  0  0  0  0  0  0  0  0  0
  -29.4246  -16.3284   14.9498 C   0  0  0  0  0  0  0  0  0  0  0  0
  -22.4047   -8.1110   21.3886 C   0  0  0  0  0  0  0  0  0  0  0  0
  -29.8942  -22.8480   24.9367 C   0  0  0  0  0  0  0  0  0  0  0  0
  -20.7788   -6.9505   22.6264 C   0  0  0  0  0  0  0  0  0  0  0  0
  -29.2672  -16.5480   16.3137 C   0  0  0  0  0  0  0  0  0  0  0  0
  -18.9441   -6.9157   24.7276 C   0  0  0  0  0  0  0  0  0  0  0  0
  -20.9130   -6.0169   23.6540 C   0  0  0  0  0  0  0  0  0  0  0  0
  -24.6287  -11.6591   20.7860 C   0  0  0  0  0  0  0  0  0  0  0  0
  -25.2487  -13.7557   20.5525 C   0  0  0  0  0  0  0  0  0  0  0  0
  -29.3461  -18.0369   18.3103 C   0  0  0  0  0  0  0  0  0  0  0  0
  -22.8067  -13.4619   20.9982 C   0  0  0  0  0  0  0  0  0  0  0  0
  -30.6061  -27.8391   26.9481 C   0  0  0  0  0  0  0  0  0  0  0  0
  -32.0870  -26.4882   29.4985 C   0  0  0  0  0  0  0  0  0  0  0  0
  -33.1779  -23.6489   31.0461 C   0  0  0  0  0  0  0  0  0  0  0  0
  -29.9019  -14.6960   17.6084 C   0  0  0  0  0  0  0  0  0  0  0  0
  -30.1032  -32.9176   27.0648 C   0  0  0  0  0  0  0  0  0  0  0  0
  -28.9377  -26.0731   27.6216 C   0  0  0  0  0  0  0  0  0  0  0  0
  -31.6890  -24.9957   27.5037 C   0  0  0  0  0  0  0  0  0  0  0  0
  -31.1349  -31.9108   27.5670 C   0  0  0  0  0  0  0  0  0  0  0  0
  -30.1341  -22.4525   16.5044 C   0  0  0  0  0  0  0  0  0  0  0  0
  -30.1608  -12.5818   20.5103 C   0  0  0  0  0  0  0  0  0  0  0  0
  -31.5038  -30.9276   26.4607 C   0  0  0  0  0  0  0  0  0  0  0  0
  -28.7047  -12.2321   20.8167 C   0  0  0  0  0  0  0  0  0  0  0  0
  -29.0930  -21.3372   16.7055 C   0  0  0  0  0  0  0  0  0  0  0  0
  -31.0943  -21.3829   15.9506 C   0  0  0  0  0  0  0  0  0  0  0  0
  -30.4013  -12.7092   19.0094 C   0  0  0  0  0  0  0  0  0  0  0  0
  -28.0308  -13.3383   18.6384 C   0  0  0  0  0  0  0  0  0  0  0  0
  -30.8626  -20.0275   18.1145 C   0  0  0  0  0  0  0  0  0  0  0  0
  -30.2806  -30.1203   26.0096 C   0  0  1  0  0  0  0  0  0  0  0  0
  -30.1456  -26.9085   28.0343 C   0  0  1  0  0  0  0  0  0  0  0  0
  -27.7438  -13.2300   20.1459 C   0  0  1  0  0  0  0  0  0  0  0  0
  -30.2691  -20.3020   16.7269 C   0  0  0  0  0  0  0  0  0  0  0  0
  -30.0256  -17.1653   12.6604 C   0  0  0  0  0  0  0  0  0  0  0  0
  -29.1369  -14.9814   14.3670 C   0  0  0  0  0  0  0  0  0  0  0  0
  -34.3867  -22.8657   33.1011 C   0  0  0  0  0  0  0  0  0  0  0  0
  -30.7610  -17.4608   21.4357 C   0  0  0  0  0  0  0  0  0  0  0  0
  -34.7342  -27.4009   28.2863 C   0  0  0  0  0  0  0  0  0  0  0  0
  -35.9067  -25.8112   29.8246 C   0  0  0  0  0  0  0  0  0  0  0  0
  -34.5658  -27.6931   30.7644 C   0  0  0  0  0  0  0  0  0  0  0  0
  -30.8460  -22.0706   31.9573 C   0  0  0  0  0  0  0  0  0  0  0  0
  -29.7440  -19.4944   20.2674 C   0  0  0  0  0  0  0  0  0  0  0  0
  -31.5281  -21.0804   22.2294 C   0  0  0  0  0  0  0  0  0  0  0  0
  -31.5231  -21.7720   23.5785 C   0  0  0  0  0  0  0  0  0  1  0  0
  -33.3747  -25.7288   29.7083 C   0  0  1  0  0  0  0  0  0  0  0  0
  -33.0321  -23.1618   32.4764 C   0  0  2  0  0  0  0  0  0  0  0  0
  -30.8955  -18.9413   21.1057 C   0  0  1  0  0  0  0  0  0  0  0  0
  -34.6253  -26.6492   29.6280 C   0  0  0  0  0  0  0  0  0  0  0  0
  -25.9434  -11.5959   20.5590 N   0  0  0  0  0  0  0  0  0  0  0  0
  -26.2915  -12.8865   20.4210 N   0  0  0  0  0  0  0  0  0  0  0  0
  -29.9095  -19.1980   18.8521 N   0  0  0  0  0  0  0  0  0  0  0  0
  -31.2985  -26.0878   28.4105 N   0  0  0  0  0  0  0  0  0  0  0  0
  -29.4483  -13.6356   18.3997 N   0  0  0  0  0  0  0  0  0  0  0  0
  -25.4225  -15.0900   20.4428 N   0  0  0  0  0  0  0  0  0  0  0  0
  -21.7877  -12.5286   21.2325 N   0  0  0  0  0  0  0  0  0  0  0  0
  -29.9855  -29.0737   26.9645 N   0  0  0  0  0  0  0  0  0  0  0  0
  -33.2313  -25.0251   30.9782 N   0  0  0  0  0  0  0  0  0  0  0  0
  -32.2129  -21.9176   32.5189 N   0  3  0  0  0  0  0  0  0  0  0  0
  -30.9894  -19.7041   22.3819 N   0  3  0  0  0  0  0  0  0  0  0  0
  -28.6893  -17.2174   18.9493 O   0  0  0  0  0  0  0  0  0  0  0  0
  -22.5233  -14.6832   20.9583 O   0  0  0  0  0  0  0  0  0  0  0  0
  -31.4621  -27.4653   26.1549 O   0  0  0  0  0  0  0  0  0  0  0  0
  -31.7881  -27.3983   30.2757 O   0  0  0  0  0  0  0  0  0  0  0  0
  -33.2420  -22.8849   30.0855 O   0  0  0  0  0  0  0  0  0  0  0  0
  -31.0874  -14.9252   17.3718 O   0  0  0  0  0  0  0  0  0  0  0  0
  -21.6892   -6.9696   21.5831 O   0  0  0  0  0  0  0  0  0  0  0  0
  -28.8540  -15.4759   17.1110 O   0  0  0  0  0  0  0  0  0  0  0  0
  -30.1957  -21.8174   24.0849 O   0  0  0  0  0  0  0  0  0  1  0  0
  -18.0640   -6.9001   25.7372 F   0  0  0  0  0  0  0  0  0  0  0  0
  -21.9218   -5.1349   23.6380 F   0  0  0  0  0  0  0  0  0  0  0  0
  1  2  1  0  0  0  0
  1  5  2  0  0  0  0
  2  6  2  0  0  0  0
  3  8  2  0  0  0  0
  3 16  1  0  0  0  0
  4  9  1  0  0  0  0
  4 16  2  0  0  0  0
  5 19  1  0  0  0  0
  6 21  1  0  0  0  0
  7 10  2  0  0  0  0
  7 20  1  0  0  0  0
  8 26  1  0  0  0  0
  9 26  2  0  0  0  0
 10 27  1  0  0  0  0
 11 12  2  0  0  0  0
 11 28  1  0  0  0  0
 12 30  1  0  0  0  0
 13 22  1  0  0  0  0
 13 24  2  0  0  0  0
 14 23  1  0  0  0  0
 14 27  2  0  0  0  0
 15 30  2  0  0  0  0
 15 31  1  0  0  0  0
 16 32  1  0  0  0  0
 17 22  2  0  0  0  0
 17 29  1  0  0  0  0
 17 34  1  0  0  0  0
 18 32  1  0  0  0  0
 18 33  2  0  0  0  0
 18 35  1  0  0  0  0
 19 21  2  0  0  0  0
 19 40  1  0  0  0  0
 20 23  2  0  0  0  0
 20 41  1  0  0  0  0
 21 53  1  0  0  0  0
 22 56  1  0  0  0  0
 23 42  1  0  0  0  0
 24 25  1  0  0  0  0
 24 57  1  0  0  0  0
 25 29  2  0  0  0  0
 25 58  1  0  0  0  0
 26 89  1  0  0  0  0
 27 91  1  0  0  0  0
 28 31  2  0  0  0  0
 28 89  1  0  0  0  0
 29 90  1  0  0  0  0
 30 92  1  0  0  0  0
 31 93  1  0  0  0  0
 32 72  2  0  0  0  0
 33 73  1  0  0  0  0
 33 77  1  0  0  0  0
 34 74  1  0  0  0  0
 34 83  2  0  0  0  0
 35 78  1  0  0  0  0
 35 84  2  0  0  0  0
 36 54  1  0  0  0  0
 36 79  1  0  0  0  0
 36 85  2  0  0  0  0
 37 68  1  0  0  0  0
 37 75  1  0  0  0  0
 37 86  2  0  0  0  0
 38 69  1  0  0  0  0
 38 80  1  0  0  0  0
 38 87  2  0  0  0  0
 39 76  1  0  0  0  0
 39 88  2  0  0  0  0
 39 90  1  0  0  0  0
 40 43  1  0  0  0  0
 41 54  1  0  0  0  0
 42 75  1  0  0  0  0
 43 46  1  0  0  0  0
 44 48  1  0  0  0  0
 44 49  1  0  0  0  0
 45 47  1  0  0  0  0
 45 50  1  0  0  0  0
 46 53  1  0  0  0  0
 47 55  1  0  0  0  0
 48 56  1  0  0  0  0
 49 56  1  0  0  0  0
 50 76  1  0  0  0  0
 51 55  1  0  0  0  0
 51 76  1  0  0  0  0
 52 56  1  0  0  0  0
 52 74  1  0  0  0  0
 53 79  1  0  0  0  0
 54 75  1  0  0  0  0
 55 73  1  0  0  0  0
 59 69  1  0  0  0  0
 60 70  1  0  0  0  0
 61 71  1  0  0  0  0
 62 71  1  0  0  0  0
 63 71  1  0  0  0  0
 64 81  1  0  0  0  0
 65 70  1  0  0  0  0
 65 74  1  0  0  0  0
 66 67  1  0  0  0  0
 66 82  1  0  0  0  0
 67 91  1  0  0  0  0
 68 71  1  0  0  0  0
 68 80  1  0  0  0  0
 69 81  1  0  0  0  0
 70 82  1  0  0  0  0
 72 73  1  0  0  0  0
M  CHG  2  81   1  82   1
M  ISO  4  39 100  67 101  90 100  91 101
M  END
> <Batch ID>
0165

> <Smiles>
CNC(C)C(=O)NC(C(=O)N1Cc2cc([101O:1][101CH2:1]CNC(C)CN3CC4(CCC4)c4cc(C)c(C)c([100O:0][100C:0](=O)N5CCCC(n6nc(-c7ccc(Oc8ccc(F)cc8F)cc7)c(C(N)=O)c6N)C5)c4C3=O)ccc2CC1C(=O)NC1CCCc2ccccc21)C(C)(C)C

> <Shape>
0.197

> <Color>
0.167

> <Negative vol penalty>
0.000

$$$$

  -OEChem-04052322223D

 86 95  0     1  0  0  0  0  0999 V2000
  -33.8969  -35.7999   17.1212 C   0  0  0  0  0  0  0  0  0  0  0  0
  -33.5985  -34.4465   17.2429 C   0  0  0  0  0  0  0  0  0  0  0  0
  -23.4538   -9.7587   19.9439 C   0  0  0  0  0  0  0  0  0  0  0  0
  -24.0679   -9.9453   22.2731 C   0  0  0  0  0  0  0  0  0  0  0  0
  -33.6014  -36.6744   18.1660 C   0  0  0  0  0  0  0  0  0  0  0  0
  -33.0054  -33.9668   18.4102 C   0  0  0  0  0  0  0  0  0  0  0  0
  -28.9205  -29.4268   18.8664 C   0  0  0  0  0  0  0  0  0  0  0  0
  -22.8676   -8.5188   20.1978 C   0  0  0  0  0  0  0  0  0  0  0  0
  -23.4816   -8.7054   22.5270 C   0  0  0  0  0  0  0  0  0  0  0  0
  -29.0494  -28.0789   19.1986 C   0  0  0  0  0  0  0  0  0  0  0  0
  -20.3694   -7.4704   22.9842 C   0  0  0  0  0  0  0  0  0  0  0  0
  -19.5578   -7.3579   24.1130 C   0  0  0  0  0  0  0  0  0  0  0  0
  -28.4629  -28.5917   21.4817 C   0  0  0  0  0  0  0  0  0  0  0  0
  -30.5061  -22.3693   21.6464 C   0  0  0  0  0  0  0  0  0  0  0  0
  -21.0157   -5.6427   24.9904 C   0  0  0  0  0  0  0  0  0  0  0  0
  -24.0540  -10.4720   20.9815 C   0  0  0  0  0  0  0  0  0  0  0  0
  -24.0407  -13.0151   20.7822 C   0  0  0  0  0  0  0  0  0  0  0  0
  -32.9955  -36.2068   19.3428 C   0  0  0  0  0  0  0  0  0  0  0  0
  -28.5719  -30.3704   19.8434 C   0  0  0  0  0  0  0  0  0  0  0  0
  -32.7027  -34.8357   19.4723 C   0  0  0  0  0  0  0  0  0  0  0  0
  -28.3277  -29.9506   21.1588 C   0  0  0  0  0  0  0  0  0  0  0  0
  -30.4489  -23.6660   21.1357 C   0  0  0  0  0  0  0  0  0  0  0  0
  -28.3558  -23.1451   20.0473 C   0  0  0  0  0  0  0  0  0  0  0  0
  -29.3738  -24.0540   20.3362 C   0  0  0  0  0  0  0  0  0  0  0  0
  -28.4130  -21.8483   20.5580 C   0  0  0  0  0  0  0  0  0  0  0  0
  -29.4882  -21.4604   21.3575 C   0  0  0  0  0  0  0  0  0  0  0  0
  -22.8814   -7.9921   21.4893 C   0  0  0  0  0  0  0  0  0  0  0  0
  -28.8234  -27.6616   20.5070 C   0  0  0  0  0  0  0  0  0  0  0  0
  -21.5041   -6.6689   22.8584 C   0  0  0  0  0  0  0  0  0  0  0  0
  -19.8809   -6.4441   25.1161 C   0  0  0  0  0  0  0  0  0  0  0  0
  -21.8272   -5.7551   23.8615 C   0  0  0  0  0  0  0  0  0  0  0  0
  -24.6603  -11.7526   20.7198 C   0  0  0  0  0  0  0  0  0  0  0  0
  -25.0350  -13.9024   20.4498 C   0  0  0  0  0  0  0  0  0  0  0  0
  -22.6873  -13.3554   21.1113 C   0  0  0  0  0  0  0  0  0  0  0  0
  -29.9799  -32.9328   21.0905 C   0  0  0  0  0  0  0  0  0  0  0  0
  -27.1279  -33.2862   22.5950 C   0  0  0  0  0  0  0  0  0  0  0  0
  -24.2620  -31.8367   23.7492 C   0  0  0  0  0  0  0  0  0  0  0  0
  -30.2979  -15.7050   20.8954 C   0  0  0  0  0  0  0  0  0  0  0  0
  -32.7381  -37.1822   20.4639 C   0  0  0  0  0  0  0  0  0  0  0  0
  -28.4108  -31.8168   19.4631 C   0  0  0  0  0  0  0  0  0  0  0  0
  -27.9313  -30.9210   22.2403 C   0  0  0  0  0  0  0  0  0  0  0  0
  -31.7673  -36.6563   21.5181 C   0  0  0  0  0  0  0  0  0  0  0  0
  -29.6534  -13.1095   18.5449 C   0  0  0  0  0  0  0  0  0  0  0  0
  -32.1317  -35.2291   21.9146 C   0  0  0  0  0  0  0  0  0  0  0  0
  -28.2491  -12.6255   18.9104 C   0  0  0  0  0  0  0  0  0  0  0  0
  -29.3871  -18.3663   23.3626 C   0  0  0  0  0  0  0  0  0  0  0  0
  -30.4572  -13.4967   19.7842 C   0  0  0  0  0  0  0  0  0  0  0  0
  -29.6088  -19.8774   23.2997 C   0  0  0  0  0  0  0  0  0  0  0  0
  -28.3923  -13.9888   21.0363 C   0  0  0  0  0  0  0  0  0  0  0  0
  -29.5796  -18.9699   21.0562 C   0  0  0  0  0  0  0  0  0  0  0  0
  -32.0366  -34.2813   20.7129 C   0  0  1  0  0  0  0  0  0  0  0  0
  -28.5534  -32.7658   20.6490 C   0  0  1  0  0  0  0  0  0  0  0  0
  -27.5242  -13.6399   19.8153 C   0  0  2  0  0  0  0  0  0  0  0  0
  -29.9847  -17.8796   22.0496 C   0  0  2  0  0  0  0  0  0  0  0  0
  -31.5512  -24.6203   21.4609 C   0  0  0  0  0  0  0  0  0  0  0  0
  -27.2028  -23.5616   19.1892 C   0  0  0  0  0  0  0  0  0  0  0  0
  -27.3185  -20.8749   20.2501 C   0  0  0  0  0  0  0  0  0  0  0  0
  -22.1361  -32.3738   24.9696 C   0  0  0  0  0  0  0  0  0  0  0  0
  -28.6722  -33.4155   25.2233 C   0  0  0  0  0  0  0  0  0  0  0  0
  -26.5186  -32.9947   26.4288 C   0  0  0  0  0  0  0  0  0  0  0  0
  -26.7874  -35.0489   25.0393 C   0  0  0  0  0  0  0  0  0  0  0  0
  -22.5949  -30.9949   21.4533 C   0  0  0  0  0  0  0  0  0  0  0  0
  -29.3154  -25.4490   19.7870 C   0  0  0  0  0  0  0  0  0  1  0  0
  -26.5408  -32.8054   23.9001 C   0  0  1  0  0  0  0  0  0  0  0  0
  -22.8042  -32.2367   23.6104 C   0  0  2  0  0  0  0  0  0  0  0  0
  -27.1391  -33.5479   25.1282 C   0  0  0  0  0  0  0  0  0  0  0  0
  -25.9485  -11.8269   20.3747 N   0  0  0  0  0  0  0  0  0  0  0  0
  -26.1464  -13.1468   20.2172 N   0  0  0  0  0  0  0  0  0  0  0  0
  -29.5625  -20.1833   21.8714 N   0  0  3  0  0  0  0  0  0  0  0  0
  -27.7928  -32.3252   21.8202 N   0  0  0  0  0  0  0  0  0  0  0  0
  -29.7148  -14.4620   20.5985 N   0  0  0  0  0  0  0  0  0  0  0  0
  -25.0584  -15.2474   20.3367 N   0  0  0  0  0  0  0  0  0  0  0  0
  -21.7965  -12.3210   21.4283 N   0  0  0  0  0  0  0  0  0  0  0  0
  -30.6549  -33.9481   20.4401 N   0  0  0  0  0  0  0  0  0  0  0  0
  -25.0937  -32.9363   23.7695 N   0  0  0  0  0  0  0  0  0  0  0  0
  -29.5243  -16.5633   21.6670 N   0  0  0  0  0  0  0  0  0  0  0  0
  -22.0595  -31.2149   22.8215 N   0  3  0  0  0  0  0  0  0  0  0  0
  -22.2759  -14.5405   21.1079 O   0  0  0  0  0  0  0  0  0  0  0  0
  -30.4341  -32.1962   21.9581 O   0  0  0  0  0  0  0  0  0  0  0  0
  -26.9950  -34.4691   22.2714 O   0  0  0  0  0  0  0  0  0  0  0  0
  -24.6262  -30.6660   23.8352 O   0  0  0  0  0  0  0  0  0  0  0  0
  -31.4223  -16.0280   20.4975 O   0  0  0  0  0  0  0  0  0  0  0  0
  -22.3093   -6.7823   21.7375 O   0  0  0  0  0  0  0  0  0  0  0  0
  -28.9492  -26.3466   20.8341 O   0  0  0  0  0  0  0  0  0  1  0  0
  -19.1023   -6.3374   26.2008 F   0  0  0  0  0  0  0  0  0  0  0  0
  -22.9167   -4.9834   23.7468 F   0  0  0  0  0  0  0  0  0  0  0  0
  1  2  1  0  0  0  0
  1  5  2  0  0  0  0
  2  6  2  0  0  0  0
  3  8  2  0  0  0  0
  3 16  1  0  0  0  0
  4  9  1  0  0  0  0
  4 16  2  0  0  0  0
  5 18  1  0  0  0  0
  6 20  1  0  0  0  0
  7 10  2  0  0  0  0
  7 19  1  0  0  0  0
  8 27  1  0  0  0  0
  9 27  2  0  0  0  0
 10 28  1  0  0  0  0
 11 12  2  0  0  0  0
 11 29  1  0  0  0  0
 12 30  1  0  0  0  0
 13 21  1  0  0  0  0
 13 28  2  0  0  0  0
 14 22  2  0  0  0  0
 14 26  1  0  0  0  0
 15 30  2  0  0  0  0
 15 31  1  0  0  0  0
 16 32  1  0  0  0  0
 17 32  1  0  0  0  0
 17 33  2  0  0  0  0
 17 34  1  0  0  0  0
 18 20  2  0  0  0  0
 18 39  1  0  0  0  0
 19 21  2  0  0  0  0
 19 40  1  0  0  0  0
 20 51  1  0  0  0  0
 21 41  1  0  0  0  0
 22 24  1  0  0  0  0
 22 55  1  0  0  0  0
 23 24  2  0  0  0  0
 23 25  1  0  0  0  0
 23 56  1  0  0  0  0
 24 63  1  0  0  0  0
 25 26  2  0  0  0  0
 25 57  1  0  0  0  0
 26 69  1  0  0  0  0
 27 83  1  0  0  0  0
 28 84  1  0  0  0  0
 29 31  2  0  0  0  0
 29 83  1  0  0  0  0
 30 85  1  0  0  0  0
 31 86  1  0  0  0  0
 32 67  2  0  0  0  0
 33 68  1  0  0  0  0
 33 72  1  0  0  0  0
 34 73  1  0  0  0  0
 34 78  2  0  0  0  0
 35 52  1  0  0  0  0
 35 74  1  0  0  0  0
 35 79  2  0  0  0  0
 36 64  1  0  0  0  0
 36 70  1  0  0  0  0
 36 80  2  0  0  0  0
 37 65  1  0  0  0  0
 37 75  1  0  0  0  0
 37 81  2  0  0  0  0
 38 71  1  0  0  0  0
 38 76  1  0  0  0  0
 38 82  2  0  0  0  0
 39 42  1  0  0  0  0
 40 52  1  0  0  0  0
 41 70  1  0  0  0  0
 42 44  1  0  0  0  0
 43 45  1  0  0  0  0
 43 47  1  0  0  0  0
 44 51  1  0  0  0  0
 45 53  1  0  0  0  0
 46 48  1  0  0  0  0
 46 54  1  0  0  0  0
 47 71  1  0  0  0  0
 48 69  1  0  0  0  0
 49 53  1  0  0  0  0
 49 71  1  0  0  0  0
 50 54  1  0  0  0  0
 50 69  1  0  0  0  0
 51 74  1  0  0  0  0
 52 70  1  0  0  0  0
 53 68  1  0  0  0  0
 54 76  1  0  0  0  0
 58 65  1  0  0  0  0
 59 66  1  0  0  0  0
 60 66  1  0  0  0  0
 61 66  1  0  0  0  0
 62 77  1  0  0  0  0
 63 84  1  0  0  0  0
 64 66  1  0  0  0  0
 64 75  1  0  0  0  0
 65 77  1  0  0  0  0
 67 68  1  0  0  0  0
M  CHG  1  77   1
M  ISO  4  38 100  63 101  76 100  84 101
M  END
> <Batch ID>
0165

> <Smiles>
CNC(C)C(=O)NC(C(=O)N1Cc2cc([101O:1][101CH2:1]c3c(C)cc(N4CCC([100NH:0][100C:0](=O)N5CCCC(n6nc(-c7ccc(Oc8ccc(F)cc8F)cc7)c(C(N)=O)c6N)C5)C4)c(C)c3C)ccc2CC1C(=O)NC1CCCc2ccccc21)C(C)(C)C

> <Shape>
0.314

> <Color>
0.183

> <Negative vol penalty>
0.000

$$$$

  -OEChem-04052322223D

 89 99  0     1  0  0  0  0  0999 V2000
  -18.3628  -15.5930   24.0937 C   0  0  0  0  0  0  0  0  0  0  0  0
  -19.1256  -16.2666   23.1451 C   0  0  0  0  0  0  0  0  0  0  0  0
  -24.3906  -30.2072   23.6923 C   0  0  0  0  0  0  0  0  0  0  0  0
  -23.9553  -31.5281   21.7168 C   0  0  0  0  0  0  0  0  0  0  0  0
  -18.9429  -14.5889   24.8678 C   0  0  0  0  0  0  0  0  0  0  0  0
  -20.4694  -15.9372   22.9709 C   0  0  0  0  0  0  0  0  0  0  0  0
  -21.7583  -15.5531   18.0887 C   0  0  0  0  0  0  0  0  0  0  0  0
  -24.2870  -31.3529   24.4812 C   0  0  0  0  0  0  0  0  0  0  0  0
  -23.8516  -32.6738   22.5056 C   0  0  0  0  0  0  0  0  0  0  0  0
  -21.9664  -16.7413   17.3897 C   0  0  0  0  0  0  0  0  0  0  0  0
  -25.9456  -34.8401   24.0395 C   0  0  0  0  0  0  0  0  0  0  0  0
  -26.5982  -35.9915   23.5989 C   0  0  0  0  0  0  0  0  0  0  0  0
  -25.9545  -22.6674   19.1066 C   0  0  0  0  0  0  0  0  0  0  0  0
  -24.3489  -16.4746   17.6575 C   0  0  0  0  0  0  0  0  0  0  0  0
  -24.4843  -37.1585   23.5177 C   0  0  0  0  0  0  0  0  0  0  0  0
  -24.2248  -30.2948   22.3101 C   0  0  0  0  0  0  0  0  0  0  0  0
  -24.9034  -21.8596   19.5403 C   0  0  0  0  0  0  0  0  0  0  0  0
  -27.0407  -22.9098   19.9474 C   0  0  0  0  0  0  0  0  0  0  0  0
  -23.2951  -28.2308   21.1339 C   0  0  0  0  0  0  0  0  0  0  0  0
  -20.2919  -14.2404   24.6963 C   0  0  0  0  0  0  0  0  0  0  0  0
  -22.8454  -14.8211   18.5876 C   0  0  0  0  0  0  0  0  0  0  0  0
  -21.0684  -14.9285   23.7444 C   0  0  0  0  0  0  0  0  0  0  0  0
  -24.1520  -15.2760   18.3603 C   0  0  0  0  0  0  0  0  0  0  0  0
  -24.9384  -21.2942   20.8150 C   0  0  0  0  0  0  0  0  0  0  0  0
  -26.0246  -21.5367   21.6559 C   0  0  0  0  0  0  0  0  0  0  0  0
  -24.0175  -32.5861   23.8878 C   0  0  0  0  0  0  0  0  0  0  0  0
  -23.2617  -17.2037   17.1765 C   0  0  0  0  0  0  0  0  0  0  0  0
  -24.5624  -34.8479   24.2191 C   0  0  0  0  0  0  0  0  0  0  0  0
  -27.0758  -22.3445   21.2221 C   0  0  0  0  0  0  0  0  0  0  0  0
  -25.8675  -37.1507   23.3380 C   0  0  0  0  0  0  0  0  0  0  0  0
  -23.8317  -36.0071   23.9583 C   0  0  0  0  0  0  0  0  0  0  0  0
  -24.3322  -29.1118   21.4946 C   0  0  0  0  0  0  0  0  0  0  0  0
  -23.9088  -27.2766   20.3597 C   0  0  0  0  0  0  0  0  0  0  0  0
  -28.1362  -23.7630   19.4691 C   0  0  0  0  0  0  0  0  0  0  0  0
  -23.7614  -21.6204   18.6207 C   0  0  0  0  0  0  0  0  0  0  0  0
  -21.9016  -28.2714   21.4687 C   0  0  0  0  0  0  0  0  0  0  0  0
  -23.8220  -13.9485   21.4839 C   0  0  0  0  0  0  0  0  0  0  0  0
  -26.0439  -12.2832   19.8068 C   0  0  0  0  0  0  0  0  0  0  0  0
  -27.8283  -11.9283   16.9195 C   0  0  0  0  0  0  0  0  0  0  0  0
  -20.8871  -13.1808   25.5893 C   0  0  0  0  0  0  0  0  0  0  0  0
  -22.6052  -13.5274   19.3164 C   0  0  0  0  0  0  0  0  0  0  0  0
  -25.3539  -14.5167   18.8577 C   0  0  0  0  0  0  0  0  0  0  0  0
  -22.2197  -12.6352   25.0824 C   0  0  0  0  0  0  0  0  0  0  0  0
  -28.5494  -27.1289   18.3547 C   0  0  0  0  0  0  0  0  0  0  0  0
  -24.1170  -19.0355   21.7622 C   0  0  0  0  0  0  0  0  0  0  0  0
  -23.4207  -19.2343   20.4523 C   0  0  0  0  0  0  0  0  0  0  0  0
  -23.1380  -13.7774   24.6596 C   0  0  0  0  0  0  0  0  0  0  0  0
  -27.4163  -27.8793   19.0569 C   0  0  0  0  0  0  0  0  0  0  0  0
  -30.5979  -22.2555   22.1863 C   0  0  0  0  0  0  0  0  0  0  0  0
  -29.9649  -21.4056   23.2490 C   0  0  0  0  0  0  0  0  0  0  0  0
  -29.1196  -26.0185   19.2337 C   0  0  0  0  0  0  0  0  0  0  0  0
  -26.9774  -25.8117   20.4473 C   0  0  0  0  0  0  0  0  0  0  0  0
  -23.8115  -20.4270   21.2807 C   0  0  0  0  0  0  0  0  0  0  0  0
  -22.5227  -14.5828   23.5088 C   0  0  1  0  0  0  0  0  0  0  0  0
  -23.7640  -13.1296   20.2254 C   0  0  1  0  0  0  0  0  0  0  0  0
  -26.3406  -26.9066   19.5757 C   0  0  1  0  0  0  0  0  0  0  0  0
  -29.2321  -21.6709   21.9652 C   0  0  0  0  0  0  0  0  0  0  0  0
  -26.0704  -20.9329   23.0238 C   0  0  0  0  0  0  0  0  0  0  0  0
  -29.5955  -10.4964   15.8593 C   0  0  0  0  0  0  0  0  0  0  0  0
  -28.1742  -13.6623   21.5009 C   0  0  0  0  0  0  0  0  0  0  0  0
  -29.8792  -12.9506   19.8113 C   0  0  0  0  0  0  0  0  0  0  0  0
  -28.5889  -11.2325   21.0785 C   0  0  0  0  0  0  0  0  0  0  0  0
  -26.0094  -11.0959   14.7383 C   0  0  0  0  0  0  0  0  0  0  0  0
  -23.0764  -20.7341   16.4068 C   0  0  0  0  0  0  0  0  0  0  0  0
  -22.4528  -19.3622   16.5912 C   0  0  0  0  0  0  0  0  0  1  0  0
  -27.4277  -12.5775   19.2801 C   0  0  1  0  0  0  0  0  0  0  0  0
  -28.1025  -10.7165   16.0473 C   0  0  2  0  0  0  0  0  0  0  0  0
  -28.4950  -12.6213   20.4099 C   0  0  0  0  0  0  0  0  0  0  0  0
  -25.5151  -28.7494   20.9911 N   0  0  0  0  0  0  0  0  0  0  0  0
  -25.2250  -27.6301   20.3061 N   0  0  0  0  0  0  0  0  0  0  0  0
  -28.0544  -25.1367   19.7094 N   0  0  0  0  0  0  0  0  0  0  0  0
  -25.0670  -13.2607   19.5702 N   0  0  0  0  0  0  0  0  0  0  0  0
  -23.4456  -26.1781   19.7264 N   0  0  0  0  0  0  0  0  0  0  0  0
  -21.4381  -29.3211   22.2735 N   0  0  0  0  0  0  0  0  0  0  0  0
  -24.0690  -21.0099   17.4113 N   0  0  0  0  0  0  0  0  0  0  0  0
  -22.6786  -13.8747   22.2563 N   0  0  0  0  0  0  0  0  0  0  0  0
  -27.6916  -11.5818   18.2470 N   0  0  0  0  0  0  0  0  0  0  0  0
  -27.4807  -10.8933   14.7045 N   0  3  0  0  0  0  0  0  0  0  0  0
  -29.0492  -23.1925   18.8740 O   0  0  0  0  0  0  0  0  0  0  0  0
  -22.6361  -21.9819   18.9548 O   0  0  0  0  0  0  0  0  0  0  0  0
  -21.0944  -27.3936   21.0796 O   0  0  0  0  0  0  0  0  0  0  0  0
  -24.8301  -14.5979   21.7362 O   0  0  0  0  0  0  0  0  0  0  0  0
  -25.8357  -11.2218   20.3999 O   0  0  0  0  0  0  0  0  0  0  0  0
  -27.7474  -13.0689   16.4687 O   0  0  0  0  0  0  0  0  0  0  0  0
  -23.9161  -33.7043   24.6573 O   0  0  0  0  0  0  0  0  0  0  0  0
  -28.1382  -22.5809   22.0452 O   0  0  0  0  0  0  0  0  0  0  0  0
  -23.4676  -18.3636   16.4951 O   0  0  0  0  0  0  0  0  0  1  0  0
  -26.4945  -38.2568   22.9165 F   0  0  0  0  0  0  0  0  0  0  0  0
  -22.5028  -36.0210   24.1302 F   0  0  0  0  0  0  0  0  0  0  0  0
  1  2  1  0  0  0  0
  1  5  2  0  0  0  0
  2  6  2  0  0  0  0
  3  8  2  0  0  0  0
  3 16  1  0  0  0  0
  4  9  1  0  0  0  0
  4 16  2  0  0  0  0
  5 20  1  0  0  0  0
  6 22  1  0  0  0  0
  7 10  2  0  0  0  0
  7 21  1  0  0  0  0
  8 26  1  0  0  0  0
  9 26  2  0  0  0  0
 10 27  1  0  0  0  0
 11 12  2  0  0  0  0
 11 28  1  0  0  0  0
 12 30  1  0  0  0  0
 13 17  1  0  0  0  0
 13 18  2  0  0  0  0
 14 23  1  0  0  0  0
 14 27  2  0  0  0  0
 15 30  2  0  0  0  0
 15 31  1  0  0  0  0
 16 32  1  0  0  0  0
 17 24  2  0  0  0  0
 17 35  1  0  0  0  0
 18 29  1  0  0  0  0
 18 34  1  0  0  0  0
 19 32  1  0  0  0  0
 19 33  2  0  0  0  0
 19 36  1  0  0  0  0
 20 22  2  0  0  0  0
 20 40  1  0  0  0  0
 21 23  2  0  0  0  0
 21 41  1  0  0  0  0
 22 54  1  0  0  0  0
 23 42  1  0  0  0  0
 24 25  1  0  0  0  0
 24 53  1  0  0  0  0
 25 29  2  0  0  0  0
 25 58  1  0  0  0  0
 26 85  1  0  0  0  0
 27 87  1  0  0  0  0
 28 31  2  0  0  0  0
 28 85  1  0  0  0  0
 29 86  1  0  0  0  0
 30 88  1  0  0  0  0
 31 89  1  0  0  0  0
 32 69  2  0  0  0  0
 33 70  1  0  0  0  0
 33 73  1  0  0  0  0
 34 71  1  0  0  0  0
 34 79  2  0  0  0  0
 35 75  1  0  0  0  0
 35 80  2  0  0  0  0
 36 74  1  0  0  0  0
 36 81  2  0  0  0  0
 37 55  1  0  0  0  0
 37 76  1  0  0  0  0
 37 82  2  0  0  0  0
 38 66  1  0  0  0  0
 38 72  1  0  0  0  0
 38 83  2  0  0  0  0
 39 67  1  0  0  0  0
 39 77  1  0  0  0  0
 39 84  2  0  0  0  0
 40 43  1  0  0  0  0
 41 55  1  0  0  0  0
 42 72  1  0  0  0  0
 43 47  1  0  0  0  0
 44 48  1  0  0  0  0
 44 51  1  0  0  0  0
 45 46  1  0  0  0  0
 45 53  1  0  0  0  0
 46 53  1  0  0  0  0
 47 54  1  0  0  0  0
 48 56  1  0  0  0  0
 49 50  1  0  0  0  0
 49 57  1  0  0  0  0
 50 57  1  0  0  0  0
 51 71  1  0  0  0  0
 52 56  1  0  0  0  0
 52 71  1  0  0  0  0
 54 76  1  0  0  0  0
 55 72  1  0  0  0  0
 56 70  1  0  0  0  0
 57 86  1  0  0  0  0
 59 67  1  0  0  0  0
 60 68  1  0  0  0  0
 61 68  1  0  0  0  0
 62 68  1  0  0  0  0
 63 78  1  0  0  0  0
 64 65  1  0  0  0  0
 64 75  1  0  0  0  0
 65 87  1  0  0  0  0
 66 68  1  0  0  0  0
 66 77  1  0  0  0  0
 67 78  1  0  0  0  0
 69 70  1  0  0  0  0
M  CHG  1  78   1
M  ISO  4  18 100  34 100  65 101  87 101
M  END
> <Batch ID>
0165

> <Smiles>
CNC(C)C(=O)NC(C(=O)N1Cc2cc([101O:1][101CH2:1]CNC(=O)c3c[100c:0]([100C:0](=O)N4CCCC(n5nc(-c6ccc(Oc7ccc(F)cc7F)cc6)c(C(N)=O)c5N)C4)c(OC4CC4)c(C)c3C3CC3)ccc2CC1C(=O)NC1CCCc2ccccc21)C(C)(C)C

> <Shape>
0.218

> <Color>
0.059

> <Negative vol penalty>
0.000

$$$$

  -OEChem-04052322223D

 88 98  0     1  0  0  0  0  0999 V2000
  -29.2301  -34.1960   25.8135 C   0  0  0  0  0  0  0  0  0  0  0  0
  -29.0850  -32.9166   25.2866 C   0  0  0  0  0  0  0  0  0  0  0  0
  -23.0793  -10.3989   21.1960 C   0  0  0  0  0  0  0  0  0  0  0  0
  -24.7519   -8.6872   21.5266 C   0  0  0  0  0  0  0  0  0  0  0  0
  -28.1029  -34.9770   26.0649 C   0  0  0  0  0  0  0  0  0  0  0  0
  -27.8124  -32.4171   25.0120 C   0  0  0  0  0  0  0  0  0  0  0  0
  -27.5596  -30.1139   20.5091 C   0  0  0  0  0  0  0  0  0  0  0  0
  -22.0758   -9.4332   21.2727 C   0  0  0  0  0  0  0  0  0  0  0  0
  -23.7484   -7.7215   21.6034 C   0  0  0  0  0  0  0  0  0  0  0  0
  -28.0770  -28.8220   20.4247 C   0  0  0  0  0  0  0  0  0  0  0  0
  -21.6070   -4.8547   22.2469 C   0  0  0  0  0  0  0  0  0  0  0  0
  -21.6963   -3.9052   23.2648 C   0  0  0  0  0  0  0  0  0  0  0  0
  -27.6638  -23.3195   21.5379 C   0  0  0  0  0  0  0  0  0  0  0  0
  -25.8449  -27.9233   20.5954 C   0  0  0  0  0  0  0  0  0  0  0  0
  -28.0429  -23.6441   19.1560 C   0  0  0  0  0  0  0  0  0  0  0  0
  -21.6127   -5.6672   24.9157 C   0  0  0  0  0  0  0  0  0  0  0  0
  -24.4174  -10.0260   21.3228 C   0  0  0  0  0  0  0  0  0  0  0  0
  -26.0040  -11.7650   22.3057 C   0  0  0  0  0  0  0  0  0  0  0  0
  -26.8164  -34.4905   25.7842 C   0  0  0  0  0  0  0  0  0  0  0  0
  -26.1796  -30.3202   20.6484 C   0  0  0  0  0  0  0  0  0  0  0  0
  -26.6669  -33.1918   25.2612 C   0  0  0  0  0  0  0  0  0  0  0  0
  -28.3503  -22.1205   21.4475 C   0  0  0  0  0  0  0  0  0  0  0  0
  -25.3122  -29.2189   20.6787 C   0  0  0  0  0  0  0  0  0  0  0  0
  -28.8725  -21.6769   20.2254 C   0  0  0  0  0  0  0  0  0  0  0  0
  -27.5167  -24.0866   20.3802 C   0  0  0  0  0  0  0  0  0  0  0  0
  -28.7232  -22.4275   19.0711 C   0  0  0  0  0  0  0  0  0  0  0  0
  -22.4103   -8.0945   21.4765 C   0  0  0  0  0  0  0  0  0  0  0  0
  -27.2199  -27.7264   20.4708 C   0  0  0  0  0  0  0  0  0  0  0  0
  -21.5207   -6.2105   22.5634 C   0  0  0  0  0  0  0  0  0  0  0  0
  -21.6991   -4.3114   24.5992 C   0  0  0  0  0  0  0  0  0  0  0  0
  -21.5235   -6.6167   23.8978 C   0  0  0  0  0  0  0  0  0  0  0  0
  -25.4545  -11.0230   21.2430 C   0  0  0  0  0  0  0  0  0  0  0  0
  -26.9457  -12.5694   21.7119 C   0  0  0  0  0  0  0  0  0  0  0  0
  -25.6912  -11.7301   23.7045 C   0  0  0  0  0  0  0  0  0  0  0  0
  -24.3216  -31.6439   22.8619 C   0  0  0  0  0  0  0  0  0  0  0  0
  -21.9945  -31.1217   20.6632 C   0  0  0  0  0  0  0  0  0  0  0  0
  -20.9056  -29.3385   17.9648 C   0  0  0  0  0  0  0  0  0  0  0  0
  -28.0084  -16.1095   17.3882 C   0  0  0  0  0  0  0  0  0  0  0  0
  -25.6252  -35.3536   26.1170 C   0  0  0  0  0  0  0  0  0  0  0  0
  -25.6349  -31.7208   20.7111 C   0  0  0  0  0  0  0  0  0  0  0  0
  -28.6012  -21.1192   22.5317 C   0  0  0  0  0  0  0  0  0  0  0  0
  -23.8210  -29.3872   20.8068 C   0  0  0  0  0  0  0  0  0  0  0  0
  -24.3330  -34.8927   25.4478 C   0  0  0  0  0  0  0  0  0  0  0  0
  -29.7268  -20.2779   21.9055 C   0  0  0  0  0  0  0  0  0  0  0  0
  -28.8747  -12.5229   17.0476 C   0  0  0  0  0  0  0  0  0  0  0  0
  -24.1588  -33.3854   25.6046 C   0  0  0  0  0  0  0  0  0  0  0  0
  -28.0421  -11.8755   18.1528 C   0  0  0  0  0  0  0  0  0  0  0  0
  -28.2309  -13.8059   16.5317 C   0  0  0  0  0  0  0  0  0  0  0  0
  -27.1504  -18.2825   18.2062 C   0  0  0  0  0  0  0  0  0  0  0  0
  -27.1048  -14.1555   18.7070 C   0  0  0  0  0  0  0  0  0  0  0  0
  -28.2055  -16.7589   19.8318 C   0  0  0  0  0  0  0  0  0  0  0  0
  -28.1496  -19.3824   18.5265 C   0  0  0  0  0  0  0  0  0  0  0  0
  -25.3045  -32.6242   24.9268 C   0  0  1  0  0  0  0  0  0  0  0  0
  -29.5286  -20.3404   20.3803 C   0  0  1  0  0  0  0  0  0  0  0  0
  -24.2604  -31.7984   21.3685 C   0  0  1  0  0  0  0  0  0  0  0  0
  -27.7482  -12.8826   19.2779 C   0  0  1  0  0  0  0  0  0  0  0  0
  -29.2477  -17.8218   20.2107 C   0  0  1  0  0  0  0  0  0  0  0  0
  -29.2673  -21.9646   17.7645 C   0  0  0  0  0  0  0  0  0  0  0  0
  -30.5752  -17.6180   19.4808 C   0  0  0  0  0  0  0  0  0  0  0  0
  -18.9470  -29.1142   16.4120 C   0  0  0  0  0  0  0  0  0  0  0  0
  -20.4370  -29.6607   22.8426 C   0  0  0  0  0  0  0  0  0  0  0  0
  -18.9979  -28.6672   21.0509 C   0  0  0  0  0  0  0  0  0  0  0  0
  -19.0477  -31.1393   21.3804 C   0  0  0  0  0  0  0  0  0  0  0  0
  -22.5504  -30.0299   15.6036 C   0  0  0  0  0  0  0  0  0  0  0  0
  -26.7883  -25.3878   20.4429 C   0  0  0  0  0  0  0  0  0  1  0  0
  -21.0500  -29.9850   20.3556 C   0  0  1  0  0  0  0  0  0  0  0  0
  -20.2948  -29.7785   16.6466 C   0  0  2  0  0  0  0  0  0  0  0  0
  -19.9114  -29.8595   21.4069 C   0  0  0  0  0  0  0  0  0  0  0  0
  -26.0014  -11.3290   20.0635 N   0  0  0  0  0  0  0  0  0  0  0  0
  -26.9044  -12.2722   20.3815 N   0  0  0  0  0  0  0  0  0  0  0  0
  -23.3374  -30.7763   20.8710 N   0  0  0  0  0  0  0  0  0  0  0  0
  -27.9191  -14.7278   17.6240 N   0  0  0  0  0  0  0  0  0  0  0  0
  -27.7088  -16.9580   18.4646 N   0  0  0  0  0  0  0  0  0  0  0  0
  -27.7968  -13.4950   22.2033 N   0  0  0  0  0  0  0  0  0  0  0  0
  -24.6976  -10.8453   24.1451 N   0  0  0  0  0  0  0  0  0  0  0  0
  -25.1088  -32.5879   23.4933 N   0  0  0  0  0  0  0  0  0  0  0  0
  -20.5820  -30.2011   18.9908 N   0  0  0  0  0  0  0  0  0  0  0  0
  -28.6541  -19.1979   19.9404 N   0  3  2  0  0  0  0  0  0  0  0  0
  -21.1966  -29.4247   15.5141 N   0  3  0  0  0  0  0  0  0  0  0  0
  -26.2640  -12.4737   24.5367 O   0  0  0  0  0  0  0  0  0  0  0  0
  -23.6996  -30.7363   23.4014 O   0  0  0  0  0  0  0  0  0  0  0  0
  -21.5582  -32.2746   20.7101 O   0  0  0  0  0  0  0  0  0  0  0  0
  -21.5973  -28.3285   18.0743 O   0  0  0  0  0  0  0  0  0  0  0  0
  -28.3430  -16.5566   16.2839 O   0  0  0  0  0  0  0  0  0  0  0  0
  -21.4314   -7.1518   21.5517 O   0  0  0  0  0  0  0  0  0  0  0  0
  -27.7259  -26.4555   20.3888 O   0  0  0  0  0  0  0  0  0  1  0  0
  -21.7832   -3.3994   25.5766 F   0  0  0  0  0  0  0  0  0  0  0  0
  -21.4396   -7.9177   24.2081 F   0  0  0  0  0  0  0  0  0  0  0  0
  1  2  1  0  0  0  0
  1  5  2  0  0  0  0
  2  6  2  0  0  0  0
  3  8  2  0  0  0  0
  3 17  1  0  0  0  0
  4  9  1  0  0  0  0
  4 17  2  0  0  0  0
  5 19  1  0  0  0  0
  6 21  1  0  0  0  0
  7 10  2  0  0  0  0
  7 20  1  0  0  0  0
  8 27  1  0  0  0  0
  9 27  2  0  0  0  0
 10 28  1  0  0  0  0
 11 12  2  0  0  0  0
 11 29  1  0  0  0  0
 12 30  1  0  0  0  0
 13 22  1  0  0  0  0
 13 25  2  0  0  0  0
 14 23  1  0  0  0  0
 14 28  2  0  0  0  0
 15 25  1  0  0  0  0
 15 26  2  0  0  0  0
 16 30  2  0  0  0  0
 16 31  1  0  0  0  0
 17 32  1  0  0  0  0
 18 32  1  0  0  0  0
 18 33  2  0  0  0  0
 18 34  1  0  0  0  0
 19 21  2  0  0  0  0
 19 39  1  0  0  0  0
 20 23  2  0  0  0  0
 20 40  1  0  0  0  0
 21 53  1  0  0  0  0
 22 24  2  0  0  0  0
 22 41  1  0  0  0  0
 23 42  1  0  0  0  0
 24 26  1  0  0  0  0
 24 54  1  0  0  0  0
 25 65  1  0  0  0  0
 26 58  1  0  0  0  0
 27 85  1  0  0  0  0
 28 86  1  0  0  0  0
 29 31  2  0  0  0  0
 29 85  1  0  0  0  0
 30 87  1  0  0  0  0
 31 88  1  0  0  0  0
 32 69  2  0  0  0  0
 33 70  1  0  0  0  0
 33 74  1  0  0  0  0
 34 75  1  0  0  0  0
 34 80  2  0  0  0  0
 35 55  1  0  0  0  0
 35 76  1  0  0  0  0
 35 81  2  0  0  0  0
 36 66  1  0  0  0  0
 36 71  1  0  0  0  0
 36 82  2  0  0  0  0
 37 67  1  0  0  0  0
 37 77  1  0  0  0  0
 37 83  2  0  0  0  0
 38 72  1  0  0  0  0
 38 73  1  0  0  0  0
 38 84  2  0  0  0  0
 39 43  1  0  0  0  0
 40 55  1  0  0  0  0
 41 44  1  0  0  0  0
 42 71  1  0  0  0  0
 43 46  1  0  0  0  0
 44 54  1  0  0  0  0
 45 47  1  0  0  0  0
 45 48  1  0  0  0  0
 46 53  1  0  0  0  0
 47 56  1  0  0  0  0
 48 72  1  0  0  0  0
 49 52  1  0  0  0  0
 49 73  1  0  0  0  0
 50 56  1  0  0  0  0
 50 72  1  0  0  0  0
 51 57  1  0  0  0  0
 51 73  1  0  0  0  0
 52 78  1  0  0  0  0
 53 76  1  0  0  0  0
 54 78  1  0  0  0  0
 55 71  1  0  0  0  0
 56 70  1  0  0  0  0
 57 59  1  0  0  0  0
 57 78  1  0  0  0  0
 60 67  1  0  0  0  0
 61 68  1  0  0  0  0
 62 68  1  0  0  0  0
 63 68  1  0  0  0  0
 64 79  1  0  0  0  0
 65 86  1  0  0  0  0
 66 68  1  0  0  0  0
 66 77  1  0  0  0  0
 67 79  1  0  0  0  0
 69 70  1  0  0  0  0
M  CHG  2  78   1  79   1
M  ISO  4  38 100  65 101  73 100  86 101
M  END
> <Batch ID>
0165

> <Smiles>
CNC(C)C(=O)NC(C(=O)N1Cc2cc([101O:1][101CH2:1]c3cc(C)c4c(c3)CCC4N3CC[100N:0]([100C:0](=O)N4CCCC(n5nc(-c6ccc(Oc7ccc(F)cc7F)cc6)c(C(N)=O)c5N)C4)CC3C)ccc2CC1C(=O)NC1CCCc2ccccc21)C(C)(C)C

> <Shape>
0.337

> <Color>
0.106

> <Negative vol penalty>
0.000

$$$$

  -OEChem-04052322223D

 91101  0     1  0  0  0  0  0999 V2000
  -12.3013  -17.2992   24.9802 C   0  0  0  0  0  0  0  0  0  0  0  0
  -13.6463  -17.1292   24.6681 C   0  0  0  0  0  0  0  0  0  0  0  0
  -23.0740   -9.8681   19.9435 C   0  0  0  0  0  0  0  0  0  0  0  0
  -23.8379   -9.8767   22.2355 C   0  0  0  0  0  0  0  0  0  0  0  0
  -11.7868  -18.5816   25.1663 C   0  0  0  0  0  0  0  0  0  0  0  0
  -14.4774  -18.2417   24.5409 C   0  0  0  0  0  0  0  0  0  0  0  0
  -20.3952  -18.6106   26.0739 C   0  0  0  0  0  0  0  0  0  0  0  0
  -22.3310   -8.7149   20.1954 C   0  0  0  0  0  0  0  0  0  0  0  0
  -23.0948   -8.7234   22.4875 C   0  0  0  0  0  0  0  0  0  0  0  0
  -21.5663  -18.5111   25.3240 C   0  0  0  0  0  0  0  0  0  0  0  0
  -19.8680   -7.9248   23.0960 C   0  0  0  0  0  0  0  0  0  0  0  0
  -19.1131   -7.8852   24.2682 C   0  0  0  0  0  0  0  0  0  0  0  0
  -21.6499  -20.9154   25.1465 C   0  0  0  0  0  0  0  0  0  0  0  0
  -20.3564   -5.9487   25.0036 C   0  0  0  0  0  0  0  0  0  0  0  0
  -23.8275  -10.4491   20.9636 C   0  0  0  0  0  0  0  0  0  0  0  0
  -28.5503  -19.6587   23.0418 C   0  0  0  0  0  0  0  0  0  0  0  0
  -24.1682  -12.9743   20.8415 C   0  0  0  0  0  0  0  0  0  0  0  0
  -12.6141  -19.7098   25.0508 C   0  0  0  0  0  0  0  0  0  0  0  0
  -19.8357  -19.8650   26.3569 C   0  0  0  0  0  0  0  0  0  0  0  0
  -13.9732  -19.5404   24.7243 C   0  0  0  0  0  0  0  0  0  0  0  0
  -20.4730  -21.0283   25.9023 C   0  0  0  0  0  0  0  0  0  0  0  0
  -28.3253  -19.3454   24.3805 C   0  0  0  0  0  0  0  0  0  0  0  0
  -29.3459  -18.8985   22.2048 C   0  0  0  0  0  0  0  0  0  0  0  0
  -28.9267  -18.2167   24.9194 C   0  0  0  0  0  0  0  0  0  0  0  0
  -29.7310  -17.4213   24.0950 C   0  0  0  0  0  0  0  0  0  0  0  0
  -29.9402  -17.7612   22.7484 C   0  0  0  0  0  0  0  0  0  0  0  0
  -22.3414   -8.1425   21.4674 C   0  0  0  0  0  0  0  0  0  0  0  0
  -22.1923  -19.6634   24.8577 C   0  0  0  0  0  0  0  0  0  0  0  0
  -20.8671   -6.9762   22.8775 C   0  0  0  0  0  0  0  0  0  0  0  0
  -19.3573   -6.8972   25.2220 C   0  0  0  0  0  0  0  0  0  0  0  0
  -21.1113   -5.9882   23.8313 C   0  0  0  0  0  0  0  0  0  0  0  0
  -24.5957  -11.6401   20.7038 C   0  0  0  0  0  0  0  0  0  0  0  0
  -25.2595  -13.7239   20.4759 C   0  0  0  0  0  0  0  0  0  0  0  0
  -27.7900  -20.8585   22.7227 C   0  0  0  0  0  0  0  0  0  0  0  0
  -22.8982  -13.4899   21.2623 C   0  0  0  0  0  0  0  0  0  0  0  0
  -17.0811  -21.2976   25.6759 C   0  0  0  0  0  0  0  0  0  0  0  0
  -18.2419  -23.6021   27.6417 C   0  0  0  0  0  0  0  0  0  0  0  0
  -20.9596  -25.0987   29.0634 C   0  0  0  0  0  0  0  0  0  0  0  0
  -30.7431  -14.7451   20.6543 C   0  0  0  0  0  0  0  0  0  0  0  0
  -12.0021  -21.0786   25.2143 C   0  0  0  0  0  0  0  0  0  0  0  0
  -18.5865  -19.9566   27.1897 C   0  0  0  0  0  0  0  0  0  0  0  0
  -19.9239  -22.3997   26.1960 C   0  0  0  0  0  0  0  0  0  0  0  0
  -13.0320  -22.1844   25.4305 C   0  0  0  0  0  0  0  0  0  0  0  0
  -29.6023  -12.3588   18.2709 C   0  0  0  0  0  0  0  0  0  0  0  0
  -14.1740  -22.0539   24.4276 C   0  0  0  0  0  0  0  0  0  0  0  0
  -28.1657  -12.0648   18.7064 C   0  0  0  0  0  0  0  0  0  0  0  0
  -25.2720  -19.2034   25.4984 C   0  0  0  0  0  0  0  0  0  0  0  0
  -26.4932  -19.8639   26.1122 C   0  0  0  0  0  0  0  0  0  0  0  0
  -30.5214  -12.5807   19.4700 C   0  0  0  0  0  0  0  0  0  0  0  0
  -28.6218  -13.3118   20.8595 C   0  0  0  0  0  0  0  0  0  0  0  0
  -14.9119  -20.7211   24.6022 C   0  0  1  0  0  0  0  0  0  0  0  0
  -26.8186  -21.1477   23.8625 C   0  0  1  0  0  0  0  0  0  0  0  0
  -17.8240  -21.2614   26.9815 C   0  0  1  0  0  0  0  0  0  0  0  0
  -25.4263  -20.6253   23.4219 C   0  0  1  0  0  0  0  0  0  0  0  0
  -27.6457  -13.1362   19.6836 C   0  0  2  0  0  0  0  0  0  0  0  0
  -24.5427  -20.1886   24.5969 C   0  0  1  0  0  0  0  0  0  1  0  0
  -27.4903  -20.4047   25.0740 C   0  0  2  0  0  0  0  0  0  0  0  0
  -29.5536  -19.2634   20.7748 C   0  0  0  0  0  0  0  0  0  0  0  0
  -28.8160  -17.8459   26.3603 C   0  0  0  0  0  0  0  0  0  0  0  0
  -30.3946  -16.1997   24.6547 C   0  0  0  0  0  0  0  0  0  0  0  0
  -24.6982  -21.6841   22.5779 C   0  0  0  0  0  0  0  0  0  0  0  0
  -28.4675  -21.3611   25.7978 C   0  0  0  0  0  0  0  0  0  0  0  0
  -21.5947  -26.9817   30.5958 C   0  0  0  0  0  0  0  0  0  0  0  0
  -17.7376  -25.6002   25.3915 C   0  0  0  0  0  0  0  0  0  0  0  0
  -19.2295  -27.2169   26.5868 C   0  0  0  0  0  0  0  0  0  0  0  0
  -17.1290  -26.4233   27.6733 C   0  0  0  0  0  0  0  0  0  0  0  0
  -22.1880  -23.2473   31.0186 C   0  0  0  0  0  0  0  0  0  0  0  0
  -30.8103  -16.8964   21.8899 C   0  0  0  0  0  0  0  0  0  0  0  0
  -19.0874  -24.8390   27.4566 C   0  0  1  0  0  0  0  0  0  0  0  0
  -21.2516  -25.5034   30.4971 C   0  0  2  0  0  0  0  0  0  0  0  0
  -18.3054  -25.9941   26.7697 C   0  0  0  0  0  0  0  0  0  0  0  0
  -25.8599  -11.5445   20.2834 N   0  0  0  0  0  0  0  0  0  0  0  0
  -26.2361  -12.8281   20.1537 N   0  0  0  0  0  0  0  0  0  0  0  0
  -18.6970  -22.4367   27.0088 N   0  0  0  0  0  0  0  0  0  0  0  0
  -29.9720  -13.6095   20.3564 N   0  0  0  0  0  0  0  0  0  0  0  0
  -25.4692  -15.0554   20.4018 N   0  0  0  0  0  0  0  0  0  0  0  0
  -21.8872  -12.5805   21.6018 N   0  0  0  0  0  0  0  0  0  0  0  0
  -15.8011  -20.7813   25.7424 N   0  0  0  0  0  0  0  0  0  0  0  0
  -19.6133  -25.1750   28.7753 N   0  0  0  0  0  0  0  0  0  0  0  0
  -30.1451  -15.6742   21.4968 N   0  0  0  0  0  0  0  0  0  0  0  0
  -22.3987  -24.7178   31.0337 N   0  3  0  0  0  0  0  0  0  0  0  0
  -27.8937  -21.4719   21.6764 O   0  0  0  0  0  0  0  0  0  0  0  0
  -22.6616  -14.7204   21.3194 O   0  0  0  0  0  0  0  0  0  0  0  0
  -17.6282  -21.7612   24.6822 O   0  0  0  0  0  0  0  0  0  0  0  0
  -17.2192  -23.6659   28.3286 O   0  0  0  0  0  0  0  0  0  0  0  0
  -21.8383  -24.7531   28.2767 O   0  0  0  0  0  0  0  0  0  0  0  0
  -31.8782  -14.9207   20.1986 O   0  0  0  0  0  0  0  0  0  0  0  0
  -21.6163   -7.0173   21.7136 O   0  0  0  0  0  0  0  0  0  0  0  0
  -23.3526  -19.5676   24.1139 O   0  0  0  0  0  0  0  0  0  1  0  0
  -18.6333   -6.8603   26.3484 F   0  0  0  0  0  0  0  0  0  0  0  0
  -22.0707   -5.0749   23.6276 F   0  0  0  0  0  0  0  0  0  0  0  0
  1  2  1  0  0  0  0
  1  5  2  0  0  0  0
  2  6  2  0  0  0  0
  3  8  2  0  0  0  0
  3 15  1  0  0  0  0
  4  9  1  0  0  0  0
  4 15  2  0  0  0  0
  5 18  1  0  0  0  0
  6 20  1  0  0  0  0
  7 10  2  0  0  0  0
  7 19  1  0  0  0  0
  8 27  1  0  0  0  0
  9 27  2  0  0  0  0
 10 28  1  0  0  0  0
 11 12  2  0  0  0  0
 11 29  1  0  0  0  0
 12 30  1  0  0  0  0
 13 21  1  0  0  0  0
 13 28  2  0  0  0  0
 14 30  2  0  0  0  0
 14 31  1  0  0  0  0
 15 32  1  0  0  0  0
 16 22  2  0  0  0  0
 16 23  1  0  0  0  0
 16 34  1  0  0  0  0
 17 32  1  0  0  0  0
 17 33  2  0  0  0  0
 17 35  1  0  0  0  0
 18 20  2  0  0  0  0
 18 40  1  0  0  0  0
 19 21  2  0  0  0  0
 19 41  1  0  0  0  0
 20 51  1  0  0  0  0
 21 42  1  0  0  0  0
 22 24  1  0  0  0  0
 22 57  1  0  0  0  0
 23 26  2  0  0  0  0
 23 58  1  0  0  0  0
 24 25  2  0  0  0  0
 24 59  1  0  0  0  0
 25 26  1  0  0  0  0
 25 60  1  0  0  0  0
 26 68  1  0  0  0  0
 27 88  1  0  0  0  0
 28 89  1  0  0  0  0
 29 31  2  0  0  0  0
 29 88  1  0  0  0  0
 30 90  1  0  0  0  0
 31 91  1  0  0  0  0
 32 72  2  0  0  0  0
 33 73  1  0  0  0  0
 33 76  1  0  0  0  0
 34 52  1  0  0  0  0
 34 82  2  0  0  0  0
 35 77  1  0  0  0  0
 35 83  2  0  0  0  0
 36 53  1  0  0  0  0
 36 78  1  0  0  0  0
 36 84  2  0  0  0  0
 37 69  1  0  0  0  0
 37 74  1  0  0  0  0
 37 85  2  0  0  0  0
 38 70  1  0  0  0  0
 38 79  1  0  0  0  0
 38 86  2  0  0  0  0
 39 75  1  0  0  0  0
 39 80  1  0  0  0  0
 39 87  2  0  0  0  0
 40 43  1  0  0  0  0
 41 53  1  0  0  0  0
 42 74  1  0  0  0  0
 43 45  1  0  0  0  0
 44 46  1  0  0  0  0
 44 49  1  0  0  0  0
 45 51  1  0  0  0  0
 46 55  1  0  0  0  0
 47 48  1  0  0  0  0
 47 56  1  0  0  0  0
 48 57  1  0  0  0  0
 49 75  1  0  0  0  0
 50 55  1  0  0  0  0
 50 75  1  0  0  0  0
 51 78  1  0  0  0  0
 52 54  1  0  0  0  0
 52 57  1  0  0  0  0
 53 74  1  0  0  0  0
 54 56  1  0  0  0  0
 54 61  1  0  0  0  0
 55 73  1  0  0  0  0
 56 89  1  0  0  0  0
 57 62  1  0  0  0  0
 63 70  1  0  0  0  0
 64 71  1  0  0  0  0
 65 71  1  0  0  0  0
 66 71  1  0  0  0  0
 67 81  1  0  0  0  0
 68 80  1  0  0  0  0
 69 71  1  0  0  0  0
 69 79  1  0  0  0  0
 70 81  1  0  0  0  0
 72 73  1  0  0  0  0
M  CHG  1  81   1
M  ISO  4  39 100  56 101  80 100  89 101
M  END
> <Batch ID>
0165

> <Smiles>
CNC(C)C(=O)NC(C(=O)N1Cc2cc([101O:1][101CH:1]3CCC4(C)c5c(C)c(C)c(C[100NH:0][100C:0](=O)N6CCCC(n7nc(-c8ccc(Oc9ccc(F)cc9F)cc8)c(C(N)=O)c7N)C6)c(C)c5C(=O)C4C3C)ccc2CC1C(=O)NC1CCCc2ccccc21)C(C)(C)C

> <Shape>
0.174

> <Color>
0.187

> <Negative vol penalty>
0.000

$$$$

  -OEChem-04052322223D

 87 97  0     1  0  0  0  0  0999 V2000
  -29.4779  -31.7898   26.3131 C   0  0  0  0  0  0  0  0  0  0  0  0
  -29.1757  -30.6954   25.5091 C   0  0  0  0  0  0  0  0  0  0  0  0
  -23.1508  -10.3951   21.6594 C   0  0  0  0  0  0  0  0  0  0  0  0
  -24.7971   -8.6280   21.7254 C   0  0  0  0  0  0  0  0  0  0  0  0
  -28.4525  -32.5972   26.8036 C   0  0  0  0  0  0  0  0  0  0  0  0
  -27.8478  -30.4072   25.1959 C   0  0  0  0  0  0  0  0  0  0  0  0
  -27.2054  -29.2887   20.2988 C   0  0  0  0  0  0  0  0  0  0  0  0
  -22.1344   -9.4446   21.5647 C   0  0  0  0  0  0  0  0  0  0  0  0
  -23.7806   -7.6775   21.6308 C   0  0  0  0  0  0  0  0  0  0  0  0
  -27.5733  -28.0094   19.8843 C   0  0  0  0  0  0  0  0  0  0  0  0
  -21.5944   -4.7758   21.7698 C   0  0  0  0  0  0  0  0  0  0  0  0
  -21.6572   -3.6713   22.6194 C   0  0  0  0  0  0  0  0  0  0  0  0
  -25.2612  -27.3257   19.9628 C   0  0  0  0  0  0  0  0  0  0  0  0
  -21.5719   -5.1404   24.5356 C   0  0  0  0  0  0  0  0  0  0  0  0
  -24.4822   -9.9868   21.7397 C   0  0  0  0  0  0  0  0  0  0  0  0
  -26.0761  -11.5180   23.0134 C   0  0  0  0  0  0  0  0  0  0  0  0
  -27.1120  -32.3244   26.4883 C   0  0  0  0  0  0  0  0  0  0  0  0
  -25.8617  -29.5936   20.5594 C   0  0  0  0  0  0  0  0  0  0  0  0
  -26.8035  -31.2110   25.6837 C   0  0  0  0  0  0  0  0  0  0  0  0
  -24.8786  -28.6104   20.3780 C   0  0  0  0  0  0  0  0  0  0  0  0
  -27.3648  -21.7278   17.7365 C   0  0  0  0  0  0  0  0  0  0  0  0
  -26.9555  -23.0739   17.5700 C   0  0  0  0  0  0  0  0  0  0  0  0
  -22.4492   -8.0858   21.5504 C   0  0  0  0  0  0  0  0  0  0  0  0
  -26.6015  -27.0269   19.7190 C   0  0  0  0  0  0  0  0  0  0  0  0
  -21.5205   -6.0626   22.3031 C   0  0  0  0  0  0  0  0  0  0  0  0
  -21.6459   -3.8536   24.0022 C   0  0  0  0  0  0  0  0  0  0  0  0
  -21.5092   -6.2449   23.6860 C   0  0  0  0  0  0  0  0  0  0  0  0
  -25.5327  -10.9681   21.8369 C   0  0  0  0  0  0  0  0  0  0  0  0
  -27.1087  -21.3789   19.0442 C   0  0  0  0  0  0  0  0  0  0  0  0
  -26.4620  -23.5066   18.7810 C   0  0  0  0  0  0  0  0  0  0  0  0
  -27.0363  -12.3948   22.5709 C   0  0  0  0  0  0  0  0  0  0  0  0
  -25.7428  -11.2593   24.3837 C   0  0  0  0  0  0  0  0  0  0  0  0
  -24.2297  -30.5281   23.1220 C   0  0  0  0  0  0  0  0  0  0  0  0
  -21.7939  -30.7857   20.9953 C   0  0  0  0  0  0  0  0  0  0  0  0
  -20.4330  -29.8208   18.0181 C   0  0  0  0  0  0  0  0  0  0  0  0
  -28.8674  -16.3018   19.1943 C   0  0  0  0  0  0  0  0  0  0  0  0
  -26.0347  -33.1980   27.0807 C   0  0  0  0  0  0  0  0  0  0  0  0
  -25.4781  -30.9858   20.9801 C   0  0  0  0  0  0  0  0  0  0  0  0
  -23.4199  -28.8924   20.6250 C   0  0  0  0  0  0  0  0  0  0  0  0
  -24.6797  -33.0436   26.3948 C   0  0  0  0  0  0  0  0  0  0  0  0
  -29.0265  -13.0701   17.9780 C   0  0  0  0  0  0  0  0  0  0  0  0
  -24.3439  -31.5682   26.2022 C   0  0  0  0  0  0  0  0  0  0  0  0
  -28.1789  -12.2682   18.9653 C   0  0  0  0  0  0  0  0  0  0  0  0
  -26.6718  -23.5780   21.9952 C   0  0  0  0  0  0  0  0  0  0  0  0
  -27.1045  -22.1563   22.1728 C   0  0  0  0  0  0  0  0  0  0  0  0
  -26.5255  -18.9156   19.1618 C   0  0  0  0  0  0  0  0  0  0  0  0
  -28.8400  -19.6999   19.8232 C   0  0  0  0  0  0  0  0  0  0  0  0
  -28.3780  -14.4143   17.6683 C   0  0  0  0  0  0  0  0  0  0  0  0
  -26.7945  -17.5889   19.8777 C   0  0  0  0  0  0  0  0  0  0  0  0
  -29.0438  -18.3701   20.5432 C   0  0  0  0  0  0  0  0  0  0  0  0
  -27.2634  -14.4598   19.8759 C   0  0  0  0  0  0  0  0  0  0  0  0
  -25.3770  -30.8803   25.3016 C   0  0  1  0  0  0  0  0  0  0  0  0
  -27.3461  -20.0676   19.7693 C   0  0  0  0  0  0  0  0  0  0  0  0
  -24.1411  -31.0416   21.7127 C   0  0  1  0  0  0  0  0  0  0  0  0
  -26.1469  -22.5135   21.0603 C   0  0  0  0  0  0  0  0  0  0  0  0
  -27.8778  -13.0904   20.2308 C   0  0  1  0  0  0  0  0  0  0  0  0
  -27.9590  -20.8558   16.7021 C   0  0  0  0  0  0  0  0  0  0  0  0
  -27.0428  -23.8690   16.3279 C   0  0  0  0  0  0  0  0  0  0  0  0
  -18.4159  -30.1740   16.5676 C   0  0  0  0  0  0  0  0  0  0  0  0
  -20.1499  -29.0093   22.8531 C   0  0  0  0  0  0  0  0  0  0  0  0
  -18.5562  -28.6246   20.9610 C   0  0  0  0  0  0  0  0  0  0  0  0
  -18.8902  -30.9277   21.8594 C   0  0  0  0  0  0  0  0  0  0  0  0
  -22.0727  -30.8889   15.7979 C   0  0  0  0  0  0  0  0  0  0  0  0
  -25.9051  -24.8208   19.1673 C   0  0  0  0  0  0  0  0  0  1  0  0
  -20.7201  -29.8570   20.4820 C   0  0  1  0  0  0  0  0  0  0  0  0
  -19.8355  -30.6234   16.8764 C   0  0  2  0  0  0  0  0  0  0  0  0
  -19.6067  -29.5985   21.5360 C   0  0  0  0  0  0  0  0  0  0  0  0
  -26.1004  -11.4549   20.7302 N   0  0  0  0  0  0  0  0  0  0  0  0
  -26.5604  -22.4680   19.6697 N   0  0  0  0  0  0  0  0  0  0  0  0
  -27.0104  -12.3200   21.2094 N   0  0  0  0  0  0  0  0  0  0  0  0
  -23.0957  -30.2670   21.0409 N   0  0  0  0  0  0  0  0  0  0  0  0
  -28.1047  -15.1628   18.8950 N   0  0  0  0  0  0  0  0  0  0  0  0
  -28.2367  -17.3128   19.9348 N   0  0  0  0  0  0  0  0  0  0  0  0
  -27.8917  -13.2149   23.2176 N   0  0  0  0  0  0  0  0  0  0  0  0
  -24.7320  -10.3290   24.6612 N   0  0  0  0  0  0  0  0  0  0  0  0
  -25.1355  -31.2089   23.9130 N   0  0  0  0  0  0  0  0  0  0  0  0
  -20.2382  -30.4402   19.2345 N   0  0  0  0  0  0  0  0  0  0  0  0
  -20.6580  -30.4624   15.6441 N   0  3  0  0  0  0  0  0  0  0  0  0
  -26.3129  -11.8481   25.3333 O   0  0  0  0  0  0  0  0  0  0  0  0
  -23.5272  -29.5851   23.4667 O   0  0  0  0  0  0  0  0  0  0  0  0
  -21.4901  -31.9316   21.3363 O   0  0  0  0  0  0  0  0  0  0  0  0
  -21.0111  -28.7496   17.8483 O   0  0  0  0  0  0  0  0  0  0  0  0
  -30.0428  -16.4094   18.8228 O   0  0  0  0  0  0  0  0  0  0  0  0
  -21.4575   -7.1581   21.4583 O   0  0  0  0  0  0  0  0  0  0  0  0
  -26.9598  -25.7703   19.3130 O   0  0  0  0  0  0  0  0  0  1  0  0
  -21.7045   -2.7928   24.8180 F   0  0  0  0  0  0  0  0  0  0  0  0
  -21.4371   -7.4786   24.2041 F   0  0  0  0  0  0  0  0  0  0  0  0
  1  2  1  0  0  0  0
  1  5  2  0  0  0  0
  2  6  2  0  0  0  0
  3  8  2  0  0  0  0
  3 15  1  0  0  0  0
  4  9  1  0  0  0  0
  4 15  2  0  0  0  0
  5 17  1  0  0  0  0
  6 19  1  0  0  0  0
  7 10  2  0  0  0  0
  7 18  1  0  0  0  0
  8 23  1  0  0  0  0
  9 23  2  0  0  0  0
 10 24  1  0  0  0  0
 11 12  2  0  0  0  0
 11 25  1  0  0  0  0
 12 26  1  0  0  0  0
 13 20  1  0  0  0  0
 13 24  2  0  0  0  0
 14 26  2  0  0  0  0
 14 27  1  0  0  0  0
 15 28  1  0  0  0  0
 16 28  1  0  0  0  0
 16 31  2  0  0  0  0
 16 32  1  0  0  0  0
 17 19  2  0  0  0  0
 17 37  1  0  0  0  0
 18 20  2  0  0  0  0
 18 38  1  0  0  0  0
 19 52  1  0  0  0  0
 20 39  1  0  0  0  0
 21 22  1  0  0  0  0
 21 29  2  0  0  0  0
 21 57  1  0  0  0  0
 22 30  2  0  0  0  0
 22 58  1  0  0  0  0
 23 84  1  0  0  0  0
 24 85  1  0  0  0  0
 25 27  2  0  0  0  0
 25 84  1  0  0  0  0
 26 86  1  0  0  0  0
 27 87  1  0  0  0  0
 28 68  2  0  0  0  0
 29 53  1  0  0  0  0
 29 69  1  0  0  0  0
 30 64  1  0  0  0  0
 30 69  1  0  0  0  0
 31 70  1  0  0  0  0
 31 74  1  0  0  0  0
 32 75  1  0  0  0  0
 32 79  2  0  0  0  0
 33 54  1  0  0  0  0
 33 76  1  0  0  0  0
 33 80  2  0  0  0  0
 34 65  1  0  0  0  0
 34 71  1  0  0  0  0
 34 81  2  0  0  0  0
 35 66  1  0  0  0  0
 35 77  1  0  0  0  0
 35 82  2  0  0  0  0
 36 72  1  0  0  0  0
 36 73  1  0  0  0  0
 36 83  2  0  0  0  0
 37 40  1  0  0  0  0
 38 54  1  0  0  0  0
 39 71  1  0  0  0  0
 40 42  1  0  0  0  0
 41 43  1  0  0  0  0
 41 48  1  0  0  0  0
 42 52  1  0  0  0  0
 43 56  1  0  0  0  0
 44 45  1  0  0  0  0
 44 55  1  0  0  0  0
 45 55  1  0  0  0  0
 46 49  1  0  0  0  0
 46 53  1  0  0  0  0
 47 50  1  0  0  0  0
 47 53  1  0  0  0  0
 48 72  1  0  0  0  0
 49 73  1  0  0  0  0
 50 73  1  0  0  0  0
 51 56  1  0  0  0  0
 51 72  1  0  0  0  0
 52 76  1  0  0  0  0
 54 71  1  0  0  0  0
 55 69  1  0  0  0  0
 56 70  1  0  0  0  0
 59 66  1  0  0  0  0
 60 67  1  0  0  0  0
 61 67  1  0  0  0  0
 62 67  1  0  0  0  0
 63 78  1  0  0  0  0
 64 85  1  0  0  0  0
 65 67  1  0  0  0  0
 65 77  1  0  0  0  0
 66 78  1  0  0  0  0
 68 70  1  0  0  0  0
M  CHG  1  78   1
M  ISO  4  36 100  64 101  73 100  85 101
M  END
> <Batch ID>
0165

> <Smiles>
CNC(C)C(=O)NC(C(=O)N1Cc2cc([101O:1][101CH2:1]c3c(C)c(C)c(C4CC[100N:0]([100C:0](=O)N5CCCC(n6nc(-c7ccc(Oc8ccc(F)cc8F)cc7)c(C(N)=O)c6N)C5)CC4)n3C3CC3)ccc2CC1C(=O)NC1CCCc2ccccc21)C(C)(C)C

> <Shape>
0.309

> <Color>
0.122

> <Negative vol penalty>
0.000

$$$$

  -OEChem-04052322223D

 85 94  0     1  0  0  0  0  0999 V2000
  -25.6456  -38.3049   20.0422 C   0  0  0  0  0  0  0  0  0  0  0  0
  -25.9927  -37.2142   19.2514 C   0  0  0  0  0  0  0  0  0  0  0  0
  -24.5828   -9.2675   21.7680 C   0  0  0  0  0  0  0  0  0  0  0  0
  -22.7677  -10.3271   20.5764 C   0  0  0  0  0  0  0  0  0  0  0  0
  -25.6637  -38.1909   21.4316 C   0  0  0  0  0  0  0  0  0  0  0  0
  -26.3592  -36.0092   19.8497 C   0  0  0  0  0  0  0  0  0  0  0  0
  -26.0074  -28.9292   18.8169 C   0  0  0  0  0  0  0  0  0  0  0  0
  -23.6624   -8.5500   22.5320 C   0  0  0  0  0  0  0  0  0  0  0  0
  -21.8473   -9.6096   21.3404 C   0  0  0  0  0  0  0  0  0  0  0  0
  -26.8278  -27.8023   18.7923 C   0  0  0  0  0  0  0  0  0  0  0  0
  -21.7958   -6.1708   24.5496 C   0  0  0  0  0  0  0  0  0  0  0  0
  -22.0365   -4.8111   24.7466 C   0  0  0  0  0  0  0  0  0  0  0  0
  -26.7464  -27.6980   21.2010 C   0  0  0  0  0  0  0  0  0  0  0  0
  -21.9545   -4.4507   22.3590 C   0  0  0  0  0  0  0  0  0  0  0  0
  -30.7970  -22.1624   19.1597 C   0  0  0  0  0  0  0  0  0  0  0  0
  -24.1354  -10.1561   20.7902 C   0  0  0  0  0  0  0  0  0  0  0  0
  -25.6619  -10.5089   18.7770 C   0  0  0  0  0  0  0  0  0  0  0  0
  -26.0213  -36.9810   22.0471 C   0  0  0  0  0  0  0  0  0  0  0  0
  -25.5585  -29.4564   20.0363 C   0  0  0  0  0  0  0  0  0  0  0  0
  -26.3834  -35.8793   21.2487 C   0  0  0  0  0  0  0  0  0  0  0  0
  -25.9183  -28.8302   21.2382 C   0  0  0  0  0  0  0  0  0  0  0  0
  -29.2522  -24.3900   18.8483 C   0  0  0  0  0  0  0  0  0  0  0  0
  -29.4997  -22.0022   18.7002 C   0  0  0  0  0  0  0  0  0  0  0  0
  -22.2947   -8.7210   22.3182 C   0  0  0  0  0  0  0  0  0  0  0  0
  -27.1998  -27.1882   19.9846 C   0  0  0  0  0  0  0  0  0  0  0  0
  -21.6344   -6.6705   23.2573 C   0  0  0  0  0  0  0  0  0  0  0  0
  -22.1159   -3.9511   23.6513 C   0  0  0  0  0  0  0  0  0  0  0  0
  -21.7138   -5.8105   22.1620 C   0  0  0  0  0  0  0  0  0  0  0  0
  -28.7191  -23.1423   18.5443 C   0  0  0  0  0  0  0  0  0  0  0  0
  -25.0857  -10.8980   20.0011 C   0  0  0  0  0  0  0  0  0  0  0  0
  -30.5605  -24.4432   19.3013 C   0  0  0  0  0  0  0  0  0  0  0  0
  -26.4903  -11.5516   18.4407 C   0  0  0  0  0  0  0  0  0  0  0  0
  -25.4658   -9.3121   18.0123 C   0  0  0  0  0  0  0  0  0  0  0  0
  -25.9242  -32.2257   21.5532 C   0  0  0  0  0  0  0  0  0  0  0  0
  -23.7866  -30.9298   23.6206 C   0  0  0  0  0  0  0  0  0  0  0  0
  -22.3641  -28.1195   24.9342 C   0  0  0  0  0  0  0  0  0  0  0  0
  -27.6093  -16.7720   17.8586 C   0  0  0  0  0  0  0  0  0  0  0  0
  -26.0718  -36.9199   23.5532 C   0  0  0  0  0  0  0  0  0  0  0  0
  -24.6522  -30.6568   20.0443 C   0  0  0  0  0  0  0  0  0  0  0  0
  -25.4465  -29.3449   22.5727 C   0  0  0  0  0  0  0  0  0  0  0  0
  -26.1101  -35.4967   24.1041 C   0  0  0  0  0  0  0  0  0  0  0  0
  -28.0295  -15.5451   21.1232 C   0  0  0  0  0  0  0  0  0  0  0  0
  -27.1325  -34.6575   23.3444 C   0  0  0  0  0  0  0  0  0  0  0  0
  -27.3415  -14.1838   21.0270 C   0  0  0  0  0  0  0  0  0  0  0  0
  -27.2628  -16.6296   20.3646 C   0  0  0  0  0  0  0  0  0  0  0  0
  -29.9061  -19.6824   17.9377 C   0  0  0  0  0  0  0  0  0  0  0  0
  -27.7962  -20.2866   19.1333 C   0  0  0  0  0  0  0  0  0  0  0  0
  -29.1504  -18.5812   17.1987 C   0  0  0  0  0  0  0  0  0  0  0  0
  -27.0759  -19.1844   18.3646 C   0  0  0  0  0  0  0  0  0  0  0  0
  -26.2912  -14.9269   18.8563 C   0  0  0  0  0  0  0  0  0  0  0  0
  -26.7627  -34.5480   21.8602 C   0  0  1  0  0  0  0  0  0  0  0  0
  -24.6739  -31.4130   21.3692 C   0  0  1  0  0  0  0  0  0  0  0  0
  -27.0697  -13.8047   19.5604 C   0  0  2  0  0  0  0  0  0  0  0  0
  -31.1856  -25.7561   19.6428 C   0  0  0  0  0  0  0  0  0  0  0  0
  -20.6734  -27.3775   26.6336 C   0  0  0  0  0  0  0  0  0  0  0  0
  -25.7738  -31.5311   25.8566 C   0  0  0  0  0  0  0  0  0  0  0  0
  -24.4945  -29.9555   27.3225 C   0  0  0  0  0  0  0  0  0  0  0  0
  -23.3854  -32.0034   26.4286 C   0  0  0  0  0  0  0  0  0  0  0  0
  -20.6943  -26.8095   22.8716 C   0  0  0  0  0  0  0  0  0  0  0  0
  -28.4239  -25.6173   18.6846 C   0  0  0  0  0  0  0  0  0  1  0  0
  -23.8826  -30.0801   24.8647 C   0  0  1  0  0  0  0  0  0  0  0  0
  -20.9134  -27.7443   25.1774 C   0  0  2  0  0  0  0  0  0  0  0  0
  -24.3947  -30.8837   26.0932 C   0  0  0  0  0  0  0  0  0  0  0  0
  -31.3495  -23.3577   19.4653 N   0  0  0  0  0  0  0  0  0  0  0  0
  -25.5121  -12.0943   20.4146 N   0  0  0  0  0  0  0  0  0  0  0  0
  -26.3650  -12.4660   19.4449 N   0  0  0  0  0  0  0  0  0  0  0  0
  -28.9921  -20.7307   18.4042 N   0  0  0  0  0  0  0  0  0  0  0  0
  -24.5673  -30.5249   22.5286 N   0  0  0  0  0  0  0  0  0  0  0  0
  -26.9916  -16.2066   18.9841 N   0  0  0  0  0  0  0  0  0  0  0  0
  -27.9931  -18.1188   17.9552 N   0  0  0  0  0  0  0  0  0  0  0  0
  -27.3064  -11.7662   17.3870 N   0  0  0  0  0  0  0  0  0  0  0  0
  -24.5794   -8.3435   18.5028 N   0  0  0  0  0  0  0  0  0  0  0  0
  -25.6997  -33.5838   21.6739 N   0  0  0  0  0  0  0  0  0  0  0  0
  -22.5666  -29.4785   25.0506 N   0  0  0  0  0  0  0  0  0  0  0  0
  -20.5306  -26.5796   24.3301 N   0  3  0  0  0  0  0  0  0  0  0  0
  -26.0715   -9.1003   16.9344 O   0  0  0  0  0  0  0  0  0  0  0  0
  -27.0119  -31.6621   21.5849 O   0  0  0  0  0  0  0  0  0  0  0  0
  -23.0409  -31.9124   23.6154 O   0  0  0  0  0  0  0  0  0  0  0  0
  -23.2317  -27.2897   24.6712 O   0  0  0  0  0  0  0  0  0  0  0  0
  -27.8097  -16.1145   16.8298 O   0  0  0  0  0  0  0  0  0  0  0  0
  -21.3963   -8.0208   23.0633 O   0  0  0  0  0  0  0  0  0  0  0  0
  -28.0065  -26.0811   19.9634 O   0  0  0  0  0  0  0  0  0  1  0  0
  -22.3486   -2.6456   23.8405 F   0  0  0  0  0  0  0  0  0  0  0  0
  -21.5607   -6.2849   20.9181 F   0  0  0  0  0  0  0  0  0  0  0  0
  -27.4567  -23.0390   18.1030 F   0  0  0  0  0  0  0  0  0  0  0  0
  1  2  1  0  0  0  0
  1  5  2  0  0  0  0
  2  6  2  0  0  0  0
  3  8  2  0  0  0  0
  3 16  1  0  0  0  0
  4  9  1  0  0  0  0
  4 16  2  0  0  0  0
  5 18  1  0  0  0  0
  6 20  1  0  0  0  0
  7 10  2  0  0  0  0
  7 19  1  0  0  0  0
  8 24  1  0  0  0  0
  9 24  2  0  0  0  0
 10 25  1  0  0  0  0
 11 12  2  0  0  0  0
 11 26  1  0  0  0  0
 12 27  1  0  0  0  0
 13 21  1  0  0  0  0
 13 25  2  0  0  0  0
 14 27  2  0  0  0  0
 14 28  1  0  0  0  0
 15 23  2  0  0  0  0
 15 64  1  0  0  0  0
 16 30  1  0  0  0  0
 17 30  1  0  0  0  0
 17 32  2  0  0  0  0
 17 33  1  0  0  0  0
 18 20  2  0  0  0  0
 18 38  1  0  0  0  0
 19 21  2  0  0  0  0
 19 39  1  0  0  0  0
 20 51  1  0  0  0  0
 21 40  1  0  0  0  0
 22 29  2  0  0  0  0
 22 31  1  0  0  0  0
 22 60  1  0  0  0  0
 23 29  1  0  0  0  0
 23 67  1  0  0  0  0
 24 81  1  0  0  0  0
 25 82  1  0  0  0  0
 26 28  2  0  0  0  0
 26 81  1  0  0  0  0
 27 83  1  0  0  0  0
 28 84  1  0  0  0  0
 29 85  1  0  0  0  0
 30 65  2  0  0  0  0
 31 54  1  0  0  0  0
 31 64  2  0  0  0  0
 32 66  1  0  0  0  0
 32 71  1  0  0  0  0
 33 72  1  0  0  0  0
 33 76  2  0  0  0  0
 34 52  1  0  0  0  0
 34 73  1  0  0  0  0
 34 77  2  0  0  0  0
 35 61  1  0  0  0  0
 35 68  1  0  0  0  0
 35 78  2  0  0  0  0
 36 62  1  0  0  0  0
 36 74  1  0  0  0  0
 36 79  2  0  0  0  0
 37 69  1  0  0  0  0
 37 70  1  0  0  0  0
 37 80  2  0  0  0  0
 38 41  1  0  0  0  0
 39 52  1  0  0  0  0
 40 68  1  0  0  0  0
 41 43  1  0  0  0  0
 42 44  1  0  0  0  0
 42 45  1  0  0  0  0
 43 51  1  0  0  0  0
 44 53  1  0  0  0  0
 45 69  1  0  0  0  0
 46 48  1  0  0  0  0
 46 67  1  0  0  0  0
 47 49  1  0  0  0  0
 47 67  1  0  0  0  0
 48 70  1  0  0  0  0
 49 70  1  0  0  0  0
 50 53  1  0  0  0  0
 50 69  1  0  0  0  0
 51 73  1  0  0  0  0
 52 68  1  0  0  0  0
 53 66  1  0  0  0  0
 55 62  1  0  0  0  0
 56 63  1  0  0  0  0
 57 63  1  0  0  0  0
 58 63  1  0  0  0  0
 59 75  1  0  0  0  0
 60 82  1  0  0  0  0
 61 63  1  0  0  0  0
 61 74  1  0  0  0  0
 62 75  1  0  0  0  0
 65 66  1  0  0  0  0
M  CHG  1  75   1
M  ISO  4  37 100  60 101  70 100  82 101
M  END
> <Batch ID>
0165

> <Smiles>
CNC(C)C(=O)NC(C(=O)N1Cc2cc([101O:1][101CH2:1]c3c(C)ncc(N4CC[100N:0]([100C:0](=O)N5CCCC(n6nc(-c7ccc(Oc8ccc(F)cc8F)cc7)c(C(N)=O)c6N)C5)CC4)c3F)ccc2CC1C(=O)NC1CCCc2ccccc21)C(C)(C)C

> <Shape>
0.304

> <Color>
0.110

> <Negative vol penalty>
0.000

$$$$

  -OEChem-04052322223D

 87 96  0     1  0  0  0  0  0999 V2000
  -29.2684  -29.9205   27.1621 C   0  0  0  0  0  0  0  0  0  0  0  0
  -28.7442  -29.0871   26.1792 C   0  0  0  0  0  0  0  0  0  0  0  0
  -24.2430   -9.2805   21.8758 C   0  0  0  0  0  0  0  0  0  0  0  0
  -22.7038   -9.7751   20.0804 C   0  0  0  0  0  0  0  0  0  0  0  0
  -28.5105  -30.9846   27.6491 C   0  0  0  0  0  0  0  0  0  0  0  0
  -27.4613  -29.3168   25.6834 C   0  0  0  0  0  0  0  0  0  0  0  0
  -27.2409  -28.9834   20.6351 C   0  0  0  0  0  0  0  0  0  0  0  0
  -23.6842   -8.0090   22.0046 C   0  0  0  0  0  0  0  0  0  0  0  0
  -22.1449   -8.5036   20.2092 C   0  0  0  0  0  0  0  0  0  0  0  0
  -27.2178  -27.7038   20.0820 C   0  0  0  0  0  0  0  0  0  0  0  0
  -22.4225   -4.7615   23.0463 C   0  0  0  0  0  0  0  0  0  0  0  0
  -22.1444   -4.3010   24.3332 C   0  0  0  0  0  0  0  0  0  0  0  0
  -24.8273  -27.8731   19.8055 C   0  0  0  0  0  0  0  0  0  0  0  0
  -20.6478   -6.1662   24.6772 C   0  0  0  0  0  0  0  0  0  0  0  0
  -25.2069  -21.4089   17.2111 C   0  0  0  0  0  0  0  0  0  0  0  0
  -23.7528  -10.1636   20.9137 C   0  0  0  0  0  0  0  0  0  0  0  0
  -25.4085  -11.8528   19.9583 C   0  0  0  0  0  0  0  0  0  0  0  0
  -27.2214  -31.2333   27.1522 C   0  0  0  0  0  0  0  0  0  0  0  0
  -26.0540  -29.7143   20.7880 C   0  0  0  0  0  0  0  0  0  0  0  0
  -26.6849  -30.3845   26.1652 C   0  0  0  0  0  0  0  0  0  0  0  0
  -24.8384  -29.1627   20.3586 C   0  0  0  0  0  0  0  0  0  0  0  0
  -25.5964  -22.5157   16.4378 C   0  0  0  0  0  0  0  0  0  0  0  0
  -25.3559  -20.0967   16.7420 C   0  0  0  0  0  0  0  0  0  0  0  0
  -25.4372  -23.8085   16.9283 C   0  0  0  0  0  0  0  0  0  0  0  0
  -24.8894  -24.0006   18.1905 C   0  0  0  0  0  0  0  0  0  0  0  0
  -24.5023  -22.9000   18.9591 C   0  0  0  0  0  0  0  0  0  0  0  0
  -24.9615  -19.0249   17.5297 C   0  0  0  0  0  0  0  0  0  0  0  0
  -24.6499  -21.5963   18.4935 C   0  0  0  0  0  0  0  0  0  0  0  0
  -22.6352   -7.6206   21.1714 C   0  0  0  0  0  0  0  0  0  0  0  0
  -26.0105  -27.1473   19.6697 C   0  0  0  0  0  0  0  0  0  0  0  0
  -21.8133   -5.9244   22.5748 C   0  0  0  0  0  0  0  0  0  0  0  0
  -21.2570   -5.0033   25.1487 C   0  0  0  0  0  0  0  0  0  0  0  0
  -20.9259   -6.6267   23.3903 C   0  0  0  0  0  0  0  0  0  0  0  0
  -24.3292  -11.4774   20.7805 C   0  0  0  0  0  0  0  0  0  0  0  0
  -24.4270  -19.3075   18.7704 C   0  0  0  0  0  0  0  0  0  0  0  0
  -25.5668  -13.1970   20.1918 C   0  0  0  0  0  0  0  0  0  0  0  0
  -26.1975  -11.0575   19.0634 C   0  0  0  0  0  0  0  0  0  0  0  0
  -24.4567  -30.9063   23.2642 C   0  0  0  0  0  0  0  0  0  0  0  0
  -22.6052  -32.2123   20.9428 C   0  0  0  0  0  0  0  0  0  0  0  0
  -21.4737  -32.0857   17.7256 C   0  0  0  0  0  0  0  0  0  0  0  0
  -23.4562  -18.3050   20.8677 C   0  0  0  0  0  0  0  0  0  0  0  0
  -26.4218  -32.3673   27.7432 C   0  0  0  0  0  0  0  0  0  0  0  0
  -26.0994  -31.1039   21.3619 C   0  0  0  0  0  0  0  0  0  0  0  0
  -23.5390  -29.9142   20.4821 C   0  0  0  0  0  0  0  0  0  0  0  0
  -25.2157  -32.7677   26.8975 C   0  0  0  0  0  0  0  0  0  0  0  0
  -23.5275  -16.1881   23.7297 C   0  0  0  0  0  0  0  0  0  0  0  0
  -24.4387  -31.5314   26.4565 C   0  0  0  0  0  0  0  0  0  0  0  0
  -23.8312  -14.8047   23.1499 C   0  0  0  0  0  0  0  0  0  0  0  0
  -22.6182  -17.0012   22.8101 C   0  0  0  0  0  0  0  0  0  0  0  0
  -23.3865  -15.7340   20.8422 C   0  0  0  0  0  0  0  0  0  0  0  0
  -25.3068  -30.6162   25.5845 C   0  0  1  0  0  0  0  0  0  0  0  0
  -24.7628  -31.5541   21.9434 C   0  0  1  0  0  0  0  0  0  0  0  0
  -24.3517  -14.9022   21.7024 C   0  0  2  0  0  0  0  0  0  0  0  0
  -26.1954  -22.3983   15.0676 C   0  0  0  0  0  0  0  0  0  0  0  0
  -25.9325  -19.7558   15.4005 C   0  0  0  0  0  0  0  0  0  0  0  0
  -25.8499  -24.9921   16.1101 C   0  0  0  0  0  0  0  0  0  0  0  0
  -23.9120  -23.1309   20.3187 C   0  0  0  0  0  0  0  0  0  0  0  0
  -25.1094  -17.6166   17.0532 C   0  0  0  0  0  0  0  0  0  0  0  0
  -19.9396  -33.2668   16.1291 C   0  0  0  0  0  0  0  0  0  0  0  0
  -20.1965  -30.9543   22.3304 C   0  0  0  0  0  0  0  0  0  0  0  0
  -18.8765  -31.3431   20.2389 C   0  0  0  0  0  0  0  0  0  0  0  0
  -19.8209  -33.2810   21.4939 C   0  0  0  0  0  0  0  0  0  0  0  0
  -23.6967  -32.7215   15.8782 C   0  0  0  0  0  0  0  0  0  0  0  0
  -24.7133  -25.3899   18.7292 C   0  0  0  0  0  0  0  0  0  1  0  0
  -21.3746  -31.7761   20.1850 C   0  0  1  0  0  0  0  0  0  0  0  0
  -21.3625  -33.1553   16.6541 C   0  0  2  0  0  0  0  0  0  0  0  0
  -20.0912  -31.8234   21.0614 C   0  0  0  0  0  0  0  0  0  0  0  0
  -24.2662  -20.5581   19.2602 N   0  0  0  0  0  0  0  0  0  0  0  0
  -23.8367  -12.5005   21.4839 N   0  0  0  0  0  0  0  0  0  0  0  0
  -24.6101  -13.5319   21.1044 N   0  0  0  0  0  0  0  0  0  0  0  0
  -23.6345  -31.2669   21.0553 N   0  0  0  0  0  0  0  0  0  0  0  0
  -23.1769  -17.0540   21.4574 N   0  0  0  0  0  0  0  0  0  0  0  0
  -26.4296  -14.1133   19.7036 N   0  0  0  0  0  0  0  0  0  0  0  0
  -25.9002   -9.6931   18.9434 N   0  0  0  0  0  0  0  0  0  0  0  0
  -24.0153  -18.2293   19.5925 N   0  0  0  0  0  0  0  0  0  0  0  0
  -25.4054  -31.1435   24.2404 N   0  0  0  0  0  0  0  0  0  0  0  0
  -21.3135  -32.6111   18.9903 N   0  0  0  0  0  0  0  0  0  0  0  0
  -22.2623  -32.8373   15.5095 N   0  3  0  0  0  0  0  0  0  0  0  0
  -27.1487  -11.5391   18.4025 O   0  0  0  0  0  0  0  0  0  0  0  0
  -23.4347  -30.2417   23.3887 O   0  0  0  0  0  0  0  0  0  0  0  0
  -22.6544  -33.3523   21.4113 O   0  0  0  0  0  0  0  0  0  0  0  0
  -21.6782  -30.9019   17.4664 O   0  0  0  0  0  0  0  0  0  0  0  0
  -23.2422  -19.3648   21.4619 O   0  0  0  0  0  0  0  0  0  0  0  0
  -22.0898   -6.3798   21.2966 O   0  0  0  0  0  0  0  0  0  0  0  0
  -25.9850  -25.8984   19.1301 O   0  0  0  0  0  0  0  0  0  1  0  0
  -20.9889   -4.5602   26.3840 F   0  0  0  0  0  0  0  0  0  0  0  0
  -20.3367   -7.7439   22.9424 F   0  0  0  0  0  0  0  0  0  0  0  0
  1  2  1  0  0  0  0
  1  5  2  0  0  0  0
  2  6  2  0  0  0  0
  3  8  2  0  0  0  0
  3 16  1  0  0  0  0
  4  9  1  0  0  0  0
  4 16  2  0  0  0  0
  5 18  1  0  0  0  0
  6 20  1  0  0  0  0
  7 10  2  0  0  0  0
  7 19  1  0  0  0  0
  8 29  1  0  0  0  0
  9 29  2  0  0  0  0
 10 30  1  0  0  0  0
 11 12  2  0  0  0  0
 11 31  1  0  0  0  0
 12 32  1  0  0  0  0
 13 21  1  0  0  0  0
 13 30  2  0  0  0  0
 14 32  2  0  0  0  0
 14 33  1  0  0  0  0
 15 22  1  0  0  0  0
 15 23  1  0  0  0  0
 15 28  2  0  0  0  0
 16 34  1  0  0  0  0
 17 34  1  0  0  0  0
 17 36  2  0  0  0  0
 17 37  1  0  0  0  0
 18 20  2  0  0  0  0
 18 42  1  0  0  0  0
 19 21  2  0  0  0  0
 19 43  1  0  0  0  0
 20 51  1  0  0  0  0
 21 44  1  0  0  0  0
 22 24  2  0  0  0  0
 22 54  1  0  0  0  0
 23 27  2  0  0  0  0
 23 55  1  0  0  0  0
 24 25  1  0  0  0  0
 24 56  1  0  0  0  0
 25 26  2  0  0  0  0
 25 64  1  0  0  0  0
 26 28  1  0  0  0  0
 26 57  1  0  0  0  0
 27 35  1  0  0  0  0
 27 58  1  0  0  0  0
 28 68  1  0  0  0  0
 29 84  1  0  0  0  0
 30 85  1  0  0  0  0
 31 33  2  0  0  0  0
 31 84  1  0  0  0  0
 32 86  1  0  0  0  0
 33 87  1  0  0  0  0
 34 69  2  0  0  0  0
 35 68  2  0  0  0  0
 35 75  1  0  0  0  0
 36 70  1  0  0  0  0
 36 73  1  0  0  0  0
 37 74  1  0  0  0  0
 37 79  2  0  0  0  0
 38 52  1  0  0  0  0
 38 76  1  0  0  0  0
 38 80  2  0  0  0  0
 39 65  1  0  0  0  0
 39 71  1  0  0  0  0
 39 81  2  0  0  0  0
 40 66  1  0  0  0  0
 40 77  1  0  0  0  0
 40 82  2  0  0  0  0
 41 72  1  0  0  0  0
 41 75  1  0  0  0  0
 41 83  2  0  0  0  0
 42 45  1  0  0  0  0
 43 52  1  0  0  0  0
 44 71  1  0  0  0  0
 45 47  1  0  0  0  0
 46 48  1  0  0  0  0
 46 49  1  0  0  0  0
 47 51  1  0  0  0  0
 48 53  1  0  0  0  0
 49 72  1  0  0  0  0
 50 53  1  0  0  0  0
 50 72  1  0  0  0  0
 51 76  1  0  0  0  0
 52 71  1  0  0  0  0
 53 70  1  0  0  0  0
 59 66  1  0  0  0  0
 60 67  1  0  0  0  0
 61 67  1  0  0  0  0
 62 67  1  0  0  0  0
 63 78  1  0  0  0  0
 64 85  1  0  0  0  0
 65 67  1  0  0  0  0
 65 77  1  0  0  0  0
 66 78  1  0  0  0  0
 69 70  1  0  0  0  0
M  CHG  1  78   1
M  ISO  4  41 100  64 101  75 100  85 101
M  END
> <Batch ID>
0165

> <Smiles>
CNC(C)C(=O)NC(C(=O)N1Cc2cc([101O:1][101CH2:1]c3c(C)c(C)c4c(C)c(C)c([100NH:0][100C:0](=O)N5CCCC(n6nc(-c7ccc(Oc8ccc(F)cc8F)cc7)c(C(N)=O)c6N)C5)nc4c3C)ccc2CC1C(=O)NC1CCCc2ccccc21)C(C)(C)C

> <Shape>
0.231

> <Color>
0.104

> <Negative vol penalty>
0.000

$$$$

  -OEChem-04052322223D

 87 96  0     1  0  0  0  0  0999 V2000
  -31.7881  -35.2419   16.5141 C   0  0  0  0  0  0  0  0  0  0  0  0
  -31.4078  -33.9168   16.3276 C   0  0  0  0  0  0  0  0  0  0  0  0
  -22.7176  -10.2936   20.4920 C   0  0  0  0  0  0  0  0  0  0  0  0
  -24.4561   -9.1859   21.7520 C   0  0  0  0  0  0  0  0  0  0  0  0
  -31.7562  -35.8021   17.7904 C   0  0  0  0  0  0  0  0  0  0  0  0
  -30.9965  -33.1506   17.4176 C   0  0  0  0  0  0  0  0  0  0  0  0
  -26.7056  -28.7810   17.4367 C   0  0  0  0  0  0  0  0  0  0  0  0
  -21.9714   -9.1152   20.4855 C   0  0  0  0  0  0  0  0  0  0  0  0
  -23.7099   -8.0074   21.7455 C   0  0  0  0  0  0  0  0  0  0  0  0
  -26.7825  -27.3906   17.3673 C   0  0  0  0  0  0  0  0  0  0  0  0
  -21.0650   -6.7268   23.4144 C   0  0  0  0  0  0  0  0  0  0  0  0
  -20.9603   -6.0212   24.6130 C   0  0  0  0  0  0  0  0  0  0  0  0
  -26.6578  -27.2696   19.7733 C   0  0  0  0  0  0  0  0  0  0  0  0
  -28.1738  -21.1805   17.8564 C   0  0  0  0  0  0  0  0  0  0  0  0
  -21.9969   -4.1021   23.5740 C   0  0  0  0  0  0  0  0  0  0  0  0
  -23.9600  -10.3290   21.1252 C   0  0  0  0  0  0  0  0  0  0  0  0
  -24.3531  -12.7895   21.6720 C   0  0  0  0  0  0  0  0  0  0  0  0
  -31.3351  -35.0453   18.8952 C   0  0  0  0  0  0  0  0  0  0  0  0
  -26.6152  -29.4277   18.6777 C   0  0  0  0  0  0  0  0  0  0  0  0
  -30.9603  -33.7008   18.7102 C   0  0  0  0  0  0  0  0  0  0  0  0
  -26.5774  -28.6682   19.8557 C   0  0  0  0  0  0  0  0  0  0  0  0
  -28.1362  -22.5700   17.7401 C   0  0  0  0  0  0  0  0  0  0  0  0
  -25.8474  -22.4441   16.9768 C   0  0  0  0  0  0  0  0  0  0  0  0
  -26.9730  -23.2018   17.3004 C   0  0  0  0  0  0  0  0  0  0  0  0
  -25.8851  -21.0546   17.0930 C   0  0  0  0  0  0  0  0  0  0  0  0
  -27.0483  -20.4228   17.5328 C   0  0  0  0  0  0  0  0  0  0  0  0
  -22.4675   -7.9721   21.1123 C   0  0  0  0  0  0  0  0  0  0  0  0
  -26.7615  -26.6349   18.5358 C   0  0  0  0  0  0  0  0  0  0  0  0
  -21.6356   -6.1200   22.2954 C   0  0  0  0  0  0  0  0  0  0  0  0
  -21.4262   -4.7089   24.6929 C   0  0  0  0  0  0  0  0  0  0  0  0
  -22.1016   -4.8077   22.3753 C   0  0  0  0  0  0  0  0  0  0  0  0
  -24.7316  -11.5458   21.1317 C   0  0  0  0  0  0  0  0  0  0  0  0
  -25.4251  -13.6118   21.4248 C   0  0  0  0  0  0  0  0  0  0  0  0
  -23.1408  -13.1676   22.3377 C   0  0  0  0  0  0  0  0  0  0  0  0
  -28.4265  -31.5043   20.2621 C   0  0  0  0  0  0  0  0  0  0  0  0
  -25.9282  -31.5105   22.3311 C   0  0  0  0  0  0  0  0  0  0  0  0
  -23.2076  -29.8818   23.5932 C   0  0  0  0  0  0  0  0  0  0  0  0
  -29.1758  -15.3764   17.5588 C   0  0  0  0  0  0  0  0  0  0  0  0
  -31.3625  -35.6801   20.2630 C   0  0  0  0  0  0  0  0  0  0  0  0
  -26.5062  -30.9269   18.7341 C   0  0  0  0  0  0  0  0  0  0  0  0
  -26.4610  -29.3131   21.2117 C   0  0  0  0  0  0  0  0  0  0  0  0
  -30.5569  -34.9117   21.3074 C   0  0  0  0  0  0  0  0  0  0  0  0
  -30.0951  -12.5787   19.7977 C   0  0  0  0  0  0  0  0  0  0  0  0
  -30.8697  -33.4207   21.2319 C   0  0  0  0  0  0  0  0  0  0  0  0
  -28.7376  -12.1214   20.3309 C   0  0  0  0  0  0  0  0  0  0  0  0
  -29.9794  -13.2054   18.4110 C   0  0  0  0  0  0  0  0  0  0  0  0
  -26.8841  -18.1975   16.4755 C   0  0  0  0  0  0  0  0  0  0  0  0
  -28.0093  -17.1749   16.3618 C   0  0  0  0  0  0  0  0  0  0  0  0
  -27.6387  -13.8532   18.8598 C   0  0  0  0  0  0  0  0  0  0  0  0
  -27.4806  -16.8407   18.7673 C   0  0  0  0  0  0  0  0  0  0  0  0
  -30.4845  -32.8448   19.8639 C   0  0  1  0  0  0  0  0  0  0  0  0
  -26.9352  -31.5069   20.0783 C   0  0  1  0  0  0  0  0  0  0  0  0
  -27.7121  -13.2678   20.2774 C   0  0  1  0  0  0  0  0  0  0  0  0
  -27.4937  -18.3754   18.9163 C   0  0  2  0  0  0  0  0  0  0  0  0
  -29.3547  -23.3582   18.0940 C   0  0  0  0  0  0  0  0  0  0  0  0
  -24.6000  -23.1224   16.5046 C   0  0  0  0  0  0  0  0  0  0  0  0
  -24.6757  -20.2428   16.7486 C   0  0  0  0  0  0  0  0  0  0  0  0
  -26.5355  -18.7507   20.0533 C   0  0  0  0  0  0  0  0  0  0  0  0
  -21.1284  -29.5300   24.9535 C   0  0  0  0  0  0  0  0  0  0  0  0
  -27.9236  -30.8643   24.5471 C   0  0  0  0  0  0  0  0  0  0  0  0
  -25.9939  -30.1892   25.9924 C   0  0  0  0  0  0  0  0  0  0  0  0
  -26.1748  -32.5386   25.1737 C   0  0  0  0  0  0  0  0  0  0  0  0
  -21.4832  -30.9857   21.4562 C   0  0  0  0  0  0  0  0  0  0  0  0
  -26.9359  -24.6922   17.1752 C   0  0  0  0  0  0  0  0  0  1  0  0
  -25.5474  -30.7051   23.5499 C   0  0  1  0  0  0  0  0  0  0  0  0
  -21.7858  -30.3465   23.8518 C   0  0  2  0  0  0  0  0  0  0  0  0
  -26.4141  -31.0620   24.7905 C   0  0  0  0  0  0  0  0  0  0  0  0
  -25.9489  -11.5711   20.5827 N   0  0  0  0  0  0  0  0  0  0  0  0
  -26.3446  -12.8408   20.7765 N   0  0  0  0  0  0  0  0  0  0  0  0
  -27.1056  -19.0356   17.6554 N   0  0  3  0  0  0  0  0  0  0  0  0
  -26.3636  -30.7821   21.2150 N   0  0  0  0  0  0  0  0  0  0  0  0
  -28.9679  -14.2621   18.3850 N   0  0  0  0  0  0  0  0  0  0  0  0
  -28.1958  -16.3823   17.5725 N   0  0  0  0  0  0  0  0  0  0  0  0
  -25.6614  -14.9119   21.7009 N   0  0  0  0  0  0  0  0  0  0  0  0
  -23.0706  -13.0243   23.7302 N   0  0  0  0  0  0  0  0  0  0  0  0
  -29.0540  -32.6399   19.7864 N   0  0  0  0  0  0  0  0  0  0  0  0
  -24.1157  -30.9086   23.7427 N   0  0  0  0  0  0  0  0  0  0  0  0
  -20.9647  -30.2143   22.6151 N   0  3  0  0  0  0  0  0  0  0  0  0
  -22.1435  -13.6038   21.7144 O   0  0  0  0  0  0  0  0  0  0  0  0
  -28.9676  -30.5439   20.7974 O   0  0  0  0  0  0  0  0  0  0  0  0
  -25.8356  -32.7401   22.3657 O   0  0  0  0  0  0  0  0  0  0  0  0
  -23.4854  -28.7229   23.2926 O   0  0  0  0  0  0  0  0  0  0  0  0
  -30.1918  -15.4779   16.8587 O   0  0  0  0  0  0  0  0  0  0  0  0
  -21.7396   -6.8220   21.1063 O   0  0  0  0  0  0  0  0  0  0  0  0
  -26.8375  -25.2677   18.4705 O   0  0  0  0  0  0  0  0  0  1  0  0
  -21.3270   -4.0320   25.8444 F   0  0  0  0  0  0  0  0  0  0  0  0
  -22.6518   -4.2198   21.3040 F   0  0  0  0  0  0  0  0  0  0  0  0
  1  2  1  0  0  0  0
  1  5  2  0  0  0  0
  2  6  2  0  0  0  0
  3  8  2  0  0  0  0
  3 16  1  0  0  0  0
  4  9  1  0  0  0  0
  4 16  2  0  0  0  0
  5 18  1  0  0  0  0
  6 20  1  0  0  0  0
  7 10  2  0  0  0  0
  7 19  1  0  0  0  0
  8 27  1  0  0  0  0
  9 27  2  0  0  0  0
 10 28  1  0  0  0  0
 11 12  2  0  0  0  0
 11 29  1  0  0  0  0
 12 30  1  0  0  0  0
 13 21  1  0  0  0  0
 13 28  2  0  0  0  0
 14 22  2  0  0  0  0
 14 26  1  0  0  0  0
 15 30  2  0  0  0  0
 15 31  1  0  0  0  0
 16 32  1  0  0  0  0
 17 32  1  0  0  0  0
 17 33  2  0  0  0  0
 17 34  1  0  0  0  0
 18 20  2  0  0  0  0
 18 39  1  0  0  0  0
 19 21  2  0  0  0  0
 19 40  1  0  0  0  0
 20 51  1  0  0  0  0
 21 41  1  0  0  0  0
 22 24  1  0  0  0  0
 22 55  1  0  0  0  0
 23 24  2  0  0  0  0
 23 25  1  0  0  0  0
 23 56  1  0  0  0  0
 24 64  1  0  0  0  0
 25 26  2  0  0  0  0
 25 57  1  0  0  0  0
 26 70  1  0  0  0  0
 27 84  1  0  0  0  0
 28 85  1  0  0  0  0
 29 31  2  0  0  0  0
 29 84  1  0  0  0  0
 30 86  1  0  0  0  0
 31 87  1  0  0  0  0
 32 68  2  0  0  0  0
 33 69  1  0  0  0  0
 33 74  1  0  0  0  0
 34 75  1  0  0  0  0
 34 79  2  0  0  0  0
 35 52  1  0  0  0  0
 35 76  1  0  0  0  0
 35 80  2  0  0  0  0
 36 65  1  0  0  0  0
 36 71  1  0  0  0  0
 36 81  2  0  0  0  0
 37 66  1  0  0  0  0
 37 77  1  0  0  0  0
 37 82  2  0  0  0  0
 38 72  1  0  0  0  0
 38 73  1  0  0  0  0
 38 83  2  0  0  0  0
 39 42  1  0  0  0  0
 40 52  1  0  0  0  0
 41 71  1  0  0  0  0
 42 44  1  0  0  0  0
 43 45  1  0  0  0  0
 43 46  1  0  0  0  0
 44 51  1  0  0  0  0
 45 53  1  0  0  0  0
 46 72  1  0  0  0  0
 47 48  1  0  0  0  0
 47 70  1  0  0  0  0
 48 73  1  0  0  0  0
 49 53  1  0  0  0  0
 49 72  1  0  0  0  0
 50 54  1  0  0  0  0
 50 73  1  0  0  0  0
 51 76  1  0  0  0  0
 52 71  1  0  0  0  0
 53 69  1  0  0  0  0
 54 58  1  0  0  0  0
 54 70  1  0  0  0  0
 59 66  1  0  0  0  0
 60 67  1  0  0  0  0
 61 67  1  0  0  0  0
 62 67  1  0  0  0  0
 63 78  1  0  0  0  0
 64 85  1  0  0  0  0
 65 67  1  0  0  0  0
 65 77  1  0  0  0  0
 66 78  1  0  0  0  0
 68 69  1  0  0  0  0
M  CHG  1  78   1
M  ISO  4  38 100  64 101  73 100  85 101
M  END
> <Batch ID>
0165

> <Smiles>
CNC(C)C(=O)NC(C(=O)N1Cc2cc([101O:1][101CH2:1]c3c(C)cc(N4CC[100N:0]([100C:0](=O)N5CCCC(n6nc(-c7ccc(Oc8ccc(F)cc8F)cc7)c(C(N)=O)c6N)C5)CC4C)c(C)c3C)ccc2CC1C(=O)NC1CCCc2ccccc21)C(C)(C)C

> <Shape>
0.280

> <Color>
0.176

> <Negative vol penalty>
0.000

$$$$

  -OEChem-04052322223D

 90100  0     1  0  0  0  0  0999 V2000
  -25.8705  -38.9888   21.7149 C   0  0  0  0  0  0  0  0  0  0  0  0
  -26.2822  -38.0629   20.7617 C   0  0  0  0  0  0  0  0  0  0  0  0
  -23.6577   -9.1582   22.8520 C   0  0  0  0  0  0  0  0  0  0  0  0
  -23.3982   -9.7696   20.5290 C   0  0  0  0  0  0  0  0  0  0  0  0
  -25.8052  -38.6223   23.0585 C   0  0  0  0  0  0  0  0  0  0  0  0
  -26.6298  -36.7700   21.1518 C   0  0  0  0  0  0  0  0  0  0  0  0
  -26.4508  -29.9979   18.8233 C   0  0  0  0  0  0  0  0  0  0  0  0
  -22.8428   -8.0444   22.6499 C   0  0  0  0  0  0  0  0  0  0  0  0
  -22.5833   -8.6557   20.3270 C   0  0  0  0  0  0  0  0  0  0  0  0
  -27.2884  -28.8977   18.6452 C   0  0  0  0  0  0  0  0  0  0  0  0
  -23.1430   -4.9440   21.3344 C   0  0  0  0  0  0  0  0  0  0  0  0
  -23.5616   -3.7280   21.8744 C   0  0  0  0  0  0  0  0  0  0  0  0
  -27.0611  -28.3535   20.9843 C   0  0  0  0  0  0  0  0  0  0  0  0
  -21.5446   -3.6222   23.2000 C   0  0  0  0  0  0  0  0  0  0  0  0
  -23.9354  -10.0209   21.7915 C   0  0  0  0  0  0  0  0  0  0  0  0
  -26.1760  -11.2385   21.8607 C   0  0  0  0  0  0  0  0  0  0  0  0
  -26.1429  -37.3215   23.4640 C   0  0  0  0  0  0  0  0  0  0  0  0
  -25.9199  -30.2909   20.0877 C   0  0  0  0  0  0  0  0  0  0  0  0
  -26.5702  -36.3861   22.5022 C   0  0  0  0  0  0  0  0  0  0  0  0
  -26.2150  -29.4566   21.1753 C   0  0  0  0  0  0  0  0  0  0  0  0
  -29.0062  -20.6895   20.9885 C   0  0  0  0  0  0  0  0  0  0  0  0
  -30.2687  -20.2476   20.6090 C   0  0  0  0  0  0  0  0  0  0  0  0
  -30.6435  -18.9325   20.8607 C   0  0  0  0  0  0  0  0  0  0  0  0
  -22.3056   -7.7931   21.3874 C   0  0  0  0  0  0  0  0  0  0  0  0
  -27.5960  -28.0770   19.7263 C   0  0  0  0  0  0  0  0  0  0  0  0
  -21.9251   -5.4992   21.7274 C   0  0  0  0  0  0  0  0  0  0  0  0
  -22.7624   -3.0670   22.8071 C   0  0  0  0  0  0  0  0  0  0  0  0
  -21.1259   -4.8383   22.6601 C   0  0  0  0  0  0  0  0  0  0  0  0
  -24.7767  -11.1720   21.9998 C   0  0  0  0  0  0  0  0  0  0  0  0
  -28.1623  -19.7843   21.6116 C   0  0  0  0  0  0  0  0  0  0  0  0
  -29.7265  -18.1059   21.4897 C   0  0  0  0  0  0  0  0  0  0  0  0
  -26.4900  -12.5400   22.1673 C   0  0  0  0  0  0  0  0  0  0  0  0
  -27.1086  -10.2153   21.4877 C   0  0  0  0  0  0  0  0  0  0  0  0
  -26.1493  -32.7368   22.1048 C   0  0  0  0  0  0  0  0  0  0  0  0
  -23.9092  -31.0758   23.7618 C   0  0  0  0  0  0  0  0  0  0  0  0
  -22.4522  -28.0669   24.4477 C   0  0  0  0  0  0  0  0  0  0  0  0
  -25.5291  -17.9083   21.5701 C   0  0  0  0  0  0  0  0  0  0  0  0
  -26.1020  -36.9856   24.9338 C   0  0  0  0  0  0  0  0  0  0  0  0
  -24.9965  -31.4660   20.2577 C   0  0  0  0  0  0  0  0  0  0  0  0
  -25.6544  -29.7161   22.5489 C   0  0  0  0  0  0  0  0  0  0  0  0
  -26.1283  -35.4858   25.2168 C   0  0  0  0  0  0  0  0  0  0  0  0
  -23.6695  -16.2184   24.1964 C   0  0  0  0  0  0  0  0  0  0  0  0
  -27.2081  -34.8040   24.3826 C   0  0  0  0  0  0  0  0  0  0  0  0
  -23.9151  -14.7498   23.8439 C   0  0  0  0  0  0  0  0  0  0  0  0
  -26.4987  -20.4737   23.5931 C   0  0  0  0  0  0  0  0  0  0  0  0
  -28.0576  -22.9175   21.8924 C   0  0  0  0  0  0  0  0  0  0  0  0
  -23.5274  -17.0630   22.9355 C   0  0  0  0  0  0  0  0  0  0  0  0
  -25.2693  -19.5670   23.5938 C   0  0  0  0  0  0  0  0  0  0  0  0
  -24.9234  -15.5167   21.6396 C   0  0  0  0  0  0  0  0  0  0  0  0
  -28.5678  -22.0837   20.7379 C   0  0  1  0  0  0  0  0  0  0  0  0
  -26.9317  -34.9668   22.8830 C   0  0  1  0  0  0  0  0  0  0  0  0
  -26.6961  -20.1395   22.1014 C   0  0  2  0  0  0  0  0  0  0  0  0
  -24.9253  -31.9667   21.6970 C   0  0  1  0  0  0  0  0  0  0  0  0
  -25.0940  -14.5973   22.8640 C   0  0  2  0  0  0  0  0  0  0  0  0
  -29.3926  -23.2274   21.2875 C   0  0  1  0  0  0  0  0  0  0  0  0
  -31.2203  -21.1822   19.9328 C   0  0  0  0  0  0  0  0  0  0  0  0
  -31.9904  -18.4274   20.4652 C   0  0  0  0  0  0  0  0  0  0  0  0
  -30.0730  -16.6838   21.7882 C   0  0  0  0  0  0  0  0  0  0  0  0
  -20.6721  -27.0195   25.8729 C   0  0  0  0  0  0  0  0  0  0  0  0
  -30.8300  -26.9214   19.3450 C   0  0  0  0  0  0  0  0  0  0  0  0
  -25.7461  -31.2649   26.1908 C   0  0  0  0  0  0  0  0  0  0  0  0
  -24.4037  -29.4425   27.2607 C   0  0  0  0  0  0  0  0  0  0  0  0
  -23.3202  -31.6151   26.6876 C   0  0  0  0  0  0  0  0  0  0  0  0
  -20.9323  -27.1504   22.0794 C   0  0  0  0  0  0  0  0  0  0  0  0
  -29.5914  -25.7166   21.2314 C   0  0  0  0  0  0  0  0  0  0  0  0
  -23.9418  -30.0129   24.8333 C   0  0  1  0  0  0  0  0  0  0  0  0
  -20.9953  -27.6478   24.5263 C   0  0  2  0  0  0  0  0  0  0  0  0
  -29.6484  -26.9277   20.3061 C   0  0  2  0  0  0  0  0  0  1  0  0
  -24.3653  -30.5798   26.2177 C   0  0  0  0  0  0  0  0  0  0  0  0
  -24.2389  -12.3383   22.3663 N   0  0  0  0  0  0  0  0  0  0  0  0
  -28.4911  -18.4993   21.8729 N   0  0  0  0  0  0  0  0  0  0  0  0
  -25.3059  -13.1500   22.4603 N   0  0  0  0  0  0  0  0  0  0  0  0
  -24.7615  -30.8809   22.6657 N   0  0  0  0  0  0  0  0  0  0  0  0
  -24.7006  -16.9018   22.0723 N   0  0  0  0  0  0  0  0  0  0  0  0
  -25.7324  -19.0430   22.3219 N   0  0  0  0  0  0  0  0  0  0  0  0
  -27.6607  -13.2106   22.2122 N   0  0  0  0  0  0  0  0  0  0  0  0
  -26.6168   -8.9335   21.2061 N   0  0  0  0  0  0  0  0  0  0  0  0
  -25.8971  -34.0489   22.4571 N   0  0  0  0  0  0  0  0  0  0  0  0
  -22.6263  -29.3823   24.8228 N   0  0  0  0  0  0  0  0  0  0  0  0
  -29.5057  -24.4552   20.4542 N   0  3  0  0  0  0  0  0  0  0  0  0
  -20.6831  -26.6566   23.4581 N   0  3  0  0  0  0  0  0  0  0  0  0
  -28.3432  -10.4272   21.4225 O   0  0  0  0  0  0  0  0  0  0  0  0
  -27.2416  -32.1812   22.1017 O   0  0  0  0  0  0  0  0  0  0  0  0
  -23.1502  -32.0398   23.8891 O   0  0  0  0  0  0  0  0  0  0  0  0
  -23.3470  -27.3026   24.0928 O   0  0  0  0  0  0  0  0  0  0  0  0
  -26.1079  -17.7763   20.4824 O   0  0  0  0  0  0  0  0  0  0  0  0
  -21.5105   -6.7062   21.1898 O   0  0  0  0  0  0  0  0  0  0  0  0
  -28.4138  -27.0028   19.5554 O   0  0  0  0  0  0  0  0  0  1  0  0
  -23.1639   -1.8985   23.3244 F   0  0  0  0  0  0  0  0  0  0  0  0
  -19.9544   -5.3661   23.0406 F   0  0  0  0  0  0  0  0  0  0  0  0
  1  2  1  0  0  0  0
  1  5  2  0  0  0  0
  2  6  2  0  0  0  0
  3  8  2  0  0  0  0
  3 15  1  0  0  0  0
  4  9  1  0  0  0  0
  4 15  2  0  0  0  0
  5 17  1  0  0  0  0
  6 19  1  0  0  0  0
  7 10  2  0  0  0  0
  7 18  1  0  0  0  0
  8 24  1  0  0  0  0
  9 24  2  0  0  0  0
 10 25  1  0  0  0  0
 11 12  2  0  0  0  0
 11 26  1  0  0  0  0
 12 27  1  0  0  0  0
 13 20  1  0  0  0  0
 13 25  2  0  0  0  0
 14 27  2  0  0  0  0
 14 28  1  0  0  0  0
 15 29  1  0  0  0  0
 16 29  1  0  0  0  0
 16 32  2  0  0  0  0
 16 33  1  0  0  0  0
 17 19  2  0  0  0  0
 17 38  1  0  0  0  0
 18 20  2  0  0  0  0
 18 39  1  0  0  0  0
 19 51  1  0  0  0  0
 20 40  1  0  0  0  0
 21 22  2  0  0  0  0
 21 30  1  0  0  0  0
 21 50  1  0  0  0  0
 22 23  1  0  0  0  0
 22 56  1  0  0  0  0
 23 31  2  0  0  0  0
 23 57  1  0  0  0  0
 24 87  1  0  0  0  0
 25 88  1  0  0  0  0
 26 28  2  0  0  0  0
 26 87  1  0  0  0  0
 27 89  1  0  0  0  0
 28 90  1  0  0  0  0
 29 70  2  0  0  0  0
 30 52  1  0  0  0  0
 30 71  2  0  0  0  0
 31 58  1  0  0  0  0
 31 71  1  0  0  0  0
 32 72  1  0  0  0  0
 32 76  1  0  0  0  0
 33 77  1  0  0  0  0
 33 82  2  0  0  0  0
 34 53  1  0  0  0  0
 34 78  1  0  0  0  0
 34 83  2  0  0  0  0
 35 66  1  0  0  0  0
 35 73  1  0  0  0  0
 35 84  2  0  0  0  0
 36 67  1  0  0  0  0
 36 79  1  0  0  0  0
 36 85  2  0  0  0  0
 37 74  1  0  0  0  0
 37 75  1  0  0  0  0
 37 86  2  0  0  0  0
 38 41  1  0  0  0  0
 39 53  1  0  0  0  0
 40 73  1  0  0  0  0
 41 43  1  0  0  0  0
 42 44  1  0  0  0  0
 42 47  1  0  0  0  0
 43 51  1  0  0  0  0
 44 54  1  0  0  0  0
 45 48  1  0  0  0  0
 45 52  1  0  0  0  0
 46 50  1  0  0  0  0
 46 55  1  0  0  0  0
 47 74  1  0  0  0  0
 48 75  1  0  0  0  0
 49 54  1  0  0  0  0
 49 74  1  0  0  0  0
 50 55  1  0  0  0  0
 51 78  1  0  0  0  0
 52 75  1  0  0  0  0
 53 73  1  0  0  0  0
 54 72  1  0  0  0  0
 55 80  1  0  0  0  0
 59 67  1  0  0  0  0
 60 68  1  0  0  0  0
 61 69  1  0  0  0  0
 62 69  1  0  0  0  0
 63 69  1  0  0  0  0
 64 81  1  0  0  0  0
 65 68  1  0  0  0  0
 65 80  1  0  0  0  0
 66 69  1  0  0  0  0
 66 79  1  0  0  0  0
 67 81  1  0  0  0  0
 68 88  1  0  0  0  0
 70 72  1  0  0  0  0
M  CHG  2  80   1  81   1
M  ISO  4  37 100  68 101  75 100  88 101
M  END
> <Batch ID>
0165

> <Smiles>
CNC(C)C(=O)NC(C(=O)N1Cc2cc([101O:1][101CH:1](C)CNC3CC3c3c(C4CC[100N:0]4[100C:0](=O)N4CCCC(n5nc(-c6ccc(Oc7ccc(F)cc7F)cc6)c(C(N)=O)c5N)C4)nc(C)c(C)c3C)ccc2CC1C(=O)NC1CCCc2ccccc21)C(C)(C)C

> <Shape>
0.293

> <Color>
0.078

> <Negative vol penalty>
0.000

$$$$

  -OEChem-04052322223D

 88 97  0     1  0  0  0  0  0999 V2000
  -18.4503  -26.5249   23.3396 C   0  0  0  0  0  0  0  0  0  0  0  0
  -19.4395  -26.2260   22.4081 C   0  0  0  0  0  0  0  0  0  0  0  0
  -21.2303  -10.9351   20.5613 C   0  0  0  0  0  0  0  0  0  0  0  0
  -22.4057  -10.8062   22.6681 C   0  0  0  0  0  0  0  0  0  0  0  0
  -18.1367  -27.8543   23.6196 C   0  0  0  0  0  0  0  0  0  0  0  0
  -20.1150  -27.2565   21.7553 C   0  0  0  0  0  0  0  0  0  0  0  0
  -25.1164  -26.4858   21.5644 C   0  0  0  0  0  0  0  0  0  0  0  0
  -21.3988   -9.5620   20.3832 C   0  0  0  0  0  0  0  0  0  0  0  0
  -22.5742   -9.4330   22.4901 C   0  0  0  0  0  0  0  0  0  0  0  0
  -25.5857  -25.5836   20.6106 C   0  0  0  0  0  0  0  0  0  0  0  0
  -20.7182   -6.6310   22.8430 C   0  0  0  0  0  0  0  0  0  0  0  0
  -20.4644   -5.8015   23.9353 C   0  0  0  0  0  0  0  0  0  0  0  0
  -26.1877  -27.4253   19.1736 C   0  0  0  0  0  0  0  0  0  0  0  0
  -22.7431   -5.0025   23.8580 C   0  0  0  0  0  0  0  0  0  0  0  0
  -21.7338  -11.5572   21.7037 C   0  0  0  0  0  0  0  0  0  0  0  0
  -20.4873  -13.6252   22.5267 C   0  0  0  0  0  0  0  0  0  0  0  0
  -18.8154  -28.9016   22.9769 C   0  0  0  0  0  0  0  0  0  0  0  0
  -25.1694  -27.8664   21.3249 C   0  0  0  0  0  0  0  0  0  0  0  0
  -19.8093  -28.6011   22.0259 C   0  0  0  0  0  0  0  0  0  0  0  0
  -25.7208  -28.3429   20.1270 C   0  0  0  0  0  0  0  0  0  0  0  0
  -30.8515  -23.5145   20.0991 C   0  0  0  0  0  0  0  0  0  0  0  0
  -30.3445  -24.1753   18.9858 C   0  0  0  0  0  0  0  0  0  0  0  0
  -30.1436  -22.4537   20.6532 C   0  0  0  0  0  0  0  0  0  0  0  0
  -22.0707   -8.8109   21.3476 C   0  0  0  0  0  0  0  0  0  0  0  0
  -26.1187  -26.0532   19.4138 C   0  0  0  0  0  0  0  0  0  0  0  0
  -21.9845   -6.6462   22.2582 C   0  0  0  0  0  0  0  0  0  0  0  0
  -21.4768   -4.9873   24.4428 C   0  0  0  0  0  0  0  0  0  0  0  0
  -22.9969   -5.8320   22.7657 C   0  0  0  0  0  0  0  0  0  0  0  0
  -21.5606  -12.9757   21.8879 C   0  0  0  0  0  0  0  0  0  0  0  0
  -29.1350  -23.7403   18.4685 C   0  0  0  0  0  0  0  0  0  0  0  0
  -28.9430  -22.0959   20.0614 C   0  0  0  0  0  0  0  0  0  0  0  0
  -20.7931  -14.9613   22.4388 C   0  0  0  0  0  0  0  0  0  0  0  0
  -19.3184  -13.0703   23.1444 C   0  0  0  0  0  0  0  0  0  0  0  0
  -23.0080  -30.1828   21.0670 C   0  0  0  0  0  0  0  0  0  0  0  0
  -25.6329  -32.0831   20.9218 C   0  0  0  0  0  0  0  0  0  0  0  0
  -28.9575  -32.3821   20.2115 C   0  0  0  0  0  0  0  0  0  0  0  0
  -25.7416  -17.9278   22.0652 C   0  0  0  0  0  0  0  0  0  0  0  0
  -18.4089  -30.3225   23.2776 C   0  0  0  0  0  0  0  0  0  0  0  0
  -24.6836  -28.8274   22.3751 C   0  0  0  0  0  0  0  0  0  0  0  0
  -25.8190  -29.8162   19.8300 C   0  0  0  0  0  0  0  0  0  0  0  0
  -19.4312  -31.3588   22.8178 C   0  0  0  0  0  0  0  0  0  0  0  0
  -23.1426  -18.1013   19.7084 C   0  0  0  0  0  0  0  0  0  0  0  0
  -19.8924  -31.0590   21.3951 C   0  0  0  0  0  0  0  0  0  0  0  0
  -22.3277  -16.8578   20.0627 C   0  0  0  0  0  0  0  0  0  0  0  0
  -24.6479  -17.8400   19.7812 C   0  0  0  0  0  0  0  0  0  0  0  0
  -27.2332  -21.2992   21.6645 C   0  0  0  0  0  0  0  0  0  0  0  0
  -27.9817  -19.8548   19.7672 C   0  0  0  0  0  0  0  0  0  0  0  0
  -26.9397  -20.0433   22.4808 C   0  0  0  0  0  0  0  0  0  0  0  0
  -27.6874  -18.6262   20.6208 C   0  0  0  0  0  0  0  0  0  0  0  0
  -24.2824  -16.0302   21.4272 C   0  0  0  0  0  0  0  0  0  0  0  0
  -20.5815  -29.6914   21.3152 C   0  0  1  0  0  0  0  0  0  0  0  0
  -24.3146  -30.1951   21.8088 C   0  0  1  0  0  0  0  0  0  0  0  0
  -22.7660  -16.2783   21.4194 C   0  0  2  0  0  0  0  0  0  0  0  0
  -32.1538  -23.9431   20.6965 C   0  0  0  0  0  0  0  0  0  0  0  0
  -31.0810  -25.3165   18.3682 C   0  0  0  0  0  0  0  0  0  0  0  0
  -30.6697  -21.7308   21.8492 C   0  0  0  0  0  0  0  0  0  0  0  0
  -27.7446  -23.4264   16.3948 C   0  0  0  0  0  0  0  0  0  0  0  0
  -30.8154  -34.0680   20.1522 C   0  0  0  0  0  0  0  0  0  0  0  0
  -24.5011  -33.2358   18.3333 C   0  0  0  0  0  0  0  0  0  0  0  0
  -26.7700  -34.1724   17.8401 C   0  0  0  0  0  0  0  0  0  0  0  0
  -25.5257  -34.9247   19.8671 C   0  0  0  0  0  0  0  0  0  0  0  0
  -30.5294  -30.8928   22.2289 C   0  0  0  0  0  0  0  0  0  0  0  0
  -27.6455  -25.6155   17.6436 C   0  0  0  0  0  0  0  0  0  1  0  0
  -28.5400  -24.4112   17.2738 C   0  0  1  0  0  0  0  0  0  0  0  0
  -26.5185  -32.6001   19.8139 C   0  0  1  0  0  0  0  0  0  0  0  0
  -30.0998  -33.0157   20.9849 C   0  0  2  0  0  0  0  0  0  0  0  0
  -25.8253  -33.7054   18.9680 C   0  0  0  0  0  0  0  0  0  0  0  0
  -22.4795  -13.8290   21.4280 N   0  0  0  0  0  0  0  0  0  0  0  0
  -28.4186  -22.7139   18.9794 N   0  0  0  0  0  0  0  0  0  0  0  0
  -21.9844  -15.0283   21.7781 N   0  0  0  0  0  0  0  0  0  0  0  0
  -28.2229  -21.0300   20.6157 N   0  0  0  0  0  0  0  0  0  0  0  0
  -25.3249  -30.7158   20.8855 N   0  0  0  0  0  0  0  0  0  0  0  0
  -25.0119  -17.2506   21.0767 N   0  0  0  0  0  0  0  0  0  0  0  0
  -26.6572  -18.8968   21.6257 N   0  0  0  0  0  0  0  0  0  0  0  0
  -20.1564  -16.0736   22.8629 N   0  0  0  0  0  0  0  0  0  0  0  0
  -19.1609  -11.6776   23.1461 N   0  0  0  0  0  0  0  0  0  0  0  0
  -21.9312  -29.7747   21.8308 N   0  0  0  0  0  0  0  0  0  0  0  0
  -27.7611  -33.0250   20.4492 N   0  0  0  0  0  0  0  0  0  0  0  0
  -31.0922  -31.9785   21.3855 N   0  3  0  0  0  0  0  0  0  0  0  0
  -18.4316  -13.7891   23.6644 O   0  0  0  0  0  0  0  0  0  0  0  0
  -22.9786  -30.5202   19.8893 O   0  0  0  0  0  0  0  0  0  0  0  0
  -25.2351  -32.8623   21.7914 O   0  0  0  0  0  0  0  0  0  0  0  0
  -29.1118  -31.4159   19.4677 O   0  0  0  0  0  0  0  0  0  0  0  0
  -25.5840  -17.6853   23.2682 O   0  0  0  0  0  0  0  0  0  0  0  0
  -22.2351   -7.4709   21.1743 O   0  0  0  0  0  0  0  0  0  0  0  0
  -26.5799  -25.1690   18.4747 O   0  0  0  0  0  0  0  0  0  1  0  0
  -21.2334   -4.1919   25.4927 F   0  0  0  0  0  0  0  0  0  0  0  0
  -24.2158   -5.8432   22.2088 F   0  0  0  0  0  0  0  0  0  0  0  0
  1  2  1  0  0  0  0
  1  5  2  0  0  0  0
  2  6  2  0  0  0  0
  3  8  2  0  0  0  0
  3 15  1  0  0  0  0
  4  9  1  0  0  0  0
  4 15  2  0  0  0  0
  5 17  1  0  0  0  0
  6 19  1  0  0  0  0
  7 10  2  0  0  0  0
  7 18  1  0  0  0  0
  8 24  1  0  0  0  0
  9 24  2  0  0  0  0
 10 25  1  0  0  0  0
 11 12  2  0  0  0  0
 11 26  1  0  0  0  0
 12 27  1  0  0  0  0
 13 20  1  0  0  0  0
 13 25  2  0  0  0  0
 14 27  2  0  0  0  0
 14 28  1  0  0  0  0
 15 29  1  0  0  0  0
 16 29  1  0  0  0  0
 16 32  2  0  0  0  0
 16 33  1  0  0  0  0
 17 19  2  0  0  0  0
 17 38  1  0  0  0  0
 18 20  2  0  0  0  0
 18 39  1  0  0  0  0
 19 51  1  0  0  0  0
 20 40  1  0  0  0  0
 21 22  1  0  0  0  0
 21 23  2  0  0  0  0
 21 54  1  0  0  0  0
 22 30  2  0  0  0  0
 22 55  1  0  0  0  0
 23 31  1  0  0  0  0
 23 56  1  0  0  0  0
 24 85  1  0  0  0  0
 25 86  1  0  0  0  0
 26 28  2  0  0  0  0
 26 85  1  0  0  0  0
 27 87  1  0  0  0  0
 28 88  1  0  0  0  0
 29 68  2  0  0  0  0
 30 64  1  0  0  0  0
 30 69  1  0  0  0  0
 31 69  2  0  0  0  0
 31 71  1  0  0  0  0
 32 70  1  0  0  0  0
 32 75  1  0  0  0  0
 33 76  1  0  0  0  0
 33 80  2  0  0  0  0
 34 52  1  0  0  0  0
 34 77  1  0  0  0  0
 34 81  2  0  0  0  0
 35 65  1  0  0  0  0
 35 72  1  0  0  0  0
 35 82  2  0  0  0  0
 36 66  1  0  0  0  0
 36 78  1  0  0  0  0
 36 83  2  0  0  0  0
 37 73  1  0  0  0  0
 37 74  1  0  0  0  0
 37 84  2  0  0  0  0
 38 41  1  0  0  0  0
 39 52  1  0  0  0  0
 40 72  1  0  0  0  0
 41 43  1  0  0  0  0
 42 44  1  0  0  0  0
 42 45  1  0  0  0  0
 43 51  1  0  0  0  0
 44 53  1  0  0  0  0
 45 73  1  0  0  0  0
 46 48  1  0  0  0  0
 46 71  1  0  0  0  0
 47 49  1  0  0  0  0
 47 71  1  0  0  0  0
 48 74  1  0  0  0  0
 49 74  1  0  0  0  0
 50 53  1  0  0  0  0
 50 73  1  0  0  0  0
 51 77  1  0  0  0  0
 52 72  1  0  0  0  0
 53 70  1  0  0  0  0
 57 64  1  0  0  0  0
 58 66  1  0  0  0  0
 59 67  1  0  0  0  0
 60 67  1  0  0  0  0
 61 67  1  0  0  0  0
 62 79  1  0  0  0  0
 63 64  1  0  0  0  0
 63 86  1  0  0  0  0
 65 67  1  0  0  0  0
 65 78  1  0  0  0  0
 66 79  1  0  0  0  0
 68 70  1  0  0  0  0
M  CHG  1  79   1
M  ISO  4  37 100  63 101  74 100  86 101
M  END
> <Batch ID>
0165

> <Smiles>
CNC(C)C(=O)NC(C(=O)N1Cc2cc([101O:1][101CH2:1]C(C)c3nc(N4CC[100N:0]([100C:0](=O)N5CCCC(n6nc(-c7ccc(Oc8ccc(F)cc8F)cc7)c(C(N)=O)c6N)C5)CC4)c(C)c(C)c3C)ccc2CC1C(=O)NC1CCCc2ccccc21)C(C)(C)C

> <Shape>
0.260

> <Color>
0.082

> <Negative vol penalty>
0.000

$$$$

  -OEChem-04052322223D

 85 94  0     1  0  0  0  0  0999 V2000
  -21.5921  -12.1735   20.4974 C   0  0  0  0  0  0  0  0  0  0  0  0
  -21.6228  -13.5415   20.7486 C   0  0  0  0  0  0  0  0  0  0  0  0
  -26.6000  -29.6214   20.5851 C   0  0  0  0  0  0  0  0  0  0  0  0
  -24.7457  -28.2724   19.8243 C   0  0  0  0  0  0  0  0  0  0  0  0
  -22.7803  -11.4447   20.4668 C   0  0  0  0  0  0  0  0  0  0  0  0
  -22.8418  -14.1812   20.9705 C   0  0  0  0  0  0  0  0  0  0  0  0
  -23.2305  -18.5518   18.4423 C   0  0  0  0  0  0  0  0  0  0  0  0
  -27.3986  -28.4804   20.6621 C   0  0  0  0  0  0  0  0  0  0  0  0
  -25.5443  -27.1314   19.9012 C   0  0  0  0  0  0  0  0  0  0  0  0
  -22.5631  -19.6553   18.9721 C   0  0  0  0  0  0  0  0  0  0  0  0
  -29.1275  -26.5018   18.5340 C   0  0  0  0  0  0  0  0  0  0  0  0
  -30.4200  -26.5790   18.0154 C   0  0  0  0  0  0  0  0  0  0  0  0
  -24.6357  -20.4462   19.9198 C   0  0  0  0  0  0  0  0  0  0  0  0
  -22.0645  -24.6807   20.6188 C   0  0  0  0  0  0  0  0  0  0  0  0
  -31.3250  -26.0501   20.1921 C   0  0  0  0  0  0  0  0  0  0  0  0
  -25.2735  -29.5175   20.1663 C   0  0  0  0  0  0  0  0  0  0  0  0
  -24.2844  -31.5461   18.9772 C   0  0  0  0  0  0  0  0  0  0  0  0
  -24.0152  -12.0775   20.6788 C   0  0  0  0  0  0  0  0  0  0  0  0
  -24.6057  -18.3812   18.6570 C   0  0  0  0  0  0  0  0  0  0  0  0
  -24.0475  -13.4599   20.9440 C   0  0  0  0  0  0  0  0  0  0  0  0
  -25.3187  -19.3410   19.3896 C   0  0  0  0  0  0  0  0  0  0  0  0
  -20.8665  -25.7514   22.4230 C   0  0  0  0  0  0  0  0  0  0  0  0
  -21.2405  -25.7073   21.0800 C   0  0  0  0  0  0  0  0  0  0  0  0
  -22.5145  -23.6981   21.5007 C   0  0  0  0  0  0  0  0  0  0  0  0
  -21.3166  -24.7689   23.3050 C   0  0  0  0  0  0  0  0  0  0  0  0
  -22.1406  -23.7422   22.8437 C   0  0  0  0  0  0  0  0  0  0  0  0
  -26.8708  -27.2354   20.3201 C   0  0  0  0  0  0  0  0  0  0  0  0
  -23.2652  -20.6012   19.7134 C   0  0  0  0  0  0  0  0  0  0  0  0
  -28.9337  -26.1988   19.8817 C   0  0  0  0  0  0  0  0  0  0  0  0
  -31.5188  -26.3531   18.8444 C   0  0  0  0  0  0  0  0  0  0  0  0
  -30.0324  -25.9729   20.7108 C   0  0  0  0  0  0  0  0  0  0  0  0
  -24.4480  -30.6957   20.0871 C   0  0  0  0  0  0  0  0  0  0  0  0
  -23.4055  -32.5091   19.4091 C   0  0  0  0  0  0  0  0  0  0  0  0
  -24.8742  -31.4721   17.6725 C   0  0  0  0  0  0  0  0  0  0  0  0
  -26.3959  -16.1835   20.0953 C   0  0  0  0  0  0  0  0  0  0  0  0
  -28.8379  -17.9348   18.8739 C   0  0  0  0  0  0  0  0  0  0  0  0
  -29.9448  -20.9460   17.7103 C   0  0  0  0  0  0  0  0  0  0  0  0
  -19.4419  -30.4123   21.8779 C   0  0  0  0  0  0  0  0  0  0  0  0
  -25.2692  -11.2395   20.6829 C   0  0  0  0  0  0  0  0  0  0  0  0
  -25.3160  -17.1993   18.0562 C   0  0  0  0  0  0  0  0  0  0  0  0
  -26.7999  -19.2146   19.6314 C   0  0  0  0  0  0  0  0  0  0  0  0
  -26.5504  -12.0598   20.5568 C   0  0  0  0  0  0  0  0  0  0  0  0
  -22.3686  -31.5962   23.8143 C   0  0  0  0  0  0  0  0  0  0  0  0
  -26.5151  -13.2542   21.5050 C   0  0  0  0  0  0  0  0  0  0  0  0
  -22.6934  -32.9099   23.1012 C   0  0  0  0  0  0  0  0  0  0  0  0
  -18.6092  -26.9371   22.2275 C   0  0  0  0  0  0  0  0  0  0  0  0
  -20.8782  -31.3051   23.7379 C   0  0  0  0  0  0  0  0  0  0  0  0
  -18.1716  -28.3679   22.4940 C   0  0  0  0  0  0  0  0  0  0  0  0
  -20.5589  -28.2710   22.7275 C   0  0  0  0  0  0  0  0  0  0  0  0
  -20.6839  -32.5317   21.6046 C   0  0  0  0  0  0  0  0  0  0  0  0
  -19.9751  -26.8628   22.9192 C   0  0  2  0  0  0  0  0  0  0  0  0
  -25.3522  -14.1942   21.1650 C   0  0  1  0  0  0  0  0  0  0  0  0
  -26.6196  -16.8586   18.7717 C   0  0  1  0  0  0  0  0  0  0  0  0
  -22.1733  -32.9400   21.6461 C   0  0  2  0  0  0  0  0  0  0  0  0
  -20.7729  -26.7473   20.1151 C   0  0  0  0  0  0  0  0  0  0  0  0
  -20.9150  -24.8158   24.7456 C   0  0  0  0  0  0  0  0  0  0  0  0
  -22.6253  -22.6875   23.7875 C   0  0  0  0  0  0  0  0  0  0  0  0
  -31.9989  -22.0791   16.8190 C   0  0  0  0  0  0  0  0  0  0  0  0
  -29.9797  -18.0825   21.6996 C   0  0  0  0  0  0  0  0  0  0  0  0
  -31.4458  -19.9620   20.9340 C   0  0  0  0  0  0  0  0  0  0  0  0
  -31.6802  -17.7013   19.9059 C   0  0  0  0  0  0  0  0  0  0  0  0
  -28.6362  -21.5390   15.1229 C   0  0  0  0  0  0  0  0  0  0  0  0
  -23.3952  -22.6092   20.9811 C   0  0  0  0  0  0  0  0  0  1  0  0
  -29.6549  -19.1102   19.3535 C   0  0  1  0  0  0  0  0  0  0  0  0
  -30.7306  -21.3179   16.4658 C   0  0  2  0  0  0  0  0  0  0  0  0
  -30.6619  -18.7156   20.4705 C   0  0  0  0  0  0  0  0  0  0  0  0
  -23.7306  -31.0844   21.1446 N   0  0  0  0  0  0  0  0  0  0  0  0
  -23.1079  -32.1896   20.7012 N   0  0  0  0  0  0  0  0  0  0  0  0
  -27.4483  -18.0382   19.0288 N   0  0  0  0  0  0  0  0  0  0  0  0
  -20.4200  -31.2971   22.3492 N   0  0  0  0  0  0  0  0  0  0  0  0
  -19.4081  -29.1389   22.4545 N   0  0  0  0  0  0  0  0  0  0  0  0
  -22.8660  -33.5896   18.8059 N   0  0  0  0  0  0  0  0  0  0  0  0
  -25.7554  -30.4178   17.3964 N   0  0  0  0  0  0  0  0  0  0  0  0
  -25.6786  -15.0054   20.0118 N   0  0  0  0  0  0  0  0  0  0  0  0
  -30.2757  -19.6874   18.1661 N   0  0  0  0  0  0  0  0  0  0  0  0
  -29.9040  -22.1729   15.5676 N   0  3  0  0  0  0  0  0  0  0  0  0
  -24.6397  -32.3251   16.7831 O   0  0  0  0  0  0  0  0  0  0  0  0
  -26.8424  -16.6929   21.1165 O   0  0  0  0  0  0  0  0  0  0  0  0
  -29.4111  -16.9638   18.3736 O   0  0  0  0  0  0  0  0  0  0  0  0
  -29.1228  -21.6984   18.2286 O   0  0  0  0  0  0  0  0  0  0  0  0
  -18.6886  -30.7257   20.9477 O   0  0  0  0  0  0  0  0  0  0  0  0
  -27.6498  -26.1218   20.3949 O   0  0  0  0  0  0  0  0  0  0  0  0
  -22.6114  -21.6866   20.2358 O   0  0  0  0  0  0  0  0  0  1  0  0
  -32.7599  -26.4258   18.3459 F   0  0  0  0  0  0  0  0  0  0  0  0
  -29.8525  -25.6803   22.0061 F   0  0  0  0  0  0  0  0  0  0  0  0
  1  2  1  0  0  0  0
  1  5  2  0  0  0  0
  2  6  2  0  0  0  0
  3  8  2  0  0  0  0
  3 16  1  0  0  0  0
  4  9  1  0  0  0  0
  4 16  2  0  0  0  0
  5 18  1  0  0  0  0
  6 20  1  0  0  0  0
  7 10  2  0  0  0  0
  7 19  1  0  0  0  0
  8 27  1  0  0  0  0
  9 27  2  0  0  0  0
 10 28  1  0  0  0  0
 11 12  2  0  0  0  0
 11 29  1  0  0  0  0
 12 30  1  0  0  0  0
 13 21  1  0  0  0  0
 13 28  2  0  0  0  0
 14 23  2  0  0  0  0
 14 24  1  0  0  0  0
 15 30  2  0  0  0  0
 15 31  1  0  0  0  0
 16 32  1  0  0  0  0
 17 32  1  0  0  0  0
 17 33  2  0  0  0  0
 17 34  1  0  0  0  0
 18 20  2  0  0  0  0
 18 39  1  0  0  0  0
 19 21  2  0  0  0  0
 19 40  1  0  0  0  0
 20 52  1  0  0  0  0
 21 41  1  0  0  0  0
 22 23  1  0  0  0  0
 22 25  2  0  0  0  0
 22 51  1  0  0  0  0
 23 55  1  0  0  0  0
 24 26  2  0  0  0  0
 24 63  1  0  0  0  0
 25 26  1  0  0  0  0
 25 56  1  0  0  0  0
 26 57  1  0  0  0  0
 27 82  1  0  0  0  0
 28 83  1  0  0  0  0
 29 31  2  0  0  0  0
 29 82  1  0  0  0  0
 30 84  1  0  0  0  0
 31 85  1  0  0  0  0
 32 67  2  0  0  0  0
 33 68  1  0  0  0  0
 33 72  1  0  0  0  0
 34 73  1  0  0  0  0
 34 77  2  0  0  0  0
 35 53  1  0  0  0  0
 35 74  1  0  0  0  0
 35 78  2  0  0  0  0
 36 64  1  0  0  0  0
 36 69  1  0  0  0  0
 36 79  2  0  0  0  0
 37 65  1  0  0  0  0
 37 75  1  0  0  0  0
 37 80  2  0  0  0  0
 38 70  1  0  0  0  0
 38 71  1  0  0  0  0
 38 81  2  0  0  0  0
 39 42  1  0  0  0  0
 40 53  1  0  0  0  0
 41 69  1  0  0  0  0
 42 44  1  0  0  0  0
 43 45  1  0  0  0  0
 43 47  1  0  0  0  0
 44 52  1  0  0  0  0
 45 54  1  0  0  0  0
 46 48  1  0  0  0  0
 46 51  1  0  0  0  0
 47 70  1  0  0  0  0
 48 71  1  0  0  0  0
 49 51  1  0  0  0  0
 49 71  1  0  0  0  0
 50 54  1  0  0  0  0
 50 70  1  0  0  0  0
 52 74  1  0  0  0  0
 53 69  1  0  0  0  0
 54 68  1  0  0  0  0
 58 65  1  0  0  0  0
 59 66  1  0  0  0  0
 60 66  1  0  0  0  0
 61 66  1  0  0  0  0
 62 76  1  0  0  0  0
 63 83  1  0  0  0  0
 64 66  1  0  0  0  0
 64 75  1  0  0  0  0
 65 76  1  0  0  0  0
 67 68  1  0  0  0  0
M  CHG  1  76   1
M  ISO  4  38 100  63 101  71 100  83 101
M  END
> <Batch ID>
0165

> <Smiles>
CNC(C)C(=O)NC(C(=O)N1Cc2cc([101O:1][101CH2:1]c3cc(C)c(C4CC[100N:0]([100C:0](=O)N5CCCC(n6nc(-c7ccc(Oc8ccc(F)cc8F)cc7)c(C(N)=O)c6N)C5)C4)c(C)c3C)ccc2CC1C(=O)NC1CCCc2ccccc21)C(C)(C)C

> <Shape>
0.239

> <Color>
0.083

> <Negative vol penalty>
0.000

$$$$

  -OEChem-04052322223D

 85 93  0     1  0  0  0  0  0999 V2000
  -29.7001  -23.4517   19.3057 C   0  0  0  0  0  0  0  0  0  0  0  0
  -28.3643  -23.7855   19.1067 C   0  0  0  0  0  0  0  0  0  0  0  0
  -26.5912  -15.1067   21.8545 C   0  0  0  0  0  0  0  0  0  0  0  0
  -24.4036  -15.1712   20.8312 C   0  0  0  0  0  0  0  0  0  0  0  0
  -30.3798  -23.9367   20.4222 C   0  0  0  0  0  0  0  0  0  0  0  0
  -27.7070  -24.6037   20.0248 C   0  0  0  0  0  0  0  0  0  0  0  0
  -23.3718  -28.7560   18.8124 C   0  0  0  0  0  0  0  0  0  0  0  0
  -26.6977  -13.7516   21.5416 C   0  0  0  0  0  0  0  0  0  0  0  0
  -24.5101  -13.8160   20.5182 C   0  0  0  0  0  0  0  0  0  0  0  0
  -21.9809  -28.7125   18.8989 C   0  0  0  0  0  0  0  0  0  0  0  0
  -24.1693  -10.8559   22.1158 C   0  0  0  0  0  0  0  0  0  0  0  0
  -23.0639  -10.0437   22.3686 C   0  0  0  0  0  0  0  0  0  0  0  0
  -22.0908  -29.7320   21.0824 C   0  0  0  0  0  0  0  0  0  0  0  0
  -22.9456   -9.4749   20.0234 C   0  0  0  0  0  0  0  0  0  0  0  0
  -25.4441  -15.8165   21.4994 C   0  0  0  0  0  0  0  0  0  0  0  0
  -25.7366  -18.3067   21.0291 C   0  0  0  0  0  0  0  0  0  0  0  0
  -29.7332  -24.7691   21.3495 C   0  0  0  0  0  0  0  0  0  0  0  0
  -24.1345  -29.2787   19.8667 C   0  0  0  0  0  0  0  0  0  0  0  0
  -28.3783  -25.0992   21.1556 C   0  0  0  0  0  0  0  0  0  0  0  0
  -23.4911  -29.7833   21.0058 C   0  0  0  0  0  0  0  0  0  0  0  0
  -18.4466  -27.6426   23.9830 C   0  0  0  0  0  0  0  0  0  0  0  0
  -18.9705  -26.3675   24.1956 C   0  0  0  0  0  0  0  0  0  0  0  0
  -18.1549  -28.0697   22.6876 C   0  0  0  0  0  0  0  0  0  0  0  0
  -18.9115  -25.9468   21.8172 C   0  0  0  0  0  0  0  0  0  0  0  0
  -19.2030  -25.5196   23.1127 C   0  0  0  0  0  0  0  0  0  0  0  0
  -18.3874  -27.2218   21.6047 C   0  0  0  0  0  0  0  0  0  0  0  0
  -25.6572  -13.1063   20.8734 C   0  0  0  0  0  0  0  0  0  0  0  0
  -21.3404  -29.1979   20.0352 C   0  0  0  0  0  0  0  0  0  0  0  0
  -24.6628  -10.9778   20.8169 C   0  0  0  0  0  0  0  0  0  0  0  0
  -22.4521   -9.3531   21.3224 C   0  0  0  0  0  0  0  0  0  0  0  0
  -24.0510  -10.2873   19.7707 C   0  0  0  0  0  0  0  0  0  0  0  0
  -25.3333  -17.2162   21.8228 C   0  0  0  0  0  0  0  0  0  0  0  0
  -25.4179  -19.4130   21.7781 C   0  0  0  0  0  0  0  0  0  0  0  0
  -26.3448  -18.3185   19.7308 C   0  0  0  0  0  0  0  0  0  0  0  0
  -26.3477  -28.1122   21.8274 C   0  0  0  0  0  0  0  0  0  0  0  0
  -26.5589  -31.2005   22.7970 C   0  0  0  0  0  0  0  0  0  0  0  0
  -25.0663  -34.2563   23.0816 C   0  0  0  0  0  0  0  0  0  0  0  0
  -21.8684  -22.2232   25.0415 C   0  0  0  0  0  0  0  0  0  0  0  0
  -30.4959  -25.2304   22.5661 C   0  0  0  0  0  0  0  0  0  0  0  0
  -25.6324  -29.3429   19.7467 C   0  0  0  0  0  0  0  0  0  0  0  0
  -24.2630  -30.3732   22.1567 C   0  0  0  0  0  0  0  0  0  0  0  0
  -29.8332  -26.3970   23.2942 C   0  0  0  0  0  0  0  0  0  0  0  0
  -23.9695  -19.8131   26.6080 C   0  0  0  0  0  0  0  0  0  0  0  0
  -28.3408  -26.1365   23.4725 C   0  0  0  0  0  0  0  0  0  0  0  0
  -24.5395  -19.0092   25.4381 C   0  0  0  0  0  0  0  0  0  0  0  0
  -22.5215  -20.2275   26.3557 C   0  0  0  0  0  0  0  0  0  0  0  0
  -22.8645  -20.1401   23.9168 C   0  0  0  0  0  0  0  0  0  0  0  0
  -27.6379  -26.0044   22.1161 C   0  0  1  0  0  0  0  0  0  0  0  0
  -26.3371  -29.4253   21.0972 C   0  0  1  0  0  0  0  0  0  0  0  0
  -24.3405  -19.7475   24.1007 C   0  0  2  0  0  0  0  0  0  0  0  0
  -18.1952  -28.5516   25.1448 C   0  0  0  0  0  0  0  0  0  0  0  0
  -19.2813  -25.9087   25.5856 C   0  0  0  0  0  0  0  0  0  0  0  0
  -17.5917  -29.4372   22.4595 C   0  0  0  0  0  0  0  0  0  0  0  0
  -19.1610  -25.0367   20.6559 C   0  0  0  0  0  0  0  0  0  0  0  0
  -25.4740  -36.5744   23.9518 C   0  0  0  0  0  0  0  0  0  0  0  0
  -26.1217  -30.2046   25.6477 C   0  0  0  0  0  0  0  0  0  0  0  0
  -25.5935  -32.5591   26.3150 C   0  0  0  0  0  0  0  0  0  0  0  0
  -27.8533  -31.9948   25.4222 C   0  0  0  0  0  0  0  0  0  0  0  0
  -24.7489  -35.4474   20.3909 C   0  0  0  0  0  0  0  0  0  0  0  0
  -19.7660  -24.1521   23.3410 C   0  0  0  0  0  0  0  0  0  0  0  0
  -18.0709  -27.6832   20.2028 C   0  0  0  0  0  0  0  0  0  0  0  0
  -21.2765  -24.1493   23.5927 C   0  0  0  0  0  0  0  0  0  0  0  0
  -19.3202  -28.0972   19.4327 C   0  0  0  0  0  0  0  0  0  1  0  0
  -25.8749  -32.0400   23.8488 C   0  0  1  0  0  0  0  0  0  0  0  0
  -25.5577  -35.6526   22.7452 C   0  0  2  0  0  0  0  0  0  0  0  0
  -26.3461  -31.6868   25.2877 C   0  0  0  0  0  0  0  0  0  0  0  0
  -24.7994  -17.5954   22.9870 N   0  0  0  0  0  0  0  0  0  0  0  0
  -24.8649  -18.9365   22.9302 N   0  0  0  0  0  0  0  0  0  0  0  0
  -25.7259  -30.4079   21.9946 N   0  0  0  0  0  0  0  0  0  0  0  0
  -22.4015  -20.9239   25.0726 N   0  0  0  0  0  0  0  0  0  0  0  0
  -25.5595  -20.7372   21.5570 N   0  0  0  0  0  0  0  0  0  0  0  0
  -26.6032  -17.0925   19.1028 N   0  0  0  0  0  0  0  0  0  0  0  0
  -27.4307  -27.3090   21.5250 N   0  0  0  0  0  0  0  0  0  0  0  0
  -26.1000  -33.4310   23.4709 N   0  0  0  0  0  0  0  0  0  0  0  0
  -21.7957  -22.8136   23.7858 N   0  0  0  0  0  0  0  0  0  0  0  0
  -24.7383  -36.2397   21.6475 N   0  3  0  0  0  0  0  0  0  0  0  0
  -26.6650  -19.3843   19.1519 O   0  0  0  0  0  0  0  0  0  0  0  0
  -25.4413  -27.8479   22.6086 O   0  0  0  0  0  0  0  0  0  0  0  0
  -27.7864  -31.2517   22.6865 O   0  0  0  0  0  0  0  0  0  0  0  0
  -23.8831  -33.9313   23.0100 O   0  0  0  0  0  0  0  0  0  0  0  0
  -21.4907  -22.8153   26.0582 O   0  0  0  0  0  0  0  0  0  0  0  0
  -25.7608  -11.7840   20.5677 O   0  0  0  0  0  0  0  0  0  0  0  0
  -19.9830  -29.1561   20.1224 O   0  0  0  0  0  0  0  0  0  1  0  0
  -21.3915   -8.5719   21.5655 F   0  0  0  0  0  0  0  0  0  0  0  0
  -24.5214  -10.3994   18.5209 F   0  0  0  0  0  0  0  0  0  0  0  0
  1  2  1  0  0  0  0
  1  5  2  0  0  0  0
  2  6  2  0  0  0  0
  3  8  2  0  0  0  0
  3 15  1  0  0  0  0
  4  9  1  0  0  0  0
  4 15  2  0  0  0  0
  5 17  1  0  0  0  0
  6 19  1  0  0  0  0
  7 10  2  0  0  0  0
  7 18  1  0  0  0  0
  8 27  1  0  0  0  0
  9 27  2  0  0  0  0
 10 28  1  0  0  0  0
 11 12  2  0  0  0  0
 11 29  1  0  0  0  0
 12 30  1  0  0  0  0
 13 20  1  0  0  0  0
 13 28  2  0  0  0  0
 14 30  2  0  0  0  0
 14 31  1  0  0  0  0
 15 32  1  0  0  0  0
 16 32  1  0  0  0  0
 16 33  2  0  0  0  0
 16 34  1  0  0  0  0
 17 19  2  0  0  0  0
 17 39  1  0  0  0  0
 18 20  2  0  0  0  0
 18 40  1  0  0  0  0
 19 48  1  0  0  0  0
 20 41  1  0  0  0  0
 21 22  1  0  0  0  0
 21 23  2  0  0  0  0
 21 51  1  0  0  0  0
 22 25  2  0  0  0  0
 22 52  1  0  0  0  0
 23 26  1  0  0  0  0
 23 53  1  0  0  0  0
 24 25  1  0  0  0  0
 24 26  2  0  0  0  0
 24 54  1  0  0  0  0
 25 60  1  0  0  0  0
 26 61  1  0  0  0  0
 27 82  1  0  0  0  0
 28 83  1  0  0  0  0
 29 31  2  0  0  0  0
 29 82  1  0  0  0  0
 30 84  1  0  0  0  0
 31 85  1  0  0  0  0
 32 67  2  0  0  0  0
 33 68  1  0  0  0  0
 33 71  1  0  0  0  0
 34 72  1  0  0  0  0
 34 77  2  0  0  0  0
 35 49  1  0  0  0  0
 35 73  1  0  0  0  0
 35 78  2  0  0  0  0
 36 64  1  0  0  0  0
 36 69  1  0  0  0  0
 36 79  2  0  0  0  0
 37 65  1  0  0  0  0
 37 74  1  0  0  0  0
 37 80  2  0  0  0  0
 38 70  1  0  0  0  0
 38 75  1  0  0  0  0
 38 81  2  0  0  0  0
 39 42  1  0  0  0  0
 40 49  1  0  0  0  0
 41 69  1  0  0  0  0
 42 44  1  0  0  0  0
 43 45  1  0  0  0  0
 43 46  1  0  0  0  0
 44 48  1  0  0  0  0
 45 50  1  0  0  0  0
 46 70  1  0  0  0  0
 47 50  1  0  0  0  0
 47 70  1  0  0  0  0
 48 73  1  0  0  0  0
 49 69  1  0  0  0  0
 50 68  1  0  0  0  0
 55 65  1  0  0  0  0
 56 66  1  0  0  0  0
 57 66  1  0  0  0  0
 58 66  1  0  0  0  0
 59 76  1  0  0  0  0
 60 62  1  0  0  0  0
 61 63  1  0  0  0  0
 62 75  1  0  0  0  0
 63 83  1  0  0  0  0
 64 66  1  0  0  0  0
 64 74  1  0  0  0  0
 65 76  1  0  0  0  0
 67 68  1  0  0  0  0
M  CHG  1  76   1
M  ISO  4  38 100  63 101  75 100  83 101
M  END
> <Batch ID>
0165

> <Smiles>
CNC(C)C(=O)NC(C(=O)N1Cc2cc([101O:1][101CH2:1]Cc3c(C)c(C)c(C)c(CC[100NH:0][100C:0](=O)N4CCCC(n5nc(-c6ccc(Oc7ccc(F)cc7F)cc6)c(C(N)=O)c5N)C4)c3C)ccc2CC1C(=O)NC1CCCc2ccccc21)C(C)(C)C

> <Shape>
0.260

> <Color>
0.074

> <Negative vol penalty>
0.000

$$$$

  -OEChem-04052322223D

 88 98  0     1  0  0  0  0  0999 V2000
  -32.2329  -14.0645   21.0975 C   0  0  0  0  0  0  0  0  0  0  0  0
  -31.4518  -15.1739   21.4049 C   0  0  0  0  0  0  0  0  0  0  0  0
  -26.9795  -28.0326   22.6584 C   0  0  0  0  0  0  0  0  0  0  0  0
  -27.9167  -29.6759   21.1556 C   0  0  0  0  0  0  0  0  0  0  0  0
  -31.6783  -12.9962   20.3941 C   0  0  0  0  0  0  0  0  0  0  0  0
  -30.1157  -15.2161   21.0081 C   0  0  0  0  0  0  0  0  0  0  0  0
  -25.4537  -17.7803   24.0405 C   0  0  0  0  0  0  0  0  0  0  0  0
  -28.0714  -27.1966   22.4252 C   0  0  0  0  0  0  0  0  0  0  0  0
  -29.0086  -28.8399   20.9224 C   0  0  0  0  0  0  0  0  0  0  0  0
  -24.8143  -19.0123   23.9100 C   0  0  0  0  0  0  0  0  0  0  0  0
  -30.4368  -24.4763   21.9468 C   0  0  0  0  0  0  0  0  0  0  0  0
  -30.1826  -23.1247   21.7145 C   0  0  0  0  0  0  0  0  0  0  0  0
  -23.1178  -17.9801   22.5405 C   0  0  0  0  0  0  0  0  0  0  0  0
  -21.9800  -23.1172   24.5131 C   0  0  0  0  0  0  0  0  0  0  0  0
  -28.8507  -23.7068   19.7846 C   0  0  0  0  0  0  0  0  0  0  0  0
  -26.9021  -29.2723   22.0236 C   0  0  0  0  0  0  0  0  0  0  0  0
  -25.6542  -31.1194   23.2639 C   0  0  0  0  0  0  0  0  0  0  0  0
  -30.3321  -13.0210   19.9968 C   0  0  0  0  0  0  0  0  0  0  0  0
  -24.9350  -16.6391   23.4119 C   0  0  0  0  0  0  0  0  0  0  0  0
  -29.5429  -14.1476   20.2974 C   0  0  0  0  0  0  0  0  0  0  0  0
  -23.7511  -16.7342   22.6666 C   0  0  0  0  0  0  0  0  0  0  0  0
  -22.7755  -22.6473   23.4682 C   0  0  0  0  0  0  0  0  0  0  0  0
  -21.1885  -24.2514   24.3315 C   0  0  0  0  0  0  0  0  0  0  0  0
  -22.7798  -23.3115   22.2417 C   0  0  0  0  0  0  0  0  0  0  0  0
  -21.9883  -24.4457   22.0600 C   0  0  0  0  0  0  0  0  0  0  0  0
  -21.1927  -24.9156   23.1049 C   0  0  0  0  0  0  0  0  0  0  0  0
  -29.0860  -27.6002   21.5572 C   0  0  0  0  0  0  0  0  0  0  0  0
  -23.6478  -19.1130   23.1575 C   0  0  0  0  0  0  0  0  0  0  0  0
  -29.8978  -25.4433   21.0981 C   0  0  0  0  0  0  0  0  0  0  0  0
  -29.3896  -22.7399   20.6334 C   0  0  0  0  0  0  0  0  0  0  0  0
  -29.1048  -25.0585   20.0170 C   0  0  0  0  0  0  0  0  0  0  0  0
  -25.7742  -30.1361   22.2637 C   0  0  0  0  0  0  0  0  0  0  0  0
  -24.4048  -31.6559   23.0699 C   0  0  0  0  0  0  0  0  0  0  0  0
  -26.5887  -31.5129   24.2776 C   0  0  0  0  0  0  0  0  0  0  0  0
  -25.9887  -14.6304   21.1851 C   0  0  0  0  0  0  0  0  0  0  0  0
  -23.2694  -13.0165   21.9083 C   0  0  0  0  0  0  0  0  0  0  0  0
  -20.0976  -13.1008   23.1651 C   0  0  0  0  0  0  0  0  0  0  0  0
  -19.6179  -29.1076   20.2302 C   0  0  0  0  0  0  0  0  0  0  0  0
  -29.7897  -11.8631   19.1970 C   0  0  0  0  0  0  0  0  0  0  0  0
  -25.6219  -15.3122   23.5844 C   0  0  0  0  0  0  0  0  0  0  0  0
  -23.1423  -15.5350   21.9886 C   0  0  0  0  0  0  0  0  0  0  0  0
  -28.2647  -11.8237   19.1396 C   0  0  0  0  0  0  0  0  0  0  0  0
  -21.1360  -32.4458   19.6691 C   0  0  0  0  0  0  0  0  0  0  0  0
  -27.7068  -13.2065   18.8181 C   0  0  0  0  0  0  0  0  0  0  0  0
  -22.5222  -32.2806   20.2910 C   0  0  0  0  0  0  0  0  0  0  0  0
  -18.5941  -28.2469   23.4450 C   0  0  0  0  0  0  0  0  0  0  0  0
  -18.1192  -26.7941   23.2917 C   0  0  0  0  0  0  0  0  0  0  0  0
  -20.5751  -31.1168   19.1716 C   0  0  0  0  0  0  0  0  0  0  0  0
  -21.9354  -29.8843   20.8235 C   0  0  0  0  0  0  0  0  0  0  0  0
  -20.9280  -27.3891   23.2264 C   0  0  0  0  0  0  0  0  0  0  0  0
  -19.1329  -26.8102   21.0072 C   0  0  0  0  0  0  0  0  0  0  0  0
  -28.0829  -14.2198   19.9058 C   0  0  1  0  0  0  0  0  0  0  0  0
  -25.2876  -14.3178   22.4768 C   0  0  1  0  0  0  0  0  0  0  0  0
  -22.5064  -31.1956   21.3818 C   0  0  1  0  0  0  0  0  0  0  0  0
  -19.9254  -28.4323   22.6915 C   0  0  1  0  0  0  0  0  0  0  0  0
  -19.0564  -26.0313   22.3300 C   0  0  1  0  0  0  0  0  0  0  0  0
  -20.3466  -24.7308   25.4692 C   0  0  0  0  0  0  0  0  0  0  0  0
  -23.6344  -22.8050   21.1232 C   0  0  0  0  0  0  0  0  0  0  0  0
  -21.9959  -25.1559   20.7423 C   0  0  0  0  0  0  0  0  0  0  0  0
  -18.1078  -11.6323   23.5909 C   0  0  0  0  0  0  0  0  0  0  0  0
  -22.5906  -13.0780   18.9342 C   0  0  0  0  0  0  0  0  0  0  0  0
  -20.2342  -12.4785   19.5308 C   0  0  0  0  0  0  0  0  0  0  0  0
  -22.0944  -10.9074   20.0728 C   0  0  0  0  0  0  0  0  0  0  0  0
  -20.2106  -13.5956   26.0808 C   0  0  0  0  0  0  0  0  0  0  0  0
  -23.6140  -21.4308   23.6888 C   0  0  0  0  0  0  0  0  0  1  0  0
  -21.8460  -13.0411   21.4061 C   0  0  1  0  0  0  0  0  0  0  0  0
  -19.3887  -12.2118   24.1708 C   0  0  2  0  0  0  0  0  0  0  0  0
  -21.7036  -12.3994   19.9970 C   0  0  0  0  0  0  0  0  0  0  0  0
  -24.6875  -30.0505   21.4917 N   0  0  0  0  0  0  0  0  0  0  0  0
  -23.8729  -30.9870   22.0070 N   0  0  0  0  0  0  0  0  0  0  0  0
  -20.4052  -26.0439   22.9263 N   0  0  3  0  0  0  0  0  0  0  0  0
  -23.8544  -14.2610   22.1818 N   0  0  0  0  0  0  0  0  0  0  0  0
  -20.6153  -30.0926   20.2152 N   0  0  0  0  0  0  0  0  0  0  0  0
  -19.6726  -28.1547   21.2551 N   0  0  0  0  0  0  0  0  0  0  0  0
  -23.7202  -32.6296   23.7067 N   0  0  0  0  0  0  0  0  0  0  0  0
  -27.8267  -30.8585   24.3353 N   0  0  0  0  0  0  0  0  0  0  0  0
  -27.2376  -14.0506   21.0682 N   0  0  0  0  0  0  0  0  0  0  0  0
  -21.0378  -12.4012   22.4385 N   0  0  0  0  0  0  0  0  0  0  0  0
  -19.0414  -12.9884   25.3944 N   0  3  0  0  0  0  0  0  0  0  0  0
  -26.3270  -32.4067   25.1179 O   0  0  0  0  0  0  0  0  0  0  0  0
  -25.4369  -15.3435   20.3553 O   0  0  0  0  0  0  0  0  0  0  0  0
  -23.8388  -11.9327   22.0595 O   0  0  0  0  0  0  0  0  0  0  0  0
  -19.8403  -14.2955   23.0344 O   0  0  0  0  0  0  0  0  0  0  0  0
  -18.7154  -29.0929   19.3833 O   0  0  0  0  0  0  0  0  0  0  0  0
  -30.1517  -26.7848   21.3296 O   0  0  0  0  0  0  0  0  0  0  0  0
  -23.0176  -20.3230   23.0271 O   0  0  0  0  0  0  0  0  0  1  0  0
  -29.1469  -21.4417   20.4095 F   0  0  0  0  0  0  0  0  0  0  0  0
  -28.5853  -25.9828   19.1975 F   0  0  0  0  0  0  0  0  0  0  0  0
  1  2  1  0  0  0  0
  1  5  2  0  0  0  0
  2  6  2  0  0  0  0
  3  8  2  0  0  0  0
  3 16  1  0  0  0  0
  4  9  1  0  0  0  0
  4 16  2  0  0  0  0
  5 18  1  0  0  0  0
  6 20  1  0  0  0  0
  7 10  2  0  0  0  0
  7 19  1  0  0  0  0
  8 27  1  0  0  0  0
  9 27  2  0  0  0  0
 10 28  1  0  0  0  0
 11 12  2  0  0  0  0
 11 29  1  0  0  0  0
 12 30  1  0  0  0  0
 13 21  1  0  0  0  0
 13 28  2  0  0  0  0
 14 22  1  0  0  0  0
 14 23  2  0  0  0  0
 15 30  2  0  0  0  0
 15 31  1  0  0  0  0
 16 32  1  0  0  0  0
 17 32  1  0  0  0  0
 17 33  2  0  0  0  0
 17 34  1  0  0  0  0
 18 20  2  0  0  0  0
 18 39  1  0  0  0  0
 19 21  2  0  0  0  0
 19 40  1  0  0  0  0
 20 52  1  0  0  0  0
 21 41  1  0  0  0  0
 22 24  2  0  0  0  0
 22 65  1  0  0  0  0
 23 26  1  0  0  0  0
 23 57  1  0  0  0  0
 24 25  1  0  0  0  0
 24 58  1  0  0  0  0
 25 26  2  0  0  0  0
 25 59  1  0  0  0  0
 26 71  1  0  0  0  0
 27 85  1  0  0  0  0
 28 86  1  0  0  0  0
 29 31  2  0  0  0  0
 29 85  1  0  0  0  0
 30 87  1  0  0  0  0
 31 88  1  0  0  0  0
 32 69  2  0  0  0  0
 33 70  1  0  0  0  0
 33 75  1  0  0  0  0
 34 76  1  0  0  0  0
 34 80  2  0  0  0  0
 35 53  1  0  0  0  0
 35 77  1  0  0  0  0
 35 81  2  0  0  0  0
 36 66  1  0  0  0  0
 36 72  1  0  0  0  0
 36 82  2  0  0  0  0
 37 67  1  0  0  0  0
 37 78  1  0  0  0  0
 37 83  2  0  0  0  0
 38 73  1  0  0  0  0
 38 74  1  0  0  0  0
 38 84  2  0  0  0  0
 39 42  1  0  0  0  0
 40 53  1  0  0  0  0
 41 72  1  0  0  0  0
 42 44  1  0  0  0  0
 43 45  1  0  0  0  0
 43 48  1  0  0  0  0
 44 52  1  0  0  0  0
 45 54  1  0  0  0  0
 46 47  1  0  0  0  0
 46 55  1  0  0  0  0
 47 56  1  0  0  0  0
 48 73  1  0  0  0  0
 49 54  1  0  0  0  0
 49 73  1  0  0  0  0
 50 55  1  0  0  0  0
 50 71  1  0  0  0  0
 51 56  1  0  0  0  0
 51 74  1  0  0  0  0
 52 77  1  0  0  0  0
 53 72  1  0  0  0  0
 54 70  1  0  0  0  0
 55 74  1  0  0  0  0
 56 71  1  0  0  0  0
 60 67  1  0  0  0  0
 61 68  1  0  0  0  0
 62 68  1  0  0  0  0
 63 68  1  0  0  0  0
 64 79  1  0  0  0  0
 65 86  1  0  0  0  0
 66 68  1  0  0  0  0
 66 78  1  0  0  0  0
 67 79  1  0  0  0  0
 69 70  1  0  0  0  0
M  CHG  1  79   1
M  ISO  4  38 100  65 101  74 100  86 101
M  END
> <Batch ID>
0165

> <Smiles>
CNC(C)C(=O)NC(C(=O)N1Cc2cc([101O:1][101CH2:1]c3cc(C)c(N4CC5CCC4C[100N:0]5[100C:0](=O)N4CCCC(n5nc(-c6ccc(Oc7ccc(F)cc7F)cc6)c(C(N)=O)c5N)C4)c(C)c3C)ccc2CC1C(=O)NC1CCCc2ccccc21)C(C)(C)C

> <Shape>
0.279

> <Color>
0.093

> <Negative vol penalty>
0.000

$$$$

  -OEChem-04052322223D

 87 96  0     1  0  0  0  0  0999 V2000
  -25.2439  -24.3964   16.5191 C   0  0  0  0  0  0  0  0  0  0  0  0
  -26.4585  -23.7425   16.6997 C   0  0  0  0  0  0  0  0  0  0  0  0
  -23.0757   -9.8676   19.9382 C   0  0  0  0  0  0  0  0  0  0  0  0
  -23.8362   -9.8709   22.2314 C   0  0  0  0  0  0  0  0  0  0  0  0
  -25.2092  -25.7872   16.4272 C   0  0  0  0  0  0  0  0  0  0  0  0
  -27.6393  -24.4790   16.7875 C   0  0  0  0  0  0  0  0  0  0  0  0
  -30.6389  -22.8998   20.5496 C   0  0  0  0  0  0  0  0  0  0  0  0
  -22.3322   -8.7138   20.1864 C   0  0  0  0  0  0  0  0  0  0  0  0
  -23.0926   -8.7171   22.4796 C   0  0  0  0  0  0  0  0  0  0  0  0
  -31.3852  -21.7436   20.3263 C   0  0  0  0  0  0  0  0  0  0  0  0
  -19.8648   -7.9174   23.0816 C   0  0  0  0  0  0  0  0  0  0  0  0
  -19.1082   -7.8753   24.2526 C   0  0  0  0  0  0  0  0  0  0  0  0
  -30.5028  -18.3351   24.0590 C   0  0  0  0  0  0  0  0  0  0  0  0
  -33.3240  -23.0954   19.8438 C   0  0  0  0  0  0  0  0  0  0  0  0
  -32.0636  -16.5910   22.5409 C   0  0  0  0  0  0  0  0  0  0  0  0
  -20.3503   -5.9370   24.9855 C   0  0  0  0  0  0  0  0  0  0  0  0
  -23.8278  -10.4461   20.9607 C   0  0  0  0  0  0  0  0  0  0  0  0
  -24.1689  -12.9715   20.8449 C   0  0  0  0  0  0  0  0  0  0  0  0
  -26.3890  -26.5417   16.5235 C   0  0  0  0  0  0  0  0  0  0  0  0
  -31.2277  -24.1649   20.4109 C   0  0  0  0  0  0  0  0  0  0  0  0
  -27.6205  -25.8811   16.6955 C   0  0  0  0  0  0  0  0  0  0  0  0
  -29.8956  -17.4610   23.1574 C   0  0  0  0  0  0  0  0  0  0  0  0
  -32.5836  -24.2661   20.0685 C   0  0  0  0  0  0  0  0  0  0  0  0
  -31.8904  -18.3372   24.2015 C   0  0  0  0  0  0  0  0  0  0  0  0
  -32.6708  -17.4652   23.4424 C   0  0  0  0  0  0  0  0  0  0  0  0
  -30.6760  -16.5889   22.3984 C   0  0  0  0  0  0  0  0  0  0  0  0
  -22.3406   -8.1386   21.4571 C   0  0  0  0  0  0  0  0  0  0  0  0
  -32.7272  -21.8413   19.9705 C   0  0  0  0  0  0  0  0  0  0  0  0
  -20.8642   -6.9693   22.8625 C   0  0  0  0  0  0  0  0  0  0  0  0
  -19.3509   -6.8851   25.2046 C   0  0  0  0  0  0  0  0  0  0  0  0
  -21.1069   -5.9791   23.8144 C   0  0  0  0  0  0  0  0  0  0  0  0
  -24.5965  -11.6376   20.7048 C   0  0  0  0  0  0  0  0  0  0  0  0
  -25.2608  -13.7219   20.4826 C   0  0  0  0  0  0  0  0  0  0  0  0
  -22.8984  -13.4863   21.2650 C   0  0  0  0  0  0  0  0  0  0  0  0
  -30.7278  -26.6775   18.5293 C   0  0  0  0  0  0  0  0  0  0  0  0
  -32.9683  -28.0543   20.4285 C   0  0  0  0  0  0  0  0  0  0  0  0
  -35.6167  -27.6534   22.5432 C   0  0  0  0  0  0  0  0  0  0  0  0
  -30.7268  -14.7686   20.6577 C   0  0  0  0  0  0  0  0  0  0  0  0
  -26.3070  -28.0400   16.3710 C   0  0  0  0  0  0  0  0  0  0  0  0
  -30.4160  -25.4020   20.6814 C   0  0  0  0  0  0  0  0  0  0  0  0
  -33.2682  -25.6001   19.9264 C   0  0  0  0  0  0  0  0  0  0  0  0
  -27.5593  -28.7703   16.8492 C   0  0  0  0  0  0  0  0  0  0  0  0
  -29.6124  -12.3585   18.2856 C   0  0  0  0  0  0  0  0  0  0  0  0
  -27.8010  -17.6957   21.6636 C   0  0  0  0  0  0  0  0  0  0  0  0
  -27.7203  -18.7772   22.6951 C   0  0  0  0  0  0  0  0  0  0  0  0
  -28.8132  -28.0890   16.3102 C   0  0  0  0  0  0  0  0  0  0  0  0
  -28.1729  -12.0658   18.7150 C   0  0  0  0  0  0  0  0  0  0  0  0
  -30.5277  -12.5855   19.4874 C   0  0  0  0  0  0  0  0  0  0  0  0
  -28.6209  -13.3071   20.8704 C   0  0  0  0  0  0  0  0  0  0  0  0
  -28.4078  -17.4794   23.0237 C   0  0  0  0  0  0  0  0  0  0  0  0
  -28.9198  -26.6467   16.8202 C   0  0  1  0  0  0  0  0  0  0  0  0
  -30.9842  -26.6482   20.0095 C   0  0  1  0  0  0  0  0  0  0  0  0
  -27.6479  -13.1356   19.6925 C   0  0  2  0  0  0  0  0  0  0  0  0
  -32.5188  -19.2823   25.1725 C   0  0  0  0  0  0  0  0  0  0  0  0
  -37.2638  -28.9654   23.9082 C   0  0  0  0  0  0  0  0  0  0  0  0
  -34.5060  -28.7608   17.8896 C   0  0  0  0  0  0  0  0  0  0  0  0
  -36.5208  -29.1896   19.3126 C   0  0  0  0  0  0  0  0  0  0  0  0
  -34.4633  -30.5661   19.6198 C   0  0  0  0  0  0  0  0  0  0  0  0
  -34.6794  -26.4251   25.0674 C   0  0  0  0  0  0  0  0  0  0  0  0
  -35.3375  -19.4249   20.5172 C   0  0  0  0  0  0  0  0  0  0  0  0
  -34.9481  -17.7048   22.2859 C   0  0  0  0  0  0  0  0  0  0  0  0
  -34.8541  -20.7795   20.0380 C   0  0  0  0  0  0  0  0  0  1  0  0
  -34.1772  -17.4479   23.5809 C   0  0  2  0  0  0  0  0  0  0  0  0
  -34.4738  -28.1616   20.4008 C   0  0  1  0  0  0  0  0  0  0  0  0
  -35.9193  -28.2547   23.9038 C   0  0  2  0  0  0  0  0  0  0  0  0
  -34.9779  -29.1443   19.3064 C   0  0  0  0  0  0  0  0  0  0  0  0
  -25.8613  -11.5428   20.2860 N   0  0  0  0  0  0  0  0  0  0  0  0
  -26.2378  -12.8267   20.1598 N   0  0  0  0  0  0  0  0  0  0  0  0
  -32.4306  -26.7807   20.1951 N   0  0  0  0  0  0  0  0  0  0  0  0
  -29.9687  -13.6147   20.3667 N   0  0  0  0  0  0  0  0  0  0  0  0
  -25.4708  -15.0535   20.4118 N   0  0  0  0  0  0  0  0  0  0  0  0
  -21.8868  -12.5763   21.6010 N   0  0  0  0  0  0  0  0  0  0  0  0
  -30.0794  -15.6921   21.4778 N   0  0  0  0  0  0  0  0  0  0  0  0
  -29.3895  -26.6280   18.1889 N   0  0  0  0  0  0  0  0  0  0  0  0
  -34.8829  -28.5153   21.7557 N   0  0  0  0  0  0  0  0  0  0  0  0
  -35.9472  -27.1899   24.9461 N   0  3  0  0  0  0  0  0  0  0  0  0
  -34.5814  -19.0374   21.7347 N   0  3  0  0  0  0  0  0  0  0  0  0
  -22.6619  -14.7168   21.3245 O   0  0  0  0  0  0  0  0  0  0  0  0
  -31.6742  -26.7419   17.7534 O   0  0  0  0  0  0  0  0  0  0  0  0
  -32.2943  -29.0621   20.6563 O   0  0  0  0  0  0  0  0  0  0  0  0
  -35.9967  -26.5329   22.2107 O   0  0  0  0  0  0  0  0  0  0  0  0
  -31.8557  -14.9384   20.1900 O   0  0  0  0  0  0  0  0  0  0  0  0
  -21.6150   -7.0129   21.6997 O   0  0  0  0  0  0  0  0  0  0  0  0
  -33.4577  -20.7143   19.7513 O   0  0  0  0  0  0  0  0  0  1  0  0
  -18.6253   -6.8457   26.3298 F   0  0  0  0  0  0  0  0  0  0  0  0
  -22.0664   -5.0662   23.6100 F   0  0  0  0  0  0  0  0  0  0  0  0
  -34.6790  -15.8634   24.2594 Cl  0  0  0  0  0  0  0  0  0  0  0  0
  1  2  1  0  0  0  0
  1  5  2  0  0  0  0
  2  6  2  0  0  0  0
  3  8  2  0  0  0  0
  3 17  1  0  0  0  0
  4  9  1  0  0  0  0
  4 17  2  0  0  0  0
  5 19  1  0  0  0  0
  6 21  1  0  0  0  0
  7 10  2  0  0  0  0
  7 20  1  0  0  0  0
  8 27  1  0  0  0  0
  9 27  2  0  0  0  0
 10 28  1  0  0  0  0
 11 12  2  0  0  0  0
 11 29  1  0  0  0  0
 12 30  1  0  0  0  0
 13 22  2  0  0  0  0
 13 24  1  0  0  0  0
 14 23  1  0  0  0  0
 14 28  2  0  0  0  0
 15 25  1  0  0  0  0
 15 26  2  0  0  0  0
 16 30  2  0  0  0  0
 16 31  1  0  0  0  0
 17 32  1  0  0  0  0
 18 32  1  0  0  0  0
 18 33  2  0  0  0  0
 18 34  1  0  0  0  0
 19 21  2  0  0  0  0
 19 39  1  0  0  0  0
 20 23  2  0  0  0  0
 20 40  1  0  0  0  0
 21 51  1  0  0  0  0
 22 26  1  0  0  0  0
 22 50  1  0  0  0  0
 23 41  1  0  0  0  0
 24 25  2  0  0  0  0
 24 54  1  0  0  0  0
 25 63  1  0  0  0  0
 26 73  1  0  0  0  0
 27 83  1  0  0  0  0
 28 84  1  0  0  0  0
 29 31  2  0  0  0  0
 29 83  1  0  0  0  0
 30 85  1  0  0  0  0
 31 86  1  0  0  0  0
 32 67  2  0  0  0  0
 33 68  1  0  0  0  0
 33 71  1  0  0  0  0
 34 72  1  0  0  0  0
 34 78  2  0  0  0  0
 35 52  1  0  0  0  0
 35 74  1  0  0  0  0
 35 79  2  0  0  0  0
 36 64  1  0  0  0  0
 36 69  1  0  0  0  0
 36 80  2  0  0  0  0
 37 65  1  0  0  0  0
 37 75  1  0  0  0  0
 37 81  2  0  0  0  0
 38 70  1  0  0  0  0
 38 73  1  0  0  0  0
 38 82  2  0  0  0  0
 39 42  1  0  0  0  0
 40 52  1  0  0  0  0
 41 69  1  0  0  0  0
 42 46  1  0  0  0  0
 43 47  1  0  0  0  0
 43 48  1  0  0  0  0
 44 45  1  0  0  0  0
 44 50  1  0  0  0  0
 45 50  1  0  0  0  0
 46 51  1  0  0  0  0
 47 53  1  0  0  0  0
 48 70  1  0  0  0  0
 49 53  1  0  0  0  0
 49 70  1  0  0  0  0
 51 74  1  0  0  0  0
 52 69  1  0  0  0  0
 53 68  1  0  0  0  0
 55 65  1  0  0  0  0
 56 66  1  0  0  0  0
 57 66  1  0  0  0  0
 58 66  1  0  0  0  0
 59 76  1  0  0  0  0
 60 62  1  0  0  0  0
 60 77  1  0  0  0  0
 61 63  1  0  0  0  0
 61 77  1  0  0  0  0
 62 84  1  0  0  0  0
 63 87  1  0  0  0  0
 64 66  1  0  0  0  0
 64 75  1  0  0  0  0
 65 76  1  0  0  0  0
 67 68  1  0  0  0  0
M  CHG  2  76   1  77   1
M  ISO  4  38 100  62 101  73 100  84 101
M  END
> <Batch ID>
0165

> <Smiles>
CNC(C)C(=O)NC(C(=O)N1Cc2cc([101O:1][101CH2:1]CNCC(Cl)c3cc([100NH:0][100C:0](=O)N4CCCC(n5nc(-c6ccc(Oc7ccc(F)cc7F)cc6)c(C(N)=O)c5N)C4)c(C4CC4)cc3C)ccc2CC1C(=O)NC1CCCc2ccccc21)C(C)(C)C

> <Shape>
0.212

> <Color>
0.192

> <Negative vol penalty>
0.000

$$$$

  -OEChem-04052322223D

 92103  0     1  0  0  0  0  0999 V2000
  -18.9775  -24.1344   23.5483 C   0  0  0  0  0  0  0  0  0  0  0  0
  -20.3619  -24.2066   23.4315 C   0  0  0  0  0  0  0  0  0  0  0  0
  -23.7954   -9.3284   21.4046 C   0  0  0  0  0  0  0  0  0  0  0  0
  -21.8568  -10.6847   21.8941 C   0  0  0  0  0  0  0  0  0  0  0  0
  -18.1912  -25.2307   23.1964 C   0  0  0  0  0  0  0  0  0  0  0  0
  -20.9608  -25.3750   22.9618 C   0  0  0  0  0  0  0  0  0  0  0  0
  -24.9902  -26.7338   25.7118 C   0  0  0  0  0  0  0  0  0  0  0  0
  -23.4179   -8.4290   22.4017 C   0  0  0  0  0  0  0  0  0  0  0  0
  -21.4794   -9.7853   22.8912 C   0  0  0  0  0  0  0  0  0  0  0  0
  -26.1789  -26.0417   25.4845 C   0  0  0  0  0  0  0  0  0  0  0  0
  -21.1917   -5.9113   22.7726 C   0  0  0  0  0  0  0  0  0  0  0  0
  -21.2504   -4.5501   22.4739 C   0  0  0  0  0  0  0  0  0  0  0  0
  -26.9675  -27.8598   24.1092 C   0  0  0  0  0  0  0  0  0  0  0  0
  -22.8281   -4.2231   24.2742 C   0  0  0  0  0  0  0  0  0  0  0  0
  -23.0148  -10.4563   21.1508 C   0  0  0  0  0  0  0  0  0  0  0  0
  -23.0378  -11.3525   18.7625 C   0  0  0  0  0  0  0  0  0  0  0  0
  -18.7814  -26.4164   22.7312 C   0  0  0  0  0  0  0  0  0  0  0  0
  -24.7764  -27.9915   25.1296 C   0  0  0  0  0  0  0  0  0  0  0  0
  -20.1816  -26.4877   22.6021 C   0  0  0  0  0  0  0  0  0  0  0  0
  -25.7763  -28.5670   24.3327 C   0  0  0  0  0  0  0  0  0  0  0  0
  -29.9147  -23.8101   21.7562 C   0  0  0  0  0  0  0  0  0  0  0  0
  -30.8955  -23.8844   20.7673 C   0  0  0  0  0  0  0  0  0  0  0  0
  -28.9599  -22.7940   21.7168 C   0  0  0  0  0  0  0  0  0  0  0  0
  -30.9215  -22.9425   19.7387 C   0  0  0  0  0  0  0  0  0  0  0  0
  -28.9859  -21.8522   20.6882 C   0  0  0  0  0  0  0  0  0  0  0  0
  -29.9666  -21.9264   19.6992 C   0  0  0  0  0  0  0  0  0  0  0  0
  -22.2600   -8.6574   23.1450 C   0  0  0  0  0  0  0  0  0  0  0  0
  -27.1666  -26.6034   24.6808 C   0  0  0  0  0  0  0  0  0  0  0  0
  -21.9512   -6.4284   23.8221 C   0  0  0  0  0  0  0  0  0  0  0  0
  -22.0685   -3.7060   23.2247 C   0  0  0  0  0  0  0  0  0  0  0  0
  -22.7694   -5.5843   24.5729 C   0  0  0  0  0  0  0  0  0  0  0  0
  -23.4045  -11.3859   20.1212 C   0  0  0  0  0  0  0  0  0  0  0  0
  -23.6619  -12.4449   18.2114 C   0  0  0  0  0  0  0  0  0  0  0  0
  -22.2071  -10.4177   18.0612 C   0  0  0  0  0  0  0  0  0  0  0  0
  -22.6696  -29.1796   23.0672 C   0  0  0  0  0  0  0  0  0  0  0  0
  -24.1458  -31.9809   23.7714 C   0  0  0  0  0  0  0  0  0  0  0  0
  -26.9457  -33.5788   24.8914 C   0  0  0  0  0  0  0  0  0  0  0  0
  -25.3701  -17.5620   20.2911 C   0  0  0  0  0  0  0  0  0  0  0  0
  -17.8874  -27.5587   22.3182 C   0  0  0  0  0  0  0  0  0  0  0  0
  -23.4996  -28.7370   25.4062 C   0  0  0  0  0  0  0  0  0  0  0  0
  -25.6042  -29.9233   23.7009 C   0  0  0  0  0  0  0  0  0  0  0  0
  -18.6227  -28.8897   22.1838 C   0  0  0  0  0  0  0  0  0  0  0  0
  -27.5024  -15.2379   18.7448 C   0  0  0  0  0  0  0  0  0  0  0  0
  -19.9175  -28.7074   21.3983 C   0  0  0  0  0  0  0  0  0  0  0  0
  -26.6521  -13.9687   18.7897 C   0  0  0  0  0  0  0  0  0  0  0  0
  -30.8240  -18.7997   17.5840 C   0  0  0  0  0  0  0  0  0  0  0  0
  -32.0356  -19.5697   18.0197 C   0  0  0  0  0  0  0  0  0  0  0  0
  -29.8377  -26.2812   22.5070 C   0  0  0  0  0  0  0  0  0  0  0  0
  -27.3876  -16.0505   20.0355 C   0  0  0  0  0  0  0  0  0  0  0  0
  -27.1357  -20.7236   19.4919 C   0  0  0  0  0  0  0  0  0  0  0  0
  -28.3271  -19.5869   21.3719 C   0  0  0  0  0  0  0  0  0  0  0  0
  -25.8764  -19.9327   19.8360 C   0  0  0  0  0  0  0  0  0  0  0  0
  -27.0445  -18.8264   21.6903 C   0  0  0  0  0  0  0  0  0  0  0  0
  -25.1447  -15.1012   20.4668 C   0  0  0  0  0  0  0  0  0  0  0  0
  -29.8874  -24.8201   22.8601 C   0  0  1  0  0  0  0  0  0  0  0  0
  -20.8699  -27.7463   22.1199 C   0  0  1  0  0  0  0  0  0  0  0  0
  -23.1776  -29.7848   24.3452 C   0  0  1  0  0  0  0  0  0  0  0  0
  -25.1941  -14.2935   19.1605 C   0  0  2  0  0  0  0  0  0  0  0  0
  -30.7309  -19.7520   18.7434 C   0  0  0  0  0  0  0  0  0  0  0  0
  -28.6276  -25.6142   23.0861 C   0  0  1  0  0  0  0  0  0  1  0  0
  -31.9213  -24.9730   20.8093 C   0  0  0  0  0  0  0  0  0  0  0  0
  -27.9083  -22.7158   22.7801 C   0  0  0  0  0  0  0  0  0  0  0  0
  -31.9757  -23.0249   18.6791 C   0  0  0  0  0  0  0  0  0  0  0  0
  -27.8655  -35.8739   25.3202 C   0  0  0  0  0  0  0  0  0  0  0  0
  -24.5567  -32.3737   20.7736 C   0  0  0  0  0  0  0  0  0  0  0  0
  -26.2609  -34.1283   21.3077 C   0  0  0  0  0  0  0  0  0  0  0  0
  -23.8890  -34.4398   22.0146 C   0  0  0  0  0  0  0  0  0  0  0  0
  -27.3052  -33.0222   27.7759 C   0  0  0  0  0  0  0  0  0  0  0  0
  -25.3257  -32.7380   23.2112 C   0  0  1  0  0  0  0  0  0  0  0  0
  -27.1336  -34.6819   25.9172 C   0  0  2  0  0  0  0  0  0  0  0  0
  -25.0108  -33.3935   21.8370 C   0  0  0  0  0  0  0  0  0  0  0  0
  -24.2001  -12.4177   20.4154 N   0  0  0  0  0  0  0  0  0  0  0  0
  -24.3384  -13.0427   19.2337 N   0  0  0  0  0  0  0  0  0  0  0  0
  -28.0265  -20.8322   20.6523 N   0  0  0  0  0  0  0  0  0  0  0  0
  -24.3358  -30.6101   23.9961 N   0  0  0  0  0  0  0  0  0  0  0  0
  -25.9792  -16.3007   20.3698 N   0  0  0  0  0  0  0  0  0  0  0  0
  -26.1929  -18.6783   20.5082 N   0  0  0  0  0  0  0  0  0  0  0  0
  -23.6925  -12.9427   16.9570 N   0  0  0  0  0  0  0  0  0  0  0  0
  -21.6450   -9.3536   18.7795 N   0  0  0  0  0  0  0  0  0  0  0  0
  -29.9954  -20.9722   18.6543 N   0  0  0  0  0  0  0  0  0  0  0  0
  -21.5271  -28.4176   23.2207 N   0  0  0  0  0  0  0  0  0  0  0  0
  -25.7322  -33.6835   24.2452 N   0  0  0  0  0  0  0  0  0  0  0  0
  -27.9212  -34.1805   27.0788 N   0  3  0  0  0  0  0  0  0  0  0  0
  -21.9838  -10.5135   16.8306 O   0  0  0  0  0  0  0  0  0  0  0  0
  -23.2689  -29.3898   22.0192 O   0  0  0  0  0  0  0  0  0  0  0  0
  -23.0967  -32.5851   24.0079 O   0  0  0  0  0  0  0  0  0  0  0  0
  -27.7925  -32.7131   24.6816 O   0  0  0  0  0  0  0  0  0  0  0  0
  -24.1651  -17.6858   20.0392 O   0  0  0  0  0  0  0  0  0  0  0  0
  -21.8912   -7.7799   24.1179 O   0  0  0  0  0  0  0  0  0  0  0  0
  -28.3300  -25.9282   24.4563 O   0  0  0  0  0  0  0  0  0  1  0  0
  -22.1236   -2.3985   22.9387 F   0  0  0  0  0  0  0  0  0  0  0  0
  -23.5005   -6.0751   25.5831 F   0  0  0  0  0  0  0  0  0  0  0  0
  1  2  1  0  0  0  0
  1  5  2  0  0  0  0
  2  6  2  0  0  0  0
  3  8  2  0  0  0  0
  3 15  1  0  0  0  0
  4  9  1  0  0  0  0
  4 15  2  0  0  0  0
  5 17  1  0  0  0  0
  6 19  1  0  0  0  0
  7 10  2  0  0  0  0
  7 18  1  0  0  0  0
  8 27  1  0  0  0  0
  9 27  2  0  0  0  0
 10 28  1  0  0  0  0
 11 12  2  0  0  0  0
 11 29  1  0  0  0  0
 12 30  1  0  0  0  0
 13 20  1  0  0  0  0
 13 28  2  0  0  0  0
 14 30  2  0  0  0  0
 14 31  1  0  0  0  0
 15 32  1  0  0  0  0
 16 32  1  0  0  0  0
 16 33  2  0  0  0  0
 16 34  1  0  0  0  0
 17 19  2  0  0  0  0
 17 39  1  0  0  0  0
 18 20  2  0  0  0  0
 18 40  1  0  0  0  0
 19 56  1  0  0  0  0
 20 41  1  0  0  0  0
 21 22  1  0  0  0  0
 21 23  2  0  0  0  0
 21 55  1  0  0  0  0
 22 24  2  0  0  0  0
 22 61  1  0  0  0  0
 23 25  1  0  0  0  0
 23 62  1  0  0  0  0
 24 26  1  0  0  0  0
 24 63  1  0  0  0  0
 25 26  2  0  0  0  0
 25 74  1  0  0  0  0
 26 80  1  0  0  0  0
 27 89  1  0  0  0  0
 28 90  1  0  0  0  0
 29 31  2  0  0  0  0
 29 89  1  0  0  0  0
 30 91  1  0  0  0  0
 31 92  1  0  0  0  0
 32 72  2  0  0  0  0
 33 73  1  0  0  0  0
 33 78  1  0  0  0  0
 34 79  1  0  0  0  0
 34 84  2  0  0  0  0
 35 57  1  0  0  0  0
 35 81  1  0  0  0  0
 35 85  2  0  0  0  0
 36 69  1  0  0  0  0
 36 75  1  0  0  0  0
 36 86  2  0  0  0  0
 37 70  1  0  0  0  0
 37 82  1  0  0  0  0
 37 87  2  0  0  0  0
 38 76  1  0  0  0  0
 38 77  1  0  0  0  0
 38 88  2  0  0  0  0
 39 42  1  0  0  0  0
 40 57  1  0  0  0  0
 41 75  1  0  0  0  0
 42 44  1  0  0  0  0
 43 45  1  0  0  0  0
 43 49  1  0  0  0  0
 44 56  1  0  0  0  0
 45 58  1  0  0  0  0
 46 47  1  0  0  0  0
 46 59  1  0  0  0  0
 47 59  1  0  0  0  0
 48 55  1  0  0  0  0
 48 60  1  0  0  0  0
 49 76  1  0  0  0  0
 50 52  1  0  0  0  0
 50 74  1  0  0  0  0
 51 53  1  0  0  0  0
 51 74  1  0  0  0  0
 52 77  1  0  0  0  0
 53 77  1  0  0  0  0
 54 58  1  0  0  0  0
 54 76  1  0  0  0  0
 55 60  1  0  0  0  0
 56 81  1  0  0  0  0
 57 75  1  0  0  0  0
 58 73  1  0  0  0  0
 59 80  1  0  0  0  0
 60 90  1  0  0  0  0
 64 70  1  0  0  0  0
 65 71  1  0  0  0  0
 66 71  1  0  0  0  0
 67 71  1  0  0  0  0
 68 83  1  0  0  0  0
 69 71  1  0  0  0  0
 69 82  1  0  0  0  0
 70 83  1  0  0  0  0
 72 73  1  0  0  0  0
M  CHG  1  83   1
M  ISO  4  38 100  60 101  77 100  90 101
M  END
> <Batch ID>
0165

> <Smiles>
CNC(C)C(=O)NC(C(=O)N1Cc2cc([101O:1][101CH:1]3CC3c3c(C)c(C)c(NC4CC4)c(N4CC[100N:0]([100C:0](=O)N5CCCC(n6nc(-c7ccc(Oc8ccc(F)cc8F)cc7)c(C(N)=O)c6N)C5)CC4)c3C)ccc2CC1C(=O)NC1CCCc2ccccc21)C(C)(C)C

> <Shape>
0.266

> <Color>
0.078

> <Negative vol penalty>
0.000

$$$$

  -OEChem-04052322223D

 84 93  0     1  0  0  0  0  0999 V2000
  -29.1316  -31.0681   26.7835 C   0  0  0  0  0  0  0  0  0  0  0  0
  -28.8274  -29.9429   26.0241 C   0  0  0  0  0  0  0  0  0  0  0  0
  -23.7370   -8.9709   19.7733 C   0  0  0  0  0  0  0  0  0  0  0  0
  -23.2789  -10.5190   21.5706 C   0  0  0  0  0  0  0  0  0  0  0  0
  -28.1382  -32.0034   27.0707 C   0  0  0  0  0  0  0  0  0  0  0  0
  -27.5292  -29.7517   25.5523 C   0  0  0  0  0  0  0  0  0  0  0  0
  -27.4194  -28.2942   20.7037 C   0  0  0  0  0  0  0  0  0  0  0  0
  -22.9556   -8.0045   20.4065 C   0  0  0  0  0  0  0  0  0  0  0  0
  -22.4974   -9.5526   22.2039 C   0  0  0  0  0  0  0  0  0  0  0  0
  -27.7066  -26.9567   20.4342 C   0  0  0  0  0  0  0  0  0  0  0  0
  -20.6753   -7.3748   24.4725 C   0  0  0  0  0  0  0  0  0  0  0  0
  -20.8492   -7.1977   25.8450 C   0  0  0  0  0  0  0  0  0  0  0  0
  -25.3467  -26.4950   20.2417 C   0  0  0  0  0  0  0  0  0  0  0  0
  -28.8299  -22.5363   18.3050 C   0  0  0  0  0  0  0  0  0  0  0  0
  -23.1667   -6.6226   25.4772 C   0  0  0  0  0  0  0  0  0  0  0  0
  -23.8988  -10.2282   20.3554 C   0  0  0  0  0  0  0  0  0  0  0  0
  -24.2783  -12.1871   18.7659 C   0  0  0  0  0  0  0  0  0  0  0  0
  -26.8295  -31.8284   26.5940 C   0  0  0  0  0  0  0  0  0  0  0  0
  -26.0910  -28.7405   20.7551 C   0  0  0  0  0  0  0  0  0  0  0  0
  -26.5171  -30.6848   25.8344 C   0  0  0  0  0  0  0  0  0  0  0  0
  -25.0454  -27.8391   20.5095 C   0  0  0  0  0  0  0  0  0  0  0  0
  -28.6219  -20.2092   18.9201 C   0  0  0  0  0  0  0  0  0  0  0  0
  -28.4221  -22.9112   19.5852 C   0  0  0  0  0  0  0  0  0  0  0  0
  -28.2142  -20.5841   20.2004 C   0  0  0  0  0  0  0  0  0  0  0  0
  -28.1143  -21.9351   20.5329 C   0  0  0  0  0  0  0  0  0  0  0  0
  -22.3358   -8.2953   21.6218 C   0  0  0  0  0  0  0  0  0  0  0  0
  -26.6701  -26.0564   20.2060 C   0  0  0  0  0  0  0  0  0  0  0  0
  -21.7470   -7.1757   23.6022 C   0  0  0  0  0  0  0  0  0  0  0  0
  -22.0949   -6.8217   26.3474 C   0  0  0  0  0  0  0  0  0  0  0  0
  -28.9297  -21.1853   17.9725 C   0  0  0  0  0  0  0  0  0  0  0  0
  -22.9928   -6.7997   24.1046 C   0  0  0  0  0  0  0  0  0  0  0  0
  -24.7063  -11.2267   19.7020 C   0  0  0  0  0  0  0  0  0  0  0  0
  -25.4153  -12.8903   18.4511 C   0  0  0  0  0  0  0  0  0  0  0  0
  -22.9698  -12.4225   18.2291 C   0  0  0  0  0  0  0  0  0  0  0  0
  -24.2426  -30.0288   22.9973 C   0  0  0  0  0  0  0  0  0  0  0  0
  -22.1430  -30.3297   20.5431 C   0  0  0  0  0  0  0  0  0  0  0  0
  -21.0902  -29.2490   17.4819 C   0  0  0  0  0  0  0  0  0  0  0  0
  -30.1184  -15.4757   19.9605 C   0  0  0  0  0  0  0  0  0  0  0  0
  -25.7783  -32.8425   26.9700 C   0  0  0  0  0  0  0  0  0  0  0  0
  -25.7990  -30.1919   21.0206 C   0  0  0  0  0  0  0  0  0  0  0  0
  -23.6031  -28.2722   20.5332 C   0  0  0  0  0  0  0  0  0  0  0  0
  -24.5154  -32.7556   26.1168 C   0  0  0  0  0  0  0  0  0  0  0  0
  -30.2697  -11.9543   19.5258 C   0  0  0  0  0  0  0  0  0  0  0  0
  -24.0599  -31.3060   25.9835 C   0  0  0  0  0  0  0  0  0  0  0  0
  -28.8019  -11.5288   19.4577 C   0  0  0  0  0  0  0  0  0  0  0  0
  -30.0368  -18.2599   17.9869 C   0  0  0  0  0  0  0  0  0  0  0  0
  -30.4815  -13.0925   20.5218 C   0  0  0  0  0  0  0  0  0  0  0  0
  -28.1525  -13.8440   20.2442 C   0  0  0  0  0  0  0  0  0  0  0  0
  -28.7353  -18.7687   18.5431 C   0  0  1  0  0  0  0  0  0  0  0  0
  -25.1264  -30.4547   25.2838 C   0  0  1  0  0  0  0  0  0  0  0  0
  -24.3906  -30.4296   21.5567 C   0  0  1  0  0  0  0  0  0  0  0  0
  -27.8781  -12.7371   19.2118 C   0  0  2  0  0  0  0  0  0  0  0  0
  -29.6172  -17.8654   19.3720 C   0  0  1  0  0  0  0  0  0  0  0  0
  -27.8839  -19.5371   21.2174 C   0  0  0  0  0  0  0  0  0  0  0  0
  -27.6768  -22.3396   21.9052 C   0  0  0  0  0  0  0  0  0  0  0  0
  -19.3252  -29.6627   15.7467 C   0  0  0  0  0  0  0  0  0  0  0  0
  -20.0999  -28.8703   22.2768 C   0  0  0  0  0  0  0  0  0  0  0  0
  -18.7351  -28.4766   20.2151 C   0  0  0  0  0  0  0  0  0  0  0  0
  -19.1809  -30.8062   20.9876 C   0  0  0  0  0  0  0  0  0  0  0  0
  -23.1045  -29.9758   15.4390 C   0  0  0  0  0  0  0  0  0  0  0  0
  -28.3231  -24.3711   19.9169 C   0  0  0  0  0  0  0  0  0  1  0  0
  -21.0566  -29.4632   19.9532 C   0  0  1  0  0  0  0  0  0  0  0  0
  -20.7308  -30.0052   16.2156 C   0  0  2  0  0  0  0  0  0  0  0  0
  -19.7951  -29.3952   20.8596 C   0  0  0  0  0  0  0  0  0  0  0  0
  -26.0133  -11.3094   19.9646 N   0  0  0  0  0  0  0  0  0  0  0  0
  -26.4164  -12.3300   19.1888 N   0  0  0  0  0  0  0  0  0  0  0  0
  -23.3685  -29.7003   20.8034 N   0  0  0  0  0  0  0  0  0  0  0  0
  -29.5781  -14.2078   20.2274 N   0  0  0  0  0  0  0  0  0  0  0  0
  -25.6465  -13.9271   17.6180 N   0  0  0  0  0  0  0  0  0  0  0  0
  -21.9141  -11.6079   18.6606 N   0  0  0  0  0  0  0  0  0  0  0  0
  -25.1021  -30.6876   23.8557 N   0  0  0  0  0  0  0  0  0  0  0  0
  -20.8026  -29.9823   18.6136 N   0  0  0  0  0  0  0  0  0  0  0  0
  -29.2000  -16.4823   19.6810 N   0  0  0  0  0  0  0  0  0  0  0  0
  -21.6860  -29.6685   15.1224 N   0  3  0  0  0  0  0  0  0  0  0  0
  -22.7468  -13.3177   17.3791 O   0  0  0  0  0  0  0  0  0  0  0  0
  -23.4094  -29.1854   23.3072 O   0  0  0  0  0  0  0  0  0  0  0  0
  -21.9149  -31.5228   20.7580 O   0  0  0  0  0  0  0  0  0  0  0  0
  -21.5741  -28.1193   17.4685 O   0  0  0  0  0  0  0  0  0  0  0  0
  -31.3336  -15.7007   19.9617 O   0  0  0  0  0  0  0  0  0  0  0  0
  -21.5730   -7.3526   22.2398 O   0  0  0  0  0  0  0  0  0  0  0  0
  -26.9477  -24.7503   19.9434 O   0  0  0  0  0  0  0  0  0  1  0  0
  -22.2622   -6.6532   27.6657 F   0  0  0  0  0  0  0  0  0  0  0  0
  -29.3225  -20.8375   16.7389 F   0  0  0  0  0  0  0  0  0  0  0  0
  -24.0265   -6.6081   23.2736 F   0  0  0  0  0  0  0  0  0  0  0  0
  1  2  1  0  0  0  0
  1  5  2  0  0  0  0
  2  6  2  0  0  0  0
  3  8  2  0  0  0  0
  3 16  1  0  0  0  0
  4  9  1  0  0  0  0
  4 16  2  0  0  0  0
  5 18  1  0  0  0  0
  6 20  1  0  0  0  0
  7 10  2  0  0  0  0
  7 19  1  0  0  0  0
  8 26  1  0  0  0  0
  9 26  2  0  0  0  0
 10 27  1  0  0  0  0
 11 12  2  0  0  0  0
 11 28  1  0  0  0  0
 12 29  1  0  0  0  0
 13 21  1  0  0  0  0
 13 27  2  0  0  0  0
 14 23  1  0  0  0  0
 14 30  2  0  0  0  0
 15 29  2  0  0  0  0
 15 31  1  0  0  0  0
 16 32  1  0  0  0  0
 17 32  1  0  0  0  0
 17 33  2  0  0  0  0
 17 34  1  0  0  0  0
 18 20  2  0  0  0  0
 18 39  1  0  0  0  0
 19 21  2  0  0  0  0
 19 40  1  0  0  0  0
 20 50  1  0  0  0  0
 21 41  1  0  0  0  0
 22 24  2  0  0  0  0
 22 30  1  0  0  0  0
 22 49  1  0  0  0  0
 23 25  2  0  0  0  0
 23 61  1  0  0  0  0
 24 25  1  0  0  0  0
 24 54  1  0  0  0  0
 25 55  1  0  0  0  0
 26 80  1  0  0  0  0
 27 81  1  0  0  0  0
 28 31  2  0  0  0  0
 28 80  1  0  0  0  0
 29 82  1  0  0  0  0
 30 83  1  0  0  0  0
 31 84  1  0  0  0  0
 32 65  2  0  0  0  0
 33 66  1  0  0  0  0
 33 69  1  0  0  0  0
 34 70  1  0  0  0  0
 34 75  2  0  0  0  0
 35 51  1  0  0  0  0
 35 71  1  0  0  0  0
 35 76  2  0  0  0  0
 36 62  1  0  0  0  0
 36 67  1  0  0  0  0
 36 77  2  0  0  0  0
 37 63  1  0  0  0  0
 37 72  1  0  0  0  0
 37 78  2  0  0  0  0
 38 68  1  0  0  0  0
 38 73  1  0  0  0  0
 38 79  2  0  0  0  0
 39 42  1  0  0  0  0
 40 51  1  0  0  0  0
 41 67  1  0  0  0  0
 42 44  1  0  0  0  0
 43 45  1  0  0  0  0
 43 47  1  0  0  0  0
 44 50  1  0  0  0  0
 45 52  1  0  0  0  0
 46 49  1  0  0  0  0
 46 53  1  0  0  0  0
 47 68  1  0  0  0  0
 48 52  1  0  0  0  0
 48 68  1  0  0  0  0
 49 53  1  0  0  0  0
 50 71  1  0  0  0  0
 51 67  1  0  0  0  0
 52 66  1  0  0  0  0
 53 73  1  0  0  0  0
 56 63  1  0  0  0  0
 57 64  1  0  0  0  0
 58 64  1  0  0  0  0
 59 64  1  0  0  0  0
 60 74  1  0  0  0  0
 61 81  1  0  0  0  0
 62 64  1  0  0  0  0
 62 72  1  0  0  0  0
 63 74  1  0  0  0  0
 65 66  1  0  0  0  0
M  CHG  1  74   1
M  ISO  4  38 100  61 101  73 100  81 101
M  END
> <Batch ID>
0165

> <Smiles>
CNC(C)C(=O)NC(C(=O)N1Cc2cc([101O:1][101CH2:1]c3cc(F)c(C4CC4[100NH:0][100C:0](=O)N4CCCC(n5nc(-c6ccc(Oc7ccc(F)cc7F)cc6)c(C(N)=O)c5N)C4)c(C)c3C)ccc2CC1C(=O)NC1CCCc2ccccc21)C(C)(C)C

> <Shape>
0.307

> <Color>
0.101

> <Negative vol penalty>
0.000

$$$$

  -OEChem-04052322223D

 91101  0     1  0  0  0  0  0999 V2000
  -17.5463  -26.0759   22.8432 C   0  0  0  0  0  0  0  0  0  0  0  0
  -18.8059  -25.7071   22.3820 C   0  0  0  0  0  0  0  0  0  0  0  0
  -22.4050  -16.9644   18.0840 C   0  0  0  0  0  0  0  0  0  0  0  0
  -22.6798  -16.3434   20.4026 C   0  0  0  0  0  0  0  0  0  0  0  0
  -17.1689  -27.4181   22.8385 C   0  0  0  0  0  0  0  0  0  0  0  0
  -19.6886  -26.6803   21.9149 C   0  0  0  0  0  0  0  0  0  0  0  0
  -25.7871  -26.6932   22.4757 C   0  0  0  0  0  0  0  0  0  0  0  0
  -21.3668  -16.0412   17.9598 C   0  0  0  0  0  0  0  0  0  0  0  0
  -21.6415  -15.4202   20.2784 C   0  0  0  0  0  0  0  0  0  0  0  0
  -26.8102  -26.3297   21.6012 C   0  0  0  0  0  0  0  0  0  0  0  0
  -19.3037  -12.6444   20.4764 C   0  0  0  0  0  0  0  0  0  0  0  0
  -19.4943  -11.3765   21.0257 C   0  0  0  0  0  0  0  0  0  0  0  0
  -27.0488  -28.6350   20.9319 C   0  0  0  0  0  0  0  0  0  0  0  0
  -32.3129  -25.0653   18.4905 C   0  0  0  0  0  0  0  0  0  0  0  0
  -21.4017  -11.0379   19.5819 C   0  0  0  0  0  0  0  0  0  0  0  0
  -23.0616  -17.1155   19.3054 C   0  0  0  0  0  0  0  0  0  0  0  0
  -24.0294  -19.4214   19.8093 C   0  0  0  0  0  0  0  0  0  0  0  0
  -18.0510  -28.4093   22.3801 C   0  0  0  0  0  0  0  0  0  0  0  0
  -25.3790  -28.0309   22.5771 C   0  0  0  0  0  0  0  0  0  0  0  0
  -19.3222  -28.0369   21.9029 C   0  0  0  0  0  0  0  0  0  0  0  0
  -26.0220  -29.0132   21.8104 C   0  0  0  0  0  0  0  0  0  0  0  0
  -31.2547  -25.2064   19.3882 C   0  0  0  0  0  0  0  0  0  0  0  0
  -29.9610  -25.4214   18.9130 C   0  0  0  0  0  0  0  0  0  0  0  0
  -29.7256  -25.4952   17.5401 C   0  0  0  0  0  0  0  0  0  0  0  0
  -30.7839  -25.3542   16.6424 C   0  0  0  0  0  0  0  0  0  0  0  0
  -20.9851  -15.2692   19.0569 C   0  0  0  0  0  0  0  0  0  0  0  0
  -27.4393  -27.3003   20.8270 C   0  0  0  0  0  0  0  0  0  0  0  0
  -20.1620  -13.1091   19.4798 C   0  0  0  0  0  0  0  0  0  0  0  0
  -32.0775  -25.1393   17.1176 C   0  0  0  0  0  0  0  0  0  0  0  0
  -20.5433  -10.5733   20.5784 C   0  0  0  0  0  0  0  0  0  0  0  0
  -21.2110  -12.3058   19.0326 C   0  0  0  0  0  0  0  0  0  0  0  0
  -24.1345  -18.0686   19.4343 C   0  0  0  0  0  0  0  0  0  0  0  0
  -25.3213  -19.8867   19.7817 C   0  0  0  0  0  0  0  0  0  0  0  0
  -22.8678  -20.1888   20.1520 C   0  0  0  0  0  0  0  0  0  0  0  0
  -22.6692  -29.5976   22.0239 C   0  0  0  0  0  0  0  0  0  0  0  0
  -24.3068  -32.0918   23.2966 C   0  0  0  0  0  0  0  0  0  0  0  0
  -27.3259  -33.5280   23.9817 C   0  0  0  0  0  0  0  0  0  0  0  0
  -30.6941  -18.8496   21.3366 C   0  0  0  0  0  0  0  0  0  0  0  0
  -17.5809  -29.8420   22.3502 C   0  0  0  0  0  0  0  0  0  0  0  0
  -24.2920  -28.4105   23.5449 C   0  0  0  0  0  0  0  0  0  0  0  0
  -25.6350  -30.4662   21.8971 C   0  0  0  0  0  0  0  0  0  0  0  0
  -18.7142  -30.8518   22.1886 C   0  0  0  0  0  0  0  0  0  0  0  0
  -29.5501  -17.8122   17.9668 C   0  0  0  0  0  0  0  0  0  0  0  0
  -19.6653  -30.4138   21.0793 C   0  0  0  0  0  0  0  0  0  0  0  0
  -28.0298  -17.8279   18.1151 C   0  0  0  0  0  0  0  0  0  0  0  0
  -32.2893  -21.7364   22.4130 C   0  0  0  0  0  0  0  0  0  0  0  0
  -30.4599  -22.3192   20.7711 C   0  0  0  0  0  0  0  0  0  0  0  0
  -32.7267  -25.9128   21.4787 C   0  0  0  0  0  0  0  0  0  0  0  0
  -30.2461  -17.5360   19.2957 C   0  0  0  0  0  0  0  0  0  0  0  0
  -31.4140  -20.5999   22.9346 C   0  0  0  0  0  0  0  0  0  0  0  0
  -29.6290  -21.1504   21.3090 C   0  0  0  0  0  0  0  0  0  0  0  0
  -28.3269  -18.4844   20.5364 C   0  0  0  0  0  0  0  0  0  0  0  0
  -33.0455  -24.6276   22.2582 C   0  0  0  0  0  0  0  0  0  0  0  0
  -20.3169  -29.0661   21.4114 C   0  0  1  0  0  0  0  0  0  0  0  0
  -31.5373  -25.1215   20.8896 C   0  0  2  0  0  0  0  0  0  0  0  0
  -23.6086  -29.7274   23.1894 C   0  0  1  0  0  0  0  0  0  0  0  0
  -27.5978  -18.8042   19.2226 C   0  0  2  0  0  0  0  0  0  0  0  0
  -31.4175  -22.8498   21.8359 C   0  0  0  0  0  0  0  0  0  0  0  0
  -28.3383  -25.7266   17.0297 C   0  0  0  0  0  0  0  0  0  0  0  0
  -30.5403  -25.4335   15.1687 C   0  0  0  0  0  0  0  0  0  0  0  0
  -28.3438  -35.5857   24.9951 C   0  0  0  0  0  0  0  0  0  0  0  0
  -23.6003  -33.6748   20.7857 C   0  0  0  0  0  0  0  0  0  0  0  0
  -25.3861  -35.3174   21.4032 C   0  0  0  0  0  0  0  0  0  0  0  0
  -23.4343  -34.9716   22.9177 C   0  0  0  0  0  0  0  0  0  0  0  0
  -28.7083  -31.9552   26.0731 C   0  0  0  0  0  0  0  0  0  0  0  0
  -34.4112  -24.7826   16.8307 C   0  0  0  0  0  0  0  0  0  0  0  0
  -28.8305  -25.5720   19.8804 C   0  0  0  0  0  0  0  0  0  1  0  0
  -25.2039  -33.1740   22.7463 C   0  0  1  0  0  0  0  0  0  0  0  0
  -27.8764  -34.1607   25.2470 C   0  0  2  0  0  0  0  0  0  0  0  0
  -24.4123  -34.2569   21.9599 C   0  0  0  0  0  0  0  0  0  0  0  0
  -25.3937  -17.6985   19.1865 N   0  0  0  0  0  0  0  0  0  0  0  0
  -26.0917  -18.8257   19.4061 N   0  0  0  0  0  0  0  0  0  0  0  0
  -24.5623  -30.7864   22.8533 N   0  0  0  0  0  0  0  0  0  0  0  0
  -29.7848  -18.4454   20.3448 N   0  0  0  0  0  0  0  0  0  0  0  0
  -30.4979  -20.1205   21.8978 N   0  0  0  0  0  0  0  0  0  0  0  0
  -25.8622  -21.0959   20.0422 N   0  0  0  0  0  0  0  0  0  0  0  0
  -21.6179  -19.5551   20.1296 N   0  0  0  0  0  0  0  0  0  0  0  0
  -21.3809  -29.2433   22.3763 N   0  0  0  0  0  0  0  0  0  0  0  0
  -25.9607  -33.6929   23.8805 N   0  0  0  0  0  0  0  0  0  0  0  0
  -32.2925  -23.8860   21.2291 N   0  3  2  0  0  0  0  0  0  0  0  0
  -29.0313  -33.3712   25.7607 N   0  3  0  0  0  0  0  0  0  0  0  0
  -22.9343  -21.4047   20.4528 O   0  0  0  0  0  0  0  0  0  0  0  0
  -23.0823  -29.8052   20.8890 O   0  0  0  0  0  0  0  0  0  0  0  0
  -23.4168  -32.3925   24.0961 O   0  0  0  0  0  0  0  0  0  0  0  0
  -28.0364  -32.9488   23.1630 O   0  0  0  0  0  0  0  0  0  0  0  0
  -31.6256  -18.1188   21.6962 O   0  0  0  0  0  0  0  0  0  0  0  0
  -19.9719  -14.3684   18.9361 O   0  0  0  0  0  0  0  0  0  0  0  0
  -33.1240  -24.9991   16.2563 O   0  0  0  0  0  0  0  0  0  0  0  0
  -28.4577  -26.9411   19.9550 O   0  0  0  0  0  0  0  0  0  1  0  0
  -20.7272   -9.3564   21.1070 F   0  0  0  0  0  0  0  0  0  0  0  0
  -22.0395  -12.7472   18.0763 F   0  0  0  0  0  0  0  0  0  0  0  0
  1  2  1  0  0  0  0
  1  5  2  0  0  0  0
  2  6  2  0  0  0  0
  3  8  2  0  0  0  0
  3 16  1  0  0  0  0
  4  9  1  0  0  0  0
  4 16  2  0  0  0  0
  5 18  1  0  0  0  0
  6 20  1  0  0  0  0
  7 10  2  0  0  0  0
  7 19  1  0  0  0  0
  8 26  1  0  0  0  0
  9 26  2  0  0  0  0
 10 27  1  0  0  0  0
 11 12  2  0  0  0  0
 11 28  1  0  0  0  0
 12 30  1  0  0  0  0
 13 21  1  0  0  0  0
 13 27  2  0  0  0  0
 14 22  2  0  0  0  0
 14 29  1  0  0  0  0
 15 30  2  0  0  0  0
 15 31  1  0  0  0  0
 16 32  1  0  0  0  0
 17 32  1  0  0  0  0
 17 33  2  0  0  0  0
 17 34  1  0  0  0  0
 18 20  2  0  0  0  0
 18 39  1  0  0  0  0
 19 21  2  0  0  0  0
 19 40  1  0  0  0  0
 20 54  1  0  0  0  0
 21 41  1  0  0  0  0
 22 23  1  0  0  0  0
 22 55  1  0  0  0  0
 23 24  2  0  0  0  0
 23 67  1  0  0  0  0
 24 25  1  0  0  0  0
 24 59  1  0  0  0  0
 25 29  2  0  0  0  0
 25 60  1  0  0  0  0
 26 87  1  0  0  0  0
 27 89  1  0  0  0  0
 28 31  2  0  0  0  0
 28 87  1  0  0  0  0
 29 88  1  0  0  0  0
 30 90  1  0  0  0  0
 31 91  1  0  0  0  0
 32 71  2  0  0  0  0
 33 72  1  0  0  0  0
 33 76  1  0  0  0  0
 34 77  1  0  0  0  0
 34 82  2  0  0  0  0
 35 56  1  0  0  0  0
 35 78  1  0  0  0  0
 35 83  2  0  0  0  0
 36 68  1  0  0  0  0
 36 73  1  0  0  0  0
 36 84  2  0  0  0  0
 37 69  1  0  0  0  0
 37 79  1  0  0  0  0
 37 85  2  0  0  0  0
 38 74  1  0  0  0  0
 38 75  1  0  0  0  0
 38 86  2  0  0  0  0
 39 42  1  0  0  0  0
 40 56  1  0  0  0  0
 41 73  1  0  0  0  0
 42 44  1  0  0  0  0
 43 45  1  0  0  0  0
 43 49  1  0  0  0  0
 44 54  1  0  0  0  0
 45 57  1  0  0  0  0
 46 50  1  0  0  0  0
 46 58  1  0  0  0  0
 47 51  1  0  0  0  0
 47 58  1  0  0  0  0
 48 53  1  0  0  0  0
 48 55  1  0  0  0  0
 49 74  1  0  0  0  0
 50 75  1  0  0  0  0
 51 75  1  0  0  0  0
 52 57  1  0  0  0  0
 52 74  1  0  0  0  0
 53 80  1  0  0  0  0
 54 78  1  0  0  0  0
 55 80  1  0  0  0  0
 56 73  1  0  0  0  0
 57 72  1  0  0  0  0
 58 80  1  0  0  0  0
 61 69  1  0  0  0  0
 62 70  1  0  0  0  0
 63 70  1  0  0  0  0
 64 70  1  0  0  0  0
 65 81  1  0  0  0  0
 66 88  1  0  0  0  0
 67 89  1  0  0  0  0
 68 70  1  0  0  0  0
 68 79  1  0  0  0  0
 69 81  1  0  0  0  0
 71 72  1  0  0  0  0
M  CHG  2  80   1  81   1
M  ISO  4  38 100  67 101  75 100  89 101
M  END
> <Batch ID>
0165

> <Smiles>
CNC(C)C(=O)NC(C(=O)N1Cc2cc([101O:1][101CH2:1]c3c(C4CCN4C4CC[100N:0]([100C:0](=O)N5CCCC(n6nc(-c7ccc(Oc8ccc(F)cc8F)cc7)c(C(N)=O)c6N)C5)CC4)cc(OC)c(C)c3C)ccc2CC1C(=O)NC1CCCc2ccccc21)C(C)(C)C

> <Shape>
0.231

> <Color>
0.073

> <Negative vol penalty>
0.000

$$$$

  -OEChem-04052322223D

 88 99  0     1  0  0  0  0  0999 V2000
  -27.8979  -19.8317   19.4264 C   0  0  0  0  0  0  0  0  0  0  0  0
  -26.7436  -20.6077   19.4569 C   0  0  0  0  0  0  0  0  0  0  0  0
  -26.9195  -12.5852   21.6588 C   0  0  0  0  0  0  0  0  0  0  0  0
  -26.0081  -14.2366   20.1491 C   0  0  0  0  0  0  0  0  0  0  0  0
  -29.0263  -20.2345   20.1395 C   0  0  0  0  0  0  0  0  0  0  0  0
  -26.7167  -21.7864   20.2014 C   0  0  0  0  0  0  0  0  0  0  0  0
  -22.5260  -23.7790   22.3218 C   0  0  0  0  0  0  0  0  0  0  0  0
  -23.7221  -26.9464   18.8186 C   0  0  0  0  0  0  0  0  0  0  0  0
  -21.7613  -24.9454   22.3393 C   0  0  0  0  0  0  0  0  0  0  0  0
  -26.0980  -11.6119   21.0902 C   0  0  0  0  0  0  0  0  0  0  0  0
  -25.1866  -13.2632   19.5804 C   0  0  0  0  0  0  0  0  0  0  0  0
  -22.4986  -27.4633   19.2427 C   0  0  0  0  0  0  0  0  0  0  0  0
  -23.9801   -8.7700   20.2767 C   0  0  0  0  0  0  0  0  0  0  0  0
  -23.3036   -7.9062   21.1380 C   0  0  0  0  0  0  0  0  0  0  0  0
  -22.2125  -23.5377   24.7052 C   0  0  0  0  0  0  0  0  0  0  0  0
  -23.6409  -28.7866   20.9051 C   0  0  0  0  0  0  0  0  0  0  0  0
  -22.1832   -9.7925   22.1497 C   0  0  0  0  0  0  0  0  0  0  0  0
  -26.8745  -13.8976   21.1883 C   0  0  0  0  0  0  0  0  0  0  0  0
  -29.0250  -15.2569   21.3755 C   0  0  0  0  0  0  0  0  0  0  0  0
  -22.7515  -23.0751   23.5048 C   0  0  0  0  0  0  0  0  0  0  0  0
  -29.0163  -21.4237   20.8853 C   0  0  0  0  0  0  0  0  0  0  0  0
  -24.9151  -27.3382   19.4429 C   0  0  0  0  0  0  0  0  0  0  0  0
  -27.8456  -22.2048   20.9262 C   0  0  0  0  0  0  0  0  0  0  0  0
  -21.4478  -24.7042   24.7227 C   0  0  0  0  0  0  0  0  0  0  0  0
  -24.8783  -28.2752   20.4853 C   0  0  0  0  0  0  0  0  0  0  0  0
  -21.2222  -25.4081   23.5397 C   0  0  0  0  0  0  0  0  0  0  0  0
  -25.2316  -11.9509   20.0510 C   0  0  0  0  0  0  0  0  0  0  0  0
  -22.4576  -28.3814   20.2880 C   0  0  0  0  0  0  0  0  0  0  0  0
  -23.7582  -10.1451   20.3520 C   0  0  0  0  0  0  0  0  0  0  0  0
  -22.4051   -8.4174   22.0745 C   0  0  0  0  0  0  0  0  0  0  0  0
  -22.8597  -10.6563   21.2885 C   0  0  0  0  0  0  0  0  0  0  0  0
  -27.7224  -14.9036   21.7757 C   0  0  0  0  0  0  0  0  0  0  0  0
  -29.3923  -16.2553   22.2443 C   0  0  0  0  0  0  0  0  0  0  0  0
  -29.8309  -14.7299   20.3132 C   0  0  0  0  0  0  0  0  0  0  0  0
  -27.1859  -25.8370   21.0840 C   0  0  0  0  0  0  0  0  0  0  0  0
  -28.6462  -28.7308   20.9585 C   0  0  0  0  0  0  0  0  0  0  0  0
  -28.3492  -32.1136   20.6188 C   0  0  0  0  0  0  0  0  0  0  0  0
  -26.2329  -20.1569   25.4994 C   0  0  0  0  0  0  0  0  0  0  0  0
  -30.2449  -21.7938   21.6780 C   0  0  0  0  0  0  0  0  0  0  0  0
  -26.2291  -26.7916   18.9559 C   0  0  0  0  0  0  0  0  0  0  0  0
  -26.1326  -28.7436   21.1751 C   0  0  0  0  0  0  0  0  0  0  0  0
  -30.2563  -23.2487   22.1400 C   0  0  0  0  0  0  0  0  0  0  0  0
  -28.6372  -17.8492   26.6728 C   0  0  0  0  0  0  0  0  0  0  0  0
  -21.1882  -26.5770   26.4832 C   0  0  0  0  0  0  0  0  0  0  0  0
  -21.8113  -25.4093   27.1822 C   0  0  0  0  0  0  0  0  0  0  0  0
  -28.9066  -23.6287   22.7407 C   0  0  0  0  0  0  0  0  0  0  0  0
  -28.7788  -16.8420   25.5349 C   0  0  0  0  0  0  0  0  0  0  0  0
  -22.9043  -20.5302   24.0043 C   0  0  0  0  0  0  0  0  0  0  0  0
  -19.4425  -28.6469   22.3908 C   0  0  0  0  0  0  0  0  0  0  0  0
  -27.1903  -18.3010   26.8183 C   0  0  0  0  0  0  0  0  0  0  0  0
  -24.0801  -19.5895   24.2314 C   0  0  0  0  0  0  0  0  0  0  0  0
  -24.8400  -21.8584   24.3609 C   0  0  0  0  0  0  0  0  0  0  0  0
  -26.7703  -17.9270   24.4029 C   0  0  0  0  0  0  0  0  0  0  0  0
  -23.5801  -21.8096   23.4850 C   0  0  2  0  0  0  0  0  0  0  0  0
  -20.8817  -25.1778   26.0214 C   0  0  0  0  0  0  0  0  0  0  0  0
  -27.7854  -23.5026   21.7022 C   0  0  1  0  0  0  0  0  0  0  0  0
  -27.3346  -26.8711   20.0041 C   0  0  1  0  0  0  0  0  0  0  0  0
  -28.2166  -17.4199   24.2269 C   0  0  2  0  0  0  0  0  0  0  0  0
  -20.1936  -27.3453   22.3504 C   0  0  1  0  0  0  0  0  0  0  0  0
  -20.9105  -28.6396   22.0756 C   0  0  1  0  0  0  0  0  0  1  0  0
  -29.7152  -34.2186   20.5963 C   0  0  0  0  0  0  0  0  0  0  0  0
  -28.9063  -28.5916   23.9954 C   0  0  0  0  0  0  0  0  0  0  0  0
  -29.3816  -31.0497   23.9976 C   0  0  0  0  0  0  0  0  0  0  0  0
  -30.9226  -29.4843   22.8155 C   0  0  0  0  0  0  0  0  0  0  0  0
  -27.5304  -32.7531   17.8476 C   0  0  0  0  0  0  0  0  0  0  0  0
  -28.6468  -29.9665   21.8256 C   0  0  1  0  0  0  0  0  0  0  0  0
  -29.1027  -33.1092   19.7555 C   0  0  2  0  0  0  0  0  0  0  0  0
  -29.4403  -29.7629   23.1470 C   0  0  0  0  0  0  0  0  0  0  0  0
  -27.2913  -15.6192   22.8178 N   0  0  0  0  0  0  0  0  0  0  0  0
  -28.3289  -16.4321   23.0799 N   0  0  0  0  0  0  0  0  0  0  0  0
  -27.3922  -28.1755   20.6671 N   0  0  0  0  0  0  0  0  0  0  0  0
  -26.6546  -18.8240   25.5601 N   0  0  0  0  0  0  0  0  0  0  0  0
  -25.1710  -20.4669   24.6506 N   0  0  0  0  0  0  0  0  0  0  0  0
  -30.5179  -16.9903   22.3676 N   0  0  0  0  0  0  0  0  0  0  0  0
  -29.2998  -13.7068   19.5160 N   0  0  0  0  0  0  0  0  0  0  0  0
  -20.4511  -26.5915   23.5368 N   0  0  0  0  0  0  0  0  0  0  0  0
  -27.8030  -24.6338   20.7996 N   0  0  0  0  0  0  0  0  0  0  0  0
  -29.1474  -31.0519   20.9891 N   0  0  0  0  0  0  0  0  0  0  0  0
  -28.1850  -33.7281   18.7575 N   0  3  0  0  0  0  0  0  0  0  0  0
  -30.9941  -15.1423   20.0883 O   0  0  0  0  0  0  0  0  0  0  0  0
  -26.5590  -26.1110   22.1007 O   0  0  0  0  0  0  0  0  0  0  0  0
  -29.7185  -28.2791   20.5487 O   0  0  0  0  0  0  0  0  0  0  0  0
  -27.1715  -32.2645   20.9364 O   0  0  0  0  0  0  0  0  0  0  0  0
  -26.7560  -21.0294   26.2058 O   0  0  0  0  0  0  0  0  0  0  0  0
  -24.4300  -11.0013   19.4957 O   0  0  0  0  0  0  0  0  0  0  0  0
  -21.2621  -28.8881   20.7053 O   0  0  0  0  0  0  0  0  0  1  0  0
  -21.7544   -7.5877   22.9005 F   0  0  0  0  0  0  0  0  0  0  0  0
  -22.6415  -11.9763   21.3647 F   0  0  0  0  0  0  0  0  0  0  0  0
  1  2  1  0  0  0  0
  1  5  2  0  0  0  0
  2  6  2  0  0  0  0
  3 10  2  0  0  0  0
  3 18  1  0  0  0  0
  4 11  1  0  0  0  0
  4 18  2  0  0  0  0
  5 21  1  0  0  0  0
  6 23  1  0  0  0  0
  7  9  2  0  0  0  0
  7 20  1  0  0  0  0
  8 12  2  0  0  0  0
  8 22  1  0  0  0  0
  9 26  1  0  0  0  0
 10 27  1  0  0  0  0
 11 27  2  0  0  0  0
 12 28  1  0  0  0  0
 13 14  2  0  0  0  0
 13 29  1  0  0  0  0
 14 30  1  0  0  0  0
 15 20  2  0  0  0  0
 15 24  1  0  0  0  0
 16 25  1  0  0  0  0
 16 28  2  0  0  0  0
 17 30  2  0  0  0  0
 17 31  1  0  0  0  0
 18 32  1  0  0  0  0
 19 32  1  0  0  0  0
 19 33  2  0  0  0  0
 19 34  1  0  0  0  0
 20 54  1  0  0  0  0
 21 23  2  0  0  0  0
 21 39  1  0  0  0  0
 22 25  2  0  0  0  0
 22 40  1  0  0  0  0
 23 56  1  0  0  0  0
 24 26  2  0  0  0  0
 24 55  1  0  0  0  0
 25 41  1  0  0  0  0
 26 76  1  0  0  0  0
 27 85  1  0  0  0  0
 28 86  1  0  0  0  0
 29 31  2  0  0  0  0
 29 85  1  0  0  0  0
 30 87  1  0  0  0  0
 31 88  1  0  0  0  0
 32 69  2  0  0  0  0
 33 70  1  0  0  0  0
 33 74  1  0  0  0  0
 34 75  1  0  0  0  0
 34 80  2  0  0  0  0
 35 57  1  0  0  0  0
 35 77  1  0  0  0  0
 35 81  2  0  0  0  0
 36 66  1  0  0  0  0
 36 71  1  0  0  0  0
 36 82  2  0  0  0  0
 37 67  1  0  0  0  0
 37 78  1  0  0  0  0
 37 83  2  0  0  0  0
 38 72  1  0  0  0  0
 38 73  1  0  0  0  0
 38 84  2  0  0  0  0
 39 42  1  0  0  0  0
 40 57  1  0  0  0  0
 41 71  1  0  0  0  0
 42 46  1  0  0  0  0
 43 47  1  0  0  0  0
 43 50  1  0  0  0  0
 44 45  1  0  0  0  0
 44 55  1  0  0  0  0
 45 55  1  0  0  0  0
 46 56  1  0  0  0  0
 47 58  1  0  0  0  0
 48 51  1  0  0  0  0
 48 54  1  0  0  0  0
 49 59  1  0  0  0  0
 49 60  1  0  0  0  0
 50 72  1  0  0  0  0
 51 73  1  0  0  0  0
 52 54  1  0  0  0  0
 52 73  1  0  0  0  0
 53 58  1  0  0  0  0
 53 72  1  0  0  0  0
 56 77  1  0  0  0  0
 57 71  1  0  0  0  0
 58 70  1  0  0  0  0
 59 60  1  0  0  0  0
 59 76  1  0  0  0  0
 60 86  1  0  0  0  0
 61 67  1  0  0  0  0
 62 68  1  0  0  0  0
 63 68  1  0  0  0  0
 64 68  1  0  0  0  0
 65 79  1  0  0  0  0
 66 68  1  0  0  0  0
 66 78  1  0  0  0  0
 67 79  1  0  0  0  0
 69 70  1  0  0  0  0
M  CHG  1  79   1
M  ISO  4  38 100  60 101  73 100  86 101
M  END
> <Batch ID>
0165

> <Smiles>
CNC(C)C(=O)NC(C(=O)N1Cc2cc([101O:1][101CH:1]3CC3Nc3ccc(C4CC[100N:0]([100C:0](=O)N5CCCC(n6nc(-c7ccc(Oc8ccc(F)cc8F)cc7)c(C(N)=O)c6N)C5)C4)cc3C3CC3)ccc2CC1C(=O)NC1CCCc2ccccc21)C(C)(C)C

> <Shape>
0.223

> <Color>
0.051

> <Negative vol penalty>
0.000

$$$$

  -OEChem-04052322223D

 89 99  0     1  0  0  0  0  0999 V2000
  -28.4286  -35.8932   23.6538 C   0  0  0  0  0  0  0  0  0  0  0  0
  -28.6360  -34.5500   23.3570 C   0  0  0  0  0  0  0  0  0  0  0  0
  -25.8014  -11.7070   21.8821 C   0  0  0  0  0  0  0  0  0  0  0  0
  -23.5831  -12.4984   21.3435 C   0  0  0  0  0  0  0  0  0  0  0  0
  -27.2109  -36.3070   24.1924 C   0  0  0  0  0  0  0  0  0  0  0  0
  -27.6261  -33.6195   23.5996 C   0  0  0  0  0  0  0  0  0  0  0  0
  -26.9993  -30.3856   19.7533 C   0  0  0  0  0  0  0  0  0  0  0  0
  -25.3151  -10.4025   21.9680 C   0  0  0  0  0  0  0  0  0  0  0  0
  -23.0968  -11.1939   21.4294 C   0  0  0  0  0  0  0  0  0  0  0  0
  -27.9206  -29.3453   19.6396 C   0  0  0  0  0  0  0  0  0  0  0  0
  -22.2168   -9.0183   23.8631 C   0  0  0  0  0  0  0  0  0  0  0  0
  -21.0254   -8.8153   24.5595 C   0  0  0  0  0  0  0  0  0  0  0  0
  -31.9589  -24.4461   20.4113 C   0  0  0  0  0  0  0  0  0  0  0  0
  -26.3427  -27.8428   20.6749 C   0  0  0  0  0  0  0  0  0  0  0  0
  -30.7428  -25.4637   18.1161 C   0  0  0  0  0  0  0  0  0  0  0  0
  -20.0091   -7.9187   22.5594 C   0  0  0  0  0  0  0  0  0  0  0  0
  -24.9354  -12.7550   21.5699 C   0  0  0  0  0  0  0  0  0  0  0  0
  -26.0648  -14.8447   22.5001 C   0  0  0  0  0  0  0  0  0  0  0  0
  -26.1822  -35.3826   24.4327 C   0  0  0  0  0  0  0  0  0  0  0  0
  -25.7448  -30.1644   20.3396 C   0  0  0  0  0  0  0  0  0  0  0  0
  -26.3940  -34.0211   24.1431 C   0  0  0  0  0  0  0  0  0  0  0  0
  -32.1206  -23.7940   19.1889 C   0  0  0  0  0  0  0  0  0  0  0  0
  -25.4063  -28.8813   20.7926 C   0  0  0  0  0  0  0  0  0  0  0  0
  -31.1891  -25.6069   20.4861 C   0  0  0  0  0  0  0  0  0  0  0  0
  -31.5126  -24.3028   18.0413 C   0  0  0  0  0  0  0  0  0  0  0  0
  -30.5811  -26.1157   19.3385 C   0  0  0  0  0  0  0  0  0  0  0  0
  -23.9629  -10.1459   21.7416 C   0  0  0  0  0  0  0  0  0  0  0  0
  -27.5934  -28.0744   20.1030 C   0  0  0  0  0  0  0  0  0  0  0  0
  -22.3044   -8.6716   22.5149 C   0  0  0  0  0  0  0  0  0  0  0  0
  -19.9216   -8.2655   23.9077 C   0  0  0  0  0  0  0  0  0  0  0  0
  -21.2005   -8.1218   21.8630 C   0  0  0  0  0  0  0  0  0  0  0  0
  -25.4369  -14.1029   21.4816 C   0  0  0  0  0  0  0  0  0  0  0  0
  -26.3495  -16.0554   21.9173 C   0  0  0  0  0  0  0  0  0  0  0  0
  -26.3640  -14.4726   23.8520 C   0  0  0  0  0  0  0  0  0  0  0  0
  -24.2340  -31.2941   22.8980 C   0  0  0  0  0  0  0  0  0  0  0  0
  -21.7583  -29.5614   21.7185 C   0  0  0  0  0  0  0  0  0  0  0  0
  -20.7094  -26.9525   19.7846 C   0  0  0  0  0  0  0  0  0  0  0  0
  -28.1365  -19.1354   17.7306 C   0  0  0  0  0  0  0  0  0  0  0  0
  -24.9002  -35.8700   25.0600 C   0  0  0  0  0  0  0  0  0  0  0  0
  -24.7522  -31.2909   20.4307 C   0  0  0  0  0  0  0  0  0  0  0  0
  -24.0651  -28.5870   21.4114 C   0  0  0  0  0  0  0  0  0  0  0  0
  -23.7465  -34.8778   24.9378 C   0  0  0  0  0  0  0  0  0  0  0  0
  -24.8532  -18.0388   17.5214 C   0  0  0  0  0  0  0  0  0  0  0  0
  -24.2084  -33.4733   25.3130 C   0  0  0  0  0  0  0  0  0  0  0  0
  -24.7516  -16.9730   18.6118 C   0  0  0  0  0  0  0  0  0  0  0  0
  -31.6652  -18.9839   18.2836 C   0  0  0  0  0  0  0  0  0  0  0  0
  -32.8055  -20.0026   18.3057 C   0  0  0  0  0  0  0  0  0  0  0  0
  -30.7721  -20.9547   19.3164 C   0  0  0  0  0  0  0  0  0  0  0  0
  -33.0461  -21.6215   20.3438 C   0  0  0  0  0  0  0  0  0  0  0  0
  -26.1849  -17.9407   16.7868 C   0  0  0  0  0  0  0  0  0  0  0  0
  -27.2907  -16.9855   18.7833 C   0  0  0  0  0  0  0  0  0  0  0  0
  -25.3140  -32.9855   24.3689 C   0  0  1  0  0  0  0  0  0  0  0  0
  -23.6982  -31.0725   21.5118 C   0  0  1  0  0  0  0  0  0  0  0  0
  -25.9602  -17.0395   19.5618 C   0  0  2  0  0  0  0  0  0  0  0  0
  -30.4218  -19.8667   18.2966 C   0  0  2  0  0  0  0  0  0  0  0  0
  -32.9663  -22.5246   19.1306 C   0  0  1  0  0  0  0  0  0  0  0  0
  -32.2693  -21.1487   19.1412 C   0  0  1  0  0  0  0  0  0  0  0  0
  -31.0302  -26.2882   21.8057 C   0  0  0  0  0  0  0  0  0  0  0  0
  -31.6713  -23.6237   16.7203 C   0  0  0  0  0  0  0  0  0  0  0  0
  -34.2478  -22.6965   18.3416 C   0  0  0  0  0  0  0  0  0  0  0  0
  -18.6287  -25.7605   19.0450 C   0  0  0  0  0  0  0  0  0  0  0  0
  -21.5572  -28.2213   24.4523 C   0  0  0  0  0  0  0  0  0  0  0  0
  -20.1577  -26.4342   23.3958 C   0  0  0  0  0  0  0  0  0  0  0  0
  -19.3587  -28.7972   23.4086 C   0  0  0  0  0  0  0  0  0  0  0  0
  -29.3131  -18.2412   19.7850 C   0  0  0  0  0  0  0  0  0  0  0  0
  -21.2274  -27.5717   16.9373 C   0  0  0  0  0  0  0  0  0  0  0  0
  -29.7491  -27.3631   19.3938 C   0  0  0  0  0  0  0  0  0  1  0  0
  -21.2695  -28.1432   21.8877 C   0  0  1  0  0  0  0  0  0  0  0  0
  -19.6310  -26.8572   18.7205 C   0  0  2  0  0  0  0  0  0  0  0  0
  -20.6118  -27.9046   23.2762 C   0  0  0  0  0  0  0  0  0  0  0  0
  -25.3287  -14.7853   20.3385 N   0  0  0  0  0  0  0  0  0  0  0  0
  -25.8924  -15.9686   20.6352 N   0  0  0  0  0  0  0  0  0  0  0  0
  -23.1311  -29.7228   21.4839 N   0  0  0  0  0  0  0  0  0  0  0  0
  -27.3102  -18.0019   17.7200 N   0  0  0  0  0  0  0  0  0  0  0  0
  -26.9437  -17.1751   22.3816 N   0  0  0  0  0  0  0  0  0  0  0  0
  -25.4074  -14.7308   24.8433 N   0  0  0  0  0  0  0  0  0  0  0  0
  -24.7489  -32.5593   23.1066 N   0  0  0  0  0  0  0  0  0  0  0  0
  -20.3884  -27.8773   20.7557 N   0  0  0  0  0  0  0  0  0  0  0  0
  -29.2066  -19.1409   18.6379 N   0  0  0  0  0  0  0  0  0  0  0  0
  -20.2385  -26.5607   17.3924 N   0  3  0  0  0  0  0  0  0  0  0  0
  -27.4541  -13.9423   24.1742 O   0  0  0  0  0  0  0  0  0  0  0  0
  -24.1826  -30.3849   23.7180 O   0  0  0  0  0  0  0  0  0  0  0  0
  -20.9505  -30.4914   21.7848 O   0  0  0  0  0  0  0  0  0  0  0  0
  -21.7323  -26.2717   19.7591 O   0  0  0  0  0  0  0  0  0  0  0  0
  -27.9348  -20.0880   16.9663 O   0  0  0  0  0  0  0  0  0  0  0  0
  -23.4881   -8.8731   21.8251 O   0  0  0  0  0  0  0  0  0  0  0  0
  -28.4910  -27.0574   19.9937 O   0  0  0  0  0  0  0  0  0  1  0  0
  -18.7780   -8.0691   24.5770 F   0  0  0  0  0  0  0  0  0  0  0  0
  -21.2790   -7.7856   20.5682 F   0  0  0  0  0  0  0  0  0  0  0  0
  1  2  1  0  0  0  0
  1  5  2  0  0  0  0
  2  6  2  0  0  0  0
  3  8  2  0  0  0  0
  3 17  1  0  0  0  0
  4  9  1  0  0  0  0
  4 17  2  0  0  0  0
  5 19  1  0  0  0  0
  6 21  1  0  0  0  0
  7 10  2  0  0  0  0
  7 20  1  0  0  0  0
  8 27  1  0  0  0  0
  9 27  2  0  0  0  0
 10 28  1  0  0  0  0
 11 12  2  0  0  0  0
 11 29  1  0  0  0  0
 12 30  1  0  0  0  0
 13 22  2  0  0  0  0
 13 24  1  0  0  0  0
 14 23  1  0  0  0  0
 14 28  2  0  0  0  0
 15 25  2  0  0  0  0
 15 26  1  0  0  0  0
 16 30  2  0  0  0  0
 16 31  1  0  0  0  0
 17 32  1  0  0  0  0
 18 32  1  0  0  0  0
 18 33  2  0  0  0  0
 18 34  1  0  0  0  0
 19 21  2  0  0  0  0
 19 39  1  0  0  0  0
 20 23  2  0  0  0  0
 20 40  1  0  0  0  0
 21 52  1  0  0  0  0
 22 25  1  0  0  0  0
 22 56  1  0  0  0  0
 23 41  1  0  0  0  0
 24 26  2  0  0  0  0
 24 58  1  0  0  0  0
 25 59  1  0  0  0  0
 26 67  1  0  0  0  0
 27 86  1  0  0  0  0
 28 87  1  0  0  0  0
 29 31  2  0  0  0  0
 29 86  1  0  0  0  0
 30 88  1  0  0  0  0
 31 89  1  0  0  0  0
 32 71  2  0  0  0  0
 33 72  1  0  0  0  0
 33 75  1  0  0  0  0
 34 76  1  0  0  0  0
 34 81  2  0  0  0  0
 35 53  1  0  0  0  0
 35 77  1  0  0  0  0
 35 82  2  0  0  0  0
 36 68  1  0  0  0  0
 36 73  1  0  0  0  0
 36 83  2  0  0  0  0
 37 69  1  0  0  0  0
 37 78  1  0  0  0  0
 37 84  2  0  0  0  0
 38 74  1  0  0  0  0
 38 79  1  0  0  0  0
 38 85  2  0  0  0  0
 39 42  1  0  0  0  0
 40 53  1  0  0  0  0
 41 73  1  0  0  0  0
 42 44  1  0  0  0  0
 43 45  1  0  0  0  0
 43 50  1  0  0  0  0
 44 52  1  0  0  0  0
 45 54  1  0  0  0  0
 46 47  1  0  0  0  0
 46 55  1  0  0  0  0
 47 57  1  0  0  0  0
 48 55  1  0  0  0  0
 48 57  1  0  0  0  0
 49 56  1  0  0  0  0
 49 57  1  0  0  0  0
 50 74  1  0  0  0  0
 51 54  1  0  0  0  0
 51 74  1  0  0  0  0
 52 77  1  0  0  0  0
 53 73  1  0  0  0  0
 54 72  1  0  0  0  0
 55 79  1  0  0  0  0
 56 57  1  0  0  0  0
 56 60  1  0  0  0  0
 61 69  1  0  0  0  0
 62 70  1  0  0  0  0
 63 70  1  0  0  0  0
 64 70  1  0  0  0  0
 65 79  1  0  0  0  0
 66 80  1  0  0  0  0
 67 87  1  0  0  0  0
 68 70  1  0  0  0  0
 68 78  1  0  0  0  0
 69 80  1  0  0  0  0
 71 72  1  0  0  0  0
M  CHG  1  80   1
M  ISO  4  38 100  67 101  79 100  87 101
M  END
> <Batch ID>
0165

> <Smiles>
CNC(C)C(=O)NC(C(=O)N1Cc2cc([101O:1][101CH2:1]c3cc(C)c(C4(C)CC45CCC([100N:0](C)[100C:0](=O)N4CCCC(n6nc(-c7ccc(Oc8ccc(F)cc8F)cc7)c(C(N)=O)c6N)C4)C5)cc3C)ccc2CC1C(=O)NC1CCCc2ccccc21)C(C)(C)C

> <Shape>
0.285

> <Color>
0.061

> <Negative vol penalty>
0.000

$$$$

  -OEChem-04052322222D

  0  0  0     0  0  0  0  0  0999 V2000
M  END
$$$$

  -OEChem-04052322223D

 96106  0     1  0  0  0  0  0999 V2000
  -28.2540  -16.9146   20.0246 C   0  0  0  0  0  0  0  0  0  0  0  0
  -27.4445  -17.9779   19.6411 C   0  0  0  0  0  0  0  0  0  0  0  0
  -25.2261  -16.6815   23.4685 C   0  0  0  0  0  0  0  0  0  0  0  0
  -24.2497  -18.0690   21.7485 C   0  0  0  0  0  0  0  0  0  0  0  0
  -29.3552  -17.1432   20.8470 C   0  0  0  0  0  0  0  0  0  0  0  0
  -27.7428  -19.2718   20.0699 C   0  0  0  0  0  0  0  0  0  0  0  0
  -25.0596  -22.9308   18.1685 C   0  0  0  0  0  0  0  0  0  0  0  0
  -25.5583  -15.7255   22.5088 C   0  0  0  0  0  0  0  0  0  0  0  0
  -24.5820  -17.1130   20.7887 C   0  0  0  0  0  0  0  0  0  0  0  0
  -23.7261  -23.1457   18.5138 C   0  0  0  0  0  0  0  0  0  0  0  0
  -23.9919  -13.2717   20.7914 C   0  0  0  0  0  0  0  0  0  0  0  0
  -23.7266  -11.9353   21.0900 C   0  0  0  0  0  0  0  0  0  0  0  0
  -24.3932  -24.9907   19.9175 C   0  0  0  0  0  0  0  0  0  0  0  0
  -26.0755  -11.4180   20.8612 C   0  0  0  0  0  0  0  0  0  0  0  0
  -24.5717  -17.8533   23.0884 C   0  0  0  0  0  0  0  0  0  0  0  0
  -21.7032  -25.0075   26.0275 C   0  0  0  0  0  0  0  0  0  0  0  0
  -23.3930  -18.6664   25.1996 C   0  0  0  0  0  0  0  0  0  0  0  0
  -29.6592  -18.4390   21.2959 C   0  0  0  0  0  0  0  0  0  0  0  0
  -26.0728  -23.7387   18.7045 C   0  0  0  0  0  0  0  0  0  0  0  0
  -28.8637  -19.5263   20.8808 C   0  0  0  0  0  0  0  0  0  0  0  0
  -25.7385  -24.7856   19.5754 C   0  0  0  0  0  0  0  0  0  0  0  0
  -19.3345  -27.6738   21.1923 C   0  0  0  0  0  0  0  0  0  0  0  0
  -19.9360  -26.5893   21.8349 C   0  0  0  0  0  0  0  0  0  0  0  0
  -21.5660  -24.5221   27.3279 C   0  0  0  0  0  0  0  0  0  0  0  0
  -18.9556  -28.7925   21.9159 C   0  0  0  0  0  0  0  0  0  0  0  0
  -20.3165  -24.1077   27.7894 C   0  0  0  0  0  0  0  0  0  0  0  0
  -19.2044  -24.1791   26.9506 C   0  0  0  0  0  0  0  0  0  0  0  0
  -19.3416  -24.6647   25.6502 C   0  0  0  0  0  0  0  0  0  0  0  0
  -20.5910  -25.0786   25.1885 C   0  0  0  0  0  0  0  0  0  0  0  0
  -25.2364  -15.9412   21.1689 C   0  0  0  0  0  0  0  0  0  0  0  0
  -23.3930  -24.1740   19.3907 C   0  0  0  0  0  0  0  0  0  0  0  0
  -25.2989  -13.6813   20.5276 C   0  0  0  0  0  0  0  0  0  0  0  0
  -24.7684  -11.0084   21.1250 C   0  0  0  0  0  0  0  0  0  0  0  0
  -26.3407  -12.7545   20.5625 C   0  0  0  0  0  0  0  0  0  0  0  0
  -24.2276  -18.8410   24.0795 C   0  0  0  0  0  0  0  0  0  0  0  0
  -19.1977  -28.7649   23.2812 C   0  0  0  0  0  0  0  0  0  0  0  0
  -20.1411  -26.6593   23.1978 C   0  0  0  0  0  0  0  0  0  0  0  0
  -23.3885  -19.8924   25.8188 C   0  0  0  0  0  0  0  0  0  0  0  0
  -23.0207  -25.4422   25.5456 C   0  0  0  0  0  0  0  0  0  0  0  0
  -22.6852  -17.5003   25.6411 C   0  0  0  0  0  0  0  0  0  0  0  0
  -28.6108  -23.2261   20.5483 C   0  0  0  0  0  0  0  0  0  0  0  0
  -29.2105  -26.3519   19.9224 C   0  0  0  0  0  0  0  0  0  0  0  0
  -27.9953  -29.4117   19.0235 C   0  0  0  0  0  0  0  0  0  0  0  0
  -30.8676  -18.6307   22.1780 C   0  0  0  0  0  0  0  0  0  0  0  0
  -27.5038  -23.5108   18.3012 C   0  0  0  0  0  0  0  0  0  0  0  0
  -26.7867  -25.6940   20.1625 C   0  0  0  0  0  0  0  0  0  0  0  0
  -30.8455  -19.9533   22.9374 C   0  0  0  0  0  0  0  0  0  0  0  0
  -26.2458  -23.9943   25.0521 C   0  0  0  0  0  0  0  0  0  0  0  0
  -30.5447  -21.0971   21.9805 C   0  0  0  0  0  0  0  0  0  0  0  0
  -25.9414  -22.5121   24.8271 C   0  0  0  0  0  0  0  0  0  0  0  0
  -19.5050  -25.9171   19.6115 C   0  0  0  0  0  0  0  0  0  0  0  0
  -25.1660  -24.8893   24.4493 C   0  0  0  0  0  0  0  0  0  0  0  0
  -23.4840  -23.0931   24.6714 C   0  0  0  0  0  0  0  0  0  0  0  0
  -29.1510  -20.9378   21.3599 C   0  0  1  0  0  0  0  0  0  0  0  0
  -28.5046  -24.0684   19.3086 C   0  0  1  0  0  0  0  0  0  0  0  0
  -24.5224  -22.1549   25.3081 C   0  0  1  0  0  0  0  0  0  0  0  0
  -19.2108  -27.4425   19.7068 C   0  0  0  0  0  0  0  0  0  0  0  0
  -20.2980  -25.4867   20.8785 C   0  0  2  0  0  0  0  0  0  0  0  0
  -22.7566  -24.4441   28.2319 C   0  0  0  0  0  0  0  0  0  0  0  0
  -18.2934  -29.9696   21.2899 C   0  0  0  0  0  0  0  0  0  0  0  0
  -20.1687  -23.5865   29.1843 C   0  0  0  0  0  0  0  0  0  0  0  0
  -17.8641  -23.7351   27.4461 C   0  0  0  0  0  0  0  0  0  0  0  0
  -18.1454  -24.7397   24.7532 C   0  0  0  0  0  0  0  0  0  0  0  0
  -18.8047  -29.9256   24.1370 C   0  0  0  0  0  0  0  0  0  0  0  0
  -20.2374  -28.2770   18.9311 C   0  0  0  0  0  0  0  0  0  0  0  0
  -17.8018  -27.7480   19.1809 C   0  0  0  0  0  0  0  0  0  0  0  0
  -19.8249  -24.1103   21.3647 C   0  0  0  0  0  0  0  0  0  0  0  0
  -28.7205  -31.7820   18.6326 C   0  0  0  0  0  0  0  0  0  0  0  0
  -29.3886  -26.7919   22.9365 C   0  0  0  0  0  0  0  0  0  0  0  0
  -29.1597  -29.2502   22.5209 C   0  0  0  0  0  0  0  0  0  0  0  0
  -31.1178  -28.0085   21.6007 C   0  0  0  0  0  0  0  0  0  0  0  0
  -27.1319  -29.3316   16.1938 C   0  0  0  0  0  0  0  0  0  0  0  0
  -21.8102  -25.4473   20.6273 C   0  0  0  0  0  0  0  0  0  1  0  0
  -28.8352  -27.6630   20.5699 C   0  0  1  0  0  0  0  0  0  0  0  0
  -28.4723  -30.4230   17.9969 C   0  0  2  0  0  0  0  0  0  0  0  0
  -29.6055  -27.9102   21.8976 C   0  0  0  0  0  0  0  0  0  0  0  0
  -24.7176  -20.0803   23.9896 N   0  0  0  0  0  0  0  0  0  0  0  0
  -19.7786  -27.7300   23.9403 N   0  0  0  0  0  0  0  0  0  0  0  0
  -24.1892  -20.6956   25.0612 N   0  0  0  0  0  0  0  0  0  0  0  0
  -23.8412  -24.4956   24.9275 N   0  0  0  0  0  0  0  0  0  0  0  0
  -28.1723  -25.4269   19.7426 N   0  0  0  0  0  0  0  0  0  0  0  0
  -22.7777  -20.3510   26.9319 N   0  0  0  0  0  0  0  0  0  0  0  0
  -21.3805  -17.2936   25.1729 N   0  0  0  0  0  0  0  0  0  0  0  0
  -20.7261  -25.5682   23.8755 N   0  0  0  0  0  0  0  0  0  0  0  0
  -28.9871  -21.9182   20.3093 N   0  0  0  0  0  0  0  0  0  0  0  0
  -29.0436  -28.6926   19.5575 N   0  0  0  0  0  0  0  0  0  0  0  0
  -27.4555  -30.5867   16.9197 N   0  3  0  0  0  0  0  0  0  0  0  0
  -23.3074  -26.6228   25.7382 O   0  0  0  0  0  0  0  0  0  0  0  0
  -23.1887  -16.6749   26.4403 O   0  0  0  0  0  0  0  0  0  0  0  0
  -28.3705  -23.7262   21.6410 O   0  0  0  0  0  0  0  0  0  0  0  0
  -30.3803  -26.1586   19.5821 O   0  0  0  0  0  0  0  0  0  0  0  0
  -26.8114  -29.2759   19.3246 O   0  0  0  0  0  0  0  0  0  0  0  0
  -25.5607  -15.0086   20.2320 O   0  0  0  0  0  0  0  0  0  0  0  0
  -22.0788  -24.3877   19.7333 O   0  0  0  0  0  0  0  0  0  1  0  0
  -24.5138   -9.7254   21.4133 F   0  0  0  0  0  0  0  0  0  0  0  0
  -27.5986  -13.1422   20.3111 F   0  0  0  0  0  0  0  0  0  0  0  0
  1  2  1  0  0  0  0
  1  5  2  0  0  0  0
  2  6  2  0  0  0  0
  3  8  2  0  0  0  0
  3 15  1  0  0  0  0
  4  9  1  0  0  0  0
  4 15  2  0  0  0  0
  5 18  1  0  0  0  0
  6 20  1  0  0  0  0
  7 10  2  0  0  0  0
  7 19  1  0  0  0  0
  8 30  1  0  0  0  0
  9 30  2  0  0  0  0
 10 31  1  0  0  0  0
 11 12  2  0  0  0  0
 11 32  1  0  0  0  0
 12 33  1  0  0  0  0
 13 21  1  0  0  0  0
 13 31  2  0  0  0  0
 14 33  2  0  0  0  0
 14 34  1  0  0  0  0
 15 35  1  0  0  0  0
 16 24  1  0  0  0  0
 16 29  2  0  0  0  0
 16 39  1  0  0  0  0
 17 35  1  0  0  0  0
 17 38  2  0  0  0  0
 17 40  1  0  0  0  0
 18 20  2  0  0  0  0
 18 44  1  0  0  0  0
 19 21  2  0  0  0  0
 19 45  1  0  0  0  0
 20 54  1  0  0  0  0
 21 46  1  0  0  0  0
 22 23  2  0  0  0  0
 22 25  1  0  0  0  0
 22 57  1  0  0  0  0
 23 37  1  0  0  0  0
 23 58  1  0  0  0  0
 24 26  2  0  0  0  0
 24 59  1  0  0  0  0
 25 36  2  0  0  0  0
 25 60  1  0  0  0  0
 26 27  1  0  0  0  0
 26 61  1  0  0  0  0
 27 28  2  0  0  0  0
 27 62  1  0  0  0  0
 28 29  1  0  0  0  0
 28 63  1  0  0  0  0
 29 84  1  0  0  0  0
 30 93  1  0  0  0  0
 31 94  1  0  0  0  0
 32 34  2  0  0  0  0
 32 93  1  0  0  0  0
 33 95  1  0  0  0  0
 34 96  1  0  0  0  0
 35 77  2  0  0  0  0
 36 64  1  0  0  0  0
 36 78  1  0  0  0  0
 37 78  2  0  0  0  0
 37 84  1  0  0  0  0
 38 79  1  0  0  0  0
 38 82  1  0  0  0  0
 39 80  1  0  0  0  0
 39 88  2  0  0  0  0
 40 83  1  0  0  0  0
 40 89  2  0  0  0  0
 41 55  1  0  0  0  0
 41 85  1  0  0  0  0
 41 90  2  0  0  0  0
 42 74  1  0  0  0  0
 42 81  1  0  0  0  0
 42 91  2  0  0  0  0
 43 75  1  0  0  0  0
 43 86  1  0  0  0  0
 43 92  2  0  0  0  0
 44 47  1  0  0  0  0
 45 55  1  0  0  0  0
 46 81  1  0  0  0  0
 47 49  1  0  0  0  0
 48 50  1  0  0  0  0
 48 52  1  0  0  0  0
 49 54  1  0  0  0  0
 50 56  1  0  0  0  0
 51 57  1  0  0  0  0
 51 58  1  0  0  0  0
 52 80  1  0  0  0  0
 53 56  1  0  0  0  0
 53 80  1  0  0  0  0
 54 85  1  0  0  0  0
 55 81  1  0  0  0  0
 56 79  1  0  0  0  0
 57 65  1  0  0  0  0
 57 66  1  0  0  0  0
 58 67  1  0  0  0  0
 58 73  1  0  0  0  0
 68 75  1  0  0  0  0
 69 76  1  0  0  0  0
 70 76  1  0  0  0  0
 71 76  1  0  0  0  0
 72 87  1  0  0  0  0
 73 94  1  0  0  0  0
 74 76  1  0  0  0  0
 74 86  1  0  0  0  0
 75 87  1  0  0  0  0
 77 79  1  0  0  0  0
M  CHG  1  87   1
M  ISO  4  16 100  39 100  73 101  94 101
M  END
> <Batch ID>
0165

> <Smiles>
CNC(C)C(=O)NC(C(=O)N1Cc2cc([101O:1][101CH2:1]C3(C)CC(C)(C)c4c(C)c(C)nc(Nc5c(C)c(C)c(C)c(C)[100c:0]5[100C:0](=O)N5CCCC(n6nc(-c7ccc(Oc8ccc(F)cc8F)cc7)c(C(N)=O)c6N)C5)c43)ccc2CC1C(=O)NC1CCCc2ccccc21)C(C)(C)C

> <Shape>
0.194

> <Color>
0.058

> <Negative vol penalty>
0.000

$$$$

  -OEChem-04052322223D

 90 99  0     1  0  0  0  0  0999 V2000
  -22.9905  -36.4683   21.7698 C   0  0  0  0  0  0  0  0  0  0  0  0
  -23.7089  -35.5441   21.0180 C   0  0  0  0  0  0  0  0  0  0  0  0
  -24.6401   -8.7267   21.3783 C   0  0  0  0  0  0  0  0  0  0  0  0
  -23.1495  -10.5960   21.7265 C   0  0  0  0  0  0  0  0  0  0  0  0
  -22.9709  -36.3695   23.1604 C   0  0  0  0  0  0  0  0  0  0  0  0
  -24.4090  -34.5211   21.6565 C   0  0  0  0  0  0  0  0  0  0  0  0
  -25.2526  -28.8081   19.6180 C   0  0  0  0  0  0  0  0  0  0  0  0
  -23.9531   -7.9980   22.3491 C   0  0  0  0  0  0  0  0  0  0  0  0
  -22.4625   -9.8672   22.6974 C   0  0  0  0  0  0  0  0  0  0  0  0
  -26.3195  -28.1935   18.9638 C   0  0  0  0  0  0  0  0  0  0  0  0
  -21.0735   -6.2396   22.5704 C   0  0  0  0  0  0  0  0  0  0  0  0
  -20.7551   -4.9129   22.2805 C   0  0  0  0  0  0  0  0  0  0  0  0
  -27.1309  -27.3645   21.0789 C   0  0  0  0  0  0  0  0  0  0  0  0
  -22.0475   -4.1860   24.1881 C   0  0  0  0  0  0  0  0  0  0  0  0
  -24.2383  -10.0258   21.0670 C   0  0  0  0  0  0  0  0  0  0  0  0
  -24.6782  -10.8217   18.6836 C   0  0  0  0  0  0  0  0  0  0  0  0
  -23.6632  -35.3390   23.8157 C   0  0  0  0  0  0  0  0  0  0  0  0
  -25.1227  -28.7144   21.0111 C   0  0  0  0  0  0  0  0  0  0  0  0
  -24.3997  -34.4092   23.0572 C   0  0  0  0  0  0  0  0  0  0  0  0
  -26.0600  -27.9766   21.7480 C   0  0  0  0  0  0  0  0  0  0  0  0
  -27.8908  -20.4536   20.3676 C   0  0  0  0  0  0  0  0  0  0  0  0
  -27.7458  -20.9465   21.6644 C   0  0  0  0  0  0  0  0  0  0  0  0
  -27.7914  -19.0832   20.1271 C   0  0  0  0  0  0  0  0  0  0  0  0
  -27.5014  -20.0690   22.7207 C   0  0  0  0  0  0  0  0  0  0  0  0
  -27.4021  -18.6985   22.4803 C   0  0  0  0  0  0  0  0  0  0  0  0
  -27.5470  -18.2057   21.1835 C   0  0  0  0  0  0  0  0  0  0  0  0
  -22.8643   -8.5682   23.0087 C   0  0  0  0  0  0  0  0  0  0  0  0
  -27.2604  -27.4740   19.6946 C   0  0  0  0  0  0  0  0  0  0  0  0
  -21.8790   -6.5396   23.6690 C   0  0  0  0  0  0  0  0  0  0  0  0
  -21.2421   -3.8861   23.0894 C   0  0  0  0  0  0  0  0  0  0  0  0
  -22.3659   -5.5128   24.4779 C   0  0  0  0  0  0  0  0  0  0  0  0
  -24.9480  -10.7793   20.0646 C   0  0  0  0  0  0  0  0  0  0  0  0
  -25.6271  -11.6743   18.1745 C   0  0  0  0  0  0  0  0  0  0  0  0
  -23.6608  -10.1505   17.9285 C   0  0  0  0  0  0  0  0  0  0  0  0
  -25.1159  -30.8013   23.4087 C   0  0  0  0  0  0  0  0  0  0  0  0
  -28.7956  -16.1160   20.6931 C   0  0  0  0  0  0  0  0  0  0  0  0
  -24.3656  -28.1832   25.1707 C   0  0  0  0  0  0  0  0  0  0  0  0
  -24.4528  -24.7870   25.4952 C   0  0  0  0  0  0  0  0  0  0  0  0
  -23.6512  -35.3009   25.3234 C   0  0  0  0  0  0  0  0  0  0  0  0
  -23.9513  -29.3607   21.6986 C   0  0  0  0  0  0  0  0  0  0  0  0
  -25.9545  -27.8288   23.2432 C   0  0  0  0  0  0  0  0  0  0  0  0
  -24.1129  -33.9661   25.9026 C   0  0  0  0  0  0  0  0  0  0  0  0
  -30.0679  -13.2476   18.9630 C   0  0  0  0  0  0  0  0  0  0  0  0
  -25.3883  -33.4962   25.2101 C   0  0  0  0  0  0  0  0  0  0  0  0
  -28.8834  -12.2822   18.9489 C   0  0  0  0  0  0  0  0  0  0  0  0
  -29.5000  -22.0996   19.4830 C   0  0  0  0  0  0  0  0  0  0  0  0
  -30.1058  -14.0663   20.2495 C   0  0  0  0  0  0  0  0  0  0  0  0
  -27.6560  -13.8483   20.5191 C   0  0  0  0  0  0  0  0  0  0  0  0
  -29.8074  -23.1352   18.4125 C   0  0  0  0  0  0  0  0  0  0  0  0
  -27.3629  -23.4767   18.0101 C   0  0  0  0  0  0  0  0  0  0  0  0
  -28.1534  -21.3956   19.2333 C   0  0  2  0  0  0  0  0  0  0  0  0
  -25.1515  -33.2707   23.7120 C   0  0  1  0  0  0  0  0  0  0  0  0
  -24.2021  -29.6309   23.1790 C   0  0  1  0  0  0  0  0  0  0  0  0
  -27.0099  -22.4319   19.0768 C   0  0  2  0  0  0  0  0  0  0  0  0
  -27.5629  -13.0235   19.2233 C   0  0  2  0  0  0  0  0  0  0  0  0
  -27.8525  -22.4167   21.9220 C   0  0  0  0  0  0  0  0  0  0  0  0
  -27.9478  -18.5542   18.7361 C   0  0  0  0  0  0  0  0  0  0  0  0
  -27.3490  -20.5978   24.1122 C   0  0  0  0  0  0  0  0  0  0  0  0
  -27.1416  -17.7575   23.6143 C   0  0  0  0  0  0  0  0  0  0  0  0
  -25.6823  -21.7640   18.7000 C   0  0  0  0  0  0  0  0  0  0  0  0
  -23.7936  -22.9402   27.0612 C   0  0  0  0  0  0  0  0  0  0  0  0
  -26.7199  -28.8817   26.9816 C   0  0  0  0  0  0  0  0  0  0  0  0
  -26.6015  -26.5611   27.9138 C   0  0  0  0  0  0  0  0  0  0  0  0
  -24.6681  -28.1135   28.1876 C   0  0  0  0  0  0  0  0  0  0  0  0
  -22.6610  -23.5630   23.4827 C   0  0  0  0  0  0  0  0  0  0  0  0
  -27.4406  -16.7354   20.9261 C   0  0  0  0  0  0  0  0  0  0  0  0
  -28.9924  -25.2645   17.4101 C   0  0  0  0  0  0  0  0  0  0  0  0
  -28.0817  -26.4365   17.7185 C   0  0  0  0  0  0  0  0  0  1  0  0
  -25.1550  -27.1300   25.9100 C   0  0  1  0  0  0  0  0  0  0  0  0
  -23.3765  -23.7826   25.8657 C   0  0  2  0  0  0  0  0  0  0  0  0
  -25.7895  -27.6758   27.2203 C   0  0  0  0  0  0  0  0  0  0  0  0
  -25.9869  -11.5439   20.4108 N   0  0  0  0  0  0  0  0  0  0  0  0
  -26.3784  -12.0748   19.2399 N   0  0  0  0  0  0  0  0  0  0  0  0
  -24.7949  -28.4843   23.8704 N   0  0  0  0  0  0  0  0  0  0  0  0
  -28.8260  -14.7368   20.4860 N   0  0  0  0  0  0  0  0  0  0  0  0
  -25.8837  -12.1129   16.9238 N   0  0  0  0  0  0  0  0  0  0  0  0
  -22.7682   -9.3110   18.6088 N   0  0  0  0  0  0  0  0  0  0  0  0
  -24.4635  -32.0166   23.4922 N   0  0  0  0  0  0  0  0  0  0  0  0
  -24.2480  -26.0047   26.1089 N   0  0  0  0  0  0  0  0  0  0  0  0
  -28.6828  -24.1464   18.3366 N   0  3  2  0  0  0  0  0  0  0  0  0
  -23.1035  -22.8697   24.7198 N   0  3  0  0  0  0  0  0  0  0  0  0
  -23.5569  -10.2783   16.6850 O   0  0  0  0  0  0  0  0  0  0  0  0
  -26.3234  -30.6154   23.5045 O   0  0  0  0  0  0  0  0  0  0  0  0
  -29.7958  -16.8385   20.6925 O   0  0  0  0  0  0  0  0  0  0  0  0
  -23.3992  -28.7140   25.7239 O   0  0  0  0  0  0  0  0  0  0  0  0
  -25.3842  -24.5172   24.7401 O   0  0  0  0  0  0  0  0  0  0  0  0
  -22.1935   -7.8573   23.9559 O   0  0  0  0  0  0  0  0  0  0  0  0
  -28.3031  -26.8737   19.0587 O   0  0  0  0  0  0  0  0  0  1  0  0
  -20.9350   -2.6122   22.8118 F   0  0  0  0  0  0  0  0  0  0  0  0
  -23.1391   -5.7948   25.5354 F   0  0  0  0  0  0  0  0  0  0  0  0
  1  2  1  0  0  0  0
  1  5  2  0  0  0  0
  2  6  2  0  0  0  0
  3  8  2  0  0  0  0
  3 15  1  0  0  0  0
  4  9  1  0  0  0  0
  4 15  2  0  0  0  0
  5 17  1  0  0  0  0
  6 19  1  0  0  0  0
  7 10  2  0  0  0  0
  7 18  1  0  0  0  0
  8 27  1  0  0  0  0
  9 27  2  0  0  0  0
 10 28  1  0  0  0  0
 11 12  2  0  0  0  0
 11 29  1  0  0  0  0
 12 30  1  0  0  0  0
 13 20  1  0  0  0  0
 13 28  2  0  0  0  0
 14 30  2  0  0  0  0
 14 31  1  0  0  0  0
 15 32  1  0  0  0  0
 16 32  1  0  0  0  0
 16 33  2  0  0  0  0
 16 34  1  0  0  0  0
 17 19  2  0  0  0  0
 17 39  1  0  0  0  0
 18 20  2  0  0  0  0
 18 40  1  0  0  0  0
 19 52  1  0  0  0  0
 20 41  1  0  0  0  0
 21 22  1  0  0  0  0
 21 23  2  0  0  0  0
 21 51  1  0  0  0  0
 22 24  2  0  0  0  0
 22 56  1  0  0  0  0
 23 26  1  0  0  0  0
 23 57  1  0  0  0  0
 24 25  1  0  0  0  0
 24 58  1  0  0  0  0
 25 26  2  0  0  0  0
 25 59  1  0  0  0  0
 26 66  1  0  0  0  0
 27 87  1  0  0  0  0
 28 88  1  0  0  0  0
 29 31  2  0  0  0  0
 29 87  1  0  0  0  0
 30 89  1  0  0  0  0
 31 90  1  0  0  0  0
 32 72  2  0  0  0  0
 33 73  1  0  0  0  0
 33 76  1  0  0  0  0
 34 77  1  0  0  0  0
 34 82  2  0  0  0  0
 35 53  1  0  0  0  0
 35 78  1  0  0  0  0
 35 83  2  0  0  0  0
 36 66  1  0  0  0  0
 36 75  1  0  0  0  0
 36 84  2  0  0  0  0
 37 69  1  0  0  0  0
 37 74  1  0  0  0  0
 37 85  2  0  0  0  0
 38 70  1  0  0  0  0
 38 79  1  0  0  0  0
 38 86  2  0  0  0  0
 39 42  1  0  0  0  0
 40 53  1  0  0  0  0
 41 74  1  0  0  0  0
 42 44  1  0  0  0  0
 43 45  1  0  0  0  0
 43 47  1  0  0  0  0
 44 52  1  0  0  0  0
 45 55  1  0  0  0  0
 46 49  1  0  0  0  0
 46 51  1  0  0  0  0
 47 75  1  0  0  0  0
 48 55  1  0  0  0  0
 48 75  1  0  0  0  0
 49 80  1  0  0  0  0
 50 54  1  0  0  0  0
 50 80  1  0  0  0  0
 51 54  1  0  0  0  0
 52 78  1  0  0  0  0
 53 74  1  0  0  0  0
 54 60  1  0  0  0  0
 55 73  1  0  0  0  0
 61 70  1  0  0  0  0
 62 71  1  0  0  0  0
 63 71  1  0  0  0  0
 64 71  1  0  0  0  0
 65 81  1  0  0  0  0
 67 68  1  0  0  0  0
 67 80  1  0  0  0  0
 68 88  1  0  0  0  0
 69 71  1  0  0  0  0
 69 79  1  0  0  0  0
 70 81  1  0  0  0  0
 72 73  1  0  0  0  0
M  CHG  2  80   1  81   1
M  ISO  4  36 100  66 100  68 101  88 101
M  END
> <Batch ID>
0165

> <Smiles>
CNC(C)C(=O)NC(C(=O)N1Cc2cc([101O:1][101CH2:1]CN3CCC(c4c(C)c(C)c(C)c([100CH2:0][100C:0](=O)N5CCCC(n6nc(-c7ccc(Oc8ccc(F)cc8F)cc7)c(C(N)=O)c6N)C5)c4C)C(C)C3)ccc2CC1C(=O)NC1CCCc2ccccc21)C(C)(C)C

> <Shape>
0.269

> <Color>
0.085

> <Negative vol penalty>
0.000

$$$$

  -OEChem-04052322223D

 88 99  0     1  0  0  0  0  0999 V2000
  -16.9286  -29.2143   20.9239 C   0  0  0  0  0  0  0  0  0  0  0  0
  -17.9661  -28.5068   20.3253 C   0  0  0  0  0  0  0  0  0  0  0  0
  -26.2998  -12.6169   21.6523 C   0  0  0  0  0  0  0  0  0  0  0  0
  -25.8009  -13.5889   19.4974 C   0  0  0  0  0  0  0  0  0  0  0  0
  -17.2134  -30.2932   21.7598 C   0  0  0  0  0  0  0  0  0  0  0  0
  -19.2892  -28.8785   20.5616 C   0  0  0  0  0  0  0  0  0  0  0  0
  -24.1403  -25.1627   20.9690 C   0  0  0  0  0  0  0  0  0  0  0  0
  -25.0997  -11.9073   21.6100 C   0  0  0  0  0  0  0  0  0  0  0  0
  -24.6008  -12.8792   19.4552 C   0  0  0  0  0  0  0  0  0  0  0  0
  -25.1283  -24.8061   20.0522 C   0  0  0  0  0  0  0  0  0  0  0  0
  -23.9086   -9.1137   20.1233 C   0  0  0  0  0  0  0  0  0  0  0  0
  -23.9385   -7.7673   20.4866 C   0  0  0  0  0  0  0  0  0  0  0  0
  -28.9736  -22.6780   17.6162 C   0  0  0  0  0  0  0  0  0  0  0  0
  -26.5797  -26.5027   20.9654 C   0  0  0  0  0  0  0  0  0  0  0  0
  -22.3677   -8.2128   22.2674 C   0  0  0  0  0  0  0  0  0  0  0  0
  -26.6504  -13.4577   20.5960 C   0  0  0  0  0  0  0  0  0  0  0  0
  -29.1441  -13.7704   20.1587 C   0  0  0  0  0  0  0  0  0  0  0  0
  -18.5409  -30.6722   22.0141 C   0  0  0  0  0  0  0  0  0  0  0  0
  -24.3610  -26.2011   21.8852 C   0  0  0  0  0  0  0  0  0  0  0  0
  -19.5920  -29.9643   21.4007 C   0  0  0  0  0  0  0  0  0  0  0  0
  -30.0826  -22.4103   16.8138 C   0  0  0  0  0  0  0  0  0  0  0  0
  -25.5939  -26.8688   21.8945 C   0  0  0  0  0  0  0  0  0  0  0  0
  -30.4122  -23.2737   15.7690 C   0  0  0  0  0  0  0  0  0  0  0  0
  -29.6327  -24.4048   15.5266 C   0  0  0  0  0  0  0  0  0  0  0  0
  -28.1940  -23.8091   17.3738 C   0  0  0  0  0  0  0  0  0  0  0  0
  -28.5236  -24.6725   16.3291 C   0  0  0  0  0  0  0  0  0  0  0  0
  -24.2502  -12.0384   20.5115 C   0  0  0  0  0  0  0  0  0  0  0  0
  -26.3471  -25.4780   20.0484 C   0  0  0  0  0  0  0  0  0  0  0  0
  -23.1084  -10.0097   20.8322 C   0  0  0  0  0  0  0  0  0  0  0  0
  -23.1681   -7.3169   21.5585 C   0  0  0  0  0  0  0  0  0  0  0  0
  -22.3379   -9.5593   21.9041 C   0  0  0  0  0  0  0  0  0  0  0  0
  -27.8897  -14.1915   20.6392 C   0  0  0  0  0  0  0  0  0  0  0  0
  -29.9873  -14.8187   20.4354 C   0  0  0  0  0  0  0  0  0  0  0  0
  -29.5141  -12.5416   19.5192 C   0  0  0  0  0  0  0  0  0  0  0  0
  -23.0081  -29.0220   22.4473 C   0  0  0  0  0  0  0  0  0  0  0  0
  -25.0255  -29.0459   24.9873 C   0  0  0  0  0  0  0  0  0  0  0  0
  -27.9196  -27.9157   26.3993 C   0  0  0  0  0  0  0  0  0  0  0  0
  -30.9279  -20.3806   20.4003 C   0  0  0  0  0  0  0  0  0  0  0  0
  -18.7979  -31.8748   22.8874 C   0  0  0  0  0  0  0  0  0  0  0  0
  -23.2950  -26.5558   22.8854 C   0  0  0  0  0  0  0  0  0  0  0  0
  -25.8882  -27.9771   22.8710 C   0  0  0  0  0  0  0  0  0  0  0  0
  -20.2383  -31.9705   23.3836 C   0  0  0  0  0  0  0  0  0  0  0  0
  -29.3376  -18.9273   23.2740 C   0  0  0  0  0  0  0  0  0  0  0  0
  -32.9422  -22.7920   15.5665 C   0  0  0  0  0  0  0  0  0  0  0  0
  -32.6712  -24.0263   14.7645 C   0  0  0  0  0  0  0  0  0  0  0  0
  -28.9456  -25.6392   13.3637 C   0  0  0  0  0  0  0  0  0  0  0  0
  -30.1163  -24.7741   13.0150 C   0  0  0  0  0  0  0  0  0  0  0  0
  -21.2151  -31.7281   22.2373 C   0  0  0  0  0  0  0  0  0  0  0  0
  -28.8733  -17.5558   22.7946 C   0  0  0  0  0  0  0  0  0  0  0  0
  -29.2448  -19.9549   22.1542 C   0  0  0  0  0  0  0  0  0  0  0  0
  -32.0225  -21.1614   18.2347 C   0  0  0  0  0  0  0  0  0  0  0  0
  -30.3151  -19.9375   17.8987 C   0  0  0  0  0  0  0  0  0  0  0  0
  -29.6065  -18.1963   20.4424 C   0  0  0  0  0  0  0  0  0  0  0  0
  -30.9579  -21.1080   17.1133 C   0  0  0  0  0  0  0  0  0  0  0  0
  -31.6013  -22.9792   14.9112 C   0  0  0  0  0  0  0  0  0  0  0  0
  -29.9853  -25.3314   14.4054 C   0  0  0  0  0  0  0  0  0  0  0  0
  -21.0409  -30.3215   21.6521 C   0  0  1  0  0  0  0  0  0  0  0  0
  -23.4374  -27.9725   23.4332 C   0  0  1  0  0  0  0  0  0  0  0  0
  -29.6634  -17.1257   21.5503 C   0  0  2  0  0  0  0  0  0  0  0  0
  -27.6847  -25.8844   16.0729 C   0  0  0  0  0  0  0  0  0  0  0  0
  -29.3215  -28.1420   28.4683 C   0  0  0  0  0  0  0  0  0  0  0  0
  -26.0149  -31.7642   24.0167 C   0  0  0  0  0  0  0  0  0  0  0  0
  -28.0046  -31.4962   25.5124 C   0  0  0  0  0  0  0  0  0  0  0  0
  -25.7127  -31.5874   26.4930 C   0  0  0  0  0  0  0  0  0  0  0  0
  -27.6391  -25.0409   27.0441 C   0  0  0  0  0  0  0  0  0  0  0  0
  -27.0119  -24.0730   18.2484 C   0  0  0  0  0  0  0  0  0  1  0  0
  -26.4377  -29.5228   25.2265 C   0  0  1  0  0  0  0  0  0  0  0  0
  -28.2160  -27.3572   27.7794 C   0  0  2  0  0  0  0  0  0  0  0  0
  -26.5365  -31.0731   25.2923 C   0  0  0  0  0  0  0  0  0  0  0  0
  -27.9280  -15.4120   21.1804 N   0  0  0  0  0  0  0  0  0  0  0  0
  -29.2168  -15.7669   21.0416 N   0  0  0  0  0  0  0  0  0  0  0  0
  -24.8118  -28.2915   23.8250 N   0  0  0  0  0  0  0  0  0  0  0  0
  -29.9667  -19.5266   20.9524 N   0  0  0  0  0  0  0  0  0  0  0  0
  -31.1152  -20.3528   19.0370 N   0  0  0  0  0  0  0  0  0  0  0  0
  -31.3053  -15.0127   20.2170 N   0  0  0  0  0  0  0  0  0  0  0  0
  -28.5237  -11.5718   19.3119 N   0  0  0  0  0  0  0  0  0  0  0  0
  -21.6639  -29.3364   22.5100 N   0  0  0  0  0  0  0  0  0  0  0  0
  -26.8996  -28.8429   26.4318 N   0  0  0  0  0  0  0  0  0  0  0  0
  -28.6422  -25.9325   27.6811 N   0  3  0  0  0  0  0  0  0  0  0  0
  -30.6915  -12.3038   19.1577 O   0  0  0  0  0  0  0  0  0  0  0  0
  -23.8353  -29.5113   21.6871 O   0  0  0  0  0  0  0  0  0  0  0  0
  -24.1459  -29.3261   25.8055 O   0  0  0  0  0  0  0  0  0  0  0  0
  -28.5342  -27.5672   25.3936 O   0  0  0  0  0  0  0  0  0  0  0  0
  -31.5795  -21.1685   21.0985 O   0  0  0  0  0  0  0  0  0  0  0  0
  -23.0792  -11.3459   20.4699 O   0  0  0  0  0  0  0  0  0  0  0  0
  -27.3198  -25.1298   19.1477 O   0  0  0  0  0  0  0  0  0  1  0  0
  -23.1957   -6.0236   21.9062 F   0  0  0  0  0  0  0  0  0  0  0  0
  -21.5662  -10.4151   22.5881 F   0  0  0  0  0  0  0  0  0  0  0  0
  1  2  1  0  0  0  0
  1  5  2  0  0  0  0
  2  6  2  0  0  0  0
  3  8  2  0  0  0  0
  3 16  1  0  0  0  0
  4  9  1  0  0  0  0
  4 16  2  0  0  0  0
  5 18  1  0  0  0  0
  6 20  1  0  0  0  0
  7 10  2  0  0  0  0
  7 19  1  0  0  0  0
  8 27  1  0  0  0  0
  9 27  2  0  0  0  0
 10 28  1  0  0  0  0
 11 12  2  0  0  0  0
 11 29  1  0  0  0  0
 12 30  1  0  0  0  0
 13 21  2  0  0  0  0
 13 25  1  0  0  0  0
 14 22  1  0  0  0  0
 14 28  2  0  0  0  0
 15 30  2  0  0  0  0
 15 31  1  0  0  0  0
 16 32  1  0  0  0  0
 17 32  1  0  0  0  0
 17 33  2  0  0  0  0
 17 34  1  0  0  0  0
 18 20  2  0  0  0  0
 18 39  1  0  0  0  0
 19 22  2  0  0  0  0
 19 40  1  0  0  0  0
 20 57  1  0  0  0  0
 21 23  1  0  0  0  0
 21 54  1  0  0  0  0
 22 41  1  0  0  0  0
 23 24  2  0  0  0  0
 23 55  1  0  0  0  0
 24 26  1  0  0  0  0
 24 56  1  0  0  0  0
 25 26  2  0  0  0  0
 25 66  1  0  0  0  0
 26 60  1  0  0  0  0
 27 85  1  0  0  0  0
 28 86  1  0  0  0  0
 29 31  2  0  0  0  0
 29 85  1  0  0  0  0
 30 87  1  0  0  0  0
 31 88  1  0  0  0  0
 32 70  2  0  0  0  0
 33 71  1  0  0  0  0
 33 75  1  0  0  0  0
 34 76  1  0  0  0  0
 34 80  2  0  0  0  0
 35 58  1  0  0  0  0
 35 77  1  0  0  0  0
 35 81  2  0  0  0  0
 36 67  1  0  0  0  0
 36 72  1  0  0  0  0
 36 82  2  0  0  0  0
 37 68  1  0  0  0  0
 37 78  1  0  0  0  0
 37 83  2  0  0  0  0
 38 73  1  0  0  0  0
 38 74  1  0  0  0  0
 38 84  2  0  0  0  0
 39 42  1  0  0  0  0
 40 58  1  0  0  0  0
 41 72  1  0  0  0  0
 42 48  1  0  0  0  0
 43 49  1  0  0  0  0
 43 50  1  0  0  0  0
 44 45  1  0  0  0  0
 44 55  1  0  0  0  0
 45 55  1  0  0  0  0
 46 47  1  0  0  0  0
 46 56  1  0  0  0  0
 47 56  1  0  0  0  0
 48 57  1  0  0  0  0
 49 59  1  0  0  0  0
 50 73  1  0  0  0  0
 51 54  1  0  0  0  0
 51 74  1  0  0  0  0
 52 54  1  0  0  0  0
 52 74  1  0  0  0  0
 53 59  1  0  0  0  0
 53 73  1  0  0  0  0
 57 77  1  0  0  0  0
 58 72  1  0  0  0  0
 59 71  1  0  0  0  0
 61 68  1  0  0  0  0
 62 69  1  0  0  0  0
 63 69  1  0  0  0  0
 64 69  1  0  0  0  0
 65 79  1  0  0  0  0
 66 86  1  0  0  0  0
 67 69  1  0  0  0  0
 67 78  1  0  0  0  0
 68 79  1  0  0  0  0
 70 71  1  0  0  0  0
M  CHG  1  79   1
M  ISO  4  38 100  66 101  74 100  86 101
M  END
> <Batch ID>
0165

> <Smiles>
CNC(C)C(=O)NC(C(=O)N1Cc2cc([101O:1][101CH2:1]c3cc(C4C[100N:0]([100C:0](=O)N5CCCC(n6nc(-c7ccc(Oc8ccc(F)cc8F)cc7)c(C(N)=O)c6N)C5)C4)c(C4CC4)c(C4CC4)c3C)ccc2CC1C(=O)NC1CCCc2ccccc21)C(C)(C)C

> <Shape>
0.230

> <Color>
0.087

> <Negative vol penalty>
0.000

$$$$

  -OEChem-04052322223D

 84 93  0     1  0  0  0  0  0999 V2000
  -17.0155  -29.2615   24.4058 C   0  0  0  0  0  0  0  0  0  0  0  0
  -17.9447  -28.2305   24.5004 C   0  0  0  0  0  0  0  0  0  0  0  0
  -23.4425   -9.5947   21.0063 C   0  0  0  0  0  0  0  0  0  0  0  0
  -24.0374  -10.4208   23.1974 C   0  0  0  0  0  0  0  0  0  0  0  0
  -17.1637  -30.2445   23.4282 C   0  0  0  0  0  0  0  0  0  0  0  0
  -19.0222  -28.1812   23.6167 C   0  0  0  0  0  0  0  0  0  0  0  0
  -24.6909  -26.2061   24.8294 C   0  0  0  0  0  0  0  0  0  0  0  0
  -22.8234   -8.4899   21.5910 C   0  0  0  0  0  0  0  0  0  0  0  0
  -23.4182   -9.3161   23.7820 C   0  0  0  0  0  0  0  0  0  0  0  0
  -25.3310  -24.9902   24.5937 C   0  0  0  0  0  0  0  0  0  0  0  0
  -23.7589   -5.5367   22.9430 C   0  0  0  0  0  0  0  0  0  0  0  0
  -24.0099   -4.2833   22.3849 C   0  0  0  0  0  0  0  0  0  0  0  0
  -27.4143  -19.0648   23.1614 C   0  0  0  0  0  0  0  0  0  0  0  0
  -26.2738  -25.8872   22.5625 C   0  0  0  0  0  0  0  0  0  0  0  0
  -21.6521   -4.0124   21.9326 C   0  0  0  0  0  0  0  0  0  0  0  0
  -24.0496  -10.5601   21.8095 C   0  0  0  0  0  0  0  0  0  0  0  0
  -24.1009  -12.9423   20.8983 C   0  0  0  0  0  0  0  0  0  0  0  0
  -18.2489  -30.2126   22.5382 C   0  0  0  0  0  0  0  0  0  0  0  0
  -24.8288  -27.2700   23.9263 C   0  0  0  0  0  0  0  0  0  0  0  0
  -19.1844  -29.1639   22.6254 C   0  0  0  0  0  0  0  0  0  0  0  0
  -28.8004  -19.1454   23.0282 C   0  0  0  0  0  0  0  0  0  0  0  0
  -25.6364  -27.1164   22.7904 C   0  0  0  0  0  0  0  0  0  0  0  0
  -26.6831  -20.1916   23.5376 C   0  0  0  0  0  0  0  0  0  0  0  0
  -29.4554  -20.3527   23.2714 C   0  0  0  0  0  0  0  0  0  0  0  0
  -28.7242  -21.4794   23.6476 C   0  0  0  0  0  0  0  0  0  0  0  0
  -27.3380  -21.3988   23.7808 C   0  0  0  0  0  0  0  0  0  0  0  0
  -22.8112   -8.3507   22.9788 C   0  0  0  0  0  0  0  0  0  0  0  0
  -26.1203  -24.8297   23.4587 C   0  0  0  0  0  0  0  0  0  0  0  0
  -22.4544   -6.0280   22.9960 C   0  0  0  0  0  0  0  0  0  0  0  0
  -22.9566   -3.5212   21.8797 C   0  0  0  0  0  0  0  0  0  0  0  0
  -21.4011   -5.2659   22.4908 C   0  0  0  0  0  0  0  0  0  0  0  0
  -24.6898  -11.7012   21.2062 C   0  0  0  0  0  0  0  0  0  0  0  0
  -25.1201  -13.6781   20.3450 C   0  0  0  0  0  0  0  0  0  0  0  0
  -22.7531  -13.3899   21.0950 C   0  0  0  0  0  0  0  0  0  0  0  0
  -22.8324  -28.9257   22.0888 C   0  0  0  0  0  0  0  0  0  0  0  0
  -25.4744  -30.7135   21.5009 C   0  0  0  0  0  0  0  0  0  0  0  0
  -28.8804  -30.9063   21.4080 C   0  0  0  0  0  0  0  0  0  0  0  0
  -30.5049  -15.3568   20.5579 C   0  0  0  0  0  0  0  0  0  0  0  0
  -18.3411  -31.2710   21.4677 C   0  0  0  0  0  0  0  0  0  0  0  0
  -24.1533  -28.5839   24.2087 C   0  0  0  0  0  0  0  0  0  0  0  0
  -25.8333  -28.2342   21.8003 C   0  0  0  0  0  0  0  0  0  0  0  0
  -19.7164  -31.3543   20.8105 C   0  0  0  0  0  0  0  0  0  0  0  0
  -29.7161  -12.3246   18.7924 C   0  0  0  0  0  0  0  0  0  0  0  0
  -20.2206  -29.9608   20.4489 C   0  0  0  0  0  0  0  0  0  0  0  0
  -28.3160  -11.9604   19.2751 C   0  0  0  0  0  0  0  0  0  0  0  0
  -30.5232  -12.9768   19.9070 C   0  0  0  0  0  0  0  0  0  0  0  0
  -28.8307  -16.5913   22.1494 C   0  0  0  0  0  0  0  0  0  0  0  0
  -30.2831  -17.8154   21.2084 C   0  0  0  0  0  0  0  0  0  0  0  0
  -28.4573  -13.8792   20.9423 C   0  0  0  0  0  0  0  0  0  0  0  0
  -29.6093  -17.8513   22.5994 C   0  0  0  0  0  0  0  0  0  0  0  0
  -20.3802  -29.0898   21.7009 C   0  0  1  0  0  0  0  0  0  0  0  0
  -23.9492  -29.4320   22.9571 C   0  0  1  0  0  0  0  0  0  0  0  0
  -27.6088  -13.1950   19.8521 C   0  0  2  0  0  0  0  0  0  0  0  0
  -25.2001  -20.0781   23.6732 C   0  0  0  0  0  0  0  0  0  0  0  0
  -30.9420  -20.4334   23.1272 C   0  0  0  0  0  0  0  0  0  0  0  0
  -29.4271  -22.7741   23.9083 C   0  0  0  0  0  0  0  0  0  0  0  0
  -30.7497  -32.4856   20.8519 C   0  0  0  0  0  0  0  0  0  0  0  0
  -24.9542  -30.2780   18.5260 C   0  0  0  0  0  0  0  0  0  0  0  0
  -27.2990  -31.0319   18.0768 C   0  0  0  0  0  0  0  0  0  0  0  0
  -25.6679  -32.5971   19.1316 C   0  0  0  0  0  0  0  0  0  0  0  0
  -29.9445  -30.8024   24.1677 C   0  0  0  0  0  0  0  0  0  0  0  0
  -26.5514  -22.6060   24.1835 C   0  0  0  0  0  0  0  0  0  1  0  0
  -26.5900  -30.6706   20.4846 C   0  0  1  0  0  0  0  0  0  0  0  0
  -29.8457  -31.9455   21.9491 C   0  0  2  0  0  0  0  0  0  0  0  0
  -26.1227  -31.1225   19.0722 C   0  0  0  0  0  0  0  0  0  0  0  0
  -25.9829  -11.6479   20.8757 N   0  0  0  0  0  0  0  0  0  0  0  0
  -26.2149  -12.8647   20.3544 N   0  0  0  0  0  0  0  0  0  0  0  0
  -25.1469  -29.4976   22.1173 N   0  0  0  0  0  0  0  0  0  0  0  0
  -29.8311  -14.1323   20.4861 N   0  0  0  0  0  0  0  0  0  0  0  0
  -29.8561  -16.4235   21.1338 N   0  0  0  0  0  0  0  0  0  0  0  0
  -25.1778  -14.9352   19.8561 N   0  0  0  0  0  0  0  0  0  0  0  0
  -21.8338  -12.5064   21.6769 N   0  0  0  0  0  0  0  0  0  0  0  0
  -21.5915  -29.4417   22.4103 N   0  0  0  0  0  0  0  0  0  0  0  0
  -27.6775  -31.4699   21.0383 N   0  0  0  0  0  0  0  0  0  0  0  0
  -30.7024  -31.3518   23.0142 N   0  3  0  0  0  0  0  0  0  0  0  0
  -22.3710  -14.5336   20.7494 O   0  0  0  0  0  0  0  0  0  0  0  0
  -23.0785  -28.1272   21.1923 O   0  0  0  0  0  0  0  0  0  0  0  0
  -24.9190  -31.7878   21.7441 O   0  0  0  0  0  0  0  0  0  0  0  0
  -29.1664  -29.7143   21.3184 O   0  0  0  0  0  0  0  0  0  0  0  0
  -31.6653  -15.4888   20.1468 O   0  0  0  0  0  0  0  0  0  0  0  0
  -22.2069   -7.2729   23.5497 O   0  0  0  0  0  0  0  0  0  0  0  0
  -26.7503  -23.6349   23.2241 O   0  0  0  0  0  0  0  0  0  1  0  0
  -23.1980   -2.3182   21.3423 F   0  0  0  0  0  0  0  0  0  0  0  0
  -20.1460   -5.7330   22.5378 F   0  0  0  0  0  0  0  0  0  0  0  0
  1  2  1  0  0  0  0
  1  5  2  0  0  0  0
  2  6  2  0  0  0  0
  3  8  2  0  0  0  0
  3 16  1  0  0  0  0
  4  9  1  0  0  0  0
  4 16  2  0  0  0  0
  5 18  1  0  0  0  0
  6 20  1  0  0  0  0
  7 10  2  0  0  0  0
  7 19  1  0  0  0  0
  8 27  1  0  0  0  0
  9 27  2  0  0  0  0
 10 28  1  0  0  0  0
 11 12  2  0  0  0  0
 11 29  1  0  0  0  0
 12 30  1  0  0  0  0
 13 21  1  0  0  0  0
 13 23  2  0  0  0  0
 14 22  1  0  0  0  0
 14 28  2  0  0  0  0
 15 30  2  0  0  0  0
 15 31  1  0  0  0  0
 16 32  1  0  0  0  0
 17 32  1  0  0  0  0
 17 33  2  0  0  0  0
 17 34  1  0  0  0  0
 18 20  2  0  0  0  0
 18 39  1  0  0  0  0
 19 22  2  0  0  0  0
 19 40  1  0  0  0  0
 20 51  1  0  0  0  0
 21 24  2  0  0  0  0
 21 50  1  0  0  0  0
 22 41  1  0  0  0  0
 23 26  1  0  0  0  0
 23 54  1  0  0  0  0
 24 25  1  0  0  0  0
 24 55  1  0  0  0  0
 25 26  2  0  0  0  0
 25 56  1  0  0  0  0
 26 62  1  0  0  0  0
 27 81  1  0  0  0  0
 28 82  1  0  0  0  0
 29 31  2  0  0  0  0
 29 81  1  0  0  0  0
 30 83  1  0  0  0  0
 31 84  1  0  0  0  0
 32 66  2  0  0  0  0
 33 67  1  0  0  0  0
 33 71  1  0  0  0  0
 34 72  1  0  0  0  0
 34 76  2  0  0  0  0
 35 52  1  0  0  0  0
 35 73  1  0  0  0  0
 35 77  2  0  0  0  0
 36 63  1  0  0  0  0
 36 68  1  0  0  0  0
 36 78  2  0  0  0  0
 37 64  1  0  0  0  0
 37 74  1  0  0  0  0
 37 79  2  0  0  0  0
 38 69  1  0  0  0  0
 38 70  1  0  0  0  0
 38 80  2  0  0  0  0
 39 42  1  0  0  0  0
 40 52  1  0  0  0  0
 41 68  1  0  0  0  0
 42 44  1  0  0  0  0
 43 45  1  0  0  0  0
 43 46  1  0  0  0  0
 44 51  1  0  0  0  0
 45 53  1  0  0  0  0
 46 69  1  0  0  0  0
 47 50  1  0  0  0  0
 47 70  1  0  0  0  0
 48 50  1  0  0  0  0
 48 70  1  0  0  0  0
 49 53  1  0  0  0  0
 49 69  1  0  0  0  0
 51 73  1  0  0  0  0
 52 68  1  0  0  0  0
 53 67  1  0  0  0  0
 57 64  1  0  0  0  0
 58 65  1  0  0  0  0
 59 65  1  0  0  0  0
 60 65  1  0  0  0  0
 61 75  1  0  0  0  0
 62 82  1  0  0  0  0
 63 65  1  0  0  0  0
 63 74  1  0  0  0  0
 64 75  1  0  0  0  0
 66 67  1  0  0  0  0
M  CHG  1  75   1
M  ISO  4  38 100  62 101  70 100  82 101
M  END
> <Batch ID>
0165

> <Smiles>
CNC(C)C(=O)NC(C(=O)N1Cc2cc([101O:1][101CH2:1]c3c(C)cc(C4C[100N:0]([100C:0](=O)N5CCCC(n6nc(-c7ccc(Oc8ccc(F)cc8F)cc7)c(C(N)=O)c6N)C5)C4)c(C)c3C)ccc2CC1C(=O)NC1CCCc2ccccc21)C(C)(C)C

> <Shape>
0.261

> <Color>
0.186

> <Negative vol penalty>
0.000

$$$$

  -OEChem-04052322223D

 85 94  0     1  0  0  0  0  0999 V2000
  -21.1281  -34.8506   22.2200 C   0  0  0  0  0  0  0  0  0  0  0  0
  -22.3576  -34.2123   22.0922 C   0  0  0  0  0  0  0  0  0  0  0  0
  -24.5183   -9.7288   21.3710 C   0  0  0  0  0  0  0  0  0  0  0  0
  -25.0131  -10.7533   23.5023 C   0  0  0  0  0  0  0  0  0  0  0  0
  -20.0261  -34.1477   22.7053 C   0  0  0  0  0  0  0  0  0  0  0  0
  -22.4860  -32.8708   22.4507 C   0  0  0  0  0  0  0  0  0  0  0  0
  -28.6776  -22.3501   20.6955 C   0  0  0  0  0  0  0  0  0  0  0  0
  -26.0645  -28.6748   19.7873 C   0  0  0  0  0  0  0  0  0  0  0  0
  -28.8954  -23.7071   20.9335 C   0  0  0  0  0  0  0  0  0  0  0  0
  -24.2488   -8.5208   22.0142 C   0  0  0  0  0  0  0  0  0  0  0  0
  -24.7434   -9.5453   24.1456 C   0  0  0  0  0  0  0  0  0  0  0  0
  -27.3214  -28.1690   20.1162 C   0  0  0  0  0  0  0  0  0  0  0  0
  -23.0805   -5.2641   23.1297 C   0  0  0  0  0  0  0  0  0  0  0  0
  -21.9394   -4.5628   22.7406 C   0  0  0  0  0  0  0  0  0  0  0  0
  -27.6533  -22.1326   22.8728 C   0  0  0  0  0  0  0  0  0  0  0  0
  -26.2725  -26.3035   21.2294 C   0  0  0  0  0  0  0  0  0  0  0  0
  -20.5651   -6.4439   23.3808 C   0  0  0  0  0  0  0  0  0  0  0  0
  -24.9006  -10.8450   22.1150 C   0  0  0  0  0  0  0  0  0  0  0  0
  -24.2678  -13.1268   21.1660 C   0  0  0  0  0  0  0  0  0  0  0  0
  -28.0564  -21.5628   21.6652 C   0  0  0  0  0  0  0  0  0  0  0  0
  -20.1388  -32.7944   23.0608 C   0  0  0  0  0  0  0  0  0  0  0  0
  -24.9001  -28.0034   20.1871 C   0  0  0  0  0  0  0  0  0  0  0  0
  -21.3848  -32.1496   22.9424 C   0  0  0  0  0  0  0  0  0  0  0  0
  -25.0022  -26.8016   20.9021 C   0  0  0  0  0  0  0  0  0  0  0  0
  -28.4922  -24.2769   22.1411 C   0  0  0  0  0  0  0  0  0  0  0  0
  -24.3613   -8.4291   23.4015 C   0  0  0  0  0  0  0  0  0  0  0  0
  -27.4255  -26.9846   20.8399 C   0  0  0  0  0  0  0  0  0  0  0  0
  -22.9640   -6.5553   23.6444 C   0  0  0  0  0  0  0  0  0  0  0  0
  -27.8711  -23.4897   23.1108 C   0  0  0  0  0  0  0  0  0  0  0  0
  -20.6816   -5.1527   22.8661 C   0  0  0  0  0  0  0  0  0  0  0  0
  -21.7063   -7.1452   23.7699 C   0  0  0  0  0  0  0  0  0  0  0  0
  -25.1797  -12.0930   21.4511 C   0  0  0  0  0  0  0  0  0  0  0  0
  -25.0213  -14.0842   20.5319 C   0  0  0  0  0  0  0  0  0  0  0  0
  -22.8650  -13.2141   21.4492 C   0  0  0  0  0  0  0  0  0  0  0  0
  -22.4263  -28.7184   22.0506 C   0  0  0  0  0  0  0  0  0  0  0  0
  -21.2914  -25.8776   20.9716 C   0  0  0  0  0  0  0  0  0  0  0  0
  -21.9626  -22.8006   19.6570 C   0  0  0  0  0  0  0  0  0  0  0  0
  -29.6859  -17.1195   20.1764 C   0  0  0  0  0  0  0  0  0  0  0  0
  -18.9310  -32.0891   23.6252 C   0  0  0  0  0  0  0  0  0  0  0  0
  -23.5522  -28.5482   19.8013 C   0  0  0  0  0  0  0  0  0  0  0  0
  -23.7829  -26.0319   21.3374 C   0  0  0  0  0  0  0  0  0  0  0  0
  -19.0607  -30.5681   23.6296 C   0  0  0  0  0  0  0  0  0  0  0  0
  -29.7071  -13.9176   18.6829 C   0  0  0  0  0  0  0  0  0  0  0  0
  -20.4223  -30.1500   24.1758 C   0  0  0  0  0  0  0  0  0  0  0  0
  -28.4797  -13.2225   19.2656 C   0  0  0  0  0  0  0  0  0  0  0  0
  -27.8675  -19.1563   22.6257 C   0  0  0  0  0  0  0  0  0  0  0  0
  -30.3821  -14.7920   19.7312 C   0  0  0  0  0  0  0  0  0  0  0  0
  -28.0051  -17.7772   21.9949 C   0  0  0  0  0  0  0  0  0  0  0  0
  -28.8542  -19.4316   20.4835 C   0  0  0  0  0  0  0  0  0  0  0  0
  -28.2229  -15.1673   20.8918 C   0  0  0  0  0  0  0  0  0  0  0  0
  -27.8198  -20.0913   21.4063 C   0  0  2  0  0  0  0  0  0  0  0  0
  -21.5580  -30.6887   23.2975 C   0  0  1  0  0  0  0  0  0  0  0  0
  -22.4267  -28.0522   20.7038 C   0  0  1  0  0  0  0  0  0  0  0  0
  -27.5132  -14.2502   19.8744 C   0  0  2  0  0  0  0  0  0  0  0  0
  -30.0997  -26.0084   23.0135 C   0  0  0  0  0  0  0  0  0  0  0  0
  -20.8330  -20.6851   18.9179 C   0  0  0  0  0  0  0  0  0  0  0  0
  -20.9146  -25.0628   23.8878 C   0  0  0  0  0  0  0  0  0  0  0  0
  -20.7072  -22.6873   23.1247 C   0  0  0  0  0  0  0  0  0  0  0  0
  -19.0476  -24.3884   22.3667 C   0  0  0  0  0  0  0  0  0  0  0  0
  -22.9393  -23.1118   16.8806 C   0  0  0  0  0  0  0  0  0  0  0  0
  -26.8437  -23.1534   25.2290 C   0  0  0  0  0  0  0  0  0  0  0  0
  -28.7348  -25.7306   22.3790 C   0  0  1  0  0  0  0  0  0  1  0  0
  -21.3945  -24.4423   21.4280 C   0  0  1  0  0  0  0  0  0  0  0  0
  -21.3506  -22.0491   18.4885 C   0  0  2  0  0  0  0  0  0  0  0  0
  -20.5392  -24.1605   22.6954 C   0  0  0  0  0  0  0  0  0  0  0  0
  -26.4180  -12.3676   21.0323 N   0  0  0  0  0  0  0  0  0  0  0  0
  -26.2894  -13.5848   20.4775 N   0  0  0  0  0  0  0  0  0  0  0  0
  -22.4875  -26.6086   20.9415 N   0  0  0  0  0  0  0  0  0  0  0  0
  -29.4468  -15.7489   20.3255 N   0  0  0  0  0  0  0  0  0  0  0  0
  -28.8036  -18.0061   20.7925 N   0  0  0  0  0  0  0  0  0  0  0  0
  -24.7163  -15.2959   20.0210 N   0  0  0  0  0  0  0  0  0  0  0  0
  -22.2482  -12.1412   22.1073 N   0  0  0  0  0  0  0  0  0  0  0  0
  -21.6931  -29.8887   22.0991 N   0  0  0  0  0  0  0  0  0  0  0  0
  -21.0425  -23.6210   20.2748 N   0  0  0  0  0  0  0  0  0  0  0  0
  -22.3630  -21.8503   17.4131 N   0  3  0  0  0  0  0  0  0  0  0  0
  -22.1754  -14.2067   21.1136 O   0  0  0  0  0  0  0  0  0  0  0  0
  -23.0441  -28.2077   22.9775 O   0  0  0  0  0  0  0  0  0  0  0  0
  -20.1913  -26.3313   20.6467 O   0  0  0  0  0  0  0  0  0  0  0  0
  -23.1382  -22.6698   19.9907 O   0  0  0  0  0  0  0  0  0  0  0  0
  -30.6715  -17.5360   19.5527 O   0  0  0  0  0  0  0  0  0  0  0  0
  -24.0980   -7.2506   24.0295 O   0  0  0  0  0  0  0  0  0  0  0  0
  -27.4701  -24.0306   24.2952 O   0  0  0  0  0  0  0  0  0  0  0  0
  -28.6548  -26.4875   21.1638 O   0  0  0  0  0  0  0  0  0  1  0  0
  -19.5859   -4.4797   22.4910 F   0  0  0  0  0  0  0  0  0  0  0  0
  -21.5881   -8.3858   24.2626 F   0  0  0  0  0  0  0  0  0  0  0  0
  1  2  1  0  0  0  0
  1  5  2  0  0  0  0
  2  6  2  0  0  0  0
  3 10  2  0  0  0  0
  3 18  1  0  0  0  0
  4 11  1  0  0  0  0
  4 18  2  0  0  0  0
  5 21  1  0  0  0  0
  6 23  1  0  0  0  0
  7  9  2  0  0  0  0
  7 20  1  0  0  0  0
  8 12  2  0  0  0  0
  8 22  1  0  0  0  0
  9 25  1  0  0  0  0
 10 26  1  0  0  0  0
 11 26  2  0  0  0  0
 12 27  1  0  0  0  0
 13 14  2  0  0  0  0
 13 28  1  0  0  0  0
 14 30  1  0  0  0  0
 15 20  2  0  0  0  0
 15 29  1  0  0  0  0
 16 24  1  0  0  0  0
 16 27  2  0  0  0  0
 17 30  2  0  0  0  0
 17 31  1  0  0  0  0
 18 32  1  0  0  0  0
 19 32  1  0  0  0  0
 19 33  2  0  0  0  0
 19 34  1  0  0  0  0
 20 51  1  0  0  0  0
 21 23  2  0  0  0  0
 21 39  1  0  0  0  0
 22 24  2  0  0  0  0
 22 40  1  0  0  0  0
 23 52  1  0  0  0  0
 24 41  1  0  0  0  0
 25 29  2  0  0  0  0
 25 62  1  0  0  0  0
 26 81  1  0  0  0  0
 27 83  1  0  0  0  0
 28 31  2  0  0  0  0
 28 81  1  0  0  0  0
 29 82  1  0  0  0  0
 30 84  1  0  0  0  0
 31 85  1  0  0  0  0
 32 66  2  0  0  0  0
 33 67  1  0  0  0  0
 33 71  1  0  0  0  0
 34 72  1  0  0  0  0
 34 76  2  0  0  0  0
 35 53  1  0  0  0  0
 35 73  1  0  0  0  0
 35 77  2  0  0  0  0
 36 63  1  0  0  0  0
 36 68  1  0  0  0  0
 36 78  2  0  0  0  0
 37 64  1  0  0  0  0
 37 74  1  0  0  0  0
 37 79  2  0  0  0  0
 38 69  1  0  0  0  0
 38 70  1  0  0  0  0
 38 80  2  0  0  0  0
 39 42  1  0  0  0  0
 40 53  1  0  0  0  0
 41 68  1  0  0  0  0
 42 44  1  0  0  0  0
 43 45  1  0  0  0  0
 43 47  1  0  0  0  0
 44 52  1  0  0  0  0
 45 54  1  0  0  0  0
 46 48  1  0  0  0  0
 46 51  1  0  0  0  0
 47 69  1  0  0  0  0
 48 70  1  0  0  0  0
 49 51  1  0  0  0  0
 49 70  1  0  0  0  0
 50 54  1  0  0  0  0
 50 69  1  0  0  0  0
 52 73  1  0  0  0  0
 53 68  1  0  0  0  0
 54 67  1  0  0  0  0
 55 62  1  0  0  0  0
 56 64  1  0  0  0  0
 57 65  1  0  0  0  0
 58 65  1  0  0  0  0
 59 65  1  0  0  0  0
 60 75  1  0  0  0  0
 61 82  1  0  0  0  0
 62 83  1  0  0  0  0
 63 65  1  0  0  0  0
 63 74  1  0  0  0  0
 64 75  1  0  0  0  0
 66 67  1  0  0  0  0
M  CHG  1  75   1
M  ISO  4  38 100  62 101  70 100  83 101
M  END
> <Batch ID>
0165

> <Smiles>
CNC(C)C(=O)NC(C(=O)N1Cc2cc([101O:1][101CH:1](C)c3ccc(C4CC[100N:0]([100C:0](=O)N5CCCC(n6nc(-c7ccc(Oc8ccc(F)cc8F)cc7)c(C(N)=O)c6N)C5)C4)cc3OC)ccc2CC1C(=O)NC1CCCc2ccccc21)C(C)(C)C

> <Shape>
0.254

> <Color>
0.140

> <Negative vol penalty>
0.000

$$$$

  -OEChem-04052322223D

 88 98  0     1  0  0  0  0  0999 V2000
  -28.1823  -33.8937   26.0716 C   0  0  0  0  0  0  0  0  0  0  0  0
  -28.2386  -32.6181   25.5192 C   0  0  0  0  0  0  0  0  0  0  0  0
  -25.3345  -10.0163   23.1130 C   0  0  0  0  0  0  0  0  0  0  0  0
  -24.1540   -9.1990   21.1699 C   0  0  0  0  0  0  0  0  0  0  0  0
  -26.9492  -34.5162   26.2611 C   0  0  0  0  0  0  0  0  0  0  0  0
  -27.0617  -31.9638   25.1570 C   0  0  0  0  0  0  0  0  0  0  0  0
  -27.3905  -29.7461   20.6162 C   0  0  0  0  0  0  0  0  0  0  0  0
  -24.4160   -9.3722   23.9419 C   0  0  0  0  0  0  0  0  0  0  0  0
  -23.2355   -8.5550   21.9988 C   0  0  0  0  0  0  0  0  0  0  0  0
  -28.0767  -28.5345   20.5476 C   0  0  0  0  0  0  0  0  0  0  0  0
  -23.0973   -5.7181   23.8301 C   0  0  0  0  0  0  0  0  0  0  0  0
  -22.7454   -4.4070   23.5095 C   0  0  0  0  0  0  0  0  0  0  0  0
  -25.9752  -27.3502   20.5629 C   0  0  0  0  0  0  0  0  0  0  0  0
  -30.5528  -22.7129   21.2535 C   0  0  0  0  0  0  0  0  0  0  0  0
  -20.4372   -5.0826   23.2800 C   0  0  0  0  0  0  0  0  0  0  0  0
  -25.2035   -9.9297   21.7270 C   0  0  0  0  0  0  0  0  0  0  0  0
  -27.3537  -10.0680   20.3613 C   0  0  0  0  0  0  0  0  0  0  0  0
  -25.7572  -33.8731   25.8921 C   0  0  0  0  0  0  0  0  0  0  0  0
  -25.9894  -29.7685   20.6698 C   0  0  0  0  0  0  0  0  0  0  0  0
  -25.8114  -32.5777   25.3430 C   0  0  0  0  0  0  0  0  0  0  0  0
  -25.2734  -28.5636   20.6296 C   0  0  0  0  0  0  0  0  0  0  0  0
  -31.0424  -22.3159   20.0142 C   0  0  0  0  0  0  0  0  0  0  0  0
  -30.0280  -23.9909   21.4106 C   0  0  0  0  0  0  0  0  0  0  0  0
  -23.3665   -8.6416   23.3849 C   0  0  0  0  0  0  0  0  0  0  0  0
  -27.3692  -27.3362   20.5238 C   0  0  0  0  0  0  0  0  0  0  0  0
  -22.1191   -6.7115   23.8757 C   0  0  0  0  0  0  0  0  0  0  0  0
  -21.4154   -4.0892   23.2344 C   0  0  0  0  0  0  0  0  0  0  0  0
  -20.7891   -6.3937   23.6006 C   0  0  0  0  0  0  0  0  0  0  0  0
  -26.1517  -10.5952   20.8701 C   0  0  0  0  0  0  0  0  0  0  0  0
  -30.9848  -23.2272   18.9720 C   0  0  0  0  0  0  0  0  0  0  0  0
  -30.0160  -24.8272   20.3060 C   0  0  0  0  0  0  0  0  0  0  0  0
  -27.8845  -11.0874   19.6091 C   0  0  0  0  0  0  0  0  0  0  0  0
  -27.9383   -8.7727   20.5515 C   0  0  0  0  0  0  0  0  0  0  0  0
  -23.8413  -30.7913   22.7778 C   0  0  0  0  0  0  0  0  0  0  0  0
  -21.7425  -30.0196   20.4280 C   0  0  0  0  0  0  0  0  0  0  0  0
  -21.0647  -28.1695   17.6415 C   0  0  0  0  0  0  0  0  0  0  0  0
  -29.2310  -16.2187   18.7867 C   0  0  0  0  0  0  0  0  0  0  0  0
  -24.4450  -34.5668   26.1598 C   0  0  0  0  0  0  0  0  0  0  0  0
  -25.2631  -31.0849   20.7167 C   0  0  0  0  0  0  0  0  0  0  0  0
  -23.7680  -28.5341   20.6644 C   0  0  0  0  0  0  0  0  0  0  0  0
  -23.2679  -33.9568   25.4032 C   0  0  0  0  0  0  0  0  0  0  0  0
  -25.8722  -15.4630   18.0859 C   0  0  0  0  0  0  0  0  0  0  0  0
  -23.2833  -32.4366   25.5280 C   0  0  0  0  0  0  0  0  0  0  0  0
  -32.9650  -23.0071   17.3274 C   0  0  0  0  0  0  0  0  0  0  0  0
  -31.9699  -23.9233   16.6865 C   0  0  0  0  0  0  0  0  0  0  0  0
  -25.7367  -14.0753   18.7119 C   0  0  0  0  0  0  0  0  0  0  0  0
  -26.7086  -16.4046   18.9542 C   0  0  0  0  0  0  0  0  0  0  0  0
  -28.6130  -18.6499   19.1499 C   0  0  0  0  0  0  0  0  0  0  0  0
  -30.4655  -18.0335   17.6412 C   0  0  0  0  0  0  0  0  0  0  0  0
  -27.9026  -14.4767   19.9423 C   0  0  0  0  0  0  0  0  0  0  0  0
  -29.5585  -19.5216   19.9701 C   0  0  0  0  0  0  0  0  0  0  0  0
  -31.4413  -18.8725   18.4500 C   0  0  0  0  0  0  0  0  0  0  0  0
  -24.5583  -31.8455   24.9145 C   0  0  1  0  0  0  0  0  0  0  0  0
  -31.4986  -22.8432   17.6221 C   0  0  0  0  0  0  0  0  0  0  0  0
  -23.8525  -30.9691   21.2858 C   0  0  1  0  0  0  0  0  0  0  0  0
  -27.1163  -13.4912   19.0640 C   0  0  1  0  0  0  0  0  0  0  0  0
  -29.5018  -24.4214   22.7360 C   0  0  0  0  0  0  0  0  0  0  0  0
  -19.2517  -27.7269   15.9637 C   0  0  0  0  0  0  0  0  0  0  0  0
  -20.2584  -28.3216   22.4832 C   0  0  0  0  0  0  0  0  0  0  0  0
  -19.0748  -27.1890   20.5899 C   0  0  0  0  0  0  0  0  0  0  0  0
  -18.7802  -29.6390   20.9555 C   0  0  0  0  0  0  0  0  0  0  0  0
  -22.7471  -29.1199   15.3998 C   0  0  0  0  0  0  0  0  0  0  0  0
  -31.6087  -20.9374   19.8410 C   0  0  0  0  0  0  0  0  0  0  0  0
  -29.4608  -26.2095   20.4150 C   0  0  0  0  0  0  0  0  0  1  0  0
  -20.9757  -28.7769   20.0451 C   0  0  1  0  0  0  0  0  0  0  0  0
  -20.4839  -28.5552   16.2930 C   0  0  2  0  0  0  0  0  0  0  0  0
  -19.8007  -28.4818   21.0197 C   0  0  0  0  0  0  0  0  0  0  0  0
  -25.9316  -11.8519   20.4747 N   0  0  0  0  0  0  0  0  0  0  0  0
  -30.4825  -24.4770   19.0863 N   0  0  0  0  0  0  0  0  0  0  0  0
  -27.0026  -12.1229   19.7095 N   0  0  0  0  0  0  0  0  0  0  0  0
  -23.1036  -29.8469   20.7165 N   0  0  0  0  0  0  0  0  0  0  0  0
  -27.9976  -15.7884   19.2982 N   0  0  0  0  0  0  0  0  0  0  0  0
  -29.3474  -17.5792   18.4652 N   0  0  0  0  0  0  0  0  0  0  0  0
  -29.0149  -11.1899   18.8783 N   0  0  0  0  0  0  0  0  0  0  0  0
  -27.2604   -7.8452   21.3544 N   0  0  0  0  0  0  0  0  0  0  0  0
  -24.4577  -31.8155   23.4711 N   0  0  0  0  0  0  0  0  0  0  0  0
  -20.5684  -28.9602   18.6563 N   0  0  0  0  0  0  0  0  0  0  0  0
  -30.6880  -20.0117   19.0963 N   0  3  0  0  0  0  0  0  0  0  0  0
  -21.4923  -28.3462   15.2158 N   0  3  0  0  0  0  0  0  0  0  0  0
  -29.0374   -8.4531   20.0385 O   0  0  0  0  0  0  0  0  0  0  0  0
  -23.3114  -29.7991   23.2641 O   0  0  0  0  0  0  0  0  0  0  0  0
  -21.1570  -31.1048   20.4625 O   0  0  0  0  0  0  0  0  0  0  0  0
  -21.8745  -27.2557   17.7812 O   0  0  0  0  0  0  0  0  0  0  0  0
  -30.1737  -15.4331   18.6272 O   0  0  0  0  0  0  0  0  0  0  0  0
  -22.4702   -8.0128   24.1934 O   0  0  0  0  0  0  0  0  0  0  0  0
  -28.0413  -26.1436   20.4570 O   0  0  0  0  0  0  0  0  0  1  0  0
  -21.0779   -2.8305   22.9250 F   0  0  0  0  0  0  0  0  0  0  0  0
  -19.8451   -7.3440   23.6417 F   0  0  0  0  0  0  0  0  0  0  0  0
  1  2  1  0  0  0  0
  1  5  2  0  0  0  0
  2  6  2  0  0  0  0
  3  8  2  0  0  0  0
  3 16  1  0  0  0  0
  4  9  1  0  0  0  0
  4 16  2  0  0  0  0
  5 18  1  0  0  0  0
  6 20  1  0  0  0  0
  7 10  2  0  0  0  0
  7 19  1  0  0  0  0
  8 24  1  0  0  0  0
  9 24  2  0  0  0  0
 10 25  1  0  0  0  0
 11 12  2  0  0  0  0
 11 26  1  0  0  0  0
 12 27  1  0  0  0  0
 13 21  1  0  0  0  0
 13 25  2  0  0  0  0
 14 22  2  0  0  0  0
 14 23  1  0  0  0  0
 15 27  2  0  0  0  0
 15 28  1  0  0  0  0
 16 29  1  0  0  0  0
 17 29  1  0  0  0  0
 17 32  2  0  0  0  0
 17 33  1  0  0  0  0
 18 20  2  0  0  0  0
 18 38  1  0  0  0  0
 19 21  2  0  0  0  0
 19 39  1  0  0  0  0
 20 53  1  0  0  0  0
 21 40  1  0  0  0  0
 22 30  1  0  0  0  0
 22 63  1  0  0  0  0
 23 31  2  0  0  0  0
 23 57  1  0  0  0  0
 24 85  1  0  0  0  0
 25 86  1  0  0  0  0
 26 28  2  0  0  0  0
 26 85  1  0  0  0  0
 27 87  1  0  0  0  0
 28 88  1  0  0  0  0
 29 68  2  0  0  0  0
 30 54  1  0  0  0  0
 30 69  2  0  0  0  0
 31 64  1  0  0  0  0
 31 69  1  0  0  0  0
 32 70  1  0  0  0  0
 32 74  1  0  0  0  0
 33 75  1  0  0  0  0
 33 80  2  0  0  0  0
 34 55  1  0  0  0  0
 34 76  1  0  0  0  0
 34 81  2  0  0  0  0
 35 65  1  0  0  0  0
 35 71  1  0  0  0  0
 35 82  2  0  0  0  0
 36 66  1  0  0  0  0
 36 77  1  0  0  0  0
 36 83  2  0  0  0  0
 37 72  1  0  0  0  0
 37 73  1  0  0  0  0
 37 84  2  0  0  0  0
 38 41  1  0  0  0  0
 39 55  1  0  0  0  0
 40 71  1  0  0  0  0
 41 43  1  0  0  0  0
 42 46  1  0  0  0  0
 42 47  1  0  0  0  0
 43 53  1  0  0  0  0
 44 45  1  0  0  0  0
 44 54  1  0  0  0  0
 45 54  1  0  0  0  0
 46 56  1  0  0  0  0
 47 72  1  0  0  0  0
 48 51  1  0  0  0  0
 48 73  1  0  0  0  0
 49 52  1  0  0  0  0
 49 73  1  0  0  0  0
 50 56  1  0  0  0  0
 50 72  1  0  0  0  0
 51 78  1  0  0  0  0
 52 78  1  0  0  0  0
 53 76  1  0  0  0  0
 55 71  1  0  0  0  0
 56 70  1  0  0  0  0
 58 66  1  0  0  0  0
 59 67  1  0  0  0  0
 60 67  1  0  0  0  0
 61 67  1  0  0  0  0
 62 79  1  0  0  0  0
 63 78  1  0  0  0  0
 64 86  1  0  0  0  0
 65 67  1  0  0  0  0
 65 77  1  0  0  0  0
 66 79  1  0  0  0  0
 68 70  1  0  0  0  0
M  CHG  2  78   1  79   1
M  ISO  4  37 100  64 101  73 100  86 101
M  END
> <Batch ID>
0165

> <Smiles>
CNC(C)C(=O)NC(C(=O)N1Cc2cc([101O:1][101CH2:1]c3nc(C4CC4)c(CN4CC[100N:0]([100C:0](=O)N5CCCC(n6nc(-c7ccc(Oc8ccc(F)cc8F)cc7)c(C(N)=O)c6N)C5)CC4)cc3C)ccc2CC1C(=O)NC1CCCc2ccccc21)C(C)(C)C

> <Shape>
0.300

> <Color>
0.087

> <Negative vol penalty>
0.000

$$$$

  -OEChem-04052322223D

 86 95  0     1  0  0  0  0  0999 V2000
  -23.6798   -5.9232   23.0482 C   0  0  0  0  0  0  0  0  0  0  0  0
  -24.8679   -5.9091   22.3247 C   0  0  0  0  0  0  0  0  0  0  0  0
  -24.5370  -31.5297   24.1391 C   0  0  0  0  0  0  0  0  0  0  0  0
  -25.5296  -33.0861   22.5804 C   0  0  0  0  0  0  0  0  0  0  0  0
  -22.7351   -6.9219   22.8157 C   0  0  0  0  0  0  0  0  0  0  0  0
  -25.1117   -6.8932   21.3674 C   0  0  0  0  0  0  0  0  0  0  0  0
  -31.1018  -11.8656   20.7187 C   0  0  0  0  0  0  0  0  0  0  0  0
  -30.8841  -17.7531   17.9720 C   0  0  0  0  0  0  0  0  0  0  0  0
  -24.6700  -32.4690   25.1616 C   0  0  0  0  0  0  0  0  0  0  0  0
  -25.6626  -34.0254   23.6029 C   0  0  0  0  0  0  0  0  0  0  0  0
  -32.0286  -12.9000   20.5875 C   0  0  0  0  0  0  0  0  0  0  0  0
  -30.0803  -18.8603   18.2431 C   0  0  0  0  0  0  0  0  0  0  0  0
  -23.6840  -36.2276   25.2327 C   0  0  0  0  0  0  0  0  0  0  0  0
  -23.3114  -37.5428   24.9550 C   0  0  0  0  0  0  0  0  0  0  0  0
  -30.3786  -14.2474   19.4429 C   0  0  0  0  0  0  0  0  0  0  0  0
  -31.5938  -17.7028   20.2808 C   0  0  0  0  0  0  0  0  0  0  0  0
  -25.5585  -38.2828   25.4448 C   0  0  0  0  0  0  0  0  0  0  0  0
  -24.9669  -31.8382   22.8484 C   0  0  0  0  0  0  0  0  0  0  0  0
  -23.7322  -30.7024   20.9267 C   0  0  0  0  0  0  0  0  0  0  0  0
  -22.9716   -7.9243   21.8618 C   0  0  0  0  0  0  0  0  0  0  0  0
  -29.8037  -12.0242   20.2256 C   0  0  0  0  0  0  0  0  0  0  0  0
  -24.1687   -7.9055   21.1209 C   0  0  0  0  0  0  0  0  0  0  0  0
  -29.4423  -13.2195   19.5825 C   0  0  0  0  0  0  0  0  0  0  0  0
  -31.6408  -17.1743   18.9908 C   0  0  0  0  0  0  0  0  0  0  0  0
  -30.7900  -18.8101   20.5520 C   0  0  0  0  0  0  0  0  0  0  0  0
  -25.2327  -33.7169   24.8936 C   0  0  0  0  0  0  0  0  0  0  0  0
  -31.6679  -14.0878   19.9509 C   0  0  0  0  0  0  0  0  0  0  0  0
  -30.0332  -19.3888   19.5331 C   0  0  0  0  0  0  0  0  0  0  0  0
  -24.9938  -35.9400   25.6165 C   0  0  0  0  0  0  0  0  0  0  0  0
  -24.2486  -38.5704   25.0610 C   0  0  0  0  0  0  0  0  0  0  0  0
  -25.9311  -36.9676   25.7226 C   0  0  0  0  0  0  0  0  0  0  0  0
  -24.8303  -30.8682   21.7918 C   0  0  0  0  0  0  0  0  0  0  0  0
  -24.0922  -29.6575   20.1112 C   0  0  0  0  0  0  0  0  0  0  0  0
  -22.4972  -31.4282   20.8655 C   0  0  0  0  0  0  0  0  0  0  0  0
  -26.3937  -10.5276   19.7693 C   0  0  0  0  0  0  0  0  0  0  0  0
  -25.9810  -13.4748   20.5133 C   0  0  0  0  0  0  0  0  0  0  0  0
  -25.9494  -16.6493   21.7618 C   0  0  0  0  0  0  0  0  0  0  0  0
  -26.7230  -24.7461   20.1443 C   0  0  0  0  0  0  0  0  0  0  0  0
  -21.9002   -8.9560   21.6120 C   0  0  0  0  0  0  0  0  0  0  0  0
  -28.7909  -10.9134   20.2901 C   0  0  0  0  0  0  0  0  0  0  0  0
  -28.0450  -13.3325   19.0368 C   0  0  0  0  0  0  0  0  0  0  0  0
  -22.3984  -10.1780   20.8448 C   0  0  0  0  0  0  0  0  0  0  0  0
  -28.3631  -27.5491   18.8119 C   0  0  0  0  0  0  0  0  0  0  0  0
  -23.2376   -9.7496   19.6451 C   0  0  0  0  0  0  0  0  0  0  0  0
  -27.5079  -28.6906   19.3612 C   0  0  0  0  0  0  0  0  0  0  0  0
  -28.3289  -22.0458   18.1752 C   0  0  0  0  0  0  0  0  0  0  0  0
  -29.9183  -22.7934   19.9985 C   0  0  0  0  0  0  0  0  0  0  0  0
  -28.5793  -26.4451   19.8483 C   0  0  0  0  0  0  0  0  0  0  0  0
  -27.1670  -22.6118   18.9901 C   0  0  0  0  0  0  0  0  0  0  0  0
  -28.7204  -23.3385   20.7728 C   0  0  0  0  0  0  0  0  0  0  0  0
  -26.4722  -27.0619   20.9868 C   0  0  0  0  0  0  0  0  0  0  0  0
  -24.4804   -8.9700   20.0914 C   0  0  1  0  0  0  0  0  0  0  0  0
  -27.3528  -11.4195   20.5015 C   0  0  1  0  0  0  0  0  0  0  0  0
  -26.1885  -28.1591   19.9491 C   0  0  1  0  0  0  0  0  0  0  0  0
  -29.5277  -21.6637   19.0440 C   0  0  0  0  0  0  0  0  0  0  0  0
  -30.7505  -19.3621   21.9389 C   0  0  0  0  0  0  0  0  0  0  0  0
  -33.9250  -16.3728   18.2957 C   0  0  0  0  0  0  0  0  0  0  0  0
  -24.3772  -18.4861   22.4338 C   0  0  0  0  0  0  0  0  0  0  0  0
  -25.4913  -14.1260   17.5739 C   0  0  0  0  0  0  0  0  0  0  0  0
  -24.7630  -16.4162   18.2759 C   0  0  0  0  0  0  0  0  0  0  0  0
  -23.4953  -14.4133   19.0529 C   0  0  0  0  0  0  0  0  0  0  0  0
  -26.9192  -16.6145   24.5577 C   0  0  0  0  0  0  0  0  0  0  0  0
  -32.4989  -15.9896   18.7006 C   0  0  1  0  0  0  0  0  0  1  0  0
  -25.7810  -14.8869   20.0240 C   0  0  1  0  0  0  0  0  0  0  0  0
  -25.1686  -17.2753   22.9032 C   0  0  2  0  0  0  0  0  0  0  0  0
  -24.9084  -14.9508   18.7387 C   0  0  0  0  0  0  0  0  0  0  0  0
  -25.8142  -29.9981   21.5488 N   0  0  0  0  0  0  0  0  0  0  0  0
  -25.3355  -29.2755   20.5217 N   0  0  0  0  0  0  0  0  0  0  0  0
  -27.0825  -12.7782   20.0016 N   0  0  0  0  0  0  0  0  0  0  0  0
  -27.2967  -25.9988   20.4085 N   0  0  0  0  0  0  0  0  0  0  0  0
  -27.6067  -23.6860   19.8799 N   0  0  0  0  0  0  0  0  0  0  0  0
  -23.4634  -29.0372   19.0903 N   0  0  0  0  0  0  0  0  0  0  0  0
  -22.2900  -32.4723   21.7773 N   0  0  0  0  0  0  0  0  0  0  0  0
  -25.4931   -9.8757   20.5899 N   0  0  0  0  0  0  0  0  0  0  0  0
  -25.2392  -15.6369   21.1520 N   0  0  0  0  0  0  0  0  0  0  0  0
  -26.0945  -17.7104   23.9869 N   0  3  0  0  0  0  0  0  0  0  0  0
  -21.5971  -31.1481   20.0380 O   0  0  0  0  0  0  0  0  0  0  0  0
  -26.4637  -10.4377   18.5491 O   0  0  0  0  0  0  0  0  0  0  0  0
  -25.1805  -12.9980   21.3227 O   0  0  0  0  0  0  0  0  0  0  0  0
  -27.0752  -17.0237   21.4407 O   0  0  0  0  0  0  0  0  0  0  0  0
  -25.4965  -24.5826   20.1405 O   0  0  0  0  0  0  0  0  0  0  0  0
  -25.3624  -34.6337   25.8911 O   0  0  0  0  0  0  0  0  0  0  0  0
  -29.2396  -20.4776   19.7812 O   0  0  0  0  0  0  0  0  0  0  0  0
  -32.5875  -15.1079   19.8287 O   0  0  0  0  0  0  0  0  0  1  0  0
  -23.8911  -39.8331   24.7928 F   0  0  0  0  0  0  0  0  0  0  0  0
  -27.1912  -36.6974   26.0897 F   0  0  0  0  0  0  0  0  0  0  0  0
  1  2  1  0  0  0  0
  1  5  2  0  0  0  0
  2  6  2  0  0  0  0
  3  9  2  0  0  0  0
  3 18  1  0  0  0  0
  4 10  1  0  0  0  0
  4 18  2  0  0  0  0
  5 20  1  0  0  0  0
  6 22  1  0  0  0  0
  7 11  2  0  0  0  0
  7 21  1  0  0  0  0
  8 12  2  0  0  0  0
  8 24  1  0  0  0  0
  9 26  1  0  0  0  0
 10 26  2  0  0  0  0
 11 27  1  0  0  0  0
 12 28  1  0  0  0  0
 13 14  2  0  0  0  0
 13 29  1  0  0  0  0
 14 30  1  0  0  0  0
 15 23  1  0  0  0  0
 15 27  2  0  0  0  0
 16 24  2  0  0  0  0
 16 25  1  0  0  0  0
 17 30  2  0  0  0  0
 17 31  1  0  0  0  0
 18 32  1  0  0  0  0
 19 32  1  0  0  0  0
 19 33  2  0  0  0  0
 19 34  1  0  0  0  0
 20 22  2  0  0  0  0
 20 39  1  0  0  0  0
 21 23  2  0  0  0  0
 21 40  1  0  0  0  0
 22 52  1  0  0  0  0
 23 41  1  0  0  0  0
 24 63  1  0  0  0  0
 25 28  2  0  0  0  0
 25 56  1  0  0  0  0
 26 82  1  0  0  0  0
 27 84  1  0  0  0  0
 28 83  1  0  0  0  0
 29 31  2  0  0  0  0
 29 82  1  0  0  0  0
 30 85  1  0  0  0  0
 31 86  1  0  0  0  0
 32 67  2  0  0  0  0
 33 68  1  0  0  0  0
 33 72  1  0  0  0  0
 34 73  1  0  0  0  0
 34 77  2  0  0  0  0
 35 53  1  0  0  0  0
 35 74  1  0  0  0  0
 35 78  2  0  0  0  0
 36 64  1  0  0  0  0
 36 69  1  0  0  0  0
 36 79  2  0  0  0  0
 37 65  1  0  0  0  0
 37 75  1  0  0  0  0
 37 80  2  0  0  0  0
 38 70  1  0  0  0  0
 38 71  1  0  0  0  0
 38 81  2  0  0  0  0
 39 42  1  0  0  0  0
 40 53  1  0  0  0  0
 41 69  1  0  0  0  0
 42 44  1  0  0  0  0
 43 45  1  0  0  0  0
 43 48  1  0  0  0  0
 44 52  1  0  0  0  0
 45 54  1  0  0  0  0
 46 49  1  0  0  0  0
 46 55  1  0  0  0  0
 47 50  1  0  0  0  0
 47 55  1  0  0  0  0
 48 70  1  0  0  0  0
 49 71  1  0  0  0  0
 50 71  1  0  0  0  0
 51 54  1  0  0  0  0
 51 70  1  0  0  0  0
 52 74  1  0  0  0  0
 53 69  1  0  0  0  0
 54 68  1  0  0  0  0
 55 83  1  0  0  0  0
 57 63  1  0  0  0  0
 58 65  1  0  0  0  0
 59 66  1  0  0  0  0
 60 66  1  0  0  0  0
 61 66  1  0  0  0  0
 62 76  1  0  0  0  0
 63 84  1  0  0  0  0
 64 66  1  0  0  0  0
 64 75  1  0  0  0  0
 65 76  1  0  0  0  0
 67 68  1  0  0  0  0
M  CHG  1  76   1
M  ISO  4  38 100  63 101  71 100  84 101
M  END
> <Batch ID>
0165

> <Smiles>
CNC(C)C(=O)NC(C(=O)N1Cc2cc([101O:1][101CH:1](C)c3ccc(OC4CC[100N:0]([100C:0](=O)N5CCCC(n6nc(-c7ccc(Oc8ccc(F)cc8F)cc7)c(C(N)=O)c6N)C5)CC4)c(C)c3)ccc2CC1C(=O)NC1CCCc2ccccc21)C(C)(C)C

> <Shape>
0.296

> <Color>
0.085

> <Negative vol penalty>
0.000

$$$$

  -OEChem-04052322223D

 87 97  0     1  0  0  0  0  0999 V2000
  -18.6196  -20.4775   18.1522 C   0  0  0  0  0  0  0  0  0  0  0  0
  -19.2494  -19.3193   17.7079 C   0  0  0  0  0  0  0  0  0  0  0  0
  -22.8630  -28.9285   19.9077 C   0  0  0  0  0  0  0  0  0  0  0  0
  -23.0417  -28.6459   22.3004 C   0  0  0  0  0  0  0  0  0  0  0  0
  -19.1789  -21.2186   19.1924 C   0  0  0  0  0  0  0  0  0  0  0  0
  -20.4395  -18.9021   18.3029 C   0  0  0  0  0  0  0  0  0  0  0  0
  -24.0492  -12.9498   19.9928 C   0  0  0  0  0  0  0  0  0  0  0  0
  -31.4403  -14.1547   19.6995 C   0  0  0  0  0  0  0  0  0  0  0  0
  -21.6608  -29.6147   20.0785 C   0  0  0  0  0  0  0  0  0  0  0  0
  -21.8395  -29.3322   22.4713 C   0  0  0  0  0  0  0  0  0  0  0  0
  -25.3077  -12.3714   19.8332 C   0  0  0  0  0  0  0  0  0  0  0  0
  -31.0786  -15.5014   19.6258 C   0  0  0  0  0  0  0  0  0  0  0  0
  -18.5347  -28.6766   22.1892 C   0  0  0  0  0  0  0  0  0  0  0  0
  -17.6019  -28.1389   23.0760 C   0  0  0  0  0  0  0  0  0  0  0  0
  -26.1398  -13.6882   21.6752 C   0  0  0  0  0  0  0  0  0  0  0  0
  -28.7453  -14.9025   19.2859 C   0  0  0  0  0  0  0  0  0  0  0  0
  -17.7007  -30.1557   24.4026 C   0  0  0  0  0  0  0  0  0  0  0  0
  -23.5535  -28.4440   21.0186 C   0  0  0  0  0  0  0  0  0  0  0  0
  -25.9742  -28.2195   20.2457 C   0  0  0  0  0  0  0  0  0  0  0  0
  -20.3714  -20.8050   19.8068 C   0  0  0  0  0  0  0  0  0  0  0  0
  -23.8290  -13.9113   20.9895 C   0  0  0  0  0  0  0  0  0  0  0  0
  -30.4485  -13.1994   19.5535 C   0  0  0  0  0  0  0  0  0  0  0  0
  -21.0160  -19.6391   19.3513 C   0  0  0  0  0  0  0  0  0  0  0  0
  -24.8770  -14.2753   21.8471 C   0  0  0  0  0  0  0  0  0  0  0  0
  -29.1140  -13.5688   19.3519 C   0  0  0  0  0  0  0  0  0  0  0  0
  -21.1490  -29.8167   21.3603 C   0  0  0  0  0  0  0  0  0  0  0  0
  -26.3540  -12.7427   20.6726 C   0  0  0  0  0  0  0  0  0  0  0  0
  -29.7406  -15.8728   19.4200 C   0  0  0  0  0  0  0  0  0  0  0  0
  -19.0506  -29.9538   22.4091 C   0  0  0  0  0  0  0  0  0  0  0  0
  -17.1849  -28.8785   24.1827 C   0  0  0  0  0  0  0  0  0  0  0  0
  -18.6335  -30.6934   23.5158 C   0  0  0  0  0  0  0  0  0  0  0  0
  -24.7952  -27.7345   20.8428 C   0  0  0  0  0  0  0  0  0  0  0  0
  -26.8558  -27.1692   20.3239 C   0  0  0  0  0  0  0  0  0  0  0  0
  -26.2480  -29.5045   19.6718 C   0  0  0  0  0  0  0  0  0  0  0  0
  -22.9656  -16.9704   21.0036 C   0  0  0  0  0  0  0  0  0  0  0  0
  -22.8990  -16.5334   24.2171 C   0  0  0  0  0  0  0  0  0  0  0  0
  -24.9252  -14.8606   26.6897 C   0  0  0  0  0  0  0  0  0  0  0  0
  -28.1751  -21.9887   19.8397 C   0  0  0  0  0  0  0  0  0  0  0  0
  -20.9628  -21.6645   20.8959 C   0  0  0  0  0  0  0  0  0  0  0  0
  -22.4588  -14.5061   21.1660 C   0  0  0  0  0  0  0  0  0  0  0  0
  -30.5875  -11.7106   19.6281 C   0  0  0  0  0  0  0  0  0  0  0  0
  -24.6873  -15.2880   22.9457 C   0  0  0  0  0  0  0  0  0  0  0  0
  -22.0285  -20.9510   21.7238 C   0  0  0  0  0  0  0  0  0  0  0  0
  -26.5820  -22.8082   22.8583 C   0  0  0  0  0  0  0  0  0  0  0  0
  -23.0089  -20.2176   20.8140 C   0  0  0  0  0  0  0  0  0  0  0  0
  -26.0638  -24.2140   22.5560 C   0  0  0  0  0  0  0  0  0  0  0  0
  -30.0509  -18.9659   20.8845 C   0  0  0  0  0  0  0  0  0  0  0  0
  -27.6228  -18.3459   20.5244 C   0  0  0  0  0  0  0  0  0  0  0  0
  -26.4195  -21.8682   21.6626 C   0  0  0  0  0  0  0  0  0  0  0  0
  -29.8485  -20.1821   19.9822 C   0  0  0  0  0  0  0  0  0  0  0  0
  -27.4772  -19.5734   19.6279 C   0  0  0  0  0  0  0  0  0  0  0  0
  -26.4944  -23.7887   20.1062 C   0  0  0  0  0  0  0  0  0  0  0  0
  -22.2952  -19.1406   19.9880 C   0  0  1  0  0  0  0  0  0  0  0  0
  -28.2311  -12.3626   19.2628 C   0  0  1  0  0  0  0  0  0  1  0  0
  -22.4798  -15.8528   21.8825 C   0  0  1  0  0  0  0  0  0  0  0  0
  -29.2551  -11.2315   19.0011 C   0  0  1  0  0  0  0  0  0  0  0  0
  -26.6980  -24.7719   21.2694 C   0  0  1  0  0  0  0  0  0  0  0  0
  -29.0642  -17.8372   20.5833 C   0  0  0  0  0  0  0  0  0  0  0  0
  -29.4199  -10.9702   17.4995 C   0  0  0  0  0  0  0  0  0  0  0  0
  -24.3087  -13.8957   28.9227 C   0  0  0  0  0  0  0  0  0  0  0  0
  -23.7659  -19.2489   25.3055 C   0  0  0  0  0  0  0  0  0  0  0  0
  -24.7645  -18.0640   27.2719 C   0  0  0  0  0  0  0  0  0  0  0  0
  -22.3103  -17.9232   26.8477 C   0  0  0  0  0  0  0  0  0  0  0  0
  -26.0239  -12.2068   25.9762 C   0  0  0  0  0  0  0  0  0  0  0  0
  -23.9033  -16.6709   25.3358 C   0  0  1  0  0  0  0  0  0  0  0  0
  -24.5686  -13.5985   27.4541 C   0  0  2  0  0  0  0  0  0  0  0  0
  -23.6940  -17.9702   26.1637 C   0  0  0  0  0  0  0  0  0  0  0  0
  -24.9137  -26.4741   21.2687 N   0  0  0  0  0  0  0  0  0  0  0  0
  -26.1776  -26.1582   20.9388 N   0  0  0  0  0  0  0  0  0  0  0  0
  -23.3308  -15.8458   23.0741 N   0  0  0  0  0  0  0  0  0  0  0  0
  -27.0042  -22.4602   20.4520 N   0  0  0  0  0  0  0  0  0  0  0  0
  -28.4523  -20.6173   19.9707 N   0  0  0  0  0  0  0  0  0  0  0  0
  -28.1373  -27.0210   19.9259 N   0  0  0  0  0  0  0  0  0  0  0  0
  -26.7634  -30.5104   20.5007 N   0  0  0  0  0  0  0  0  0  0  0  0
  -22.0348  -17.9711   20.7996 N   0  0  0  0  0  0  0  0  0  0  0  0
  -23.8136  -15.4428   26.1182 N   0  0  0  0  0  0  0  0  0  0  0  0
  -25.6781  -12.6076   27.3643 N   0  3  0  0  0  0  0  0  0  0  0  0
  -26.0264  -29.7584   18.4635 O   0  0  0  0  0  0  0  0  0  0  0  0
  -24.1015  -16.9287   20.5456 O   0  0  0  0  0  0  0  0  0  0  0  0
  -21.7706  -17.0120   24.3553 O   0  0  0  0  0  0  0  0  0  0  0  0
  -26.0743  -15.2894   26.6110 O   0  0  0  0  0  0  0  0  0  0  0  0
  -28.9304  -22.7450   19.2164 O   0  0  0  0  0  0  0  0  0  0  0  0
  -19.9760  -30.4865   21.5273 O   0  0  0  0  0  0  0  0  0  0  0  0
  -27.5930  -12.1759   20.5173 O   0  0  0  0  0  0  0  0  0  1  0  0
  -29.4092  -17.2005   19.3549 O   0  0  0  0  0  0  0  0  0  0  0  0
  -16.2880  -28.3627   25.0333 F   0  0  0  0  0  0  0  0  0  0  0  0
  -19.1246  -31.9214   23.7316 F   0  0  0  0  0  0  0  0  0  0  0  0
  1  2  1  0  0  0  0
  1  5  2  0  0  0  0
  2  6  2  0  0  0  0
  3  9  2  0  0  0  0
  3 18  1  0  0  0  0
  4 10  1  0  0  0  0
  4 18  2  0  0  0  0
  5 20  1  0  0  0  0
  6 23  1  0  0  0  0
  7 11  2  0  0  0  0
  7 21  1  0  0  0  0
  8 12  2  0  0  0  0
  8 22  1  0  0  0  0
  9 26  1  0  0  0  0
 10 26  2  0  0  0  0
 11 27  1  0  0  0  0
 12 28  1  0  0  0  0
 13 14  2  0  0  0  0
 13 29  1  0  0  0  0
 14 30  1  0  0  0  0
 15 24  1  0  0  0  0
 15 27  2  0  0  0  0
 16 25  1  0  0  0  0
 16 28  2  0  0  0  0
 17 30  2  0  0  0  0
 17 31  1  0  0  0  0
 18 32  1  0  0  0  0
 19 32  1  0  0  0  0
 19 33  2  0  0  0  0
 19 34  1  0  0  0  0
 20 23  2  0  0  0  0
 20 39  1  0  0  0  0
 21 24  2  0  0  0  0
 21 40  1  0  0  0  0
 22 25  2  0  0  0  0
 22 41  1  0  0  0  0
 23 53  1  0  0  0  0
 24 42  1  0  0  0  0
 25 54  1  0  0  0  0
 26 83  1  0  0  0  0
 27 84  1  0  0  0  0
 28 85  1  0  0  0  0
 29 31  2  0  0  0  0
 29 83  1  0  0  0  0
 30 86  1  0  0  0  0
 31 87  1  0  0  0  0
 32 68  2  0  0  0  0
 33 69  1  0  0  0  0
 33 73  1  0  0  0  0
 34 74  1  0  0  0  0
 34 78  2  0  0  0  0
 35 55  1  0  0  0  0
 35 75  1  0  0  0  0
 35 79  2  0  0  0  0
 36 65  1  0  0  0  0
 36 70  1  0  0  0  0
 36 80  2  0  0  0  0
 37 66  1  0  0  0  0
 37 76  1  0  0  0  0
 37 81  2  0  0  0  0
 38 71  1  0  0  0  0
 38 72  1  0  0  0  0
 38 82  2  0  0  0  0
 39 43  1  0  0  0  0
 40 55  1  0  0  0  0
 41 56  1  0  0  0  0
 42 70  1  0  0  0  0
 43 45  1  0  0  0  0
 44 46  1  0  0  0  0
 44 49  1  0  0  0  0
 45 53  1  0  0  0  0
 46 57  1  0  0  0  0
 47 50  1  0  0  0  0
 47 58  1  0  0  0  0
 48 51  1  0  0  0  0
 48 58  1  0  0  0  0
 49 71  1  0  0  0  0
 50 72  1  0  0  0  0
 51 72  1  0  0  0  0
 52 57  1  0  0  0  0
 52 71  1  0  0  0  0
 53 75  1  0  0  0  0
 54 56  1  0  0  0  0
 54 84  1  0  0  0  0
 55 70  1  0  0  0  0
 56 59  1  0  0  0  0
 57 69  1  0  0  0  0
 58 85  1  0  0  0  0
 60 66  1  0  0  0  0
 61 67  1  0  0  0  0
 62 67  1  0  0  0  0
 63 67  1  0  0  0  0
 64 77  1  0  0  0  0
 65 67  1  0  0  0  0
 65 76  1  0  0  0  0
 66 77  1  0  0  0  0
 68 69  1  0  0  0  0
M  CHG  1  77   1
M  ISO  4  38 100  54 101  72 100  84 101
M  END
> <Batch ID>
0165

> <Smiles>
CNC(C)C(=O)NC(C(=O)N1Cc2cc([101O:1][101CH:1]3c4cc(OC5CC[100N:0]([100C:0](=O)N6CCCC(n7nc(-c8ccc(Oc9ccc(F)cc9F)cc8)c(C(N)=O)c7N)C6)CC5)ccc4CC3C)ccc2CC1C(=O)NC1CCCc2ccccc21)C(C)(C)C

> <Shape>
0.225

> <Color>
0.084

> <Negative vol penalty>
0.000

$$$$

  -OEChem-04052322223D

 84 93  0     1  0  0  0  0  0999 V2000
  -28.0043  -33.7313   25.7782 C   0  0  0  0  0  0  0  0  0  0  0  0
  -28.1447  -32.4717   25.2045 C   0  0  0  0  0  0  0  0  0  0  0  0
  -28.4218  -11.7105   22.1796 C   0  0  0  0  0  0  0  0  0  0  0  0
  -27.2710  -12.1073   20.0926 C   0  0  0  0  0  0  0  0  0  0  0  0
  -26.7338  -34.2244   26.0723 C   0  0  0  0  0  0  0  0  0  0  0  0
  -27.0145  -31.7039   24.9257 C   0  0  0  0  0  0  0  0  0  0  0  0
  -27.2044  -29.5611   20.3412 C   0  0  0  0  0  0  0  0  0  0  0  0
  -27.6405  -10.5752   22.3946 C   0  0  0  0  0  0  0  0  0  0  0  0
  -26.4898  -10.9719   20.3076 C   0  0  0  0  0  0  0  0  0  0  0  0
  -28.0013  -28.4257   20.2016 C   0  0  0  0  0  0  0  0  0  0  0  0
  -23.7881  -10.1198   22.1530 C   0  0  0  0  0  0  0  0  0  0  0  0
  -22.4169  -10.2230   21.9191 C   0  0  0  0  0  0  0  0  0  0  0  0
  -27.7677  -22.5577   17.8940 C   0  0  0  0  0  0  0  0  0  0  0  0
  -26.0372  -27.0346   20.3634 C   0  0  0  0  0  0  0  0  0  0  0  0
  -28.8061  -21.0913   15.7600 C   0  0  0  0  0  0  0  0  0  0  0  0
  -22.5715   -8.4857   20.2472 C   0  0  0  0  0  0  0  0  0  0  0  0
  -28.2371  -12.4766   21.0286 C   0  0  0  0  0  0  0  0  0  0  0  0
  -30.2801  -13.7170   20.1368 C   0  0  0  0  0  0  0  0  0  0  0  0
  -25.5870  -33.4663   25.7880 C   0  0  0  0  0  0  0  0  0  0  0  0
  -25.8168  -29.4412   20.5042 C   0  0  0  0  0  0  0  0  0  0  0  0
  -25.7275  -32.1868   25.2175 C   0  0  0  0  0  0  0  0  0  0  0  0
  -28.7155  -23.1334   17.0480 C   0  0  0  0  0  0  0  0  0  0  0  0
  -25.2246  -28.1702   20.5023 C   0  0  0  0  0  0  0  0  0  0  0  0
  -27.3391  -21.2488   17.6731 C   0  0  0  0  0  0  0  0  0  0  0  0
  -27.8583  -20.5156   16.6060 C   0  0  0  0  0  0  0  0  0  0  0  0
  -26.6745  -10.2059   21.4586 C   0  0  0  0  0  0  0  0  0  0  0  0
  -27.4181  -27.1621   20.2156 C   0  0  0  0  0  0  0  0  0  0  0  0
  -24.5510   -9.1997   21.4340 C   0  0  0  0  0  0  0  0  0  0  0  0
  -21.8086   -9.4059   20.9662 C   0  0  0  0  0  0  0  0  0  0  0  0
  -23.9427   -8.3827   20.4811 C   0  0  0  0  0  0  0  0  0  0  0  0
  -29.2347  -22.4002   15.9809 C   0  0  0  0  0  0  0  0  0  0  0  0
  -29.0434  -13.6498   20.8062 C   0  0  0  0  0  0  0  0  0  0  0  0
  -30.6303  -15.0438   20.1950 C   0  0  0  0  0  0  0  0  0  0  0  0
  -31.0438  -12.6734   19.5178 C   0  0  0  0  0  0  0  0  0  0  0  0
  -23.7503  -30.2271   22.7879 C   0  0  0  0  0  0  0  0  0  0  0  0
  -21.5604  -29.2625   20.5978 C   0  0  0  0  0  0  0  0  0  0  0  0
  -20.8537  -27.3718   17.8460 C   0  0  0  0  0  0  0  0  0  0  0  0
  -27.4630  -20.0850   20.7585 C   0  0  0  0  0  0  0  0  0  0  0  0
  -24.2371  -34.0219   26.1673 C   0  0  0  0  0  0  0  0  0  0  0  0
  -24.9680  -30.6769   20.6267 C   0  0  0  0  0  0  0  0  0  0  0  0
  -23.7372  -27.9882   20.6540 C   0  0  0  0  0  0  0  0  0  0  0  0
  -23.0711  -33.3008   25.4959 C   0  0  0  0  0  0  0  0  0  0  0  0
  -30.0608  -18.9518   22.8984 C   0  0  0  0  0  0  0  0  0  0  0  0
  -23.2489  -31.7891   25.5969 C   0  0  0  0  0  0  0  0  0  0  0  0
  -30.2110  -17.4717   22.5426 C   0  0  0  0  0  0  0  0  0  0  0  0
  -30.6210  -24.8271   17.4784 C   0  0  0  0  0  0  0  0  0  0  0  0
  -28.6016  -19.3993   22.8466 C   0  0  0  0  0  0  0  0  0  0  0  0
  -28.0573  -17.6278   21.2243 C   0  0  0  0  0  0  0  0  0  0  0  0
  -29.1468  -24.5268   17.3145 C   0  0  2  0  0  0  0  0  0  0  0  0
  -24.5243  -31.3343   24.8773 C   0  0  1  0  0  0  0  0  0  0  0  0
  -23.6255  -30.4150   21.3024 C   0  0  1  0  0  0  0  0  0  0  0  0
  -29.7163  -24.8769   18.6735 C   0  0  2  0  0  0  0  0  0  0  0  0
  -29.5169  -17.1422   21.2071 C   0  0  2  0  0  0  0  0  0  0  0  0
  -27.4147  -19.1124   16.3505 C   0  0  0  0  0  0  0  0  0  0  0  0
  -18.9676  -26.7590   16.3084 C   0  0  0  0  0  0  0  0  0  0  0  0
  -20.4215  -27.4093   22.7376 C   0  0  0  0  0  0  0  0  0  0  0  0
  -19.2118  -26.1753   20.9259 C   0  0  0  0  0  0  0  0  0  0  0  0
  -18.7023  -28.5803   21.3491 C   0  0  0  0  0  0  0  0  0  0  0  0
  -22.2498  -28.5025   15.4941 C   0  0  0  0  0  0  0  0  0  0  0  0
  -26.3246  -20.6530   18.5930 C   0  0  0  0  0  0  0  0  0  0  0  0
  -29.3870  -26.1838   19.3088 C   0  0  0  0  0  0  0  0  0  1  0  0
  -20.8944  -27.9510   20.2579 C   0  0  1  0  0  0  0  0  0  0  0  0
  -20.1324  -27.7056   16.5526 C   0  0  2  0  0  0  0  0  0  0  0  0
  -19.8358  -27.5320   21.3167 C   0  0  0  0  0  0  0  0  0  0  0  0
  -28.6356  -14.8393   21.2566 N   0  0  0  0  0  0  0  0  0  0  0  0
  -29.6216  -15.6664   20.8696 N   0  0  0  0  0  0  0  0  0  0  0  0
  -22.9505  -29.2266   20.7768 N   0  0  0  0  0  0  0  0  0  0  0  0
  -28.0062  -19.0616   21.5512 N   0  0  0  0  0  0  0  0  0  0  0  0
  -31.6996  -15.7270   19.7344 N   0  0  0  0  0  0  0  0  0  0  0  0
  -30.5380  -11.3667   19.5491 N   0  0  0  0  0  0  0  0  0  0  0  0
  -24.3135  -31.3038   23.4459 N   0  0  0  0  0  0  0  0  0  0  0  0
  -20.3623  -28.1013   18.9078 N   0  0  0  0  0  0  0  0  0  0  0  0
  -26.9239  -19.6892   19.5388 N   0  0  0  0  0  0  0  0  0  0  0  0
  -21.0685  -27.6069   15.3972 N   0  3  0  0  0  0  0  0  0  0  0  0
  -32.1502  -12.8904   18.9679 O   0  0  0  0  0  0  0  0  0  0  0  0
  -23.3628  -29.1832   23.2995 O   0  0  0  0  0  0  0  0  0  0  0  0
  -20.8735  -30.2825   20.6938 O   0  0  0  0  0  0  0  0  0  0  0  0
  -21.7598  -26.5437   17.9088 O   0  0  0  0  0  0  0  0  0  0  0  0
  -27.4620  -21.2717   21.1035 O   0  0  0  0  0  0  0  0  0  0  0  0
  -25.9121   -9.0980   21.6680 O   0  0  0  0  0  0  0  0  0  0  0  0
  -28.1937  -26.0521   20.0801 O   0  0  0  0  0  0  0  0  0  1  0  0
  -20.4915   -9.5040   20.7428 F   0  0  0  0  0  0  0  0  0  0  0  0
  -24.6703   -7.4960   19.7881 F   0  0  0  0  0  0  0  0  0  0  0  0
  -30.4099  -23.0769   14.9119 Cl  0  0  0  0  0  0  0  0  0  0  0  0
  1  2  1  0  0  0  0
  1  5  2  0  0  0  0
  2  6  2  0  0  0  0
  3  8  2  0  0  0  0
  3 17  1  0  0  0  0
  4  9  1  0  0  0  0
  4 17  2  0  0  0  0
  5 19  1  0  0  0  0
  6 21  1  0  0  0  0
  7 10  2  0  0  0  0
  7 20  1  0  0  0  0
  8 26  1  0  0  0  0
  9 26  2  0  0  0  0
 10 27  1  0  0  0  0
 11 12  2  0  0  0  0
 11 28  1  0  0  0  0
 12 29  1  0  0  0  0
 13 22  1  0  0  0  0
 13 24  2  0  0  0  0
 14 23  1  0  0  0  0
 14 27  2  0  0  0  0
 15 25  2  0  0  0  0
 15 31  1  0  0  0  0
 16 29  2  0  0  0  0
 16 30  1  0  0  0  0
 17 32  1  0  0  0  0
 18 32  1  0  0  0  0
 18 33  2  0  0  0  0
 18 34  1  0  0  0  0
 19 21  2  0  0  0  0
 19 39  1  0  0  0  0
 20 23  2  0  0  0  0
 20 40  1  0  0  0  0
 21 50  1  0  0  0  0
 22 31  2  0  0  0  0
 22 49  1  0  0  0  0
 23 41  1  0  0  0  0
 24 25  1  0  0  0  0
 24 60  1  0  0  0  0
 25 54  1  0  0  0  0
 26 80  1  0  0  0  0
 27 81  1  0  0  0  0
 28 30  2  0  0  0  0
 28 80  1  0  0  0  0
 29 82  1  0  0  0  0
 30 83  1  0  0  0  0
 31 84  1  0  0  0  0
 32 65  2  0  0  0  0
 33 66  1  0  0  0  0
 33 69  1  0  0  0  0
 34 70  1  0  0  0  0
 34 75  2  0  0  0  0
 35 51  1  0  0  0  0
 35 71  1  0  0  0  0
 35 76  2  0  0  0  0
 36 62  1  0  0  0  0
 36 67  1  0  0  0  0
 36 77  2  0  0  0  0
 37 63  1  0  0  0  0
 37 72  1  0  0  0  0
 37 78  2  0  0  0  0
 38 68  1  0  0  0  0
 38 73  1  0  0  0  0
 38 79  2  0  0  0  0
 39 42  1  0  0  0  0
 40 51  1  0  0  0  0
 41 67  1  0  0  0  0
 42 44  1  0  0  0  0
 43 45  1  0  0  0  0
 43 47  1  0  0  0  0
 44 50  1  0  0  0  0
 45 53  1  0  0  0  0
 46 49  1  0  0  0  0
 46 52  1  0  0  0  0
 47 68  1  0  0  0  0
 48 53  1  0  0  0  0
 48 68  1  0  0  0  0
 49 52  1  0  0  0  0
 50 71  1  0  0  0  0
 51 67  1  0  0  0  0
 52 61  1  0  0  0  0
 53 66  1  0  0  0  0
 55 63  1  0  0  0  0
 56 64  1  0  0  0  0
 57 64  1  0  0  0  0
 58 64  1  0  0  0  0
 59 74  1  0  0  0  0
 60 73  1  0  0  0  0
 61 81  1  0  0  0  0
 62 64  1  0  0  0  0
 62 72  1  0  0  0  0
 63 74  1  0  0  0  0
 65 66  1  0  0  0  0
M  CHG  1  74   1
M  ISO  4  38 100  61 101  73 100  81 101
M  END
> <Batch ID>
0165

> <Smiles>
CNC(C)C(=O)NC(C(=O)N1Cc2cc([101O:1][101CH2:1]C3CC3c3cc(C[100NH:0][100C:0](=O)N4CCCC(n5nc(-c6ccc(Oc7ccc(F)cc7F)cc6)c(C(N)=O)c5N)C4)c(C)cc3Cl)ccc2CC1C(=O)NC1CCCc2ccccc21)C(C)(C)C

> <Shape>
0.315

> <Color>
0.078

> <Negative vol penalty>
0.000

$$$$

  -OEChem-04052322223D

 85 94  0     1  0  0  0  0  0999 V2000
  -28.2377  -37.4516   22.3551 C   0  0  0  0  0  0  0  0  0  0  0  0
  -28.4364  -36.4734   21.3860 C   0  0  0  0  0  0  0  0  0  0  0  0
  -23.0414  -10.7807   21.8080 C   0  0  0  0  0  0  0  0  0  0  0  0
  -24.1719   -9.0218   20.5975 C   0  0  0  0  0  0  0  0  0  0  0  0
  -27.8995  -37.0833   23.6566 C   0  0  0  0  0  0  0  0  0  0  0  0
  -28.2981  -35.1262   21.7183 C   0  0  0  0  0  0  0  0  0  0  0  0
  -26.2105  -28.8715   18.9188 C   0  0  0  0  0  0  0  0  0  0  0  0
  -21.8091  -10.2219   21.4692 C   0  0  0  0  0  0  0  0  0  0  0  0
  -22.9396   -8.4629   20.2588 C   0  0  0  0  0  0  0  0  0  0  0  0
  -26.6614  -27.5631   18.7496 C   0  0  0  0  0  0  0  0  0  0  0  0
  -20.1003   -6.3700   19.3777 C   0  0  0  0  0  0  0  0  0  0  0  0
  -19.9564   -4.9886   19.5066 C   0  0  0  0  0  0  0  0  0  0  0  0
  -27.4074  -21.2845   18.5605 C   0  0  0  0  0  0  0  0  0  0  0  0
  -25.9966  -27.0482   21.0106 C   0  0  0  0  0  0  0  0  0  0  0  0
  -20.4402   -5.1587   21.8676 C   0  0  0  0  0  0  0  0  0  0  0  0
  -24.2228  -10.1807   21.3721 C   0  0  0  0  0  0  0  0  0  0  0  0
  -26.2743  -10.4745   22.8595 C   0  0  0  0  0  0  0  0  0  0  0  0
  -27.7476  -35.7314   24.0026 C   0  0  0  0  0  0  0  0  0  0  0  0
  -25.6583  -29.2817   20.1408 C   0  0  0  0  0  0  0  0  0  0  0  0
  -27.9589  -34.7394   23.0260 C   0  0  0  0  0  0  0  0  0  0  0  0
  -28.7452  -20.9842   18.3294 C   0  0  0  0  0  0  0  0  0  0  0  0
  -25.5371  -28.3616   21.1919 C   0  0  0  0  0  0  0  0  0  0  0  0
  -26.9914  -22.6112   18.5778 C   0  0  0  0  0  0  0  0  0  0  0  0
  -21.7582   -9.0629   20.6947 C   0  0  0  0  0  0  0  0  0  0  0  0
  -26.5572  -26.6520   19.7966 C   0  0  0  0  0  0  0  0  0  0  0  0
  -20.4142   -7.1458   20.4936 C   0  0  0  0  0  0  0  0  0  0  0  0
  -20.1263   -4.3829   20.7516 C   0  0  0  0  0  0  0  0  0  0  0  0
  -20.5841   -6.5401   21.7386 C   0  0  0  0  0  0  0  0  0  0  0  0
  -25.4960  -10.7578   21.7212 C   0  0  0  0  0  0  0  0  0  0  0  0
  -29.6203  -22.0384   18.1230 C   0  0  0  0  0  0  0  0  0  0  0  0
  -27.9450  -23.5926   18.3605 C   0  0  0  0  0  0  0  0  0  0  0  0
  -27.3815  -11.2764   22.7267 C   0  0  0  0  0  0  0  0  0  0  0  0
  -26.0193   -9.5675   23.9403 C   0  0  0  0  0  0  0  0  0  0  0  0
  -26.4286  -31.4478   22.3358 C   0  0  0  0  0  0  0  0  0  0  0  0
  -23.5928  -30.5649   23.6400 C   0  0  0  0  0  0  0  0  0  0  0  0
  -21.1698  -28.1837   23.9654 C   0  0  0  0  0  0  0  0  0  0  0  0
  -28.2533  -16.3838   20.0226 C   0  0  0  0  0  0  0  0  0  0  0  0
  -27.4274  -35.3799   25.4339 C   0  0  0  0  0  0  0  0  0  0  0  0
  -25.1520  -30.6893   20.2984 C   0  0  0  0  0  0  0  0  0  0  0  0
  -24.9334  -28.7464   22.5170 C   0  0  0  0  0  0  0  0  0  0  0  0
  -26.9331  -33.9468   25.6133 C   0  0  0  0  0  0  0  0  0  0  0  0
  -30.1217  -13.3807   19.4367 C   0  0  0  0  0  0  0  0  0  0  0  0
  -27.8240  -32.9748   24.8464 C   0  0  0  0  0  0  0  0  0  0  0  0
  -29.1962  -12.3291   20.0435 C   0  0  0  0  0  0  0  0  0  0  0  0
  -28.5257  -18.6873   17.2336 C   0  0  0  0  0  0  0  0  0  0  0  0
  -29.3490  -14.4935   18.7257 C   0  0  0  0  0  0  0  0  0  0  0  0
  -28.8257  -17.2725   17.7073 C   0  0  0  0  0  0  0  0  0  0  0  0
  -27.3831  -14.0728   20.1749 C   0  0  0  0  0  0  0  0  0  0  0  0
  -29.2034  -19.5453   18.3092 C   0  0  2  0  0  0  0  0  0  0  0  0
  -27.7938  -33.2686   23.3416 C   0  0  1  0  0  0  0  0  0  0  0  0
  -25.0780  -31.1381   21.7546 C   0  0  1  0  0  0  0  0  0  0  0  0
  -28.1441  -12.9880   20.9504 C   0  0  1  0  0  0  0  0  0  0  0  0
  -28.9198  -18.7565   19.6067 C   0  0  2  0  0  0  0  0  0  0  0  0
  -25.5596  -22.9397   18.8251 C   0  0  0  0  0  0  0  0  0  0  0  0
  -31.0690  -21.7766   17.8710 C   0  0  0  0  0  0  0  0  0  0  0  0
  -30.0397  -18.9253   20.6303 C   0  0  0  0  0  0  0  0  0  0  0  0
  -18.9917  -27.7357   25.1285 C   0  0  0  0  0  0  0  0  0  0  0  0
  -25.0927  -30.0584   26.2484 C   0  0  0  0  0  0  0  0  0  0  0  0
  -23.1163  -28.7464   27.0489 C   0  0  0  0  0  0  0  0  0  0  0  0
  -22.8703  -31.1722   26.5223 C   0  0  0  0  0  0  0  0  0  0  0  0
  -19.7247  -27.8975   21.3985 C   0  0  0  0  0  0  0  0  0  0  0  0
  -27.5545  -25.0344   18.3667 C   0  0  0  0  0  0  0  0  0  1  0  0
  -23.1530  -29.5162   24.6329 C   0  0  1  0  0  0  0  0  0  0  0  0
  -19.6571  -28.2660   23.8680 C   0  0  2  0  0  0  0  0  0  0  0  0
  -23.5713  -29.8663   26.0889 C   0  0  0  0  0  0  0  0  0  0  0  0
  -26.0608  -11.6687   20.9241 N   0  0  0  0  0  0  0  0  0  0  0  0
  -29.2534  -23.3396   18.1326 N   0  0  0  0  0  0  0  0  0  0  0  0
  -27.2057  -11.9647   21.5625 N   0  0  0  0  0  0  0  0  0  0  0  0
  -24.4586  -30.1359   22.6241 N   0  0  0  0  0  0  0  0  0  0  0  0
  -28.3019  -15.0527   19.5889 N   0  0  0  0  0  0  0  0  0  0  0  0
  -28.7742  -17.3598   19.1681 N   0  0  0  0  0  0  0  0  0  0  0  0
  -28.4785  -11.4528   23.4934 N   0  0  0  0  0  0  0  0  0  0  0  0
  -24.8337   -8.8204   23.9200 N   0  0  0  0  0  0  0  0  0  0  0  0
  -26.5753  -32.7575   22.7513 N   0  0  0  0  0  0  0  0  0  0  0  0
  -21.7150  -29.3552   24.4466 N   0  0  0  0  0  0  0  0  0  0  0  0
  -19.1686  -27.4686   22.7077 N   0  3  0  0  0  0  0  0  0  0  0  0
  -26.8115   -9.4358   24.9040 O   0  0  0  0  0  0  0  0  0  0  0  0
  -27.2743  -30.5637   22.4037 O   0  0  0  0  0  0  0  0  0  0  0  0
  -23.1775  -31.7205   23.7571 O   0  0  0  0  0  0  0  0  0  0  0  0
  -21.8039  -27.1793   23.6499 O   0  0  0  0  0  0  0  0  0  0  0  0
  -27.7422  -16.6896   21.1077 O   0  0  0  0  0  0  0  0  0  0  0  0
  -20.5559   -8.5172   20.3641 O   0  0  0  0  0  0  0  0  0  0  0  0
  -27.0003  -25.3654   19.6332 O   0  0  0  0  0  0  0  0  0  1  0  0
  -19.9866   -3.0566   20.8756 F   0  0  0  0  0  0  0  0  0  0  0  0
  -20.8846   -7.2803   22.8146 F   0  0  0  0  0  0  0  0  0  0  0  0
  1  2  1  0  0  0  0
  1  5  2  0  0  0  0
  2  6  2  0  0  0  0
  3  8  2  0  0  0  0
  3 16  1  0  0  0  0
  4  9  1  0  0  0  0
  4 16  2  0  0  0  0
  5 18  1  0  0  0  0
  6 20  1  0  0  0  0
  7 10  2  0  0  0  0
  7 19  1  0  0  0  0
  8 24  1  0  0  0  0
  9 24  2  0  0  0  0
 10 25  1  0  0  0  0
 11 12  2  0  0  0  0
 11 26  1  0  0  0  0
 12 27  1  0  0  0  0
 13 21  2  0  0  0  0
 13 23  1  0  0  0  0
 14 22  1  0  0  0  0
 14 25  2  0  0  0  0
 15 27  2  0  0  0  0
 15 28  1  0  0  0  0
 16 29  1  0  0  0  0
 17 29  1  0  0  0  0
 17 32  2  0  0  0  0
 17 33  1  0  0  0  0
 18 20  2  0  0  0  0
 18 38  1  0  0  0  0
 19 22  2  0  0  0  0
 19 39  1  0  0  0  0
 20 50  1  0  0  0  0
 21 30  1  0  0  0  0
 21 49  1  0  0  0  0
 22 40  1  0  0  0  0
 23 31  2  0  0  0  0
 23 54  1  0  0  0  0
 24 82  1  0  0  0  0
 25 83  1  0  0  0  0
 26 28  2  0  0  0  0
 26 82  1  0  0  0  0
 27 84  1  0  0  0  0
 28 85  1  0  0  0  0
 29 66  2  0  0  0  0
 30 55  1  0  0  0  0
 30 67  2  0  0  0  0
 31 62  1  0  0  0  0
 31 67  1  0  0  0  0
 32 68  1  0  0  0  0
 32 72  1  0  0  0  0
 33 73  1  0  0  0  0
 33 77  2  0  0  0  0
 34 51  1  0  0  0  0
 34 74  1  0  0  0  0
 34 78  2  0  0  0  0
 35 63  1  0  0  0  0
 35 69  1  0  0  0  0
 35 79  2  0  0  0  0
 36 64  1  0  0  0  0
 36 75  1  0  0  0  0
 36 80  2  0  0  0  0
 37 70  1  0  0  0  0
 37 71  1  0  0  0  0
 37 81  2  0  0  0  0
 38 41  1  0  0  0  0
 39 51  1  0  0  0  0
 40 69  1  0  0  0  0
 41 43  1  0  0  0  0
 42 44  1  0  0  0  0
 42 46  1  0  0  0  0
 43 50  1  0  0  0  0
 44 52  1  0  0  0  0
 45 47  1  0  0  0  0
 45 49  1  0  0  0  0
 46 70  1  0  0  0  0
 47 71  1  0  0  0  0
 48 52  1  0  0  0  0
 48 70  1  0  0  0  0
 49 53  1  0  0  0  0
 50 74  1  0  0  0  0
 51 69  1  0  0  0  0
 52 68  1  0  0  0  0
 53 56  1  0  0  0  0
 53 71  1  0  0  0  0
 57 64  1  0  0  0  0
 58 65  1  0  0  0  0
 59 65  1  0  0  0  0
 60 65  1  0  0  0  0
 61 76  1  0  0  0  0
 62 83  1  0  0  0  0
 63 65  1  0  0  0  0
 63 75  1  0  0  0  0
 64 76  1  0  0  0  0
 66 68  1  0  0  0  0
M  CHG  1  76   1
M  ISO  4  37 100  62 101  71 100  83 101
M  END
> <Batch ID>
0165

> <Smiles>
CNC(C)C(=O)NC(C(=O)N1Cc2cc([101O:1][101CH2:1]c3nc(C)c(C4CC[100N:0]([100C:0](=O)N5CCCC(n6nc(-c7ccc(Oc8ccc(F)cc8F)cc7)c(C(N)=O)c6N)C5)C4C)cc3C)ccc2CC1C(=O)NC1CCCc2ccccc21)C(C)(C)C

> <Shape>
0.282

> <Color>
0.096

> <Negative vol penalty>
0.000

$$$$

  -OEChem-04052322223D

 87 96  0     1  0  0  0  0  0999 V2000
  -28.7405  -11.4912   19.7468 C   0  0  0  0  0  0  0  0  0  0  0  0
  -28.7006  -12.6562   18.9875 C   0  0  0  0  0  0  0  0  0  0  0  0
  -30.3870  -26.7226   19.7750 C   0  0  0  0  0  0  0  0  0  0  0  0
  -29.9080  -27.1910   22.0963 C   0  0  0  0  0  0  0  0  0  0  0  0
  -27.6383  -11.1251   20.5181 C   0  0  0  0  0  0  0  0  0  0  0  0
  -27.5579  -13.4553   18.9982 C   0  0  0  0  0  0  0  0  0  0  0  0
  -25.5359  -20.3123   18.5409 C   0  0  0  0  0  0  0  0  0  0  0  0
  -31.7364  -26.5572   20.0868 C   0  0  0  0  0  0  0  0  0  0  0  0
  -31.2575  -27.0255   22.4081 C   0  0  0  0  0  0  0  0  0  0  0  0
  -24.6642  -21.1328   17.8263 C   0  0  0  0  0  0  0  0  0  0  0  0
  -33.7048  -24.1651   21.4420 C   0  0  0  0  0  0  0  0  0  0  0  0
  -34.3671  -23.0673   20.8928 C   0  0  0  0  0  0  0  0  0  0  0  0
  -20.2248  -27.0514   20.1926 C   0  0  0  0  0  0  0  0  0  0  0  0
  -18.4589  -25.2757   21.4022 C   0  0  0  0  0  0  0  0  0  0  0  0
  -22.8498  -20.4423   19.2582 C   0  0  0  0  0  0  0  0  0  0  0  0
  -35.9131  -24.5554   19.7825 C   0  0  0  0  0  0  0  0  0  0  0  0
  -29.4728  -27.0396   20.7798 C   0  0  0  0  0  0  0  0  0  0  0  0
  -27.2141  -26.2574   19.8885 C   0  0  0  0  0  0  0  0  0  0  0  0
  -26.4851  -11.9250   20.5457 C   0  0  0  0  0  0  0  0  0  0  0  0
  -25.0680  -19.5410   19.6145 C   0  0  0  0  0  0  0  0  0  0  0  0
  -26.4387  -13.0988   19.7695 C   0  0  0  0  0  0  0  0  0  0  0  0
  -19.7499  -27.3368   21.4854 C   0  0  0  0  0  0  0  0  0  0  0  0
  -18.8314  -26.4480   22.0803 C   0  0  0  0  0  0  0  0  0  0  0  0
  -23.7181  -19.6147   19.9865 C   0  0  0  0  0  0  0  0  0  0  0  0
  -19.8371  -25.8894   19.5246 C   0  0  0  0  0  0  0  0  0  0  0  0
  -32.1717  -26.7086   21.4034 C   0  0  0  0  0  0  0  0  0  0  0  0
  -23.3204  -21.1957   18.1830 C   0  0  0  0  0  0  0  0  0  0  0  0
  -34.1465  -25.4581   21.1614 C   0  0  0  0  0  0  0  0  0  0  0  0
  -18.9591  -24.9987   20.1317 C   0  0  0  0  0  0  0  0  0  0  0  0
  -35.4713  -23.2624   20.0631 C   0  0  0  0  0  0  0  0  0  0  0  0
  -35.2507  -25.6533   20.3317 C   0  0  0  0  0  0  0  0  0  0  0  0
  -28.0787  -27.2112   20.4582 C   0  0  0  0  0  0  0  0  0  0  0  0
  -26.0078  -26.9060   19.7851 C   0  0  0  0  0  0  0  0  0  0  0  0
  -27.4777  -24.9060   19.4887 C   0  0  0  0  0  0  0  0  0  0  0  0
  -24.9060  -16.4282   20.2375 C   0  0  0  0  0  0  0  0  0  0  0  0
  -23.8903  -17.4585   23.1407 C   0  0  0  0  0  0  0  0  0  0  0  0
  -22.4420  -19.9318   24.9934 C   0  0  0  0  0  0  0  0  0  0  0  0
  -22.0560  -30.2058   21.9391 C   0  0  0  0  0  0  0  0  0  0  0  0
  -25.3008  -11.4636   21.3577 C   0  0  0  0  0  0  0  0  0  0  0  0
  -26.0265  -18.6813   20.3921 C   0  0  0  0  0  0  0  0  0  0  0  0
  -18.2656  -26.6948   23.4566 C   0  0  0  0  0  0  0  0  0  0  0  0
  -23.1700  -18.8221   21.1440 C   0  0  0  0  0  0  0  0  0  0  0  0
  -24.2685  -12.5603   21.6067 C   0  0  0  0  0  0  0  0  0  0  0  0
  -18.3873  -28.1498   23.8978 C   0  0  0  0  0  0  0  0  0  0  0  0
  -24.8349  -31.7908   20.3764 C   0  0  0  0  0  0  0  0  0  0  0  0
  -23.9685  -13.3142   20.3150 C   0  0  0  0  0  0  0  0  0  0  0  0
  -19.8095  -28.6448   23.6738 C   0  0  0  0  0  0  0  0  0  0  0  0
  -25.8569  -30.6638   20.2173 C   0  0  0  0  0  0  0  0  0  0  0  0
  -24.0459  -31.6577   21.6771 C   0  0  0  0  0  0  0  0  0  0  0  0
  -24.4179  -29.2218   21.7169 C   0  0  0  0  0  0  0  0  0  0  0  0
  -25.2264  -14.0046   19.7743 C   0  0  1  0  0  0  0  0  0  0  0  0
  -20.1605  -28.6222   22.1807 C   0  0  1  0  0  0  0  0  0  0  0  0
  -25.3370  -17.5467   21.1435 C   0  0  1  0  0  0  0  0  0  0  0  0
  -25.1995  -29.2817   20.3933 C   0  0  2  0  0  0  0  0  0  0  0  0
  -21.7093  -20.4686   27.3327 C   0  0  0  0  0  0  0  0  0  0  0  0
  -21.4533  -15.6568   22.7883 C   0  0  0  0  0  0  0  0  0  0  0  0
  -20.3369  -16.9226   24.6376 C   0  0  0  0  0  0  0  0  0  0  0  0
  -22.4331  -15.6480   25.0892 C   0  0  0  0  0  0  0  0  0  0  0  0
  -24.2897  -22.2372   25.1670 C   0  0  0  0  0  0  0  0  0  0  0  0
  -17.6703  -23.0010   20.1955 C   0  0  0  0  0  0  0  0  0  0  0  0
  -20.3759  -25.6186   18.1508 C   0  0  0  0  0  0  0  0  0  0  0  0
  -21.9366  -24.2316   16.7799 C   0  0  0  0  0  0  0  0  0  0  0  0
  -23.0161  -23.1739   16.8985 C   0  0  0  0  0  0  0  0  0  1  0  0
  -22.5485  -17.7885   23.7487 C   0  0  1  0  0  0  0  0  0  0  0  0
  -22.8372  -20.5618   26.3168 C   0  0  2  0  0  0  0  0  0  0  0  0
  -21.7026  -16.5175   24.0429 C   0  0  0  0  0  0  0  0  0  0  0  0
  -27.4733  -28.3770   20.6996 N   0  0  0  0  0  0  0  0  0  0  0  0
  -26.2153  -28.1601   20.2795 N   0  0  0  0  0  0  0  0  0  0  0  0
  -24.1455  -17.9915   21.8692 N   0  0  0  0  0  0  0  0  0  0  0  0
  -23.4467  -30.3251   21.7816 N   0  0  0  0  0  0  0  0  0  0  0  0
  -24.8005  -26.5203   19.3202 N   0  0  0  0  0  0  0  0  0  0  0  0
  -27.2924  -23.8829   20.4285 N   0  0  0  0  0  0  0  0  0  0  0  0
  -25.5002  -15.2134   20.5215 N   0  0  0  0  0  0  0  0  0  0  0  0
  -22.8232  -18.6085   24.9236 N   0  0  0  0  0  0  0  0  0  0  0  0
  -21.5694  -28.9070   22.0237 N   0  0  0  0  0  0  0  0  0  0  0  0
  -23.1789  -21.9996   26.1245 N   0  3  0  0  0  0  0  0  0  0  0  0
  -21.4258  -24.5645   18.1337 N   0  3  0  0  0  0  0  0  0  0  0  0
  -27.8819  -24.6160   18.3371 O   0  0  0  0  0  0  0  0  0  0  0  0
  -24.0934  -16.6505   19.3476 O   0  0  0  0  0  0  0  0  0  0  0  0
  -24.6857  -16.7598   23.7738 O   0  0  0  0  0  0  0  0  0  0  0  0
  -21.8508  -20.5506   24.1113 O   0  0  0  0  0  0  0  0  0  0  0  0
  -21.3031  -31.1841   21.9945 O   0  0  0  0  0  0  0  0  0  0  0  0
  -33.4883  -26.5470   21.7080 O   0  0  0  0  0  0  0  0  0  0  0  0
  -18.5735  -23.8564   19.4977 O   0  0  0  0  0  0  0  0  0  0  0  0
  -22.4673  -21.9953   17.4867 O   0  0  0  0  0  0  0  0  0  1  0  0
  -36.1082  -22.2080   19.5370 F   0  0  0  0  0  0  0  0  0  0  0  0
  -35.6804  -26.8931   20.0595 F   0  0  0  0  0  0  0  0  0  0  0  0
  1  2  1  0  0  0  0
  1  5  2  0  0  0  0
  2  6  2  0  0  0  0
  3  8  2  0  0  0  0
  3 17  1  0  0  0  0
  4  9  1  0  0  0  0
  4 17  2  0  0  0  0
  5 19  1  0  0  0  0
  6 21  1  0  0  0  0
  7 10  2  0  0  0  0
  7 20  1  0  0  0  0
  8 26  1  0  0  0  0
  9 26  2  0  0  0  0
 10 27  1  0  0  0  0
 11 12  2  0  0  0  0
 11 28  1  0  0  0  0
 12 30  1  0  0  0  0
 13 22  2  0  0  0  0
 13 25  1  0  0  0  0
 14 23  2  0  0  0  0
 14 29  1  0  0  0  0
 15 24  1  0  0  0  0
 15 27  2  0  0  0  0
 16 30  2  0  0  0  0
 16 31  1  0  0  0  0
 17 32  1  0  0  0  0
 18 32  1  0  0  0  0
 18 33  2  0  0  0  0
 18 34  1  0  0  0  0
 19 21  2  0  0  0  0
 19 39  1  0  0  0  0
 20 24  2  0  0  0  0
 20 40  1  0  0  0  0
 21 51  1  0  0  0  0
 22 23  1  0  0  0  0
 22 52  1  0  0  0  0
 23 41  1  0  0  0  0
 24 42  1  0  0  0  0
 25 29  2  0  0  0  0
 25 61  1  0  0  0  0
 26 83  1  0  0  0  0
 27 85  1  0  0  0  0
 28 31  2  0  0  0  0
 28 83  1  0  0  0  0
 29 84  1  0  0  0  0
 30 86  1  0  0  0  0
 31 87  1  0  0  0  0
 32 67  2  0  0  0  0
 33 68  1  0  0  0  0
 33 71  1  0  0  0  0
 34 72  1  0  0  0  0
 34 78  2  0  0  0  0
 35 53  1  0  0  0  0
 35 73  1  0  0  0  0
 35 79  2  0  0  0  0
 36 64  1  0  0  0  0
 36 69  1  0  0  0  0
 36 80  2  0  0  0  0
 37 65  1  0  0  0  0
 37 74  1  0  0  0  0
 37 81  2  0  0  0  0
 38 70  1  0  0  0  0
 38 75  1  0  0  0  0
 38 82  2  0  0  0  0
 39 43  1  0  0  0  0
 40 53  1  0  0  0  0
 41 44  1  0  0  0  0
 42 69  1  0  0  0  0
 43 46  1  0  0  0  0
 44 47  1  0  0  0  0
 45 48  1  0  0  0  0
 45 49  1  0  0  0  0
 46 51  1  0  0  0  0
 47 52  1  0  0  0  0
 48 54  1  0  0  0  0
 49 70  1  0  0  0  0
 50 54  1  0  0  0  0
 50 70  1  0  0  0  0
 51 73  1  0  0  0  0
 52 75  1  0  0  0  0
 53 69  1  0  0  0  0
 54 68  1  0  0  0  0
 55 65  1  0  0  0  0
 56 66  1  0  0  0  0
 57 66  1  0  0  0  0
 58 66  1  0  0  0  0
 59 76  1  0  0  0  0
 60 84  1  0  0  0  0
 61 77  1  0  0  0  0
 62 63  1  0  0  0  0
 62 77  1  0  0  0  0
 63 85  1  0  0  0  0
 64 66  1  0  0  0  0
 64 74  1  0  0  0  0
 65 76  1  0  0  0  0
 67 68  1  0  0  0  0
M  CHG  2  76   1  77   1
M  ISO  4  38 100  63 101  75 100  85 101
M  END
> <Batch ID>
0165

> <Smiles>
CNC(C)C(=O)NC(C(=O)N1Cc2cc([101O:1][101CH2:1]CNCc3cc4c(cc3OC)CCCC4[100NH:0][100C:0](=O)N3CCCC(n4nc(-c5ccc(Oc6ccc(F)cc6F)cc5)c(C(N)=O)c4N)C3)ccc2CC1C(=O)NC1CCCc2ccccc21)C(C)(C)C

> <Shape>
0.207

> <Color>
0.090

> <Negative vol penalty>
0.000

$$$$

  -OEChem-04052322223D

 88 97  0     1  0  0  0  0  0999 V2000
  -20.2255  -34.1912   16.0206 C   0  0  0  0  0  0  0  0  0  0  0  0
  -21.2474  -33.2511   15.9360 C   0  0  0  0  0  0  0  0  0  0  0  0
  -24.3151   -8.7465   22.7118 C   0  0  0  0  0  0  0  0  0  0  0  0
  -24.3176   -8.7178   20.2959 C   0  0  0  0  0  0  0  0  0  0  0  0
  -20.2059  -35.1050   17.0734 C   0  0  0  0  0  0  0  0  0  0  0  0
  -22.2510  -33.2249   16.9037 C   0  0  0  0  0  0  0  0  0  0  0  0
  -25.1433  -28.2827   19.0751 C   0  0  0  0  0  0  0  0  0  0  0  0
  -23.1583   -7.9672   22.7198 C   0  0  0  0  0  0  0  0  0  0  0  0
  -23.1608   -7.9385   20.3040 C   0  0  0  0  0  0  0  0  0  0  0  0
  -26.3766  -27.7083   18.7704 C   0  0  0  0  0  0  0  0  0  0  0  0
  -22.3457   -4.7108   22.3096 C   0  0  0  0  0  0  0  0  0  0  0  0
  -22.2960   -3.6335   23.1942 C   0  0  0  0  0  0  0  0  0  0  0  0
  -27.3754  -28.8833   20.6254 C   0  0  0  0  0  0  0  0  0  0  0  0
  -30.1310  -21.8489   20.3081 C   0  0  0  0  0  0  0  0  0  0  0  0
  -29.4981  -21.7952   17.9771 C   0  0  0  0  0  0  0  0  0  0  0  0
  -20.3594   -4.6025   24.2655 C   0  0  0  0  0  0  0  0  0  0  0  0
  -24.8947   -9.1219   21.4998 C   0  0  0  0  0  0  0  0  0  0  0  0
  -29.8954  -23.9116   19.0725 C   0  0  0  0  0  0  0  0  0  0  0  0
  -27.4216   -9.4723   21.4973 C   0  0  0  0  0  0  0  0  0  0  0  0
  -21.2044  -35.0838   18.0599 C   0  0  0  0  0  0  0  0  0  0  0  0
  -25.0189  -29.1717   20.1524 C   0  0  0  0  0  0  0  0  0  0  0  0
  -22.2455  -34.1401   17.9700 C   0  0  0  0  0  0  0  0  0  0  0  0
  -26.1388  -29.4657   20.9432 C   0  0  0  0  0  0  0  0  0  0  0  0
  -30.1849  -23.2419   20.2614 C   0  0  0  0  0  0  0  0  0  0  0  0
  -29.7876  -21.1255   19.1659 C   0  0  0  0  0  0  0  0  0  0  0  0
  -22.5812   -7.5632   21.5160 C   0  0  0  0  0  0  0  0  0  0  0  0
  -27.4935  -28.0108   19.5439 C   0  0  0  0  0  0  0  0  0  0  0  0
  -21.4023   -5.7340   22.4030 C   0  0  0  0  0  0  0  0  0  0  0  0
  -29.5520  -23.1882   17.9303 C   0  0  0  0  0  0  0  0  0  0  0  0
  -21.3029   -3.5793   24.1721 C   0  0  0  0  0  0  0  0  0  0  0  0
  -20.4091   -5.6798   23.3809 C   0  0  0  0  0  0  0  0  0  0  0  0
  -26.0894   -9.9274   21.4908 C   0  0  0  0  0  0  0  0  0  0  0  0
  -28.1764  -10.6197   21.4836 C   0  0  0  0  0  0  0  0  0  0  0  0
  -29.9502  -25.3684   19.0175 C   0  0  0  0  0  0  0  0  0  0  0  0
  -27.9311   -8.1322   21.5142 C   0  0  0  0  0  0  0  0  0  0  0  0
  -24.1998  -32.2280   20.4554 C   0  0  0  0  0  0  0  0  0  0  0  0
  -24.3934  -31.5619   23.6242 C   0  0  0  0  0  0  0  0  0  0  0  0
  -25.6856  -29.5982   26.0983 C   0  0  0  0  0  0  0  0  0  0  0  0
  -29.3608  -15.5416   19.6903 C   0  0  0  0  0  0  0  0  0  0  0  0
  -21.1671  -36.1221   19.1531 C   0  0  0  0  0  0  0  0  0  0  0  0
  -23.6759  -29.7621   20.4842 C   0  0  0  0  0  0  0  0  0  0  0  0
  -26.0539  -30.3982   22.1229 C   0  0  0  0  0  0  0  0  0  0  0  0
  -22.0617  -35.7858   20.3434 C   0  0  0  0  0  0  0  0  0  0  0  0
  -26.8575  -15.4494   22.1530 C   0  0  0  0  0  0  0  0  0  0  0  0
  -23.4386  -35.3353   19.8658 C   0  0  0  0  0  0  0  0  0  0  0  0
  -26.5356  -13.9562   22.2031 C   0  0  0  0  0  0  0  0  0  0  0  0
  -27.0807  -15.9397   20.7214 C   0  0  0  0  0  0  0  0  0  0  0  0
  -30.6120  -19.0036   20.1386 C   0  0  0  0  0  0  0  0  0  0  0  0
  -28.4571  -19.0815   18.8750 C   0  0  0  0  0  0  0  0  0  0  0  0
  -30.7915  -17.5507   19.7068 C   0  0  0  0  0  0  0  0  0  0  0  0
  -28.6810  -17.6328   18.4556 C   0  0  0  0  0  0  0  0  0  0  0  0
  -27.7719  -13.6701   20.0220 C   0  0  0  0  0  0  0  0  0  0  0  0
  -23.3384  -34.0641   19.0140 C   0  0  1  0  0  0  0  0  0  0  0  0
  -23.7737  -31.0537   21.2903 C   0  0  1  0  0  0  0  0  0  0  0  0
  -27.5999  -13.1361   21.4526 C   0  0  2  0  0  0  0  0  0  0  0  0
  -30.5558  -23.9901   21.5004 C   0  0  0  0  0  0  0  0  0  0  0  0
  -25.6923  -29.3216   28.5925 C   0  0  0  0  0  0  0  0  0  0  0  0
  -26.2910  -33.9375   23.8801 C   0  0  0  0  0  0  0  0  0  0  0  0
  -26.9891  -33.0499   26.1146 C   0  0  0  0  0  0  0  0  0  0  0  0
  -24.6208  -33.7324   25.7302 C   0  0  0  0  0  0  0  0  0  0  0  0
  -24.5067  -26.8897   25.9174 C   0  0  0  0  0  0  0  0  0  0  0  0
  -30.3543  -24.0648   15.8703 C   0  0  0  0  0  0  0  0  0  0  0  0
  -28.6944  -26.1639   18.6478 C   0  0  0  0  0  0  0  0  0  1  0  0
  -25.4884  -31.6115   24.6622 C   0  0  1  0  0  0  0  0  0  0  0  0
  -25.0323  -28.9127   27.2848 C   0  0  2  0  0  0  0  0  0  0  0  0
  -25.8497  -33.0667   25.0735 C   0  0  0  0  0  0  0  0  0  0  0  0
  -25.9998  -11.2599   21.4744 N   0  0  0  0  0  0  0  0  0  0  0  0
  -27.2852  -11.6520   21.4706 N   0  0  0  0  0  0  0  0  0  0  0  0
  -29.7334  -19.7266   19.2128 N   0  0  0  0  0  0  0  0  0  0  0  0
  -24.7202  -30.9551   22.4032 N   0  0  0  0  0  0  0  0  0  0  0  0
  -28.0731  -15.1032   20.0333 N   0  0  0  0  0  0  0  0  0  0  0  0
  -29.5136  -16.9105   19.4195 N   0  0  0  0  0  0  0  0  0  0  0  0
  -29.5089  -10.8362   21.4817 N   0  0  0  0  0  0  0  0  0  0  0  0
  -27.0170   -7.0699   21.5266 N   0  0  0  0  0  0  0  0  0  0  0  0
  -23.1526  -32.9034   19.8582 N   0  0  0  0  0  0  0  0  0  0  0  0
  -25.0410  -30.7716   25.7680 N   0  0  0  0  0  0  0  0  0  0  0  0
  -25.1357  -27.4322   27.1490 N   0  3  0  0  0  0  0  0  0  0  0  0
  -31.0066  -25.9781   19.2683 O   0  0  0  0  0  0  0  0  0  0  0  0
  -29.1606   -7.8844   21.5347 O   0  0  0  0  0  0  0  0  0  0  0  0
  -25.3905  -32.5021   20.3613 O   0  0  0  0  0  0  0  0  0  0  0  0
  -23.2865  -32.0374   23.8897 O   0  0  0  0  0  0  0  0  0  0  0  0
  -26.6714  -29.1407   25.5244 O   0  0  0  0  0  0  0  0  0  0  0  0
  -30.3180  -14.7599   19.6321 O   0  0  0  0  0  0  0  0  0  0  0  0
  -21.4525   -6.8025   21.5235 O   0  0  0  0  0  0  0  0  0  0  0  0
  -29.2653  -23.8222   16.7582 O   0  0  0  0  0  0  0  0  0  0  0  0
  -28.7096  -27.4469   19.2456 O   0  0  0  0  0  0  0  0  0  1  0  0
  -21.2543   -2.5439   25.0205 F   0  0  0  0  0  0  0  0  0  0  0  0
  -19.4993   -6.6593   23.4748 F   0  0  0  0  0  0  0  0  0  0  0  0
  1  2  1  0  0  0  0
  1  5  2  0  0  0  0
  2  6  2  0  0  0  0
  3  8  2  0  0  0  0
  3 17  1  0  0  0  0
  4  9  1  0  0  0  0
  4 17  2  0  0  0  0
  5 20  1  0  0  0  0
  6 22  1  0  0  0  0
  7 10  2  0  0  0  0
  7 21  1  0  0  0  0
  8 26  1  0  0  0  0
  9 26  2  0  0  0  0
 10 27  1  0  0  0  0
 11 12  2  0  0  0  0
 11 28  1  0  0  0  0
 12 30  1  0  0  0  0
 13 23  1  0  0  0  0
 13 27  2  0  0  0  0
 14 24  2  0  0  0  0
 14 25  1  0  0  0  0
 15 25  2  0  0  0  0
 15 29  1  0  0  0  0
 16 30  2  0  0  0  0
 16 31  1  0  0  0  0
 17 32  1  0  0  0  0
 18 24  1  0  0  0  0
 18 29  2  0  0  0  0
 18 34  1  0  0  0  0
 19 32  1  0  0  0  0
 19 33  2  0  0  0  0
 19 35  1  0  0  0  0
 20 22  2  0  0  0  0
 20 40  1  0  0  0  0
 21 23  2  0  0  0  0
 21 41  1  0  0  0  0
 22 53  1  0  0  0  0
 23 42  1  0  0  0  0
 24 56  1  0  0  0  0
 25 69  1  0  0  0  0
 26 84  1  0  0  0  0
 27 86  1  0  0  0  0
 28 31  2  0  0  0  0
 28 84  1  0  0  0  0
 29 85  1  0  0  0  0
 30 87  1  0  0  0  0
 31 88  1  0  0  0  0
 32 67  2  0  0  0  0
 33 68  1  0  0  0  0
 33 73  1  0  0  0  0
 34 63  1  0  0  0  0
 34 78  2  0  0  0  0
 35 74  1  0  0  0  0
 35 79  2  0  0  0  0
 36 54  1  0  0  0  0
 36 75  1  0  0  0  0
 36 80  2  0  0  0  0
 37 64  1  0  0  0  0
 37 70  1  0  0  0  0
 37 81  2  0  0  0  0
 38 65  1  0  0  0  0
 38 76  1  0  0  0  0
 38 82  2  0  0  0  0
 39 71  1  0  0  0  0
 39 72  1  0  0  0  0
 39 83  2  0  0  0  0
 40 43  1  0  0  0  0
 41 54  1  0  0  0  0
 42 70  1  0  0  0  0
 43 45  1  0  0  0  0
 44 46  1  0  0  0  0
 44 47  1  0  0  0  0
 45 53  1  0  0  0  0
 46 55  1  0  0  0  0
 47 71  1  0  0  0  0
 48 50  1  0  0  0  0
 48 69  1  0  0  0  0
 49 51  1  0  0  0  0
 49 69  1  0  0  0  0
 50 72  1  0  0  0  0
 51 72  1  0  0  0  0
 52 55  1  0  0  0  0
 52 71  1  0  0  0  0
 53 75  1  0  0  0  0
 54 70  1  0  0  0  0
 55 68  1  0  0  0  0
 57 65  1  0  0  0  0
 58 66  1  0  0  0  0
 59 66  1  0  0  0  0
 60 66  1  0  0  0  0
 61 77  1  0  0  0  0
 62 85  1  0  0  0  0
 63 86  1  0  0  0  0
 64 66  1  0  0  0  0
 64 76  1  0  0  0  0
 65 77  1  0  0  0  0
 67 68  1  0  0  0  0
M  CHG  1  77   1
M  ISO  4  39 100  63 101  72 100  86 101
M  END
> <Batch ID>
0165

> <Smiles>
CNC(C)C(=O)NC(C(=O)N1Cc2cc([101O:1][101CH2:1]C(=O)c3c(C)cc(N4CC[100N:0]([100C:0](=O)N5CCCC(n6nc(-c7ccc(Oc8ccc(F)cc8F)cc7)c(C(N)=O)c6N)C5)CC4)cc3OC)ccc2CC1C(=O)NC1CCCc2ccccc21)C(C)(C)C

> <Shape>
0.305

> <Color>
0.117

> <Negative vol penalty>
0.000

$$$$

  -OEChem-04052322223D

 83 92  0     1  0  0  0  0  0999 V2000
  -18.2252  -23.4690   23.4240 C   0  0  0  0  0  0  0  0  0  0  0  0
  -19.5178  -22.9565   23.4683 C   0  0  0  0  0  0  0  0  0  0  0  0
  -24.2878   -9.4260   21.3002 C   0  0  0  0  0  0  0  0  0  0  0  0
  -25.1936  -10.5064   23.2621 C   0  0  0  0  0  0  0  0  0  0  0  0
  -18.0019  -24.7518   22.9255 C   0  0  0  0  0  0  0  0  0  0  0  0
  -20.5878  -23.7261   23.0130 C   0  0  0  0  0  0  0  0  0  0  0  0
  -26.2831  -23.8093   25.2630 C   0  0  0  0  0  0  0  0  0  0  0  0
  -24.0980   -8.2544   22.0330 C   0  0  0  0  0  0  0  0  0  0  0  0
  -25.0038   -9.3349   23.9950 C   0  0  0  0  0  0  0  0  0  0  0  0
  -27.4600  -23.1796   24.8603 C   0  0  0  0  0  0  0  0  0  0  0  0
  -21.8710   -7.0520   24.2752 C   0  0  0  0  0  0  0  0  0  0  0  0
  -20.6537   -6.3866   24.1301 C   0  0  0  0  0  0  0  0  0  0  0  0
  -28.1028  -25.1665   23.6528 C   0  0  0  0  0  0  0  0  0  0  0  0
  -30.2003  -17.9085   22.0064 C   0  0  0  0  0  0  0  0  0  0  0  0
  -21.8202   -4.4257   23.3357 C   0  0  0  0  0  0  0  0  0  0  0  0
  -31.7037  -18.3169   20.2093 C   0  0  0  0  0  0  0  0  0  0  0  0
  -24.8357  -10.5520   21.9148 C   0  0  0  0  0  0  0  0  0  0  0  0
  -24.1196  -12.8217   20.9964 C   0  0  0  0  0  0  0  0  0  0  0  0
  -19.0708  -25.5412   22.4729 C   0  0  0  0  0  0  0  0  0  0  0  0
  -26.0016  -25.1207   24.8540 C   0  0  0  0  0  0  0  0  0  0  0  0
  -20.3784  -25.0201   22.5068 C   0  0  0  0  0  0  0  0  0  0  0  0
  -26.9228  -25.8115   24.0538 C   0  0  0  0  0  0  0  0  0  0  0  0
  -31.1540  -17.4260   21.1170 C   0  0  0  0  0  0  0  0  0  0  0  0
  -24.4560   -8.2089   23.3804 C   0  0  0  0  0  0  0  0  0  0  0  0
  -28.3687  -23.8572   24.0527 C   0  0  0  0  0  0  0  0  0  0  0  0
  -23.0630   -6.4042   23.9505 C   0  0  0  0  0  0  0  0  0  0  0  0
  -20.6283   -5.0735   23.6604 C   0  0  0  0  0  0  0  0  0  0  0  0
  -23.0376   -5.0911   23.4808 C   0  0  0  0  0  0  0  0  0  0  0  0
  -29.8306  -19.2481   21.9615 C   0  0  0  0  0  0  0  0  0  0  0  0
  -25.0325  -11.7623   21.1581 C   0  0  0  0  0  0  0  0  0  0  0  0
  -30.4397  -20.0575   21.0161 C   0  0  0  0  0  0  0  0  0  0  0  0
  -24.7782  -13.7235   20.1967 C   0  0  0  0  0  0  0  0  0  0  0  0
  -22.7947  -12.9768   21.5222 C   0  0  0  0  0  0  0  0  0  0  0  0
  -23.7127  -26.4882   23.1235 C   0  0  0  0  0  0  0  0  0  0  0  0
  -25.1966  -29.2245   24.0361 C   0  0  0  0  0  0  0  0  0  0  0  0
  -28.0533  -30.7514   25.1107 C   0  0  0  0  0  0  0  0  0  0  0  0
  -30.5811  -14.8096   19.1977 C   0  0  0  0  0  0  0  0  0  0  0  0
  -18.7746  -26.9040   21.8987 C   0  0  0  0  0  0  0  0  0  0  0  0
  -24.7402  -25.7953   25.3189 C   0  0  0  0  0  0  0  0  0  0  0  0
  -26.6772  -27.2278   23.6041 C   0  0  0  0  0  0  0  0  0  0  0  0
  -20.0069  -27.7976   21.7838 C   0  0  0  0  0  0  0  0  0  0  0  0
  -28.1149  -13.9558   16.7757 C   0  0  0  0  0  0  0  0  0  0  0  0
  -21.1698  -27.0265   21.1674 C   0  0  0  0  0  0  0  0  0  0  0  0
  -26.9629  -13.3924   17.6097 C   0  0  0  0  0  0  0  0  0  0  0  0
  -31.0849  -22.4644   20.3265 C   0  0  0  0  0  0  0  0  0  0  0  0
  -29.4735  -13.5733   17.3589 C   0  0  0  0  0  0  0  0  0  0  0  0
  -28.5049  -13.3563   19.6146 C   0  0  0  0  0  0  0  0  0  0  0  0
  -21.5679  -25.8338   22.0452 C   0  0  1  0  0  0  0  0  0  0  0  0
  -30.0862  -21.4942   20.9196 C   0  0  2  0  0  0  0  0  0  0  0  0
  -24.3148  -26.9519   24.4197 C   0  0  1  0  0  0  0  0  0  0  0  0
  -30.8074  -22.4935   21.8000 C   0  0  2  0  0  0  0  0  0  0  0  0
  -27.1143  -13.7626   19.0974 C   0  0  2  0  0  0  0  0  0  0  0  0
  -28.9682  -33.0032   25.7350 C   0  0  0  0  0  0  0  0  0  0  0  0
  -25.3520  -29.9773   21.0833 C   0  0  0  0  0  0  0  0  0  0  0  0
  -27.0660  -31.7004   21.6846 C   0  0  0  0  0  0  0  0  0  0  0  0
  -24.7558  -31.8653   22.6113 C   0  0  0  0  0  0  0  0  0  0  0  0
  -28.6588  -29.8692   27.8700 C   0  0  0  0  0  0  0  0  0  0  0  0
  -31.5702  -15.9986   21.1386 C   0  0  0  0  0  0  0  0  0  0  0  0
  -30.0635  -23.6371   22.3989 C   0  0  0  0  0  0  0  0  0  1  0  0
  -26.3138  -30.0723   23.4775 C   0  0  1  0  0  0  0  0  0  0  0  0
  -28.3075  -31.7309   26.2423 C   0  0  2  0  0  0  0  0  0  0  0  0
  -25.8759  -30.8765   22.2209 C   0  0  0  0  0  0  0  0  0  0  0  0
  -31.3700  -19.6249   20.1357 N   0  0  0  0  0  0  0  0  0  0  0  0
  -26.1833  -11.9703   20.5129 N   0  0  0  0  0  0  0  0  0  0  0  0
  -25.9979  -13.1708   19.9379 N   0  0  0  0  0  0  0  0  0  0  0  0
  -25.4266  -27.8421   24.0797 N   0  0  0  0  0  0  0  0  0  0  0  0
  -29.5527  -13.9529   18.7715 N   0  0  0  0  0  0  0  0  0  0  0  0
  -24.4272  -14.9273   19.6967 N   0  0  0  0  0  0  0  0  0  0  0  0
  -22.2710  -11.9550   22.3258 N   0  0  0  0  0  0  0  0  0  0  0  0
  -22.3479  -26.2794   23.1799 N   0  0  0  0  0  0  0  0  0  0  0  0
  -26.7890  -30.9000   24.5809 N   0  0  0  0  0  0  0  0  0  0  0  0
  -30.5796  -15.1243   20.5511 N   0  0  0  0  0  0  0  0  0  0  0  0
  -29.1963  -31.1169   27.2689 N   0  3  0  0  0  0  0  0  0  0  0  0
  -22.0899  -13.9840   21.2728 O   0  0  0  0  0  0  0  0  0  0  0  0
  -24.4328  -26.3328   22.1442 O   0  0  0  0  0  0  0  0  0  0  0  0
  -24.1610  -29.7693   24.4263 O   0  0  0  0  0  0  0  0  0  0  0  0
  -28.8937  -29.9385   24.7319 O   0  0  0  0  0  0  0  0  0  0  0  0
  -31.4340  -15.2647   18.4281 O   0  0  0  0  0  0  0  0  0  0  0  0
  -24.2707   -7.0659   24.0959 O   0  0  0  0  0  0  0  0  0  0  0  0
  -29.5179  -23.2446   23.6577 O   0  0  0  0  0  0  0  0  0  1  0  0
  -19.4594   -4.4341   23.5226 F   0  0  0  0  0  0  0  0  0  0  0  0
  -24.1795   -4.4632   23.1684 F   0  0  0  0  0  0  0  0  0  0  0  0
  -28.6500  -19.8384   23.0664 Cl  0  0  0  0  0  0  0  0  0  0  0  0
  1  2  1  0  0  0  0
  1  5  2  0  0  0  0
  2  6  2  0  0  0  0
  3  8  2  0  0  0  0
  3 17  1  0  0  0  0
  4  9  1  0  0  0  0
  4 17  2  0  0  0  0
  5 19  1  0  0  0  0
  6 21  1  0  0  0  0
  7 10  2  0  0  0  0
  7 20  1  0  0  0  0
  8 24  1  0  0  0  0
  9 24  2  0  0  0  0
 10 25  1  0  0  0  0
 11 12  2  0  0  0  0
 11 26  1  0  0  0  0
 12 27  1  0  0  0  0
 13 22  1  0  0  0  0
 13 25  2  0  0  0  0
 14 23  2  0  0  0  0
 14 29  1  0  0  0  0
 15 27  2  0  0  0  0
 15 28  1  0  0  0  0
 16 23  1  0  0  0  0
 16 63  2  0  0  0  0
 17 30  1  0  0  0  0
 18 30  1  0  0  0  0
 18 32  2  0  0  0  0
 18 33  1  0  0  0  0
 19 21  2  0  0  0  0
 19 38  1  0  0  0  0
 20 22  2  0  0  0  0
 20 39  1  0  0  0  0
 21 48  1  0  0  0  0
 22 40  1  0  0  0  0
 23 58  1  0  0  0  0
 24 79  1  0  0  0  0
 25 80  1  0  0  0  0
 26 28  2  0  0  0  0
 26 79  1  0  0  0  0
 27 81  1  0  0  0  0
 28 82  1  0  0  0  0
 29 31  2  0  0  0  0
 29 83  1  0  0  0  0
 30 64  2  0  0  0  0
 31 49  1  0  0  0  0
 31 63  1  0  0  0  0
 32 65  1  0  0  0  0
 32 68  1  0  0  0  0
 33 69  1  0  0  0  0
 33 74  2  0  0  0  0
 34 50  1  0  0  0  0
 34 70  1  0  0  0  0
 34 75  2  0  0  0  0
 35 60  1  0  0  0  0
 35 66  1  0  0  0  0
 35 76  2  0  0  0  0
 36 61  1  0  0  0  0
 36 71  1  0  0  0  0
 36 77  2  0  0  0  0
 37 67  1  0  0  0  0
 37 72  1  0  0  0  0
 37 78  2  0  0  0  0
 38 41  1  0  0  0  0
 39 50  1  0  0  0  0
 40 66  1  0  0  0  0
 41 43  1  0  0  0  0
 42 44  1  0  0  0  0
 42 46  1  0  0  0  0
 43 48  1  0  0  0  0
 44 52  1  0  0  0  0
 45 49  1  0  0  0  0
 45 51  1  0  0  0  0
 46 67  1  0  0  0  0
 47 52  1  0  0  0  0
 47 67  1  0  0  0  0
 48 70  1  0  0  0  0
 49 51  1  0  0  0  0
 50 66  1  0  0  0  0
 51 59  1  0  0  0  0
 52 65  1  0  0  0  0
 53 61  1  0  0  0  0
 54 62  1  0  0  0  0
 55 62  1  0  0  0  0
 56 62  1  0  0  0  0
 57 73  1  0  0  0  0
 58 72  1  0  0  0  0
 59 80  1  0  0  0  0
 60 62  1  0  0  0  0
 60 71  1  0  0  0  0
 61 73  1  0  0  0  0
 64 65  1  0  0  0  0
M  CHG  1  73   1
M  ISO  4  37 100  59 101  72 100  80 101
M  END
> <Batch ID>
0165

> <Smiles>
CNC(C)C(=O)NC(C(=O)N1Cc2cc([101O:1][101CH2:1]C3CC3c3ncc(C[100NH:0][100C:0](=O)N4CCCC(n5nc(-c6ccc(Oc7ccc(F)cc7F)cc6)c(C(N)=O)c5N)C4)cc3Cl)ccc2CC1C(=O)NC1CCCc2ccccc21)C(C)(C)C

> <Shape>
0.260

> <Color>
0.080

> <Negative vol penalty>
0.000

$$$$

  -OEChem-04052322223D

 88 97  0     1  0  0  0  0  0999 V2000
  -16.6906  -29.6429   23.8477 C   0  0  0  0  0  0  0  0  0  0  0  0
  -17.1896  -28.7494   22.9052 C   0  0  0  0  0  0  0  0  0  0  0  0
  -25.3466  -14.6806   20.6889 C   0  0  0  0  0  0  0  0  0  0  0  0
  -23.9497  -13.9362   22.5141 C   0  0  0  0  0  0  0  0  0  0  0  0
  -17.4896  -30.6896   24.3057 C   0  0  0  0  0  0  0  0  0  0  0  0
  -18.4876  -28.9030   22.4195 C   0  0  0  0  0  0  0  0  0  0  0  0
  -24.0649  -25.0621   20.0832 C   0  0  0  0  0  0  0  0  0  0  0  0
  -25.6940  -13.3577   20.4152 C   0  0  0  0  0  0  0  0  0  0  0  0
  -24.2970  -12.6132   22.2404 C   0  0  0  0  0  0  0  0  0  0  0  0
  -24.9351  -24.9774   18.9972 C   0  0  0  0  0  0  0  0  0  0  0  0
  -23.4326  -10.2225   20.0138 C   0  0  0  0  0  0  0  0  0  0  0  0
  -22.4091   -9.2750   19.9999 C   0  0  0  0  0  0  0  0  0  0  0  0
  -26.2516  -26.7761   19.9196 C   0  0  0  0  0  0  0  0  0  0  0  0
  -23.5056   -8.0645   21.7802 C   0  0  0  0  0  0  0  0  0  0  0  0
  -24.4745  -14.9698   21.7385 C   0  0  0  0  0  0  0  0  0  0  0  0
  -23.0323  -17.0591   21.4879 C   0  0  0  0  0  0  0  0  0  0  0  0
  -18.8014  -30.8503   23.8325 C   0  0  0  0  0  0  0  0  0  0  0  0
  -24.2757  -26.0133   21.0917 C   0  0  0  0  0  0  0  0  0  0  0  0
  -19.3045  -29.9536   22.8706 C   0  0  0  0  0  0  0  0  0  0  0  0
  -25.3841  -26.8691   21.0186 C   0  0  0  0  0  0  0  0  0  0  0  0
  -31.7348  -25.2805   18.1820 C   0  0  0  0  0  0  0  0  0  0  0  0
  -30.7421  -25.1430   17.2182 C   0  0  0  0  0  0  0  0  0  0  0  0
  -31.5043  -24.8333   19.4782 C   0  0  0  0  0  0  0  0  0  0  0  0
  -25.1691  -12.3240   21.1909 C   0  0  0  0  0  0  0  0  0  0  0  0
  -26.0270  -25.8364   18.9138 C   0  0  0  0  0  0  0  0  0  0  0  0
  -24.4927  -10.0911   20.9108 C   0  0  0  0  0  0  0  0  0  0  0  0
  -22.4456   -8.1960   20.8831 C   0  0  0  0  0  0  0  0  0  0  0  0
  -24.5292   -9.0121   21.7940 C   0  0  0  0  0  0  0  0  0  0  0  0
  -24.1158  -16.3362   22.0221 C   0  0  0  0  0  0  0  0  0  0  0  0
  -29.5459  -24.5560   17.5984 C   0  0  0  0  0  0  0  0  0  0  0  0
  -30.2740  -24.2604   19.7573 C   0  0  0  0  0  0  0  0  0  0  0  0
  -23.1280  -18.3002   22.0685 C   0  0  0  0  0  0  0  0  0  0  0  0
  -22.0291  -16.6457   20.5508 C   0  0  0  0  0  0  0  0  0  0  0  0
  -22.6345  -28.4928   22.2151 C   0  0  0  0  0  0  0  0  0  0  0  0
  -25.0063  -28.5629   24.4270 C   0  0  0  0  0  0  0  0  0  0  0  0
  -28.2217  -27.7720   25.2531 C   0  0  0  0  0  0  0  0  0  0  0  0
  -27.9739  -21.0872   24.4681 C   0  0  0  0  0  0  0  0  0  0  0  0
  -19.6109  -32.0250   24.3220 C   0  0  0  0  0  0  0  0  0  0  0  0
  -23.3429  -26.0739   22.2701 C   0  0  0  0  0  0  0  0  0  0  0  0
  -25.6662  -27.8941   22.0855 C   0  0  0  0  0  0  0  0  0  0  0  0
  -21.1048  -31.8968   24.0358 C   0  0  0  0  0  0  0  0  0  0  0  0
  -24.7065  -20.4801   26.0265 C   0  0  0  0  0  0  0  0  0  0  0  0
  -21.3361  -31.4511   22.5954 C   0  0  0  0  0  0  0  0  0  0  0  0
  -24.1137  -19.3751   25.1510 C   0  0  0  0  0  0  0  0  0  0  0  0
  -27.7039  -23.1356   21.4271 C   0  0  0  0  0  0  0  0  0  0  0  0
  -26.2310  -20.4115   26.0794 C   0  0  0  0  0  0  0  0  0  0  0  0
  -27.0766  -22.0190   22.2551 C   0  0  0  0  0  0  0  0  0  0  0  0
  -26.2956  -19.2820   23.8901 C   0  0  0  0  0  0  0  0  0  0  0  0
  -29.4149  -22.1824   22.7754 C   0  0  0  0  0  0  0  0  0  0  0  0
  -20.7160  -30.0724   22.3382 C   0  0  1  0  0  0  0  0  0  0  0  0
  -23.3636  -27.4243   22.9796 C   0  0  1  0  0  0  0  0  0  0  0  0
  -24.7684  -19.3598   23.7570 C   0  0  1  0  0  0  0  0  0  0  0  0
  -29.1676  -22.7119   21.3708 C   0  0  2  0  0  0  0  0  0  0  0  0
  -33.0452  -25.9062   17.8243 C   0  0  0  0  0  0  0  0  0  0  0  0
  -30.9597  -25.6124   15.8188 C   0  0  0  0  0  0  0  0  0  0  0  0
  -32.5564  -24.9720   20.5287 C   0  0  0  0  0  0  0  0  0  0  0  0
  -28.5689  -23.0572   15.8291 C   0  0  0  0  0  0  0  0  0  0  0  0
  -30.2633  -27.5274   26.6916 C   0  0  0  0  0  0  0  0  0  0  0  0
  -25.4224  -31.4981   23.7049 C   0  0  0  0  0  0  0  0  0  0  0  0
  -27.6429  -31.3944   24.8568 C   0  0  0  0  0  0  0  0  0  0  0  0
  -25.5482  -30.9977   26.1520 C   0  0  0  0  0  0  0  0  0  0  0  0
  -27.3833  -25.0924   26.1888 C   0  0  0  0  0  0  0  0  0  0  0  0
  -27.0389  -24.4750   17.2469 C   0  0  0  0  0  0  0  0  0  1  0  0
  -28.4422  -24.3814   16.6072 C   0  0  1  0  0  0  0  0  0  0  0  0
  -26.3540  -29.2353   24.5283 C   0  0  1  0  0  0  0  0  0  0  0  0
  -28.8124  -27.1187   26.4894 C   0  0  2  0  0  0  0  0  0  0  0  0
  -26.2358  -30.7635   24.7893 C   0  0  0  0  0  0  0  0  0  0  0  0
  -24.8463  -17.0580   22.8762 N   0  0  0  0  0  0  0  0  0  0  0  0
  -29.2853  -24.1096   18.8476 N   0  0  0  0  0  0  0  0  0  0  0  0
  -24.2207  -18.2474   22.8831 N   0  0  0  0  0  0  0  0  0  0  0  0
  -24.7217  -27.9187   23.2146 N   0  0  0  0  0  0  0  0  0  0  0  0
  -26.8014  -20.3710   24.7327 N   0  0  0  0  0  0  0  0  0  0  0  0
  -28.1323  -21.6177   23.1885 N   0  0  0  0  0  0  0  0  0  0  0  0
  -22.3834  -19.4206   21.9565 N   0  0  0  0  0  0  0  0  0  0  0  0
  -22.0783  -15.3363   20.0535 N   0  0  0  0  0  0  0  0  0  0  0  0
  -30.0356  -23.8140   21.0501 N   0  0  0  0  0  0  0  0  0  0  0  0
  -21.5549  -29.0301   22.8898 N   0  0  0  0  0  0  0  0  0  0  0  0
  -27.0962  -28.5097   25.5536 N   0  0  0  0  0  0  0  0  0  0  0  0
  -28.7547  -25.6344   26.3686 N   0  3  0  0  0  0  0  0  0  0  0  0
  -21.1255  -17.4197   20.1534 O   0  0  0  0  0  0  0  0  0  0  0  0
  -23.0236  -28.8076   21.0966 O   0  0  0  0  0  0  0  0  0  0  0  0
  -24.2372  -28.6014   25.3906 O   0  0  0  0  0  0  0  0  0  0  0  0
  -28.7119  -27.6441   24.1333 O   0  0  0  0  0  0  0  0  0  0  0  0
  -28.8206  -21.2849   25.3496 O   0  0  0  0  0  0  0  0  0  0  0  0
  -25.5077  -11.0330   20.9239 O   0  0  0  0  0  0  0  0  0  0  0  0
  -26.8832  -25.7558   17.8476 O   0  0  0  0  0  0  0  0  0  1  0  0
  -21.4619   -7.2870   20.8707 F   0  0  0  0  0  0  0  0  0  0  0  0
  -25.5444   -8.8811   22.6589 F   0  0  0  0  0  0  0  0  0  0  0  0
  1  2  1  0  0  0  0
  1  5  2  0  0  0  0
  2  6  2  0  0  0  0
  3  8  2  0  0  0  0
  3 15  1  0  0  0  0
  4  9  1  0  0  0  0
  4 15  2  0  0  0  0
  5 17  1  0  0  0  0
  6 19  1  0  0  0  0
  7 10  2  0  0  0  0
  7 18  1  0  0  0  0
  8 24  1  0  0  0  0
  9 24  2  0  0  0  0
 10 25  1  0  0  0  0
 11 12  2  0  0  0  0
 11 26  1  0  0  0  0
 12 27  1  0  0  0  0
 13 20  1  0  0  0  0
 13 25  2  0  0  0  0
 14 27  2  0  0  0  0
 14 28  1  0  0  0  0
 15 29  1  0  0  0  0
 16 29  1  0  0  0  0
 16 32  2  0  0  0  0
 16 33  1  0  0  0  0
 17 19  2  0  0  0  0
 17 38  1  0  0  0  0
 18 20  2  0  0  0  0
 18 39  1  0  0  0  0
 19 50  1  0  0  0  0
 20 40  1  0  0  0  0
 21 22  1  0  0  0  0
 21 23  2  0  0  0  0
 21 54  1  0  0  0  0
 22 30  2  0  0  0  0
 22 55  1  0  0  0  0
 23 31  1  0  0  0  0
 23 56  1  0  0  0  0
 24 85  1  0  0  0  0
 25 86  1  0  0  0  0
 26 28  2  0  0  0  0
 26 85  1  0  0  0  0
 27 87  1  0  0  0  0
 28 88  1  0  0  0  0
 29 68  2  0  0  0  0
 30 64  1  0  0  0  0
 30 69  1  0  0  0  0
 31 69  2  0  0  0  0
 31 76  1  0  0  0  0
 32 70  1  0  0  0  0
 32 74  1  0  0  0  0
 33 75  1  0  0  0  0
 33 80  2  0  0  0  0
 34 51  1  0  0  0  0
 34 77  1  0  0  0  0
 34 81  2  0  0  0  0
 35 65  1  0  0  0  0
 35 71  1  0  0  0  0
 35 82  2  0  0  0  0
 36 66  1  0  0  0  0
 36 78  1  0  0  0  0
 36 83  2  0  0  0  0
 37 72  1  0  0  0  0
 37 73  1  0  0  0  0
 37 84  2  0  0  0  0
 38 41  1  0  0  0  0
 39 51  1  0  0  0  0
 40 71  1  0  0  0  0
 41 43  1  0  0  0  0
 42 44  1  0  0  0  0
 42 46  1  0  0  0  0
 43 50  1  0  0  0  0
 44 52  1  0  0  0  0
 45 47  1  0  0  0  0
 45 53  1  0  0  0  0
 46 72  1  0  0  0  0
 47 73  1  0  0  0  0
 48 52  1  0  0  0  0
 48 72  1  0  0  0  0
 49 53  1  0  0  0  0
 49 73  1  0  0  0  0
 50 77  1  0  0  0  0
 51 71  1  0  0  0  0
 52 70  1  0  0  0  0
 53 76  1  0  0  0  0
 57 64  1  0  0  0  0
 58 66  1  0  0  0  0
 59 67  1  0  0  0  0
 60 67  1  0  0  0  0
 61 67  1  0  0  0  0
 62 79  1  0  0  0  0
 63 64  1  0  0  0  0
 63 86  1  0  0  0  0
 65 67  1  0  0  0  0
 65 78  1  0  0  0  0
 66 79  1  0  0  0  0
 68 70  1  0  0  0  0
M  CHG  1  79   1
M  ISO  4  37 100  63 101  73 100  86 101
M  END
> <Batch ID>
0165

> <Smiles>
CNC(C)C(=O)NC(C(=O)N1Cc2cc([101O:1][101CH2:1]C(C)c3nc(NC4CC[100N:0]([100C:0](=O)N5CCCC(n6nc(-c7ccc(Oc8ccc(F)cc8F)cc7)c(C(N)=O)c6N)C5)C4)c(C)c(C)c3C)ccc2CC1C(=O)NC1CCCc2ccccc21)C(C)(C)C

> <Shape>
0.226

> <Color>
0.073

> <Negative vol penalty>
0.000

$$$$

  -OEChem-04052322223D

 88 98  0     1  0  0  0  0  0999 V2000
  -27.8360  -37.8707   20.5287 C   0  0  0  0  0  0  0  0  0  0  0  0
  -28.3144  -36.5954   20.2454 C   0  0  0  0  0  0  0  0  0  0  0  0
  -29.3412   -9.9663   16.2565 C   0  0  0  0  0  0  0  0  0  0  0  0
  -30.3416   -8.8302   18.1394 C   0  0  0  0  0  0  0  0  0  0  0  0
  -26.8981  -38.0525   21.5442 C   0  0  0  0  0  0  0  0  0  0  0  0
  -27.8559  -35.5012   20.9782 C   0  0  0  0  0  0  0  0  0  0  0  0
  -26.9571  -29.8050   18.9163 C   0  0  0  0  0  0  0  0  0  0  0  0
  -30.1177   -9.2040   15.3839 C   0  0  0  0  0  0  0  0  0  0  0  0
  -31.1181   -8.0678   17.2668 C   0  0  0  0  0  0  0  0  0  0  0  0
  -27.7341  -28.6494   18.9842 C   0  0  0  0  0  0  0  0  0  0  0  0
  -33.3030   -9.1858   14.2535 C   0  0  0  0  0  0  0  0  0  0  0  0
  -33.9316   -9.8484   13.1993 C   0  0  0  0  0  0  0  0  0  0  0  0
  -26.5023  -27.9431   20.9344 C   0  0  0  0  0  0  0  0  0  0  0  0
  -32.7293   -8.4730   11.6181 C   0  0  0  0  0  0  0  0  0  0  0  0
  -27.9801  -24.6413   17.5012 C   0  0  0  0  0  0  0  0  0  0  0  0
  -29.4531   -9.7795   17.6343 C   0  0  0  0  0  0  0  0  0  0  0  0
  -27.3704  -10.2546   19.0286 C   0  0  0  0  0  0  0  0  0  0  0  0
  -26.4207  -36.9587   22.2834 C   0  0  0  0  0  0  0  0  0  0  0  0
  -25.9525  -30.0440   19.8650 C   0  0  0  0  0  0  0  0  0  0  0  0
  -26.9117  -35.6688   22.0055 C   0  0  0  0  0  0  0  0  0  0  0  0
  -25.7123  -29.1013   20.8748 C   0  0  0  0  0  0  0  0  0  0  0  0
  -28.1767  -24.5382   18.8585 C   0  0  0  0  0  0  0  0  0  0  0  0
  -29.0694  -23.5810   19.3404 C   0  0  0  0  0  0  0  0  0  0  0  0
  -29.7516  -22.7519   18.4737 C   0  0  0  0  0  0  0  0  0  0  0  0
  -31.0061   -8.2547   15.8891 C   0  0  0  0  0  0  0  0  0  0  0  0
  -27.5087  -27.7196   19.9951 C   0  0  0  0  0  0  0  0  0  0  0  0
  -32.3876   -8.1668   13.9901 C   0  0  0  0  0  0  0  0  0  0  0  0
  -33.6448   -9.4920   11.8816 C   0  0  0  0  0  0  0  0  0  0  0  0
  -32.1008   -7.8104   12.6724 C   0  0  0  0  0  0  0  0  0  0  0  0
  -28.6517  -10.5671   18.5362 C   0  0  0  0  0  0  0  0  0  0  0  0
  -29.4828  -22.9228   17.1233 C   0  0  0  0  0  0  0  0  0  0  0  0
  -27.0469  -11.3140   19.8408 C   0  0  0  0  0  0  0  0  0  0  0  0
  -26.5464   -9.1091   18.7747 C   0  0  0  0  0  0  0  0  0  0  0  0
  -25.4208  -32.2883   22.0523 C   0  0  0  0  0  0  0  0  0  0  0  0
  -22.6072  -30.7158   22.4175 C   0  0  0  0  0  0  0  0  0  0  0  0
  -20.8476  -27.8105   22.0859 C   0  0  0  0  0  0  0  0  0  0  0  0
  -28.5506  -16.8941   19.9411 C   0  0  0  0  0  0  0  0  0  0  0  0
  -25.4422  -37.2109   23.4031 C   0  0  0  0  0  0  0  0  0  0  0  0
  -25.1053  -31.2826   19.7621 C   0  0  0  0  0  0  0  0  0  0  0  0
  -29.1777  -23.6594   20.8299 C   0  0  0  0  0  0  0  0  0  0  0  0
  -24.6324  -29.3011   21.9056 C   0  0  0  0  0  0  0  0  0  0  0  0
  -24.7274  -35.9503   23.8828 C   0  0  0  0  0  0  0  0  0  0  0  0
  -27.9030  -24.4493   21.1825 C   0  0  0  0  0  0  0  0  0  0  0  0
  -29.0352  -14.6626   22.6111 C   0  0  0  0  0  0  0  0  0  0  0  0
  -25.7249  -34.8134   24.0805 C   0  0  0  0  0  0  0  0  0  0  0  0
  -28.8666  -13.3135   21.9131 C   0  0  0  0  0  0  0  0  0  0  0  0
  -29.8195  -15.6577   21.7539 C   0  0  0  0  0  0  0  0  0  0  0  0
  -30.3072  -18.4429   20.9108 C   0  0  0  0  0  0  0  0  0  0  0  0
  -28.0841  -19.3028   20.2730 C   0  0  0  0  0  0  0  0  0  0  0  0
  -29.1004  -14.4917   19.6942 C   0  0  0  0  0  0  0  0  0  0  0  0
  -30.9744  -19.4515   19.9812 C   0  0  0  0  0  0  0  0  0  0  0  0
  -28.7137  -20.3039   19.3181 C   0  0  0  0  0  0  0  0  0  0  0  0
  -26.4200  -34.4537   22.7617 C   0  0  1  0  0  0  0  0  0  0  0  0
  -27.5899  -25.3430   19.9690 C   0  0  1  0  0  0  0  0  0  1  0  0
  -24.4513  -31.6708   21.0846 C   0  0  1  0  0  0  0  0  0  0  0  0
  -28.2656  -13.4903   20.5073 C   0  0  1  0  0  0  0  0  0  0  0  0
  -30.1718  -22.0645   16.1117 C   0  0  0  0  0  0  0  0  0  0  0  0
  -31.8777  -22.3441   19.7800 C   0  0  0  0  0  0  0  0  0  0  0  0
  -18.5790  -26.8227   22.5044 C   0  0  0  0  0  0  0  0  0  0  0  0
  -23.2372  -30.5377   25.3976 C   0  0  0  0  0  0  0  0  0  0  0  0
  -21.4767  -28.7684   25.5930 C   0  0  0  0  0  0  0  0  0  0  0  0
  -20.8526  -31.0714   24.8656 C   0  0  0  0  0  0  0  0  0  0  0  0
  -20.4412  -27.2325   19.2119 C   0  0  0  0  0  0  0  0  0  0  0  0
  -30.7378  -21.7230   18.9767 C   0  0  1  0  0  0  0  0  0  0  0  0
  -22.1254  -29.5720   23.2769 C   0  0  1  0  0  0  0  0  0  0  0  0
  -19.4777  -27.5241   21.4978 C   0  0  2  0  0  0  0  0  0  0  0  0
  -21.9447  -29.9843   24.7652 C   0  0  0  0  0  0  0  0  0  0  0  0
  -28.6173  -23.8417   16.6152 N   0  0  0  0  0  0  0  0  0  0  0  0
  -29.1107  -11.7338   18.9969 N   0  0  0  0  0  0  0  0  0  0  0  0
  -28.1124  -12.1637   19.7872 N   0  0  0  0  0  0  0  0  0  0  0  0
  -23.8350  -30.5308   21.7664 N   0  0  0  0  0  0  0  0  0  0  0  0
  -29.2338  -15.7622   20.4102 N   0  0  0  0  0  0  0  0  0  0  0  0
  -28.9440  -18.1363   20.4607 N   0  0  0  0  0  0  0  0  0  0  0  0
  -25.9578  -11.5923   20.5883 N   0  0  0  0  0  0  0  0  0  0  0  0
  -27.0319   -8.1141   17.9154 N   0  0  0  0  0  0  0  0  0  0  0  0
  -25.5431  -33.6591   21.9286 N   0  0  0  0  0  0  0  0  0  0  0  0
  -20.9106  -29.0696   22.6443 N   0  0  0  0  0  0  0  0  0  0  0  0
  -30.0901  -20.6654   19.8260 N   0  3  0  0  0  0  0  0  0  0  0  0
  -19.6023  -26.6551   20.2936 N   0  3  0  0  0  0  0  0  0  0  0  0
  -25.4062   -8.9798   19.2815 O   0  0  0  0  0  0  0  0  0  0  0  0
  -26.0128  -31.5741   22.8530 O   0  0  0  0  0  0  0  0  0  0  0  0
  -21.9160  -31.7330   22.3215 O   0  0  0  0  0  0  0  0  0  0  0  0
  -21.7685  -26.9971   22.0563 O   0  0  0  0  0  0  0  0  0  0  0  0
  -27.6422  -16.8004   19.1059 O   0  0  0  0  0  0  0  0  0  0  0  0
  -31.7638   -7.5104   15.0379 O   0  0  0  0  0  0  0  0  0  0  0  0
  -28.2725  -26.5815   20.0647 O   0  0  0  0  0  0  0  0  0  1  0  0
  -34.2473  -10.1294   10.8692 F   0  0  0  0  0  0  0  0  0  0  0  0
  -31.2214   -6.8330   12.4131 F   0  0  0  0  0  0  0  0  0  0  0  0
  1  2  1  0  0  0  0
  1  5  2  0  0  0  0
  2  6  2  0  0  0  0
  3  8  2  0  0  0  0
  3 16  1  0  0  0  0
  4  9  1  0  0  0  0
  4 16  2  0  0  0  0
  5 18  1  0  0  0  0
  6 20  1  0  0  0  0
  7 10  2  0  0  0  0
  7 19  1  0  0  0  0
  8 25  1  0  0  0  0
  9 25  2  0  0  0  0
 10 26  1  0  0  0  0
 11 12  2  0  0  0  0
 11 27  1  0  0  0  0
 12 28  1  0  0  0  0
 13 21  1  0  0  0  0
 13 26  2  0  0  0  0
 14 28  2  0  0  0  0
 14 29  1  0  0  0  0
 15 22  2  0  0  0  0
 15 68  1  0  0  0  0
 16 30  1  0  0  0  0
 17 30  1  0  0  0  0
 17 32  2  0  0  0  0
 17 33  1  0  0  0  0
 18 20  2  0  0  0  0
 18 38  1  0  0  0  0
 19 21  2  0  0  0  0
 19 39  1  0  0  0  0
 20 53  1  0  0  0  0
 21 41  1  0  0  0  0
 22 23  1  0  0  0  0
 22 54  1  0  0  0  0
 23 24  2  0  0  0  0
 23 40  1  0  0  0  0
 24 31  1  0  0  0  0
 24 64  1  0  0  0  0
 25 85  1  0  0  0  0
 26 86  1  0  0  0  0
 27 29  2  0  0  0  0
 27 85  1  0  0  0  0
 28 87  1  0  0  0  0
 29 88  1  0  0  0  0
 30 69  2  0  0  0  0
 31 57  1  0  0  0  0
 31 68  2  0  0  0  0
 32 70  1  0  0  0  0
 32 74  1  0  0  0  0
 33 75  1  0  0  0  0
 33 80  2  0  0  0  0
 34 55  1  0  0  0  0
 34 76  1  0  0  0  0
 34 81  2  0  0  0  0
 35 65  1  0  0  0  0
 35 71  1  0  0  0  0
 35 82  2  0  0  0  0
 36 66  1  0  0  0  0
 36 77  1  0  0  0  0
 36 83  2  0  0  0  0
 37 72  1  0  0  0  0
 37 73  1  0  0  0  0
 37 84  2  0  0  0  0
 38 42  1  0  0  0  0
 39 55  1  0  0  0  0
 40 43  1  0  0  0  0
 41 71  1  0  0  0  0
 42 45  1  0  0  0  0
 43 54  1  0  0  0  0
 44 46  1  0  0  0  0
 44 47  1  0  0  0  0
 45 53  1  0  0  0  0
 46 56  1  0  0  0  0
 47 72  1  0  0  0  0
 48 51  1  0  0  0  0
 48 73  1  0  0  0  0
 49 52  1  0  0  0  0
 49 73  1  0  0  0  0
 50 56  1  0  0  0  0
 50 72  1  0  0  0  0
 51 78  1  0  0  0  0
 52 78  1  0  0  0  0
 53 76  1  0  0  0  0
 54 86  1  0  0  0  0
 55 71  1  0  0  0  0
 56 70  1  0  0  0  0
 58 64  1  0  0  0  0
 59 66  1  0  0  0  0
 60 67  1  0  0  0  0
 61 67  1  0  0  0  0
 62 67  1  0  0  0  0
 63 79  1  0  0  0  0
 64 78  1  0  0  0  0
 65 67  1  0  0  0  0
 65 77  1  0  0  0  0
 66 79  1  0  0  0  0
 69 70  1  0  0  0  0
M  CHG  2  78   1  79   1
M  ISO  4  37 100  54 101  73 100  86 101
M  END
> <Batch ID>
0165

> <Smiles>
CNC(C)C(=O)NC(C(=O)N1Cc2cc([101O:1][101CH:1]3CCc4c3cnc(C)c4C(C)N3CC[100N:0]([100C:0](=O)N4CCCC(n5nc(-c6ccc(Oc7ccc(F)cc7F)cc6)c(C(N)=O)c5N)C4)CC3)ccc2CC1C(=O)NC1CCCc2ccccc21)C(C)(C)C

> <Shape>
0.273

> <Color>
0.074

> <Negative vol penalty>
0.000

$$$$

  -OEChem-04052322223D

 87 96  0     1  0  0  0  0  0999 V2000
  -18.7513  -19.9182   32.6493 C   0  0  0  0  0  0  0  0  0  0  0  0
  -19.5391  -19.8356   31.5056 C   0  0  0  0  0  0  0  0  0  0  0  0
  -23.0844   -9.8264   20.1486 C   0  0  0  0  0  0  0  0  0  0  0  0
  -23.7351  -10.1146   22.4574 C   0  0  0  0  0  0  0  0  0  0  0  0
  -17.4776  -20.4808   32.5778 C   0  0  0  0  0  0  0  0  0  0  0  0
  -19.0532  -20.3146   30.2895 C   0  0  0  0  0  0  0  0  0  0  0  0
  -22.4844  -23.0595   27.7721 C   0  0  0  0  0  0  0  0  0  0  0  0
  -22.3187   -8.7157   20.5030 C   0  0  0  0  0  0  0  0  0  0  0  0
  -22.9694   -9.0039   22.8118 C   0  0  0  0  0  0  0  0  0  0  0  0
  -23.4817  -22.3629   27.0910 C   0  0  0  0  0  0  0  0  0  0  0  0
  -19.7090   -8.2982   23.3525 C   0  0  0  0  0  0  0  0  0  0  0  0
  -18.8972   -8.4062   24.4816 C   0  0  0  0  0  0  0  0  0  0  0  0
  -22.2714  -22.6615   25.0257 C   0  0  0  0  0  0  0  0  0  0  0  0
  -20.0841   -6.5705   25.5105 C   0  0  0  0  0  0  0  0  0  0  0  0
  -23.7927  -10.5258   21.1257 C   0  0  0  0  0  0  0  0  0  0  0  0
  -24.1636  -13.0154   20.7113 C   0  0  0  0  0  0  0  0  0  0  0  0
  -16.9796  -20.9757   31.3622 C   0  0  0  0  0  0  0  0  0  0  0  0
  -21.3658  -23.5537   27.0858 C   0  0  0  0  0  0  0  0  0  0  0  0
  -17.7711  -20.8831   30.2014 C   0  0  0  0  0  0  0  0  0  0  0  0
  -21.2625  -23.3663   25.7000 C   0  0  0  0  0  0  0  0  0  0  0  0
  -26.1466  -19.0432   24.4030 C   0  0  0  0  0  0  0  0  0  0  0  0
  -26.4175  -20.3101   24.9077 C   0  0  0  0  0  0  0  0  0  0  0  0
  -27.0640  -18.4260   23.5600 C   0  0  0  0  0  0  0  0  0  0  0  0
  -22.2611   -8.3044   21.8346 C   0  0  0  0  0  0  0  0  0  0  0  0
  -23.3739  -22.1613   25.7181 C   0  0  0  0  0  0  0  0  0  0  0  0
  -20.7083   -7.3263   23.3023 C   0  0  0  0  0  0  0  0  0  0  0  0
  -19.0847   -7.5424   25.5606 C   0  0  0  0  0  0  0  0  0  0  0  0
  -20.8958   -6.4625   24.3813 C   0  0  0  0  0  0  0  0  0  0  0  0
  -24.5843  -11.6729   20.7601 C   0  0  0  0  0  0  0  0  0  0  0  0
  -27.6105  -20.9125   24.5420 C   0  0  0  0  0  0  0  0  0  0  0  0
  -28.2280  -19.1128   23.2544 C   0  0  0  0  0  0  0  0  0  0  0  0
  -25.2787  -13.7103   20.3112 C   0  0  0  0  0  0  0  0  0  0  0  0
  -22.8797  -13.5836   21.0018 C   0  0  0  0  0  0  0  0  0  0  0  0
  -18.2338  -23.0310   27.2307 C   0  0  0  0  0  0  0  0  0  0  0  0
  -18.1228  -25.4625   25.0864 C   0  0  0  0  0  0  0  0  0  0  0  0
  -19.7230  -27.2798   22.6815 C   0  0  0  0  0  0  0  0  0  0  0  0
  -30.7568  -14.7255   20.6355 C   0  0  0  0  0  0  0  0  0  0  0  0
  -15.5783  -21.5321   31.3245 C   0  0  0  0  0  0  0  0  0  0  0  0
  -20.3119  -24.3263   27.8306 C   0  0  0  0  0  0  0  0  0  0  0  0
  -20.0917  -23.8943   24.9135 C   0  0  0  0  0  0  0  0  0  0  0  0
  -15.2840  -22.3571   30.0742 C   0  0  0  0  0  0  0  0  0  0  0  0
  -29.7108  -12.0678   18.5096 C   0  0  0  0  0  0  0  0  0  0  0  0
  -15.7709  -21.6274   28.8263 C   0  0  0  0  0  0  0  0  0  0  0  0
  -28.2518  -11.8350   18.9060 C   0  0  0  0  0  0  0  0  0  0  0  0
  -30.5722  -12.4324   19.7167 C   0  0  0  0  0  0  0  0  0  0  0  0
  -28.6141  -13.3363   20.9094 C   0  0  0  0  0  0  0  0  0  0  0  0
  -30.2305  -17.6479   22.8802 C   0  0  0  0  0  0  0  0  0  0  0  0
  -29.1337  -18.6498   20.9605 C   0  0  0  0  0  0  0  0  0  0  0  0
  -17.2889  -21.4142   28.8690 C   0  0  1  0  0  0  0  0  0  0  0  0
  -18.9639  -24.3393   27.1163 C   0  0  1  0  0  0  0  0  0  0  0  0
  -27.6950  -13.0206   19.7169 C   0  0  2  0  0  0  0  0  0  0  0  0
  -30.7845  -17.0124   21.5990 C   0  0  2  0  0  0  0  0  0  0  0  0
  -30.4653  -18.0415   20.5173 C   0  0  2  0  0  0  0  0  0  0  0  0
  -24.8737  -18.3477   24.7672 C   0  0  0  0  0  0  0  0  0  0  0  0
  -26.7926  -17.0660   23.0063 C   0  0  0  0  0  0  0  0  0  0  0  0
  -27.9565  -22.2731   25.0522 C   0  0  0  0  0  0  0  0  0  0  0  0
  -19.3623  -29.1789   21.0812 C   0  0  0  0  0  0  0  0  0  0  0  0
  -16.4993  -23.6227   23.2728 C   0  0  0  0  0  0  0  0  0  0  0  0
  -16.9838  -25.1816   21.3745 C   0  0  0  0  0  0  0  0  0  0  0  0
  -15.6923  -25.9885   23.3503 C   0  0  0  0  0  0  0  0  0  0  0  0
  -21.8637  -28.8945   23.9340 C   0  0  0  0  0  0  0  0  0  0  0  0
  -25.4478  -21.0018   25.8202 C   0  0  0  0  0  0  0  0  0  1  0  0
  -18.1739  -25.5635   23.5811 C   0  0  1  0  0  0  0  0  0  0  0  0
  -19.8464  -28.7774   22.4659 C   0  0  2  0  0  0  0  0  0  0  0  0
  -16.8586  -25.0773   22.9095 C   0  0  0  0  0  0  0  0  0  0  0  0
  -25.8665  -11.5215   20.4182 N   0  0  0  0  0  0  0  0  0  0  0  0
  -28.5260  -20.3444   23.7254 N   0  0  0  0  0  0  0  0  0  0  0  0
  -26.2612  -12.7780   20.1505 N   0  0  0  0  0  0  0  0  0  0  0  0
  -29.1415  -18.5079   22.4165 N   0  0  3  0  0  0  0  0  0  0  0  0
  -19.0841  -24.6377   25.6878 N   0  0  0  0  0  0  0  0  0  0  0  0
  -29.9902  -13.5647   20.4414 N   0  0  0  0  0  0  0  0  0  0  0  0
  -25.5049  -15.0217   20.0844 N   0  0  0  0  0  0  0  0  0  0  0  0
  -21.8444  -12.7268   21.3997 N   0  0  0  0  0  0  0  0  0  0  0  0
  -17.9810  -22.6396   28.5316 N   0  0  0  0  0  0  0  0  0  0  0  0
  -18.5245  -26.9465   23.2764 N   0  0  0  0  0  0  0  0  0  0  0  0
  -30.1274  -15.7536   21.3266 N   0  0  0  0  0  0  0  0  0  0  0  0
  -31.5081  -19.1078   20.5304 N   0  3  0  0  0  0  0  0  0  0  0  0
  -21.2663  -29.2062   22.6100 N   0  3  0  0  0  0  0  0  0  0  0  0
  -22.6526  -14.8127   20.8953 O   0  0  0  0  0  0  0  0  0  0  0  0
  -17.9216  -22.4224   26.2139 O   0  0  0  0  0  0  0  0  0  0  0  0
  -17.2663  -26.0977   25.7065 O   0  0  0  0  0  0  0  0  0  0  0  0
  -20.6002  -26.4848   22.3515 O   0  0  0  0  0  0  0  0  0  0  0  0
  -31.9146  -14.8395   20.2188 O   0  0  0  0  0  0  0  0  0  0  0  0
  -21.5139   -7.2208   22.1809 O   0  0  0  0  0  0  0  0  0  0  0  0
  -24.3455  -21.4811   25.0510 O   0  0  0  0  0  0  0  0  0  1  0  0
  -18.3061   -7.6473   26.6455 F   0  0  0  0  0  0  0  0  0  0  0  0
  -21.8550   -5.5276   24.3394 F   0  0  0  0  0  0  0  0  0  0  0  0
  1  2  1  0  0  0  0
  1  5  2  0  0  0  0
  2  6  2  0  0  0  0
  3  8  2  0  0  0  0
  3 15  1  0  0  0  0
  4  9  1  0  0  0  0
  4 15  2  0  0  0  0
  5 17  1  0  0  0  0
  6 19  1  0  0  0  0
  7 10  2  0  0  0  0
  7 18  1  0  0  0  0
  8 24  1  0  0  0  0
  9 24  2  0  0  0  0
 10 25  1  0  0  0  0
 11 12  2  0  0  0  0
 11 26  1  0  0  0  0
 12 27  1  0  0  0  0
 13 20  1  0  0  0  0
 13 25  2  0  0  0  0
 14 27  2  0  0  0  0
 14 28  1  0  0  0  0
 15 29  1  0  0  0  0
 16 29  1  0  0  0  0
 16 32  2  0  0  0  0
 16 33  1  0  0  0  0
 17 19  2  0  0  0  0
 17 38  1  0  0  0  0
 18 20  2  0  0  0  0
 18 39  1  0  0  0  0
 19 49  1  0  0  0  0
 20 40  1  0  0  0  0
 21 22  2  0  0  0  0
 21 23  1  0  0  0  0
 21 54  1  0  0  0  0
 22 30  1  0  0  0  0
 22 62  1  0  0  0  0
 23 31  2  0  0  0  0
 23 55  1  0  0  0  0
 24 84  1  0  0  0  0
 25 85  1  0  0  0  0
 26 28  2  0  0  0  0
 26 84  1  0  0  0  0
 27 86  1  0  0  0  0
 28 87  1  0  0  0  0
 29 66  2  0  0  0  0
 30 56  1  0  0  0  0
 30 67  2  0  0  0  0
 31 67  1  0  0  0  0
 31 69  1  0  0  0  0
 32 68  1  0  0  0  0
 32 72  1  0  0  0  0
 33 73  1  0  0  0  0
 33 79  2  0  0  0  0
 34 50  1  0  0  0  0
 34 74  1  0  0  0  0
 34 80  2  0  0  0  0
 35 63  1  0  0  0  0
 35 70  1  0  0  0  0
 35 81  2  0  0  0  0
 36 64  1  0  0  0  0
 36 75  1  0  0  0  0
 36 82  2  0  0  0  0
 37 71  1  0  0  0  0
 37 76  1  0  0  0  0
 37 83  2  0  0  0  0
 38 41  1  0  0  0  0
 39 50  1  0  0  0  0
 40 70  1  0  0  0  0
 41 43  1  0  0  0  0
 42 44  1  0  0  0  0
 42 45  1  0  0  0  0
 43 49  1  0  0  0  0
 44 51  1  0  0  0  0
 45 71  1  0  0  0  0
 46 51  1  0  0  0  0
 46 71  1  0  0  0  0
 47 52  1  0  0  0  0
 47 69  1  0  0  0  0
 48 53  1  0  0  0  0
 48 69  1  0  0  0  0
 49 74  1  0  0  0  0
 50 70  1  0  0  0  0
 51 68  1  0  0  0  0
 52 53  1  0  0  0  0
 52 76  1  0  0  0  0
 53 77  1  0  0  0  0
 57 64  1  0  0  0  0
 58 65  1  0  0  0  0
 59 65  1  0  0  0  0
 60 65  1  0  0  0  0
 61 78  1  0  0  0  0
 62 85  1  0  0  0  0
 63 65  1  0  0  0  0
 63 75  1  0  0  0  0
 64 78  1  0  0  0  0
 66 68  1  0  0  0  0
M  CHG  2  77   1  78   1
M  ISO  4  37 100  62 101  76 100  85 101
M  END
> <Batch ID>
0165

> <Smiles>
CNC(C)C(=O)NC(C(=O)N1Cc2cc([101O:1][101CH2:1]c3c(C)nc(N4CC(N)C([100NH:0][100C:0](=O)N5CCCC(n6nc(-c7ccc(Oc8ccc(F)cc8F)cc7)c(C(N)=O)c6N)C5)C4)c(C)c3C)ccc2CC1C(=O)NC1CCCc2ccccc21)C(C)(C)C

> <Shape>
0.220

> <Color>
0.192

> <Negative vol penalty>
0.000

$$$$

  -OEChem-04052322223D

 87 96  0     1  0  0  0  0  0999 V2000
  -28.8166  -36.3640   25.0290 C   0  0  0  0  0  0  0  0  0  0  0  0
  -29.1872  -35.6117   23.9191 C   0  0  0  0  0  0  0  0  0  0  0  0
  -22.8657  -10.4086   20.4772 C   0  0  0  0  0  0  0  0  0  0  0  0
  -24.5834   -9.3267   21.7872 C   0  0  0  0  0  0  0  0  0  0  0  0
  -28.0429  -35.7861   26.0347 C   0  0  0  0  0  0  0  0  0  0  0  0
  -28.7852  -34.2805   23.8147 C   0  0  0  0  0  0  0  0  0  0  0  0
  -26.9255  -29.3766   18.9352 C   0  0  0  0  0  0  0  0  0  0  0  0
  -21.8882   -9.6905   21.1658 C   0  0  0  0  0  0  0  0  0  0  0  0
  -23.6059   -8.6085   22.4759 C   0  0  0  0  0  0  0  0  0  0  0  0
  -27.2407  -28.0774   18.5396 C   0  0  0  0  0  0  0  0  0  0  0  0
  -21.6721   -5.8875   21.9395 C   0  0  0  0  0  0  0  0  0  0  0  0
  -21.8888   -4.5240   22.1377 C   0  0  0  0  0  0  0  0  0  0  0  0
  -25.8394  -27.2079   20.3001 C   0  0  0  0  0  0  0  0  0  0  0  0
  -29.0464  -21.9780   17.9732 C   0  0  0  0  0  0  0  0  0  0  0  0
  -21.8018   -4.8578   24.5290 C   0  0  0  0  0  0  0  0  0  0  0  0
  -24.2134  -10.2267   20.7878 C   0  0  0  0  0  0  0  0  0  0  0  0
  -25.4774  -10.9457   18.6919 C   0  0  0  0  0  0  0  0  0  0  0  0
  -27.6232  -34.4500   25.9380 C   0  0  0  0  0  0  0  0  0  0  0  0
  -26.0722  -29.6016   20.0249 C   0  0  0  0  0  0  0  0  0  0  0  0
  -28.0063  -33.6838   24.8207 C   0  0  0  0  0  0  0  0  0  0  0  0
  -25.5130  -28.5109   20.7060 C   0  0  0  0  0  0  0  0  0  0  0  0
  -28.8839  -23.3287   18.2604 C   0  0  0  0  0  0  0  0  0  0  0  0
  -28.0785  -24.1153   17.4444 C   0  0  0  0  0  0  0  0  0  0  0  0
  -22.2582   -8.7904   22.1652 C   0  0  0  0  0  0  0  0  0  0  0  0
  -26.6999  -26.9928   19.2239 C   0  0  0  0  0  0  0  0  0  0  0  0
  -21.5204   -6.7363   23.0360 C   0  0  0  0  0  0  0  0  0  0  0  0
  -21.9536   -4.0091   23.4324 C   0  0  0  0  0  0  0  0  0  0  0  0
  -21.5852   -6.2214   24.3307 C   0  0  0  0  0  0  0  0  0  0  0  0
  -25.2237  -10.9678   20.0764 C   0  0  0  0  0  0  0  0  0  0  0  0
  -27.4624  -23.5080   16.3620 C   0  0  0  0  0  0  0  0  0  0  0  0
  -28.3868  -21.4664   16.8673 C   0  0  0  0  0  0  0  0  0  0  0  0
  -26.5275  -11.8144   18.5213 C   0  0  0  0  0  0  0  0  0  0  0  0
  -24.8223  -10.2061   17.6528 C   0  0  0  0  0  0  0  0  0  0  0  0
  -26.3749  -31.0125   22.8571 C   0  0  0  0  0  0  0  0  0  0  0  0
  -23.1862  -30.4470   23.0439 C   0  0  0  0  0  0  0  0  0  0  0  0
  -20.5081  -28.5928   22.0259 C   0  0  0  0  0  0  0  0  0  0  0  0
  -29.0438  -16.6784   19.5961 C   0  0  0  0  0  0  0  0  0  0  0  0
  -26.8277  -33.8550   27.0729 C   0  0  0  0  0  0  0  0  0  0  0  0
  -25.7209  -31.0091   20.4223 C   0  0  0  0  0  0  0  0  0  0  0  0
  -24.5755  -28.6987   21.8697 C   0  0  0  0  0  0  0  0  0  0  0  0
  -26.1281  -32.5485   26.7070 C   0  0  0  0  0  0  0  0  0  0  0  0
  -29.5550  -14.0266   21.9163 C   0  0  0  0  0  0  0  0  0  0  0  0
  -27.0873  -31.6167   25.9732 C   0  0  0  0  0  0  0  0  0  0  0  0
  -28.4911  -12.9961   21.5343 C   0  0  0  0  0  0  0  0  0  0  0  0
  -29.2436  -18.3832   14.9606 C   0  0  0  0  0  0  0  0  0  0  0  0
  -29.0421  -15.4554   21.7503 C   0  0  0  0  0  0  0  0  0  0  0  0
  -28.4818  -19.6889   15.1820 C   0  0  0  0  0  0  0  0  0  0  0  0
  -27.4251  -14.7335   20.0363 C   0  0  0  0  0  0  0  0  0  0  0  0
  -28.1707  -19.1095   17.5976 C   0  0  0  0  0  0  0  0  0  0  0  0
  -27.5690  -32.2440   24.6594 C   0  0  1  0  0  0  0  0  0  0  0  0
  -25.2486  -31.1214   21.8686 C   0  0  1  0  0  0  0  0  0  0  0  0
  -27.9143  -13.2784   20.1339 C   0  0  2  0  0  0  0  0  0  0  0  0
  -28.9349  -17.7964   17.3831 C   0  0  2  0  0  0  0  0  0  0  0  0
  -28.7842  -17.3094   15.9411 C   0  0  2  0  0  0  0  0  0  0  0  0
  -29.5820  -23.9096   19.4454 C   0  0  0  0  0  0  0  0  0  0  0  0
  -26.5861  -24.3028   15.4501 C   0  0  0  0  0  0  0  0  0  0  0  0
  -18.0368  -28.3411   22.3819 C   0  0  0  0  0  0  0  0  0  0  0  0
  -23.7136  -29.0704   25.7154 C   0  0  0  0  0  0  0  0  0  0  0  0
  -21.4390  -28.0371   25.5527 C   0  0  0  0  0  0  0  0  0  0  0  0
  -21.6744  -30.5176   25.6722 C   0  0  0  0  0  0  0  0  0  0  0  0
  -19.9208  -29.1936   19.1881 C   0  0  0  0  0  0  0  0  0  0  0  0
  -27.8884  -25.5763   17.7282 C   0  0  0  0  0  0  0  0  0  1  0  0
  -22.3297  -29.3112   23.5491 C   0  0  1  0  0  0  0  0  0  0  0  0
  -19.1256  -28.9982   21.5478 C   0  0  2  0  0  0  0  0  0  0  0  0
  -22.3083  -29.2302   25.1017 C   0  0  0  0  0  0  0  0  0  0  0  0
  -26.0465  -11.7856   20.7384 N   0  0  0  0  0  0  0  0  0  0  0  0
  -27.5963  -22.1992   16.0513 N   0  0  0  0  0  0  0  0  0  0  0  0
  -26.8275  -12.2854   19.7656 N   0  0  0  0  0  0  0  0  0  0  0  0
  -28.5601  -20.1045   16.5894 N   0  0  2  0  0  0  0  0  0  0  0  0
  -24.2676  -30.0941   22.2242 N   0  0  0  0  0  0  0  0  0  0  0  0
  -28.5103  -15.6579   20.4005 N   0  0  0  0  0  0  0  0  0  0  0  0
  -27.2143  -12.2136   17.4298 N   0  0  0  0  0  0  0  0  0  0  0  0
  -25.3109   -8.9331   17.3289 N   0  0  0  0  0  0  0  0  0  0  0  0
  -26.5448  -32.1366   23.6426 N   0  0  0  0  0  0  0  0  0  0  0  0
  -21.0152  -29.4899   22.9420 N   0  0  0  0  0  0  0  0  0  0  0  0
  -28.4874  -16.7980   18.3285 N   0  0  0  0  0  0  0  0  0  0  0  0
  -29.6094  -16.0892   15.7310 N   0  3  0  0  0  0  0  0  0  0  0  0
  -18.9322  -28.6001   20.1248 N   0  3  0  0  0  0  0  0  0  0  0  0
  -23.8431  -10.6675   17.0189 O   0  0  0  0  0  0  0  0  0  0  0  0
  -27.0396  -29.9841   22.9048 O   0  0  0  0  0  0  0  0  0  0  0  0
  -22.9020  -31.6053   23.3590 O   0  0  0  0  0  0  0  0  0  0  0  0
  -21.0795  -27.5794   21.6294 O   0  0  0  0  0  0  0  0  0  0  0  0
  -29.9526  -17.4239   19.9772 O   0  0  0  0  0  0  0  0  0  0  0  0
  -21.3046   -8.0897   22.8376 O   0  0  0  0  0  0  0  0  0  0  0  0
  -27.0063  -25.7236   18.8402 O   0  0  0  0  0  0  0  0  0  1  0  0
  -22.1601   -2.6994   23.6226 F   0  0  0  0  0  0  0  0  0  0  0  0
  -21.4390   -7.0316   25.3881 F   0  0  0  0  0  0  0  0  0  0  0  0
  1  2  1  0  0  0  0
  1  5  2  0  0  0  0
  2  6  2  0  0  0  0
  3  8  2  0  0  0  0
  3 16  1  0  0  0  0
  4  9  1  0  0  0  0
  4 16  2  0  0  0  0
  5 18  1  0  0  0  0
  6 20  1  0  0  0  0
  7 10  2  0  0  0  0
  7 19  1  0  0  0  0
  8 24  1  0  0  0  0
  9 24  2  0  0  0  0
 10 25  1  0  0  0  0
 11 12  2  0  0  0  0
 11 26  1  0  0  0  0
 12 27  1  0  0  0  0
 13 21  1  0  0  0  0
 13 25  2  0  0  0  0
 14 22  2  0  0  0  0
 14 31  1  0  0  0  0
 15 27  2  0  0  0  0
 15 28  1  0  0  0  0
 16 29  1  0  0  0  0
 17 29  1  0  0  0  0
 17 32  2  0  0  0  0
 17 33  1  0  0  0  0
 18 20  2  0  0  0  0
 18 38  1  0  0  0  0
 19 21  2  0  0  0  0
 19 39  1  0  0  0  0
 20 50  1  0  0  0  0
 21 40  1  0  0  0  0
 22 23  1  0  0  0  0
 22 55  1  0  0  0  0
 23 30  2  0  0  0  0
 23 62  1  0  0  0  0
 24 84  1  0  0  0  0
 25 85  1  0  0  0  0
 26 28  2  0  0  0  0
 26 84  1  0  0  0  0
 27 86  1  0  0  0  0
 28 87  1  0  0  0  0
 29 66  2  0  0  0  0
 30 56  1  0  0  0  0
 30 67  1  0  0  0  0
 31 67  2  0  0  0  0
 31 69  1  0  0  0  0
 32 68  1  0  0  0  0
 32 72  1  0  0  0  0
 33 73  1  0  0  0  0
 33 79  2  0  0  0  0
 34 51  1  0  0  0  0
 34 74  1  0  0  0  0
 34 80  2  0  0  0  0
 35 63  1  0  0  0  0
 35 70  1  0  0  0  0
 35 81  2  0  0  0  0
 36 64  1  0  0  0  0
 36 75  1  0  0  0  0
 36 82  2  0  0  0  0
 37 71  1  0  0  0  0
 37 76  1  0  0  0  0
 37 83  2  0  0  0  0
 38 41  1  0  0  0  0
 39 51  1  0  0  0  0
 40 70  1  0  0  0  0
 41 43  1  0  0  0  0
 42 44  1  0  0  0  0
 42 46  1  0  0  0  0
 43 50  1  0  0  0  0
 44 52  1  0  0  0  0
 45 47  1  0  0  0  0
 45 54  1  0  0  0  0
 46 71  1  0  0  0  0
 47 69  1  0  0  0  0
 48 52  1  0  0  0  0
 48 71  1  0  0  0  0
 49 53  1  0  0  0  0
 49 69  1  0  0  0  0
 50 74  1  0  0  0  0
 51 70  1  0  0  0  0
 52 68  1  0  0  0  0
 53 54  1  0  0  0  0
 53 76  1  0  0  0  0
 54 77  1  0  0  0  0
 57 64  1  0  0  0  0
 58 65  1  0  0  0  0
 59 65  1  0  0  0  0
 60 65  1  0  0  0  0
 61 78  1  0  0  0  0
 62 85  1  0  0  0  0
 63 65  1  0  0  0  0
 63 75  1  0  0  0  0
 64 78  1  0  0  0  0
 66 68  1  0  0  0  0
M  CHG  2  77   1  78   1
M  ISO  4  37 100  62 101  76 100  85 101
M  END
> <Batch ID>
0165

> <Smiles>
CNC(C)C(=O)NC(C(=O)N1Cc2cc([101O:1][101CH2:1]c3c(C)cc(N4CCC(N)C([100NH:0][100C:0](=O)N5CCCC(n6nc(-c7ccc(Oc8ccc(F)cc8F)cc7)c(C(N)=O)c6N)C5)C4)nc3C)ccc2CC1C(=O)NC1CCCc2ccccc21)C(C)(C)C

> <Shape>
0.315

> <Color>
0.115

> <Negative vol penalty>
0.000

$$$$

  -OEChem-04052322223D

 88 97  0     1  0  0  0  0  0999 V2000
  -24.4622  -30.8930   17.1269 C   0  0  0  0  0  0  0  0  0  0  0  0
  -25.0672  -29.9268   17.9241 C   0  0  0  0  0  0  0  0  0  0  0  0
  -23.7503  -11.3674   23.6668 C   0  0  0  0  0  0  0  0  0  0  0  0
  -24.5394   -9.5909   22.2320 C   0  0  0  0  0  0  0  0  0  0  0  0
  -23.5303  -31.7693   17.6816 C   0  0  0  0  0  0  0  0  0  0  0  0
  -24.7415  -29.8369   19.2770 C   0  0  0  0  0  0  0  0  0  0  0  0
  -23.9846  -25.0606   20.7800 C   0  0  0  0  0  0  0  0  0  0  0  0
  -23.2713  -10.4221   24.5738 C   0  0  0  0  0  0  0  0  0  0  0  0
  -24.0604   -8.6456   23.1390 C   0  0  0  0  0  0  0  0  0  0  0  0
  -25.1157  -24.2780   21.0077 C   0  0  0  0  0  0  0  0  0  0  0  0
  -21.0851   -7.2670   23.9624 C   0  0  0  0  0  0  0  0  0  0  0  0
  -20.3773   -6.1792   23.4514 C   0  0  0  0  0  0  0  0  0  0  0  0
  -24.9004  -24.6675   23.3786 C   0  0  0  0  0  0  0  0  0  0  0  0
  -22.0155   -4.6721   24.3908 C   0  0  0  0  0  0  0  0  0  0  0  0
  -24.3843  -10.9518   22.4959 C   0  0  0  0  0  0  0  0  0  0  0  0
  -24.1315  -12.9077   20.8778 C   0  0  0  0  0  0  0  0  0  0  0  0
  -23.1859  -31.6839   19.0398 C   0  0  0  0  0  0  0  0  0  0  0  0
  -23.3082  -25.6625   21.8508 C   0  0  0  0  0  0  0  0  0  0  0  0
  -23.8052  -30.7137   19.8508 C   0  0  0  0  0  0  0  0  0  0  0  0
  -23.7595  -25.4552   23.1620 C   0  0  0  0  0  0  0  0  0  0  0  0
  -23.4264   -9.0612   24.3099 C   0  0  0  0  0  0  0  0  0  0  0  0
  -25.5755  -24.0836   22.3069 C   0  0  0  0  0  0  0  0  0  0  0  0
  -22.2582   -7.0575   24.6875 C   0  0  0  0  0  0  0  0  0  0  0  0
  -20.8424   -4.8817   23.6657 C   0  0  0  0  0  0  0  0  0  0  0  0
  -22.7233   -5.7600   24.9018 C   0  0  0  0  0  0  0  0  0  0  0  0
  -24.8788  -11.9278   21.5583 C   0  0  0  0  0  0  0  0  0  0  0  0
  -25.0566  -13.5756   20.1133 C   0  0  0  0  0  0  0  0  0  0  0  0
  -22.7266  -13.1891   20.9320 C   0  0  0  0  0  0  0  0  0  0  0  0
  -22.6817  -28.6585   22.7085 C   0  0  0  0  0  0  0  0  0  0  0  0
  -20.9153  -27.2166   25.0157 C   0  0  0  0  0  0  0  0  0  0  0  0
  -21.2701  -24.3802   27.2171 C   0  0  0  0  0  0  0  0  0  0  0  0
  -30.9655  -14.3841   20.6449 C   0  0  0  0  0  0  0  0  0  0  0  0
  -22.2083  -32.6837   19.6051 C   0  0  0  0  0  0  0  0  0  0  0  0
  -22.0740  -26.4820   21.5906 C   0  0  0  0  0  0  0  0  0  0  0  0
  -23.0572  -26.0627   24.3478 C   0  0  0  0  0  0  0  0  0  0  0  0
  -21.6404  -32.2794   20.9631 C   0  0  0  0  0  0  0  0  0  0  0  0
  -29.2430  -12.9306   17.8886 C   0  0  0  0  0  0  0  0  0  0  0  0
  -22.7564  -31.8056   21.8888 C   0  0  0  0  0  0  0  0  0  0  0  0
  -27.8617  -12.5972   18.4552 C   0  0  0  0  0  0  0  0  0  0  0  0
  -31.1568  -17.4333   21.8703 C   0  0  0  0  0  0  0  0  0  0  0  0
  -31.2785  -16.0094   23.9548 C   0  0  0  0  0  0  0  0  0  0  0  0
  -30.3447  -12.7142   18.9237 C   0  0  0  0  0  0  0  0  0  0  0  0
  -28.7558  -13.0812   20.7715 C   0  0  0  0  0  0  0  0  0  0  0  0
  -30.2766  -18.3016   22.7665 C   0  0  0  0  0  0  0  0  0  0  0  0
  -29.8991  -16.4599   24.4332 C   0  0  0  0  0  0  0  0  0  0  0  0
  -27.6305  -19.6790   22.0848 C   0  0  0  0  0  0  0  0  0  0  0  0
  -29.2800  -20.5199   23.7921 C   0  0  0  0  0  0  0  0  0  0  0  0
  -23.4597  -30.5688   21.3170 C   0  0  1  0  0  0  0  0  0  0  0  0
  -21.7643  -27.4685   22.7124 C   0  0  1  0  0  0  0  0  0  0  0  0
  -27.1083  -18.6439   23.0860 C   0  0  2  0  0  0  0  0  0  0  0  0
  -28.7697  -19.4908   24.8053 C   0  0  1  0  0  0  0  0  0  0  0  0
  -27.6062  -13.3373   19.7819 C   0  0  2  0  0  0  0  0  0  0  0  0
  -31.4403  -16.0343   22.4367 C   0  0  0  0  0  0  0  0  0  0  0  0
  -28.1788  -18.2418   24.1205 C   0  0  2  0  0  0  0  0  0  0  0  0
  -26.5087  -17.4473   22.3433 C   0  0  0  0  0  0  0  0  0  0  0  0
  -19.5338  -22.9149   28.2828 C   0  0  0  0  0  0  0  0  0  0  0  0
  -21.1788  -29.1216   27.3846 C   0  0  0  0  0  0  0  0  0  0  0  0
  -20.9462  -27.1484   28.9079 C   0  0  0  0  0  0  0  0  0  0  0  0
  -19.0808  -27.7605   27.3689 C   0  0  0  0  0  0  0  0  0  0  0  0
  -22.4801  -21.9269   26.0874 C   0  0  0  0  0  0  0  0  0  0  0  0
  -29.8676  -19.1595   25.8191 C   0  0  0  0  0  0  0  0  0  0  0  0
  -28.5884  -21.9717   21.8873 C   0  0  0  0  0  0  0  0  0  0  0  0
  -27.3584  -22.7235   21.4183 C   0  0  0  0  0  0  0  0  0  1  0  0
  -21.1835  -26.7273   26.4184 C   0  0  1  0  0  0  0  0  0  0  0  0
  -20.5174  -23.0646   27.1326 C   0  0  2  0  0  0  0  0  0  0  0  0
  -20.6179  -27.6902   27.5002 C   0  0  0  0  0  0  0  0  0  0  0  0
  -26.1785  -11.9662   21.2529 N   0  0  0  0  0  0  0  0  0  0  0  0
  -26.2551  -12.9782   20.3720 N   0  0  0  0  0  0  0  0  0  0  0  0
  -21.8587  -26.8610   24.0414 N   0  0  0  0  0  0  0  0  0  0  0  0
  -30.0426  -13.4440   20.1574 N   0  0  0  0  0  0  0  0  0  0  0  0
  -24.9537  -14.6098   19.2517 N   0  0  0  0  0  0  0  0  0  0  0  0
  -21.9203  -12.4065   21.7696 N   0  0  0  0  0  0  0  0  0  0  0  0
  -22.6558  -29.3850   21.5334 N   0  0  0  0  0  0  0  0  0  0  0  0
  -20.6492  -25.3715   26.4869 N   0  0  0  0  0  0  0  0  0  0  0  0
  -30.5986  -15.0358   21.8159 N   0  0  0  0  0  0  0  0  0  0  0  0
  -29.2663  -17.4360   23.4669 N   0  3  0  0  0  0  0  0  0  0  0  0
  -28.1712  -20.8759   22.8304 N   0  3  1  0  0  0  0  0  0  0  0  0
  -21.4699  -21.9192   27.1767 N   0  3  0  0  0  0  0  0  0  0  0  0
  -22.1993  -14.0967   20.2451 O   0  0  0  0  0  0  0  0  0  0  0  0
  -23.3616  -28.9005   23.6989 O   0  0  0  0  0  0  0  0  0  0  0  0
  -19.9021  -27.8836   24.7913 O   0  0  0  0  0  0  0  0  0  0  0  0
  -22.3032  -24.5159   27.8688 O   0  0  0  0  0  0  0  0  0  0  0  0
  -32.0346  -14.6286   20.0756 O   0  0  0  0  0  0  0  0  0  0  0  0
  -30.2360  -20.3528   26.4828 O   0  0  0  0  0  0  0  0  0  0  0  0
  -22.9594   -8.1385   25.1948 O   0  0  0  0  0  0  0  0  0  0  0  0
  -26.7015  -23.3056   22.5364 O   0  0  0  0  0  0  0  0  0  1  0  0
  -20.1618   -3.8370   23.1763 F   0  0  0  0  0  0  0  0  0  0  0  0
  -23.8490   -5.5524   25.5986 F   0  0  0  0  0  0  0  0  0  0  0  0
  1  2  1  0  0  0  0
  1  5  2  0  0  0  0
  2  6  2  0  0  0  0
  3  8  2  0  0  0  0
  3 15  1  0  0  0  0
  4  9  1  0  0  0  0
  4 15  2  0  0  0  0
  5 17  1  0  0  0  0
  6 19  1  0  0  0  0
  7 10  2  0  0  0  0
  7 18  1  0  0  0  0
  8 21  1  0  0  0  0
  9 21  2  0  0  0  0
 10 22  1  0  0  0  0
 11 12  2  0  0  0  0
 11 23  1  0  0  0  0
 12 24  1  0  0  0  0
 13 20  1  0  0  0  0
 13 22  2  0  0  0  0
 14 24  2  0  0  0  0
 14 25  1  0  0  0  0
 15 26  1  0  0  0  0
 16 26  1  0  0  0  0
 16 27  2  0  0  0  0
 16 28  1  0  0  0  0
 17 19  2  0  0  0  0
 17 33  1  0  0  0  0
 18 20  2  0  0  0  0
 18 34  1  0  0  0  0
 19 48  1  0  0  0  0
 20 35  1  0  0  0  0
 21 85  1  0  0  0  0
 22 86  1  0  0  0  0
 23 25  2  0  0  0  0
 23 85  1  0  0  0  0
 24 87  1  0  0  0  0
 25 88  1  0  0  0  0
 26 67  2  0  0  0  0
 27 68  1  0  0  0  0
 27 71  1  0  0  0  0
 28 72  1  0  0  0  0
 28 79  2  0  0  0  0
 29 49  1  0  0  0  0
 29 73  1  0  0  0  0
 29 80  2  0  0  0  0
 30 64  1  0  0  0  0
 30 69  1  0  0  0  0
 30 81  2  0  0  0  0
 31 65  1  0  0  0  0
 31 74  1  0  0  0  0
 31 82  2  0  0  0  0
 32 70  1  0  0  0  0
 32 75  1  0  0  0  0
 32 83  2  0  0  0  0
 33 36  1  0  0  0  0
 34 49  1  0  0  0  0
 35 69  1  0  0  0  0
 36 38  1  0  0  0  0
 37 39  1  0  0  0  0
 37 42  1  0  0  0  0
 38 48  1  0  0  0  0
 39 52  1  0  0  0  0
 40 44  1  0  0  0  0
 40 53  1  0  0  0  0
 41 45  1  0  0  0  0
 41 53  1  0  0  0  0
 42 70  1  0  0  0  0
 43 52  1  0  0  0  0
 43 70  1  0  0  0  0
 44 76  1  0  0  0  0
 45 76  1  0  0  0  0
 46 50  1  0  0  0  0
 46 77  1  0  0  0  0
 47 51  1  0  0  0  0
 47 77  1  0  0  0  0
 48 73  1  0  0  0  0
 49 69  1  0  0  0  0
 50 54  1  0  0  0  0
 50 55  1  0  0  0  0
 51 54  1  0  0  0  0
 51 61  1  0  0  0  0
 52 68  1  0  0  0  0
 53 75  1  0  0  0  0
 54 76  1  0  0  0  0
 56 65  1  0  0  0  0
 57 66  1  0  0  0  0
 58 66  1  0  0  0  0
 59 66  1  0  0  0  0
 60 78  1  0  0  0  0
 61 84  1  0  0  0  0
 62 63  1  0  0  0  0
 62 77  1  0  0  0  0
 63 86  1  0  0  0  0
 64 66  1  0  0  0  0
 64 74  1  0  0  0  0
 65 78  1  0  0  0  0
 67 68  1  0  0  0  0
M  CHG  3  76   1  77   1  78   1
M  ISO  4  32 100  63 101  75 100  86 101
M  END
> <Batch ID>
0165

> <Smiles>
CNC(C)C(=O)NC(C(=O)N1Cc2cc([101O:1][101CH2:1]CN3CC(C)C(N4CCC([100NH:0][100C:0](=O)N5CCCC(n6nc(-c7ccc(Oc8ccc(F)cc8F)cc7)c(C(N)=O)c6N)C5)CC4)C(CO)C3)ccc2CC1C(=O)NC1CCCc2ccccc21)C(C)(C)C

> <Shape>
0.215

> <Color>
0.118

> <Negative vol penalty>
0.000

$$$$

  -OEChem-04052322223D

 90100  0     1  0  0  0  0  0999 V2000
  -19.2648  -24.3256   22.3138 C   0  0  0  0  0  0  0  0  0  0  0  0
  -20.4831  -24.6159   21.7082 C   0  0  0  0  0  0  0  0  0  0  0  0
  -25.9392  -12.2586   16.9873 C   0  0  0  0  0  0  0  0  0  0  0  0
  -23.8180  -13.2980   16.4800 C   0  0  0  0  0  0  0  0  0  0  0  0
  -18.4222  -25.3618   22.7142 C   0  0  0  0  0  0  0  0  0  0  0  0
  -20.8591  -25.9427   21.5016 C   0  0  0  0  0  0  0  0  0  0  0  0
  -25.6811  -26.8167   22.7781 C   0  0  0  0  0  0  0  0  0  0  0  0
  -25.8953  -11.5758   15.7718 C   0  0  0  0  0  0  0  0  0  0  0  0
  -23.7741  -12.6151   15.2645 C   0  0  0  0  0  0  0  0  0  0  0  0
  -26.6627  -26.4059   21.8773 C   0  0  0  0  0  0  0  0  0  0  0  0
  -23.0176   -9.5031   14.1811 C   0  0  0  0  0  0  0  0  0  0  0  0
  -21.8137   -8.8977   13.8210 C   0  0  0  0  0  0  0  0  0  0  0  0
  -26.8548  -28.6687   21.0638 C   0  0  0  0  0  0  0  0  0  0  0  0
  -30.4092  -19.1593   19.3086 C   0  0  0  0  0  0  0  0  0  0  0  0
  -29.3358  -21.3218   19.2155 C   0  0  0  0  0  0  0  0  0  0  0  0
  -21.7228  -10.2629   11.8298 C   0  0  0  0  0  0  0  0  0  0  0  0
  -24.9005  -13.1197   17.3414 C   0  0  0  0  0  0  0  0  0  0  0  0
  -24.9993  -13.2625   19.8865 C   0  0  0  0  0  0  0  0  0  0  0  0
  -18.7924  -26.7021   22.5212 C   0  0  0  0  0  0  0  0  0  0  0  0
  -25.2706  -28.1569   22.8210 C   0  0  0  0  0  0  0  0  0  0  0  0
  -20.0201  -26.9978   21.8986 C   0  0  0  0  0  0  0  0  0  0  0  0
  -25.8697  -29.0945   21.9678 C   0  0  0  0  0  0  0  0  0  0  0  0
  -31.6784  -21.1111   18.6632 C   0  0  0  0  0  0  0  0  0  0  0  0
  -31.6131  -19.7397   18.9094 C   0  0  0  0  0  0  0  0  0  0  0  0
  -30.5398  -21.9022   18.8163 C   0  0  0  0  0  0  0  0  0  0  0  0
  -29.2705  -19.9504   19.4617 C   0  0  0  0  0  0  0  0  0  0  0  0
  -24.8128  -11.7540   14.9104 C   0  0  0  0  0  0  0  0  0  0  0  0
  -27.2477  -27.3314   21.0180 C   0  0  0  0  0  0  0  0  0  0  0  0
  -23.5741  -10.4885   13.3656 C   0  0  0  0  0  0  0  0  0  0  0  0
  -21.1663   -9.2775   12.6453 C   0  0  0  0  0  0  0  0  0  0  0  0
  -22.9267  -10.8684   12.1900 C   0  0  0  0  0  0  0  0  0  0  0  0
  -24.9449  -13.8249   18.5971 C   0  0  0  0  0  0  0  0  0  0  0  0
  -25.0253  -14.3444   20.7322 C   0  0  0  0  0  0  0  0  0  0  0  0
  -25.0243  -11.8852   20.2842 C   0  0  0  0  0  0  0  0  0  0  0  0
  -22.5278  -29.6801   22.3103 C   0  0  0  0  0  0  0  0  0  0  0  0
  -24.2104  -32.2496   23.3539 C   0  0  0  0  0  0  0  0  0  0  0  0
  -27.2506  -33.7327   23.8058 C   0  0  0  0  0  0  0  0  0  0  0  0
  -26.8258  -20.0031   20.0673 C   0  0  0  0  0  0  0  0  0  0  0  0
  -17.8274  -27.7875   22.9277 C   0  0  0  0  0  0  0  0  0  0  0  0
  -24.2295  -28.5892   23.8169 C   0  0  0  0  0  0  0  0  0  0  0  0
  -25.4787  -30.5489   21.9884 C   0  0  0  0  0  0  0  0  0  0  0  0
  -18.4671  -29.1709   23.0123 C   0  0  0  0  0  0  0  0  0  0  0  0
  -23.5801  -18.9004   21.0297 C   0  0  0  0  0  0  0  0  0  0  0  0
  -19.3273  -29.4375   21.7812 C   0  0  0  0  0  0  0  0  0  0  0  0
  -23.5688  -17.4210   20.6380 C   0  0  0  0  0  0  0  0  0  0  0  0
  -33.5428  -22.8637   19.1063 C   0  0  0  0  0  0  0  0  0  0  0  0
  -28.6404  -24.4500   19.9304 C   0  0  0  0  0  0  0  0  0  0  0  0
  -30.3779  -25.6795   19.7796 C   0  0  0  0  0  0  0  0  0  0  0  0
  -24.3544  -19.7481   20.0220 C   0  0  0  0  0  0  0  0  0  0  0  0
  -25.7063  -17.8031   19.3449 C   0  0  0  0  0  0  0  0  0  0  0  0
  -34.6279  -23.4615   18.2361 C   0  0  0  0  0  0  0  0  0  0  0  0
  -32.9194  -22.4028   16.8485 C   0  0  0  0  0  0  0  0  0  0  0  0
  -32.9850  -21.7408   18.2305 C   0  0  2  0  0  0  0  0  0  0  0  0
  -20.4742  -28.4247   21.6797 C   0  0  1  0  0  0  0  0  0  0  0  0
  -23.5219  -29.8808   23.4190 C   0  0  1  0  0  0  0  0  0  0  0  0
  -30.1526  -24.1481   19.7938 C   0  0  0  0  0  0  0  0  0  0  0  0
  -24.9932  -16.8997   20.3643 C   0  0  2  0  0  0  0  0  0  0  0  0
  -29.0308  -25.8224   20.5266 C   0  0  0  0  0  0  0  0  0  1  0  0
  -32.8177  -18.8705   18.7522 C   0  0  0  0  0  0  0  0  0  0  0  0
  -28.3043  -35.8494   24.6464 C   0  0  0  0  0  0  0  0  0  0  0  0
  -23.3735  -33.6807   20.7924 C   0  0  0  0  0  0  0  0  0  0  0  0
  -25.1773  -35.3621   21.2250 C   0  0  0  0  0  0  0  0  0  0  0  0
  -23.3035  -35.0995   22.8506 C   0  0  0  0  0  0  0  0  0  0  0  0
  -34.9998  -23.3404   15.7499 C   0  0  0  0  0  0  0  0  0  0  0  0
  -28.7423  -32.2894   25.9154 C   0  0  0  0  0  0  0  0  0  0  0  0
  -30.5834  -23.3880   18.5565 C   0  0  2  0  0  0  0  0  0  0  0  0
  -25.0733  -33.3005   22.6982 C   0  0  1  0  0  0  0  0  0  0  0  0
  -27.8582  -34.4401   25.0037 C   0  0  2  0  0  0  0  0  0  0  0  0
  -24.2381  -34.3330   21.8896 C   0  0  0  0  0  0  0  0  0  0  0  0
  -24.9366  -15.1604   18.6170 N   0  0  0  0  0  0  0  0  0  0  0  0
  -24.9860  -15.4462   19.9293 N   0  0  0  0  0  0  0  0  0  0  0  0
  -24.4519  -30.9213   22.9755 N   0  0  0  0  0  0  0  0  0  0  0  0
  -25.6955  -19.1968   19.8162 N   0  0  0  0  0  0  0  0  0  0  0  0
  -25.0776  -14.4513   22.0769 N   0  0  0  0  0  0  0  0  0  0  0  0
  -23.8048  -11.2350   20.5178 N   0  0  0  0  0  0  0  0  0  0  0  0
  -28.0477  -19.3613   19.8683 N   0  0  0  0  0  0  0  0  0  0  0  0
  -21.5337  -28.7666   22.6045 N   0  0  0  0  0  0  0  0  0  0  0  0
  -25.8812  -33.8873   23.7619 N   0  0  0  0  0  0  0  0  0  0  0  0
  -34.0061  -23.4632   16.8603 N   0  3  2  0  0  0  0  0  0  0  0  0
  -29.0413  -33.6857   25.5055 N   0  3  0  0  0  0  0  0  0  0  0  0
  -26.0968  -11.2545   20.4440 O   0  0  0  0  0  0  0  0  0  0  0  0
  -22.6526  -30.3087   21.2658 O   0  0  0  0  0  0  0  0  0  0  0  0
  -23.3586  -32.5938   24.1770 O   0  0  0  0  0  0  0  0  0  0  0  0
  -27.9240  -33.1088   22.9885 O   0  0  0  0  0  0  0  0  0  0  0  0
  -26.7179  -21.1682   20.4584 O   0  0  0  0  0  0  0  0  0  0  0  0
  -24.7698  -11.0881   13.7242 O   0  0  0  0  0  0  0  0  0  0  0  0
  -28.2056  -26.9329   20.1373 O   0  0  0  0  0  0  0  0  0  1  0  0
  -20.0110   -8.6950   12.2988 F   0  0  0  0  0  0  0  0  0  0  0  0
  -23.4571  -11.8136   11.4019 F   0  0  0  0  0  0  0  0  0  0  0  0
  -29.7583  -23.7673   17.5354 F   0  0  0  0  0  0  0  0  0  0  0  0
  1  2  1  0  0  0  0
  1  5  2  0  0  0  0
  2  6  2  0  0  0  0
  3  8  2  0  0  0  0
  3 17  1  0  0  0  0
  4  9  1  0  0  0  0
  4 17  2  0  0  0  0
  5 19  1  0  0  0  0
  6 21  1  0  0  0  0
  7 10  2  0  0  0  0
  7 20  1  0  0  0  0
  8 27  1  0  0  0  0
  9 27  2  0  0  0  0
 10 28  1  0  0  0  0
 11 12  2  0  0  0  0
 11 29  1  0  0  0  0
 12 30  1  0  0  0  0
 13 22  1  0  0  0  0
 13 28  2  0  0  0  0
 14 24  2  0  0  0  0
 14 26  1  0  0  0  0
 15 25  1  0  0  0  0
 15 26  2  0  0  0  0
 16 30  2  0  0  0  0
 16 31  1  0  0  0  0
 17 32  1  0  0  0  0
 18 32  1  0  0  0  0
 18 33  2  0  0  0  0
 18 34  1  0  0  0  0
 19 21  2  0  0  0  0
 19 39  1  0  0  0  0
 20 22  2  0  0  0  0
 20 40  1  0  0  0  0
 21 54  1  0  0  0  0
 22 41  1  0  0  0  0
 23 24  1  0  0  0  0
 23 25  2  0  0  0  0
 23 53  1  0  0  0  0
 24 59  1  0  0  0  0
 25 66  1  0  0  0  0
 26 76  1  0  0  0  0
 27 86  1  0  0  0  0
 28 87  1  0  0  0  0
 29 31  2  0  0  0  0
 29 86  1  0  0  0  0
 30 88  1  0  0  0  0
 31 89  1  0  0  0  0
 32 70  2  0  0  0  0
 33 71  1  0  0  0  0
 33 74  1  0  0  0  0
 34 75  1  0  0  0  0
 34 81  2  0  0  0  0
 35 55  1  0  0  0  0
 35 77  1  0  0  0  0
 35 82  2  0  0  0  0
 36 67  1  0  0  0  0
 36 72  1  0  0  0  0
 36 83  2  0  0  0  0
 37 68  1  0  0  0  0
 37 78  1  0  0  0  0
 37 84  2  0  0  0  0
 38 73  1  0  0  0  0
 38 76  1  0  0  0  0
 38 85  2  0  0  0  0
 39 42  1  0  0  0  0
 40 55  1  0  0  0  0
 41 72  1  0  0  0  0
 42 44  1  0  0  0  0
 43 45  1  0  0  0  0
 43 49  1  0  0  0  0
 44 54  1  0  0  0  0
 45 57  1  0  0  0  0
 46 51  1  0  0  0  0
 46 53  1  0  0  0  0
 47 56  1  0  0  0  0
 47 58  1  0  0  0  0
 48 56  1  0  0  0  0
 48 58  1  0  0  0  0
 49 73  1  0  0  0  0
 50 57  1  0  0  0  0
 50 73  1  0  0  0  0
 51 79  1  0  0  0  0
 52 53  1  0  0  0  0
 52 79  1  0  0  0  0
 54 77  1  0  0  0  0
 55 72  1  0  0  0  0
 56 66  1  0  0  0  0
 57 71  1  0  0  0  0
 58 87  1  0  0  0  0
 60 68  1  0  0  0  0
 61 69  1  0  0  0  0
 62 69  1  0  0  0  0
 63 69  1  0  0  0  0
 64 79  1  0  0  0  0
 65 80  1  0  0  0  0
 66 90  1  0  0  0  0
 67 69  1  0  0  0  0
 67 78  1  0  0  0  0
 68 80  1  0  0  0  0
 70 71  1  0  0  0  0
M  CHG  2  79   1  80   1
M  ISO  4  38 100  58 101  76 100  87 101
M  END
> <Batch ID>
0165

> <Smiles>
CNC(C)C(=O)NC(C(=O)N1Cc2cc([101O:1][101CH:1]3CC(C(F)c4cc([100NH:0][100C:0](=O)N5CCCC(n6nc(-c7ccc(Oc8ccc(F)cc8F)cc7)c(C(N)=O)c6N)C5)cc(C)c4C4CCN(C)C4)C3)ccc2CC1C(=O)NC1CCCc2ccccc21)C(C)(C)C

> <Shape>
0.241

> <Color>
0.088

> <Negative vol penalty>
0.000

$$$$

  -OEChem-04052322223D

 87 96  0     1  0  0  0  0  0999 V2000
  -21.7497  -11.7044   20.4669 C   0  0  0  0  0  0  0  0  0  0  0  0
  -21.6650  -12.9865   21.0002 C   0  0  0  0  0  0  0  0  0  0  0  0
  -20.3393  -20.6730   19.7255 C   0  0  0  0  0  0  0  0  0  0  0  0
  -18.8210  -22.5402   19.9382 C   0  0  0  0  0  0  0  0  0  0  0  0
  -22.9972  -11.1469   20.1899 C   0  0  0  0  0  0  0  0  0  0  0  0
  -22.8280  -13.7115   21.2578 C   0  0  0  0  0  0  0  0  0  0  0  0
  -22.5076  -18.5176   19.6946 C   0  0  0  0  0  0  0  0  0  0  0  0
  -19.3607  -19.8192   20.2343 C   0  0  0  0  0  0  0  0  0  0  0  0
  -17.8423  -21.6864   20.4470 C   0  0  0  0  0  0  0  0  0  0  0  0
  -21.7874  -19.4015   20.4970 C   0  0  0  0  0  0  0  0  0  0  0  0
  -16.5785  -18.2652   19.1043 C   0  0  0  0  0  0  0  0  0  0  0  0
  -16.3778  -17.0481   18.4531 C   0  0  0  0  0  0  0  0  0  0  0  0
  -23.8530  -20.2301   21.4276 C   0  0  0  0  0  0  0  0  0  0  0  0
  -19.2489  -23.3087   22.3784 C   0  0  0  0  0  0  0  0  0  0  0  0
  -18.6250  -24.0865   24.5790 C   0  0  0  0  0  0  0  0  0  0  0  0
  -16.9376  -15.8683   20.4858 C   0  0  0  0  0  0  0  0  0  0  0  0
  -20.0695  -22.0335   19.5774 C   0  0  0  0  0  0  0  0  0  0  0  0
  -21.7033  -22.8407   17.7923 C   0  0  0  0  0  0  0  0  0  0  0  0
  -24.1757  -11.8691   20.4353 C   0  0  0  0  0  0  0  0  0  0  0  0
  -23.9077  -18.4756   19.7607 C   0  0  0  0  0  0  0  0  0  0  0  0
  -24.0925  -13.1626   20.9851 C   0  0  0  0  0  0  0  0  0  0  0  0
  -24.5887  -19.3466   20.6231 C   0  0  0  0  0  0  0  0  0  0  0  0
  -18.6889  -24.2869   23.2001 C   0  0  0  0  0  0  0  0  0  0  0  0
  -19.7449  -22.1300   22.9356 C   0  0  0  0  0  0  0  0  0  0  0  0
  -19.6810  -21.9296   24.3145 C   0  0  0  0  0  0  0  0  0  0  0  0
  -18.1122  -20.3259   20.5951 C   0  0  0  0  0  0  0  0  0  0  0  0
  -22.4600  -20.2559   21.3658 C   0  0  0  0  0  0  0  0  0  0  0  0
  -16.9588  -18.2839   20.4462 C   0  0  0  0  0  0  0  0  0  0  0  0
  -19.1210  -22.9078   25.1362 C   0  0  0  0  0  0  0  0  0  0  0  0
  -16.5573  -15.8497   19.1439 C   0  0  0  0  0  0  0  0  0  0  0  0
  -17.1384  -17.0854   21.1369 C   0  0  0  0  0  0  0  0  0  0  0  0
  -21.0802  -22.9161   19.0524 C   0  0  0  0  0  0  0  0  0  0  0  0
  -22.5795  -23.8983   17.7787 C   0  0  0  0  0  0  0  0  0  0  0  0
  -21.5075  -21.8989   16.7291 C   0  0  0  0  0  0  0  0  0  0  0  0
  -26.0506  -16.2665   20.5554 C   0  0  0  0  0  0  0  0  0  0  0  0
  -28.1634  -18.5126   19.5488 C   0  0  0  0  0  0  0  0  0  0  0  0
  -28.8316  -21.8088   18.9699 C   0  0  0  0  0  0  0  0  0  0  0  0
  -21.2577  -26.1446   22.6435 C   0  0  0  0  0  0  0  0  0  0  0  0
  -25.5031  -11.2064   20.1638 C   0  0  0  0  0  0  0  0  0  0  0  0
  -24.6712  -17.5351   18.8690 C   0  0  0  0  0  0  0  0  0  0  0  0
  -26.0919  -19.3550   20.7169 C   0  0  0  0  0  0  0  0  0  0  0  0
  -26.6739  -12.1848   20.1160 C   0  0  0  0  0  0  0  0  0  0  0  0
  -24.4295  -24.9248   21.5395 C   0  0  0  0  0  0  0  0  0  0  0  0
  -19.2008  -29.1310   22.6641 C   0  0  0  0  0  0  0  0  0  0  0  0
  -26.6122  -13.1492   21.2963 C   0  0  0  0  0  0  0  0  0  0  0  0
  -24.5398  -25.3802   20.0886 C   0  0  0  0  0  0  0  0  0  0  0  0
  -18.1083  -28.0882   22.8535 C   0  0  0  0  0  0  0  0  0  0  0  0
  -23.7054  -25.9689   22.3753 C   0  0  0  0  0  0  0  0  0  0  0  0
  -20.2625  -28.3635   21.8916 C   0  0  0  0  0  0  0  0  0  0  0  0
  -22.3591  -26.6814   20.4092 C   0  0  0  0  0  0  0  0  0  0  0  0
  -25.3304  -13.9900   21.2553 C   0  0  1  0  0  0  0  0  0  0  0  0
  -26.0686  -17.2177   19.3924 C   0  0  1  0  0  0  0  0  0  0  0  0
  -23.1771  -25.7525   19.4826 C   0  0  2  0  0  0  0  0  0  0  0  0
  -18.8936  -26.7973   23.1011 C   0  0  1  0  0  0  0  0  0  0  0  0
  -20.2120  -20.6683   24.9172 C   0  0  0  0  0  0  0  0  0  0  0  0
  -16.6381  -25.7047   22.8286 C   0  0  0  0  0  0  0  0  0  0  0  0
  -29.2306  -21.7285   16.4937 C   0  0  0  0  0  0  0  0  0  0  0  0
  -29.5642  -18.2228   22.2439 C   0  0  0  0  0  0  0  0  0  0  0  0
  -30.7444  -20.3824   21.7842 C   0  0  0  0  0  0  0  0  0  0  0  0
  -31.1045  -18.4223   20.2838 C   0  0  0  0  0  0  0  0  0  0  0  0
  -31.2655  -23.4781   19.1907 C   0  0  0  0  0  0  0  0  0  0  0  0
  -20.1586  -23.1887   27.2576 C   0  0  0  0  0  0  0  0  0  0  0  0
  -20.3384  -21.0975   22.0340 C   0  0  0  0  0  0  0  0  0  1  0  0
  -18.1473  -25.5707   22.5924 C   0  0  2  0  0  0  0  0  0  0  0  0
  -28.8997  -19.6569   20.2025 C   0  0  1  0  0  0  0  0  0  0  0  0
  -29.4449  -22.5177   17.7758 C   0  0  2  0  0  0  0  0  0  0  0  0
  -30.0498  -19.1698   21.1285 C   0  0  0  0  0  0  0  0  0  0  0  0
  -21.5230  -23.9405   19.7861 N   0  0  0  0  0  0  0  0  0  0  0  0
  -22.4339  -24.5185   18.9846 N   0  0  0  0  0  0  0  0  0  0  0  0
  -26.7934  -18.4127   19.8294 N   0  0  0  0  0  0  0  0  0  0  0  0
  -22.3884  -26.2921   21.8264 N   0  0  0  0  0  0  0  0  0  0  0  0
  -20.1771  -27.0004   22.4182 N   0  0  0  0  0  0  0  0  0  0  0  0
  -23.4527  -24.3488   16.8530 N   0  0  0  0  0  0  0  0  0  0  0  0
  -22.2939  -20.7389   16.7108 N   0  0  0  0  0  0  0  0  0  0  0  0
  -25.4533  -15.0514   20.2792 N   0  0  0  0  0  0  0  0  0  0  0  0
  -29.3344  -20.5338   19.1205 N   0  0  0  0  0  0  0  0  0  0  0  0
  -30.9105  -22.6981   17.9772 N   0  3  0  0  0  0  0  0  0  0  0  0
  -20.6718  -22.0885   15.8131 O   0  0  0  0  0  0  0  0  0  0  0  0
  -26.5434  -16.6090   21.6238 O   0  0  0  0  0  0  0  0  0  0  0  0
  -28.7797  -17.7400   18.8105 O   0  0  0  0  0  0  0  0  0  0  0  0
  -27.9933  -22.3350   19.6985 O   0  0  0  0  0  0  0  0  0  0  0  0
  -21.2188  -25.2930   23.5415 O   0  0  0  0  0  0  0  0  0  0  0  0
  -17.1569  -19.4930   21.0914 O   0  0  0  0  0  0  0  0  0  0  0  0
  -19.0509  -22.7300   26.4852 O   0  0  0  0  0  0  0  0  0  0  0  0
  -21.7545  -21.1253   22.1562 O   0  0  0  0  0  0  0  0  0  1  0  0
  -16.3630  -14.6810   18.5189 F   0  0  0  0  0  0  0  0  0  0  0  0
  -17.5025  -17.0970   22.4265 F   0  0  0  0  0  0  0  0  0  0  0  0
  1  2  1  0  0  0  0
  1  5  2  0  0  0  0
  2  6  2  0  0  0  0
  3  8  2  0  0  0  0
  3 17  1  0  0  0  0
  4  9  1  0  0  0  0
  4 17  2  0  0  0  0
  5 19  1  0  0  0  0
  6 21  1  0  0  0  0
  7 10  2  0  0  0  0
  7 20  1  0  0  0  0
  8 26  1  0  0  0  0
  9 26  2  0  0  0  0
 10 27  1  0  0  0  0
 11 12  2  0  0  0  0
 11 28  1  0  0  0  0
 12 30  1  0  0  0  0
 13 22  1  0  0  0  0
 13 27  2  0  0  0  0
 14 23  2  0  0  0  0
 14 24  1  0  0  0  0
 15 23  1  0  0  0  0
 15 29  2  0  0  0  0
 16 30  2  0  0  0  0
 16 31  1  0  0  0  0
 17 32  1  0  0  0  0
 18 32  1  0  0  0  0
 18 33  2  0  0  0  0
 18 34  1  0  0  0  0
 19 21  2  0  0  0  0
 19 39  1  0  0  0  0
 20 22  2  0  0  0  0
 20 40  1  0  0  0  0
 21 51  1  0  0  0  0
 22 41  1  0  0  0  0
 23 64  1  0  0  0  0
 24 25  2  0  0  0  0
 24 63  1  0  0  0  0
 25 29  1  0  0  0  0
 25 55  1  0  0  0  0
 26 83  1  0  0  0  0
 27 85  1  0  0  0  0
 28 31  2  0  0  0  0
 28 83  1  0  0  0  0
 29 84  1  0  0  0  0
 30 86  1  0  0  0  0
 31 87  1  0  0  0  0
 32 68  2  0  0  0  0
 33 69  1  0  0  0  0
 33 73  1  0  0  0  0
 34 74  1  0  0  0  0
 34 78  2  0  0  0  0
 35 52  1  0  0  0  0
 35 75  1  0  0  0  0
 35 79  2  0  0  0  0
 36 65  1  0  0  0  0
 36 70  1  0  0  0  0
 36 80  2  0  0  0  0
 37 66  1  0  0  0  0
 37 76  1  0  0  0  0
 37 81  2  0  0  0  0
 38 71  1  0  0  0  0
 38 72  1  0  0  0  0
 38 82  2  0  0  0  0
 39 42  1  0  0  0  0
 40 52  1  0  0  0  0
 41 70  1  0  0  0  0
 42 45  1  0  0  0  0
 43 46  1  0  0  0  0
 43 48  1  0  0  0  0
 44 47  1  0  0  0  0
 44 49  1  0  0  0  0
 45 51  1  0  0  0  0
 46 53  1  0  0  0  0
 47 54  1  0  0  0  0
 48 71  1  0  0  0  0
 49 72  1  0  0  0  0
 50 53  1  0  0  0  0
 50 71  1  0  0  0  0
 51 75  1  0  0  0  0
 52 70  1  0  0  0  0
 53 69  1  0  0  0  0
 54 64  1  0  0  0  0
 54 72  1  0  0  0  0
 56 64  1  0  0  0  0
 57 66  1  0  0  0  0
 58 67  1  0  0  0  0
 59 67  1  0  0  0  0
 60 67  1  0  0  0  0
 61 77  1  0  0  0  0
 62 84  1  0  0  0  0
 63 85  1  0  0  0  0
 65 67  1  0  0  0  0
 65 76  1  0  0  0  0
 66 77  1  0  0  0  0
 68 69  1  0  0  0  0
M  CHG  1  77   1
M  ISO  4  38 100  63 101  72 100  85 101
M  END
> <Batch ID>
0165

> <Smiles>
CNC(C)C(=O)NC(C(=O)N1Cc2cc([101O:1][101CH2:1]c3cc(C(C)C4CCC[100N:0]4[100C:0](=O)N4CCCC(n5nc(-c6ccc(Oc7ccc(F)cc7F)cc6)c(C(N)=O)c5N)C4)cc(OC)c3C)ccc2CC1C(=O)NC1CCCc2ccccc21)C(C)(C)C

> <Shape>
0.157

> <Color>
0.057

> <Negative vol penalty>
0.000

$$$$

  -OEChem-04052322223D

 91102  0     1  0  0  0  0  0999 V2000
  -32.4706  -29.9734   19.4921 C   0  0  0  0  0  0  0  0  0  0  0  0
  -31.5762  -29.0495   20.0229 C   0  0  0  0  0  0  0  0  0  0  0  0
  -24.4542   -8.8927   21.4756 C   0  0  0  0  0  0  0  0  0  0  0  0
  -23.9491  -10.7023   22.9946 C   0  0  0  0  0  0  0  0  0  0  0  0
  -32.2983  -31.3336   19.7452 C   0  0  0  0  0  0  0  0  0  0  0  0
  -30.5093  -29.4852   20.8080 C   0  0  0  0  0  0  0  0  0  0  0  0
  -26.1492  -27.2129   19.5951 C   0  0  0  0  0  0  0  0  0  0  0  0
  -24.0045   -7.9724   22.4223 C   0  0  0  0  0  0  0  0  0  0  0  0
  -23.4993   -9.7820   23.9413 C   0  0  0  0  0  0  0  0  0  0  0  0
  -25.9555  -25.9147   20.0651 C   0  0  0  0  0  0  0  0  0  0  0  0
  -21.0376   -6.8008   23.5440 C   0  0  0  0  0  0  0  0  0  0  0  0
  -20.2032   -5.7734   23.1039 C   0  0  0  0  0  0  0  0  0  0  0  0
  -24.5827  -26.7734   21.8532 C   0  0  0  0  0  0  0  0  0  0  0  0
  -21.8153   -4.1404   23.8601 C   0  0  0  0  0  0  0  0  0  0  0  0
  -24.4265  -10.2577   21.7617 C   0  0  0  0  0  0  0  0  0  0  0  0
  -24.1301  -11.8383   19.7815 C   0  0  0  0  0  0  0  0  0  0  0  0
  -31.2233  -31.7870   20.5259 C   0  0  0  0  0  0  0  0  0  0  0  0
  -25.5691  -28.3039   20.2581 C   0  0  0  0  0  0  0  0  0  0  0  0
  -30.3232  -30.8526   21.0730 C   0  0  0  0  0  0  0  0  0  0  0  0
  -24.7685  -28.0842   21.3881 C   0  0  0  0  0  0  0  0  0  0  0  0
  -23.5270   -8.4170   23.6552 C   0  0  0  0  0  0  0  0  0  0  0  0
  -25.1745  -25.6950   21.1959 C   0  0  0  0  0  0  0  0  0  0  0  0
  -22.2609   -6.4981   24.1421 C   0  0  0  0  0  0  0  0  0  0  0  0
  -20.5920   -4.4431   23.2620 C   0  0  0  0  0  0  0  0  0  0  0  0
  -22.6497   -5.1679   24.3002 C   0  0  0  0  0  0  0  0  0  0  0  0
  -24.8915  -11.2088   20.7843 C   0  0  0  0  0  0  0  0  0  0  0  0
  -25.0277  -12.6428   19.1230 C   0  0  0  0  0  0  0  0  0  0  0  0
  -27.4310  -20.5611   23.3730 C   0  0  0  0  0  0  0  0  0  0  0  0
  -26.7728  -21.8202   23.6519 C   0  0  0  0  0  0  0  0  0  0  0  0
  -28.2677  -19.9674   24.2323 C   0  0  0  0  0  0  0  0  0  0  0  0
  -26.9828  -22.4318   24.8388 C   0  0  0  0  0  0  0  0  0  0  0  0
  -28.5308  -20.6428   25.5437 C   0  0  0  0  0  0  0  0  0  0  0  0
  -22.7360  -11.7077   19.4728 C   0  0  0  0  0  0  0  0  0  0  0  0
  -26.6906  -30.8777   21.7486 C   0  0  0  0  0  0  0  0  0  0  0  0
  -23.5497  -31.6712   21.9138 C   0  0  0  0  0  0  0  0  0  0  0  0
  -20.2967  -30.6394   21.9098 C   0  0  0  0  0  0  0  0  0  0  0  0
  -30.1975  -15.1790   20.7636 C   0  0  0  0  0  0  0  0  0  0  0  0
  -31.1052  -33.2632   20.8113 C   0  0  0  0  0  0  0  0  0  0  0  0
  -25.7657  -29.6958   19.7228 C   0  0  0  0  0  0  0  0  0  0  0  0
  -24.1068  -29.2195   22.1241 C   0  0  0  0  0  0  0  0  0  0  0  0
  -29.7342  -33.6731   21.3429 C   0  0  0  0  0  0  0  0  0  0  0  0
  -29.6754  -12.9565   18.0314 C   0  0  0  0  0  0  0  0  0  0  0  0
  -29.2811  -32.7187   22.4432 C   0  0  0  0  0  0  0  0  0  0  0  0
  -24.8406  -23.7835   25.1354 C   0  0  0  0  0  0  0  0  0  0  0  0
  -25.5378  -23.7638   26.4634 C   0  0  0  0  0  0  0  0  0  0  0  0
  -28.3214  -12.3133   18.3367 C   0  0  0  0  0  0  0  0  0  0  0  0
  -26.4658  -22.4870   21.2099 C   0  0  0  0  0  0  0  0  0  0  0  0
  -29.5013  -18.4036   21.5460 C   0  0  0  0  0  0  0  0  0  0  0  0
  -30.4848  -13.1985   19.3036 C   0  0  0  0  0  0  0  0  0  0  0  0
  -28.4271  -13.3215   20.6542 C   0  0  0  0  0  0  0  0  0  0  0  0
  -29.1394  -31.2883   21.9090 C   0  0  1  0  0  0  0  0  0  0  0  0
  -25.9043  -22.3162   22.5957 C   0  0  2  0  0  0  0  0  0  0  0  0
  -26.3230  -23.7237   25.2032 C   0  0  0  0  0  0  0  0  0  0  0  0
  -25.5491  -30.7774   20.7767 C   0  0  1  0  0  0  0  0  0  0  0  0
  -27.5513  -13.1092   19.4076 C   0  0  2  0  0  0  0  0  0  0  0  0
  -28.7177  -18.0645   22.7819 C   0  0  1  0  0  0  0  0  0  0  0  0
  -29.7604  -17.1076   22.2631 C   0  0  1  0  0  0  0  0  0  0  0  0
  -26.1471  -23.6961   22.0411 C   0  0  2  0  0  0  0  0  0  1  0  0
  -17.9523  -31.5143   22.0992 C   0  0  0  0  0  0  0  0  0  0  0  0
  -29.5616  -22.9102   27.1613 C   0  0  0  0  0  0  0  0  0  0  0  0
  -27.6340  -21.6534   28.1863 C   0  0  0  0  0  0  0  0  0  0  0  0
  -23.9230  -32.0132   24.9227 C   0  0  0  0  0  0  0  0  0  0  0  0
  -21.4326  -31.9426   25.1693 C   0  0  0  0  0  0  0  0  0  0  0  0
  -22.5015  -33.7643   23.8421 C   0  0  0  0  0  0  0  0  0  0  0  0
  -19.5852  -29.6484   19.2133 C   0  0  0  0  0  0  0  0  0  0  0  0
  -22.4338  -31.4196   22.8989 C   0  0  1  0  0  0  0  0  0  0  0  0
  -19.0815  -31.1417   21.1511 C   0  0  2  0  0  0  0  0  0  0  0  0
  -28.0872  -22.5520   27.0449 C   0  0  0  0  0  0  0  0  0  0  0  0
  -22.5867  -32.2635   24.1958 C   0  0  0  0  0  0  0  0  0  0  0  0
  -26.1741  -11.5812   20.7680 N   0  0  0  0  0  0  0  0  0  0  0  0
  -26.2256  -12.4533   19.7469 N   0  0  0  0  0  0  0  0  0  0  0  0
  -27.8612  -21.8567   25.7755 N   0  0  0  0  0  0  0  0  0  0  0  0
  -24.3343  -30.5626   21.5656 N   0  0  0  0  0  0  0  0  0  0  0  0
  -29.6982  -13.9595   20.2773 N   0  0  0  0  0  0  0  0  0  0  0  0
  -24.9013  -13.4866   18.0768 N   0  0  0  0  0  0  0  0  0  0  0  0
  -21.9585  -10.8378   20.2494 N   0  0  0  0  0  0  0  0  0  0  0  0
  -28.9092  -18.7840   24.0115 N   0  0  0  0  0  0  0  0  0  0  0  0
  -27.9102  -31.1487   21.1580 N   0  0  0  0  0  0  0  0  0  0  0  0
  -21.1893  -31.6562   22.1752 N   0  0  0  0  0  0  0  0  0  0  0  0
  -29.3863  -15.8392   21.6783 N   0  0  0  0  0  0  0  0  0  0  0  0
  -18.5840  -30.0926   20.2169 N   0  3  0  0  0  0  0  0  0  0  0  0
  -29.3053  -20.1114   26.3420 O   0  0  0  0  0  0  0  0  0  0  0  0
  -22.1994  -12.3311   18.5258 O   0  0  0  0  0  0  0  0  0  0  0  0
  -26.4803  -30.7223   22.9458 O   0  0  0  0  0  0  0  0  0  0  0  0
  -23.7145  -32.8080   21.4641 O   0  0  0  0  0  0  0  0  0  0  0  0
  -20.4380  -29.4633   22.2376 O   0  0  0  0  0  0  0  0  0  0  0  0
  -31.2832  -15.6475   20.4048 O   0  0  0  0  0  0  0  0  0  0  0  0
  -23.0878   -7.5193   24.5792 O   0  0  0  0  0  0  0  0  0  0  0  0
  -24.9844  -24.4289   21.6572 O   0  0  0  0  0  0  0  0  0  1  0  0
  -19.7899   -3.4565   22.8407 F   0  0  0  0  0  0  0  0  0  0  0  0
  -23.8232   -4.8708   24.8751 F   0  0  0  0  0  0  0  0  0  0  0  0
  1  2  1  0  0  0  0
  1  5  2  0  0  0  0
  2  6  2  0  0  0  0
  3  8  2  0  0  0  0
  3 15  1  0  0  0  0
  4  9  1  0  0  0  0
  4 15  2  0  0  0  0
  5 17  1  0  0  0  0
  6 19  1  0  0  0  0
  7 10  2  0  0  0  0
  7 18  1  0  0  0  0
  8 21  1  0  0  0  0
  9 21  2  0  0  0  0
 10 22  1  0  0  0  0
 11 12  2  0  0  0  0
 11 23  1  0  0  0  0
 12 24  1  0  0  0  0
 13 20  1  0  0  0  0
 13 22  2  0  0  0  0
 14 24  2  0  0  0  0
 14 25  1  0  0  0  0
 15 26  1  0  0  0  0
 16 26  1  0  0  0  0
 16 27  2  0  0  0  0
 16 33  1  0  0  0  0
 17 19  2  0  0  0  0
 17 38  1  0  0  0  0
 18 20  2  0  0  0  0
 18 39  1  0  0  0  0
 19 51  1  0  0  0  0
 20 40  1  0  0  0  0
 21 88  1  0  0  0  0
 22 89  1  0  0  0  0
 23 25  2  0  0  0  0
 23 88  1  0  0  0  0
 24 90  1  0  0  0  0
 25 91  1  0  0  0  0
 26 70  2  0  0  0  0
 27 71  1  0  0  0  0
 27 75  1  0  0  0  0
 28 29  1  0  0  0  0
 28 30  2  0  0  0  0
 29 31  2  0  0  0  0
 29 52  1  0  0  0  0
 30 32  1  0  0  0  0
 30 77  1  0  0  0  0
 31 53  1  0  0  0  0
 31 72  1  0  0  0  0
 32 72  1  0  0  0  0
 32 82  2  0  0  0  0
 33 76  1  0  0  0  0
 33 83  2  0  0  0  0
 34 54  1  0  0  0  0
 34 78  1  0  0  0  0
 34 84  2  0  0  0  0
 35 66  1  0  0  0  0
 35 73  1  0  0  0  0
 35 85  2  0  0  0  0
 36 67  1  0  0  0  0
 36 79  1  0  0  0  0
 36 86  2  0  0  0  0
 37 74  1  0  0  0  0
 37 80  1  0  0  0  0
 37 87  2  0  0  0  0
 38 41  1  0  0  0  0
 39 54  1  0  0  0  0
 40 73  1  0  0  0  0
 41 43  1  0  0  0  0
 42 46  1  0  0  0  0
 42 49  1  0  0  0  0
 43 51  1  0  0  0  0
 44 45  1  0  0  0  0
 44 53  1  0  0  0  0
 45 53  1  0  0  0  0
 46 55  1  0  0  0  0
 47 52  1  0  0  0  0
 47 58  1  0  0  0  0
 48 56  1  0  0  0  0
 48 57  1  0  0  0  0
 49 74  1  0  0  0  0
 50 55  1  0  0  0  0
 50 74  1  0  0  0  0
 51 78  1  0  0  0  0
 52 58  1  0  0  0  0
 54 73  1  0  0  0  0
 55 71  1  0  0  0  0
 56 57  1  0  0  0  0
 56 77  1  0  0  0  0
 57 80  1  0  0  0  0
 58 89  1  0  0  0  0
 59 67  1  0  0  0  0
 60 68  1  0  0  0  0
 61 68  1  0  0  0  0
 62 69  1  0  0  0  0
 63 69  1  0  0  0  0
 64 69  1  0  0  0  0
 65 81  1  0  0  0  0
 66 69  1  0  0  0  0
 66 79  1  0  0  0  0
 67 81  1  0  0  0  0
 68 72  1  0  0  0  0
 70 71  1  0  0  0  0
M  CHG  1  81   1
M  ISO  4  37 100  58 101  80 100  89 101
M  END
> <Batch ID>
0165

> <Smiles>
CNC(C)C(=O)NC(C(=O)N1Cc2cc([101O:1][101CH:1]3CC3c3cc(NC4CC4[100NH:0][100C:0](=O)N4CCCC(n5nc(-c6ccc(Oc7ccc(F)cc7F)cc6)c(C(N)=O)c5N)C4)c(=O)n(C(C)C)c3C3CC3)ccc2CC1C(=O)NC1CCCc2ccccc21)C(C)(C)C

> <Shape>
0.224

> <Color>
0.077

> <Negative vol penalty>
0.000

$$$$

  -OEChem-04052322223D

 86 95  0     1  0  0  0  0  0999 V2000
  -14.9512  -30.1675   20.5282 C   0  0  0  0  0  0  0  0  0  0  0  0
  -15.7247  -29.1155   20.0482 C   0  0  0  0  0  0  0  0  0  0  0  0
  -23.0669  -10.0081   19.9222 C   0  0  0  0  0  0  0  0  0  0  0  0
  -23.9389   -9.7133   22.1560 C   0  0  0  0  0  0  0  0  0  0  0  0
  -15.2727  -30.7696   21.7439 C   0  0  0  0  0  0  0  0  0  0  0  0
  -16.8209  -28.6656   20.7833 C   0  0  0  0  0  0  0  0  0  0  0  0
  -18.8449  -22.9022   21.2215 C   0  0  0  0  0  0  0  0  0  0  0  0
  -22.3003   -8.8521   20.0688 C   0  0  0  0  0  0  0  0  0  0  0  0
  -23.1722   -8.5573   22.3027 C   0  0  0  0  0  0  0  0  0  0  0  0
  -19.8719  -22.2169   20.5738 C   0  0  0  0  0  0  0  0  0  0  0  0
  -19.9542   -7.7730   22.9733 C   0  0  0  0  0  0  0  0  0  0  0  0
  -19.2550   -7.6083   24.1689 C   0  0  0  0  0  0  0  0  0  0  0  0
  -24.7076  -18.4257   18.9533 C   0  0  0  0  0  0  0  0  0  0  0  0
  -21.3434  -22.6821   22.4278 C   0  0  0  0  0  0  0  0  0  0  0  0
  -23.5951  -20.5590   17.5412 C   0  0  0  0  0  0  0  0  0  0  0  0
  -20.4696   -5.5641   24.5974 C   0  0  0  0  0  0  0  0  0  0  0  0
  -23.8862  -10.4387   20.9657 C   0  0  0  0  0  0  0  0  0  0  0  0
  -24.3011  -12.9500   21.1361 C   0  0  0  0  0  0  0  0  0  0  0  0
  -16.3677  -30.3205   22.4989 C   0  0  0  0  0  0  0  0  0  0  0  0
  -19.0630  -23.4929   22.4744 C   0  0  0  0  0  0  0  0  0  0  0  0
  -17.1582  -29.2632   22.0097 C   0  0  0  0  0  0  0  0  0  0  0  0
  -25.2713  -18.8308   17.7434 C   0  0  0  0  0  0  0  0  0  0  0  0
  -20.3168  -23.3722   23.0905 C   0  0  0  0  0  0  0  0  0  0  0  0
  -23.5876  -19.0872   19.4571 C   0  0  0  0  0  0  0  0  0  0  0  0
  -23.0314  -20.1539   18.7510 C   0  0  0  0  0  0  0  0  0  0  0  0
  -22.3529   -8.1267   21.2591 C   0  0  0  0  0  0  0  0  0  0  0  0
  -21.1222  -22.1093   21.1757 C   0  0  0  0  0  0  0  0  0  0  0  0
  -20.9110   -6.8333   22.5896 C   0  0  0  0  0  0  0  0  0  0  0  0
  -24.7151  -19.8975   17.0374 C   0  0  0  0  0  0  0  0  0  0  0  0
  -19.5128   -6.5038   24.9810 C   0  0  0  0  0  0  0  0  0  0  0  0
  -21.1687   -5.7289   23.4017 C   0  0  0  0  0  0  0  0  0  0  0  0
  -24.6788  -11.6325   20.8146 C   0  0  0  0  0  0  0  0  0  0  0  0
  -25.3971  -13.7107   20.8096 C   0  0  0  0  0  0  0  0  0  0  0  0
  -23.0698  -13.4421   21.6813 C   0  0  0  0  0  0  0  0  0  0  0  0
  -18.9725  -26.4644   23.5997 C   0  0  0  0  0  0  0  0  0  0  0  0
  -19.4463  -24.9851   26.4474 C   0  0  0  0  0  0  0  0  0  0  0  0
  -20.6077  -22.2570   28.1372 C   0  0  0  0  0  0  0  0  0  0  0  0
  -29.5497  -15.0889   17.5277 C   0  0  0  0  0  0  0  0  0  0  0  0
  -16.7044  -31.0338   23.7845 C   0  0  0  0  0  0  0  0  0  0  0  0
  -17.9371  -24.2058   23.1720 C   0  0  0  0  0  0  0  0  0  0  0  0
  -20.5964  -23.9711   24.4438 C   0  0  0  0  0  0  0  0  0  0  0  0
  -17.6585  -30.2514   24.6832 C   0  0  0  0  0  0  0  0  0  0  0  0
  -30.1098  -12.3670   19.5842 C   0  0  0  0  0  0  0  0  0  0  0  0
  -18.8276  -29.7028   23.8713 C   0  0  0  0  0  0  0  0  0  0  0  0
  -28.7198  -12.0290   20.1233 C   0  0  0  0  0  0  0  0  0  0  0  0
  -27.6979  -18.2308   18.1560 C   0  0  0  0  0  0  0  0  0  0  0  0
  -26.1914  -16.6204   16.9159 C   0  0  0  0  0  0  0  0  0  0  0  0
  -30.0484  -12.7324   18.1054 C   0  0  0  0  0  0  0  0  0  0  0  0
  -28.9103  -17.4710   17.6230 C   0  0  0  0  0  0  0  0  0  0  0  0
  -27.4368  -15.8985   16.4097 C   0  0  0  0  0  0  0  0  0  0  0  0
  -27.7196  -13.5317   18.3329 C   0  0  0  0  0  0  0  0  0  0  0  0
  -26.4904  -18.1007   17.2117 C   0  0  0  0  0  0  0  0  0  0  0  0
  -18.3403  -28.7306   22.7901 C   0  0  1  0  0  0  0  0  0  0  0  0
  -18.4202  -25.2095   24.2144 C   0  0  1  0  0  0  0  0  0  0  0  0
  -27.7230  -13.1642   19.8303 C   0  0  1  0  0  0  0  0  0  0  0  0
  -23.0004  -18.6338   20.7533 C   0  0  0  0  0  0  0  0  0  0  0  0
  -20.8934  -21.3538   30.4610 C   0  0  0  0  0  0  0  0  0  0  0  0
  -21.8290  -26.8427   26.8739 C   0  0  0  0  0  0  0  0  0  0  0  0
  -22.6160  -25.3034   28.6849 C   0  0  0  0  0  0  0  0  0  0  0  0
  -20.4213  -26.4682   28.9067 C   0  0  0  0  0  0  0  0  0  0  0  0
  -18.8581  -19.9371   27.5753 C   0  0  0  0  0  0  0  0  0  0  0  0
  -24.6209  -21.4035   15.1993 C   0  0  0  0  0  0  0  0  0  0  0  0
  -21.8313  -20.8754   19.2702 C   0  0  0  0  0  0  0  0  0  1  0  0
  -20.6568  -24.5732   27.2498 C   0  0  1  0  0  0  0  0  0  0  0  0
  -19.9892  -21.4166   29.2398 C   0  0  2  0  0  0  0  0  0  0  0  0
  -21.3764  -25.7871   27.9024 C   0  0  0  0  0  0  0  0  0  0  0  0
  -25.9178  -11.5570   20.3215 N   0  0  0  0  0  0  0  0  0  0  0  0
  -26.3282  -12.8367   20.3307 N   0  0  0  0  0  0  0  0  0  0  0  0
  -19.4653  -24.6637   25.0828 N   0  0  0  0  0  0  0  0  0  0  0  0
  -29.0868  -13.8087   17.8679 N   0  0  0  0  0  0  0  0  0  0  0  0
  -28.5766  -16.0800   17.3189 N   0  0  0  0  0  0  0  0  0  0  0  0
  -25.6455  -15.0353   20.8882 N   0  0  0  0  0  0  0  0  0  0  0  0
  -22.0476  -12.5242   21.9583 N   0  0  0  0  0  0  0  0  0  0  0  0
  -18.0246  -27.4439   23.3725 N   0  0  0  0  0  0  0  0  0  0  0  0
  -20.1931  -23.5704   28.2026 N   0  0  0  0  0  0  0  0  0  0  0  0
  -19.7509  -20.0261   28.7594 N   0  3  0  0  0  0  0  0  0  0  0  0
  -22.8755  -14.6619   21.9004 O   0  0  0  0  0  0  0  0  0  0  0  0
  -20.1701  -26.5390   23.3512 O   0  0  0  0  0  0  0  0  0  0  0  0
  -18.5149  -25.5642   27.0121 O   0  0  0  0  0  0  0  0  0  0  0  0
  -21.3841  -21.7954   27.3037 O   0  0  0  0  0  0  0  0  0  0  0  0
  -30.7576  -15.3354   17.4220 O   0  0  0  0  0  0  0  0  0  0  0  0
  -21.6048   -6.9987   21.4026 O   0  0  0  0  0  0  0  0  0  0  0  0
  -25.2529  -20.3054   15.8539 O   0  0  0  0  0  0  0  0  0  0  0  0
  -22.1337  -21.4367   20.5409 O   0  0  0  0  0  0  0  0  0  1  0  0
  -18.8424   -6.3465   26.1300 F   0  0  0  0  0  0  0  0  0  0  0  0
  -22.0876   -4.8234   23.0389 F   0  0  0  0  0  0  0  0  0  0  0  0
  1  2  1  0  0  0  0
  1  5  2  0  0  0  0
  2  6  2  0  0  0  0
  3  8  2  0  0  0  0
  3 17  1  0  0  0  0
  4  9  1  0  0  0  0
  4 17  2  0  0  0  0
  5 19  1  0  0  0  0
  6 21  1  0  0  0  0
  7 10  2  0  0  0  0
  7 20  1  0  0  0  0
  8 26  1  0  0  0  0
  9 26  2  0  0  0  0
 10 27  1  0  0  0  0
 11 12  2  0  0  0  0
 11 28  1  0  0  0  0
 12 30  1  0  0  0  0
 13 22  2  0  0  0  0
 13 24  1  0  0  0  0
 14 23  1  0  0  0  0
 14 27  2  0  0  0  0
 15 25  1  0  0  0  0
 15 29  2  0  0  0  0
 16 30  2  0  0  0  0
 16 31  1  0  0  0  0
 17 32  1  0  0  0  0
 18 32  1  0  0  0  0
 18 33  2  0  0  0  0
 18 34  1  0  0  0  0
 19 21  2  0  0  0  0
 19 39  1  0  0  0  0
 20 23  2  0  0  0  0
 20 40  1  0  0  0  0
 21 53  1  0  0  0  0
 22 29  1  0  0  0  0
 22 52  1  0  0  0  0
 23 41  1  0  0  0  0
 24 25  2  0  0  0  0
 24 56  1  0  0  0  0
 25 63  1  0  0  0  0
 26 82  1  0  0  0  0
 27 84  1  0  0  0  0
 28 31  2  0  0  0  0
 28 82  1  0  0  0  0
 29 83  1  0  0  0  0
 30 85  1  0  0  0  0
 31 86  1  0  0  0  0
 32 67  2  0  0  0  0
 33 68  1  0  0  0  0
 33 72  1  0  0  0  0
 34 73  1  0  0  0  0
 34 77  2  0  0  0  0
 35 54  1  0  0  0  0
 35 74  1  0  0  0  0
 35 78  2  0  0  0  0
 36 64  1  0  0  0  0
 36 69  1  0  0  0  0
 36 79  2  0  0  0  0
 37 65  1  0  0  0  0
 37 75  1  0  0  0  0
 37 80  2  0  0  0  0
 38 70  1  0  0  0  0
 38 71  1  0  0  0  0
 38 81  2  0  0  0  0
 39 42  1  0  0  0  0
 40 54  1  0  0  0  0
 41 69  1  0  0  0  0
 42 44  1  0  0  0  0
 43 45  1  0  0  0  0
 43 48  1  0  0  0  0
 44 53  1  0  0  0  0
 45 55  1  0  0  0  0
 46 49  1  0  0  0  0
 46 52  1  0  0  0  0
 47 50  1  0  0  0  0
 47 52  1  0  0  0  0
 48 70  1  0  0  0  0
 49 71  1  0  0  0  0
 50 71  1  0  0  0  0
 51 55  1  0  0  0  0
 51 70  1  0  0  0  0
 53 74  1  0  0  0  0
 54 69  1  0  0  0  0
 55 68  1  0  0  0  0
 57 65  1  0  0  0  0
 58 66  1  0  0  0  0
 59 66  1  0  0  0  0
 60 66  1  0  0  0  0
 61 76  1  0  0  0  0
 62 83  1  0  0  0  0
 63 84  1  0  0  0  0
 64 66  1  0  0  0  0
 64 75  1  0  0  0  0
 65 76  1  0  0  0  0
 67 68  1  0  0  0  0
M  CHG  1  76   1
M  ISO  4  38 100  63 101  71 100  84 101
M  END
> <Batch ID>
0165

> <Smiles>
CNC(C)C(=O)NC(C(=O)N1Cc2cc([101O:1][101CH2:1]c3cc(OC)c(C4CC[100N:0]([100C:0](=O)N5CCCC(n6nc(-c7ccc(Oc8ccc(F)cc8F)cc7)c(C(N)=O)c6N)C5)CC4)cc3C)ccc2CC1C(=O)NC1CCCc2ccccc21)C(C)(C)C

> <Shape>
0.188

> <Color>
0.165

> <Negative vol penalty>
0.000

$$$$

  -OEChem-04052322223D

 86 95  0     1  0  0  0  0  0999 V2000
  -28.9394  -33.8407   26.1967 C   0  0  0  0  0  0  0  0  0  0  0  0
  -28.7730  -32.5803   25.6319 C   0  0  0  0  0  0  0  0  0  0  0  0
  -24.3035   -9.0627   21.8737 C   0  0  0  0  0  0  0  0  0  0  0  0
  -24.1882   -8.2715   19.5938 C   0  0  0  0  0  0  0  0  0  0  0  0
  -27.8340  -34.6681   26.3901 C   0  0  0  0  0  0  0  0  0  0  0  0
  -27.5008  -32.1461   25.2611 C   0  0  0  0  0  0  0  0  0  0  0  0
  -27.4511  -29.9478   20.6993 C   0  0  0  0  0  0  0  0  0  0  0  0
  -23.1837   -8.2963   22.1963 C   0  0  0  0  0  0  0  0  0  0  0  0
  -23.0683   -7.5051   19.9164 C   0  0  0  0  0  0  0  0  0  0  0  0
  -27.9143  -28.6352   20.6199 C   0  0  0  0  0  0  0  0  0  0  0  0
  -22.4948   -5.0574   22.8803 C   0  0  0  0  0  0  0  0  0  0  0  0
  -22.5358   -4.3142   24.0599 C   0  0  0  0  0  0  0  0  0  0  0  0
  -25.6375  -27.8381   20.6199 C   0  0  0  0  0  0  0  0  0  0  0  0
  -20.6139   -5.5218   24.8876 C   0  0  0  0  0  0  0  0  0  0  0  0
  -29.8611  -22.9185   18.9976 C   0  0  0  0  0  0  0  0  0  0  0  0
  -24.8058   -9.0503   20.5724 C   0  0  0  0  0  0  0  0  0  0  0  0
  -27.3117   -9.4473   20.3070 C   0  0  0  0  0  0  0  0  0  0  0  0
  -26.5489  -34.2476   26.0127 C   0  0  0  0  0  0  0  0  0  0  0  0
  -26.0754  -30.2152   20.7507 C   0  0  0  0  0  0  0  0  0  0  0  0
  -26.3770  -32.9681   25.4509 C   0  0  0  0  0  0  0  0  0  0  0  0
  -25.1593  -29.1550   20.6974 C   0  0  0  0  0  0  0  0  0  0  0  0
  -29.3340  -22.4623   21.2715 C   0  0  0  0  0  0  0  0  0  0  0  0
  -29.0354  -23.8097   21.4409 C   0  0  0  0  0  0  0  0  0  0  0  0
  -22.5661   -7.5174   21.2177 C   0  0  0  0  0  0  0  0  0  0  0  0
  -27.0076  -27.5800   20.5832 C   0  0  0  0  0  0  0  0  0  0  0  0
  -21.5133   -6.0328   22.7043 C   0  0  0  0  0  0  0  0  0  0  0  0
  -29.7554  -22.0001   20.0297 C   0  0  0  0  0  0  0  0  0  0  0  0
  -21.5954   -4.5464   25.0636 C   0  0  0  0  0  0  0  0  0  0  0  0
  -20.5729   -6.2650   23.7079 C   0  0  0  0  0  0  0  0  0  0  0  0
  -25.9623   -9.8423   20.2384 C   0  0  0  0  0  0  0  0  0  0  0  0
  -29.1735  -24.6471   20.3457 C   0  0  0  0  0  0  0  0  0  0  0  0
  -28.0142  -10.5506   19.8877 C   0  0  0  0  0  0  0  0  0  0  0  0
  -27.8795   -8.1950   20.7133 C   0  0  0  0  0  0  0  0  0  0  0  0
  -24.1329  -31.5792   22.8649 C   0  0  0  0  0  0  0  0  0  0  0  0
  -21.9393  -31.2099   20.5039 C   0  0  0  0  0  0  0  0  0  0  0  0
  -20.9571  -29.5337   17.6981 C   0  0  0  0  0  0  0  0  0  0  0  0
  -29.0627  -15.8147   19.8354 C   0  0  0  0  0  0  0  0  0  0  0  0
  -25.3780  -35.1584   26.2849 C   0  0  0  0  0  0  0  0  0  0  0  0
  -25.5913  -31.6381   20.8092 C   0  0  0  0  0  0  0  0  0  0  0  0
  -23.6720  -29.3899   20.7293 C   0  0  0  0  0  0  0  0  0  0  0  0
  -24.1147  -34.7714   25.5202 C   0  0  0  0  0  0  0  0  0  0  0  0
  -26.4499  -14.8305   17.7079 C   0  0  0  0  0  0  0  0  0  0  0  0
  -23.8627  -33.2710   25.6301 C   0  0  0  0  0  0  0  0  0  0  0  0
  -26.1934  -13.4007   18.1837 C   0  0  0  0  0  0  0  0  0  0  0  0
  -30.1507  -18.9299   18.1446 C   0  0  0  0  0  0  0  0  0  0  0  0
  -28.0365  -19.3989   19.4560 C   0  0  0  0  0  0  0  0  0  0  0  0
  -26.7186  -15.7829   18.8743 C   0  0  0  0  0  0  0  0  0  0  0  0
  -30.4111  -17.7223   19.0437 C   0  0  0  0  0  0  0  0  0  0  0  0
  -28.3471  -18.1836   20.3268 C   0  0  0  0  0  0  0  0  0  0  0  0
  -27.5428  -13.9044   20.2557 C   0  0  0  0  0  0  0  0  0  0  0  0
  -25.0163  -32.4712   25.0131 C   0  0  1  0  0  0  0  0  0  0  0  0
  -24.1802  -31.7663   21.3747 C   0  0  1  0  0  0  0  0  0  0  0  0
  -27.3276  -12.9122   19.1022 C   0  0  1  0  0  0  0  0  0  0  0  0
  -29.2945  -19.9984   18.8253 C   0  0  0  0  0  0  0  0  0  0  0  0
  -29.2055  -21.5083   22.4150 C   0  0  0  0  0  0  0  0  0  0  0  0
  -28.5796  -24.3354   22.7605 C   0  0  0  0  0  0  0  0  0  0  0  0
  -19.1004  -29.4318   16.0129 C   0  0  0  0  0  0  0  0  0  0  0  0
  -20.1732  -29.7794   22.5397 C   0  0  0  0  0  0  0  0  0  0  0  0
  -18.8159  -28.8899   20.6332 C   0  0  0  0  0  0  0  0  0  0  0  0
  -18.9544  -31.3500   21.0224 C   0  0  0  0  0  0  0  0  0  0  0  0
  -22.7879  -30.1951   15.4689 C   0  0  0  0  0  0  0  0  0  0  0  0
  -28.8693  -26.1047   20.4669 C   0  0  0  0  0  0  0  0  0  1  0  0
  -20.9677  -30.1246   20.1075 C   0  0  1  0  0  0  0  0  0  0  0  0
  -20.4577  -30.0279   16.3525 C   0  0  2  0  0  0  0  0  0  0  0  0
  -19.7558  -30.0311   21.0770 C   0  0  0  0  0  0  0  0  0  0  0  0
  -29.5801  -24.2348   19.1240 N   0  0  0  0  0  0  0  0  0  0  0  0
  -25.8139  -11.0985   19.8094 N   0  0  0  0  0  0  0  0  0  0  0  0
  -27.0792  -11.5024   19.6048 N   0  0  0  0  0  0  0  0  0  0  0  0
  -23.2481  -30.7983   20.7931 N   0  0  0  0  0  0  0  0  0  0  0  0
  -27.7793  -15.2555   19.7431 N   0  0  0  0  0  0  0  0  0  0  0  0
  -29.1703  -17.1980   19.6133 N   0  0  0  0  0  0  0  0  0  0  0  0
  -29.3342  -10.7897   19.7372 N   0  0  0  0  0  0  0  0  0  0  0  0
  -27.0143   -7.1678   21.1143 N   0  0  0  0  0  0  0  0  0  0  0  0
  -24.9170  -32.4728   23.5693 N   0  0  0  0  0  0  0  0  0  0  0  0
  -20.6037  -30.3896   18.7198 N   0  0  0  0  0  0  0  0  0  0  0  0
  -21.4175  -29.6553   15.2750 N   0  3  0  0  0  0  0  0  0  0  0  0
  -29.1182   -7.9983   20.7362 O   0  0  0  0  0  0  0  0  0  0  0  0
  -23.4354  -30.6909   23.3404 O   0  0  0  0  0  0  0  0  0  0  0  0
  -21.5532  -32.3806   20.5481 O   0  0  0  0  0  0  0  0  0  0  0  0
  -21.5936  -28.4906   17.8302 O   0  0  0  0  0  0  0  0  0  0  0  0
  -30.0542  -15.1220   20.0967 O   0  0  0  0  0  0  0  0  0  0  0  0
  -21.4734   -6.7693   21.5322 O   0  0  0  0  0  0  0  0  0  0  0  0
  -30.0603  -20.6818   19.8152 O   0  0  0  0  0  0  0  0  0  0  0  0
  -27.4603  -26.2886   20.5058 O   0  0  0  0  0  0  0  0  0  1  0  0
  -21.6339   -3.8316   26.1957 F   0  0  0  0  0  0  0  0  0  0  0  0
  -19.6269   -7.2000   23.5441 F   0  0  0  0  0  0  0  0  0  0  0  0
  1  2  1  0  0  0  0
  1  5  2  0  0  0  0
  2  6  2  0  0  0  0
  3  8  2  0  0  0  0
  3 16  1  0  0  0  0
  4  9  1  0  0  0  0
  4 16  2  0  0  0  0
  5 18  1  0  0  0  0
  6 20  1  0  0  0  0
  7 10  2  0  0  0  0
  7 19  1  0  0  0  0
  8 24  1  0  0  0  0
  9 24  2  0  0  0  0
 10 25  1  0  0  0  0
 11 12  2  0  0  0  0
 11 26  1  0  0  0  0
 12 28  1  0  0  0  0
 13 21  1  0  0  0  0
 13 25  2  0  0  0  0
 14 28  2  0  0  0  0
 14 29  1  0  0  0  0
 15 27  1  0  0  0  0
 15 66  2  0  0  0  0
 16 30  1  0  0  0  0
 17 30  1  0  0  0  0
 17 32  2  0  0  0  0
 17 33  1  0  0  0  0
 18 20  2  0  0  0  0
 18 38  1  0  0  0  0
 19 21  2  0  0  0  0
 19 39  1  0  0  0  0
 20 51  1  0  0  0  0
 21 40  1  0  0  0  0
 22 23  1  0  0  0  0
 22 27  2  0  0  0  0
 22 55  1  0  0  0  0
 23 31  2  0  0  0  0
 23 56  1  0  0  0  0
 24 82  1  0  0  0  0
 25 84  1  0  0  0  0
 26 29  2  0  0  0  0
 26 82  1  0  0  0  0
 27 83  1  0  0  0  0
 28 85  1  0  0  0  0
 29 86  1  0  0  0  0
 30 67  2  0  0  0  0
 31 62  1  0  0  0  0
 31 66  1  0  0  0  0
 32 68  1  0  0  0  0
 32 72  1  0  0  0  0
 33 73  1  0  0  0  0
 33 77  2  0  0  0  0
 34 52  1  0  0  0  0
 34 74  1  0  0  0  0
 34 78  2  0  0  0  0
 35 63  1  0  0  0  0
 35 69  1  0  0  0  0
 35 79  2  0  0  0  0
 36 64  1  0  0  0  0
 36 75  1  0  0  0  0
 36 80  2  0  0  0  0
 37 70  1  0  0  0  0
 37 71  1  0  0  0  0
 37 81  2  0  0  0  0
 38 41  1  0  0  0  0
 39 52  1  0  0  0  0
 40 69  1  0  0  0  0
 41 43  1  0  0  0  0
 42 44  1  0  0  0  0
 42 47  1  0  0  0  0
 43 51  1  0  0  0  0
 44 53  1  0  0  0  0
 45 48  1  0  0  0  0
 45 54  1  0  0  0  0
 46 49  1  0  0  0  0
 46 54  1  0  0  0  0
 47 70  1  0  0  0  0
 48 71  1  0  0  0  0
 49 71  1  0  0  0  0
 50 53  1  0  0  0  0
 50 70  1  0  0  0  0
 51 74  1  0  0  0  0
 52 69  1  0  0  0  0
 53 68  1  0  0  0  0
 54 83  1  0  0  0  0
 57 64  1  0  0  0  0
 58 65  1  0  0  0  0
 59 65  1  0  0  0  0
 60 65  1  0  0  0  0
 61 76  1  0  0  0  0
 62 84  1  0  0  0  0
 63 65  1  0  0  0  0
 63 75  1  0  0  0  0
 64 76  1  0  0  0  0
 67 68  1  0  0  0  0
M  CHG  1  76   1
M  ISO  4  37 100  62 101  71 100  84 101
M  END
> <Batch ID>
0165

> <Smiles>
CNC(C)C(=O)NC(C(=O)N1Cc2cc([101O:1][101CH2:1]c3ncc(OC4CC[100N:0]([100C:0](=O)N5CCCC(n6nc(-c7ccc(Oc8ccc(F)cc8F)cc7)c(C(N)=O)c6N)C5)CC4)c(C)c3C)ccc2CC1C(=O)NC1CCCc2ccccc21)C(C)(C)C

> <Shape>
0.311

> <Color>
0.099

> <Negative vol penalty>
0.000

$$$$

  -OEChem-04052322223D

 85 94  0     1  0  0  0  0  0999 V2000
  -30.2494  -31.3328   28.4348 C   0  0  0  0  0  0  0  0  0  0  0  0
  -29.6409  -30.0875   28.3148 C   0  0  0  0  0  0  0  0  0  0  0  0
  -23.0045   -9.8891   19.9820 C   0  0  0  0  0  0  0  0  0  0  0  0
  -23.7286   -9.9478   22.2862 C   0  0  0  0  0  0  0  0  0  0  0  0
  -29.9020  -32.3640   27.5631 C   0  0  0  0  0  0  0  0  0  0  0  0
  -28.6838  -29.8730   27.3236 C   0  0  0  0  0  0  0  0  0  0  0  0
  -29.3525  -25.4797   24.8954 C   0  0  0  0  0  0  0  0  0  0  0  0
  -22.2405   -8.7535   20.2510 C   0  0  0  0  0  0  0  0  0  0  0  0
  -22.9646   -8.8123   22.5552 C   0  0  0  0  0  0  0  0  0  0  0  0
  -28.9281  -24.3218   25.5456 C   0  0  0  0  0  0  0  0  0  0  0  0
  -23.2168   -5.4727   22.0923 C   0  0  0  0  0  0  0  0  0  0  0  0
  -23.8063   -4.4588   22.8473 C   0  0  0  0  0  0  0  0  0  0  0  0
  -26.9128  -24.3231   24.2198 C   0  0  0  0  0  0  0  0  0  0  0  0
  -29.3819  -18.8908   22.1022 C   0  0  0  0  0  0  0  0  0  0  0  0
  -22.0812   -4.7022   24.5212 C   0  0  0  0  0  0  0  0  0  0  0  0
  -23.7487  -10.4862   20.9996 C   0  0  0  0  0  0  0  0  0  0  0  0
  -24.1282  -13.0022   20.8171 C   0  0  0  0  0  0  0  0  0  0  0  0
  -28.9472  -32.1593   26.5546 C   0  0  0  0  0  0  0  0  0  0  0  0
  -28.5539  -26.0752   23.9084 C   0  0  0  0  0  0  0  0  0  0  0  0
  -28.3223  -30.9029   26.4385 C   0  0  0  0  0  0  0  0  0  0  0  0
  -27.3305  -25.4871   23.5567 C   0  0  0  0  0  0  0  0  0  0  0  0
  -28.5747  -19.7312   22.8608 C   0  0  0  0  0  0  0  0  0  0  0  0
  -29.9425  -17.7606   22.6868 C   0  0  0  0  0  0  0  0  0  0  0  0
  -22.2205   -8.2151   21.5376 C   0  0  0  0  0  0  0  0  0  0  0  0
  -27.7068  -23.7449   25.2099 C   0  0  0  0  0  0  0  0  0  0  0  0
  -22.0594   -6.1014   22.5517 C   0  0  0  0  0  0  0  0  0  0  0  0
  -23.2385   -4.0736   24.0618 C   0  0  0  0  0  0  0  0  0  0  0  0
  -21.4916   -5.7161   23.7661 C   0  0  0  0  0  0  0  0  0  0  0  0
  -24.5385  -11.6589   20.7222 C   0  0  0  0  0  0  0  0  0  0  0  0
  -28.3608  -19.3999   24.1890 C   0  0  0  0  0  0  0  0  0  0  0  0
  -29.6675  -17.5176   24.0229 C   0  0  0  0  0  0  0  0  0  0  0  0
  -25.2365  -13.7264   20.4512 C   0  0  0  0  0  0  0  0  0  0  0  0
  -22.8589  -13.5467   21.2016 C   0  0  0  0  0  0  0  0  0  0  0  0
  -27.1132  -28.8901   23.5855 C   0  0  0  0  0  0  0  0  0  0  0  0
  -26.4407  -27.7670   20.6176 C   0  0  0  0  0  0  0  0  0  0  0  0
  -26.0149  -25.0722   18.5673 C   0  0  0  0  0  0  0  0  0  0  0  0
  -30.7306  -14.6743   20.6995 C   0  0  0  0  0  0  0  0  0  0  0  0
  -28.5698  -33.3181   25.6661 C   0  0  0  0  0  0  0  0  0  0  0  0
  -29.0382  -27.3091   23.1976 C   0  0  0  0  0  0  0  0  0  0  0  0
  -26.4453  -26.0759   22.4899 C   0  0  0  0  0  0  0  0  0  0  0  0
  -27.8192  -32.8991   24.4046 C   0  0  0  0  0  0  0  0  0  0  0  0
  -29.5965  -12.2418   18.3600 C   0  0  0  0  0  0  0  0  0  0  0  0
  -26.7157  -31.9029   24.7461 C   0  0  0  0  0  0  0  0  0  0  0  0
  -28.1484  -11.9798   18.7777 C   0  0  0  0  0  0  0  0  0  0  0  0
  -27.7047  -20.2679   26.5325 C   0  0  0  0  0  0  0  0  0  0  0  0
  -30.4978  -12.4825   19.5690 C   0  0  0  0  0  0  0  0  0  0  0  0
  -28.5853  -13.2771   20.9049 C   0  0  0  0  0  0  0  0  0  0  0  0
  -27.2976  -30.6241   25.3604 C   0  0  1  0  0  0  0  0  0  0  0  0
  -27.5061  -20.2669   25.0348 C   0  0  1  0  0  0  0  0  0  0  0  0
  -27.9082  -28.1194   22.5699 C   0  0  1  0  0  0  0  0  0  0  0  0
  -27.6272  -13.0841   19.7170 C   0  0  2  0  0  0  0  0  0  0  0  0
  -28.1222  -21.4616   25.7293 C   0  0  1  0  0  0  0  0  0  1  0  0
  -30.2394  -16.3166   24.7023 C   0  0  0  0  0  0  0  0  0  0  0  0
  -27.0097  -20.5966   21.0844 C   0  0  0  0  0  0  0  0  0  0  0  0
  -29.0345  -21.9448   21.7459 C   0  0  0  0  0  0  0  0  0  0  0  0
  -25.4327  -24.4691   16.2020 C   0  0  0  0  0  0  0  0  0  0  0  0
  -23.5070  -28.3853   21.1846 C   0  0  0  0  0  0  0  0  0  0  0  0
  -22.8965  -26.9241   19.2454 C   0  0  0  0  0  0  0  0  0  0  0  0
  -24.2700  -28.9736   18.8767 C   0  0  0  0  0  0  0  0  0  0  0  0
  -28.6239  -23.7415   18.1418 C   0  0  0  0  0  0  0  0  0  0  0  0
  -30.8078  -16.8565   21.8790 C   0  0  0  0  0  0  0  0  0  0  0  0
  -27.9719  -20.9428   22.2372 C   0  0  0  0  0  0  0  0  0  0  0  0
  -25.3151  -26.9678   20.0066 C   0  0  1  0  0  0  0  0  0  0  0  0
  -26.5566  -24.7642   17.1830 C   0  0  2  0  0  0  0  0  0  0  0  0
  -24.0127  -27.8024   19.8498 C   0  0  0  0  0  0  0  0  0  0  0  0
  -25.8083  -11.5343   20.3269 N   0  0  0  0  0  0  0  0  0  0  0  0
  -28.8883  -18.3109   24.7918 N   0  0  0  0  0  0  0  0  0  0  0  0
  -26.2054  -12.8086   20.1700 N   0  0  0  0  0  0  0  0  0  0  0  0
  -26.9598  -27.2862   21.8280 N   0  0  0  0  0  0  0  0  0  0  0  0
  -29.9482  -13.5422   20.4181 N   0  0  0  0  0  0  0  0  0  0  0  0
  -25.4669  -15.0523   20.3457 N   0  0  0  0  0  0  0  0  0  0  0  0
  -21.8290  -12.6611   21.5470 N   0  0  0  0  0  0  0  0  0  0  0  0
  -27.8635  -29.7804   24.3296 N   0  0  0  0  0  0  0  0  0  0  0  0
  -25.8320  -26.4260   18.7545 N   0  0  0  0  0  0  0  0  0  0  0  0
  -30.1317  -15.6338   21.5066 N   0  0  0  0  0  0  0  0  0  0  0  0
  -27.4604  -23.5803   17.2322 N   0  3  0  0  0  0  0  0  0  0  0  0
  -22.6393  -14.7816   21.2220 O   0  0  0  0  0  0  0  0  0  0  0  0
  -25.9079  -28.6927   23.6856 O   0  0  0  0  0  0  0  0  0  0  0  0
  -26.8492  -28.7766   20.0384 O   0  0  0  0  0  0  0  0  0  0  0  0
  -25.7743  -24.1990   19.3980 O   0  0  0  0  0  0  0  0  0  0  0  0
  -31.8759  -14.8217   20.2596 O   0  0  0  0  0  0  0  0  0  0  0  0
  -21.4749   -7.1072   21.8006 O   0  0  0  0  0  0  0  0  0  0  0  0
  -27.2899  -22.6150   25.8435 O   0  0  0  0  0  0  0  0  0  1  0  0
  -23.8039   -3.0989   24.7860 F   0  0  0  0  0  0  0  0  0  0  0  0
  -20.3792   -6.3156   24.2121 F   0  0  0  0  0  0  0  0  0  0  0  0
  1  2  1  0  0  0  0
  1  5  2  0  0  0  0
  2  6  2  0  0  0  0
  3  8  2  0  0  0  0
  3 16  1  0  0  0  0
  4  9  1  0  0  0  0
  4 16  2  0  0  0  0
  5 18  1  0  0  0  0
  6 20  1  0  0  0  0
  7 10  2  0  0  0  0
  7 19  1  0  0  0  0
  8 24  1  0  0  0  0
  9 24  2  0  0  0  0
 10 25  1  0  0  0  0
 11 12  2  0  0  0  0
 11 26  1  0  0  0  0
 12 27  1  0  0  0  0
 13 21  1  0  0  0  0
 13 25  2  0  0  0  0
 14 22  1  0  0  0  0
 14 23  2  0  0  0  0
 15 27  2  0  0  0  0
 15 28  1  0  0  0  0
 16 29  1  0  0  0  0
 17 29  1  0  0  0  0
 17 32  2  0  0  0  0
 17 33  1  0  0  0  0
 18 20  2  0  0  0  0
 18 38  1  0  0  0  0
 19 21  2  0  0  0  0
 19 39  1  0  0  0  0
 20 48  1  0  0  0  0
 21 40  1  0  0  0  0
 22 30  2  0  0  0  0
 22 62  1  0  0  0  0
 23 31  1  0  0  0  0
 23 61  1  0  0  0  0
 24 82  1  0  0  0  0
 25 83  1  0  0  0  0
 26 28  2  0  0  0  0
 26 82  1  0  0  0  0
 27 84  1  0  0  0  0
 28 85  1  0  0  0  0
 29 66  2  0  0  0  0
 30 49  1  0  0  0  0
 30 67  1  0  0  0  0
 31 53  1  0  0  0  0
 31 67  2  0  0  0  0
 32 68  1  0  0  0  0
 32 71  1  0  0  0  0
 33 72  1  0  0  0  0
 33 77  2  0  0  0  0
 34 50  1  0  0  0  0
 34 73  1  0  0  0  0
 34 78  2  0  0  0  0
 35 63  1  0  0  0  0
 35 69  1  0  0  0  0
 35 79  2  0  0  0  0
 36 64  1  0  0  0  0
 36 74  1  0  0  0  0
 36 80  2  0  0  0  0
 37 70  1  0  0  0  0
 37 75  1  0  0  0  0
 37 81  2  0  0  0  0
 38 41  1  0  0  0  0
 39 50  1  0  0  0  0
 40 69  1  0  0  0  0
 41 43  1  0  0  0  0
 42 44  1  0  0  0  0
 42 46  1  0  0  0  0
 43 48  1  0  0  0  0
 44 51  1  0  0  0  0
 45 49  1  0  0  0  0
 45 52  1  0  0  0  0
 46 70  1  0  0  0  0
 47 51  1  0  0  0  0
 47 70  1  0  0  0  0
 48 73  1  0  0  0  0
 49 52  1  0  0  0  0
 50 69  1  0  0  0  0
 51 68  1  0  0  0  0
 52 83  1  0  0  0  0
 54 62  1  0  0  0  0
 55 62  1  0  0  0  0
 56 64  1  0  0  0  0
 57 65  1  0  0  0  0
 58 65  1  0  0  0  0
 59 65  1  0  0  0  0
 60 76  1  0  0  0  0
 61 75  1  0  0  0  0
 63 65  1  0  0  0  0
 63 74  1  0  0  0  0
 64 76  1  0  0  0  0
 66 68  1  0  0  0  0
M  CHG  1  76   1
M  ISO  4  37 100  52 101  75 100  83 101
M  END
> <Batch ID>
0165

> <Smiles>
CNC(C)C(=O)NC(C(=O)N1Cc2cc([101O:1][101CH:1]3CC3c3nc(C)c(C[100NH:0][100C:0](=O)N4CCCC(n5nc(-c6ccc(Oc7ccc(F)cc7F)cc6)c(C(N)=O)c5N)C4)cc3C(C)C)ccc2CC1C(=O)NC1CCCc2ccccc21)C(C)(C)C

> <Shape>
0.289

> <Color>
0.197

> <Negative vol penalty>
0.000

$$$$

  -OEChem-04052322223D

 86 95  0     1  0  0  0  0  0999 V2000
  -30.5744  -25.3458   16.6266 C   0  0  0  0  0  0  0  0  0  0  0  0
  -29.3816  -25.1643   17.3193 C   0  0  0  0  0  0  0  0  0  0  0  0
  -25.2270  -13.8207   21.4120 C   0  0  0  0  0  0  0  0  0  0  0  0
  -26.7513  -12.7915   19.8453 C   0  0  0  0  0  0  0  0  0  0  0  0
  -31.5469  -26.2090   17.1296 C   0  0  0  0  0  0  0  0  0  0  0  0
  -29.1612  -25.8452   18.5160 C   0  0  0  0  0  0  0  0  0  0  0  0
  -24.5200  -27.8537   18.7820 C   0  0  0  0  0  0  0  0  0  0  0  0
  -24.2465  -12.8895   21.0698 C   0  0  0  0  0  0  0  0  0  0  0  0
  -25.7707  -11.8603   19.5031 C   0  0  0  0  0  0  0  0  0  0  0  0
  -23.4691  -26.9901   19.0881 C   0  0  0  0  0  0  0  0  0  0  0  0
  -23.5144   -9.6666   21.7838 C   0  0  0  0  0  0  0  0  0  0  0  0
  -22.7960   -9.0711   22.8206 C   0  0  0  0  0  0  0  0  0  0  0  0
  -23.5247  -27.7442   21.3788 C   0  0  0  0  0  0  0  0  0  0  0  0
  -20.7433   -9.9629   21.9104 C   0  0  0  0  0  0  0  0  0  0  0  0
  -21.8440  -20.3808   19.3354 C   0  0  0  0  0  0  0  0  0  0  0  0
  -26.4794  -13.7717   20.7997 C   0  0  0  0  0  0  0  0  0  0  0  0
  -28.4589  -14.6164   22.1693 C   0  0  0  0  0  0  0  0  0  0  0  0
  -31.3343  -26.9082   18.3281 C   0  0  0  0  0  0  0  0  0  0  0  0
  -25.0893  -28.6624   19.7761 C   0  0  0  0  0  0  0  0  0  0  0  0
  -30.1323  -26.7176   19.0362 C   0  0  0  0  0  0  0  0  0  0  0  0
  -24.5810  -28.6190   21.0822 C   0  0  0  0  0  0  0  0  0  0  0  0
  -21.0049  -22.5030   20.0052 C   0  0  0  0  0  0  0  0  0  0  0  0
  -19.8486  -22.2411   19.2788 C   0  0  0  0  0  0  0  0  0  0  0  0
  -24.5183  -11.9093   20.1154 C   0  0  0  0  0  0  0  0  0  0  0  0
  -22.9732  -26.9332   20.3873 C   0  0  0  0  0  0  0  0  0  0  0  0
  -22.8473  -10.4104   20.8104 C   0  0  0  0  0  0  0  0  0  0  0  0
  -22.0264  -21.5603   20.0392 C   0  0  0  0  0  0  0  0  0  0  0  0
  -21.4105   -9.2192   22.8839 C   0  0  0  0  0  0  0  0  0  0  0  0
  -21.4618  -10.5585   20.8737 C   0  0  0  0  0  0  0  0  0  0  0  0
  -27.4925  -14.7337   21.1524 C   0  0  0  0  0  0  0  0  0  0  0  0
  -19.7638  -21.0312   18.6089 C   0  0  0  0  0  0  0  0  0  0  0  0
  -29.1762  -15.7855   22.0978 C   0  0  0  0  0  0  0  0  0  0  0  0
  -28.6878  -13.5463   23.0957 C   0  0  0  0  0  0  0  0  0  0  0  0
  -27.9779  -28.9182   21.0778 C   0  0  0  0  0  0  0  0  0  0  0  0
  -26.6480  -31.4674   22.5797 C   0  0  0  0  0  0  0  0  0  0  0  0
  -23.8227  -33.0225   23.6959 C   0  0  0  0  0  0  0  0  0  0  0  0
  -27.7083  -21.2377   19.8882 C   0  0  0  0  0  0  0  0  0  0  0  0
  -32.4344  -27.7942   18.8566 C   0  0  0  0  0  0  0  0  0  0  0  0
  -26.2046  -29.6080   19.4238 C   0  0  0  0  0  0  0  0  0  0  0  0
  -25.1438  -29.4814   22.1812 C   0  0  0  0  0  0  0  0  0  0  0  0
  -31.9679  -28.7647   19.9387 C   0  0  0  0  0  0  0  0  0  0  0  0
  -30.5355  -19.1809   19.0466 C   0  0  0  0  0  0  0  0  0  0  0  0
  -31.1085  -28.0410   20.9704 C   0  0  0  0  0  0  0  0  0  0  0  0
  -30.1446  -17.7875   19.5279 C   0  0  0  0  0  0  0  0  0  0  0  0
  -29.3181  -19.9423   18.5396 C   0  0  0  0  0  0  0  0  0  0  0  0
  -27.8318  -18.6947   20.0856 C   0  0  0  0  0  0  0  0  0  0  0  0
  -25.5962  -22.4678   20.6160 C   0  0  0  0  0  0  0  0  0  0  0  0
  -25.2128  -20.4622   20.0179 C   0  0  0  0  0  0  0  0  0  0  0  0
  -29.8459  -27.4573   20.3250 C   0  0  1  0  0  0  0  0  0  0  0  0
  -27.0494  -30.0109   20.6286 C   0  0  1  0  0  0  0  0  0  0  0  0
  -29.0381  -17.8768   20.5886 C   0  0  1  0  0  0  0  0  0  0  0  0
  -24.3951  -21.7622   19.9732 C   0  0  0  0  0  0  0  0  0  0  0  0
  -18.7347  -23.2321   19.2243 C   0  0  0  0  0  0  0  0  0  0  0  0
  -18.5470  -20.6944   17.8102 C   0  0  0  0  0  0  0  0  0  0  0  0
  -23.0565  -35.0751   24.9197 C   0  0  0  0  0  0  0  0  0  0  0  0
  -27.5716  -30.2379   25.2151 C   0  0  0  0  0  0  0  0  0  0  0  0
  -25.9963  -31.7777   26.4051 C   0  0  0  0  0  0  0  0  0  0  0  0
  -27.8741  -32.7154   25.0571 C   0  0  0  0  0  0  0  0  0  0  0  0
  -22.2341  -33.9525   21.3785 C   0  0  0  0  0  0  0  0  0  0  0  0
  -21.8499  -24.8883   19.9261 C   0  0  0  0  0  0  0  0  0  1  0  0
  -21.1571  -23.7907   20.7489 C   0  0  2  0  0  0  0  0  0  0  0  0
  -25.8976  -31.6743   23.8732 C   0  0  1  0  0  0  0  0  0  0  0  0
  -23.3413  -34.4558   23.5602 C   0  0  2  0  0  0  0  0  0  0  0  0
  -26.8253  -31.5835   25.1175 C   0  0  0  0  0  0  0  0  0  0  0  0
  -20.7351  -20.0909   18.6185 N   0  0  0  0  0  0  0  0  0  0  0  0
  -27.5846  -15.8864   20.4840 N   0  0  0  0  0  0  0  0  0  0  0  0
  -28.6174  -16.5042   21.0822 N   0  0  0  0  0  0  0  0  0  0  0  0
  -26.2377  -30.3851   21.7884 N   0  0  0  0  0  0  0  0  0  0  0  0
  -28.2446  -19.9939   19.5367 N   0  0  0  0  0  0  0  0  0  0  0  0
  -26.3810  -21.2960   20.2463 N   0  0  0  0  0  0  0  0  0  0  0  0
  -30.2240  -16.2587   22.8053 N   0  0  0  0  0  0  0  0  0  0  0  0
  -27.8587  -12.4181   23.0314 N   0  0  0  0  0  0  0  0  0  0  0  0
  -28.8639  -28.4973   20.1046 N   0  0  0  0  0  0  0  0  0  0  0  0
  -25.1988  -32.9481   23.7404 N   0  0  0  0  0  0  0  0  0  0  0  0
  -21.9245  -23.6355   22.0337 N   0  3  0  0  0  0  0  0  0  0  0  0
  -22.0922  -34.5080   22.7490 N   0  3  0  0  0  0  0  0  0  0  0  0
  -29.5900  -13.5963   23.9657 O   0  0  0  0  0  0  0  0  0  0  0  0
  -27.8973  -28.4899   22.2231 O   0  0  0  0  0  0  0  0  0  0  0  0
  -27.5598  -32.2419   22.2790 O   0  0  0  0  0  0  0  0  0  0  0  0
  -23.0547  -32.0651   23.7601 O   0  0  0  0  0  0  0  0  0  0  0  0
  -28.3850  -22.2741   19.8537 O   0  0  0  0  0  0  0  0  0  0  0  0
  -23.5619  -11.0004   19.7814 O   0  0  0  0  0  0  0  0  0  0  0  0
  -23.1775  -21.7728   20.7378 O   0  0  0  0  0  0  0  0  0  0  0  0
  -21.9412  -26.0851   20.6909 O   0  0  0  0  0  0  0  0  0  1  0  0
  -20.7206   -8.6459   23.8786 F   0  0  0  0  0  0  0  0  0  0  0  0
  -20.8152  -11.2708   19.9408 F   0  0  0  0  0  0  0  0  0  0  0  0
  1  2  1  0  0  0  0
  1  5  2  0  0  0  0
  2  6  2  0  0  0  0
  3  8  2  0  0  0  0
  3 16  1  0  0  0  0
  4  9  1  0  0  0  0
  4 16  2  0  0  0  0
  5 18  1  0  0  0  0
  6 20  1  0  0  0  0
  7 10  2  0  0  0  0
  7 19  1  0  0  0  0
  8 24  1  0  0  0  0
  9 24  2  0  0  0  0
 10 25  1  0  0  0  0
 11 12  2  0  0  0  0
 11 26  1  0  0  0  0
 12 28  1  0  0  0  0
 13 21  1  0  0  0  0
 13 25  2  0  0  0  0
 14 28  2  0  0  0  0
 14 29  1  0  0  0  0
 15 27  2  0  0  0  0
 15 65  1  0  0  0  0
 16 30  1  0  0  0  0
 17 30  1  0  0  0  0
 17 32  2  0  0  0  0
 17 33  1  0  0  0  0
 18 20  2  0  0  0  0
 18 38  1  0  0  0  0
 19 21  2  0  0  0  0
 19 39  1  0  0  0  0
 20 49  1  0  0  0  0
 21 40  1  0  0  0  0
 22 23  2  0  0  0  0
 22 27  1  0  0  0  0
 22 61  1  0  0  0  0
 23 31  1  0  0  0  0
 23 53  1  0  0  0  0
 24 82  1  0  0  0  0
 25 84  1  0  0  0  0
 26 29  2  0  0  0  0
 26 82  1  0  0  0  0
 27 83  1  0  0  0  0
 28 85  1  0  0  0  0
 29 86  1  0  0  0  0
 30 66  2  0  0  0  0
 31 54  1  0  0  0  0
 31 65  2  0  0  0  0
 32 67  1  0  0  0  0
 32 71  1  0  0  0  0
 33 72  1  0  0  0  0
 33 77  2  0  0  0  0
 34 50  1  0  0  0  0
 34 73  1  0  0  0  0
 34 78  2  0  0  0  0
 35 62  1  0  0  0  0
 35 68  1  0  0  0  0
 35 79  2  0  0  0  0
 36 63  1  0  0  0  0
 36 74  1  0  0  0  0
 36 80  2  0  0  0  0
 37 69  1  0  0  0  0
 37 70  1  0  0  0  0
 37 81  2  0  0  0  0
 38 41  1  0  0  0  0
 39 50  1  0  0  0  0
 40 68  1  0  0  0  0
 41 43  1  0  0  0  0
 42 44  1  0  0  0  0
 42 45  1  0  0  0  0
 43 49  1  0  0  0  0
 44 51  1  0  0  0  0
 45 69  1  0  0  0  0
 46 51  1  0  0  0  0
 46 69  1  0  0  0  0
 47 52  1  0  0  0  0
 47 70  1  0  0  0  0
 48 52  1  0  0  0  0
 48 70  1  0  0  0  0
 49 73  1  0  0  0  0
 50 68  1  0  0  0  0
 51 67  1  0  0  0  0
 52 83  1  0  0  0  0
 55 63  1  0  0  0  0
 56 64  1  0  0  0  0
 57 64  1  0  0  0  0
 58 64  1  0  0  0  0
 59 76  1  0  0  0  0
 60 61  1  0  0  0  0
 60 84  1  0  0  0  0
 61 75  1  0  0  0  0
 62 64  1  0  0  0  0
 62 74  1  0  0  0  0
 63 76  1  0  0  0  0
 66 67  1  0  0  0  0
M  CHG  2  75   1  76   1
M  ISO  4  37 100  60 101  70 100  84 101
M  END
> <Batch ID>
0165

> <Smiles>
CNC(C)C(=O)NC(C(=O)N1Cc2cc([101O:1][101CH2:1]C(N)c3c(OC4C[100N:0]([100C:0](=O)N5CCCC(n6nc(-c7ccc(Oc8ccc(F)cc8F)cc7)c(C(N)=O)c6N)C5)C4)cnc(C)c3C)ccc2CC1C(=O)NC1CCCc2ccccc21)C(C)(C)C

> <Shape>
0.278

> <Color>
0.063

> <Negative vol penalty>
0.000

$$$$

  -OEChem-04052322223D

 89100  0     1  0  0  0  0  0999 V2000
  -24.3460  -31.0882   21.8162 C   0  0  0  0  0  0  0  0  0  0  0  0
  -23.9411  -29.7867   22.0948 C   0  0  0  0  0  0  0  0  0  0  0  0
  -30.7549  -16.6692   25.9590 C   0  0  0  0  0  0  0  0  0  0  0  0
  -32.3219  -18.4439   25.4773 C   0  0  0  0  0  0  0  0  0  0  0  0
  -25.2114  -31.3350   20.7512 C   0  0  0  0  0  0  0  0  0  0  0  0
  -24.4004  -28.7313   21.3077 C   0  0  0  0  0  0  0  0  0  0  0  0
  -25.2275  -11.8607   20.0506 C   0  0  0  0  0  0  0  0  0  0  0  0
  -25.6671  -23.0344   23.1642 C   0  0  0  0  0  0  0  0  0  0  0  0
  -23.9595  -12.3496   20.3712 C   0  0  0  0  0  0  0  0  0  0  0  0
  -30.9568  -16.8618   27.3257 C   0  0  0  0  0  0  0  0  0  0  0  0
  -32.5238  -18.6365   26.8440 C   0  0  0  0  0  0  0  0  0  0  0  0
  -24.9378  -21.8473   23.1133 C   0  0  0  0  0  0  0  0  0  0  0  0
  -29.9325  -19.0246   29.7145 C   0  0  0  0  0  0  0  0  0  0  0  0
  -28.8072  -19.0549   30.5380 C   0  0  0  0  0  0  0  0  0  0  0  0
  -26.2225  -14.0932   20.2643 C   0  0  0  0  0  0  0  0  0  0  0  0
  -26.0771  -21.2417   21.0750 C   0  0  0  0  0  0  0  0  0  0  0  0
  -29.6593  -17.1607   31.7722 C   0  0  0  0  0  0  0  0  0  0  0  0
  -31.4375  -17.4602   25.0348 C   0  0  0  0  0  0  0  0  0  0  0  0
  -30.2686  -17.8892   22.8084 C   0  0  0  0  0  0  0  0  0  0  0  0
  -26.3489  -12.7235   19.9974 C   0  0  0  0  0  0  0  0  0  0  0  0
  -25.6892  -30.2809   19.9567 C   0  0  0  0  0  0  0  0  0  0  0  0
  -26.6007  -23.3396   22.1633 C   0  0  0  0  0  0  0  0  0  0  0  0
  -25.2719  -28.9643   20.2303 C   0  0  0  0  0  0  0  0  0  0  0  0
  -24.9697  -14.5428   20.5745 C   0  0  0  0  0  0  0  0  0  0  0  0
  -26.8189  -22.4321   21.1169 C   0  0  0  0  0  0  0  0  0  0  0  0
  -23.9023  -13.6867   20.6192 C   0  0  0  0  0  0  0  0  0  0  0  0
  -31.8412  -17.8455   27.7682 C   0  0  0  0  0  0  0  0  0  0  0  0
  -25.1406  -20.9521   22.0670 C   0  0  0  0  0  0  0  0  0  0  0  0
  -30.9212  -18.0622   29.9197 C   0  0  0  0  0  0  0  0  0  0  0  0
  -28.6706  -18.1230   31.5669 C   0  0  0  0  0  0  0  0  0  0  0  0
  -30.7846  -17.1304   30.9485 C   0  0  0  0  0  0  0  0  0  0  0  0
  -31.2298  -17.2613   23.6230 C   0  0  0  0  0  0  0  0  0  0  0  0
  -30.4817  -17.3628   21.5578 C   0  0  0  0  0  0  0  0  0  0  0  0
  -29.2723  -18.8615   23.1514 C   0  0  0  0  0  0  0  0  0  0  0  0
  -26.9008  -25.6553   20.0067 C   0  0  0  0  0  0  0  0  0  0  0  0
  -29.7517  -24.2182   19.4325 C   0  0  0  0  0  0  0  0  0  0  0  0
  -31.6513  -21.3870   19.5827 C   0  0  0  0  0  0  0  0  0  0  0  0
  -31.9252  -12.5808   18.8845 C   0  0  0  0  0  0  0  0  0  0  0  0
  -26.5856  -30.6021   18.7871 C   0  0  0  0  0  0  0  0  0  0  0  0
  -27.3987  -24.6119   22.2471 C   0  0  0  0  0  0  0  0  0  0  0  0
  -27.8241  -22.7035   20.0286 C   0  0  0  0  0  0  0  0  0  0  0  0
  -27.3232  -29.3859   18.2330 C   0  0  0  0  0  0  0  0  0  0  0  0
  -34.2510  -15.1033   19.3080 C   0  0  0  0  0  0  0  0  0  0  0  0
  -26.3651  -28.2107   18.0663 C   0  0  0  0  0  0  0  0  0  0  0  0
  -33.6280  -15.9926   20.3841 C   0  0  0  0  0  0  0  0  0  0  0  0
  -28.2683  -12.7540   18.3439 C   0  0  0  0  0  0  0  0  0  0  0  0
  -28.7191  -12.3190   20.7951 C   0  0  0  0  0  0  0  0  0  0  0  0
  -34.0424  -13.6278   19.6304 C   0  0  0  0  0  0  0  0  0  0  0  0
  -29.6487  -12.1912   18.0139 C   0  0  0  0  0  0  0  0  0  0  0  0
  -30.0876  -11.7647   20.4100 C   0  0  0  0  0  0  0  0  0  0  0  0
  -31.9748  -14.1286   20.8906 C   0  0  0  0  0  0  0  0  0  0  0  0
  -27.7099  -12.1527   19.6452 C   0  0  0  0  0  0  0  0  0  0  0  0
  -25.7681  -27.7901   19.4147 C   0  0  1  0  0  0  0  0  0  0  0  0
  -27.9533  -25.0592   20.8981 C   0  0  1  0  0  0  0  0  0  0  0  0
  -24.2238  -16.5843   22.1259 C   0  0  2  0  0  0  0  0  0  0  0  0
  -32.1482  -15.6343   20.6078 C   0  0  1  0  0  0  0  0  0  0  0  0
  -23.7371  -17.6631   21.1306 C   0  0  1  0  0  0  0  0  0  0  0  0
  -24.0623  -15.6447   20.9378 C   0  0  2  0  0  0  0  0  0  0  0  0
  -23.3508  -16.3555   23.3433 C   0  0  0  0  0  0  0  0  0  0  0  0
  -33.6945  -19.9414   19.4005 C   0  0  0  0  0  0  0  0  0  0  0  0
  -28.9487  -24.0813   16.4920 C   0  0  0  0  0  0  0  0  0  0  0  0
  -30.7683  -22.3969   16.1455 C   0  0  0  0  0  0  0  0  0  0  0  0
  -31.3363  -24.7079   16.8933 C   0  0  0  0  0  0  0  0  0  0  0  0
  -32.4945  -22.0299   22.3458 C   0  0  0  0  0  0  0  0  0  0  0  0
  -24.6346  -18.8682   20.9399 C   0  0  0  0  0  0  0  0  0  1  0  0
  -30.2286  -23.1171   18.5164 C   0  0  1  0  0  0  0  0  0  0  0  0
  -33.0656  -21.1481   20.0797 C   0  0  2  0  0  0  0  0  0  0  0  0
  -30.3001  -23.5713   17.0311 C   0  0  0  0  0  0  0  0  0  0  0  0
  -31.9964  -16.4015   22.9468 N   0  0  0  0  0  0  0  0  0  0  0  0
  -31.5170  -16.4855   21.6941 N   0  0  0  0  0  0  0  0  0  0  0  0
  -28.5750  -23.9638   20.1513 N   0  0  0  0  0  0  0  0  0  0  0  0
  -32.6261  -13.3297   19.8419 N   0  0  0  0  0  0  0  0  0  0  0  0
  -30.5668  -12.3340   19.1431 N   0  0  0  0  0  0  0  0  0  0  0  0
  -29.8825  -17.5693   20.3658 N   0  0  0  0  0  0  0  0  0  0  0  0
  -29.1907  -19.2937   24.4822 N   0  0  0  0  0  0  0  0  0  0  0  0
  -26.7276  -27.0161   20.1728 N   0  0  0  0  0  0  0  0  0  0  0  0
  -31.5003  -22.6546   19.0617 N   0  0  0  0  0  0  0  0  0  0  0  0
  -33.0645  -20.9116   21.5511 N   0  3  0  0  0  0  0  0  0  0  0  0
  -28.4671  -19.3209   22.3063 O   0  0  0  0  0  0  0  0  0  0  0  0
  -26.2921  -24.9343   19.2248 O   0  0  0  0  0  0  0  0  0  0  0  0
  -30.4032  -25.2626   19.5130 O   0  0  0  0  0  0  0  0  0  0  0  0
  -30.7696  -20.5330   19.6466 O   0  0  0  0  0  0  0  0  0  0  0  0
  -32.4750  -12.1621   17.8582 O   0  0  0  0  0  0  0  0  0  0  0  0
  -23.0114  -14.6273   20.9498 O   0  0  0  0  0  0  0  0  0  0  0  0
  -23.8664  -16.7356   20.0161 O   0  0  0  0  0  0  0  0  0  0  0  0
  -32.0383  -18.0339   29.1017 O   0  0  0  0  0  0  0  0  0  0  0  0
  -24.4172  -19.7728   22.0137 O   0  0  0  0  0  0  0  0  0  1  0  0
  -27.5906  -18.1533   32.3587 F   0  0  0  0  0  0  0  0  0  0  0  0
  -31.7318  -16.2043   31.1513 F   0  0  0  0  0  0  0  0  0  0  0  0
  1  2  1  0  0  0  0
  1  5  2  0  0  0  0
  2  6  2  0  0  0  0
  3 10  2  0  0  0  0
  3 18  1  0  0  0  0
  4 11  1  0  0  0  0
  4 18  2  0  0  0  0
  5 21  1  0  0  0  0
  6 23  1  0  0  0  0
  7  9  2  0  0  0  0
  7 20  1  0  0  0  0
  8 12  2  0  0  0  0
  8 22  1  0  0  0  0
  9 26  1  0  0  0  0
 10 27  1  0  0  0  0
 11 27  2  0  0  0  0
 12 28  1  0  0  0  0
 13 14  2  0  0  0  0
 13 29  1  0  0  0  0
 14 30  1  0  0  0  0
 15 20  2  0  0  0  0
 15 24  1  0  0  0  0
 16 25  1  0  0  0  0
 16 28  2  0  0  0  0
 17 30  2  0  0  0  0
 17 31  1  0  0  0  0
 18 32  1  0  0  0  0
 19 32  1  0  0  0  0
 19 33  2  0  0  0  0
 19 34  1  0  0  0  0
 20 52  1  0  0  0  0
 21 23  2  0  0  0  0
 21 39  1  0  0  0  0
 22 25  2  0  0  0  0
 22 40  1  0  0  0  0
 23 53  1  0  0  0  0
 24 26  2  0  0  0  0
 24 58  1  0  0  0  0
 25 41  1  0  0  0  0
 26 84  1  0  0  0  0
 27 86  1  0  0  0  0
 28 87  1  0  0  0  0
 29 31  2  0  0  0  0
 29 86  1  0  0  0  0
 30 88  1  0  0  0  0
 31 89  1  0  0  0  0
 32 69  2  0  0  0  0
 33 70  1  0  0  0  0
 33 74  1  0  0  0  0
 34 75  1  0  0  0  0
 34 79  2  0  0  0  0
 35 54  1  0  0  0  0
 35 76  1  0  0  0  0
 35 80  2  0  0  0  0
 36 66  1  0  0  0  0
 36 71  1  0  0  0  0
 36 81  2  0  0  0  0
 37 67  1  0  0  0  0
 37 77  1  0  0  0  0
 37 82  2  0  0  0  0
 38 72  1  0  0  0  0
 38 73  1  0  0  0  0
 38 83  2  0  0  0  0
 39 42  1  0  0  0  0
 40 54  1  0  0  0  0
 41 71  1  0  0  0  0
 42 44  1  0  0  0  0
 43 45  1  0  0  0  0
 43 48  1  0  0  0  0
 44 53  1  0  0  0  0
 45 56  1  0  0  0  0
 46 49  1  0  0  0  0
 46 52  1  0  0  0  0
 47 50  1  0  0  0  0
 47 52  1  0  0  0  0
 48 72  1  0  0  0  0
 49 73  1  0  0  0  0
 50 73  1  0  0  0  0
 51 56  1  0  0  0  0
 51 72  1  0  0  0  0
 53 76  1  0  0  0  0
 54 71  1  0  0  0  0
 55 57  1  0  0  0  0
 55 58  1  0  0  0  0
 55 59  1  0  0  0  0
 56 70  1  0  0  0  0
 57 65  1  0  0  0  0
 57 85  1  0  0  0  0
 58 84  1  0  0  0  0
 58 85  1  0  0  0  0
 60 67  1  0  0  0  0
 61 68  1  0  0  0  0
 62 68  1  0  0  0  0
 63 68  1  0  0  0  0
 64 78  1  0  0  0  0
 65 87  1  0  0  0  0
 66 68  1  0  0  0  0
 66 77  1  0  0  0  0
 67 78  1  0  0  0  0
 69 70  1  0  0  0  0
M  CHG  1  78   1
M  ISO  4  38 100  65 101  73 100  87 101
M  END
> <Batch ID>
0165

> <Smiles>
CNC(C)C(=O)NC(C(=O)N1Cc2cc([101O:1][101CH2:1]C3OC4(Oc5ccc(C6CC[100N:0]([100C:0](=O)N7CCCC(n8nc(-c9ccc(Oc%10ccc(F)cc%10F)cc9)c(C(N)=O)c8N)C7)CC6)cc54)C3C)ccc2CC1C(=O)NC1CCCc2ccccc21)C(C)(C)C

> <Shape>
0.214

> <Color>
0.090

> <Negative vol penalty>
0.000

$$$$

  -OEChem-04052322223D

 91101  0     1  0  0  0  0  0999 V2000
  -18.1647  -26.3786   23.3452 C   0  0  0  0  0  0  0  0  0  0  0  0
  -19.2300  -26.6909   22.5068 C   0  0  0  0  0  0  0  0  0  0  0  0
  -27.8561  -12.7509   18.5636 C   0  0  0  0  0  0  0  0  0  0  0  0
  -28.1894  -12.5954   20.9514 C   0  0  0  0  0  0  0  0  0  0  0  0
  -17.3774  -27.3978   23.8793 C   0  0  0  0  0  0  0  0  0  0  0  0
  -19.5081  -28.0227   22.2011 C   0  0  0  0  0  0  0  0  0  0  0  0
  -24.4496  -29.0915   22.4905 C   0  0  0  0  0  0  0  0  0  0  0  0
  -29.0964  -12.1491   18.3512 C   0  0  0  0  0  0  0  0  0  0  0  0
  -29.4297  -11.9935   20.7390 C   0  0  0  0  0  0  0  0  0  0  0  0
  -25.2521  -28.6869   21.4247 C   0  0  0  0  0  0  0  0  0  0  0  0
  -32.5611  -12.9644   19.9127 C   0  0  0  0  0  0  0  0  0  0  0  0
  -33.6392  -13.4157   20.6740 C   0  0  0  0  0  0  0  0  0  0  0  0
  -26.7153  -25.9295   17.8366 C   0  0  0  0  0  0  0  0  0  0  0  0
  -25.1963  -30.9301   20.5390 C   0  0  0  0  0  0  0  0  0  0  0  0
  -33.9223  -11.1972   21.5881 C   0  0  0  0  0  0  0  0  0  0  0  0
  -27.4026  -12.9741   19.8637 C   0  0  0  0  0  0  0  0  0  0  0  0
  -27.0905  -27.1127   18.4634 C   0  0  0  0  0  0  0  0  0  0  0  0
  -24.8761  -12.9537   20.2159 C   0  0  0  0  0  0  0  0  0  0  0  0
  -17.6519  -28.7433   23.5878 C   0  0  0  0  0  0  0  0  0  0  0  0
  -24.0047  -30.4182   22.5830 C   0  0  0  0  0  0  0  0  0  0  0  0
  -18.7229  -29.0608   22.7308 C   0  0  0  0  0  0  0  0  0  0  0  0
  -24.3904  -31.3496   21.6084 C   0  0  0  0  0  0  0  0  0  0  0  0
  -25.3760  -25.7000   17.5416 C   0  0  0  0  0  0  0  0  0  0  0  0
  -29.8832  -11.7704   19.4389 C   0  0  0  0  0  0  0  0  0  0  0  0
  -25.6232  -29.6055   20.4471 C   0  0  0  0  0  0  0  0  0  0  0  0
  -32.1635  -11.6296   19.9891 C   0  0  0  0  0  0  0  0  0  0  0  0
  -34.3198  -12.5321   21.5117 C   0  0  0  0  0  0  0  0  0  0  0  0
  -32.8441  -10.7460   20.8268 C   0  0  0  0  0  0  0  0  0  0  0  0
  -26.1217  -13.5962   20.0837 C   0  0  0  0  0  0  0  0  0  0  0  0
  -24.4582  -26.6774   17.8912 C   0  0  0  0  0  0  0  0  0  0  0  0
  -26.0960  -28.0268   18.7719 C   0  0  0  0  0  0  0  0  0  1  0  0
  -23.9806  -13.9772   20.4085 C   0  0  0  0  0  0  0  0  0  0  0  0
  -29.2245  -26.5588   19.5379 C   0  0  0  0  0  0  0  0  0  0  0  0
  -30.6156  -26.6136   19.9680 C   0  0  0  0  0  0  0  0  0  0  0  0
  -28.4901  -27.3560   18.7738 C   0  0  0  0  0  0  0  0  0  0  0  0
  -24.5571  -11.5567   20.1691 C   0  0  0  0  0  0  0  0  0  0  0  0
  -21.1593  -31.8349   22.5844 C   0  0  0  0  0  0  0  0  0  0  0  0
  -22.9141  -34.4877   23.2213 C   0  0  0  0  0  0  0  0  0  0  0  0
  -25.9257  -36.0825   23.0369 C   0  0  0  0  0  0  0  0  0  0  0  0
  -23.8524  -19.5397   18.8426 C   0  0  0  0  0  0  0  0  0  0  0  0
  -16.7440  -29.8079   24.1508 C   0  0  0  0  0  0  0  0  0  0  0  0
  -23.1617  -30.8450   23.7533 C   0  0  0  0  0  0  0  0  0  0  0  0
  -23.9561  -32.7903   21.6725 C   0  0  0  0  0  0  0  0  0  0  0  0
  -30.4597  -25.3147   20.7486 C   0  0  0  0  0  0  0  0  0  0  0  0
  -17.3350  -31.2135   24.0778 C   0  0  0  0  0  0  0  0  0  0  0  0
  -23.6702  -18.4112   22.1648 C   0  0  0  0  0  0  0  0  0  0  0  0
  -17.9285  -31.4719   22.6966 C   0  0  0  0  0  0  0  0  0  0  0  0
  -24.1620  -16.9711   22.0232 C   0  0  0  0  0  0  0  0  0  0  0  0
  -24.4736  -19.3797   21.2949 C   0  0  0  0  0  0  0  0  0  0  0  0
  -24.5688  -21.8311   19.6555 C   0  0  0  0  0  0  0  0  0  0  0  0
  -22.7056  -21.5881   18.0563 C   0  0  0  0  0  0  0  0  0  0  0  0
  -25.0329  -17.5500   19.7269 C   0  0  0  0  0  0  0  0  0  0  0  0
  -25.2989  -22.7487   18.6800 C   0  0  0  0  0  0  0  0  0  0  0  0
  -23.4158  -22.4784   17.0496 C   0  0  0  0  0  0  0  0  0  0  0  0
  -19.0714  -30.4948   22.3956 C   0  0  1  0  0  0  0  0  0  0  0  0
  -28.9843  -25.2578   20.2888 C   0  0  1  0  0  0  0  0  0  0  0  0
  -22.3417  -32.1005   23.4726 C   0  0  1  0  0  0  0  0  0  0  0  0
  -24.2064  -16.5456   20.5448 C   0  0  1  0  0  0  0  0  0  0  0  0
  -23.0061  -26.4850   17.5980 C   0  0  0  0  0  0  0  0  0  0  0  0
  -27.9544  -25.3173   21.4073 C   0  0  0  0  0  0  0  0  0  0  0  0
  -27.0417  -38.2564   23.6079 C   0  0  0  0  0  0  0  0  0  0  0  0
  -21.5412  -35.8149   20.8415 C   0  0  0  0  0  0  0  0  0  0  0  0
  -23.3296  -37.5666   20.8755 C   0  0  0  0  0  0  0  0  0  0  0  0
  -21.8192  -37.2904   22.8415 C   0  0  0  0  0  0  0  0  0  0  0  0
  -27.8530  -34.7513   24.8460 C   0  0  0  0  0  0  0  0  0  0  0  0
  -24.9643  -24.4263   16.8639 C   0  0  0  0  0  0  0  0  0  0  0  0
  -23.5924  -35.5467   22.3862 C   0  0  1  0  0  0  0  0  0  0  0  0
  -26.7274  -36.8442   24.0768 C   0  0  2  0  0  0  0  0  0  0  0  0
  -22.5773  -36.5271   21.7336 C   0  0  0  0  0  0  0  0  0  0  0  0
  -26.0297  -14.9250   20.1836 N   0  0  0  0  0  0  0  0  0  0  0  0
  -24.7849  -27.8389   18.5009 N   0  0  0  0  0  0  0  0  0  0  0  0
  -24.7156  -15.1258   20.3805 N   0  0  0  0  0  0  0  0  0  0  0  0
  -23.1275  -33.1575   22.8328 N   0  0  0  0  0  0  0  0  0  0  0  0
  -24.5224  -18.9112   19.9028 N   0  0  0  0  0  0  0  0  0  0  0  0
  -23.6592  -20.9254   18.9434 N   0  0  0  0  0  0  0  0  0  0  0  0
  -22.6441  -13.9978   20.5971 N   0  0  0  0  0  0  0  0  0  0  0  0
  -25.5974  -10.6403   19.9634 N   0  0  0  0  0  0  0  0  0  0  0  0
  -20.2767  -30.8982   23.0876 N   0  0  0  0  0  0  0  0  0  0  0  0
  -24.5690  -36.1906   23.2581 N   0  0  0  0  0  0  0  0  0  0  0  0
  -24.2982  -23.4524   17.7950 N   0  3  0  0  0  0  0  0  0  0  0  0
  -28.0133  -36.1441   24.3545 N   0  3  0  0  0  0  0  0  0  0  0  0
  -31.5241  -27.3954   19.7711 O   0  0  0  0  0  0  0  0  0  0  0  0
  -23.3819  -11.1346   20.2891 O   0  0  0  0  0  0  0  0  0  0  0  0
  -21.0546  -32.4364   21.5218 O   0  0  0  0  0  0  0  0  0  0  0  0
  -22.2262  -34.8278   24.1871 O   0  0  0  0  0  0  0  0  0  0  0  0
  -26.4503  -35.4574   22.1180 O   0  0  0  0  0  0  0  0  0  0  0  0
  -23.4506  -18.8999   17.8625 O   0  0  0  0  0  0  0  0  0  0  0  0
  -31.0934  -11.1829   19.2321 O   0  0  0  0  0  0  0  0  0  0  0  0
  -26.4170  -29.2075   19.3906 O   0  0  0  0  0  0  0  0  0  1  0  0
  -35.3561  -12.9652   22.2415 F   0  0  0  0  0  0  0  0  0  0  0  0
  -32.4675   -9.4622   20.9035 F   0  0  0  0  0  0  0  0  0  0  0  0
  1  2  1  0  0  0  0
  1  5  2  0  0  0  0
  2  6  2  0  0  0  0
  3  8  2  0  0  0  0
  3 16  1  0  0  0  0
  4  9  1  0  0  0  0
  4 16  2  0  0  0  0
  5 19  1  0  0  0  0
  6 21  1  0  0  0  0
  7 10  2  0  0  0  0
  7 20  1  0  0  0  0
  8 24  1  0  0  0  0
  9 24  2  0  0  0  0
 10 25  1  0  0  0  0
 11 12  2  0  0  0  0
 11 26  1  0  0  0  0
 12 27  1  0  0  0  0
 13 17  1  0  0  0  0
 13 23  2  0  0  0  0
 14 22  1  0  0  0  0
 14 25  2  0  0  0  0
 15 27  2  0  0  0  0
 15 28  1  0  0  0  0
 16 29  1  0  0  0  0
 17 31  2  0  0  0  0
 17 35  1  0  0  0  0
 18 29  1  0  0  0  0
 18 32  2  0  0  0  0
 18 36  1  0  0  0  0
 19 21  2  0  0  0  0
 19 41  1  0  0  0  0
 20 22  2  0  0  0  0
 20 42  1  0  0  0  0
 21 55  1  0  0  0  0
 22 43  1  0  0  0  0
 23 30  1  0  0  0  0
 23 66  1  0  0  0  0
 24 88  1  0  0  0  0
 25 89  1  0  0  0  0
 26 28  2  0  0  0  0
 26 88  1  0  0  0  0
 27 90  1  0  0  0  0
 28 91  1  0  0  0  0
 29 70  2  0  0  0  0
 30 59  1  0  0  0  0
 30 71  2  0  0  0  0
 31 71  1  0  0  0  0
 31 89  1  0  0  0  0
 32 72  1  0  0  0  0
 32 76  1  0  0  0  0
 33 34  1  0  0  0  0
 33 35  2  0  0  0  0
 33 56  1  0  0  0  0
 34 44  1  0  0  0  0
 34 82  2  0  0  0  0
 36 77  1  0  0  0  0
 36 83  2  0  0  0  0
 37 57  1  0  0  0  0
 37 78  1  0  0  0  0
 37 84  2  0  0  0  0
 38 67  1  0  0  0  0
 38 73  1  0  0  0  0
 38 85  2  0  0  0  0
 39 68  1  0  0  0  0
 39 79  1  0  0  0  0
 39 86  2  0  0  0  0
 40 74  1  0  0  0  0
 40 75  1  0  0  0  0
 40 87  2  0  0  0  0
 41 45  1  0  0  0  0
 42 57  1  0  0  0  0
 43 73  1  0  0  0  0
 44 56  1  0  0  0  0
 45 47  1  0  0  0  0
 46 48  1  0  0  0  0
 46 49  1  0  0  0  0
 47 55  1  0  0  0  0
 48 58  1  0  0  0  0
 49 74  1  0  0  0  0
 50 53  1  0  0  0  0
 50 75  1  0  0  0  0
 51 54  1  0  0  0  0
 51 75  1  0  0  0  0
 52 58  1  0  0  0  0
 52 74  1  0  0  0  0
 53 80  1  0  0  0  0
 54 80  1  0  0  0  0
 55 78  1  0  0  0  0
 56 60  1  0  0  0  0
 57 73  1  0  0  0  0
 58 72  1  0  0  0  0
 61 68  1  0  0  0  0
 62 69  1  0  0  0  0
 63 69  1  0  0  0  0
 64 69  1  0  0  0  0
 65 81  1  0  0  0  0
 66 80  1  0  0  0  0
 67 69  1  0  0  0  0
 67 79  1  0  0  0  0
 68 81  1  0  0  0  0
 70 72  1  0  0  0  0
M  CHG  2  80   1  81   1
M  ISO  4  31 101  40 100  75 100  89 101
M  END
> <Batch ID>
0165

> <Smiles>
CNC(C)C(=O)NC(C(=O)N1Cc2cc([101O:1][101c:1]3nc(C)c(CN4CC[100N:0]([100C:0](=O)N5CCCC(n6nc(-c7ccc(Oc8ccc(F)cc8F)cc7)c(C(N)=O)c6N)C5)CC4)cc3C=C3C(=O)CC3C)ccc2CC1C(=O)NC1CCCc2ccccc21)C(C)(C)C

> <Shape>
0.274

> <Color>
0.083

> <Negative vol penalty>
0.000

$$$$

  -OEChem-04052322223D

 89 99  0     1  0  0  0  0  0999 V2000
  -28.4323  -24.1875   17.5651 C   0  0  0  0  0  0  0  0  0  0  0  0
  -27.2459  -24.4026   18.2591 C   0  0  0  0  0  0  0  0  0  0  0  0
  -24.1483  -13.1476   19.5747 C   0  0  0  0  0  0  0  0  0  0  0  0
  -24.9970  -13.7186   21.7634 C   0  0  0  0  0  0  0  0  0  0  0  0
  -29.6080  -24.8059   17.9883 C   0  0  0  0  0  0  0  0  0  0  0  0
  -27.2348  -25.2355   19.3774 C   0  0  0  0  0  0  0  0  0  0  0  0
  -23.3032  -28.4272   19.3839 C   0  0  0  0  0  0  0  0  0  0  0  0
  -25.1365  -12.1717   19.4460 C   0  0  0  0  0  0  0  0  0  0  0  0
  -25.9852  -12.7427   21.6348 C   0  0  0  0  0  0  0  0  0  0  0  0
  -22.0651  -27.9116   19.7646 C   0  0  0  0  0  0  0  0  0  0  0  0
  -28.4296  -12.0461   18.6948 C   0  0  0  0  0  0  0  0  0  0  0  0
  -29.1167  -11.9765   17.4830 C   0  0  0  0  0  0  0  0  0  0  0  0
  -21.5289  -22.2407   25.8514 C   0  0  0  0  0  0  0  0  0  0  0  0
  -22.5047  -23.8774   23.8139 C   0  0  0  0  0  0  0  0  0  0  0  0
  -22.3575  -28.8519   21.9668 C   0  0  0  0  0  0  0  0  0  0  0  0
  -28.3479   -9.7065   17.1775 C   0  0  0  0  0  0  0  0  0  0  0  0
  -24.0785  -13.9211   20.7333 C   0  0  0  0  0  0  0  0  0  0  0  0
  -21.7690  -14.7684   21.4087 C   0  0  0  0  0  0  0  0  0  0  0  0
  -29.6094  -25.6544   19.1067 C   0  0  0  0  0  0  0  0  0  0  0  0
  -24.0839  -29.1510   20.2966 C   0  0  0  0  0  0  0  0  0  0  0  0
  -28.4120  -25.8648   19.8168 C   0  0  0  0  0  0  0  0  0  0  0  0
  -20.9156  -23.4651   25.5865 C   0  0  0  0  0  0  0  0  0  0  0  0
  -21.4035  -24.2835   24.5677 C   0  0  0  0  0  0  0  0  0  0  0  0
  -23.6040  -29.3779   21.5944 C   0  0  0  0  0  0  0  0  0  0  0  0
  -22.6301  -21.8346   25.0977 C   0  0  0  0  0  0  0  0  0  0  0  0
  -23.1179  -22.6530   24.0789 C   0  0  0  0  0  0  0  0  0  0  0  0
  -26.0550  -11.9692   20.4761 C   0  0  0  0  0  0  0  0  0  0  0  0
  -21.5933  -28.1214   21.0571 C   0  0  0  0  0  0  0  0  0  0  0  0
  -27.7017  -10.9459   19.1481 C   0  0  0  0  0  0  0  0  0  0  0  0
  -29.0759  -10.8067   16.7243 C   0  0  0  0  0  0  0  0  0  0  0  0
  -27.6608   -9.7762   18.3894 C   0  0  0  0  0  0  0  0  0  0  0  0
  -23.0582  -14.9297   20.8666 C   0  0  0  0  0  0  0  0  0  0  0  0
  -21.1958  -16.0125   21.3073 C   0  0  0  0  0  0  0  0  0  0  0  0
  -21.1455  -13.5987   21.9552 C   0  0  0  0  0  0  0  0  0  0  0  0
  -26.9569  -28.7565   21.5982 C   0  0  0  0  0  0  0  0  0  0  0  0
  -26.3806  -31.7071   22.8164 C   0  0  0  0  0  0  0  0  0  0  0  0
  -24.0916  -34.0656   23.7356 C   0  0  0  0  0  0  0  0  0  0  0  0
  -23.4759  -21.5416   21.0229 C   0  0  0  0  0  0  0  0  0  0  0  0
  -30.9146  -26.2632   19.5544 C   0  0  0  0  0  0  0  0  0  0  0  0
  -25.4053  -29.7235   19.8622 C   0  0  0  0  0  0  0  0  0  0  0  0
  -24.3945  -30.1655   22.6059 C   0  0  0  0  0  0  0  0  0  0  0  0
  -30.7420  -27.4277   20.5262 C   0  0  0  0  0  0  0  0  0  0  0  0
  -21.3234  -19.9888   18.6496 C   0  0  0  0  0  0  0  0  0  0  0  0
  -19.9588  -24.7643   27.6041 C   0  0  0  0  0  0  0  0  0  0  0  0
  -19.5811  -23.3287   27.7953 C   0  0  0  0  0  0  0  0  0  0  0  0
  -29.7376  -27.0685   21.6167 C   0  0  0  0  0  0  0  0  0  0  0  0
  -21.4076  -18.5016   18.9976 C   0  0  0  0  0  0  0  0  0  0  0  0
  -21.5279  -26.8060   23.5342 C   0  0  0  0  0  0  0  0  0  0  0  0
  -22.6661  -20.6903   18.8420 C   0  0  0  0  0  0  0  0  0  0  0  0
  -23.3566  -19.0252   20.5227 C   0  0  0  0  0  0  0  0  0  0  0  0
  -19.7388  -23.8822   26.4038 C   0  0  0  0  0  0  0  0  0  0  0  0
  -20.7202  -25.6854   24.2470 C   0  0  1  0  0  0  0  0  0  0  0  0
  -28.3546  -26.7810   21.0199 C   0  0  1  0  0  0  0  0  0  0  0  0
  -26.3466  -30.0060   21.0291 C   0  0  1  0  0  0  0  0  0  0  0  0
  -22.0130  -18.2867   20.3978 C   0  0  2  0  0  0  0  0  0  0  0  0
  -19.6719  -25.7955   23.0719 C   0  0  0  0  0  0  0  0  0  0  0  0
  -20.2230  -27.2641   22.8248 C   0  0  1  0  0  0  0  0  0  1  0  0
  -23.2700  -20.5194   25.3994 C   0  0  0  0  0  0  0  0  0  0  0  0
  -19.9114  -24.8461   21.8867 C   0  0  0  0  0  0  0  0  0  0  0  0
  -18.2155  -25.6944   23.5292 C   0  0  0  0  0  0  0  0  0  0  0  0
  -19.5274  -28.4246   23.5339 C   0  0  0  0  0  0  0  0  0  0  0  0
  -23.9212  -36.3614   24.7344 C   0  0  0  0  0  0  0  0  0  0  0  0
  -26.9855  -30.5497   25.5740 C   0  0  0  0  0  0  0  0  0  0  0  0
  -25.8981  -32.5669   26.5824 C   0  0  0  0  0  0  0  0  0  0  0  0
  -27.9357  -32.8270   25.1671 C   0  0  0  0  0  0  0  0  0  0  0  0
  -22.7711  -35.1460   21.3174 C   0  0  0  0  0  0  0  0  0  0  0  0
  -24.2957  -22.2395   23.2589 C   0  0  0  0  0  0  0  0  0  0  0  0
  -25.7339  -32.2372   24.0733 C   0  0  1  0  0  0  0  0  0  0  0  0
  -24.0080  -35.5539   23.4487 C   0  0  2  0  0  0  0  0  0  0  0  0
  -26.6240  -32.0287   25.3310 C   0  0  0  0  0  0  0  0  0  0  0  0
  -23.2905  -16.1778   20.4514 N   0  0  0  0  0  0  0  0  0  0  0  0
  -22.1395  -16.8120   20.7327 N   0  0  0  0  0  0  0  0  0  0  0  0
  -25.6833  -30.6994   22.1352 N   0  0  0  0  0  0  0  0  0  0  0  0
  -23.1848  -20.4482   20.1905 N   0  0  0  0  0  0  0  0  0  0  0  0
  -19.9816  -16.4894   21.6545 N   0  0  0  0  0  0  0  0  0  0  0  0
  -21.8764  -12.4031   21.9829 N   0  0  0  0  0  0  0  0  0  0  0  0
  -27.6824  -28.0176   20.6832 N   0  0  0  0  0  0  0  0  0  0  0  0
  -25.3984  -33.6311   23.8032 N   0  0  0  0  0  0  0  0  0  0  0  0
  -23.9573  -21.2239   22.2870 N   0  0  0  0  0  0  0  0  0  0  0  0
  -22.8051  -35.8554   22.6222 N   0  3  0  0  0  0  0  0  0  0  0  0
  -19.9691  -13.6094   22.3905 O   0  0  0  0  0  0  0  0  0  0  0  0
  -26.7837  -28.4838   22.7803 O   0  0  0  0  0  0  0  0  0  0  0  0
  -27.4609  -32.1752   22.4485 O   0  0  0  0  0  0  0  0  0  0  0  0
  -23.0971  -33.3599   23.8886 O   0  0  0  0  0  0  0  0  0  0  0  0
  -23.3133  -22.7140   20.6679 O   0  0  0  0  0  0  0  0  0  0  0  0
  -27.0194  -11.0169   20.3510 O   0  0  0  0  0  0  0  0  0  0  0  0
  -20.3855  -27.6186   21.4315 O   0  0  0  0  0  0  0  0  0  1  0  0
  -29.7345  -10.7405   15.5598 F   0  0  0  0  0  0  0  0  0  0  0  0
  -26.9622   -8.7164   18.8191 F   0  0  0  0  0  0  0  0  0  0  0  0
  1  2  1  0  0  0  0
  1  5  2  0  0  0  0
  2  6  2  0  0  0  0
  3  8  2  0  0  0  0
  3 17  1  0  0  0  0
  4  9  1  0  0  0  0
  4 17  2  0  0  0  0
  5 19  1  0  0  0  0
  6 21  1  0  0  0  0
  7 10  2  0  0  0  0
  7 20  1  0  0  0  0
  8 27  1  0  0  0  0
  9 27  2  0  0  0  0
 10 28  1  0  0  0  0
 11 12  2  0  0  0  0
 11 29  1  0  0  0  0
 12 30  1  0  0  0  0
 13 22  1  0  0  0  0
 13 25  2  0  0  0  0
 14 23  1  0  0  0  0
 14 26  2  0  0  0  0
 15 24  1  0  0  0  0
 15 28  2  0  0  0  0
 16 30  2  0  0  0  0
 16 31  1  0  0  0  0
 17 32  1  0  0  0  0
 18 32  1  0  0  0  0
 18 33  2  0  0  0  0
 18 34  1  0  0  0  0
 19 21  2  0  0  0  0
 19 39  1  0  0  0  0
 20 24  2  0  0  0  0
 20 40  1  0  0  0  0
 21 53  1  0  0  0  0
 22 23  2  0  0  0  0
 22 51  1  0  0  0  0
 23 52  1  0  0  0  0
 24 41  1  0  0  0  0
 25 26  1  0  0  0  0
 25 58  1  0  0  0  0
 26 67  1  0  0  0  0
 27 86  1  0  0  0  0
 28 87  1  0  0  0  0
 29 31  2  0  0  0  0
 29 86  1  0  0  0  0
 30 88  1  0  0  0  0
 31 89  1  0  0  0  0
 32 71  2  0  0  0  0
 33 72  1  0  0  0  0
 33 75  1  0  0  0  0
 34 76  1  0  0  0  0
 34 81  2  0  0  0  0
 35 54  1  0  0  0  0
 35 77  1  0  0  0  0
 35 82  2  0  0  0  0
 36 68  1  0  0  0  0
 36 73  1  0  0  0  0
 36 83  2  0  0  0  0
 37 69  1  0  0  0  0
 37 78  1  0  0  0  0
 37 84  2  0  0  0  0
 38 74  1  0  0  0  0
 38 79  1  0  0  0  0
 38 85  2  0  0  0  0
 39 42  1  0  0  0  0
 40 54  1  0  0  0  0
 41 73  1  0  0  0  0
 42 46  1  0  0  0  0
 43 47  1  0  0  0  0
 43 49  1  0  0  0  0
 44 45  1  0  0  0  0
 44 51  1  0  0  0  0
 45 51  1  0  0  0  0
 46 53  1  0  0  0  0
 47 55  1  0  0  0  0
 48 52  1  0  0  0  0
 48 57  1  0  0  0  0
 49 74  1  0  0  0  0
 50 55  1  0  0  0  0
 50 74  1  0  0  0  0
 52 56  1  0  0  0  0
 53 77  1  0  0  0  0
 54 73  1  0  0  0  0
 55 72  1  0  0  0  0
 56 57  1  0  0  0  0
 56 59  1  0  0  0  0
 56 60  1  0  0  0  0
 57 61  1  0  0  0  0
 57 87  1  0  0  0  0
 62 69  1  0  0  0  0
 63 70  1  0  0  0  0
 64 70  1  0  0  0  0
 65 70  1  0  0  0  0
 66 80  1  0  0  0  0
 67 79  1  0  0  0  0
 68 70  1  0  0  0  0
 68 78  1  0  0  0  0
 69 80  1  0  0  0  0
 71 72  1  0  0  0  0
M  CHG  1  80   1
M  ISO  4  38 100  57 101  79 100  87 101
M  END
> <Batch ID>
0165

> <Smiles>
CNC(C)C(=O)NC(C(=O)N1Cc2cc([101O:1][101C:1]3(C)CC(c4cc(C[100NH:0][100C:0](=O)N5CCCC(n6nc(-c7ccc(Oc8ccc(F)cc8F)cc7)c(C(N)=O)c6N)C5)c(C)cc4C4CC4)C3(C)C)ccc2CC1C(=O)NC1CCCc2ccccc21)C(C)(C)C

> <Shape>
0.272

> <Color>
0.085

> <Negative vol penalty>
0.000

$$$$

  -OEChem-04052322223D

 91101  0     1  0  0  0  0  0999 V2000
  -20.6686  -24.5555   24.0636 C   0  0  0  0  0  0  0  0  0  0  0  0
  -21.8874  -25.0007   23.5619 C   0  0  0  0  0  0  0  0  0  0  0  0
  -25.5106  -14.9550   16.8202 C   0  0  0  0  0  0  0  0  0  0  0  0
  -27.2964  -13.4801   16.1325 C   0  0  0  0  0  0  0  0  0  0  0  0
  -19.5107  -25.2994   23.8406 C   0  0  0  0  0  0  0  0  0  0  0  0
  -21.9488  -26.1897   22.8360 C   0  0  0  0  0  0  0  0  0  0  0  0
  -25.8453  -29.1126   24.2212 C   0  0  0  0  0  0  0  0  0  0  0  0
  -24.9800  -14.9137   15.5309 C   0  0  0  0  0  0  0  0  0  0  0  0
  -26.7657  -13.4387   14.8432 C   0  0  0  0  0  0  0  0  0  0  0  0
  -27.1063  -28.7624   23.7406 C   0  0  0  0  0  0  0  0  0  0  0  0
  -26.7332  -15.4118   12.0979 C   0  0  0  0  0  0  0  0  0  0  0  0
  -27.6174  -15.5524   11.0284 C   0  0  0  0  0  0  0  0  0  0  0  0
  -30.2878  -24.5328   20.9564 C   0  0  0  0  0  0  0  0  0  0  0  0
  -26.9201  -30.4576   22.0344 C   0  0  0  0  0  0  0  0  0  0  0  0
  -28.4002  -26.5166   20.4233 C   0  0  0  0  0  0  0  0  0  0  0  0
  -26.9704  -13.3742   10.2073 C   0  0  0  0  0  0  0  0  0  0  0  0
  -26.6689  -14.2383   17.1210 C   0  0  0  0  0  0  0  0  0  0  0  0
  -26.9181  -13.4184   19.5238 C   0  0  0  0  0  0  0  0  0  0  0  0
  -19.5595  -26.5031   23.1198 C   0  0  0  0  0  0  0  0  0  0  0  0
  -25.1064  -30.1322   23.6042 C   0  0  0  0  0  0  0  0  0  0  0  0
  -20.7902  -26.9498   22.6020 C   0  0  0  0  0  0  0  0  0  0  0  0
  -28.9343  -24.2047   20.8785 C   0  0  0  0  0  0  0  0  0  0  0  0
  -25.6511  -30.8205   22.5107 C   0  0  0  0  0  0  0  0  0  0  0  0
  -30.6975  -25.8527   20.7679 C   0  0  0  0  0  0  0  0  0  0  0  0
  -29.7537  -26.8446   20.5013 C   0  0  0  0  0  0  0  0  0  0  0  0
  -27.9905  -25.1966   20.6120 C   0  0  0  0  0  0  0  0  0  0  0  0
  -25.6074  -14.1555   14.5424 C   0  0  0  0  0  0  0  0  0  0  0  0
  -27.6427  -29.4330   22.6453 C   0  0  0  0  0  0  0  0  0  0  0  0
  -25.9677  -14.2524   12.2223 C   0  0  0  0  0  0  0  0  0  0  0  0
  -27.7360  -14.5336   10.0830 C   0  0  0  0  0  0  0  0  0  0  0  0
  -26.0863  -13.2336   11.2770 C   0  0  0  0  0  0  0  0  0  0  0  0
  -27.2179  -14.2811   18.4525 C   0  0  0  0  0  0  0  0  0  0  0  0
  -27.6954  -13.8748   20.5601 C   0  0  0  0  0  0  0  0  0  0  0  0
  -26.0177  -12.3039   19.5773 C   0  0  0  0  0  0  0  0  0  0  0  0
  -22.3089  -30.2810   22.1024 C   0  0  0  0  0  0  0  0  0  0  0  0
  -22.9201  -33.4667   22.1011 C   0  0  0  0  0  0  0  0  0  0  0  0
  -25.2316  -35.9733   22.2453 C   0  0  0  0  0  0  0  0  0  0  0  0
  -30.0559  -19.0614   21.9649 C   0  0  0  0  0  0  0  0  0  0  0  0
  -18.2737  -27.2486   22.8638 C   0  0  0  0  0  0  0  0  0  0  0  0
  -23.7589  -30.5160   24.1513 C   0  0  0  0  0  0  0  0  0  0  0  0
  -24.9069  -31.9363   21.8254 C   0  0  0  0  0  0  0  0  0  0  0  0
  -18.4858  -28.6892   22.4054 C   0  0  0  0  0  0  0  0  0  0  0  0
  -31.8115  -16.1277   21.4555 C   0  0  0  0  0  0  0  0  0  0  0  0
  -19.5488  -28.7508   21.3132 C   0  0  0  0  0  0  0  0  0  0  0  0
  -30.8109  -15.2262   20.7327 C   0  0  0  0  0  0  0  0  0  0  0  0
  -29.1118  -21.8268   20.0210 C   0  0  0  0  0  0  0  0  0  0  0  0
  -28.8648  -22.2607   22.5029 C   0  0  0  0  0  0  0  0  0  0  0  0
  -31.7323  -17.5581   20.9350 C   0  0  0  0  0  0  0  0  0  0  0  0
  -28.7129  -20.3675   20.2587 C   0  0  0  0  0  0  0  0  0  0  0  0
  -28.4478  -20.8033   22.6779 C   0  0  0  0  0  0  0  0  0  0  0  0
  -29.3559  -17.2700   20.3121 C   0  0  0  0  0  0  0  0  0  0  0  0
  -25.5461  -25.7438   20.8581 C   0  0  0  0  0  0  0  0  0  0  0  0
  -25.9735  -24.2329   19.4552 C   0  0  0  0  0  0  0  0  0  0  0  0
  -28.5168  -22.7616   21.0895 C   0  0  0  0  0  0  0  0  0  0  0  0
  -20.9015  -28.2471   21.8309 C   0  0  1  0  0  0  0  0  0  0  0  0
  -22.8770  -31.2225   23.1264 C   0  0  1  0  0  0  0  0  0  0  0  0
  -29.3884  -15.8092   20.8055 C   0  0  1  0  0  0  0  0  0  0  0  0
  -24.6677  -24.8368   19.9872 C   0  0  0  0  0  0  0  0  0  0  0  0
  -32.1521  -26.1803   20.8575 C   0  0  0  0  0  0  0  0  0  0  0  0
  -30.5290  -28.5533   18.8247 C   0  0  0  0  0  0  0  0  0  0  0  0
  -25.4322  -38.4739   22.1827 C   0  0  0  0  0  0  0  0  0  0  0  0
  -22.4704  -33.4249   19.0835 C   0  0  0  0  0  0  0  0  0  0  0  0
  -23.5898  -35.6607   18.9559 C   0  0  0  0  0  0  0  0  0  0  0  0
  -21.4789  -35.3972   20.2587 C   0  0  0  0  0  0  0  0  0  0  0  0
  -26.4142  -36.0623   24.9568 C   0  0  0  0  0  0  0  0  0  0  0  0
  -29.1075  -29.2779   20.7781 C   0  0  0  0  0  0  0  0  0  1  0  0
  -30.1691  -28.2643   20.2952 C   0  0  1  0  0  0  0  0  0  0  0  0
  -23.6263  -34.4194   21.1670 C   0  0  1  0  0  0  0  0  0  0  0  0
  -25.2861  -37.2470   23.0694 C   0  0  2  0  0  0  0  0  0  0  0  0
  -22.8048  -34.7033   19.8778 C   0  0  0  0  0  0  0  0  0  0  0  0
  -28.1155  -15.2151   18.7782 N   0  0  0  0  0  0  0  0  0  0  0  0
  -28.3863  -14.9419   20.0659 N   0  0  0  0  0  0  0  0  0  0  0  0
  -26.6160  -24.8829   20.5311 N   0  0  0  0  0  0  0  0  0  0  0  0
  -23.5904  -32.2704   22.3935 N   0  0  0  0  0  0  0  0  0  0  0  0
  -30.3660  -18.0742   21.0174 N   0  0  0  0  0  0  0  0  0  0  0  0
  -29.0304  -19.9601   21.6344 N   0  0  0  0  0  0  0  0  0  0  0  0
  -27.8483  -13.4636   21.8368 N   0  0  0  0  0  0  0  0  0  0  0  0
  -25.2970  -11.9712   18.4222 N   0  0  0  0  0  0  0  0  0  0  0  0
  -21.5437  -29.2625   22.6378 N   0  0  0  0  0  0  0  0  0  0  0  0
  -23.9342  -35.6091   21.9533 N   0  0  0  0  0  0  0  0  0  0  0  0
  -23.8987  -25.5636   18.9704 N   0  3  0  0  0  0  0  0  0  0  0  0
  -26.4416  -37.2065   24.0097 N   0  3  0  0  0  0  0  0  0  0  0  0
  -25.8446  -11.6335   20.6233 O   0  0  0  0  0  0  0  0  0  0  0  0
  -22.5459  -30.4658   20.9144 O   0  0  0  0  0  0  0  0  0  0  0  0
  -21.8177  -33.7758   22.5603 O   0  0  0  0  0  0  0  0  0  0  0  0
  -26.2393  -35.3645   21.8925 O   0  0  0  0  0  0  0  0  0  0  0  0
  -30.6586  -19.1357   23.0430 O   0  0  0  0  0  0  0  0  0  0  0  0
  -25.0897  -14.1147   13.2843 O   0  0  0  0  0  0  0  0  0  0  0  0
  -28.8812  -29.0905   22.1706 O   0  0  0  0  0  0  0  0  0  1  0  0
  -28.5840  -14.6694    9.0551 F   0  0  0  0  0  0  0  0  0  0  0  0
  -25.3526  -12.1180   11.3905 F   0  0  0  0  0  0  0  0  0  0  0  0
  1  2  1  0  0  0  0
  1  5  2  0  0  0  0
  2  6  2  0  0  0  0
  3  8  2  0  0  0  0
  3 17  1  0  0  0  0
  4  9  1  0  0  0  0
  4 17  2  0  0  0  0
  5 19  1  0  0  0  0
  6 21  1  0  0  0  0
  7 10  2  0  0  0  0
  7 20  1  0  0  0  0
  8 27  1  0  0  0  0
  9 27  2  0  0  0  0
 10 28  1  0  0  0  0
 11 12  2  0  0  0  0
 11 29  1  0  0  0  0
 12 30  1  0  0  0  0
 13 22  2  0  0  0  0
 13 24  1  0  0  0  0
 14 23  1  0  0  0  0
 14 28  2  0  0  0  0
 15 25  1  0  0  0  0
 15 26  2  0  0  0  0
 16 30  2  0  0  0  0
 16 31  1  0  0  0  0
 17 32  1  0  0  0  0
 18 32  1  0  0  0  0
 18 33  2  0  0  0  0
 18 34  1  0  0  0  0
 19 21  2  0  0  0  0
 19 39  1  0  0  0  0
 20 23  2  0  0  0  0
 20 40  1  0  0  0  0
 21 55  1  0  0  0  0
 22 26  1  0  0  0  0
 22 54  1  0  0  0  0
 23 41  1  0  0  0  0
 24 25  2  0  0  0  0
 24 59  1  0  0  0  0
 25 67  1  0  0  0  0
 26 73  1  0  0  0  0
 27 88  1  0  0  0  0
 28 89  1  0  0  0  0
 29 31  2  0  0  0  0
 29 88  1  0  0  0  0
 30 90  1  0  0  0  0
 31 91  1  0  0  0  0
 32 71  2  0  0  0  0
 33 72  1  0  0  0  0
 33 77  1  0  0  0  0
 34 78  1  0  0  0  0
 34 83  2  0  0  0  0
 35 56  1  0  0  0  0
 35 79  1  0  0  0  0
 35 84  2  0  0  0  0
 36 68  1  0  0  0  0
 36 74  1  0  0  0  0
 36 85  2  0  0  0  0
 37 69  1  0  0  0  0
 37 80  1  0  0  0  0
 37 86  2  0  0  0  0
 38 75  1  0  0  0  0
 38 76  1  0  0  0  0
 38 87  2  0  0  0  0
 39 42  1  0  0  0  0
 40 56  1  0  0  0  0
 41 74  1  0  0  0  0
 42 44  1  0  0  0  0
 43 45  1  0  0  0  0
 43 48  1  0  0  0  0
 44 55  1  0  0  0  0
 45 57  1  0  0  0  0
 46 49  1  0  0  0  0
 46 54  1  0  0  0  0
 47 50  1  0  0  0  0
 47 54  1  0  0  0  0
 48 75  1  0  0  0  0
 49 76  1  0  0  0  0
 50 76  1  0  0  0  0
 51 57  1  0  0  0  0
 51 75  1  0  0  0  0
 52 58  1  0  0  0  0
 52 73  1  0  0  0  0
 53 58  1  0  0  0  0
 53 73  1  0  0  0  0
 55 79  1  0  0  0  0
 56 74  1  0  0  0  0
 57 72  1  0  0  0  0
 58 81  1  0  0  0  0
 60 67  1  0  0  0  0
 61 69  1  0  0  0  0
 62 70  1  0  0  0  0
 63 70  1  0  0  0  0
 64 70  1  0  0  0  0
 65 82  1  0  0  0  0
 66 67  1  0  0  0  0
 66 89  1  0  0  0  0
 68 70  1  0  0  0  0
 68 80  1  0  0  0  0
 69 82  1  0  0  0  0
 71 72  1  0  0  0  0
M  CHG  2  81   1  82   1
M  ISO  4  38 100  66 101  76 100  89 101
M  END
> <Batch ID>
0165

> <Smiles>
CNC(C)C(=O)NC(C(=O)N1Cc2cc([101O:1][101CH2:1]C(C)c3cc(N4CC(N)C4)c(C4CC[100N:0]([100C:0](=O)N5CCCC(n6nc(-c7ccc(Oc8ccc(F)cc8F)cc7)c(C(N)=O)c6N)C5)CC4)cc3C)ccc2CC1C(=O)NC1CCCc2ccccc21)C(C)(C)C

> <Shape>
0.266

> <Color>
0.100

> <Negative vol penalty>
0.000

$$$$

  -OEChem-04052322223D

 90 99  0     1  0  0  0  0  0999 V2000
  -24.5843  -24.5254   27.1290 C   0  0  0  0  0  0  0  0  0  0  0  0
  -25.0558  -24.0716   25.9014 C   0  0  0  0  0  0  0  0  0  0  0  0
  -23.1316   -9.7997   20.0499 C   0  0  0  0  0  0  0  0  0  0  0  0
  -24.0401   -9.9100   22.2858 C   0  0  0  0  0  0  0  0  0  0  0  0
  -23.9447  -25.7613   27.2152 C   0  0  0  0  0  0  0  0  0  0  0  0
  -24.8869  -24.8529   24.7588 C   0  0  0  0  0  0  0  0  0  0  0  0
  -29.0758  -25.0775   21.9220 C   0  0  0  0  0  0  0  0  0  0  0  0
  -22.4731   -8.6141   20.3759 C   0  0  0  0  0  0  0  0  0  0  0  0
  -23.3815   -8.7244   22.6119 C   0  0  0  0  0  0  0  0  0  0  0  0
  -29.3597  -23.9749   21.1173 C   0  0  0  0  0  0  0  0  0  0  0  0
  -20.2513   -7.7649   23.4495 C   0  0  0  0  0  0  0  0  0  0  0  0
  -19.5771   -7.7143   24.6695 C   0  0  0  0  0  0  0  0  0  0  0  0
  -28.4513  -25.1404   19.2105 C   0  0  0  0  0  0  0  0  0  0  0  0
  -26.8177  -18.9429   20.9071 C   0  0  0  0  0  0  0  0  0  0  0  0
  -20.9733   -5.8691   25.3644 C   0  0  0  0  0  0  0  0  0  0  0  0
  -23.9152  -10.4476   21.0048 C   0  0  0  0  0  0  0  0  0  0  0  0
  -24.1033  -12.9838   20.8042 C   0  0  0  0  0  0  0  0  0  0  0  0
  -23.7764  -26.5625   26.0748 C   0  0  0  0  0  0  0  0  0  0  0  0
  -28.4665  -26.2175   21.3783 C   0  0  0  0  0  0  0  0  0  0  0  0
  -24.2432  -26.1000   24.8295 C   0  0  0  0  0  0  0  0  0  0  0  0
  -28.1631  -26.2570   20.0100 C   0  0  0  0  0  0  0  0  0  0  0  0
  -27.8428  -19.1149   19.9771 C   0  0  0  0  0  0  0  0  0  0  0  0
  -27.6943  -20.0323   18.9369 C   0  0  0  0  0  0  0  0  0  0  0  0
  -26.5204  -20.7778   18.8268 C   0  0  0  0  0  0  0  0  0  0  0  0
  -25.4952  -20.6058   19.7569 C   0  0  0  0  0  0  0  0  0  0  0  0
  -22.5980   -8.0764   21.6569 C   0  0  0  0  0  0  0  0  0  0  0  0
  -29.0448  -24.0051   19.7619 C   0  0  0  0  0  0  0  0  0  0  0  0
  -21.2865   -6.8676   23.1869 C   0  0  0  0  0  0  0  0  0  0  0  0
  -25.6438  -19.6883   20.7970 C   0  0  0  0  0  0  0  0  0  0  0  0
  -19.9381   -6.7664   25.6270 C   0  0  0  0  0  0  0  0  0  0  0  0
  -21.6475   -5.9197   24.1444 C   0  0  0  0  0  0  0  0  0  0  0  0
  -24.5961  -11.6721   20.6685 C   0  0  0  0  0  0  0  0  0  0  0  0
  -25.1244  -13.7828   20.3508 C   0  0  0  0  0  0  0  0  0  0  0  0
  -22.8360  -13.4392   21.2962 C   0  0  0  0  0  0  0  0  0  0  0  0
  -25.7224  -27.7445   21.8697 C   0  0  0  0  0  0  0  0  0  0  0  0
  -26.9980  -29.8941   19.8022 C   0  0  0  0  0  0  0  0  0  0  0  0
  -29.1946  -30.5248   17.2676 C   0  0  0  0  0  0  0  0  0  0  0  0
  -30.6246  -14.9570   20.4679 C   0  0  0  0  0  0  0  0  0  0  0  0
  -23.0366  -27.8699   26.2089 C   0  0  0  0  0  0  0  0  0  0  0  0
  -28.1912  -27.4088   22.2544 C   0  0  0  0  0  0  0  0  0  0  0  0
  -27.5269  -27.4647   19.3734 C   0  0  0  0  0  0  0  0  0  0  0  0
  -23.2306  -28.8045   25.0176 C   0  0  0  0  0  0  0  0  0  0  0  0
  -29.4029  -12.6333   17.9082 C   0  0  0  0  0  0  0  0  0  0  0  0
  -23.0549  -28.0430   23.7076 C   0  0  0  0  0  0  0  0  0  0  0  0
  -28.0196  -12.2469   18.4361 C   0  0  0  0  0  0  0  0  0  0  0  0
  -30.3780  -12.9581   19.0383 C   0  0  0  0  0  0  0  0  0  0  0  0
  -28.8678  -16.7774   20.0490 C   0  0  0  0  0  0  0  0  0  0  0  0
  -28.5110  -13.5655   20.5263 C   0  0  0  0  0  0  0  0  0  0  0  0
  -30.7635  -17.2244   21.4629 C   0  0  0  0  0  0  0  0  0  0  0  0
  -29.1018  -18.2948   20.1188 C   0  0  2  0  0  0  0  0  0  0  0  0
  -24.1009  -26.9299   23.5720 C   0  0  1  0  0  0  0  0  0  0  0  0
  -27.1002  -28.3192   21.6993 C   0  0  1  0  0  0  0  0  0  0  0  0
  -27.4833  -13.3070   19.4166 C   0  0  2  0  0  0  0  0  0  0  0  0
  -29.8303  -18.4247   21.4619 C   0  0  2  0  0  0  0  0  0  0  0  0
  -26.3605  -21.7622   17.7115 C   0  0  0  0  0  0  0  0  0  0  0  0
  -24.2335  -21.4014   19.6453 C   0  0  0  0  0  0  0  0  0  0  0  0
  -29.0473  -18.9217   17.1409 C   0  0  0  0  0  0  0  0  0  0  0  0
  -29.9843  -32.3674   15.7581 C   0  0  0  0  0  0  0  0  0  0  0  0
  -24.4472  -29.6296   18.1490 C   0  0  0  0  0  0  0  0  0  0  0  0
  -25.6557  -30.7083   16.2400 C   0  0  0  0  0  0  0  0  0  0  0  0
  -25.3119  -31.9662   18.3665 C   0  0  0  0  0  0  0  0  0  0  0  0
  -31.9623  -30.3416   18.2998 C   0  0  0  0  0  0  0  0  0  0  0  0
  -24.8914  -18.5482   22.7437 C   0  0  0  0  0  0  0  0  0  0  0  0
  -30.1291  -20.7030   18.5637 C   0  0  0  0  0  0  0  0  0  0  0  0
  -29.9321  -21.8045   19.6010 C   0  0  0  0  0  0  0  0  0  1  0  0
  -28.7960  -20.2150   17.9414 C   0  0  2  0  0  0  0  0  0  0  0  0
  -26.9861  -30.0728   18.3033 C   0  0  1  0  0  0  0  0  0  0  0  0
  -30.2133  -31.6327   17.0699 C   0  0  2  0  0  0  0  0  0  0  0  0
  -25.6104  -30.5706   17.7768 C   0  0  0  0  0  0  0  0  0  0  0  0
  -25.8339  -11.6355   20.1679 N   0  0  0  0  0  0  0  0  0  0  0  0
  -26.1275  -12.9341   19.9850 N   0  0  0  0  0  0  0  0  0  0  0  0
  -27.2715  -28.6019   20.2728 N   0  0  0  0  0  0  0  0  0  0  0  0
  -29.8063  -13.9457   19.9534 N   0  0  0  0  0  0  0  0  0  0  0  0
  -30.0358  -16.1956   20.7218 N   0  0  0  0  0  0  0  0  0  0  0  0
  -25.2530  -15.1214   20.2333 N   0  0  0  0  0  0  0  0  0  0  0  0
  -21.9023  -12.4846   21.7218 N   0  0  0  0  0  0  0  0  0  0  0  0
  -25.3803  -27.4831   23.1828 N   0  0  0  0  0  0  0  0  0  0  0  0
  -28.1022  -30.9581   17.9888 N   0  0  0  0  0  0  0  0  0  0  0  0
  -30.5925  -19.6860   21.5421 N   0  3  0  0  0  0  0  0  0  0  0  0
  -31.5937  -31.0714   17.0594 N   0  3  0  0  0  0  0  0  0  0  0  0
  -22.5341  -14.6559   21.3412 O   0  0  0  0  0  0  0  0  0  0  0  0
  -25.0210  -27.5538   20.8831 O   0  0  0  0  0  0  0  0  0  0  0  0
  -26.7801  -30.8667   20.5290 O   0  0  0  0  0  0  0  0  0  0  0  0
  -29.3505  -29.3895   16.8234 O   0  0  0  0  0  0  0  0  0  0  0  0
  -31.8362  -14.7770   20.6479 O   0  0  0  0  0  0  0  0  0  0  0  0
  -21.9554   -6.9197   21.9755 O   0  0  0  0  0  0  0  0  0  0  0  0
  -24.6534  -19.5067   21.7149 O   0  0  0  0  0  0  0  0  0  0  0  0
  -29.3221  -22.9225   18.9688 O   0  0  0  0  0  0  0  0  0  1  0  0
  -19.2916   -6.7189   26.7991 F   0  0  0  0  0  0  0  0  0  0  0  0
  -22.6419   -5.0558   23.8983 F   0  0  0  0  0  0  0  0  0  0  0  0
  1  2  1  0  0  0  0
  1  5  2  0  0  0  0
  2  6  2  0  0  0  0
  3  8  2  0  0  0  0
  3 16  1  0  0  0  0
  4  9  1  0  0  0  0
  4 16  2  0  0  0  0
  5 18  1  0  0  0  0
  6 20  1  0  0  0  0
  7 10  2  0  0  0  0
  7 19  1  0  0  0  0
  8 26  1  0  0  0  0
  9 26  2  0  0  0  0
 10 27  1  0  0  0  0
 11 12  2  0  0  0  0
 11 28  1  0  0  0  0
 12 30  1  0  0  0  0
 13 21  1  0  0  0  0
 13 27  2  0  0  0  0
 14 22  2  0  0  0  0
 14 29  1  0  0  0  0
 15 30  2  0  0  0  0
 15 31  1  0  0  0  0
 16 32  1  0  0  0  0
 17 32  1  0  0  0  0
 17 33  2  0  0  0  0
 17 34  1  0  0  0  0
 18 20  2  0  0  0  0
 18 39  1  0  0  0  0
 19 21  2  0  0  0  0
 19 40  1  0  0  0  0
 20 51  1  0  0  0  0
 21 41  1  0  0  0  0
 22 23  1  0  0  0  0
 22 50  1  0  0  0  0
 23 24  2  0  0  0  0
 23 66  1  0  0  0  0
 24 25  1  0  0  0  0
 24 55  1  0  0  0  0
 25 29  2  0  0  0  0
 25 56  1  0  0  0  0
 26 86  1  0  0  0  0
 27 88  1  0  0  0  0
 28 31  2  0  0  0  0
 28 86  1  0  0  0  0
 29 87  1  0  0  0  0
 30 89  1  0  0  0  0
 31 90  1  0  0  0  0
 32 70  2  0  0  0  0
 33 71  1  0  0  0  0
 33 75  1  0  0  0  0
 34 76  1  0  0  0  0
 34 81  2  0  0  0  0
 35 52  1  0  0  0  0
 35 77  1  0  0  0  0
 35 82  2  0  0  0  0
 36 67  1  0  0  0  0
 36 72  1  0  0  0  0
 36 83  2  0  0  0  0
 37 68  1  0  0  0  0
 37 78  1  0  0  0  0
 37 84  2  0  0  0  0
 38 73  1  0  0  0  0
 38 74  1  0  0  0  0
 38 85  2  0  0  0  0
 39 42  1  0  0  0  0
 40 52  1  0  0  0  0
 41 72  1  0  0  0  0
 42 44  1  0  0  0  0
 43 45  1  0  0  0  0
 43 46  1  0  0  0  0
 44 51  1  0  0  0  0
 45 53  1  0  0  0  0
 46 73  1  0  0  0  0
 47 50  1  0  0  0  0
 47 74  1  0  0  0  0
 48 53  1  0  0  0  0
 48 73  1  0  0  0  0
 49 54  1  0  0  0  0
 49 74  1  0  0  0  0
 50 54  1  0  0  0  0
 51 77  1  0  0  0  0
 52 72  1  0  0  0  0
 53 71  1  0  0  0  0
 54 79  1  0  0  0  0
 57 66  1  0  0  0  0
 58 68  1  0  0  0  0
 59 69  1  0  0  0  0
 60 69  1  0  0  0  0
 61 69  1  0  0  0  0
 62 80  1  0  0  0  0
 63 87  1  0  0  0  0
 64 65  1  0  0  0  0
 64 66  1  0  0  0  0
 65 88  1  0  0  0  0
 67 69  1  0  0  0  0
 67 78  1  0  0  0  0
 68 80  1  0  0  0  0
 70 71  1  0  0  0  0
M  CHG  2  79   1  80   1
M  ISO  4  38 100  65 101  74 100  88 101
M  END
> <Batch ID>
0165

> <Smiles>
CNC(C)C(=O)NC(C(=O)N1Cc2cc([101O:1][101CH2:1]CC(C)c3c(C4C[100N:0]([100C:0](=O)N5CCCC(n6nc(-c7ccc(Oc8ccc(F)cc8F)cc7)c(C(N)=O)c6N)C5)CC4N)cc(OC)c(C)c3C)ccc2CC1C(=O)NC1CCCc2ccccc21)C(C)(C)C

> <Shape>
0.280

> <Color>
0.186

> <Negative vol penalty>
0.000

$$$$

  -OEChem-04052322223D

 89 99  0     1  0  0  0  0  0999 V2000
  -21.1792  -32.7731   19.4155 C   0  0  0  0  0  0  0  0  0  0  0  0
  -21.7545  -31.5666   19.0299 C   0  0  0  0  0  0  0  0  0  0  0  0
  -23.2970  -10.5241   21.4814 C   0  0  0  0  0  0  0  0  0  0  0  0
  -24.8401   -8.7198   21.9291 C   0  0  0  0  0  0  0  0  0  0  0  0
  -20.9656  -33.0417   20.7669 C   0  0  0  0  0  0  0  0  0  0  0  0
  -22.1175  -30.6283   19.9955 C   0  0  0  0  0  0  0  0  0  0  0  0
  -21.8774  -24.5308   19.4775 C   0  0  0  0  0  0  0  0  0  0  0  0
  -22.2527   -9.6053   21.3779 C   0  0  0  0  0  0  0  0  0  0  0  0
  -23.7957   -7.8010   21.8257 C   0  0  0  0  0  0  0  0  0  0  0  0
  -22.8479  -23.5760   19.1771 C   0  0  0  0  0  0  0  0  0  0  0  0
  -21.2496   -6.6990   23.7552 C   0  0  0  0  0  0  0  0  0  0  0  0
  -21.1680   -5.7008   24.7261 C   0  0  0  0  0  0  0  0  0  0  0  0
  -23.1800  -23.1809   21.5335 C   0  0  0  0  0  0  0  0  0  0  0  0
  -21.3906   -4.0141   23.0106 C   0  0  0  0  0  0  0  0  0  0  0  0
  -24.5908  -10.0814   21.7570 C   0  0  0  0  0  0  0  0  0  0  0  0
  -26.1080  -11.6926   23.0258 C   0  0  0  0  0  0  0  0  0  0  0  0
  -21.3173  -32.1023   21.7489 C   0  0  0  0  0  0  0  0  0  0  0  0
  -21.5581  -24.8261   20.8107 C   0  0  0  0  0  0  0  0  0  0  0  0
  -21.9096  -30.8852   21.3613 C   0  0  0  0  0  0  0  0  0  0  0  0
  -22.2033  -24.1380   21.8482 C   0  0  0  0  0  0  0  0  0  0  0  0
  -28.2190  -21.6812   19.8068 C   0  0  0  0  0  0  0  0  0  0  0  0
  -28.4625  -22.6741   18.8579 C   0  0  0  0  0  0  0  0  0  0  0  0
  -29.7657  -23.1152   18.6286 C   0  0  0  0  0  0  0  0  0  0  0  0
  -30.8256  -22.5634   19.3483 C   0  0  0  0  0  0  0  0  0  0  0  0
  -30.5821  -21.5705   20.2972 C   0  0  0  0  0  0  0  0  0  0  0  0
  -29.2788  -21.1294   20.5266 C   0  0  0  0  0  0  0  0  0  0  0  0
  -22.5020   -8.2438   21.5501 C   0  0  0  0  0  0  0  0  0  0  0  0
  -23.5014  -22.9030   20.2051 C   0  0  0  0  0  0  0  0  0  0  0  0
  -21.4015   -6.3548   22.4120 C   0  0  0  0  0  0  0  0  0  0  0  0
  -21.2386   -4.3584   24.3538 C   0  0  0  0  0  0  0  0  0  0  0  0
  -21.4721   -5.0124   22.0398 C   0  0  0  0  0  0  0  0  0  0  0  0
  -25.6701  -11.0299   21.8634 C   0  0  0  0  0  0  0  0  0  0  0  0
  -27.1513  -12.4782   22.6007 C   0  0  0  0  0  0  0  0  0  0  0  0
  -25.6157  -11.6056   24.3696 C   0  0  0  0  0  0  0  0  0  0  0  0
  -21.7324  -27.4219   22.6369 C   0  0  0  0  0  0  0  0  0  0  0  0
  -20.1910  -25.5402   24.7830 C   0  0  0  0  0  0  0  0  0  0  0  0
  -19.4582  -22.3908   25.8743 C   0  0  0  0  0  0  0  0  0  0  0  0
  -29.0491  -16.1448   18.7495 C   0  0  0  0  0  0  0  0  0  0  0  0
  -21.1105  -32.4572   23.2001 C   0  0  0  0  0  0  0  0  0  0  0  0
  -20.4899  -25.8395   21.1177 C   0  0  0  0  0  0  0  0  0  0  0  0
  -21.8826  -24.4037   23.2956 C   0  0  0  0  0  0  0  0  0  0  0  0
  -21.1793  -31.2540   24.1372 C   0  0  0  0  0  0  0  0  0  0  0  0
  -29.6489  -12.5647   18.2051 C   0  0  0  0  0  0  0  0  0  0  0  0
  -22.3890  -30.3865   23.8041 C   0  0  0  0  0  0  0  0  0  0  0  0
  -28.6652  -11.9055   19.1729 C   0  0  0  0  0  0  0  0  0  0  0  0
  -28.9673  -17.7542   22.0539 C   0  0  0  0  0  0  0  0  0  0  0  0
  -26.2733  -21.2517   21.4517 C   0  0  0  0  0  0  0  0  0  0  0  0
  -29.1382  -13.9125   17.7009 C   0  0  0  0  0  0  0  0  0  0  0  0
  -28.6161  -16.5067   21.2499 C   0  0  0  0  0  0  0  0  0  0  0  0
  -27.7643  -14.1947   19.7271 C   0  0  0  0  0  0  0  0  0  0  0  0
  -28.7912  -18.3886   19.7691 C   0  0  0  0  0  0  0  0  0  0  0  0
  -26.8187  -21.2105   20.0511 C   0  0  1  0  0  0  0  0  0  0  0  0
  -22.2941  -29.8319   22.3776 C   0  0  1  0  0  0  0  0  0  0  0  0
  -20.6107  -26.4291   22.5195 C   0  0  1  0  0  0  0  0  0  0  0  0
  -28.2740  -12.8689   20.3090 C   0  0  1  0  0  0  0  0  0  0  0  0
  -28.4309  -18.8717   21.1660 C   0  0  2  0  0  0  0  0  0  0  0  0
  -25.7693  -22.2225   20.4279 C   0  0  1  0  0  0  0  0  0  1  0  0
  -27.3272  -23.2679   18.0844 C   0  0  0  0  0  0  0  0  0  0  0  0
  -30.0274  -24.1808   17.6109 C   0  0  0  0  0  0  0  0  0  0  0  0
  -32.2236  -23.0366   19.1011 C   0  0  0  0  0  0  0  0  0  0  0  0
  -31.7222  -20.9810   21.0677 C   0  0  0  0  0  0  0  0  0  0  0  0
  -18.2055  -21.1716   27.6747 C   0  0  0  0  0  0  0  0  0  0  0  0
  -22.4000  -26.2182   26.7756 C   0  0  0  0  0  0  0  0  0  0  0  0
  -21.6395  -24.2833   28.1707 C   0  0  0  0  0  0  0  0  0  0  0  0
  -20.0939  -26.1940   27.7429 C   0  0  0  0  0  0  0  0  0  0  0  0
  -17.6970  -21.0556   23.9059 C   0  0  0  0  0  0  0  0  0  0  0  0
  -20.6208  -24.5822   25.8677 C   0  0  1  0  0  0  0  0  0  0  0  0
  -18.1433  -21.7409   26.2660 C   0  0  2  0  0  0  0  0  0  0  0  0
  -21.1962  -25.3156   27.1121 C   0  0  0  0  0  0  0  0  0  0  0  0
  -26.3773  -11.3656   20.7812 N   0  0  0  0  0  0  0  0  0  0  0  0
  -27.2701  -12.2477   21.2617 N   0  0  0  0  0  0  0  0  0  0  0  0
  -20.8353  -25.4080   23.5447 N   0  0  0  0  0  0  0  0  0  0  0  0
  -28.7544  -14.7786   18.8158 N   0  0  0  0  0  0  0  0  0  0  0  0
  -28.7171  -16.9319   19.8514 N   0  0  0  0  0  0  0  0  0  0  0  0
  -27.9694  -13.3369   23.2454 N   0  0  0  0  0  0  0  0  0  0  0  0
  -24.5374  -10.7495   24.6320 N   0  0  0  0  0  0  0  0  0  0  0  0
  -29.0381  -20.1403   21.4705 N   0  0  0  0  0  0  0  0  0  0  0  0
  -21.3700  -28.7192   22.3283 N   0  0  0  0  0  0  0  0  0  0  0  0
  -19.4630  -23.7414   26.1520 N   0  0  0  0  0  0  0  0  0  0  0  0
  -17.8126  -20.6332   25.3255 N   0  3  0  0  0  0  0  0  0  0  0  0
  -26.1065  -12.2797   25.3066 O   0  0  0  0  0  0  0  0  0  0  0  0
  -22.8439  -27.0396   22.9833 O   0  0  0  0  0  0  0  0  0  0  0  0
  -19.3108  -26.3704   25.0233 O   0  0  0  0  0  0  0  0  0  0  0  0
  -20.3892  -21.7624   25.3756 O   0  0  0  0  0  0  0  0  0  0  0  0
  -29.6265  -16.6322   17.7686 O   0  0  0  0  0  0  0  0  0  0  0  0
  -21.4831   -7.3469   21.4494 O   0  0  0  0  0  0  0  0  0  0  0  0
  -24.4516  -21.9691   19.9140 O   0  0  0  0  0  0  0  0  0  1  0  0
  -21.1618   -3.4000   25.2864 F   0  0  0  0  0  0  0  0  0  0  0  0
  -21.6193   -4.6755   20.7511 F   0  0  0  0  0  0  0  0  0  0  0  0
  1  2  1  0  0  0  0
  1  5  2  0  0  0  0
  2  6  2  0  0  0  0
  3  8  2  0  0  0  0
  3 15  1  0  0  0  0
  4  9  1  0  0  0  0
  4 15  2  0  0  0  0
  5 17  1  0  0  0  0
  6 19  1  0  0  0  0
  7 10  2  0  0  0  0
  7 18  1  0  0  0  0
  8 27  1  0  0  0  0
  9 27  2  0  0  0  0
 10 28  1  0  0  0  0
 11 12  2  0  0  0  0
 11 29  1  0  0  0  0
 12 30  1  0  0  0  0
 13 20  1  0  0  0  0
 13 28  2  0  0  0  0
 14 30  2  0  0  0  0
 14 31  1  0  0  0  0
 15 32  1  0  0  0  0
 16 32  1  0  0  0  0
 16 33  2  0  0  0  0
 16 34  1  0  0  0  0
 17 19  2  0  0  0  0
 17 39  1  0  0  0  0
 18 20  2  0  0  0  0
 18 40  1  0  0  0  0
 19 53  1  0  0  0  0
 20 41  1  0  0  0  0
 21 22  1  0  0  0  0
 21 26  2  0  0  0  0
 21 52  1  0  0  0  0
 22 23  2  0  0  0  0
 22 58  1  0  0  0  0
 23 24  1  0  0  0  0
 23 59  1  0  0  0  0
 24 25  2  0  0  0  0
 24 60  1  0  0  0  0
 25 26  1  0  0  0  0
 25 61  1  0  0  0  0
 26 77  1  0  0  0  0
 27 86  1  0  0  0  0
 28 87  1  0  0  0  0
 29 31  2  0  0  0  0
 29 86  1  0  0  0  0
 30 88  1  0  0  0  0
 31 89  1  0  0  0  0
 32 70  2  0  0  0  0
 33 71  1  0  0  0  0
 33 75  1  0  0  0  0
 34 76  1  0  0  0  0
 34 81  2  0  0  0  0
 35 54  1  0  0  0  0
 35 78  1  0  0  0  0
 35 82  2  0  0  0  0
 36 67  1  0  0  0  0
 36 72  1  0  0  0  0
 36 83  2  0  0  0  0
 37 68  1  0  0  0  0
 37 79  1  0  0  0  0
 37 84  2  0  0  0  0
 38 73  1  0  0  0  0
 38 74  1  0  0  0  0
 38 85  2  0  0  0  0
 39 42  1  0  0  0  0
 40 54  1  0  0  0  0
 41 72  1  0  0  0  0
 42 44  1  0  0  0  0
 43 45  1  0  0  0  0
 43 48  1  0  0  0  0
 44 53  1  0  0  0  0
 45 55  1  0  0  0  0
 46 49  1  0  0  0  0
 46 56  1  0  0  0  0
 47 52  1  0  0  0  0
 47 57  1  0  0  0  0
 48 73  1  0  0  0  0
 49 74  1  0  0  0  0
 50 55  1  0  0  0  0
 50 73  1  0  0  0  0
 51 56  1  0  0  0  0
 51 74  1  0  0  0  0
 52 57  1  0  0  0  0
 53 78  1  0  0  0  0
 54 72  1  0  0  0  0
 55 71  1  0  0  0  0
 56 77  1  0  0  0  0
 57 87  1  0  0  0  0
 62 68  1  0  0  0  0
 63 69  1  0  0  0  0
 64 69  1  0  0  0  0
 65 69  1  0  0  0  0
 66 80  1  0  0  0  0
 67 69  1  0  0  0  0
 67 79  1  0  0  0  0
 68 80  1  0  0  0  0
 70 71  1  0  0  0  0
M  CHG  1  80   1
M  ISO  4  38 100  57 101  74 100  87 101
M  END
> <Batch ID>
0165

> <Smiles>
CNC(C)C(=O)NC(C(=O)N1Cc2cc([101O:1][101CH:1]3CC3c3c(C)c(C)c(C)c(C)c3NC3CC[100N:0]([100C:0](=O)N4CCCC(n5nc(-c6ccc(Oc7ccc(F)cc7F)cc6)c(C(N)=O)c5N)C4)C3)ccc2CC1C(=O)NC1CCCc2ccccc21)C(C)(C)C

> <Shape>
0.242

> <Color>
0.083

> <Negative vol penalty>
0.000

$$$$

  -OEChem-04052322223D

 88 98  0     1  0  0  0  0  0999 V2000
  -31.7687  -31.3886   16.2136 C   0  0  0  0  0  0  0  0  0  0  0  0
  -32.2492  -30.7307   17.3413 C   0  0  0  0  0  0  0  0  0  0  0  0
  -22.9889  -10.0343   19.8925 C   0  0  0  0  0  0  0  0  0  0  0  0
  -23.8025   -9.8647   22.1610 C   0  0  0  0  0  0  0  0  0  0  0  0
  -30.6370  -30.9074   15.5566 C   0  0  0  0  0  0  0  0  0  0  0  0
  -31.5976  -29.5919   17.8134 C   0  0  0  0  0  0  0  0  0  0  0  0
  -34.1768  -24.6958   20.4367 C   0  0  0  0  0  0  0  0  0  0  0  0
  -22.1962   -8.9041   20.0922 C   0  0  0  0  0  0  0  0  0  0  0  0
  -23.0098   -8.7344   22.3608 C   0  0  0  0  0  0  0  0  0  0  0  0
  -34.3318  -24.3185   21.7699 C   0  0  0  0  0  0  0  0  0  0  0  0
  -19.2482   -8.1588   21.5709 C   0  0  0  0  0  0  0  0  0  0  0  0
  -17.9295   -8.2038   21.1187 C   0  0  0  0  0  0  0  0  0  0  0  0
  -32.3450  -22.9598   21.6101 C   0  0  0  0  0  0  0  0  0  0  0  0
  -18.3629   -6.3216   19.6674 C   0  0  0  0  0  0  0  0  0  0  0  0
  -23.7921  -10.5145   20.9269 C   0  0  0  0  0  0  0  0  0  0  0  0
  -24.2528  -13.0235   20.9501 C   0  0  0  0  0  0  0  0  0  0  0  0
  -29.9768  -29.7565   16.0152 C   0  0  0  0  0  0  0  0  0  0  0  0
  -33.0967  -24.2157   19.6821 C   0  0  0  0  0  0  0  0  0  0  0  0
  -30.4552  -29.0957   17.1627 C   0  0  0  0  0  0  0  0  0  0  0  0
  -32.1800  -23.3304   20.2668 C   0  0  0  0  0  0  0  0  0  0  0  0
  -22.2066   -8.2542   21.3264 C   0  0  0  0  0  0  0  0  0  0  0  0
  -33.4143  -23.4527   22.3576 C   0  0  0  0  0  0  0  0  0  0  0  0
  -20.1244   -7.1953   21.0712 C   0  0  0  0  0  0  0  0  0  0  0  0
  -17.4868   -7.2852   20.1670 C   0  0  0  0  0  0  0  0  0  0  0  0
  -19.6817   -6.2766   20.1195 C   0  0  0  0  0  0  0  0  0  0  0  0
  -24.6116  -11.6817   20.7209 C   0  0  0  0  0  0  0  0  0  0  0  0
  -25.3710  -13.7419   20.6037 C   0  0  0  0  0  0  0  0  0  0  0  0
  -31.2809  -16.4204   23.5645 C   0  0  0  0  0  0  0  0  0  0  0  0
  -23.0191  -13.5716   21.4331 C   0  0  0  0  0  0  0  0  0  0  0  0
  -30.9209  -20.7420   24.9319 C   0  0  0  0  0  0  0  0  0  0  0  0
  -30.6210  -25.5547   18.2052 C   0  0  0  0  0  0  0  0  0  0  0  0
  -30.1127  -22.5296   17.1501 C   0  0  0  0  0  0  0  0  0  0  0  0
  -30.5665  -19.1808   17.6258 C   0  0  0  0  0  0  0  0  0  0  0  0
  -30.9006  -14.4893   20.7070 C   0  0  0  0  0  0  0  0  0  0  0  0
  -28.7295  -29.3015   15.2997 C   0  0  0  0  0  0  0  0  0  0  0  0
  -32.9586  -24.6110   18.2374 C   0  0  0  0  0  0  0  0  0  0  0  0
  -31.0146  -22.7708   19.4940 C   0  0  0  0  0  0  0  0  0  0  0  0
  -28.3169  -27.8727   15.6439 C   0  0  0  0  0  0  0  0  0  0  0  0
  -29.5925  -12.3120   18.2120 C   0  0  0  0  0  0  0  0  0  0  0  0
  -28.3674  -27.6511   17.1523 C   0  0  0  0  0  0  0  0  0  0  0  0
  -28.1532  -12.0599   18.6646 C   0  0  0  0  0  0  0  0  0  0  0  0
  -28.7468  -17.2380   26.1399 C   0  0  0  0  0  0  0  0  0  0  0  0
  -29.7408  -16.1366   26.3577 C   0  0  0  0  0  0  0  0  0  0  0  0
  -30.3247  -17.8578   21.9065 C   0  0  0  0  0  0  0  0  0  0  0  0
  -32.5547  -22.4942   25.8502 C   0  0  0  0  0  0  0  0  0  0  0  0
  -30.5475  -12.4153   19.3991 C   0  0  0  0  0  0  0  0  0  0  0  0
  -28.7169  -13.1481   20.8775 C   0  0  0  0  0  0  0  0  0  0  0  0
  -29.7903  -27.8430   17.6907 C   0  0  1  0  0  0  0  0  0  0  0  0
  -31.0998  -16.5543   22.0690 C   0  0  2  0  0  0  0  0  0  0  0  0
  -32.2451  -21.3722   24.8960 C   0  0  2  0  0  0  0  0  0  0  0  0
  -31.5334  -24.4674   17.7123 C   0  0  1  0  0  0  0  0  0  0  0  0
  -27.7077  -13.0921   19.7178 C   0  0  2  0  0  0  0  0  0  0  0  0
  -30.1381  -17.3624   25.5818 C   0  0  0  0  0  0  0  0  0  0  0  0
  -32.3738  -22.7855   24.3894 C   0  0  2  0  0  0  0  0  0  1  0  0
  -29.5510  -18.0073   23.2137 C   0  0  2  0  0  0  0  0  0  0  0  0
  -30.0024  -16.9535   16.6166 C   0  0  0  0  0  0  0  0  0  0  0  0
  -28.5023  -20.1713   22.4631 C   0  0  0  0  0  0  0  0  0  0  0  0
  -27.2659  -22.7677   18.2221 C   0  0  0  0  0  0  0  0  0  0  0  0
  -27.0701  -20.2772   18.0577 C   0  0  0  0  0  0  0  0  0  0  0  0
  -27.4527  -21.6349   16.0003 C   0  0  0  0  0  0  0  0  0  0  0  0
  -33.4208  -18.5106   17.2219 C   0  0  0  0  0  0  0  0  0  0  0  0
  -29.3391  -21.3364   17.6569 C   0  0  1  0  0  0  0  0  0  0  0  0
  -31.0201  -18.0817   16.6820 C   0  0  2  0  0  0  0  0  0  0  0  0
  -29.2870  -19.4656   23.5594 C   0  0  2  0  0  0  0  0  0  0  0  0
  -27.8027  -21.5160   17.4996 C   0  0  0  0  0  0  0  0  0  0  0  0
  -25.8600  -11.5525   20.2641 N   0  0  0  0  0  0  0  0  0  0  0  0
  -26.2954  -12.8225   20.2033 N   0  0  0  0  0  0  0  0  0  0  0  0
  -30.3811  -17.3028   24.1700 N   0  0  0  0  0  0  0  0  0  0  0  0
  -30.9190  -23.1920   18.0866 N   0  0  0  0  0  0  0  0  0  0  0  0
  -30.0686  -13.4121   20.3598 N   0  0  0  0  0  0  0  0  0  0  0  0
  -25.6438  -15.0640   20.6055 N   0  0  0  0  0  0  0  0  0  0  0  0
  -21.9726  -12.6918   21.7418 N   0  0  0  0  0  0  0  0  0  0  0  0
  -30.6010  -26.6793   17.4024 N   0  0  0  0  0  0  0  0  0  0  0  0
  -30.5497  -20.1447   23.7424 N   0  0  0  0  0  0  0  0  0  0  0  0
  -29.8793  -20.1739   16.9604 N   0  0  0  0  0  0  0  0  0  0  0  0
  -30.3672  -15.3917   21.6191 N   0  0  0  0  0  0  0  0  0  0  0  0
  -32.3218  -17.5147   17.1347 N   0  3  0  0  0  0  0  0  0  0  0  0
  -32.0175  -15.6102   24.1091 O   0  0  0  0  0  0  0  0  0  0  0  0
  -22.8441  -14.8060   21.5708 O   0  0  0  0  0  0  0  0  0  0  0  0
  -30.2607  -20.7817   25.9635 O   0  0  0  0  0  0  0  0  0  0  0  0
  -29.9812  -25.3852   19.2365 O   0  0  0  0  0  0  0  0  0  0  0  0
  -30.0111  -22.8574   15.9653 O   0  0  0  0  0  0  0  0  0  0  0  0
  -30.7955  -19.1586   18.8331 O   0  0  0  0  0  0  0  0  0  0  0  0
  -32.0326  -14.6389   20.2346 O   0  0  0  0  0  0  0  0  0  0  0  0
  -21.4331   -7.1514   21.5217 O   0  0  0  0  0  0  0  0  0  0  0  0
  -33.5629  -23.0834   23.6589 O   0  0  0  0  0  0  0  0  0  1  0  0
  -16.2199   -7.3275   19.7340 F   0  0  0  0  0  0  0  0  0  0  0  0
  -20.5185   -5.3479   19.6367 F   0  0  0  0  0  0  0  0  0  0  0  0
  1  2  1  0  0  0  0
  1  5  2  0  0  0  0
  2  6  2  0  0  0  0
  3  8  2  0  0  0  0
  3 15  1  0  0  0  0
  4  9  1  0  0  0  0
  4 15  2  0  0  0  0
  5 17  1  0  0  0  0
  6 19  1  0  0  0  0
  7 10  2  0  0  0  0
  7 18  1  0  0  0  0
  8 21  1  0  0  0  0
  9 21  2  0  0  0  0
 10 22  1  0  0  0  0
 11 12  2  0  0  0  0
 11 23  1  0  0  0  0
 12 24  1  0  0  0  0
 13 20  1  0  0  0  0
 13 22  2  0  0  0  0
 14 24  2  0  0  0  0
 14 25  1  0  0  0  0
 15 26  1  0  0  0  0
 16 26  1  0  0  0  0
 16 27  2  0  0  0  0
 16 29  1  0  0  0  0
 17 19  2  0  0  0  0
 17 35  1  0  0  0  0
 18 20  2  0  0  0  0
 18 36  1  0  0  0  0
 19 48  1  0  0  0  0
 20 37  1  0  0  0  0
 21 85  1  0  0  0  0
 22 86  1  0  0  0  0
 23 25  2  0  0  0  0
 23 85  1  0  0  0  0
 24 87  1  0  0  0  0
 25 88  1  0  0  0  0
 26 66  2  0  0  0  0
 27 67  1  0  0  0  0
 27 71  1  0  0  0  0
 28 49  1  0  0  0  0
 28 68  1  0  0  0  0
 28 78  2  0  0  0  0
 29 72  1  0  0  0  0
 29 79  2  0  0  0  0
 30 50  1  0  0  0  0
 30 74  1  0  0  0  0
 30 80  2  0  0  0  0
 31 51  1  0  0  0  0
 31 73  1  0  0  0  0
 31 81  2  0  0  0  0
 32 62  1  0  0  0  0
 32 69  1  0  0  0  0
 32 82  2  0  0  0  0
 33 63  1  0  0  0  0
 33 75  1  0  0  0  0
 33 83  2  0  0  0  0
 34 70  1  0  0  0  0
 34 76  1  0  0  0  0
 34 84  2  0  0  0  0
 35 38  1  0  0  0  0
 36 51  1  0  0  0  0
 37 69  1  0  0  0  0
 38 40  1  0  0  0  0
 39 41  1  0  0  0  0
 39 46  1  0  0  0  0
 40 48  1  0  0  0  0
 41 52  1  0  0  0  0
 42 43  1  0  0  0  0
 42 53  1  0  0  0  0
 43 53  1  0  0  0  0
 44 49  1  0  0  0  0
 44 55  1  0  0  0  0
 45 50  1  0  0  0  0
 45 54  1  0  0  0  0
 46 70  1  0  0  0  0
 47 52  1  0  0  0  0
 47 70  1  0  0  0  0
 48 73  1  0  0  0  0
 49 76  1  0  0  0  0
 50 54  1  0  0  0  0
 51 69  1  0  0  0  0
 52 67  1  0  0  0  0
 53 68  1  0  0  0  0
 54 86  1  0  0  0  0
 55 64  1  0  0  0  0
 55 68  1  0  0  0  0
 56 63  1  0  0  0  0
 57 64  1  0  0  0  0
 58 65  1  0  0  0  0
 59 65  1  0  0  0  0
 60 65  1  0  0  0  0
 61 77  1  0  0  0  0
 62 65  1  0  0  0  0
 62 75  1  0  0  0  0
 63 77  1  0  0  0  0
 64 74  1  0  0  0  0
 66 67  1  0  0  0  0
M  CHG  1  77   1
M  ISO  4  34 100  54 101  76 100  86 101
M  END
> <Batch ID>
0165

> <Smiles>
CNC(C)C(=O)NC(C(=O)N1Cc2cc([101O:1][101CH:1]3CC3C(=O)NC(C)C3CC([100NH:0][100C:0](=O)N4CCCC(n5nc(-c6ccc(Oc7ccc(F)cc7F)cc6)c(C(N)=O)c5N)C4)C(=O)N3C3CC3)ccc2CC1C(=O)NC1CCCc2ccccc21)C(C)(C)C

> <Shape>
0.203

> <Color>
0.192

> <Negative vol penalty>
0.000

$$$$
