
  -OEChem-04052322243D

 91101  0     1  0  0  0  0  0999 V2000
  -19.6899  -24.3650   23.2611 C   0  0  0  0  0  0  0  0  0  0  0  0
  -20.8465  -24.5972   22.5237 C   0  0  0  0  0  0  0  0  0  0  0  0
  -23.6070  -12.7575   22.4850 C   0  0  0  0  0  0  0  0  0  0  0  0
  -23.0070  -12.3324   20.1836 C   0  0  0  0  0  0  0  0  0  0  0  0
  -18.7911  -25.4056   23.4920 C   0  0  0  0  0  0  0  0  0  0  0  0
  -21.1045  -25.8699   22.0159 C   0  0  0  0  0  0  0  0  0  0  0  0
  -25.9048  -27.3130   22.7369 C   0  0  0  0  0  0  0  0  0  0  0  0
  -22.3693  -12.2650   22.8987 C   0  0  0  0  0  0  0  0  0  0  0  0
  -21.7693  -11.8398   20.5973 C   0  0  0  0  0  0  0  0  0  0  0  0
  -26.8651  -26.7829   21.8764 C   0  0  0  0  0  0  0  0  0  0  0  0
  -20.5422   -8.9793   21.9135 C   0  0  0  0  0  0  0  0  0  0  0  0
  -20.0914   -7.7937   21.3332 C   0  0  0  0  0  0  0  0  0  0  0  0
  -26.8329  -28.8247   20.5923 C   0  0  0  0  0  0  0  0  0  0  0  0
  -18.1431   -8.9471   20.4902 C   0  0  0  0  0  0  0  0  0  0  0  0
  -23.9258  -12.7912   21.1275 C   0  0  0  0  0  0  0  0  0  0  0  0
  -26.3945  -12.5699   20.5239 C   0  0  0  0  0  0  0  0  0  0  0  0
  -19.0430  -26.6940   22.9949 C   0  0  0  0  0  0  0  0  0  0  0  0
  -25.3925  -28.6010   22.5248 C   0  0  0  0  0  0  0  0  0  0  0  0
  -20.2076  -26.9284   22.2392 C   0  0  0  0  0  0  0  0  0  0  0  0
  -25.8680  -29.3699   21.4530 C   0  0  0  0  0  0  0  0  0  0  0  0
  -29.1281  -25.7776   17.5277 C   0  0  0  0  0  0  0  0  0  0  0  0
  -29.4897  -24.6820   18.3251 C   0  0  0  0  0  0  0  0  0  0  0  0
  -28.2964  -25.6062   16.4303 C   0  0  0  0  0  0  0  0  0  0  0  0
  -27.8332  -24.3215   16.1369 C   0  0  0  0  0  0  0  0  0  0  0  0
  -28.1944  -23.2297   16.9401 C   0  0  0  0  0  0  0  0  0  0  0  0
  -29.0246  -23.4066   18.0480 C   0  0  0  0  0  0  0  0  0  0  0  0
  -21.4504  -11.8062   21.9549 C   0  0  0  0  0  0  0  0  0  0  0  0
  -27.3272  -27.5376   20.8022 C   0  0  0  0  0  0  0  0  0  0  0  0
  -19.7934  -10.1488   21.7822 C   0  0  0  0  0  0  0  0  0  0  0  0
  -18.8919   -7.7776   20.6216 C   0  0  0  0  0  0  0  0  0  0  0  0
  -18.5938  -10.1327   21.0705 C   0  0  0  0  0  0  0  0  0  0  0  0
  -25.2040  -13.3004   20.6995 C   0  0  0  0  0  0  0  0  0  0  0  0
  -27.3128  -13.5040   20.1110 C   0  0  0  0  0  0  0  0  0  0  0  0
  -26.6476  -11.1718   20.7166 C   0  0  0  0  0  0  0  0  0  0  0  0
  -22.5140  -29.7950   21.8982 C   0  0  0  0  0  0  0  0  0  0  0  0
  -24.0426  -32.6337   22.2551 C   0  0  0  0  0  0  0  0  0  0  0  0
  -26.9760  -34.3756   22.1689 C   0  0  0  0  0  0  0  0  0  0  0  0
  -29.4219  -18.5139   20.1851 C   0  0  0  0  0  0  0  0  0  0  0  0
  -18.0188  -27.7759   23.2300 C   0  0  0  0  0  0  0  0  0  0  0  0
  -24.3765  -29.1686   23.4777 C   0  0  0  0  0  0  0  0  0  0  0  0
  -30.3537  -25.1071   19.4698 C   0  0  0  0  0  0  0  0  0  0  0  0
  -25.3649  -30.7656   21.1936 C   0  0  0  0  0  0  0  0  0  0  0  0
  -18.5507  -29.1839   22.9756 C   0  0  0  0  0  0  0  0  0  0  0  0
  -30.8492  -26.4738   18.9734 C   0  0  0  0  0  0  0  0  0  0  0  0
  -25.7340  -18.1356   19.8421 C   0  0  0  0  0  0  0  0  0  0  0  0
  -19.3186  -29.2346   21.6585 C   0  0  0  0  0  0  0  0  0  0  0  0
  -26.1585  -16.9524   18.9725 C   0  0  0  0  0  0  0  0  0  0  0  0
  -26.9379  -18.9654   20.3035 C   0  0  0  0  0  0  0  0  0  0  0  0
  -28.5101  -22.0131   20.0111 C   0  0  0  0  0  0  0  0  0  0  0  0
  -29.1168  -20.9399   20.9077 C   0  0  0  0  0  0  0  0  0  0  0  0
  -27.8516  -16.7417   20.8791 C   0  0  0  0  0  0  0  0  0  0  0  0
  -30.7594  -21.8263   18.8885 C   0  0  0  0  0  0  0  0  0  0  0  0
  -20.5348  -28.3012   21.6928 C   0  0  1  0  0  0  0  0  0  0  0  0
  -23.5482  -30.2948   22.8669 C   0  0  1  0  0  0  0  0  0  0  0  0
  -27.2007  -16.0469   19.6699 C   0  0  1  0  0  0  0  0  0  0  0  0
  -30.8433  -20.3287   19.2641 C   0  0  1  0  0  0  0  0  0  0  0  0
  -29.7340  -27.0546   18.0630 C   0  0  1  0  0  0  0  0  0  0  0  0
  -27.8638  -26.7567   15.5848 C   0  0  0  0  0  0  0  0  0  0  0  0
  -26.9339  -24.1069   14.9585 C   0  0  0  0  0  0  0  0  0  0  0  0
  -27.6783  -21.8633   16.6077 C   0  0  0  0  0  0  0  0  0  0  0  0
  -32.1952  -20.0487   19.9323 C   0  0  0  0  0  0  0  0  0  0  0  0
  -30.3312  -27.9487   16.9734 C   0  0  0  0  0  0  0  0  0  0  0  0
  -27.9033  -36.6883   22.4677 C   0  0  0  0  0  0  0  0  0  0  0  0
  -22.9563  -33.4208   19.5145 C   0  0  0  0  0  0  0  0  0  0  0  0
  -24.6424  -35.2705   19.4547 C   0  0  0  0  0  0  0  0  0  0  0  0
  -22.8868  -35.2424   21.2266 C   0  0  0  0  0  0  0  0  0  0  0  0
  -28.6903  -33.5222   24.4254 C   0  0  0  0  0  0  0  0  0  0  0  0
  -28.6985  -27.8363   18.8823 C   0  0  0  0  0  0  0  0  0  1  0  0
  -24.7825  -33.5729   21.3333 C   0  0  1  0  0  0  0  0  0  0  0  0
  -27.5903  -35.3630   23.1448 C   0  0  2  0  0  0  0  0  0  0  0  0
  -23.8253  -34.3496   20.3858 C   0  0  0  0  0  0  0  0  0  0  0  0
  -25.3498  -14.5986   20.4212 N   0  0  0  0  0  0  0  0  0  0  0  0
  -26.6428  -14.6911   20.0665 N   0  0  0  0  0  0  0  0  0  0  0  0
  -29.3797  -22.3253   18.8658 N   0  0  2  0  0  0  0  0  0  0  0  0
  -24.3673  -31.2739   22.1496 N   0  0  0  0  0  0  0  0  0  0  0  0
  -28.1254  -18.1451   20.5761 N   0  0  0  0  0  0  0  0  0  0  0  0
  -29.7171  -19.8846   20.0974 N   0  0  0  0  0  0  0  0  0  0  0  0
  -28.6201  -13.4176   19.7854 N   0  0  0  0  0  0  0  0  0  0  0  0
  -25.5922  -10.3544   21.1435 N   0  0  0  0  0  0  0  0  0  0  0  0
  -21.6128  -28.9032   22.4477 N   0  0  0  0  0  0  0  0  0  0  0  0
  -25.5983  -34.4269   22.1898 N   0  0  0  0  0  0  0  0  0  0  0  0
  -28.8550  -34.8138   23.7101 N   0  3  0  0  0  0  0  0  0  0  0  0
  -27.7803  -10.6655   20.5319 O   0  0  0  0  0  0  0  0  0  0  0  0
  -22.5315  -30.1904   20.7384 O   0  0  0  0  0  0  0  0  0  0  0  0
  -23.2124  -33.0908   23.0447 O   0  0  0  0  0  0  0  0  0  0  0  0
  -27.6510  -33.6357   21.4565 O   0  0  0  0  0  0  0  0  0  0  0  0
  -30.2700  -17.6519   19.9186 O   0  0  0  0  0  0  0  0  0  0  0  0
  -20.2427  -11.3253   22.3582 O   0  0  0  0  0  0  0  0  0  0  0  0
  -28.2735  -27.0171   19.9519 O   0  0  0  0  0  0  0  0  0  1  0  0
  -18.4599   -6.6393   20.0631 F   0  0  0  0  0  0  0  0  0  0  0  0
  -17.8707  -11.2534   20.9400 F   0  0  0  0  0  0  0  0  0  0  0  0
  1  2  1  0  0  0  0
  1  5  2  0  0  0  0
  2  6  2  0  0  0  0
  3  8  2  0  0  0  0
  3 15  1  0  0  0  0
  4  9  1  0  0  0  0
  4 15  2  0  0  0  0
  5 17  1  0  0  0  0
  6 19  1  0  0  0  0
  7 10  2  0  0  0  0
  7 18  1  0  0  0  0
  8 27  1  0  0  0  0
  9 27  2  0  0  0  0
 10 28  1  0  0  0  0
 11 12  2  0  0  0  0
 11 29  1  0  0  0  0
 12 30  1  0  0  0  0
 13 20  1  0  0  0  0
 13 28  2  0  0  0  0
 14 30  2  0  0  0  0
 14 31  1  0  0  0  0
 15 32  1  0  0  0  0
 16 32  1  0  0  0  0
 16 33  2  0  0  0  0
 16 34  1  0  0  0  0
 17 19  2  0  0  0  0
 17 39  1  0  0  0  0
 18 20  2  0  0  0  0
 18 40  1  0  0  0  0
 19 53  1  0  0  0  0
 20 42  1  0  0  0  0
 21 22  2  0  0  0  0
 21 23  1  0  0  0  0
 21 57  1  0  0  0  0
 22 26  1  0  0  0  0
 22 41  1  0  0  0  0
 23 24  2  0  0  0  0
 23 58  1  0  0  0  0
 24 25  1  0  0  0  0
 24 59  1  0  0  0  0
 25 26  2  0  0  0  0
 25 60  1  0  0  0  0
 26 74  1  0  0  0  0
 27 88  1  0  0  0  0
 28 89  1  0  0  0  0
 29 31  2  0  0  0  0
 29 88  1  0  0  0  0
 30 90  1  0  0  0  0
 31 91  1  0  0  0  0
 32 72  2  0  0  0  0
 33 73  1  0  0  0  0
 33 78  1  0  0  0  0
 34 79  1  0  0  0  0
 34 83  2  0  0  0  0
 35 54  1  0  0  0  0
 35 80  1  0  0  0  0
 35 84  2  0  0  0  0
 36 69  1  0  0  0  0
 36 75  1  0  0  0  0
 36 85  2  0  0  0  0
 37 70  1  0  0  0  0
 37 81  1  0  0  0  0
 37 86  2  0  0  0  0
 38 76  1  0  0  0  0
 38 77  1  0  0  0  0
 38 87  2  0  0  0  0
 39 43  1  0  0  0  0
 40 54  1  0  0  0  0
 41 44  1  0  0  0  0
 42 75  1  0  0  0  0
 43 46  1  0  0  0  0
 44 57  1  0  0  0  0
 45 47  1  0  0  0  0
 45 48  1  0  0  0  0
 46 53  1  0  0  0  0
 47 55  1  0  0  0  0
 48 76  1  0  0  0  0
 49 50  1  0  0  0  0
 49 74  1  0  0  0  0
 50 77  1  0  0  0  0
 51 55  1  0  0  0  0
 51 76  1  0  0  0  0
 52 56  1  0  0  0  0
 52 74  1  0  0  0  0
 53 80  1  0  0  0  0
 54 75  1  0  0  0  0
 55 73  1  0  0  0  0
 56 61  1  0  0  0  0
 56 77  1  0  0  0  0
 57 62  1  0  0  0  0
 57 68  1  0  0  0  0
 63 70  1  0  0  0  0
 64 71  1  0  0  0  0
 65 71  1  0  0  0  0
 66 71  1  0  0  0  0
 67 82  1  0  0  0  0
 68 89  1  0  0  0  0
 69 71  1  0  0  0  0
 69 81  1  0  0  0  0
 70 82  1  0  0  0  0
 72 73  1  0  0  0  0
M  CHG  1  82   1
M  ISO  4  38 100  68 101  77 100  89 101
M  END
> <Batch ID>
0166

> <Smiles>
CNC(C)C(=O)NC(C(=O)N1Cc2cc([101O:1][101CH2:1]C3(C)CCc4c(N5CC[100N:0]([100C:0](=O)N6CCCC(n7nc(-c8ccc(Oc9ccc(F)cc9F)cc8)c(C(N)=O)c7N)C6)C(C)C5)c(C)c(C)c(C)c43)ccc2CC1C(=O)NC1CCCc2ccccc21)C(C)(C)C

> <Shape>
0.295

> <Color>
0.098

> <Negative vol penalty>
0.000

$$$$

  -OEChem-04052322243D

 87 97  0     1  0  0  0  0  0999 V2000
  -28.6795  -32.5819   23.0867 C   0  0  0  0  0  0  0  0  0  0  0  0
  -28.6404  -31.1918   23.1248 C   0  0  0  0  0  0  0  0  0  0  0  0
  -23.0248   -9.9859   19.9407 C   0  0  0  0  0  0  0  0  0  0  0  0
  -23.8430   -9.8973   22.2121 C   0  0  0  0  0  0  0  0  0  0  0  0
  -27.4973  -33.3143   23.1864 C   0  0  0  0  0  0  0  0  0  0  0  0
  -27.4192  -30.5332   23.2637 C   0  0  0  0  0  0  0  0  0  0  0  0
  -28.9367  -19.1284   21.5354 C   0  0  0  0  0  0  0  0  0  0  0  0
  -26.9582  -26.6069   20.0988 C   0  0  0  0  0  0  0  0  0  0  0  0
  -28.1069  -20.2167   21.2661 C   0  0  0  0  0  0  0  0  0  0  0  0
  -22.2687   -8.8360   20.1681 C   0  0  0  0  0  0  0  0  0  0  0  0
  -23.0870   -8.7474   22.4396 C   0  0  0  0  0  0  0  0  0  0  0  0
  -27.6233  -25.4307   20.4423 C   0  0  0  0  0  0  0  0  0  0  0  0
  -19.8626   -7.9780   23.0971 C   0  0  0  0  0  0  0  0  0  0  0  0
  -19.1353   -7.9070   24.2851 C   0  0  0  0  0  0  0  0  0  0  0  0
  -25.5572  -24.5165   21.2879 C   0  0  0  0  0  0  0  0  0  0  0  0
  -20.3632   -5.9250   24.9184 C   0  0  0  0  0  0  0  0  0  0  0  0
  -23.8120  -10.5165   20.9627 C   0  0  0  0  0  0  0  0  0  0  0  0
  -24.1920  -13.0388   20.9251 C   0  0  0  0  0  0  0  0  0  0  0  0
  -26.2600  -32.6642   23.3169 C   0  0  0  0  0  0  0  0  0  0  0  0
  -25.5875  -26.7511   20.3577 C   0  0  0  0  0  0  0  0  0  0  0  0
  -26.2195  -31.2576   23.3666 C   0  0  0  0  0  0  0  0  0  0  0  0
  -29.3427  -18.8680   22.8443 C   0  0  0  0  0  0  0  0  0  0  0  0
  -24.8766  -25.6945   20.9444 C   0  0  0  0  0  0  0  0  0  0  0  0
  -28.0892  -20.7843   23.6144 C   0  0  0  0  0  0  0  0  0  0  0  0
  -27.6831  -21.0447   22.3055 C   0  0  0  0  0  0  0  0  0  0  0  0
  -28.9190  -19.6960   23.8837 C   0  0  0  0  0  0  0  0  0  0  0  0
  -22.2998   -8.2168   21.4176 C   0  0  0  0  0  0  0  0  0  0  0  0
  -26.9234  -24.3864   21.0395 C   0  0  0  0  0  0  0  0  0  0  0  0
  -20.8402   -7.0225   22.8196 C   0  0  0  0  0  0  0  0  0  0  0  0
  -19.3856   -6.8805   25.1958 C   0  0  0  0  0  0  0  0  0  0  0  0
  -21.0905   -5.9960   23.7302 C   0  0  0  0  0  0  0  0  0  0  0  0
  -24.5936  -11.7040   20.7281 C   0  0  0  0  0  0  0  0  0  0  0  0
  -25.2866  -13.7841   20.5608 C   0  0  0  0  0  0  0  0  0  0  0  0
  -22.9412  -13.5585   21.3955 C   0  0  0  0  0  0  0  0  0  0  0  0
  -23.8363  -28.7124   22.1438 C   0  0  0  0  0  0  0  0  0  0  0  0
  -21.3627  -27.1857   20.7040 C   0  0  0  0  0  0  0  0  0  0  0  0
  -20.2140  -24.3969   19.1073 C   0  0  0  0  0  0  0  0  0  0  0  0
  -30.7819  -14.7218   20.6255 C   0  0  0  0  0  0  0  0  0  0  0  0
  -25.0134  -33.4995   23.4688 C   0  0  0  0  0  0  0  0  0  0  0  0
  -24.8792  -28.0160   19.9567 C   0  0  0  0  0  0  0  0  0  0  0  0
  -23.3999  -25.7915   21.2249 C   0  0  0  0  0  0  0  0  0  0  0  0
  -23.7236  -32.7166   23.2370 C   0  0  0  0  0  0  0  0  0  0  0  0
  -29.5545  -12.4322   18.2041 C   0  0  0  0  0  0  0  0  0  0  0  0
  -31.7479  -17.8931   23.5966 C   0  0  0  0  0  0  0  0  0  0  0  0
  -23.7617  -31.3902   23.9893 C   0  0  0  0  0  0  0  0  0  0  0  0
  -28.1228  -12.1464   18.6607 C   0  0  0  0  0  0  0  0  0  0  0  0
  -32.1612  -16.6268   22.8240 C   0  0  0  0  0  0  0  0  0  0  0  0
  -27.8850  -23.1558   24.6240 C   0  0  0  0  0  0  0  0  0  0  0  0
  -30.5030  -12.5954   19.3898 C   0  0  0  0  0  0  0  0  0  0  0  0
  -28.6488  -13.3046   20.8476 C   0  0  0  0  0  0  0  0  0  0  0  0
  -30.2863  -17.6234   23.1256 C   0  0  2  0  0  0  0  0  0  0  0  0
  -27.6338  -21.6735   24.7280 C   0  0  2  0  0  0  0  0  0  0  0  0
  -24.9117  -30.5064   23.4913 C   0  0  1  0  0  0  0  0  0  0  0  0
  -23.5886  -28.2507   20.7356 C   0  0  1  0  0  0  0  0  0  0  0  0
  -28.6720  -22.3334   25.6004 C   0  0  2  0  0  0  0  0  0  0  0  0
  -27.6431  -13.1884   19.6893 C   0  0  2  0  0  0  0  0  0  0  0  0
  -30.9338  -16.8696   21.9185 C   0  0  2  0  0  0  0  0  0  0  0  0
  -29.3576  -19.4103   25.2850 C   0  0  0  0  0  0  0  0  0  0  0  0
  -28.4290  -22.4736   27.0638 C   0  0  0  0  0  0  0  0  0  0  0  0
  -18.1383  -23.4278   18.0829 C   0  0  0  0  0  0  0  0  0  0  0  0
  -20.2588  -26.6117   23.4900 C   0  0  0  0  0  0  0  0  0  0  0  0
  -18.7661  -24.8820   22.4662 C   0  0  0  0  0  0  0  0  0  0  0  0
  -18.5370  -27.2756   21.8020 C   0  0  0  0  0  0  0  0  0  0  0  0
  -21.4818  -24.2014   16.4402 C   0  0  0  0  0  0  0  0  0  0  0  0
  -26.7916  -22.2082   21.9851 C   0  0  0  0  0  0  0  0  0  1  0  0
  -20.5423  -25.9557   21.0090 C   0  0  1  0  0  0  0  0  0  0  0  0
  -19.4081  -24.2262   17.8323 C   0  0  2  0  0  0  0  0  0  0  0  0
  -19.5543  -26.1799   22.1884 C   0  0  0  0  0  0  0  0  0  0  0  0
  -25.8457  -11.6040   20.2737 N   0  0  0  0  0  0  0  0  0  0  0  0
  -26.2401  -12.8854   20.1821 N   0  0  0  0  0  0  0  0  0  0  0  0
  -22.7534  -27.0508   20.8203 N   0  0  0  0  0  0  0  0  0  0  0  0
  -29.9909  -13.6022   20.3228 N   0  0  0  0  0  0  0  0  0  0  0  0
  -25.5169  -15.1139   20.5305 N   0  0  0  0  0  0  0  0  0  0  0  0
  -21.9235  -12.6534   21.7260 N   0  0  0  0  0  0  0  0  0  0  0  0
  -24.5625  -29.8847   22.2320 N   0  0  0  0  0  0  0  0  0  0  0  0
  -19.9004  -25.5723   19.7563 N   0  0  0  0  0  0  0  0  0  0  0  0
  -30.2257  -15.6386   21.5116 N   0  0  0  0  0  0  0  0  0  0  0  0
  -20.2148  -23.5146   16.8009 N   0  3  0  0  0  0  0  0  0  0  0  0
  -22.7267  -14.7897   21.5034 O   0  0  0  0  0  0  0  0  0  0  0  0
  -23.3996  -28.0546   23.0810 O   0  0  0  0  0  0  0  0  0  0  0  0
  -20.7911  -28.2258   20.3678 O   0  0  0  0  0  0  0  0  0  0  0  0
  -21.0367  -23.5684   19.4912 O   0  0  0  0  0  0  0  0  0  0  0  0
  -31.9029  -14.9025   20.1379 O   0  0  0  0  0  0  0  0  0  0  0  0
  -21.5620   -7.0948   21.6400 O   0  0  0  0  0  0  0  0  0  0  0  0
  -27.5703  -23.2375   21.3764 O   0  0  0  0  0  0  0  0  0  1  0  0
  -18.6881   -6.8133   26.3374 F   0  0  0  0  0  0  0  0  0  0  0  0
  -22.0292   -5.0758   23.4697 F   0  0  0  0  0  0  0  0  0  0  0  0
  1  2  1  0  0  0  0
  1  5  2  0  0  0  0
  2  6  2  0  0  0  0
  3 10  2  0  0  0  0
  3 17  1  0  0  0  0
  4 11  1  0  0  0  0
  4 17  2  0  0  0  0
  5 19  1  0  0  0  0
  6 21  1  0  0  0  0
  7  9  2  0  0  0  0
  7 22  1  0  0  0  0
  8 12  2  0  0  0  0
  8 20  1  0  0  0  0
  9 25  1  0  0  0  0
 10 27  1  0  0  0  0
 11 27  2  0  0  0  0
 12 28  1  0  0  0  0
 13 14  2  0  0  0  0
 13 29  1  0  0  0  0
 14 30  1  0  0  0  0
 15 23  1  0  0  0  0
 15 28  2  0  0  0  0
 16 30  2  0  0  0  0
 16 31  1  0  0  0  0
 17 32  1  0  0  0  0
 18 32  1  0  0  0  0
 18 33  2  0  0  0  0
 18 34  1  0  0  0  0
 19 21  2  0  0  0  0
 19 39  1  0  0  0  0
 20 23  2  0  0  0  0
 20 40  1  0  0  0  0
 21 53  1  0  0  0  0
 22 26  2  0  0  0  0
 22 51  1  0  0  0  0
 23 41  1  0  0  0  0
 24 25  2  0  0  0  0
 24 26  1  0  0  0  0
 24 52  1  0  0  0  0
 25 65  1  0  0  0  0
 26 58  1  0  0  0  0
 27 84  1  0  0  0  0
 28 85  1  0  0  0  0
 29 31  2  0  0  0  0
 29 84  1  0  0  0  0
 30 86  1  0  0  0  0
 31 87  1  0  0  0  0
 32 69  2  0  0  0  0
 33 70  1  0  0  0  0
 33 73  1  0  0  0  0
 34 74  1  0  0  0  0
 34 79  2  0  0  0  0
 35 54  1  0  0  0  0
 35 75  1  0  0  0  0
 35 80  2  0  0  0  0
 36 66  1  0  0  0  0
 36 71  1  0  0  0  0
 36 81  2  0  0  0  0
 37 67  1  0  0  0  0
 37 76  1  0  0  0  0
 37 82  2  0  0  0  0
 38 72  1  0  0  0  0
 38 77  1  0  0  0  0
 38 83  2  0  0  0  0
 39 42  1  0  0  0  0
 40 54  1  0  0  0  0
 41 71  1  0  0  0  0
 42 45  1  0  0  0  0
 43 46  1  0  0  0  0
 43 49  1  0  0  0  0
 44 47  1  0  0  0  0
 44 51  1  0  0  0  0
 45 53  1  0  0  0  0
 46 56  1  0  0  0  0
 47 57  1  0  0  0  0
 48 52  1  0  0  0  0
 48 55  1  0  0  0  0
 49 72  1  0  0  0  0
 50 56  1  0  0  0  0
 50 72  1  0  0  0  0
 51 57  1  0  0  0  0
 52 55  1  0  0  0  0
 53 75  1  0  0  0  0
 54 71  1  0  0  0  0
 55 59  1  0  0  0  0
 56 70  1  0  0  0  0
 57 77  1  0  0  0  0
 60 67  1  0  0  0  0
 61 68  1  0  0  0  0
 62 68  1  0  0  0  0
 63 68  1  0  0  0  0
 64 78  1  0  0  0  0
 65 85  1  0  0  0  0
 66 68  1  0  0  0  0
 66 76  1  0  0  0  0
 67 78  1  0  0  0  0
 69 70  1  0  0  0  0
M  CHG  1  78   1
M  ISO  4  38 100  65 101  77 100  85 101
M  END
> <Batch ID>
0166

> <Smiles>
CNC(C)C(=O)NC(C(=O)N1Cc2cc([101O:1][101CH2:1]c3ccc(C4CCC4[100NH:0][100C:0](=O)N4CCCC(n5nc(-c6ccc(Oc7ccc(F)cc7F)cc6)c(C(N)=O)c5N)C4)c(C)c3C3CC3C)ccc2CC1C(=O)NC1CCCc2ccccc21)C(C)(C)C

> <Shape>
0.316

> <Color>
0.208

> <Negative vol penalty>
0.000

$$$$

  -OEChem-04052322243D

 96106  0     1  0  0  0  0  0999 V2000
  -29.3318  -24.8118   17.2204 C   0  0  0  0  0  0  0  0  0  0  0  0
  -27.9625  -25.0402   17.3117 C   0  0  0  0  0  0  0  0  0  0  0  0
  -22.5476  -10.6578   21.8646 C   0  0  0  0  0  0  0  0  0  0  0  0
  -24.5671   -9.3318   21.8553 C   0  0  0  0  0  0  0  0  0  0  0  0
  -30.1645  -25.1374   18.2901 C   0  0  0  0  0  0  0  0  0  0  0  0
  -27.4250  -25.5933   18.4734 C   0  0  0  0  0  0  0  0  0  0  0  0
  -22.6746  -29.4387   18.8637 C   0  0  0  0  0  0  0  0  0  0  0  0
  -21.7947   -9.5130   21.6035 C   0  0  0  0  0  0  0  0  0  0  0  0
  -23.8142   -8.1869   21.5943 C   0  0  0  0  0  0  0  0  0  0  0  0
  -21.3273  -29.2380   19.1605 C   0  0  0  0  0  0  0  0  0  0  0  0
  -22.3879   -4.8572   21.2833 C   0  0  0  0  0  0  0  0  0  0  0  0
  -22.6810   -3.7065   22.0152 C   0  0  0  0  0  0  0  0  0  0  0  0
  -21.7539  -29.8199   21.4624 C   0  0  0  0  0  0  0  0  0  0  0  0
  -23.7250  -24.0380   18.8254 C   0  0  0  0  0  0  0  0  0  0  0  0
  -22.1680   -4.8791   24.0643 C   0  0  0  0  0  0  0  0  0  0  0  0
  -23.9338  -10.5672   21.9904 C   0  0  0  0  0  0  0  0  0  0  0  0
  -25.0597  -12.2697   23.5206 C   0  0  0  0  0  0  0  0  0  0  0  0
  -29.6382  -25.7037   19.4619 C   0  0  0  0  0  0  0  0  0  0  0  0
  -23.5753  -29.8216   19.8680 C   0  0  0  0  0  0  0  0  0  0  0  0
  -28.2514  -25.9255   19.5604 C   0  0  0  0  0  0  0  0  0  0  0  0
  -23.1117  -30.0274   21.1752 C   0  0  0  0  0  0  0  0  0  0  0  0
  -23.8411  -22.4920   20.6783 C   0  0  0  0  0  0  0  0  0  0  0  0
  -24.1992  -22.8484   19.3781 C   0  0  0  0  0  0  0  0  0  0  0  0
  -22.8927  -24.8713   19.5728 C   0  0  0  0  0  0  0  0  0  0  0  0
  -23.0088  -23.3253   21.4257 C   0  0  0  0  0  0  0  0  0  0  0  0
  -22.5345  -24.5149   20.8729 C   0  0  0  0  0  0  0  0  0  0  0  0
  -22.4279   -8.2776   21.4684 C   0  0  0  0  0  0  0  0  0  0  0  0
  -20.8672  -29.4258   20.4606 C   0  0  0  0  0  0  0  0  0  0  0  0
  -21.9849   -6.0189   21.9420 C   0  0  0  0  0  0  0  0  0  0  0  0
  -22.5711   -3.7174   23.4056 C   0  0  0  0  0  0  0  0  0  0  0  0
  -21.8750   -6.0298   23.3324 C   0  0  0  0  0  0  0  0  0  0  0  0
  -24.7122  -11.7495   22.2595 C   0  0  0  0  0  0  0  0  0  0  0  0
  -25.7972  -13.3932   23.2372 C   0  0  0  0  0  0  0  0  0  0  0  0
  -24.7443  -11.7809   24.8311 C   0  0  0  0  0  0  0  0  0  0  0  0
  -26.1744  -28.5281   21.1622 C   0  0  0  0  0  0  0  0  0  0  0  0
  -26.3463  -31.3746   22.7083 C   0  0  0  0  0  0  0  0  0  0  0  0
  -24.7261  -34.1489   23.8594 C   0  0  0  0  0  0  0  0  0  0  0  0
  -26.7652  -17.9895   20.4162 C   0  0  0  0  0  0  0  0  0  0  0  0
  -30.5718  -25.9952   20.6100 C   0  0  0  0  0  0  0  0  0  0  0  0
  -25.0205  -30.0601   19.5259 C   0  0  0  0  0  0  0  0  0  0  0  0
  -24.0341  -30.4580   22.2852 C   0  0  0  0  0  0  0  0  0  0  0  0
  -29.9719  -26.9246   21.6619 C   0  0  0  0  0  0  0  0  0  0  0  0
  -27.7480  -15.0513   18.8833 C   0  0  0  0  0  0  0  0  0  0  0  0
  -28.5557  -26.4840   22.0183 C   0  0  0  0  0  0  0  0  0  0  0  0
  -27.0800  -13.9625   19.7227 C   0  0  0  0  0  0  0  0  0  0  0  0
  -23.8652  -19.9644   20.4993 C   0  0  0  0  0  0  0  0  0  0  0  0
  -25.8936  -21.1881   21.3924 C   0  0  0  0  0  0  0  0  0  0  0  0
  -26.8073  -16.2320   18.6726 C   0  0  0  0  0  0  0  0  0  0  0  0
  -24.4173  -18.6637   21.0895 C   0  0  0  0  0  0  0  0  0  0  0  0
  -26.3832  -19.8685   21.9820 C   0  0  0  0  0  0  0  0  0  0  0  0
  -25.6269  -15.7551   20.7933 C   0  0  0  0  0  0  0  0  0  0  0  0
  -17.3696  -27.6475   21.9398 C   0  0  0  0  0  0  0  0  0  0  0  0
  -24.3585  -21.1977   21.2771 C   0  0  0  0  0  0  0  0  0  0  0  0
  -27.6339  -26.5468   20.7945 C   0  0  1  0  0  0  0  0  0  0  0  0
  -25.9463  -29.9500   20.7334 C   0  0  1  0  0  0  0  0  0  0  0  0
  -18.3608  -27.1611   20.8948 C   0  0  2  0  0  0  0  0  0  0  0  0
  -26.5388  -14.5368   21.0440 C   0  0  1  0  0  0  0  0  0  0  0  0
  -19.4250  -26.5564   21.7888 C   0  0  1  0  0  0  0  0  0  0  0  0
  -18.6007  -25.8821   22.8904 C   0  0  0  0  0  0  0  0  0  0  0  0
  -25.0886  -21.9738   18.5563 C   0  0  0  0  0  0  0  0  0  0  0  0
  -22.3993  -26.1400   18.9577 C   0  0  0  0  0  0  0  0  0  0  0  0
  -22.6251  -22.9432   22.8206 C   0  0  0  0  0  0  0  0  0  0  0  0
  -18.1071  -24.4671   22.5642 C   0  0  0  0  0  0  0  0  0  0  0  0
  -19.3403  -25.8732   24.2273 C   0  0  0  0  0  0  0  0  0  0  0  0
  -25.1251  -36.2831   25.1175 C   0  0  0  0  0  0  0  0  0  0  0  0
  -17.7000  -28.9383   19.2423 C   0  0  0  0  0  0  0  0  0  0  0  0
  -26.4894  -29.8049   25.3209 C   0  0  0  0  0  0  0  0  0  0  0  0
  -25.9310  -31.9188   26.5405 C   0  0  0  0  0  0  0  0  0  0  0  0
  -28.0295  -31.7716   25.1998 C   0  0  0  0  0  0  0  0  0  0  0  0
  -23.8574  -35.8011   21.5627 C   0  0  0  0  0  0  0  0  0  0  0  0
  -21.6411  -25.4101   21.6719 C   0  0  0  0  0  0  0  0  0  0  0  0
  -25.8048  -31.9198   24.0077 C   0  0  1  0  0  0  0  0  0  0  0  0
  -25.0552  -35.6266   23.7476 C   0  0  2  0  0  0  0  0  0  0  0  0
  -18.8519  -28.2619   19.9710 C   0  0  1  0  0  0  0  0  0  1  0  0
  -26.5464  -31.3438   25.2470 C   0  0  0  0  0  0  0  0  0  0  0  0
  -25.1894  -12.4825   21.2501 N   0  0  0  0  0  0  0  0  0  0  0  0
  -25.8444  -13.4747   21.8766 N   0  0  0  0  0  0  0  0  0  0  0  0
  -25.4394  -30.6723   21.9020 N   0  0  0  0  0  0  0  0  0  0  0  0
  -26.3125  -16.7462   19.9495 N   0  0  0  0  0  0  0  0  0  0  0  0
  -25.8800  -18.7299   21.2141 N   0  0  0  0  0  0  0  0  0  0  0  0
  -26.4033  -14.3095   24.0217 N   0  0  0  0  0  0  0  0  0  0  0  0
  -23.9772  -10.6132   24.9419 N   0  0  0  0  0  0  0  0  0  0  0  0
  -27.2381  -27.9134   20.5296 N   0  0  0  0  0  0  0  0  0  0  0  0
  -25.8655  -33.3733   23.8974 N   0  0  0  0  0  0  0  0  0  0  0  0
  -20.3109  -25.6245   21.0423 N   0  3  0  0  0  0  0  0  0  0  0  0
  -24.0166  -36.3291   22.9422 N   0  3  0  0  0  0  0  0  0  0  0  0
  -25.1174  -12.3715   25.8729 O   0  0  0  0  0  0  0  0  0  0  0  0
  -25.4407  -28.0263   22.0057 O   0  0  0  0  0  0  0  0  0  0  0  0
  -27.5285  -31.5709   22.4160 O   0  0  0  0  0  0  0  0  0  0  0  0
  -23.5735  -33.7253   23.9118 O   0  0  0  0  0  0  0  0  0  0  0  0
  -27.8939  -18.4133   20.1376 O   0  0  0  0  0  0  0  0  0  0  0  0
  -17.4202  -26.7098   23.0290 O   0  0  0  0  0  0  0  0  0  0  0  0
  -21.6935   -7.1602   21.2139 O   0  0  0  0  0  0  0  0  0  0  0  0
  -19.5447  -29.2287   20.7550 O   0  0  0  0  0  0  0  0  0  1  0  0
  -22.8511   -2.6119   24.1082 F   0  0  0  0  0  0  0  0  0  0  0  0
  -21.4871   -7.1425   23.9707 F   0  0  0  0  0  0  0  0  0  0  0  0
  1  2  1  0  0  0  0
  1  5  2  0  0  0  0
  2  6  2  0  0  0  0
  3  8  2  0  0  0  0
  3 16  1  0  0  0  0
  4  9  1  0  0  0  0
  4 16  2  0  0  0  0
  5 18  1  0  0  0  0
  6 20  1  0  0  0  0
  7 10  2  0  0  0  0
  7 19  1  0  0  0  0
  8 27  1  0  0  0  0
  9 27  2  0  0  0  0
 10 28  1  0  0  0  0
 11 12  2  0  0  0  0
 11 29  1  0  0  0  0
 12 30  1  0  0  0  0
 13 21  1  0  0  0  0
 13 28  2  0  0  0  0
 14 23  1  0  0  0  0
 14 24  2  0  0  0  0
 15 30  2  0  0  0  0
 15 31  1  0  0  0  0
 16 32  1  0  0  0  0
 17 32  1  0  0  0  0
 17 33  2  0  0  0  0
 17 34  1  0  0  0  0
 18 20  2  0  0  0  0
 18 39  1  0  0  0  0
 19 21  2  0  0  0  0
 19 40  1  0  0  0  0
 20 54  1  0  0  0  0
 21 41  1  0  0  0  0
 22 23  2  0  0  0  0
 22 25  1  0  0  0  0
 22 53  1  0  0  0  0
 23 60  1  0  0  0  0
 24 26  1  0  0  0  0
 24 61  1  0  0  0  0
 25 26  2  0  0  0  0
 25 62  1  0  0  0  0
 26 71  1  0  0  0  0
 27 93  1  0  0  0  0
 28 94  1  0  0  0  0
 29 31  2  0  0  0  0
 29 93  1  0  0  0  0
 30 95  1  0  0  0  0
 31 96  1  0  0  0  0
 32 76  2  0  0  0  0
 33 77  1  0  0  0  0
 33 81  1  0  0  0  0
 34 82  1  0  0  0  0
 34 87  2  0  0  0  0
 35 55  1  0  0  0  0
 35 83  1  0  0  0  0
 35 88  2  0  0  0  0
 36 72  1  0  0  0  0
 36 78  1  0  0  0  0
 36 89  2  0  0  0  0
 37 73  1  0  0  0  0
 37 84  1  0  0  0  0
 37 90  2  0  0  0  0
 38 79  1  0  0  0  0
 38 80  1  0  0  0  0
 38 91  2  0  0  0  0
 39 42  1  0  0  0  0
 40 55  1  0  0  0  0
 41 78  1  0  0  0  0
 42 44  1  0  0  0  0
 43 45  1  0  0  0  0
 43 48  1  0  0  0  0
 44 54  1  0  0  0  0
 45 57  1  0  0  0  0
 46 49  1  0  0  0  0
 46 53  1  0  0  0  0
 47 50  1  0  0  0  0
 47 53  1  0  0  0  0
 48 79  1  0  0  0  0
 49 80  1  0  0  0  0
 50 80  1  0  0  0  0
 51 57  1  0  0  0  0
 51 79  1  0  0  0  0
 52 56  1  0  0  0  0
 52 92  1  0  0  0  0
 54 83  1  0  0  0  0
 55 78  1  0  0  0  0
 56 58  1  0  0  0  0
 56 74  1  0  0  0  0
 57 77  1  0  0  0  0
 58 59  1  0  0  0  0
 58 85  1  0  0  0  0
 59 63  1  0  0  0  0
 59 64  1  0  0  0  0
 59 92  1  0  0  0  0
 65 73  1  0  0  0  0
 66 74  1  0  0  0  0
 67 75  1  0  0  0  0
 68 75  1  0  0  0  0
 69 75  1  0  0  0  0
 70 86  1  0  0  0  0
 71 85  1  0  0  0  0
 72 75  1  0  0  0  0
 72 84  1  0  0  0  0
 73 86  1  0  0  0  0
 74 94  1  0  0  0  0
 76 77  1  0  0  0  0
M  CHG  2  85   1  86   1
M  ISO  4  38 100  74 101  80 100  94 101
M  END
> <Batch ID>
0166

> <Smiles>
CNC(C)C(=O)NC(C(=O)N1Cc2cc([101O:1][101CH:1](C)C3COC(C)(C)C3NCc3c(C)cc(C)c(C4CC[100N:0]([100C:0](=O)N5CCCC(n6nc(-c7ccc(Oc8ccc(F)cc8F)cc7)c(C(N)=O)c6N)C5)CC4)c3C)ccc2CC1C(=O)NC1CCCc2ccccc21)C(C)(C)C

> <Shape>
0.335

> <Color>
0.088

> <Negative vol penalty>
0.000

$$$$

  -OEChem-04052322243D

 86 96  0     1  0  0  0  0  0999 V2000
  -17.3306  -24.1040   33.0812 C   0  0  0  0  0  0  0  0  0  0  0  0
  -18.3598  -23.2036   32.8252 C   0  0  0  0  0  0  0  0  0  0  0  0
  -23.0745   -9.8673   19.9439 C   0  0  0  0  0  0  0  0  0  0  0  0
  -23.8376   -9.8767   22.2362 C   0  0  0  0  0  0  0  0  0  0  0  0
  -16.7538  -24.8184   32.0320 C   0  0  0  0  0  0  0  0  0  0  0  0
  -18.8120  -23.0163   31.5195 C   0  0  0  0  0  0  0  0  0  0  0  0
  -28.6710  -18.1474   24.7521 C   0  0  0  0  0  0  0  0  0  0  0  0
  -24.5556  -21.8466   29.7450 C   0  0  0  0  0  0  0  0  0  0  0  0
  -29.0639  -17.7261   23.4818 C   0  0  0  0  0  0  0  0  0  0  0  0
  -22.3321   -8.7137   20.1958 C   0  0  0  0  0  0  0  0  0  0  0  0
  -23.0951   -8.7231   22.4881 C   0  0  0  0  0  0  0  0  0  0  0  0
  -25.2106  -20.6628   29.4080 C   0  0  0  0  0  0  0  0  0  0  0  0
  -19.8685   -7.9229   23.0958 C   0  0  0  0  0  0  0  0  0  0  0  0
  -19.1132   -7.8831   24.2677 C   0  0  0  0  0  0  0  0  0  0  0  0
  -31.3172  -17.3954   24.2884 C   0  0  0  0  0  0  0  0  0  0  0  0
  -24.7700  -21.0903   27.0751 C   0  0  0  0  0  0  0  0  0  0  0  0
  -20.3574   -5.9473   25.0039 C   0  0  0  0  0  0  0  0  0  0  0  0
  -23.8274  -10.4488   20.9642 C   0  0  0  0  0  0  0  0  0  0  0  0
  -24.1668  -12.9742   20.8418 C   0  0  0  0  0  0  0  0  0  0  0  0
  -17.2058  -24.6468   30.7141 C   0  0  0  0  0  0  0  0  0  0  0  0
  -23.9925  -22.6569   28.7487 C   0  0  0  0  0  0  0  0  0  0  0  0
  -29.6012  -18.1928   25.7906 C   0  0  0  0  0  0  0  0  0  0  0  0
  -18.2398  -23.7280   30.4515 C   0  0  0  0  0  0  0  0  0  0  0  0
  -30.9242  -17.8168   25.5588 C   0  0  0  0  0  0  0  0  0  0  0  0
  -24.1107  -22.2851   27.4019 C   0  0  0  0  0  0  0  0  0  0  0  0
  -30.3869  -17.3501   23.2500 C   0  0  0  0  0  0  0  0  0  0  0  0
  -22.3423   -8.1416   21.4679 C   0  0  0  0  0  0  0  0  0  0  0  0
  -25.3153  -20.2831   28.0731 C   0  0  0  0  0  0  0  0  0  0  0  0
  -20.8682   -6.9748   22.8778 C   0  0  0  0  0  0  0  0  0  0  0  0
  -19.3576   -6.8954   25.2218 C   0  0  0  0  0  0  0  0  0  0  0  0
  -21.1126   -5.9871   23.8319 C   0  0  0  0  0  0  0  0  0  0  0  0
  -24.5951  -11.6402   20.7045 C   0  0  0  0  0  0  0  0  0  0  0  0
  -25.2578  -13.7243   20.4764 C   0  0  0  0  0  0  0  0  0  0  0  0
  -22.8965  -13.4892   21.2621 C   0  0  0  0  0  0  0  0  0  0  0  0
  -21.0508  -23.6413   28.0549 C   0  0  0  0  0  0  0  0  0  0  0  0
  -22.5921  -25.4201   25.8227 C   0  0  0  0  0  0  0  0  0  0  0  0
  -25.3439  -25.8423   23.8489 C   0  0  0  0  0  0  0  0  0  0  0  0
  -30.7409  -14.7484   20.6563 C   0  0  0  0  0  0  0  0  0  0  0  0
  -16.5194  -25.4064   29.6066 C   0  0  0  0  0  0  0  0  0  0  0  0
  -23.3125  -23.9443   29.1267 C   0  0  0  0  0  0  0  0  0  0  0  0
  -23.5410  -23.1302   26.2930 C   0  0  0  0  0  0  0  0  0  0  0  0
  -17.3100  -25.4266   28.3009 C   0  0  0  0  0  0  0  0  0  0  0  0
  -29.6021  -12.3610   18.2730 C   0  0  0  0  0  0  0  0  0  0  0  0
  -32.1542  -19.1458   27.4013 C   0  0  0  0  0  0  0  0  0  0  0  0
  -33.2010  -18.6506   26.4530 C   0  0  0  0  0  0  0  0  0  0  0  0
  -17.8223  -24.0295   27.9654 C   0  0  0  0  0  0  0  0  0  0  0  0
  -28.1655  -12.0664   18.7081 C   0  0  0  0  0  0  0  0  0  0  0  0
  -29.4073  -17.7549   28.3314 C   0  0  0  0  0  0  0  0  0  0  0  0
  -30.5207  -12.5836   19.4724 C   0  0  0  0  0  0  0  0  0  0  0  0
  -28.6202  -13.3140   20.8611 C   0  0  0  0  0  0  0  0  0  0  0  0
  -29.1596  -18.6443   27.1322 C   0  0  2  0  0  0  0  0  0  0  0  0
  -31.9378  -17.8569   26.6544 C   0  0  0  0  0  0  0  0  0  0  0  0
  -18.7746  -23.5155   29.0519 C   0  0  1  0  0  0  0  0  0  0  0  0
  -22.3278  -24.4329   28.0688 C   0  0  1  0  0  0  0  0  0  0  0  0
  -28.0112  -17.9280   27.8119 C   0  0  2  0  0  0  0  0  0  0  0  0
  -27.6446  -13.1377   19.6849 C   0  0  2  0  0  0  0  0  0  0  0  0
  -30.6014  -17.9769   20.8163 C   0  0  0  0  0  0  0  0  0  0  0  0
  -26.2993  -27.3690   22.1014 C   0  0  0  0  0  0  0  0  0  0  0  0
  -20.7123  -24.2134   23.7442 C   0  0  0  0  0  0  0  0  0  0  0  0
  -22.2840  -25.0067   21.9641 C   0  0  0  0  0  0  0  0  0  0  0  0
  -21.1557  -26.6576   23.4555 C   0  0  0  0  0  0  0  0  0  0  0  0
  -27.6737  -26.5158   25.5451 C   0  0  0  0  0  0  0  0  0  0  0  0
  -27.0097  -18.6997   28.6003 C   0  0  0  0  0  0  0  0  0  1  0  0
  -30.8066  -16.8999   21.8915 C   0  0  2  0  0  0  0  0  0  0  0  0
  -23.0064  -25.2085   24.3866 C   0  0  1  0  0  0  0  0  0  0  0  0
  -26.2194  -27.0544   23.5872 C   0  0  2  0  0  0  0  0  0  0  0  0
  -21.7988  -25.2544   23.4084 C   0  0  0  0  0  0  0  0  0  0  0  0
  -25.8594  -11.5451   20.2845 N   0  0  0  0  0  0  0  0  0  0  0  0
  -26.2350  -12.8289   20.1547 N   0  0  0  0  0  0  0  0  0  0  0  0
  -22.8799  -24.3766   26.7138 N   0  0  0  0  0  0  0  0  0  0  0  0
  -29.9705  -13.6123   20.3584 N   0  0  0  0  0  0  0  0  0  0  0  0
  -25.4669  -15.0559   20.4021 N   0  0  0  0  0  0  0  0  0  0  0  0
  -21.8858  -12.5793   21.6014 N   0  0  0  0  0  0  0  0  0  0  0  0
  -20.0794  -24.1254   28.9101 N   0  0  0  0  0  0  0  0  0  0  0  0
  -24.0384  -26.2017   24.1089 N   0  0  0  0  0  0  0  0  0  0  0  0
  -30.1421  -15.6773   21.4985 N   0  0  0  0  0  0  0  0  0  0  0  0
  -27.6010  -26.8142   24.0916 N   0  3  0  0  0  0  0  0  0  0  0  0
  -22.6592  -14.7196   21.3188 O   0  0  0  0  0  0  0  0  0  0  0  0
  -20.9535  -22.6644   27.3213 O   0  0  0  0  0  0  0  0  0  0  0  0
  -22.0399  -26.4755   26.1436 O   0  0  0  0  0  0  0  0  0  0  0  0
  -25.7743  -24.6913   23.8215 O   0  0  0  0  0  0  0  0  0  0  0  0
  -31.8761  -14.9245   20.2010 O   0  0  0  0  0  0  0  0  0  0  0  0
  -21.6177   -7.0160   21.7141 O   0  0  0  0  0  0  0  0  0  0  0  0
  -25.9535  -19.1278   27.7415 O   0  0  0  0  0  0  0  0  0  1  0  0
  -18.6333   -6.8583   26.3479 F   0  0  0  0  0  0  0  0  0  0  0  0
  -22.0725   -5.0743   23.6286 F   0  0  0  0  0  0  0  0  0  0  0  0
  1  2  1  0  0  0  0
  1  5  2  0  0  0  0
  2  6  2  0  0  0  0
  3 10  2  0  0  0  0
  3 18  1  0  0  0  0
  4 11  1  0  0  0  0
  4 18  2  0  0  0  0
  5 20  1  0  0  0  0
  6 23  1  0  0  0  0
  7  9  2  0  0  0  0
  7 22  1  0  0  0  0
  8 12  2  0  0  0  0
  8 21  1  0  0  0  0
  9 26  1  0  0  0  0
 10 27  1  0  0  0  0
 11 27  2  0  0  0  0
 12 28  1  0  0  0  0
 13 14  2  0  0  0  0
 13 29  1  0  0  0  0
 14 30  1  0  0  0  0
 15 24  1  0  0  0  0
 15 26  2  0  0  0  0
 16 25  1  0  0  0  0
 16 28  2  0  0  0  0
 17 30  2  0  0  0  0
 17 31  1  0  0  0  0
 18 32  1  0  0  0  0
 19 32  1  0  0  0  0
 19 33  2  0  0  0  0
 19 34  1  0  0  0  0
 20 23  2  0  0  0  0
 20 39  1  0  0  0  0
 21 25  2  0  0  0  0
 21 40  1  0  0  0  0
 22 24  2  0  0  0  0
 22 51  1  0  0  0  0
 23 53  1  0  0  0  0
 24 52  1  0  0  0  0
 25 41  1  0  0  0  0
 26 64  1  0  0  0  0
 27 83  1  0  0  0  0
 28 84  1  0  0  0  0
 29 31  2  0  0  0  0
 29 83  1  0  0  0  0
 30 85  1  0  0  0  0
 31 86  1  0  0  0  0
 32 68  2  0  0  0  0
 33 69  1  0  0  0  0
 33 72  1  0  0  0  0
 34 73  1  0  0  0  0
 34 78  2  0  0  0  0
 35 54  1  0  0  0  0
 35 74  1  0  0  0  0
 35 79  2  0  0  0  0
 36 65  1  0  0  0  0
 36 70  1  0  0  0  0
 36 80  2  0  0  0  0
 37 66  1  0  0  0  0
 37 75  1  0  0  0  0
 37 81  2  0  0  0  0
 38 71  1  0  0  0  0
 38 76  1  0  0  0  0
 38 82  2  0  0  0  0
 39 42  1  0  0  0  0
 40 54  1  0  0  0  0
 41 70  1  0  0  0  0
 42 46  1  0  0  0  0
 43 47  1  0  0  0  0
 43 49  1  0  0  0  0
 44 45  1  0  0  0  0
 44 52  1  0  0  0  0
 45 52  1  0  0  0  0
 46 53  1  0  0  0  0
 47 56  1  0  0  0  0
 48 51  1  0  0  0  0
 48 55  1  0  0  0  0
 49 71  1  0  0  0  0
 50 56  1  0  0  0  0
 50 71  1  0  0  0  0
 51 55  1  0  0  0  0
 53 74  1  0  0  0  0
 54 70  1  0  0  0  0
 55 63  1  0  0  0  0
 56 69  1  0  0  0  0
 57 64  1  0  0  0  0
 58 66  1  0  0  0  0
 59 67  1  0  0  0  0
 60 67  1  0  0  0  0
 61 67  1  0  0  0  0
 62 77  1  0  0  0  0
 63 84  1  0  0  0  0
 64 76  1  0  0  0  0
 65 67  1  0  0  0  0
 65 75  1  0  0  0  0
 66 77  1  0  0  0  0
 68 69  1  0  0  0  0
M  CHG  1  77   1
M  ISO  4  38 100  63 101  76 100  84 101
M  END
> <Batch ID>
0166

> <Smiles>
CNC(C)C(=O)NC(C(=O)N1Cc2cc([101O:1][101CH2:1]C3CC3c3ccc(C(C)[100NH:0][100C:0](=O)N4CCCC(n5nc(-c6ccc(Oc7ccc(F)cc7F)cc6)c(C(N)=O)c5N)C4)cc3C3CC3)ccc2CC1C(=O)NC1CCCc2ccccc21)C(C)(C)C

> <Shape>
0.179

> <Color>
0.200

> <Negative vol penalty>
0.000

$$$$

  -OEChem-04052322243D

 91102  0     1  0  0  0  0  0999 V2000
  -23.3977  -36.5020   16.5136 C   0  0  0  0  0  0  0  0  0  0  0  0
  -23.8444  -35.2060   16.2765 C   0  0  0  0  0  0  0  0  0  0  0  0
  -26.0398  -12.4418   21.4683 C   0  0  0  0  0  0  0  0  0  0  0  0
  -25.7315  -13.3089   19.2344 C   0  0  0  0  0  0  0  0  0  0  0  0
  -23.6636  -37.1171   17.7363 C   0  0  0  0  0  0  0  0  0  0  0  0
  -24.5583  -34.5246   17.2617 C   0  0  0  0  0  0  0  0  0  0  0  0
  -24.3758  -28.5199   18.4519 C   0  0  0  0  0  0  0  0  0  0  0  0
  -24.6571  -12.3341   21.6173 C   0  0  0  0  0  0  0  0  0  0  0  0
  -24.3488  -13.2012   19.3834 C   0  0  0  0  0  0  0  0  0  0  0  0
  -25.2129  -27.4659   18.0886 C   0  0  0  0  0  0  0  0  0  0  0  0
  -22.2048  -10.2170   20.6493 C   0  0  0  0  0  0  0  0  0  0  0  0
  -21.7023   -9.0404   21.2048 C   0  0  0  0  0  0  0  0  0  0  0  0
  -30.9074  -23.7379   17.9727 C   0  0  0  0  0  0  0  0  0  0  0  0
  -26.3675  -27.6640   20.1974 C   0  0  0  0  0  0  0  0  0  0  0  0
  -20.7172  -10.3120   23.0075 C   0  0  0  0  0  0  0  0  0  0  0  0
  -26.5770  -12.9292   20.2768 C   0  0  0  0  0  0  0  0  0  0  0  0
  -28.8853  -12.0635   19.6213 C   0  0  0  0  0  0  0  0  0  0  0  0
  -24.3728  -36.4394   18.7405 C   0  0  0  0  0  0  0  0  0  0  0  0
  -24.5356  -29.1622   19.6881 C   0  0  0  0  0  0  0  0  0  0  0  0
  -24.8351  -35.1317   18.4984 C   0  0  0  0  0  0  0  0  0  0  0  0
  -30.1379  -24.7717   18.5063 C   0  0  0  0  0  0  0  0  0  0  0  0
  -25.5294  -28.7243   20.5750 C   0  0  0  0  0  0  0  0  0  0  0  0
  -28.8503  -24.5121   18.9755 C   0  0  0  0  0  0  0  0  0  0  0  0
  -28.3320  -23.2186   18.9111 C   0  0  0  0  0  0  0  0  0  0  0  0
  -29.1015  -22.1848   18.3774 C   0  0  0  0  0  0  0  0  0  0  0  0
  -30.3892  -22.4445   17.9082 C   0  0  0  0  0  0  0  0  0  0  0  0
  -23.8116  -12.7138   20.5749 C   0  0  0  0  0  0  0  0  0  0  0  0
  -26.2108  -27.0396   18.9602 C   0  0  0  0  0  0  0  0  0  0  0  0
  -21.9635  -11.4412   21.2730 C   0  0  0  0  0  0  0  0  0  0  0  0
  -20.9585   -9.0878   22.3839 C   0  0  0  0  0  0  0  0  0  0  0  0
  -21.2197  -11.4887   22.4520 C   0  0  0  0  0  0  0  0  0  0  0  0
  -28.0052  -13.0412   20.1225 C   0  0  0  0  0  0  0  0  0  0  0  0
  -30.1238  -12.6545   19.6789 C   0  0  0  0  0  0  0  0  0  0  0  0
  -28.6082  -10.7395   19.1461 C   0  0  0  0  0  0  0  0  0  0  0  0
  -25.2458  -32.1224   20.6028 C   0  0  0  0  0  0  0  0  0  0  0  0
  -24.6287  -30.9399   23.5597 C   0  0  0  0  0  0  0  0  0  0  0  0
  -24.4432  -28.2188   25.6112 C   0  0  0  0  0  0  0  0  0  0  0  0
  -32.5319  -17.7206   18.8402 C   0  0  0  0  0  0  0  0  0  0  0  0
  -24.6771  -37.1627   20.0285 C   0  0  0  0  0  0  0  0  0  0  0  0
  -23.6072  -30.2802   20.0762 C   0  0  0  0  0  0  0  0  0  0  0  0
  -25.7292  -29.3671   21.9224 C   0  0  0  0  0  0  0  0  0  0  0  0
  -25.1155  -36.2352   21.1589 C   0  0  0  0  0  0  0  0  0  0  0  0
  -31.5686  -27.9354   17.5597 C   0  0  0  0  0  0  0  0  0  0  0  0
  -32.1053  -16.3969   22.1888 C   0  0  0  0  0  0  0  0  0  0  0  0
  -32.0986  -26.5170   17.8436 C   0  0  0  0  0  0  0  0  0  0  0  0
  -30.1508  -27.3384   17.6464 C   0  0  0  0  0  0  0  0  0  0  0  0
  -26.1616  -35.2433   20.6603 C   0  0  0  0  0  0  0  0  0  0  0  0
  -31.0420  -15.3291   21.9514 C   0  0  0  0  0  0  0  0  0  0  0  0
  -34.5467  -20.7787   18.6489 C   0  0  0  0  0  0  0  0  0  0  0  0
  -33.2013  -20.1342   16.7951 C   0  0  0  0  0  0  0  0  0  0  0  0
  -31.9064  -17.6268   21.3009 C   0  0  0  0  0  0  0  0  0  0  0  0
  -32.5145  -20.1573   19.6691 C   0  0  0  0  0  0  0  0  0  0  0  0
  -30.7231  -16.2314   19.6235 C   0  0  0  0  0  0  0  0  0  0  0  0
  -30.7480  -26.2321   18.5677 C   0  0  0  0  0  0  0  0  0  0  0  0
  -25.5912  -34.3509   19.5514 C   0  0  1  0  0  0  0  0  0  0  0  0
  -24.1919  -31.1987   21.1448 C   0  0  1  0  0  0  0  0  0  0  0  0
  -33.1368  -21.3364   18.8926 C   0  0  2  0  0  0  0  0  0  0  0  0
  -30.9643  -14.9676   20.4601 C   0  0  2  0  0  0  0  0  0  0  0  0
  -34.0174  -19.5254   17.9531 C   0  0  2  0  0  0  0  0  0  0  0  0
  -32.6087  -21.4055   17.4411 C   0  0  2  0  0  0  0  0  0  0  0  0
  -26.9510  -22.9402   19.4152 C   0  0  0  0  0  0  0  0  0  0  0  0
  -28.5435  -20.7975   18.3094 C   0  0  0  0  0  0  0  0  0  0  0  0
  -23.9502  -27.5715   27.9850 C   0  0  0  0  0  0  0  0  0  0  0  0
  -27.3711  -31.9734   24.4087 C   0  0  0  0  0  0  0  0  0  0  0  0
  -27.2221  -30.5038   26.4301 C   0  0  0  0  0  0  0  0  0  0  0  0
  -25.5556  -32.3289   26.0915 C   0  0  0  0  0  0  0  0  0  0  0  0
  -22.1524  -26.5311   24.7973 C   0  0  0  0  0  0  0  0  0  0  0  0
  -28.0304  -25.6250   19.5466 C   0  0  0  0  0  0  0  0  0  1  0  0
  -25.4477  -30.2659   24.6339 C   0  0  1  0  0  0  0  0  0  0  0  0
  -23.3753  -27.7668   26.5907 C   0  0  2  0  0  0  0  0  0  0  0  0
  -26.3969  -31.2570   25.3649 C   0  0  0  0  0  0  0  0  0  0  0  0
  -28.6314  -14.1678   20.4728 N   0  0  0  0  0  0  0  0  0  0  0  0
  -29.9183  -13.9016   20.1914 N   0  0  0  0  0  0  0  0  0  0  0  0
  -24.8003  -30.4604   22.2534 N   0  0  0  0  0  0  0  0  0  0  0  0
  -31.7335  -17.2589   19.8918 N   0  0  0  0  0  0  0  0  0  0  0  0
  -33.0578  -19.0045   18.9393 N   0  0  0  0  0  0  0  0  0  0  0  0
  -31.3578  -12.2238   19.3407 N   0  0  0  0  0  0  0  0  0  0  0  0
  -27.2805  -10.2904   19.1558 N   0  0  0  0  0  0  0  0  0  0  0  0
  -31.1697  -21.4299   17.3737 N   0  0  0  0  0  0  0  0  0  0  0  0
  -24.7505  -33.3173   20.1167 N   0  0  0  0  0  0  0  0  0  0  0  0
  -24.4958  -29.5930   25.5112 N   0  0  0  0  0  0  0  0  0  0  0  0
  -22.7757  -26.4773   26.1447 N   0  3  0  0  0  0  0  0  0  0  0  0
  -29.5131   -9.9712   18.7407 O   0  0  0  0  0  0  0  0  0  0  0  0
  -26.4214  -31.7772   20.6255 O   0  0  0  0  0  0  0  0  0  0  0  0
  -23.8595  -31.8531   23.8694 O   0  0  0  0  0  0  0  0  0  0  0  0
  -25.1617  -27.4317   24.9989 O   0  0  0  0  0  0  0  0  0  0  0  0
  -32.7289  -17.0310   17.8307 O   0  0  0  0  0  0  0  0  0  0  0  0
  -22.4624  -12.6086   20.7198 O   0  0  0  0  0  0  0  0  0  0  0  0
  -27.0356  -26.0039   18.6053 O   0  0  0  0  0  0  0  0  0  1  0  0
  -20.4748   -7.9579   22.9163 F   0  0  0  0  0  0  0  0  0  0  0  0
  -20.9837  -12.6619   23.0551 F   0  0  0  0  0  0  0  0  0  0  0  0
  1  2  1  0  0  0  0
  1  5  2  0  0  0  0
  2  6  2  0  0  0  0
  3  8  2  0  0  0  0
  3 16  1  0  0  0  0
  4  9  1  0  0  0  0
  4 16  2  0  0  0  0
  5 18  1  0  0  0  0
  6 20  1  0  0  0  0
  7 10  2  0  0  0  0
  7 19  1  0  0  0  0
  8 27  1  0  0  0  0
  9 27  2  0  0  0  0
 10 28  1  0  0  0  0
 11 12  2  0  0  0  0
 11 29  1  0  0  0  0
 12 30  1  0  0  0  0
 13 21  2  0  0  0  0
 13 26  1  0  0  0  0
 14 22  1  0  0  0  0
 14 28  2  0  0  0  0
 15 30  2  0  0  0  0
 15 31  1  0  0  0  0
 16 32  1  0  0  0  0
 17 32  1  0  0  0  0
 17 33  2  0  0  0  0
 17 34  1  0  0  0  0
 18 20  2  0  0  0  0
 18 39  1  0  0  0  0
 19 22  2  0  0  0  0
 19 40  1  0  0  0  0
 20 55  1  0  0  0  0
 21 23  1  0  0  0  0
 21 54  1  0  0  0  0
 22 41  1  0  0  0  0
 23 24  2  0  0  0  0
 23 68  1  0  0  0  0
 24 25  1  0  0  0  0
 24 61  1  0  0  0  0
 25 26  2  0  0  0  0
 25 62  1  0  0  0  0
 26 79  1  0  0  0  0
 27 88  1  0  0  0  0
 28 89  1  0  0  0  0
 29 31  2  0  0  0  0
 29 88  1  0  0  0  0
 30 90  1  0  0  0  0
 31 91  1  0  0  0  0
 32 72  2  0  0  0  0
 33 73  1  0  0  0  0
 33 77  1  0  0  0  0
 34 78  1  0  0  0  0
 34 83  2  0  0  0  0
 35 56  1  0  0  0  0
 35 80  1  0  0  0  0
 35 84  2  0  0  0  0
 36 69  1  0  0  0  0
 36 74  1  0  0  0  0
 36 85  2  0  0  0  0
 37 70  1  0  0  0  0
 37 81  1  0  0  0  0
 37 86  2  0  0  0  0
 38 75  1  0  0  0  0
 38 76  1  0  0  0  0
 38 87  2  0  0  0  0
 39 42  1  0  0  0  0
 40 56  1  0  0  0  0
 41 74  1  0  0  0  0
 42 47  1  0  0  0  0
 43 45  1  0  0  0  0
 43 46  1  0  0  0  0
 44 48  1  0  0  0  0
 44 51  1  0  0  0  0
 45 54  1  0  0  0  0
 46 54  1  0  0  0  0
 47 55  1  0  0  0  0
 48 58  1  0  0  0  0
 49 57  1  0  0  0  0
 49 59  1  0  0  0  0
 50 59  1  0  0  0  0
 50 60  1  0  0  0  0
 51 75  1  0  0  0  0
 52 57  1  0  0  0  0
 52 76  1  0  0  0  0
 53 58  1  0  0  0  0
 53 75  1  0  0  0  0
 55 80  1  0  0  0  0
 56 74  1  0  0  0  0
 57 60  1  0  0  0  0
 58 73  1  0  0  0  0
 59 76  1  0  0  0  0
 60 79  1  0  0  0  0
 63 70  1  0  0  0  0
 64 71  1  0  0  0  0
 65 71  1  0  0  0  0
 66 71  1  0  0  0  0
 67 82  1  0  0  0  0
 68 89  1  0  0  0  0
 69 71  1  0  0  0  0
 69 81  1  0  0  0  0
 70 82  1  0  0  0  0
 72 73  1  0  0  0  0
M  CHG  1  82   1
M  ISO  4  38 100  68 101  76 100  89 101
M  END
> <Batch ID>
0166

> <Smiles>
CNC(C)C(=O)NC(C(=O)N1Cc2cc([101O:1][101CH2:1]c3c(C4CCC4)cc(NC4CC5CC4C[100N:0]5[100C:0](=O)N4CCCC(n5nc(-c6ccc(Oc7ccc(F)cc7F)cc6)c(C(N)=O)c5N)C4)c(C)c3C)ccc2CC1C(=O)NC1CCCc2ccccc21)C(C)(C)C

> <Shape>
0.275

> <Color>
0.083

> <Negative vol penalty>
0.000

$$$$

  -OEChem-04052322243D

 86 96  0     1  0  0  0  0  0999 V2000
  -27.6240  -29.7007   28.4658 C   0  0  0  0  0  0  0  0  0  0  0  0
  -27.7089  -29.0021   27.2658 C   0  0  0  0  0  0  0  0  0  0  0  0
  -23.3577  -10.1293   21.3481 C   0  0  0  0  0  0  0  0  0  0  0  0
  -24.8498   -8.4433   22.2246 C   0  0  0  0  0  0  0  0  0  0  0  0
  -26.4236  -30.3060   28.8353 C   0  0  0  0  0  0  0  0  0  0  0  0
  -26.5930  -28.9073   26.4350 C   0  0  0  0  0  0  0  0  0  0  0  0
  -27.7183  -29.7382   21.5679 C   0  0  0  0  0  0  0  0  0  0  0  0
  -27.2759  -22.3183   17.6217 C   0  0  0  0  0  0  0  0  0  0  0  0
  -22.3653   -9.1637   21.1799 C   0  0  0  0  0  0  0  0  0  0  0  0
  -23.8573   -7.4777   22.0564 C   0  0  0  0  0  0  0  0  0  0  0  0
  -28.3202  -28.6945   20.8664 C   0  0  0  0  0  0  0  0  0  0  0  0
  -26.9212  -20.9981   17.8992 C   0  0  0  0  0  0  0  0  0  0  0  0
  -21.0595   -6.4772   23.6663 C   0  0  0  0  0  0  0  0  0  0  0  0
  -20.8455   -5.5808   24.7133 C   0  0  0  0  0  0  0  0  0  0  0  0
  -26.1872  -28.1268   19.8930 C   0  0  0  0  0  0  0  0  0  0  0  0
  -21.3810   -3.7382   23.2452 C   0  0  0  0  0  0  0  0  0  0  0  0
  -24.6000   -9.7692   21.8704 C   0  0  0  0  0  0  0  0  0  0  0  0
  -25.8548  -11.5608   23.1830 C   0  0  0  0  0  0  0  0  0  0  0  0
  -25.2951  -30.2268   28.0040 C   0  0  0  0  0  0  0  0  0  0  0  0
  -26.3420  -29.9776   21.4454 C   0  0  0  0  0  0  0  0  0  0  0  0
  -25.3759  -29.5110   26.7943 C   0  0  0  0  0  0  0  0  0  0  0  0
  -27.6812  -23.1634   18.6548 C   0  0  0  0  0  0  0  0  0  0  0  0
  -25.5708  -29.1758   20.5920 C   0  0  0  0  0  0  0  0  0  0  0  0
  -27.7317  -22.6884   19.9653 C   0  0  0  0  0  0  0  0  0  0  0  0
  -27.3770  -21.3682   20.2428 C   0  0  0  0  0  0  0  0  0  0  0  0
  -22.6151   -7.8379   21.5341 C   0  0  0  0  0  0  0  0  0  0  0  0
  -27.5541  -27.8867   20.0310 C   0  0  0  0  0  0  0  0  0  0  0  0
  -26.9717  -20.5231   19.2097 C   0  0  0  0  0  0  0  0  0  0  0  0
  -21.4341   -6.0041   22.4086 C   0  0  0  0  0  0  0  0  0  0  0  0
  -21.0063   -4.2114   24.5028 C   0  0  0  0  0  0  0  0  0  0  0  0
  -21.5949   -4.6347   22.1981 C   0  0  0  0  0  0  0  0  0  0  0  0
  -25.6257  -10.7661   22.0438 C   0  0  0  0  0  0  0  0  0  0  0  0
  -26.9346  -12.3401   22.8464 C   0  0  0  0  0  0  0  0  0  0  0  0
  -25.1544  -11.5917   24.4336 C   0  0  0  0  0  0  0  0  0  0  0  0
  -23.8730  -29.9468   23.4471 C   0  0  0  0  0  0  0  0  0  0  0  0
  -22.2678  -31.0842   20.8680 C   0  0  0  0  0  0  0  0  0  0  0  0
  -22.0674  -31.3653   17.4727 C   0  0  0  0  0  0  0  0  0  0  0  0
  -29.5006  -15.6161   19.0320 C   0  0  0  0  0  0  0  0  0  0  0  0
  -24.0060  -30.8572   28.4681 C   0  0  0  0  0  0  0  0  0  0  0  0
  -25.7128  -31.1242   22.1883 C   0  0  0  0  0  0  0  0  0  0  0  0
  -24.0932  -29.4039   20.4101 C   0  0  0  0  0  0  0  0  0  0  0  0
  -22.9758  -31.0276   27.3546 C   0  0  0  0  0  0  0  0  0  0  0  0
  -30.1252  -12.0755   18.9593 C   0  0  0  0  0  0  0  0  0  0  0  0
  -22.8618  -29.7477   26.5325 C   0  0  0  0  0  0  0  0  0  0  0  0
  -29.0012  -11.4770   19.7988 C   0  0  0  0  0  0  0  0  0  0  0  0
  -27.0716  -25.4382   17.5920 C   0  0  0  0  0  0  0  0  0  0  0  0
  -29.6399  -13.2994   18.1943 C   0  0  0  0  0  0  0  0  0  0  0  0
  -27.9642  -13.7972   19.9550 C   0  0  0  0  0  0  0  0  0  0  0  0
  -28.8496  -18.0704   19.2687 C   0  0  0  0  0  0  0  0  0  0  0  0
  -27.1638  -16.7723   19.2510 C   0  0  0  0  0  0  0  0  0  0  0  0
  -28.0561  -24.5722   18.3320 C   0  0  1  0  0  0  0  0  0  0  0  0
  -24.1943  -29.4069   25.8546 C   0  0  1  0  0  0  0  0  0  0  0  0
  -24.2095  -30.9554   22.3854 C   0  0  1  0  0  0  0  0  0  0  0  0
  -28.4037  -12.5401   20.7318 C   0  0  1  0  0  0  0  0  0  0  0  0
  -27.3455  -25.6966   19.0421 C   0  0  1  0  0  0  0  0  0  1  0  0
  -27.3983  -18.2206   18.7945 C   0  0  0  0  0  0  0  0  0  0  0  0
  -28.1657  -23.5949   21.0737 C   0  0  0  0  0  0  0  0  0  0  0  0
  -27.4287  -20.8507   21.6451 C   0  0  0  0  0  0  0  0  0  0  0  0
  -20.6221  -32.3200   15.6570 C   0  0  0  0  0  0  0  0  0  0  0  0
  -20.2735  -28.8089   21.2625 C   0  0  0  0  0  0  0  0  0  0  0  0
  -19.4407  -29.2291   18.9391 C   0  0  0  0  0  0  0  0  0  0  0  0
  -19.2420  -31.0100   20.6745 C   0  0  0  0  0  0  0  0  0  0  0  0
  -24.2438  -33.1213   16.5037 C   0  0  0  0  0  0  0  0  0  0  0  0
  -21.5164  -30.4613   19.7163 C   0  0  1  0  0  0  0  0  0  0  0  0
  -21.8106  -32.5618   16.5745 C   0  0  2  0  0  0  0  0  0  0  0  0
  -20.1456  -29.8715   20.1528 C   0  0  0  0  0  0  0  0  0  0  0  0
  -26.4903  -11.0176   21.0573 N   0  0  0  0  0  0  0  0  0  0  0  0
  -27.2731  -11.9792   21.5755 N   0  0  0  0  0  0  0  0  0  0  0  0
  -23.5230  -30.5335   21.1627 N   0  0  0  0  0  0  0  0  0  0  0  0
  -29.0324  -14.2982   19.0789 N   0  0  0  0  0  0  0  0  0  0  0  0
  -28.6098  -16.6325   19.2903 N   0  0  0  0  0  0  0  0  0  0  0  0
  -27.6179  -13.2922   23.5166 N   0  0  0  0  0  0  0  0  0  0  0  0
  -24.0680  -10.7244   24.6126 N   0  0  0  0  0  0  0  0  0  0  0  0
  -24.3976  -30.2427   24.6907 N   0  0  0  0  0  0  0  0  0  0  0  0
  -21.4235  -31.4897   18.6856 N   0  0  0  0  0  0  0  0  0  0  0  0
  -23.0064  -32.8421   15.7305 N   0  3  0  0  0  0  0  0  0  0  0  0
  -25.4719  -12.3770   25.3588 O   0  0  0  0  0  0  0  0  0  0  0  0
  -23.1869  -28.9730   23.1596 O   0  0  0  0  0  0  0  0  0  0  0  0
  -21.7628  -32.0295   21.4789 O   0  0  0  0  0  0  0  0  0  0  0  0
  -22.7662  -30.4137   17.1311 O   0  0  0  0  0  0  0  0  0  0  0  0
  -30.6733  -15.8825   18.7368 O   0  0  0  0  0  0  0  0  0  0  0  0
  -21.6469   -6.8954   21.3704 O   0  0  0  0  0  0  0  0  0  0  0  0
  -28.1474  -26.8522   19.3358 O   0  0  0  0  0  0  0  0  0  1  0  0
  -26.6210  -19.2300   19.4611 O   0  0  0  0  0  0  0  0  0  0  0  0
  -20.8023   -3.3508   25.5087 F   0  0  0  0  0  0  0  0  0  0  0  0
  -21.9558   -4.1743   20.9925 F   0  0  0  0  0  0  0  0  0  0  0  0
  1  2  1  0  0  0  0
  1  5  2  0  0  0  0
  2  6  2  0  0  0  0
  3  9  2  0  0  0  0
  3 17  1  0  0  0  0
  4 10  1  0  0  0  0
  4 17  2  0  0  0  0
  5 19  1  0  0  0  0
  6 21  1  0  0  0  0
  7 11  2  0  0  0  0
  7 20  1  0  0  0  0
  8 12  2  0  0  0  0
  8 22  1  0  0  0  0
  9 26  1  0  0  0  0
 10 26  2  0  0  0  0
 11 27  1  0  0  0  0
 12 28  1  0  0  0  0
 13 14  2  0  0  0  0
 13 29  1  0  0  0  0
 14 30  1  0  0  0  0
 15 23  1  0  0  0  0
 15 27  2  0  0  0  0
 16 30  2  0  0  0  0
 16 31  1  0  0  0  0
 17 32  1  0  0  0  0
 18 32  1  0  0  0  0
 18 33  2  0  0  0  0
 18 34  1  0  0  0  0
 19 21  2  0  0  0  0
 19 39  1  0  0  0  0
 20 23  2  0  0  0  0
 20 40  1  0  0  0  0
 21 52  1  0  0  0  0
 22 24  2  0  0  0  0
 22 51  1  0  0  0  0
 23 41  1  0  0  0  0
 24 25  1  0  0  0  0
 24 57  1  0  0  0  0
 25 28  2  0  0  0  0
 25 58  1  0  0  0  0
 26 82  1  0  0  0  0
 27 83  1  0  0  0  0
 28 84  1  0  0  0  0
 29 31  2  0  0  0  0
 29 82  1  0  0  0  0
 30 85  1  0  0  0  0
 31 86  1  0  0  0  0
 32 67  2  0  0  0  0
 33 68  1  0  0  0  0
 33 72  1  0  0  0  0
 34 73  1  0  0  0  0
 34 77  2  0  0  0  0
 35 53  1  0  0  0  0
 35 74  1  0  0  0  0
 35 78  2  0  0  0  0
 36 64  1  0  0  0  0
 36 69  1  0  0  0  0
 36 79  2  0  0  0  0
 37 65  1  0  0  0  0
 37 75  1  0  0  0  0
 37 80  2  0  0  0  0
 38 70  1  0  0  0  0
 38 71  1  0  0  0  0
 38 81  2  0  0  0  0
 39 42  1  0  0  0  0
 40 53  1  0  0  0  0
 41 69  1  0  0  0  0
 42 44  1  0  0  0  0
 43 45  1  0  0  0  0
 43 47  1  0  0  0  0
 44 52  1  0  0  0  0
 45 54  1  0  0  0  0
 46 51  1  0  0  0  0
 46 55  1  0  0  0  0
 47 70  1  0  0  0  0
 48 54  1  0  0  0  0
 48 70  1  0  0  0  0
 49 56  1  0  0  0  0
 49 71  1  0  0  0  0
 50 56  1  0  0  0  0
 50 71  1  0  0  0  0
 51 55  1  0  0  0  0
 52 74  1  0  0  0  0
 53 69  1  0  0  0  0
 54 68  1  0  0  0  0
 55 83  1  0  0  0  0
 56 84  1  0  0  0  0
 59 65  1  0  0  0  0
 60 66  1  0  0  0  0
 61 66  1  0  0  0  0
 62 66  1  0  0  0  0
 63 76  1  0  0  0  0
 64 66  1  0  0  0  0
 64 75  1  0  0  0  0
 65 76  1  0  0  0  0
 67 68  1  0  0  0  0
M  CHG  1  76   1
M  ISO  4  38 100  55 101  71 100  83 101
M  END
> <Batch ID>
0166

> <Smiles>
CNC(C)C(=O)NC(C(=O)N1Cc2cc([101O:1][101CH:1]3CC3c3ccc(OC4C[100N:0]([100C:0](=O)N5CCCC(n6nc(-c7ccc(Oc8ccc(F)cc8F)cc7)c(C(N)=O)c6N)C5)C4)c(C)c3C)ccc2CC1C(=O)NC1CCCc2ccccc21)C(C)(C)C

> <Shape>
0.266

> <Color>
0.128

> <Negative vol penalty>
0.000

$$$$

  -OEChem-04052322243D

 94104  0     1  0  0  0  0  0999 V2000
  -23.6060  -38.1739   18.9395 C   0  0  0  0  0  0  0  0  0  0  0  0
  -23.9365  -37.0308   18.2187 C   0  0  0  0  0  0  0  0  0  0  0  0
  -26.0750  -13.2915   21.3513 C   0  0  0  0  0  0  0  0  0  0  0  0
  -25.0376  -12.3648   23.3267 C   0  0  0  0  0  0  0  0  0  0  0  0
  -24.0190  -38.3047   20.2647 C   0  0  0  0  0  0  0  0  0  0  0  0
  -24.6813  -36.0183   18.8225 C   0  0  0  0  0  0  0  0  0  0  0  0
  -25.4733  -28.8987   18.7998 C   0  0  0  0  0  0  0  0  0  0  0  0
  -26.0003  -12.0461   20.7278 C   0  0  0  0  0  0  0  0  0  0  0  0
  -24.9628  -11.1194   22.7031 C   0  0  0  0  0  0  0  0  0  0  0  0
  -26.4632  -27.9255   18.6697 C   0  0  0  0  0  0  0  0  0  0  0  0
  -22.9997   -9.5964   20.4124 C   0  0  0  0  0  0  0  0  0  0  0  0
  -21.8015   -8.8904   20.5199 C   0  0  0  0  0  0  0  0  0  0  0  0
  -27.9651  -20.4769   19.9680 C   0  0  0  0  0  0  0  0  0  0  0  0
  -27.0544  -28.2256   20.9891 C   0  0  0  0  0  0  0  0  0  0  0  0
  -22.9685   -7.0757   21.6073 C   0  0  0  0  0  0  0  0  0  0  0  0
  -25.5937  -13.4509   22.6508 C   0  0  0  0  0  0  0  0  0  0  0  0
  -24.7054  -15.7609   23.2691 C   0  0  0  0  0  0  0  0  0  0  0  0
  -24.7610  -37.2890   20.8880 C   0  0  0  0  0  0  0  0  0  0  0  0
  -25.2735  -29.5515   20.0246 C   0  0  0  0  0  0  0  0  0  0  0  0
  -25.1058  -36.1362   20.1569 C   0  0  0  0  0  0  0  0  0  0  0  0
  -28.6456  -21.6696   19.7643 C   0  0  0  0  0  0  0  0  0  0  0  0
  -26.0597  -29.2049   21.1328 C   0  0  0  0  0  0  0  0  0  0  0  0
  -29.9602  -21.8314   20.2224 C   0  0  0  0  0  0  0  0  0  0  0  0
  -29.9357  -19.6009   21.0883 C   0  0  0  0  0  0  0  0  0  0  0  0
  -28.6179  -19.4404   20.6377 C   0  0  0  0  0  0  0  0  0  0  0  0
  -30.6175  -20.8009   20.8778 C   0  0  0  0  0  0  0  0  0  0  0  0
  -25.4442  -10.9600   21.4036 C   0  0  0  0  0  0  0  0  0  0  0  0
  -27.2558  -27.5909   19.7637 C   0  0  0  0  0  0  0  0  0  0  0  0
  -24.1823   -9.0421   20.9022 C   0  0  0  0  0  0  0  0  0  0  0  0
  -21.7859   -7.6300   21.1174 C   0  0  0  0  0  0  0  0  0  0  0  0
  -24.1667   -7.7818   21.4996 C   0  0  0  0  0  0  0  0  0  0  0  0
  -25.6712  -14.7371   23.2958 C   0  0  0  0  0  0  0  0  0  0  0  0
  -25.2506  -16.7671   24.0286 C   0  0  0  0  0  0  0  0  0  0  0  0
  -23.4294  -15.7991   22.6163 C   0  0  0  0  0  0  0  0  0  0  0  0
  -25.4779  -32.5630   21.0210 C   0  0  0  0  0  0  0  0  0  0  0  0
  -24.2750  -31.3261   23.7678 C   0  0  0  0  0  0  0  0  0  0  0  0
  -23.8433  -28.5973   25.7713 C   0  0  0  0  0  0  0  0  0  0  0  0
  -31.2355  -17.4108   25.3403 C   0  0  0  0  0  0  0  0  0  0  0  0
  -25.2255  -37.4964   22.3078 C   0  0  0  0  0  0  0  0  0  0  0  0
  -24.1838  -30.5800   20.1556 C   0  0  0  0  0  0  0  0  0  0  0  0
  -25.8718  -29.8617   22.4750 C   0  0  0  0  0  0  0  0  0  0  0  0
  -25.6913  -36.2126   22.9899 C   0  0  0  0  0  0  0  0  0  0  0  0
  -28.4276  -16.9780   27.6913 C   0  0  0  0  0  0  0  0  0  0  0  0
  -26.6170  -35.4243   22.0688 C   0  0  0  0  0  0  0  0  0  0  0  0
  -27.1824  -16.8178   26.8166 C   0  0  0  0  0  0  0  0  0  0  0  0
  -31.8752  -17.8922   21.0887 C   0  0  0  0  0  0  0  0  0  0  0  0
  -29.4525  -17.9194   27.0673 C   0  0  0  0  0  0  0  0  0  0  0  0
  -32.6800  -16.9783   23.3087 C   0  0  0  0  0  0  0  0  0  0  0  0
  -28.9218  -16.6592   24.9761 C   0  0  0  0  0  0  0  0  0  0  0  0
  -30.6294  -18.4493   21.8048 C   0  0  1  0  0  0  0  0  0  0  0  0
  -25.8912  -35.0052   20.7846 C   0  0  1  0  0  0  0  0  0  0  0  0
  -30.4847  -23.1922   19.8697 C   0  0  2  0  0  0  0  0  0  0  0  0
  -24.4106  -31.5467   21.3138 C   0  0  1  0  0  0  0  0  0  0  0  0
  -32.4690  -16.6780   21.8191 C   0  0  1  0  0  0  0  0  0  0  0  0
  -27.4721  -17.0275   25.3183 C   0  0  1  0  0  0  0  0  0  0  0  0
  -30.9336  -18.7708   23.2917 C   0  0  2  0  0  0  0  0  0  0  0  0
  -28.1674  -22.9135   19.0524 C   0  0  0  0  0  0  0  0  0  0  0  0
  -27.8860  -18.1557   20.8574 C   0  0  0  0  0  0  0  0  0  0  0  0
  -32.0360  -20.9363   21.3193 C   0  0  0  0  0  0  0  0  0  0  0  0
  -31.1223  -23.9661   21.0205 C   0  0  0  0  0  0  0  0  0  0  0  0
  -31.6311  -15.4182   21.5967 C   0  0  0  0  0  0  0  0  0  0  0  0
  -31.8261  -20.0068   23.4927 C   0  0  0  0  0  0  0  0  0  0  0  0
  -26.8219  -23.4182   19.5803 C   0  0  0  0  0  0  0  0  0  0  0  0
  -28.1159  -22.6568   17.5406 C   0  0  0  0  0  0  0  0  0  0  0  0
  -22.8531  -27.9052   27.9708 C   0  0  0  0  0  0  0  0  0  0  0  0
  -26.6301  -32.6040   25.2274 C   0  0  0  0  0  0  0  0  0  0  0  0
  -26.1300  -31.1247   27.1844 C   0  0  0  0  0  0  0  0  0  0  0  0
  -24.4390  -32.7910   26.4184 C   0  0  0  0  0  0  0  0  0  0  0  0
  -21.9742  -26.7090   24.4676 C   0  0  0  0  0  0  0  0  0  0  0  0
  -29.5282  -25.0479   18.3905 C   0  0  0  0  0  0  0  0  0  0  0  0
  -28.3725  -26.0286   18.3608 C   0  0  0  0  0  0  0  0  0  1  0  0
  -24.8680  -30.7283   25.0208 C   0  0  1  0  0  0  0  0  0  0  0  0
  -22.6154  -28.0489   26.4756 C   0  0  2  0  0  0  0  0  0  0  0  0
  -25.5218  -31.8008   25.9371 C   0  0  0  0  0  0  0  0  0  0  0  0
  -26.7484  -15.0629   24.0150 N   0  0  0  0  0  0  0  0  0  0  0  0
  -26.4628  -16.3030   24.4473 N   0  0  0  0  0  0  0  0  0  0  0  0
  -24.7975  -30.8656   22.5510 N   0  0  0  0  0  0  0  0  0  0  0  0
  -29.8912  -17.4471   25.7463 N   0  0  0  0  0  0  0  0  0  0  0  0
  -31.5116  -17.5853   23.9677 N   0  0  0  0  0  0  0  0  0  0  0  0
  -24.8067  -17.9948   24.3722 N   0  0  0  0  0  0  0  0  0  0  0  0
  -23.0235  -14.6797   21.8770 N   0  0  0  0  0  0  0  0  0  0  0  0
  -25.0299  -33.8701   21.0382 N   0  0  0  0  0  0  0  0  0  0  0  0
  -23.7965  -29.9707   25.6583 N   0  0  0  0  0  0  0  0  0  0  0  0
  -29.2452  -23.9802   19.4045 N   0  3  2  0  0  0  0  0  0  0  0  0
  -22.2574  -26.7107   25.9259 N   0  3  0  0  0  0  0  0  0  0  0  0
  -22.6789  -16.8026   22.6729 O   0  0  0  0  0  0  0  0  0  0  0  0
  -26.6233  -32.1891   20.7975 O   0  0  0  0  0  0  0  0  0  0  0  0
  -23.3761  -32.1653   23.8650 O   0  0  0  0  0  0  0  0  0  0  0  0
  -24.7547  -27.8794   25.3656 O   0  0  0  0  0  0  0  0  0  0  0  0
  -32.1419  -17.2397   26.1670 O   0  0  0  0  0  0  0  0  0  0  0  0
  -25.3708   -9.7446   20.7953 O   0  0  0  0  0  0  0  0  0  0  0  0
  -28.2301  -26.6350   19.6385 O   0  0  0  0  0  0  0  0  0  1  0  0
  -20.6350   -6.9528   21.2220 F   0  0  0  0  0  0  0  0  0  0  0  0
  -25.2994   -7.2446   21.9731 F   0  0  0  0  0  0  0  0  0  0  0  0
  1  2  1  0  0  0  0
  1  5  2  0  0  0  0
  2  6  2  0  0  0  0
  3  8  2  0  0  0  0
  3 16  1  0  0  0  0
  4  9  1  0  0  0  0
  4 16  2  0  0  0  0
  5 18  1  0  0  0  0
  6 20  1  0  0  0  0
  7 10  2  0  0  0  0
  7 19  1  0  0  0  0
  8 27  1  0  0  0  0
  9 27  2  0  0  0  0
 10 28  1  0  0  0  0
 11 12  2  0  0  0  0
 11 29  1  0  0  0  0
 12 30  1  0  0  0  0
 13 21  2  0  0  0  0
 13 25  1  0  0  0  0
 14 22  1  0  0  0  0
 14 28  2  0  0  0  0
 15 30  2  0  0  0  0
 15 31  1  0  0  0  0
 16 32  1  0  0  0  0
 17 32  1  0  0  0  0
 17 33  2  0  0  0  0
 17 34  1  0  0  0  0
 18 20  2  0  0  0  0
 18 39  1  0  0  0  0
 19 22  2  0  0  0  0
 19 40  1  0  0  0  0
 20 51  1  0  0  0  0
 21 23  1  0  0  0  0
 21 57  1  0  0  0  0
 22 41  1  0  0  0  0
 23 26  2  0  0  0  0
 23 52  1  0  0  0  0
 24 25  2  0  0  0  0
 24 26  1  0  0  0  0
 24 50  1  0  0  0  0
 25 58  1  0  0  0  0
 26 59  1  0  0  0  0
 27 91  1  0  0  0  0
 28 92  1  0  0  0  0
 29 31  2  0  0  0  0
 29 91  1  0  0  0  0
 30 93  1  0  0  0  0
 31 94  1  0  0  0  0
 32 75  2  0  0  0  0
 33 76  1  0  0  0  0
 33 80  1  0  0  0  0
 34 81  1  0  0  0  0
 34 86  2  0  0  0  0
 35 53  1  0  0  0  0
 35 82  1  0  0  0  0
 35 87  2  0  0  0  0
 36 72  1  0  0  0  0
 36 77  1  0  0  0  0
 36 88  2  0  0  0  0
 37 73  1  0  0  0  0
 37 83  1  0  0  0  0
 37 89  2  0  0  0  0
 38 78  1  0  0  0  0
 38 79  1  0  0  0  0
 38 90  2  0  0  0  0
 39 42  1  0  0  0  0
 40 53  1  0  0  0  0
 41 77  1  0  0  0  0
 42 44  1  0  0  0  0
 43 45  1  0  0  0  0
 43 47  1  0  0  0  0
 44 51  1  0  0  0  0
 45 55  1  0  0  0  0
 46 50  1  0  0  0  0
 46 54  1  0  0  0  0
 47 78  1  0  0  0  0
 48 54  1  0  0  0  0
 48 79  1  0  0  0  0
 49 55  1  0  0  0  0
 49 78  1  0  0  0  0
 50 56  1  0  0  0  0
 51 82  1  0  0  0  0
 52 60  1  0  0  0  0
 52 84  1  0  0  0  0
 53 77  1  0  0  0  0
 54 61  1  0  0  0  0
 55 76  1  0  0  0  0
 56 62  1  0  0  0  0
 56 79  1  0  0  0  0
 57 63  1  0  0  0  0
 57 64  1  0  0  0  0
 57 84  1  0  0  0  0
 65 73  1  0  0  0  0
 66 74  1  0  0  0  0
 67 74  1  0  0  0  0
 68 74  1  0  0  0  0
 69 85  1  0  0  0  0
 70 71  1  0  0  0  0
 70 84  1  0  0  0  0
 71 92  1  0  0  0  0
 72 74  1  0  0  0  0
 72 83  1  0  0  0  0
 73 85  1  0  0  0  0
 75 76  1  0  0  0  0
M  CHG  2  84   1  85   1
M  ISO  4  38 100  71 101  79 100  92 101
M  END
> <Batch ID>
0166

> <Smiles>
CNC(C)C(=O)NC(C(=O)N1Cc2cc([101O:1][101CH2:1]CN3C(C)c4c(cc(C)c(C5CC(C)C[100N:0]([100C:0](=O)N6CCCC(n7nc(-c8ccc(Oc9ccc(F)cc9F)cc8)c(C(N)=O)c7N)C6)C5C)c4C)C3(C)C)ccc2CC1C(=O)NC1CCCc2ccccc21)C(C)(C)C

> <Shape>
0.246

> <Color>
0.077

> <Negative vol penalty>
0.000

$$$$

  -OEChem-04052322243D

 87 96  0     1  0  0  0  0  0999 V2000
  -28.7658  -11.4313   22.2323 C   0  0  0  0  0  0  0  0  0  0  0  0
  -28.9934  -12.6866   21.6775 C   0  0  0  0  0  0  0  0  0  0  0  0
  -23.6686  -25.2297   24.5812 C   0  0  0  0  0  0  0  0  0  0  0  0
  -24.9744  -26.9865   25.6037 C   0  0  0  0  0  0  0  0  0  0  0  0
  -27.5255  -10.8147   22.0734 C   0  0  0  0  0  0  0  0  0  0  0  0
  -27.9811  -13.3256   20.9624 C   0  0  0  0  0  0  0  0  0  0  0  0
  -27.5254  -18.2173   22.1903 C   0  0  0  0  0  0  0  0  0  0  0  0
  -24.2685  -24.2935   25.4234 C   0  0  0  0  0  0  0  0  0  0  0  0
  -25.5743  -26.0503   26.4459 C   0  0  0  0  0  0  0  0  0  0  0  0
  -28.4572  -19.1000   21.6457 C   0  0  0  0  0  0  0  0  0  0  0  0
  -27.2017  -22.6235   25.6020 C   0  0  0  0  0  0  0  0  0  0  0  0
  -27.6406  -21.4282   25.0327 C   0  0  0  0  0  0  0  0  0  0  0  0
  -26.8503  -19.7525   19.9691 C   0  0  0  0  0  0  0  0  0  0  0  0
  -31.9634  -22.6032   17.5667 C   0  0  0  0  0  0  0  0  0  0  0  0
  -26.1603  -20.1917   26.4877 C   0  0  0  0  0  0  0  0  0  0  0  0
  -24.0215  -26.5762   24.6714 C   0  0  0  0  0  0  0  0  0  0  0  0
  -22.0311  -27.8469   23.7064 C   0  0  0  0  0  0  0  0  0  0  0  0
  -26.4943  -11.4506   21.3643 C   0  0  0  0  0  0  0  0  0  0  0  0
  -26.2506  -18.0875   21.6207 C   0  0  0  0  0  0  0  0  0  0  0  0
  -26.7262  -12.7163   20.7927 C   0  0  0  0  0  0  0  0  0  0  0  0
  -25.9033  -18.8694   20.5098 C   0  0  0  0  0  0  0  0  0  0  0  0
  -31.7594  -23.9785   17.5486 C   0  0  0  0  0  0  0  0  0  0  0  0
  -30.9438  -21.7604   17.9951 C   0  0  0  0  0  0  0  0  0  0  0  0
  -25.2214  -24.7038   26.3557 C   0  0  0  0  0  0  0  0  0  0  0  0
  -28.1207  -19.8656   20.5332 C   0  0  0  0  0  0  0  0  0  0  0  0
  -26.2422  -22.6030   26.6142 C   0  0  0  0  0  0  0  0  0  0  0  0
  -27.1199  -20.2123   25.4756 C   0  0  0  0  0  0  0  0  0  0  0  0
  -25.7215  -21.3871   27.0571 C   0  0  0  0  0  0  0  0  0  0  0  0
  -23.4025  -27.5436   23.8013 C   0  0  0  0  0  0  0  0  0  0  0  0
  -30.5277  -24.4570   17.9654 C   0  0  0  0  0  0  0  0  0  0  0  0
  -29.7487  -22.3382   18.3921 C   0  0  0  0  0  0  0  0  0  0  0  0
  -21.9613  -28.8241   22.7438 C   0  0  0  0  0  0  0  0  0  0  0  0
  -20.9196  -27.2947   24.4243 C   0  0  0  0  0  0  0  0  0  0  0  0
  -24.6342  -15.7145   20.2570 C   0  0  0  0  0  0  0  0  0  0  0  0
  -22.2176  -17.8784   20.2610 C   0  0  0  0  0  0  0  0  0  0  0  0
  -21.2618  -21.1540   20.3210 C   0  0  0  0  0  0  0  0  0  0  0  0
  -27.2002  -28.8811   21.4351 C   0  0  0  0  0  0  0  0  0  0  0  0
  -25.1857  -10.7241   21.1786 C   0  0  0  0  0  0  0  0  0  0  0  0
  -25.2478  -17.1505   22.2362 C   0  0  0  0  0  0  0  0  0  0  0  0
  -24.5410  -18.7821   19.8733 C   0  0  0  0  0  0  0  0  0  0  0  0
  -24.0443  -11.6312   20.7262 C   0  0  0  0  0  0  0  0  0  0  0  0
  -25.3008  -31.6445   22.4885 C   0  0  0  0  0  0  0  0  0  0  0  0
  -24.5005  -12.5345   19.5849 C   0  0  0  0  0  0  0  0  0  0  0  0
  -23.9274  -31.4385   21.8553 C   0  0  0  0  0  0  0  0  0  0  0  0
  -26.4082  -31.2226   21.5339 C   0  0  0  0  0  0  0  0  0  0  0  0
  -27.1714  -27.9019   19.1019 C   0  0  0  0  0  0  0  0  0  0  0  0
  -24.9398  -29.5370   20.4609 C   0  0  0  0  0  0  0  0  0  0  0  0
  -28.4531  -27.6196   18.3293 C   0  0  0  0  0  0  0  0  0  0  0  0
  -29.3126  -26.2835   20.2516 C   0  0  0  0  0  0  0  0  0  0  0  0
  -25.6450  -13.4522   20.0314 C   0  0  1  0  0  0  0  0  0  0  0  0
  -24.1540  -16.7224   21.2626 C   0  0  1  0  0  0  0  0  0  0  0  0
  -23.7242  -30.0258   21.2802 C   0  0  1  0  0  0  0  0  0  0  0  0
  -28.0330  -26.5744   21.0371 C   0  0  2  0  0  0  0  0  0  0  0  0
  -32.8477  -24.8868   17.0906 C   0  0  0  0  0  0  0  0  0  0  0  0
  -31.1560  -20.2860   18.0173 C   0  0  0  0  0  0  0  0  0  0  0  0
  -27.0501  -25.3997   21.0239 C   0  0  0  0  0  0  0  0  0  0  0  0
  -19.7149  -23.1264   20.4393 C   0  0  0  0  0  0  0  0  0  0  0  0
  -21.9194  -17.3640   17.2682 C   0  0  0  0  0  0  0  0  0  0  0  0
  -20.5739  -19.4695   17.1112 C   0  0  0  0  0  0  0  0  0  0  0  0
  -19.7593  -17.5724   18.5112 C   0  0  0  0  0  0  0  0  0  0  0  0
  -21.3350  -21.1811   23.2795 C   0  0  0  0  0  0  0  0  0  0  0  0
  -30.2504  -25.9315   17.9685 C   0  0  0  0  0  0  0  0  0  0  0  0
  -28.6186  -21.4810   18.8604 C   0  0  0  0  0  0  0  0  0  1  0  0
  -21.7320  -18.9405   19.3043 C   0  0  1  0  0  0  0  0  0  0  0  0
  -20.2261  -21.8860   21.1553 C   0  0  2  0  0  0  0  0  0  0  0  0
  -21.0225  -18.3371   18.0593 C   0  0  0  0  0  0  0  0  0  0  0  0
  -24.1501  -28.2692   22.9655 N   0  0  0  0  0  0  0  0  0  0  0  0
  -29.5135  -23.6695   18.3882 N   0  0  0  0  0  0  0  0  0  0  0  0
  -23.2452  -29.0382   22.3362 N   0  0  0  0  0  0  0  0  0  0  0  0
  -23.5974  -17.8469   20.5077 N   0  0  0  0  0  0  0  0  0  0  0  0
  -26.2339  -29.8405   21.0905 N   0  0  0  0  0  0  0  0  0  0  0  0
  -27.3778  -27.8024   20.5541 N   0  0  0  0  0  0  0  0  0  0  0  0
  -20.9276  -29.5125   22.2147 N   0  0  0  0  0  0  0  0  0  0  0  0
  -20.2705  -26.1729   23.8909 N   0  0  0  0  0  0  0  0  0  0  0  0
  -25.1322  -14.5538   20.8175 N   0  0  0  0  0  0  0  0  0  0  0  0
  -20.8973  -19.8448   20.0879 N   0  0  0  0  0  0  0  0  0  0  0  0
  -29.0324  -26.3002   18.7697 N   0  3  2  0  0  0  0  0  0  0  0  0
  -20.8134  -22.3046   22.4595 N   0  3  0  0  0  0  0  0  0  0  0  0
  -20.5037  -27.7916   25.4984 O   0  0  0  0  0  0  0  0  0  0  0  0
  -24.5570  -15.9703   19.0610 O   0  0  0  0  0  0  0  0  0  0  0  0
  -21.4018  -17.1097   20.7760 O   0  0  0  0  0  0  0  0  0  0  0  0
  -22.2894  -21.6910   19.9135 O   0  0  0  0  0  0  0  0  0  0  0  0
  -27.8555  -28.9742   22.4809 O   0  0  0  0  0  0  0  0  0  0  0  0
  -25.8069  -23.7906   27.1779 O   0  0  0  0  0  0  0  0  0  0  0  0
  -29.0350  -20.7336   19.9955 O   0  0  0  0  0  0  0  0  0  1  0  0
  -27.5403  -19.0645   24.9277 F   0  0  0  0  0  0  0  0  0  0  0  0
  -24.7985  -21.3611   28.0283 F   0  0  0  0  0  0  0  0  0  0  0  0
  1  2  1  0  0  0  0
  1  5  2  0  0  0  0
  2  6  2  0  0  0  0
  3  8  2  0  0  0  0
  3 16  1  0  0  0  0
  4  9  1  0  0  0  0
  4 16  2  0  0  0  0
  5 18  1  0  0  0  0
  6 20  1  0  0  0  0
  7 10  2  0  0  0  0
  7 19  1  0  0  0  0
  8 24  1  0  0  0  0
  9 24  2  0  0  0  0
 10 25  1  0  0  0  0
 11 12  2  0  0  0  0
 11 26  1  0  0  0  0
 12 27  1  0  0  0  0
 13 21  1  0  0  0  0
 13 25  2  0  0  0  0
 14 22  2  0  0  0  0
 14 23  1  0  0  0  0
 15 27  2  0  0  0  0
 15 28  1  0  0  0  0
 16 29  1  0  0  0  0
 17 29  1  0  0  0  0
 17 32  2  0  0  0  0
 17 33  1  0  0  0  0
 18 20  2  0  0  0  0
 18 38  1  0  0  0  0
 19 21  2  0  0  0  0
 19 39  1  0  0  0  0
 20 50  1  0  0  0  0
 21 40  1  0  0  0  0
 22 30  1  0  0  0  0
 22 54  1  0  0  0  0
 23 31  2  0  0  0  0
 23 55  1  0  0  0  0
 24 84  1  0  0  0  0
 25 85  1  0  0  0  0
 26 28  2  0  0  0  0
 26 84  1  0  0  0  0
 27 86  1  0  0  0  0
 28 87  1  0  0  0  0
 29 67  2  0  0  0  0
 30 62  1  0  0  0  0
 30 68  2  0  0  0  0
 31 63  1  0  0  0  0
 31 68  1  0  0  0  0
 32 69  1  0  0  0  0
 32 73  1  0  0  0  0
 33 74  1  0  0  0  0
 33 79  2  0  0  0  0
 34 51  1  0  0  0  0
 34 75  1  0  0  0  0
 34 80  2  0  0  0  0
 35 64  1  0  0  0  0
 35 70  1  0  0  0  0
 35 81  2  0  0  0  0
 36 65  1  0  0  0  0
 36 76  1  0  0  0  0
 36 82  2  0  0  0  0
 37 71  1  0  0  0  0
 37 72  1  0  0  0  0
 37 83  2  0  0  0  0
 38 41  1  0  0  0  0
 39 51  1  0  0  0  0
 40 70  1  0  0  0  0
 41 43  1  0  0  0  0
 42 44  1  0  0  0  0
 42 45  1  0  0  0  0
 43 50  1  0  0  0  0
 44 52  1  0  0  0  0
 45 71  1  0  0  0  0
 46 48  1  0  0  0  0
 46 72  1  0  0  0  0
 47 52  1  0  0  0  0
 47 71  1  0  0  0  0
 48 77  1  0  0  0  0
 49 53  1  0  0  0  0
 49 77  1  0  0  0  0
 50 75  1  0  0  0  0
 51 70  1  0  0  0  0
 52 69  1  0  0  0  0
 53 56  1  0  0  0  0
 53 72  1  0  0  0  0
 57 65  1  0  0  0  0
 58 66  1  0  0  0  0
 59 66  1  0  0  0  0
 60 66  1  0  0  0  0
 61 78  1  0  0  0  0
 62 77  1  0  0  0  0
 63 85  1  0  0  0  0
 64 66  1  0  0  0  0
 64 76  1  0  0  0  0
 65 78  1  0  0  0  0
 67 69  1  0  0  0  0
M  CHG  2  77   1  78   1
M  ISO  4  37 100  63 101  72 100  85 101
M  END
> <Batch ID>
0166

> <Smiles>
CNC(C)C(=O)NC(C(=O)N1Cc2cc([101O:1][101CH2:1]c3nc(CN4CC[100N:0]([100C:0](=O)N5CCCC(n6nc(-c7ccc(Oc8ccc(F)cc8F)cc7)c(C(N)=O)c6N)C5)C(C)C4)c(C)cc3C)ccc2CC1C(=O)NC1CCCc2ccccc21)C(C)(C)C

> <Shape>
0.209

> <Color>
0.079

> <Negative vol penalty>
0.000

$$$$

  -OEChem-04052322243D

 87 96  0     1  0  0  0  0  0999 V2000
  -25.0362  -35.5260   25.5261 C   0  0  0  0  0  0  0  0  0  0  0  0
  -25.6567  -34.2885   25.6639 C   0  0  0  0  0  0  0  0  0  0  0  0
  -22.9474  -10.4115   21.2693 C   0  0  0  0  0  0  0  0  0  0  0  0
  -24.6981   -8.7883   21.6399 C   0  0  0  0  0  0  0  0  0  0  0  0
  -23.7838  -35.6129   24.9194 C   0  0  0  0  0  0  0  0  0  0  0  0
  -25.0246  -33.1370   25.1961 C   0  0  0  0  0  0  0  0  0  0  0  0
  -27.7018  -28.2103   22.7331 C   0  0  0  0  0  0  0  0  0  0  0  0
  -21.9982   -9.3895   21.2770 C   0  0  0  0  0  0  0  0  0  0  0  0
  -23.7488   -7.7663   21.6477 C   0  0  0  0  0  0  0  0  0  0  0  0
  -28.0532  -26.9699   23.2639 C   0  0  0  0  0  0  0  0  0  0  0  0
  -21.7472   -4.7690   22.1250 C   0  0  0  0  0  0  0  0  0  0  0  0
  -21.8437   -3.8007   23.1244 C   0  0  0  0  0  0  0  0  0  0  0  0
  -25.9887  -26.0372   22.4351 C   0  0  0  0  0  0  0  0  0  0  0  0
  -27.6740  -21.3004   19.9898 C   0  0  0  0  0  0  0  0  0  0  0  0
  -21.5842   -5.5134   24.8086 C   0  0  0  0  0  0  0  0  0  0  0  0
  -24.2974  -10.1109   21.4507 C   0  0  0  0  0  0  0  0  0  0  0  0
  -25.7355  -11.9107   22.5461 C   0  0  0  0  0  0  0  0  0  0  0  0
  -23.1404  -34.4630   24.4352 C   0  0  0  0  0  0  0  0  0  0  0  0
  -26.4842  -28.3763   22.0577 C   0  0  0  0  0  0  0  0  0  0  0  0
  -23.7619  -33.2084   24.5836 C   0  0  0  0  0  0  0  0  0  0  0  0
  -25.6253  -27.2801   21.8944 C   0  0  0  0  0  0  0  0  0  0  0  0
  -27.9972  -20.4075   21.0054 C   0  0  0  0  0  0  0  0  0  0  0  0
  -22.3988   -8.0669   21.4662 C   0  0  0  0  0  0  0  0  0  0  0  0
  -27.1953  -25.8838   23.1175 C   0  0  0  0  0  0  0  0  0  0  0  0
  -21.5693   -6.1094   22.4674 C   0  0  0  0  0  0  0  0  0  0  0  0
  -21.7622   -4.1729   24.4662 C   0  0  0  0  0  0  0  0  0  0  0  0
  -21.4878   -6.4816   23.8092 C   0  0  0  0  0  0  0  0  0  0  0  0
  -28.4792  -20.8875   22.2182 C   0  0  0  0  0  0  0  0  0  0  0  0
  -25.2785  -11.1661   21.4423 C   0  0  0  0  0  0  0  0  0  0  0  0
  -27.8493  -22.6528   20.2351 C   0  0  0  0  0  0  0  0  0  0  0  0
  -28.6186  -22.2583   22.3636 C   0  0  0  0  0  0  0  0  0  0  0  0
  -26.6561  -12.7812   22.0157 C   0  0  0  0  0  0  0  0  0  0  0  0
  -25.3615  -11.8234   23.9275 C   0  0  0  0  0  0  0  0  0  0  0  0
  -23.8833  -30.1432   22.5238 C   0  0  0  0  0  0  0  0  0  0  0  0
  -23.0239  -28.9414   19.6360 C   0  0  0  0  0  0  0  0  0  0  0  0
  -23.3461  -26.4553   17.3203 C   0  0  0  0  0  0  0  0  0  0  0  0
  -28.2578  -16.3484   18.1104 C   0  0  0  0  0  0  0  0  0  0  0  0
  -21.7662  -34.6009   23.8292 C   0  0  0  0  0  0  0  0  0  0  0  0
  -26.1320  -29.7144   21.4677 C   0  0  0  0  0  0  0  0  0  0  0  0
  -24.3159  -27.4010   21.1602 C   0  0  0  0  0  0  0  0  0  0  0  0
  -21.3305  -33.3798   23.0235 C   0  0  0  0  0  0  0  0  0  0  0  0
  -28.8010  -12.9517   17.4525 C   0  0  0  0  0  0  0  0  0  0  0  0
  -21.6176  -32.0981   23.7993 C   0  0  0  0  0  0  0  0  0  0  0  0
  -27.9585  -12.2339   18.5049 C   0  0  0  0  0  0  0  0  0  0  0  0
  -26.3657  -18.5348   20.4392 C   0  0  0  0  0  0  0  0  0  0  0  0
  -28.0765  -14.1834   16.9251 C   0  0  0  0  0  0  0  0  0  0  0  0
  -26.8652  -14.4632   19.0698 C   0  0  0  0  0  0  0  0  0  0  0  0
  -27.8102  -18.9305   20.7495 C   0  0  1  0  0  0  0  0  0  0  0  0
  -23.1193  -31.9396   24.0665 C   0  0  1  0  0  0  0  0  0  0  0  0
  -24.6333  -29.8938   21.2459 C   0  0  1  0  0  0  0  0  0  0  0  0
  -27.5502  -13.1998   19.6296 C   0  0  1  0  0  0  0  0  0  0  0  0
  -26.5014  -17.1422   19.8024 C   0  0  1  0  0  0  0  0  0  0  0  0
  -28.5818  -18.3732   19.5370 C   0  0  1  0  0  0  0  0  0  0  0  0
  -27.5123  -23.6399   19.1678 C   0  0  0  0  0  0  0  0  0  0  0  0
  -25.3409  -16.9000   18.8406 C   0  0  0  0  0  0  0  0  0  0  0  0
  -30.0398  -18.0868   19.8965 C   0  0  0  0  0  0  0  0  0  0  0  0
  -22.4878  -25.7298   15.0766 C   0  0  0  0  0  0  0  0  0  0  0  0
  -20.4147  -28.0325   20.9307 C   0  0  0  0  0  0  0  0  0  0  0  0
  -20.0434  -26.5291   18.9635 C   0  0  0  0  0  0  0  0  0  0  0  0
  -20.1603  -28.9996   18.6385 C   0  0  0  0  0  0  0  0  0  0  0  0
  -26.0474  -26.5792   16.1175 C   0  0  0  0  0  0  0  0  0  0  0  0
  -29.1302  -22.8504   23.6370 C   0  0  0  0  0  0  0  0  0  0  0  0
  -28.9262  -24.3653   23.7126 C   0  0  0  0  0  0  0  0  0  1  0  0
  -22.2742  -27.7176   19.1675 C   0  0  1  0  0  0  0  0  0  0  0  0
  -23.5688  -26.4995   15.8193 C   0  0  2  0  0  0  0  0  0  0  0  0
  -20.7469  -27.8176   19.4406 C   0  0  0  0  0  0  0  0  0  0  0  0
  -25.8606  -11.5317   20.2971 N   0  0  0  0  0  0  0  0  0  0  0  0
  -28.3149  -23.1566   21.4000 N   0  0  0  0  0  0  0  0  0  0  0  0
  -26.6928  -12.5156   20.6784 N   0  0  0  0  0  0  0  0  0  0  0  0
  -24.0134  -28.7313   20.6068 N   0  0  0  0  0  0  0  0  0  0  0  0
  -27.6790  -15.0776   18.0126 N   0  0  0  0  0  0  0  0  0  0  0  0
  -27.8365  -17.1613   19.1662 N   0  0  0  0  0  0  0  0  0  0  0  0
  -27.4295  -13.7403   22.5673 N   0  0  0  0  0  0  0  0  0  0  0  0
  -24.4008  -10.8736   24.3008 N   0  0  0  0  0  0  0  0  0  0  0  0
  -23.7985  -31.4769   22.8753 N   0  0  0  0  0  0  0  0  0  0  0  0
  -22.6194  -27.5411   17.7610 N   0  0  0  0  0  0  0  0  0  0  0  0
  -24.8908  -25.9045   15.4741 N   0  3  0  0  0  0  0  0  0  0  0  0
  -25.8522  -12.5767   24.8022 O   0  0  0  0  0  0  0  0  0  0  0  0
  -23.4148  -29.1959   23.1441 O   0  0  0  0  0  0  0  0  0  0  0  0
  -22.7467  -30.0421   19.1530 O   0  0  0  0  0  0  0  0  0  0  0  0
  -23.7709  -25.5464   18.0302 O   0  0  0  0  0  0  0  0  0  0  0  0
  -29.1034  -16.7405   17.2966 O   0  0  0  0  0  0  0  0  0  0  0  0
  -21.4728   -7.0694   21.4740 O   0  0  0  0  0  0  0  0  0  0  0  0
  -27.5379  -24.6636   23.6388 O   0  0  0  0  0  0  0  0  0  1  0  0
  -21.8534   -3.2428   25.4257 F   0  0  0  0  0  0  0  0  0  0  0  0
  -21.3157   -7.7677   24.1443 F   0  0  0  0  0  0  0  0  0  0  0  0
  -28.8895  -19.8059   23.4986 Cl  0  0  0  0  0  0  0  0  0  0  0  0
  1  2  1  0  0  0  0
  1  5  2  0  0  0  0
  2  6  2  0  0  0  0
  3  8  2  0  0  0  0
  3 16  1  0  0  0  0
  4  9  1  0  0  0  0
  4 16  2  0  0  0  0
  5 18  1  0  0  0  0
  6 20  1  0  0  0  0
  7 10  2  0  0  0  0
  7 19  1  0  0  0  0
  8 23  1  0  0  0  0
  9 23  2  0  0  0  0
 10 24  1  0  0  0  0
 11 12  2  0  0  0  0
 11 25  1  0  0  0  0
 12 26  1  0  0  0  0
 13 21  1  0  0  0  0
 13 24  2  0  0  0  0
 14 22  2  0  0  0  0
 14 30  1  0  0  0  0
 15 26  2  0  0  0  0
 15 27  1  0  0  0  0
 16 29  1  0  0  0  0
 17 29  1  0  0  0  0
 17 32  2  0  0  0  0
 17 33  1  0  0  0  0
 18 20  2  0  0  0  0
 18 38  1  0  0  0  0
 19 21  2  0  0  0  0
 19 39  1  0  0  0  0
 20 49  1  0  0  0  0
 21 40  1  0  0  0  0
 22 28  1  0  0  0  0
 22 48  1  0  0  0  0
 23 83  1  0  0  0  0
 24 84  1  0  0  0  0
 25 27  2  0  0  0  0
 25 83  1  0  0  0  0
 26 85  1  0  0  0  0
 27 86  1  0  0  0  0
 28 31  2  0  0  0  0
 28 87  1  0  0  0  0
 29 67  2  0  0  0  0
 30 54  1  0  0  0  0
 30 68  2  0  0  0  0
 31 62  1  0  0  0  0
 31 68  1  0  0  0  0
 32 69  1  0  0  0  0
 32 73  1  0  0  0  0
 33 74  1  0  0  0  0
 33 78  2  0  0  0  0
 34 50  1  0  0  0  0
 34 75  1  0  0  0  0
 34 79  2  0  0  0  0
 35 64  1  0  0  0  0
 35 70  1  0  0  0  0
 35 80  2  0  0  0  0
 36 65  1  0  0  0  0
 36 76  1  0  0  0  0
 36 81  2  0  0  0  0
 37 71  1  0  0  0  0
 37 72  1  0  0  0  0
 37 82  2  0  0  0  0
 38 41  1  0  0  0  0
 39 50  1  0  0  0  0
 40 70  1  0  0  0  0
 41 43  1  0  0  0  0
 42 44  1  0  0  0  0
 42 46  1  0  0  0  0
 43 49  1  0  0  0  0
 44 51  1  0  0  0  0
 45 48  1  0  0  0  0
 45 52  1  0  0  0  0
 46 71  1  0  0  0  0
 47 51  1  0  0  0  0
 47 71  1  0  0  0  0
 48 53  1  0  0  0  0
 49 75  1  0  0  0  0
 50 70  1  0  0  0  0
 51 69  1  0  0  0  0
 52 55  1  0  0  0  0
 52 72  1  0  0  0  0
 53 56  1  0  0  0  0
 53 72  1  0  0  0  0
 57 65  1  0  0  0  0
 58 66  1  0  0  0  0
 59 66  1  0  0  0  0
 60 66  1  0  0  0  0
 61 77  1  0  0  0  0
 62 63  1  0  0  0  0
 63 84  1  0  0  0  0
 64 66  1  0  0  0  0
 64 76  1  0  0  0  0
 65 77  1  0  0  0  0
 67 69  1  0  0  0  0
M  CHG  1  77   1
M  ISO  4  37 100  63 101  72 100  84 101
M  END
> <Batch ID>
0166

> <Smiles>
CNC(C)C(=O)NC(C(=O)N1Cc2cc([101O:1][101CH2:1]Cc3nc(C)cc(C4CC(C)[100N:0]([100C:0](=O)N5CCCC(n6nc(-c7ccc(Oc8ccc(F)cc8F)cc7)c(C(N)=O)c6N)C5)C4C)c3Cl)ccc2CC1C(=O)NC1CCCc2ccccc21)C(C)(C)C

> <Shape>
0.257

> <Color>
0.098

> <Negative vol penalty>
0.000

$$$$

  -OEChem-04052322243D

 88 97  0     1  0  0  0  0  0999 V2000
  -25.8337  -34.6850   25.5811 C   0  0  0  0  0  0  0  0  0  0  0  0
  -26.0108  -33.5062   26.2985 C   0  0  0  0  0  0  0  0  0  0  0  0
  -23.1173   -9.9343   20.7518 C   0  0  0  0  0  0  0  0  0  0  0  0
  -24.7109   -9.8697   22.5666 C   0  0  0  0  0  0  0  0  0  0  0  0
  -25.6337  -34.6371   24.2022 C   0  0  0  0  0  0  0  0  0  0  0  0
  -25.9869  -32.2787   25.6373 C   0  0  0  0  0  0  0  0  0  0  0  0
  -28.8940  -25.7370   25.9029 C   0  0  0  0  0  0  0  0  0  0  0  0
  -22.5684   -8.7295   21.1908 C   0  0  0  0  0  0  0  0  0  0  0  0
  -24.1619   -8.6648   23.0057 C   0  0  0  0  0  0  0  0  0  0  0  0
  -28.5226  -24.3933   25.9242 C   0  0  0  0  0  0  0  0  0  0  0  0
  -20.4478   -7.6942   23.6124 C   0  0  0  0  0  0  0  0  0  0  0  0
  -19.0575   -7.5979   23.6692 C   0  0  0  0  0  0  0  0  0  0  0  0
  -30.8320  -15.7708   24.9768 C   0  0  0  0  0  0  0  0  0  0  0  0
  -28.2485  -24.4373   23.5279 C   0  0  0  0  0  0  0  0  0  0  0  0
  -30.6267  -13.4657   26.5347 C   0  0  0  0  0  0  0  0  0  0  0  0
  -19.1210   -5.7586   22.1038 C   0  0  0  0  0  0  0  0  0  0  0  0
  -24.1886  -10.5044   21.4397 C   0  0  0  0  0  0  0  0  0  0  0  0
  -24.0993  -12.9872   20.8609 C   0  0  0  0  0  0  0  0  0  0  0  0
  -25.6170  -33.4090   23.5223 C   0  0  0  0  0  0  0  0  0  0  0  0
  -28.9350  -26.4450   24.6931 C   0  0  0  0  0  0  0  0  0  0  0  0
  -25.7851  -32.2143   24.2481 C   0  0  0  0  0  0  0  0  0  0  0  0
  -30.3359  -15.8504   26.2780 C   0  0  0  0  0  0  0  0  0  0  0  0
  -28.6232  -25.7892   23.4936 C   0  0  0  0  0  0  0  0  0  0  0  0
  -31.2253  -14.5386   24.4545 C   0  0  0  0  0  0  0  0  0  0  0  0
  -30.2333  -14.6978   27.0570 C   0  0  0  0  0  0  0  0  0  0  0  0
  -31.1227  -13.3861   25.2335 C   0  0  0  0  0  0  0  0  0  0  0  0
  -23.0907   -8.0948   22.3178 C   0  0  0  0  0  0  0  0  0  0  0  0
  -28.1970  -23.7441   24.7369 C   0  0  0  0  0  0  0  0  0  0  0  0
  -21.1748   -6.8228   22.8013 C   0  0  0  0  0  0  0  0  0  0  0  0
  -18.3941   -6.6301   22.9149 C   0  0  0  0  0  0  0  0  0  0  0  0
  -20.5114   -5.8550   22.0470 C   0  0  0  0  0  0  0  0  0  0  0  0
  -24.7564  -11.7486   20.9863 C   0  0  0  0  0  0  0  0  0  0  0  0
  -25.0668  -13.8437   20.3952 C   0  0  0  0  0  0  0  0  0  0  0  0
  -22.7361  -13.3328   21.1403 C   0  0  0  0  0  0  0  0  0  0  0  0
  -27.4087  -28.9754   23.5223 C   0  0  0  0  0  0  0  0  0  0  0  0
  -29.5004  -28.6144   21.0693 C   0  0  0  0  0  0  0  0  0  0  0  0
  -31.5671  -26.5505   19.3041 C   0  0  0  0  0  0  0  0  0  0  0  0
  -31.0427  -13.8346   20.7691 C   0  0  0  0  0  0  0  0  0  0  0  0
  -25.3502  -33.4046   22.0379 C   0  0  0  0  0  0  0  0  0  0  0  0
  -29.3635  -27.8868   24.6839 C   0  0  0  0  0  0  0  0  0  0  0  0
  -28.6713  -26.4989   22.1661 C   0  0  0  0  0  0  0  0  0  0  0  0
  -25.7124  -32.0867   21.3579 C   0  0  0  0  0  0  0  0  0  0  0  0
  -29.0837  -13.8978   17.7967 C   0  0  0  0  0  0  0  0  0  0  0  0
  -25.1732  -30.9064   22.1599 C   0  0  0  0  0  0  0  0  0  0  0  0
  -27.6933  -13.4659   18.2658 C   0  0  0  0  0  0  0  0  0  0  0  0
  -30.1880  -13.1549   18.5456 C   0  0  0  0  0  0  0  0  0  0  0  0
  -31.0416  -18.2360   26.8764 C   0  0  0  0  0  0  0  0  0  0  0  0
  -28.7090  -12.8005   20.4848 C   0  0  0  0  0  0  0  0  0  0  0  0
  -29.9163  -17.1977   26.8230 C   0  0  1  0  0  0  0  0  0  0  0  0
  -25.7904  -30.8649   23.5630 C   0  0  1  0  0  0  0  0  0  0  0  0
  -28.8736  -28.6479   23.4559 C   0  0  1  0  0  0  0  0  0  0  0  0
  -27.5631  -13.5628   19.7977 C   0  0  2  0  0  0  0  0  0  0  0  0
  -28.8138  -17.8846   26.0008 C   0  0  1  0  0  0  0  0  0  0  0  0
  -29.7058  -14.7587   28.4529 C   0  0  0  0  0  0  0  0  0  0  0  0
  -31.5369  -12.0559   24.6954 C   0  0  0  0  0  0  0  0  0  0  0  0
  -27.4170  -17.4578   26.4456 C   0  0  0  0  0  0  0  0  0  0  0  0
  -33.1147  -26.5325   17.3288 C   0  0  0  0  0  0  0  0  0  0  0  0
  -27.0971  -28.5807   19.1898 C   0  0  0  0  0  0  0  0  0  0  0  0
  -28.5854  -27.6276   17.4165 C   0  0  0  0  0  0  0  0  0  0  0  0
  -29.0567  -29.8906   18.3541 C   0  0  0  0  0  0  0  0  0  0  0  0
  -33.8906  -25.8181   20.9844 C   0  0  0  0  0  0  0  0  0  0  0  0
  -31.7526  -14.4778   23.0585 C   0  0  0  0  0  0  0  0  0  0  0  0
  -28.4959  -20.1880   25.2720 C   0  0  0  0  0  0  0  0  0  0  0  0
  -28.3952  -21.6172   25.7824 C   0  0  0  0  0  0  0  0  0  1  0  0
  -29.5026  -27.8446   19.7707 C   0  0  1  0  0  0  0  0  0  0  0  0
  -33.0000  -26.7225   18.8333 C   0  0  2  0  0  0  0  0  0  0  0  0
  -28.5576  -28.4727   18.7078 C   0  0  0  0  0  0  0  0  0  0  0  0
  -26.0420  -11.8085   20.6291 N   0  0  0  0  0  0  0  0  0  0  0  0
  -26.2005  -13.0950   20.2745 N   0  0  0  0  0  0  0  0  0  0  0  0
  -30.5141  -19.4173   26.1939 N   0  0  0  0  0  0  0  0  0  0  0  0
  -29.0900  -27.9097   22.2099 N   0  0  0  0  0  0  0  0  0  0  0  0
  -30.0074  -13.2876   19.9932 N   0  0  0  0  0  0  0  0  0  0  0  0
  -29.0816  -19.3034   26.2755 N   0  0  2  0  0  0  0  0  0  0  0  0
  -25.0500  -15.1565   20.0813 N   0  0  0  0  0  0  0  0  0  0  0  0
  -21.8764  -12.3316   21.6124 N   0  0  0  0  0  0  0  0  0  0  0  0
  -27.1338  -30.3296   23.5087 N   0  0  0  0  0  0  0  0  0  0  0  0
  -30.8972  -27.7548   19.3518 N   0  0  0  0  0  0  0  0  0  0  0  0
  -30.7872  -13.9306   22.1315 N   0  0  0  0  0  0  0  0  0  0  0  0
  -33.8875  -25.7292   19.5015 N   0  3  0  0  0  0  0  0  0  0  0  0
  -22.2894  -14.4911   20.9606 O   0  0  0  0  0  0  0  0  0  0  0  0
  -26.5884  -28.0669   23.5800 O   0  0  0  0  0  0  0  0  0  0  0  0
  -29.8567  -29.7954   21.0729 O   0  0  0  0  0  0  0  0  0  0  0  0
  -31.0887  -25.4568   19.5965 O   0  0  0  0  0  0  0  0  0  0  0  0
  -32.1133  -14.2146   20.2828 O   0  0  0  0  0  0  0  0  0  0  0  0
  -22.5552   -6.9193   22.7466 O   0  0  0  0  0  0  0  0  0  0  0  0
  -27.8335  -22.4328   24.7550 O   0  0  0  0  0  0  0  0  0  1  0  0
  -17.0590   -6.5367   22.9707 F   0  0  0  0  0  0  0  0  0  0  0  0
  -21.2045   -5.0143   21.2669 F   0  0  0  0  0  0  0  0  0  0  0  0
  1  2  1  0  0  0  0
  1  5  2  0  0  0  0
  2  6  2  0  0  0  0
  3  8  2  0  0  0  0
  3 17  1  0  0  0  0
  4  9  1  0  0  0  0
  4 17  2  0  0  0  0
  5 19  1  0  0  0  0
  6 21  1  0  0  0  0
  7 10  2  0  0  0  0
  7 20  1  0  0  0  0
  8 27  1  0  0  0  0
  9 27  2  0  0  0  0
 10 28  1  0  0  0  0
 11 12  2  0  0  0  0
 11 29  1  0  0  0  0
 12 30  1  0  0  0  0
 13 22  1  0  0  0  0
 13 24  2  0  0  0  0
 14 23  1  0  0  0  0
 14 28  2  0  0  0  0
 15 25  1  0  0  0  0
 15 26  2  0  0  0  0
 16 30  2  0  0  0  0
 16 31  1  0  0  0  0
 17 32  1  0  0  0  0
 18 32  1  0  0  0  0
 18 33  2  0  0  0  0
 18 34  1  0  0  0  0
 19 21  2  0  0  0  0
 19 39  1  0  0  0  0
 20 23  2  0  0  0  0
 20 40  1  0  0  0  0
 21 50  1  0  0  0  0
 22 25  2  0  0  0  0
 22 49  1  0  0  0  0
 23 41  1  0  0  0  0
 24 26  1  0  0  0  0
 24 62  1  0  0  0  0
 25 54  1  0  0  0  0
 26 55  1  0  0  0  0
 27 85  1  0  0  0  0
 28 86  1  0  0  0  0
 29 31  2  0  0  0  0
 29 85  1  0  0  0  0
 30 87  1  0  0  0  0
 31 88  1  0  0  0  0
 32 68  2  0  0  0  0
 33 69  1  0  0  0  0
 33 74  1  0  0  0  0
 34 75  1  0  0  0  0
 34 80  2  0  0  0  0
 35 51  1  0  0  0  0
 35 76  1  0  0  0  0
 35 81  2  0  0  0  0
 36 65  1  0  0  0  0
 36 71  1  0  0  0  0
 36 82  2  0  0  0  0
 37 66  1  0  0  0  0
 37 77  1  0  0  0  0
 37 83  2  0  0  0  0
 38 72  1  0  0  0  0
 38 78  1  0  0  0  0
 38 84  2  0  0  0  0
 39 42  1  0  0  0  0
 40 51  1  0  0  0  0
 41 71  1  0  0  0  0
 42 44  1  0  0  0  0
 43 45  1  0  0  0  0
 43 46  1  0  0  0  0
 44 50  1  0  0  0  0
 45 52  1  0  0  0  0
 46 72  1  0  0  0  0
 47 49  1  0  0  0  0
 47 70  1  0  0  0  0
 48 52  1  0  0  0  0
 48 72  1  0  0  0  0
 49 53  1  0  0  0  0
 50 76  1  0  0  0  0
 51 71  1  0  0  0  0
 52 69  1  0  0  0  0
 53 56  1  0  0  0  0
 53 73  1  0  0  0  0
 57 66  1  0  0  0  0
 58 67  1  0  0  0  0
 59 67  1  0  0  0  0
 60 67  1  0  0  0  0
 61 79  1  0  0  0  0
 62 78  1  0  0  0  0
 63 64  1  0  0  0  0
 63 73  1  0  0  0  0
 64 86  1  0  0  0  0
 65 67  1  0  0  0  0
 65 77  1  0  0  0  0
 66 79  1  0  0  0  0
 68 69  1  0  0  0  0
 70 73  1  0  0  0  0
M  CHG  1  79   1
M  ISO  4  38 100  64 101  78 100  86 101
M  END
> <Batch ID>
0166

> <Smiles>
CNC(C)C(=O)NC(C(=O)N1Cc2cc([101O:1][101CH2:1]CN3NCC(c4cc(C[100NH:0][100C:0](=O)N5CCCC(n6nc(-c7ccc(Oc8ccc(F)cc8F)cc7)c(C(N)=O)c6N)C5)c(C)cc4C)C3C)ccc2CC1C(=O)NC1CCCc2ccccc21)C(C)(C)C

> <Shape>
0.247

> <Color>
0.162

> <Negative vol penalty>
0.000

$$$$

  -OEChem-04052322243D

 92102  0     1  0  0  0  0  0999 V2000
  -18.9490  -32.8855   19.9432 C   0  0  0  0  0  0  0  0  0  0  0  0
  -20.2137  -32.4239   19.5924 C   0  0  0  0  0  0  0  0  0  0  0  0
  -26.0315  -13.9340   19.0387 C   0  0  0  0  0  0  0  0  0  0  0  0
  -25.7624  -13.8170   21.4368 C   0  0  0  0  0  0  0  0  0  0  0  0
  -18.4436  -32.6299   21.2172 C   0  0  0  0  0  0  0  0  0  0  0  0
  -20.9741  -31.7074   20.5159 C   0  0  0  0  0  0  0  0  0  0  0  0
  -24.8284  -27.0993   19.3259 C   0  0  0  0  0  0  0  0  0  0  0  0
  -25.7588  -12.5696   18.9415 C   0  0  0  0  0  0  0  0  0  0  0  0
  -25.4896  -12.4525   21.3396 C   0  0  0  0  0  0  0  0  0  0  0  0
  -26.2143  -27.0489   19.1829 C   0  0  0  0  0  0  0  0  0  0  0  0
  -24.3675   -9.0119   21.6871 C   0  0  0  0  0  0  0  0  0  0  0  0
  -23.2935   -8.5104   22.4224 C   0  0  0  0  0  0  0  0  0  0  0  0
  -33.7011  -22.8343   25.7180 C   0  0  0  0  0  0  0  0  0  0  0  0
  -26.4224  -26.3857   21.4929 C   0  0  0  0  0  0  0  0  0  0  0  0
  -21.7929   -9.9875   21.2378 C   0  0  0  0  0  0  0  0  0  0  0  0
  -26.0333  -14.5578   20.2863 C   0  0  0  0  0  0  0  0  0  0  0  0
  -25.3888  -17.0255   20.3353 C   0  0  0  0  0  0  0  0  0  0  0  0
  -19.1942  -31.9016   22.1536 C   0  0  0  0  0  0  0  0  0  0  0  0
  -24.2287  -26.8034   20.5585 C   0  0  0  0  0  0  0  0  0  0  0  0
  -20.4787  -31.4430   21.8041 C   0  0  0  0  0  0  0  0  0  0  0  0
  -33.4196  -21.7641   24.8541 C   0  0  0  0  0  0  0  0  0  0  0  0
  -25.0285  -26.4306   21.6483 C   0  0  0  0  0  0  0  0  0  0  0  0
  -32.9994  -22.0321   23.5375 C   0  0  0  0  0  0  0  0  0  0  0  0
  -33.5739  -24.1524   25.2813 C   0  0  0  0  0  0  0  0  0  0  0  0
  -32.8821  -23.3631   23.1089 C   0  0  0  0  0  0  0  0  0  0  0  0
  -33.1652  -24.4167   23.9773 C   0  0  0  0  0  0  0  0  0  0  0  0
  -25.4878  -11.8288   20.0919 C   0  0  0  0  0  0  0  0  0  0  0  0
  -27.0117  -26.6948   20.2673 C   0  0  0  0  0  0  0  0  0  0  0  0
  -24.1543  -10.0012   20.7272 C   0  0  0  0  0  0  0  0  0  0  0  0
  -22.0062   -8.9982   22.1977 C   0  0  0  0  0  0  0  0  0  0  0  0
  -22.8669  -10.4890   20.5025 C   0  0  0  0  0  0  0  0  0  0  0  0
  -26.3155  -15.9671   20.3874 C   0  0  0  0  0  0  0  0  0  0  0  0
  -26.1527  -18.1581   20.4771 C   0  0  0  0  0  0  0  0  0  0  0  0
  -23.9647  -16.9882   20.1732 C   0  0  0  0  0  0  0  0  0  0  0  0
  -22.4389  -28.4212   22.6281 C   0  0  0  0  0  0  0  0  0  0  0  0
  -22.2386  -25.5421   24.1091 C   0  0  0  0  0  0  0  0  0  0  0  0
  -23.6019  -22.4603   24.6481 C   0  0  0  0  0  0  0  0  0  0  0  0
  -31.6574  -18.6467   22.9909 C   0  0  0  0  0  0  0  0  0  0  0  0
  -18.6251  -31.6909   23.5343 C   0  0  0  0  0  0  0  0  0  0  0  0
  -22.7306  -26.8365   20.6892 C   0  0  0  0  0  0  0  0  0  0  0  0
  -24.4326  -26.0840   22.9874 C   0  0  0  0  0  0  0  0  0  0  0  0
  -32.7094  -20.9228   22.5522 C   0  0  0  0  0  0  0  0  0  0  0  0
  -19.3412  -30.6016   24.3286 C   0  0  0  0  0  0  0  0  0  0  0  0
  -30.5376  -19.8598   19.6390 C   0  0  0  0  0  0  0  0  0  0  0  0
  -20.8535  -30.7713   24.2236 C   0  0  0  0  0  0  0  0  0  0  0  0
  -29.2736  -19.0256   19.4338 C   0  0  0  0  0  0  0  0  0  0  0  0
  -30.2194  -26.2511   18.6450 C   0  0  0  0  0  0  0  0  0  0  0  0
  -31.5449  -19.1262   20.5160 C   0  0  0  0  0  0  0  0  0  0  0  0
  -33.7081  -19.3596   24.1833 C   0  0  0  0  0  0  0  0  0  0  0  0
  -29.7397  -17.8714   21.6445 C   0  0  0  0  0  0  0  0  0  0  0  0
  -31.1858  -25.8573   19.7438 C   0  0  0  0  0  0  0  0  0  0  0  0
  -29.2147  -24.4051   19.8179 C   0  0  0  0  0  0  0  0  0  0  0  0
  -33.5517  -20.3390   25.3546 C   0  0  2  0  0  0  0  0  0  0  0  0
  -21.3237  -30.6409   22.7699 C   0  0  1  0  0  0  0  0  0  0  0  0
  -22.2603  -27.0151   22.1294 C   0  0  1  0  0  0  0  0  0  0  0  0
  -28.6818  -18.5798   20.7821 C   0  0  2  0  0  0  0  0  0  0  0  0
  -28.8865  -25.7369   19.1612 C   0  0  1  0  0  0  0  0  0  1  0  0
  -33.0342  -25.8324   23.5113 C   0  0  0  0  0  0  0  0  0  0  0  0
  -32.3605  -19.9691   26.2438 C   0  0  0  0  0  0  0  0  0  0  0  0
  -35.3516  -25.2438   26.6963 C   0  0  0  0  0  0  0  0  0  0  0  0
  -32.9477  -25.2638   27.4554 C   0  0  0  0  0  0  0  0  0  0  0  0
  -23.7742  -20.1078   25.5046 C   0  0  0  0  0  0  0  0  0  0  0  0
  -23.1993  -26.9247   26.6538 C   0  0  0  0  0  0  0  0  0  0  0  0
  -23.7130  -24.6659   27.6038 C   0  0  0  0  0  0  0  0  0  0  0  0
  -21.3664  -25.2588   27.0000 C   0  0  0  0  0  0  0  0  0  0  0  0
  -22.2208  -21.3694   22.2687 C   0  0  0  0  0  0  0  0  0  0  0  0
  -32.4577  -23.6732   21.7053 C   0  0  0  0  0  0  0  0  0  0  0  0
  -31.0127  -24.1503   21.5864 C   0  0  0  0  0  0  0  0  0  0  0  0
  -33.8835  -25.2614   26.2329 C   0  0  0  0  0  0  0  0  0  0  0  0
  -23.0468  -24.8229   25.1620 C   0  0  1  0  0  0  0  0  0  0  0  0
  -22.9910  -21.0707   24.6258 C   0  0  2  0  0  0  0  0  0  0  0  0
  -22.8431  -25.4265   26.5803 C   0  0  0  0  0  0  0  0  0  0  0  0
  -27.5722  -16.3896   20.5496 N   0  0  0  0  0  0  0  0  0  0  0  0
  -27.4405  -17.7261   20.6004 N   0  0  0  0  0  0  0  0  0  0  0  0
  -22.9635  -26.1370   23.0667 N   0  0  0  0  0  0  0  0  0  0  0  0
  -32.6845  -19.5880   23.1650 N   0  0  0  0  0  0  0  0  0  0  0  0
  -30.9435  -18.6936   21.7835 N   0  0  0  0  0  0  0  0  0  0  0  0
  -25.8419  -19.4715   20.5070 N   0  0  0  0  0  0  0  0  0  0  0  0
  -23.3397  -15.7407   20.0414 N   0  0  0  0  0  0  0  0  0  0  0  0
  -21.3624  -29.2494   22.3741 N   0  0  0  0  0  0  0  0  0  0  0  0
  -22.6914  -23.4119   25.0563 N   0  0  0  0  0  0  0  0  0  0  0  0
  -30.6958  -24.4904   20.1773 N   0  3  2  0  0  0  0  0  0  0  0  0
  -22.9771  -20.5332   23.2359 N   0  3  0  0  0  0  0  0  0  0  0  0
  -23.2690  -18.0311   20.1295 O   0  0  0  0  0  0  0  0  0  0  0  0
  -23.4761  -28.7313   23.2023 O   0  0  0  0  0  0  0  0  0  0  0  0
  -21.0090  -25.5688   24.2041 O   0  0  0  0  0  0  0  0  0  0  0  0
  -24.7709  -22.6790   24.3382 O   0  0  0  0  0  0  0  0  0  0  0  0
  -31.3752  -17.8237   23.8713 O   0  0  0  0  0  0  0  0  0  0  0  0
  -25.2214  -10.4974   19.9974 O   0  0  0  0  0  0  0  0  0  0  0  0
  -28.3736  -26.6451   20.1297 O   0  0  0  0  0  0  0  0  0  1  0  0
  -20.9747   -8.5155   22.9028 F   0  0  0  0  0  0  0  0  0  0  0  0
  -22.6556  -11.4385   19.5808 F   0  0  0  0  0  0  0  0  0  0  0  0
  1  2  1  0  0  0  0
  1  5  2  0  0  0  0
  2  6  2  0  0  0  0
  3  8  2  0  0  0  0
  3 16  1  0  0  0  0
  4  9  1  0  0  0  0
  4 16  2  0  0  0  0
  5 18  1  0  0  0  0
  6 20  1  0  0  0  0
  7 10  2  0  0  0  0
  7 19  1  0  0  0  0
  8 27  1  0  0  0  0
  9 27  2  0  0  0  0
 10 28  1  0  0  0  0
 11 12  2  0  0  0  0
 11 29  1  0  0  0  0
 12 30  1  0  0  0  0
 13 21  2  0  0  0  0
 13 24  1  0  0  0  0
 14 22  1  0  0  0  0
 14 28  2  0  0  0  0
 15 30  2  0  0  0  0
 15 31  1  0  0  0  0
 16 32  1  0  0  0  0
 17 32  1  0  0  0  0
 17 33  2  0  0  0  0
 17 34  1  0  0  0  0
 18 20  2  0  0  0  0
 18 39  1  0  0  0  0
 19 22  2  0  0  0  0
 19 40  1  0  0  0  0
 20 54  1  0  0  0  0
 21 23  1  0  0  0  0
 21 53  1  0  0  0  0
 22 41  1  0  0  0  0
 23 25  2  0  0  0  0
 23 42  1  0  0  0  0
 24 26  2  0  0  0  0
 24 69  1  0  0  0  0
 25 26  1  0  0  0  0
 25 67  1  0  0  0  0
 26 58  1  0  0  0  0
 27 89  1  0  0  0  0
 28 90  1  0  0  0  0
 29 31  2  0  0  0  0
 29 89  1  0  0  0  0
 30 91  1  0  0  0  0
 31 92  1  0  0  0  0
 32 73  2  0  0  0  0
 33 74  1  0  0  0  0
 33 78  1  0  0  0  0
 34 79  1  0  0  0  0
 34 84  2  0  0  0  0
 35 55  1  0  0  0  0
 35 80  1  0  0  0  0
 35 85  2  0  0  0  0
 36 70  1  0  0  0  0
 36 75  1  0  0  0  0
 36 86  2  0  0  0  0
 37 71  1  0  0  0  0
 37 81  1  0  0  0  0
 37 87  2  0  0  0  0
 38 76  1  0  0  0  0
 38 77  1  0  0  0  0
 38 88  2  0  0  0  0
 39 43  1  0  0  0  0
 40 55  1  0  0  0  0
 41 75  1  0  0  0  0
 42 76  1  0  0  0  0
 43 45  1  0  0  0  0
 44 46  1  0  0  0  0
 44 48  1  0  0  0  0
 45 54  1  0  0  0  0
 46 56  1  0  0  0  0
 47 51  1  0  0  0  0
 47 57  1  0  0  0  0
 48 77  1  0  0  0  0
 49 53  1  0  0  0  0
 49 76  1  0  0  0  0
 50 56  1  0  0  0  0
 50 77  1  0  0  0  0
 51 82  1  0  0  0  0
 52 57  1  0  0  0  0
 52 82  1  0  0  0  0
 53 59  1  0  0  0  0
 54 80  1  0  0  0  0
 55 75  1  0  0  0  0
 56 74  1  0  0  0  0
 57 90  1  0  0  0  0
 60 69  1  0  0  0  0
 61 69  1  0  0  0  0
 62 71  1  0  0  0  0
 63 72  1  0  0  0  0
 64 72  1  0  0  0  0
 65 72  1  0  0  0  0
 66 83  1  0  0  0  0
 67 68  1  0  0  0  0
 68 82  1  0  0  0  0
 70 72  1  0  0  0  0
 70 81  1  0  0  0  0
 71 83  1  0  0  0  0
 73 74  1  0  0  0  0
M  CHG  2  82   1  83   1
M  ISO  4  38 100  57 101  76 100  90 101
M  END
> <Batch ID>
0166

> <Smiles>
CNC(C)C(=O)NC(C(=O)N1Cc2cc([101O:1][101CH:1]3CCN(CCc4c(C)c(C(C)C)cc5c4C[100N:0]([100C:0](=O)N4CCCC(n6nc(-c7ccc(Oc8ccc(F)cc8F)cc7)c(C(N)=O)c6N)C4)CC5C)C3)ccc2CC1C(=O)NC1CCCc2ccccc21)C(C)(C)C

> <Shape>
0.182

> <Color>
0.083

> <Negative vol penalty>
0.000

$$$$

  -OEChem-04052322243D

 90 99  0     1  0  0  0  0  0999 V2000
  -32.4459  -13.5203   21.3123 C   0  0  0  0  0  0  0  0  0  0  0  0
  -31.7280  -14.6999   21.4817 C   0  0  0  0  0  0  0  0  0  0  0  0
  -29.5962  -28.1261   18.7837 C   0  0  0  0  0  0  0  0  0  0  0  0
  -29.1044  -26.5680   20.5635 C   0  0  0  0  0  0  0  0  0  0  0  0
  -31.8522  -12.4292   20.6791 C   0  0  0  0  0  0  0  0  0  0  0  0
  -30.4163  -14.7894   21.0169 C   0  0  0  0  0  0  0  0  0  0  0  0
  -25.8081  -17.9064   23.5770 C   0  0  0  0  0  0  0  0  0  0  0  0
  -30.9353  -27.7369   18.8130 C   0  0  0  0  0  0  0  0  0  0  0  0
  -30.4436  -26.1788   20.5928 C   0  0  0  0  0  0  0  0  0  0  0  0
  -25.2589  -19.1591   23.3070 C   0  0  0  0  0  0  0  0  0  0  0  0
  -32.4936  -24.1766   18.8014 C   0  0  0  0  0  0  0  0  0  0  0  0
  -32.7686  -22.8107   18.8672 C   0  0  0  0  0  0  0  0  0  0  0  0
  -23.5586  -18.1148   21.9514 C   0  0  0  0  0  0  0  0  0  0  0  0
  -33.9368  -23.1465   20.9552 C   0  0  0  0  0  0  0  0  0  0  0  0
  -28.6807  -27.5417   19.6590 C   0  0  0  0  0  0  0  0  0  0  0  0
  -26.2654  -27.3826   18.8537 C   0  0  0  0  0  0  0  0  0  0  0  0
  -30.5294  -12.5021   20.2150 C   0  0  0  0  0  0  0  0  0  0  0  0
  -25.2423  -16.7475   23.0265 C   0  0  0  0  0  0  0  0  0  0  0  0
  -29.8049  -13.6986   20.3757 C   0  0  0  0  0  0  0  0  0  0  0  0
  -24.1011  -16.8484   22.2181 C   0  0  0  0  0  0  0  0  0  0  0  0
  -19.0784  -26.7728   20.7766 C   0  0  0  0  0  0  0  0  0  0  0  0
  -19.4381  -25.9577   19.7033 C   0  0  0  0  0  0  0  0  0  0  0  0
  -19.8756  -26.8120   21.9205 C   0  0  0  0  0  0  0  0  0  0  0  0
  -20.5950  -25.1817   19.7741 C   0  0  0  0  0  0  0  0  0  0  0  0
  -21.0325  -26.0359   21.9913 C   0  0  0  0  0  0  0  0  0  0  0  0
  -21.3923  -25.2208   20.9180 C   0  0  0  0  0  0  0  0  0  0  0  0
  -31.3590  -26.7633   19.7175 C   0  0  0  0  0  0  0  0  0  0  0  0
  -24.1357  -19.2637   22.4918 C   0  0  0  0  0  0  0  0  0  0  0  0
  -32.9402  -25.0274   19.8125 C   0  0  0  0  0  0  0  0  0  0  0  0
  -33.4902  -22.2956   19.9440 C   0  0  0  0  0  0  0  0  0  0  0  0
  -33.6618  -24.5124   20.8894 C   0  0  0  0  0  0  0  0  0  0  0  0
  -27.2974  -27.9436   19.6297 C   0  0  0  0  0  0  0  0  0  0  0  0
  -25.1504  -28.1127   19.1859 C   0  0  0  0  0  0  0  0  0  0  0  0
  -26.3106  -26.2985   17.9166 C   0  0  0  0  0  0  0  0  0  0  0  0
  -26.2556  -14.4821   21.0403 C   0  0  0  0  0  0  0  0  0  0  0  0
  -23.4055  -13.1145   21.7674 C   0  0  0  0  0  0  0  0  0  0  0  0
  -20.1945  -13.5117   22.8532 C   0  0  0  0  0  0  0  0  0  0  0  0
  -21.8857  -30.5463   23.0022 C   0  0  0  0  0  0  0  0  0  0  0  0
  -29.9462  -11.3123   19.4945 C   0  0  0  0  0  0  0  0  0  0  0  0
  -25.8307  -15.4014   23.3491 C   0  0  0  0  0  0  0  0  0  0  0  0
  -23.4436  -15.6328   21.6191 C   0  0  0  0  0  0  0  0  0  0  0  0
  -28.4260  -11.3636   19.3653 C   0  0  0  0  0  0  0  0  0  0  0  0
  -24.6899  -32.4005   21.8296 C   0  0  0  0  0  0  0  0  0  0  0  0
  -27.9763  -12.7435   18.8959 C   0  0  0  0  0  0  0  0  0  0  0  0
  -25.5355  -31.3591   21.0946 C   0  0  0  0  0  0  0  0  0  0  0  0
  -24.0157  -31.8095   23.0658 C   0  0  0  0  0  0  0  0  0  0  0  0
  -23.8342  -24.9231   20.5509 C   0  0  0  0  0  0  0  0  0  0  0  0
  -22.5722  -23.1367   21.5888 C   0  0  0  0  0  0  0  0  0  0  0  0
  -24.0666  -29.5511   22.0805 C   0  0  0  0  0  0  0  0  0  0  0  0
  -28.3715  -13.8262   19.9074 C   0  0  1  0  0  0  0  0  0  0  0  0
  -25.4794  -14.3331   22.3182 C   0  0  1  0  0  0  0  0  0  0  0  0
  -24.8015  -23.9212   21.1957 C   0  0  1  0  0  0  0  0  0  0  0  0
  -23.9753  -22.6296   21.2290 C   0  0  1  0  0  0  0  0  0  0  0  0
  -24.7217  -30.0857   20.7954 C   0  0  2  0  0  0  0  0  0  0  0  0
  -17.8374  -27.6054   20.7007 C   0  0  0  0  0  0  0  0  0  0  0  0
  -18.5826  -25.9160   18.4764 C   0  0  0  0  0  0  0  0  0  0  0  0
  -20.9779  -24.3080   18.6202 C   0  0  0  0  0  0  0  0  0  0  0  0
  -21.8857  -26.0806   23.2206 C   0  0  0  0  0  0  0  0  0  0  0  0
  -26.1091  -23.7953   20.4295 C   0  0  0  0  0  0  0  0  0  0  0  0
  -18.0943  -12.2157   23.3077 C   0  0  0  0  0  0  0  0  0  0  0  0
  -22.8629  -12.9471   18.7695 C   0  0  0  0  0  0  0  0  0  0  0  0
  -20.4478  -12.5533   19.2992 C   0  0  0  0  0  0  0  0  0  0  0  0
  -22.1734  -10.9247   20.0689 C   0  0  0  0  0  0  0  0  0  0  0  0
  -20.2129  -14.2621   25.7160 C   0  0  0  0  0  0  0  0  0  0  0  0
  -19.4896  -27.6869   23.0715 C   0  0  0  0  0  0  0  0  0  0  0  0
  -24.4909  -21.5983   22.2097 C   0  0  0  0  0  0  0  0  0  1  0  0
  -19.8297  -29.1642   22.8546 C   0  0  0  0  0  0  0  0  0  0  0  0
  -22.0102  -13.1824   21.1951 C   0  0  1  0  0  0  0  0  0  0  0  0
  -19.3845  -12.7642   23.8970 C   0  0  2  0  0  0  0  0  0  0  0  0
  -21.8869  -12.4251   19.8427 C   0  0  0  0  0  0  0  0  0  0  0  0
  -26.8756  -28.9524   20.3968 N   0  0  0  0  0  0  0  0  0  0  0  0
  -25.5662  -29.0310   20.1045 N   0  0  0  0  0  0  0  0  0  0  0  0
  -22.5160  -24.4670   20.9867 N   0  0  3  0  0  0  0  0  0  0  0  0
  -24.0599  -14.3397   21.9587 N   0  0  0  0  0  0  0  0  0  0  0  0
  -23.2590  -30.6056   22.7135 N   0  0  0  0  0  0  0  0  0  0  0  0
  -23.8647  -28.0523   18.7788 N   0  0  0  0  0  0  0  0  0  0  0  0
  -27.5374  -25.6583   17.6941 N   0  0  0  0  0  0  0  0  0  0  0  0
  -27.4668  -13.8170   21.0370 N   0  0  0  0  0  0  0  0  0  0  0  0
  -21.1167  -12.6912   22.2385 N   0  0  0  0  0  0  0  0  0  0  0  0
  -21.2428  -29.3722   22.6296 N   0  0  0  0  0  0  0  0  0  0  0  0
  -19.0367  -13.6693   25.0287 N   0  3  0  0  0  0  0  0  0  0  0  0
  -25.2966  -25.9197   17.2826 O   0  0  0  0  0  0  0  0  0  0  0  0
  -25.7895  -15.1498   20.1246 O   0  0  0  0  0  0  0  0  0  0  0  0
  -23.8939  -12.0155   22.0414 O   0  0  0  0  0  0  0  0  0  0  0  0
  -20.0237  -14.7032   22.6051 O   0  0  0  0  0  0  0  0  0  0  0  0
  -21.2764  -31.4734   23.5466 O   0  0  0  0  0  0  0  0  0  0  0  0
  -32.6656  -26.3831   19.7462 O   0  0  0  0  0  0  0  0  0  0  0  0
  -23.5980  -20.4852   22.2261 O   0  0  0  0  0  0  0  0  0  1  0  0
  -33.7529  -20.9837   20.0078 F   0  0  0  0  0  0  0  0  0  0  0  0
  -34.0924  -25.3247   21.8643 F   0  0  0  0  0  0  0  0  0  0  0  0
  1  2  1  0  0  0  0
  1  5  2  0  0  0  0
  2  6  2  0  0  0  0
  3  8  2  0  0  0  0
  3 15  1  0  0  0  0
  4  9  1  0  0  0  0
  4 15  2  0  0  0  0
  5 17  1  0  0  0  0
  6 19  1  0  0  0  0
  7 10  2  0  0  0  0
  7 18  1  0  0  0  0
  8 27  1  0  0  0  0
  9 27  2  0  0  0  0
 10 28  1  0  0  0  0
 11 12  2  0  0  0  0
 11 29  1  0  0  0  0
 12 30  1  0  0  0  0
 13 20  1  0  0  0  0
 13 28  2  0  0  0  0
 14 30  2  0  0  0  0
 14 31  1  0  0  0  0
 15 32  1  0  0  0  0
 16 32  1  0  0  0  0
 16 33  2  0  0  0  0
 16 34  1  0  0  0  0
 17 19  2  0  0  0  0
 17 39  1  0  0  0  0
 18 20  2  0  0  0  0
 18 40  1  0  0  0  0
 19 50  1  0  0  0  0
 20 41  1  0  0  0  0
 21 22  1  0  0  0  0
 21 23  2  0  0  0  0
 21 55  1  0  0  0  0
 22 24  2  0  0  0  0
 22 56  1  0  0  0  0
 23 25  1  0  0  0  0
 23 65  1  0  0  0  0
 24 26  1  0  0  0  0
 24 57  1  0  0  0  0
 25 26  2  0  0  0  0
 25 58  1  0  0  0  0
 26 73  1  0  0  0  0
 27 87  1  0  0  0  0
 28 88  1  0  0  0  0
 29 31  2  0  0  0  0
 29 87  1  0  0  0  0
 30 89  1  0  0  0  0
 31 90  1  0  0  0  0
 32 71  2  0  0  0  0
 33 72  1  0  0  0  0
 33 76  1  0  0  0  0
 34 77  1  0  0  0  0
 34 82  2  0  0  0  0
 35 51  1  0  0  0  0
 35 78  1  0  0  0  0
 35 83  2  0  0  0  0
 36 68  1  0  0  0  0
 36 74  1  0  0  0  0
 36 84  2  0  0  0  0
 37 69  1  0  0  0  0
 37 79  1  0  0  0  0
 37 85  2  0  0  0  0
 38 75  1  0  0  0  0
 38 80  1  0  0  0  0
 38 86  2  0  0  0  0
 39 42  1  0  0  0  0
 40 51  1  0  0  0  0
 41 74  1  0  0  0  0
 42 44  1  0  0  0  0
 43 45  1  0  0  0  0
 43 46  1  0  0  0  0
 44 50  1  0  0  0  0
 45 54  1  0  0  0  0
 46 75  1  0  0  0  0
 47 52  1  0  0  0  0
 47 73  1  0  0  0  0
 48 53  1  0  0  0  0
 48 73  1  0  0  0  0
 49 54  1  0  0  0  0
 49 75  1  0  0  0  0
 50 78  1  0  0  0  0
 51 74  1  0  0  0  0
 52 53  1  0  0  0  0
 52 59  1  0  0  0  0
 53 66  1  0  0  0  0
 54 72  1  0  0  0  0
 60 69  1  0  0  0  0
 61 70  1  0  0  0  0
 62 70  1  0  0  0  0
 63 70  1  0  0  0  0
 64 81  1  0  0  0  0
 65 67  1  0  0  0  0
 66 88  1  0  0  0  0
 67 80  1  0  0  0  0
 68 70  1  0  0  0  0
 68 79  1  0  0  0  0
 69 81  1  0  0  0  0
 71 72  1  0  0  0  0
M  CHG  1  81   1
M  ISO  4  38 100  66 101  80 100  88 101
M  END
> <Batch ID>
0166

> <Smiles>
CNC(C)C(=O)NC(C(=O)N1Cc2cc([101O:1][101CH2:1]C3CN(c4c(C)c(C)c(C)c(CC[100NH:0][100C:0](=O)N5CCCC(n6nc(-c7ccc(Oc8ccc(F)cc8F)cc7)c(C(N)=O)c6N)C5)c4C)CC3C)ccc2CC1C(=O)NC1CCCc2ccccc21)C(C)(C)C

> <Shape>
0.247

> <Color>
0.078

> <Negative vol penalty>
0.000

$$$$

  -OEChem-04052322243D

 89 99  0     1  0  0  0  0  0999 V2000
  -27.1706  -31.1520   14.1417 C   0  0  0  0  0  0  0  0  0  0  0  0
  -27.2597  -30.1173   15.0674 C   0  0  0  0  0  0  0  0  0  0  0  0
  -23.9701   -9.5582   22.2009 C   0  0  0  0  0  0  0  0  0  0  0  0
  -25.0754   -7.5920   21.3353 C   0  0  0  0  0  0  0  0  0  0  0  0
  -27.2068  -32.4772   14.5736 C   0  0  0  0  0  0  0  0  0  0  0  0
  -27.3863  -30.4073   16.4254 C   0  0  0  0  0  0  0  0  0  0  0  0
  -24.3588  -27.5526   19.3116 C   0  0  0  0  0  0  0  0  0  0  0  0
  -22.7331   -8.9350   22.0369 C   0  0  0  0  0  0  0  0  0  0  0  0
  -23.8384   -6.9688   21.1714 C   0  0  0  0  0  0  0  0  0  0  0  0
  -24.7663  -26.2427   19.5607 C   0  0  0  0  0  0  0  0  0  0  0  0
  -20.9950   -4.7243   20.8621 C   0  0  0  0  0  0  0  0  0  0  0  0
  -20.8751   -3.3991   21.2804 C   0  0  0  0  0  0  0  0  0  0  0  0
  -25.0583  -21.3907   20.8388 C   0  0  0  0  0  0  0  0  0  0  0  0
  -27.7791  -20.7684   20.9180 C   0  0  0  0  0  0  0  0  0  0  0  0
  -25.5826  -26.9153   21.7287 C   0  0  0  0  0  0  0  0  0  0  0  0
  -21.4498   -4.0581   23.5327 C   0  0  0  0  0  0  0  0  0  0  0  0
  -25.0093  -17.9108   22.0879 C   0  0  0  0  0  0  0  0  0  0  0  0
  -25.4593  -20.1170   21.2739 C   0  0  0  0  0  0  0  0  0  0  0  0
  -26.8344  -19.8065   21.3124 C   0  0  0  0  0  0  0  0  0  0  0  0
  -25.1413   -8.8868   21.8501 C   0  0  0  0  0  0  0  0  0  0  0  0
  -27.2461   -9.4933   23.1576 C   0  0  0  0  0  0  0  0  0  0  0  0
  -27.3241  -32.7835   15.9385 C   0  0  0  0  0  0  0  0  0  0  0  0
  -24.5704  -28.5576   20.2665 C   0  0  0  0  0  0  0  0  0  0  0  0
  -27.4254  -31.7378   16.8758 C   0  0  0  0  0  0  0  0  0  0  0  0
  -25.1746  -28.2366   21.4904 C   0  0  0  0  0  0  0  0  0  0  0  0
  -27.3631  -22.0285   20.4886 C   0  0  0  0  0  0  0  0  0  0  0  0
  -26.0057  -22.3389   20.4490 C   0  0  0  0  0  0  0  0  0  0  0  0
  -24.5340  -19.1448   21.6709 C   0  0  0  0  0  0  0  0  0  0  0  0
  -22.6672   -7.6403   21.5222 C   0  0  0  0  0  0  0  0  0  0  0  0
  -25.3809  -25.9245   20.7682 C   0  0  0  0  0  0  0  0  0  0  0  0
  -21.3424   -5.7165   21.7790 C   0  0  0  0  0  0  0  0  0  0  0  0
  -21.1025   -3.0660   22.6157 C   0  0  0  0  0  0  0  0  0  0  0  0
  -21.5698   -5.3834   23.1143 C   0  0  0  0  0  0  0  0  0  0  0  0
  -26.4195   -9.5302   22.0187 C   0  0  0  0  0  0  0  0  0  0  0  0
  -27.1949  -18.5307   21.7505 C   0  0  0  0  0  0  0  0  0  0  0  0
  -28.3362  -10.2557   22.8155 C   0  0  0  0  0  0  0  0  0  0  0  0
  -27.0465   -8.8292   24.4125 C   0  0  0  0  0  0  0  0  0  0  0  0
  -26.2276  -31.2690   20.3397 C   0  0  0  0  0  0  0  0  0  0  0  0
  -24.7719  -31.6259   23.2165 C   0  0  0  0  0  0  0  0  0  0  0  0
  -23.2472  -30.1583   25.8938 C   0  0  0  0  0  0  0  0  0  0  0  0
  -30.4944  -14.8503   20.5059 C   0  0  0  0  0  0  0  0  0  0  0  0
  -27.4066  -34.2312   16.3531 C   0  0  0  0  0  0  0  0  0  0  0  0
  -24.1008  -29.9602   19.9934 C   0  0  0  0  0  0  0  0  0  0  0  0
  -25.4064  -29.2748   22.5567 C   0  0  0  0  0  0  0  0  0  0  0  0
  -27.1655  -34.4525   17.8442 C   0  0  0  0  0  0  0  0  0  0  0  0
  -29.8011  -12.1258   18.3693 C   0  0  0  0  0  0  0  0  0  0  0  0
  -27.9679  -33.4512   18.6690 C   0  0  0  0  0  0  0  0  0  0  0  0
  -28.9024  -11.2140   19.2001 C   0  0  0  0  0  0  0  0  0  0  0  0
  -30.3404  -17.3877   23.1979 C   0  0  0  0  0  0  0  0  0  0  0  0
  -29.4820  -13.5901   18.6389 C   0  0  0  0  0  0  0  0  0  0  0  0
  -31.0795  -16.6681   22.0788 C   0  0  0  0  0  0  0  0  0  0  0  0
  -28.7400  -13.0640   20.9458 C   0  0  0  0  0  0  0  0  0  0  0  0
  -28.8338  -15.8215   22.2064 C   0  0  0  0  0  0  0  0  0  0  0  0
  -27.5387  -32.0119   18.3598 C   0  0  1  0  0  0  0  0  0  0  0  0
  -24.8309  -31.0078   20.8282 C   0  0  1  0  0  0  0  0  0  0  0  0
  -29.0049  -11.5654   20.6925 C   0  0  1  0  0  0  0  0  0  0  0  0
  -28.8761  -17.2216   22.8067 C   0  0  2  0  0  0  0  0  0  0  0  0
  -28.3914  -23.0296   20.0750 C   0  0  0  0  0  0  0  0  0  0  0  0
  -23.0594  -19.3769   21.6651 C   0  0  0  0  0  0  0  0  0  0  0  0
  -22.1975  -30.7050   28.1067 C   0  0  0  0  0  0  0  0  0  0  0  0
  -27.5428  -32.0327   24.4276 C   0  0  0  0  0  0  0  0  0  0  0  0
  -26.5400  -31.6231   26.6847 C   0  0  0  0  0  0  0  0  0  0  0  0
  -25.7796  -33.5665   25.3181 C   0  0  0  0  0  0  0  0  0  0  0  0
  -20.6289  -29.0641   25.0533 C   0  0  0  0  0  0  0  0  0  0  0  0
  -25.5391  -23.6823   19.9916 C   0  0  0  0  0  0  0  0  0  1  0  0
  -25.0980  -31.2293   24.6362 C   0  0  1  0  0  0  0  0  0  0  0  0
  -21.9556  -30.4852   26.6215 C   0  0  2  0  0  0  0  0  0  0  0  0
  -26.2376  -32.0935   25.2460 C   0  0  0  0  0  0  0  0  0  0  0  0
  -26.3168  -17.5783   22.1381 N   0  0  0  0  0  0  0  0  0  0  0  0
  -26.9398  -10.2585   21.0273 N   0  0  0  0  0  0  0  0  0  0  0  0
  -28.1050  -10.6864   21.5422 N   0  0  0  0  0  0  0  0  0  0  0  0
  -24.9353  -30.6332   22.2399 N   0  0  0  0  0  0  0  0  0  0  0  0
  -29.5574  -13.9090   20.0657 N   0  0  0  0  0  0  0  0  0  0  0  0
  -30.1607  -15.6374   21.6078 N   0  0  0  0  0  0  0  0  0  0  0  0
  -29.4602  -10.5930   23.4827 N   0  0  0  0  0  0  0  0  0  0  0  0
  -25.8712   -8.0883   24.5968 N   0  0  0  0  0  0  0  0  0  0  0  0
  -26.2936  -31.7011   19.0288 N   0  0  0  0  0  0  0  0  0  0  0  0
  -23.8417  -31.2892   25.3755 N   0  0  0  0  0  0  0  0  0  0  0  0
  -20.9766  -29.3726   26.4643 N   0  3  0  0  0  0  0  0  0  0  0  0
  -27.8780   -8.9045   25.3488 O   0  0  0  0  0  0  0  0  0  0  0  0
  -27.1752  -31.0930   21.0966 O   0  0  0  0  0  0  0  0  0  0  0  0
  -24.3796  -32.7720   22.9837 O   0  0  0  0  0  0  0  0  0  0  0  0
  -23.6867  -29.0145   25.7983 O   0  0  0  0  0  0  0  0  0  0  0  0
  -31.5696  -15.0124   19.9128 O   0  0  0  0  0  0  0  0  0  0  0  0
  -21.4602   -7.0318   21.3623 O   0  0  0  0  0  0  0  0  0  0  0  0
  -25.7830  -24.6378   21.0154 O   0  0  0  0  0  0  0  0  0  1  0  0
  -28.5155  -18.1703   21.8107 O   0  0  0  0  0  0  0  0  0  0  0  0
  -20.9858   -1.7936   23.0176 F   0  0  0  0  0  0  0  0  0  0  0  0
  -21.9026   -6.3323   24.0000 F   0  0  0  0  0  0  0  0  0  0  0  0
  1  2  1  0  0  0  0
  1  5  2  0  0  0  0
  2  6  2  0  0  0  0
  3  8  2  0  0  0  0
  3 20  1  0  0  0  0
  4  9  1  0  0  0  0
  4 20  2  0  0  0  0
  5 22  1  0  0  0  0
  6 24  1  0  0  0  0
  7 10  2  0  0  0  0
  7 23  1  0  0  0  0
  8 29  1  0  0  0  0
  9 29  2  0  0  0  0
 10 30  1  0  0  0  0
 11 12  2  0  0  0  0
 11 31  1  0  0  0  0
 12 32  1  0  0  0  0
 13 18  2  0  0  0  0
 13 27  1  0  0  0  0
 14 19  2  0  0  0  0
 14 26  1  0  0  0  0
 15 25  1  0  0  0  0
 15 30  2  0  0  0  0
 16 32  2  0  0  0  0
 16 33  1  0  0  0  0
 17 28  2  0  0  0  0
 17 69  1  0  0  0  0
 18 19  1  0  0  0  0
 18 28  1  0  0  0  0
 19 35  1  0  0  0  0
 20 34  1  0  0  0  0
 21 34  1  0  0  0  0
 21 36  2  0  0  0  0
 21 37  1  0  0  0  0
 22 24  2  0  0  0  0
 22 42  1  0  0  0  0
 23 25  2  0  0  0  0
 23 43  1  0  0  0  0
 24 54  1  0  0  0  0
 25 44  1  0  0  0  0
 26 27  2  0  0  0  0
 26 58  1  0  0  0  0
 27 65  1  0  0  0  0
 28 59  1  0  0  0  0
 29 85  1  0  0  0  0
 30 86  1  0  0  0  0
 31 33  2  0  0  0  0
 31 85  1  0  0  0  0
 32 88  1  0  0  0  0
 33 89  1  0  0  0  0
 34 70  2  0  0  0  0
 35 69  2  0  0  0  0
 35 87  1  0  0  0  0
 36 71  1  0  0  0  0
 36 75  1  0  0  0  0
 37 76  1  0  0  0  0
 37 80  2  0  0  0  0
 38 55  1  0  0  0  0
 38 77  1  0  0  0  0
 38 81  2  0  0  0  0
 39 66  1  0  0  0  0
 39 72  1  0  0  0  0
 39 82  2  0  0  0  0
 40 67  1  0  0  0  0
 40 78  1  0  0  0  0
 40 83  2  0  0  0  0
 41 73  1  0  0  0  0
 41 74  1  0  0  0  0
 41 84  2  0  0  0  0
 42 45  1  0  0  0  0
 43 55  1  0  0  0  0
 44 72  1  0  0  0  0
 45 47  1  0  0  0  0
 46 48  1  0  0  0  0
 46 50  1  0  0  0  0
 47 54  1  0  0  0  0
 48 56  1  0  0  0  0
 49 51  1  0  0  0  0
 49 57  1  0  0  0  0
 50 73  1  0  0  0  0
 51 74  1  0  0  0  0
 52 56  1  0  0  0  0
 52 73  1  0  0  0  0
 53 57  1  0  0  0  0
 53 74  1  0  0  0  0
 54 77  1  0  0  0  0
 55 72  1  0  0  0  0
 56 71  1  0  0  0  0
 57 87  1  0  0  0  0
 60 67  1  0  0  0  0
 61 68  1  0  0  0  0
 62 68  1  0  0  0  0
 63 68  1  0  0  0  0
 64 79  1  0  0  0  0
 65 86  1  0  0  0  0
 66 68  1  0  0  0  0
 66 78  1  0  0  0  0
 67 79  1  0  0  0  0
 70 71  1  0  0  0  0
M  CHG  1  79   1
M  ISO  4  41 100  65 101  74 100  86 101
M  END
> <Batch ID>
0166

> <Smiles>
CNC(C)C(=O)NC(C(=O)N1Cc2cc([101O:1][101CH2:1]c3cc4c(C)cnc(OC5CC[100N:0]([100C:0](=O)N6CCCC(n7nc(-c8ccc(Oc9ccc(F)cc9F)cc8)c(C(N)=O)c7N)C6)C5)c4cc3C)ccc2CC1C(=O)NC1CCCc2ccccc21)C(C)(C)C

> <Shape>
0.244

> <Color>
0.084

> <Negative vol penalty>
0.000

$$$$

  -OEChem-04052322243D

 90101  0     1  0  0  0  0  0999 V2000
  -28.8996  -34.1138   26.0609 C   0  0  0  0  0  0  0  0  0  0  0  0
  -29.0893  -32.8814   25.4441 C   0  0  0  0  0  0  0  0  0  0  0  0
  -24.0285   -9.8143   20.9780 C   0  0  0  0  0  0  0  0  0  0  0  0
  -25.2061  -10.8279   22.8281 C   0  0  0  0  0  0  0  0  0  0  0  0
  -27.6095  -34.5544   26.3535 C   0  0  0  0  0  0  0  0  0  0  0  0
  -27.9891  -32.0883   25.1203 C   0  0  0  0  0  0  0  0  0  0  0  0
  -31.5909  -18.5535   20.3020 C   0  0  0  0  0  0  0  0  0  0  0  0
  -27.4035  -28.4132   20.2565 C   0  0  0  0  0  0  0  0  0  0  0  0
  -30.9593  -19.7006   20.7825 C   0  0  0  0  0  0  0  0  0  0  0  0
  -23.9225   -8.6241   21.6975 C   0  0  0  0  0  0  0  0  0  0  0  0
  -25.1001   -9.6376   23.5477 C   0  0  0  0  0  0  0  0  0  0  0  0
  -27.5715  -27.0388   20.0938 C   0  0  0  0  0  0  0  0  0  0  0  0
  -22.0012   -7.3807   24.1866 C   0  0  0  0  0  0  0  0  0  0  0  0
  -20.7661   -6.7327   24.1894 C   0  0  0  0  0  0  0  0  0  0  0  0
  -29.6870  -17.2250   20.9710 C   0  0  0  0  0  0  0  0  0  0  0  0
  -25.1992  -26.7196   20.3925 C   0  0  0  0  0  0  0  0  0  0  0  0
  -21.7865   -4.7834   23.1913 C   0  0  0  0  0  0  0  0  0  0  0  0
  -24.6704  -10.9162   21.5433 C   0  0  0  0  0  0  0  0  0  0  0  0
  -23.8697  -13.2190   20.7925 C   0  0  0  0  0  0  0  0  0  0  0  0
  -30.9547  -17.3157   20.3962 C   0  0  0  0  0  0  0  0  0  0  0  0
  -26.4924  -33.7706   26.0244 C   0  0  0  0  0  0  0  0  0  0  0  0
  -26.1315  -28.9510   20.4997 C   0  0  0  0  0  0  0  0  0  0  0  0
  -26.6829  -32.5182   25.4100 C   0  0  0  0  0  0  0  0  0  0  0  0
  -29.0555  -18.3721   21.4516 C   0  0  0  0  0  0  0  0  0  0  0  0
  -25.0174  -28.1014   20.5554 C   0  0  0  0  0  0  0  0  0  0  0  0
  -29.6916  -19.6099   21.3574 C   0  0  0  0  0  0  0  0  0  0  0  0
  -24.4583   -8.5357   22.9823 C   0  0  0  0  0  0  0  0  0  0  0  0
  -26.4697  -26.1914   20.1646 C   0  0  0  0  0  0  0  0  0  0  0  0
  -23.1291   -6.7301   23.6861 C   0  0  0  0  0  0  0  0  0  0  0  0
  -20.6587   -5.4341   23.6917 C   0  0  0  0  0  0  0  0  0  0  0  0
  -23.0217   -5.4315   23.1885 C   0  0  0  0  0  0  0  0  0  0  0  0
  -24.7807  -12.1458   20.8003 C   0  0  0  0  0  0  0  0  0  0  0  0
  -24.4273  -14.1365   19.9360 C   0  0  0  0  0  0  0  0  0  0  0  0
  -22.6302  -13.3728   21.4966 C   0  0  0  0  0  0  0  0  0  0  0  0
  -24.8053  -30.5863   22.8810 C   0  0  0  0  0  0  0  0  0  0  0  0
  -22.2937  -30.7718   20.8366 C   0  0  0  0  0  0  0  0  0  0  0  0
  -20.6288  -29.4529   18.1654 C   0  0  0  0  0  0  0  0  0  0  0  0
  -29.9802  -15.2460   18.1980 C   0  0  0  0  0  0  0  0  0  0  0  0
  -25.1198  -34.2678   26.4032 C   0  0  0  0  0  0  0  0  0  0  0  0
  -25.9633  -30.4384   20.6465 C   0  0  0  0  0  0  0  0  0  0  0  0
  -23.6276  -28.6308   20.7941 C   0  0  0  0  0  0  0  0  0  0  0  0
  -23.9877  -33.5345   25.6884 C   0  0  0  0  0  0  0  0  0  0  0  0
  -32.4010  -13.8965   20.5364 C   0  0  0  0  0  0  0  0  0  0  0  0
  -27.2761  -14.4710   16.1204 C   0  0  0  0  0  0  0  0  0  0  0  0
  -26.8146  -17.1030   21.6566 C   0  0  0  0  0  0  0  0  0  0  0  0
  -26.4860  -18.4907   21.2021 C   0  0  0  0  0  0  0  0  0  0  0  0
  -32.4626  -15.3596   20.9564 C   0  0  0  0  0  0  0  0  0  0  0  0
  -24.2137  -32.0268   25.7371 C   0  0  0  0  0  0  0  0  0  0  0  0
  -26.2406  -13.8701   17.0688 C   0  0  0  0  0  0  0  0  0  0  0  0
  -27.5468  -21.7702   19.8862 C   0  0  0  0  0  0  0  0  0  0  0  0
  -28.6814  -14.0140   16.4913 C   0  0  0  0  0  0  0  0  0  0  0  0
  -30.9830  -13.7575   20.0047 C   0  0  0  0  0  0  0  0  0  0  0  0
  -28.0378  -13.7565   18.8688 C   0  0  0  0  0  0  0  0  0  0  0  0
  -27.6983  -18.2522   22.0622 C   0  0  0  0  0  0  0  0  0  0  0  0
  -31.6396  -16.0726   19.8753 C   0  0  1  0  0  0  0  0  0  0  0  0
  -25.5133  -31.6403   25.0208 C   0  0  1  0  0  0  0  0  0  0  0  0
  -24.6953  -30.8248   21.4016 C   0  0  1  0  0  0  0  0  0  0  0  0
  -27.6727  -22.8907   20.8848 C   0  0  1  0  0  0  0  0  0  0  0  0
  -28.7801  -21.8785   20.7440 C   0  0  1  0  0  0  0  0  0  0  0  0
  -26.5942  -14.1829   18.5322 C   0  0  2  0  0  0  0  0  0  0  0  0
  -29.8315  -21.5118   23.0057 C   0  0  0  0  0  0  0  0  0  0  0  0
  -18.5873  -29.8024   16.7485 C   0  0  0  0  0  0  0  0  0  0  0  0
  -20.5517  -29.6410   23.0719 C   0  0  0  0  0  0  0  0  0  0  0  0
  -18.8030  -29.1285   21.3551 C   0  0  0  0  0  0  0  0  0  0  0  0
  -19.4958  -31.4903   21.7606 C   0  0  0  0  0  0  0  0  0  0  0  0
  -22.2497  -29.8266   15.7175 C   0  0  0  0  0  0  0  0  0  0  0  0
  -27.8760  -24.2904   20.4176 C   0  0  0  0  0  0  0  0  0  1  0  0
  -29.0366  -20.8532   21.8636 C   0  0  2  0  0  0  0  0  0  0  0  0
  -21.0757  -29.9239   20.5597 C   0  0  1  0  0  0  0  0  0  0  0  0
  -20.0709  -30.0962   16.9087 C   0  0  2  0  0  0  0  0  0  0  0  0
  -20.0079  -30.0354   21.6843 C   0  0  0  0  0  0  0  0  0  0  0  0
  -25.8368  -12.3602   20.0113 N   0  0  0  0  0  0  0  0  0  0  0  0
  -25.5929  -13.5788   19.4996 N   0  0  0  0  0  0  0  0  0  0  0  0
  -23.5156  -30.0917   20.9376 N   0  0  0  0  0  0  0  0  0  0  0  0
  -28.9875  -14.3065   17.8921 N   0  0  0  0  0  0  0  0  0  0  0  0
  -30.7061  -15.0508   19.3766 N   0  0  0  0  0  0  0  0  0  0  0  0
  -24.0294  -15.3580   19.5211 N   0  0  0  0  0  0  0  0  0  0  0  0
  -22.2050  -12.3337   22.3356 N   0  0  0  0  0  0  0  0  0  0  0  0
  -25.3236  -31.6557   23.5862 N   0  0  0  0  0  0  0  0  0  0  0  0
  -20.5962  -30.3173   19.2392 N   0  0  0  0  0  0  0  0  0  0  0  0
  -20.7840  -29.5843   15.7043 N   0  3  0  0  0  0  0  0  0  0  0  0
  -21.9127  -14.3942   21.3724 O   0  0  0  0  0  0  0  0  0  0  0  0
  -24.4453  -29.5123   23.3484 O   0  0  0  0  0  0  0  0  0  0  0  0
  -22.1667  -31.9934   20.9518 O   0  0  0  0  0  0  0  0  0  0  0  0
  -21.0480  -28.2979   18.1927 O   0  0  0  0  0  0  0  0  0  0  0  0
  -30.2218  -16.1993   17.4465 O   0  0  0  0  0  0  0  0  0  0  0  0
  -24.3548   -7.3745   23.6848 O   0  0  0  0  0  0  0  0  0  0  0  0
  -26.6321  -24.8395   20.0056 O   0  0  0  0  0  0  0  0  0  1  0  0
  -19.4728   -4.8114   23.6959 F   0  0  0  0  0  0  0  0  0  0  0  0
  -24.1019   -4.8009   22.7075 F   0  0  0  0  0  0  0  0  0  0  0  0
  1  2  1  0  0  0  0
  1  5  2  0  0  0  0
  2  6  2  0  0  0  0
  3 10  2  0  0  0  0
  3 18  1  0  0  0  0
  4 11  1  0  0  0  0
  4 18  2  0  0  0  0
  5 21  1  0  0  0  0
  6 23  1  0  0  0  0
  7  9  2  0  0  0  0
  7 20  1  0  0  0  0
  8 12  2  0  0  0  0
  8 22  1  0  0  0  0
  9 26  1  0  0  0  0
 10 27  1  0  0  0  0
 11 27  2  0  0  0  0
 12 28  1  0  0  0  0
 13 14  2  0  0  0  0
 13 29  1  0  0  0  0
 14 30  1  0  0  0  0
 15 20  2  0  0  0  0
 15 24  1  0  0  0  0
 16 25  1  0  0  0  0
 16 28  2  0  0  0  0
 17 30  2  0  0  0  0
 17 31  1  0  0  0  0
 18 32  1  0  0  0  0
 19 32  1  0  0  0  0
 19 33  2  0  0  0  0
 19 34  1  0  0  0  0
 20 55  1  0  0  0  0
 21 23  2  0  0  0  0
 21 39  1  0  0  0  0
 22 25  2  0  0  0  0
 22 40  1  0  0  0  0
 23 56  1  0  0  0  0
 24 26  2  0  0  0  0
 24 54  1  0  0  0  0
 25 41  1  0  0  0  0
 26 68  1  0  0  0  0
 27 87  1  0  0  0  0
 28 88  1  0  0  0  0
 29 31  2  0  0  0  0
 29 87  1  0  0  0  0
 30 89  1  0  0  0  0
 31 90  1  0  0  0  0
 32 72  2  0  0  0  0
 33 73  1  0  0  0  0
 33 77  1  0  0  0  0
 34 78  1  0  0  0  0
 34 82  2  0  0  0  0
 35 57  1  0  0  0  0
 35 79  1  0  0  0  0
 35 83  2  0  0  0  0
 36 69  1  0  0  0  0
 36 74  1  0  0  0  0
 36 84  2  0  0  0  0
 37 70  1  0  0  0  0
 37 80  1  0  0  0  0
 37 85  2  0  0  0  0
 38 75  1  0  0  0  0
 38 76  1  0  0  0  0
 38 86  2  0  0  0  0
 39 42  1  0  0  0  0
 40 57  1  0  0  0  0
 41 74  1  0  0  0  0
 42 48  1  0  0  0  0
 43 47  1  0  0  0  0
 43 52  1  0  0  0  0
 44 49  1  0  0  0  0
 44 51  1  0  0  0  0
 45 46  1  0  0  0  0
 45 54  1  0  0  0  0
 46 54  1  0  0  0  0
 47 55  1  0  0  0  0
 48 56  1  0  0  0  0
 49 60  1  0  0  0  0
 50 58  1  0  0  0  0
 50 59  1  0  0  0  0
 51 75  1  0  0  0  0
 52 76  1  0  0  0  0
 53 60  1  0  0  0  0
 53 75  1  0  0  0  0
 55 76  1  0  0  0  0
 56 79  1  0  0  0  0
 57 74  1  0  0  0  0
 58 59  1  0  0  0  0
 58 67  1  0  0  0  0
 59 68  1  0  0  0  0
 60 73  1  0  0  0  0
 61 68  1  0  0  0  0
 62 70  1  0  0  0  0
 63 71  1  0  0  0  0
 64 71  1  0  0  0  0
 65 71  1  0  0  0  0
 66 81  1  0  0  0  0
 67 88  1  0  0  0  0
 69 71  1  0  0  0  0
 69 80  1  0  0  0  0
 70 81  1  0  0  0  0
 72 73  1  0  0  0  0
M  CHG  1  81   1
M  ISO  4  38 100  67 101  76 100  88 101
M  END
> <Batch ID>
0166

> <Smiles>
CNC(C)C(=O)NC(C(=O)N1Cc2cc([101O:1][101CH2:1]C3CC3C(C)c3ccc(C4CCC[100N:0]4[100C:0](=O)N4CCCC(n5nc(-c6ccc(Oc7ccc(F)cc7F)cc6)c(C(N)=O)c5N)C4)cc3C3CC3)ccc2CC1C(=O)NC1CCCc2ccccc21)C(C)(C)C

> <Shape>
0.317

> <Color>
0.084

> <Negative vol penalty>
0.000

$$$$

  -OEChem-04052322243D

 92103  0     1  0  0  0  0  0999 V2000
  -18.9379  -24.5126   23.1114 C   0  0  0  0  0  0  0  0  0  0  0  0
  -19.9774  -24.6148   22.1926 C   0  0  0  0  0  0  0  0  0  0  0  0
  -26.3283  -14.0256   20.6680 C   0  0  0  0  0  0  0  0  0  0  0  0
  -23.9145  -14.0741   20.5773 C   0  0  0  0  0  0  0  0  0  0  0  0
  -18.3213  -25.6655   23.5957 C   0  0  0  0  0  0  0  0  0  0  0  0
  -20.4004  -25.8700   21.7567 C   0  0  0  0  0  0  0  0  0  0  0  0
  -26.1193  -27.5404   20.3390 C   0  0  0  0  0  0  0  0  0  0  0  0
  -26.2810  -12.7593   21.2510 C   0  0  0  0  0  0  0  0  0  0  0  0
  -23.8672  -12.8078   21.1603 C   0  0  0  0  0  0  0  0  0  0  0  0
  -26.7883  -27.6553   19.1212 C   0  0  0  0  0  0  0  0  0  0  0  0
  -23.1196   -9.4354   22.2942 C   0  0  0  0  0  0  0  0  0  0  0  0
  -22.2469   -8.4982   21.7412 C   0  0  0  0  0  0  0  0  0  0  0  0
  -29.2808  -19.8479   18.5007 C   0  0  0  0  0  0  0  0  0  0  0  0
  -26.2813  -30.0132   19.0720 C   0  0  0  0  0  0  0  0  0  0  0  0
  -23.4107   -8.6602   19.6301 C   0  0  0  0  0  0  0  0  0  0  0  0
  -29.9308  -17.9171   19.7279 C   0  0  0  0  0  0  0  0  0  0  0  0
  -25.1451  -14.6830   20.3312 C   0  0  0  0  0  0  0  0  0  0  0  0
  -25.2508  -16.2936   18.3557 C   0  0  0  0  0  0  0  0  0  0  0  0
  -18.7434  -26.9359   23.1729 C   0  0  0  0  0  0  0  0  0  0  0  0
  -25.5158  -28.6608   20.9280 C   0  0  0  0  0  0  0  0  0  0  0  0
  -19.7880  -27.0409   22.2348 C   0  0  0  0  0  0  0  0  0  0  0  0
  -29.6643  -18.5115   18.5050 C   0  0  0  0  0  0  0  0  0  0  0  0
  -25.6074  -29.9104   20.2986 C   0  0  0  0  0  0  0  0  0  0  0  0
  -29.1769  -20.5395   19.7025 C   0  0  0  0  0  0  0  0  0  0  0  0
  -25.0504  -12.1504   21.4972 C   0  0  0  0  0  0  0  0  0  0  0  0
  -26.8669  -28.8913   18.4861 C   0  0  0  0  0  0  0  0  0  0  0  0
  -24.1378   -9.9850   21.5151 C   0  0  0  0  0  0  0  0  0  0  0  0
  -22.3925   -8.1106   20.4092 C   0  0  0  0  0  0  0  0  0  0  0  0
  -24.2834   -9.5974   20.1832 C   0  0  0  0  0  0  0  0  0  0  0  0
  -25.1934  -15.9913   19.7294 C   0  0  0  0  0  0  0  0  0  0  0  0
  -29.4650  -19.8543   20.8718 C   0  0  0  0  0  0  0  0  0  0  0  0
  -25.2795  -17.6659   18.3069 C   0  0  0  0  0  0  0  0  0  0  0  0
  -25.2760  -15.4126   17.2248 C   0  0  0  0  0  0  0  0  0  0  0  0
  -22.5393  -29.4518   21.7144 C   0  0  0  0  0  0  0  0  0  0  0  0
  -23.9897  -32.0342   23.0374 C   0  0  0  0  0  0  0  0  0  0  0  0
  -26.6826  -34.1297   23.0986 C   0  0  0  0  0  0  0  0  0  0  0  0
  -27.6331  -22.3987   20.3741 C   0  0  0  0  0  0  0  0  0  0  0  0
  -18.0149  -28.1517   23.6885 C   0  0  0  0  0  0  0  0  0  0  0  0
  -24.8209  -28.5255   22.2551 C   0  0  0  0  0  0  0  0  0  0  0  0
  -24.9940  -31.1479   20.8993 C   0  0  0  0  0  0  0  0  0  0  0  0
  -18.7721  -29.4575   23.4607 C   0  0  0  0  0  0  0  0  0  0  0  0
  -24.4965  -21.1409   21.8815 C   0  0  0  0  0  0  0  0  0  0  0  0
  -31.0871  -17.0547   16.9151 C   0  0  0  0  0  0  0  0  0  0  0  0
  -30.6778  -18.2681   16.1402 C   0  0  0  0  0  0  0  0  0  0  0  0
  -19.3027  -29.5247   22.0322 C   0  0  0  0  0  0  0  0  0  0  0  0
  -24.4517  -19.6888   21.4096 C   0  0  0  0  0  0  0  0  0  0  0  0
  -28.4319  -23.4229   17.8037 C   0  0  0  0  0  0  0  0  0  0  0  0
  -30.1903  -23.9144   19.5432 C   0  0  0  0  0  0  0  0  0  0  0  0
  -29.6417  -28.9008   15.9596 C   0  0  0  0  0  0  0  0  0  0  0  0
  -25.9285  -21.6527   22.0044 C   0  0  0  0  0  0  0  0  0  0  0  0
  -26.6814  -20.0438   20.2764 C   0  0  0  0  0  0  0  0  0  0  0  0
  -29.0986  -24.4141   16.8589 C   0  0  0  0  0  0  0  0  0  0  0  0
  -30.8473  -24.9042   18.5900 C   0  0  0  0  0  0  0  0  0  0  0  0
  -29.7847  -17.7441   17.2370 C   0  0  0  0  0  0  0  0  0  0  0  0
  -20.2916  -28.3855   21.7568 C   0  0  1  0  0  0  0  0  0  0  0  0
  -23.8008  -29.6307   22.5108 C   0  0  1  0  0  0  0  0  0  0  0  0
  -29.3010  -27.4953   16.3717 C   0  0  2  0  0  0  0  0  0  0  0  0
  -25.2485  -19.5174   20.1058 C   0  0  1  0  0  0  0  0  0  0  0  0
  -29.4368  -22.8206   18.7863 C   0  0  0  0  0  0  0  0  0  0  0  0
  -28.9318  -28.6512   17.2626 C   0  0  2  0  0  0  0  0  0  1  0  0
  -29.3712  -20.5429   22.1949 C   0  0  0  0  0  0  0  0  0  0  0  0
  -27.5644  -36.1707   24.2622 C   0  0  0  0  0  0  0  0  0  0  0  0
  -31.0531  -25.8527   15.5932 C   0  0  0  0  0  0  0  0  0  0  0  0
  -22.0822  -33.7792   21.4168 C   0  0  0  0  0  0  0  0  0  0  0  0
  -23.5932  -35.7247   21.8638 C   0  0  0  0  0  0  0  0  0  0  0  0
  -22.4710  -34.5576   23.7614 C   0  0  0  0  0  0  0  0  0  0  0  0
  -29.0408  -32.6667   24.1271 C   0  0  0  0  0  0  0  0  0  0  0  0
  -24.3720  -33.4114   22.5514 C   0  0  1  0  0  0  0  0  0  0  0  0
  -27.5278  -34.6504   24.2470 C   0  0  2  0  0  0  0  0  0  0  0  0
  -30.3791  -26.5515   16.7785 C   0  0  2  0  0  0  0  0  0  0  0  0
  -23.1396  -34.3447   22.3858 C   0  0  0  0  0  0  0  0  0  0  0  0
  -29.8407  -18.5564   20.9157 N   0  0  0  0  0  0  0  0  0  0  0  0
  -25.1860  -17.0838   20.4979 N   0  0  0  0  0  0  0  0  0  0  0  0
  -25.2393  -18.0858   19.6039 N   0  0  0  0  0  0  0  0  0  0  0  0
  -24.3198  -30.9631   22.1950 N   0  0  0  0  0  0  0  0  0  0  0  0
  -26.6924  -21.4284   20.7761 N   0  0  0  0  0  0  0  0  0  0  0  0
  -25.3349  -18.5423   17.2816 N   0  0  0  0  0  0  0  0  0  0  0  0
  -25.2404  -14.0303   17.4537 N   0  0  0  0  0  0  0  0  0  0  0  0
  -21.5804  -28.6820   22.3447 N   0  0  0  0  0  0  0  0  0  0  0  0
  -25.3773  -33.9089   23.4842 N   0  0  0  0  0  0  0  0  0  0  0  0
  -28.7798  -21.9262   19.7077 N   0  0  0  0  0  0  0  0  0  0  0  0
  -29.8039  -25.4796   17.6631 N   0  3  0  0  0  0  0  0  0  0  0  0
  -28.9260  -34.1478   24.1307 N   0  3  0  0  0  0  0  0  0  0  0  0
  -25.3452  -15.8382   16.0468 O   0  0  0  0  0  0  0  0  0  0  0  0
  -22.4425  -29.9748   20.6104 O   0  0  0  0  0  0  0  0  0  0  0  0
  -23.4255  -31.9126   24.1276 O   0  0  0  0  0  0  0  0  0  0  0  0
  -27.1343  -33.9413   21.9711 O   0  0  0  0  0  0  0  0  0  0  0  0
  -27.4897  -23.5986   20.6395 O   0  0  0  0  0  0  0  0  0  0  0  0
  -25.0038  -10.9147   22.0658 O   0  0  0  0  0  0  0  0  0  0  0  0
  -27.5187  -29.0061   17.2971 O   0  0  0  0  0  0  0  0  0  1  0  0
  -21.5554   -7.2095   19.8787 F   0  0  0  0  0  0  0  0  0  0  0  0
  -25.2604  -10.1211   19.4301 F   0  0  0  0  0  0  0  0  0  0  0  0
  1  2  1  0  0  0  0
  1  5  2  0  0  0  0
  2  6  2  0  0  0  0
  3  8  2  0  0  0  0
  3 17  1  0  0  0  0
  4  9  1  0  0  0  0
  4 17  2  0  0  0  0
  5 19  1  0  0  0  0
  6 21  1  0  0  0  0
  7 10  2  0  0  0  0
  7 20  1  0  0  0  0
  8 25  1  0  0  0  0
  9 25  2  0  0  0  0
 10 26  1  0  0  0  0
 11 12  2  0  0  0  0
 11 27  1  0  0  0  0
 12 28  1  0  0  0  0
 13 22  2  0  0  0  0
 13 24  1  0  0  0  0
 14 23  1  0  0  0  0
 14 26  2  0  0  0  0
 15 28  2  0  0  0  0
 15 29  1  0  0  0  0
 16 22  1  0  0  0  0
 16 72  2  0  0  0  0
 17 30  1  0  0  0  0
 18 30  1  0  0  0  0
 18 32  2  0  0  0  0
 18 33  1  0  0  0  0
 19 21  2  0  0  0  0
 19 38  1  0  0  0  0
 20 23  2  0  0  0  0
 20 39  1  0  0  0  0
 21 55  1  0  0  0  0
 22 54  1  0  0  0  0
 23 40  1  0  0  0  0
 24 31  2  0  0  0  0
 24 81  1  0  0  0  0
 25 89  1  0  0  0  0
 26 90  1  0  0  0  0
 27 29  2  0  0  0  0
 27 89  1  0  0  0  0
 28 91  1  0  0  0  0
 29 92  1  0  0  0  0
 30 73  2  0  0  0  0
 31 61  1  0  0  0  0
 31 72  1  0  0  0  0
 32 74  1  0  0  0  0
 32 77  1  0  0  0  0
 33 78  1  0  0  0  0
 33 84  2  0  0  0  0
 34 56  1  0  0  0  0
 34 79  1  0  0  0  0
 34 85  2  0  0  0  0
 35 68  1  0  0  0  0
 35 75  1  0  0  0  0
 35 86  2  0  0  0  0
 36 69  1  0  0  0  0
 36 80  1  0  0  0  0
 36 87  2  0  0  0  0
 37 76  1  0  0  0  0
 37 81  1  0  0  0  0
 37 88  2  0  0  0  0
 38 41  1  0  0  0  0
 39 56  1  0  0  0  0
 40 75  1  0  0  0  0
 41 45  1  0  0  0  0
 42 46  1  0  0  0  0
 42 50  1  0  0  0  0
 43 44  1  0  0  0  0
 43 54  1  0  0  0  0
 44 54  1  0  0  0  0
 45 55  1  0  0  0  0
 46 58  1  0  0  0  0
 47 52  1  0  0  0  0
 47 59  1  0  0  0  0
 48 53  1  0  0  0  0
 48 59  1  0  0  0  0
 49 57  1  0  0  0  0
 49 60  1  0  0  0  0
 50 76  1  0  0  0  0
 51 58  1  0  0  0  0
 51 76  1  0  0  0  0
 52 82  1  0  0  0  0
 53 82  1  0  0  0  0
 55 79  1  0  0  0  0
 56 75  1  0  0  0  0
 57 60  1  0  0  0  0
 57 70  1  0  0  0  0
 58 74  1  0  0  0  0
 59 81  1  0  0  0  0
 60 90  1  0  0  0  0
 62 69  1  0  0  0  0
 63 70  1  0  0  0  0
 64 71  1  0  0  0  0
 65 71  1  0  0  0  0
 66 71  1  0  0  0  0
 67 83  1  0  0  0  0
 68 71  1  0  0  0  0
 68 80  1  0  0  0  0
 69 83  1  0  0  0  0
 70 82  1  0  0  0  0
 73 74  1  0  0  0  0
M  CHG  2  82   1  83   1
M  ISO  4  37 100  60 101  81 100  90 101
M  END
> <Batch ID>
0166

> <Smiles>
CNC(C)C(=O)NC(C(=O)N1Cc2cc([101O:1][101CH:1]3CC3C(C)N3CCC([100N:0](c4cc(C5CC5)cnc4C)[100C:0](=O)N4CCCC(n5nc(-c6ccc(Oc7ccc(F)cc7F)cc6)c(C(N)=O)c5N)C4)CC3)ccc2CC1C(=O)NC1CCCc2ccccc21)C(C)(C)C

> <Shape>
0.309

> <Color>
0.115

> <Negative vol penalty>
0.000

$$$$

  -OEChem-04052322243D

 89 99  0     1  0  0  0  0  0999 V2000
  -29.3644  -23.0088   17.9376 C   0  0  0  0  0  0  0  0  0  0  0  0
  -28.1536  -23.1862   18.5993 C   0  0  0  0  0  0  0  0  0  0  0  0
  -27.9132  -14.9538   21.4602 C   0  0  0  0  0  0  0  0  0  0  0  0
  -26.0819  -15.5887   20.0180 C   0  0  0  0  0  0  0  0  0  0  0  0
  -30.4851  -23.7401   18.3291 C   0  0  0  0  0  0  0  0  0  0  0  0
  -28.0631  -24.0943   19.6537 C   0  0  0  0  0  0  0  0  0  0  0  0
  -23.9129  -26.9832   19.3786 C   0  0  0  0  0  0  0  0  0  0  0  0
  -27.5273  -13.6170   21.3619 C   0  0  0  0  0  0  0  0  0  0  0  0
  -25.6959  -14.2519   19.9196 C   0  0  0  0  0  0  0  0  0  0  0  0
  -22.7085  -26.4074   19.7806 C   0  0  0  0  0  0  0  0  0  0  0  0
  -24.0216  -11.9972   21.8021 C   0  0  0  0  0  0  0  0  0  0  0  0
  -22.6646  -11.7030   21.9347 C   0  0  0  0  0  0  0  0  0  0  0  0
  -20.6243  -20.7832   21.1239 C   0  0  0  0  0  0  0  0  0  0  0  0
  -18.3220  -20.9956   20.4229 C   0  0  0  0  0  0  0  0  0  0  0  0
  -22.8938  -27.5223   21.9118 C   0  0  0  0  0  0  0  0  0  0  0  0
  -22.6533  -10.7536   19.7130 C   0  0  0  0  0  0  0  0  0  0  0  0
  -27.1905  -15.9397   20.7883 C   0  0  0  0  0  0  0  0  0  0  0  0
  -28.4861  -18.0106   20.0534 C   0  0  0  0  0  0  0  0  0  0  0  0
  -30.4059  -24.6646   19.3825 C   0  0  0  0  0  0  0  0  0  0  0  0
  -24.6235  -27.8256   20.2457 C   0  0  0  0  0  0  0  0  0  0  0  0
  -29.1841  -24.8376   20.0605 C   0  0  0  0  0  0  0  0  0  0  0  0
  -19.3860  -21.4182   21.2197 C   0  0  0  0  0  0  0  0  0  0  0  0
  -20.7985  -19.7257   20.2312 C   0  0  0  0  0  0  0  0  0  0  0  0
  -24.1057  -28.1096   21.5175 C   0  0  0  0  0  0  0  0  0  0  0  0
  -18.4962  -19.9380   19.5302 C   0  0  0  0  0  0  0  0  0  0  0  0
  -19.7345  -19.3031   19.4344 C   0  0  0  0  0  0  0  0  0  0  0  0
  -26.4186  -13.2661   20.5915 C   0  0  0  0  0  0  0  0  0  0  0  0
  -22.2002  -26.6746   21.0484 C   0  0  0  0  0  0  0  0  0  0  0  0
  -24.6945  -11.6697   20.6249 C   0  0  0  0  0  0  0  0  0  0  0  0
  -21.9805  -11.0812   20.8902 C   0  0  0  0  0  0  0  0  0  0  0  0
  -24.0103  -11.0479   19.5804 C   0  0  0  0  0  0  0  0  0  0  0  0
  -27.5883  -17.3208   20.8900 C   0  0  0  0  0  0  0  0  0  0  0  0
  -28.5231  -19.2845   20.5658 C   0  0  0  0  0  0  0  0  0  0  0  0
  -29.2208  -17.5419   18.9149 C   0  0  0  0  0  0  0  0  0  0  0  0
  -27.4940  -27.7361   21.6080 C   0  0  0  0  0  0  0  0  0  0  0  0
  -26.6859  -30.7168   22.6006 C   0  0  0  0  0  0  0  0  0  0  0  0
  -24.2177  -32.9621   23.3170 C   0  0  0  0  0  0  0  0  0  0  0  0
  -24.1288  -20.4428   21.0593 C   0  0  0  0  0  0  0  0  0  0  0  0
  -31.6559  -25.3975   19.8007 C   0  0  0  0  0  0  0  0  0  0  0  0
  -25.9078  -28.4602   19.7871 C   0  0  0  0  0  0  0  0  0  0  0  0
  -24.8197  -29.0233   22.4785 C   0  0  0  0  0  0  0  0  0  0  0  0
  -31.3830  -26.6131   20.6828 C   0  0  0  0  0  0  0  0  0  0  0  0
  -25.5885  -19.6294   24.2709 C   0  0  0  0  0  0  0  0  0  0  0  0
  -30.3879  -26.2609   21.7840 C   0  0  0  0  0  0  0  0  0  0  0  0
  -27.0281  -20.1094   24.0367 C   0  0  0  0  0  0  0  0  0  0  0  0
  -22.3656  -17.5882   20.6837 C   0  0  0  0  0  0  0  0  0  0  0  0
  -20.4669  -23.3843   22.3499 C   0  0  0  0  0  0  0  0  0  0  0  0
  -24.5707  -20.5252   23.5777 C   0  0  0  0  0  0  0  0  0  0  0  0
  -23.1565  -18.1511   21.8651 C   0  0  0  0  0  0  0  0  0  0  0  0
  -26.2355  -21.3451   21.9827 C   0  0  0  0  0  0  0  0  0  0  0  0
  -18.2021  -23.5873   21.6583 C   0  0  0  0  0  0  0  0  0  0  0  0
  -19.1999  -22.5492   22.1739 C   0  0  1  0  0  0  0  0  0  0  0  0
  -22.2155  -19.0196   20.1403 C   0  0  2  0  0  0  0  0  0  0  0  0
  -29.0399  -25.8313   21.1927 C   0  0  1  0  0  0  0  0  0  0  0  0
  -26.8057  -28.8937   20.9418 C   0  0  1  0  0  0  0  0  0  0  0  0
  -27.3544  -20.4506   22.5622 C   0  0  2  0  0  0  0  0  0  0  0  0
  -19.9462  -24.6532   23.0104 C   0  0  1  0  0  0  0  0  0  0  0  0
  -17.3409  -19.5045   18.6885 C   0  0  0  0  0  0  0  0  0  0  0  0
  -19.9240  -18.1689   18.4785 C   0  0  0  0  0  0  0  0  0  0  0  0
  -23.8654  -35.3052   24.1434 C   0  0  0  0  0  0  0  0  0  0  0  0
  -27.3237  -29.8077   25.4425 C   0  0  0  0  0  0  0  0  0  0  0  0
  -26.0767  -31.8074   26.2876 C   0  0  0  0  0  0  0  0  0  0  0  0
  -28.1150  -32.1130   24.8824 C   0  0  0  0  0  0  0  0  0  0  0  0
  -17.5654  -25.4772   23.2085 C   0  0  0  0  0  0  0  0  0  0  0  0
  -22.8659  -33.7668   20.8102 C   0  0  0  0  0  0  0  0  0  0  0  0
  -20.8613  -25.8510   22.8330 C   0  0  0  0  0  0  0  0  0  1  0  0
  -25.9809  -31.2872   23.8074 C   0  0  1  0  0  0  0  0  0  0  0  0
  -24.0326  -34.4159   22.9212 C   0  0  2  0  0  0  0  0  0  0  0  0
  -26.8614  -31.2350   25.0878 C   0  0  0  0  0  0  0  0  0  0  0  0
  -27.0910  -18.0923   21.8603 N   0  0  0  0  0  0  0  0  0  0  0  0
  -27.6784  -19.2802   21.6366 N   0  0  0  0  0  0  0  0  0  0  0  0
  -26.0749  -29.6145   21.9861 N   0  0  0  0  0  0  0  0  0  0  0  0
  -24.9264  -20.7161   22.1715 N   0  0  0  0  0  0  0  0  0  0  0  0
  -23.2295  -19.4042   21.1350 N   0  0  0  0  0  0  0  0  0  0  0  0
  -29.1955  -20.3965   20.2003 N   0  0  0  0  0  0  0  0  0  0  0  0
  -29.0660  -16.2049   18.5241 N   0  0  0  0  0  0  0  0  0  0  0  0
  -28.2867  -26.9882   20.7585 N   0  0  0  0  0  0  0  0  0  0  0  0
  -25.5510  -32.6299   23.4322 N   0  0  0  0  0  0  0  0  0  0  0  0
  -18.6173  -24.8946   22.3135 N   0  3  2  0  0  0  0  0  0  0  0  0
  -22.8259  -34.5687   22.0601 N   0  3  0  0  0  0  0  0  0  0  0  0
  -30.0042  -18.2824   18.2734 O   0  0  0  0  0  0  0  0  0  0  0  0
  -27.3200  -27.5372   22.8046 O   0  0  0  0  0  0  0  0  0  0  0  0
  -27.7363  -31.2347   22.2129 O   0  0  0  0  0  0  0  0  0  0  0  0
  -23.2739  -32.1986   23.5086 O   0  0  0  0  0  0  0  0  0  0  0  0
  -24.2340  -21.0887   20.0078 O   0  0  0  0  0  0  0  0  0  0  0  0
  -26.0419  -11.9617   20.4951 O   0  0  0  0  0  0  0  0  0  0  0  0
  -21.0156  -26.1087   21.4468 O   0  0  0  0  0  0  0  0  0  1  0  0
  -20.6777  -10.7974   21.0183 F   0  0  0  0  0  0  0  0  0  0  0  0
  -24.6517  -10.7298   18.4476 F   0  0  0  0  0  0  0  0  0  0  0  0
  1  2  1  0  0  0  0
  1  5  2  0  0  0  0
  2  6  2  0  0  0  0
  3  8  2  0  0  0  0
  3 17  1  0  0  0  0
  4  9  1  0  0  0  0
  4 17  2  0  0  0  0
  5 19  1  0  0  0  0
  6 21  1  0  0  0  0
  7 10  2  0  0  0  0
  7 20  1  0  0  0  0
  8 27  1  0  0  0  0
  9 27  2  0  0  0  0
 10 28  1  0  0  0  0
 11 12  2  0  0  0  0
 11 29  1  0  0  0  0
 12 30  1  0  0  0  0
 13 22  2  0  0  0  0
 13 23  1  0  0  0  0
 14 22  1  0  0  0  0
 14 25  2  0  0  0  0
 15 24  1  0  0  0  0
 15 28  2  0  0  0  0
 16 30  2  0  0  0  0
 16 31  1  0  0  0  0
 17 32  1  0  0  0  0
 18 32  1  0  0  0  0
 18 33  2  0  0  0  0
 18 34  1  0  0  0  0
 19 21  2  0  0  0  0
 19 39  1  0  0  0  0
 20 24  2  0  0  0  0
 20 40  1  0  0  0  0
 21 54  1  0  0  0  0
 22 52  1  0  0  0  0
 23 26  2  0  0  0  0
 23 53  1  0  0  0  0
 24 41  1  0  0  0  0
 25 26  1  0  0  0  0
 25 58  1  0  0  0  0
 26 59  1  0  0  0  0
 27 86  1  0  0  0  0
 28 87  1  0  0  0  0
 29 31  2  0  0  0  0
 29 86  1  0  0  0  0
 30 88  1  0  0  0  0
 31 89  1  0  0  0  0
 32 70  2  0  0  0  0
 33 71  1  0  0  0  0
 33 75  1  0  0  0  0
 34 76  1  0  0  0  0
 34 81  2  0  0  0  0
 35 55  1  0  0  0  0
 35 77  1  0  0  0  0
 35 82  2  0  0  0  0
 36 67  1  0  0  0  0
 36 72  1  0  0  0  0
 36 83  2  0  0  0  0
 37 68  1  0  0  0  0
 37 78  1  0  0  0  0
 37 84  2  0  0  0  0
 38 73  1  0  0  0  0
 38 74  1  0  0  0  0
 38 85  2  0  0  0  0
 39 42  1  0  0  0  0
 40 55  1  0  0  0  0
 41 72  1  0  0  0  0
 42 44  1  0  0  0  0
 43 45  1  0  0  0  0
 43 48  1  0  0  0  0
 44 54  1  0  0  0  0
 45 56  1  0  0  0  0
 46 49  1  0  0  0  0
 46 53  1  0  0  0  0
 47 52  1  0  0  0  0
 47 57  1  0  0  0  0
 48 73  1  0  0  0  0
 49 74  1  0  0  0  0
 50 56  1  0  0  0  0
 50 73  1  0  0  0  0
 51 52  1  0  0  0  0
 51 79  1  0  0  0  0
 53 74  1  0  0  0  0
 54 77  1  0  0  0  0
 55 72  1  0  0  0  0
 56 71  1  0  0  0  0
 57 66  1  0  0  0  0
 57 79  1  0  0  0  0
 60 68  1  0  0  0  0
 61 69  1  0  0  0  0
 62 69  1  0  0  0  0
 63 69  1  0  0  0  0
 64 79  1  0  0  0  0
 65 80  1  0  0  0  0
 66 87  1  0  0  0  0
 67 69  1  0  0  0  0
 67 78  1  0  0  0  0
 68 80  1  0  0  0  0
 70 71  1  0  0  0  0
M  CHG  2  79   1  80   1
M  ISO  4  38 100  66 101  74 100  87 101
M  END
> <Batch ID>
0166

> <Smiles>
CNC(C)C(=O)NC(C(=O)N1Cc2cc([101O:1][101CH2:1]C3CC(c4cc(C)c(C)c(C5CC[100N:0]5[100C:0](=O)N5CCCC(n6nc(-c7ccc(Oc8ccc(F)cc8F)cc7)c(C(N)=O)c6N)C5)c4)CN3C)ccc2CC1C(=O)NC1CCCc2ccccc21)C(C)(C)C

> <Shape>
0.263

> <Color>
0.073

> <Negative vol penalty>
0.000

$$$$

  -OEChem-04052322243D

 88 98  0     1  0  0  0  0  0999 V2000
  -19.1422  -31.2460   26.7127 C   0  0  0  0  0  0  0  0  0  0  0  0
  -20.3505  -30.5619   26.6259 C   0  0  0  0  0  0  0  0  0  0  0  0
  -23.2532  -10.3471   21.4080 C   0  0  0  0  0  0  0  0  0  0  0  0
  -24.8462   -8.6553   22.0694 C   0  0  0  0  0  0  0  0  0  0  0  0
  -18.2299  -31.1834   25.6603 C   0  0  0  0  0  0  0  0  0  0  0  0
  -20.6466  -29.8139   25.4870 C   0  0  0  0  0  0  0  0  0  0  0  0
  -26.1840  -27.8085   21.4087 C   0  0  0  0  0  0  0  0  0  0  0  0
  -22.2771   -9.3643   21.2446 C   0  0  0  0  0  0  0  0  0  0  0  0
  -23.8700   -7.6724   21.9061 C   0  0  0  0  0  0  0  0  0  0  0  0
  -26.7649  -26.6615   20.8695 C   0  0  0  0  0  0  0  0  0  0  0  0
  -21.2179   -6.4869   23.6328 C   0  0  0  0  0  0  0  0  0  0  0  0
  -21.1008   -5.5198   24.6310 C   0  0  0  0  0  0  0  0  0  0  0  0
  -25.1469  -26.6903   19.0805 C   0  0  0  0  0  0  0  0  0  0  0  0
  -21.5808   -3.7912   23.0128 C   0  0  0  0  0  0  0  0  0  0  0  0
  -24.5378   -9.9927   21.8203 C   0  0  0  0  0  0  0  0  0  0  0  0
  -25.8337  -11.7350   23.1593 C   0  0  0  0  0  0  0  0  0  0  0  0
  -18.5191  -30.4421   24.5038 C   0  0  0  0  0  0  0  0  0  0  0  0
  -25.0716  -28.3998   20.7928 C   0  0  0  0  0  0  0  0  0  0  0  0
  -19.7367  -29.7402   24.4187 C   0  0  0  0  0  0  0  0  0  0  0  0
  -24.5553  -27.8463   19.6124 C   0  0  0  0  0  0  0  0  0  0  0  0
  -28.2973  -20.9047   16.8514 C   0  0  0  0  0  0  0  0  0  0  0  0
  -28.2463  -21.9987   15.9795 C   0  0  0  0  0  0  0  0  0  0  0  0
  -27.6885  -20.9527   18.0942 C   0  0  0  0  0  0  0  0  0  0  0  0
  -27.5851  -23.1629   16.3321 C   0  0  0  0  0  0  0  0  0  0  0  0
  -27.0086  -22.1185   18.4532 C   0  0  0  0  0  0  0  0  0  0  0  0
  -26.9570  -23.2155   17.5785 C   0  0  0  0  0  0  0  0  0  0  0  0
  -22.5855   -8.0269   21.4937 C   0  0  0  0  0  0  0  0  0  0  0  0
  -26.2446  -26.1006   19.7069 C   0  0  0  0  0  0  0  0  0  0  0  0
  -21.5164   -6.1062   22.3244 C   0  0  0  0  0  0  0  0  0  0  0  0
  -21.2822   -4.1720   24.3211 C   0  0  0  0  0  0  0  0  0  0  0  0
  -21.6979   -4.7583   22.0145 C   0  0  0  0  0  0  0  0  0  0  0  0
  -25.5467  -11.0075   21.9887 C   0  0  0  0  0  0  0  0  0  0  0  0
  -26.8667  -12.5667   22.8020 C   0  0  0  0  0  0  0  0  0  0  0  0
  -25.2213  -11.6651   24.4538 C   0  0  0  0  0  0  0  0  0  0  0  0
  -22.0648  -28.9627   21.6567 C   0  0  0  0  0  0  0  0  0  0  0  0
  -21.9565  -30.5394   18.8239 C   0  0  0  0  0  0  0  0  0  0  0  0
  -23.2284  -30.9442   15.6831 C   0  0  0  0  0  0  0  0  0  0  0  0
  -29.3688  -16.0022   19.3441 C   0  0  0  0  0  0  0  0  0  0  0  0
  -17.4814  -30.3658   23.4121 C   0  0  0  0  0  0  0  0  0  0  0  0
  -24.4730  -29.6522   21.3721 C   0  0  0  0  0  0  0  0  0  0  0  0
  -29.1072  -19.7925   16.2640 C   0  0  0  0  0  0  0  0  0  0  0  0
  -29.0186  -21.7199   14.7289 C   0  0  0  0  0  0  0  0  0  0  0  0
  -23.3750  -28.4543   18.9015 C   0  0  0  0  0  0  0  0  0  0  0  0
  -18.0321  -29.8556   22.0829 C   0  0  0  0  0  0  0  0  0  0  0  0
  -29.1233  -20.1882   14.7797 C   0  0  0  0  0  0  0  0  0  0  0  0
  -29.7733  -12.6358   18.6719 C   0  0  0  0  0  0  0  0  0  0  0  0
  -18.8954  -28.6173   22.3028 C   0  0  0  0  0  0  0  0  0  0  0  0
  -28.7368  -11.9591   19.5686 C   0  0  0  0  0  0  0  0  0  0  0  0
  -27.0896  -18.5157   18.4467 C   0  0  0  0  0  0  0  0  0  0  0  0
  -29.2161  -19.4532   19.4510 C   0  0  0  0  0  0  0  0  0  0  0  0
  -29.2059  -13.9026   18.0419 C   0  0  0  0  0  0  0  0  0  0  0  0
  -27.2009  -17.3134   19.3885 C   0  0  0  0  0  0  0  0  0  0  0  0
  -29.2629  -18.2464   20.3838 C   0  0  0  0  0  0  0  0  0  0  0  0
  -27.6548  -14.2311   19.9404 C   0  0  0  0  0  0  0  0  0  0  0  0
  -27.7670  -19.7660   19.0361 C   0  0  0  0  0  0  0  0  0  0  0  0
  -20.1048  -28.9383   23.1892 C   0  0  1  0  0  0  0  0  0  0  0  0
  -23.0250  -29.8746   20.9467 C   0  0  1  0  0  0  0  0  0  0  0  0
  -28.1792  -12.9449   20.6106 C   0  0  1  0  0  0  0  0  0  0  0  0
  -27.5540  -24.3275   15.4011 C   0  0  0  0  0  0  0  0  0  0  0  0
  -26.3334  -22.2003   19.7873 C   0  0  0  0  0  0  0  0  0  0  0  0
  -22.9084  -32.2846   13.5859 C   0  0  0  0  0  0  0  0  0  0  0  0
  -19.5145  -28.8507   18.1202 C   0  0  0  0  0  0  0  0  0  0  0  0
  -19.8216  -29.5283   15.7296 C   0  0  0  0  0  0  0  0  0  0  0  0
  -19.3431  -31.2575   17.4627 C   0  0  0  0  0  0  0  0  0  0  0  0
  -25.9476  -32.0979   15.8672 C   0  0  0  0  0  0  0  0  0  0  0  0
  -26.2281  -24.4576   17.9875 C   0  0  0  0  0  0  0  0  0  1  0  0
  -21.6202  -30.1606   17.4018 C   0  0  1  0  0  0  0  0  0  0  0  0
  -23.6400  -32.1876   14.9156 C   0  0  2  0  0  0  0  0  0  0  0  0
  -20.0959  -29.9365   17.1928 C   0  0  0  0  0  0  0  0  0  0  0  0
  -26.3337  -11.3473   20.9644 N   0  0  0  0  0  0  0  0  0  0  0  0
  -27.1253  -12.2976   21.4902 N   0  0  0  0  0  0  0  0  0  0  0  0
  -22.8208  -29.6748   19.5105 N   0  0  0  0  0  0  0  0  0  0  0  0
  -28.6836  -14.8106   19.0629 N   0  0  0  0  0  0  0  0  0  0  0  0
  -28.5990  -17.0902   19.7824 N   0  0  0  0  0  0  0  0  0  0  0  0
  -27.5698  -13.4948   23.4852 N   0  0  0  0  0  0  0  0  0  0  0  0
  -24.1730  -10.7554   24.6488 N   0  0  0  0  0  0  0  0  0  0  0  0
  -21.1246  -29.6233   22.4242 N   0  0  0  0  0  0  0  0  0  0  0  0
  -22.1925  -31.2023   16.5558 N   0  0  0  0  0  0  0  0  0  0  0  0
  -25.1055  -32.1681   14.6454 N   0  3  0  0  0  0  0  0  0  0  0  0
  -25.5817  -12.3995   25.4047 O   0  0  0  0  0  0  0  0  0  0  0  0
  -22.1684  -27.7496   21.5175 O   0  0  0  0  0  0  0  0  0  0  0  0
  -21.4758  -31.5683   19.3055 O   0  0  0  0  0  0  0  0  0  0  0  0
  -23.7691  -29.8524   15.5217 O   0  0  0  0  0  0  0  0  0  0  0  0
  -30.5961  -16.0896   19.2123 O   0  0  0  0  0  0  0  0  0  0  0  0
  -21.6331   -7.0676   21.3346 O   0  0  0  0  0  0  0  0  0  0  0  0
  -26.8135  -24.9722   19.1749 O   0  0  0  0  0  0  0  0  0  1  0  0
  -21.1713   -3.2435   25.2802 F   0  0  0  0  0  0  0  0  0  0  0  0
  -21.9860   -4.3866   20.7597 F   0  0  0  0  0  0  0  0  0  0  0  0
  1  2  1  0  0  0  0
  1  5  2  0  0  0  0
  2  6  2  0  0  0  0
  3  8  2  0  0  0  0
  3 15  1  0  0  0  0
  4  9  1  0  0  0  0
  4 15  2  0  0  0  0
  5 17  1  0  0  0  0
  6 19  1  0  0  0  0
  7 10  2  0  0  0  0
  7 18  1  0  0  0  0
  8 27  1  0  0  0  0
  9 27  2  0  0  0  0
 10 28  1  0  0  0  0
 11 12  2  0  0  0  0
 11 29  1  0  0  0  0
 12 30  1  0  0  0  0
 13 20  1  0  0  0  0
 13 28  2  0  0  0  0
 14 30  2  0  0  0  0
 14 31  1  0  0  0  0
 15 32  1  0  0  0  0
 16 32  1  0  0  0  0
 16 33  2  0  0  0  0
 16 34  1  0  0  0  0
 17 19  2  0  0  0  0
 17 39  1  0  0  0  0
 18 20  2  0  0  0  0
 18 40  1  0  0  0  0
 19 56  1  0  0  0  0
 20 43  1  0  0  0  0
 21 22  1  0  0  0  0
 21 23  2  0  0  0  0
 21 41  1  0  0  0  0
 22 24  2  0  0  0  0
 22 42  1  0  0  0  0
 23 25  1  0  0  0  0
 23 55  1  0  0  0  0
 24 26  1  0  0  0  0
 24 59  1  0  0  0  0
 25 26  2  0  0  0  0
 25 60  1  0  0  0  0
 26 66  1  0  0  0  0
 27 85  1  0  0  0  0
 28 86  1  0  0  0  0
 29 31  2  0  0  0  0
 29 85  1  0  0  0  0
 30 87  1  0  0  0  0
 31 88  1  0  0  0  0
 32 70  2  0  0  0  0
 33 71  1  0  0  0  0
 33 75  1  0  0  0  0
 34 76  1  0  0  0  0
 34 80  2  0  0  0  0
 35 57  1  0  0  0  0
 35 77  1  0  0  0  0
 35 81  2  0  0  0  0
 36 67  1  0  0  0  0
 36 72  1  0  0  0  0
 36 82  2  0  0  0  0
 37 68  1  0  0  0  0
 37 78  1  0  0  0  0
 37 83  2  0  0  0  0
 38 73  1  0  0  0  0
 38 74  1  0  0  0  0
 38 84  2  0  0  0  0
 39 44  1  0  0  0  0
 40 57  1  0  0  0  0
 41 45  1  0  0  0  0
 42 45  1  0  0  0  0
 43 72  1  0  0  0  0
 44 47  1  0  0  0  0
 46 48  1  0  0  0  0
 46 51  1  0  0  0  0
 47 56  1  0  0  0  0
 48 58  1  0  0  0  0
 49 52  1  0  0  0  0
 49 55  1  0  0  0  0
 50 53  1  0  0  0  0
 50 55  1  0  0  0  0
 51 73  1  0  0  0  0
 52 74  1  0  0  0  0
 53 74  1  0  0  0  0
 54 58  1  0  0  0  0
 54 73  1  0  0  0  0
 56 77  1  0  0  0  0
 57 72  1  0  0  0  0
 58 71  1  0  0  0  0
 61 68  1  0  0  0  0
 62 69  1  0  0  0  0
 63 69  1  0  0  0  0
 64 69  1  0  0  0  0
 65 79  1  0  0  0  0
 66 86  1  0  0  0  0
 67 69  1  0  0  0  0
 67 78  1  0  0  0  0
 68 79  1  0  0  0  0
 70 71  1  0  0  0  0
M  CHG  1  79   1
M  ISO  4  38 100  66 101  74 100  86 101
M  END
> <Batch ID>
0166

> <Smiles>
CNC(C)C(=O)NC(C(=O)N1Cc2cc([101O:1][101CH2:1]c3c(C)c4c(c(C5CC[100N:0]([100C:0](=O)N6CCCC(n7nc(-c8ccc(Oc9ccc(F)cc9F)cc8)c(C(N)=O)c7N)C6)CC5)c3C)CCC4)ccc2CC1C(=O)NC1CCCc2ccccc21)C(C)(C)C

> <Shape>
0.253

> <Color>
0.108

> <Negative vol penalty>
0.000

$$$$

  -OEChem-04052322243D

 87 97  0     1  0  0  0  0  0999 V2000
  -15.1635  -29.4744   14.8492 C   0  0  0  0  0  0  0  0  0  0  0  0
  -16.0125  -28.3764   14.7542 C   0  0  0  0  0  0  0  0  0  0  0  0
  -23.1948   -9.8152   19.9280 C   0  0  0  0  0  0  0  0  0  0  0  0
  -23.5381  -10.0055   22.3119 C   0  0  0  0  0  0  0  0  0  0  0  0
  -15.2237  -30.3060   15.9667 C   0  0  0  0  0  0  0  0  0  0  0  0
  -16.9230  -28.1100   15.7761 C   0  0  0  0  0  0  0  0  0  0  0  0
  -18.7576  -22.6031   17.7291 C   0  0  0  0  0  0  0  0  0  0  0  0
  -22.4223   -8.6716   20.1305 C   0  0  0  0  0  0  0  0  0  0  0  0
  -22.7655   -8.8620   22.5144 C   0  0  0  0  0  0  0  0  0  0  0  0
  -19.8931  -21.8415   17.4563 C   0  0  0  0  0  0  0  0  0  0  0  0
  -21.1826   -5.7877   23.6340 C   0  0  0  0  0  0  0  0  0  0  0  0
  -21.6631   -4.8306   24.5277 C   0  0  0  0  0  0  0  0  0  0  0  0
  -24.9435  -17.9720   17.6678 C   0  0  0  0  0  0  0  0  0  0  0  0
  -20.9397  -22.6972   19.4542 C   0  0  0  0  0  0  0  0  0  0  0  0
  -23.6415   -4.5548   23.1687 C   0  0  0  0  0  0  0  0  0  0  0  0
  -23.7528  -10.4821   21.0187 C   0  0  0  0  0  0  0  0  0  0  0  0
  -24.1022  -12.9967   20.7685 C   0  0  0  0  0  0  0  0  0  0  0  0
  -16.1287  -30.0441   17.0074 C   0  0  0  0  0  0  0  0  0  0  0  0
  -18.7088  -23.4272   18.8626 C   0  0  0  0  0  0  0  0  0  0  0  0
  -16.9963  -28.9396   16.9080 C   0  0  0  0  0  0  0  0  0  0  0  0
  -25.7808  -18.1484   16.5641 C   0  0  0  0  0  0  0  0  0  0  0  0
  -19.8014  -23.4663   19.7405 C   0  0  0  0  0  0  0  0  0  0  0  0
  -25.3809  -19.0270   15.5712 C   0  0  0  0  0  0  0  0  0  0  0  0
  -24.1759  -19.7321   15.6731 C   0  0  0  0  0  0  0  0  0  0  0  0
  -23.7347  -18.6789   17.7697 C   0  0  0  0  0  0  0  0  0  0  0  0
  -23.3457  -19.5727   16.7696 C   0  0  0  0  0  0  0  0  0  0  0  0
  -22.2076   -8.1950   21.4237 C   0  0  0  0  0  0  0  0  0  0  0  0
  -20.9855  -21.8907   18.3173 C   0  0  0  0  0  0  0  0  0  0  0  0
  -21.9316   -6.1283   22.5076 C   0  0  0  0  0  0  0  0  0  0  0  0
  -22.8925   -4.2142   24.2951 C   0  0  0  0  0  0  0  0  0  0  0  0
  -23.1610   -5.5119   22.2750 C   0  0  0  0  0  0  0  0  0  0  0  0
  -24.5514  -11.6632   20.8101 C   0  0  0  0  0  0  0  0  0  0  0  0
  -25.2389  -13.7351   20.5467 C   0  0  0  0  0  0  0  0  0  0  0  0
  -22.7760  -13.5210   20.9171 C   0  0  0  0  0  0  0  0  0  0  0  0
  -18.4060  -26.5534   19.3517 C   0  0  0  0  0  0  0  0  0  0  0  0
  -18.2493  -25.6563   22.4650 C   0  0  0  0  0  0  0  0  0  0  0  0
  -19.0005  -23.3370   24.8532 C   0  0  0  0  0  0  0  0  0  0  0  0
  -30.0199  -14.6623   18.0576 C   0  0  0  0  0  0  0  0  0  0  0  0
  -16.1898  -30.9984   18.1736 C   0  0  0  0  0  0  0  0  0  0  0  0
  -17.4662  -24.2221   19.1570 C   0  0  0  0  0  0  0  0  0  0  0  0
  -26.1172  -19.4074   14.3257 C   0  0  0  0  0  0  0  0  0  0  0  0
  -23.9954  -20.6503   14.5059 C   0  0  0  0  0  0  0  0  0  0  0  0
  -19.7913  -24.3195   20.9817 C   0  0  0  0  0  0  0  0  0  0  0  0
  -16.9238  -30.4320   19.3864 C   0  0  0  0  0  0  0  0  0  0  0  0
  -24.9934  -20.0540   13.5018 C   0  0  0  0  0  0  0  0  0  0  0  0
  -30.1151  -12.4245   20.6910 C   0  0  0  0  0  0  0  0  0  0  0  0
  -18.2343  -29.7781   18.9598 C   0  0  0  0  0  0  0  0  0  0  0  0
  -28.6411  -12.1262   20.9655 C   0  0  0  0  0  0  0  0  0  0  0  0
  -28.0539  -17.7663   17.6157 C   0  0  0  0  0  0  0  0  0  0  0  0
  -26.8790  -15.8700   16.4223 C   0  0  0  0  0  0  0  0  0  0  0  0
  -30.3892  -12.4919   19.1928 C   0  0  0  0  0  0  0  0  0  0  0  0
  -29.3605  -16.9812   17.5282 C   0  0  0  0  0  0  0  0  0  0  0  0
  -28.2114  -15.1289   16.3601 C   0  0  0  0  0  0  0  0  0  0  0  0
  -28.0646  -13.1987   18.7336 C   0  0  0  0  0  0  0  0  0  0  0  0
  -27.0935  -17.3930   16.4733 C   0  0  0  0  0  0  0  0  0  0  0  0
  -17.9803  -28.6034   18.0074 C   0  0  1  0  0  0  0  0  0  0  0  0
  -17.7246  -25.4202   20.0654 C   0  0  1  0  0  0  0  0  0  0  0  0
  -27.7299  -13.1297   20.2370 C   0  0  1  0  0  0  0  0  0  0  0  0
  -22.8763  -18.4605   18.9737 C   0  0  0  0  0  0  0  0  0  0  0  0
  -18.7766  -22.8999   27.3141 C   0  0  0  0  0  0  0  0  0  0  0  0
  -20.5022  -27.6379   23.0195 C   0  0  0  0  0  0  0  0  0  0  0  0
  -20.8719  -26.4960   25.2166 C   0  0  0  0  0  0  0  0  0  0  0  0
  -18.6904  -27.6093   24.7431 C   0  0  0  0  0  0  0  0  0  0  0  0
  -17.3910  -20.8967   24.3912 C   0  0  0  0  0  0  0  0  0  0  0  0
  -22.0729  -20.3423   16.8766 C   0  0  0  0  0  0  0  0  0  1  0  0
  -19.2575  -25.4436   23.5683 C   0  0  1  0  0  0  0  0  0  0  0  0
  -18.1541  -22.7008   25.9410 C   0  0  2  0  0  0  0  0  0  0  0  0
  -19.8318  -26.7820   24.1126 C   0  0  0  0  0  0  0  0  0  0  0  0
  -25.8705  -11.5575   20.6291 N   0  0  0  0  0  0  0  0  0  0  0  0
  -26.2600  -12.8341   20.4715 N   0  0  0  0  0  0  0  0  0  0  0  0
  -18.5559  -25.0832   21.2228 N   0  0  0  0  0  0  0  0  0  0  0  0
  -29.4999  -13.4504   18.5370 N   0  0  0  0  0  0  0  0  0  0  0  0
  -29.1135  -15.5423   17.4436 N   0  0  0  0  0  0  0  0  0  0  0  0
  -25.4545  -15.0608   20.4106 N   0  0  0  0  0  0  0  0  0  0  0  0
  -21.7235  -12.6228   21.1396 N   0  0  0  0  0  0  0  0  0  0  0  0
  -17.5368  -27.4406   18.7461 N   0  0  0  0  0  0  0  0  0  0  0  0
  -18.5927  -24.6248   24.5764 N   0  0  0  0  0  0  0  0  0  0  0  0
  -18.0117  -21.2375   25.6972 N   0  3  0  0  0  0  0  0  0  0  0  0
  -22.5294  -14.7484   20.8381 O   0  0  0  0  0  0  0  0  0  0  0  0
  -19.6297  -26.6187   19.3517 O   0  0  0  0  0  0  0  0  0  0  0  0
  -17.2240  -26.3011   22.6988 O   0  0  0  0  0  0  0  0  0  0  0  0
  -19.9326  -22.7516   24.3065 O   0  0  0  0  0  0  0  0  0  0  0  0
  -31.2186  -14.9457   18.1746 O   0  0  0  0  0  0  0  0  0  0  0  0
  -21.4536   -7.0793   21.6217 O   0  0  0  0  0  0  0  0  0  0  0  0
  -22.1029  -21.1438   18.0512 O   0  0  0  0  0  0  0  0  0  1  0  0
  -23.3545   -3.2962   25.1542 F   0  0  0  0  0  0  0  0  0  0  0  0
  -23.8855   -5.8358   21.1952 F   0  0  0  0  0  0  0  0  0  0  0  0
  1  2  1  0  0  0  0
  1  5  2  0  0  0  0
  2  6  2  0  0  0  0
  3  8  2  0  0  0  0
  3 16  1  0  0  0  0
  4  9  1  0  0  0  0
  4 16  2  0  0  0  0
  5 18  1  0  0  0  0
  6 20  1  0  0  0  0
  7 10  2  0  0  0  0
  7 19  1  0  0  0  0
  8 27  1  0  0  0  0
  9 27  2  0  0  0  0
 10 28  1  0  0  0  0
 11 12  2  0  0  0  0
 11 29  1  0  0  0  0
 12 30  1  0  0  0  0
 13 21  1  0  0  0  0
 13 25  2  0  0  0  0
 14 22  1  0  0  0  0
 14 28  2  0  0  0  0
 15 30  2  0  0  0  0
 15 31  1  0  0  0  0
 16 32  1  0  0  0  0
 17 32  1  0  0  0  0
 17 33  2  0  0  0  0
 17 34  1  0  0  0  0
 18 20  2  0  0  0  0
 18 39  1  0  0  0  0
 19 22  2  0  0  0  0
 19 40  1  0  0  0  0
 20 56  1  0  0  0  0
 21 23  2  0  0  0  0
 21 55  1  0  0  0  0
 22 43  1  0  0  0  0
 23 24  1  0  0  0  0
 23 41  1  0  0  0  0
 24 26  2  0  0  0  0
 24 42  1  0  0  0  0
 25 26  1  0  0  0  0
 25 59  1  0  0  0  0
 26 65  1  0  0  0  0
 27 84  1  0  0  0  0
 28 85  1  0  0  0  0
 29 31  2  0  0  0  0
 29 84  1  0  0  0  0
 30 86  1  0  0  0  0
 31 87  1  0  0  0  0
 32 69  2  0  0  0  0
 33 70  1  0  0  0  0
 33 74  1  0  0  0  0
 34 75  1  0  0  0  0
 34 79  2  0  0  0  0
 35 57  1  0  0  0  0
 35 76  1  0  0  0  0
 35 80  2  0  0  0  0
 36 66  1  0  0  0  0
 36 71  1  0  0  0  0
 36 81  2  0  0  0  0
 37 67  1  0  0  0  0
 37 77  1  0  0  0  0
 37 82  2  0  0  0  0
 38 72  1  0  0  0  0
 38 73  1  0  0  0  0
 38 83  2  0  0  0  0
 39 44  1  0  0  0  0
 40 57  1  0  0  0  0
 41 45  1  0  0  0  0
 42 45  1  0  0  0  0
 43 71  1  0  0  0  0
 44 47  1  0  0  0  0
 46 48  1  0  0  0  0
 46 51  1  0  0  0  0
 47 56  1  0  0  0  0
 48 58  1  0  0  0  0
 49 52  1  0  0  0  0
 49 55  1  0  0  0  0
 50 53  1  0  0  0  0
 50 55  1  0  0  0  0
 51 72  1  0  0  0  0
 52 73  1  0  0  0  0
 53 73  1  0  0  0  0
 54 58  1  0  0  0  0
 54 72  1  0  0  0  0
 56 76  1  0  0  0  0
 57 71  1  0  0  0  0
 58 70  1  0  0  0  0
 60 67  1  0  0  0  0
 61 68  1  0  0  0  0
 62 68  1  0  0  0  0
 63 68  1  0  0  0  0
 64 78  1  0  0  0  0
 65 85  1  0  0  0  0
 66 68  1  0  0  0  0
 66 77  1  0  0  0  0
 67 78  1  0  0  0  0
 69 70  1  0  0  0  0
M  CHG  1  78   1
M  ISO  4  38 100  65 101  73 100  85 101
M  END
> <Batch ID>
0166

> <Smiles>
CNC(C)C(=O)NC(C(=O)N1Cc2cc([101O:1][101CH2:1]c3c(C)cc(C4CC[100N:0]([100C:0](=O)N5CCCC(n6nc(-c7ccc(Oc8ccc(F)cc8F)cc7)c(C(N)=O)c6N)C5)CC4)c4c3CCC4)ccc2CC1C(=O)NC1CCCc2ccccc21)C(C)(C)C

> <Shape>
0.175

> <Color>
0.186

> <Negative vol penalty>
0.000

$$$$

  -OEChem-04052322243D

 86 96  0     1  0  0  0  0  0999 V2000
  -16.5693  -29.8770   23.7999 C   0  0  0  0  0  0  0  0  0  0  0  0
  -17.6255  -30.0919   24.6795 C   0  0  0  0  0  0  0  0  0  0  0  0
  -24.8054  -11.7462   20.4396 C   0  0  0  0  0  0  0  0  0  0  0  0
  -25.5303  -12.6922   22.5412 C   0  0  0  0  0  0  0  0  0  0  0  0
  -16.7740  -29.1420   22.6330 C   0  0  0  0  0  0  0  0  0  0  0  0
  -18.8868  -29.5708   24.3932 C   0  0  0  0  0  0  0  0  0  0  0  0
  -25.8505  -31.0183   25.2465 C   0  0  0  0  0  0  0  0  0  0  0  0
  -25.1240  -10.4702   20.9041 C   0  0  0  0  0  0  0  0  0  0  0  0
  -25.8489  -11.4162   23.0057 C   0  0  0  0  0  0  0  0  0  0  0  0
  -27.0212  -30.4331   25.7268 C   0  0  0  0  0  0  0  0  0  0  0  0
  -25.4090   -6.9277   21.6690 C   0  0  0  0  0  0  0  0  0  0  0  0
  -24.4871   -5.9059   21.4418 C   0  0  0  0  0  0  0  0  0  0  0  0
  -28.3532  -22.8835   24.5813 C   0  0  0  0  0  0  0  0  0  0  0  0
  -27.3298  -25.3827   23.8818 C   0  0  0  0  0  0  0  0  0  0  0  0
  -27.2762  -29.2464   23.6422 C   0  0  0  0  0  0  0  0  0  0  0  0
  -22.8280   -7.1209   22.7100 C   0  0  0  0  0  0  0  0  0  0  0  0
  -25.0085  -12.8573   21.2582 C   0  0  0  0  0  0  0  0  0  0  0  0
  -23.4469  -14.8431   20.9039 C   0  0  0  0  0  0  0  0  0  0  0  0
  -18.0407  -28.6198   22.3275 C   0  0  0  0  0  0  0  0  0  0  0  0
  -25.3771  -30.7129   23.9623 C   0  0  0  0  0  0  0  0  0  0  0  0
  -19.1083  -28.8269   23.2218 C   0  0  0  0  0  0  0  0  0  0  0  0
  -27.4497  -22.9962   23.5247 C   0  0  0  0  0  0  0  0  0  0  0  0
  -28.2334  -25.2700   24.9385 C   0  0  0  0  0  0  0  0  0  0  0  0
  -26.1006  -29.8309   23.1469 C   0  0  0  0  0  0  0  0  0  0  0  0
  -26.9379  -24.2458   23.1749 C   0  0  0  0  0  0  0  0  0  0  0  0
  -28.7451  -24.0204   25.2882 C   0  0  0  0  0  0  0  0  0  0  0  0
  -25.6458  -10.3051   22.1871 C   0  0  0  0  0  0  0  0  0  0  0  0
  -27.7327  -29.5448   24.9257 C   0  0  0  0  0  0  0  0  0  0  0  0
  -25.0404   -8.0461   22.4168 C   0  0  0  0  0  0  0  0  0  0  0  0
  -23.1966   -6.0025   21.9623 C   0  0  0  0  0  0  0  0  0  0  0  0
  -23.7499   -8.1427   22.9372 C   0  0  0  0  0  0  0  0  0  0  0  0
  -24.6801  -14.1757   20.7787 C   0  0  0  0  0  0  0  0  0  0  0  0
  -23.6484  -16.0550   20.2898 C   0  0  0  0  0  0  0  0  0  0  0  0
  -22.2282  -14.4066   21.5203 C   0  0  0  0  0  0  0  0  0  0  0  0
  -22.7393  -29.3693   22.8046 C   0  0  0  0  0  0  0  0  0  0  0  0
  -24.0342  -30.2049   19.9502 C   0  0  0  0  0  0  0  0  0  0  0  0
  -26.8322  -30.9608   18.1483 C   0  0  0  0  0  0  0  0  0  0  0  0
  -27.7903  -20.0293   19.5629 C   0  0  0  0  0  0  0  0  0  0  0  0
  -18.2022  -27.7915   21.0775 C   0  0  0  0  0  0  0  0  0  0  0  0
  -24.1270  -31.3731   23.4488 C   0  0  0  0  0  0  0  0  0  0  0  0
  -25.6458  -29.4856   21.7532 C   0  0  0  0  0  0  0  0  0  0  0  0
  -19.6578  -27.5919   20.6629 C   0  0  0  0  0  0  0  0  0  0  0  0
  -26.8411  -17.8146   16.9789 C   0  0  0  0  0  0  0  0  0  0  0  0
  -20.5065  -27.1971   21.8673 C   0  0  0  0  0  0  0  0  0  0  0  0
  -26.0970  -16.6934   17.6987 C   0  0  0  0  0  0  0  0  0  0  0  0
  -27.6986  -20.4297   23.2078 C   0  0  0  0  0  0  0  0  0  0  0  0
  -30.1030  -26.8272   25.8077 C   0  0  0  0  0  0  0  0  0  0  0  0
  -28.0190  -18.3034   17.8110 C   0  0  0  0  0  0  0  0  0  0  0  0
  -27.4042  -19.4984   22.0395 C   0  0  0  0  0  0  0  0  0  0  0  0
  -27.3721  -21.7692   21.2745 C   0  0  0  0  0  0  0  0  0  0  0  0
  -26.8606  -17.6896   19.9161 C   0  0  0  0  0  0  0  0  0  0  0  0
  -27.0398  -21.7490   22.7732 C   0  0  2  0  0  0  0  0  0  0  0  0
  -28.6388  -26.4996   25.6818 C   0  0  1  0  0  0  0  0  0  0  0  0
  -20.4970  -28.2988   22.9339 C   0  0  1  0  0  0  0  0  0  0  0  0
  -23.4610  -30.5943   22.3186 C   0  0  1  0  0  0  0  0  0  0  0  0
  -25.6683  -17.1428   19.1041 C   0  0  2  0  0  0  0  0  0  0  0  0
  -29.2307  -27.6542   24.9135 C   0  0  1  0  0  0  0  0  0  1  0  0
  -25.9711  -24.3912   22.0460 C   0  0  0  0  0  0  0  0  0  0  0  0
  -29.7136  -23.8733   26.4160 C   0  0  0  0  0  0  0  0  0  0  0  0
  -27.5787  -31.5638   15.8296 C   0  0  0  0  0  0  0  0  0  0  0  0
  -23.7009  -27.2968   19.0892 C   0  0  0  0  0  0  0  0  0  0  0  0
  -25.2875  -27.7455   17.2053 C   0  0  0  0  0  0  0  0  0  0  0  0
  -23.1225  -28.9782   17.3306 C   0  0  0  0  0  0  0  0  0  0  0  0
  -27.9020  -33.5701   19.0462 C   0  0  0  0  0  0  0  0  0  0  0  0
  -24.9671  -29.5434   18.9648 C   0  0  1  0  0  0  0  0  0  0  0  0
  -27.1336  -32.0937   17.1838 C   0  0  2  0  0  0  0  0  0  0  0  0
  -24.2773  -28.3958   18.1744 C   0  0  0  0  0  0  0  0  0  0  0  0
  -25.5971  -14.9033   20.1355 N   0  0  0  0  0  0  0  0  0  0  0  0
  -24.9397  -16.0403   19.8509 N   0  0  0  0  0  0  0  0  0  0  0  0
  -24.4142  -30.1520   21.2988 N   0  0  0  0  0  0  0  0  0  0  0  0
  -27.6053  -18.7029   19.1574 N   0  0  0  0  0  0  0  0  0  0  0  0
  -27.4294  -20.3692   20.8661 N   0  0  0  0  0  0  0  0  0  0  0  0
  -22.8453  -17.1211   20.0878 N   0  0  0  0  0  0  0  0  0  0  0  0
  -22.1938  -13.1331   22.1046 N   0  0  0  0  0  0  0  0  0  0  0  0
  -21.3808  -29.3794   22.5523 N   0  0  0  0  0  0  0  0  0  0  0  0
  -25.4984  -30.6117   18.1253 N   0  0  0  0  0  0  0  0  0  0  0  0
  -28.2155  -32.9626   17.7272 N   0  3  0  0  0  0  0  0  0  0  0  0
  -21.1952  -15.1180   21.5376 O   0  0  0  0  0  0  0  0  0  0  0  0
  -23.3688  -28.4799   23.3655 O   0  0  0  0  0  0  0  0  0  0  0  0
  -23.0099  -30.7548   19.5379 O   0  0  0  0  0  0  0  0  0  0  0  0
  -27.6944  -30.4355   18.8491 O   0  0  0  0  0  0  0  0  0  0  0  0
  -28.2961  -20.8685   18.8054 O   0  0  0  0  0  0  0  0  0  0  0  0
  -25.9566   -9.0601   22.6408 O   0  0  0  0  0  0  0  0  0  0  0  0
  -28.8919  -28.9635   25.3991 O   0  0  0  0  0  0  0  0  0  1  0  0
  -22.3109   -5.0219   21.7428 F   0  0  0  0  0  0  0  0  0  0  0  0
  -23.3897   -9.2152   23.6554 F   0  0  0  0  0  0  0  0  0  0  0  0
  1  2  1  0  0  0  0
  1  5  2  0  0  0  0
  2  6  2  0  0  0  0
  3  8  2  0  0  0  0
  3 17  1  0  0  0  0
  4  9  1  0  0  0  0
  4 17  2  0  0  0  0
  5 19  1  0  0  0  0
  6 21  1  0  0  0  0
  7 10  2  0  0  0  0
  7 20  1  0  0  0  0
  8 27  1  0  0  0  0
  9 27  2  0  0  0  0
 10 28  1  0  0  0  0
 11 12  2  0  0  0  0
 11 29  1  0  0  0  0
 12 30  1  0  0  0  0
 13 22  2  0  0  0  0
 13 26  1  0  0  0  0
 14 23  1  0  0  0  0
 14 25  2  0  0  0  0
 15 24  1  0  0  0  0
 15 28  2  0  0  0  0
 16 30  2  0  0  0  0
 16 31  1  0  0  0  0
 17 32  1  0  0  0  0
 18 32  1  0  0  0  0
 18 33  2  0  0  0  0
 18 34  1  0  0  0  0
 19 21  2  0  0  0  0
 19 39  1  0  0  0  0
 20 24  2  0  0  0  0
 20 40  1  0  0  0  0
 21 54  1  0  0  0  0
 22 25  1  0  0  0  0
 22 52  1  0  0  0  0
 23 26  2  0  0  0  0
 23 53  1  0  0  0  0
 24 41  1  0  0  0  0
 25 58  1  0  0  0  0
 26 59  1  0  0  0  0
 27 83  1  0  0  0  0
 28 84  1  0  0  0  0
 29 31  2  0  0  0  0
 29 83  1  0  0  0  0
 30 85  1  0  0  0  0
 31 86  1  0  0  0  0
 32 68  2  0  0  0  0
 33 69  1  0  0  0  0
 33 73  1  0  0  0  0
 34 74  1  0  0  0  0
 34 78  2  0  0  0  0
 35 55  1  0  0  0  0
 35 75  1  0  0  0  0
 35 79  2  0  0  0  0
 36 65  1  0  0  0  0
 36 70  1  0  0  0  0
 36 80  2  0  0  0  0
 37 66  1  0  0  0  0
 37 76  1  0  0  0  0
 37 81  2  0  0  0  0
 38 71  1  0  0  0  0
 38 72  1  0  0  0  0
 38 82  2  0  0  0  0
 39 42  1  0  0  0  0
 40 55  1  0  0  0  0
 41 70  1  0  0  0  0
 42 44  1  0  0  0  0
 43 45  1  0  0  0  0
 43 48  1  0  0  0  0
 44 54  1  0  0  0  0
 45 56  1  0  0  0  0
 46 49  1  0  0  0  0
 46 52  1  0  0  0  0
 47 53  1  0  0  0  0
 47 57  1  0  0  0  0
 48 71  1  0  0  0  0
 49 72  1  0  0  0  0
 50 52  1  0  0  0  0
 50 72  1  0  0  0  0
 51 56  1  0  0  0  0
 51 71  1  0  0  0  0
 53 57  1  0  0  0  0
 54 75  1  0  0  0  0
 55 70  1  0  0  0  0
 56 69  1  0  0  0  0
 57 84  1  0  0  0  0
 60 66  1  0  0  0  0
 61 67  1  0  0  0  0
 62 67  1  0  0  0  0
 63 67  1  0  0  0  0
 64 77  1  0  0  0  0
 65 67  1  0  0  0  0
 65 76  1  0  0  0  0
 66 77  1  0  0  0  0
 68 69  1  0  0  0  0
M  CHG  1  77   1
M  ISO  4  38 100  57 101  72 100  84 101
M  END
> <Batch ID>
0166

> <Smiles>
CNC(C)C(=O)NC(C(=O)N1Cc2cc([101O:1][101CH:1]3CC3c3cc(C)c(C4CC[100N:0]([100C:0](=O)N5CCCC(n6nc(-c7ccc(Oc8ccc(F)cc8F)cc7)c(C(N)=O)c6N)C5)C4)cc3C)ccc2CC1C(=O)NC1CCCc2ccccc21)C(C)(C)C

> <Shape>
0.252

> <Color>
0.113

> <Negative vol penalty>
0.000

$$$$

  -OEChem-04052322243D

 84 93  0     1  0  0  0  0  0999 V2000
  -25.6821  -38.0007   23.5257 C   0  0  0  0  0  0  0  0  0  0  0  0
  -26.4219  -37.2094   22.6528 C   0  0  0  0  0  0  0  0  0  0  0  0
  -28.4450  -10.7863   21.7345 C   0  0  0  0  0  0  0  0  0  0  0  0
  -27.4247  -11.3398   23.8534 C   0  0  0  0  0  0  0  0  0  0  0  0
  -24.9946  -37.4118   24.5861 C   0  0  0  0  0  0  0  0  0  0  0  0
  -26.4754  -35.8287   22.8404 C   0  0  0  0  0  0  0  0  0  0  0  0
  -26.9499  -29.7072   19.1501 C   0  0  0  0  0  0  0  0  0  0  0  0
  -28.8369   -9.5493   22.2463 C   0  0  0  0  0  0  0  0  0  0  0  0
  -27.8165  -10.1028   24.3652 C   0  0  0  0  0  0  0  0  0  0  0  0
  -27.7081  -28.5385   19.0955 C   0  0  0  0  0  0  0  0  0  0  0  0
  -28.2339   -6.9445   26.1171 C   0  0  0  0  0  0  0  0  0  0  0  0
  -27.2957   -6.2189   26.8511 C   0  0  0  0  0  0  0  0  0  0  0  0
  -26.4160  -27.6225   20.9151 C   0  0  0  0  0  0  0  0  0  0  0  0
  -25.8330   -6.1657   24.9289 C   0  0  0  0  0  0  0  0  0  0  0  0
  -27.7390  -11.6816   22.5381 C   0  0  0  0  0  0  0  0  0  0  0  0
  -26.1287  -13.2639   21.3503 C   0  0  0  0  0  0  0  0  0  0  0  0
  -25.0320  -36.0221   24.7812 C   0  0  0  0  0  0  0  0  0  0  0  0
  -25.9245  -29.8469   20.0963 C   0  0  0  0  0  0  0  0  0  0  0  0
  -25.7889  -35.2208   23.9052 C   0  0  0  0  0  0  0  0  0  0  0  0
  -25.6446  -28.7930   20.9779 C   0  0  0  0  0  0  0  0  0  0  0  0
  -31.1589  -22.4621   19.1355 C   0  0  0  0  0  0  0  0  0  0  0  0
  -29.7774  -22.5343   18.8832 C   0  0  0  0  0  0  0  0  0  0  0  0
  -31.8856  -23.6420   19.3492 C   0  0  0  0  0  0  0  0  0  0  0  0
  -29.1546  -23.7890   18.8162 C   0  0  0  0  0  0  0  0  0  0  0  0
  -31.2533  -24.8833   19.2883 C   0  0  0  0  0  0  0  0  0  0  0  0
  -29.8892  -24.9569   19.0194 C   0  0  0  0  0  0  0  0  0  0  0  0
  -28.5226   -9.2075   23.5616 C   0  0  0  0  0  0  0  0  0  0  0  0
  -27.4431  -27.4970   19.9800 C   0  0  0  0  0  0  0  0  0  0  0  0
  -27.9717   -7.2807   24.7890 C   0  0  0  0  0  0  0  0  0  0  0  0
  -26.0953   -5.8295   26.2570 C   0  0  0  0  0  0  0  0  0  0  0  0
  -26.7713   -6.8913   24.1949 C   0  0  0  0  0  0  0  0  0  0  0  0
  -27.3345  -12.9598   22.0102 C   0  0  0  0  0  0  0  0  0  0  0  0
  -26.2291  -14.6005   21.0504 C   0  0  0  0  0  0  0  0  0  0  0  0
  -25.0173  -12.4142   21.0365 C   0  0  0  0  0  0  0  0  0  0  0  0
  -25.3687  -31.8183   22.5271 C   0  0  0  0  0  0  0  0  0  0  0  0
  -22.5242  -30.2626   22.6306 C   0  0  0  0  0  0  0  0  0  0  0  0
  -20.7320  -27.4501   21.9058 C   0  0  0  0  0  0  0  0  0  0  0  0
  -28.8833  -18.8992   19.2154 C   0  0  0  0  0  0  0  0  0  0  0  0
  -24.3111  -35.4362   25.9694 C   0  0  0  0  0  0  0  0  0  0  0  0
  -25.0983  -31.1035   20.1246 C   0  0  0  0  0  0  0  0  0  0  0  0
  -31.8589  -21.1310   19.2336 C   0  0  0  0  0  0  0  0  0  0  0  0
  -24.5414  -28.8851   21.9991 C   0  0  0  0  0  0  0  0  0  0  0  0
  -28.9571  -21.2936   18.6422 C   0  0  0  0  0  0  0  0  0  0  0  0
  -24.1143  -33.9252   25.8780 C   0  0  0  0  0  0  0  0  0  0  0  0
  -29.5503  -18.0870   22.5726 C   0  0  0  0  0  0  0  0  0  0  0  0
  -25.4101  -33.2429   25.4513 C   0  0  0  0  0  0  0  0  0  0  0  0
  -28.9353  -16.6919   22.6759 C   0  0  0  0  0  0  0  0  0  0  0  0
  -31.0643  -20.0055   18.5797 C   0  0  0  0  0  0  0  0  0  0  0  0
  -30.2773  -18.2962   21.2431 C   0  0  0  0  0  0  0  0  0  0  0  0
  -28.8315  -16.6090   20.1563 C   0  0  0  0  0  0  0  0  0  0  0  0
  -25.8513  -33.7168   24.0612 C   0  0  1  0  0  0  0  0  0  0  0  0
  -24.4159  -31.3397   21.4684 C   0  0  1  0  0  0  0  0  0  0  0  0
  -28.0445  -16.3906   21.4578 C   0  0  1  0  0  0  0  0  0  0  0  0
  -33.3549  -23.5880   19.6378 C   0  0  0  0  0  0  0  0  0  0  0  0
  -27.6868  -23.8925   18.5313 C   0  0  0  0  0  0  0  0  0  0  0  0
  -32.0394  -26.1374   19.5094 C   0  0  0  0  0  0  0  0  0  0  0  0
  -18.4394  -26.4587   22.1465 C   0  0  0  0  0  0  0  0  0  0  0  0
  -23.0741  -29.7133   25.5812 C   0  0  0  0  0  0  0  0  0  0  0  0
  -21.2837  -27.9644   25.5176 C   0  0  0  0  0  0  0  0  0  0  0  0
  -20.7120  -30.3493   25.0610 C   0  0  0  0  0  0  0  0  0  0  0  0
  -20.3920  -27.2321   18.9740 C   0  0  0  0  0  0  0  0  0  0  0  0
  -29.2127  -26.2897   18.9471 C   0  0  0  0  0  0  0  0  0  1  0  0
  -22.0038  -29.0316   23.3327 C   0  0  1  0  0  0  0  0  0  0  0  0
  -19.3739  -27.2611   21.2546 C   0  0  2  0  0  0  0  0  0  0  0  0
  -21.7905  -29.2634   24.8553 C   0  0  0  0  0  0  0  0  0  0  0  0
  -28.1416  -14.0179   22.1230 N   0  0  0  0  0  0  0  0  0  0  0  0
  -27.4418  -15.0000   21.5299 N   0  0  0  0  0  0  0  0  0  0  0  0
  -23.7657  -30.1364   21.9915 N   0  0  0  0  0  0  0  0  0  0  0  0
  -29.6533  -20.0510   18.9790 N   0  0  0  0  0  0  0  0  0  0  0  0
  -29.4052  -17.9558   20.1119 N   0  0  0  0  0  0  0  0  0  0  0  0
  -25.3975  -15.4612   20.4259 N   0  0  0  0  0  0  0  0  0  0  0  0
  -25.0781  -11.0667   21.4170 N   0  0  0  0  0  0  0  0  0  0  0  0
  -25.0660  -33.0679   23.0332 N   0  0  0  0  0  0  0  0  0  0  0  0
  -20.7987  -28.6309   22.6147 N   0  0  0  0  0  0  0  0  0  0  0  0
  -19.5171  -26.5426   19.9569 N   0  3  0  0  0  0  0  0  0  0  0  0
  -24.0073  -12.8336   20.4220 O   0  0  0  0  0  0  0  0  0  0  0  0
  -26.3081  -31.1058   22.8611 O   0  0  0  0  0  0  0  0  0  0  0  0
  -21.8505  -31.2958   22.6426 O   0  0  0  0  0  0  0  0  0  0  0  0
  -21.6416  -26.6304   21.7996 O   0  0  0  0  0  0  0  0  0  0  0  0
  -27.7937  -18.7263   18.6545 O   0  0  0  0  0  0  0  0  0  0  0  0
  -28.9045   -8.0005   24.0613 O   0  0  0  0  0  0  0  0  0  0  0  0
  -28.1875  -26.3469   19.9289 O   0  0  0  0  0  0  0  0  0  1  0  0
  -25.1950   -5.1314   26.9616 F   0  0  0  0  0  0  0  0  0  0  0  0
  -26.5143   -7.2104   22.9190 F   0  0  0  0  0  0  0  0  0  0  0  0
  1  2  1  0  0  0  0
  1  5  2  0  0  0  0
  2  6  2  0  0  0  0
  3  8  2  0  0  0  0
  3 15  1  0  0  0  0
  4  9  1  0  0  0  0
  4 15  2  0  0  0  0
  5 17  1  0  0  0  0
  6 19  1  0  0  0  0
  7 10  2  0  0  0  0
  7 18  1  0  0  0  0
  8 27  1  0  0  0  0
  9 27  2  0  0  0  0
 10 28  1  0  0  0  0
 11 12  2  0  0  0  0
 11 29  1  0  0  0  0
 12 30  1  0  0  0  0
 13 20  1  0  0  0  0
 13 28  2  0  0  0  0
 14 30  2  0  0  0  0
 14 31  1  0  0  0  0
 15 32  1  0  0  0  0
 16 32  1  0  0  0  0
 16 33  2  0  0  0  0
 16 34  1  0  0  0  0
 17 19  2  0  0  0  0
 17 39  1  0  0  0  0
 18 20  2  0  0  0  0
 18 40  1  0  0  0  0
 19 51  1  0  0  0  0
 20 42  1  0  0  0  0
 21 22  2  0  0  0  0
 21 23  1  0  0  0  0
 21 41  1  0  0  0  0
 22 24  1  0  0  0  0
 22 43  1  0  0  0  0
 23 25  2  0  0  0  0
 23 54  1  0  0  0  0
 24 26  2  0  0  0  0
 24 55  1  0  0  0  0
 25 26  1  0  0  0  0
 25 56  1  0  0  0  0
 26 62  1  0  0  0  0
 27 81  1  0  0  0  0
 28 82  1  0  0  0  0
 29 31  2  0  0  0  0
 29 81  1  0  0  0  0
 30 83  1  0  0  0  0
 31 84  1  0  0  0  0
 32 66  2  0  0  0  0
 33 67  1  0  0  0  0
 33 71  1  0  0  0  0
 34 72  1  0  0  0  0
 34 76  2  0  0  0  0
 35 52  1  0  0  0  0
 35 73  1  0  0  0  0
 35 77  2  0  0  0  0
 36 63  1  0  0  0  0
 36 68  1  0  0  0  0
 36 78  2  0  0  0  0
 37 64  1  0  0  0  0
 37 74  1  0  0  0  0
 37 79  2  0  0  0  0
 38 69  1  0  0  0  0
 38 70  1  0  0  0  0
 38 80  2  0  0  0  0
 39 44  1  0  0  0  0
 40 52  1  0  0  0  0
 41 48  1  0  0  0  0
 42 68  1  0  0  0  0
 43 69  1  0  0  0  0
 44 46  1  0  0  0  0
 45 47  1  0  0  0  0
 45 49  1  0  0  0  0
 46 51  1  0  0  0  0
 47 53  1  0  0  0  0
 48 69  1  0  0  0  0
 49 70  1  0  0  0  0
 50 53  1  0  0  0  0
 50 70  1  0  0  0  0
 51 73  1  0  0  0  0
 52 68  1  0  0  0  0
 53 67  1  0  0  0  0
 57 64  1  0  0  0  0
 58 65  1  0  0  0  0
 59 65  1  0  0  0  0
 60 65  1  0  0  0  0
 61 75  1  0  0  0  0
 62 82  1  0  0  0  0
 63 65  1  0  0  0  0
 63 74  1  0  0  0  0
 64 75  1  0  0  0  0
 66 67  1  0  0  0  0
M  CHG  1  75   1
M  ISO  4  38 100  62 101  69 100  82 101
M  END
> <Batch ID>
0166

> <Smiles>
CNC(C)C(=O)NC(C(=O)N1Cc2cc([101O:1][101CH2:1]c3c(C)c(C)c4c(c3C)C[100N:0]([100C:0](=O)N3CCCC(n5nc(-c6ccc(Oc7ccc(F)cc7F)cc6)c(C(N)=O)c5N)C3)CC4)ccc2CC1C(=O)NC1CCCc2ccccc21)C(C)(C)C

> <Shape>
0.306

> <Color>
0.095

> <Negative vol penalty>
0.000

$$$$

  -OEChem-04052322243D

 87 97  0     1  0  0  0  0  0999 V2000
  -26.1183  -35.2084   24.1017 C   0  0  0  0  0  0  0  0  0  0  0  0
  -26.6581  -33.9789   23.7379 C   0  0  0  0  0  0  0  0  0  0  0  0
  -24.5041  -13.4583   19.9937 C   0  0  0  0  0  0  0  0  0  0  0  0
  -25.3339  -12.6679   22.1207 C   0  0  0  0  0  0  0  0  0  0  0  0
  -24.8013  -35.2841   24.5531 C   0  0  0  0  0  0  0  0  0  0  0  0
  -25.8815  -32.8241   23.8265 C   0  0  0  0  0  0  0  0  0  0  0  0
  -26.3189  -29.8704   19.7363 C   0  0  0  0  0  0  0  0  0  0  0  0
  -25.1214  -12.3837   19.3536 C   0  0  0  0  0  0  0  0  0  0  0  0
  -25.9512  -11.5933   21.4805 C   0  0  0  0  0  0  0  0  0  0  0  0
  -27.4655  -29.0831   19.6391 C   0  0  0  0  0  0  0  0  0  0  0  0
  -28.2334  -11.5454   18.3352 C   0  0  0  0  0  0  0  0  0  0  0  0
  -28.9443  -11.8108   17.1649 C   0  0  0  0  0  0  0  0  0  0  0  0
  -28.3084  -24.2095   18.5010 C   0  0  0  0  0  0  0  0  0  0  0  0
  -26.2155  -27.1761   20.4265 C   0  0  0  0  0  0  0  0  0  0  0  0
  -27.4934  -10.3136   15.9440 C   0  0  0  0  0  0  0  0  0  0  0  0
  -27.5582  -23.5772   16.3112 C   0  0  0  0  0  0  0  0  0  0  0  0
  -24.6104  -13.6005   21.3773 C   0  0  0  0  0  0  0  0  0  0  0  0
  -22.6679  -14.7520   22.5641 C   0  0  0  0  0  0  0  0  0  0  0  0
  -24.0051  -34.1311   24.6381 C   0  0  0  0  0  0  0  0  0  0  0  0
  -25.1127  -29.3180   20.1905 C   0  0  0  0  0  0  0  0  0  0  0  0
  -24.5530  -32.8843   24.2807 C   0  0  0  0  0  0  0  0  0  0  0  0
  -27.4654  -23.4435   17.6971 C   0  0  0  0  0  0  0  0  0  0  0  0
  -29.2029  -25.0592   17.8809 C   0  0  0  0  0  0  0  0  0  0  0  0
  -25.0545  -27.9578   20.5261 C   0  0  0  0  0  0  0  0  0  0  0  0
  -25.8449  -11.4512   20.0969 C   0  0  0  0  0  0  0  0  0  0  0  0
  -27.4146  -27.7365   19.9870 C   0  0  0  0  0  0  0  0  0  0  0  0
  -27.1525  -10.6641   18.3100 C   0  0  0  0  0  0  0  0  0  0  0  0
  -28.5743  -11.1949   15.9693 C   0  0  0  0  0  0  0  0  0  0  0  0
  -26.7824  -10.0483   17.1144 C   0  0  0  0  0  0  0  0  0  0  0  0
  -23.9735  -14.7106   22.0391 C   0  0  0  0  0  0  0  0  0  0  0  0
  -29.2154  -25.1096   16.5004 C   0  0  0  0  0  0  0  0  0  0  0  0
  -22.5464  -16.0179   23.0828 C   0  0  0  0  0  0  0  0  0  0  0  0
  -21.6556  -13.7368   22.5813 C   0  0  0  0  0  0  0  0  0  0  0  0
  -23.1949  -29.8493   22.6691 C   0  0  0  0  0  0  0  0  0  0  0  0
  -21.2913  -27.7003   21.1590 C   0  0  0  0  0  0  0  0  0  0  0  0
  -21.0324  -25.0936   18.9716 C   0  0  0  0  0  0  0  0  0  0  0  0
  -25.0722  -21.1935   21.9517 C   0  0  0  0  0  0  0  0  0  0  0  0
  -22.6019  -34.2559   25.1767 C   0  0  0  0  0  0  0  0  0  0  0  0
  -23.8783  -30.1743   20.2642 C   0  0  0  0  0  0  0  0  0  0  0  0
  -23.7791  -27.3118   20.9999 C   0  0  0  0  0  0  0  0  0  0  0  0
  -21.7273  -33.0391   24.8857 C   0  0  0  0  0  0  0  0  0  0  0  0
  -25.1263  -19.5546   24.9947 C   0  0  0  0  0  0  0  0  0  0  0  0
  -22.4790  -31.7517   25.2089 C   0  0  0  0  0  0  0  0  0  0  0  0
  -24.7083  -18.1264   24.6457 C   0  0  0  0  0  0  0  0  0  0  0  0
  -27.1482  -21.3762   19.1279 C   0  0  0  0  0  0  0  0  0  0  0  0
  -25.4207  -23.2262   19.1786 C   0  0  0  0  0  0  0  0  0  0  0  0
  -26.0756  -20.1177   23.9434 C   0  0  0  0  0  0  0  0  0  0  0  0
  -26.1283  -20.4359   19.7765 C   0  0  0  0  0  0  0  0  0  0  0  0
  -24.4367  -22.2389   19.7996 C   0  0  0  0  0  0  0  0  0  0  0  0
  -25.1003  -18.6691   22.1916 C   0  0  0  0  0  0  0  0  0  0  0  0
  -31.0011  -26.2701   17.1428 C   0  0  0  0  0  0  0  0  0  0  0  0
  -26.4615  -22.4894   18.3162 C   0  0  0  0  0  0  0  0  0  0  0  0
  -23.7345  -31.6128   24.3394 C   0  0  1  0  0  0  0  0  0  0  0  0
  -22.8294  -29.6288   21.2285 C   0  0  1  0  0  0  0  0  0  0  0  0
  -24.1318  -18.0515   23.2207 C   0  0  1  0  0  0  0  0  0  0  0  0
  -30.1896  -26.0270   18.4336 C   0  0  2  0  0  0  0  0  0  0  0  0
  -31.0639  -25.4593   19.5503 C   0  0  0  0  0  0  0  0  0  0  0  0
  -19.3517  -23.5223   17.9697 C   0  0  0  0  0  0  0  0  0  0  0  0
  -21.2129  -26.1232   23.7698 C   0  0  0  0  0  0  0  0  0  0  0  0
  -20.3560  -24.1584   22.4761 C   0  0  0  0  0  0  0  0  0  0  0  0
  -19.0229  -26.2648   22.5704 C   0  0  0  0  0  0  0  0  0  0  0  0
  -21.5963  -26.0541   16.2297 C   0  0  0  0  0  0  0  0  0  0  0  0
  -29.4850  -27.3075   18.8982 C   0  0  0  0  0  0  0  0  0  1  0  0
  -21.1401  -26.1986   21.1901 C   0  0  1  0  0  0  0  0  0  0  0  0
  -20.0877  -24.8435   17.8099 C   0  0  2  0  0  0  0  0  0  0  0  0
  -20.4577  -25.6986   22.4946 C   0  0  0  0  0  0  0  0  0  0  0  0
  -28.4212  -24.4060   15.6774 N   0  0  0  0  0  0  0  0  0  0  0  0
  -24.6341  -15.8590   22.2087 N   0  0  0  0  0  0  0  0  0  0  0  0
  -23.7400  -16.6340   22.8460 N   0  0  0  0  0  0  0  0  0  0  0  0
  -22.6006  -28.1921   21.0611 N   0  0  0  0  0  0  0  0  0  0  0  0
  -25.4939  -20.0253   22.6044 N   0  0  0  0  0  0  0  0  0  0  0  0
  -25.1384  -21.1981   20.5503 N   0  0  0  0  0  0  0  0  0  0  0  0
  -21.5361  -16.6531   23.7139 N   0  0  0  0  0  0  0  0  0  0  0  0
  -21.9468  -12.4930   22.0046 N   0  0  0  0  0  0  0  0  0  0  0  0
  -23.3799  -31.1767   23.0057 N   0  0  0  0  0  0  0  0  0  0  0  0
  -20.4320  -25.8342   19.9677 N   0  0  0  0  0  0  0  0  0  0  0  0
  -20.8436  -24.8081   16.5260 N   0  3  0  0  0  0  0  0  0  0  0  0
  -20.5206  -13.9325   23.0783 O   0  0  0  0  0  0  0  0  0  0  0  0
  -23.2998  -28.8866   23.4200 O   0  0  0  0  0  0  0  0  0  0  0  0
  -20.2842  -28.4107   21.2121 O   0  0  0  0  0  0  0  0  0  0  0  0
  -22.1861  -24.6708   18.9948 O   0  0  0  0  0  0  0  0  0  0  0  0
  -24.6600  -22.1746   22.5831 O   0  0  0  0  0  0  0  0  0  0  0  0
  -30.1505  -26.0066   15.9992 O   0  0  0  0  0  0  0  0  0  0  0  0
  -26.4471  -10.4023   19.4726 O   0  0  0  0  0  0  0  0  0  0  0  0
  -28.5435  -26.9584   19.8927 O   0  0  0  0  0  0  0  0  0  1  0  0
  -29.2562  -11.4510   14.8451 F   0  0  0  0  0  0  0  0  0  0  0  0
  -25.7441   -9.2016   17.0838 F   0  0  0  0  0  0  0  0  0  0  0  0
  1  2  1  0  0  0  0
  1  5  2  0  0  0  0
  2  6  2  0  0  0  0
  3  8  2  0  0  0  0
  3 17  1  0  0  0  0
  4  9  1  0  0  0  0
  4 17  2  0  0  0  0
  5 19  1  0  0  0  0
  6 21  1  0  0  0  0
  7 10  2  0  0  0  0
  7 20  1  0  0  0  0
  8 25  1  0  0  0  0
  9 25  2  0  0  0  0
 10 26  1  0  0  0  0
 11 12  2  0  0  0  0
 11 27  1  0  0  0  0
 12 28  1  0  0  0  0
 13 22  2  0  0  0  0
 13 23  1  0  0  0  0
 14 24  1  0  0  0  0
 14 26  2  0  0  0  0
 15 28  2  0  0  0  0
 15 29  1  0  0  0  0
 16 22  1  0  0  0  0
 16 67  2  0  0  0  0
 17 30  1  0  0  0  0
 18 30  1  0  0  0  0
 18 32  2  0  0  0  0
 18 33  1  0  0  0  0
 19 21  2  0  0  0  0
 19 38  1  0  0  0  0
 20 24  2  0  0  0  0
 20 39  1  0  0  0  0
 21 53  1  0  0  0  0
 22 52  1  0  0  0  0
 23 31  2  0  0  0  0
 23 56  1  0  0  0  0
 24 40  1  0  0  0  0
 25 84  1  0  0  0  0
 26 85  1  0  0  0  0
 27 29  2  0  0  0  0
 27 84  1  0  0  0  0
 28 86  1  0  0  0  0
 29 87  1  0  0  0  0
 30 68  2  0  0  0  0
 31 67  1  0  0  0  0
 31 83  1  0  0  0  0
 32 69  1  0  0  0  0
 32 73  1  0  0  0  0
 33 74  1  0  0  0  0
 33 78  2  0  0  0  0
 34 54  1  0  0  0  0
 34 75  1  0  0  0  0
 34 79  2  0  0  0  0
 35 64  1  0  0  0  0
 35 70  1  0  0  0  0
 35 80  2  0  0  0  0
 36 65  1  0  0  0  0
 36 76  1  0  0  0  0
 36 81  2  0  0  0  0
 37 71  1  0  0  0  0
 37 72  1  0  0  0  0
 37 82  2  0  0  0  0
 38 41  1  0  0  0  0
 39 54  1  0  0  0  0
 40 70  1  0  0  0  0
 41 43  1  0  0  0  0
 42 44  1  0  0  0  0
 42 47  1  0  0  0  0
 43 53  1  0  0  0  0
 44 55  1  0  0  0  0
 45 48  1  0  0  0  0
 45 52  1  0  0  0  0
 46 49  1  0  0  0  0
 46 52  1  0  0  0  0
 47 71  1  0  0  0  0
 48 72  1  0  0  0  0
 49 72  1  0  0  0  0
 50 55  1  0  0  0  0
 50 71  1  0  0  0  0
 51 56  1  0  0  0  0
 51 83  1  0  0  0  0
 53 75  1  0  0  0  0
 54 70  1  0  0  0  0
 55 69  1  0  0  0  0
 56 57  1  0  0  0  0
 56 63  1  0  0  0  0
 58 65  1  0  0  0  0
 59 66  1  0  0  0  0
 60 66  1  0  0  0  0
 61 66  1  0  0  0  0
 62 77  1  0  0  0  0
 63 85  1  0  0  0  0
 64 66  1  0  0  0  0
 64 76  1  0  0  0  0
 65 77  1  0  0  0  0
 68 69  1  0  0  0  0
M  CHG  1  77   1
M  ISO  4  37 100  63 101  72 100  85 101
M  END
> <Batch ID>
0166

> <Smiles>
CNC(C)C(=O)NC(C(=O)N1Cc2cc([101O:1][101CH2:1]C3(C)COc4ncc(C5CC[100N:0]([100C:0](=O)N6CCCC(n7nc(-c8ccc(Oc9ccc(F)cc9F)cc8)c(C(N)=O)c7N)C6)CC5)cc43)ccc2CC1C(=O)NC1CCCc2ccccc21)C(C)(C)C

> <Shape>
0.214

> <Color>
0.091

> <Negative vol penalty>
0.000

$$$$

  -OEChem-04052322243D

 86 96  0     1  0  0  0  0  0999 V2000
  -27.6764  -36.7279   25.2351 C   0  0  0  0  0  0  0  0  0  0  0  0
  -28.3129  -35.6630   24.6056 C   0  0  0  0  0  0  0  0  0  0  0  0
  -24.6003   -8.6220   21.3416 C   0  0  0  0  0  0  0  0  0  0  0  0
  -23.4045  -10.6223   21.9786 C   0  0  0  0  0  0  0  0  0  0  0  0
  -26.3802  -36.5729   25.7247 C   0  0  0  0  0  0  0  0  0  0  0  0
  -27.6538  -34.4421   24.4663 C   0  0  0  0  0  0  0  0  0  0  0  0
  -27.1273  -28.8587   20.0092 C   0  0  0  0  0  0  0  0  0  0  0  0
  -23.9586   -7.9147   22.3583 C   0  0  0  0  0  0  0  0  0  0  0  0
  -22.7628   -9.9150   22.9953 C   0  0  0  0  0  0  0  0  0  0  0  0
  -27.2104  -27.4670   20.0117 C   0  0  0  0  0  0  0  0  0  0  0  0
  -22.3669   -5.4951   24.5554 C   0  0  0  0  0  0  0  0  0  0  0  0
  -21.8584   -4.2336   24.2465 C   0  0  0  0  0  0  0  0  0  0  0  0
  -27.2481  -21.1907   21.2480 C   0  0  0  0  0  0  0  0  0  0  0  0
  -24.9432  -27.3392   20.8257 C   0  0  0  0  0  0  0  0  0  0  0  0
  -27.1741  -22.5824   18.8313 C   0  0  0  0  0  0  0  0  0  0  0  0
  -20.4302   -5.2206   22.5662 C   0  0  0  0  0  0  0  0  0  0  0  0
  -24.3233   -9.9758   21.1518 C   0  0  0  0  0  0  0  0  0  0  0  0
  -24.5504  -10.8700   18.7735 C   0  0  0  0  0  0  0  0  0  0  0  0
  -25.7013  -35.3525   25.5827 C   0  0  0  0  0  0  0  0  0  0  0  0
  -25.9533  -29.5024   20.4260 C   0  0  0  0  0  0  0  0  0  0  0  0
  -26.3478  -34.2702   24.9556 C   0  0  0  0  0  0  0  0  0  0  0  0
  -27.1056  -20.4957   20.0471 C   0  0  0  0  0  0  0  0  0  0  0  0
  -27.3535  -22.5816   21.2407 C   0  0  0  0  0  0  0  0  0  0  0  0
  -24.8469  -28.7391   20.8252 C   0  0  0  0  0  0  0  0  0  0  0  0
  -27.0687  -21.1915   18.8387 C   0  0  0  0  0  0  0  0  0  0  0  0
  -27.3165  -23.2774   20.0323 C   0  0  0  0  0  0  0  0  0  0  0  0
  -23.0399   -8.5611   23.1851 C   0  0  0  0  0  0  0  0  0  0  0  0
  -26.1192  -26.7071   20.4227 C   0  0  0  0  0  0  0  0  0  0  0  0
  -21.9070   -6.6195   23.8698 C   0  0  0  0  0  0  0  0  0  0  0  0
  -20.8901   -4.0962   23.2519 C   0  0  0  0  0  0  0  0  0  0  0  0
  -20.9387   -6.4822   22.8752 C   0  0  0  0  0  0  0  0  0  0  0  0
  -24.9862  -10.7072   20.1022 C   0  0  0  0  0  0  0  0  0  0  0  0
  -25.5236  -11.6401   18.1849 C   0  0  0  0  0  0  0  0  0  0  0  0
  -23.3714  -10.3699   18.1289 C   0  0  0  0  0  0  0  0  0  0  0  0
  -25.2105  -31.5159   22.7708 C   0  0  0  0  0  0  0  0  0  0  0  0
  -22.3352  -31.5889   21.2709 C   0  0  0  0  0  0  0  0  0  0  0  0
  -20.1050  -30.0382   19.2049 C   0  0  0  0  0  0  0  0  0  0  0  0
  -29.1122  -15.9966   19.4585 C   0  0  0  0  0  0  0  0  0  0  0  0
  -24.3186  -35.2183   26.1700 C   0  0  0  0  0  0  0  0  0  0  0  0
  -25.8706  -31.0039   20.3921 C   0  0  0  0  0  0  0  0  0  0  0  0
  -23.5567  -29.3813   21.2626 C   0  0  0  0  0  0  0  0  0  0  0  0
  -23.5506  -34.0062   25.6491 C   0  0  0  0  0  0  0  0  0  0  0  0
  -30.2423  -12.6629   19.1542 C   0  0  0  0  0  0  0  0  0  0  0  0
  -26.9834  -22.6645   23.7961 C   0  0  0  0  0  0  0  0  0  0  0  0
  -26.2786  -23.8517   23.2180 C   0  0  0  0  0  0  0  0  0  0  0  0
  -24.4346  -32.7634   25.6732 C   0  0  0  0  0  0  0  0  0  0  0  0
  -28.9734  -11.8232   19.2721 C   0  0  0  0  0  0  0  0  0  0  0  0
  -27.0913  -18.3143   21.4580 C   0  0  0  0  0  0  0  0  0  0  0  0
  -30.1854  -13.8634   20.0894 C   0  0  0  0  0  0  0  0  0  0  0  0
  -27.3504  -16.8549   21.1088 C   0  0  0  0  0  0  0  0  0  0  0  0
  -28.0930  -18.2482   19.3062 C   0  0  0  0  0  0  0  0  0  0  0  0
  -27.7106  -13.9318   19.9441 C   0  0  0  0  0  0  0  0  0  0  0  0
  -27.5053  -23.3051   22.5376 C   0  0  0  0  0  0  0  0  0  0  0  0
  -26.9920  -18.9875   20.0796 C   0  0  2  0  0  0  0  0  0  0  0  0
  -25.6566  -32.9378   24.7633 C   0  0  1  0  0  0  0  0  0  0  0  0
  -24.8022  -31.5647   21.3256 C   0  0  1  0  0  0  0  0  0  0  0  0
  -27.7268  -12.6885   19.0309 C   0  0  2  0  0  0  0  0  0  0  0  0
  -26.9185  -20.4695   17.5399 C   0  0  0  0  0  0  0  0  0  0  0  0
  -17.8259  -30.3262   18.1950 C   0  0  0  0  0  0  0  0  0  0  0  0
  -21.0607  -30.8725   23.9490 C   0  0  0  0  0  0  0  0  0  0  0  0
  -18.9755  -30.2500   22.7110 C   0  0  0  0  0  0  0  0  0  0  0  0
  -19.8183  -32.5965   22.6303 C   0  0  0  0  0  0  0  0  0  0  0  0
  -21.1908  -29.9852   16.4522 C   0  0  0  0  0  0  0  0  0  0  0  0
  -27.4270  -24.7667   19.9979 C   0  0  0  0  0  0  0  0  0  1  0  0
  -21.0580  -30.7901   21.3685 C   0  0  1  0  0  0  0  0  0  0  0  0
  -19.3193  -30.5448   18.0089 C   0  0  2  0  0  0  0  0  0  0  0  0
  -20.2529  -31.1149   22.6584 C   0  0  0  0  0  0  0  0  0  0  0  0
  -26.1459  -11.3241   20.3437 N   0  0  0  0  0  0  0  0  0  0  0  0
  -26.4472  -11.8820   19.1588 N   0  0  0  0  0  0  0  0  0  0  0  0
  -23.5272  -30.8526   21.2179 N   0  0  0  0  0  0  0  0  0  0  0  0
  -28.9805  -14.6661   19.8713 N   0  0  0  0  0  0  0  0  0  0  0  0
  -28.1505  -16.9107   19.8872 N   0  0  0  0  0  0  0  0  0  0  0  0
  -25.6707  -12.1271   16.9345 N   0  0  0  0  0  0  0  0  0  0  0  0
  -22.4769   -9.5952   18.8800 N   0  0  0  0  0  0  0  0  0  0  0  0
  -25.2844  -32.7556   23.3767 N   0  0  0  0  0  0  0  0  0  0  0  0
  -20.3270  -31.0362   20.1301 N   0  0  0  0  0  0  0  0  0  0  0  0
  -19.7473  -29.8357   16.7700 N   0  3  0  0  0  0  0  0  0  0  0  0
  -23.1267  -10.5894   16.9184 O   0  0  0  0  0  0  0  0  0  0  0  0
  -25.4401  -30.4336   23.2975 O   0  0  0  0  0  0  0  0  0  0  0  0
  -22.2770  -32.8206   21.2356 O   0  0  0  0  0  0  0  0  0  0  0  0
  -20.4808  -28.8727   19.3098 O   0  0  0  0  0  0  0  0  0  0  0  0
  -30.0729  -16.3634   18.7683 O   0  0  0  0  0  0  0  0  0  0  0  0
  -22.4134   -7.8712   24.1771 O   0  0  0  0  0  0  0  0  0  0  0  0
  -26.1984  -25.3388   20.4268 O   0  0  0  0  0  0  0  0  0  1  0  0
  -20.4030   -2.8845   22.9543 F   0  0  0  0  0  0  0  0  0  0  0  0
  -20.4939   -7.5585   22.2122 F   0  0  0  0  0  0  0  0  0  0  0  0
  1  2  1  0  0  0  0
  1  5  2  0  0  0  0
  2  6  2  0  0  0  0
  3  8  2  0  0  0  0
  3 17  1  0  0  0  0
  4  9  1  0  0  0  0
  4 17  2  0  0  0  0
  5 19  1  0  0  0  0
  6 21  1  0  0  0  0
  7 10  2  0  0  0  0
  7 20  1  0  0  0  0
  8 27  1  0  0  0  0
  9 27  2  0  0  0  0
 10 28  1  0  0  0  0
 11 12  2  0  0  0  0
 11 29  1  0  0  0  0
 12 30  1  0  0  0  0
 13 22  2  0  0  0  0
 13 23  1  0  0  0  0
 14 24  1  0  0  0  0
 14 28  2  0  0  0  0
 15 25  2  0  0  0  0
 15 26  1  0  0  0  0
 16 30  2  0  0  0  0
 16 31  1  0  0  0  0
 17 32  1  0  0  0  0
 18 32  1  0  0  0  0
 18 33  2  0  0  0  0
 18 34  1  0  0  0  0
 19 21  2  0  0  0  0
 19 39  1  0  0  0  0
 20 24  2  0  0  0  0
 20 40  1  0  0  0  0
 21 55  1  0  0  0  0
 22 25  1  0  0  0  0
 22 54  1  0  0  0  0
 23 26  2  0  0  0  0
 23 53  1  0  0  0  0
 24 41  1  0  0  0  0
 25 58  1  0  0  0  0
 26 64  1  0  0  0  0
 27 83  1  0  0  0  0
 28 84  1  0  0  0  0
 29 31  2  0  0  0  0
 29 83  1  0  0  0  0
 30 85  1  0  0  0  0
 31 86  1  0  0  0  0
 32 68  2  0  0  0  0
 33 69  1  0  0  0  0
 33 73  1  0  0  0  0
 34 74  1  0  0  0  0
 34 78  2  0  0  0  0
 35 56  1  0  0  0  0
 35 75  1  0  0  0  0
 35 79  2  0  0  0  0
 36 65  1  0  0  0  0
 36 70  1  0  0  0  0
 36 80  2  0  0  0  0
 37 66  1  0  0  0  0
 37 76  1  0  0  0  0
 37 81  2  0  0  0  0
 38 71  1  0  0  0  0
 38 72  1  0  0  0  0
 38 82  2  0  0  0  0
 39 42  1  0  0  0  0
 40 56  1  0  0  0  0
 41 70  1  0  0  0  0
 42 46  1  0  0  0  0
 43 47  1  0  0  0  0
 43 49  1  0  0  0  0
 44 45  1  0  0  0  0
 44 53  1  0  0  0  0
 45 53  1  0  0  0  0
 46 55  1  0  0  0  0
 47 57  1  0  0  0  0
 48 50  1  0  0  0  0
 48 54  1  0  0  0  0
 49 71  1  0  0  0  0
 50 72  1  0  0  0  0
 51 54  1  0  0  0  0
 51 72  1  0  0  0  0
 52 57  1  0  0  0  0
 52 71  1  0  0  0  0
 55 75  1  0  0  0  0
 56 70  1  0  0  0  0
 57 69  1  0  0  0  0
 59 66  1  0  0  0  0
 60 67  1  0  0  0  0
 61 67  1  0  0  0  0
 62 67  1  0  0  0  0
 63 77  1  0  0  0  0
 64 84  1  0  0  0  0
 65 67  1  0  0  0  0
 65 76  1  0  0  0  0
 66 77  1  0  0  0  0
 68 69  1  0  0  0  0
M  CHG  1  77   1
M  ISO  4  38 100  64 101  72 100  84 101
M  END
> <Batch ID>
0166

> <Smiles>
CNC(C)C(=O)NC(C(=O)N1Cc2cc([101O:1][101CH2:1]c3cc(C)c(C4CC[100N:0]([100C:0](=O)N5CCCC(n6nc(-c7ccc(Oc8ccc(F)cc8F)cc7)c(C(N)=O)c6N)C5)C4)cc3C3CC3)ccc2CC1C(=O)NC1CCCc2ccccc21)C(C)(C)C

> <Shape>
0.280

> <Color>
0.099

> <Negative vol penalty>
0.000

$$$$

  -OEChem-04052322243D

 88 98  0     1  0  0  0  0  0999 V2000
  -18.0077  -24.8717   22.9447 C   0  0  0  0  0  0  0  0  0  0  0  0
  -19.0247  -24.6655   22.0181 C   0  0  0  0  0  0  0  0  0  0  0  0
  -23.9181   -9.7543   21.9059 C   0  0  0  0  0  0  0  0  0  0  0  0
  -24.5247  -11.1422   23.7882 C   0  0  0  0  0  0  0  0  0  0  0  0
  -17.8150  -26.1375   23.4965 C   0  0  0  0  0  0  0  0  0  0  0  0
  -19.8490  -25.7255   21.6419 C   0  0  0  0  0  0  0  0  0  0  0  0
  -24.7436  -24.4321   21.5220 C   0  0  0  0  0  0  0  0  0  0  0  0
  -23.4423   -8.7769   22.7798 C   0  0  0  0  0  0  0  0  0  0  0  0
  -24.0488  -10.1648   24.6622 C   0  0  0  0  0  0  0  0  0  0  0  0
  -25.1836  -23.7067   20.4156 C   0  0  0  0  0  0  0  0  0  0  0  0
  -20.6739   -8.2375   24.6448 C   0  0  0  0  0  0  0  0  0  0  0  0
  -19.4414   -7.6526   24.3542 C   0  0  0  0  0  0  0  0  0  0  0  0
  -28.0222  -19.2257   16.9626 C   0  0  0  0  0  0  0  0  0  0  0  0
  -26.0758  -25.7300   19.4514 C   0  0  0  0  0  0  0  0  0  0  0  0
  -20.5018   -5.4860   24.2177 C   0  0  0  0  0  0  0  0  0  0  0  0
  -24.4594  -10.9370   22.4100 C   0  0  0  0  0  0  0  0  0  0  0  0
  -24.2257  -13.0175   20.9525 C   0  0  0  0  0  0  0  0  0  0  0  0
  -18.6435  -27.2113   23.1342 C   0  0  0  0  0  0  0  0  0  0  0  0
  -24.9572  -25.8161   21.5964 C   0  0  0  0  0  0  0  0  0  0  0  0
  -19.6664  -27.0072   22.1884 C   0  0  0  0  0  0  0  0  0  0  0  0
  -28.2405  -20.5185   17.4384 C   0  0  0  0  0  0  0  0  0  0  0  0
  -25.6398  -26.4702   20.5610 C   0  0  0  0  0  0  0  0  0  0  0  0
  -30.2147  -18.5702   17.7374 C   0  0  0  0  0  0  0  0  0  0  0  0
  -29.0093  -18.2514   17.1121 C   0  0  0  0  0  0  0  0  0  0  0  0
  -29.4460  -20.8372   18.0637 C   0  0  0  0  0  0  0  0  0  0  0  0
  -30.4331  -19.8631   18.2132 C   0  0  0  0  0  0  0  0  0  0  0  0
  -23.5076   -8.9822   24.1580 C   0  0  0  0  0  0  0  0  0  0  0  0
  -25.8472  -24.3561   19.3788 C   0  0  0  0  0  0  0  0  0  0  0  0
  -21.8204   -7.4467   24.7218 C   0  0  0  0  0  0  0  0  0  0  0  0
  -19.3553   -6.2769   24.1407 C   0  0  0  0  0  0  0  0  0  0  0  0
  -21.7343   -6.0709   24.5083 C   0  0  0  0  0  0  0  0  0  0  0  0
  -24.9516  -11.9468   21.5077 C   0  0  0  0  0  0  0  0  0  0  0  0
  -25.1382  -13.6817   20.1697 C   0  0  0  0  0  0  0  0  0  0  0  0
  -22.8495  -13.3794   21.1285 C   0  0  0  0  0  0  0  0  0  0  0  0
  -23.0730  -28.3711   21.7552 C   0  0  0  0  0  0  0  0  0  0  0  0
  -25.8852  -29.9369   22.1579 C   0  0  0  0  0  0  0  0  0  0  0  0
  -29.2652  -29.9889   21.6893 C   0  0  0  0  0  0  0  0  0  0  0  0
  -30.1205  -15.8924   19.5471 C   0  0  0  0  0  0  0  0  0  0  0  0
  -18.3667  -28.5723   23.7220 C   0  0  0  0  0  0  0  0  0  0  0  0
  -24.5000  -26.5797   22.8090 C   0  0  0  0  0  0  0  0  0  0  0  0
  -25.9120  -27.9510   20.6020 C   0  0  0  0  0  0  0  0  0  0  0  0
  -19.5217  -29.5558   23.5516 C   0  0  0  0  0  0  0  0  0  0  0  0
  -29.8030  -12.3686   18.7141 C   0  0  0  0  0  0  0  0  0  0  0  0
  -20.0501  -29.5159   22.1212 C   0  0  0  0  0  0  0  0  0  0  0  0
  -28.4393  -12.0355   19.3233 C   0  0  0  0  0  0  0  0  0  0  0  0
  -31.7520  -16.6631   16.6561 C   0  0  0  0  0  0  0  0  0  0  0  0
  -25.7875  -21.2517   17.7864 C   0  0  0  0  0  0  0  0  0  0  0  0
  -30.5588  -13.3641   19.5864 C   0  0  0  0  0  0  0  0  0  0  0  0
  -31.6827  -15.3872   17.4933 C   0  0  0  0  0  0  0  0  0  0  0  0
  -28.4722  -14.3043   20.4703 C   0  0  0  0  0  0  0  0  0  0  0  0
  -27.1693  -21.5440   17.2648 C   0  0  1  0  0  0  0  0  0  0  0  0
  -31.3352  -17.4604   17.9076 C   0  0  2  0  0  0  0  0  0  0  0  0
  -20.5970  -28.1261   21.7736 C   0  0  1  0  0  0  0  0  0  0  0  0
  -24.3171  -28.0706   22.5423 C   0  0  1  0  0  0  0  0  0  0  0  0
  -27.6375  -13.3130   19.6369 C   0  0  2  0  0  0  0  0  0  0  0  0
  -26.6454  -22.2642   18.4814 C   0  0  1  0  0  0  0  0  0  1  0  0
  -29.6804  -22.2242   18.5732 C   0  0  0  0  0  0  0  0  0  0  0  0
  -31.7266  -20.2011   18.8837 C   0  0  0  0  0  0  0  0  0  0  0  0
  -28.5444  -16.8469   15.0713 C   0  0  0  0  0  0  0  0  0  0  0  0
  -27.5638  -16.1949   17.3003 C   0  0  0  0  0  0  0  0  0  0  0  0
  -31.2880  -31.4184   22.0922 C   0  0  0  0  0  0  0  0  0  0  0  0
  -25.0684  -31.7424   19.8378 C   0  0  0  0  0  0  0  0  0  0  0  0
  -27.4520  -32.4901   19.6718 C   0  0  0  0  0  0  0  0  0  0  0  0
  -26.1505  -32.9310   21.7537 C   0  0  0  0  0  0  0  0  0  0  0  0
  -30.5245  -27.9278   23.3996 C   0  0  0  0  0  0  0  0  0  0  0  0
  -28.7533  -16.8735   16.5965 C   0  0  0  0  0  0  0  0  0  0  0  0
  -26.8970  -30.5718   21.2349 C   0  0  1  0  0  0  0  0  0  0  0  0
  -30.4087  -30.3035   22.6368 C   0  0  2  0  0  0  0  0  0  0  0  0
  -26.3853  -31.9062   20.6226 C   0  0  0  0  0  0  0  0  0  0  0  0
  -26.2270  -11.9279   21.1113 N   0  0  0  0  0  0  0  0  0  0  0  0
  -26.3095  -12.9950   20.2985 N   0  0  0  0  0  0  0  0  0  0  0  0
  -25.4398  -28.6549   21.8058 N   0  0  0  0  0  0  0  0  0  0  0  0
  -29.7552  -14.5695   19.8079 N   0  0  0  0  0  0  0  0  0  0  0  0
  -30.9648  -16.1566   18.4930 N   0  0  0  0  0  0  0  0  0  0  0  0
  -25.0448  -14.7803   19.3907 N   0  0  0  0  0  0  0  0  0  0  0  0
  -22.0528  -12.5884   21.9675 N   0  0  0  0  0  0  0  0  0  0  0  0
  -21.9075  -27.9379   22.3581 N   0  0  0  0  0  0  0  0  0  0  0  0
  -28.1283  -30.7018   22.0065 N   0  0  0  0  0  0  0  0  0  0  0  0
  -31.2564  -29.0955   22.8446 N   0  3  0  0  0  0  0  0  0  0  0  0
  -22.3374  -14.3651   20.5458 O   0  0  0  0  0  0  0  0  0  0  0  0
  -23.1636  -28.9542   20.6812 O   0  0  0  0  0  0  0  0  0  0  0  0
  -25.5093  -30.5527   23.1585 O   0  0  0  0  0  0  0  0  0  0  0  0
  -29.3710  -29.1934   20.7584 O   0  0  0  0  0  0  0  0  0  0  0  0
  -29.6675  -16.8259   20.2244 O   0  0  0  0  0  0  0  0  0  0  0  0
  -23.0432   -8.0287   25.0111 O   0  0  0  0  0  0  0  0  0  0  0  0
  -26.2834  -23.6404   18.2818 O   0  0  0  0  0  0  0  0  0  1  0  0
  -18.1714   -5.7152   23.8632 F   0  0  0  0  0  0  0  0  0  0  0  0
  -22.8320   -5.3059   24.5821 F   0  0  0  0  0  0  0  0  0  0  0  0
  1  2  1  0  0  0  0
  1  5  2  0  0  0  0
  2  6  2  0  0  0  0
  3  8  2  0  0  0  0
  3 16  1  0  0  0  0
  4  9  1  0  0  0  0
  4 16  2  0  0  0  0
  5 18  1  0  0  0  0
  6 20  1  0  0  0  0
  7 10  2  0  0  0  0
  7 19  1  0  0  0  0
  8 27  1  0  0  0  0
  9 27  2  0  0  0  0
 10 28  1  0  0  0  0
 11 12  2  0  0  0  0
 11 29  1  0  0  0  0
 12 30  1  0  0  0  0
 13 21  1  0  0  0  0
 13 24  2  0  0  0  0
 14 22  1  0  0  0  0
 14 28  2  0  0  0  0
 15 30  2  0  0  0  0
 15 31  1  0  0  0  0
 16 32  1  0  0  0  0
 17 32  1  0  0  0  0
 17 33  2  0  0  0  0
 17 34  1  0  0  0  0
 18 20  2  0  0  0  0
 18 39  1  0  0  0  0
 19 22  2  0  0  0  0
 19 40  1  0  0  0  0
 20 53  1  0  0  0  0
 21 25  2  0  0  0  0
 21 51  1  0  0  0  0
 22 41  1  0  0  0  0
 23 24  1  0  0  0  0
 23 26  2  0  0  0  0
 23 52  1  0  0  0  0
 24 66  1  0  0  0  0
 25 26  1  0  0  0  0
 25 57  1  0  0  0  0
 26 58  1  0  0  0  0
 27 85  1  0  0  0  0
 28 86  1  0  0  0  0
 29 31  2  0  0  0  0
 29 85  1  0  0  0  0
 30 87  1  0  0  0  0
 31 88  1  0  0  0  0
 32 70  2  0  0  0  0
 33 71  1  0  0  0  0
 33 75  1  0  0  0  0
 34 76  1  0  0  0  0
 34 80  2  0  0  0  0
 35 54  1  0  0  0  0
 35 77  1  0  0  0  0
 35 81  2  0  0  0  0
 36 67  1  0  0  0  0
 36 72  1  0  0  0  0
 36 82  2  0  0  0  0
 37 68  1  0  0  0  0
 37 78  1  0  0  0  0
 37 83  2  0  0  0  0
 38 73  1  0  0  0  0
 38 74  1  0  0  0  0
 38 84  2  0  0  0  0
 39 42  1  0  0  0  0
 40 54  1  0  0  0  0
 41 72  1  0  0  0  0
 42 44  1  0  0  0  0
 43 45  1  0  0  0  0
 43 48  1  0  0  0  0
 44 53  1  0  0  0  0
 45 55  1  0  0  0  0
 46 49  1  0  0  0  0
 46 52  1  0  0  0  0
 47 51  1  0  0  0  0
 47 56  1  0  0  0  0
 48 73  1  0  0  0  0
 49 74  1  0  0  0  0
 50 55  1  0  0  0  0
 50 73  1  0  0  0  0
 51 56  1  0  0  0  0
 52 74  1  0  0  0  0
 53 77  1  0  0  0  0
 54 72  1  0  0  0  0
 55 71  1  0  0  0  0
 56 86  1  0  0  0  0
 59 66  1  0  0  0  0
 60 66  1  0  0  0  0
 61 68  1  0  0  0  0
 62 69  1  0  0  0  0
 63 69  1  0  0  0  0
 64 69  1  0  0  0  0
 65 79  1  0  0  0  0
 67 69  1  0  0  0  0
 67 78  1  0  0  0  0
 68 79  1  0  0  0  0
 70 71  1  0  0  0  0
M  CHG  1  79   1
M  ISO  4  38 100  56 101  74 100  86 101
M  END
> <Batch ID>
0166

> <Smiles>
CNC(C)C(=O)NC(C(=O)N1Cc2cc([101O:1][101CH:1]3CC3c3cc(C(C)C)c(C4CC[100N:0]4[100C:0](=O)N4CCCC(n5nc(-c6ccc(Oc7ccc(F)cc7F)cc6)c(C(N)=O)c5N)C4)c(C)c3C)ccc2CC1C(=O)NC1CCCc2ccccc21)C(C)(C)C

> <Shape>
0.258

> <Color>
0.119

> <Negative vol penalty>
0.000

$$$$

  -OEChem-04052322243D

 87 97  0     1  0  0  0  0  0999 V2000
  -27.0719  -37.6666   24.1883 C   0  0  0  0  0  0  0  0  0  0  0  0
  -27.7704  -36.6691   23.5155 C   0  0  0  0  0  0  0  0  0  0  0  0
  -23.6445  -10.4796   22.4190 C   0  0  0  0  0  0  0  0  0  0  0  0
  -24.4810   -8.6116   21.1353 C   0  0  0  0  0  0  0  0  0  0  0  0
  -25.9422  -37.3408   24.9377 C   0  0  0  0  0  0  0  0  0  0  0  0
  -27.3402  -35.3450   23.5928 C   0  0  0  0  0  0  0  0  0  0  0  0
  -27.0624  -29.3298   19.7124 C   0  0  0  0  0  0  0  0  0  0  0  0
  -22.5035   -9.7458   22.7434 C   0  0  0  0  0  0  0  0  0  0  0  0
  -23.3401   -7.8777   21.4597 C   0  0  0  0  0  0  0  0  0  0  0  0
  -27.4065  -27.9810   19.7903 C   0  0  0  0  0  0  0  0  0  0  0  0
  -20.8150   -5.3830   22.2464 C   0  0  0  0  0  0  0  0  0  0  0  0
  -20.9871   -4.0570   22.6435 C   0  0  0  0  0  0  0  0  0  0  0  0
  -28.0856  -23.0553   18.9735 C   0  0  0  0  0  0  0  0  0  0  0  0
  -25.3957  -27.5471   21.0503 C   0  0  0  0  0  0  0  0  0  0  0  0
  -28.7004  -23.3673   21.2890 C   0  0  0  0  0  0  0  0  0  0  0  0
  -22.3503   -4.7896   24.4989 C   0  0  0  0  0  0  0  0  0  0  0  0
  -24.6332   -9.9126   21.6149 C   0  0  0  0  0  0  0  0  0  0  0  0
  -27.0229  -10.7205   21.9948 C   0  0  0  0  0  0  0  0  0  0  0  0
  -25.4924  -36.0134   25.0163 C   0  0  0  0  0  0  0  0  0  0  0  0
  -25.8859  -29.8001   20.3133 C   0  0  0  0  0  0  0  0  0  0  0  0
  -26.2042  -35.0009   24.3451 C   0  0  0  0  0  0  0  0  0  0  0  0
  -28.2568  -21.6781   19.1135 C   0  0  0  0  0  0  0  0  0  0  0  0
  -25.0377  -28.9019   20.9764 C   0  0  0  0  0  0  0  0  0  0  0  0
  -28.6498  -21.1455   20.3414 C   0  0  0  0  0  0  0  0  0  0  0  0
  -28.3075  -23.8999   20.0612 C   0  0  0  0  0  0  0  0  0  0  0  0
  -28.8716  -21.9900   21.4291 C   0  0  0  0  0  0  0  0  0  0  0  0
  -22.3513   -8.4448   22.2638 C   0  0  0  0  0  0  0  0  0  0  0  0
  -26.5746  -27.0899   20.4618 C   0  0  0  0  0  0  0  0  0  0  0  0
  -21.4106   -6.4124   22.9754 C   0  0  0  0  0  0  0  0  0  0  0  0
  -21.7547   -3.7603   23.7698 C   0  0  0  0  0  0  0  0  0  0  0  0
  -22.1782   -6.1156   24.1017 C   0  0  0  0  0  0  0  0  0  0  0  0
  -25.8118  -10.6703   21.2789 C   0  0  0  0  0  0  0  0  0  0  0  0
  -27.8163  -11.5742   21.2680 C   0  0  0  0  0  0  0  0  0  0  0  0
  -27.3973  -10.0548   23.2083 C   0  0  0  0  0  0  0  0  0  0  0  0
  -25.2237  -31.8834   22.6209 C   0  0  0  0  0  0  0  0  0  0  0  0
  -22.1591  -31.3053   21.7285 C   0  0  0  0  0  0  0  0  0  0  0  0
  -19.9189  -29.1902   20.2607 C   0  0  0  0  0  0  0  0  0  0  0  0
  -28.6561  -16.1460   18.3672 C   0  0  0  0  0  0  0  0  0  0  0  0
  -24.2936  -35.7029   25.8773 C   0  0  0  0  0  0  0  0  0  0  0  0
  -25.5155  -31.2533   20.1973 C   0  0  0  0  0  0  0  0  0  0  0  0
  -23.7533  -29.3527   21.6209 C   0  0  0  0  0  0  0  0  0  0  0  0
  -23.6859  -34.3297   25.6029 C   0  0  0  0  0  0  0  0  0  0  0  0
  -27.2049  -13.5217   16.6480 C   0  0  0  0  0  0  0  0  0  0  0  0
  -28.3621  -21.2996   16.5602 C   0  0  0  0  0  0  0  0  0  0  0  0
  -26.9263  -21.1606   16.9594 C   0  0  0  0  0  0  0  0  0  0  0  0
  -24.7780  -33.2673   25.5310 C   0  0  0  0  0  0  0  0  0  0  0  0
  -26.8085  -12.5400   17.7505 C   0  0  0  0  0  0  0  0  0  0  0  0
  -27.5258  -18.8757   20.2616 C   0  0  0  0  0  0  0  0  0  0  0  0
  -29.9541  -19.1086   19.5844 C   0  0  0  0  0  0  0  0  0  0  0  0
  -26.9155  -14.9585   17.0668 C   0  0  0  0  0  0  0  0  0  0  0  0
  -27.7287  -17.3630   20.3870 C   0  0  0  0  0  0  0  0  0  0  0  0
  -30.1060  -17.5994   19.7506 C   0  0  0  0  0  0  0  0  0  0  0  0
  -27.1907  -14.3868   19.4575 C   0  0  0  0  0  0  0  0  0  0  0  0
  -28.0131  -20.7947   17.9347 C   0  0  0  0  0  0  0  0  0  0  0  0
  -28.8366  -19.6479   20.4957 C   0  0  0  0  0  0  0  0  0  0  0  0
  -25.7544  -33.5565   24.3844 C   0  0  1  0  0  0  0  0  0  0  0  0
  -24.5525  -31.7133   21.2874 C   0  0  1  0  0  0  0  0  0  0  0  0
  -27.4690  -12.9154   19.0889 C   0  0  1  0  0  0  0  0  0  0  0  0
  -29.2932  -21.4451   22.7543 C   0  0  0  0  0  0  0  0  0  0  0  0
  -17.4793  -28.9756   19.7130 C   0  0  0  0  0  0  0  0  0  0  0  0
  -21.5628  -30.6562   24.6497 C   0  0  0  0  0  0  0  0  0  0  0  0
  -19.4404  -29.5600   23.9004 C   0  0  0  0  0  0  0  0  0  0  0  0
  -19.7938  -31.9961   23.4967 C   0  0  0  0  0  0  0  0  0  0  0  0
  -20.4649  -29.0453   17.3555 C   0  0  0  0  0  0  0  0  0  0  0  0
  -28.1248  -25.3724   19.9115 C   0  0  0  0  0  0  0  0  0  1  0  0
  -21.0969  -30.3120   22.1337 C   0  0  1  0  0  0  0  0  0  0  0  0
  -18.8434  -29.4288   19.2163 C   0  0  2  0  0  0  0  0  0  0  0  0
  -20.4986  -30.6226   23.5348 C   0  0  0  0  0  0  0  0  0  0  0  0
  -25.8295  -11.4317   20.1817 N   0  0  0  0  0  0  0  0  0  0  0  0
  -27.0614  -11.9684   20.2027 N   0  0  0  0  0  0  0  0  0  0  0  0
  -23.4380  -30.7845   21.4857 N   0  0  0  0  0  0  0  0  0  0  0  0
  -27.5565  -15.2748   18.3430 N   0  0  0  0  0  0  0  0  0  0  0  0
  -28.8331  -16.9144   19.5277 N   0  0  0  0  0  0  0  0  0  0  0  0
  -29.0790  -12.0186   21.4427 N   0  0  0  0  0  0  0  0  0  0  0  0
  -26.4615   -9.2131   23.8247 N   0  0  0  0  0  0  0  0  0  0  0  0
  -25.1726  -33.1724   23.1161 N   0  0  0  0  0  0  0  0  0  0  0  0
  -20.1157  -30.3006   21.0541 N   0  0  0  0  0  0  0  0  0  0  0  0
  -19.1603  -28.6818   17.9663 N   0  3  0  0  0  0  0  0  0  0  0  0
  -28.5224  -10.2149   23.7392 O   0  0  0  0  0  0  0  0  0  0  0  0
  -25.7478  -30.9164   23.1612 O   0  0  0  0  0  0  0  0  0  0  0  0
  -21.8632  -32.4982   21.6242 O   0  0  0  0  0  0  0  0  0  0  0  0
  -20.5214  -28.1240   20.3648 O   0  0  0  0  0  0  0  0  0  0  0  0
  -29.4346  -16.2321   17.4093 O   0  0  0  0  0  0  0  0  0  0  0  0
  -21.2382   -7.7283   22.5803 O   0  0  0  0  0  0  0  0  0  0  0  0
  -26.9106  -25.7639   20.5404 O   0  0  0  0  0  0  0  0  0  1  0  0
  -21.9186   -2.4870   24.1520 F   0  0  0  0  0  0  0  0  0  0  0  0
  -22.7519   -7.1003   24.8068 F   0  0  0  0  0  0  0  0  0  0  0  0
  1  2  1  0  0  0  0
  1  5  2  0  0  0  0
  2  6  2  0  0  0  0
  3  8  2  0  0  0  0
  3 17  1  0  0  0  0
  4  9  1  0  0  0  0
  4 17  2  0  0  0  0
  5 19  1  0  0  0  0
  6 21  1  0  0  0  0
  7 10  2  0  0  0  0
  7 20  1  0  0  0  0
  8 27  1  0  0  0  0
  9 27  2  0  0  0  0
 10 28  1  0  0  0  0
 11 12  2  0  0  0  0
 11 29  1  0  0  0  0
 12 30  1  0  0  0  0
 13 22  1  0  0  0  0
 13 25  2  0  0  0  0
 14 23  1  0  0  0  0
 14 28  2  0  0  0  0
 15 25  1  0  0  0  0
 15 26  2  0  0  0  0
 16 30  2  0  0  0  0
 16 31  1  0  0  0  0
 17 32  1  0  0  0  0
 18 32  1  0  0  0  0
 18 33  2  0  0  0  0
 18 34  1  0  0  0  0
 19 21  2  0  0  0  0
 19 39  1  0  0  0  0
 20 23  2  0  0  0  0
 20 40  1  0  0  0  0
 21 56  1  0  0  0  0
 22 24  2  0  0  0  0
 22 54  1  0  0  0  0
 23 41  1  0  0  0  0
 24 26  1  0  0  0  0
 24 55  1  0  0  0  0
 25 65  1  0  0  0  0
 26 59  1  0  0  0  0
 27 84  1  0  0  0  0
 28 85  1  0  0  0  0
 29 31  2  0  0  0  0
 29 84  1  0  0  0  0
 30 86  1  0  0  0  0
 31 87  1  0  0  0  0
 32 69  2  0  0  0  0
 33 70  1  0  0  0  0
 33 74  1  0  0  0  0
 34 75  1  0  0  0  0
 34 79  2  0  0  0  0
 35 57  1  0  0  0  0
 35 76  1  0  0  0  0
 35 80  2  0  0  0  0
 36 66  1  0  0  0  0
 36 71  1  0  0  0  0
 36 81  2  0  0  0  0
 37 67  1  0  0  0  0
 37 77  1  0  0  0  0
 37 82  2  0  0  0  0
 38 72  1  0  0  0  0
 38 73  1  0  0  0  0
 38 83  2  0  0  0  0
 39 42  1  0  0  0  0
 40 57  1  0  0  0  0
 41 71  1  0  0  0  0
 42 46  1  0  0  0  0
 43 47  1  0  0  0  0
 43 50  1  0  0  0  0
 44 45  1  0  0  0  0
 44 54  1  0  0  0  0
 45 54  1  0  0  0  0
 46 56  1  0  0  0  0
 47 58  1  0  0  0  0
 48 51  1  0  0  0  0
 48 55  1  0  0  0  0
 49 52  1  0  0  0  0
 49 55  1  0  0  0  0
 50 72  1  0  0  0  0
 51 73  1  0  0  0  0
 52 73  1  0  0  0  0
 53 58  1  0  0  0  0
 53 72  1  0  0  0  0
 56 76  1  0  0  0  0
 57 71  1  0  0  0  0
 58 70  1  0  0  0  0
 60 67  1  0  0  0  0
 61 68  1  0  0  0  0
 62 68  1  0  0  0  0
 63 68  1  0  0  0  0
 64 78  1  0  0  0  0
 65 85  1  0  0  0  0
 66 68  1  0  0  0  0
 66 77  1  0  0  0  0
 67 78  1  0  0  0  0
 69 70  1  0  0  0  0
M  CHG  1  78   1
M  ISO  4  38 100  65 101  73 100  85 101
M  END
> <Batch ID>
0166

> <Smiles>
CNC(C)C(=O)NC(C(=O)N1Cc2cc([101O:1][101CH2:1]c3cc(C)c(C4CC[100N:0]([100C:0](=O)N5CCCC(n6nc(-c7ccc(Oc8ccc(F)cc8F)cc7)c(C(N)=O)c6N)C5)CC4)c(C4CC4)c3)ccc2CC1C(=O)NC1CCCc2ccccc21)C(C)(C)C

> <Shape>
0.326

> <Color>
0.089

> <Negative vol penalty>
0.000

$$$$

  -OEChem-04052322243D

 88 98  0     1  0  0  0  0  0999 V2000
  -23.0340  -24.0327   19.3769 C   0  0  0  0  0  0  0  0  0  0  0  0
  -23.9678  -23.0354   19.1191 C   0  0  0  0  0  0  0  0  0  0  0  0
  -22.5799  -29.3367   19.6783 C   0  0  0  0  0  0  0  0  0  0  0  0
  -22.4411  -27.6957   21.4460 C   0  0  0  0  0  0  0  0  0  0  0  0
  -22.0180  -23.8082   20.3035 C   0  0  0  0  0  0  0  0  0  0  0  0
  -23.8789  -21.8092   19.7789 C   0  0  0  0  0  0  0  0  0  0  0  0
  -26.9628  -18.2615   18.3275 C   0  0  0  0  0  0  0  0  0  0  0  0
  -21.2074  -29.5631   19.7807 C   0  0  0  0  0  0  0  0  0  0  0  0
  -21.0685  -27.9222   21.5484 C   0  0  0  0  0  0  0  0  0  0  0  0
  -28.3285  -18.2894   18.6065 C   0  0  0  0  0  0  0  0  0  0  0  0
  -17.5894  -28.3286   22.5225 C   0  0  0  0  0  0  0  0  0  0  0  0
  -17.0474  -28.4647   23.8005 C   0  0  0  0  0  0  0  0  0  0  0  0
  -28.0012  -16.6480   20.3437 C   0  0  0  0  0  0  0  0  0  0  0  0
  -30.8680  -20.1288   22.1536 C   0  0  0  0  0  0  0  0  0  0  0  0
  -18.4781  -30.3693   24.2044 C   0  0  0  0  0  0  0  0  0  0  0  0
  -23.1968  -28.4029   20.5109 C   0  0  0  0  0  0  0  0  0  0  0  0
  -25.6406  -28.8329   21.1032 C   0  0  0  0  0  0  0  0  0  0  0  0
  -21.9247  -22.5829   20.9837 C   0  0  0  0  0  0  0  0  0  0  0  0
  -26.1029  -17.4333   19.0632 C   0  0  0  0  0  0  0  0  0  0  0  0
  -22.8466  -21.5548   20.7000 C   0  0  0  0  0  0  0  0  0  0  0  0
  -26.6253  -16.6095   20.0704 C   0  0  0  0  0  0  0  0  0  0  0  0
  -32.6423  -20.1249   20.5138 C   0  0  0  0  0  0  0  0  0  0  0  0
  -31.8068  -19.4338   21.3913 C   0  0  0  0  0  0  0  0  0  0  0  0
  -30.7646  -21.5151   22.0383 C   0  0  0  0  0  0  0  0  0  0  0  0
  -32.5389  -21.5112   20.3985 C   0  0  0  0  0  0  0  0  0  0  0  0
  -31.6000  -22.2063   21.1608 C   0  0  0  0  0  0  0  0  0  0  0  0
  -20.4517  -28.8559   20.7157 C   0  0  0  0  0  0  0  0  0  0  0  0
  -28.8475  -17.4848   19.6166 C   0  0  0  0  0  0  0  0  0  0  0  0
  -18.5758  -29.2128   22.0854 C   0  0  0  0  0  0  0  0  0  0  0  0
  -17.4917  -29.4851   24.6414 C   0  0  0  0  0  0  0  0  0  0  0  0
  -19.0201  -30.2331   22.9264 C   0  0  0  0  0  0  0  0  0  0  0  0
  -24.6145  -28.1682   20.4053 C   0  0  0  0  0  0  0  0  0  0  0  0
  -26.7980  -28.2473   20.6517 C   0  0  0  0  0  0  0  0  0  0  0  0
  -25.5550  -29.8854   22.0730 C   0  0  0  0  0  0  0  0  0  0  0  0
  -23.6100  -17.9209   20.9740 C   0  0  0  0  0  0  0  0  0  0  0  0
  -23.4342  -14.6822   20.9252 C   0  0  0  0  0  0  0  0  0  0  0  0
  -25.0299  -11.7007   20.4655 C   0  0  0  0  0  0  0  0  0  0  0  0
  -29.7407  -23.7094   19.2758 C   0  0  0  0  0  0  0  0  0  0  0  0
  -20.8003  -22.3907   21.9707 C   0  0  0  0  0  0  0  0  0  0  0  0
  -24.6362  -17.3949   18.7321 C   0  0  0  0  0  0  0  0  0  0  0  0
  -25.7476  -15.6877   20.8756 C   0  0  0  0  0  0  0  0  0  0  0  0
  -21.0483  -21.2371   22.9371 C   0  0  0  0  0  0  0  0  0  0  0  0
  -27.5963  -25.0826   16.7873 C   0  0  0  0  0  0  0  0  0  0  0  0
  -33.6341  -19.5366   18.2021 C   0  0  0  0  0  0  0  0  0  0  0  0
  -33.1799  -18.2503   18.8182 C   0  0  0  0  0  0  0  0  0  0  0  0
  -21.4630  -19.9930   22.1659 C   0  0  0  0  0  0  0  0  0  0  0  0
  -33.1231  -24.3051   22.9827 C   0  0  0  0  0  0  0  0  0  0  0  0
  -32.6417  -25.6032   22.3970 C   0  0  0  0  0  0  0  0  0  0  0  0
  -26.7105  -26.0574   17.5652 C   0  0  0  0  0  0  0  0  0  0  0  0
  -27.9152  -23.8335   17.6059 C   0  0  0  0  0  0  0  0  0  0  0  0
  -27.6077  -25.0710   19.7148 C   0  0  0  0  0  0  0  0  0  0  0  0
  -33.6483  -19.3770   19.6974 C   0  0  0  0  0  0  0  0  0  0  0  0
  -22.7878  -20.2241   21.4281 C   0  0  1  0  0  0  0  0  0  0  0  0
  -23.7755  -16.8954   19.8884 C   0  0  1  0  0  0  0  0  0  0  0  0
  -31.7602  -24.3859   22.3527 C   0  0  0  0  0  0  0  0  0  0  0  0
  -27.3051  -26.3716   18.9511 C   0  0  2  0  0  0  0  0  0  0  0  0
  -29.7509  -22.2354   22.8658 C   0  0  0  0  0  0  0  0  0  0  0  0
  -33.4343  -22.2544   19.4577 C   0  0  0  0  0  0  0  0  0  0  0  0
  -24.6333   -9.2237   20.5305 C   0  0  0  0  0  0  0  0  0  0  0  0
  -23.4672  -14.7594   23.9753 C   0  0  0  0  0  0  0  0  0  0  0  0
  -24.0251  -12.3187   23.9616 C   0  0  0  0  0  0  0  0  0  0  0  0
  -21.8672  -13.1085   22.9907 C   0  0  0  0  0  0  0  0  0  0  0  0
  -25.7348  -11.3959   17.6074 C   0  0  0  0  0  0  0  0  0  0  0  0
  -31.8965  -17.9340   21.5364 C   0  0  0  0  0  0  0  0  0  0  0  0
  -30.5710  -17.2422   21.2372 C   0  0  0  0  0  0  0  0  0  1  0  0
  -31.4868  -23.6931   21.0393 C   0  0  2  0  0  0  0  0  0  0  0  0
  -24.0242  -13.5669   21.7541 C   0  0  1  0  0  0  0  0  0  0  0  0
  -24.6533  -10.4705   19.6599 C   0  0  2  0  0  0  0  0  0  0  0  0
  -23.3624  -13.4571   23.1567 C   0  0  0  0  0  0  0  0  0  0  0  0
  -25.0792  -27.2321   19.5735 N   0  0  0  0  0  0  0  0  0  0  0  0
  -26.4100  -27.3045   19.7458 N   0  0  0  0  0  0  0  0  0  0  0  0
  -24.3194  -15.6906   20.5185 N   0  0  0  0  0  0  0  0  0  0  0  0
  -28.4773  -24.2008   18.9078 N   0  0  0  0  0  0  0  0  0  0  0  0
  -28.0997  -28.4522   20.9451 N   0  0  0  0  0  0  0  0  0  0  0  0
  -24.2874  -30.3704   22.4226 N   0  0  0  0  0  0  0  0  0  0  0  0
  -23.0392  -19.1048   20.5473 N   0  0  0  0  0  0  0  0  0  0  0  0
  -23.9165  -12.3570   20.9461 N   0  0  0  0  0  0  0  0  0  0  0  0
  -30.2022  -24.1109   20.5234 N   0  0  0  0  0  0  0  0  0  0  0  0
  -25.6298  -10.2563   18.5546 N   0  3  0  0  0  0  0  0  0  0  0  0
  -26.5735  -30.3925   22.6013 O   0  0  0  0  0  0  0  0  0  0  0  0
  -23.9720  -17.6571   22.1147 O   0  0  0  0  0  0  0  0  0  0  0  0
  -22.2337  -14.6559   20.6429 O   0  0  0  0  0  0  0  0  0  0  0  0
  -26.1953  -12.0431   20.6531 O   0  0  0  0  0  0  0  0  0  0  0  0
  -30.4101  -22.9720   18.5444 O   0  0  0  0  0  0  0  0  0  0  0  0
  -19.1124  -29.0768   20.8161 O   0  0  0  0  0  0  0  0  0  0  0  0
  -30.1801  -17.5105   19.8913 O   0  0  0  0  0  0  0  0  0  1  0  0
  -16.9700  -29.6166   25.8681 F   0  0  0  0  0  0  0  0  0  0  0  0
  -19.9667  -31.0863   22.5116 F   0  0  0  0  0  0  0  0  0  0  0  0
  1  2  1  0  0  0  0
  1  5  2  0  0  0  0
  2  6  2  0  0  0  0
  3  8  2  0  0  0  0
  3 16  1  0  0  0  0
  4  9  1  0  0  0  0
  4 16  2  0  0  0  0
  5 18  1  0  0  0  0
  6 20  1  0  0  0  0
  7 10  2  0  0  0  0
  7 19  1  0  0  0  0
  8 27  1  0  0  0  0
  9 27  2  0  0  0  0
 10 28  1  0  0  0  0
 11 12  2  0  0  0  0
 11 29  1  0  0  0  0
 12 30  1  0  0  0  0
 13 21  1  0  0  0  0
 13 28  2  0  0  0  0
 14 23  1  0  0  0  0
 14 24  2  0  0  0  0
 15 30  2  0  0  0  0
 15 31  1  0  0  0  0
 16 32  1  0  0  0  0
 17 32  1  0  0  0  0
 17 33  2  0  0  0  0
 17 34  1  0  0  0  0
 18 20  2  0  0  0  0
 18 39  1  0  0  0  0
 19 21  2  0  0  0  0
 19 40  1  0  0  0  0
 20 53  1  0  0  0  0
 21 41  1  0  0  0  0
 22 23  2  0  0  0  0
 22 25  1  0  0  0  0
 22 52  1  0  0  0  0
 23 64  1  0  0  0  0
 24 26  1  0  0  0  0
 24 57  1  0  0  0  0
 25 26  2  0  0  0  0
 25 58  1  0  0  0  0
 26 66  1  0  0  0  0
 27 85  1  0  0  0  0
 28 86  1  0  0  0  0
 29 31  2  0  0  0  0
 29 85  1  0  0  0  0
 30 87  1  0  0  0  0
 31 88  1  0  0  0  0
 32 70  2  0  0  0  0
 33 71  1  0  0  0  0
 33 74  1  0  0  0  0
 34 75  1  0  0  0  0
 34 80  2  0  0  0  0
 35 54  1  0  0  0  0
 35 76  1  0  0  0  0
 35 81  2  0  0  0  0
 36 67  1  0  0  0  0
 36 72  1  0  0  0  0
 36 82  2  0  0  0  0
 37 68  1  0  0  0  0
 37 77  1  0  0  0  0
 37 83  2  0  0  0  0
 38 73  1  0  0  0  0
 38 78  1  0  0  0  0
 38 84  2  0  0  0  0
 39 42  1  0  0  0  0
 40 54  1  0  0  0  0
 41 72  1  0  0  0  0
 42 46  1  0  0  0  0
 43 49  1  0  0  0  0
 43 50  1  0  0  0  0
 44 45  1  0  0  0  0
 44 52  1  0  0  0  0
 45 52  1  0  0  0  0
 46 53  1  0  0  0  0
 47 48  1  0  0  0  0
 47 55  1  0  0  0  0
 48 55  1  0  0  0  0
 49 56  1  0  0  0  0
 50 73  1  0  0  0  0
 51 56  1  0  0  0  0
 51 73  1  0  0  0  0
 53 76  1  0  0  0  0
 54 72  1  0  0  0  0
 55 66  1  0  0  0  0
 56 71  1  0  0  0  0
 59 68  1  0  0  0  0
 60 69  1  0  0  0  0
 61 69  1  0  0  0  0
 62 69  1  0  0  0  0
 63 79  1  0  0  0  0
 64 65  1  0  0  0  0
 65 86  1  0  0  0  0
 66 78  1  0  0  0  0
 67 69  1  0  0  0  0
 67 77  1  0  0  0  0
 68 79  1  0  0  0  0
 70 71  1  0  0  0  0
M  CHG  1  79   1
M  ISO  4  38 100  65 101  78 100  86 101
M  END
> <Batch ID>
0166

> <Smiles>
CNC(C)C(=O)NC(C(=O)N1Cc2cc([101O:1][101CH2:1]Cc3cc(C)c(C([100NH:0][100C:0](=O)N4CCCC(n5nc(-c6ccc(Oc7ccc(F)cc7F)cc6)c(C(N)=O)c5N)C4)C4CC4)c(C)c3C3CC3)ccc2CC1C(=O)NC1CCCc2ccccc21)C(C)(C)C

> <Shape>
0.213

> <Color>
0.093

> <Negative vol penalty>
0.000

$$$$

  -OEChem-04052322243D

 86 95  0     1  0  0  0  0  0999 V2000
  -22.7433  -35.2156   15.5520 C   0  0  0  0  0  0  0  0  0  0  0  0
  -23.4746  -34.0337   15.6138 C   0  0  0  0  0  0  0  0  0  0  0  0
  -26.6074   -9.2301   19.6975 C   0  0  0  0  0  0  0  0  0  0  0  0
  -25.8484   -9.1225   21.9886 C   0  0  0  0  0  0  0  0  0  0  0  0
  -22.7403  -36.0897   16.6382 C   0  0  0  0  0  0  0  0  0  0  0  0
  -24.2043  -33.7258   16.7615 C   0  0  0  0  0  0  0  0  0  0  0  0
  -25.1559  -28.1617   19.1367 C   0  0  0  0  0  0  0  0  0  0  0  0
  -27.2491   -8.0013   19.8524 C   0  0  0  0  0  0  0  0  0  0  0  0
  -26.4901   -7.8937   22.1435 C   0  0  0  0  0  0  0  0  0  0  0  0
  -26.2296  -27.2765   19.0513 C   0  0  0  0  0  0  0  0  0  0  0  0
  -25.9134   -4.6645   21.3309 C   0  0  0  0  0  0  0  0  0  0  0  0
  -25.2102   -3.6440   21.9709 C   0  0  0  0  0  0  0  0  0  0  0  0
  -27.0814  -28.1169   21.1459 C   0  0  0  0  0  0  0  0  0  0  0  0
  -26.9193   -3.5349   23.6750 C   0  0  0  0  0  0  0  0  0  0  0  0
  -25.9071   -9.7907   20.7657 C   0  0  0  0  0  0  0  0  0  0  0  0
  -23.9215  -11.2809   20.1787 C   0  0  0  0  0  0  0  0  0  0  0  0
  -23.4626  -35.7877   17.8035 C   0  0  0  0  0  0  0  0  0  0  0  0
  -25.0425  -29.0403   20.2238 C   0  0  0  0  0  0  0  0  0  0  0  0
  -24.2121  -34.5974   17.8638 C   0  0  0  0  0  0  0  0  0  0  0  0
  -26.0039  -29.0106   21.2440 C   0  0  0  0  0  0  0  0  0  0  0  0
  -31.6140  -23.0187   19.1075 C   0  0  0  0  0  0  0  0  0  0  0  0
  -27.1904   -7.3331   21.0754 C   0  0  0  0  0  0  0  0  0  0  0  0
  -27.1941  -27.2560   20.0545 C   0  0  0  0  0  0  0  0  0  0  0  0
  -27.1197   -5.1202   21.8629 C   0  0  0  0  0  0  0  0  0  0  0  0
  -25.7131   -3.0792   23.1429 C   0  0  0  0  0  0  0  0  0  0  0  0
  -27.6226   -4.5554   23.0349 C   0  0  0  0  0  0  0  0  0  0  0  0
  -25.2445  -11.0602   20.6065 C   0  0  0  0  0  0  0  0  0  0  0  0
  -31.7292  -24.3529   18.7745 C   0  0  0  0  0  0  0  0  0  0  0  0
  -30.3303  -22.5711   19.3441 C   0  0  0  0  0  0  0  0  0  0  0  0
  -23.7784  -12.6468   20.1963 C   0  0  0  0  0  0  0  0  0  0  0  0
  -29.4795  -24.6381   18.9311 C   0  0  0  0  0  0  0  0  0  0  0  0
  -22.9123  -10.3358   19.7995 C   0  0  0  0  0  0  0  0  0  0  0  0
  -25.0134  -32.2010   20.5598 C   0  0  0  0  0  0  0  0  0  0  0  0
  -24.3409  -31.4759   23.6492 C   0  0  0  0  0  0  0  0  0  0  0  0
  -24.5083  -29.2103   26.1959 C   0  0  0  0  0  0  0  0  0  0  0  0
  -27.4420  -17.0743   19.5936 C   0  0  0  0  0  0  0  0  0  0  0  0
  -23.4671  -36.7861   18.9339 C   0  0  0  0  0  0  0  0  0  0  0  0
  -23.8641  -29.9706   20.3145 C   0  0  0  0  0  0  0  0  0  0  0  0
  -25.9173  -29.9193   22.4420 C   0  0  0  0  0  0  0  0  0  0  0  0
  -23.9649  -36.2073   20.2558 C   0  0  0  0  0  0  0  0  0  0  0  0
  -25.4017  -16.5621   22.4037 C   0  0  0  0  0  0  0  0  0  0  0  0
  -25.2433  -35.4038   20.0391 C   0  0  0  0  0  0  0  0  0  0  0  0
  -24.9949  -15.1002   22.2209 C   0  0  0  0  0  0  0  0  0  0  0  0
  -27.7443  -20.7690   19.6639 C   0  0  0  0  0  0  0  0  0  0  0  0
  -29.2865  -19.7823   21.4125 C   0  0  0  0  0  0  0  0  0  0  0  0
  -26.8703  -16.7972   22.0463 C   0  0  0  0  0  0  0  0  0  0  0  0
  -27.7589  -19.4288   18.9303 C   0  0  0  0  0  0  0  0  0  0  0  0
  -29.2688  -18.4668   20.6374 C   0  0  0  0  0  0  0  0  0  0  0  0
  -26.8381  -14.8556   20.5148 C   0  0  0  0  0  0  0  0  0  0  0  0
  -24.9962  -34.2164   19.1008 C   0  0  1  0  0  0  0  0  0  0  0  0
  -24.1240  -31.1787   21.2091 C   0  0  1  0  0  0  0  0  0  0  0  0
  -25.3520  -14.5995   20.8100 C   0  0  1  0  0  0  0  0  0  0  0  0
  -28.9939  -20.9878   20.5176 C   0  0  0  0  0  0  0  0  0  0  0  0
  -32.7930  -22.1176   19.2065 C   0  0  0  0  0  0  0  0  0  0  0  0
  -33.0696  -24.9497   18.4965 C   0  0  0  0  0  0  0  0  0  0  0  0
  -23.9074  -28.9175   28.6147 C   0  0  0  0  0  0  0  0  0  0  0  0
  -26.6973  -33.2429   24.4460 C   0  0  0  0  0  0  0  0  0  0  0  0
  -26.6412  -32.1767   26.7106 C   0  0  0  0  0  0  0  0  0  0  0  0
  -24.6761  -33.4817   25.8993 C   0  0  0  0  0  0  0  0  0  0  0  0
  -22.7239  -26.9266   25.5961 C   0  0  0  0  0  0  0  0  0  0  0  0
  -28.2942  -25.5374   18.8330 C   0  0  0  0  0  0  0  0  0  1  0  0
  -25.1615  -31.2153   24.8892 C   0  0  1  0  0  0  0  0  0  0  0  0
  -23.4589  -28.7166   27.1755 C   0  0  2  0  0  0  0  0  0  0  0  0
  -25.7970  -32.5132   25.4628 C   0  0  0  0  0  0  0  0  0  0  0  0
  -25.8954  -12.1950   20.8759 N   0  0  0  0  0  0  0  0  0  0  0  0
  -30.6792  -25.1945   18.6769 N   0  0  0  0  0  0  0  0  0  0  0  0
  -29.2360  -23.3563   19.2647 N   0  0  0  0  0  0  0  0  0  0  0  0
  -24.9776  -13.1420   20.6168 N   0  0  0  0  0  0  0  0  0  0  0  0
  -24.7497  -30.8152   22.4821 N   0  0  0  0  0  0  0  0  0  0  0  0
  -27.1718  -16.2681   20.7095 N   0  0  0  0  0  0  0  0  0  0  0  0
  -28.0431  -18.3201   19.8408 N   0  0  0  0  0  0  0  0  0  0  0  0
  -22.7449  -13.4607   19.8929 N   0  0  0  0  0  0  0  0  0  0  0  0
  -23.2269   -8.9706   19.8389 N   0  0  0  0  0  0  0  0  0  0  0  0
  -24.3345  -33.1417   19.8090 N   0  0  0  0  0  0  0  0  0  0  0  0
  -24.2823  -30.5180   25.8214 N   0  0  0  0  0  0  0  0  0  0  0  0
  -23.1948  -27.2653   26.9638 N   0  3  0  0  0  0  0  0  0  0  0  0
  -21.7707  -10.6921   19.4208 O   0  0  0  0  0  0  0  0  0  0  0  0
  -26.2257  -32.1417   20.7287 O   0  0  0  0  0  0  0  0  0  0  0  0
  -23.3685  -32.2320   23.7154 O   0  0  0  0  0  0  0  0  0  0  0  0
  -25.4377  -28.5075   25.8050 O   0  0  0  0  0  0  0  0  0  0  0  0
  -27.1612  -16.7075   18.4457 O   0  0  0  0  0  0  0  0  0  0  0  0
  -27.8163   -6.1340   21.2268 O   0  0  0  0  0  0  0  0  0  0  0  0
  -28.2506  -26.3875   19.9727 O   0  0  0  0  0  0  0  0  0  1  0  0
  -30.1162  -21.2606   19.6814 O   0  0  0  0  0  0  0  0  0  0  0  0
  -25.0369   -2.1003   23.7582 F   0  0  0  0  0  0  0  0  0  0  0  0
  -28.7803   -4.9898   23.5515 F   0  0  0  0  0  0  0  0  0  0  0  0
  1  2  1  0  0  0  0
  1  5  2  0  0  0  0
  2  6  2  0  0  0  0
  3  8  2  0  0  0  0
  3 15  1  0  0  0  0
  4  9  1  0  0  0  0
  4 15  2  0  0  0  0
  5 17  1  0  0  0  0
  6 19  1  0  0  0  0
  7 10  2  0  0  0  0
  7 18  1  0  0  0  0
  8 22  1  0  0  0  0
  9 22  2  0  0  0  0
 10 23  1  0  0  0  0
 11 12  2  0  0  0  0
 11 24  1  0  0  0  0
 12 25  1  0  0  0  0
 13 20  1  0  0  0  0
 13 23  2  0  0  0  0
 14 25  2  0  0  0  0
 14 26  1  0  0  0  0
 15 27  1  0  0  0  0
 16 27  1  0  0  0  0
 16 30  2  0  0  0  0
 16 32  1  0  0  0  0
 17 19  2  0  0  0  0
 17 37  1  0  0  0  0
 18 20  2  0  0  0  0
 18 38  1  0  0  0  0
 19 50  1  0  0  0  0
 20 39  1  0  0  0  0
 21 28  1  0  0  0  0
 21 29  2  0  0  0  0
 21 54  1  0  0  0  0
 22 82  1  0  0  0  0
 23 83  1  0  0  0  0
 24 26  2  0  0  0  0
 24 82  1  0  0  0  0
 25 85  1  0  0  0  0
 26 86  1  0  0  0  0
 27 65  2  0  0  0  0
 28 55  1  0  0  0  0
 28 66  2  0  0  0  0
 29 67  1  0  0  0  0
 29 84  1  0  0  0  0
 30 68  1  0  0  0  0
 30 72  1  0  0  0  0
 31 61  1  0  0  0  0
 31 66  1  0  0  0  0
 31 67  2  0  0  0  0
 32 73  1  0  0  0  0
 32 77  2  0  0  0  0
 33 51  1  0  0  0  0
 33 74  1  0  0  0  0
 33 78  2  0  0  0  0
 34 62  1  0  0  0  0
 34 69  1  0  0  0  0
 34 79  2  0  0  0  0
 35 63  1  0  0  0  0
 35 75  1  0  0  0  0
 35 80  2  0  0  0  0
 36 70  1  0  0  0  0
 36 71  1  0  0  0  0
 36 81  2  0  0  0  0
 37 40  1  0  0  0  0
 38 51  1  0  0  0  0
 39 69  1  0  0  0  0
 40 42  1  0  0  0  0
 41 43  1  0  0  0  0
 41 46  1  0  0  0  0
 42 50  1  0  0  0  0
 43 52  1  0  0  0  0
 44 47  1  0  0  0  0
 44 53  1  0  0  0  0
 45 48  1  0  0  0  0
 45 53  1  0  0  0  0
 46 70  1  0  0  0  0
 47 71  1  0  0  0  0
 48 71  1  0  0  0  0
 49 52  1  0  0  0  0
 49 70  1  0  0  0  0
 50 74  1  0  0  0  0
 51 69  1  0  0  0  0
 52 68  1  0  0  0  0
 53 84  1  0  0  0  0
 56 63  1  0  0  0  0
 57 64  1  0  0  0  0
 58 64  1  0  0  0  0
 59 64  1  0  0  0  0
 60 76  1  0  0  0  0
 61 83  1  0  0  0  0
 62 64  1  0  0  0  0
 62 75  1  0  0  0  0
 63 76  1  0  0  0  0
 65 68  1  0  0  0  0
M  CHG  1  76   1
M  ISO  4  36 100  61 101  71 100  83 101
M  END
> <Batch ID>
0166

> <Smiles>
CNC(C)C(=O)NC(C(=O)N1Cc2cc([101O:1][101CH2:1]c3nc(C)c(C)c(OC4CC[100N:0]([100C:0](=O)N5CCCC(n6nc(-c7ccc(Oc8ccc(F)cc8F)cc7)c(C(N)=O)c6N)C5)CC4)n3)ccc2CC1C(=O)NC1CCCc2ccccc21)C(C)(C)C

> <Shape>
0.244

> <Color>
0.132

> <Negative vol penalty>
0.000

$$$$

  -OEChem-04052322243D

 91101  0     1  0  0  0  0  0999 V2000
  -30.0003  -31.3519   22.6423 C   0  0  0  0  0  0  0  0  0  0  0  0
  -29.3912  -30.1273   22.3877 C   0  0  0  0  0  0  0  0  0  0  0  0
  -24.4971   -9.0696   22.4369 C   0  0  0  0  0  0  0  0  0  0  0  0
  -23.9364   -9.2746   20.0958 C   0  0  0  0  0  0  0  0  0  0  0  0
  -29.2799  -32.3719   23.2623 C   0  0  0  0  0  0  0  0  0  0  0  0
  -28.0616  -29.9216   22.7541 C   0  0  0  0  0  0  0  0  0  0  0  0
  -25.3750  -27.6403   19.1178 C   0  0  0  0  0  0  0  0  0  0  0  0
  -31.0355  -22.8688   23.1510 C   0  0  0  0  0  0  0  0  0  0  0  0
  -23.3521   -8.3003   22.6438 C   0  0  0  0  0  0  0  0  0  0  0  0
  -22.7914   -8.5052   20.3027 C   0  0  0  0  0  0  0  0  0  0  0  0
  -25.5404  -26.2636   18.9726 C   0  0  0  0  0  0  0  0  0  0  0  0
  -30.4497  -21.6705   22.7430 C   0  0  0  0  0  0  0  0  0  0  0  0
  -22.3734   -5.1039   22.1359 C   0  0  0  0  0  0  0  0  0  0  0  0
  -22.5002   -3.9464   22.9039 C   0  0  0  0  0  0  0  0  0  0  0  0
  -23.4971  -25.8947   20.2006 C   0  0  0  0  0  0  0  0  0  0  0  0
  -20.8947   -4.8192   24.4843 C   0  0  0  0  0  0  0  0  0  0  0  0
  -24.7892   -9.5568   21.1629 C   0  0  0  0  0  0  0  0  0  0  0  0
  -27.3069   -9.9676   21.1740 C   0  0  0  0  0  0  0  0  0  0  0  0
  -27.9379  -32.1819   23.6278 C   0  0  0  0  0  0  0  0  0  0  0  0
  -24.2733  -28.1551   19.8161 C   0  0  0  0  0  0  0  0  0  0  0  0
  -27.3230  -30.9396   23.3809 C   0  0  0  0  0  0  0  0  0  0  0  0
  -23.3187  -27.2784   20.3511 C   0  0  0  0  0  0  0  0  0  0  0  0
  -28.3644  -22.8247   22.3471 C   0  0  0  0  0  0  0  0  0  0  0  0
  -30.2858  -24.0450   23.1571 C   0  0  0  0  0  0  0  0  0  0  0  0
  -22.4993   -8.0181   21.5767 C   0  0  0  0  0  0  0  0  0  0  0  0
  -24.6029  -25.3905   19.5165 C   0  0  0  0  0  0  0  0  0  0  0  0
  -29.1141  -21.6484   22.3410 C   0  0  0  0  0  0  0  0  0  0  0  0
  -21.5074   -6.1191   22.5421 C   0  0  0  0  0  0  0  0  0  0  0  0
  -28.9503  -24.0230   22.7552 C   0  0  0  0  0  0  0  0  0  0  0  0
  -21.7608   -3.8041   24.0781 C   0  0  0  0  0  0  0  0  0  0  0  0
  -20.7680   -5.9767   23.7163 C   0  0  0  0  0  0  0  0  0  0  0  0
  -25.9715  -10.3520   20.9487 C   0  0  0  0  0  0  0  0  0  0  0  0
  -28.0459  -11.0697   20.8195 C   0  0  0  0  0  0  0  0  0  0  0  0
  -27.8323   -8.7253   21.6601 C   0  0  0  0  0  0  0  0  0  0  0  0
  -23.9014  -29.9096   22.4405 C   0  0  0  0  0  0  0  0  0  0  0  0
  -20.7827  -29.8789   21.5487 C   0  0  0  0  0  0  0  0  0  0  0  0
  -18.4459  -27.4697   20.2250 C   0  0  0  0  0  0  0  0  0  0  0  0
  -28.8785  -16.4801   21.1457 C   0  0  0  0  0  0  0  0  0  0  0  0
  -27.2140  -33.2980   24.3385 C   0  0  0  0  0  0  0  0  0  0  0  0
  -24.0952  -29.6435   19.9410 C   0  0  0  0  0  0  0  0  0  0  0  0
  -22.1076  -27.7810   21.0922 C   0  0  0  0  0  0  0  0  0  0  0  0
  -25.6973  -33.1260   24.3565 C   0  0  0  0  0  0  0  0  0  0  0  0
  -26.7437  -15.2925   18.4051 C   0  0  0  0  0  0  0  0  0  0  0  0
  -25.9999  -21.9198   22.7895 C   0  0  0  0  0  0  0  0  0  0  0  0
  -25.3264  -31.7003   24.7523 C   0  0  0  0  0  0  0  0  0  0  0  0
  -26.4140  -13.8823   18.8825 C   0  0  0  0  0  0  0  0  0  0  0  0
  -24.9632  -21.2746   21.8631 C   0  0  0  0  0  0  0  0  0  0  0  0
  -26.6211  -22.3018   20.4855 C   0  0  0  0  0  0  0  0  0  0  0  0
  -26.8862  -16.2809   19.5633 C   0  0  0  0  0  0  0  0  0  0  0  0
  -27.5151  -14.4229   21.0819 C   0  0  0  0  0  0  0  0  0  0  0  0
  -30.1503  -18.6874   21.1468 C   0  0  0  0  0  0  0  0  0  0  0  0
  -28.3099  -18.7953   20.0717 C   0  0  0  0  0  0  0  0  0  0  0  0
  -26.9135  -22.7990   21.9103 C   0  0  2  0  0  0  0  0  0  0  0  0
  -25.8751  -30.6865   23.7411 C   0  0  1  0  0  0  0  0  0  0  0  0
  -23.2064  -30.0425   21.1149 C   0  0  1  0  0  0  0  0  0  0  0  0
  -27.4390  -13.4153   19.9264 C   0  0  1  0  0  0  0  0  0  0  0  0
  -29.1751  -19.8222   20.8154 C   0  0  0  0  0  0  0  0  0  0  0  0
  -25.1248  -21.9541   20.4967 C   0  0  1  0  0  0  0  0  0  0  0  0
  -30.9313  -25.3174   23.5976 C   0  0  0  0  0  0  0  0  0  0  0  0
  -24.7651  -21.0072   19.3486 C   0  0  0  0  0  0  0  0  0  0  0  0
  -16.3979  -27.7899   18.8106 C   0  0  0  0  0  0  0  0  0  0  0  0
  -19.2979  -29.8940   24.2143 C   0  0  0  0  0  0  0  0  0  0  0  0
  -17.4539  -28.6058   23.1149 C   0  0  0  0  0  0  0  0  0  0  0  0
  -18.0275  -30.8950   22.3068 C   0  0  0  0  0  0  0  0  0  0  0  0
  -19.4434  -25.6060   18.1535 C   0  0  0  0  0  0  0  0  0  0  0  0
  -28.2287  -25.9526   21.5670 C   0  0  0  0  0  0  0  0  0  0  0  0
  -24.2458  -23.2121   20.4013 C   0  0  0  0  0  0  0  0  0  1  0  0
  -19.6021  -28.9779   21.8196 C   0  0  1  0  0  0  0  0  0  0  0  0
  -17.8764  -27.4340   18.8183 C   0  0  2  0  0  0  0  0  0  0  0  0
  -18.6220  -29.5832   22.8639 C   0  0  0  0  0  0  0  0  0  0  0  0
  -25.8653  -11.6008   20.4870 N   0  0  0  0  0  0  0  0  0  0  0  0
  -27.1434  -12.0107   20.4193 N   0  0  0  0  0  0  0  0  0  0  0  0
  -21.9813  -29.2443   21.1932 N   0  0  0  0  0  0  0  0  0  0  0  0
  -27.7942  -15.7820   20.6029 N   0  0  0  0  0  0  0  0  0  0  0  0
  -29.1129  -17.7631   20.7053 N   0  0  0  0  0  0  0  0  0  0  0  0
  -29.3732  -11.3160   20.8142 N   0  0  0  0  0  0  0  0  0  0  0  0
  -28.1509   -7.7254   20.7311 N   0  0  0  0  0  0  0  0  0  0  0  0
  -25.0531  -30.6651   22.5501 N   0  0  0  0  0  0  0  0  0  0  0  0
  -18.9956  -28.6988   20.5225 N   0  0  0  0  0  0  0  0  0  0  0  0
  -18.0355  -26.0743   18.2293 N   0  3  0  0  0  0  0  0  0  0  0  0
  -27.9985   -8.5024   22.8833 O   0  0  0  0  0  0  0  0  0  0  0  0
  -23.4269  -29.1771   23.3006 O   0  0  0  0  0  0  0  0  0  0  0  0
  -20.6445  -31.1012   21.6420 O   0  0  0  0  0  0  0  0  0  0  0  0
  -18.4038  -26.5050   20.9853 O   0  0  0  0  0  0  0  0  0  0  0  0
  -29.5991  -15.9868   22.0234 O   0  0  0  0  0  0  0  0  0  0  0  0
  -21.3820   -7.2672   21.7782 O   0  0  0  0  0  0  0  0  0  0  0  0
  -28.5585  -20.4680   21.9457 O   0  0  0  0  0  0  0  0  0  0  0  0
  -28.2184  -25.1742   22.7611 O   0  0  0  0  0  0  0  0  0  0  0  0
  -24.7639  -24.0325   19.3753 O   0  0  0  0  0  0  0  0  0  1  0  0
  -21.8814   -2.6918   24.8147 F   0  0  0  0  0  0  0  0  0  0  0  0
  -19.9334   -6.9481   24.1110 F   0  0  0  0  0  0  0  0  0  0  0  0
  1  2  1  0  0  0  0
  1  5  2  0  0  0  0
  2  6  2  0  0  0  0
  3  9  2  0  0  0  0
  3 17  1  0  0  0  0
  4 10  1  0  0  0  0
  4 17  2  0  0  0  0
  5 19  1  0  0  0  0
  6 21  1  0  0  0  0
  7 11  2  0  0  0  0
  7 20  1  0  0  0  0
  8 12  1  0  0  0  0
  8 24  2  0  0  0  0
  9 25  1  0  0  0  0
 10 25  2  0  0  0  0
 11 26  1  0  0  0  0
 12 27  2  0  0  0  0
 13 14  2  0  0  0  0
 13 28  1  0  0  0  0
 14 30  1  0  0  0  0
 15 22  1  0  0  0  0
 15 26  2  0  0  0  0
 16 30  2  0  0  0  0
 16 31  1  0  0  0  0
 17 32  1  0  0  0  0
 18 32  1  0  0  0  0
 18 33  2  0  0  0  0
 18 34  1  0  0  0  0
 19 21  2  0  0  0  0
 19 39  1  0  0  0  0
 20 22  2  0  0  0  0
 20 40  1  0  0  0  0
 21 54  1  0  0  0  0
 22 41  1  0  0  0  0
 23 27  1  0  0  0  0
 23 29  2  0  0  0  0
 23 53  1  0  0  0  0
 24 29  1  0  0  0  0
 24 59  1  0  0  0  0
 25 86  1  0  0  0  0
 26 89  1  0  0  0  0
 27 87  1  0  0  0  0
 28 31  2  0  0  0  0
 28 86  1  0  0  0  0
 29 88  1  0  0  0  0
 30 90  1  0  0  0  0
 31 91  1  0  0  0  0
 32 71  2  0  0  0  0
 33 72  1  0  0  0  0
 33 76  1  0  0  0  0
 34 77  1  0  0  0  0
 34 81  2  0  0  0  0
 35 55  1  0  0  0  0
 35 78  1  0  0  0  0
 35 82  2  0  0  0  0
 36 68  1  0  0  0  0
 36 73  1  0  0  0  0
 36 83  2  0  0  0  0
 37 69  1  0  0  0  0
 37 79  1  0  0  0  0
 37 84  2  0  0  0  0
 38 74  1  0  0  0  0
 38 75  1  0  0  0  0
 38 85  2  0  0  0  0
 39 42  1  0  0  0  0
 40 55  1  0  0  0  0
 41 73  1  0  0  0  0
 42 45  1  0  0  0  0
 43 46  1  0  0  0  0
 43 49  1  0  0  0  0
 44 47  1  0  0  0  0
 44 53  1  0  0  0  0
 45 54  1  0  0  0  0
 46 56  1  0  0  0  0
 47 58  1  0  0  0  0
 48 53  1  0  0  0  0
 48 58  1  0  0  0  0
 49 74  1  0  0  0  0
 50 56  1  0  0  0  0
 50 74  1  0  0  0  0
 51 57  1  0  0  0  0
 51 75  1  0  0  0  0
 52 57  1  0  0  0  0
 52 75  1  0  0  0  0
 54 78  1  0  0  0  0
 55 73  1  0  0  0  0
 56 72  1  0  0  0  0
 57 87  1  0  0  0  0
 58 60  1  0  0  0  0
 58 67  1  0  0  0  0
 61 69  1  0  0  0  0
 62 70  1  0  0  0  0
 63 70  1  0  0  0  0
 64 70  1  0  0  0  0
 65 80  1  0  0  0  0
 66 88  1  0  0  0  0
 67 89  1  0  0  0  0
 68 70  1  0  0  0  0
 68 79  1  0  0  0  0
 69 80  1  0  0  0  0
 71 72  1  0  0  0  0
M  CHG  1  80   1
M  ISO  4  38 100  67 101  75 100  89 101
M  END
> <Batch ID>
0166

> <Smiles>
CNC(C)C(=O)NC(C(=O)N1Cc2cc([101O:1][101CH2:1]C3(C)CCC(c4c(OC5C[100N:0]([100C:0](=O)N6CCCC(n7nc(-c8ccc(Oc9ccc(F)cc9F)cc8)c(C(N)=O)c7N)C6)C5)ccc(C)c4OC)C3)ccc2CC1C(=O)NC1CCCc2ccccc21)C(C)(C)C

> <Shape>
0.292

> <Color>
0.078

> <Negative vol penalty>
0.000

$$$$

  -OEChem-04052322243D

 91101  0     1  0  0  0  0  0999 V2000
  -39.2751  -18.3904   21.1634 C   0  0  0  0  0  0  0  0  0  0  0  0
  -38.0325  -18.9009   21.5248 C   0  0  0  0  0  0  0  0  0  0  0  0
  -23.0771   -9.8652   19.9405 C   0  0  0  0  0  0  0  0  0  0  0  0
  -23.8354   -9.8738   22.2344 C   0  0  0  0  0  0  0  0  0  0  0  0
  -39.4585  -17.0120   21.0621 C   0  0  0  0  0  0  0  0  0  0  0  0
  -36.9721  -18.0332   21.7841 C   0  0  0  0  0  0  0  0  0  0  0  0
  -34.3976  -19.3038   25.9557 C   0  0  0  0  0  0  0  0  0  0  0  0
  -22.3345   -8.7112   20.1903 C   0  0  0  0  0  0  0  0  0  0  0  0
  -23.0927   -8.7199   22.4843 C   0  0  0  0  0  0  0  0  0  0  0  0
  -33.4962  -20.3622   25.8500 C   0  0  0  0  0  0  0  0  0  0  0  0
  -19.8651   -7.9183   23.0848 C   0  0  0  0  0  0  0  0  0  0  0  0
  -19.1074   -7.8779   24.2552 C   0  0  0  0  0  0  0  0  0  0  0  0
  -31.6792  -18.7874   25.6555 C   0  0  0  0  0  0  0  0  0  0  0  0
  -20.3507   -5.9422   24.9931 C   0  0  0  0  0  0  0  0  0  0  0  0
  -23.8276  -10.4465   20.9625 C   0  0  0  0  0  0  0  0  0  0  0  0
  -24.1665  -12.9720   20.8419 C   0  0  0  0  0  0  0  0  0  0  0  0
  -38.4025  -16.1266   21.3296 C   0  0  0  0  0  0  0  0  0  0  0  0
  -33.9470  -17.9770   25.9011 C   0  0  0  0  0  0  0  0  0  0  0  0
  -37.1412  -16.6417   21.6850 C   0  0  0  0  0  0  0  0  0  0  0  0
  -32.5766  -17.7140   25.7634 C   0  0  0  0  0  0  0  0  0  0  0  0
  -30.7937  -22.1777   21.3152 C   0  0  0  0  0  0  0  0  0  0  0  0
  -31.3896  -23.2821   20.7062 C   0  0  0  0  0  0  0  0  0  0  0  0
  -30.2216  -21.1743   20.5331 C   0  0  0  0  0  0  0  0  0  0  0  0
  -31.4133  -23.3832   19.3153 C   0  0  0  0  0  0  0  0  0  0  0  0
  -30.2453  -21.2754   19.1421 C   0  0  0  0  0  0  0  0  0  0  0  0
  -30.8411  -22.3799   18.5332 C   0  0  0  0  0  0  0  0  0  0  0  0
  -22.3423   -8.1386   21.4622 C   0  0  0  0  0  0  0  0  0  0  0  0
  -32.1371  -20.1040   25.6970 C   0  0  0  0  0  0  0  0  0  0  0  0
  -20.8656   -6.9707   22.8685 C   0  0  0  0  0  0  0  0  0  0  0  0
  -19.3502   -6.8898   25.2094 C   0  0  0  0  0  0  0  0  0  0  0  0
  -21.1084   -5.9826   23.8227 C   0  0  0  0  0  0  0  0  0  0  0  0
  -24.5955  -11.6382   20.7050 C   0  0  0  0  0  0  0  0  0  0  0  0
  -25.2580  -13.7227   20.4792 C   0  0  0  0  0  0  0  0  0  0  0  0
  -22.8951  -13.4864   21.2598 C   0  0  0  0  0  0  0  0  0  0  0  0
  -34.4540  -15.5141   23.9566 C   0  0  0  0  0  0  0  0  0  0  0  0
  -32.6959  -13.9120   26.1622 C   0  0  0  0  0  0  0  0  0  0  0  0
  -30.3606  -14.0307   28.6480 C   0  0  0  0  0  0  0  0  0  0  0  0
  -30.7331  -14.7587   20.6535 C   0  0  0  0  0  0  0  0  0  0  0  0
  -38.6360  -14.6462   21.1610 C   0  0  0  0  0  0  0  0  0  0  0  0
  -34.9291  -16.8466   26.0434 C   0  0  0  0  0  0  0  0  0  0  0  0
  -32.0396  -16.3075   25.7194 C   0  0  0  0  0  0  0  0  0  0  0  0
  -37.5624  -13.7816   21.8169 C   0  0  0  0  0  0  0  0  0  0  0  0
  -29.6095  -12.3612   18.2868 C   0  0  0  0  0  0  0  0  0  0  0  0
  -29.9913  -23.1995   23.5232 C   0  0  0  0  0  0  0  0  0  0  0  0
  -36.1715  -14.3049   21.4727 C   0  0  0  0  0  0  0  0  0  0  0  0
  -28.1711  -12.0670   18.7160 C   0  0  0  0  0  0  0  0  0  0  0  0
  -30.5899  -23.3441   24.9275 C   0  0  0  0  0  0  0  0  0  0  0  0
  -32.1208  -22.0969   23.5522 C   0  0  0  0  0  0  0  0  0  0  0  0
  -30.5230  -12.5841   19.4902 C   0  0  0  0  0  0  0  0  0  0  0  0
  -28.6188  -13.3132   20.8717 C   0  0  0  0  0  0  0  0  0  0  0  0
  -29.9118  -17.9909   22.5626 C   0  0  0  0  0  0  0  0  0  0  0  0
  -30.9295  -17.9939   20.7405 C   0  0  0  0  0  0  0  0  0  0  0  0
  -30.7677  -22.0679   22.8252 C   0  0  2  0  0  0  0  0  0  0  0  0
  -35.9733  -15.7318   21.9982 C   0  0  1  0  0  0  0  0  0  0  0  0
  -34.4177  -15.5337   25.4586 C   0  0  1  0  0  0  0  0  0  0  0  0
  -27.6466  -13.1372   19.6924 C   0  0  2  0  0  0  0  0  0  0  0  0
  -30.8146  -16.9546   21.8699 C   0  0  0  0  0  0  0  0  0  0  0  0
  -31.7336  -22.3400   25.0045 C   0  0  2  0  0  0  0  0  0  1  0  0
  -32.0033  -24.3583   21.5455 C   0  0  0  0  0  0  0  0  0  0  0  0
  -32.0499  -24.5697   18.6624 C   0  0  0  0  0  0  0  0  0  0  0  0
  -29.6314  -20.1995   18.3026 C   0  0  0  0  0  0  0  0  0  0  0  0
  -30.8654  -22.4898   17.0410 C   0  0  0  0  0  0  0  0  0  0  0  0
  -29.0986  -12.5547   30.2374 C   0  0  0  0  0  0  0  0  0  0  0  0
  -30.8931  -12.9967   23.8769 C   0  0  0  0  0  0  0  0  0  0  0  0
  -29.1751  -12.3558   25.5816 C   0  0  0  0  0  0  0  0  0  0  0  0
  -31.4024  -11.2324   25.5747 C   0  0  0  0  0  0  0  0  0  0  0  0
  -31.5105  -15.3942   31.0097 C   0  0  0  0  0  0  0  0  0  0  0  0
  -29.5815  -19.9899   21.1862 C   0  0  0  0  0  0  0  0  0  0  0  0
  -31.2258  -13.6299   26.3577 C   0  0  1  0  0  0  0  0  0  0  0  0
  -30.3351  -13.4170   30.0362 C   0  0  2  0  0  0  0  0  0  0  0  0
  -30.6841  -12.5803   25.3466 C   0  0  0  0  0  0  0  0  0  0  0  0
  -25.8607  -11.5438   20.2876 N   0  0  0  0  0  0  0  0  0  0  0  0
  -26.2362  -12.8278   20.1591 N   0  0  0  0  0  0  0  0  0  0  0  0
  -33.0402  -15.2363   25.8563 N   0  0  0  0  0  0  0  0  0  0  0  0
  -29.9693  -13.6151   20.3716 N   0  0  0  0  0  0  0  0  0  0  0  0
  -25.4668  -15.0544   20.4059 N   0  0  0  0  0  0  0  0  0  0  0  0
  -21.8841  -12.5761   21.5967 N   0  0  0  0  0  0  0  0  0  0  0  0
  -35.7122  -15.7144   23.4216 N   0  0  0  0  0  0  0  0  0  0  0  0
  -31.0658  -13.2495   27.7571 N   0  0  0  0  0  0  0  0  0  0  0  0
  -30.1382  -15.6973   21.4902 N   0  0  0  0  0  0  0  0  0  0  0  0
  -30.5662  -19.0197   21.7345 N   0  3  0  0  0  0  0  0  0  0  0  0
  -30.3370  -14.4855   31.0751 N   0  3  0  0  0  0  0  0  0  0  0  0
  -22.6573  -14.7168   21.3166 O   0  0  0  0  0  0  0  0  0  0  0  0
  -33.4175  -15.3295   23.3295 O   0  0  0  0  0  0  0  0  0  0  0  0
  -33.5094  -12.9927   26.2835 O   0  0  0  0  0  0  0  0  0  0  0  0
  -29.8070  -15.0948   28.3798 O   0  0  0  0  0  0  0  0  0  0  0  0
  -31.8638  -14.9413   20.1891 O   0  0  0  0  0  0  0  0  0  0  0  0
  -21.6175   -7.0127   21.7064 O   0  0  0  0  0  0  0  0  0  0  0  0
  -31.2553  -21.1352   25.5929 O   0  0  0  0  0  0  0  0  0  1  0  0
  -18.6235   -6.8520   26.3340 F   0  0  0  0  0  0  0  0  0  0  0  0
  -22.0689   -5.0702   23.6210 F   0  0  0  0  0  0  0  0  0  0  0  0
  1  2  1  0  0  0  0
  1  5  2  0  0  0  0
  2  6  2  0  0  0  0
  3  8  2  0  0  0  0
  3 15  1  0  0  0  0
  4  9  1  0  0  0  0
  4 15  2  0  0  0  0
  5 17  1  0  0  0  0
  6 19  1  0  0  0  0
  7 10  2  0  0  0  0
  7 18  1  0  0  0  0
  8 27  1  0  0  0  0
  9 27  2  0  0  0  0
 10 28  1  0  0  0  0
 11 12  2  0  0  0  0
 11 29  1  0  0  0  0
 12 30  1  0  0  0  0
 13 20  1  0  0  0  0
 13 28  2  0  0  0  0
 14 30  2  0  0  0  0
 14 31  1  0  0  0  0
 15 32  1  0  0  0  0
 16 32  1  0  0  0  0
 16 33  2  0  0  0  0
 16 34  1  0  0  0  0
 17 19  2  0  0  0  0
 17 39  1  0  0  0  0
 18 20  2  0  0  0  0
 18 40  1  0  0  0  0
 19 54  1  0  0  0  0
 20 41  1  0  0  0  0
 21 22  1  0  0  0  0
 21 23  2  0  0  0  0
 21 53  1  0  0  0  0
 22 24  2  0  0  0  0
 22 59  1  0  0  0  0
 23 25  1  0  0  0  0
 23 68  1  0  0  0  0
 24 26  1  0  0  0  0
 24 60  1  0  0  0  0
 25 26  2  0  0  0  0
 25 61  1  0  0  0  0
 26 62  1  0  0  0  0
 27 88  1  0  0  0  0
 28 89  1  0  0  0  0
 29 31  2  0  0  0  0
 29 88  1  0  0  0  0
 30 90  1  0  0  0  0
 31 91  1  0  0  0  0
 32 72  2  0  0  0  0
 33 73  1  0  0  0  0
 33 76  1  0  0  0  0
 34 77  1  0  0  0  0
 34 83  2  0  0  0  0
 35 55  1  0  0  0  0
 35 78  1  0  0  0  0
 35 84  2  0  0  0  0
 36 69  1  0  0  0  0
 36 74  1  0  0  0  0
 36 85  2  0  0  0  0
 37 70  1  0  0  0  0
 37 79  1  0  0  0  0
 37 86  2  0  0  0  0
 38 75  1  0  0  0  0
 38 80  1  0  0  0  0
 38 87  2  0  0  0  0
 39 42  1  0  0  0  0
 40 55  1  0  0  0  0
 41 74  1  0  0  0  0
 42 45  1  0  0  0  0
 43 46  1  0  0  0  0
 43 49  1  0  0  0  0
 44 47  1  0  0  0  0
 44 53  1  0  0  0  0
 45 54  1  0  0  0  0
 46 56  1  0  0  0  0
 47 58  1  0  0  0  0
 48 53  1  0  0  0  0
 48 58  1  0  0  0  0
 49 75  1  0  0  0  0
 50 56  1  0  0  0  0
 50 75  1  0  0  0  0
 51 57  1  0  0  0  0
 51 81  1  0  0  0  0
 52 57  1  0  0  0  0
 52 81  1  0  0  0  0
 54 78  1  0  0  0  0
 55 74  1  0  0  0  0
 56 73  1  0  0  0  0
 57 80  1  0  0  0  0
 58 89  1  0  0  0  0
 63 70  1  0  0  0  0
 64 71  1  0  0  0  0
 65 71  1  0  0  0  0
 66 71  1  0  0  0  0
 67 82  1  0  0  0  0
 68 81  1  0  0  0  0
 69 71  1  0  0  0  0
 69 79  1  0  0  0  0
 70 82  1  0  0  0  0
 72 73  1  0  0  0  0
M  CHG  2  81   1  82   1
M  ISO  4  38 100  58 101  80 100  89 101
M  END
> <Batch ID>
0166

> <Smiles>
CNC(C)C(=O)NC(C(=O)N1Cc2cc([101O:1][101CH:1]3CCC(c4c(C)c(C)c(C)c(C)c4CN4CC([100NH:0][100C:0](=O)N5CCCC(n6nc(-c7ccc(Oc8ccc(F)cc8F)cc7)c(C(N)=O)c6N)C5)C4)C3)ccc2CC1C(=O)NC1CCCc2ccccc21)C(C)(C)C

> <Shape>
0.200

> <Color>
0.184

> <Negative vol penalty>
0.000

$$$$

  -OEChem-04052322243D

 92102  0     1  0  0  0  0  0999 V2000
  -21.0142  -21.0513   10.3275 C   0  0  0  0  0  0  0  0  0  0  0  0
  -21.6127  -21.9552   11.1994 C   0  0  0  0  0  0  0  0  0  0  0  0
  -27.7112  -17.7068   19.6945 C   0  0  0  0  0  0  0  0  0  0  0  0
  -28.9725  -18.2413   21.6846 C   0  0  0  0  0  0  0  0  0  0  0  0
  -19.7159  -20.6052   10.5708 C   0  0  0  0  0  0  0  0  0  0  0  0
  -20.9126  -22.4144   12.3145 C   0  0  0  0  0  0  0  0  0  0  0  0
  -23.2355  -23.7787   17.8144 C   0  0  0  0  0  0  0  0  0  0  0  0
  -27.7139  -16.3593   20.0548 C   0  0  0  0  0  0  0  0  0  0  0  0
  -28.9751  -16.8938   22.0449 C   0  0  0  0  0  0  0  0  0  0  0  0
  -23.6005  -24.9879   18.4048 C   0  0  0  0  0  0  0  0  0  0  0  0
  -27.6990  -12.7291   20.2682 C   0  0  0  0  0  0  0  0  0  0  0  0
  -27.9879  -11.7917   19.2766 C   0  0  0  0  0  0  0  0  0  0  0  0
  -21.4478  -25.1024   19.4872 C   0  0  0  0  0  0  0  0  0  0  0  0
  -24.9940  -30.9969   21.6603 C   0  0  0  0  0  0  0  0  0  0  0  0
  -30.1518  -12.8129   18.9417 C   0  0  0  0  0  0  0  0  0  0  0  0
  -28.3406  -18.6478   20.5095 C   0  0  0  0  0  0  0  0  0  0  0  0
  -27.2157  -20.8671   19.9462 C   0  0  0  0  0  0  0  0  0  0  0  0
  -19.0031  -21.0517   11.6947 C   0  0  0  0  0  0  0  0  0  0  0  0
  -21.9676  -23.2269   18.0478 C   0  0  0  0  0  0  0  0  0  0  0  0
  -19.6030  -21.9749   12.5723 C   0  0  0  0  0  0  0  0  0  0  0  0
  -21.0700  -23.8849   18.9007 C   0  0  0  0  0  0  0  0  0  0  0  0
  -24.1732  -30.9804   20.5326 C   0  0  0  0  0  0  0  0  0  0  0  0
  -23.9670  -29.7888   19.8375 C   0  0  0  0  0  0  0  0  0  0  0  0
  -24.5816  -28.6137   20.2701 C   0  0  0  0  0  0  0  0  0  0  0  0
  -25.4024  -28.6302   21.3978 C   0  0  0  0  0  0  0  0  0  0  0  0
  -28.3458  -15.9528   21.2299 C   0  0  0  0  0  0  0  0  0  0  0  0
  -22.7056  -25.6514   19.2390 C   0  0  0  0  0  0  0  0  0  0  0  0
  -28.6364  -13.7085   20.5966 C   0  0  0  0  0  0  0  0  0  0  0  0
  -25.6086  -29.8219   22.0928 C   0  0  0  0  0  0  0  0  0  0  0  0
  -29.2143  -11.8336   18.6133 C   0  0  0  0  0  0  0  0  0  0  0  0
  -29.8628  -13.7504   19.9333 C   0  0  0  0  0  0  0  0  0  0  0  0
  -28.3386  -20.0399   20.1376 C   0  0  0  0  0  0  0  0  0  0  0  0
  -27.7432  -22.0888   19.6061 C   0  0  0  0  0  0  0  0  0  0  0  0
  -25.8206  -20.5588   20.0653 C   0  0  0  0  0  0  0  0  0  0  0  0
  -19.4639  -22.5086   16.2259 C   0  0  0  0  0  0  0  0  0  0  0  0
  -18.3226  -21.2252   18.9777 C   0  0  0  0  0  0  0  0  0  0  0  0
  -18.3757  -21.1708   22.3896 C   0  0  0  0  0  0  0  0  0  0  0  0
  -31.3662  -26.1504   20.1965 C   0  0  0  0  0  0  0  0  0  0  0  0
  -17.5848  -20.5776   11.8903 C   0  0  0  0  0  0  0  0  0  0  0  0
  -21.5990  -21.9084   17.4247 C   0  0  0  0  0  0  0  0  0  0  0  0
  -19.7044  -23.3244   19.1996 C   0  0  0  0  0  0  0  0  0  0  0  0
  -17.0486  -20.8246   13.2981 C   0  0  0  0  0  0  0  0  0  0  0  0
  -32.4548  -23.4255   18.3678 C   0  0  0  0  0  0  0  0  0  0  0  0
  -17.3703  -22.2456   13.7501 C   0  0  0  0  0  0  0  0  0  0  0  0
  -23.2164  -25.9305   23.2347 C   0  0  0  0  0  0  0  0  0  0  0  0
  -23.4788  -26.3321   24.6594 C   0  0  0  0  0  0  0  0  0  0  0  0
  -31.3940  -22.3590   18.6396 C   0  0  0  0  0  0  0  0  0  0  0  0
  -28.0459  -27.7857   20.3632 C   0  0  0  0  0  0  0  0  0  0  0  0
  -28.2789  -26.2077   22.3137 C   0  0  0  0  0  0  0  0  0  0  0  0
  -32.7874  -24.2007   19.6376 C   0  0  0  0  0  0  0  0  0  0  0  0
  -29.5668  -27.8380   20.2478 C   0  0  0  0  0  0  0  0  0  0  0  0
  -29.7943  -26.2940   22.1652 C   0  0  0  0  0  0  0  0  0  0  0  0
  -30.5312  -23.7848   20.5608 C   0  0  0  0  0  0  0  0  0  0  0  0
  -18.8851  -22.4770   13.8062 C   0  0  1  0  0  0  0  0  0  0  0  0
  -20.0917  -21.6963   17.3230 C   0  0  1  0  0  0  0  0  0  0  0  0
  -24.1404  -27.0783   23.5342 C   0  0  0  0  0  0  0  0  0  0  0  0
  -27.5957  -27.4815   21.7979 C   0  0  0  0  0  0  0  0  0  0  0  0
  -30.1503  -22.9738   19.3059 C   0  0  2  0  0  0  0  0  0  0  0  0
  -23.5280  -32.2529   20.0902 C   0  0  0  0  0  0  0  0  0  0  0  0
  -23.0855  -29.7741   18.6288 C   0  0  0  0  0  0  0  0  0  0  0  0
  -17.3045  -20.0428   24.3587 C   0  0  0  0  0  0  0  0  0  0  0  0
  -15.8156  -22.9184   18.5808 C   0  0  0  0  0  0  0  0  0  0  0  0
  -15.2338  -22.4941   20.9786 C   0  0  0  0  0  0  0  0  0  0  0  0
  -15.3846  -20.5873   19.3774 C   0  0  0  0  0  0  0  0  0  0  0  0
  -20.9626  -20.0688   23.3130 C   0  0  0  0  0  0  0  0  0  0  0  0
  -26.5608  -31.1187   23.8442 C   0  0  0  0  0  0  0  0  0  0  0  0
  -24.3606  -27.3351   19.5251 C   0  0  0  0  0  0  0  0  0  1  0  0
  -25.6395  -26.9390   23.2984 C   0  0  0  0  0  0  0  0  0  0  0  0
  -26.0764  -27.3527   21.8757 C   0  0  1  0  0  0  0  0  0  0  0  0
  -17.5036  -21.7381   20.1375 C   0  0  1  0  0  0  0  0  0  0  0  0
  -18.4661  -20.0217   23.3774 C   0  0  2  0  0  0  0  0  0  0  0  0
  -16.0093  -21.9463   19.7616 C   0  0  0  0  0  0  0  0  0  0  0  0
  -29.4924  -20.6818   19.9356 N   0  0  0  0  0  0  0  0  0  0  0  0
  -29.0973  -21.9253   19.6137 N   0  0  0  0  0  0  0  0  0  0  0  0
  -19.3883  -22.0358   18.5617 N   0  0  0  0  0  0  0  0  0  0  0  0
  -31.5805  -24.7645   20.2421 N   0  0  0  0  0  0  0  0  0  0  0  0
  -30.1866  -26.6297   20.7899 N   0  0  0  0  0  0  0  0  0  0  0  0
  -27.1763  -23.2761   19.3040 N   0  0  0  0  0  0  0  0  0  0  0  0
  -25.2018  -20.7330   21.3108 N   0  0  0  0  0  0  0  0  0  0  0  0
  -19.4445  -21.8756   14.9978 N   0  0  0  0  0  0  0  0  0  0  0  0
  -17.7187  -20.8013   21.2350 N   0  0  0  0  0  0  0  0  0  0  0  0
  -19.7369  -20.1030   24.1517 N   0  3  0  0  0  0  0  0  0  0  0  0
  -25.1466  -20.1256   19.1002 O   0  0  0  0  0  0  0  0  0  0  0  0
  -19.0280  -23.6264   16.4755 O   0  0  0  0  0  0  0  0  0  0  0  0
  -18.0321  -20.1417   18.4646 O   0  0  0  0  0  0  0  0  0  0  0  0
  -18.8382  -22.2858   22.6207 O   0  0  0  0  0  0  0  0  0  0  0  0
  -32.1751  -26.9146   19.6555 O   0  0  0  0  0  0  0  0  0  0  0  0
  -28.3484  -14.6380   21.5819 O   0  0  0  0  0  0  0  0  0  0  0  0
  -26.4069  -29.8576   23.1964 O   0  0  0  0  0  0  0  0  0  0  0  0
  -23.0618  -26.8408   19.8203 O   0  0  0  0  0  0  0  0  0  1  0  0
  -29.4922  -10.9324   17.6621 F   0  0  0  0  0  0  0  0  0  0  0  0
  -30.7678  -14.6882   20.2453 F   0  0  0  0  0  0  0  0  0  0  0  0
  1  2  1  0  0  0  0
  1  5  2  0  0  0  0
  2  6  2  0  0  0  0
  3  8  2  0  0  0  0
  3 16  1  0  0  0  0
  4  9  1  0  0  0  0
  4 16  2  0  0  0  0
  5 18  1  0  0  0  0
  6 20  1  0  0  0  0
  7 10  2  0  0  0  0
  7 19  1  0  0  0  0
  8 26  1  0  0  0  0
  9 26  2  0  0  0  0
 10 27  1  0  0  0  0
 11 12  2  0  0  0  0
 11 28  1  0  0  0  0
 12 30  1  0  0  0  0
 13 21  1  0  0  0  0
 13 27  2  0  0  0  0
 14 22  1  0  0  0  0
 14 29  2  0  0  0  0
 15 30  2  0  0  0  0
 15 31  1  0  0  0  0
 16 32  1  0  0  0  0
 17 32  1  0  0  0  0
 17 33  2  0  0  0  0
 17 34  1  0  0  0  0
 18 20  2  0  0  0  0
 18 39  1  0  0  0  0
 19 21  2  0  0  0  0
 19 40  1  0  0  0  0
 20 54  1  0  0  0  0
 21 41  1  0  0  0  0
 22 23  2  0  0  0  0
 22 59  1  0  0  0  0
 23 24  1  0  0  0  0
 23 60  1  0  0  0  0
 24 25  2  0  0  0  0
 24 67  1  0  0  0  0
 25 29  1  0  0  0  0
 25 69  1  0  0  0  0
 26 88  1  0  0  0  0
 27 90  1  0  0  0  0
 28 31  2  0  0  0  0
 28 88  1  0  0  0  0
 29 89  1  0  0  0  0
 30 91  1  0  0  0  0
 31 92  1  0  0  0  0
 32 73  2  0  0  0  0
 33 74  1  0  0  0  0
 33 78  1  0  0  0  0
 34 79  1  0  0  0  0
 34 83  2  0  0  0  0
 35 55  1  0  0  0  0
 35 80  1  0  0  0  0
 35 84  2  0  0  0  0
 36 70  1  0  0  0  0
 36 75  1  0  0  0  0
 36 85  2  0  0  0  0
 37 71  1  0  0  0  0
 37 81  1  0  0  0  0
 37 86  2  0  0  0  0
 38 76  1  0  0  0  0
 38 77  1  0  0  0  0
 38 87  2  0  0  0  0
 39 42  1  0  0  0  0
 40 55  1  0  0  0  0
 41 75  1  0  0  0  0
 42 44  1  0  0  0  0
 43 47  1  0  0  0  0
 43 50  1  0  0  0  0
 44 54  1  0  0  0  0
 45 46  1  0  0  0  0
 45 56  1  0  0  0  0
 46 56  1  0  0  0  0
 47 58  1  0  0  0  0
 48 51  1  0  0  0  0
 48 57  1  0  0  0  0
 49 52  1  0  0  0  0
 49 57  1  0  0  0  0
 50 76  1  0  0  0  0
 51 77  1  0  0  0  0
 52 77  1  0  0  0  0
 53 58  1  0  0  0  0
 53 76  1  0  0  0  0
 54 80  1  0  0  0  0
 55 75  1  0  0  0  0
 56 68  1  0  0  0  0
 57 69  1  0  0  0  0
 58 74  1  0  0  0  0
 61 71  1  0  0  0  0
 62 72  1  0  0  0  0
 63 72  1  0  0  0  0
 64 72  1  0  0  0  0
 65 82  1  0  0  0  0
 66 89  1  0  0  0  0
 67 90  1  0  0  0  0
 68 69  1  0  0  0  0
 70 72  1  0  0  0  0
 70 81  1  0  0  0  0
 71 82  1  0  0  0  0
 73 74  1  0  0  0  0
M  CHG  1  82   1
M  ISO  4  38 100  67 101  77 100  90 101
M  END
> <Batch ID>
0166

> <Smiles>
CNC(C)C(=O)NC(C(=O)N1Cc2cc([101O:1][101CH2:1]c3c(C)c(C)cc(OC)c3C(CC3CC3)C3CC[100N:0]([100C:0](=O)N4CCCC(n5nc(-c6ccc(Oc7ccc(F)cc7F)cc6)c(C(N)=O)c5N)C4)CC3)ccc2CC1C(=O)NC1CCCc2ccccc21)C(C)(C)C

> <Shape>
0.197

> <Color>
0.055

> <Negative vol penalty>
0.000

$$$$

  -OEChem-04052322243D

 86 95  0     1  0  0  0  0  0999 V2000
  -28.4362  -37.2412   20.5537 C   0  0  0  0  0  0  0  0  0  0  0  0
  -28.7695  -35.9306   20.2271 C   0  0  0  0  0  0  0  0  0  0  0  0
  -24.7196   -8.9615   21.8383 C   0  0  0  0  0  0  0  0  0  0  0  0
  -23.2589  -10.0818   20.2736 C   0  0  0  0  0  0  0  0  0  0  0  0
  -27.5821  -37.4955   21.6260 C   0  0  0  0  0  0  0  0  0  0  0  0
  -28.2497  -34.8735   20.9733 C   0  0  0  0  0  0  0  0  0  0  0  0
  -26.6764  -29.3290   18.9025 C   0  0  0  0  0  0  0  0  0  0  0  0
  -23.6087   -8.4580   22.5149 C   0  0  0  0  0  0  0  0  0  0  0  0
  -22.1479   -9.5783   20.9502 C   0  0  0  0  0  0  0  0  0  0  0  0
  -27.3388  -28.1022   18.9099 C   0  0  0  0  0  0  0  0  0  0  0  0
  -21.3736   -5.9524   22.1157 C   0  0  0  0  0  0  0  0  0  0  0  0
  -21.3921   -4.6064   22.4808 C   0  0  0  0  0  0  0  0  0  0  0  0
  -26.1604  -27.4849   20.9222 C   0  0  0  0  0  0  0  0  0  0  0  0
  -21.1784   -5.2335   24.8042 C   0  0  0  0  0  0  0  0  0  0  0  0
  -24.5448   -9.7735   20.7176 C   0  0  0  0  0  0  0  0  0  0  0  0
  -26.3792   -9.6938   18.9467 C   0  0  0  0  0  0  0  0  0  0  0  0
  -27.0438  -36.4406   22.3797 C   0  0  0  0  0  0  0  0  0  0  0  0
  -25.7575  -29.6479   19.9127 C   0  0  0  0  0  0  0  0  0  0  0  0
  -27.3886  -35.1140   22.0575 C   0  0  0  0  0  0  0  0  0  0  0  0
  -25.4858  -28.7154   20.9240 C   0  0  0  0  0  0  0  0  0  0  0  0
  -22.3228   -8.7664   22.0709 C   0  0  0  0  0  0  0  0  0  0  0  0
  -27.0830  -27.1811   19.9214 C   0  0  0  0  0  0  0  0  0  0  0  0
  -21.2576   -6.9391   23.0949 C   0  0  0  0  0  0  0  0  0  0  0  0
  -21.2945   -4.2469   23.8250 C   0  0  0  0  0  0  0  0  0  0  0  0
  -21.1599   -6.5796   24.4391 C   0  0  0  0  0  0  0  0  0  0  0  0
  -25.6920  -10.2943   20.0185 C   0  0  0  0  0  0  0  0  0  0  0  0
  -27.3833  -10.5803   18.6428 C   0  0  0  0  0  0  0  0  0  0  0  0
  -26.1320   -8.4462   18.2849 C   0  0  0  0  0  0  0  0  0  0  0  0
  -25.5783  -31.8943   22.1543 C   0  0  0  0  0  0  0  0  0  0  0  0
  -22.6503  -30.5969   22.6698 C   0  0  0  0  0  0  0  0  0  0  0  0
  -20.5976  -27.8829   22.4107 C   0  0  0  0  0  0  0  0  0  0  0  0
  -27.8396  -16.4113   19.3904 C   0  0  0  0  0  0  0  0  0  0  0  0
  -26.1624  -36.7670   23.5592 C   0  0  0  0  0  0  0  0  0  0  0  0
  -25.0315  -30.9646   19.8756 C   0  0  0  0  0  0  0  0  0  0  0  0
  -24.4933  -29.0011   22.0202 C   0  0  0  0  0  0  0  0  0  0  0  0
  -25.3567  -35.5737   24.0662 C   0  0  0  0  0  0  0  0  0  0  0  0
  -30.1543  -13.9295   20.6446 C   0  0  0  0  0  0  0  0  0  0  0  0
  -26.2477  -34.3418   24.1900 C   0  0  0  0  0  0  0  0  0  0  0  0
  -29.3241  -12.6510   20.5186 C   0  0  0  0  0  0  0  0  0  0  0  0
  -29.3852  -21.2082   19.1250 C   0  0  0  0  0  0  0  0  0  0  0  0
  -29.7580  -20.9868   16.7726 C   0  0  0  0  0  0  0  0  0  0  0  0
  -28.7377  -18.6282   17.2667 C   0  0  0  0  0  0  0  0  0  0  0  0
  -29.2887  -15.1124   21.0697 C   0  0  0  0  0  0  0  0  0  0  0  0
  -27.2875  -14.0919   20.0587 C   0  0  0  0  0  0  0  0  0  0  0  0
  -26.8253  -33.9394   22.8277 C   0  0  1  0  0  0  0  0  0  0  0  0
  -24.4977  -31.3912   21.2395 C   0  0  1  0  0  0  0  0  0  0  0  0
  -29.7035  -19.7314   18.8859 C   0  0  1  0  0  0  0  0  0  0  0  0
  -28.8625  -21.7121   17.7797 C   0  0  2  0  0  0  0  0  0  0  0  0
  -28.1009  -12.8652   19.6078 C   0  0  2  0  0  0  0  0  0  0  0  0
  -28.5069  -18.7547   18.7824 C   0  0  2  0  0  0  0  0  0  0  0  0
  -29.9566  -19.5826   17.3641 C   0  0  2  0  0  0  0  0  0  0  0  0
  -18.2715  -27.1133   22.9535 C   0  0  0  0  0  0  0  0  0  0  0  0
  -28.4562  -23.6426   16.2464 C   0  0  0  0  0  0  0  0  0  0  0  0
  -31.3549  -18.7693   15.4439 C   0  0  0  0  0  0  0  0  0  0  0  0
  -32.4578  -19.7756   17.4625 C   0  0  0  0  0  0  0  0  0  0  0  0
  -23.4340  -30.3059   25.6043 C   0  0  0  0  0  0  0  0  0  0  0  0
  -21.5228  -28.7132   25.8846 C   0  0  0  0  0  0  0  0  0  0  0  0
  -21.0862  -31.0785   25.2233 C   0  0  0  0  0  0  0  0  0  0  0  0
  -19.9680  -27.3978   19.5598 C   0  0  0  0  0  0  0  0  0  0  0  0
  -28.1064  -25.4385   18.6677 C   0  0  0  0  0  0  0  0  0  1  0  0
  -22.1100  -29.4905   23.5433 C   0  0  1  0  0  0  0  0  0  0  0  0
  -19.1740  -27.7415   21.9029 C   0  0  2  0  0  0  0  0  0  0  0  0
  -28.9257  -23.2378   17.6470 C   0  0  1  0  0  0  0  0  0  0  0  0
  -31.2764  -18.9439   16.9613 C   0  0  0  0  0  0  0  0  0  0  0  0
  -28.1195  -23.9149   18.7751 C   0  0  2  0  0  0  0  0  0  0  0  0
  -22.0584  -29.8921   25.0444 C   0  0  0  0  0  0  0  0  0  0  0  0
  -26.2153  -11.4713   20.3719 N   0  0  0  0  0  0  0  0  0  0  0  0
  -27.2421  -11.6174   19.5172 N   0  0  0  0  0  0  0  0  0  0  0  0
  -23.8136  -30.3048   21.9438 N   0  0  0  0  0  0  0  0  0  0  0  0
  -28.1529  -15.2731   20.1504 N   0  0  0  0  0  0  0  0  0  0  0  0
  -28.3644  -10.5661   17.7156 N   0  0  0  0  0  0  0  0  0  0  0  0
  -25.0591   -7.6583   18.7235 N   0  0  0  0  0  0  0  0  0  0  0  0
  -25.8272  -33.2487   22.0396 N   0  0  0  0  0  0  0  0  0  0  0  0
  -20.8166  -29.1199   22.9791 N   0  0  0  0  0  0  0  0  0  0  0  0
  -28.7045  -17.4922   19.5241 N   0  0  0  0  0  0  0  0  0  0  0  0
  -19.1416  -26.8859   20.6832 N   0  3  0  0  0  0  0  0  0  0  0  0
  -26.8515   -8.0343   17.3435 O   0  0  0  0  0  0  0  0  0  0  0  0
  -26.1435  -31.1119   22.9094 O   0  0  0  0  0  0  0  0  0  0  0  0
  -22.0579  -31.6781   22.6277 O   0  0  0  0  0  0  0  0  0  0  0  0
  -21.4308  -26.9845   22.3161 O   0  0  0  0  0  0  0  0  0  0  0  0
  -26.8611  -16.4660   18.6373 O   0  0  0  0  0  0  0  0  0  0  0  0
  -26.7717  -23.4424   18.7515 O   0  0  0  0  0  0  0  0  0  0  0  0
  -21.2385   -8.2751   22.7308 O   0  0  0  0  0  0  0  0  0  0  0  0
  -27.7286  -25.9832   19.9314 O   0  0  0  0  0  0  0  0  0  1  0  0
  -21.3107   -2.9541   24.1753 F   0  0  0  0  0  0  0  0  0  0  0  0
  -21.0470   -7.5230   25.3841 F   0  0  0  0  0  0  0  0  0  0  0  0
  1  2  1  0  0  0  0
  1  5  2  0  0  0  0
  2  6  2  0  0  0  0
  3  8  2  0  0  0  0
  3 15  1  0  0  0  0
  4  9  1  0  0  0  0
  4 15  2  0  0  0  0
  5 17  1  0  0  0  0
  6 19  1  0  0  0  0
  7 10  2  0  0  0  0
  7 18  1  0  0  0  0
  8 21  1  0  0  0  0
  9 21  2  0  0  0  0
 10 22  1  0  0  0  0
 11 12  2  0  0  0  0
 11 23  1  0  0  0  0
 12 24  1  0  0  0  0
 13 20  1  0  0  0  0
 13 22  2  0  0  0  0
 14 24  2  0  0  0  0
 14 25  1  0  0  0  0
 15 26  1  0  0  0  0
 16 26  1  0  0  0  0
 16 27  2  0  0  0  0
 16 28  1  0  0  0  0
 17 19  2  0  0  0  0
 17 33  1  0  0  0  0
 18 20  2  0  0  0  0
 18 34  1  0  0  0  0
 19 45  1  0  0  0  0
 20 35  1  0  0  0  0
 21 83  1  0  0  0  0
 22 84  1  0  0  0  0
 23 25  2  0  0  0  0
 23 83  1  0  0  0  0
 24 85  1  0  0  0  0
 25 86  1  0  0  0  0
 26 67  2  0  0  0  0
 27 68  1  0  0  0  0
 27 71  1  0  0  0  0
 28 72  1  0  0  0  0
 28 77  2  0  0  0  0
 29 46  1  0  0  0  0
 29 73  1  0  0  0  0
 29 78  2  0  0  0  0
 30 61  1  0  0  0  0
 30 69  1  0  0  0  0
 30 79  2  0  0  0  0
 31 62  1  0  0  0  0
 31 74  1  0  0  0  0
 31 80  2  0  0  0  0
 32 70  1  0  0  0  0
 32 75  1  0  0  0  0
 32 81  2  0  0  0  0
 33 36  1  0  0  0  0
 34 46  1  0  0  0  0
 35 69  1  0  0  0  0
 36 38  1  0  0  0  0
 37 39  1  0  0  0  0
 37 43  1  0  0  0  0
 38 45  1  0  0  0  0
 39 49  1  0  0  0  0
 40 47  1  0  0  0  0
 40 48  1  0  0  0  0
 41 48  1  0  0  0  0
 41 51  1  0  0  0  0
 42 50  1  0  0  0  0
 42 51  1  0  0  0  0
 43 70  1  0  0  0  0
 44 49  1  0  0  0  0
 44 70  1  0  0  0  0
 45 73  1  0  0  0  0
 46 69  1  0  0  0  0
 47 50  1  0  0  0  0
 47 51  1  0  0  0  0
 48 63  1  0  0  0  0
 49 68  1  0  0  0  0
 50 75  1  0  0  0  0
 51 64  1  0  0  0  0
 52 62  1  0  0  0  0
 53 63  1  0  0  0  0
 54 64  1  0  0  0  0
 55 64  1  0  0  0  0
 56 66  1  0  0  0  0
 57 66  1  0  0  0  0
 58 66  1  0  0  0  0
 59 76  1  0  0  0  0
 60 65  1  0  0  0  0
 60 84  1  0  0  0  0
 61 66  1  0  0  0  0
 61 74  1  0  0  0  0
 62 76  1  0  0  0  0
 63 65  1  0  0  0  0
 65 82  1  0  0  0  0
 67 68  1  0  0  0  0
M  CHG  1  76   1
M  ISO  4  32 100  60 101  75 100  84 101
M  END
> <Batch ID>
0166

> <Smiles>
CNC(C)C(=O)NC(C(=O)N1Cc2cc([101O:1][101CH2:1]C(O)C(C)C3CC4C([100NH:0][100C:0](=O)N5CCCC(n6nc(-c7ccc(Oc8ccc(F)cc8F)cc7)c(C(N)=O)c6N)C5)CC4(C(C)C)C3)ccc2CC1C(=O)NC1CCCc2ccccc21)C(C)(C)C

> <Shape>
0.325

> <Color>
0.092

> <Negative vol penalty>
0.000

$$$$

  -OEChem-04052322243D

 90102  0     1  0  0  0  0  0999 V2000
  -16.7377  -28.3346   23.8990 C   0  0  0  0  0  0  0  0  0  0  0  0
  -17.7708  -27.4940   23.4971 C   0  0  0  0  0  0  0  0  0  0  0  0
  -27.2039  -18.0768   20.9728 C   0  0  0  0  0  0  0  0  0  0  0  0
  -28.2027  -19.3020   22.8000 C   0  0  0  0  0  0  0  0  0  0  0  0
  -16.7652  -29.6852   23.5539 C   0  0  0  0  0  0  0  0  0  0  0  0
  -18.8315  -28.0034   22.7488 C   0  0  0  0  0  0  0  0  0  0  0  0
  -25.8669  -27.1284   21.7224 C   0  0  0  0  0  0  0  0  0  0  0  0
  -26.6904  -17.1471   21.8769 C   0  0  0  0  0  0  0  0  0  0  0  0
  -27.6891  -18.3722   23.7041 C   0  0  0  0  0  0  0  0  0  0  0  0
  -26.7890  -26.9283   20.6959 C   0  0  0  0  0  0  0  0  0  0  0  0
  -27.8247  -14.4889   23.6297 C   0  0  0  0  0  0  0  0  0  0  0  0
  -27.9537  -13.1370   23.3114 C   0  0  0  0  0  0  0  0  0  0  0  0
  -26.7700  -29.2942   20.2258 C   0  0  0  0  0  0  0  0  0  0  0  0
  -25.5499  -12.8978   23.3533 C   0  0  0  0  0  0  0  0  0  0  0  0
  -27.9601  -19.1543   21.4344 C   0  0  0  0  0  0  0  0  0  0  0  0
  -27.8703  -21.2947   20.0494 C   0  0  0  0  0  0  0  0  0  0  0  0
  -17.8315  -30.2134   22.8093 C   0  0  0  0  0  0  0  0  0  0  0  0
  -25.3804  -28.4136   22.0016 C   0  0  0  0  0  0  0  0  0  0  0  0
  -18.8726  -29.3621   22.3923 C   0  0  0  0  0  0  0  0  0  0  0  0
  -25.8438  -29.5084   21.2579 C   0  0  0  0  0  0  0  0  0  0  0  0
  -32.8679  -25.0197   21.7189 C   0  0  0  0  0  0  0  0  0  0  0  0
  -32.0331  -24.0394   22.2439 C   0  0  0  0  0  0  0  0  0  0  0  0
  -32.3354  -26.0194   20.9124 C   0  0  0  0  0  0  0  0  0  0  0  0
  -26.9330  -17.2947   23.2426 C   0  0  0  0  0  0  0  0  0  0  0  0
  -27.2385  -28.0108   19.9456 C   0  0  0  0  0  0  0  0  0  0  0  0
  -26.5583  -15.0453   23.8099 C   0  0  0  0  0  0  0  0  0  0  0  0
  -26.8164  -12.3415   23.1731 C   0  0  0  0  0  0  0  0  0  0  0  0
  -25.4209  -14.2497   23.6716 C   0  0  0  0  0  0  0  0  0  0  0  0
  -28.4913  -20.1148   20.5009 C   0  0  0  0  0  0  0  0  0  0  0  0
  -30.9727  -25.9944   20.6630 C   0  0  0  0  0  0  0  0  0  0  0  0
  -30.6839  -24.1032   21.9350 C   0  0  0  0  0  0  0  0  0  0  0  0
  -28.7784  -21.8503   19.1816 C   0  0  0  0  0  0  0  0  0  0  0  0
  -26.5873  -21.8399   20.3846 C   0  0  0  0  0  0  0  0  0  0  0  0
  -22.5154  -29.7890   21.9442 C   0  0  0  0  0  0  0  0  0  0  0  0
  -24.1226  -32.2937   23.2348 C   0  0  0  0  0  0  0  0  0  0  0  0
  -27.0942  -33.9142   23.6710 C   0  0  0  0  0  0  0  0  0  0  0  0
  -34.3129  -22.5945   18.3662 C   0  0  0  0  0  0  0  0  0  0  0  0
  -17.7938  -31.6700   22.4199 C   0  0  0  0  0  0  0  0  0  0  0  0
  -24.4064  -28.6165   23.1296 C   0  0  0  0  0  0  0  0  0  0  0  0
  -25.3679  -30.9110   21.5310 C   0  0  0  0  0  0  0  0  0  0  0  0
  -19.1408  -32.2086   21.9450 C   0  0  0  0  0  0  0  0  0  0  0  0
  -32.6092  -20.1815   16.5713 C   0  0  0  0  0  0  0  0  0  0  0  0
  -31.9753  -22.7498   24.4816 C   0  0  0  0  0  0  0  0  0  0  0  0
  -33.3511  -23.3242   24.3486 C   0  0  0  0  0  0  0  0  0  0  0  0
  -19.7809  -31.2445   20.9511 C   0  0  0  0  0  0  0  0  0  0  0  0
  -31.3097  -20.0083   17.3567 C   0  0  0  0  0  0  0  0  0  0  0  0
  -30.3669  -26.8660   18.3073 C   0  0  0  0  0  0  0  0  0  0  0  0
  -33.8003  -20.3292   17.5111 C   0  0  0  0  0  0  0  0  0  0  0  0
  -34.7940  -22.6446   20.8728 C   0  0  0  0  0  0  0  0  0  0  0  0
  -35.1754  -24.6125   19.5155 C   0  0  0  0  0  0  0  0  0  0  0  0
  -32.3616  -21.2961   19.2790 C   0  0  0  0  0  0  0  0  0  0  0  0
  -34.3480  -25.0001   22.0221 C   0  0  0  0  0  0  0  0  0  0  0  0
  -32.5725  -22.9530   23.1149 C   0  0  0  0  0  0  0  0  0  0  0  0
  -20.0528  -29.8824   21.6008 C   0  0  1  0  0  0  0  0  0  0  0  0
  -30.3546  -27.0478   19.8010 C   0  0  1  0  0  0  0  0  0  0  0  0
  -23.5888  -29.8969   22.9900 C   0  0  1  0  0  0  0  0  0  0  0  0
  -35.1980  -23.7687   21.7764 C   0  0  2  0  0  0  0  0  0  0  0  0
  -35.4135  -24.9840   20.9429 C   0  0  1  0  0  0  0  0  0  0  0  0
  -31.1268  -21.1529   18.3664 C   0  0  2  0  0  0  0  0  0  0  0  0
  -29.0805  -26.7279   19.0626 C   0  0  1  0  0  0  0  0  0  1  0  0
  -33.2062  -27.0856   20.3348 C   0  0  0  0  0  0  0  0  0  0  0  0
  -29.7370  -23.0778   22.4675 C   0  0  0  0  0  0  0  0  0  0  0  0
  -28.0861  -35.9558   24.7412 C   0  0  0  0  0  0  0  0  0  0  0  0
  -22.9780  -34.0209   20.9951 C   0  0  0  0  0  0  0  0  0  0  0  0
  -24.7065  -35.7486   21.5386 C   0  0  0  0  0  0  0  0  0  0  0  0
  -23.0022  -35.1120   23.2453 C   0  0  0  0  0  0  0  0  0  0  0  0
  -28.8510  -32.2897   25.4128 C   0  0  0  0  0  0  0  0  0  0  0  0
  -24.8586  -33.4905   22.6826 C   0  0  1  0  0  0  0  0  0  0  0  0
  -27.7602  -34.4802   24.9122 C   0  0  2  0  0  0  0  0  0  0  0  0
  -23.8940  -34.5664   22.1087 C   0  0  0  0  0  0  0  0  0  0  0  0
  -29.7004  -19.9306   19.9641 N   0  0  0  0  0  0  0  0  0  0  0  0
  -30.1302  -25.0587   21.1553 N   0  0  0  0  0  0  0  0  0  0  0  0
  -29.8464  -21.0022   19.1664 N   0  0  0  0  0  0  0  0  0  0  0  0
  -24.4108  -31.0571   22.6401 N   0  0  0  0  0  0  0  0  0  0  0  0
  -33.5887  -21.4026   18.4809 N   0  0  0  0  0  0  0  0  0  0  0  0
  -34.6124  -23.2654   19.5538 N   0  0  0  0  0  0  0  0  0  0  0  0
  -28.7595  -22.9766   18.4377 N   0  0  0  0  0  0  0  0  0  0  0  0
  -25.7809  -21.1408   21.2932 N   0  0  0  0  0  0  0  0  0  0  0  0
  -21.2334  -29.9471   22.4353 N   0  0  0  0  0  0  0  0  0  0  0  0
  -25.7193  -33.9721   23.7576 N   0  0  0  0  0  0  0  0  0  0  0  0
  -29.0268  -33.7494   25.1994 N   0  3  0  0  0  0  0  0  0  0  0  0
  -26.1614  -22.9067   19.8805 O   0  0  0  0  0  0  0  0  0  0  0  0
  -22.8272  -29.5794   20.7777 O   0  0  0  0  0  0  0  0  0  0  0  0
  -23.3269  -32.4492   24.1644 O   0  0  0  0  0  0  0  0  0  0  0  0
  -27.7302  -33.4689   22.7182 O   0  0  0  0  0  0  0  0  0  0  0  0
  -34.6919  -23.0219   17.2690 O   0  0  0  0  0  0  0  0  0  0  0  0
  -26.4319  -16.3878   24.1251 O   0  0  0  0  0  0  0  0  0  0  0  0
  -28.1509  -27.8154   18.9282 O   0  0  0  0  0  0  0  0  0  1  0  0
  -26.9403  -11.0436   22.8659 F   0  0  0  0  0  0  0  0  0  0  0  0
  -24.2016  -14.7788   23.8424 F   0  0  0  0  0  0  0  0  0  0  0  0
  1  2  1  0  0  0  0
  1  5  2  0  0  0  0
  2  6  2  0  0  0  0
  3  8  2  0  0  0  0
  3 15  1  0  0  0  0
  4  9  1  0  0  0  0
  4 15  2  0  0  0  0
  5 17  1  0  0  0  0
  6 19  1  0  0  0  0
  7 10  2  0  0  0  0
  7 18  1  0  0  0  0
  8 24  1  0  0  0  0
  9 24  2  0  0  0  0
 10 25  1  0  0  0  0
 11 12  2  0  0  0  0
 11 26  1  0  0  0  0
 12 27  1  0  0  0  0
 13 20  1  0  0  0  0
 13 25  2  0  0  0  0
 14 27  2  0  0  0  0
 14 28  1  0  0  0  0
 15 29  1  0  0  0  0
 16 29  1  0  0  0  0
 16 32  2  0  0  0  0
 16 33  1  0  0  0  0
 17 19  2  0  0  0  0
 17 38  1  0  0  0  0
 18 20  2  0  0  0  0
 18 39  1  0  0  0  0
 19 54  1  0  0  0  0
 20 40  1  0  0  0  0
 21 22  2  0  0  0  0
 21 23  1  0  0  0  0
 21 52  1  0  0  0  0
 22 31  1  0  0  0  0
 22 53  1  0  0  0  0
 23 30  2  0  0  0  0
 23 61  1  0  0  0  0
 24 87  1  0  0  0  0
 25 88  1  0  0  0  0
 26 28  2  0  0  0  0
 26 87  1  0  0  0  0
 27 89  1  0  0  0  0
 28 90  1  0  0  0  0
 29 71  2  0  0  0  0
 30 55  1  0  0  0  0
 30 72  1  0  0  0  0
 31 62  1  0  0  0  0
 31 72  2  0  0  0  0
 32 73  1  0  0  0  0
 32 77  1  0  0  0  0
 33 78  1  0  0  0  0
 33 82  2  0  0  0  0
 34 56  1  0  0  0  0
 34 79  1  0  0  0  0
 34 83  2  0  0  0  0
 35 68  1  0  0  0  0
 35 74  1  0  0  0  0
 35 84  2  0  0  0  0
 36 69  1  0  0  0  0
 36 80  1  0  0  0  0
 36 85  2  0  0  0  0
 37 75  1  0  0  0  0
 37 76  1  0  0  0  0
 37 86  2  0  0  0  0
 38 41  1  0  0  0  0
 39 56  1  0  0  0  0
 40 74  1  0  0  0  0
 41 45  1  0  0  0  0
 42 46  1  0  0  0  0
 42 48  1  0  0  0  0
 43 44  1  0  0  0  0
 43 53  1  0  0  0  0
 44 53  1  0  0  0  0
 45 54  1  0  0  0  0
 46 59  1  0  0  0  0
 47 55  1  0  0  0  0
 47 60  1  0  0  0  0
 48 75  1  0  0  0  0
 49 57  1  0  0  0  0
 49 76  1  0  0  0  0
 50 58  1  0  0  0  0
 50 76  1  0  0  0  0
 51 59  1  0  0  0  0
 51 75  1  0  0  0  0
 52 57  1  0  0  0  0
 52 58  1  0  0  0  0
 54 79  1  0  0  0  0
 55 60  1  0  0  0  0
 56 74  1  0  0  0  0
 57 58  1  0  0  0  0
 59 73  1  0  0  0  0
 60 88  1  0  0  0  0
 63 69  1  0  0  0  0
 64 70  1  0  0  0  0
 65 70  1  0  0  0  0
 66 70  1  0  0  0  0
 67 81  1  0  0  0  0
 68 70  1  0  0  0  0
 68 80  1  0  0  0  0
 69 81  1  0  0  0  0
 71 73  1  0  0  0  0
M  CHG  1  81   1
M  ISO  4  37 100  60 101  76 100  88 101
M  END
> <Batch ID>
0166

> <Smiles>
CNC(C)C(=O)NC(C(=O)N1Cc2cc([101O:1][101CH:1]3CC3c3nc(C)c(C4CC4)c(C4C5C[100N:0]([100C:0](=O)N6CCCC(n7nc(-c8ccc(Oc9ccc(F)cc9F)cc8)c(C(N)=O)c7N)C6)CC54)c3C)ccc2CC1C(=O)NC1CCCc2ccccc21)C(C)(C)C

> <Shape>
0.205

> <Color>
0.098

> <Negative vol penalty>
0.000

$$$$

  -OEChem-04052322243D

 97107  0     1  0  0  0  0  0999 V2000
  -23.3611  -38.6627   25.3278 C   0  0  0  0  0  0  0  0  0  0  0  0
  -24.4411  -37.7863   25.2994 C   0  0  0  0  0  0  0  0  0  0  0  0
  -26.5846  -11.9367   21.6714 C   0  0  0  0  0  0  0  0  0  0  0  0
  -25.6855  -13.5190   20.0823 C   0  0  0  0  0  0  0  0  0  0  0  0
  -22.0731  -38.1882   25.0830 C   0  0  0  0  0  0  0  0  0  0  0  0
  -24.2336  -36.4345   25.0274 C   0  0  0  0  0  0  0  0  0  0  0  0
  -27.3906  -30.8232   21.8867 C   0  0  0  0  0  0  0  0  0  0  0  0
  -25.3727  -11.2463   21.6698 C   0  0  0  0  0  0  0  0  0  0  0  0
  -24.4735  -12.8285   20.0807 C   0  0  0  0  0  0  0  0  0  0  0  0
  -27.7435  -29.5001   22.1487 C   0  0  0  0  0  0  0  0  0  0  0  0
  -23.7732   -9.0264   19.6832 C   0  0  0  0  0  0  0  0  0  0  0  0
  -23.8199   -7.6350   19.5969 C   0  0  0  0  0  0  0  0  0  0  0  0
  -29.8280  -22.7478   17.6487 C   0  0  0  0  0  0  0  0  0  0  0  0
  -25.4844  -28.8077   21.6630 C   0  0  0  0  0  0  0  0  0  0  0  0
  -31.0881  -25.2216   17.3750 C   0  0  0  0  0  0  0  0  0  0  0  0
  -22.6814   -7.4650   21.7211 C   0  0  0  0  0  0  0  0  0  0  0  0
  -26.7410  -13.0731   20.8777 C   0  0  0  0  0  0  0  0  0  0  0  0
  -29.0976  -13.5676   20.0352 C   0  0  0  0  0  0  0  0  0  0  0  0
  -21.8509  -36.8316   24.7983 C   0  0  0  0  0  0  0  0  0  0  0  0
  -26.0770  -31.1504   21.5209 C   0  0  0  0  0  0  0  0  0  0  0  0
  -22.9413  -35.9411   24.7799 C   0  0  0  0  0  0  0  0  0  0  0  0
  -29.8647  -23.6346   18.7247 C   0  0  0  0  0  0  0  0  0  0  0  0
  -25.1180  -30.1354   21.3944 C   0  0  0  0  0  0  0  0  0  0  0  0
  -30.4215  -23.0978   16.4358 C   0  0  0  0  0  0  0  0  0  0  0  0
  -31.0515  -24.3347   16.2990 C   0  0  0  0  0  0  0  0  0  0  0  0
  -24.3171  -11.6922   20.8744 C   0  0  0  0  0  0  0  0  0  0  0  0
  -26.7897  -28.4925   22.0397 C   0  0  0  0  0  0  0  0  0  0  0  0
  -23.1806   -9.6371   20.7885 C   0  0  0  0  0  0  0  0  0  0  0  0
  -30.4947  -24.8715   18.5878 C   0  0  0  0  0  0  0  0  0  0  0  0
  -23.2739   -6.8543   20.6158 C   0  0  0  0  0  0  0  0  0  0  0  0
  -22.6347   -8.8564   21.8074 C   0  0  0  0  0  0  0  0  0  0  0  0
  -27.9926  -13.7871   20.8794 C   0  0  0  0  0  0  0  0  0  0  0  0
  -30.0254  -14.4980   20.4353 C   0  0  0  0  0  0  0  0  0  0  0  0
  -29.2699  -12.6085   18.9835 C   0  0  0  0  0  0  0  0  0  0  0  0
  -23.7786  -32.9473   22.7826 C   0  0  0  0  0  0  0  0  0  0  0  0
  -22.2477  -32.2498   20.0091 C   0  0  0  0  0  0  0  0  0  0  0  0
  -21.8845  -30.1395   17.3518 C   0  0  0  0  0  0  0  0  0  0  0  0
  -29.5613  -19.8048   23.1690 C   0  0  0  0  0  0  0  0  0  0  0  0
  -20.4352  -36.3567   24.5869 C   0  0  0  0  0  0  0  0  0  0  0  0
  -25.7189  -32.5790   21.2156 C   0  0  0  0  0  0  0  0  0  0  0  0
  -23.6991  -30.4315   20.9851 C   0  0  0  0  0  0  0  0  0  0  0  0
  -20.3457  -34.9784   23.9368 C   0  0  0  0  0  0  0  0  0  0  0  0
  -31.4220  -16.9798   24.2799 C   0  0  0  0  0  0  0  0  0  0  0  0
  -21.3066  -34.0058   24.6132 C   0  0  0  0  0  0  0  0  0  0  0  0
  -24.9114  -27.0959   18.9705 C   0  0  0  0  0  0  0  0  0  0  0  0
  -24.6347  -26.4035   17.6652 C   0  0  0  0  0  0  0  0  0  0  0  0
  -30.8538  -15.8214   23.4582 C   0  0  0  0  0  0  0  0  0  0  0  0
  -27.4196  -21.7615   20.8114 C   0  0  0  0  0  0  0  0  0  0  0  0
  -30.3386  -17.9863   24.6608 C   0  0  0  0  0  0  0  0  0  0  0  0
  -28.9806  -17.3461   22.7064 C   0  0  0  0  0  0  0  0  0  0  0  0
  -29.2234  -23.2444   20.0136 C   0  0  1  0  0  0  0  0  0  0  0  0
  -22.7597  -34.4723   24.4640 C   0  0  1  0  0  0  0  0  0  0  0  0
  -24.2261  -32.8628   21.3507 C   0  0  1  0  0  0  0  0  0  0  0  0
  -25.1471  -25.6167   18.8395 C   0  0  0  0  0  0  0  0  0  0  0  0
  -27.7161  -22.9234   19.8387 C   0  0  2  0  0  0  0  0  0  0  0  0
  -30.0455  -16.3338   22.2509 C   0  0  2  0  0  0  0  0  0  0  0  0
  -28.7217  -21.5119   21.5753 C   0  0  2  0  0  0  0  0  0  0  0  0
  -29.7919  -21.9359   20.5775 C   0  0  2  0  0  0  0  0  0  0  0  0
  -30.3714  -22.1307   15.2988 C   0  0  0  0  0  0  0  0  0  0  0  0
  -31.6951  -24.7299   15.0106 C   0  0  0  0  0  0  0  0  0  0  0  0
  -20.5259  -29.8123   15.2674 C   0  0  0  0  0  0  0  0  0  0  0  0
  -27.2580  -24.0893   22.6859 C   0  0  0  0  0  0  0  0  0  0  0  0
  -26.7275  -24.2099   17.5401 C   0  0  0  0  0  0  0  0  0  0  0  0
  -27.5621  -26.2171   18.7437 C   0  0  0  0  0  0  0  0  0  0  0  0
  -19.8981  -31.2786   21.6960 C   0  0  0  0  0  0  0  0  0  0  0  0
  -19.0091  -30.1175   19.6638 C   0  0  0  0  0  0  0  0  0  0  0  0
  -19.2540  -32.6000   19.6728 C   0  0  0  0  0  0  0  0  0  0  0  0
  -24.2801  -30.3175   15.6231 C   0  0  0  0  0  0  0  0  0  0  0  0
  -31.2041  -26.9905   19.4017 C   0  0  0  0  0  0  0  0  0  0  0  0
  -26.4180  -26.1874   21.5874 C   0  0  0  0  0  0  0  0  0  1  0  0
  -21.3219  -31.1510   19.5460 C   0  0  1  0  0  0  0  0  0  0  0  0
  -21.7951  -30.4047   15.8598 C   0  0  2  0  0  0  0  0  0  0  0  0
  -26.8257  -24.1507   20.1084 C   0  0  1  0  0  0  0  0  0  0  0  0
  -27.2812  -24.9234   21.3946 C   0  0  2  0  0  0  0  0  0  0  0  0
  -26.5899  -25.0540   18.8309 C   0  0  0  0  0  0  0  0  0  0  0  0
  -19.8969  -31.2811   20.1543 C   0  0  0  0  0  0  0  0  0  0  0  0
  -28.1978  -14.7789   21.7501 N   0  0  0  0  0  0  0  0  0  0  0  0
  -29.4426  -15.1909   21.4553 N   0  0  0  0  0  0  0  0  0  0  0  0
  -23.3964  -31.8445   20.7035 N   0  0  0  0  0  0  0  0  0  0  0  0
  -29.6104  -18.4339   23.4711 N   0  0  0  0  0  0  0  0  0  0  0  0
  -31.2749  -14.7826   20.0107 N   0  0  0  0  0  0  0  0  0  0  0  0
  -28.2165  -11.7275   18.7034 N   0  0  0  0  0  0  0  0  0  0  0  0
  -23.2521  -34.1751   23.1360 N   0  0  0  0  0  0  0  0  0  0  0  0
  -21.3539  -31.1778   18.0877 N   0  0  0  0  0  0  0  0  0  0  0  0
  -28.8560  -20.1428   22.0205 N   0  0  0  0  0  0  0  0  0  0  0  0
  -31.0872  -22.1595   21.2530 N   0  3  0  0  0  0  0  0  0  0  0  0
  -22.9653  -29.8072   15.1565 N   0  3  0  0  0  0  0  0  0  0  0  0
  -30.3329  -12.5242   18.3228 O   0  0  0  0  0  0  0  0  0  0  0  0
  -23.9004  -31.9704   23.5124 O   0  0  0  0  0  0  0  0  0  0  0  0
  -21.9659  -33.4241   19.7575 O   0  0  0  0  0  0  0  0  0  0  0  0
  -22.3726  -29.1122   17.8177 O   0  0  0  0  0  0  0  0  0  0  0  0
  -30.1101  -20.6634   23.8680 O   0  0  0  0  0  0  0  0  0  0  0  0
  -23.1344  -11.0186   20.8724 O   0  0  0  0  0  0  0  0  0  0  0  0
  -30.5400  -25.7491   19.6290 O   0  0  0  0  0  0  0  0  0  0  0  0
  -27.1336  -27.1916   22.2972 O   0  0  0  0  0  0  0  0  0  1  0  0
  -23.3175   -5.5182   20.5320 F   0  0  0  0  0  0  0  0  0  0  0  0
  -22.0631   -9.4374   22.8711 F   0  0  0  0  0  0  0  0  0  0  0  0
  1  2  1  0  0  0  0
  1  5  2  0  0  0  0
  2  6  2  0  0  0  0
  3  8  2  0  0  0  0
  3 17  1  0  0  0  0
  4  9  1  0  0  0  0
  4 17  2  0  0  0  0
  5 19  1  0  0  0  0
  6 21  1  0  0  0  0
  7 10  2  0  0  0  0
  7 20  1  0  0  0  0
  8 26  1  0  0  0  0
  9 26  2  0  0  0  0
 10 27  1  0  0  0  0
 11 12  2  0  0  0  0
 11 28  1  0  0  0  0
 12 30  1  0  0  0  0
 13 22  1  0  0  0  0
 13 24  2  0  0  0  0
 14 23  1  0  0  0  0
 14 27  2  0  0  0  0
 15 25  2  0  0  0  0
 15 29  1  0  0  0  0
 16 30  2  0  0  0  0
 16 31  1  0  0  0  0
 17 32  1  0  0  0  0
 18 32  1  0  0  0  0
 18 33  2  0  0  0  0
 18 34  1  0  0  0  0
 19 21  2  0  0  0  0
 19 39  1  0  0  0  0
 20 23  2  0  0  0  0
 20 40  1  0  0  0  0
 21 52  1  0  0  0  0
 22 29  2  0  0  0  0
 22 51  1  0  0  0  0
 23 41  1  0  0  0  0
 24 25  1  0  0  0  0
 24 59  1  0  0  0  0
 25 60  1  0  0  0  0
 26 93  1  0  0  0  0
 27 95  1  0  0  0  0
 28 31  2  0  0  0  0
 28 93  1  0  0  0  0
 29 94  1  0  0  0  0
 30 96  1  0  0  0  0
 31 97  1  0  0  0  0
 32 77  2  0  0  0  0
 33 78  1  0  0  0  0
 33 81  1  0  0  0  0
 34 82  1  0  0  0  0
 34 88  2  0  0  0  0
 35 53  1  0  0  0  0
 35 83  1  0  0  0  0
 35 89  2  0  0  0  0
 36 71  1  0  0  0  0
 36 79  1  0  0  0  0
 36 90  2  0  0  0  0
 37 72  1  0  0  0  0
 37 84  1  0  0  0  0
 37 91  2  0  0  0  0
 38 80  1  0  0  0  0
 38 85  1  0  0  0  0
 38 92  2  0  0  0  0
 39 42  1  0  0  0  0
 40 53  1  0  0  0  0
 41 79  1  0  0  0  0
 42 44  1  0  0  0  0
 43 47  1  0  0  0  0
 43 49  1  0  0  0  0
 44 52  1  0  0  0  0
 45 46  1  0  0  0  0
 45 54  1  0  0  0  0
 46 54  1  0  0  0  0
 47 56  1  0  0  0  0
 48 55  1  0  0  0  0
 48 57  1  0  0  0  0
 49 80  1  0  0  0  0
 50 56  1  0  0  0  0
 50 80  1  0  0  0  0
 51 55  1  0  0  0  0
 51 58  1  0  0  0  0
 52 83  1  0  0  0  0
 53 79  1  0  0  0  0
 54 75  1  0  0  0  0
 55 73  1  0  0  0  0
 56 78  1  0  0  0  0
 57 58  1  0  0  0  0
 57 85  1  0  0  0  0
 58 86  1  0  0  0  0
 61 72  1  0  0  0  0
 62 74  1  0  0  0  0
 63 75  1  0  0  0  0
 64 75  1  0  0  0  0
 65 76  1  0  0  0  0
 66 76  1  0  0  0  0
 67 76  1  0  0  0  0
 68 87  1  0  0  0  0
 69 94  1  0  0  0  0
 70 74  1  0  0  0  0
 70 95  1  0  0  0  0
 71 76  1  0  0  0  0
 71 84  1  0  0  0  0
 72 87  1  0  0  0  0
 73 74  1  0  0  0  0
 73 75  1  0  0  0  0
 77 78  1  0  0  0  0
M  CHG  2  86   1  87   1
M  ISO  4  38 100  70 101  85 100  95 101
M  END
> <Batch ID>
0166

> <Smiles>
CNC(C)C(=O)NC(C(=O)N1Cc2cc([101O:1][101CH2:1]C(C)C(C3CC([100NH:0][100C:0](=O)N4CCCC(n5nc(-c6ccc(Oc7ccc(F)cc7F)cc6)c(C(N)=O)c5N)C4)C(N)C3c3cc(C)c(C)cc3OC)C(C)(C)C3CC3)ccc2CC1C(=O)NC1CCCc2ccccc21)C(C)(C)C

> <Shape>
0.273

> <Color>
0.064

> <Negative vol penalty>
0.000

$$$$

  -OEChem-04052322243D

 93103  0     1  0  0  0  0  0999 V2000
  -27.5309  -30.4429   23.2218 C   0  0  0  0  0  0  0  0  0  0  0  0
  -27.1670  -29.1225   23.4661 C   0  0  0  0  0  0  0  0  0  0  0  0
  -23.0033   -9.8908   19.9798 C   0  0  0  0  0  0  0  0  0  0  0  0
  -23.7262   -9.9442   22.2845 C   0  0  0  0  0  0  0  0  0  0  0  0
  -28.6878  -30.9642   23.7993 C   0  0  0  0  0  0  0  0  0  0  0  0
  -27.9606  -28.3224   24.2873 C   0  0  0  0  0  0  0  0  0  0  0  0
  -25.2338  -25.6303   27.5982 C   0  0  0  0  0  0  0  0  0  0  0  0
  -22.2379   -8.7555   20.2461 C   0  0  0  0  0  0  0  0  0  0  0  0
  -22.9608   -8.8089   22.5509 C   0  0  0  0  0  0  0  0  0  0  0  0
  -24.5938  -24.4891   27.1170 C   0  0  0  0  0  0  0  0  0  0  0  0
  -23.2097   -5.4699   22.0814 C   0  0  0  0  0  0  0  0  0  0  0  0
  -23.7978   -4.4540   22.8347 C   0  0  0  0  0  0  0  0  0  0  0  0
  -27.9485  -22.6227   24.0018 C   0  0  0  0  0  0  0  0  0  0  0  0
  -26.3617  -23.1219   28.0250 C   0  0  0  0  0  0  0  0  0  0  0  0
  -22.0720   -4.6958   24.5081 C   0  0  0  0  0  0  0  0  0  0  0  0
  -23.7475  -10.4851   20.9990 C   0  0  0  0  0  0  0  0  0  0  0  0
  -24.1298  -13.0011   20.8217 C   0  0  0  0  0  0  0  0  0  0  0  0
  -29.4909  -30.1729   24.6357 C   0  0  0  0  0  0  0  0  0  0  0  0
  -26.4503  -25.5267   28.2881 C   0  0  0  0  0  0  0  0  0  0  0  0
  -29.1302  -28.8332   24.8755 C   0  0  0  0  0  0  0  0  0  0  0  0
  -27.1483  -21.7803   23.2478 C   0  0  0  0  0  0  0  0  0  0  0  0
  -27.0139  -24.2632   28.5162 C   0  0  0  0  0  0  0  0  0  0  0  0
  -27.7052  -20.9171   22.2951 C   0  0  0  0  0  0  0  0  0  0  0  0
  -29.3277  -22.5954   23.7845 C   0  0  0  0  0  0  0  0  0  0  0  0
  -29.0727  -20.8749   22.0823 C   0  0  0  0  0  0  0  0  0  0  0  0
  -29.8857  -21.7275   22.8322 C   0  0  0  0  0  0  0  0  0  0  0  0
  -22.2166   -8.2146   21.5317 C   0  0  0  0  0  0  0  0  0  0  0  0
  -25.1591  -23.2349   27.3278 C   0  0  0  0  0  0  0  0  0  0  0  0
  -22.0528   -6.0990   22.5414 C   0  0  0  0  0  0  0  0  0  0  0  0
  -23.2290   -4.0669   24.0480 C   0  0  0  0  0  0  0  0  0  0  0  0
  -21.4839   -5.7119   23.7548 C   0  0  0  0  0  0  0  0  0  0  0  0
  -24.5387  -11.6575   20.7243 C   0  0  0  0  0  0  0  0  0  0  0  0
  -25.2390  -13.7248   20.4579 C   0  0  0  0  0  0  0  0  0  0  0  0
  -22.8608  -13.5461   21.2067 C   0  0  0  0  0  0  0  0  0  0  0  0
  -29.4074  -26.5816   27.7920 C   0  0  0  0  0  0  0  0  0  0  0  0
  -29.9264  -25.3464   30.7462 C   0  0  0  0  0  0  0  0  0  0  0  0
  -28.9897  -23.1278   33.1643 C   0  0  0  0  0  0  0  0  0  0  0  0
  -30.7272  -14.6763   20.6932 C   0  0  0  0  0  0  0  0  0  0  0  0
  -30.7576  -30.7665   25.1994 C   0  0  0  0  0  0  0  0  0  0  0  0
  -27.1146  -26.7651   28.8241 C   0  0  0  0  0  0  0  0  0  0  0  0
  -26.6461  -20.0815   21.6461 C   0  0  0  0  0  0  0  0  0  0  0  0
  -28.3079  -24.0962   29.2686 C   0  0  0  0  0  0  0  0  0  0  0  0
  -31.3430  -29.9640   26.3585 C   0  0  0  0  0  0  0  0  0  0  0  0
  -25.3803  -20.8856   21.9895 C   0  0  0  0  0  0  0  0  0  0  0  0
  -29.6007  -12.2392   18.3687 C   0  0  0  0  0  0  0  0  0  0  0  0
  -31.3687  -28.4770   26.0192 C   0  0  0  0  0  0  0  0  0  0  0  0
  -28.1512  -11.9790   18.7822 C   0  0  0  0  0  0  0  0  0  0  0  0
  -30.4991  -12.4772   19.5805 C   0  0  0  0  0  0  0  0  0  0  0  0
  -28.5861  -13.2710   20.9134 C   0  0  0  0  0  0  0  0  0  0  0  0
  -29.9301  -17.9678   22.5091 C   0  0  0  0  0  0  0  0  0  0  0  0
  -30.9756  -17.9091   20.7038 C   0  0  0  0  0  0  0  0  0  0  0  0
  -29.9519  -27.9411   25.7805 C   0  0  1  0  0  0  0  0  0  0  0  0
  -25.6630  -21.6080   23.3190 C   0  0  1  0  0  0  0  0  0  0  0  0
  -28.6100  -26.5842   29.0656 C   0  0  1  0  0  0  0  0  0  0  0  0
  -27.6295  -13.0814   19.7237 C   0  0  2  0  0  0  0  0  0  0  0  0
  -30.8262  -16.9002   21.8564 C   0  0  0  0  0  0  0  0  0  0  0  0
  -30.1979  -23.5046   24.5912 C   0  0  0  0  0  0  0  0  0  0  0  0
  -31.3682  -21.7129   22.6234 C   0  0  0  0  0  0  0  0  0  0  0  0
  -29.6286  -22.3233   35.4539 C   0  0  0  0  0  0  0  0  0  0  0  0
  -21.9806  -20.0661   26.3988 C   0  0  0  0  0  0  0  0  0  0  0  0
  -23.0540  -18.4970   24.7679 C   0  0  0  0  0  0  0  0  0  0  0  0
  -32.2434  -23.7678   29.5423 C   0  0  0  0  0  0  0  0  0  0  0  0
  -32.2220  -22.3153   31.5814 C   0  0  0  0  0  0  0  0  0  0  0  0
  -32.7101  -24.7525   31.7933 C   0  0  0  0  0  0  0  0  0  0  0  0
  -26.3921  -23.9641   34.3098 C   0  0  0  0  0  0  0  0  0  0  0  0
  -29.6541  -19.9370   21.0789 C   0  0  0  0  0  0  0  0  0  0  0  0
  -23.7515  -22.2627   25.6758 C   0  0  0  0  0  0  0  0  0  1  0  0
  -30.3508  -24.0007   31.2829 C   0  0  1  0  0  0  0  0  0  0  0  0
  -28.7738  -23.2968   34.6574 C   0  0  2  0  0  0  0  0  0  0  0  0
  -23.2703  -19.7396   25.6372 C   0  0  0  0  0  0  0  0  0  0  0  0
  -23.8102  -20.9663   24.8685 C   0  0  2  0  0  0  0  0  0  0  0  0
  -31.8581  -23.7120   31.0341 C   0  0  0  0  0  0  0  0  0  0  0  0
  -25.8086  -11.5323   20.3295 N   0  0  0  0  0  0  0  0  0  0  0  0
  -26.2071  -12.8065   20.1754 N   0  0  0  0  0  0  0  0  0  0  0  0
  -28.9225  -25.3376   29.7675 N   0  0  0  0  0  0  0  0  0  0  0  0
  -29.9490  -13.5386   20.4275 N   0  0  0  0  0  0  0  0  0  0  0  0
  -25.4709  -15.0507   20.3552 N   0  0  0  0  0  0  0  0  0  0  0  0
  -21.8298  -12.6609   21.5498 N   0  0  0  0  0  0  0  0  0  0  0  0
  -29.2712  -27.7333   27.0407 N   0  0  0  0  0  0  0  0  0  0  0  0
  -29.9628  -23.9813   32.6891 N   0  0  0  0  0  0  0  0  0  0  0  0
  -30.1351  -15.6448   21.4971 N   0  0  0  0  0  0  0  0  0  0  0  0
  -30.6153  -18.9638   21.6672 N   0  3  0  0  0  0  0  0  0  0  0  0
  -25.2285  -20.7502   24.4516 N   0  3  0  0  0  0  0  0  0  0  0  0
  -27.3441  -23.0594   35.0043 N   0  3  0  0  0  0  0  0  0  0  0  0
  -22.6425  -14.7812   21.2294 O   0  0  0  0  0  0  0  0  0  0  0  0
  -30.0964  -25.6076   27.5126 O   0  0  0  0  0  0  0  0  0  0  0  0
  -30.4607  -26.3681   31.1846 O   0  0  0  0  0  0  0  0  0  0  0  0
  -28.3607  -22.3170   32.4880 O   0  0  0  0  0  0  0  0  0  0  0  0
  -31.8677  -14.8291   20.2424 O   0  0  0  0  0  0  0  0  0  0  0  0
  -21.4697   -7.1069   21.7920 O   0  0  0  0  0  0  0  0  0  0  0  0
  -24.5368  -22.1193   26.8586 O   0  0  0  0  0  0  0  0  0  1  0  0
  -23.7929   -3.0902   24.7706 F   0  0  0  0  0  0  0  0  0  0  0  0
  -20.3719   -6.3116   24.2013 F   0  0  0  0  0  0  0  0  0  0  0  0
  1  2  1  0  0  0  0
  1  5  2  0  0  0  0
  2  6  2  0  0  0  0
  3  8  2  0  0  0  0
  3 16  1  0  0  0  0
  4  9  1  0  0  0  0
  4 16  2  0  0  0  0
  5 18  1  0  0  0  0
  6 20  1  0  0  0  0
  7 10  2  0  0  0  0
  7 19  1  0  0  0  0
  8 27  1  0  0  0  0
  9 27  2  0  0  0  0
 10 28  1  0  0  0  0
 11 12  2  0  0  0  0
 11 29  1  0  0  0  0
 12 30  1  0  0  0  0
 13 21  2  0  0  0  0
 13 24  1  0  0  0  0
 14 22  1  0  0  0  0
 14 28  2  0  0  0  0
 15 30  2  0  0  0  0
 15 31  1  0  0  0  0
 16 32  1  0  0  0  0
 17 32  1  0  0  0  0
 17 33  2  0  0  0  0
 17 34  1  0  0  0  0
 18 20  2  0  0  0  0
 18 39  1  0  0  0  0
 19 22  2  0  0  0  0
 19 40  1  0  0  0  0
 20 52  1  0  0  0  0
 21 23  1  0  0  0  0
 21 53  1  0  0  0  0
 22 42  1  0  0  0  0
 23 25  2  0  0  0  0
 23 41  1  0  0  0  0
 24 26  2  0  0  0  0
 24 57  1  0  0  0  0
 25 26  1  0  0  0  0
 25 66  1  0  0  0  0
 26 58  1  0  0  0  0
 27 90  1  0  0  0  0
 28 91  1  0  0  0  0
 29 31  2  0  0  0  0
 29 90  1  0  0  0  0
 30 92  1  0  0  0  0
 31 93  1  0  0  0  0
 32 73  2  0  0  0  0
 33 74  1  0  0  0  0
 33 77  1  0  0  0  0
 34 78  1  0  0  0  0
 34 85  2  0  0  0  0
 35 54  1  0  0  0  0
 35 79  1  0  0  0  0
 35 86  2  0  0  0  0
 36 68  1  0  0  0  0
 36 75  1  0  0  0  0
 36 87  2  0  0  0  0
 37 69  1  0  0  0  0
 37 80  1  0  0  0  0
 37 88  2  0  0  0  0
 38 76  1  0  0  0  0
 38 81  1  0  0  0  0
 38 89  2  0  0  0  0
 39 43  1  0  0  0  0
 40 54  1  0  0  0  0
 41 44  1  0  0  0  0
 42 75  1  0  0  0  0
 43 46  1  0  0  0  0
 44 53  1  0  0  0  0
 45 47  1  0  0  0  0
 45 48  1  0  0  0  0
 46 52  1  0  0  0  0
 47 55  1  0  0  0  0
 48 76  1  0  0  0  0
 49 55  1  0  0  0  0
 49 76  1  0  0  0  0
 50 56  1  0  0  0  0
 50 82  1  0  0  0  0
 51 56  1  0  0  0  0
 51 82  1  0  0  0  0
 52 79  1  0  0  0  0
 53 83  1  0  0  0  0
 54 75  1  0  0  0  0
 55 74  1  0  0  0  0
 56 81  1  0  0  0  0
 59 69  1  0  0  0  0
 60 70  1  0  0  0  0
 61 70  1  0  0  0  0
 62 72  1  0  0  0  0
 63 72  1  0  0  0  0
 64 72  1  0  0  0  0
 65 84  1  0  0  0  0
 66 82  1  0  0  0  0
 67 71  1  0  0  0  0
 67 91  1  0  0  0  0
 68 72  1  0  0  0  0
 68 80  1  0  0  0  0
 69 84  1  0  0  0  0
 70 71  1  0  0  0  0
 71 83  1  0  0  0  0
 73 74  1  0  0  0  0
M  CHG  3  82   1  83   1  84   1
M  ISO  4  38 100  67 101  81 100  91 101
M  END
> <Batch ID>
0166

> <Smiles>
CNC(C)C(=O)NC(C(=O)N1Cc2cc([101O:1][101CH2:1]C(NC3CCc4c3cc(C)c(C)c4CN3CC([100NH:0][100C:0](=O)N4CCCC(n5nc(-c6ccc(Oc7ccc(F)cc7F)cc6)c(C(N)=O)c5N)C4)C3)C(C)C)ccc2CC1C(=O)NC1CCCc2ccccc21)C(C)(C)C

> <Shape>
0.200

> <Color>
0.178

> <Negative vol penalty>
0.000

$$$$

  -OEChem-04052322243D

 86 95  0     1  0  0  0  0  0999 V2000
  -28.7677  -33.7271   26.3685 C   0  0  0  0  0  0  0  0  0  0  0  0
  -28.6283  -32.4792   25.7696 C   0  0  0  0  0  0  0  0  0  0  0  0
  -24.3399   -9.0855   21.8856 C   0  0  0  0  0  0  0  0  0  0  0  0
  -24.2868   -8.2544   19.6177 C   0  0  0  0  0  0  0  0  0  0  0  0
  -27.6485  -34.5361   26.5599 C   0  0  0  0  0  0  0  0  0  0  0  0
  -27.3692  -32.0392   25.3626 C   0  0  0  0  0  0  0  0  0  0  0  0
  -27.4376  -29.9548   20.7479 C   0  0  0  0  0  0  0  0  0  0  0  0
  -29.6873  -24.2214   19.0641 C   0  0  0  0  0  0  0  0  0  0  0  0
  -23.2109   -8.3254   22.1906 C   0  0  0  0  0  0  0  0  0  0  0  0
  -23.1577   -7.4943   19.9227 C   0  0  0  0  0  0  0  0  0  0  0  0
  -27.9186  -28.6502   20.6456 C   0  0  0  0  0  0  0  0  0  0  0  0
  -29.9973  -22.8717   18.8977 C   0  0  0  0  0  0  0  0  0  0  0  0
  -20.5566   -6.3253   23.6635 C   0  0  0  0  0  0  0  0  0  0  0  0
  -20.5626   -5.6058   24.8585 C   0  0  0  0  0  0  0  0  0  0  0  0
  -25.6523  -27.8261   20.5799 C   0  0  0  0  0  0  0  0  0  0  0  0
  -22.5056   -4.3799   24.1105 C   0  0  0  0  0  0  0  0  0  0  0  0
  -24.8779   -9.0501   20.5991 C   0  0  0  0  0  0  0  0  0  0  0  0
  -27.3905   -9.4411   20.3960 C   0  0  0  0  0  0  0  0  0  0  0  0
  -26.3765  -34.1099   26.1464 C   0  0  0  0  0  0  0  0  0  0  0  0
  -26.0580  -30.2044   20.7781 C   0  0  0  0  0  0  0  0  0  0  0  0
  -26.2317  -32.8427   25.5499 C   0  0  0  0  0  0  0  0  0  0  0  0
  -25.1564  -29.1350   20.6801 C   0  0  0  0  0  0  0  0  0  0  0  0
  -29.2326  -24.6856   20.2984 C   0  0  0  0  0  0  0  0  0  0  0  0
  -29.0879  -23.8000   21.3663 C   0  0  0  0  0  0  0  0  0  0  0  0
  -29.3980  -22.4502   21.2000 C   0  0  0  0  0  0  0  0  0  0  0  0
  -22.6198   -7.5298   21.2092 C   0  0  0  0  0  0  0  0  0  0  0  0
  -27.0260  -27.5854   20.5645 C   0  0  0  0  0  0  0  0  0  0  0  0
  -29.8526  -21.9861   19.9656 C   0  0  0  0  0  0  0  0  0  0  0  0
  -21.5250   -6.0720   22.6920 C   0  0  0  0  0  0  0  0  0  0  0  0
  -21.5371   -4.6331   25.0820 C   0  0  0  0  0  0  0  0  0  0  0  0
  -22.4995   -5.0994   22.9156 C   0  0  0  0  0  0  0  0  0  0  0  0
  -26.0438   -9.8355   20.2833 C   0  0  0  0  0  0  0  0  0  0  0  0
  -28.1053  -10.5366   19.9770 C   0  0  0  0  0  0  0  0  0  0  0  0
  -27.9457   -8.1960   20.8398 C   0  0  0  0  0  0  0  0  0  0  0  0
  -24.0569  -31.4920   22.8855 C   0  0  0  0  0  0  0  0  0  0  0  0
  -21.9156  -31.1555   20.4723 C   0  0  0  0  0  0  0  0  0  0  0  0
  -21.0102  -29.5380   17.6068 C   0  0  0  0  0  0  0  0  0  0  0  0
  -29.1598  -15.7985   19.8611 C   0  0  0  0  0  0  0  0  0  0  0  0
  -25.1892  -34.9995   26.4173 C   0  0  0  0  0  0  0  0  0  0  0  0
  -25.5551  -31.6195   20.8619 C   0  0  0  0  0  0  0  0  0  0  0  0
  -23.6658  -29.3512   20.6878 C   0  0  0  0  0  0  0  0  0  0  0  0
  -23.9463  -34.6167   25.6179 C   0  0  0  0  0  0  0  0  0  0  0  0
  -26.6057  -14.7782   17.6799 C   0  0  0  0  0  0  0  0  0  0  0  0
  -23.7107  -33.1111   25.6857 C   0  0  0  0  0  0  0  0  0  0  0  0
  -26.3349  -13.3571   18.1735 C   0  0  0  0  0  0  0  0  0  0  0  0
  -30.2970  -18.8830   18.1464 C   0  0  0  0  0  0  0  0  0  0  0  0
  -28.1478  -19.3759   19.3905 C   0  0  0  0  0  0  0  0  0  0  0  0
  -26.8431  -15.7509   18.8363 C   0  0  0  0  0  0  0  0  0  0  0  0
  -30.5313  -17.6913   19.0735 C   0  0  0  0  0  0  0  0  0  0  0  0
  -28.4331  -18.1760   20.2908 C   0  0  0  0  0  0  0  0  0  0  0  0
  -27.6271  -13.8966   20.2728 C   0  0  0  0  0  0  0  0  0  0  0  0
  -24.8863  -32.3407   25.0725 C   0  0  1  0  0  0  0  0  0  0  0  0
  -24.1316  -31.7167   21.4018 C   0  0  1  0  0  0  0  0  0  0  0  0
  -27.4428  -12.8843   19.1314 C   0  0  1  0  0  0  0  0  0  0  0  0
  -29.4233  -19.9637   18.7843 C   0  0  0  0  0  0  0  0  0  0  0  0
  -28.6009  -24.3001   22.6895 C   0  0  0  0  0  0  0  0  0  0  0  0
  -29.2453  -21.4945   22.3402 C   0  0  0  0  0  0  0  0  0  0  0  0
  -19.1889  -29.4560   15.8825 C   0  0  0  0  0  0  0  0  0  0  0  0
  -20.1272  -29.6538   22.4362 C   0  0  0  0  0  0  0  0  0  0  0  0
  -18.8193  -28.7959   20.4813 C   0  0  0  0  0  0  0  0  0  0  0  0
  -18.9194  -31.2470   20.9338 C   0  0  0  0  0  0  0  0  0  0  0  0
  -22.8767  -30.2765   15.4320 C   0  0  0  0  0  0  0  0  0  0  0  0
  -28.9079  -26.1358   20.4496 C   0  0  0  0  0  0  0  0  0  1  0  0
  -20.9656  -30.0689   20.0298 C   0  0  1  0  0  0  0  0  0  0  0  0
  -20.5316  -30.0596   16.2640 C   0  0  2  0  0  0  0  0  0  0  0  0
  -19.7359  -29.9368   20.9720 C   0  0  0  0  0  0  0  0  0  0  0  0
  -25.9085  -11.0840   19.8284 N   0  0  0  0  0  0  0  0  0  0  0  0
  -27.1794  -11.4837   19.6517 N   0  0  0  0  0  0  0  0  0  0  0  0
  -23.2233  -30.7525   20.7777 N   0  0  0  0  0  0  0  0  0  0  0  0
  -27.8789  -15.2384   19.7432 N   0  0  0  0  0  0  0  0  0  0  0  0
  -29.2748  -17.1776   19.6177 N   0  0  0  0  0  0  0  0  0  0  0  0
  -29.4293  -10.7724   19.8587 N   0  0  0  0  0  0  0  0  0  0  0  0
  -27.0689   -7.1764   21.2347 N   0  0  0  0  0  0  0  0  0  0  0  0
  -24.8157  -32.3771   23.6275 N   0  0  0  0  0  0  0  0  0  0  0  0
  -20.6260  -30.3639   18.6420 N   0  0  0  0  0  0  0  0  0  0  0  0
  -21.5172  -29.7254   15.1973 N   0  3  0  0  0  0  0  0  0  0  0  0
  -29.1831   -7.9991   20.9003 O   0  0  0  0  0  0  0  0  0  0  0  0
  -23.3612  -30.5839   23.3249 O   0  0  0  0  0  0  0  0  0  0  0  0
  -21.5141  -32.3200   20.5376 O   0  0  0  0  0  0  0  0  0  0  0  0
  -21.6569  -28.4997   17.7260 O   0  0  0  0  0  0  0  0  0  0  0  0
  -30.1431  -15.1101   20.1618 O   0  0  0  0  0  0  0  0  0  0  0  0
  -21.5182   -6.7878   21.5065 O   0  0  0  0  0  0  0  0  0  0  0  0
  -30.1621  -20.6640   19.7828 O   0  0  0  0  0  0  0  0  0  0  0  0
  -27.4962  -26.3019   20.4645 O   0  0  0  0  0  0  0  0  0  1  0  0
  -21.5437   -3.9433   26.2302 F   0  0  0  0  0  0  0  0  0  0  0  0
  -23.4331   -4.8525   21.9865 F   0  0  0  0  0  0  0  0  0  0  0  0
  1  2  1  0  0  0  0
  1  5  2  0  0  0  0
  2  6  2  0  0  0  0
  3  9  2  0  0  0  0
  3 17  1  0  0  0  0
  4 10  1  0  0  0  0
  4 17  2  0  0  0  0
  5 19  1  0  0  0  0
  6 21  1  0  0  0  0
  7 11  2  0  0  0  0
  7 20  1  0  0  0  0
  8 12  2  0  0  0  0
  8 23  1  0  0  0  0
  9 26  1  0  0  0  0
 10 26  2  0  0  0  0
 11 27  1  0  0  0  0
 12 28  1  0  0  0  0
 13 14  2  0  0  0  0
 13 29  1  0  0  0  0
 14 30  1  0  0  0  0
 15 22  1  0  0  0  0
 15 27  2  0  0  0  0
 16 30  2  0  0  0  0
 16 31  1  0  0  0  0
 17 32  1  0  0  0  0
 18 32  1  0  0  0  0
 18 33  2  0  0  0  0
 18 34  1  0  0  0  0
 19 21  2  0  0  0  0
 19 39  1  0  0  0  0
 20 22  2  0  0  0  0
 20 40  1  0  0  0  0
 21 52  1  0  0  0  0
 22 41  1  0  0  0  0
 23 24  2  0  0  0  0
 23 63  1  0  0  0  0
 24 25  1  0  0  0  0
 24 56  1  0  0  0  0
 25 28  2  0  0  0  0
 25 57  1  0  0  0  0
 26 82  1  0  0  0  0
 27 84  1  0  0  0  0
 28 83  1  0  0  0  0
 29 31  2  0  0  0  0
 29 82  1  0  0  0  0
 30 85  1  0  0  0  0
 31 86  1  0  0  0  0
 32 67  2  0  0  0  0
 33 68  1  0  0  0  0
 33 72  1  0  0  0  0
 34 73  1  0  0  0  0
 34 77  2  0  0  0  0
 35 53  1  0  0  0  0
 35 74  1  0  0  0  0
 35 78  2  0  0  0  0
 36 64  1  0  0  0  0
 36 69  1  0  0  0  0
 36 79  2  0  0  0  0
 37 65  1  0  0  0  0
 37 75  1  0  0  0  0
 37 80  2  0  0  0  0
 38 70  1  0  0  0  0
 38 71  1  0  0  0  0
 38 81  2  0  0  0  0
 39 42  1  0  0  0  0
 40 53  1  0  0  0  0
 41 69  1  0  0  0  0
 42 44  1  0  0  0  0
 43 45  1  0  0  0  0
 43 48  1  0  0  0  0
 44 52  1  0  0  0  0
 45 54  1  0  0  0  0
 46 49  1  0  0  0  0
 46 55  1  0  0  0  0
 47 50  1  0  0  0  0
 47 55  1  0  0  0  0
 48 70  1  0  0  0  0
 49 71  1  0  0  0  0
 50 71  1  0  0  0  0
 51 54  1  0  0  0  0
 51 70  1  0  0  0  0
 52 74  1  0  0  0  0
 53 69  1  0  0  0  0
 54 68  1  0  0  0  0
 55 83  1  0  0  0  0
 58 65  1  0  0  0  0
 59 66  1  0  0  0  0
 60 66  1  0  0  0  0
 61 66  1  0  0  0  0
 62 76  1  0  0  0  0
 63 84  1  0  0  0  0
 64 66  1  0  0  0  0
 64 75  1  0  0  0  0
 65 76  1  0  0  0  0
 67 68  1  0  0  0  0
M  CHG  1  76   1
M  ISO  4  38 100  63 101  71 100  84 101
M  END
> <Batch ID>
0166

> <Smiles>
CNC(C)C(=O)NC(C(=O)N1Cc2cc([101O:1][101CH2:1]c3ccc(OC4CC[100N:0]([100C:0](=O)N5CCCC(n6nc(-c7ccc(Oc8ccc(F)cc8F)cc7)c(C(N)=O)c6N)C5)CC4)c(C)c3C)ccc2CC1C(=O)NC1CCCc2ccccc21)C(C)(C)C

> <Shape>
0.312

> <Color>
0.095

> <Negative vol penalty>
0.000

$$$$

  -OEChem-04052322243D

 90100  0     1  0  0  0  0  0999 V2000
  -31.9869  -26.3445   19.1551 C   0  0  0  0  0  0  0  0  0  0  0  0
  -30.7103  -26.1886   18.6248 C   0  0  0  0  0  0  0  0  0  0  0  0
  -26.1237  -14.9902   22.6242 C   0  0  0  0  0  0  0  0  0  0  0  0
  -28.2890  -13.9187   22.6504 C   0  0  0  0  0  0  0  0  0  0  0  0
  -32.1456  -26.7282   20.4861 C   0  0  0  0  0  0  0  0  0  0  0  0
  -29.5914  -26.4151   19.4256 C   0  0  0  0  0  0  0  0  0  0  0  0
  -22.8576  -28.8307   19.0552 C   0  0  0  0  0  0  0  0  0  0  0  0
  -25.6506  -14.0129   21.7486 C   0  0  0  0  0  0  0  0  0  0  0  0
  -27.8159  -12.9413   21.7749 C   0  0  0  0  0  0  0  0  0  0  0  0
  -21.5591  -28.4578   19.3995 C   0  0  0  0  0  0  0  0  0  0  0  0
  -23.7686  -11.5965   19.7905 C   0  0  0  0  0  0  0  0  0  0  0  0
  -22.5157  -11.0425   20.0528 C   0  0  0  0  0  0  0  0  0  0  0  0
  -24.3146  -22.1394   23.3146 C   0  0  0  0  0  0  0  0  0  0  0  0
  -21.9543  -29.1938   21.6626 C   0  0  0  0  0  0  0  0  0  0  0  0
  -24.1659  -19.9513   22.2680 C   0  0  0  0  0  0  0  0  0  0  0  0
  -23.3097  -10.2619   22.1969 C   0  0  0  0  0  0  0  0  0  0  0  0
  -27.4429  -14.9431   23.0750 C   0  0  0  0  0  0  0  0  0  0  0  0
  -27.4405  -16.2548   25.2630 C   0  0  0  0  0  0  0  0  0  0  0  0
  -31.0281  -26.9689   21.3009 C   0  0  0  0  0  0  0  0  0  0  0  0
  -23.7193  -29.3788   20.0163 C   0  0  0  0  0  0  0  0  0  0  0  0
  -29.7353  -26.8010   20.7691 C   0  0  0  0  0  0  0  0  0  0  0  0
  -25.6873  -22.0919   23.1338 C   0  0  0  0  0  0  0  0  0  0  0  0
  -23.2624  -29.5752   21.3273 C   0  0  0  0  0  0  0  0  0  0  0  0
  -23.5513  -21.0583   22.8723 C   0  0  0  0  0  0  0  0  0  0  0  0
  -25.5509  -19.9148   22.0837 C   0  0  0  0  0  0  0  0  0  0  0  0
  -26.2970  -21.0075   22.4969 C   0  0  0  0  0  0  0  0  0  0  0  0
  -26.4967  -12.9884   21.3240 C   0  0  0  0  0  0  0  0  0  0  0  0
  -21.1082  -28.6366   20.7041 C   0  0  0  0  0  0  0  0  0  0  0  0
  -24.7922  -11.4832   20.7314 C   0  0  0  0  0  0  0  0  0  0  0  0
  -22.2862  -10.3753   21.2560 C   0  0  0  0  0  0  0  0  0  0  0  0
  -24.5627  -10.8159   21.9346 C   0  0  0  0  0  0  0  0  0  0  0  0
  -27.9324  -15.9528   23.9790 C   0  0  0  0  0  0  0  0  0  0  0  0
  -28.2394  -17.2813   25.7041 C   0  0  0  0  0  0  0  0  0  0  0  0
  -26.3582  -15.6605   25.9919 C   0  0  0  0  0  0  0  0  0  0  0  0
  -26.5039  -28.5173   21.2841 C   0  0  0  0  0  0  0  0  0  0  0  0
  -26.3115  -31.4251   22.7090 C   0  0  0  0  0  0  0  0  0  0  0  0
  -24.3460  -33.9949   23.7952 C   0  0  0  0  0  0  0  0  0  0  0  0
  -28.6703  -20.3665   21.9480 C   0  0  0  0  0  0  0  0  0  0  0  0
  -31.2496  -27.3359   22.7469 C   0  0  0  0  0  0  0  0  0  0  0  0
  -25.1083  -29.8007   19.6225 C   0  0  0  0  0  0  0  0  0  0  0  0
  -26.6981  -23.1191   23.5394 C   0  0  0  0  0  0  0  0  0  0  0  0
  -24.1413  -30.1782   22.3914 C   0  0  0  0  0  0  0  0  0  0  0  0
  -30.0122  -27.9203   23.4234 C   0  0  0  0  0  0  0  0  0  0  0  0
  -31.4565  -18.3336   22.4238 C   0  0  0  0  0  0  0  0  0  0  0  0
  -28.7816  -27.0767   23.1058 C   0  0  0  0  0  0  0  0  0  0  0  0
  -31.4940  -18.0854   23.9304 C   0  0  0  0  0  0  0  0  0  0  0  0
  -17.8515  -23.4609   21.6799 C   0  0  0  0  0  0  0  0  0  0  0  0
  -28.0073  -22.3508   23.3279 C   0  0  0  0  0  0  0  0  0  0  0  0
  -31.0652  -19.7714   22.1119 C   0  0  0  0  0  0  0  0  0  0  0  0
  -29.7653  -19.9621   24.2085 C   0  0  0  0  0  0  0  0  0  0  0  0
  -17.5466  -24.8725   21.2077 C   0  0  0  0  0  0  0  0  0  0  0  0
  -19.7594  -24.7417   22.2412 C   0  0  0  0  0  0  0  0  0  0  0  0
  -28.4970  -27.0616   21.5991 C   0  0  1  0  0  0  0  0  0  0  0  0
  -26.0686  -29.8735   20.8056 C   0  0  1  0  0  0  0  0  0  0  0  0
  -19.3714  -23.3911   21.6629 C   0  0  1  0  0  0  0  0  0  0  0  0
  -30.2347  -18.5666   24.6753 C   0  0  1  0  0  0  0  0  0  0  0  0
  -26.1054  -18.7444   21.3468 C   0  0  0  0  0  0  0  0  0  0  0  0
  -24.4716  -36.2170   24.9544 C   0  0  0  0  0  0  0  0  0  0  0  0
  -26.7350  -30.0066   25.3771 C   0  0  0  0  0  0  0  0  0  0  0  0
  -25.9147  -32.0738   26.5269 C   0  0  0  0  0  0  0  0  0  0  0  0
  -27.9808  -32.1612   25.1318 C   0  0  0  0  0  0  0  0  0  0  0  0
  -23.2003  -35.4079   21.4607 C   0  0  0  0  0  0  0  0  0  0  0  0
  -22.0689  -21.0786   23.0440 C   0  0  0  0  0  0  0  0  0  0  0  0
  -19.9275  -22.2231   22.4579 C   0  0  0  0  0  0  0  0  0  0  0  0
  -18.4540  -26.8881   22.4422 C   0  0  0  0  0  0  0  0  0  0  0  0
  -19.6231  -27.8516   22.3876 C   0  0  0  0  0  0  0  0  0  1  0  0
  -25.7298  -31.9462   24.0009 C   0  0  1  0  0  0  0  0  0  0  0  0
  -24.4620  -35.4977   23.6145 C   0  0  2  0  0  0  0  0  0  0  0  0
  -26.5739  -31.5337   25.2398 C   0  0  0  0  0  0  0  0  0  0  0  0
  -28.9638  -16.7251   23.6271 N   0  0  0  0  0  0  0  0  0  0  0  0
  -29.1265  -17.5225   24.6965 N   0  0  0  0  0  0  0  0  0  0  0  0
  -27.6922  -21.2095   22.4533 N   0  0  0  0  0  0  0  0  0  0  0  0
  -25.4932  -30.5688   21.9587 N   0  0  0  0  0  0  0  0  0  0  0  0
  -29.7968  -20.1229   22.7468 N   0  0  0  0  0  0  0  0  0  0  0  0
  -28.2626  -17.9921   26.8515 N   0  0  0  0  0  0  0  0  0  0  0  0
  -25.0742  -16.2013   25.8405 N   0  0  0  0  0  0  0  0  0  0  0  0
  -27.8651  -28.2982   21.1917 N   0  0  0  0  0  0  0  0  0  0  0  0
  -25.5835  -33.3877   23.8306 N   0  0  0  0  0  0  0  0  0  0  0  0
  -18.7634  -25.6888   21.6050 N   0  3  2  0  0  0  0  0  0  0  0  0
  -23.3165  -36.0129   22.8126 N   0  3  0  0  0  0  0  0  0  0  0  0
  -21.4096  -22.2168   22.3467 N   0  3  0  0  0  0  0  0  0  0  0  0
  -26.5278  -14.6893   26.7675 O   0  0  0  0  0  0  0  0  0  0  0  0
  -25.6669  -27.7287   21.7074 O   0  0  0  0  0  0  0  0  0  0  0  0
  -27.4473  -31.7709   22.3743 O   0  0  0  0  0  0  0  0  0  0  0  0
  -23.2658  -33.4178   23.8985 O   0  0  0  0  0  0  0  0  0  0  0  0
  -28.5150  -19.8068   20.8547 O   0  0  0  0  0  0  0  0  0  0  0  0
  -26.0353  -12.0344   20.4698 O   0  0  0  0  0  0  0  0  0  0  0  0
  -19.8323  -28.2703   21.0454 O   0  0  0  0  0  0  0  0  0  1  0  0
  -21.0825   -9.8446   21.5084 F   0  0  0  0  0  0  0  0  0  0  0  0
  -25.5417  -10.7048   22.8429 F   0  0  0  0  0  0  0  0  0  0  0  0
  1  2  1  0  0  0  0
  1  5  2  0  0  0  0
  2  6  2  0  0  0  0
  3  8  2  0  0  0  0
  3 17  1  0  0  0  0
  4  9  1  0  0  0  0
  4 17  2  0  0  0  0
  5 19  1  0  0  0  0
  6 21  1  0  0  0  0
  7 10  2  0  0  0  0
  7 20  1  0  0  0  0
  8 27  1  0  0  0  0
  9 27  2  0  0  0  0
 10 28  1  0  0  0  0
 11 12  2  0  0  0  0
 11 29  1  0  0  0  0
 12 30  1  0  0  0  0
 13 22  1  0  0  0  0
 13 24  2  0  0  0  0
 14 23  1  0  0  0  0
 14 28  2  0  0  0  0
 15 24  1  0  0  0  0
 15 25  2  0  0  0  0
 16 30  2  0  0  0  0
 16 31  1  0  0  0  0
 17 32  1  0  0  0  0
 18 32  1  0  0  0  0
 18 33  2  0  0  0  0
 18 34  1  0  0  0  0
 19 21  2  0  0  0  0
 19 39  1  0  0  0  0
 20 23  2  0  0  0  0
 20 40  1  0  0  0  0
 21 53  1  0  0  0  0
 22 26  2  0  0  0  0
 22 41  1  0  0  0  0
 23 42  1  0  0  0  0
 24 63  1  0  0  0  0
 25 26  1  0  0  0  0
 25 57  1  0  0  0  0
 26 72  1  0  0  0  0
 27 87  1  0  0  0  0
 28 88  1  0  0  0  0
 29 31  2  0  0  0  0
 29 87  1  0  0  0  0
 30 89  1  0  0  0  0
 31 90  1  0  0  0  0
 32 70  2  0  0  0  0
 33 71  1  0  0  0  0
 33 75  1  0  0  0  0
 34 76  1  0  0  0  0
 34 82  2  0  0  0  0
 35 54  1  0  0  0  0
 35 77  1  0  0  0  0
 35 83  2  0  0  0  0
 36 67  1  0  0  0  0
 36 73  1  0  0  0  0
 36 84  2  0  0  0  0
 37 68  1  0  0  0  0
 37 78  1  0  0  0  0
 37 85  2  0  0  0  0
 38 72  1  0  0  0  0
 38 74  1  0  0  0  0
 38 86  2  0  0  0  0
 39 43  1  0  0  0  0
 40 54  1  0  0  0  0
 41 48  1  0  0  0  0
 42 73  1  0  0  0  0
 43 45  1  0  0  0  0
 44 46  1  0  0  0  0
 44 49  1  0  0  0  0
 45 53  1  0  0  0  0
 46 56  1  0  0  0  0
 47 51  1  0  0  0  0
 47 55  1  0  0  0  0
 48 72  1  0  0  0  0
 49 74  1  0  0  0  0
 50 56  1  0  0  0  0
 50 74  1  0  0  0  0
 51 79  1  0  0  0  0
 52 55  1  0  0  0  0
 52 79  1  0  0  0  0
 53 77  1  0  0  0  0
 54 73  1  0  0  0  0
 55 64  1  0  0  0  0
 56 71  1  0  0  0  0
 58 68  1  0  0  0  0
 59 69  1  0  0  0  0
 60 69  1  0  0  0  0
 61 69  1  0  0  0  0
 62 80  1  0  0  0  0
 63 81  1  0  0  0  0
 64 81  1  0  0  0  0
 65 66  1  0  0  0  0
 65 79  1  0  0  0  0
 66 88  1  0  0  0  0
 67 69  1  0  0  0  0
 67 78  1  0  0  0  0
 68 80  1  0  0  0  0
 70 71  1  0  0  0  0
M  CHG  3  79   1  80   1  81   1
M  ISO  4  38 100  66 101  72 100  88 101
M  END
> <Batch ID>
0166

> <Smiles>
CNC(C)C(=O)NC(C(=O)N1Cc2cc([101O:1][101CH2:1]CN3CCC(CNCc4cc(C)c5c(c4)CC[100N:0]5[100C:0](=O)N4CCCC(n5nc(-c6ccc(Oc7ccc(F)cc7F)cc6)c(C(N)=O)c5N)C4)C3)ccc2CC1C(=O)NC1CCCc2ccccc21)C(C)(C)C

> <Shape>
0.264

> <Color>
0.068

> <Negative vol penalty>
0.000

$$$$

  -OEChem-04052322243D

 94104  0     1  0  0  0  0  0999 V2000
  -25.6285  -35.2155   23.5163 C   0  0  0  0  0  0  0  0  0  0  0  0
  -26.2479  -34.0040   23.2266 C   0  0  0  0  0  0  0  0  0  0  0  0
  -25.0014  -14.8893   21.3726 C   0  0  0  0  0  0  0  0  0  0  0  0
  -23.1699  -14.1097   22.7419 C   0  0  0  0  0  0  0  0  0  0  0  0
  -24.3288  -35.2295   24.0207 C   0  0  0  0  0  0  0  0  0  0  0  0
  -25.5683  -32.8057   23.4422 C   0  0  0  0  0  0  0  0  0  0  0  0
  -26.0718  -29.5654   19.5832 C   0  0  0  0  0  0  0  0  0  0  0  0
  -25.4381  -13.5749   21.2082 C   0  0  0  0  0  0  0  0  0  0  0  0
  -23.6066  -12.7952   22.5774 C   0  0  0  0  0  0  0  0  0  0  0  0
  -27.2716  -28.8608   19.4958 C   0  0  0  0  0  0  0  0  0  0  0  0
  -24.0302   -9.2019   22.2213 C   0  0  0  0  0  0  0  0  0  0  0  0
  -23.0721   -8.2313   21.9289 C   0  0  0  0  0  0  0  0  0  0  0  0
  -26.2074  -26.9371   20.4887 C   0  0  0  0  0  0  0  0  0  0  0  0
  -22.4818   -9.4219   19.9112 C   0  0  0  0  0  0  0  0  0  0  0  0
  -23.8674  -15.1568   22.1395 C   0  0  0  0  0  0  0  0  0  0  0  0
  -22.5079  -17.2172   21.4959 C   0  0  0  0  0  0  0  0  0  0  0  0
  -23.6293  -34.0311   24.2335 C   0  0  0  0  0  0  0  0  0  0  0  0
  -24.9316  -28.9637   20.1350 C   0  0  0  0  0  0  0  0  0  0  0  0
  -24.2585  -32.8036   23.9512 C   0  0  0  0  0  0  0  0  0  0  0  0
  -24.9936  -27.6353   20.5796 C   0  0  0  0  0  0  0  0  0  0  0  0
  -24.7406  -12.5278   21.8105 C   0  0  0  0  0  0  0  0  0  0  0  0
  -27.3404  -27.5474   19.9513 C   0  0  0  0  0  0  0  0  0  0  0  0
  -24.2141  -10.2826   21.3587 C   0  0  0  0  0  0  0  0  0  0  0  0
  -22.2979   -8.3413   20.7738 C   0  0  0  0  0  0  0  0  0  0  0  0
  -23.4399  -10.3926   20.2037 C   0  0  0  0  0  0  0  0  0  0  0  0
  -23.4162  -16.5145   22.3103 C   0  0  0  0  0  0  0  0  0  0  0  0
  -22.4138  -18.4578   22.0779 C   0  0  0  0  0  0  0  0  0  0  0  0
  -27.3700  -20.8674   19.9686 C   0  0  0  0  0  0  0  0  0  0  0  0
  -21.8116  -16.7871   20.3188 C   0  0  0  0  0  0  0  0  0  0  0  0
  -23.0788  -29.5529   22.6496 C   0  0  0  0  0  0  0  0  0  0  0  0
  -21.2904  -27.1502   21.4041 C   0  0  0  0  0  0  0  0  0  0  0  0
  -21.1491  -24.3597   19.4446 C   0  0  0  0  0  0  0  0  0  0  0  0
  -25.9534  -21.7068   25.4345 C   0  0  0  0  0  0  0  0  0  0  0  0
  -22.2434  -34.0947   24.8249 C   0  0  0  0  0  0  0  0  0  0  0  0
  -23.6379  -29.7284   20.1976 C   0  0  0  0  0  0  0  0  0  0  0  0
  -23.7927  -26.9370   21.1616 C   0  0  0  0  0  0  0  0  0  0  0  0
  -21.4557  -32.7960   24.6719 C   0  0  0  0  0  0  0  0  0  0  0  0
  -22.7776  -20.6608   26.3029 C   0  0  0  0  0  0  0  0  0  0  0  0
  -22.3183  -31.5996   25.0610 C   0  0  0  0  0  0  0  0  0  0  0  0
  -22.4775  -19.5457   25.3014 C   0  0  0  0  0  0  0  0  0  0  0  0
  -29.8305  -19.7821   18.1186 C   0  0  0  0  0  0  0  0  0  0  0  0
  -30.4092  -22.2448   18.8248 C   0  0  0  0  0  0  0  0  0  0  0  0
  -24.2182  -20.5799   26.7952 C   0  0  0  0  0  0  0  0  0  0  0  0
  -27.1657  -22.8724   23.6276 C   0  0  0  0  0  0  0  0  0  0  0  0
  -27.7827  -20.5474   24.1372 C   0  0  0  0  0  0  0  0  0  0  0  0
  -27.4420  -22.5962   22.1497 C   0  0  0  0  0  0  0  0  0  0  0  0
  -28.0377  -20.3029   22.6514 C   0  0  0  0  0  0  0  0  0  0  0  0
  -24.9457  -19.5042   24.6906 C   0  0  0  0  0  0  0  0  0  0  0  0
  -23.5449  -31.4837   24.1481 C   0  0  1  0  0  0  0  0  0  0  0  0
  -28.7167  -21.3018   20.5652 C   0  0  1  0  0  0  0  0  0  0  0  0
  -22.6744  -29.1874   21.2494 C   0  0  1  0  0  0  0  0  0  0  0  0
  -23.5014  -19.5445   24.1524 C   0  0  1  0  0  0  0  0  0  0  0  0
  -28.3855  -20.0461   17.6808 C   0  0  2  0  0  0  0  0  0  0  0  0
  -29.2717  -22.5241   19.8110 C   0  0  1  0  0  0  0  0  0  0  0  0
  -30.2165  -21.2252   17.6800 C   0  0  2  0  0  0  0  0  0  0  0  0
  -28.9010  -21.2092   16.7588 C   0  0  0  0  0  0  0  0  0  0  0  0
  -31.5404  -21.2107   16.8789 C   0  0  0  0  0  0  0  0  0  0  0  0
  -29.0935  -20.6734   15.3177 C   0  0  0  0  0  0  0  0  0  0  0  0
  -28.0833  -22.4961   16.6487 C   0  0  0  0  0  0  0  0  0  0  0  0
  -19.5580  -22.5898   18.6490 C   0  0  0  0  0  0  0  0  0  0  0  0
  -30.9344  -25.6807   21.0450 C   0  0  0  0  0  0  0  0  0  0  0  0
  -21.4402  -25.7926   24.1326 C   0  0  0  0  0  0  0  0  0  0  0  0
  -20.6888  -23.6691   23.0397 C   0  0  0  0  0  0  0  0  0  0  0  0
  -19.1997  -25.6704   23.0282 C   0  0  0  0  0  0  0  0  0  0  0  0
  -25.9582  -20.0885   18.1428 C   0  0  0  0  0  0  0  0  0  0  0  0
  -21.5261  -25.1301   16.6120 C   0  0  0  0  0  0  0  0  0  0  0  0
  -28.5097  -25.5159   20.3532 C   0  0  0  0  0  0  0  0  0  1  0  0
  -21.2587  -25.6491   21.5611 C   0  0  1  0  0  0  0  0  0  0  0  0
  -20.1813  -23.9446   18.3512 C   0  0  2  0  0  0  0  0  0  0  0  0
  -29.9009  -24.9014   20.2480 C   0  0  2  0  0  0  0  0  0  0  0  0
  -20.6702  -25.2088   22.9313 C   0  0  0  0  0  0  0  0  0  0  0  0
  -23.8670  -17.2477   23.3316 N   0  0  0  0  0  0  0  0  0  0  0  0
  -23.2395  -18.4241   23.1629 N   0  0  0  0  0  0  0  0  0  0  0  0
  -27.3040  -20.3882   18.6548 N   0  0  0  0  0  0  0  0  0  0  0  0
  -22.5523  -27.7288   21.2072 N   0  0  0  0  0  0  0  0  0  0  0  0
  -25.1582  -20.5763   25.6747 N   0  0  0  0  0  0  0  0  0  0  0  0
  -26.8295  -21.6434   24.3405 N   0  0  0  0  0  0  0  0  0  0  0  0
  -28.4539  -21.5440   21.9830 N   0  0  0  0  0  0  0  0  0  0  0  0
  -21.7062  -19.5632   21.7621 N   0  0  0  0  0  0  0  0  0  0  0  0
  -22.0234  -15.4808   19.8570 N   0  0  0  0  0  0  0  0  0  0  0  0
  -23.1726  -30.9136   22.8711 N   0  0  0  0  0  0  0  0  0  0  0  0
  -20.5329  -25.1331   20.4055 N   0  0  0  0  0  0  0  0  0  0  0  0
  -29.8476  -23.5255   20.7839 N   0  3  0  0  0  0  0  0  0  0  0  0
  -20.8856  -23.8600   17.0406 N   0  3  0  0  0  0  0  0  0  0  0  0
  -26.3445  -20.9628   20.6600 O   0  0  0  0  0  0  0  0  0  0  0  0
  -21.0374  -17.5441   19.6855 O   0  0  0  0  0  0  0  0  0  0  0  0
  -23.2887  -28.6660   23.4688 O   0  0  0  0  0  0  0  0  0  0  0  0
  -20.2338  -27.7852   21.4473 O   0  0  0  0  0  0  0  0  0  0  0  0
  -22.3325  -24.0278   19.4479 O   0  0  0  0  0  0  0  0  0  0  0  0
  -25.8825  -22.7149   26.1482 O   0  0  0  0  0  0  0  0  0  0  0  0
  -25.1663  -11.2450   21.6501 O   0  0  0  0  0  0  0  0  0  0  0  0
  -28.5184  -26.8530   19.8672 O   0  0  0  0  0  0  0  0  0  1  0  0
  -21.3790   -7.4083   20.4923 F   0  0  0  0  0  0  0  0  0  0  0  0
  -23.6129  -11.4279   19.3706 F   0  0  0  0  0  0  0  0  0  0  0  0
  1  2  1  0  0  0  0
  1  5  2  0  0  0  0
  2  6  2  0  0  0  0
  3  8  2  0  0  0  0
  3 15  1  0  0  0  0
  4  9  1  0  0  0  0
  4 15  2  0  0  0  0
  5 17  1  0  0  0  0
  6 19  1  0  0  0  0
  7 10  2  0  0  0  0
  7 18  1  0  0  0  0
  8 21  1  0  0  0  0
  9 21  2  0  0  0  0
 10 22  1  0  0  0  0
 11 12  2  0  0  0  0
 11 23  1  0  0  0  0
 12 24  1  0  0  0  0
 13 20  1  0  0  0  0
 13 22  2  0  0  0  0
 14 24  2  0  0  0  0
 14 25  1  0  0  0  0
 15 26  1  0  0  0  0
 16 26  1  0  0  0  0
 16 27  2  0  0  0  0
 16 29  1  0  0  0  0
 17 19  2  0  0  0  0
 17 34  1  0  0  0  0
 18 20  2  0  0  0  0
 18 35  1  0  0  0  0
 19 49  1  0  0  0  0
 20 36  1  0  0  0  0
 21 91  1  0  0  0  0
 22 92  1  0  0  0  0
 23 25  2  0  0  0  0
 23 91  1  0  0  0  0
 24 93  1  0  0  0  0
 25 94  1  0  0  0  0
 26 72  2  0  0  0  0
 27 73  1  0  0  0  0
 27 79  1  0  0  0  0
 28 50  1  0  0  0  0
 28 74  1  0  0  0  0
 28 85  2  0  0  0  0
 29 80  1  0  0  0  0
 29 86  2  0  0  0  0
 30 51  1  0  0  0  0
 30 81  1  0  0  0  0
 30 87  2  0  0  0  0
 31 68  1  0  0  0  0
 31 75  1  0  0  0  0
 31 88  2  0  0  0  0
 32 69  1  0  0  0  0
 32 82  1  0  0  0  0
 32 89  2  0  0  0  0
 33 76  1  0  0  0  0
 33 77  1  0  0  0  0
 33 90  2  0  0  0  0
 34 37  1  0  0  0  0
 35 51  1  0  0  0  0
 36 75  1  0  0  0  0
 37 39  1  0  0  0  0
 38 40  1  0  0  0  0
 38 43  1  0  0  0  0
 39 49  1  0  0  0  0
 40 52  1  0  0  0  0
 41 53  1  0  0  0  0
 41 55  1  0  0  0  0
 42 54  1  0  0  0  0
 42 55  1  0  0  0  0
 43 76  1  0  0  0  0
 44 46  1  0  0  0  0
 44 77  1  0  0  0  0
 45 47  1  0  0  0  0
 45 77  1  0  0  0  0
 46 78  1  0  0  0  0
 47 78  1  0  0  0  0
 48 52  1  0  0  0  0
 48 76  1  0  0  0  0
 49 81  1  0  0  0  0
 50 54  1  0  0  0  0
 50 78  1  0  0  0  0
 51 75  1  0  0  0  0
 52 73  1  0  0  0  0
 53 56  1  0  0  0  0
 53 74  1  0  0  0  0
 54 83  1  0  0  0  0
 55 56  1  0  0  0  0
 55 57  1  0  0  0  0
 56 58  1  0  0  0  0
 56 59  1  0  0  0  0
 60 69  1  0  0  0  0
 61 70  1  0  0  0  0
 62 71  1  0  0  0  0
 63 71  1  0  0  0  0
 64 71  1  0  0  0  0
 65 74  1  0  0  0  0
 66 84  1  0  0  0  0
 67 70  1  0  0  0  0
 67 92  1  0  0  0  0
 68 71  1  0  0  0  0
 68 82  1  0  0  0  0
 69 84  1  0  0  0  0
 70 83  1  0  0  0  0
 72 73  1  0  0  0  0
M  CHG  2  83   1  84   1
M  ISO  4  33 100  67 101  77 100  92 101
M  END
> <Batch ID>
0166

> <Smiles>
CNC(C)C(=O)NC(C(=O)N1Cc2cc([101O:1][101CH2:1]C(C)NC3CC4(C)CC(N(C)C(=O)C3N3CC[100N:0]([100C:0](=O)N5CCCC(n6nc(-c7ccc(Oc8ccc(F)cc8F)cc7)c(C(N)=O)c6N)C5)CC3)C4(C)C)ccc2CC1C(=O)NC1CCCc2ccccc21)C(C)(C)C

> <Shape>
0.235

> <Color>
0.073

> <Negative vol penalty>
0.000

$$$$

  -OEChem-04052322243D

 88 98  0     1  0  0  0  0  0999 V2000
  -32.3176  -32.1609   23.6368 C   0  0  0  0  0  0  0  0  0  0  0  0
  -31.7528  -31.1211   22.9052 C   0  0  0  0  0  0  0  0  0  0  0  0
  -25.8516  -13.3089   19.2645 C   0  0  0  0  0  0  0  0  0  0  0  0
  -24.1394  -13.6081   20.9426 C   0  0  0  0  0  0  0  0  0  0  0  0
  -31.6512  -32.6704   24.7505 C   0  0  0  0  0  0  0  0  0  0  0  0
  -30.5218  -30.5894   23.2876 C   0  0  0  0  0  0  0  0  0  0  0  0
  -27.4004  -29.8973   19.3603 C   0  0  0  0  0  0  0  0  0  0  0  0
  -26.0936  -12.0205   19.7411 C   0  0  0  0  0  0  0  0  0  0  0  0
  -24.3814  -12.3197   21.4192 C   0  0  0  0  0  0  0  0  0  0  0  0
  -27.6254  -28.7801   18.5573 C   0  0  0  0  0  0  0  0  0  0  0  0
  -24.2988   -8.9773   22.8474 C   0  0  0  0  0  0  0  0  0  0  0  0
  -23.1959   -8.1696   23.1240 C   0  0  0  0  0  0  0  0  0  0  0  0
  -25.8512  -27.6100   19.6986 C   0  0  0  0  0  0  0  0  0  0  0  0
  -27.8050  -24.9144   20.3579 C   0  0  0  0  0  0  0  0  0  0  0  0
  -22.4916   -8.3420   20.8193 C   0  0  0  0  0  0  0  0  0  0  0  0
  -24.8745  -14.1027   19.8653 C   0  0  0  0  0  0  0  0  0  0  0  0
  -23.7096  -15.8127   18.3731 C   0  0  0  0  0  0  0  0  0  0  0  0
  -30.4068  -32.1511   25.1410 C   0  0  0  0  0  0  0  0  0  0  0  0
  -26.4047  -29.8755   20.3475 C   0  0  0  0  0  0  0  0  0  0  0  0
  -29.8387  -31.0915   24.4083 C   0  0  0  0  0  0  0  0  0  0  0  0
  -25.6138  -28.7292   20.5110 C   0  0  0  0  0  0  0  0  0  0  0  0
  -28.7119  -25.4748   19.3724 C   0  0  0  0  0  0  0  0  0  0  0  0
  -25.3585  -11.5259   20.8184 C   0  0  0  0  0  0  0  0  0  0  0  0
  -26.8527  -27.6352   18.7283 C   0  0  0  0  0  0  0  0  0  0  0  0
  -24.4982   -9.4675   21.5568 C   0  0  0  0  0  0  0  0  0  0  0  0
  -22.2922   -7.8519   22.1100 C   0  0  0  0  0  0  0  0  0  0  0  0
  -23.5946   -9.1498   20.5428 C   0  0  0  0  0  0  0  0  0  0  0  0
  -24.6245  -15.4339   19.3738 C   0  0  0  0  0  0  0  0  0  0  0  0
  -28.5223  -24.5731   21.5120 C   0  0  0  0  0  0  0  0  0  0  0  0
  -29.9066  -25.4352   19.9942 C   0  0  0  0  0  0  0  0  0  0  0  0
  -23.8516  -17.1754   18.2762 C   0  0  0  0  0  0  0  0  0  0  0  0
  -22.8117  -15.0051   17.6003 C   0  0  0  0  0  0  0  0  0  0  0  0
  -26.3787  -30.1526   23.5139 C   0  0  0  0  0  0  0  0  0  0  0  0
  -23.1615  -30.1089   23.1016 C   0  0  0  0  0  0  0  0  0  0  0  0
  -20.5007  -29.2026   21.1663 C   0  0  0  0  0  0  0  0  0  0  0  0
  -25.4616  -21.3172   21.9371 C   0  0  0  0  0  0  0  0  0  0  0  0
  -29.7465  -32.7026   26.3798 C   0  0  0  0  0  0  0  0  0  0  0  0
  -26.1566  -31.0983   21.1875 C   0  0  0  0  0  0  0  0  0  0  0  0
  -24.5188  -28.6619   21.5429 C   0  0  0  0  0  0  0  0  0  0  0  0
  -28.2695  -32.3354   26.4976 C   0  0  0  0  0  0  0  0  0  0  0  0
  -27.0547  -20.6674   18.8976 C   0  0  0  0  0  0  0  0  0  0  0  0
  -28.0634  -30.8521   26.2074 C   0  0  0  0  0  0  0  0  0  0  0  0
  -26.5133  -19.2778   18.5633 C   0  0  0  0  0  0  0  0  0  0  0  0
  -31.1463  -25.0070   21.5751 C   0  0  0  0  0  0  0  0  0  0  0  0
  -27.3948  -20.8050   20.3822 C   0  0  0  0  0  0  0  0  0  0  0  0
  -25.2365  -23.3998   23.2017 C   0  0  0  0  0  0  0  0  0  0  0  0
  -27.5161  -22.5395   22.7438 C   0  0  0  0  0  0  0  0  0  0  0  0
  -25.7461  -19.0641   20.9583 C   0  0  0  0  0  0  0  0  0  0  0  0
  -25.7635  -24.8206   23.2910 C   0  0  0  0  0  0  0  0  0  0  0  0
  -28.4933  -30.5049   24.7770 C   0  0  1  0  0  0  0  0  0  0  0  0
  -28.1105  -23.9564   22.8381 C   0  0  2  0  0  0  0  0  0  0  0  0
  -25.4593  -30.7849   22.5077 C   0  0  1  0  0  0  0  0  0  0  0  0
  -25.3377  -18.9064   19.4848 C   0  0  2  0  0  0  0  0  0  0  0  0
  -31.3815  -25.6353   20.1392 C   0  0  0  0  0  0  0  0  0  0  0  0
  -31.8157  -27.0956   20.1448 C   0  0  0  0  0  0  0  0  0  0  0  0
  -32.2231  -24.7808   19.1998 C   0  0  0  0  0  0  0  0  0  0  0  0
  -28.4602  -24.8705   16.9404 C   0  0  0  0  0  0  0  0  0  0  0  0
  -17.9927  -29.2684   21.1100 C   0  0  0  0  0  0  0  0  0  0  0  0
  -23.0586  -27.8291   25.1269 C   0  0  0  0  0  0  0  0  0  0  0  0
  -20.7411  -27.3180   24.3292 C   0  0  0  0  0  0  0  0  0  0  0  0
  -21.2396  -29.5274   25.3746 C   0  0  0  0  0  0  0  0  0  0  0  0
  -27.7307  -26.1893   23.9885 C   0  0  0  0  0  0  0  0  0  0  0  0
  -20.4833  -30.8335   18.6967 C   0  0  0  0  0  0  0  0  0  0  0  0
  -28.3892  -25.9620   18.0242 C   0  0  1  0  0  0  0  0  0  1  0  0
  -22.1047  -29.0321   23.0511 C   0  0  1  0  0  0  0  0  0  0  0  0
  -19.2774  -29.9768   20.7094 C   0  0  2  0  0  0  0  0  0  0  0  0
  -21.8079  -28.4269   24.4522 C   0  0  0  0  0  0  0  0  0  0  0  0
  -25.2979  -16.4720   19.8765 N   0  0  0  0  0  0  0  0  0  0  0  0
  -29.7699  -24.9251   21.2065 N   0  0  0  0  0  0  0  0  0  0  0  0
  -24.8059  -17.5166   19.1889 N   0  0  0  0  0  0  0  0  0  0  0  0
  -24.3190  -29.8809   22.3440 N   0  0  0  0  0  0  0  0  0  0  0  0
  -26.2548  -20.4135   21.2165 N   0  0  0  0  0  0  0  0  0  0  0  0
  -26.0818  -22.4903   22.4259 N   0  0  0  0  0  0  0  0  0  0  0  0
  -23.2520  -18.1031   17.5001 N   0  0  0  0  0  0  0  0  0  0  0  0
  -22.7935  -13.6221   17.8272 N   0  0  0  0  0  0  0  0  0  0  0  0
  -27.4819  -30.9225   23.8298 N   0  0  0  0  0  0  0  0  0  0  0  0
  -20.9438  -29.6297   22.4002 N   0  0  0  0  0  0  0  0  0  0  0  0
  -27.2015  -24.8041   23.7273 N   0  3  1  0  0  0  0  0  0  0  0  0
  -19.2862  -30.1315   19.2272 N   0  3  0  0  0  0  0  0  0  0  0  0
  -22.0600  -15.4931   16.7228 O   0  0  0  0  0  0  0  0  0  0  0  0
  -26.1066  -29.0487   23.9710 O   0  0  0  0  0  0  0  0  0  0  0  0
  -22.9642  -31.1185   23.7824 O   0  0  0  0  0  0  0  0  0  0  0  0
  -21.0098  -28.3060   20.4974 O   0  0  0  0  0  0  0  0  0  0  0  0
  -24.2661  -21.0805   22.1587 O   0  0  0  0  0  0  0  0  0  0  0  0
  -25.5942  -10.2687   21.2836 O   0  0  0  0  0  0  0  0  0  0  0  0
  -27.0708  -26.5428   17.9461 O   0  0  0  0  0  0  0  0  0  1  0  0
  -21.2339   -7.0749   22.3754 F   0  0  0  0  0  0  0  0  0  0  0  0
  -23.7815   -9.6168   19.3007 F   0  0  0  0  0  0  0  0  0  0  0  0
  1  2  1  0  0  0  0
  1  5  2  0  0  0  0
  2  6  2  0  0  0  0
  3  8  2  0  0  0  0
  3 16  1  0  0  0  0
  4  9  1  0  0  0  0
  4 16  2  0  0  0  0
  5 18  1  0  0  0  0
  6 20  1  0  0  0  0
  7 10  2  0  0  0  0
  7 19  1  0  0  0  0
  8 23  1  0  0  0  0
  9 23  2  0  0  0  0
 10 24  1  0  0  0  0
 11 12  2  0  0  0  0
 11 25  1  0  0  0  0
 12 26  1  0  0  0  0
 13 21  1  0  0  0  0
 13 24  2  0  0  0  0
 14 22  1  0  0  0  0
 14 29  2  0  0  0  0
 15 26  2  0  0  0  0
 15 27  1  0  0  0  0
 16 28  1  0  0  0  0
 17 28  1  0  0  0  0
 17 31  2  0  0  0  0
 17 32  1  0  0  0  0
 18 20  2  0  0  0  0
 18 37  1  0  0  0  0
 19 21  2  0  0  0  0
 19 38  1  0  0  0  0
 20 50  1  0  0  0  0
 21 39  1  0  0  0  0
 22 30  2  0  0  0  0
 22 64  1  0  0  0  0
 23 85  1  0  0  0  0
 24 86  1  0  0  0  0
 25 27  2  0  0  0  0
 25 85  1  0  0  0  0
 26 87  1  0  0  0  0
 27 88  1  0  0  0  0
 28 68  2  0  0  0  0
 29 51  1  0  0  0  0
 29 69  1  0  0  0  0
 30 54  1  0  0  0  0
 30 69  1  0  0  0  0
 31 70  1  0  0  0  0
 31 74  1  0  0  0  0
 32 75  1  0  0  0  0
 32 80  2  0  0  0  0
 33 52  1  0  0  0  0
 33 76  1  0  0  0  0
 33 81  2  0  0  0  0
 34 65  1  0  0  0  0
 34 71  1  0  0  0  0
 34 82  2  0  0  0  0
 35 66  1  0  0  0  0
 35 77  1  0  0  0  0
 35 83  2  0  0  0  0
 36 72  1  0  0  0  0
 36 73  1  0  0  0  0
 36 84  2  0  0  0  0
 37 40  1  0  0  0  0
 38 52  1  0  0  0  0
 39 71  1  0  0  0  0
 40 42  1  0  0  0  0
 41 43  1  0  0  0  0
 41 45  1  0  0  0  0
 42 50  1  0  0  0  0
 43 53  1  0  0  0  0
 44 54  1  0  0  0  0
 44 69  1  0  0  0  0
 45 72  1  0  0  0  0
 46 49  1  0  0  0  0
 46 73  1  0  0  0  0
 47 51  1  0  0  0  0
 47 73  1  0  0  0  0
 48 53  1  0  0  0  0
 48 72  1  0  0  0  0
 49 78  1  0  0  0  0
 50 76  1  0  0  0  0
 51 78  1  0  0  0  0
 52 71  1  0  0  0  0
 53 70  1  0  0  0  0
 54 55  1  0  0  0  0
 54 56  1  0  0  0  0
 57 64  1  0  0  0  0
 58 66  1  0  0  0  0
 59 67  1  0  0  0  0
 60 67  1  0  0  0  0
 61 67  1  0  0  0  0
 62 78  1  0  0  0  0
 63 79  1  0  0  0  0
 64 86  1  0  0  0  0
 65 67  1  0  0  0  0
 65 77  1  0  0  0  0
 66 79  1  0  0  0  0
 68 70  1  0  0  0  0
M  CHG  2  78   1  79   1
M  ISO  4  36 100  64 101  73 100  86 101
M  END
> <Batch ID>
0166

> <Smiles>
CNC(C)C(=O)NC(C(=O)N1Cc2cc([101O:1][101CH:1](C)c3cc(C4C[100N:0]([100C:0](=O)N5CCCC(n6nc(-c7ccc(Oc8ccc(F)cc8F)cc7)c(C(N)=O)c6N)C5)CCN4C)n4c3C(C)(C)C4)ccc2CC1C(=O)NC1CCCc2ccccc21)C(C)(C)C

> <Shape>
0.224

> <Color>
0.059

> <Negative vol penalty>
0.000

$$$$

  -OEChem-04052322243D

 91101  0     1  0  0  0  0  0999 V2000
  -29.1299  -25.1396   17.1145 C   0  0  0  0  0  0  0  0  0  0  0  0
  -28.1686  -25.9836   17.6590 C   0  0  0  0  0  0  0  0  0  0  0  0
  -25.4037  -14.9542   21.2956 C   0  0  0  0  0  0  0  0  0  0  0  0
  -27.7480  -14.3773   21.3880 C   0  0  0  0  0  0  0  0  0  0  0  0
  -30.4007  -25.0787   17.6824 C   0  0  0  0  0  0  0  0  0  0  0  0
  -28.4813  -26.7757   18.7643 C   0  0  0  0  0  0  0  0  0  0  0  0
  -25.1044  -30.0572   20.1895 C   0  0  0  0  0  0  0  0  0  0  0  0
  -25.0980  -13.6501   20.9066 C   0  0  0  0  0  0  0  0  0  0  0  0
  -27.4423  -13.0731   20.9991 C   0  0  0  0  0  0  0  0  0  0  0  0
  -23.9138  -29.6902   20.8151 C   0  0  0  0  0  0  0  0  0  0  0  0
  -24.7574  -10.6262   22.3807 C   0  0  0  0  0  0  0  0  0  0  0  0
  -23.6799   -9.9989   23.0060 C   0  0  0  0  0  0  0  0  0  0  0  0
  -22.2092  -23.7983   22.8829 C   0  0  0  0  0  0  0  0  0  0  0  0
  -24.8177  -30.3973   22.9370 C   0  0  0  0  0  0  0  0  0  0  0  0
  -22.5846   -9.7481   20.8672 C   0  0  0  0  0  0  0  0  0  0  0  0
  -26.7287  -15.3179   21.5363 C   0  0  0  0  0  0  0  0  0  0  0  0
  -27.1169  -17.1662   23.2511 C   0  0  0  0  0  0  0  0  0  0  0  0
  -30.7245  -25.8615   18.8029 C   0  0  0  0  0  0  0  0  0  0  0  0
  -26.1665  -30.5878   20.9359 C   0  0  0  0  0  0  0  0  0  0  0  0
  -29.7657  -26.7461   19.3372 C   0  0  0  0  0  0  0  0  0  0  0  0
  -23.3415  -23.6873   22.0484 C   0  0  0  0  0  0  0  0  0  0  0  0
  -26.0198  -30.7727   22.3181 C   0  0  0  0  0  0  0  0  0  0  0  0
  -23.2444  -24.2710   20.7645 C   0  0  0  0  0  0  0  0  0  0  0  0
  -21.0497  -24.4649   22.4773 C   0  0  0  0  0  0  0  0  0  0  0  0
  -22.0805  -24.9514   20.3654 C   0  0  0  0  0  0  0  0  0  0  0  0
  -20.9865  -25.0448   21.2183 C   0  0  0  0  0  0  0  0  0  0  0  0
  -26.1173  -12.7095   20.7584 C   0  0  0  0  0  0  0  0  0  0  0  0
  -23.7713  -29.8576   22.1895 C   0  0  0  0  0  0  0  0  0  0  0  0
  -24.7485  -10.8145   20.9986 C   0  0  0  0  0  0  0  0  0  0  0  0
  -22.5935   -9.5598   22.2493 C   0  0  0  0  0  0  0  0  0  0  0  0
  -23.6622  -10.3754   20.2419 C   0  0  0  0  0  0  0  0  0  0  0  0
  -27.0451  -16.6651   21.9375 C   0  0  0  0  0  0  0  0  0  0  0  0
  -27.4496  -18.4897   23.0960 C   0  0  0  0  0  0  0  0  0  0  0  0
  -26.9020  -16.4952   24.4999 C   0  0  0  0  0  0  0  0  0  0  0  0
  -29.1569  -29.6908   21.5328 C   0  0  0  0  0  0  0  0  0  0  0  0
  -29.3207  -32.5835   22.9916 C   0  0  0  0  0  0  0  0  0  0  0  0
  -27.6773  -35.1555   24.5183 C   0  0  0  0  0  0  0  0  0  0  0  0
  -26.2010  -22.7041   19.0866 C   0  0  0  0  0  0  0  0  0  0  0  0
  -32.1175  -25.7620   19.3728 C   0  0  0  0  0  0  0  0  0  0  0  0
  -27.4346  -31.0036   20.2421 C   0  0  0  0  0  0  0  0  0  0  0  0
  -27.1226  -31.3568   23.1614 C   0  0  0  0  0  0  0  0  0  0  0  0
  -24.4060  -24.2212   19.8054 C   0  0  0  0  0  0  0  0  0  0  0  0
  -32.2168  -26.2984   20.7971 C   0  0  0  0  0  0  0  0  0  0  0  0
  -29.5455  -21.1627   19.5292 C   0  0  0  0  0  0  0  0  0  0  0  0
  -31.5712  -27.6734   20.8809 C   0  0  0  0  0  0  0  0  0  0  0  0
  -29.2129  -19.8592   20.2519 C   0  0  0  0  0  0  0  0  0  0  0  0
  -24.9931  -22.8677   23.9421 C   0  0  0  0  0  0  0  0  0  0  0  0
  -24.5188  -21.6466   23.2169 C   0  0  0  0  0  0  0  0  0  0  0  0
  -28.3857  -21.6403   18.6621 C   0  0  0  0  0  0  0  0  0  0  0  0
  -26.7661  -20.4799   20.1288 C   0  0  0  0  0  0  0  0  0  0  0  0
  -25.8102  -23.1467   21.5346 C   0  0  0  0  0  0  0  0  0  0  0  0
  -30.0737  -27.5942   20.5580 C   0  0  1  0  0  0  0  0  0  0  0  0
  -28.6383  -31.0556   21.1779 C   0  0  1  0  0  0  0  0  0  0  0  0
  -27.9003  -19.9894   21.0427 C   0  0  1  0  0  0  0  0  0  0  0  0
  -24.6298  -22.9644   22.4697 C   0  0  0  0  0  0  0  0  0  0  0  0
  -19.8935  -24.5399   23.4206 C   0  0  0  0  0  0  0  0  0  0  0  0
  -22.0014  -25.6011   19.0167 C   0  0  0  0  0  0  0  0  0  0  0  0
  -18.5322  -24.8189   20.7090 C   0  0  0  0  0  0  0  0  0  0  0  0
  -28.0838  -37.3633   25.6399 C   0  0  0  0  0  0  0  0  0  0  0  0
  -21.2289  -31.4438   23.1640 C   0  0  0  0  0  0  0  0  0  0  0  0
  -30.3223  -31.1315   25.4813 C   0  0  0  0  0  0  0  0  0  0  0  0
  -29.8038  -33.1916   26.8062 C   0  0  0  0  0  0  0  0  0  0  0  0
  -31.5018  -33.2792   24.9808 C   0  0  0  0  0  0  0  0  0  0  0  0
  -26.0476  -36.6038   22.5169 C   0  0  0  0  0  0  0  0  0  0  0  0
  -19.3905  -26.9765   21.6795 C   0  0  0  0  0  0  0  0  0  0  0  0
  -20.2467  -29.1879   22.4640 C   0  0  0  0  0  0  0  0  0  0  0  0
  -19.7488  -25.7657   20.7883 C   0  0  1  0  0  0  0  0  0  0  0  0
  -29.0514  -33.0942   24.3864 C   0  0  1  0  0  0  0  0  0  0  0  0
  -27.7644  -36.6594   24.3302 C   0  0  2  0  0  0  0  0  0  0  0  0
  -21.4190  -30.1589   22.3685 C   0  0  2  0  0  0  0  0  0  1  0  0
  -30.1495  -32.6613   25.3984 C   0  0  0  0  0  0  0  0  0  0  0  0
  -27.3108  -17.5946   21.0159 N   0  0  0  0  0  0  0  0  0  0  0  0
  -27.5526  -18.6931   21.7513 N   0  0  0  0  0  0  0  0  0  0  0  0
  -28.3454  -31.7421   22.4378 N   0  0  0  0  0  0  0  0  0  0  0  0
  -25.3886  -23.1890   20.1295 N   0  0  0  0  0  0  0  0  0  0  0  0
  -27.1381  -21.7134   19.4225 N   0  0  0  0  0  0  0  0  0  0  0  0
  -27.6611  -19.4878   23.9801 N   0  0  0  0  0  0  0  0  0  0  0  0
  -26.5672  -15.1344   24.4783 N   0  0  0  0  0  0  0  0  0  0  0  0
  -29.5441  -28.9351   20.4427 N   0  0  0  0  0  0  0  0  0  0  0  0
  -28.8847  -34.5386   24.2672 N   0  0  0  0  0  0  0  0  0  0  0  0
  -26.4724  -37.1924   23.8131 N   0  3  0  0  0  0  0  0  0  0  0  0
  -20.5110  -27.9519   21.6796 N   0  3  0  0  0  0  0  0  0  0  0  0
  -26.9879  -17.0889   25.6016 O   0  0  0  0  0  0  0  0  0  0  0  0
  -29.2038  -29.3493   22.7088 O   0  0  0  0  0  0  0  0  0  0  0  0
  -30.3548  -32.9245   22.4119 O   0  0  0  0  0  0  0  0  0  0  0  0
  -26.6428  -34.5855   24.8579 O   0  0  0  0  0  0  0  0  0  0  0  0
  -26.0948  -23.1310   17.9300 O   0  0  0  0  0  0  0  0  0  0  0  0
  -25.8194  -11.4367   20.3791 O   0  0  0  0  0  0  0  0  0  0  0  0
  -22.6036  -29.4975   22.8062 O   0  0  0  0  0  0  0  0  0  1  0  0
  -21.5596   -8.9561   22.8498 F   0  0  0  0  0  0  0  0  0  0  0  0
  -23.6485  -10.5524   18.9136 F   0  0  0  0  0  0  0  0  0  0  0  0
  1  2  1  0  0  0  0
  1  5  2  0  0  0  0
  2  6  2  0  0  0  0
  3  8  2  0  0  0  0
  3 16  1  0  0  0  0
  4  9  1  0  0  0  0
  4 16  2  0  0  0  0
  5 18  1  0  0  0  0
  6 20  1  0  0  0  0
  7 10  2  0  0  0  0
  7 19  1  0  0  0  0
  8 27  1  0  0  0  0
  9 27  2  0  0  0  0
 10 28  1  0  0  0  0
 11 12  2  0  0  0  0
 11 29  1  0  0  0  0
 12 30  1  0  0  0  0
 13 21  1  0  0  0  0
 13 24  2  0  0  0  0
 14 22  1  0  0  0  0
 14 28  2  0  0  0  0
 15 30  2  0  0  0  0
 15 31  1  0  0  0  0
 16 32  1  0  0  0  0
 17 32  1  0  0  0  0
 17 33  2  0  0  0  0
 17 34  1  0  0  0  0
 18 20  2  0  0  0  0
 18 39  1  0  0  0  0
 19 22  2  0  0  0  0
 19 40  1  0  0  0  0
 20 52  1  0  0  0  0
 21 23  2  0  0  0  0
 21 55  1  0  0  0  0
 22 41  1  0  0  0  0
 23 25  1  0  0  0  0
 23 42  1  0  0  0  0
 24 26  1  0  0  0  0
 24 56  1  0  0  0  0
 25 26  2  0  0  0  0
 25 57  1  0  0  0  0
 26 67  1  0  0  0  0
 27 88  1  0  0  0  0
 28 89  1  0  0  0  0
 29 31  2  0  0  0  0
 29 88  1  0  0  0  0
 30 90  1  0  0  0  0
 31 91  1  0  0  0  0
 32 72  2  0  0  0  0
 33 73  1  0  0  0  0
 33 77  1  0  0  0  0
 34 78  1  0  0  0  0
 34 83  2  0  0  0  0
 35 53  1  0  0  0  0
 35 79  1  0  0  0  0
 35 84  2  0  0  0  0
 36 68  1  0  0  0  0
 36 74  1  0  0  0  0
 36 85  2  0  0  0  0
 37 69  1  0  0  0  0
 37 80  1  0  0  0  0
 37 86  2  0  0  0  0
 38 75  1  0  0  0  0
 38 76  1  0  0  0  0
 38 87  2  0  0  0  0
 39 43  1  0  0  0  0
 40 53  1  0  0  0  0
 41 74  1  0  0  0  0
 42 75  1  0  0  0  0
 43 45  1  0  0  0  0
 44 46  1  0  0  0  0
 44 49  1  0  0  0  0
 45 52  1  0  0  0  0
 46 54  1  0  0  0  0
 47 48  1  0  0  0  0
 47 55  1  0  0  0  0
 48 55  1  0  0  0  0
 49 76  1  0  0  0  0
 50 54  1  0  0  0  0
 50 76  1  0  0  0  0
 51 55  1  0  0  0  0
 51 75  1  0  0  0  0
 52 79  1  0  0  0  0
 53 74  1  0  0  0  0
 54 73  1  0  0  0  0
 58 67  1  0  0  0  0
 59 69  1  0  0  0  0
 60 70  1  0  0  0  0
 61 71  1  0  0  0  0
 62 71  1  0  0  0  0
 63 71  1  0  0  0  0
 64 81  1  0  0  0  0
 65 67  1  0  0  0  0
 65 82  1  0  0  0  0
 66 70  1  0  0  0  0
 66 82  1  0  0  0  0
 68 71  1  0  0  0  0
 68 80  1  0  0  0  0
 69 81  1  0  0  0  0
 70 89  1  0  0  0  0
 72 73  1  0  0  0  0
M  CHG  2  81   1  82   1
M  ISO  4  38 100  70 101  75 100  89 101
M  END
> <Batch ID>
0166

> <Smiles>
CNC(C)C(=O)NC(C(=O)N1Cc2cc([101O:1][101CH:1](C)CNCC(C)c3c(C)cc4c(c3C)C[100N:0]([100C:0](=O)N3CCCC(n5nc(-c6ccc(Oc7ccc(F)cc7F)cc6)c(C(N)=O)c5N)C3)CC43CC3)ccc2CC1C(=O)NC1CCCc2ccccc21)C(C)(C)C

> <Shape>
0.262

> <Color>
0.078

> <Negative vol penalty>
0.000

$$$$

  -OEChem-04052322243D

 91100  0     1  0  0  0  0  0999 V2000
  -29.3691  -36.4806   23.3662 C   0  0  0  0  0  0  0  0  0  0  0  0
  -29.1610  -35.1768   22.9278 C   0  0  0  0  0  0  0  0  0  0  0  0
  -23.7365   -9.7071   22.0299 C   0  0  0  0  0  0  0  0  0  0  0  0
  -24.6674   -7.8422   20.8082 C   0  0  0  0  0  0  0  0  0  0  0  0
  -28.6151  -36.9880   24.4235 C   0  0  0  0  0  0  0  0  0  0  0  0
  -28.1994  -34.3792   23.5472 C   0  0  0  0  0  0  0  0  0  0  0  0
  -25.3412  -31.8459   20.2219 C   0  0  0  0  0  0  0  0  0  0  0  0
  -22.5484   -8.9981   22.2070 C   0  0  0  0  0  0  0  0  0  0  0  0
  -23.4793   -7.1332   20.9853 C   0  0  0  0  0  0  0  0  0  0  0  0
  -25.8989  -30.7086   19.6394 C   0  0  0  0  0  0  0  0  0  0  0  0
  -21.9835   -5.3560   23.4398 C   0  0  0  0  0  0  0  0  0  0  0  0
  -22.0798   -4.0193   23.8267 C   0  0  0  0  0  0  0  0  0  0  0  0
  -29.5928  -20.8751   19.5699 C   0  0  0  0  0  0  0  0  0  0  0  0
  -24.6737  -29.3224   21.1874 C   0  0  0  0  0  0  0  0  0  0  0  0
  -20.9191   -3.3535   21.8150 C   0  0  0  0  0  0  0  0  0  0  0  0
  -24.7960   -9.1292   21.3304 C   0  0  0  0  0  0  0  0  0  0  0  0
  -27.1461   -9.8653   21.9958 C   0  0  0  0  0  0  0  0  0  0  0  0
  -27.6371  -36.1995   25.0499 C   0  0  0  0  0  0  0  0  0  0  0  0
  -24.4525  -31.7303   21.3004 C   0  0  0  0  0  0  0  0  0  0  0  0
  -27.4325  -34.8761   24.6148 C   0  0  0  0  0  0  0  0  0  0  0  0
  -29.2053  -20.2725   20.7667 C   0  0  0  0  0  0  0  0  0  0  0  0
  -24.1041  -30.4596   21.7802 C   0  0  0  0  0  0  0  0  0  0  0  0
  -29.4796  -22.2568   19.4160 C   0  0  0  0  0  0  0  0  0  0  0  0
  -28.7045  -21.0516   21.8096 C   0  0  0  0  0  0  0  0  0  0  0  0
  -28.9788  -23.0360   20.4590 C   0  0  0  0  0  0  0  0  0  0  0  0
  -22.4198   -7.7111   21.6848 C   0  0  0  0  0  0  0  0  0  0  0  0
  -25.5674  -29.4467   20.1240 C   0  0  0  0  0  0  0  0  0  0  0  0
  -21.3549   -5.6914   22.2406 C   0  0  0  0  0  0  0  0  0  0  0  0
  -28.5912  -22.4334   21.6558 C   0  0  0  0  0  0  0  0  0  0  0  0
  -21.5477   -3.0181   23.0143 C   0  0  0  0  0  0  0  0  0  0  0  0
  -20.8227   -4.6902   21.4282 C   0  0  0  0  0  0  0  0  0  0  0  0
  -26.0233   -9.8614   21.1467 C   0  0  0  0  0  0  0  0  0  0  0  0
  -28.0376  -10.7111   21.3823 C   0  0  0  0  0  0  0  0  0  0  0  0
  -27.3638   -9.1668   23.2289 C   0  0  0  0  0  0  0  0  0  0  0  0
  -24.4622  -32.6971   24.3285 C   0  0  0  0  0  0  0  0  0  0  0  0
  -21.4362  -31.5287   24.3036 C   0  0  0  0  0  0  0  0  0  0  0  0
  -19.1639  -29.3998   22.9067 C   0  0  0  0  0  0  0  0  0  0  0  0
  -29.3132  -15.3132   18.6964 C   0  0  0  0  0  0  0  0  0  0  0  0
  -26.8796  -36.7759   26.2198 C   0  0  0  0  0  0  0  0  0  0  0  0
  -23.8390  -32.9656   21.9004 C   0  0  0  0  0  0  0  0  0  0  0  0
  -23.1393  -30.2805   22.9227 C   0  0  0  0  0  0  0  0  0  0  0  0
  -25.6205  -35.9903   26.5769 C   0  0  0  0  0  0  0  0  0  0  0  0
  -28.0029  -12.7622   16.7668 C   0  0  0  0  0  0  0  0  0  0  0  0
  -25.9176  -34.4946   26.6160 C   0  0  0  0  0  0  0  0  0  0  0  0
  -27.4599  -11.7706   17.7955 C   0  0  0  0  0  0  0  0  0  0  0  0
  -28.0423  -18.0356   20.5104 C   0  0  0  0  0  0  0  0  0  0  0  0
  -30.5368  -18.2162   20.1174 C   0  0  0  0  0  0  0  0  0  0  0  0
  -27.7031  -14.1979   17.1817 C   0  0  0  0  0  0  0  0  0  0  0  0
  -28.1925  -16.5159   20.6247 C   0  0  0  0  0  0  0  0  0  0  0  0
  -30.6319  -16.7005   20.2665 C   0  0  0  0  0  0  0  0  0  0  0  0
  -27.6908  -13.5736   19.5750 C   0  0  0  0  0  0  0  0  0  0  0  0
  -29.3367  -18.7677   20.9082 C   0  0  0  0  0  0  0  0  0  0  0  0
  -26.3815  -33.9882   25.2450 C   0  0  1  0  0  0  0  0  0  0  0  0
  -23.3431  -32.7537   23.3275 C   0  0  1  0  0  0  0  0  0  0  0  0
  -27.9731  -12.1025   19.2079 C   0  0  1  0  0  0  0  0  0  0  0  0
  -29.9024  -22.8743   18.1225 C   0  0  0  0  0  0  0  0  0  0  0  0
  -28.2880  -20.4101   23.0949 C   0  0  0  0  0  0  0  0  0  0  0  0
  -16.7819  -28.6411   23.1252 C   0  0  0  0  0  0  0  0  0  0  0  0
  -22.1938  -29.8609   26.7438 C   0  0  0  0  0  0  0  0  0  0  0  0
  -20.1563  -28.4645   26.3351 C   0  0  0  0  0  0  0  0  0  0  0  0
  -19.9185  -30.8934   26.8514 C   0  0  0  0  0  0  0  0  0  0  0  0
  -18.4952  -30.3313   20.1784 C   0  0  0  0  0  0  0  0  0  0  0  0
  -29.0487  -23.7002   23.6158 C   0  0  0  0  0  0  0  0  0  0  0  0
  -27.7479  -25.1798   20.7969 C   0  0  0  0  0  0  0  0  0  0  0  0
  -26.2985  -27.2012   20.4047 C   0  0  0  0  0  0  0  0  0  1  0  0
  -20.8056  -30.1877   24.5915 C   0  0  1  0  0  0  0  0  0  0  0  0
  -17.7333  -29.6141   22.4464 C   0  0  2  0  0  0  0  0  0  0  0  0
  -27.4861  -26.3885   19.9005 C   0  0  1  0  0  0  0  0  0  0  0  0
  -20.7883  -29.8548   26.1102 C   0  0  0  0  0  0  0  0  0  0  0  0
  -26.1842  -10.6428   20.0754 N   0  0  0  0  0  0  0  0  0  0  0  0
  -27.4185  -11.1457   20.2474 N   0  0  0  0  0  0  0  0  0  0  0  0
  -22.5709  -31.5190   23.4800 N   0  0  0  0  0  0  0  0  0  0  0  0
  -28.2026  -14.4725   18.5289 N   0  0  0  0  0  0  0  0  0  0  0  0
  -29.3761  -16.0543   19.8860 N   0  0  0  0  0  0  0  0  0  0  0  0
  -29.2828  -11.1181   21.7084 N   0  0  0  0  0  0  0  0  0  0  0  0
  -26.3437   -8.3388   23.7169 N   0  0  0  0  0  0  0  0  0  0  0  0
  -28.8641  -24.4370   20.3051 N   0  0  0  0  0  0  0  0  0  0  0  0
  -25.2511  -33.8313   24.3551 N   0  0  0  0  0  0  0  0  0  0  0  0
  -19.4857  -30.2156   23.9708 N   0  0  0  0  0  0  0  0  0  0  0  0
  -17.6293  -29.4219   20.9722 N   0  3  0  0  0  0  0  0  0  0  0  0
  -28.4250   -9.2865   23.8870 O   0  0  0  0  0  0  0  0  0  0  0  0
  -24.5989  -31.6990   25.0261 O   0  0  0  0  0  0  0  0  0  0  0  0
  -20.9362  -32.5481   24.7857 O   0  0  0  0  0  0  0  0  0  0  0  0
  -19.9192  -28.5872   22.3779 O   0  0  0  0  0  0  0  0  0  0  0  0
  -30.1974  -15.3967   17.8347 O   0  0  0  0  0  0  0  0  0  0  0  0
  -28.6338  -27.2398   19.9171 O   0  0  0  0  0  0  0  0  0  0  0  0
  -21.2608   -7.0189   21.8576 O   0  0  0  0  0  0  0  0  0  0  0  0
  -28.1024  -23.1936   22.6784 O   0  0  0  0  0  0  0  0  0  0  0  0
  -26.1142  -28.3279   19.5540 O   0  0  0  0  0  0  0  0  0  1  0  0
  -21.6416   -1.7344   23.3851 F   0  0  0  0  0  0  0  0  0  0  0  0
  -20.2188   -5.0063   20.2745 F   0  0  0  0  0  0  0  0  0  0  0  0
  1  2  1  0  0  0  0
  1  5  2  0  0  0  0
  2  6  2  0  0  0  0
  3  8  2  0  0  0  0
  3 16  1  0  0  0  0
  4  9  1  0  0  0  0
  4 16  2  0  0  0  0
  5 18  1  0  0  0  0
  6 20  1  0  0  0  0
  7 10  2  0  0  0  0
  7 19  1  0  0  0  0
  8 26  1  0  0  0  0
  9 26  2  0  0  0  0
 10 27  1  0  0  0  0
 11 12  2  0  0  0  0
 11 28  1  0  0  0  0
 12 30  1  0  0  0  0
 13 21  1  0  0  0  0
 13 23  2  0  0  0  0
 14 22  1  0  0  0  0
 14 27  2  0  0  0  0
 15 30  2  0  0  0  0
 15 31  1  0  0  0  0
 16 32  1  0  0  0  0
 17 32  1  0  0  0  0
 17 33  2  0  0  0  0
 17 34  1  0  0  0  0
 18 20  2  0  0  0  0
 18 39  1  0  0  0  0
 19 22  2  0  0  0  0
 19 40  1  0  0  0  0
 20 53  1  0  0  0  0
 21 24  2  0  0  0  0
 21 52  1  0  0  0  0
 22 41  1  0  0  0  0
 23 25  1  0  0  0  0
 23 56  1  0  0  0  0
 24 29  1  0  0  0  0
 24 57  1  0  0  0  0
 25 29  2  0  0  0  0
 25 77  1  0  0  0  0
 26 87  1  0  0  0  0
 27 89  1  0  0  0  0
 28 31  2  0  0  0  0
 28 87  1  0  0  0  0
 29 88  1  0  0  0  0
 30 90  1  0  0  0  0
 31 91  1  0  0  0  0
 32 70  2  0  0  0  0
 33 71  1  0  0  0  0
 33 75  1  0  0  0  0
 34 76  1  0  0  0  0
 34 81  2  0  0  0  0
 35 54  1  0  0  0  0
 35 78  1  0  0  0  0
 35 82  2  0  0  0  0
 36 66  1  0  0  0  0
 36 72  1  0  0  0  0
 36 83  2  0  0  0  0
 37 67  1  0  0  0  0
 37 79  1  0  0  0  0
 37 84  2  0  0  0  0
 38 73  1  0  0  0  0
 38 74  1  0  0  0  0
 38 85  2  0  0  0  0
 39 42  1  0  0  0  0
 40 54  1  0  0  0  0
 41 72  1  0  0  0  0
 42 44  1  0  0  0  0
 43 45  1  0  0  0  0
 43 48  1  0  0  0  0
 44 53  1  0  0  0  0
 45 55  1  0  0  0  0
 46 49  1  0  0  0  0
 46 52  1  0  0  0  0
 47 50  1  0  0  0  0
 47 52  1  0  0  0  0
 48 73  1  0  0  0  0
 49 74  1  0  0  0  0
 50 74  1  0  0  0  0
 51 55  1  0  0  0  0
 51 73  1  0  0  0  0
 53 78  1  0  0  0  0
 54 72  1  0  0  0  0
 55 71  1  0  0  0  0
 58 67  1  0  0  0  0
 59 69  1  0  0  0  0
 60 69  1  0  0  0  0
 61 69  1  0  0  0  0
 62 80  1  0  0  0  0
 63 88  1  0  0  0  0
 64 68  1  0  0  0  0
 64 77  1  0  0  0  0
 65 68  1  0  0  0  0
 65 89  1  0  0  0  0
 66 69  1  0  0  0  0
 66 79  1  0  0  0  0
 67 80  1  0  0  0  0
 68 86  1  0  0  0  0
 70 71  1  0  0  0  0
M  CHG  1  80   1
M  ISO  4  38 100  65 101  74 100  89 101
M  END
> <Batch ID>
0166

> <Smiles>
CNC(C)C(=O)NC(C(=O)N1Cc2cc([101O:1][101CH2:1]C(O)CNc3c(C)cc(C4CC[100N:0]([100C:0](=O)N5CCCC(n6nc(-c7ccc(Oc8ccc(F)cc8F)cc7)c(C(N)=O)c6N)C5)CC4)c(C)c3OC)ccc2CC1C(=O)NC1CCCc2ccccc21)C(C)(C)C

> <Shape>
0.313

> <Color>
0.072

> <Negative vol penalty>
0.000

$$$$

  -OEChem-04052322243D

 90100  0     1  0  0  0  0  0999 V2000
  -29.4296  -36.2111   23.7983 C   0  0  0  0  0  0  0  0  0  0  0  0
  -29.6174  -34.9422   23.2599 C   0  0  0  0  0  0  0  0  0  0  0  0
  -21.2661   -5.8001   22.5967 C   0  0  0  0  0  0  0  0  0  0  0  0
  -22.3681   -5.4615   24.7199 C   0  0  0  0  0  0  0  0  0  0  0  0
  -28.2952  -36.4821   24.5622 C   0  0  0  0  0  0  0  0  0  0  0  0
  -28.6713  -33.9431   23.4859 C   0  0  0  0  0  0  0  0  0  0  0  0
  -27.0179  -29.4947   19.6150 C   0  0  0  0  0  0  0  0  0  0  0  0
  -20.9004   -4.4543   22.5718 C   0  0  0  0  0  0  0  0  0  0  0  0
  -22.0023   -4.1157   24.6951 C   0  0  0  0  0  0  0  0  0  0  0  0
  -27.3933  -28.1563   19.5088 C   0  0  0  0  0  0  0  0  0  0  0  0
  -18.5448   -2.4866   23.9904 C   0  0  0  0  0  0  0  0  0  0  0  0
  -17.2332   -2.1779   23.6299 C   0  0  0  0  0  0  0  0  0  0  0  0
  -28.3359  -20.9151   17.3136 C   0  0  0  0  0  0  0  0  0  0  0  0
  -29.1496  -19.9017   19.7752 C   0  0  0  0  0  0  0  0  0  0  0  0
  -25.4507  -27.5161   20.7877 C   0  0  0  0  0  0  0  0  0  0  0  0
  -18.0517   -0.8799   21.7638 C   0  0  0  0  0  0  0  0  0  0  0  0
  -22.0000   -6.3037   23.6707 C   0  0  0  0  0  0  0  0  0  0  0  0
  -28.6070  -21.8150   18.3584 C   0  0  0  0  0  0  0  0  0  0  0  0
  -21.6478   -8.7637   24.2468 C   0  0  0  0  0  0  0  0  0  0  0  0
  -27.3299  -35.4886   24.7897 C   0  0  0  0  0  0  0  0  0  0  0  0
  -25.8599  -29.8554   20.3189 C   0  0  0  0  0  0  0  0  0  0  0  0
  -27.5235  -34.2007   24.2547 C   0  0  0  0  0  0  0  0  0  0  0  0
  -29.0045  -21.2866   19.6035 C   0  0  0  0  0  0  0  0  0  0  0  0
  -25.0614  -28.8596   20.8992 C   0  0  0  0  0  0  0  0  0  0  0  0
  -28.4683  -19.5360   17.4966 C   0  0  0  0  0  0  0  0  0  0  0  0
  -28.8776  -19.0297   18.7252 C   0  0  0  0  0  0  0  0  0  0  0  0
  -21.2684   -3.6121   23.6211 C   0  0  0  0  0  0  0  0  0  0  0  0
  -26.6113  -27.1669   20.0976 C   0  0  0  0  0  0  0  0  0  0  0  0
  -19.6099   -1.9921   23.2376 C   0  0  0  0  0  0  0  0  0  0  0  0
  -16.9867   -1.3745   22.5166 C   0  0  0  0  0  0  0  0  0  0  0  0
  -19.3633   -1.1887   22.1243 C   0  0  0  0  0  0  0  0  0  0  0  0
  -22.3787   -7.6937   23.6966 C   0  0  0  0  0  0  0  0  0  0  0  0
  -22.4311   -9.8684   24.0174 C   0  0  0  0  0  0  0  0  0  0  0  0
  -28.4840  -23.2928   18.1867 C   0  0  0  0  0  0  0  0  0  0  0  0
  -28.3998  -24.0740   19.2897 C   0  0  0  0  0  0  0  0  0  0  0  0
  -20.3748   -8.7595   24.9064 C   0  0  0  0  0  0  0  0  0  0  0  0
  -25.2582  -31.6175   22.8951 C   0  0  0  0  0  0  0  0  0  0  0  0
  -22.1695  -31.0738   22.0665 C   0  0  0  0  0  0  0  0  0  0  0  0
  -19.9106  -29.0990   20.4404 C   0  0  0  0  0  0  0  0  0  0  0  0
  -25.4672  -12.7277   20.2894 C   0  0  0  0  0  0  0  0  0  0  0  0
  -26.1433  -35.8154   25.6613 C   0  0  0  0  0  0  0  0  0  0  0  0
  -25.4542  -31.3014   20.4016 C   0  0  0  0  0  0  0  0  0  0  0  0
  -29.3427  -22.2161   20.7359 C   0  0  0  0  0  0  0  0  0  0  0  0
  -23.7979  -29.1927   21.6484 C   0  0  0  0  0  0  0  0  0  0  0  0
  -28.5038  -23.4897   20.6823 C   0  0  0  0  0  0  0  0  0  0  0  0
  -25.0032  -34.8073   25.5412 C   0  0  0  0  0  0  0  0  0  0  0  0
  -27.2138  -10.2500   22.4259 C   0  0  0  0  0  0  0  0  0  0  0  0
  -25.5413  -33.3818   25.6134 C   0  0  0  0  0  0  0  0  0  0  0  0
  -26.0376   -9.4287   22.9560 C   0  0  0  0  0  0  0  0  0  0  0  0
  -28.1716  -15.1572   20.8332 C   0  0  0  0  0  0  0  0  0  0  0  0
  -26.9162  -10.7927   21.0343 C   0  0  0  0  0  0  0  0  0  0  0  0
  -27.7205  -13.7115   21.0167 C   0  0  0  0  0  0  0  0  0  0  0  0
  -24.4906  -10.7949   21.4739 C   0  0  0  0  0  0  0  0  0  0  0  0
  -26.4982  -14.7008   19.1983 C   0  0  0  0  0  0  0  0  0  0  0  0
  -26.5075  -33.0976   24.4570 C   0  0  1  0  0  0  0  0  0  0  0  0
  -24.5316  -31.5967   21.5801 C   0  0  1  0  0  0  0  0  0  0  0  0
  -24.7238  -10.2282   22.8856 C   0  0  1  0  0  0  0  0  0  0  0  0
  -27.8318  -15.4043   19.3710 C   0  0  1  0  0  0  0  0  0  0  0  0
  -28.1633  -18.6224   16.3545 C   0  0  0  0  0  0  0  0  0  0  0  0
  -28.4463  -23.8236   16.7773 C   0  0  0  0  0  0  0  0  0  0  0  0
  -17.4540  -28.8897   19.9729 C   0  0  0  0  0  0  0  0  0  0  0  0
  -21.7188  -30.0512   24.9058 C   0  0  0  0  0  0  0  0  0  0  0  0
  -19.5883  -29.0008   24.1146 C   0  0  0  0  0  0  0  0  0  0  0  0
  -19.8719  -31.4767   24.0049 C   0  0  0  0  0  0  0  0  0  0  0  0
  -20.3286  -29.3308   17.5197 C   0  0  0  0  0  0  0  0  0  0  0  0
  -29.0308  -17.5532   18.9430 C   0  0  0  0  0  0  0  0  0  0  0  0
  -28.1625  -25.5611   19.2785 C   0  0  0  0  0  0  0  0  0  1  0  0
  -21.1477  -30.0101   22.3882 C   0  0  1  0  0  0  0  0  0  0  0  0
  -18.7846  -29.4370   19.4801 C   0  0  2  0  0  0  0  0  0  0  0  0
  -20.6065  -30.1283   23.8410 C   0  0  0  0  0  0  0  0  0  0  0  0
  -23.5371   -8.0835   23.1581 N   0  0  0  0  0  0  0  0  0  0  0  0
  -23.5401   -9.4108   23.3687 N   0  0  0  0  0  0  0  0  0  0  0  0
  -23.4469  -30.6212   21.7070 N   0  0  0  0  0  0  0  0  0  0  0  0
  -25.6606  -11.5484   21.0175 N   0  0  0  0  0  0  0  0  0  0  0  0
  -26.5646  -13.5718   20.1248 N   0  0  0  0  0  0  0  0  0  0  0  0
  -22.2724  -11.1769   24.3093 N   0  0  0  0  0  0  0  0  0  0  0  0
  -19.7050   -7.5377   25.0582 N   0  0  0  0  0  0  0  0  0  0  0  0
  -25.7737  -32.8541   23.2336 N   0  0  0  0  0  0  0  0  0  0  0  0
  -20.1195  -30.1070   21.3578 N   0  0  0  0  0  0  0  0  0  0  0  0
  -27.7243  -16.8436   19.0812 N   0  3  0  0  0  0  0  0  0  0  0  0
  -19.0607  -28.8598   18.1342 N   0  3  0  0  0  0  0  0  0  0  0  0
  -19.8392   -9.8104   25.3333 O   0  0  0  0  0  0  0  0  0  0  0  0
  -25.3436  -30.5881   23.5545 O   0  0  0  0  0  0  0  0  0  0  0  0
  -21.8442  -32.2623   22.1250 O   0  0  0  0  0  0  0  0  0  0  0  0
  -20.5395  -28.0445   20.3848 O   0  0  0  0  0  0  0  0  0  0  0  0
  -24.3527  -13.0371   19.8476 O   0  0  0  0  0  0  0  0  0  0  0  0
  -20.9115   -2.2989   23.5973 O   0  0  0  0  0  0  0  0  0  0  0  0
  -26.9796  -25.8463   19.9949 O   0  0  0  0  0  0  0  0  0  1  0  0
  -15.7271   -1.0768   22.1714 F   0  0  0  0  0  0  0  0  0  0  0  0
  -20.3825   -0.7097   21.3979 F   0  0  0  0  0  0  0  0  0  0  0  0
  1  2  1  0  0  0  0
  1  5  2  0  0  0  0
  2  6  2  0  0  0  0
  3  8  2  0  0  0  0
  3 17  1  0  0  0  0
  4  9  1  0  0  0  0
  4 17  2  0  0  0  0
  5 20  1  0  0  0  0
  6 22  1  0  0  0  0
  7 10  2  0  0  0  0
  7 21  1  0  0  0  0
  8 27  1  0  0  0  0
  9 27  2  0  0  0  0
 10 28  1  0  0  0  0
 11 12  2  0  0  0  0
 11 29  1  0  0  0  0
 12 30  1  0  0  0  0
 13 18  1  0  0  0  0
 13 25  2  0  0  0  0
 14 23  1  0  0  0  0
 14 26  2  0  0  0  0
 15 24  1  0  0  0  0
 15 28  2  0  0  0  0
 16 30  2  0  0  0  0
 16 31  1  0  0  0  0
 17 32  1  0  0  0  0
 18 23  2  0  0  0  0
 18 34  1  0  0  0  0
 19 32  1  0  0  0  0
 19 33  2  0  0  0  0
 19 36  1  0  0  0  0
 20 22  2  0  0  0  0
 20 41  1  0  0  0  0
 21 24  2  0  0  0  0
 21 42  1  0  0  0  0
 22 55  1  0  0  0  0
 23 43  1  0  0  0  0
 24 44  1  0  0  0  0
 25 26  1  0  0  0  0
 25 59  1  0  0  0  0
 26 66  1  0  0  0  0
 27 87  1  0  0  0  0
 28 88  1  0  0  0  0
 29 31  2  0  0  0  0
 29 87  1  0  0  0  0
 30 89  1  0  0  0  0
 31 90  1  0  0  0  0
 32 71  2  0  0  0  0
 33 72  1  0  0  0  0
 33 76  1  0  0  0  0
 34 35  2  0  0  0  0
 34 60  1  0  0  0  0
 35 45  1  0  0  0  0
 35 67  1  0  0  0  0
 36 77  1  0  0  0  0
 36 82  2  0  0  0  0
 37 56  1  0  0  0  0
 37 78  1  0  0  0  0
 37 83  2  0  0  0  0
 38 68  1  0  0  0  0
 38 73  1  0  0  0  0
 38 84  2  0  0  0  0
 39 69  1  0  0  0  0
 39 79  1  0  0  0  0
 39 85  2  0  0  0  0
 40 74  1  0  0  0  0
 40 75  1  0  0  0  0
 40 86  2  0  0  0  0
 41 46  1  0  0  0  0
 42 56  1  0  0  0  0
 43 45  1  0  0  0  0
 44 73  1  0  0  0  0
 46 48  1  0  0  0  0
 47 49  1  0  0  0  0
 47 51  1  0  0  0  0
 48 55  1  0  0  0  0
 49 57  1  0  0  0  0
 50 52  1  0  0  0  0
 50 58  1  0  0  0  0
 51 74  1  0  0  0  0
 52 75  1  0  0  0  0
 53 57  1  0  0  0  0
 53 74  1  0  0  0  0
 54 58  1  0  0  0  0
 54 75  1  0  0  0  0
 55 78  1  0  0  0  0
 56 73  1  0  0  0  0
 57 72  1  0  0  0  0
 58 80  1  0  0  0  0
 61 69  1  0  0  0  0
 62 70  1  0  0  0  0
 63 70  1  0  0  0  0
 64 70  1  0  0  0  0
 65 81  1  0  0  0  0
 66 80  1  0  0  0  0
 67 88  1  0  0  0  0
 68 70  1  0  0  0  0
 68 79  1  0  0  0  0
 69 81  1  0  0  0  0
 71 72  1  0  0  0  0
M  CHG  2  80   1  81   1
M  ISO  4  40 100  67 101  75 100  88 101
M  END
> <Batch ID>
0166

> <Smiles>
CNC(C)C(=O)NC(C(=O)N1Cc2cc([101O:1][101CH2:1]C3=C(C)c4cc(C)c(CNC5CC[100N:0]([100C:0](=O)N6CCCC(n7nc(-c8ccc(Oc9ccc(F)cc9F)cc8)c(C(N)=O)c7N)C6)C5)cc4CC3)ccc2CC1C(=O)NC1CCCc2ccccc21)C(C)(C)C

> <Shape>
0.286

> <Color>
0.057

> <Negative vol penalty>
0.000

$$$$

  -OEChem-04052322243D

 92102  0     1  0  0  0  0  0999 V2000
  -31.1085  -36.0558   26.3502 C   0  0  0  0  0  0  0  0  0  0  0  0
  -31.3043  -34.9822   25.4874 C   0  0  0  0  0  0  0  0  0  0  0  0
  -23.4827   -9.5610   19.8740 C   0  0  0  0  0  0  0  0  0  0  0  0
  -23.7870   -9.7790   22.2608 C   0  0  0  0  0  0  0  0  0  0  0  0
  -29.9893  -36.0856   27.1811 C   0  0  0  0  0  0  0  0  0  0  0  0
  -30.3816  -33.9372   25.4559 C   0  0  0  0  0  0  0  0  0  0  0  0
  -28.7072  -30.6506   20.5671 C   0  0  0  0  0  0  0  0  0  0  0  0
  -22.8399   -8.3384   20.0676 C   0  0  0  0  0  0  0  0  0  0  0  0
  -23.1442   -8.5563   22.4544 C   0  0  0  0  0  0  0  0  0  0  0  0
  -29.1028  -29.3986   20.0982 C   0  0  0  0  0  0  0  0  0  0  0  0
  -19.9715   -7.3939   22.5139 C   0  0  0  0  0  0  0  0  0  0  0  0
  -19.0152   -7.3194   23.5266 C   0  0  0  0  0  0  0  0  0  0  0  0
  -27.2047  -28.3940   21.1968 C   0  0  0  0  0  0  0  0  0  0  0  0
  -29.8387  -25.1530   17.4204 C   0  0  0  0  0  0  0  0  0  0  0  0
  -20.3047   -5.5917   24.6171 C   0  0  0  0  0  0  0  0  0  0  0  0
  -23.9563  -10.2814   20.9706 C   0  0  0  0  0  0  0  0  0  0  0  0
  -24.0273  -12.8201   20.7307 C   0  0  0  0  0  0  0  0  0  0  0  0
  -29.0474  -35.0452   27.1529 C   0  0  0  0  0  0  0  0  0  0  0  0
  -27.5614  -30.7823   21.3648 C   0  0  0  0  0  0  0  0  0  0  0  0
  -29.2495  -33.9525   26.2882 C   0  0  0  0  0  0  0  0  0  0  0  0
  -26.7952  -29.6490   21.6725 C   0  0  0  0  0  0  0  0  0  0  0  0
  -30.1300  -25.5195   18.7343 C   0  0  0  0  0  0  0  0  0  0  0  0
  -30.0279  -23.8346   17.0059 C   0  0  0  0  0  0  0  0  0  0  0  0
  -30.6105  -24.5678   19.6337 C   0  0  0  0  0  0  0  0  0  0  0  0
  -30.7997  -23.2494   19.2192 C   0  0  0  0  0  0  0  0  0  0  0  0
  -22.6707   -7.8360   21.3578 C   0  0  0  0  0  0  0  0  0  0  0  0
  -28.3532  -28.2697   20.4155 C   0  0  0  0  0  0  0  0  0  0  0  0
  -21.0944   -6.5673   22.5528 C   0  0  0  0  0  0  0  0  0  0  0  0
  -30.5084  -22.8828   17.9052 C   0  0  0  0  0  0  0  0  0  0  0  0
  -19.1818   -6.4183   24.5782 C   0  0  0  0  0  0  0  0  0  0  0  0
  -21.2610   -5.6662   23.6044 C   0  0  0  0  0  0  0  0  0  0  0  0
  -24.6208  -11.5442   20.7713 C   0  0  0  0  0  0  0  0  0  0  0  0
  -25.0768  -13.6804   20.5192 C   0  0  0  0  0  0  0  0  0  0  0  0
  -22.6504  -13.1941   20.8716 C   0  0  0  0  0  0  0  0  0  0  0  0
  -26.9952  -31.7755   24.3307 C   0  0  0  0  0  0  0  0  0  0  0  0
  -23.8962  -31.4014   23.4483 C   0  0  0  0  0  0  0  0  0  0  0  0
  -21.6311  -29.8819   21.3972 C   0  0  0  0  0  0  0  0  0  0  0  0
  -29.5942  -15.0025   17.7111 C   0  0  0  0  0  0  0  0  0  0  0  0
  -27.8778  -35.0987   28.1037 C   0  0  0  0  0  0  0  0  0  0  0  0
  -27.1331  -32.1435   21.8405 C   0  0  0  0  0  0  0  0  0  0  0  0
  -25.5457  -29.7396   22.5085 C   0  0  0  0  0  0  0  0  0  0  0  0
  -26.7527  -34.1332   27.7401 C   0  0  0  0  0  0  0  0  0  0  0  0
  -30.0545  -12.9355   20.7037 C   0  0  0  0  0  0  0  0  0  0  0  0
  -27.3169  -32.7534   27.4166 C   0  0  0  0  0  0  0  0  0  0  0  0
  -28.6301  -12.4466   20.9435 C   0  0  0  0  0  0  0  0  0  0  0  0
  -32.6146  -15.6869   16.4118 C   0  0  0  0  0  0  0  0  0  0  0  0
  -31.8005  -20.7504   15.5444 C   0  0  0  0  0  0  0  0  0  0  0  0
  -30.3719  -13.0950   19.2163 C   0  0  0  0  0  0  0  0  0  0  0  0
  -32.1823  -14.6965   17.4974 C   0  0  0  0  0  0  0  0  0  0  0  0
  -27.9654  -13.4524   18.7321 C   0  0  0  0  0  0  0  0  0  0  0  0
  -31.3660  -19.3145   15.7534 C   0  0  0  0  0  0  0  0  0  0  0  0
  -28.2581  -32.8120   26.2073 C   0  0  1  0  0  0  0  0  0  0  0  0
  -26.2358  -32.0906   23.0731 C   0  0  1  0  0  0  0  0  0  0  0  0
  -27.6216  -13.3552   20.2250 C   0  0  1  0  0  0  0  0  0  0  0  0
  -31.9769  -21.2663   16.9639 C   0  0  2  0  0  0  0  0  0  0  0  0
  -31.3986  -16.5521   16.7764 C   0  0  2  0  0  0  0  0  0  0  0  0
  -32.5787  -20.0940   17.7422 C   0  0  2  0  0  0  0  0  0  0  0  0
  -29.7099  -23.4615   15.5955 C   0  0  0  0  0  0  0  0  0  0  0  0
  -30.9214  -24.9625   21.0427 C   0  0  0  0  0  0  0  0  0  0  0  0
  -31.3140  -22.2241   20.1789 C   0  0  0  0  0  0  0  0  0  0  0  0
  -34.0955  -20.1744   17.8545 C   0  0  0  0  0  0  0  0  0  0  0  0
  -19.1674  -29.7480   20.9396 C   0  0  0  0  0  0  0  0  0  0  0  0
  -23.5356  -29.6455   25.9175 C   0  0  0  0  0  0  0  0  0  0  0  0
  -21.4041  -28.7957   24.9160 C   0  0  0  0  0  0  0  0  0  0  0  0
  -21.6421  -31.2165   25.4690 C   0  0  0  0  0  0  0  0  0  0  0  0
  -21.9706  -30.8971   18.6380 C   0  0  0  0  0  0  0  0  0  0  0  0
  -29.9186  -26.9379   19.1528 C   0  0  0  0  0  0  0  0  0  1  0  0
  -31.6302  -17.7356   17.6951 C   0  0  0  0  0  0  0  0  0  0  0  0
  -22.9014  -30.2668   23.4930 C   0  0  1  0  0  0  0  0  0  0  0  0
  -20.4753  -30.4383   20.5854 C   0  0  2  0  0  0  0  0  0  0  0  0
  -22.3954  -29.9788   24.9347 C   0  0  0  0  0  0  0  0  0  0  0  0
  -25.9447  -11.5857   20.5992 N   0  0  0  0  0  0  0  0  0  0  0  0
  -26.1917  -12.8980   20.4483 N   0  0  0  0  0  0  0  0  0  0  0  0
  -25.1717  -31.0917   22.9552 N   0  0  0  0  0  0  0  0  0  0  0  0
  -29.3511  -13.8870   18.5199 N   0  0  0  0  0  0  0  0  0  0  0  0
  -30.9014  -15.3879   17.5131 N   0  0  0  0  0  0  0  0  0  0  0  0
  -25.1455  -15.0223   20.3886 N   0  0  0  0  0  0  0  0  0  0  0  0
  -21.7020  -12.1842   21.0840 N   0  0  0  0  0  0  0  0  0  0  0  0
  -27.4978  -32.8879   24.9783 N   0  0  0  0  0  0  0  0  0  0  0  0
  -21.8458  -30.6120   22.5470 N   0  0  0  0  0  0  0  0  0  0  0  0
  -32.2216  -18.8465   16.9152 N   0  3  1  0  0  0  0  0  0  0  0  0
  -20.7271  -30.2492   19.1288 N   0  3  0  0  0  0  0  0  0  0  0  0
  -22.2701  -14.3870   20.7947 O   0  0  0  0  0  0  0  0  0  0  0  0
  -27.1150  -30.6094   24.6880 O   0  0  0  0  0  0  0  0  0  0  0  0
  -23.5521  -32.5228   23.8299 O   0  0  0  0  0  0  0  0  0  0  0  0
  -22.2764  -28.8958   21.0482 O   0  0  0  0  0  0  0  0  0  0  0  0
  -28.6759  -15.6199   17.1557 O   0  0  0  0  0  0  0  0  0  0  0  0
  -22.0433   -6.6430   21.5470 O   0  0  0  0  0  0  0  0  0  0  0  0
  -30.6952  -21.5899   17.4963 O   0  0  0  0  0  0  0  0  0  0  0  0
  -28.7451  -27.0222   19.9506 O   0  0  0  0  0  0  0  0  0  1  0  0
  -18.2642   -6.3479   25.5515 F   0  0  0  0  0  0  0  0  0  0  0  0
  -22.3383   -4.8703   23.6478 F   0  0  0  0  0  0  0  0  0  0  0  0
  1  2  1  0  0  0  0
  1  5  2  0  0  0  0
  2  6  2  0  0  0  0
  3  8  2  0  0  0  0
  3 16  1  0  0  0  0
  4  9  1  0  0  0  0
  4 16  2  0  0  0  0
  5 18  1  0  0  0  0
  6 20  1  0  0  0  0
  7 10  2  0  0  0  0
  7 19  1  0  0  0  0
  8 26  1  0  0  0  0
  9 26  2  0  0  0  0
 10 27  1  0  0  0  0
 11 12  2  0  0  0  0
 11 28  1  0  0  0  0
 12 30  1  0  0  0  0
 13 21  1  0  0  0  0
 13 27  2  0  0  0  0
 14 22  1  0  0  0  0
 14 23  2  0  0  0  0
 15 30  2  0  0  0  0
 15 31  1  0  0  0  0
 16 32  1  0  0  0  0
 17 32  1  0  0  0  0
 17 33  2  0  0  0  0
 17 34  1  0  0  0  0
 18 20  2  0  0  0  0
 18 39  1  0  0  0  0
 19 21  2  0  0  0  0
 19 40  1  0  0  0  0
 20 52  1  0  0  0  0
 21 41  1  0  0  0  0
 22 24  2  0  0  0  0
 22 67  1  0  0  0  0
 23 29  1  0  0  0  0
 23 58  1  0  0  0  0
 24 25  1  0  0  0  0
 24 59  1  0  0  0  0
 25 29  2  0  0  0  0
 25 60  1  0  0  0  0
 26 88  1  0  0  0  0
 27 90  1  0  0  0  0
 28 31  2  0  0  0  0
 28 88  1  0  0  0  0
 29 89  1  0  0  0  0
 30 91  1  0  0  0  0
 31 92  1  0  0  0  0
 32 72  2  0  0  0  0
 33 73  1  0  0  0  0
 33 77  1  0  0  0  0
 34 78  1  0  0  0  0
 34 83  2  0  0  0  0
 35 53  1  0  0  0  0
 35 79  1  0  0  0  0
 35 84  2  0  0  0  0
 36 69  1  0  0  0  0
 36 74  1  0  0  0  0
 36 85  2  0  0  0  0
 37 70  1  0  0  0  0
 37 80  1  0  0  0  0
 37 86  2  0  0  0  0
 38 75  1  0  0  0  0
 38 76  1  0  0  0  0
 38 87  2  0  0  0  0
 39 42  1  0  0  0  0
 40 53  1  0  0  0  0
 41 74  1  0  0  0  0
 42 44  1  0  0  0  0
 43 45  1  0  0  0  0
 43 48  1  0  0  0  0
 44 52  1  0  0  0  0
 45 54  1  0  0  0  0
 46 49  1  0  0  0  0
 46 56  1  0  0  0  0
 47 51  1  0  0  0  0
 47 55  1  0  0  0  0
 48 75  1  0  0  0  0
 49 76  1  0  0  0  0
 50 54  1  0  0  0  0
 50 75  1  0  0  0  0
 51 81  1  0  0  0  0
 52 79  1  0  0  0  0
 53 74  1  0  0  0  0
 54 73  1  0  0  0  0
 55 57  1  0  0  0  0
 55 89  1  0  0  0  0
 56 68  1  0  0  0  0
 56 76  1  0  0  0  0
 57 61  1  0  0  0  0
 57 81  1  0  0  0  0
 62 70  1  0  0  0  0
 63 71  1  0  0  0  0
 64 71  1  0  0  0  0
 65 71  1  0  0  0  0
 66 82  1  0  0  0  0
 67 90  1  0  0  0  0
 68 81  1  0  0  0  0
 69 71  1  0  0  0  0
 69 80  1  0  0  0  0
 70 82  1  0  0  0  0
 72 73  1  0  0  0  0
M  CHG  2  81   1  82   1
M  ISO  4  38 100  67 101  76 100  90 101
M  END
> <Batch ID>
0166

> <Smiles>
CNC(C)C(=O)NC(C(=O)N1Cc2cc([101O:1][101CH2:1]c3cc(C)c(OC4CCN(CC5CC[100N:0]5[100C:0](=O)N5CCCC(n6nc(-c7ccc(Oc8ccc(F)cc8F)cc7)c(C(N)=O)c6N)C5)C4C)c(C)c3C)ccc2CC1C(=O)NC1CCCc2ccccc21)C(C)(C)C

> <Shape>
0.311

> <Color>
0.194

> <Negative vol penalty>
0.000

$$$$

  -OEChem-04052322243D

 89 99  0     1  0  0  0  0  0999 V2000
  -18.6410  -31.3139   18.8215 C   0  0  0  0  0  0  0  0  0  0  0  0
  -19.7907  -30.5595   18.6106 C   0  0  0  0  0  0  0  0  0  0  0  0
  -26.1414  -13.8556   19.8415 C   0  0  0  0  0  0  0  0  0  0  0  0
  -25.3460  -13.4929   22.0938 C   0  0  0  0  0  0  0  0  0  0  0  0
  -18.3803  -31.8473   20.0830 C   0  0  0  0  0  0  0  0  0  0  0  0
  -20.6810  -30.3391   19.6609 C   0  0  0  0  0  0  0  0  0  0  0  0
  -22.2269  -25.5236   19.9190 C   0  0  0  0  0  0  0  0  0  0  0  0
  -25.9715  -12.4995   19.5631 C   0  0  0  0  0  0  0  0  0  0  0  0
  -25.1760  -12.1367   21.8153 C   0  0  0  0  0  0  0  0  0  0  0  0
  -23.2069  -25.1201   19.0132 C   0  0  0  0  0  0  0  0  0  0  0  0
  -24.1915   -8.6442   21.5880 C   0  0  0  0  0  0  0  0  0  0  0  0
  -23.0081   -8.0382   22.0097 C   0  0  0  0  0  0  0  0  0  0  0  0
  -31.2996  -23.9944   17.2349 C   0  0  0  0  0  0  0  0  0  0  0  0
  -24.8848  -25.3633   20.7293 C   0  0  0  0  0  0  0  0  0  0  0  0
  -31.1984  -25.3224   15.2192 C   0  0  0  0  0  0  0  0  0  0  0  0
  -21.7354   -9.5764   20.6492 C   0  0  0  0  0  0  0  0  0  0  0  0
  -25.8287  -14.3523   21.1069 C   0  0  0  0  0  0  0  0  0  0  0  0
  -25.0577  -16.7811   21.2267 C   0  0  0  0  0  0  0  0  0  0  0  0
  -19.2630  -31.6252   21.1517 C   0  0  0  0  0  0  0  0  0  0  0  0
  -22.5706  -25.8611   21.2360 C   0  0  0  0  0  0  0  0  0  0  0  0
  -20.4326  -30.8712   20.9375 C   0  0  0  0  0  0  0  0  0  0  0  0
  -29.9133  -24.0811   17.3617 C   0  0  0  0  0  0  0  0  0  0  0  0
  -23.9069  -25.7683   21.6506 C   0  0  0  0  0  0  0  0  0  0  0  0
  -31.9422  -24.6151   16.1637 C   0  0  0  0  0  0  0  0  0  0  0  0
  -29.8120  -25.4090   15.3459 C   0  0  0  0  0  0  0  0  0  0  0  0
  -29.1694  -24.7884   16.4172 C   0  0  0  0  0  0  0  0  0  0  0  0
  -25.4888  -11.6400   20.5500 C   0  0  0  0  0  0  0  0  0  0  0  0
  -24.5365  -25.0426   19.4174 C   0  0  0  0  0  0  0  0  0  0  0  0
  -24.1469   -9.7165   20.6969 C   0  0  0  0  0  0  0  0  0  0  0  0
  -21.7801   -8.5042   21.5403 C   0  0  0  0  0  0  0  0  0  0  0  0
  -22.9188  -10.1825   20.2275 C   0  0  0  0  0  0  0  0  0  0  0  0
  -26.0046  -15.7530   21.3954 C   0  0  0  0  0  0  0  0  0  0  0  0
  -25.7080  -17.9180   21.6404 C   0  0  0  0  0  0  0  0  0  0  0  0
  -23.7108  -16.7143   20.7398 C   0  0  0  0  0  0  0  0  0  0  0  0
  -22.3712  -28.4971   23.0011 C   0  0  0  0  0  0  0  0  0  0  0  0
  -23.3920  -26.5236   25.3645 C   0  0  0  0  0  0  0  0  0  0  0  0
  -25.0360  -23.6652   26.2441 C   0  0  0  0  0  0  0  0  0  0  0  0
  -30.0947  -21.1914   21.8904 C   0  0  0  0  0  0  0  0  0  0  0  0
  -18.9627  -32.2619   22.4855 C   0  0  0  0  0  0  0  0  0  0  0  0
  -21.4979  -26.2688   22.2084 C   0  0  0  0  0  0  0  0  0  0  0  0
  -24.3251  -26.1002   23.0590 C   0  0  0  0  0  0  0  0  0  0  0  0
  -19.7671  -31.6679   23.6389 C   0  0  0  0  0  0  0  0  0  0  0  0
  -30.0928  -18.5133   24.0758 C   0  0  0  0  0  0  0  0  0  0  0  0
  -21.2368  -31.5355   23.2522 C   0  0  0  0  0  0  0  0  0  0  0  0
  -28.9513  -17.6318   23.5693 C   0  0  0  0  0  0  0  0  0  0  0  0
  -29.4459  -21.8703   18.5087 C   0  0  0  0  0  0  0  0  0  0  0  0
  -29.7047  -23.9792   19.8854 C   0  0  0  0  0  0  0  0  0  0  0  0
  -25.4996  -24.5886   16.1140 C   0  0  0  0  0  0  0  0  0  0  0  0
  -30.8975  -19.0847   22.9142 C   0  0  0  0  0  0  0  0  0  0  0  0
  -28.7945  -21.1887   19.7155 C   0  0  0  0  0  0  0  0  0  0  0  0
  -29.0260  -23.2590   21.0470 C   0  0  0  0  0  0  0  0  0  0  0  0
  -26.8639  -23.9168   15.9592 C   0  0  0  0  0  0  0  0  0  0  0  0
  -28.9305  -18.9887   21.4178 C   0  0  0  0  0  0  0  0  0  0  0  0
  -27.1087  -25.9324   17.2814 C   0  0  0  0  0  0  0  0  0  0  0  0
  -29.2430  -23.3959   18.5376 C   0  0  0  0  0  0  0  0  0  0  0  0
  -21.4099  -30.5893   22.0580 C   0  0  1  0  0  0  0  0  0  0  0  0
  -22.0335  -27.0833   23.3819 C   0  0  1  0  0  0  0  0  0  0  0  0
  -28.0772  -18.3885   22.5536 C   0  0  1  0  0  0  0  0  0  0  0  0
  -25.6629  -25.4444   17.3617 C   0  0  2  0  0  0  0  0  0  1  0  0
  -33.4246  -24.5225   16.0281 C   0  0  0  0  0  0  0  0  0  0  0  0
  -29.0415  -26.1735   14.3187 C   0  0  0  0  0  0  0  0  0  0  0  0
  -25.7415  -22.3372   28.2531 C   0  0  0  0  0  0  0  0  0  0  0  0
  -25.6292  -28.5279   25.9008 C   0  0  0  0  0  0  0  0  0  0  0  0
  -26.8121  -26.7517   27.2099 C   0  0  0  0  0  0  0  0  0  0  0  0
  -24.5752  -27.5667   27.9549 C   0  0  0  0  0  0  0  0  0  0  0  0
  -23.4454  -21.3181   25.3955 C   0  0  0  0  0  0  0  0  0  0  0  0
  -24.7399  -26.1040   25.8993 C   0  0  1  0  0  0  0  0  0  0  0  0
  -24.6663  -22.5433   27.1975 C   0  0  2  0  0  0  0  0  0  0  0  0
  -25.4318  -27.2331   26.7141 C   0  0  0  0  0  0  0  0  0  0  0  0
  -27.1678  -16.1975   21.8783 N   0  0  0  0  0  0  0  0  0  0  0  0
  -26.9563  -17.5175   22.0166 N   0  0  0  0  0  0  0  0  0  0  0  0
  -27.7988  -24.8742   16.5427 N   0  0  3  0  0  0  0  0  0  0  0  0
  -23.2405  -26.4999   23.9708 N   0  0  0  0  0  0  0  0  0  0  0  0
  -30.0319  -19.7921   21.9708 N   0  0  0  0  0  0  0  0  0  0  0  0
  -29.2404  -21.8143   20.9682 N   0  0  0  0  0  0  0  0  0  0  0  0
  -25.3281  -19.2112   21.7153 N   0  0  0  0  0  0  0  0  0  0  0  0
  -23.1997  -15.4666   20.3575 N   0  0  0  0  0  0  0  0  0  0  0  0
  -21.3059  -29.2108   22.4862 N   0  0  0  0  0  0  0  0  0  0  0  0
  -24.5157  -24.8750   26.6526 N   0  0  0  0  0  0  0  0  0  0  0  0
  -24.4899  -21.2658   26.4506 N   0  3  0  0  0  0  0  0  0  0  0  0
  -22.9877  -17.7335   20.6311 O   0  0  0  0  0  0  0  0  0  0  0  0
  -23.5133  -28.9103   23.1639 O   0  0  0  0  0  0  0  0  0  0  0  0
  -22.5039  -26.8532   26.1546 O   0  0  0  0  0  0  0  0  0  0  0  0
  -25.7213  -23.4869   25.2395 O   0  0  0  0  0  0  0  0  0  0  0  0
  -30.8677  -21.8463   22.6009 O   0  0  0  0  0  0  0  0  0  0  0  0
  -25.3226  -10.3166   20.2785 O   0  0  0  0  0  0  0  0  0  0  0  0
  -25.5015  -24.6470   18.5292 O   0  0  0  0  0  0  0  0  0  1  0  0
  -20.6439   -7.9211   21.9442 F   0  0  0  0  0  0  0  0  0  0  0  0
  -22.8697  -11.2115   19.3703 F   0  0  0  0  0  0  0  0  0  0  0  0
  1  2  1  0  0  0  0
  1  5  2  0  0  0  0
  2  6  2  0  0  0  0
  3  8  2  0  0  0  0
  3 17  1  0  0  0  0
  4  9  1  0  0  0  0
  4 17  2  0  0  0  0
  5 19  1  0  0  0  0
  6 21  1  0  0  0  0
  7 10  2  0  0  0  0
  7 20  1  0  0  0  0
  8 27  1  0  0  0  0
  9 27  2  0  0  0  0
 10 28  1  0  0  0  0
 11 12  2  0  0  0  0
 11 29  1  0  0  0  0
 12 30  1  0  0  0  0
 13 22  1  0  0  0  0
 13 24  2  0  0  0  0
 14 23  1  0  0  0  0
 14 28  2  0  0  0  0
 15 24  1  0  0  0  0
 15 25  2  0  0  0  0
 16 30  2  0  0  0  0
 16 31  1  0  0  0  0
 17 32  1  0  0  0  0
 18 32  1  0  0  0  0
 18 33  2  0  0  0  0
 18 34  1  0  0  0  0
 19 21  2  0  0  0  0
 19 39  1  0  0  0  0
 20 23  2  0  0  0  0
 20 40  1  0  0  0  0
 21 56  1  0  0  0  0
 22 26  2  0  0  0  0
 22 55  1  0  0  0  0
 23 41  1  0  0  0  0
 24 60  1  0  0  0  0
 25 26  1  0  0  0  0
 25 61  1  0  0  0  0
 26 72  1  0  0  0  0
 27 86  1  0  0  0  0
 28 87  1  0  0  0  0
 29 31  2  0  0  0  0
 29 86  1  0  0  0  0
 30 88  1  0  0  0  0
 31 89  1  0  0  0  0
 32 70  2  0  0  0  0
 33 71  1  0  0  0  0
 33 76  1  0  0  0  0
 34 77  1  0  0  0  0
 34 81  2  0  0  0  0
 35 57  1  0  0  0  0
 35 78  1  0  0  0  0
 35 82  2  0  0  0  0
 36 67  1  0  0  0  0
 36 73  1  0  0  0  0
 36 83  2  0  0  0  0
 37 68  1  0  0  0  0
 37 79  1  0  0  0  0
 37 84  2  0  0  0  0
 38 74  1  0  0  0  0
 38 75  1  0  0  0  0
 38 85  2  0  0  0  0
 39 42  1  0  0  0  0
 40 57  1  0  0  0  0
 41 73  1  0  0  0  0
 42 44  1  0  0  0  0
 43 45  1  0  0  0  0
 43 49  1  0  0  0  0
 44 56  1  0  0  0  0
 45 58  1  0  0  0  0
 46 50  1  0  0  0  0
 46 55  1  0  0  0  0
 47 51  1  0  0  0  0
 47 55  1  0  0  0  0
 48 52  1  0  0  0  0
 48 59  1  0  0  0  0
 49 74  1  0  0  0  0
 50 75  1  0  0  0  0
 51 75  1  0  0  0  0
 52 72  1  0  0  0  0
 53 58  1  0  0  0  0
 53 74  1  0  0  0  0
 54 59  1  0  0  0  0
 54 72  1  0  0  0  0
 56 78  1  0  0  0  0
 57 73  1  0  0  0  0
 58 71  1  0  0  0  0
 59 87  1  0  0  0  0
 62 68  1  0  0  0  0
 63 69  1  0  0  0  0
 64 69  1  0  0  0  0
 65 69  1  0  0  0  0
 66 80  1  0  0  0  0
 67 69  1  0  0  0  0
 67 79  1  0  0  0  0
 68 80  1  0  0  0  0
 70 71  1  0  0  0  0
M  CHG  1  80   1
M  ISO  4  38 100  59 101  75 100  87 101
M  END
> <Batch ID>
0166

> <Smiles>
CNC(C)C(=O)NC(C(=O)N1Cc2cc([101O:1][101CH:1]3CCN(c4c(C)cc(C)cc4C4CC[100N:0]([100C:0](=O)N5CCCC(n6nc(-c7ccc(Oc8ccc(F)cc8F)cc7)c(C(N)=O)c6N)C5)CC4)C3)ccc2CC1C(=O)NC1CCCc2ccccc21)C(C)(C)C

> <Shape>
0.169

> <Color>
0.072

> <Negative vol penalty>
0.000

$$$$

  -OEChem-04052322243D

 89 99  0     1  0  0  0  0  0999 V2000
  -14.4357  -27.9728   22.7777 C   0  0  0  0  0  0  0  0  0  0  0  0
  -15.0849  -27.6486   21.5907 C   0  0  0  0  0  0  0  0  0  0  0  0
  -25.5662  -14.0315   19.7117 C   0  0  0  0  0  0  0  0  0  0  0  0
  -25.3550  -13.4221   22.0400 C   0  0  0  0  0  0  0  0  0  0  0  0
  -15.1244  -28.6454   23.7863 C   0  0  0  0  0  0  0  0  0  0  0  0
  -16.4228  -27.9980   21.4112 C   0  0  0  0  0  0  0  0  0  0  0  0
  -22.4130  -25.7018   18.2235 C   0  0  0  0  0  0  0  0  0  0  0  0
  -25.4244  -12.6924   19.3483 C   0  0  0  0  0  0  0  0  0  0  0  0
  -25.2132  -12.0829   21.6766 C   0  0  0  0  0  0  0  0  0  0  0  0
  -23.4093  -26.1461   17.3552 C   0  0  0  0  0  0  0  0  0  0  0  0
  -24.4344   -8.5475   21.3412 C   0  0  0  0  0  0  0  0  0  0  0  0
  -23.4278   -7.8091   21.9633 C   0  0  0  0  0  0  0  0  0  0  0  0
  -24.5205  -27.2365   19.1979 C   0  0  0  0  0  0  0  0  0  0  0  0
  -21.7698   -9.3347   21.0912 C   0  0  0  0  0  0  0  0  0  0  0  0
  -25.5316  -14.3964   21.0576 C   0  0  0  0  0  0  0  0  0  0  0  0
  -24.6534  -16.7316   21.5900 C   0  0  0  0  0  0  0  0  0  0  0  0
  -16.4742  -28.9947   23.6229 C   0  0  0  0  0  0  0  0  0  0  0  0
  -22.4573  -26.0313   19.5858 C   0  0  0  0  0  0  0  0  0  0  0  0
  -17.1298  -28.6772   22.4180 C   0  0  0  0  0  0  0  0  0  0  0  0
  -23.5250  -26.7931   20.0818 C   0  0  0  0  0  0  0  0  0  0  0  0
  -29.6957  -25.5334   16.2802 C   0  0  0  0  0  0  0  0  0  0  0  0
  -30.2163  -24.7958   17.3376 C   0  0  0  0  0  0  0  0  0  0  0  0
  -30.5454  -26.2971   15.4876 C   0  0  0  0  0  0  0  0  0  0  0  0
  -25.2479  -11.7180   20.3307 C   0  0  0  0  0  0  0  0  0  0  0  0
  -24.4617  -26.9160   17.8418 C   0  0  0  0  0  0  0  0  0  0  0  0
  -24.1087   -9.6796   20.5941 C   0  0  0  0  0  0  0  0  0  0  0  0
  -22.0955   -8.2026   21.8383 C   0  0  0  0  0  0  0  0  0  0  0  0
  -22.7764  -10.0731   20.4691 C   0  0  0  0  0  0  0  0  0  0  0  0
  -25.6786  -15.7796   21.4336 C   0  0  0  0  0  0  0  0  0  0  0  0
  -31.5828  -24.8552   17.5590 C   0  0  0  0  0  0  0  0  0  0  0  0
  -31.8971  -26.2894   15.7919 C   0  0  0  0  0  0  0  0  0  0  0  0
  -25.3073  -17.8840   21.9518 C   0  0  0  0  0  0  0  0  0  0  0  0
  -23.2367  -16.5871   21.4232 C   0  0  0  0  0  0  0  0  0  0  0  0
  -20.5792  -27.6681   21.5599 C   0  0  0  0  0  0  0  0  0  0  0  0
  -22.6649  -26.6013   23.8036 C   0  0  0  0  0  0  0  0  0  0  0  0
  -25.7928  -25.4502   24.5373 C   0  0  0  0  0  0  0  0  0  0  0  0
  -29.4027  -21.4959   21.5018 C   0  0  0  0  0  0  0  0  0  0  0  0
  -17.1635  -29.7631   24.7224 C   0  0  0  0  0  0  0  0  0  0  0  0
  -21.3891  -25.5219   20.5141 C   0  0  0  0  0  0  0  0  0  0  0  0
  -23.6296  -27.1570   21.5395 C   0  0  0  0  0  0  0  0  0  0  0  0
  -18.6852  -29.7657   24.6021 C   0  0  0  0  0  0  0  0  0  0  0  0
  -30.0967  -18.6616   23.3548 C   0  0  0  0  0  0  0  0  0  0  0  0
  -19.1070  -30.0808   23.1704 C   0  0  0  0  0  0  0  0  0  0  0  0
  -28.9280  -17.7276   23.0417 C   0  0  0  0  0  0  0  0  0  0  0  0
  -29.6598  -22.4560   18.1359 C   0  0  0  0  0  0  0  0  0  0  0  0
  -29.3240  -24.4327   19.6817 C   0  0  0  0  0  0  0  0  0  0  0  0
  -27.1423  -25.4894   17.1728 C   0  0  0  0  0  0  0  0  0  0  0  0
  -27.4324  -26.8166   15.5385 C   0  0  0  0  0  0  0  0  0  0  0  0
  -30.5627  -19.3919   22.1007 C   0  0  0  0  0  0  0  0  0  0  0  0
  -28.7658  -21.6156   19.0522 C   0  0  0  0  0  0  0  0  0  0  0  0
  -28.4202  -23.5565   20.5442 C   0  0  0  0  0  0  0  0  0  0  0  0
  -28.3067  -19.2452   21.0970 C   0  0  0  0  0  0  0  0  0  0  0  0
  -28.1406  -25.5036   15.9798 C   0  0  0  0  0  0  0  0  0  0  0  0
  -29.3132  -23.9535   18.2188 C   0  0  0  0  0  0  0  0  0  0  0  0
  -18.5875  -29.0172   22.1955 C   0  0  1  0  0  0  0  0  0  0  0  0
  -21.2616  -26.3493   21.7895 C   0  0  1  0  0  0  0  0  0  0  0  0
  -27.7895  -18.4842   22.3347 C   0  0  1  0  0  0  0  0  0  0  0  0
  -26.1824  -26.3344   16.3065 C   0  0  0  0  0  0  0  0  0  1  0  0
  -30.0150  -27.0972   14.3460 C   0  0  0  0  0  0  0  0  0  0  0  0
  -32.1997  -24.0830   18.6794 C   0  0  0  0  0  0  0  0  0  0  0  0
  -32.8582  -27.0908   14.9760 C   0  0  0  0  0  0  0  0  0  0  0  0
  -27.2130  -24.6975   26.4644 C   0  0  0  0  0  0  0  0  0  0  0  0
  -23.0255  -29.5049   24.6689 C   0  0  0  0  0  0  0  0  0  0  0  0
  -25.0955  -28.8099   25.8938 C   0  0  0  0  0  0  0  0  0  0  0  0
  -22.8825  -27.8653   26.5519 C   0  0  0  0  0  0  0  0  0  0  0  0
  -26.1420  -22.7506   23.3760 C   0  0  0  0  0  0  0  0  0  0  0  0
  -23.9579  -27.1134   24.3908 C   0  0  1  0  0  0  0  0  0  0  0  0
  -26.2623  -24.2637   25.3596 C   0  0  2  0  0  0  0  0  0  0  0  0
  -23.7376  -28.3183   25.3485 C   0  0  0  0  0  0  0  0  0  0  0  0
  -26.8916  -16.2835   21.6760 N   0  0  0  0  0  0  0  0  0  0  0  0
  -32.4397  -25.5856   16.8107 N   0  0  0  0  0  0  0  0  0  0  0  0
  -26.6328  -17.5647   21.9884 N   0  0  0  0  0  0  0  0  0  0  0  0
  -22.5573  -26.6406   22.4062 N   0  0  0  0  0  0  0  0  0  0  0  0
  -29.4529  -20.0945   21.4568 N   0  0  0  0  0  0  0  0  0  0  0  0
  -28.7839  -22.1450   20.4229 N   0  0  0  0  0  0  0  0  0  0  0  0
  -24.8720  -19.1292   22.2390 N   0  0  0  0  0  0  0  0  0  0  0  0
  -22.7324  -15.3342   21.0488 N   0  0  0  0  0  0  0  0  0  0  0  0
  -19.4029  -27.8238   22.2681 N   0  0  0  0  0  0  0  0  0  0  0  0
  -24.6060  -25.9649   25.0148 N   0  0  0  0  0  0  0  0  0  0  0  0
  -26.9682  -23.2790   24.4918 N   0  3  0  0  0  0  0  0  0  0  0  0
  -22.4431  -17.5450   21.5850 O   0  0  0  0  0  0  0  0  0  0  0  0
  -21.0834  -28.4847   20.7979 O   0  0  0  0  0  0  0  0  0  0  0  0
  -21.7857  -26.1752   24.5566 O   0  0  0  0  0  0  0  0  0  0  0  0
  -26.4183  -25.8800   23.5706 O   0  0  0  0  0  0  0  0  0  0  0  0
  -29.8817  -22.1304   22.4501 O   0  0  0  0  0  0  0  0  0  0  0  0
  -25.1092  -10.4112   19.9765 O   0  0  0  0  0  0  0  0  0  0  0  0
  -25.4372  -27.3523   16.9946 O   0  0  0  0  0  0  0  0  0  1  0  0
  -21.1288   -7.4925   22.4345 F   0  0  0  0  0  0  0  0  0  0  0  0
  -22.4572  -11.1591   19.7518 F   0  0  0  0  0  0  0  0  0  0  0  0
  1  2  1  0  0  0  0
  1  5  2  0  0  0  0
  2  6  2  0  0  0  0
  3  8  2  0  0  0  0
  3 15  1  0  0  0  0
  4  9  1  0  0  0  0
  4 15  2  0  0  0  0
  5 17  1  0  0  0  0
  6 19  1  0  0  0  0
  7 10  2  0  0  0  0
  7 18  1  0  0  0  0
  8 24  1  0  0  0  0
  9 24  2  0  0  0  0
 10 25  1  0  0  0  0
 11 12  2  0  0  0  0
 11 26  1  0  0  0  0
 12 27  1  0  0  0  0
 13 20  1  0  0  0  0
 13 25  2  0  0  0  0
 14 27  2  0  0  0  0
 14 28  1  0  0  0  0
 15 29  1  0  0  0  0
 16 29  1  0  0  0  0
 16 32  2  0  0  0  0
 16 33  1  0  0  0  0
 17 19  2  0  0  0  0
 17 38  1  0  0  0  0
 18 20  2  0  0  0  0
 18 39  1  0  0  0  0
 19 55  1  0  0  0  0
 20 40  1  0  0  0  0
 21 22  2  0  0  0  0
 21 23  1  0  0  0  0
 21 53  1  0  0  0  0
 22 30  1  0  0  0  0
 22 54  1  0  0  0  0
 23 31  2  0  0  0  0
 23 59  1  0  0  0  0
 24 86  1  0  0  0  0
 25 87  1  0  0  0  0
 26 28  2  0  0  0  0
 26 86  1  0  0  0  0
 27 88  1  0  0  0  0
 28 89  1  0  0  0  0
 29 70  2  0  0  0  0
 30 60  1  0  0  0  0
 30 71  2  0  0  0  0
 31 61  1  0  0  0  0
 31 71  1  0  0  0  0
 32 72  1  0  0  0  0
 32 76  1  0  0  0  0
 33 77  1  0  0  0  0
 33 81  2  0  0  0  0
 34 56  1  0  0  0  0
 34 78  1  0  0  0  0
 34 82  2  0  0  0  0
 35 67  1  0  0  0  0
 35 73  1  0  0  0  0
 35 83  2  0  0  0  0
 36 68  1  0  0  0  0
 36 79  1  0  0  0  0
 36 84  2  0  0  0  0
 37 74  1  0  0  0  0
 37 75  1  0  0  0  0
 37 85  2  0  0  0  0
 38 41  1  0  0  0  0
 39 56  1  0  0  0  0
 40 73  1  0  0  0  0
 41 43  1  0  0  0  0
 42 44  1  0  0  0  0
 42 49  1  0  0  0  0
 43 55  1  0  0  0  0
 44 57  1  0  0  0  0
 45 50  1  0  0  0  0
 45 54  1  0  0  0  0
 46 51  1  0  0  0  0
 46 54  1  0  0  0  0
 47 53  1  0  0  0  0
 47 58  1  0  0  0  0
 48 53  1  0  0  0  0
 48 58  1  0  0  0  0
 49 74  1  0  0  0  0
 50 75  1  0  0  0  0
 51 75  1  0  0  0  0
 52 57  1  0  0  0  0
 52 74  1  0  0  0  0
 55 78  1  0  0  0  0
 56 73  1  0  0  0  0
 57 72  1  0  0  0  0
 58 87  1  0  0  0  0
 62 68  1  0  0  0  0
 63 69  1  0  0  0  0
 64 69  1  0  0  0  0
 65 69  1  0  0  0  0
 66 80  1  0  0  0  0
 67 69  1  0  0  0  0
 67 79  1  0  0  0  0
 68 80  1  0  0  0  0
 70 72  1  0  0  0  0
M  CHG  1  80   1
M  ISO  4  37 100  58 101  75 100  87 101
M  END
> <Batch ID>
0166

> <Smiles>
CNC(C)C(=O)NC(C(=O)N1Cc2cc([101O:1][101CH:1]3CC(c4c(C)c(C)nc(C)c4C4CC[100N:0]([100C:0](=O)N5CCCC(n6nc(-c7ccc(Oc8ccc(F)cc8F)cc7)c(C(N)=O)c6N)C5)CC4)C3)ccc2CC1C(=O)NC1CCCc2ccccc21)C(C)(C)C

> <Shape>
0.215

> <Color>
0.053

> <Negative vol penalty>
0.000

$$$$

  -OEChem-04052322243D

 87 96  0     1  0  0  0  0  0999 V2000
  -26.0342  -11.0802   17.4092 C   0  0  0  0  0  0  0  0  0  0  0  0
  -25.3528  -12.2254   17.0097 C   0  0  0  0  0  0  0  0  0  0  0  0
  -29.5117  -26.4317   18.7709 C   0  0  0  0  0  0  0  0  0  0  0  0
  -29.1835  -25.6380   21.0291 C   0  0  0  0  0  0  0  0  0  0  0  0
  -26.2495  -10.8358   18.7649 C   0  0  0  0  0  0  0  0  0  0  0  0
  -24.8853  -13.1263   17.9658 C   0  0  0  0  0  0  0  0  0  0  0  0
  -23.7266  -20.1276   18.9440 C   0  0  0  0  0  0  0  0  0  0  0  0
  -30.8556  -26.0641   18.8370 C   0  0  0  0  0  0  0  0  0  0  0  0
  -30.5274  -25.2703   21.0952 C   0  0  0  0  0  0  0  0  0  0  0  0
  -22.7214  -21.0075   19.3428 C   0  0  0  0  0  0  0  0  0  0  0  0
  -34.2884  -25.0039   18.2826 C   0  0  0  0  0  0  0  0  0  0  0  0
  -34.8307  -24.3293   17.1889 C   0  0  0  0  0  0  0  0  0  0  0  0
  -23.2207  -20.5216   21.6524 C   0  0  0  0  0  0  0  0  0  0  0  0
  -33.2211  -22.5523   17.4870 C   0  0  0  0  0  0  0  0  0  0  0  0
  -28.6757  -26.2187   19.8670 C   0  0  0  0  0  0  0  0  0  0  0  0
  -26.2091  -25.8056   19.3642 C   0  0  0  0  0  0  0  0  0  0  0  0
  -25.7928  -11.7390   19.7376 C   0  0  0  0  0  0  0  0  0  0  0  0
  -24.4804  -19.4286   19.8979 C   0  0  0  0  0  0  0  0  0  0  0  0
  -25.0934  -12.8931   19.3358 C   0  0  0  0  0  0  0  0  0  0  0  0
  -24.2366  -19.6353   21.2631 C   0  0  0  0  0  0  0  0  0  0  0  0
  -20.3152  -24.5372   22.5404 C   0  0  0  0  0  0  0  0  0  0  0  0
  -20.1447  -23.1689   22.7194 C   0  0  0  0  0  0  0  0  0  0  0  0
  -19.2468  -25.3998   22.7592 C   0  0  0  0  0  0  0  0  0  0  0  0
  -31.3635  -25.4833   19.9991 C   0  0  0  0  0  0  0  0  0  0  0  0
  -22.4664  -21.2025   20.6971 C   0  0  0  0  0  0  0  0  0  0  0  0
  -33.2125  -24.4528   18.9786 C   0  0  0  0  0  0  0  0  0  0  0  0
  -34.2971  -23.1035   16.7910 C   0  0  0  0  0  0  0  0  0  0  0  0
  -32.6789  -23.2270   18.5808 C   0  0  0  0  0  0  0  0  0  0  0  0
  -27.2875  -26.5989   19.7996 C   0  0  0  0  0  0  0  0  0  0  0  0
  -18.8959  -22.7172   23.1148 C   0  0  0  0  0  0  0  0  0  0  0  0
  -18.0382  -24.8482   23.1526 C   0  0  0  0  0  0  0  0  0  0  0  0
  -25.1104  -26.6199   19.4916 C   0  0  0  0  0  0  0  0  0  0  0  0
  -26.2012  -24.4535   18.8873 C   0  0  0  0  0  0  0  0  0  0  0  0
  -24.9166  -16.3598   20.6021 C   0  0  0  0  0  0  0  0  0  0  0  0
  -27.1186  -17.5487   22.6662 C   0  0  0  0  0  0  0  0  0  0  0  0
  -28.2122  -20.1886   24.5321 C   0  0  0  0  0  0  0  0  0  0  0  0
  -22.1050  -30.3192   22.3948 C   0  0  0  0  0  0  0  0  0  0  0  0
  -26.0078  -11.4083   21.1933 C   0  0  0  0  0  0  0  0  0  0  0  0
  -25.5790  -18.5032   19.4518 C   0  0  0  0  0  0  0  0  0  0  0  0
  -25.0311  -18.9245   22.3271 C   0  0  0  0  0  0  0  0  0  0  0  0
  -25.8081  -12.6011   22.1249 C   0  0  0  0  0  0  0  0  0  0  0  0
  -24.7798  -31.5825   20.4135 C   0  0  0  0  0  0  0  0  0  0  0  0
  -24.5269  -13.3482   21.7685 C   0  0  0  0  0  0  0  0  0  0  0  0
  -25.5846  -30.3344   20.0468 C   0  0  0  0  0  0  0  0  0  0  0  0
  -24.2118  -31.4924   21.8282 C   0  0  0  0  0  0  0  0  0  0  0  0
  -24.2259  -29.0296   21.7351 C   0  0  0  0  0  0  0  0  0  0  0  0
  -19.7981  -27.6804   23.6485 C   0  0  0  0  0  0  0  0  0  0  0  0
  -19.1411  -27.4545   21.3225 C   0  0  0  0  0  0  0  0  0  0  0  0
  -24.5926  -13.9066   20.3418 C   0  0  1  0  0  0  0  0  0  0  0  0
  -25.9400  -17.4553   20.5002 C   0  0  1  0  0  0  0  0  0  0  0  0
  -24.7721  -29.0497   20.2972 C   0  0  2  0  0  0  0  0  0  0  0  0
  -20.0674  -29.0036   22.9213 C   0  0  2  0  0  0  0  0  0  0  0  0
  -19.1554  -28.9370   21.6987 C   0  0  2  0  0  0  0  0  0  0  0  0
  -21.6445  -25.0764   22.1145 C   0  0  0  0  0  0  0  0  0  0  0  0
  -18.6528  -21.2584   23.3255 C   0  0  0  0  0  0  0  0  0  0  0  0
  -16.8520  -25.7221   23.4028 C   0  0  0  0  0  0  0  0  0  0  0  0
  -29.7304  -21.5111   26.0299 C   0  0  0  0  0  0  0  0  0  0  0  0
  -25.7194  -15.9712   24.8716 C   0  0  0  0  0  0  0  0  0  0  0  0
  -26.9310  -17.3784   26.5508 C   0  0  0  0  0  0  0  0  0  0  0  0
  -28.2174  -15.9273   24.9818 C   0  0  0  0  0  0  0  0  0  0  0  0
  -29.7433  -21.2531   22.2340 C   0  0  0  0  0  0  0  0  0  0  0  0
  -21.2780  -22.2121   22.4928 C   0  0  0  0  0  0  0  0  0  1  0  0
  -27.0959  -18.0153   24.1017 C   0  0  1  0  0  0  0  0  0  0  0  0
  -29.5880  -20.8111   24.6874 C   0  0  2  0  0  0  0  0  0  0  0  0
  -26.9745  -16.8351   25.1066 C   0  0  0  0  0  0  0  0  0  0  0  0
  -26.9083  -27.8232   20.1753 N   0  0  0  0  0  0  0  0  0  0  0  0
  -17.8345  -23.5245   23.3368 N   0  0  0  0  0  0  0  0  0  0  0  0
  -25.5793  -27.8054   19.9764 N   0  0  0  0  0  0  0  0  0  0  0  0
  -19.3861  -26.7612   22.5873 N   0  0  3  0  0  0  0  0  0  0  0  0
  -26.0904  -18.0252   21.8406 N   0  0  0  0  0  0  0  0  0  0  0  0
  -23.4511  -30.2522   21.9994 N   0  0  0  0  0  0  0  0  0  0  0  0
  -23.7986  -26.4305   19.2351 N   0  0  0  0  0  0  0  0  0  0  0  0
  -27.4181  -23.7615   18.8202 N   0  0  0  0  0  0  0  0  0  0  0  0
  -25.4066  -15.1026   20.3042 N   0  0  0  0  0  0  0  0  0  0  0  0
  -28.2893  -18.8345   24.2835 N   0  0  0  0  0  0  0  0  0  0  0  0
  -21.4556  -29.0979   22.5276 N   0  0  0  0  0  0  0  0  0  0  0  0
  -17.7759  -29.3458   22.0919 N   0  3  0  0  0  0  0  0  0  0  0  0
  -29.8292  -21.8103   23.6084 N   0  3  0  0  0  0  0  0  0  0  0  0
  -25.1484  -23.8815   18.5158 O   0  0  0  0  0  0  0  0  0  0  0  0
  -23.7678  -16.6346   20.9285 O   0  0  0  0  0  0  0  0  0  0  0  0
  -28.0195  -16.7950   22.2894 O   0  0  0  0  0  0  0  0  0  0  0  0
  -27.1729  -20.8379   24.6260 O   0  0  0  0  0  0  0  0  0  0  0  0
  -21.5233  -31.3883   22.6082 O   0  0  0  0  0  0  0  0  0  0  0  0
  -32.6747  -25.1242   20.0638 O   0  0  0  0  0  0  0  0  0  0  0  0
  -21.4854  -22.0603   21.0891 O   0  0  0  0  0  0  0  0  0  1  0  0
  -34.8169  -22.4564   15.7397 F   0  0  0  0  0  0  0  0  0  0  0  0
  -31.6445  -22.6930   19.2448 F   0  0  0  0  0  0  0  0  0  0  0  0
  1  2  1  0  0  0  0
  1  5  2  0  0  0  0
  2  6  2  0  0  0  0
  3  8  2  0  0  0  0
  3 15  1  0  0  0  0
  4  9  1  0  0  0  0
  4 15  2  0  0  0  0
  5 17  1  0  0  0  0
  6 19  1  0  0  0  0
  7 10  2  0  0  0  0
  7 18  1  0  0  0  0
  8 24  1  0  0  0  0
  9 24  2  0  0  0  0
 10 25  1  0  0  0  0
 11 12  2  0  0  0  0
 11 26  1  0  0  0  0
 12 27  1  0  0  0  0
 13 20  1  0  0  0  0
 13 25  2  0  0  0  0
 14 27  2  0  0  0  0
 14 28  1  0  0  0  0
 15 29  1  0  0  0  0
 16 29  1  0  0  0  0
 16 32  2  0  0  0  0
 16 33  1  0  0  0  0
 17 19  2  0  0  0  0
 17 38  1  0  0  0  0
 18 20  2  0  0  0  0
 18 39  1  0  0  0  0
 19 49  1  0  0  0  0
 20 40  1  0  0  0  0
 21 22  2  0  0  0  0
 21 23  1  0  0  0  0
 21 54  1  0  0  0  0
 22 30  1  0  0  0  0
 22 62  1  0  0  0  0
 23 31  2  0  0  0  0
 23 69  1  0  0  0  0
 24 84  1  0  0  0  0
 25 85  1  0  0  0  0
 26 28  2  0  0  0  0
 26 84  1  0  0  0  0
 27 86  1  0  0  0  0
 28 87  1  0  0  0  0
 29 66  2  0  0  0  0
 30 55  1  0  0  0  0
 30 67  2  0  0  0  0
 31 56  1  0  0  0  0
 31 67  1  0  0  0  0
 32 68  1  0  0  0  0
 32 72  1  0  0  0  0
 33 73  1  0  0  0  0
 33 79  2  0  0  0  0
 34 50  1  0  0  0  0
 34 74  1  0  0  0  0
 34 80  2  0  0  0  0
 35 63  1  0  0  0  0
 35 70  1  0  0  0  0
 35 81  2  0  0  0  0
 36 64  1  0  0  0  0
 36 75  1  0  0  0  0
 36 82  2  0  0  0  0
 37 71  1  0  0  0  0
 37 76  1  0  0  0  0
 37 83  2  0  0  0  0
 38 41  1  0  0  0  0
 39 50  1  0  0  0  0
 40 70  1  0  0  0  0
 41 43  1  0  0  0  0
 42 44  1  0  0  0  0
 42 45  1  0  0  0  0
 43 49  1  0  0  0  0
 44 51  1  0  0  0  0
 45 71  1  0  0  0  0
 46 51  1  0  0  0  0
 46 71  1  0  0  0  0
 47 52  1  0  0  0  0
 47 69  1  0  0  0  0
 48 53  1  0  0  0  0
 48 69  1  0  0  0  0
 49 74  1  0  0  0  0
 50 70  1  0  0  0  0
 51 68  1  0  0  0  0
 52 53  1  0  0  0  0
 52 76  1  0  0  0  0
 53 77  1  0  0  0  0
 57 64  1  0  0  0  0
 58 65  1  0  0  0  0
 59 65  1  0  0  0  0
 60 65  1  0  0  0  0
 61 78  1  0  0  0  0
 62 85  1  0  0  0  0
 63 65  1  0  0  0  0
 63 75  1  0  0  0  0
 64 78  1  0  0  0  0
 66 68  1  0  0  0  0
M  CHG  2  77   1  78   1
M  ISO  4  37 100  62 101  76 100  85 101
M  END
> <Batch ID>
0166

> <Smiles>
CNC(C)C(=O)NC(C(=O)N1Cc2cc([101O:1][101CH2:1]c3c(C)nc(C)c(N4CC(N)C([100NH:0][100C:0](=O)N5CCCC(n6nc(-c7ccc(Oc8ccc(F)cc8F)cc7)c(C(N)=O)c6N)C5)C4)c3C)ccc2CC1C(=O)NC1CCCc2ccccc21)C(C)(C)C

> <Shape>
0.181

> <Color>
0.092

> <Negative vol penalty>
0.000

$$$$

  -OEChem-04052322243D

 94105  0     1  0  0  0  0  0999 V2000
  -36.9998  -27.8975   20.3383 C   0  0  0  0  0  0  0  0  0  0  0  0
  -35.9147  -27.0299   20.2654 C   0  0  0  0  0  0  0  0  0  0  0  0
  -23.0205   -9.9319   19.9221 C   0  0  0  0  0  0  0  0  0  0  0  0
  -23.8045   -9.8536   22.2061 C   0  0  0  0  0  0  0  0  0  0  0  0
  -36.9353  -29.0255   21.1551 C   0  0  0  0  0  0  0  0  0  0  0  0
  -34.7648  -27.2893   21.0103 C   0  0  0  0  0  0  0  0  0  0  0  0
  -30.5221  -26.6485   18.3208 C   0  0  0  0  0  0  0  0  0  0  0  0
  -22.2463   -8.7941   20.1488 C   0  0  0  0  0  0  0  0  0  0  0  0
  -23.0302   -8.7157   22.4328 C   0  0  0  0  0  0  0  0  0  0  0  0
  -30.0875  -25.3392   18.1194 C   0  0  0  0  0  0  0  0  0  0  0  0
  -19.2917   -8.0424   21.6111 C   0  0  0  0  0  0  0  0  0  0  0  0
  -17.9790   -8.0472   21.1396 C   0  0  0  0  0  0  0  0  0  0  0  0
  -31.5683  -15.8440   24.3859 C   0  0  0  0  0  0  0  0  0  0  0  0
  -28.4799  -25.6056   19.8981 C   0  0  0  0  0  0  0  0  0  0  0  0
  -30.9469  -18.4771   25.1954 C   0  0  0  0  0  0  0  0  0  0  0  0
  -18.4681   -6.1262   19.7584 C   0  0  0  0  0  0  0  0  0  0  0  0
  -23.7997  -10.4617   20.9507 C   0  0  0  0  0  0  0  0  0  0  0  0
  -24.2133  -12.9783   20.8960 C   0  0  0  0  0  0  0  0  0  0  0  0
  -35.7804  -29.3041   21.9030 C   0  0  0  0  0  0  0  0  0  0  0  0
  -29.9454  -27.4440   19.3213 C   0  0  0  0  0  0  0  0  0  0  0  0
  -34.6853  -28.4215   21.8390 C   0  0  0  0  0  0  0  0  0  0  0  0
  -31.6767  -16.2161   25.7254 C   0  0  0  0  0  0  0  0  0  0  0  0
  -31.1374  -16.7954   23.4747 C   0  0  0  0  0  0  0  0  0  0  0  0
  -28.9072  -26.9256   20.1085 C   0  0  0  0  0  0  0  0  0  0  0  0
  -31.3678  -17.5233   26.1275 C   0  0  0  0  0  0  0  0  0  0  0  0
  -30.8311  -18.1077   23.8637 C   0  0  0  0  0  0  0  0  0  0  0  0
  -22.2510   -8.1860   21.4042 C   0  0  0  0  0  0  0  0  0  0  0  0
  -29.0683  -24.8166   18.9100 C   0  0  0  0  0  0  0  0  0  0  0  0
  -20.1927   -7.0797   21.1562 C   0  0  0  0  0  0  0  0  0  0  0  0
  -17.5672   -7.0890   20.2133 C   0  0  0  0  0  0  0  0  0  0  0  0
  -19.7809   -6.1215   20.2299 C   0  0  0  0  0  0  0  0  0  0  0  0
  -24.6002  -11.6367   20.7170 C   0  0  0  0  0  0  0  0  0  0  0  0
  -25.3228  -13.7060   20.5410 C   0  0  0  0  0  0  0  0  0  0  0  0
  -22.9627  -13.5185   21.3433 C   0  0  0  0  0  0  0  0  0  0  0  0
  -31.0189  -28.8657   21.9538 C   0  0  0  0  0  0  0  0  0  0  0  0
  -28.0244  -30.1100   22.0342 C   0  0  0  0  0  0  0  0  0  0  0  0
  -24.7473  -29.8350   21.1221 C   0  0  0  0  0  0  0  0  0  0  0  0
  -30.8354  -14.5618   20.6950 C   0  0  0  0  0  0  0  0  0  0  0  0
  -35.7752  -30.5104   22.8082 C   0  0  0  0  0  0  0  0  0  0  0  0
  -30.4071  -28.8633   19.5080 C   0  0  0  0  0  0  0  0  0  0  0  0
  -28.2412  -27.7451   21.1824 C   0  0  0  0  0  0  0  0  0  0  0  0
  -34.3797  -30.9142   23.2768 C   0  0  0  0  0  0  0  0  0  0  0  0
  -29.6041  -12.2779   18.2569 C   0  0  0  0  0  0  0  0  0  0  0  0
  -31.3868  -13.8977   26.8274 C   0  0  0  0  0  0  0  0  0  0  0  0
  -31.2687  -14.9139   27.9199 C   0  0  0  0  0  0  0  0  0  0  0  0
  -33.6012  -29.6913   23.7515 C   0  0  0  0  0  0  0  0  0  0  0  0
  -28.1634  -12.0136   18.6979 C   0  0  0  0  0  0  0  0  0  0  0  0
  -28.3989  -20.0828   22.2473 C   0  0  0  0  0  0  0  0  0  0  0  0
  -30.5399  -12.4390   19.4529 C   0  0  0  0  0  0  0  0  0  0  0  0
  -30.1989  -17.9707   21.6652 C   0  0  0  0  0  0  0  0  0  0  0  0
  -28.6748  -13.1856   20.8805 C   0  0  0  0  0  0  0  0  0  0  0  0
  -28.4607  -19.9979   20.7267 C   0  0  0  0  0  0  0  0  0  0  0  0
  -30.6717  -21.1868   20.7329 C   0  0  0  0  0  0  0  0  0  0  0  0
  -32.1326  -15.2007   26.7211 C   0  0  0  0  0  0  0  0  0  0  0  0
  -33.4112  -28.6821   22.6128 C   0  0  1  0  0  0  0  0  0  0  0  0
  -30.9766  -16.6745   21.9895 C   0  0  2  0  0  0  0  0  0  0  0  0
  -30.1010  -29.4132   20.8977 C   0  0  1  0  0  0  0  0  0  0  0  0
  -30.6270  -21.2837   22.2610 C   0  0  1  0  0  0  0  0  0  0  0  0
  -27.6836  -13.0717   19.7096 C   0  0  2  0  0  0  0  0  0  0  0  0
  -29.7847  -20.1599   22.8945 C   0  0  2  0  0  0  0  0  0  0  0  0
  -31.4862  -17.9278   27.5620 C   0  0  0  0  0  0  0  0  0  0  0  0
  -32.0454  -21.3456   22.8330 C   0  0  0  0  0  0  0  0  0  0  0  0
  -22.5307  -30.9854   21.3687 C   0  0  0  0  0  0  0  0  0  0  0  0
  -30.2419  -20.1573   18.1792 C   0  0  0  0  0  0  0  0  0  0  0  0
  -27.7996  -29.0597   24.8901 C   0  0  0  0  0  0  0  0  0  0  0  0
  -25.3211  -29.3787   24.7382 C   0  0  0  0  0  0  0  0  0  0  0  0
  -26.8442  -31.3443   24.5406 C   0  0  0  0  0  0  0  0  0  0  0  0
  -24.5043  -30.2450   18.2012 C   0  0  0  0  0  0  0  0  0  0  0  0
  -29.6022  -22.6014   18.2291 C   0  0  0  0  0  0  0  0  0  1  0  0
  -26.7065  -29.6866   22.6366 C   0  0  1  0  0  0  0  0  0  0  0  0
  -23.7824  -30.8389   20.5174 C   0  0  2  0  0  0  0  0  0  0  0  0
  -29.2482  -21.1904   18.6853 C   0  0  2  0  0  0  0  0  0  0  0  0
  -26.6815  -29.8510   24.1825 C   0  0  0  0  0  0  0  0  0  0  0  0
  -25.8573  -11.5163   20.2819 N   0  0  0  0  0  0  0  0  0  0  0  0
  -26.2698  -12.7916   20.1845 N   0  0  0  0  0  0  0  0  0  0  0  0
  -30.4479  -18.8857   22.7788 N   0  0  1  0  0  0  0  0  0  0  0  0
  -28.7321  -29.1251   21.3307 N   0  0  0  0  0  0  0  0  0  0  0  0
  -30.0287  -13.4579   20.3729 N   0  0  0  0  0  0  0  0  0  0  0  0
  -25.5709  -15.0324   20.5021 N   0  0  0  0  0  0  0  0  0  0  0  0
  -21.9285  -12.6298   21.6670 N   0  0  0  0  0  0  0  0  0  0  0  0
  -32.3575  -29.1181   21.7216 N   0  0  0  0  0  0  0  0  0  0  0  0
  -25.6754  -30.4465   21.9382 N   0  0  0  0  0  0  0  0  0  0  0  0
  -30.2723  -15.4837   21.5689 N   0  0  0  0  0  0  0  0  0  0  0  0
  -29.2621  -21.1576   20.1765 N   0  3  1  0  0  0  0  0  0  0  0  0
  -23.3735  -30.4062   19.1512 N   0  3  0  0  0  0  0  0  0  0  0  0
  -22.7629  -14.7534   21.4370 O   0  0  0  0  0  0  0  0  0  0  0  0
  -30.5475  -28.2603   22.9093 O   0  0  0  0  0  0  0  0  0  0  0  0
  -28.4082  -31.2737   22.1763 O   0  0  0  0  0  0  0  0  0  0  0  0
  -24.6817  -28.6287   20.8964 O   0  0  0  0  0  0  0  0  0  0  0  0
  -31.9711  -14.7171   20.2335 O   0  0  0  0  0  0  0  0  0  0  0  0
  -21.4954   -7.0758   21.6258 O   0  0  0  0  0  0  0  0  0  0  0  0
  -28.6427  -23.5387   18.7160 O   0  0  0  0  0  0  0  0  0  1  0  0
  -16.3061   -7.0927   19.7618 F   0  0  0  0  0  0  0  0  0  0  0  0
  -20.6417   -5.1934   19.7900 F   0  0  0  0  0  0  0  0  0  0  0  0
  1  2  1  0  0  0  0
  1  5  2  0  0  0  0
  2  6  2  0  0  0  0
  3  8  2  0  0  0  0
  3 17  1  0  0  0  0
  4  9  1  0  0  0  0
  4 17  2  0  0  0  0
  5 19  1  0  0  0  0
  6 21  1  0  0  0  0
  7 10  2  0  0  0  0
  7 20  1  0  0  0  0
  8 27  1  0  0  0  0
  9 27  2  0  0  0  0
 10 28  1  0  0  0  0
 11 12  2  0  0  0  0
 11 29  1  0  0  0  0
 12 30  1  0  0  0  0
 13 22  2  0  0  0  0
 13 23  1  0  0  0  0
 14 24  1  0  0  0  0
 14 28  2  0  0  0  0
 15 25  2  0  0  0  0
 15 26  1  0  0  0  0
 16 30  2  0  0  0  0
 16 31  1  0  0  0  0
 17 32  1  0  0  0  0
 18 32  1  0  0  0  0
 18 33  2  0  0  0  0
 18 34  1  0  0  0  0
 19 21  2  0  0  0  0
 19 39  1  0  0  0  0
 20 24  2  0  0  0  0
 20 40  1  0  0  0  0
 21 55  1  0  0  0  0
 22 25  1  0  0  0  0
 22 54  1  0  0  0  0
 23 26  2  0  0  0  0
 23 56  1  0  0  0  0
 24 41  1  0  0  0  0
 25 61  1  0  0  0  0
 26 76  1  0  0  0  0
 27 91  1  0  0  0  0
 28 92  1  0  0  0  0
 29 31  2  0  0  0  0
 29 91  1  0  0  0  0
 30 93  1  0  0  0  0
 31 94  1  0  0  0  0
 32 74  2  0  0  0  0
 33 75  1  0  0  0  0
 33 79  1  0  0  0  0
 34 80  1  0  0  0  0
 34 86  2  0  0  0  0
 35 57  1  0  0  0  0
 35 81  1  0  0  0  0
 35 87  2  0  0  0  0
 36 70  1  0  0  0  0
 36 77  1  0  0  0  0
 36 88  2  0  0  0  0
 37 71  1  0  0  0  0
 37 82  1  0  0  0  0
 37 89  2  0  0  0  0
 38 78  1  0  0  0  0
 38 83  1  0  0  0  0
 38 90  2  0  0  0  0
 39 42  1  0  0  0  0
 40 57  1  0  0  0  0
 41 77  1  0  0  0  0
 42 46  1  0  0  0  0
 43 47  1  0  0  0  0
 43 49  1  0  0  0  0
 44 45  1  0  0  0  0
 44 54  1  0  0  0  0
 45 54  1  0  0  0  0
 46 55  1  0  0  0  0
 47 59  1  0  0  0  0
 48 52  1  0  0  0  0
 48 60  1  0  0  0  0
 49 78  1  0  0  0  0
 50 56  1  0  0  0  0
 50 76  1  0  0  0  0
 51 59  1  0  0  0  0
 51 78  1  0  0  0  0
 52 84  1  0  0  0  0
 53 58  1  0  0  0  0
 53 84  1  0  0  0  0
 55 81  1  0  0  0  0
 56 83  1  0  0  0  0
 57 77  1  0  0  0  0
 58 60  1  0  0  0  0
 58 62  1  0  0  0  0
 59 75  1  0  0  0  0
 60 76  1  0  0  0  0
 63 71  1  0  0  0  0
 64 72  1  0  0  0  0
 65 73  1  0  0  0  0
 66 73  1  0  0  0  0
 67 73  1  0  0  0  0
 68 85  1  0  0  0  0
 69 72  1  0  0  0  0
 69 92  1  0  0  0  0
 70 73  1  0  0  0  0
 70 82  1  0  0  0  0
 71 85  1  0  0  0  0
 72 84  1  0  0  0  0
 74 75  1  0  0  0  0
M  CHG  2  84   1  85   1
M  ISO  4  38 100  69 101  83 100  92 101
M  END
> <Batch ID>
0166

> <Smiles>
CNC(C)C(=O)NC(C(=O)N1Cc2cc([101O:1][101CH2:1]C(C)N3CCC(N4CC([100NH:0][100C:0](=O)N5CCCC(n6nc(-c7ccc(Oc8ccc(F)cc8F)cc7)c(C(N)=O)c6N)C5)c5cc(C6CC6)c(C)cc54)C(C)C3)ccc2CC1C(=O)NC1CCCc2ccccc21)C(C)(C)C

> <Shape>
0.310

> <Color>
0.197

> <Negative vol penalty>
0.000

$$$$

  -OEChem-04052322243D

 92102  0     1  0  0  0  0  0999 V2000
  -19.3554  -24.6093   24.3404 C   0  0  0  0  0  0  0  0  0  0  0  0
  -20.7026  -24.7015   24.0058 C   0  0  0  0  0  0  0  0  0  0  0  0
  -24.3823   -9.3725   22.3783 C   0  0  0  0  0  0  0  0  0  0  0  0
  -24.2361   -9.2317   19.9709 C   0  0  0  0  0  0  0  0  0  0  0  0
  -18.4680  -25.6054   23.9353 C   0  0  0  0  0  0  0  0  0  0  0  0
  -21.1630  -25.7895   23.2650 C   0  0  0  0  0  0  0  0  0  0  0  0
  -25.4653  -27.7176   25.1136 C   0  0  0  0  0  0  0  0  0  0  0  0
  -29.9360  -23.7299   16.8759 C   0  0  0  0  0  0  0  0  0  0  0  0
  -23.2595   -8.5532   22.4945 C   0  0  0  0  0  0  0  0  0  0  0  0
  -23.1132   -8.4124   20.0870 C   0  0  0  0  0  0  0  0  0  0  0  0
  -26.6451  -27.0323   24.8268 C   0  0  0  0  0  0  0  0  0  0  0  0
  -22.5503   -5.2541   22.2809 C   0  0  0  0  0  0  0  0  0  0  0  0
  -22.5975   -4.2179   23.2135 C   0  0  0  0  0  0  0  0  0  0  0  0
  -29.1349  -24.4822   17.7276 C   0  0  0  0  0  0  0  0  0  0  0  0
  -27.1273  -28.6108   23.0675 C   0  0  0  0  0  0  0  0  0  0  0  0
  -20.6949   -5.1652   24.3622 C   0  0  0  0  0  0  0  0  0  0  0  0
  -24.8706   -9.7118   21.1165 C   0  0  0  0  0  0  0  0  0  0  0  0
  -27.3769  -10.1527   20.9376 C   0  0  0  0  0  0  0  0  0  0  0  0
  -18.9194  -26.7110   23.1974 C   0  0  0  0  0  0  0  0  0  0  0  0
  -25.1016  -28.8502   24.3710 C   0  0  0  0  0  0  0  0  0  0  0  0
  -20.2805  -26.8006   22.8485 C   0  0  0  0  0  0  0  0  0  0  0  0
  -29.9436  -22.3435   16.9817 C   0  0  0  0  0  0  0  0  0  0  0  0
  -25.9436  -29.3102   23.3485 C   0  0  0  0  0  0  0  0  0  0  0  0
  -22.6249   -8.0731   21.3488 C   0  0  0  0  0  0  0  0  0  0  0  0
  -27.4749  -27.4772   23.8018 C   0  0  0  0  0  0  0  0  0  0  0  0
  -21.5754   -6.2458   22.3889 C   0  0  0  0  0  0  0  0  0  0  0  0
  -21.6698   -4.1735   24.2541 C   0  0  0  0  0  0  0  0  0  0  0  0
  -20.6477   -6.2014   23.4296 C   0  0  0  0  0  0  0  0  0  0  0  0
  -26.0302  -10.5586   20.9959 C   0  0  0  0  0  0  0  0  0  0  0  0
  -28.3659  -23.8056   18.6607 C   0  0  0  0  0  0  0  0  0  0  0  0
  -29.1386  -21.7626   17.9483 C   0  0  0  0  0  0  0  0  0  0  0  0
  -28.0842  -11.3246   20.8252 C   0  0  0  0  0  0  0  0  0  0  0  0
  -27.9383   -8.8341   20.9811 C   0  0  0  0  0  0  0  0  0  0  0  0
  -22.6586  -29.6050   22.4828 C   0  0  0  0  0  0  0  0  0  0  0  0
  -24.0652  -32.5279   22.4847 C   0  0  0  0  0  0  0  0  0  0  0  0
  -26.9054  -34.3761   22.8905 C   0  0  0  0  0  0  0  0  0  0  0  0
  -28.9626  -16.1974   18.7447 C   0  0  0  0  0  0  0  0  0  0  0  0
  -17.9143  -27.7388   22.7414 C   0  0  0  0  0  0  0  0  0  0  0  0
  -23.8390  -29.5939   24.7104 C   0  0  0  0  0  0  0  0  0  0  0  0
  -25.6086  -30.5327   22.5351 C   0  0  0  0  0  0  0  0  0  0  0  0
  -18.5487  -29.0484   22.2800 C   0  0  0  0  0  0  0  0  0  0  0  0
  -26.6224  -16.1295   21.3635 C   0  0  0  0  0  0  0  0  0  0  0  0
  -30.6530  -21.7133   14.5789 C   0  0  0  0  0  0  0  0  0  0  0  0
  -30.1721  -20.4554   15.2321 C   0  0  0  0  0  0  0  0  0  0  0  0
  -19.7252  -28.7728   21.3491 C   0  0  0  0  0  0  0  0  0  0  0  0
  -26.3625  -14.6296   21.4999 C   0  0  0  0  0  0  0  0  0  0  0  0
  -26.7372  -16.5605   19.9004 C   0  0  0  0  0  0  0  0  0  0  0  0
  -30.1036  -19.7194   18.9592 C   0  0  0  0  0  0  0  0  0  0  0  0
  -27.8731  -19.6606   17.8332 C   0  0  0  0  0  0  0  0  0  0  0  0
  -30.3124  -18.2554   18.5813 C   0  0  0  0  0  0  0  0  0  0  0  0
  -28.1267  -18.2031   17.4647 C   0  0  0  0  0  0  0  0  0  0  0  0
  -27.4714  -14.2873   19.2592 C   0  0  0  0  0  0  0  0  0  0  0  0
  -30.8035  -21.5382   16.0673 C   0  0  0  0  0  0  0  0  0  0  0  0
  -20.8225  -27.9780   22.0673 C   0  0  1  0  0  0  0  0  0  0  0  0
  -23.3111  -30.4347   23.5521 C   0  0  1  0  0  0  0  0  0  0  0  0
  -27.4094  -13.8145   20.7200 C   0  0  2  0  0  0  0  0  0  0  0  0
  -26.0096  -24.2096   19.4839 C   0  0  0  0  0  0  0  0  0  0  0  0
  -27.7503  -36.7369   22.7914 C   0  0  0  0  0  0  0  0  0  0  0  0
  -24.0190  -32.4139   19.4360 C   0  0  0  0  0  0  0  0  0  0  0  0
  -25.6837  -34.2836   19.4102 C   0  0  0  0  0  0  0  0  0  0  0  0
  -23.4245  -34.6411   20.4057 C   0  0  0  0  0  0  0  0  0  0  0  0
  -27.7055  -34.3323   25.7396 C   0  0  0  0  0  0  0  0  0  0  0  0
  -29.2446  -24.9514   21.3337 C   0  0  0  0  0  0  0  0  0  0  0  0
  -28.6412  -25.4047   23.7766 C   0  0  0  0  0  0  0  0  0  1  0  0
  -27.4941  -24.5812   19.5909 C   0  0  1  0  0  0  0  0  0  0  0  0
  -25.1091  -33.2125   21.6359 C   0  0  1  0  0  0  0  0  0  0  0  0
  -27.1781  -35.6436   23.6802 C   0  0  2  0  0  0  0  0  0  0  0  0
  -29.6002  -24.7297   22.8013 C   0  0  1  0  0  0  0  0  0  0  0  0
  -24.5647  -33.6136   20.2358 C   0  0  0  0  0  0  0  0  0  0  0  0
  -25.8879  -11.8848   20.9264 N   0  0  0  0  0  0  0  0  0  0  0  0
  -28.3470  -22.4604   18.7934 N   0  0  0  0  0  0  0  0  0  0  0  0
  -27.1544  -12.3225   20.8235 N   0  0  0  0  0  0  0  0  0  0  0  0
  -29.1418  -20.3664   18.0602 N   0  0  0  0  0  0  0  0  0  0  0  0
  -24.3602  -31.2219   22.9010 N   0  0  0  0  0  0  0  0  0  0  0  0
  -27.7167  -15.7292   19.1881 N   0  0  0  0  0  0  0  0  0  0  0  0
  -29.0450  -17.5568   18.4046 N   0  0  0  0  0  0  0  0  0  0  0  0
  -29.4046  -11.5887   20.7289 N   0  0  0  0  0  0  0  0  0  0  0  0
  -27.0687   -7.7412   21.0985 N   0  0  0  0  0  0  0  0  0  0  0  0
  -21.5934  -28.8470   22.9304 N   0  0  0  0  0  0  0  0  0  0  0  0
  -25.6077  -34.3327   22.4265 N   0  0  0  0  0  0  0  0  0  0  0  0
  -28.1506  -35.3719   24.7762 N   0  3  0  0  0  0  0  0  0  0  0  0
  -27.8880  -24.4397   21.0343 N   0  3  0  0  0  0  0  0  0  0  0  0
  -29.1754   -8.6320   20.9341 O   0  0  0  0  0  0  0  0  0  0  0  0
  -23.0886  -29.6503   21.3362 O   0  0  0  0  0  0  0  0  0  0  0  0
  -23.0295  -33.1323   22.7739 O   0  0  0  0  0  0  0  0  0  0  0  0
  -27.7593  -33.5127   22.7010 O   0  0  0  0  0  0  0  0  0  0  0  0
  -29.9442  -15.4488   18.6602 O   0  0  0  0  0  0  0  0  0  0  0  0
  -29.6184  -23.3292   23.0818 O   0  0  0  0  0  0  0  0  0  0  0  0
  -21.5294   -7.2734   21.4618 O   0  0  0  0  0  0  0  0  0  0  0  0
  -28.6337  -26.8057   23.5176 O   0  0  0  0  0  0  0  0  0  1  0  0
  -21.7143   -3.1776   25.1488 F   0  0  0  0  0  0  0  0  0  0  0  0
  -19.7080   -7.1507   23.5379 F   0  0  0  0  0  0  0  0  0  0  0  0
  1  2  1  0  0  0  0
  1  5  2  0  0  0  0
  2  6  2  0  0  0  0
  3  9  2  0  0  0  0
  3 17  1  0  0  0  0
  4 10  1  0  0  0  0
  4 17  2  0  0  0  0
  5 19  1  0  0  0  0
  6 21  1  0  0  0  0
  7 11  2  0  0  0  0
  7 20  1  0  0  0  0
  8 14  2  0  0  0  0
  8 22  1  0  0  0  0
  9 24  1  0  0  0  0
 10 24  2  0  0  0  0
 11 25  1  0  0  0  0
 12 13  2  0  0  0  0
 12 26  1  0  0  0  0
 13 27  1  0  0  0  0
 14 30  1  0  0  0  0
 15 23  1  0  0  0  0
 15 25  2  0  0  0  0
 16 27  2  0  0  0  0
 16 28  1  0  0  0  0
 17 29  1  0  0  0  0
 18 29  1  0  0  0  0
 18 32  2  0  0  0  0
 18 33  1  0  0  0  0
 19 21  2  0  0  0  0
 19 38  1  0  0  0  0
 20 23  2  0  0  0  0
 20 39  1  0  0  0  0
 21 54  1  0  0  0  0
 22 31  2  0  0  0  0
 22 53  1  0  0  0  0
 23 40  1  0  0  0  0
 24 89  1  0  0  0  0
 25 90  1  0  0  0  0
 26 28  2  0  0  0  0
 26 89  1  0  0  0  0
 27 91  1  0  0  0  0
 28 92  1  0  0  0  0
 29 70  2  0  0  0  0
 30 65  1  0  0  0  0
 30 71  2  0  0  0  0
 31 71  1  0  0  0  0
 31 73  1  0  0  0  0
 32 72  1  0  0  0  0
 32 77  1  0  0  0  0
 33 78  1  0  0  0  0
 33 83  2  0  0  0  0
 34 55  1  0  0  0  0
 34 79  1  0  0  0  0
 34 84  2  0  0  0  0
 35 66  1  0  0  0  0
 35 74  1  0  0  0  0
 35 85  2  0  0  0  0
 36 67  1  0  0  0  0
 36 80  1  0  0  0  0
 36 86  2  0  0  0  0
 37 75  1  0  0  0  0
 37 76  1  0  0  0  0
 37 87  2  0  0  0  0
 38 41  1  0  0  0  0
 39 55  1  0  0  0  0
 40 74  1  0  0  0  0
 41 45  1  0  0  0  0
 42 46  1  0  0  0  0
 42 47  1  0  0  0  0
 43 44  1  0  0  0  0
 43 53  1  0  0  0  0
 44 53  1  0  0  0  0
 45 54  1  0  0  0  0
 46 56  1  0  0  0  0
 47 75  1  0  0  0  0
 48 50  1  0  0  0  0
 48 73  1  0  0  0  0
 49 51  1  0  0  0  0
 49 73  1  0  0  0  0
 50 76  1  0  0  0  0
 51 76  1  0  0  0  0
 52 56  1  0  0  0  0
 52 75  1  0  0  0  0
 54 79  1  0  0  0  0
 55 74  1  0  0  0  0
 56 72  1  0  0  0  0
 57 65  1  0  0  0  0
 58 67  1  0  0  0  0
 59 69  1  0  0  0  0
 60 69  1  0  0  0  0
 61 69  1  0  0  0  0
 62 81  1  0  0  0  0
 63 68  1  0  0  0  0
 63 82  1  0  0  0  0
 64 68  1  0  0  0  0
 64 90  1  0  0  0  0
 65 82  1  0  0  0  0
 66 69  1  0  0  0  0
 66 80  1  0  0  0  0
 67 81  1  0  0  0  0
 68 88  1  0  0  0  0
 70 72  1  0  0  0  0
M  CHG  2  81   1  82   1
M  ISO  4  37 100  64 101  76 100  90 101
M  END
> <Batch ID>
0166

> <Smiles>
CNC(C)C(=O)NC(C(=O)N1Cc2cc([101O:1][101CH2:1]C(O)CNC(C)c3ccc(C4CC4)c(N4CC[100N:0]([100C:0](=O)N5CCCC(n6nc(-c7ccc(Oc8ccc(F)cc8F)cc7)c(C(N)=O)c6N)C5)CC4)n3)ccc2CC1C(=O)NC1CCCc2ccccc21)C(C)(C)C

> <Shape>
0.277

> <Color>
0.102

> <Negative vol penalty>
0.000

$$$$

  -OEChem-04052322243D

 98109  0     1  0  0  0  0  0999 V2000
  -27.0673  -33.6412   27.5712 C   0  0  0  0  0  0  0  0  0  0  0  0
  -27.5367  -32.6644   26.6988 C   0  0  0  0  0  0  0  0  0  0  0  0
  -25.9921  -11.3142   20.4624 C   0  0  0  0  0  0  0  0  0  0  0  0
  -25.7984  -13.7012   20.1434 C   0  0  0  0  0  0  0  0  0  0  0  0
  -25.7004  -33.7504   27.8232 C   0  0  0  0  0  0  0  0  0  0  0  0
  -26.6394  -31.7955   26.0788 C   0  0  0  0  0  0  0  0  0  0  0  0
  -27.0850  -29.4523   20.4382 C   0  0  0  0  0  0  0  0  0  0  0  0
  -24.6205  -11.2350   20.7033 C   0  0  0  0  0  0  0  0  0  0  0  0
  -24.4268  -13.6220   20.3842 C   0  0  0  0  0  0  0  0  0  0  0  0
  -27.5360  -28.2199   19.9673 C   0  0  0  0  0  0  0  0  0  0  0  0
  -21.2279  -10.4577   21.7568 C   0  0  0  0  0  0  0  0  0  0  0  0
  -20.8010   -9.6832   22.8353 C   0  0  0  0  0  0  0  0  0  0  0  0
  -26.9876  -21.1706   18.6532 C   0  0  0  0  0  0  0  0  0  0  0  0
  -25.2640  -27.4103   19.9275 C   0  0  0  0  0  0  0  0  0  0  0  0
  -26.8271  -18.7470   18.4167 C   0  0  0  0  0  0  0  0  0  0  0  0
  -22.0719  -11.0805   24.3418 C   0  0  0  0  0  0  0  0  0  0  0  0
  -26.5811  -12.5473   20.1825 C   0  0  0  0  0  0  0  0  0  0  0  0
  -25.2407  -20.1484   17.3488 C   0  0  0  0  0  0  0  0  0  0  0  0
  -28.6514  -12.5170   18.6924 C   0  0  0  0  0  0  0  0  0  0  0  0
  -24.7850  -32.8886   27.1985 C   0  0  0  0  0  0  0  0  0  0  0  0
  -25.7188  -29.6697   20.6680 C   0  0  0  0  0  0  0  0  0  0  0  0
  -25.2591  -31.8924   26.3237 C   0  0  0  0  0  0  0  0  0  0  0  0
  -25.8671  -21.2907   17.8498 C   0  0  0  0  0  0  0  0  0  0  0  0
  -24.7979  -28.6471   20.3989 C   0  0  0  0  0  0  0  0  0  0  0  0
  -25.6941  -18.8699   17.6116 C   0  0  0  0  0  0  0  0  0  0  0  0
  -27.4680  -19.8872   18.9340 C   0  0  0  0  0  0  0  0  0  0  0  0
  -23.8378  -12.3889   20.6642 C   0  0  0  0  0  0  0  0  0  0  0  0
  -26.6258  -27.1978   19.7147 C   0  0  0  0  0  0  0  0  0  0  0  0
  -22.0770  -11.5436   21.9707 C   0  0  0  0  0  0  0  0  0  0  0  0
  -21.2229   -9.9946   24.1279 C   0  0  0  0  0  0  0  0  0  0  0  0
  -22.4989  -11.8550   23.2632 C   0  0  0  0  0  0  0  0  0  0  0  0
  -27.9980  -12.6297   19.9342 C   0  0  0  0  0  0  0  0  0  0  0  0
  -29.9838  -12.6658   18.9907 C   0  0  0  0  0  0  0  0  0  0  0  0
  -24.0821  -20.5635   16.5526 C   0  0  0  0  0  0  0  0  0  0  0  0
  -28.1030  -12.2974   17.3860 C   0  0  0  0  0  0  0  0  0  0  0  0
  -23.9569  -30.3692   23.2194 C   0  0  0  0  0  0  0  0  0  0  0  0
  -21.5796  -30.6161   21.0263 C   0  0  0  0  0  0  0  0  0  0  0  0
  -20.3696  -29.7498   17.9551 C   0  0  0  0  0  0  0  0  0  0  0  0
  -30.5039  -16.5510   22.2154 C   0  0  0  0  0  0  0  0  0  0  0  0
  -23.3211  -33.0145   27.5386 C   0  0  0  0  0  0  0  0  0  0  0  0
  -25.2456  -31.0134   21.1506 C   0  0  0  0  0  0  0  0  0  0  0  0
  -23.3187  -28.8364   20.6099 C   0  0  0  0  0  0  0  0  0  0  0  0
  -22.4028  -32.2973   26.5524 C   0  0  0  0  0  0  0  0  0  0  0  0
  -30.4028  -13.2439   23.5643 C   0  0  0  0  0  0  0  0  0  0  0  0
  -32.7864  -18.9792   20.7858 C   0  0  0  0  0  0  0  0  0  0  0  0
  -22.9255  -30.8945   26.2596 C   0  0  0  0  0  0  0  0  0  0  0  0
  -20.9373  -24.1434   16.5580 C   0  0  0  0  0  0  0  0  0  0  0  0
  -21.0451  -23.0402   17.5734 C   0  0  0  0  0  0  0  0  0  0  0  0
  -31.1668  -12.3886   22.5596 C   0  0  0  0  0  0  0  0  0  0  0  0
  -31.4819  -19.5099   20.2082 C   0  0  0  0  0  0  0  0  0  0  0  0
  -31.0247  -14.6275   23.6725 C   0  0  0  0  0  0  0  0  0  0  0  0
  -32.4988  -17.4945   20.9469 C   0  0  0  0  0  0  0  0  0  0  0  0
  -31.7650  -14.5349   21.2998 C   0  0  0  0  0  0  0  0  0  0  0  0
  -24.3149  -30.9473   25.6128 C   0  0  1  0  0  0  0  0  0  0  0  0
  -25.1457  -22.5261   17.3978 C   0  0  1  0  0  0  0  0  0  0  0  0
  -23.8850  -30.9561   21.8381 C   0  0  1  0  0  0  0  0  0  0  0  0
  -22.2853  -23.5848   16.9207 C   0  0  0  0  0  0  0  0  0  0  0  0
  -31.2951  -13.0663   21.1859 C   0  0  2  0  0  0  0  0  0  0  0  0
  -30.4144  -18.6966   20.9454 C   0  0  1  0  0  0  0  0  0  0  0  0
  -24.4761  -16.7405   18.1911 C   0  0  0  0  0  0  0  0  0  0  0  0
  -25.9418  -16.8366   16.1424 C   0  0  0  0  0  0  0  0  0  0  0  0
  -18.3833  -30.0762   16.4567 C   0  0  0  0  0  0  0  0  0  0  0  0
  -27.8543  -25.1834   16.5484 C   0  0  0  0  0  0  0  0  0  0  0  0
  -19.9780  -28.6521   22.7256 C   0  0  0  0  0  0  0  0  0  0  0  0
  -18.4690  -28.2905   20.7608 C   0  0  0  0  0  0  0  0  0  0  0  0
  -18.6464  -30.5536   21.7951 C   0  0  0  0  0  0  0  0  0  0  0  0
  -22.0176  -31.0279   15.8553 C   0  0  0  0  0  0  0  0  0  0  0  0
  -26.0380  -23.4584   16.5886 C   0  0  0  0  0  0  0  0  0  0  0  0
  -23.0434  -22.7556   15.9408 C   0  0  0  0  0  0  0  0  0  0  0  0
  -29.1730  -18.4791   20.0899 C   0  0  0  0  0  0  0  0  0  0  0  0
  -26.1757  -25.2521   18.4234 C   0  0  0  0  0  0  0  0  0  1  0  0
  -25.0262  -17.6529   17.0766 C   0  0  0  0  0  0  0  0  0  0  0  0
  -20.5757  -29.6619   20.4258 C   0  0  1  0  0  0  0  0  0  0  0  0
  -19.7654  -30.5826   16.8390 C   0  0  2  0  0  0  0  0  0  0  0  0
  -26.9499  -24.3442   17.4584 C   0  0  2  0  0  0  0  0  0  0  0  0
  -19.4453  -29.2850   21.4246 C   0  0  0  0  0  0  0  0  0  0  0  0
  -28.8455  -12.8343   20.9461 N   0  0  0  0  0  0  0  0  0  0  0  0
  -30.0452  -12.8511   20.3405 N   0  0  0  0  0  0  0  0  0  0  0  0
  -24.0525  -21.9537   16.6042 N   0  0  0  0  0  0  0  0  0  0  0  0
  -22.9059  -30.1660   21.0889 N   0  0  0  0  0  0  0  0  0  0  0  0
  -31.1063  -15.2940   22.3726 N   0  0  0  0  0  0  0  0  0  0  0  0
  -31.0803  -17.4384   21.3037 N   0  0  0  0  0  0  0  0  0  0  0  0
  -31.0973  -12.6549   18.2274 N   0  0  0  0  0  0  0  0  0  0  0  0
  -26.7134  -12.1668   17.2580 N   0  0  0  0  0  0  0  0  0  0  0  0
  -28.5979  -19.7356   19.7396 N   0  0  0  0  0  0  0  0  0  0  0  0
  -24.2076  -31.2967   24.2125 N   0  0  0  0  0  0  0  0  0  0  0  0
  -20.1022  -30.2881   19.1961 N   0  0  0  0  0  0  0  0  0  0  0  0
  -20.6343  -30.5358   15.6291 N   0  3  0  0  0  0  0  0  0  0  0  0
  -23.3212  -19.7989   15.9880 O   0  0  0  0  0  0  0  0  0  0  0  0
  -28.8251  -12.2030   16.3647 O   0  0  0  0  0  0  0  0  0  0  0  0
  -23.7953  -29.1642   23.3730 O   0  0  0  0  0  0  0  0  0  0  0  0
  -21.2021  -31.7230   21.4187 O   0  0  0  0  0  0  0  0  0  0  0  0
  -21.0112  -28.7224   17.7471 O   0  0  0  0  0  0  0  0  0  0  0  0
  -29.5014  -16.8708   22.8679 O   0  0  0  0  0  0  0  0  0  0  0  0
  -22.4993  -12.3121   20.8989 O   0  0  0  0  0  0  0  0  0  0  0  0
  -27.0668  -25.9848   19.2523 O   0  0  0  0  0  0  0  0  0  1  0  0
  -20.8115   -9.2516   25.1637 F   0  0  0  0  0  0  0  0  0  0  0  0
  -23.3135  -12.8977   23.4751 F   0  0  0  0  0  0  0  0  0  0  0  0
  1  2  1  0  0  0  0
  1  5  2  0  0  0  0
  2  6  2  0  0  0  0
  3  8  2  0  0  0  0
  3 17  1  0  0  0  0
  4  9  1  0  0  0  0
  4 17  2  0  0  0  0
  5 20  1  0  0  0  0
  6 22  1  0  0  0  0
  7 10  2  0  0  0  0
  7 21  1  0  0  0  0
  8 27  1  0  0  0  0
  9 27  2  0  0  0  0
 10 28  1  0  0  0  0
 11 12  2  0  0  0  0
 11 29  1  0  0  0  0
 12 30  1  0  0  0  0
 13 23  1  0  0  0  0
 13 26  2  0  0  0  0
 14 24  1  0  0  0  0
 14 28  2  0  0  0  0
 15 25  2  0  0  0  0
 15 26  1  0  0  0  0
 16 30  2  0  0  0  0
 16 31  1  0  0  0  0
 17 32  1  0  0  0  0
 18 23  2  0  0  0  0
 18 25  1  0  0  0  0
 18 34  1  0  0  0  0
 19 32  1  0  0  0  0
 19 33  2  0  0  0  0
 19 35  1  0  0  0  0
 20 22  2  0  0  0  0
 20 40  1  0  0  0  0
 21 24  2  0  0  0  0
 21 41  1  0  0  0  0
 22 54  1  0  0  0  0
 23 55  1  0  0  0  0
 24 42  1  0  0  0  0
 25 72  1  0  0  0  0
 26 85  1  0  0  0  0
 27 95  1  0  0  0  0
 28 96  1  0  0  0  0
 29 31  2  0  0  0  0
 29 95  1  0  0  0  0
 30 97  1  0  0  0  0
 31 98  1  0  0  0  0
 32 77  2  0  0  0  0
 33 78  1  0  0  0  0
 33 83  1  0  0  0  0
 34 79  1  0  0  0  0
 34 89  2  0  0  0  0
 35 84  1  0  0  0  0
 35 90  2  0  0  0  0
 36 56  1  0  0  0  0
 36 86  1  0  0  0  0
 36 91  2  0  0  0  0
 37 73  1  0  0  0  0
 37 80  1  0  0  0  0
 37 92  2  0  0  0  0
 38 74  1  0  0  0  0
 38 87  1  0  0  0  0
 38 93  2  0  0  0  0
 39 81  1  0  0  0  0
 39 82  1  0  0  0  0
 39 94  2  0  0  0  0
 40 43  1  0  0  0  0
 41 56  1  0  0  0  0
 42 80  1  0  0  0  0
 43 46  1  0  0  0  0
 44 49  1  0  0  0  0
 44 51  1  0  0  0  0
 45 50  1  0  0  0  0
 45 52  1  0  0  0  0
 46 54  1  0  0  0  0
 47 48  1  0  0  0  0
 47 57  1  0  0  0  0
 48 57  1  0  0  0  0
 49 58  1  0  0  0  0
 50 59  1  0  0  0  0
 51 81  1  0  0  0  0
 52 82  1  0  0  0  0
 53 58  1  0  0  0  0
 53 81  1  0  0  0  0
 54 86  1  0  0  0  0
 55 68  1  0  0  0  0
 55 79  1  0  0  0  0
 56 80  1  0  0  0  0
 57 69  1  0  0  0  0
 58 78  1  0  0  0  0
 59 70  1  0  0  0  0
 59 82  1  0  0  0  0
 60 72  1  0  0  0  0
 61 72  1  0  0  0  0
 62 74  1  0  0  0  0
 63 75  1  0  0  0  0
 64 76  1  0  0  0  0
 65 76  1  0  0  0  0
 66 76  1  0  0  0  0
 67 88  1  0  0  0  0
 68 75  1  0  0  0  0
 69 79  1  0  0  0  0
 70 85  1  0  0  0  0
 71 75  1  0  0  0  0
 71 96  1  0  0  0  0
 73 76  1  0  0  0  0
 73 87  1  0  0  0  0
 74 88  1  0  0  0  0
 77 78  1  0  0  0  0
M  CHG  1  88   1
M  ISO  4  39 100  71 101  82 100  96 101
M  END
> <Batch ID>
0166

> <Smiles>
CNC(C)C(=O)NC(C(=O)N1Cc2cc([101O:1][101CH2:1]C(C)CC3c4cc(NCC5CCC[100N:0]5[100C:0](=O)N5CCCC(n6nc(-c7ccc(Oc8ccc(F)cc8F)cc7)c(C(N)=O)c6N)C5)cc(C(C)C)c4C(=O)N3CC3CC3)ccc2CC1C(=O)NC1CCCc2ccccc21)C(C)(C)C

> <Shape>
0.276

> <Color>
0.081

> <Negative vol penalty>
0.000

$$$$

  -OEChem-04052322243D

 86 95  0     1  0  0  0  0  0999 V2000
  -20.9068  -29.6489   14.7108 C   0  0  0  0  0  0  0  0  0  0  0  0
  -22.1265  -29.2043   15.2109 C   0  0  0  0  0  0  0  0  0  0  0  0
  -23.4610  -11.0448   22.0146 C   0  0  0  0  0  0  0  0  0  0  0  0
  -24.2102   -9.3493   20.4651 C   0  0  0  0  0  0  0  0  0  0  0  0
  -20.3835  -30.8692   15.1359 C   0  0  0  0  0  0  0  0  0  0  0  0
  -22.8242  -29.9805   16.1357 C   0  0  0  0  0  0  0  0  0  0  0  0
  -24.6366  -27.2456   19.9932 C   0  0  0  0  0  0  0  0  0  0  0  0
  -22.1762  -10.5025   21.9869 C   0  0  0  0  0  0  0  0  0  0  0  0
  -22.9254   -8.8069   20.4375 C   0  0  0  0  0  0  0  0  0  0  0  0
  -25.7913  -26.5005   19.7583 C   0  0  0  0  0  0  0  0  0  0  0  0
  -19.9286   -6.7580   20.2380 C   0  0  0  0  0  0  0  0  0  0  0  0
  -19.8069   -5.3718   20.3337 C   0  0  0  0  0  0  0  0  0  0  0  0
  -27.1071  -28.2109   20.8364 C   0  0  0  0  0  0  0  0  0  0  0  0
  -31.5070  -24.1483   18.1132 C   0  0  0  0  0  0  0  0  0  0  0  0
  -29.6288  -23.2620   19.9758 C   0  0  0  0  0  0  0  0  0  0  0  0
  -20.8988   -5.4246   22.4883 C   0  0  0  0  0  0  0  0  0  0  0  0
  -24.4780  -10.4683   21.2536 C   0  0  0  0  0  0  0  0  0  0  0  0
  -26.8528  -10.6895   22.1585 C   0  0  0  0  0  0  0  0  0  0  0  0
  -21.0705  -31.6563   16.0736 C   0  0  0  0  0  0  0  0  0  0  0  0
  -24.7099  -28.4861   20.6429 C   0  0  0  0  0  0  0  0  0  0  0  0
  -22.3103  -31.2132   16.5727 C   0  0  0  0  0  0  0  0  0  0  0  0
  -25.9516  -28.9686   21.0807 C   0  0  0  0  0  0  0  0  0  0  0  0
  -31.8038  -23.0667   18.9424 C   0  0  0  0  0  0  0  0  0  0  0  0
  -30.2711  -24.7869   18.2154 C   0  0  0  0  0  0  0  0  0  0  0  0
  -30.8647  -22.6235   19.8736 C   0  0  0  0  0  0  0  0  0  0  0  0
  -29.3320  -24.3437   19.1467 C   0  0  0  0  0  0  0  0  0  0  0  0
  -21.9084   -9.3835   21.1984 C   0  0  0  0  0  0  0  0  0  0  0  0
  -27.0272  -26.9844   20.1773 C   0  0  0  0  0  0  0  0  0  0  0  0
  -20.5355   -7.4775   21.2675 C   0  0  0  0  0  0  0  0  0  0  0  0
  -20.2919   -4.7051   21.4588 C   0  0  0  0  0  0  0  0  0  0  0  0
  -21.0205   -6.8108   22.3926 C   0  0  0  0  0  0  0  0  0  0  0  0
  -25.8052  -11.0284   21.2813 C   0  0  0  0  0  0  0  0  0  0  0  0
  -27.8955  -11.4979   21.7766 C   0  0  0  0  0  0  0  0  0  0  0  0
  -26.8810   -9.7296   23.2232 C   0  0  0  0  0  0  0  0  0  0  0  0
  -24.0051  -31.4812   19.8451 C   0  0  0  0  0  0  0  0  0  0  0  0
  -24.7168  -32.0652   22.9555 C   0  0  0  0  0  0  0  0  0  0  0  0
  -26.3728  -31.1002   25.7793 C   0  0  0  0  0  0  0  0  0  0  0  0
  -29.9989  -16.2197   20.3274 C   0  0  0  0  0  0  0  0  0  0  0  0
  -20.4878  -32.9905   16.4675 C   0  0  0  0  0  0  0  0  0  0  0  0
  -23.4519  -29.2653   20.9125 C   0  0  0  0  0  0  0  0  0  0  0  0
  -26.0817  -30.2852   21.8005 C   0  0  0  0  0  0  0  0  0  0  0  0
  -21.1092  -33.5770   17.7324 C   0  0  0  0  0  0  0  0  0  0  0  0
  -28.4804  -14.4356   17.7092 C   0  0  0  0  0  0  0  0  0  0  0  0
  -22.6303  -33.4775   17.6756 C   0  0  0  0  0  0  0  0  0  0  0  0
  -27.7246  -13.3527   18.4787 C   0  0  0  0  0  0  0  0  0  0  0  0
  -28.4012  -15.7952   18.4059 C   0  0  0  0  0  0  0  0  0  0  0  0
  -29.6543  -18.3859   19.0572 C   0  0  0  0  0  0  0  0  0  0  0  0
  -31.8715  -17.7984   19.9664 C   0  0  0  0  0  0  0  0  0  0  0  0
  -28.0720  -14.6862   20.5923 C   0  0  0  0  0  0  0  0  0  0  0  0
  -29.6689  -19.6942   19.8414 C   0  0  0  0  0  0  0  0  0  0  0  0
  -31.9089  -19.0810   20.7813 C   0  0  0  0  0  0  0  0  0  0  0  0
  -23.0849  -32.0152   17.5959 C   0  0  1  0  0  0  0  0  0  0  0  0
  -23.7054  -30.7545   21.1256 C   0  0  1  0  0  0  0  0  0  0  0  0
  -28.1832  -13.2964   19.9467 C   0  0  1  0  0  0  0  0  0  0  0  0
  -33.1333  -22.3983   18.8144 C   0  0  0  0  0  0  0  0  0  0  0  0
  -29.9760  -25.9435   17.3177 C   0  0  0  0  0  0  0  0  0  0  0  0
  -26.7936  -31.7996   28.1523 C   0  0  0  0  0  0  0  0  0  0  0  0
  -26.6703  -34.1957   21.9786 C   0  0  0  0  0  0  0  0  0  0  0  0
  -27.7187  -34.1775   24.2521 C   0  0  0  0  0  0  0  0  0  0  0  0
  -25.3313  -34.8503   23.9869 C   0  0  0  0  0  0  0  0  0  0  0  0
  -25.1346  -28.6337   26.8480 C   0  0  0  0  0  0  0  0  0  0  0  0
  -31.1613  -21.4618   20.7756 C   0  0  0  0  0  0  0  0  0  0  0  0
  -28.0026  -25.0122   19.2747 C   0  0  0  0  0  0  0  0  0  1  0  0
  -25.9713  -32.4193   23.7170 C   0  0  1  0  0  0  0  0  0  0  0  0
  -25.9166  -30.9762   27.2218 C   0  0  2  0  0  0  0  0  0  0  0  0
  -26.4210  -33.8868   23.4684 C   0  0  0  0  0  0  0  0  0  0  0  0
  -26.1507  -11.9783   20.4082 N   0  0  0  0  0  0  0  0  0  0  0  0
  -27.4271  -12.2431   20.7348 N   0  0  0  0  0  0  0  0  0  0  0  0
  -24.8236  -31.0130   22.0351 N   0  0  0  0  0  0  0  0  0  0  0  0
  -28.8087  -15.6837   19.8134 N   0  0  0  0  0  0  0  0  0  0  0  0
  -30.4972  -17.3751   19.7072 N   0  0  0  0  0  0  0  0  0  0  0  0
  -29.1580  -11.6369   22.2339 N   0  0  0  0  0  0  0  0  0  0  0  0
  -25.7229   -8.9835   23.4809 N   0  0  0  0  0  0  0  0  0  0  0  0
  -23.0032  -31.3888   18.8980 N   0  0  0  0  0  0  0  0  0  0  0  0
  -25.7018  -32.1058   25.1161 N   0  0  0  0  0  0  0  0  0  0  0  0
  -31.0943  -20.1363   20.0700 N   0  3  0  0  0  0  0  0  0  0  0  0
  -25.9707  -29.5534   27.6618 N   0  3  0  0  0  0  0  0  0  0  0  0
  -27.8977   -9.5508   23.9358 O   0  0  0  0  0  0  0  0  0  0  0  0
  -25.0662  -32.0826   19.7258 O   0  0  0  0  0  0  0  0  0  0  0  0
  -23.6785  -32.6940   23.1748 O   0  0  0  0  0  0  0  0  0  0  0  0
  -27.2403  -30.3796   25.2907 O   0  0  0  0  0  0  0  0  0  0  0  0
  -30.5821  -15.6968   21.2855 O   0  0  0  0  0  0  0  0  0  0  0  0
  -20.6549   -8.8538   21.1714 O   0  0  0  0  0  0  0  0  0  0  0  0
  -28.1639  -26.2543   19.9471 O   0  0  0  0  0  0  0  0  0  1  0  0
  -20.1736   -3.3740   21.5512 F   0  0  0  0  0  0  0  0  0  0  0  0
  -21.6034   -7.4968   23.3853 F   0  0  0  0  0  0  0  0  0  0  0  0
  1  2  1  0  0  0  0
  1  5  2  0  0  0  0
  2  6  2  0  0  0  0
  3  8  2  0  0  0  0
  3 17  1  0  0  0  0
  4  9  1  0  0  0  0
  4 17  2  0  0  0  0
  5 19  1  0  0  0  0
  6 21  1  0  0  0  0
  7 10  2  0  0  0  0
  7 20  1  0  0  0  0
  8 27  1  0  0  0  0
  9 27  2  0  0  0  0
 10 28  1  0  0  0  0
 11 12  2  0  0  0  0
 11 29  1  0  0  0  0
 12 30  1  0  0  0  0
 13 22  1  0  0  0  0
 13 28  2  0  0  0  0
 14 23  2  0  0  0  0
 14 24  1  0  0  0  0
 15 25  2  0  0  0  0
 15 26  1  0  0  0  0
 16 30  2  0  0  0  0
 16 31  1  0  0  0  0
 17 32  1  0  0  0  0
 18 32  1  0  0  0  0
 18 33  2  0  0  0  0
 18 34  1  0  0  0  0
 19 21  2  0  0  0  0
 19 39  1  0  0  0  0
 20 22  2  0  0  0  0
 20 40  1  0  0  0  0
 21 52  1  0  0  0  0
 22 41  1  0  0  0  0
 23 25  1  0  0  0  0
 23 55  1  0  0  0  0
 24 26  2  0  0  0  0
 24 56  1  0  0  0  0
 25 62  1  0  0  0  0
 26 63  1  0  0  0  0
 27 83  1  0  0  0  0
 28 84  1  0  0  0  0
 29 31  2  0  0  0  0
 29 83  1  0  0  0  0
 30 85  1  0  0  0  0
 31 86  1  0  0  0  0
 32 67  2  0  0  0  0
 33 68  1  0  0  0  0
 33 72  1  0  0  0  0
 34 73  1  0  0  0  0
 34 78  2  0  0  0  0
 35 53  1  0  0  0  0
 35 74  1  0  0  0  0
 35 79  2  0  0  0  0
 36 64  1  0  0  0  0
 36 69  1  0  0  0  0
 36 80  2  0  0  0  0
 37 65  1  0  0  0  0
 37 75  1  0  0  0  0
 37 81  2  0  0  0  0
 38 70  1  0  0  0  0
 38 71  1  0  0  0  0
 38 82  2  0  0  0  0
 39 42  1  0  0  0  0
 40 53  1  0  0  0  0
 41 69  1  0  0  0  0
 42 44  1  0  0  0  0
 43 45  1  0  0  0  0
 43 46  1  0  0  0  0
 44 52  1  0  0  0  0
 45 54  1  0  0  0  0
 46 70  1  0  0  0  0
 47 50  1  0  0  0  0
 47 71  1  0  0  0  0
 48 51  1  0  0  0  0
 48 71  1  0  0  0  0
 49 54  1  0  0  0  0
 49 70  1  0  0  0  0
 50 76  1  0  0  0  0
 51 76  1  0  0  0  0
 52 74  1  0  0  0  0
 53 69  1  0  0  0  0
 54 68  1  0  0  0  0
 57 65  1  0  0  0  0
 58 66  1  0  0  0  0
 59 66  1  0  0  0  0
 60 66  1  0  0  0  0
 61 77  1  0  0  0  0
 62 76  1  0  0  0  0
 63 84  1  0  0  0  0
 64 66  1  0  0  0  0
 64 75  1  0  0  0  0
 65 77  1  0  0  0  0
 67 68  1  0  0  0  0
M  CHG  2  76   1  77   1
M  ISO  4  38 100  63 101  71 100  84 101
M  END
> <Batch ID>
0166

> <Smiles>
CNC(C)C(=O)NC(C(=O)N1Cc2cc([101O:1][101CH2:1]c3cc(CN4CC[100N:0]([100C:0](=O)N5CCCC(n6nc(-c7ccc(Oc8ccc(F)cc8F)cc7)c(C(N)=O)c6N)C5)CC4)c(C)cc3C)ccc2CC1C(=O)NC1CCCc2ccccc21)C(C)(C)C

> <Shape>
0.302

> <Color>
0.083

> <Negative vol penalty>
0.000

$$$$

  -OEChem-04052322243D

 93103  0     1  0  0  0  0  0999 V2000
  -18.7170  -26.0358   19.4025 C   0  0  0  0  0  0  0  0  0  0  0  0
  -20.0875  -26.2256   19.2571 C   0  0  0  0  0  0  0  0  0  0  0  0
  -24.0970   -9.1079   21.0513 C   0  0  0  0  0  0  0  0  0  0  0  0
  -25.4125   -9.9320   22.9027 C   0  0  0  0  0  0  0  0  0  0  0  0
  -18.0393  -26.6389   20.4613 C   0  0  0  0  0  0  0  0  0  0  0  0
  -20.7809  -27.0196   20.1699 C   0  0  0  0  0  0  0  0  0  0  0  0
  -25.1385  -24.9131   21.6595 C   0  0  0  0  0  0  0  0  0  0  0  0
  -24.0197   -7.8568   21.6631 C   0  0  0  0  0  0  0  0  0  0  0  0
  -25.3351   -8.6809   23.5145 C   0  0  0  0  0  0  0  0  0  0  0  0
  -26.2178  -24.9935   20.7806 C   0  0  0  0  0  0  0  0  0  0  0  0
  -22.2490   -6.4061   24.1516 C   0  0  0  0  0  0  0  0  0  0  0  0
  -21.0062   -5.7734   24.1785 C   0  0  0  0  0  0  0  0  0  0  0  0
  -27.1059  -26.8427   22.0499 C   0  0  0  0  0  0  0  0  0  0  0  0
  -35.0717  -21.5777   18.0240 C   0  0  0  0  0  0  0  0  0  0  0  0
  -21.9251   -3.9155   22.9371 C   0  0  0  0  0  0  0  0  0  0  0  0
  -24.7935  -10.1456   21.6711 C   0  0  0  0  0  0  0  0  0  0  0  0
  -23.8030  -12.2830   20.6924 C   0  0  0  0  0  0  0  0  0  0  0  0
  -18.7265  -27.4328   21.3930 C   0  0  0  0  0  0  0  0  0  0  0  0
  -25.0290  -25.8055   22.7357 C   0  0  0  0  0  0  0  0  0  0  0  0
  -20.1116  -27.6350   21.2413 C   0  0  0  0  0  0  0  0  0  0  0  0
  -26.0257  -26.7699   22.9425 C   0  0  0  0  0  0  0  0  0  0  0  0
  -32.8844  -21.5919   19.0498 C   0  0  0  0  0  0  0  0  0  0  0  0
  -34.0540  -22.2611   18.6893 C   0  0  0  0  0  0  0  0  0  0  0  0
  -34.9199  -20.2251   17.7190 C   0  0  0  0  0  0  0  0  0  0  0  0
  -33.7504  -19.5558   18.0795 C   0  0  0  0  0  0  0  0  0  0  0  0
  -32.7326  -20.2392   18.7449 C   0  0  0  0  0  0  0  0  0  0  0  0
  -24.6387   -7.6433   22.8947 C   0  0  0  0  0  0  0  0  0  0  0  0
  -27.2002  -25.9602   20.9740 C   0  0  0  0  0  0  0  0  0  0  0  0
  -23.3299   -5.7936   23.5173 C   0  0  0  0  0  0  0  0  0  0  0  0
  -20.8443   -4.5281   23.5713 C   0  0  0  0  0  0  0  0  0  0  0  0
  -23.1679   -4.5483   22.9101 C   0  0  0  0  0  0  0  0  0  0  0  0
  -24.8742  -11.4380   21.0393 C   0  0  0  0  0  0  0  0  0  0  0  0
  -24.4019  -13.3810   20.1247 C   0  0  0  0  0  0  0  0  0  0  0  0
  -22.3928  -12.0925   20.8677 C   0  0  0  0  0  0  0  0  0  0  0  0
  -22.9243  -28.0229   23.6058 C   0  0  0  0  0  0  0  0  0  0  0  0
  -24.7661  -28.1681   26.2722 C   0  0  0  0  0  0  0  0  0  0  0  0
  -28.2904  -28.1296   27.0435 C   0  0  0  0  0  0  0  0  0  0  0  0
  -28.1304  -17.2430   19.9614 C   0  0  0  0  0  0  0  0  0  0  0  0
  -17.9429  -28.1026   22.4939 C   0  0  0  0  0  0  0  0  0  0  0  0
  -23.8726  -25.6884   23.6903 C   0  0  0  0  0  0  0  0  0  0  0  0
  -25.9652  -27.7384   24.0944 C   0  0  0  0  0  0  0  0  0  0  0  0
  -18.8158  -28.6240   23.6325 C   0  0  0  0  0  0  0  0  0  0  0  0
  -29.1734  -14.1523   18.6579 C   0  0  0  0  0  0  0  0  0  0  0  0
  -20.0171  -29.3840   23.0792 C   0  0  0  0  0  0  0  0  0  0  0  0
  -28.0546  -13.2276   19.1366 C   0  0  0  0  0  0  0  0  0  0  0  0
  -32.2202  -22.9383   21.1054 C   0  0  0  0  0  0  0  0  0  0  0  0
  -29.5709  -15.1718   19.7266 C   0  0  0  0  0  0  0  0  0  0  0  0
  -30.4304  -19.5344   18.1693 C   0  0  0  0  0  0  0  0  0  0  0  0
  -31.6787  -18.4333   20.0336 C   0  0  0  0  0  0  0  0  0  0  0  0
  -29.1207  -19.2335   18.8930 C   0  0  0  0  0  0  0  0  0  0  0  0
  -30.3492  -18.1635   20.7294 C   0  0  0  0  0  0  0  0  0  0  0  0
  -27.3167  -15.0350   20.7355 C   0  0  0  0  0  0  0  0  0  0  0  0
  -31.0822  -23.8786   21.4563 C   0  0  0  0  0  0  0  0  0  0  0  0
  -31.7858  -22.3380   19.7704 C   0  0  1  0  0  0  0  0  0  0  0  0
  -20.9031  -28.4691   22.2251 C   0  0  1  0  0  0  0  0  0  0  0  0
  -23.5951  -26.9796   24.4540 C   0  0  1  0  0  0  0  0  0  0  0  0
  -26.8556  -14.0372   19.6617 C   0  0  2  0  0  0  0  0  0  0  0  0
  -31.2447  -23.5630   19.0221 C   0  0  1  0  0  0  0  0  0  0  0  0
  -34.2420  -23.7093   19.0038 C   0  0  0  0  0  0  0  0  0  0  0  0
  -36.0251  -19.5169   17.0058 C   0  0  0  0  0  0  0  0  0  0  0  0
  -33.5937  -18.1044   17.7493 C   0  0  0  0  0  0  0  0  0  0  0  0
  -30.2493  -23.2209   17.9240 C   0  0  0  0  0  0  0  0  0  0  0  0
  -29.4994  -27.3879   29.1136 C   0  0  0  0  0  0  0  0  0  0  0  0
  -24.5955  -31.1069   27.0749 C   0  0  0  0  0  0  0  0  0  0  0  0
  -26.8997  -30.9067   28.0335 C   0  0  0  0  0  0  0  0  0  0  0  0
  -25.0387  -29.5327   28.9670 C   0  0  0  0  0  0  0  0  0  0  0  0
  -29.9949  -26.2535   25.5159 C   0  0  0  0  0  0  0  0  0  0  0  0
  -30.6481  -25.8477   19.9385 C   0  0  0  0  0  0  0  0  0  0  0  0
  -29.4886  -26.5193   20.6476 C   0  0  0  0  0  0  0  0  0  1  0  0
  -25.9800  -28.9617   26.6910 C   0  0  1  0  0  0  0  0  0  0  0  0
  -29.0630  -27.0046   27.7082 C   0  0  2  0  0  0  0  0  0  0  0  0
  -25.6236  -30.1207   27.6643 C   0  0  0  0  0  0  0  0  0  0  0  0
  -26.0634  -11.9548   20.7186 N   0  0  0  0  0  0  0  0  0  0  0  0
  -25.7430  -13.1363   20.1642 N   0  0  0  0  0  0  0  0  0  0  0  0
  -31.5581  -19.5672   19.1069 N   0  0  0  0  0  0  0  0  0  0  0  0
  -24.8116  -27.5879   24.9966 N   0  0  0  0  0  0  0  0  0  0  0  0
  -28.3906  -15.8901   20.2256 N   0  0  0  0  0  0  0  0  0  0  0  0
  -29.2430  -18.0781   19.7736 N   0  0  0  0  0  0  0  0  0  0  0  0
  -23.9067  -14.5223   19.6004 N   0  0  0  0  0  0  0  0  0  0  0  0
  -21.8008  -12.5407   22.0564 N   0  0  0  0  0  0  0  0  0  0  0  0
  -21.7159  -27.6205   23.0699 N   0  0  0  0  0  0  0  0  0  0  0  0
  -26.9310  -27.9973   27.2331 N   0  0  0  0  0  0  0  0  0  0  0  0
  -30.5462  -24.3636   20.1201 N   0  3  2  0  0  0  0  0  0  0  0  0
  -30.2785  -26.6707   26.9132 N   0  3  0  0  0  0  0  0  0  0  0  0
  -21.6818  -11.5265   20.0031 O   0  0  0  0  0  0  0  0  0  0  0  0
  -23.4626  -29.1127   23.4504 O   0  0  0  0  0  0  0  0  0  0  0  0
  -23.8155  -28.0609   27.0509 O   0  0  0  0  0  0  0  0  0  0  0  0
  -28.8382  -29.0372   26.4217 O   0  0  0  0  0  0  0  0  0  0  0  0
  -26.9749  -17.6801   19.8936 O   0  0  0  0  0  0  0  0  0  0  0  0
  -24.5633   -6.4226   23.4921 O   0  0  0  0  0  0  0  0  0  0  0  0
  -28.2619  -26.0419   20.1111 O   0  0  0  0  0  0  0  0  0  1  0  0
  -19.6511   -3.9199   23.5986 F   0  0  0  0  0  0  0  0  0  0  0  0
  -24.2029   -3.9544   22.3002 F   0  0  0  0  0  0  0  0  0  0  0  0
  1  2  1  0  0  0  0
  1  5  2  0  0  0  0
  2  6  2  0  0  0  0
  3  8  2  0  0  0  0
  3 16  1  0  0  0  0
  4  9  1  0  0  0  0
  4 16  2  0  0  0  0
  5 18  1  0  0  0  0
  6 20  1  0  0  0  0
  7 10  2  0  0  0  0
  7 19  1  0  0  0  0
  8 27  1  0  0  0  0
  9 27  2  0  0  0  0
 10 28  1  0  0  0  0
 11 12  2  0  0  0  0
 11 29  1  0  0  0  0
 12 30  1  0  0  0  0
 13 21  1  0  0  0  0
 13 28  2  0  0  0  0
 14 23  2  0  0  0  0
 14 24  1  0  0  0  0
 15 30  2  0  0  0  0
 15 31  1  0  0  0  0
 16 32  1  0  0  0  0
 17 32  1  0  0  0  0
 17 33  2  0  0  0  0
 17 34  1  0  0  0  0
 18 20  2  0  0  0  0
 18 39  1  0  0  0  0
 19 21  2  0  0  0  0
 19 40  1  0  0  0  0
 20 55  1  0  0  0  0
 21 41  1  0  0  0  0
 22 23  1  0  0  0  0
 22 26  2  0  0  0  0
 22 54  1  0  0  0  0
 23 59  1  0  0  0  0
 24 25  2  0  0  0  0
 24 60  1  0  0  0  0
 25 26  1  0  0  0  0
 25 61  1  0  0  0  0
 26 75  1  0  0  0  0
 27 90  1  0  0  0  0
 28 91  1  0  0  0  0
 29 31  2  0  0  0  0
 29 90  1  0  0  0  0
 30 92  1  0  0  0  0
 31 93  1  0  0  0  0
 32 73  2  0  0  0  0
 33 74  1  0  0  0  0
 33 79  1  0  0  0  0
 34 80  1  0  0  0  0
 34 85  2  0  0  0  0
 35 56  1  0  0  0  0
 35 81  1  0  0  0  0
 35 86  2  0  0  0  0
 36 70  1  0  0  0  0
 36 76  1  0  0  0  0
 36 87  2  0  0  0  0
 37 71  1  0  0  0  0
 37 82  1  0  0  0  0
 37 88  2  0  0  0  0
 38 77  1  0  0  0  0
 38 78  1  0  0  0  0
 38 89  2  0  0  0  0
 39 42  1  0  0  0  0
 40 56  1  0  0  0  0
 41 76  1  0  0  0  0
 42 44  1  0  0  0  0
 43 45  1  0  0  0  0
 43 47  1  0  0  0  0
 44 55  1  0  0  0  0
 45 57  1  0  0  0  0
 46 53  1  0  0  0  0
 46 54  1  0  0  0  0
 47 77  1  0  0  0  0
 48 50  1  0  0  0  0
 48 75  1  0  0  0  0
 49 51  1  0  0  0  0
 49 75  1  0  0  0  0
 50 78  1  0  0  0  0
 51 78  1  0  0  0  0
 52 57  1  0  0  0  0
 52 77  1  0  0  0  0
 53 83  1  0  0  0  0
 54 58  1  0  0  0  0
 55 81  1  0  0  0  0
 56 76  1  0  0  0  0
 57 74  1  0  0  0  0
 58 62  1  0  0  0  0
 58 83  1  0  0  0  0
 63 71  1  0  0  0  0
 64 72  1  0  0  0  0
 65 72  1  0  0  0  0
 66 72  1  0  0  0  0
 67 84  1  0  0  0  0
 68 69  1  0  0  0  0
 68 83  1  0  0  0  0
 69 91  1  0  0  0  0
 70 72  1  0  0  0  0
 70 82  1  0  0  0  0
 71 84  1  0  0  0  0
 73 74  1  0  0  0  0
M  CHG  2  83   1  84   1
M  ISO  4  38 100  69 101  78 100  91 101
M  END
> <Batch ID>
0166

> <Smiles>
CNC(C)C(=O)NC(C(=O)N1Cc2cc([101O:1][101CH2:1]CN3CCC(c4c(C)cc(C)c(C)c4N4CC[100N:0]([100C:0](=O)N5CCCC(n6nc(-c7ccc(Oc8ccc(F)cc8F)cc7)c(C(N)=O)c6N)C5)CC4)C3C)ccc2CC1C(=O)NC1CCCc2ccccc21)C(C)(C)C

> <Shape>
0.245

> <Color>
0.112

> <Negative vol penalty>
0.000

$$$$

  -OEChem-04052322243D

 88 98  0     1  0  0  0  0  0999 V2000
  -27.3360  -25.7632   15.5002 C   0  0  0  0  0  0  0  0  0  0  0  0
  -26.1977  -25.8915   16.2897 C   0  0  0  0  0  0  0  0  0  0  0  0
  -25.4614  -12.8434   19.5791 C   0  0  0  0  0  0  0  0  0  0  0  0
  -26.2828  -13.3566   21.7925 C   0  0  0  0  0  0  0  0  0  0  0  0
  -28.5798  -26.1385   16.0061 C   0  0  0  0  0  0  0  0  0  0  0  0
  -26.3029  -26.3942   17.5861 C   0  0  0  0  0  0  0  0  0  0  0  0
  -22.7154  -29.8086   18.6427 C   0  0  0  0  0  0  0  0  0  0  0  0
  -25.1365  -11.5535   19.9987 C   0  0  0  0  0  0  0  0  0  0  0  0
  -25.9578  -12.0667   22.2122 C   0  0  0  0  0  0  0  0  0  0  0  0
  -21.4430  -29.3236   18.9417 C   0  0  0  0  0  0  0  0  0  0  0  0
  -23.7587   -8.2407   20.5836 C   0  0  0  0  0  0  0  0  0  0  0  0
  -22.5158   -7.7306   20.2087 C   0  0  0  0  0  0  0  0  0  0  0  0
  -20.7568  -26.5100   22.0847 C   0  0  0  0  0  0  0  0  0  0  0  0
  -21.8918  -29.6137   21.2941 C   0  0  0  0  0  0  0  0  0  0  0  0
  -22.2199  -25.9925   23.9301 C   0  0  0  0  0  0  0  0  0  0  0  0
  -21.4209   -9.5410   21.3753 C   0  0  0  0  0  0  0  0  0  0  0  0
  -26.0346  -13.7450   20.4760 C   0  0  0  0  0  0  0  0  0  0  0  0
  -27.2643  -15.4375   19.0162 C   0  0  0  0  0  0  0  0  0  0  0  0
  -28.6989  -26.6551   17.3059 C   0  0  0  0  0  0  0  0  0  0  0  0
  -23.5911  -30.1903   19.6693 C   0  0  0  0  0  0  0  0  0  0  0  0
  -27.5497  -26.7755   18.1104 C   0  0  0  0  0  0  0  0  0  0  0  0
  -20.4334  -27.7562   22.6543 C   0  0  0  0  0  0  0  0  0  0  0  0
  -23.1739  -30.1057   21.0053 C   0  0  0  0  0  0  0  0  0  0  0  0
  -21.0111  -28.1044   23.8925 C   0  0  0  0  0  0  0  0  0  0  0  0
  -21.9092  -27.2196   24.5127 C   0  0  0  0  0  0  0  0  0  0  0  0
  -21.6423  -25.6370   22.7167 C   0  0  0  0  0  0  0  0  0  0  0  0
  -25.3847  -11.1651   21.3152 C   0  0  0  0  0  0  0  0  0  0  0  0
  -21.0321  -29.2233   20.2677 C   0  0  0  0  0  0  0  0  0  0  0  0
  -23.8328   -9.4010   21.3544 C   0  0  0  0  0  0  0  0  0  0  0  0
  -21.3469   -8.3808   20.6045 C   0  0  0  0  0  0  0  0  0  0  0  0
  -22.6639  -10.0511   21.7502 C   0  0  0  0  0  0  0  0  0  0  0  0
  -26.3710  -15.0774   20.0430 C   0  0  0  0  0  0  0  0  0  0  0  0
  -27.2323  -16.8105   18.9991 C   0  0  0  0  0  0  0  0  0  0  0  0
  -28.0525  -14.6053   18.1549 C   0  0  0  0  0  0  0  0  0  0  0  0
  -26.4457  -29.2074   20.6638 C   0  0  0  0  0  0  0  0  0  0  0  0
  -26.2053  -31.7668   22.6422 C   0  0  0  0  0  0  0  0  0  0  0  0
  -24.1935  -33.9912   24.2705 C   0  0  0  0  0  0  0  0  0  0  0  0
  -23.2557  -20.7489   20.4495 C   0  0  0  0  0  0  0  0  0  0  0  0
  -30.0712  -27.0031   17.8259 C   0  0  0  0  0  0  0  0  0  0  0  0
  -24.9505  -30.7367   19.3290 C   0  0  0  0  0  0  0  0  0  0  0  0
  -20.7459  -29.4337   24.5549 C   0  0  0  0  0  0  0  0  0  0  0  0
  -24.0686  -30.5215   22.1433 C   0  0  0  0  0  0  0  0  0  0  0  0
  -30.0449  -27.8775   19.0768 C   0  0  0  0  0  0  0  0  0  0  0  0
  -19.5076  -30.1450   24.0205 C   0  0  0  0  0  0  0  0  0  0  0  0
  -26.4793  -20.5821   21.8351 C   0  0  0  0  0  0  0  0  0  0  0  0
  -29.0411  -27.3328   20.0879 C   0  0  0  0  0  0  0  0  0  0  0  0
  -26.9111  -19.1728   21.4310 C   0  0  0  0  0  0  0  0  0  0  0  0
  -19.5052  -30.1169   22.4994 C   0  0  0  0  0  0  0  0  0  0  0  0
  -25.0138  -20.6297   22.2703 C   0  0  0  0  0  0  0  0  0  0  0  0
  -22.5658  -24.3759   20.7971 C   0  0  0  0  0  0  0  0  0  0  0  0
  -22.2586  -23.2790   23.0217 C   0  0  0  0  0  0  0  0  0  0  0  0
  -22.3582  -23.0229   20.1218 C   0  0  0  0  0  0  0  0  0  0  0  0
  -22.0441  -21.9494   22.3071 C   0  0  0  0  0  0  0  0  0  0  0  0
  -24.5057  -18.6526   20.8737 C   0  0  0  0  0  0  0  0  0  0  0  0
  -27.6196  -27.3398   19.5128 C   0  0  1  0  0  0  0  0  0  0  0  0
  -25.9486  -30.6129   20.4761 C   0  0  1  0  0  0  0  0  0  0  0  0
  -25.9578  -18.5843   20.3758 C   0  0  2  0  0  0  0  0  0  0  0  0
  -19.4457  -28.6781   21.9536 C   0  0  2  0  0  0  0  0  0  1  0  0
  -22.5739  -27.5599   25.8097 C   0  0  0  0  0  0  0  0  0  0  0  0
  -18.0245  -28.1038   22.0590 C   0  0  0  0  0  0  0  0  0  0  0  0
  -24.2845  -35.9441   25.8438 C   0  0  0  0  0  0  0  0  0  0  0  0
  -26.7691  -29.8678   24.9630 C   0  0  0  0  0  0  0  0  0  0  0  0
  -25.9203  -31.6330   26.5224 C   0  0  0  0  0  0  0  0  0  0  0  0
  -27.9324  -32.0763   25.1160 C   0  0  0  0  0  0  0  0  0  0  0  0
  -22.9201  -35.7902   22.2954 C   0  0  0  0  0  0  0  0  0  0  0  0
  -25.6518  -31.9990   24.0274 C   0  0  1  0  0  0  0  0  0  0  0  0
  -24.2524  -35.5034   24.3886 C   0  0  2  0  0  0  0  0  0  0  0  0
  -26.5520  -31.3843   25.1360 C   0  0  0  0  0  0  0  0  0  0  0  0
  -25.8125  -16.1363   20.6353 N   0  0  0  0  0  0  0  0  0  0  0  0
  -26.3562  -17.1752   19.9787 N   0  0  0  0  0  0  0  0  0  0  0  0
  -21.9495  -24.4037   22.1280 N   0  0  0  0  0  0  0  0  0  0  0  0
  -25.3907  -31.0434   21.7597 N   0  0  0  0  0  0  0  0  0  0  0  0
  -24.1480  -20.0215   21.2512 N   0  0  0  0  0  0  0  0  0  0  0  0
  -22.7128  -21.9182   21.0047 N   0  0  0  0  0  0  0  0  0  0  0  0
  -27.8685  -17.7294   18.2419 N   0  0  0  0  0  0  0  0  0  0  0  0
  -29.3434  -14.2490   18.5682 N   0  0  0  0  0  0  0  0  0  0  0  0
  -27.0663  -28.6766   19.5491 N   0  0  0  0  0  0  0  0  0  0  0  0
  -25.4512  -33.4388   24.1506 N   0  0  0  0  0  0  0  0  0  0  0  0
  -23.0629  -36.1207   23.7368 N   0  3  0  0  0  0  0  0  0  0  0  0
  -27.6307  -14.2033   17.0440 O   0  0  0  0  0  0  0  0  0  0  0  0
  -26.2798  -28.6466   21.7407 O   0  0  0  0  0  0  0  0  0  0  0  0
  -27.3165  -32.2169   22.3517 O   0  0  0  0  0  0  0  0  0  0  0  0
  -23.1376  -33.3624   24.2870 O   0  0  0  0  0  0  0  0  0  0  0  0
  -22.9629  -20.3797   19.3055 O   0  0  0  0  0  0  0  0  0  0  0  0
  -25.0675   -9.9066   21.7251 O   0  0  0  0  0  0  0  0  0  0  0  0
  -19.7867  -28.7480   20.5633 O   0  0  0  0  0  0  0  0  0  1  0  0
  -20.1535   -7.8916   20.2432 F   0  0  0  0  0  0  0  0  0  0  0  0
  -22.7287  -11.1668   22.4898 F   0  0  0  0  0  0  0  0  0  0  0  0
  1  2  1  0  0  0  0
  1  5  2  0  0  0  0
  2  6  2  0  0  0  0
  3  8  2  0  0  0  0
  3 17  1  0  0  0  0
  4  9  1  0  0  0  0
  4 17  2  0  0  0  0
  5 19  1  0  0  0  0
  6 21  1  0  0  0  0
  7 10  2  0  0  0  0
  7 20  1  0  0  0  0
  8 27  1  0  0  0  0
  9 27  2  0  0  0  0
 10 28  1  0  0  0  0
 11 12  2  0  0  0  0
 11 29  1  0  0  0  0
 12 30  1  0  0  0  0
 13 22  1  0  0  0  0
 13 26  2  0  0  0  0
 14 23  1  0  0  0  0
 14 28  2  0  0  0  0
 15 25  2  0  0  0  0
 15 26  1  0  0  0  0
 16 30  2  0  0  0  0
 16 31  1  0  0  0  0
 17 32  1  0  0  0  0
 18 32  1  0  0  0  0
 18 33  2  0  0  0  0
 18 34  1  0  0  0  0
 19 21  2  0  0  0  0
 19 39  1  0  0  0  0
 20 23  2  0  0  0  0
 20 40  1  0  0  0  0
 21 55  1  0  0  0  0
 22 24  2  0  0  0  0
 22 58  1  0  0  0  0
 23 42  1  0  0  0  0
 24 25  1  0  0  0  0
 24 41  1  0  0  0  0
 25 59  1  0  0  0  0
 26 71  1  0  0  0  0
 27 85  1  0  0  0  0
 28 86  1  0  0  0  0
 29 31  2  0  0  0  0
 29 85  1  0  0  0  0
 30 87  1  0  0  0  0
 31 88  1  0  0  0  0
 32 69  2  0  0  0  0
 33 70  1  0  0  0  0
 33 75  1  0  0  0  0
 34 76  1  0  0  0  0
 34 80  2  0  0  0  0
 35 56  1  0  0  0  0
 35 77  1  0  0  0  0
 35 81  2  0  0  0  0
 36 66  1  0  0  0  0
 36 72  1  0  0  0  0
 36 82  2  0  0  0  0
 37 67  1  0  0  0  0
 37 78  1  0  0  0  0
 37 83  2  0  0  0  0
 38 73  1  0  0  0  0
 38 74  1  0  0  0  0
 38 84  2  0  0  0  0
 39 43  1  0  0  0  0
 40 56  1  0  0  0  0
 41 44  1  0  0  0  0
 42 72  1  0  0  0  0
 43 46  1  0  0  0  0
 44 48  1  0  0  0  0
 45 47  1  0  0  0  0
 45 49  1  0  0  0  0
 46 55  1  0  0  0  0
 47 57  1  0  0  0  0
 48 58  1  0  0  0  0
 49 73  1  0  0  0  0
 50 52  1  0  0  0  0
 50 71  1  0  0  0  0
 51 53  1  0  0  0  0
 51 71  1  0  0  0  0
 52 74  1  0  0  0  0
 53 74  1  0  0  0  0
 54 57  1  0  0  0  0
 54 73  1  0  0  0  0
 55 77  1  0  0  0  0
 56 72  1  0  0  0  0
 57 70  1  0  0  0  0
 58 60  1  0  0  0  0
 58 86  1  0  0  0  0
 61 67  1  0  0  0  0
 62 68  1  0  0  0  0
 63 68  1  0  0  0  0
 64 68  1  0  0  0  0
 65 79  1  0  0  0  0
 66 68  1  0  0  0  0
 66 78  1  0  0  0  0
 67 79  1  0  0  0  0
 69 70  1  0  0  0  0
M  CHG  1  79   1
M  ISO  4  38 100  58 101  74 100  86 101
M  END
> <Batch ID>
0166

> <Smiles>
CNC(C)C(=O)NC(C(=O)N1Cc2cc([101O:1][101C:1]3(C)CCCc4c(C)cc(N5CC[100N:0]([100C:0](=O)N6CCCC(n7nc(-c8ccc(Oc9ccc(F)cc9F)cc8)c(C(N)=O)c7N)C6)CC5)cc43)ccc2CC1C(=O)NC1CCCc2ccccc21)C(C)(C)C

> <Shape>
0.293

> <Color>
0.086

> <Negative vol penalty>
0.000

$$$$

  -OEChem-04052322243D

 94106  0     1  0  0  0  0  0999 V2000
  -43.9963  -27.1410   24.0411 C   0  0  0  0  0  0  0  0  0  0  0  0
  -43.3130  -25.9370   24.1788 C   0  0  0  0  0  0  0  0  0  0  0  0
  -23.0103   -9.8791   19.9850 C   0  0  0  0  0  0  0  0  0  0  0  0
  -23.7102   -9.9514   22.2962 C   0  0  0  0  0  0  0  0  0  0  0  0
  -43.2935  -28.3451   24.0501 C   0  0  0  0  0  0  0  0  0  0  0  0
  -41.9265  -25.9365   24.3269 C   0  0  0  0  0  0  0  0  0  0  0  0
  -37.9962  -21.7596   22.1793 C   0  0  0  0  0  0  0  0  0  0  0  0
  -22.2388   -8.7486   20.2539 C   0  0  0  0  0  0  0  0  0  0  0  0
  -22.9387   -8.8209   22.5652 C   0  0  0  0  0  0  0  0  0  0  0  0
  -37.3694  -20.6669   22.7768 C   0  0  0  0  0  0  0  0  0  0  0  0
  -23.1820   -5.4771   22.1287 C   0  0  0  0  0  0  0  0  0  0  0  0
  -23.7594   -4.4663   22.8972 C   0  0  0  0  0  0  0  0  0  0  0  0
  -30.2982  -17.6414   27.7728 C   0  0  0  0  0  0  0  0  0  0  0  0
  -35.4182  -22.0223   23.1948 C   0  0  0  0  0  0  0  0  0  0  0  0
  -22.0177   -4.7286   24.5509 C   0  0  0  0  0  0  0  0  0  0  0  0
  -23.7461  -10.4805   21.0061 C   0  0  0  0  0  0  0  0  0  0  0  0
  -24.1379  -12.9936   20.8098 C   0  0  0  0  0  0  0  0  0  0  0  0
  -41.8966  -28.3588   24.1886 C   0  0  0  0  0  0  0  0  0  0  0  0
  -37.3417  -22.9969   22.0948 C   0  0  0  0  0  0  0  0  0  0  0  0
  -41.2044  -27.1420   24.3391 C   0  0  0  0  0  0  0  0  0  0  0  0
  -31.0968  -18.2354   26.7955 C   0  0  0  0  0  0  0  0  0  0  0  0
  -29.8049  -16.3508   27.5807 C   0  0  0  0  0  0  0  0  0  0  0  0
  -36.0379  -23.1285   22.5935 C   0  0  0  0  0  0  0  0  0  0  0  0
  -31.4020  -17.5389   25.6262 C   0  0  0  0  0  0  0  0  0  0  0  0
  -30.9087  -16.2484   25.4341 C   0  0  0  0  0  0  0  0  0  0  0  0
  -22.2029   -8.2195   21.5441 C   0  0  0  0  0  0  0  0  0  0  0  0
  -36.0814  -20.7989   23.2872 C   0  0  0  0  0  0  0  0  0  0  0  0
  -22.0225   -6.1138   22.5714 C   0  0  0  0  0  0  0  0  0  0  0  0
  -30.1102  -15.6544   26.4114 C   0  0  0  0  0  0  0  0  0  0  0  0
  -23.1772   -4.0921   24.1082 C   0  0  0  0  0  0  0  0  0  0  0  0
  -21.4403   -5.7395   23.7824 C   0  0  0  0  0  0  0  0  0  0  0  0
  -24.5436  -11.6480   20.7288 C   0  0  0  0  0  0  0  0  0  0  0  0
  -25.2529  -13.7106   20.4505 C   0  0  0  0  0  0  0  0  0  0  0  0
  -22.8668  -13.5459   21.1769 C   0  0  0  0  0  0  0  0  0  0  0  0
  -37.9011  -25.9126   23.2304 C   0  0  0  0  0  0  0  0  0  0  0  0
  -35.3409  -26.6941   21.3981 C   0  0  0  0  0  0  0  0  0  0  0  0
  -32.4759  -25.6857   19.8419 C   0  0  0  0  0  0  0  0  0  0  0  0
  -30.8209  -14.5036   20.9275 C   0  0  0  0  0  0  0  0  0  0  0  0
  -41.1853  -29.6878   24.2400 C   0  0  0  0  0  0  0  0  0  0  0  0
  -38.0213  -24.1587   21.4233 C   0  0  0  0  0  0  0  0  0  0  0  0
  -35.2842  -24.4298   22.5094 C   0  0  0  0  0  0  0  0  0  0  0  0
  -39.6777  -29.5804   24.0255 C   0  0  0  0  0  0  0  0  0  0  0  0
  -29.6145  -12.2444   18.4030 C   0  0  0  0  0  0  0  0  0  0  0  0
  -30.6302  -20.7205   27.3252 C   0  0  0  0  0  0  0  0  0  0  0  0
  -31.3255  -20.6836   26.0002 C   0  0  0  0  0  0  0  0  0  0  0  0
  -39.0968  -28.4530   24.8730 C   0  0  0  0  0  0  0  0  0  0  0  0
  -28.1755  -11.9521   18.8148 C   0  0  0  0  0  0  0  0  0  0  0  0
  -33.4910  -17.4453   24.1056 C   0  0  0  0  0  0  0  0  0  0  0  0
  -30.5028  -12.4320   19.6255 C   0  0  0  0  0  0  0  0  0  0  0  0
  -30.1566  -14.5647   23.4603 C   0  0  0  0  0  0  0  0  0  0  0  0
  -31.2930  -16.2130   22.7638 C   0  0  0  0  0  0  0  0  0  0  0  0
  -28.5831  -13.2727   20.9528 C   0  0  0  0  0  0  0  0  0  0  0  0
  -27.6993  -14.8747   28.2269 C   0  0  0  0  0  0  0  0  0  0  0  0
  -27.8748  -16.5970   29.3819 C   0  0  0  0  0  0  0  0  0  0  0  0
  -31.6108  -19.6188   27.0251 C   0  0  0  0  0  0  0  0  0  0  0  0
  -28.9165  -15.7044   28.6796 C   0  0  0  0  0  0  0  0  0  0  0  0
  -32.2579  -18.1730   24.5764 C   0  0  2  0  0  0  0  0  0  0  0  0
  -31.2492  -15.4498   24.1077 C   0  0  0  0  0  0  0  0  0  0  0  0
  -39.6980  -27.0991   24.4770 C   0  0  1  0  0  0  0  0  0  0  0  0
  -37.4577  -25.5099   21.8524 C   0  0  1  0  0  0  0  0  0  0  0  0
  -33.6293  -18.6699   24.9602 C   0  0  2  0  0  0  0  0  0  0  0  0
  -27.6492  -13.0536   19.7461 C   0  0  2  0  0  0  0  0  0  0  0  0
  -30.5765  -26.5582   18.4533 C   0  0  0  0  0  0  0  0  0  0  0  0
  -34.0991  -27.9462   23.8881 C   0  0  0  0  0  0  0  0  0  0  0  0
  -31.8913  -27.9354   22.7073 C   0  0  0  0  0  0  0  0  0  0  0  0
  -33.7883  -29.2699   21.7891 C   0  0  0  0  0  0  0  0  0  0  0  0
  -25.5864  -15.7913   29.0562 C   0  0  0  0  0  0  0  0  0  0  0  0
  -33.1631  -23.9093   17.5767 C   0  0  0  0  0  0  0  0  0  0  0  0
  -30.4356  -13.3155   26.6935 C   0  0  0  0  0  0  0  0  0  0  0  0
  -34.1492  -19.9371   24.3734 C   0  0  0  0  0  0  0  0  0  1  0  0
  -33.8479  -26.7484   21.6147 C   0  0  1  0  0  0  0  0  0  0  0  0
  -31.9574  -25.9214   18.4348 C   0  0  2  0  0  0  0  0  0  0  0  0
  -33.4213  -27.9508   22.5033 C   0  0  0  0  0  0  0  0  0  0  0  0
  -25.8170  -11.5154   20.3478 N   0  0  0  0  0  0  0  0  0  0  0  0
  -26.2209  -12.7869   20.1862 N   0  0  0  0  0  0  0  0  0  0  0  0
  -35.9937  -25.5383   21.8495 N   0  0  0  0  0  0  0  0  0  0  0  0
  -29.9802  -13.4558   20.5356 N   0  0  0  0  0  0  0  0  0  0  0  0
  -30.6456  -15.0451   22.1791 N   0  0  0  0  0  0  0  0  0  0  0  0
  -25.4899  -15.0349   20.3381 N   0  0  0  0  0  0  0  0  0  0  0  0
  -21.8297  -12.6670   21.5177 N   0  0  0  0  0  0  0  0  0  0  0  0
  -39.0911  -26.6144   23.2558 N   0  0  0  0  0  0  0  0  0  0  0  0
  -33.2424  -26.7418   20.2874 N   0  0  0  0  0  0  0  0  0  0  0  0
  -26.9796  -15.4249   29.3907 N   0  3  0  0  0  0  0  0  0  0  0  0
  -31.8705  -24.6323   17.6920 N   0  3  0  0  0  0  0  0  0  0  0  0
  -22.6521  -14.7818   21.1862 O   0  0  0  0  0  0  0  0  0  0  0  0
  -37.2136  -25.6103   24.1987 O   0  0  0  0  0  0  0  0  0  0  0  0
  -35.9061  -27.6392   20.8422 O   0  0  0  0  0  0  0  0  0  0  0  0
  -32.2231  -24.6682   20.4833 O   0  0  0  0  0  0  0  0  0  0  0  0
  -31.7238  -14.9262   20.1930 O   0  0  0  0  0  0  0  0  0  0  0  0
  -21.4500   -7.1166   21.8069 O   0  0  0  0  0  0  0  0  0  0  0  0
  -29.6274  -14.3929   26.2257 O   0  0  0  0  0  0  0  0  0  0  0  0
  -35.4630  -19.7262   23.8758 O   0  0  0  0  0  0  0  0  0  1  0  0
  -23.7309   -3.1203   24.8453 F   0  0  0  0  0  0  0  0  0  0  0  0
  -20.3257   -6.3466   24.2123 F   0  0  0  0  0  0  0  0  0  0  0  0
  1  2  1  0  0  0  0
  1  5  2  0  0  0  0
  2  6  2  0  0  0  0
  3  8  2  0  0  0  0
  3 16  1  0  0  0  0
  4  9  1  0  0  0  0
  4 16  2  0  0  0  0
  5 18  1  0  0  0  0
  6 20  1  0  0  0  0
  7 10  2  0  0  0  0
  7 19  1  0  0  0  0
  8 26  1  0  0  0  0
  9 26  2  0  0  0  0
 10 27  1  0  0  0  0
 11 12  2  0  0  0  0
 11 28  1  0  0  0  0
 12 30  1  0  0  0  0
 13 21  2  0  0  0  0
 13 22  1  0  0  0  0
 14 23  1  0  0  0  0
 14 27  2  0  0  0  0
 15 30  2  0  0  0  0
 15 31  1  0  0  0  0
 16 32  1  0  0  0  0
 17 32  1  0  0  0  0
 17 33  2  0  0  0  0
 17 34  1  0  0  0  0
 18 20  2  0  0  0  0
 18 39  1  0  0  0  0
 19 23  2  0  0  0  0
 19 40  1  0  0  0  0
 20 59  1  0  0  0  0
 21 24  1  0  0  0  0
 21 55  1  0  0  0  0
 22 29  2  0  0  0  0
 22 56  1  0  0  0  0
 23 41  1  0  0  0  0
 24 25  2  0  0  0  0
 24 57  1  0  0  0  0
 25 29  1  0  0  0  0
 25 58  1  0  0  0  0
 26 90  1  0  0  0  0
 27 92  1  0  0  0  0
 28 31  2  0  0  0  0
 28 90  1  0  0  0  0
 29 91  1  0  0  0  0
 30 93  1  0  0  0  0
 31 94  1  0  0  0  0
 32 74  2  0  0  0  0
 33 75  1  0  0  0  0
 33 79  1  0  0  0  0
 34 80  1  0  0  0  0
 34 85  2  0  0  0  0
 35 60  1  0  0  0  0
 35 81  1  0  0  0  0
 35 86  2  0  0  0  0
 36 71  1  0  0  0  0
 36 76  1  0  0  0  0
 36 87  2  0  0  0  0
 37 72  1  0  0  0  0
 37 82  1  0  0  0  0
 37 88  2  0  0  0  0
 38 77  1  0  0  0  0
 38 78  1  0  0  0  0
 38 89  2  0  0  0  0
 39 42  1  0  0  0  0
 40 60  1  0  0  0  0
 41 76  1  0  0  0  0
 42 46  1  0  0  0  0
 43 47  1  0  0  0  0
 43 49  1  0  0  0  0
 44 45  1  0  0  0  0
 44 55  1  0  0  0  0
 45 55  1  0  0  0  0
 46 59  1  0  0  0  0
 47 62  1  0  0  0  0
 48 57  1  0  0  0  0
 48 61  1  0  0  0  0
 49 77  1  0  0  0  0
 50 58  1  0  0  0  0
 50 78  1  0  0  0  0
 51 58  1  0  0  0  0
 51 78  1  0  0  0  0
 52 62  1  0  0  0  0
 52 77  1  0  0  0  0
 53 56  1  0  0  0  0
 53 83  1  0  0  0  0
 54 56  1  0  0  0  0
 54 83  1  0  0  0  0
 57 61  1  0  0  0  0
 59 81  1  0  0  0  0
 60 76  1  0  0  0  0
 61 70  1  0  0  0  0
 62 75  1  0  0  0  0
 63 72  1  0  0  0  0
 64 73  1  0  0  0  0
 65 73  1  0  0  0  0
 66 73  1  0  0  0  0
 67 83  1  0  0  0  0
 68 84  1  0  0  0  0
 69 91  1  0  0  0  0
 70 92  1  0  0  0  0
 71 73  1  0  0  0  0
 71 82  1  0  0  0  0
 72 84  1  0  0  0  0
 74 75  1  0  0  0  0
M  CHG  2  83   1  84   1
M  ISO  4  38 100  70 101  78 100  92 101
M  END
> <Batch ID>
0166

> <Smiles>
CNC(C)C(=O)NC(C(=O)N1Cc2cc([101O:1][101CH2:1]C3CC3c3c(C4CC4)cc(C4CN(C)C4)c(OC)c3C3C[100N:0]([100C:0](=O)N4CCCC(n5nc(-c6ccc(Oc7ccc(F)cc7F)cc6)c(C(N)=O)c5N)C4)C3)ccc2CC1C(=O)NC1CCCc2ccccc21)C(C)(C)C

> <Shape>
0.173

> <Color>
0.190

> <Negative vol penalty>
0.000

$$$$

  -OEChem-04052322243D

 92102  0     1  0  0  0  0  0999 V2000
  -16.5521  -29.5824   23.4089 C   0  0  0  0  0  0  0  0  0  0  0  0
  -17.5600  -30.3789   23.9427 C   0  0  0  0  0  0  0  0  0  0  0  0
  -29.5375  -12.5010   18.5014 C   0  0  0  0  0  0  0  0  0  0  0  0
  -28.0304  -13.4364   20.1418 C   0  0  0  0  0  0  0  0  0  0  0  0
  -16.8720  -28.3679   22.8034 C   0  0  0  0  0  0  0  0  0  0  0  0
  -18.8884  -29.9608   23.8724 C   0  0  0  0  0  0  0  0  0  0  0  0
  -25.5318  -32.5595   23.2175 C   0  0  0  0  0  0  0  0  0  0  0  0
  -29.7372  -11.3887   19.3190 C   0  0  0  0  0  0  0  0  0  0  0  0
  -28.2300  -12.3240   20.9594 C   0  0  0  0  0  0  0  0  0  0  0  0
  -26.7806  -32.4913   23.8337 C   0  0  0  0  0  0  0  0  0  0  0  0
  -27.1416   -9.1289   21.1248 C   0  0  0  0  0  0  0  0  0  0  0  0
  -26.0174   -8.5466   21.7101 C   0  0  0  0  0  0  0  0  0  0  0  0
  -27.2227  -30.4117   22.6939 C   0  0  0  0  0  0  0  0  0  0  0  0
  -26.9350   -8.9792   23.9029 C   0  0  0  0  0  0  0  0  0  0  0  0
  -28.6842  -13.5249   18.9128 C   0  0  0  0  0  0  0  0  0  0  0  0
  -27.4942  -14.8336   17.0747 C   0  0  0  0  0  0  0  0  0  0  0  0
  -18.2059  -27.9392   22.7170 C   0  0  0  0  0  0  0  0  0  0  0  0
  -25.1139  -31.5471   22.3419 C   0  0  0  0  0  0  0  0  0  0  0  0
  -19.2263  -28.7388   23.2664 C   0  0  0  0  0  0  0  0  0  0  0  0
  -25.9692  -30.4707   22.0660 C   0  0  0  0  0  0  0  0  0  0  0  0
  -31.7733  -27.4747   24.1592 C   0  0  0  0  0  0  0  0  0  0  0  0
  -32.0436  -26.6569   25.2563 C   0  0  0  0  0  0  0  0  0  0  0  0
  -31.9303  -26.9795   22.8646 C   0  0  0  0  0  0  0  0  0  0  0  0
  -32.4710  -25.3439   25.0589 C   0  0  0  0  0  0  0  0  0  0  0  0
  -32.6280  -24.8486   23.7644 C   0  0  0  0  0  0  0  0  0  0  0  0
  -32.3577  -25.6665   22.6672 C   0  0  0  0  0  0  0  0  0  0  0  0
  -29.0834  -11.3002   20.5480 C   0  0  0  0  0  0  0  0  0  0  0  0
  -27.6251  -31.4159   23.5742 C   0  0  0  0  0  0  0  0  0  0  0  0
  -28.1626   -9.6363   21.9285 C   0  0  0  0  0  0  0  0  0  0  0  0
  -25.9140   -8.4718   23.0992 C   0  0  0  0  0  0  0  0  0  0  0  0
  -28.0593   -9.5615   23.3176 C   0  0  0  0  0  0  0  0  0  0  0  0
  -28.4780  -14.6745   18.0689 C   0  0  0  0  0  0  0  0  0  0  0  0
  -27.7195  -16.0897   16.5667 C   0  0  0  0  0  0  0  0  0  0  0  0
  -26.4684  -13.9272   16.6484 C   0  0  0  0  0  0  0  0  0  0  0  0
  -22.7247  -29.4507   22.3138 C   0  0  0  0  0  0  0  0  0  0  0  0
  -23.8714  -28.7723   19.3562 C   0  0  0  0  0  0  0  0  0  0  0  0
  -26.5140  -28.7995   17.1969 C   0  0  0  0  0  0  0  0  0  0  0  0
  -30.1654  -20.9062   18.9302 C   0  0  0  0  0  0  0  0  0  0  0  0
  -18.4982  -26.5966   22.0952 C   0  0  0  0  0  0  0  0  0  0  0  0
  -23.7748  -31.6489   21.6647 C   0  0  0  0  0  0  0  0  0  0  0  0
  -25.5760  -29.3682   21.1181 C   0  0  0  0  0  0  0  0  0  0  0  0
  -19.9671  -26.4020   21.7284 C   0  0  0  0  0  0  0  0  0  0  0  0
  -31.2218  -19.2773   15.8772 C   0  0  0  0  0  0  0  0  0  0  0  0
  -20.8673  -26.8407   22.8791 C   0  0  0  0  0  0  0  0  0  0  0  0
  -30.5335  -17.9175   16.0064 C   0  0  0  0  0  0  0  0  0  0  0  0
  -32.1602  -30.0146   23.7491 C   0  0  0  0  0  0  0  0  0  0  0  0
  -29.9002  -29.1949   23.8182 C   0  0  0  0  0  0  0  0  0  0  0  0
  -31.7252  -19.7741   17.2296 C   0  0  0  0  0  0  0  0  0  0  0  0
  -29.9906  -18.4902   18.4174 C   0  0  0  0  0  0  0  0  0  0  0  0
  -31.4252  -24.5280   19.1768 C   0  0  0  0  0  0  0  0  0  0  0  0
  -30.8131  -23.4383   20.8483 C   0  0  0  0  0  0  0  0  0  0  0  0
  -31.3097  -28.8998   24.3732 C   0  0  1  0  0  0  0  0  0  0  0  0
  -20.6816  -28.3313   23.1875 C   0  0  1  0  0  0  0  0  0  0  0  0
  -23.2421  -30.3011   21.1882 C   0  0  1  0  0  0  0  0  0  0  0  0
  -31.2506  -31.2336   23.8633 C   0  0  2  0  0  0  0  0  0  0  0  0
  -29.4376  -17.9453   17.0881 C   0  0  2  0  0  0  0  0  0  0  0  0
  -30.4322  -23.3663   19.3588 C   0  0  0  0  0  0  0  0  0  0  0  0
  -29.8786  -30.6865   23.4621 C   0  0  2  0  0  0  0  0  0  1  0  0
  -31.8751  -27.1884   26.6449 C   0  0  0  0  0  0  0  0  0  0  0  0
  -31.6413  -27.8570   21.6875 C   0  0  0  0  0  0  0  0  0  0  0  0
  -32.7638  -24.4678   26.2361 C   0  0  0  0  0  0  0  0  0  0  0  0
  -33.0882  -23.4404   23.5533 C   0  0  0  0  0  0  0  0  0  0  0  0
  -31.7069  -32.3954   22.9938 C   0  0  0  0  0  0  0  0  0  0  0  0
  -27.1561  -28.1444   14.8611 C   0  0  0  0  0  0  0  0  0  0  0  0
  -24.0064  -25.8479   20.2161 C   0  0  0  0  0  0  0  0  0  0  0  0
  -25.5023  -25.4130   18.2561 C   0  0  0  0  0  0  0  0  0  0  0  0
  -23.1684  -26.2131   17.8883 C   0  0  0  0  0  0  0  0  0  0  0  0
  -27.1537  -31.5947   16.4646 C   0  0  0  0  0  0  0  0  0  0  0  0
  -32.5266  -25.1348   21.2787 C   0  0  0  0  0  0  0  0  0  0  0  0
  -24.8983  -27.8149   18.8014 C   0  0  1  0  0  0  0  0  0  0  0  0
  -26.6315  -29.2577   15.7544 C   0  0  2  0  0  0  0  0  0  0  0  0
  -24.4007  -26.3418   18.8099 C   0  0  0  0  0  0  0  0  0  0  0  0
  -29.2695  -15.7439   18.1871 N   0  0  0  0  0  0  0  0  0  0  0  0
  -28.7833  -16.5870   17.2603 N   0  0  0  0  0  0  0  0  0  0  0  0
  -24.2542  -29.5097   20.4856 N   0  0  0  0  0  0  0  0  0  0  0  0
  -30.6290  -19.7946   18.2088 N   0  0  0  0  0  0  0  0  0  0  0  0
  -27.1095  -16.8062   15.5988 N   0  0  0  0  0  0  0  0  0  0  0  0
  -26.3778  -12.6775   17.2765 N   0  0  0  0  0  0  0  0  0  0  0  0
  -21.3820  -29.1400   22.2129 N   0  0  0  0  0  0  0  0  0  0  0  0
  -25.2530  -28.3181   17.4788 N   0  0  0  0  0  0  0  0  0  0  0  0
  -30.8143  -22.1107   18.6801 N   0  0  0  0  0  0  0  0  0  0  0  0
  -31.2355  -24.8297   20.6070 N   0  3  0  0  0  0  0  0  0  0  0  0
  -27.5608  -30.4184   15.6537 N   0  3  0  0  0  0  0  0  0  0  0  0
  -25.6665  -14.2103   15.7262 O   0  0  0  0  0  0  0  0  0  0  0  0
  -23.4876  -29.1010   23.2068 O   0  0  0  0  0  0  0  0  0  0  0  0
  -22.7727  -28.8677   18.8035 O   0  0  0  0  0  0  0  0  0  0  0  0
  -27.4486  -28.8589   17.9929 O   0  0  0  0  0  0  0  0  0  0  0  0
  -29.2333  -20.8391   19.7392 O   0  0  0  0  0  0  0  0  0  0  0  0
  -29.2778  -10.2148   21.3459 O   0  0  0  0  0  0  0  0  0  0  0  0
  -28.8443  -31.3465   24.1747 O   0  0  0  0  0  0  0  0  0  1  0  0
  -24.8337   -7.9140   23.6611 F   0  0  0  0  0  0  0  0  0  0  0  0
  -29.0363  -10.0482   24.0949 F   0  0  0  0  0  0  0  0  0  0  0  0
  1  2  1  0  0  0  0
  1  5  2  0  0  0  0
  2  6  2  0  0  0  0
  3  8  2  0  0  0  0
  3 15  1  0  0  0  0
  4  9  1  0  0  0  0
  4 15  2  0  0  0  0
  5 17  1  0  0  0  0
  6 19  1  0  0  0  0
  7 10  2  0  0  0  0
  7 18  1  0  0  0  0
  8 27  1  0  0  0  0
  9 27  2  0  0  0  0
 10 28  1  0  0  0  0
 11 12  2  0  0  0  0
 11 29  1  0  0  0  0
 12 30  1  0  0  0  0
 13 20  1  0  0  0  0
 13 28  2  0  0  0  0
 14 30  2  0  0  0  0
 14 31  1  0  0  0  0
 15 32  1  0  0  0  0
 16 32  1  0  0  0  0
 16 33  2  0  0  0  0
 16 34  1  0  0  0  0
 17 19  2  0  0  0  0
 17 39  1  0  0  0  0
 18 20  2  0  0  0  0
 18 40  1  0  0  0  0
 19 53  1  0  0  0  0
 20 41  1  0  0  0  0
 21 22  1  0  0  0  0
 21 23  2  0  0  0  0
 21 52  1  0  0  0  0
 22 24  2  0  0  0  0
 22 59  1  0  0  0  0
 23 26  1  0  0  0  0
 23 60  1  0  0  0  0
 24 25  1  0  0  0  0
 24 61  1  0  0  0  0
 25 26  2  0  0  0  0
 25 62  1  0  0  0  0
 26 69  1  0  0  0  0
 27 89  1  0  0  0  0
 28 90  1  0  0  0  0
 29 31  2  0  0  0  0
 29 89  1  0  0  0  0
 30 91  1  0  0  0  0
 31 92  1  0  0  0  0
 32 73  2  0  0  0  0
 33 74  1  0  0  0  0
 33 77  1  0  0  0  0
 34 78  1  0  0  0  0
 34 84  2  0  0  0  0
 35 54  1  0  0  0  0
 35 79  1  0  0  0  0
 35 85  2  0  0  0  0
 36 70  1  0  0  0  0
 36 75  1  0  0  0  0
 36 86  2  0  0  0  0
 37 71  1  0  0  0  0
 37 80  1  0  0  0  0
 37 87  2  0  0  0  0
 38 76  1  0  0  0  0
 38 81  1  0  0  0  0
 38 88  2  0  0  0  0
 39 42  1  0  0  0  0
 40 54  1  0  0  0  0
 41 75  1  0  0  0  0
 42 44  1  0  0  0  0
 43 45  1  0  0  0  0
 43 48  1  0  0  0  0
 44 53  1  0  0  0  0
 45 56  1  0  0  0  0
 46 52  1  0  0  0  0
 46 55  1  0  0  0  0
 47 52  1  0  0  0  0
 47 58  1  0  0  0  0
 48 76  1  0  0  0  0
 49 56  1  0  0  0  0
 49 76  1  0  0  0  0
 50 57  1  0  0  0  0
 50 82  1  0  0  0  0
 51 57  1  0  0  0  0
 51 82  1  0  0  0  0
 53 79  1  0  0  0  0
 54 75  1  0  0  0  0
 55 58  1  0  0  0  0
 55 63  1  0  0  0  0
 56 74  1  0  0  0  0
 57 81  1  0  0  0  0
 58 90  1  0  0  0  0
 64 71  1  0  0  0  0
 65 72  1  0  0  0  0
 66 72  1  0  0  0  0
 67 72  1  0  0  0  0
 68 83  1  0  0  0  0
 69 82  1  0  0  0  0
 70 72  1  0  0  0  0
 70 80  1  0  0  0  0
 71 83  1  0  0  0  0
 73 74  1  0  0  0  0
M  CHG  2  82   1  83   1
M  ISO  4  38 100  58 101  81 100  90 101
M  END
> <Batch ID>
0166

> <Smiles>
CNC(C)C(=O)NC(C(=O)N1Cc2cc([101O:1][101CH:1]3CC(c4c(C)c(C)c(C)c(CN5CC([100NH:0][100C:0](=O)N6CCCC(n7nc(-c8ccc(Oc9ccc(F)cc9F)cc8)c(C(N)=O)c7N)C6)C5)c4C)CC3C)ccc2CC1C(=O)NC1CCCc2ccccc21)C(C)(C)C

> <Shape>
0.243

> <Color>
0.116

> <Negative vol penalty>
0.000

$$$$

  -OEChem-04052322243D

 91101  0     1  0  0  0  0  0999 V2000
  -22.2809  -14.5130   19.2173 C   0  0  0  0  0  0  0  0  0  0  0  0
  -22.9050  -15.6474   19.7262 C   0  0  0  0  0  0  0  0  0  0  0  0
  -20.4628  -25.1289   28.0295 C   0  0  0  0  0  0  0  0  0  0  0  0
  -22.2132  -26.7942   28.0460 C   0  0  0  0  0  0  0  0  0  0  0  0
  -22.8923  -13.2664   19.3438 C   0  0  0  0  0  0  0  0  0  0  0  0
  -24.1406  -15.5356   20.3628 C   0  0  0  0  0  0  0  0  0  0  0  0
  -27.4112  -19.1139   18.8986 C   0  0  0  0  0  0  0  0  0  0  0  0
  -20.2812  -25.3061   29.4010 C   0  0  0  0  0  0  0  0  0  0  0  0
  -22.0315  -26.9714   29.4176 C   0  0  0  0  0  0  0  0  0  0  0  0
  -27.2515  -20.3856   19.4474 C   0  0  0  0  0  0  0  0  0  0  0  0
  -19.8670  -28.5796   31.4546 C   0  0  0  0  0  0  0  0  0  0  0  0
  -19.8235  -29.8875   31.9373 C   0  0  0  0  0  0  0  0  0  0  0  0
  -29.0269  -19.9255   21.0145 C   0  0  0  0  0  0  0  0  0  0  0  0
  -21.7381  -29.4338   33.3393 C   0  0  0  0  0  0  0  0  0  0  0  0
  -21.4289  -25.8729   27.3519 C   0  0  0  0  0  0  0  0  0  0  0  0
  -21.9800  -24.5020   25.2724 C   0  0  0  0  0  0  0  0  0  0  0  0
  -24.1405  -13.1406   19.9737 C   0  0  0  0  0  0  0  0  0  0  0  0
  -28.3742  -18.2331   19.4115 C   0  0  0  0  0  0  0  0  0  0  0  0
  -24.7687  -14.2860   20.4990 C   0  0  0  0  0  0  0  0  0  0  0  0
  -29.1985  -18.6442   20.4687 C   0  0  0  0  0  0  0  0  0  0  0  0
  -28.4730  -26.1433   22.3706 C   0  0  0  0  0  0  0  0  0  0  0  0
  -28.8002  -24.8791   21.8931 C   0  0  0  0  0  0  0  0  0  0  0  0
  -28.4260  -23.7511   22.6149 C   0  0  0  0  0  0  0  0  0  0  0  0
  -21.0655  -26.2274   30.0951 C   0  0  0  0  0  0  0  0  0  0  0  0
  -28.0575  -20.7905   20.5074 C   0  0  0  0  0  0  0  0  0  0  0  0
  -20.8460  -27.6987   31.9142 C   0  0  0  0  0  0  0  0  0  0  0  0
  -20.7590  -30.3146   32.8796 C   0  0  0  0  0  0  0  0  0  0  0  0
  -21.7816  -28.1258   32.8566 C   0  0  0  0  0  0  0  0  0  0  0  0
  -21.6173  -25.6898   25.9352 C   0  0  0  0  0  0  0  0  0  0  0  0
  -27.7763  -26.2250   23.5655 C   0  0  0  0  0  0  0  0  0  0  0  0
  -27.7316  -23.9399   23.7990 C   0  0  0  0  0  0  0  0  0  0  0  0
  -22.0270  -24.8504   23.9446 C   0  0  0  0  0  0  0  0  0  0  0  0
  -22.2503  -23.2002   25.8088 C   0  0  0  0  0  0  0  0  0  0  0  0
  -28.2866  -15.3751   20.8002 C   0  0  0  0  0  0  0  0  0  0  0  0
  -31.5152  -15.6032   20.5842 C   0  0  0  0  0  0  0  0  0  0  0  0
  -34.2679  -17.6047   20.3330 C   0  0  0  0  0  0  0  0  0  0  0  0
  -23.6650  -28.5224   19.9879 C   0  0  0  0  0  0  0  0  0  0  0  0
  -24.7403  -11.7655   20.1285 C   0  0  0  0  0  0  0  0  0  0  0  0
  -28.5520  -16.8746   18.7909 C   0  0  0  0  0  0  0  0  0  0  0  0
  -30.2608  -17.7437   21.0423 C   0  0  0  0  0  0  0  0  0  0  0  0
  -26.2245  -11.7849   20.4849 C   0  0  0  0  0  0  0  0  0  0  0  0
  -20.4671  -28.9998   21.5537 C   0  0  0  0  0  0  0  0  0  0  0  0
  -26.4913  -12.7847   21.6056 C   0  0  0  0  0  0  0  0  0  0  0  0
  -20.5260  -28.1301   22.8052 C   0  0  0  0  0  0  0  0  0  0  0  0
  -30.3821  -27.5527   21.3975 C   0  0  0  0  0  0  0  0  0  0  0  0
  -21.8325  -29.5979   21.2424 C   0  0  0  0  0  0  0  0  0  0  0  0
  -22.9755  -27.6620   22.2908 C   0  0  0  0  0  0  0  0  0  0  0  0
  -25.9843  -27.9876   19.0676 C   0  0  0  0  0  0  0  0  0  0  0  0
  -25.9273  -28.0121   21.2017 C   0  0  0  0  0  0  0  0  0  0  0  0
  -30.6165  -27.3799   19.9115 C   0  0  0  0  0  0  0  0  0  0  0  0
  -28.8661  -27.3922   21.6059 C   0  0  1  0  0  0  0  0  0  0  0  0
  -26.1208  -14.2088   21.1742 C   0  0  1  0  0  0  0  0  0  0  0  0
  -29.2161  -15.8714   19.7289 C   0  0  1  0  0  0  0  0  0  0  0  0
  -21.6088  -27.0510   22.6591 C   0  0  1  0  0  0  0  0  0  0  0  0
  -28.2321  -27.4301   20.1973 C   0  0  1  0  0  0  0  0  0  0  0  0
  -27.0181  -28.3516   20.1575 C   0  0  0  0  0  0  0  0  0  0  0  0
  -29.5537  -24.7327   20.6096 C   0  0  0  0  0  0  0  0  0  0  0  0
  -27.3965  -27.5553   24.1286 C   0  0  0  0  0  0  0  0  0  0  0  0
  -27.3046  -22.7668   24.6194 C   0  0  0  0  0  0  0  0  0  0  0  0
  -27.4281  -29.8254   20.1505 C   0  0  0  0  0  0  0  0  0  0  0  0
  -36.7726  -17.5040   20.2152 C   0  0  0  0  0  0  0  0  0  0  0  0
  -31.6307  -15.0310   23.5791 C   0  0  0  0  0  0  0  0  0  0  0  0
  -33.9894  -15.8704   23.5778 C   0  0  0  0  0  0  0  0  0  0  0  0
  -33.3806  -13.8643   22.2259 C   0  0  0  0  0  0  0  0  0  0  0  0
  -29.1977  -27.5949   17.8548 C   0  0  0  0  0  0  0  0  0  0  0  0
  -34.3097  -18.8850   17.6651 C   0  0  0  0  0  0  0  0  0  0  0  0
  -28.7621  -22.3809   22.1292 C   0  0  0  0  0  0  0  0  0  1  0  0
  -32.6099  -16.1500   21.4684 C   0  0  1  0  0  0  0  0  0  0  0  0
  -35.4779  -17.5433   19.4184 C   0  0  2  0  0  0  0  0  0  0  0  0
  -32.8814  -15.2454   22.7035 C   0  0  0  0  0  0  0  0  0  0  0  0
  -21.4462  -26.7161   25.0977 N   0  0  0  0  0  0  0  0  0  0  0  0
  -27.3958  -25.1520   24.2946 N   0  0  0  0  0  0  0  0  0  0  0  0
  -21.7026  -26.1742   23.8949 N   0  0  0  0  0  0  0  0  0  0  0  0
  -30.3918  -16.4228   20.4055 N   0  0  0  0  0  0  0  0  0  0  0  0
  -22.8737  -28.5710   21.1408 N   0  0  0  0  0  0  0  0  0  0  0  0
  -24.9663  -28.0913   20.1103 N   0  0  0  0  0  0  0  0  0  0  0  0
  -22.3139  -24.1505   22.8265 N   0  0  0  0  0  0  0  0  0  0  0  0
  -23.5660  -22.8899   26.1788 N   0  0  0  0  0  0  0  0  0  0  0  0
  -27.1476  -14.7603   20.3163 N   0  0  0  0  0  0  0  0  0  0  0  0
  -33.7700  -16.3483   20.6063 N   0  0  0  0  0  0  0  0  0  0  0  0
  -29.3539  -27.9276   19.3048 N   0  3  2  0  0  0  0  0  0  0  0  0
  -35.5123  -18.7351   18.5243 N   0  3  0  0  0  0  0  0  0  0  0  0
  -21.3545  -22.3319   25.9405 O   0  0  0  0  0  0  0  0  0  0  0  0
  -28.5817  -15.5367   21.9785 O   0  0  0  0  0  0  0  0  0  0  0  0
  -31.6550  -14.4928   20.0653 O   0  0  0  0  0  0  0  0  0  0  0  0
  -33.8125  -18.6613   20.7651 O   0  0  0  0  0  0  0  0  0  0  0  0
  -23.2345  -28.8832   18.8845 O   0  0  0  0  0  0  0  0  0  0  0  0
  -20.8884  -26.4008   31.4334 O   0  0  0  0  0  0  0  0  0  0  0  0
  -27.9022  -22.0395   21.0492 O   0  0  0  0  0  0  0  0  0  1  0  0
  -20.7180  -31.5711   33.3419 F   0  0  0  0  0  0  0  0  0  0  0  0
  -22.7252  -27.2845   33.3010 F   0  0  0  0  0  0  0  0  0  0  0  0
  1  2  1  0  0  0  0
  1  5  2  0  0  0  0
  2  6  2  0  0  0  0
  3  8  2  0  0  0  0
  3 15  1  0  0  0  0
  4  9  1  0  0  0  0
  4 15  2  0  0  0  0
  5 17  1  0  0  0  0
  6 19  1  0  0  0  0
  7 10  2  0  0  0  0
  7 18  1  0  0  0  0
  8 24  1  0  0  0  0
  9 24  2  0  0  0  0
 10 25  1  0  0  0  0
 11 12  2  0  0  0  0
 11 26  1  0  0  0  0
 12 27  1  0  0  0  0
 13 20  1  0  0  0  0
 13 25  2  0  0  0  0
 14 27  2  0  0  0  0
 14 28  1  0  0  0  0
 15 29  1  0  0  0  0
 16 29  1  0  0  0  0
 16 32  2  0  0  0  0
 16 33  1  0  0  0  0
 17 19  2  0  0  0  0
 17 38  1  0  0  0  0
 18 20  2  0  0  0  0
 18 39  1  0  0  0  0
 19 52  1  0  0  0  0
 20 40  1  0  0  0  0
 21 22  1  0  0  0  0
 21 30  2  0  0  0  0
 21 51  1  0  0  0  0
 22 23  2  0  0  0  0
 22 57  1  0  0  0  0
 23 31  1  0  0  0  0
 23 67  1  0  0  0  0
 24 88  1  0  0  0  0
 25 89  1  0  0  0  0
 26 28  2  0  0  0  0
 26 88  1  0  0  0  0
 27 90  1  0  0  0  0
 28 91  1  0  0  0  0
 29 71  2  0  0  0  0
 30 58  1  0  0  0  0
 30 72  1  0  0  0  0
 31 59  1  0  0  0  0
 31 72  2  0  0  0  0
 32 73  1  0  0  0  0
 32 77  1  0  0  0  0
 33 78  1  0  0  0  0
 33 83  2  0  0  0  0
 34 53  1  0  0  0  0
 34 79  1  0  0  0  0
 34 84  2  0  0  0  0
 35 68  1  0  0  0  0
 35 74  1  0  0  0  0
 35 85  2  0  0  0  0
 36 69  1  0  0  0  0
 36 80  1  0  0  0  0
 36 86  2  0  0  0  0
 37 75  1  0  0  0  0
 37 76  1  0  0  0  0
 37 87  2  0  0  0  0
 38 41  1  0  0  0  0
 39 53  1  0  0  0  0
 40 74  1  0  0  0  0
 41 43  1  0  0  0  0
 42 44  1  0  0  0  0
 42 46  1  0  0  0  0
 43 52  1  0  0  0  0
 44 54  1  0  0  0  0
 45 50  1  0  0  0  0
 45 51  1  0  0  0  0
 46 75  1  0  0  0  0
 47 54  1  0  0  0  0
 47 75  1  0  0  0  0
 48 56  1  0  0  0  0
 48 76  1  0  0  0  0
 49 56  1  0  0  0  0
 49 76  1  0  0  0  0
 50 81  1  0  0  0  0
 51 55  1  0  0  0  0
 52 79  1  0  0  0  0
 53 74  1  0  0  0  0
 54 73  1  0  0  0  0
 55 56  1  0  0  0  0
 55 81  1  0  0  0  0
 56 60  1  0  0  0  0
 61 69  1  0  0  0  0
 62 70  1  0  0  0  0
 63 70  1  0  0  0  0
 64 70  1  0  0  0  0
 65 81  1  0  0  0  0
 66 82  1  0  0  0  0
 67 89  1  0  0  0  0
 68 70  1  0  0  0  0
 68 80  1  0  0  0  0
 69 82  1  0  0  0  0
 71 73  1  0  0  0  0
M  CHG  2  81   1  82   1
M  ISO  4  37 100  67 101  76 100  89 101
M  END
> <Batch ID>
0166

> <Smiles>
CNC(C)C(=O)NC(C(=O)N1Cc2cc([101O:1][101CH2:1]c3c(C)nc(C)c(C4CCN(C)C4C4(C)C[100N:0]([100C:0](=O)N5CCCC(n6nc(-c7ccc(Oc8ccc(F)cc8F)cc7)c(C(N)=O)c6N)C5)C4)c3C)ccc2CC1C(=O)NC1CCCc2ccccc21)C(C)(C)C

> <Shape>
0.203

> <Color>
0.051

> <Negative vol penalty>
0.000

$$$$

  -OEChem-04052322243D

 87 97  0     1  0  0  0  0  0999 V2000
  -24.5605  -32.9612   26.9912 C   0  0  0  0  0  0  0  0  0  0  0  0
  -24.0505  -32.8805   25.6994 C   0  0  0  0  0  0  0  0  0  0  0  0
  -22.4661  -15.7891   21.1890 C   0  0  0  0  0  0  0  0  0  0  0  0
  -22.0763  -14.5351   19.1610 C   0  0  0  0  0  0  0  0  0  0  0  0
  -25.9270  -32.7939   27.2116 C   0  0  0  0  0  0  0  0  0  0  0  0
  -24.9069  -32.6336   24.6270 C   0  0  0  0  0  0  0  0  0  0  0  0
  -27.5160  -22.7853   19.2035 C   0  0  0  0  0  0  0  0  0  0  0  0
  -23.9575  -26.9034   20.3661 C   0  0  0  0  0  0  0  0  0  0  0  0
  -21.2804  -16.4938   20.9811 C   0  0  0  0  0  0  0  0  0  0  0  0
  -20.8907  -15.2398   18.9532 C   0  0  0  0  0  0  0  0  0  0  0  0
  -28.3875  -21.9772   19.9335 C   0  0  0  0  0  0  0  0  0  0  0  0
  -23.7169  -25.9467   19.3798 C   0  0  0  0  0  0  0  0  0  0  0  0
  -18.1738  -18.3716   21.1750 C   0  0  0  0  0  0  0  0  0  0  0  0
  -17.3263  -18.5518   22.2681 C   0  0  0  0  0  0  0  0  0  0  0  0
  -27.9035  -21.4303   17.2410 C   0  0  0  0  0  0  0  0  0  0  0  0
  -25.7274  -26.6229   18.2184 C   0  0  0  0  0  0  0  0  0  0  0  0
  -17.1181  -16.1561   22.5016 C   0  0  0  0  0  0  0  0  0  0  0  0
  -22.8641  -14.8098   20.2789 C   0  0  0  0  0  0  0  0  0  0  0  0
  -24.2495  -12.8786   21.2057 C   0  0  0  0  0  0  0  0  0  0  0  0
  -27.2739  -22.5118   17.8572 C   0  0  0  0  0  0  0  0  0  0  0  0
  -26.7993  -32.5353   26.1425 C   0  0  0  0  0  0  0  0  0  0  0  0
  -25.0936  -27.7140   20.2904 C   0  0  0  0  0  0  0  0  0  0  0  0
  -26.2866  -32.4641   24.8331 C   0  0  0  0  0  0  0  0  0  0  0  0
  -25.9803  -27.5744   19.2101 C   0  0  0  0  0  0  0  0  0  0  0  0
  -28.7751  -20.6222   17.9711 C   0  0  0  0  0  0  0  0  0  0  0  0
  -20.4927  -16.2192   19.8632 C   0  0  0  0  0  0  0  0  0  0  0  0
  -24.5995  -25.8070   18.3084 C   0  0  0  0  0  0  0  0  0  0  0  0
  -29.0171  -20.8957   19.3174 C   0  0  0  0  0  0  0  0  0  0  0  0
  -18.4934  -17.0837   20.7451 C   0  0  0  0  0  0  0  0  0  0  0  0
  -16.7985  -17.4440   22.9314 C   0  0  0  0  0  0  0  0  0  0  0  0
  -17.9656  -15.9759   21.4084 C   0  0  0  0  0  0  0  0  0  0  0  0
  -24.0890  -14.0819   20.4928 C   0  0  0  0  0  0  0  0  0  0  0  0
  -25.5922  -12.6034   21.1169 C   0  0  0  0  0  0  0  0  0  0  0  0
  -23.2722  -12.0811   21.8873 C   0  0  0  0  0  0  0  0  0  0  0  0
  -27.1296  -30.4517   21.8511 C   0  0  0  0  0  0  0  0  0  0  0  0
  -29.1098  -28.3627   20.7902 C   0  0  0  0  0  0  0  0  0  0  0  0
  -30.9325  -25.6336   19.8593 C   0  0  0  0  0  0  0  0  0  0  0  0
  -30.3865  -16.0696   20.2205 C   0  0  0  0  0  0  0  0  0  0  0  0
  -28.2755  -32.4085   26.4244 C   0  0  0  0  0  0  0  0  0  0  0  0
  -25.3603  -28.7995   21.2976 C   0  0  0  0  0  0  0  0  0  0  0  0
  -27.1710  -28.4918   19.1515 C   0  0  0  0  0  0  0  0  0  0  0  0
  -29.0625  -31.7778   25.2785 C   0  0  0  0  0  0  0  0  0  0  0  0
  -29.3872  -13.2737   18.3093 C   0  0  0  0  0  0  0  0  0  0  0  0
  -28.6653  -32.4084   23.9475 C   0  0  0  0  0  0  0  0  0  0  0  0
  -27.9236  -13.0623   18.6866 C   0  0  0  0  0  0  0  0  0  0  0  0
  -30.4103  -19.1853   22.2208 C   0  0  0  0  0  0  0  0  0  0  0  0
  -25.1835  -22.7370   16.3555 C   0  0  0  0  0  0  0  0  0  0  0  0
  -29.7176  -14.7584   18.2375 C   0  0  0  0  0  0  0  0  0  0  0  0
  -31.0928  -17.9358   21.6832 C   0  0  0  0  0  0  0  0  0  0  0  0
  -27.9856  -15.2851   19.9322 C   0  0  0  0  0  0  0  0  0  0  0  0
  -28.8657  -18.0590   20.7884 C   0  0  0  0  0  0  0  0  0  0  0  0
  -26.3425  -23.3748   17.0774 C   0  0  1  0  0  0  0  0  0  0  0  0
  -27.1801  -32.1731   23.6470 C   0  0  1  0  0  0  0  0  0  0  0  0
  -26.8588  -28.9998   21.5865 C   0  0  1  0  0  0  0  0  0  0  0  0
  -27.5898  -13.7953   19.9952 C   0  0  1  0  0  0  0  0  0  0  0  0
  -29.3237  -19.4570   21.1860 C   0  0  2  0  0  0  0  0  0  0  0  0
  -24.9314  -23.5671   17.5769 C   0  0  1  0  0  0  0  0  0  1  0  0
  -30.8978  -19.7621   16.9510 C   0  0  0  0  0  0  0  0  0  0  0  0
  -32.9447  -24.1581   19.5924 C   0  0  0  0  0  0  0  0  0  0  0  0
  -29.6207  -30.1183   18.3488 C   0  0  0  0  0  0  0  0  0  0  0  0
  -31.5131  -28.5968   17.7389 C   0  0  0  0  0  0  0  0  0  0  0  0
  -31.5796  -29.8693   19.8835 C   0  0  0  0  0  0  0  0  0  0  0  0
  -30.5016  -24.3714   22.5014 C   0  0  0  0  0  0  0  0  0  0  0  0
  -29.4405  -19.4690   17.2954 C   0  0  0  0  0  0  0  0  0  0  0  0
  -29.9889  -27.9182   19.6488 C   0  0  1  0  0  0  0  0  0  0  0  0
  -32.0199  -24.8553   20.5780 C   0  0  2  0  0  0  0  0  0  0  0  0
  -30.6493  -29.1154   18.9084 C   0  0  0  0  0  0  0  0  0  0  0  0
  -25.2380  -14.5395   19.9884 N   0  0  0  0  0  0  0  0  0  0  0  0
  -26.1333  -13.6190   20.3850 N   0  0  0  0  0  0  0  0  0  0  0  0
  -27.7679  -28.6262   20.4896 N   0  0  0  0  0  0  0  0  0  0  0  0
  -29.3726  -15.4525   19.4795 N   0  0  0  0  0  0  0  0  0  0  0  0
  -30.0635  -17.2240   20.9334 N   0  0  0  0  0  0  0  0  0  0  0  0
  -26.3509  -11.5940   21.5944 N   0  0  0  0  0  0  0  0  0  0  0  0
  -21.9376  -12.5091   21.8800 N   0  0  0  0  0  0  0  0  0  0  0  0
  -26.9683  -30.8224   23.1725 N   0  0  0  0  0  0  0  0  0  0  0  0
  -30.9399  -26.9664   20.2127 N   0  0  0  0  0  0  0  0  0  0  0  0
  -31.4164  -23.8229   21.4673 N   0  3  0  0  0  0  0  0  0  0  0  0
  -23.5762  -11.0289   22.4989 O   0  0  0  0  0  0  0  0  0  0  0  0
  -27.4620  -31.1828   20.9255 O   0  0  0  0  0  0  0  0  0  0  0  0
  -29.5982  -28.4795   21.9176 O   0  0  0  0  0  0  0  0  0  0  0  0
  -30.1567  -25.1121   19.0614 O   0  0  0  0  0  0  0  0  0  0  0  0
  -31.5452  -15.6325   20.2123 O   0  0  0  0  0  0  0  0  0  0  0  0
  -19.3356  -16.9065   19.6602 O   0  0  0  0  0  0  0  0  0  0  0  0
  -24.3605  -24.8659   17.3493 O   0  0  0  0  0  0  0  0  0  1  0  0
  -29.8710  -20.1127   20.0490 O   0  0  0  0  0  0  0  0  0  0  0  0
  -15.9859  -17.6172   23.9820 F   0  0  0  0  0  0  0  0  0  0  0  0
  -18.2700  -14.7362   21.0008 F   0  0  0  0  0  0  0  0  0  0  0  0
  1  2  1  0  0  0  0
  1  5  2  0  0  0  0
  2  6  2  0  0  0  0
  3  9  2  0  0  0  0
  3 18  1  0  0  0  0
  4 10  1  0  0  0  0
  4 18  2  0  0  0  0
  5 21  1  0  0  0  0
  6 23  1  0  0  0  0
  7 11  2  0  0  0  0
  7 20  1  0  0  0  0
  8 12  2  0  0  0  0
  8 22  1  0  0  0  0
  9 26  1  0  0  0  0
 10 26  2  0  0  0  0
 11 28  1  0  0  0  0
 12 27  1  0  0  0  0
 13 14  2  0  0  0  0
 13 29  1  0  0  0  0
 14 30  1  0  0  0  0
 15 20  2  0  0  0  0
 15 25  1  0  0  0  0
 16 24  1  0  0  0  0
 16 27  2  0  0  0  0
 17 30  2  0  0  0  0
 17 31  1  0  0  0  0
 18 32  1  0  0  0  0
 19 32  1  0  0  0  0
 19 33  2  0  0  0  0
 19 34  1  0  0  0  0
 20 52  1  0  0  0  0
 21 23  2  0  0  0  0
 21 39  1  0  0  0  0
 22 24  2  0  0  0  0
 22 40  1  0  0  0  0
 23 53  1  0  0  0  0
 24 41  1  0  0  0  0
 25 28  2  0  0  0  0
 25 64  1  0  0  0  0
 26 83  1  0  0  0  0
 27 84  1  0  0  0  0
 28 85  1  0  0  0  0
 29 31  2  0  0  0  0
 29 83  1  0  0  0  0
 30 86  1  0  0  0  0
 31 87  1  0  0  0  0
 32 68  2  0  0  0  0
 33 69  1  0  0  0  0
 33 73  1  0  0  0  0
 34 74  1  0  0  0  0
 34 78  2  0  0  0  0
 35 54  1  0  0  0  0
 35 75  1  0  0  0  0
 35 79  2  0  0  0  0
 36 65  1  0  0  0  0
 36 70  1  0  0  0  0
 36 80  2  0  0  0  0
 37 66  1  0  0  0  0
 37 76  1  0  0  0  0
 37 81  2  0  0  0  0
 38 71  1  0  0  0  0
 38 72  1  0  0  0  0
 38 82  2  0  0  0  0
 39 42  1  0  0  0  0
 40 54  1  0  0  0  0
 41 70  1  0  0  0  0
 42 44  1  0  0  0  0
 43 45  1  0  0  0  0
 43 48  1  0  0  0  0
 44 53  1  0  0  0  0
 45 55  1  0  0  0  0
 46 49  1  0  0  0  0
 46 56  1  0  0  0  0
 47 52  1  0  0  0  0
 47 57  1  0  0  0  0
 48 71  1  0  0  0  0
 49 72  1  0  0  0  0
 50 55  1  0  0  0  0
 50 71  1  0  0  0  0
 51 56  1  0  0  0  0
 51 72  1  0  0  0  0
 52 57  1  0  0  0  0
 53 75  1  0  0  0  0
 54 70  1  0  0  0  0
 55 69  1  0  0  0  0
 56 85  1  0  0  0  0
 57 84  1  0  0  0  0
 58 64  1  0  0  0  0
 59 66  1  0  0  0  0
 60 67  1  0  0  0  0
 61 67  1  0  0  0  0
 62 67  1  0  0  0  0
 63 77  1  0  0  0  0
 65 67  1  0  0  0  0
 65 76  1  0  0  0  0
 66 77  1  0  0  0  0
 68 69  1  0  0  0  0
M  CHG  1  77   1
M  ISO  4  38 100  57 101  72 100  84 101
M  END
> <Batch ID>
0166

> <Smiles>
CCc1cc(C2C[101CH:1]2[101O:1]c2ccc3c(c2)CN(C(=O)C(NC(=O)C(C)NC)C(C)(C)C)C(C(=O)NC2CCCc4ccccc42)C3)ccc1OC1CC[100N:0]([100C:0](=O)N2CCCC(n3nc(-c4ccc(Oc5ccc(F)cc5F)cc4)c(C(N)=O)c3N)C2)C1

> <Shape>
0.264

> <Color>
0.092

> <Negative vol penalty>
0.000

$$$$

  -OEChem-04052322243D

 97110  0     1  0  0  0  0  0999 V2000
  -32.6621  -27.4033   16.1712 C   0  0  0  0  0  0  0  0  0  0  0  0
  -31.7646  -26.6354   16.9062 C   0  0  0  0  0  0  0  0  0  0  0  0
  -22.2658  -17.4280   25.8321 C   0  0  0  0  0  0  0  0  0  0  0  0
  -23.0660  -18.9779   24.1604 C   0  0  0  0  0  0  0  0  0  0  0  0
  -33.0345  -28.6666   16.6285 C   0  0  0  0  0  0  0  0  0  0  0  0
  -31.2397  -27.1301   18.0997 C   0  0  0  0  0  0  0  0  0  0  0  0
  -30.1399  -15.7519   18.9610 C   0  0  0  0  0  0  0  0  0  0  0  0
  -26.2493  -26.3645   18.4923 C   0  0  0  0  0  0  0  0  0  0  0  0
  -29.7411  -17.0308   19.3497 C   0  0  0  0  0  0  0  0  0  0  0  0
  -22.4155  -18.4085   26.8128 C   0  0  0  0  0  0  0  0  0  0  0  0
  -23.2156  -19.9584   25.1411 C   0  0  0  0  0  0  0  0  0  0  0  0
  -25.8275  -25.0836   18.8462 C   0  0  0  0  0  0  0  0  0  0  0  0
  -24.9315  -19.7574   28.6223 C   0  0  0  0  0  0  0  0  0  0  0  0
  -25.5315  -19.3840   29.8249 C   0  0  0  0  0  0  0  0  0  0  0  0
  -25.5197  -25.8204   21.1225 C   0  0  0  0  0  0  0  0  0  0  0  0
  -23.5301  -20.0180   31.0204 C   0  0  0  0  0  0  0  0  0  0  0  0
  -22.5912  -17.7126   24.5059 C   0  0  0  0  0  0  0  0  0  0  0  0
  -21.2946  -16.4467   22.7104 C   0  0  0  0  0  0  0  0  0  0  0  0
  -32.5065  -29.1810   17.8232 C   0  0  0  0  0  0  0  0  0  0  0  0
  -26.3199  -27.3819   19.4548 C   0  0  0  0  0  0  0  0  0  0  0  0
  -30.4514  -14.7948   19.9268 C   0  0  0  0  0  0  0  0  0  0  0  0
  -31.6065  -28.4010   18.5740 C   0  0  0  0  0  0  0  0  0  0  0  0
  -25.9403  -27.1140   20.7778 C   0  0  0  0  0  0  0  0  0  0  0  0
  -30.3642  -15.1168   21.2812 C   0  0  0  0  0  0  0  0  0  0  0  0
  -29.9655  -16.3957   21.6699 C   0  0  0  0  0  0  0  0  0  0  0  0
  -29.6540  -17.3527   20.7041 C   0  0  0  0  0  0  0  0  0  0  0  0
  -22.8903  -19.6737   26.4673 C   0  0  0  0  0  0  0  0  0  0  0  0
  -25.4654  -24.8106   20.1621 C   0  0  0  0  0  0  0  0  0  0  0  0
  -23.6308  -20.2613   28.6188 C   0  0  0  0  0  0  0  0  0  0  0  0
  -24.8308  -19.5143   31.0239 C   0  0  0  0  0  0  0  0  0  0  0  0
  -22.9301  -20.3915   29.8178 C   0  0  0  0  0  0  0  0  0  0  0  0
  -22.4374  -16.7000   23.4925 C   0  0  0  0  0  0  0  0  0  0  0  0
  -21.6557  -15.3937   21.9058 C   0  0  0  0  0  0  0  0  0  0  0  0
  -20.0206  -17.1044   22.7111 C   0  0  0  0  0  0  0  0  0  0  0  0
  -28.6531  -29.1765   20.6547 C   0  0  0  0  0  0  0  0  0  0  0  0
  -26.1999  -30.6696   22.1630 C   0  0  0  0  0  0  0  0  0  0  0  0
  -23.0044  -30.5136   23.3509 C   0  0  0  0  0  0  0  0  0  0  0  0
  -26.8263  -13.5859   19.8734 C   0  0  0  0  0  0  0  0  0  0  0  0
  -32.9752  -30.5325   18.3014 C   0  0  0  0  0  0  0  0  0  0  0  0
  -26.7514  -28.7651   19.0514 C   0  0  0  0  0  0  0  0  0  0  0  0
  -25.9790  -28.1765   21.8445 C   0  0  0  0  0  0  0  0  0  0  0  0
  -32.0855  -31.1376   19.3842 C   0  0  0  0  0  0  0  0  0  0  0  0
  -24.5293  -11.5867   21.7620 C   0  0  0  0  0  0  0  0  0  0  0  0
  -31.7422  -14.4071   23.3480 C   0  0  0  0  0  0  0  0  0  0  0  0
  -32.0412  -13.4157   22.2673 C   0  0  0  0  0  0  0  0  0  0  0  0
  -29.0132  -15.8925   24.0180 C   0  0  0  0  0  0  0  0  0  0  0  0
  -28.5735  -17.2779   23.6605 C   0  0  0  0  0  0  0  0  0  0  0  0
  -31.7661  -30.0990   20.4548 C   0  0  0  0  0  0  0  0  0  0  0  0
  -23.6347  -12.6602   22.3769 C   0  0  0  0  0  0  0  0  0  0  0  0
  -29.0450  -21.0766   20.7128 C   0  0  0  0  0  0  0  0  0  0  0  0
  -27.5192  -19.4484   19.5288 C   0  0  0  0  0  0  0  0  0  0  0  0
  -25.9943  -12.0222   21.6918 C   0  0  0  0  0  0  0  0  0  0  0  0
  -28.8171  -12.1407   20.5881 C   0  0  0  0  0  0  0  0  0  0  0  0
  -28.5772  -12.8214   18.2829 C   0  0  0  0  0  0  0  0  0  0  0  0
  -25.2972  -14.4005   21.6354 C   0  0  0  0  0  0  0  0  0  0  0  0
  -27.9211  -21.4076   21.6881 C   0  0  0  0  0  0  0  0  0  0  0  0
  -26.4109  -19.7831   20.5198 C   0  0  0  0  0  0  0  0  0  0  0  0
  -30.8774  -13.4155   19.4776 C   0  0  0  0  0  0  0  0  0  0  0  0
  -30.6968  -14.0875   22.3155 C   0  0  0  0  0  0  0  0  0  0  0  0
  -29.8716  -16.7426   23.1234 C   0  0  0  0  0  0  0  0  0  0  0  0
  -30.9964  -28.9132   19.8608 C   0  0  1  0  0  0  0  0  0  0  0  0
  -27.2759  -29.5924   20.2210 C   0  0  1  0  0  0  0  0  0  0  0  0
  -30.1808  -12.1590   19.9652 C   0  0  2  0  0  0  0  0  0  0  0  0
  -30.0300  -12.5713   18.5433 C   0  0  1  0  0  0  0  0  0  0  0  0
  -23.8150  -14.0018   21.6479 C   0  0  2  0  0  0  0  0  0  0  0  0
  -28.9167  -19.6761   20.1084 C   0  0  0  0  0  0  0  0  0  0  0  0
  -21.2871  -31.8785   24.5696 C   0  0  0  0  0  0  0  0  0  0  0  0
  -27.6912  -30.2016   24.7835 C   0  0  0  0  0  0  0  0  0  0  0  0
  -25.5625  -30.7008   26.0033 C   0  0  0  0  0  0  0  0  0  0  0  0
  -26.6224  -32.4533   24.5792 C   0  0  0  0  0  0  0  0  0  0  0  0
  -21.1171  -30.3837   21.0750 C   0  0  0  0  0  0  0  0  0  0  0  0
  -25.4465  -21.6277   21.8917 C   0  0  0  0  0  0  0  0  0  0  0  0
  -25.3186  -23.1376   21.8459 C   0  0  0  0  0  0  0  0  0  1  0  0
  -25.4818  -30.4840   23.4779 C   0  0  1  0  0  0  0  0  0  0  0  0
  -21.8300  -31.4652   23.2105 C   0  0  2  0  0  0  0  0  0  0  0  0
  -26.3405  -30.9392   24.6915 C   0  0  0  0  0  0  0  0  0  0  0  0
  -23.4487  -15.8743   23.2104 N   0  0  0  0  0  0  0  0  0  0  0  0
  -22.9425  -15.0919   22.2421 N   0  0  0  0  0  0  0  0  0  0  0  0
  -26.4138  -29.5117   21.4019 N   0  0  0  0  0  0  0  0  0  0  0  0
  -26.1306  -13.3404   21.0626 N   0  0  0  0  0  0  0  0  0  0  0  0
  -27.9460  -12.7960   19.6038 N   0  0  0  0  0  0  0  0  0  0  0  0
  -20.9948  -14.7058   20.9506 N   0  0  0  0  0  0  0  0  0  0  0  0
  -19.8182  -18.1679   23.6012 N   0  0  0  0  0  0  0  0  0  0  0  0
  -29.2486  -18.6542   21.0747 N   0  0  0  0  0  0  0  0  0  0  0  0
  -29.6067  -29.2630   19.6584 N   0  0  0  0  0  0  0  0  0  0  0  0
  -24.2087  -31.1851   23.3502 N   0  0  0  0  0  0  0  0  0  0  0  0
  -26.5883  -21.1992   21.0113 N   0  3  0  0  0  0  0  0  0  0  0  0
  -20.7291  -30.8194   22.4412 N   0  3  0  0  0  0  0  0  0  0  0  0
  -19.0838  -16.7487   21.9565 O   0  0  0  0  0  0  0  0  0  0  0  0
  -28.8371  -28.8060   21.8082 O   0  0  0  0  0  0  0  0  0  0  0  0
  -26.5516  -31.8012   21.8205 O   0  0  0  0  0  0  0  0  0  0  0  0
  -22.8669  -29.2967   23.4549 O   0  0  0  0  0  0  0  0  0  0  0  0
  -26.4896  -14.5028   19.1127 O   0  0  0  0  0  0  0  0  0  0  0  0
  -23.0362  -20.6308   27.4240 O   0  0  0  0  0  0  0  0  0  0  0  0
  -25.0511  -23.5521   20.5128 O   0  0  0  0  0  0  0  0  0  1  0  0
  -25.4066  -19.1542   32.1785 F   0  0  0  0  0  0  0  0  0  0  0  0
  -21.6798  -20.8738   29.8206 F   0  0  0  0  0  0  0  0  0  0  0  0
  1  2  1  0  0  0  0
  1  5  2  0  0  0  0
  2  6  2  0  0  0  0
  3 10  2  0  0  0  0
  3 17  1  0  0  0  0
  4 11  1  0  0  0  0
  4 17  2  0  0  0  0
  5 19  1  0  0  0  0
  6 22  1  0  0  0  0
  7  9  2  0  0  0  0
  7 21  1  0  0  0  0
  8 12  2  0  0  0  0
  8 20  1  0  0  0  0
  9 26  1  0  0  0  0
 10 27  1  0  0  0  0
 11 27  2  0  0  0  0
 12 28  1  0  0  0  0
 13 14  2  0  0  0  0
 13 29  1  0  0  0  0
 14 30  1  0  0  0  0
 15 23  1  0  0  0  0
 15 28  2  0  0  0  0
 16 30  2  0  0  0  0
 16 31  1  0  0  0  0
 17 32  1  0  0  0  0
 18 32  1  0  0  0  0
 18 33  2  0  0  0  0
 18 34  1  0  0  0  0
 19 22  2  0  0  0  0
 19 39  1  0  0  0  0
 20 23  2  0  0  0  0
 20 40  1  0  0  0  0
 21 24  2  0  0  0  0
 21 58  1  0  0  0  0
 22 61  1  0  0  0  0
 23 41  1  0  0  0  0
 24 25  1  0  0  0  0
 24 59  1  0  0  0  0
 25 26  2  0  0  0  0
 25 60  1  0  0  0  0
 26 84  1  0  0  0  0
 27 94  1  0  0  0  0
 28 95  1  0  0  0  0
 29 31  2  0  0  0  0
 29 94  1  0  0  0  0
 30 96  1  0  0  0  0
 31 97  1  0  0  0  0
 32 77  2  0  0  0  0
 33 78  1  0  0  0  0
 33 82  1  0  0  0  0
 34 83  1  0  0  0  0
 34 89  2  0  0  0  0
 35 62  1  0  0  0  0
 35 85  1  0  0  0  0
 35 90  2  0  0  0  0
 36 74  1  0  0  0  0
 36 79  1  0  0  0  0
 36 91  2  0  0  0  0
 37 75  1  0  0  0  0
 37 86  1  0  0  0  0
 37 92  2  0  0  0  0
 38 80  1  0  0  0  0
 38 81  1  0  0  0  0
 38 93  2  0  0  0  0
 39 42  1  0  0  0  0
 40 62  1  0  0  0  0
 41 79  1  0  0  0  0
 42 48  1  0  0  0  0
 43 49  1  0  0  0  0
 43 52  1  0  0  0  0
 44 45  1  0  0  0  0
 44 59  1  0  0  0  0
 45 59  1  0  0  0  0
 46 47  1  0  0  0  0
 46 60  1  0  0  0  0
 47 60  1  0  0  0  0
 48 61  1  0  0  0  0
 49 65  1  0  0  0  0
 50 56  1  0  0  0  0
 50 66  1  0  0  0  0
 51 57  1  0  0  0  0
 51 66  1  0  0  0  0
 52 80  1  0  0  0  0
 53 63  1  0  0  0  0
 53 81  1  0  0  0  0
 54 64  1  0  0  0  0
 54 81  1  0  0  0  0
 55 65  1  0  0  0  0
 55 80  1  0  0  0  0
 56 87  1  0  0  0  0
 57 87  1  0  0  0  0
 58 63  1  0  0  0  0
 58 64  1  0  0  0  0
 61 85  1  0  0  0  0
 62 79  1  0  0  0  0
 63 64  1  0  0  0  0
 65 78  1  0  0  0  0
 66 84  1  0  0  0  0
 67 75  1  0  0  0  0
 68 76  1  0  0  0  0
 69 76  1  0  0  0  0
 70 76  1  0  0  0  0
 71 88  1  0  0  0  0
 72 73  1  0  0  0  0
 72 87  1  0  0  0  0
 73 95  1  0  0  0  0
 74 76  1  0  0  0  0
 74 86  1  0  0  0  0
 75 88  1  0  0  0  0
 77 78  1  0  0  0  0
M  CHG  2  87   1  88   1
M  ISO  4  38 100  73 101  81 100  95 101
M  END
> <Batch ID>
0166

> <Smiles>
CNC(C)C(=O)NC(C(=O)N1Cc2cc([101O:1][101CH2:1]CN3CCC(Nc4ccc(C5C6C[100N:0]([100C:0](=O)N7CCCC(n8nc(-c9ccc(Oc%10ccc(F)cc%10F)cc9)c(C(N)=O)c8N)C7)CC65)c(C5CC5)c4C4CC4)CC3)ccc2CC1C(=O)NC1CCCc2ccccc21)C(C)(C)C

> <Shape>
0.251

> <Color>
0.076

> <Negative vol penalty>
0.000

$$$$

  -OEChem-04052322243D

 90100  0     1  0  0  0  0  0999 V2000
  -29.9598  -23.4176   21.1097 C   0  0  0  0  0  0  0  0  0  0  0  0
  -28.7667  -22.7048   21.1725 C   0  0  0  0  0  0  0  0  0  0  0  0
  -24.6188  -28.4953   21.3021 C   0  0  0  0  0  0  0  0  0  0  0  0
  -23.6013  -30.2251   19.9569 C   0  0  0  0  0  0  0  0  0  0  0  0
  -31.0225  -22.9303   20.3501 C   0  0  0  0  0  0  0  0  0  0  0  0
  -28.6353  -21.5047   20.4747 C   0  0  0  0  0  0  0  0  0  0  0  0
  -25.4602  -16.5645   22.2122 C   0  0  0  0  0  0  0  0  0  0  0  0
  -25.6252  -29.3830   21.6825 C   0  0  0  0  0  0  0  0  0  0  0  0
  -24.6077  -31.1129   20.3374 C   0  0  0  0  0  0  0  0  0  0  0  0
  -24.1890  -16.1007   21.8765 C   0  0  0  0  0  0  0  0  0  0  0  0
  -28.2616  -31.2982   23.2938 C   0  0  0  0  0  0  0  0  0  0  0  0
  -28.6184  -31.3351   24.6417 C   0  0  0  0  0  0  0  0  0  0  0  0
  -19.1234  -14.0424   17.2096 C   0  0  0  0  0  0  0  0  0  0  0  0
  -19.3619  -15.8092   15.0160 C   0  0  0  0  0  0  0  0  0  0  0  0
  -25.1626  -14.6618   20.2030 C   0  0  0  0  0  0  0  0  0  0  0  0
  -26.3601  -31.9679   25.2221 C   0  0  0  0  0  0  0  0  0  0  0  0
  -23.6069  -28.9163   20.4392 C   0  0  0  0  0  0  0  0  0  0  0  0
  -21.3371  -27.7801   20.6935 C   0  0  0  0  0  0  0  0  0  0  0  0
  -30.9074  -21.7187   19.6504 C   0  0  0  0  0  0  0  0  0  0  0  0
  -26.5931  -16.0877   21.5372 C   0  0  0  0  0  0  0  0  0  0  0  0
  -29.6970  -21.0014   19.7039 C   0  0  0  0  0  0  0  0  0  0  0  0
  -20.0552  -15.0690   17.2226 C   0  0  0  0  0  0  0  0  0  0  0  0
  -20.1714  -15.9461   16.1326 C   0  0  0  0  0  0  0  0  0  0  0  0
  -26.4473  -15.1193   20.5338 C   0  0  0  0  0  0  0  0  0  0  0  0
  -18.2943  -13.9088   16.0936 C   0  0  0  0  0  0  0  0  0  0  0  0
  -18.4127  -14.7856   15.0050 C   0  0  0  0  0  0  0  0  0  0  0  0
  -25.6196  -30.6918   21.2002 C   0  0  0  0  0  0  0  0  0  0  0  0
  -24.0398  -15.1513   20.8698 C   0  0  0  0  0  0  0  0  0  0  0  0
  -26.9541  -31.5963   22.9100 C   0  0  0  0  0  0  0  0  0  0  0  0
  -27.6677  -31.6699   25.6059 C   0  0  0  0  0  0  0  0  0  0  0  0
  -26.0034  -31.9311   23.8741 C   0  0  0  0  0  0  0  0  0  0  0  0
  -22.5674  -27.9996   20.0454 C   0  0  0  0  0  0  0  0  0  0  0  0
  -20.7138  -26.8222   19.9317 C   0  0  0  0  0  0  0  0  0  0  0  0
  -20.8052  -28.3879   21.8782 C   0  0  0  0  0  0  0  0  0  0  0  0
  -28.8406  -17.4071   19.7174 C   0  0  0  0  0  0  0  0  0  0  0  0
  -30.1526  -14.4442   19.8680 C   0  0  0  0  0  0  0  0  0  0  0  0
  -29.6995  -11.0960   20.3484 C   0  0  0  0  0  0  0  0  0  0  0  0
  -20.6294  -22.2135   17.1798 C   0  0  0  0  0  0  0  0  0  0  0  0
  -32.0671  -21.2559   18.8045 C   0  0  0  0  0  0  0  0  0  0  0  0
  -27.9597  -16.5784   21.9295 C   0  0  0  0  0  0  0  0  0  0  0  0
  -27.6334  -14.5604   19.7927 C   0  0  0  0  0  0  0  0  0  0  0  0
  -31.9758  -19.7877   18.3966 C   0  0  0  0  0  0  0  0  0  0  0  0
  -21.8552  -24.9667   15.3742 C   0  0  0  0  0  0  0  0  0  0  0  0
  -30.5757  -19.4614   17.8868 C   0  0  0  0  0  0  0  0  0  0  0  0
  -22.0549  -25.9948   16.4874 C   0  0  0  0  0  0  0  0  0  0  0  0
  -21.4251  -16.8538   17.8955 C   0  0  0  0  0  0  0  0  0  0  0  0
  -22.2794  -23.5624   15.8077 C   0  0  0  0  0  0  0  0  0  0  0  0
  -21.9017  -20.6401   15.6534 C   0  0  0  0  0  0  0  0  0  0  0  0
  -19.4995  -20.2945   16.0980 C   0  0  0  0  0  0  0  0  0  0  0  0
  -21.8408  -24.1311   18.1748 C   0  0  0  0  0  0  0  0  0  0  0  0
  -22.2071  -19.2332   16.1573 C   0  0  0  0  0  0  0  0  0  0  0  0
  -19.7699  -18.8967   16.6304 C   0  0  0  0  0  0  0  0  0  0  0  0
  -21.0799  -15.3970   18.2760 C   0  0  1  0  0  0  0  0  0  0  0  0
  -29.5245  -19.6832   18.9809 C   0  0  1  0  0  0  0  0  0  0  0  0
  -21.2788  -16.9269   16.3666 C   0  0  2  0  0  0  0  0  0  0  0  0
  -28.9972  -16.4036   20.8248 C   0  0  1  0  0  0  0  0  0  0  0  0
  -21.3682  -25.5410   17.7878 C   0  0  1  0  0  0  0  0  0  0  0  0
  -17.2833  -12.8080   16.0775 C   0  0  0  0  0  0  0  0  0  0  0  0
  -17.5303  -14.6364   13.8080 C   0  0  0  0  0  0  0  0  0  0  0  0
  -30.9527   -8.9220   20.3723 C   0  0  0  0  0  0  0  0  0  0  0  0
  -19.3913  -16.1931   19.9533 C   0  0  0  0  0  0  0  0  0  0  0  0
  -30.2438  -14.4661   16.8182 C   0  0  0  0  0  0  0  0  0  0  0  0
  -30.5891  -11.9871   16.8802 C   0  0  0  0  0  0  0  0  0  0  0  0
  -32.2755  -13.5058   17.9158 C   0  0  0  0  0  0  0  0  0  0  0  0
  -29.0098  -10.5962   23.1827 C   0  0  0  0  0  0  0  0  0  0  0  0
  -21.7089  -15.5980   20.7167 C   0  0  0  0  0  0  0  0  0  1  0  0
  -30.0385  -13.1816   19.0485 C   0  0  1  0  0  0  0  0  0  0  0  0
  -30.4485  -10.0908   21.2045 C   0  0  2  0  0  0  0  0  0  0  0  0
  -20.5939  -15.2778   19.7123 C   0  0  2  0  0  0  0  0  0  0  0  0
  -30.7640  -13.2969   17.6781 C   0  0  0  0  0  0  0  0  0  0  0  0
  -22.7186  -27.2419   18.9559 N   0  0  0  0  0  0  0  0  0  0  0  0
  -21.5752  -26.5370   18.9134 N   0  0  0  0  0  0  0  0  0  0  0  0
  -28.9482  -15.0763   20.2083 N   0  0  0  0  0  0  0  0  0  0  0  0
  -21.6311  -23.1898   17.0727 N   0  0  0  0  0  0  0  0  0  0  0  0
  -20.6679  -21.1576   16.2571 N   0  0  0  0  0  0  0  0  0  0  0  0
  -19.5184  -26.2044   20.0402 N   0  0  0  0  0  0  0  0  0  0  0  0
  -21.5772  -29.3539   22.5378 N   0  0  0  0  0  0  0  0  0  0  0  0
  -29.5351  -18.5840   19.9223 N   0  0  0  0  0  0  0  0  0  0  0  0
  -30.5293  -12.0996   19.8952 N   0  0  0  0  0  0  0  0  0  0  0  0
  -21.0030  -18.3455   15.9533 N   0  3  0  0  0  0  0  0  0  0  0  0
  -29.5590   -9.5568   22.2743 N   0  3  0  0  0  0  0  0  0  0  0  0
  -19.6858  -28.0714   22.3474 O   0  0  0  0  0  0  0  0  0  0  0  0
  -28.1426  -17.1332   18.7481 O   0  0  0  0  0  0  0  0  0  0  0  0
  -31.2689  -14.8507   20.2002 O   0  0  0  0  0  0  0  0  0  0  0  0
  -28.4991  -10.9985   20.1030 O   0  0  0  0  0  0  0  0  0  0  0  0
  -19.7519  -22.2809   18.0499 O   0  0  0  0  0  0  0  0  0  0  0  0
  -26.6013  -31.5584   21.5714 O   0  0  0  0  0  0  0  0  0  0  0  0
  -22.7912  -14.6941   20.5373 O   0  0  0  0  0  0  0  0  0  1  0  0
  -28.0100  -31.7038   26.9004 F   0  0  0  0  0  0  0  0  0  0  0  0
  -24.7454  -32.2172   23.5116 F   0  0  0  0  0  0  0  0  0  0  0  0
  1  2  1  0  0  0  0
  1  5  2  0  0  0  0
  2  6  2  0  0  0  0
  3  8  2  0  0  0  0
  3 17  1  0  0  0  0
  4  9  1  0  0  0  0
  4 17  2  0  0  0  0
  5 19  1  0  0  0  0
  6 21  1  0  0  0  0
  7 10  2  0  0  0  0
  7 20  1  0  0  0  0
  8 27  1  0  0  0  0
  9 27  2  0  0  0  0
 10 28  1  0  0  0  0
 11 12  2  0  0  0  0
 11 29  1  0  0  0  0
 12 30  1  0  0  0  0
 13 22  1  0  0  0  0
 13 25  2  0  0  0  0
 14 23  1  0  0  0  0
 14 26  2  0  0  0  0
 15 24  1  0  0  0  0
 15 28  2  0  0  0  0
 16 30  2  0  0  0  0
 16 31  1  0  0  0  0
 17 32  1  0  0  0  0
 18 32  1  0  0  0  0
 18 33  2  0  0  0  0
 18 34  1  0  0  0  0
 19 21  2  0  0  0  0
 19 39  1  0  0  0  0
 20 24  2  0  0  0  0
 20 40  1  0  0  0  0
 21 54  1  0  0  0  0
 22 23  2  0  0  0  0
 22 53  1  0  0  0  0
 23 55  1  0  0  0  0
 24 41  1  0  0  0  0
 25 26  1  0  0  0  0
 25 58  1  0  0  0  0
 26 59  1  0  0  0  0
 27 87  1  0  0  0  0
 28 88  1  0  0  0  0
 29 31  2  0  0  0  0
 29 87  1  0  0  0  0
 30 89  1  0  0  0  0
 31 90  1  0  0  0  0
 32 71  2  0  0  0  0
 33 72  1  0  0  0  0
 33 76  1  0  0  0  0
 34 77  1  0  0  0  0
 34 82  2  0  0  0  0
 35 56  1  0  0  0  0
 35 78  1  0  0  0  0
 35 83  2  0  0  0  0
 36 67  1  0  0  0  0
 36 73  1  0  0  0  0
 36 84  2  0  0  0  0
 37 68  1  0  0  0  0
 37 79  1  0  0  0  0
 37 85  2  0  0  0  0
 38 74  1  0  0  0  0
 38 75  1  0  0  0  0
 38 86  2  0  0  0  0
 39 42  1  0  0  0  0
 40 56  1  0  0  0  0
 41 73  1  0  0  0  0
 42 44  1  0  0  0  0
 43 45  1  0  0  0  0
 43 47  1  0  0  0  0
 44 54  1  0  0  0  0
 45 57  1  0  0  0  0
 46 53  1  0  0  0  0
 46 55  1  0  0  0  0
 47 74  1  0  0  0  0
 48 51  1  0  0  0  0
 48 75  1  0  0  0  0
 49 52  1  0  0  0  0
 49 75  1  0  0  0  0
 50 57  1  0  0  0  0
 50 74  1  0  0  0  0
 51 80  1  0  0  0  0
 52 80  1  0  0  0  0
 53 69  1  0  0  0  0
 54 78  1  0  0  0  0
 55 80  1  0  0  0  0
 56 73  1  0  0  0  0
 57 72  1  0  0  0  0
 60 68  1  0  0  0  0
 61 69  1  0  0  0  0
 62 70  1  0  0  0  0
 63 70  1  0  0  0  0
 64 70  1  0  0  0  0
 65 81  1  0  0  0  0
 66 69  1  0  0  0  0
 66 88  1  0  0  0  0
 67 70  1  0  0  0  0
 67 79  1  0  0  0  0
 68 81  1  0  0  0  0
 71 72  1  0  0  0  0
M  CHG  2  80   1  81   1
M  ISO  4  38 100  66 101  75 100  88 101
M  END
> <Batch ID>
0166

> <Smiles>
CNC(C)C(=O)NC(C(=O)N1Cc2cc([101O:1][101CH2:1]C(C)C3CC(N4CC[100N:0]([100C:0](=O)N5CCCC(n6nc(-c7ccc(Oc8ccc(F)cc8F)cc7)c(C(N)=O)c6N)C5)CC4)c4cc(C)c(C)cc43)ccc2CC1C(=O)NC1CCCc2ccccc21)C(C)(C)C

> <Shape>
0.230

> <Color>
0.062

> <Negative vol penalty>
0.000

$$$$

  -OEChem-04052322243D

 89 98  0     1  0  0  0  0  0999 V2000
  -16.7806  -29.8103   22.6902 C   0  0  0  0  0  0  0  0  0  0  0  0
  -17.7842  -29.5721   21.7567 C   0  0  0  0  0  0  0  0  0  0  0  0
  -22.9472  -10.0663   19.9986 C   0  0  0  0  0  0  0  0  0  0  0  0
  -24.1092   -9.5169   22.0443 C   0  0  0  0  0  0  0  0  0  0  0  0
  -17.0354  -29.6251   24.0485 C   0  0  0  0  0  0  0  0  0  0  0  0
  -19.0435  -29.1497   22.1809 C   0  0  0  0  0  0  0  0  0  0  0  0
  -24.5412  -25.0441   20.1228 C   0  0  0  0  0  0  0  0  0  0  0  0
  -22.2282   -8.8743   20.0869 C   0  0  0  0  0  0  0  0  0  0  0  0
  -23.3902   -8.3249   22.1326 C   0  0  0  0  0  0  0  0  0  0  0  0
  -25.9237  -25.1017   19.9518 C   0  0  0  0  0  0  0  0  0  0  0  0
  -20.3028   -7.3459   23.0970 C   0  0  0  0  0  0  0  0  0  0  0  0
  -19.7693   -7.0031   24.3394 C   0  0  0  0  0  0  0  0  0  0  0  0
  -26.2255  -24.7391   22.3175 C   0  0  0  0  0  0  0  0  0  0  0  0
  -29.5075  -18.4328   22.0427 C   0  0  0  0  0  0  0  0  0  0  0  0
  -31.5064  -18.4712   20.6863 C   0  0  0  0  0  0  0  0  0  0  0  0
  -21.0677   -4.9656   24.3348 C   0  0  0  0  0  0  0  0  0  0  0  0
  -23.8877  -10.3876   20.9773 C   0  0  0  0  0  0  0  0  0  0  0  0
  -24.2741  -12.8691   21.4253 C   0  0  0  0  0  0  0  0  0  0  0  0
  -18.2956  -29.1909   24.4888 C   0  0  0  0  0  0  0  0  0  0  0  0
  -23.9893  -24.8440   21.3963 C   0  0  0  0  0  0  0  0  0  0  0  0
  -19.3158  -28.9598   23.5464 C   0  0  0  0  0  0  0  0  0  0  0  0
  -24.8358  -24.6767   22.5016 C   0  0  0  0  0  0  0  0  0  0  0  0
  -29.9326  -20.3006   20.5704 C   0  0  0  0  0  0  0  0  0  0  0  0
  -30.6984  -17.8358   21.6292 C   0  0  0  0  0  0  0  0  0  0  0  0
  -29.1246  -19.6652   21.5133 C   0  0  0  0  0  0  0  0  0  0  0  0
  -31.1235  -19.7036   20.1569 C   0  0  0  0  0  0  0  0  0  0  0  0
  -22.4497   -8.0036   21.1539 C   0  0  0  0  0  0  0  0  0  0  0  0
  -26.7660  -24.9521   21.0496 C   0  0  0  0  0  0  0  0  0  0  0  0
  -21.2187   -6.4984   22.4735 C   0  0  0  0  0  0  0  0  0  0  0  0
  -20.1517   -5.8130   24.9583 C   0  0  0  0  0  0  0  0  0  0  0  0
  -21.6011   -5.3084   23.0924 C   0  0  0  0  0  0  0  0  0  0  0  0
  -24.6312  -11.6185   20.8864 C   0  0  0  0  0  0  0  0  0  0  0  0
  -25.3035  -13.7044   21.0659 C   0  0  0  0  0  0  0  0  0  0  0  0
  -23.1156  -13.2423   22.1831 C   0  0  0  0  0  0  0  0  0  0  0  0
  -22.0881  -26.5288   23.3070 C   0  0  0  0  0  0  0  0  0  0  0  0
  -22.1756  -23.8398   25.1192 C   0  0  0  0  0  0  0  0  0  0  0  0
  -23.8250  -20.9789   25.9805 C   0  0  0  0  0  0  0  0  0  0  0  0
  -30.7576  -14.7410   20.4977 C   0  0  0  0  0  0  0  0  0  0  0  0
  -18.5379  -29.0503   25.9708 C   0  0  0  0  0  0  0  0  0  0  0  0
  -22.4966  -24.7576   21.5600 C   0  0  0  0  0  0  0  0  0  0  0  0
  -24.2938  -24.4395   23.8867 C   0  0  0  0  0  0  0  0  0  0  0  0
  -19.7867  -28.2404   26.3096 C   0  0  0  0  0  0  0  0  0  0  0  0
  -29.1396  -13.0043   17.8440 C   0  0  0  0  0  0  0  0  0  0  0  0
  -20.9666  -28.6968   25.4573 C   0  0  0  0  0  0  0  0  0  0  0  0
  -27.7963  -12.5870   18.4453 C   0  0  0  0  0  0  0  0  0  0  0  0
  -29.9790  -21.9268   18.5516 C   0  0  0  0  0  0  0  0  0  0  0  0
  -30.0034  -22.8272   20.8367 C   0  0  0  0  0  0  0  0  0  0  0  0
  -30.2647  -12.9360   18.8742 C   0  0  0  0  0  0  0  0  0  0  0  0
  -28.6667  -13.2663   20.7212 C   0  0  0  0  0  0  0  0  0  0  0  0
  -29.5176  -21.6365   19.9972 C   0  0  2  0  0  0  0  0  0  0  0  0
  -20.6873  -28.4768   23.9656 C   0  0  1  0  0  0  0  0  0  0  0  0
  -22.0327  -25.0631   22.9809 C   0  0  1  0  0  0  0  0  0  0  0  0
  -27.4911  -13.3725   19.7349 C   0  0  2  0  0  0  0  0  0  0  0  0
  -30.6504  -23.3280   18.5610 C   0  0  0  0  0  0  0  0  0  0  0  0
  -30.0608  -24.0089   19.8455 C   0  0  2  0  0  0  0  0  0  0  0  0
  -27.8451  -20.2838   21.9738 C   0  0  0  0  0  0  0  0  0  0  0  0
  -32.0065  -20.3635   19.1486 C   0  0  0  0  0  0  0  0  0  0  0  0
  -32.1853  -23.1516   18.6255 C   0  0  0  0  0  0  0  0  0  0  0  0
  -30.3411  -24.0817   17.2565 C   0  0  0  0  0  0  0  0  0  0  0  0
  -30.9234  -25.1458   20.4138 C   0  0  0  0  0  0  0  0  0  0  0  0
  -23.6691  -19.0022   27.5186 C   0  0  0  0  0  0  0  0  0  0  0  0
  -23.0414  -25.5956   27.4596 C   0  0  0  0  0  0  0  0  0  0  0  0
  -23.7750  -23.5212   28.6541 C   0  0  0  0  0  0  0  0  0  0  0  0
  -21.3752  -23.8248   28.0445 C   0  0  0  0  0  0  0  0  0  0  0  0
  -23.7376  -19.0764   23.7152 C   0  0  0  0  0  0  0  0  0  0  0  0
  -31.1074  -16.5179   22.1946 C   0  0  0  0  0  0  0  0  0  0  0  0
  -28.6364  -24.5710   19.6311 C   0  0  0  0  0  0  0  0  0  1  0  0
  -23.0619  -23.3264   26.2283 C   0  0  1  0  0  0  0  0  0  0  0  0
  -23.3447  -19.5473   26.1364 C   0  0  2  0  0  0  0  0  0  0  0  0
  -22.8238  -24.0734   27.5710 C   0  0  0  0  0  0  0  0  0  0  0  0
  -25.7962  -11.6518   20.2341 N   0  0  0  0  0  0  0  0  0  0  0  0
  -26.1802  -12.9335   20.3607 N   0  0  0  0  0  0  0  0  0  0  0  0
  -22.8274  -24.3693   23.9964 N   0  0  0  0  0  0  0  0  0  0  0  0
  -29.9130  -13.7025   20.0721 N   0  0  0  0  0  0  0  0  0  0  0  0
  -25.5351  -15.0158   21.2873 N   0  0  0  0  0  0  0  0  0  0  0  0
  -22.1558  -12.2602   22.4636 N   0  0  0  0  0  0  0  0  0  0  0  0
  -20.8611  -27.0825   23.6192 N   0  0  0  0  0  0  0  0  0  0  0  0
  -22.8366  -21.8866   26.2974 N   0  0  0  0  0  0  0  0  0  0  0  0
  -30.3474  -15.4209   21.6379 N   0  0  0  0  0  0  0  0  0  0  0  0
  -23.9929  -18.6700   25.1211 N   0  3  0  0  0  0  0  0  0  0  0  0
  -22.9288  -14.4158   22.5850 O   0  0  0  0  0  0  0  0  0  0  0  0
  -23.1646  -27.1137   23.2790 O   0  0  0  0  0  0  0  0  0  0  0  0
  -20.9503  -23.7669   25.2415 O   0  0  0  0  0  0  0  0  0  0  0  0
  -24.9643  -21.2635   25.6177 O   0  0  0  0  0  0  0  0  0  0  0  0
  -31.7973  -15.0436   19.9024 O   0  0  0  0  0  0  0  0  0  0  0  0
  -21.7481   -6.8405   21.2405 O   0  0  0  0  0  0  0  0  0  0  0  0
  -28.1157  -25.0087   20.8855 O   0  0  0  0  0  0  0  0  0  1  0  0
  -19.6405   -5.4847   26.1521 F   0  0  0  0  0  0  0  0  0  0  0  0
  -22.4815   -4.4908   22.4988 F   0  0  0  0  0  0  0  0  0  0  0  0
  1  2  1  0  0  0  0
  1  5  2  0  0  0  0
  2  6  2  0  0  0  0
  3  8  2  0  0  0  0
  3 17  1  0  0  0  0
  4  9  1  0  0  0  0
  4 17  2  0  0  0  0
  5 19  1  0  0  0  0
  6 21  1  0  0  0  0
  7 10  2  0  0  0  0
  7 20  1  0  0  0  0
  8 27  1  0  0  0  0
  9 27  2  0  0  0  0
 10 28  1  0  0  0  0
 11 12  2  0  0  0  0
 11 29  1  0  0  0  0
 12 30  1  0  0  0  0
 13 22  1  0  0  0  0
 13 28  2  0  0  0  0
 14 24  1  0  0  0  0
 14 25  2  0  0  0  0
 15 24  2  0  0  0  0
 15 26  1  0  0  0  0
 16 30  2  0  0  0  0
 16 31  1  0  0  0  0
 17 32  1  0  0  0  0
 18 32  1  0  0  0  0
 18 33  2  0  0  0  0
 18 34  1  0  0  0  0
 19 21  2  0  0  0  0
 19 39  1  0  0  0  0
 20 22  2  0  0  0  0
 20 40  1  0  0  0  0
 21 51  1  0  0  0  0
 22 41  1  0  0  0  0
 23 25  1  0  0  0  0
 23 26  2  0  0  0  0
 23 50  1  0  0  0  0
 24 66  1  0  0  0  0
 25 56  1  0  0  0  0
 26 57  1  0  0  0  0
 27 86  1  0  0  0  0
 28 87  1  0  0  0  0
 29 31  2  0  0  0  0
 29 86  1  0  0  0  0
 30 88  1  0  0  0  0
 31 89  1  0  0  0  0
 32 71  2  0  0  0  0
 33 72  1  0  0  0  0
 33 75  1  0  0  0  0
 34 76  1  0  0  0  0
 34 81  2  0  0  0  0
 35 52  1  0  0  0  0
 35 77  1  0  0  0  0
 35 82  2  0  0  0  0
 36 68  1  0  0  0  0
 36 73  1  0  0  0  0
 36 83  2  0  0  0  0
 37 69  1  0  0  0  0
 37 78  1  0  0  0  0
 37 84  2  0  0  0  0
 38 74  1  0  0  0  0
 38 79  1  0  0  0  0
 38 85  2  0  0  0  0
 39 42  1  0  0  0  0
 40 52  1  0  0  0  0
 41 73  1  0  0  0  0
 42 44  1  0  0  0  0
 43 45  1  0  0  0  0
 43 48  1  0  0  0  0
 44 51  1  0  0  0  0
 45 53  1  0  0  0  0
 46 50  1  0  0  0  0
 46 54  1  0  0  0  0
 47 50  1  0  0  0  0
 47 55  1  0  0  0  0
 48 74  1  0  0  0  0
 49 53  1  0  0  0  0
 49 74  1  0  0  0  0
 51 77  1  0  0  0  0
 52 73  1  0  0  0  0
 53 72  1  0  0  0  0
 54 55  1  0  0  0  0
 54 58  1  0  0  0  0
 54 59  1  0  0  0  0
 55 60  1  0  0  0  0
 55 67  1  0  0  0  0
 61 69  1  0  0  0  0
 62 70  1  0  0  0  0
 63 70  1  0  0  0  0
 64 70  1  0  0  0  0
 65 80  1  0  0  0  0
 66 79  1  0  0  0  0
 67 87  1  0  0  0  0
 68 70  1  0  0  0  0
 68 78  1  0  0  0  0
 69 80  1  0  0  0  0
 71 72  1  0  0  0  0
M  CHG  1  80   1
M  ISO  4  38 100  67 101  79 100  87 101
M  END
> <Batch ID>
0166

> <Smiles>
CNC(C)C(=O)NC(C(=O)N1Cc2cc([101O:1][101CH2:1]C3(C)CC(c4c(C)cc(C[100NH:0][100C:0](=O)N5CCCC(n6nc(-c7ccc(Oc8ccc(F)cc8F)cc7)c(C(N)=O)c6N)C5)cc4C)CC3(C)C)ccc2CC1C(=O)NC1CCCc2ccccc21)C(C)(C)C

> <Shape>
0.292

> <Color>
0.166

> <Negative vol penalty>
0.000

$$$$

  -OEChem-04052322243D

 88 98  0     1  0  0  0  0  0999 V2000
  -29.7489   -4.9226   21.8319 C   0  0  0  0  0  0  0  0  0  0  0  0
  -30.7010   -5.8203   21.3596 C   0  0  0  0  0  0  0  0  0  0  0  0
  -24.7161  -34.6455   24.7804 C   0  0  0  0  0  0  0  0  0  0  0  0
  -26.0801  -33.5427   23.1189 C   0  0  0  0  0  0  0  0  0  0  0  0
  -28.4297   -5.0105   21.3895 C   0  0  0  0  0  0  0  0  0  0  0  0
  -30.3346   -6.8058   20.4437 C   0  0  0  0  0  0  0  0  0  0  0  0
  -25.9865  -24.4208   22.9387 C   0  0  0  0  0  0  0  0  0  0  0  0
  -31.1212  -14.5666   20.8653 C   0  0  0  0  0  0  0  0  0  0  0  0
  -26.8678  -23.4244   22.5134 C   0  0  0  0  0  0  0  0  0  0  0  0
  -25.2962  -35.8687   24.4447 C   0  0  0  0  0  0  0  0  0  0  0  0
  -26.6602  -34.7659   22.7832 C   0  0  0  0  0  0  0  0  0  0  0  0
  -31.0621  -15.9601   20.8931 C   0  0  0  0  0  0  0  0  0  0  0  0
  -28.2408  -37.6530   21.2388 C   0  0  0  0  0  0  0  0  0  0  0  0
  -28.3823  -37.9544   19.8843 C   0  0  0  0  0  0  0  0  0  0  0  0
  -29.1542  -15.9196   19.4077 C   0  0  0  0  0  0  0  0  0  0  0  0
  -25.9888  -37.7920   19.5981 C   0  0  0  0  0  0  0  0  0  0  0  0
  -25.1081  -33.4824   24.1175 C   0  0  0  0  0  0  0  0  0  0  0  0
  -24.5328  -31.5829   25.7202 C   0  0  0  0  0  0  0  0  0  0  0  0
  -28.0448   -6.0037   20.4751 C   0  0  0  0  0  0  0  0  0  0  0  0
  -30.1863  -13.8428   20.1199 C   0  0  0  0  0  0  0  0  0  0  0  0
  -25.3234  -25.1606   21.9755 C   0  0  0  0  0  0  0  0  0  0  0  0
  -29.0092   -6.9063   19.9877 C   0  0  0  0  0  0  0  0  0  0  0  0
  -29.2007  -14.5232   19.3860 C   0  0  0  0  0  0  0  0  0  0  0  0
  -25.5290  -24.9244   20.6127 C   0  0  0  0  0  0  0  0  0  0  0  0
  -26.4014  -23.9412   20.1809 C   0  0  0  0  0  0  0  0  0  0  0  0
  -27.0738  -23.1865   21.1446 C   0  0  0  0  0  0  0  0  0  0  0  0
  -26.2682  -35.9290   23.4461 C   0  0  0  0  0  0  0  0  0  0  0  0
  -30.0812  -16.6349   20.1659 C   0  0  0  0  0  0  0  0  0  0  0  0
  -26.9733  -37.4209   21.7730 C   0  0  0  0  0  0  0  0  0  0  0  0
  -27.2564  -38.0240   19.0640 C   0  0  0  0  0  0  0  0  0  0  0  0
  -25.8473  -37.4905   20.9526 C   0  0  0  0  0  0  0  0  0  0  0  0
  -24.5096  -32.2184   24.4642 C   0  0  0  0  0  0  0  0  0  0  0  0
  -23.8288  -30.4191   25.5292 C   0  0  0  0  0  0  0  0  0  0  0  0
  -25.1367  -32.0066   26.9496 C   0  0  0  0  0  0  0  0  0  0  0  0
  -28.9364  -10.4757   19.0354 C   0  0  0  0  0  0  0  0  0  0  0  0
  -26.4656  -12.2028   19.6031 C   0  0  0  0  0  0  0  0  0  0  0  0
  -23.3730  -13.3806   20.4315 C   0  0  0  0  0  0  0  0  0  0  0  0
  -22.7871  -27.3233   20.4188 C   0  0  0  0  0  0  0  0  0  0  0  0
  -26.6171   -6.0297   19.9898 C   0  0  0  0  0  0  0  0  0  0  0  0
  -30.2498  -12.3435   20.0117 C   0  0  0  0  0  0  0  0  0  0  0  0
  -24.3571  -26.2839   22.1682 C   0  0  0  0  0  0  0  0  0  0  0  0
  -28.2373  -13.7046   18.5707 C   0  0  0  0  0  0  0  0  0  0  0  0
  -24.6939  -25.8510   19.7950 C   0  0  0  0  0  0  0  0  0  0  0  0
  -26.2304   -7.3377   19.3044 C   0  0  0  0  0  0  0  0  0  0  0  0
  -20.3263  -28.5478   22.8461 C   0  0  0  0  0  0  0  0  0  0  0  0
  -27.3063   -7.7563   18.3074 C   0  0  0  0  0  0  0  0  0  0  0  0
  -21.1178  -29.6048   23.6196 C   0  0  0  0  0  0  0  0  0  0  0  0
  -29.8950  -20.9116   20.3054 C   0  0  0  0  0  0  0  0  0  0  0  0
  -20.8030  -28.4178   21.4008 C   0  0  0  0  0  0  0  0  0  0  0  0
  -23.0327  -29.2627   22.0176 C   0  0  0  0  0  0  0  0  0  0  0  0
  -27.5218  -20.8081   20.5578 C   0  0  0  0  0  0  0  0  0  0  0  0
  -28.6452   -8.0048   19.0125 C   0  0  1  0  0  0  0  0  0  0  0  0
  -28.8613  -11.6857   19.9194 C   0  0  1  0  0  0  0  0  0  0  0  0
  -22.6355  -29.3677   23.4958 C   0  0  1  0  0  0  0  0  0  0  0  0
  -29.4155  -22.3250   20.6903 C   0  0  1  0  0  0  0  0  0  0  0  0
  -28.7915  -19.9761   20.8173 C   0  0  2  0  0  0  0  0  0  0  0  0
  -26.6081  -23.7031   18.7231 C   0  0  0  0  0  0  0  0  0  0  0  0
  -29.8571  -23.3316   19.6324 C   0  0  0  0  0  0  0  0  0  0  0  0
  -28.9637  -19.6871   22.3182 C   0  0  0  0  0  0  0  0  0  0  0  0
  -20.9413  -13.0829   19.8880 C   0  0  0  0  0  0  0  0  0  0  0  0
  -26.8644  -13.7357   16.9964 C   0  0  0  0  0  0  0  0  0  0  0  0
  -24.4098  -14.2290   16.9937 C   0  0  0  0  0  0  0  0  0  0  0  0
  -25.2059  -11.8684   16.8658 C   0  0  0  0  0  0  0  0  0  0  0  0
  -22.7305  -12.5843   23.2086 C   0  0  0  0  0  0  0  0  0  0  0  0
  -28.7685  -18.6555   20.0458 C   0  0  0  0  0  0  0  0  0  1  0  0
  -25.4158  -13.1308   19.0462 C   0  0  1  0  0  0  0  0  0  0  0  0
  -22.0862  -12.6629   20.7967 C   0  0  2  0  0  0  0  0  0  0  0  0
  -25.4902  -13.2484   17.4976 C   0  0  0  0  0  0  0  0  0  0  0  0
  -23.8437  -31.5165   23.5434 N   0  0  0  0  0  0  0  0  0  0  0  0
  -23.4420  -30.4279   24.2213 N   0  0  0  0  0  0  0  0  0  0  0  0
  -27.9543  -22.1920   20.7671 N   0  0  3  0  0  0  0  0  0  0  0  0
  -27.8016  -12.5283   19.3395 N   0  0  0  0  0  0  0  0  0  0  0  0
  -23.9397  -26.6280   20.7928 N   0  0  0  0  0  0  0  0  0  0  0  0
  -22.2505  -28.2196   21.3483 N   0  0  0  0  0  0  0  0  0  0  0  0
  -23.5090  -29.3994   26.3540 N   0  0  0  0  0  0  0  0  0  0  0  0
  -26.4599  -31.6252   27.2102 N   0  0  0  0  0  0  0  0  0  0  0  0
  -28.6352   -9.2900   19.6778 N   0  0  0  0  0  0  0  0  0  0  0  0
  -24.1346  -12.6456   19.5477 N   0  0  0  0  0  0  0  0  0  0  0  0
  -21.7047  -12.9677   22.2047 N   0  3  0  0  0  0  0  0  0  0  0  0
  -24.5158  -32.6891   27.7994 O   0  0  0  0  0  0  0  0  0  0  0  0
  -29.2436  -10.6070   17.8563 O   0  0  0  0  0  0  0  0  0  0  0  0
  -26.1133  -11.2124   20.2499 O   0  0  0  0  0  0  0  0  0  0  0  0
  -23.6710  -14.4845   20.8821 O   0  0  0  0  0  0  0  0  0  0  0  0
  -22.2323  -27.1135   19.3325 O   0  0  0  0  0  0  0  0  0  0  0  0
  -26.8343  -37.1225   23.1181 O   0  0  0  0  0  0  0  0  0  0  0  0
  -30.0253  -18.0255   20.2019 O   0  0  0  0  0  0  0  0  0  1  0  0
  -27.3923  -38.3150   17.7636 F   0  0  0  0  0  0  0  0  0  0  0  0
  -24.6269  -37.2698   21.4603 F   0  0  0  0  0  0  0  0  0  0  0  0
  1  2  1  0  0  0  0
  1  5  2  0  0  0  0
  2  6  2  0  0  0  0
  3 10  2  0  0  0  0
  3 17  1  0  0  0  0
  4 11  1  0  0  0  0
  4 17  2  0  0  0  0
  5 19  1  0  0  0  0
  6 22  1  0  0  0  0
  7  9  2  0  0  0  0
  7 21  1  0  0  0  0
  8 12  2  0  0  0  0
  8 20  1  0  0  0  0
  9 26  1  0  0  0  0
 10 27  1  0  0  0  0
 11 27  2  0  0  0  0
 12 28  1  0  0  0  0
 13 14  2  0  0  0  0
 13 29  1  0  0  0  0
 14 30  1  0  0  0  0
 15 23  1  0  0  0  0
 15 28  2  0  0  0  0
 16 30  2  0  0  0  0
 16 31  1  0  0  0  0
 17 32  1  0  0  0  0
 18 32  1  0  0  0  0
 18 33  2  0  0  0  0
 18 34  1  0  0  0  0
 19 22  2  0  0  0  0
 19 39  1  0  0  0  0
 20 23  2  0  0  0  0
 20 40  1  0  0  0  0
 21 24  2  0  0  0  0
 21 41  1  0  0  0  0
 22 52  1  0  0  0  0
 23 42  1  0  0  0  0
 24 25  1  0  0  0  0
 24 43  1  0  0  0  0
 25 26  2  0  0  0  0
 25 57  1  0  0  0  0
 26 71  1  0  0  0  0
 27 85  1  0  0  0  0
 28 86  1  0  0  0  0
 29 31  2  0  0  0  0
 29 85  1  0  0  0  0
 30 87  1  0  0  0  0
 31 88  1  0  0  0  0
 32 69  2  0  0  0  0
 33 70  1  0  0  0  0
 33 75  1  0  0  0  0
 34 76  1  0  0  0  0
 34 80  2  0  0  0  0
 35 53  1  0  0  0  0
 35 77  1  0  0  0  0
 35 81  2  0  0  0  0
 36 66  1  0  0  0  0
 36 72  1  0  0  0  0
 36 82  2  0  0  0  0
 37 67  1  0  0  0  0
 37 78  1  0  0  0  0
 37 83  2  0  0  0  0
 38 73  1  0  0  0  0
 38 74  1  0  0  0  0
 38 84  2  0  0  0  0
 39 44  1  0  0  0  0
 40 53  1  0  0  0  0
 41 73  1  0  0  0  0
 42 72  1  0  0  0  0
 43 73  1  0  0  0  0
 44 46  1  0  0  0  0
 45 47  1  0  0  0  0
 45 49  1  0  0  0  0
 46 52  1  0  0  0  0
 47 54  1  0  0  0  0
 48 55  1  0  0  0  0
 48 56  1  0  0  0  0
 49 74  1  0  0  0  0
 50 54  1  0  0  0  0
 50 74  1  0  0  0  0
 51 56  1  0  0  0  0
 51 71  1  0  0  0  0
 52 77  1  0  0  0  0
 53 72  1  0  0  0  0
 54 70  1  0  0  0  0
 55 58  1  0  0  0  0
 55 71  1  0  0  0  0
 56 59  1  0  0  0  0
 56 65  1  0  0  0  0
 60 67  1  0  0  0  0
 61 68  1  0  0  0  0
 62 68  1  0  0  0  0
 63 68  1  0  0  0  0
 64 79  1  0  0  0  0
 65 86  1  0  0  0  0
 66 68  1  0  0  0  0
 66 78  1  0  0  0  0
 67 79  1  0  0  0  0
 69 70  1  0  0  0  0
M  CHG  1  79   1
M  ISO  4  38 100  65 101  73 100  86 101
M  END
> <Batch ID>
0166

> <Smiles>
CNC(C)C(=O)NC(C(=O)N1Cc2cc([101O:1][101CH2:1]C3(C)CC(C)N(c4ccc5c(c4C)C[100N:0]([100C:0](=O)N4CCCC(n6nc(-c7ccc(Oc8ccc(F)cc8F)cc7)c(C(N)=O)c6N)C4)C5)C3)ccc2CC1C(=O)NC1CCCc2ccccc21)C(C)(C)C

> <Shape>
0.259

> <Color>
0.078

> <Negative vol penalty>
0.000

$$$$

  -OEChem-04052322243D

 91100  0     1  0  0  0  0  0999 V2000
  -16.6201  -29.7528   23.6106 C   0  0  0  0  0  0  0  0  0  0  0  0
  -17.6824  -30.4398   24.1892 C   0  0  0  0  0  0  0  0  0  0  0  0
  -30.2181  -17.3275   21.1574 C   0  0  0  0  0  0  0  0  0  0  0  0
  -30.0930  -18.9645   22.9299 C   0  0  0  0  0  0  0  0  0  0  0  0
  -16.8597  -28.5938   22.8735 C   0  0  0  0  0  0  0  0  0  0  0  0
  -18.9850  -29.9676   24.0320 C   0  0  0  0  0  0  0  0  0  0  0  0
  -25.7323  -32.2962   23.4250 C   0  0  0  0  0  0  0  0  0  0  0  0
  -31.0648  -16.5436   21.9411 C   0  0  0  0  0  0  0  0  0  0  0  0
  -30.9397  -18.1805   23.7137 C   0  0  0  0  0  0  0  0  0  0  0  0
  -26.9928  -32.1041   23.9888 C   0  0  0  0  0  0  0  0  0  0  0  0
  -34.3306  -16.5100   22.8114 C   0  0  0  0  0  0  0  0  0  0  0  0
  -35.4622  -15.9696   22.2005 C   0  0  0  0  0  0  0  0  0  0  0  0
  -31.6704  -28.3622   19.0408 C   0  0  0  0  0  0  0  0  0  0  0  0
  -27.2948  -30.1354   22.6278 C   0  0  0  0  0  0  0  0  0  0  0  0
  -33.5956  -28.6869   17.0481 C   0  0  0  0  0  0  0  0  0  0  0  0
  -34.6820  -13.7438   22.7244 C   0  0  0  0  0  0  0  0  0  0  0  0
  -29.7322  -18.5380   21.6518 C   0  0  0  0  0  0  0  0  0  0  0  0
  -27.4521  -19.2943   20.7935 C   0  0  0  0  0  0  0  0  0  0  0  0
  -18.1668  -28.1125   22.6991 C   0  0  0  0  0  0  0  0  0  0  0  0
  -25.2382  -31.4017   22.4647 C   0  0  0  0  0  0  0  0  0  0  0  0
  -19.2422  -28.8004   23.2930 C   0  0  0  0  0  0  0  0  0  0  0  0
  -32.9433  -28.8279   19.3701 C   0  0  0  0  0  0  0  0  0  0  0  0
  -26.0287  -30.3198   22.0515 C   0  0  0  0  0  0  0  0  0  0  0  0
  -31.3601  -28.0589   17.7151 C   0  0  0  0  0  0  0  0  0  0  0  0
  -32.3227  -28.2212   16.7188 C   0  0  0  0  0  0  0  0  0  0  0  0
  -33.9059  -28.9902   18.3738 C   0  0  0  0  0  0  0  0  0  0  0  0
  -31.4256  -16.9701   23.2192 C   0  0  0  0  0  0  0  0  0  0  0  0
  -27.7731  -31.0219   23.5923 C   0  0  0  0  0  0  0  0  0  0  0  0
  -33.3748  -15.6673   23.3789 C   0  0  0  0  0  0  0  0  0  0  0  0
  -35.6378  -14.5865   22.1570 C   0  0  0  0  0  0  0  0  0  0  0  0
  -33.5505  -14.2842   23.3353 C   0  0  0  0  0  0  0  0  0  0  0  0
  -28.8580  -19.3484   20.8425 C   0  0  0  0  0  0  0  0  0  0  0  0
  -27.1030  -20.2584   19.8796 C   0  0  0  0  0  0  0  0  0  0  0  0
  -26.5430  -18.4483   21.5101 C   0  0  0  0  0  0  0  0  0  0  0  0
  -22.7443  -29.4376   22.3019 C   0  0  0  0  0  0  0  0  0  0  0  0
  -23.7704  -29.0158   19.2537 C   0  0  0  0  0  0  0  0  0  0  0  0
  -26.3488  -29.1397   17.0213 C   0  0  0  0  0  0  0  0  0  0  0  0
  -29.8217  -25.2046   18.1477 C   0  0  0  0  0  0  0  0  0  0  0  0
  -18.3718  -26.8293   21.9336 C   0  0  0  0  0  0  0  0  0  0  0  0
  -23.8874  -31.6381   21.8466 C   0  0  0  0  0  0  0  0  0  0  0  0
  -25.5526  -29.3422   21.0093 C   0  0  0  0  0  0  0  0  0  0  0  0
  -19.8178  -26.6031   21.4999 C   0  0  0  0  0  0  0  0  0  0  0  0
  -28.7549  -22.5032   15.9887 C   0  0  0  0  0  0  0  0  0  0  0  0
  -20.7716  -26.8757   22.6587 C   0  0  0  0  0  0  0  0  0  0  0  0
  -28.5268  -21.3779   16.9995 C   0  0  0  0  0  0  0  0  0  0  0  0
  -32.4735  -28.4713   23.0349 C   0  0  0  0  0  0  0  0  0  0  0  0
  -29.9614  -23.3549   16.3725 C   0  0  0  0  0  0  0  0  0  0  0  0
  -29.6697  -22.8073   18.7576 C   0  0  0  0  0  0  0  0  0  0  0  0
  -33.2487  -29.1432   20.7964 C   0  0  2  0  0  0  0  0  0  0  0  0
  -20.6717  -28.3334   23.1241 C   0  0  1  0  0  0  0  0  0  0  0  0
  -23.2727  -30.3744   21.2527 C   0  0  1  0  0  0  0  0  0  0  0  0
  -33.0336  -27.9144   21.7135 C   0  0  1  0  0  0  0  0  0  0  0  0
  -32.4696  -29.9965   22.8878 C   0  0  1  0  0  0  0  0  0  0  0  0
  -32.2968  -30.2106   21.3769 C   0  0  1  0  0  0  0  0  0  0  0  0
  -28.4502  -21.9237   18.4377 C   0  0  2  0  0  0  0  0  0  0  0  0
  -32.0130  -27.9036   15.2928 C   0  0  0  0  0  0  0  0  0  0  0  0
  -34.3183  -27.1184   21.9182 C   0  0  0  0  0  0  0  0  0  0  0  0
  -32.6435  -31.6261   20.9292 C   0  0  0  0  0  0  0  0  0  0  0  0
  -26.8900  -28.7009   14.6105 C   0  0  0  0  0  0  0  0  0  0  0  0
  -31.6266  -30.3782   25.2207 C   0  0  0  0  0  0  0  0  0  0  0  0
  -23.7788  -26.0147   19.8044 C   0  0  0  0  0  0  0  0  0  0  0  0
  -25.1943  -25.7143   17.7613 C   0  0  0  0  0  0  0  0  0  0  0  0
  -22.8952  -26.6602   17.5556 C   0  0  0  0  0  0  0  0  0  0  0  0
  -36.3625  -29.0837   17.9471 C   0  0  0  0  0  0  0  0  0  0  0  0
  -27.1106  -31.9618   16.5583 C   0  0  0  0  0  0  0  0  0  0  0  0
  -29.9909  -27.5603   17.3867 C   0  0  0  0  0  0  0  0  0  0  0  0
  -29.9875  -30.1965   23.3262 C   0  0  0  0  0  0  0  0  0  1  0  0
  -24.7305  -28.0728   18.5696 C   0  0  1  0  0  0  0  0  0  0  0  0
  -26.4489  -29.7393   15.6303 C   0  0  2  0  0  0  0  0  0  0  0  0
  -31.3864  -30.6620   23.7395 C   0  0  2  0  0  0  0  0  0  0  0  0
  -24.1582  -26.6327   18.4438 C   0  0  0  0  0  0  0  0  0  0  0  0
  -29.3672  -20.2736   20.0247 N   0  0  0  0  0  0  0  0  0  0  0  0
  -28.2754  -20.8097   19.4532 N   0  0  0  0  0  0  0  0  0  0  0  0
  -24.2224  -29.6125   20.4392 N   0  0  0  0  0  0  0  0  0  0  0  0
  -29.8173  -23.8587   17.7456 N   0  0  0  0  0  0  0  0  0  0  0  0
  -25.9107  -20.6799   19.4072 N   0  0  0  0  0  0  0  0  0  0  0  0
  -27.0699  -17.5125   22.4105 N   0  0  0  0  0  0  0  0  0  0  0  0
  -35.2002  -29.4590   18.6893 N   0  0  0  0  0  0  0  0  0  0  0  0
  -21.3851  -29.2043   22.2147 N   0  0  0  0  0  0  0  0  0  0  0  0
  -25.0731  -28.6932   17.2944 N   0  0  0  0  0  0  0  0  0  0  0  0
  -29.9731  -26.1375   17.1291 N   0  0  0  0  0  0  0  0  0  0  0  0
  -27.4335  -30.8579   15.6180 N   0  3  0  0  0  0  0  0  0  0  0  0
  -25.3011  -18.5089   21.3442 O   0  0  0  0  0  0  0  0  0  0  0  0
  -23.5131  -28.9605   23.1283 O   0  0  0  0  0  0  0  0  0  0  0  0
  -22.6629  -29.2212   18.7507 O   0  0  0  0  0  0  0  0  0  0  0  0
  -27.3073  -29.0708   17.7875 O   0  0  0  0  0  0  0  0  0  0  0  0
  -29.6946  -25.5502   19.3274 O   0  0  0  0  0  0  0  0  0  0  0  0
  -32.2516  -16.2053   23.9843 O   0  0  0  0  0  0  0  0  0  0  0  0
  -29.0036  -30.8317   24.1415 O   0  0  0  0  0  0  0  0  0  1  0  0
  -36.7237  -14.0676   21.5689 F   0  0  0  0  0  0  0  0  0  0  0  0
  -32.6350  -13.4696   23.8777 F   0  0  0  0  0  0  0  0  0  0  0  0
  1  2  1  0  0  0  0
  1  5  2  0  0  0  0
  2  6  2  0  0  0  0
  3  8  2  0  0  0  0
  3 17  1  0  0  0  0
  4  9  1  0  0  0  0
  4 17  2  0  0  0  0
  5 19  1  0  0  0  0
  6 21  1  0  0  0  0
  7 10  2  0  0  0  0
  7 20  1  0  0  0  0
  8 27  1  0  0  0  0
  9 27  2  0  0  0  0
 10 28  1  0  0  0  0
 11 12  2  0  0  0  0
 11 29  1  0  0  0  0
 12 30  1  0  0  0  0
 13 22  1  0  0  0  0
 13 24  2  0  0  0  0
 14 23  1  0  0  0  0
 14 28  2  0  0  0  0
 15 25  2  0  0  0  0
 15 26  1  0  0  0  0
 16 30  2  0  0  0  0
 16 31  1  0  0  0  0
 17 32  1  0  0  0  0
 18 32  1  0  0  0  0
 18 33  2  0  0  0  0
 18 34  1  0  0  0  0
 19 21  2  0  0  0  0
 19 39  1  0  0  0  0
 20 23  2  0  0  0  0
 20 40  1  0  0  0  0
 21 50  1  0  0  0  0
 22 26  2  0  0  0  0
 22 49  1  0  0  0  0
 23 41  1  0  0  0  0
 24 25  1  0  0  0  0
 24 66  1  0  0  0  0
 25 56  1  0  0  0  0
 26 78  1  0  0  0  0
 27 88  1  0  0  0  0
 28 89  1  0  0  0  0
 29 31  2  0  0  0  0
 29 88  1  0  0  0  0
 30 90  1  0  0  0  0
 31 91  1  0  0  0  0
 32 72  2  0  0  0  0
 33 73  1  0  0  0  0
 33 76  1  0  0  0  0
 34 77  1  0  0  0  0
 34 83  2  0  0  0  0
 35 51  1  0  0  0  0
 35 79  1  0  0  0  0
 35 84  2  0  0  0  0
 36 68  1  0  0  0  0
 36 74  1  0  0  0  0
 36 85  2  0  0  0  0
 37 69  1  0  0  0  0
 37 80  1  0  0  0  0
 37 86  2  0  0  0  0
 38 75  1  0  0  0  0
 38 81  1  0  0  0  0
 38 87  2  0  0  0  0
 39 42  1  0  0  0  0
 40 51  1  0  0  0  0
 41 74  1  0  0  0  0
 42 44  1  0  0  0  0
 43 45  1  0  0  0  0
 43 47  1  0  0  0  0
 44 50  1  0  0  0  0
 45 55  1  0  0  0  0
 46 52  1  0  0  0  0
 46 53  1  0  0  0  0
 47 75  1  0  0  0  0
 48 55  1  0  0  0  0
 48 75  1  0  0  0  0
 49 52  1  0  0  0  0
 49 54  1  0  0  0  0
 50 79  1  0  0  0  0
 51 74  1  0  0  0  0
 52 57  1  0  0  0  0
 53 54  1  0  0  0  0
 53 70  1  0  0  0  0
 54 58  1  0  0  0  0
 55 73  1  0  0  0  0
 59 69  1  0  0  0  0
 60 70  1  0  0  0  0
 61 71  1  0  0  0  0
 62 71  1  0  0  0  0
 63 71  1  0  0  0  0
 64 78  1  0  0  0  0
 65 82  1  0  0  0  0
 66 81  1  0  0  0  0
 67 70  1  0  0  0  0
 67 89  1  0  0  0  0
 68 71  1  0  0  0  0
 68 80  1  0  0  0  0
 69 82  1  0  0  0  0
 72 73  1  0  0  0  0
M  CHG  1  82   1
M  ISO  4  38 100  67 101  81 100  89 101
M  END
> <Batch ID>
0166

> <Smiles>
CNc1cc(C)c(C[100NH:0][100C:0](=O)N2CCCC(n3nc(-c4ccc(Oc5ccc(F)cc5F)cc4)c(C(N)=O)c3N)C2)cc1C1C(C)CC(C(C)[101CH2:1][101O:1]c2ccc3c(c2)CN(C(=O)C(NC(=O)C(C)NC)C(C)(C)C)C(C(=O)NC2CCCc4ccccc42)C3)C1C

> <Shape>
0.247

> <Color>
0.114

> <Negative vol penalty>
0.000

$$$$

  -OEChem-04052322243D

 89 99  0     1  0  0  0  0  0999 V2000
  -15.5373  -19.4537   21.7964 C   0  0  0  0  0  0  0  0  0  0  0  0
  -16.7988  -19.4805   22.3822 C   0  0  0  0  0  0  0  0  0  0  0  0
  -23.0782   -9.8628   19.9450 C   0  0  0  0  0  0  0  0  0  0  0  0
  -23.8348   -9.8814   22.2394 C   0  0  0  0  0  0  0  0  0  0  0  0
  -15.0851  -20.5527   21.0673 C   0  0  0  0  0  0  0  0  0  0  0  0
  -17.6094  -20.6060   22.2383 C   0  0  0  0  0  0  0  0  0  0  0  0
  -19.8057  -21.9871   26.5873 C   0  0  0  0  0  0  0  0  0  0  0  0
  -22.3358   -8.7097   20.1991 C   0  0  0  0  0  0  0  0  0  0  0  0
  -23.0923   -8.7283   22.4936 C   0  0  0  0  0  0  0  0  0  0  0  0
  -20.9143  -21.2507   27.0027 C   0  0  0  0  0  0  0  0  0  0  0  0
  -19.8645   -7.9282   23.0951 C   0  0  0  0  0  0  0  0  0  0  0  0
  -19.1059   -7.8924   24.2650 C   0  0  0  0  0  0  0  0  0  0  0  0
  -22.3711  -22.9736   26.1489 C   0  0  0  0  0  0  0  0  0  0  0  0
  -28.8091  -19.5396   24.9487 C   0  0  0  0  0  0  0  0  0  0  0  0
  -20.3493   -5.9603   25.0121 C   0  0  0  0  0  0  0  0  0  0  0  0
  -23.8278  -10.4487   20.9651 C   0  0  0  0  0  0  0  0  0  0  0  0
  -24.1659  -12.9738   20.8341 C   0  0  0  0  0  0  0  0  0  0  0  0
  -15.8867  -21.6961   20.9225 C   0  0  0  0  0  0  0  0  0  0  0  0
  -19.9720  -23.2192   25.9388 C   0  0  0  0  0  0  0  0  0  0  0  0
  -17.1680  -21.7208   21.5055 C   0  0  0  0  0  0  0  0  0  0  0  0
  -21.2629  -23.7248   25.7286 C   0  0  0  0  0  0  0  0  0  0  0  0
  -26.5721  -19.7796   25.8290 C   0  0  0  0  0  0  0  0  0  0  0  0
  -27.9388  -20.0450   25.9145 C   0  0  0  0  0  0  0  0  0  0  0  0
  -26.0757  -19.0089   24.7777 C   0  0  0  0  0  0  0  0  0  0  0  0
  -26.9460  -18.5035   23.8119 C   0  0  0  0  0  0  0  0  0  0  0  0
  -28.3128  -18.7689   23.8974 C   0  0  0  0  0  0  0  0  0  0  0  0
  -22.3428   -8.1424   21.4734 C   0  0  0  0  0  0  0  0  0  0  0  0
  -22.1973  -21.7426   26.7810 C   0  0  0  0  0  0  0  0  0  0  0  0
  -20.8655   -6.9800   22.8835 C   0  0  0  0  0  0  0  0  0  0  0  0
  -19.3483   -6.9085   25.2236 C   0  0  0  0  0  0  0  0  0  0  0  0
  -21.1079   -5.9961   23.8421 C   0  0  0  0  0  0  0  0  0  0  0  0
  -24.5954  -11.6396   20.7031 C   0  0  0  0  0  0  0  0  0  0  0  0
  -25.2574  -13.7233   20.4690 C   0  0  0  0  0  0  0  0  0  0  0  0
  -22.8940  -13.4895   21.2488 C   0  0  0  0  0  0  0  0  0  0  0  0
  -19.2284  -24.3608   23.0669 C   0  0  0  0  0  0  0  0  0  0  0  0
  -20.2985  -27.1510   24.3287 C   0  0  0  0  0  0  0  0  0  0  0  0
  -22.2497  -28.7231   26.6456 C   0  0  0  0  0  0  0  0  0  0  0  0
  -30.7393  -14.7518   20.6606 C   0  0  0  0  0  0  0  0  0  0  0  0
  -15.3737  -22.8410   20.0854 C   0  0  0  0  0  0  0  0  0  0  0  0
  -18.7653  -24.0139   25.5207 C   0  0  0  0  0  0  0  0  0  0  0  0
  -21.4949  -25.0518   25.0549 C   0  0  0  0  0  0  0  0  0  0  0  0
  -16.1442  -24.1420   20.2953 C   0  0  0  0  0  0  0  0  0  0  0  0
  -29.6088  -12.3546   18.2831 C   0  0  0  0  0  0  0  0  0  0  0  0
  -17.6472  -23.8832   20.2645 C   0  0  0  0  0  0  0  0  0  0  0  0
  -28.1712  -12.0607   18.7153 C   0  0  0  0  0  0  0  0  0  0  0  0
  -25.6368  -21.8029   27.1356 C   0  0  0  0  0  0  0  0  0  0  0  0
  -30.5239  -12.5824   19.4843 C   0  0  0  0  0  0  0  0  0  0  0  0
  -28.6190  -13.3168   20.8648 C   0  0  0  0  0  0  0  0  0  0  0  0
  -30.3032  -17.3806   23.2597 C   0  0  0  0  0  0  0  0  0  0  0  0
  -29.1125  -18.5918   21.5255 C   0  0  0  0  0  0  0  0  0  0  0  0
  -25.6489  -20.3182   26.8561 C   0  0  1  0  0  0  0  0  0  0  0  0
  -18.0667  -22.9332   21.3927 C   0  0  1  0  0  0  0  0  0  0  0  0
  -19.0649  -25.0153   24.4096 C   0  0  1  0  0  0  0  0  0  0  0  0
  -27.6468  -13.1353   19.6865 C   0  0  2  0  0  0  0  0  0  0  0  0
  -30.8000  -16.9081   21.8878 C   0  0  2  0  0  0  0  0  0  0  0  0
  -30.4251  -18.0549   20.9524 C   0  0  2  0  0  0  0  0  0  0  0  0
  -24.4787  -21.1740   26.4231 C   0  0  1  0  0  0  0  0  0  1  0  0
  -28.4982  -20.8668   27.0297 C   0  0  0  0  0  0  0  0  0  0  0  0
  -24.6094  -18.7239   24.6843 C   0  0  0  0  0  0  0  0  0  0  0  0
  -26.4124  -17.6771   22.6839 C   0  0  0  0  0  0  0  0  0  0  0  0
  -22.9489  -31.0099   27.4067 C   0  0  0  0  0  0  0  0  0  0  0  0
  -22.1615  -27.3794   21.9231 C   0  0  0  0  0  0  0  0  0  0  0  0
  -23.4614  -29.1095   23.1821 C   0  0  0  0  0  0  0  0  0  0  0  0
  -21.0703  -29.5239   22.6048 C   0  0  0  0  0  0  0  0  0  0  0  0
  -21.1025  -28.3035   29.3413 C   0  0  0  0  0  0  0  0  0  0  0  0
  -21.6370  -27.8447   24.4079 C   0  0  1  0  0  0  0  0  0  0  0  0
  -21.9588  -29.8711   27.5954 C   0  0  2  0  0  0  0  0  0  0  0  0
  -22.0786  -28.4385   23.0405 C   0  0  0  0  0  0  0  0  0  0  0  0
  -25.8610  -11.5438   20.2870 N   0  0  0  0  0  0  0  0  0  0  0  0
  -26.2361  -12.8274   20.1534 N   0  0  0  0  0  0  0  0  0  0  0  0
  -29.1892  -18.2779   22.9523 N   0  0  3  0  0  0  0  0  0  0  0  0
  -20.2833  -25.7884   24.6588 N   0  0  0  0  0  0  0  0  0  0  0  0
  -29.9704  -13.6141   20.3648 N   0  0  0  0  0  0  0  0  0  0  0  0
  -25.4658  -15.0548   20.3902 N   0  0  0  0  0  0  0  0  0  0  0  0
  -21.8830  -12.5803   21.5887 N   0  0  0  0  0  0  0  0  0  0  0  0
  -18.1238  -23.6405   22.6540 N   0  0  0  0  0  0  0  0  0  0  0  0
  -21.5236  -28.8295   25.4783 N   0  0  0  0  0  0  0  0  0  0  0  0
  -30.1374  -15.6835   21.4975 N   0  0  0  0  0  0  0  0  0  0  0  0
  -31.4618  -19.1233   21.0447 N   0  3  0  0  0  0  0  0  0  0  0  0
  -22.0402  -29.4070   29.0092 N   0  3  0  0  0  0  0  0  0  0  0  0
  -22.6557  -14.7200   21.3002 O   0  0  0  0  0  0  0  0  0  0  0  0
  -20.2783  -24.5004   22.4506 O   0  0  0  0  0  0  0  0  0  0  0  0
  -19.3020  -27.7960   23.9934 O   0  0  0  0  0  0  0  0  0  0  0  0
  -23.0446  -27.8241   26.9111 O   0  0  0  0  0  0  0  0  0  0  0  0
  -31.8756  -14.9270   20.2078 O   0  0  0  0  0  0  0  0  0  0  0  0
  -21.6183   -7.0173   21.7218 O   0  0  0  0  0  0  0  0  0  0  0  0
  -23.2811  -21.0255   27.1848 O   0  0  0  0  0  0  0  0  0  1  0  0
  -18.6208   -6.8752   26.3477 F   0  0  0  0  0  0  0  0  0  0  0  0
  -22.0689   -5.0831   23.6450 F   0  0  0  0  0  0  0  0  0  0  0  0
  1  2  1  0  0  0  0
  1  5  2  0  0  0  0
  2  6  2  0  0  0  0
  3  8  2  0  0  0  0
  3 16  1  0  0  0  0
  4  9  1  0  0  0  0
  4 16  2  0  0  0  0
  5 18  1  0  0  0  0
  6 20  1  0  0  0  0
  7 10  2  0  0  0  0
  7 19  1  0  0  0  0
  8 27  1  0  0  0  0
  9 27  2  0  0  0  0
 10 28  1  0  0  0  0
 11 12  2  0  0  0  0
 11 29  1  0  0  0  0
 12 30  1  0  0  0  0
 13 21  1  0  0  0  0
 13 28  2  0  0  0  0
 14 23  2  0  0  0  0
 14 26  1  0  0  0  0
 15 30  2  0  0  0  0
 15 31  1  0  0  0  0
 16 32  1  0  0  0  0
 17 32  1  0  0  0  0
 17 33  2  0  0  0  0
 17 34  1  0  0  0  0
 18 20  2  0  0  0  0
 18 39  1  0  0  0  0
 19 21  2  0  0  0  0
 19 40  1  0  0  0  0
 20 52  1  0  0  0  0
 21 41  1  0  0  0  0
 22 23  1  0  0  0  0
 22 24  2  0  0  0  0
 22 51  1  0  0  0  0
 23 58  1  0  0  0  0
 24 25  1  0  0  0  0
 24 59  1  0  0  0  0
 25 26  2  0  0  0  0
 25 60  1  0  0  0  0
 26 71  1  0  0  0  0
 27 86  1  0  0  0  0
 28 87  1  0  0  0  0
 29 31  2  0  0  0  0
 29 86  1  0  0  0  0
 30 88  1  0  0  0  0
 31 89  1  0  0  0  0
 32 69  2  0  0  0  0
 33 70  1  0  0  0  0
 33 74  1  0  0  0  0
 34 75  1  0  0  0  0
 34 81  2  0  0  0  0
 35 53  1  0  0  0  0
 35 76  1  0  0  0  0
 35 82  2  0  0  0  0
 36 66  1  0  0  0  0
 36 72  1  0  0  0  0
 36 83  2  0  0  0  0
 37 67  1  0  0  0  0
 37 77  1  0  0  0  0
 37 84  2  0  0  0  0
 38 73  1  0  0  0  0
 38 78  1  0  0  0  0
 38 85  2  0  0  0  0
 39 42  1  0  0  0  0
 40 53  1  0  0  0  0
 41 72  1  0  0  0  0
 42 44  1  0  0  0  0
 43 45  1  0  0  0  0
 43 47  1  0  0  0  0
 44 52  1  0  0  0  0
 45 54  1  0  0  0  0
 46 51  1  0  0  0  0
 46 57  1  0  0  0  0
 47 73  1  0  0  0  0
 48 54  1  0  0  0  0
 48 73  1  0  0  0  0
 49 55  1  0  0  0  0
 49 71  1  0  0  0  0
 50 56  1  0  0  0  0
 50 71  1  0  0  0  0
 51 57  1  0  0  0  0
 52 76  1  0  0  0  0
 53 72  1  0  0  0  0
 54 70  1  0  0  0  0
 55 56  1  0  0  0  0
 55 78  1  0  0  0  0
 56 79  1  0  0  0  0
 57 87  1  0  0  0  0
 61 67  1  0  0  0  0
 62 68  1  0  0  0  0
 63 68  1  0  0  0  0
 64 68  1  0  0  0  0
 65 80  1  0  0  0  0
 66 68  1  0  0  0  0
 66 77  1  0  0  0  0
 67 80  1  0  0  0  0
 69 70  1  0  0  0  0
M  CHG  2  79   1  80   1
M  ISO  4  38 100  57 101  78 100  87 101
M  END
> <Batch ID>
0166

> <Smiles>
CNC(C)C(=O)NC(C(=O)N1Cc2cc([101O:1][101CH:1]3CC3c3c(C)cc(N4CC(N)C([100NH:0][100C:0](=O)N5CCCC(n6nc(-c7ccc(Oc8ccc(F)cc8F)cc7)c(C(N)=O)c6N)C5)C4)c(C)c3C)ccc2CC1C(=O)NC1CCCc2ccccc21)C(C)(C)C

> <Shape>
0.215

> <Color>
0.187

> <Negative vol penalty>
0.000

$$$$

  -OEChem-04052322243D

 90100  0     1  0  0  0  0  0999 V2000
  -23.0281  -11.0452   21.6699 C   0  0  0  0  0  0  0  0  0  0  0  0
  -23.2787  -11.9968   22.6534 C   0  0  0  0  0  0  0  0  0  0  0  0
  -29.6766  -17.6918   19.5387 C   0  0  0  0  0  0  0  0  0  0  0  0
  -27.7951  -18.2065   20.9641 C   0  0  0  0  0  0  0  0  0  0  0  0
  -22.7882  -11.4481   20.3569 C   0  0  0  0  0  0  0  0  0  0  0  0
  -23.2907  -13.3517   22.3241 C   0  0  0  0  0  0  0  0  0  0  0  0
  -21.7108  -19.7778   25.0673 C   0  0  0  0  0  0  0  0  0  0  0  0
  -22.0752  -28.9938   22.5856 C   0  0  0  0  0  0  0  0  0  0  0  0
  -23.1765  -29.0066   21.7298 C   0  0  0  0  0  0  0  0  0  0  0  0
  -29.6718  -16.3778   20.0067 C   0  0  0  0  0  0  0  0  0  0  0  0
  -27.7902  -16.8925   21.4321 C   0  0  0  0  0  0  0  0  0  0  0  0
  -22.2816  -21.0343   25.2653 C   0  0  0  0  0  0  0  0  0  0  0  0
  -29.9263  -12.7937   20.5585 C   0  0  0  0  0  0  0  0  0  0  0  0
  -30.0579  -11.7704   19.6198 C   0  0  0  0  0  0  0  0  0  0  0  0
  -21.7756  -21.6177   22.9799 C   0  0  0  0  0  0  0  0  0  0  0  0
  -28.0416  -12.5201   18.5199 C   0  0  0  0  0  0  0  0  0  0  0  0
  -28.7383  -18.6062   20.0174 C   0  0  0  0  0  0  0  0  0  0  0  0
  -28.0423  -20.4742   18.4256 C   0  0  0  0  0  0  0  0  0  0  0  0
  -22.7877  -12.8091   20.0132 C   0  0  0  0  0  0  0  0  0  0  0  0
  -21.1770  -19.4273   23.8189 C   0  0  0  0  0  0  0  0  0  0  0  0
  -23.0519  -13.7730   21.0050 C   0  0  0  0  0  0  0  0  0  0  0  0
  -21.1962  -20.3570   22.7694 C   0  0  0  0  0  0  0  0  0  0  0  0
  -22.7171  -26.8040   23.3792 C   0  0  0  0  0  0  0  0  0  0  0  0
  -21.8455  -27.8926   23.4103 C   0  0  0  0  0  0  0  0  0  0  0  0
  -23.8185  -26.8167   22.5233 C   0  0  0  0  0  0  0  0  0  0  0  0
  -24.0482  -27.9180   21.6986 C   0  0  0  0  0  0  0  0  0  0  0  0
  -28.7286  -15.9782   20.9534 C   0  0  0  0  0  0  0  0  0  0  0  0
  -22.3167  -21.9534   24.2207 C   0  0  0  0  0  0  0  0  0  0  0  0
  -28.8523  -13.6802   20.4780 C   0  0  0  0  0  0  0  0  0  0  0  0
  -29.1156  -11.6336   18.6005 C   0  0  0  0  0  0  0  0  0  0  0  0
  -27.9100  -13.5433   19.4587 C   0  0  0  0  0  0  0  0  0  0  0  0
  -28.7432  -19.9638   19.5347 C   0  0  0  0  0  0  0  0  0  0  0  0
  -28.3785  -21.8054   18.3901 C   0  0  0  0  0  0  0  0  0  0  0  0
  -27.1658  -19.8048   17.5095 C   0  0  0  0  0  0  0  0  0  0  0  0
  -21.8272  -17.1995   21.6468 C   0  0  0  0  0  0  0  0  0  0  0  0
  -19.1561  -18.3638   20.2212 C   0  0  0  0  0  0  0  0  0  0  0  0
  -16.9998  -20.9756   19.8020 C   0  0  0  0  0  0  0  0  0  0  0  0
  -29.2178  -26.6836   20.9678 C   0  0  0  0  0  0  0  0  0  0  0  0
  -22.5700  -13.1937   18.5712 C   0  0  0  0  0  0  0  0  0  0  0  0
  -20.5407  -18.0776   23.6292 C   0  0  0  0  0  0  0  0  0  0  0  0
  -20.6184  -20.0371   21.4158 C   0  0  0  0  0  0  0  0  0  0  0  0
  -22.2296  -14.6693   18.3791 C   0  0  0  0  0  0  0  0  0  0  0  0
  -31.9269  -24.3738   20.9197 C   0  0  0  0  0  0  0  0  0  0  0  0
  -23.1769  -15.5460   19.1920 C   0  0  0  0  0  0  0  0  0  0  0  0
  -31.2812  -23.0620   20.4699 C   0  0  0  0  0  0  0  0  0  0  0  0
  -21.1330  -24.9356   24.2011 C   0  0  0  0  0  0  0  0  0  0  0  0
  -30.9946  -25.1822   21.8194 C   0  0  0  0  0  0  0  0  0  0  0  0
  -29.0119  -24.1288   20.8032 C   0  0  0  0  0  0  0  0  0  0  0  0
  -26.4440  -28.4815   21.2104 C   0  0  0  0  0  0  0  0  0  0  0  0
  -25.1013  -27.4538   19.4687 C   0  0  0  0  0  0  0  0  0  0  0  0
  -22.4707  -25.6356   24.2575 C   0  0  1  0  0  0  0  0  0  0  0  0
  -23.0488  -15.2536   20.6919 C   0  0  1  0  0  0  0  0  0  0  0  0
  -20.4891  -17.6414   22.1682 C   0  0  1  0  0  0  0  0  0  0  0  0
  -29.8926  -23.3047   19.8484 C   0  0  2  0  0  0  0  0  0  0  0  0
  -27.3609  -28.0553   20.0571 C   0  0  2  0  0  0  0  0  0  0  0  0
  -26.4154  -27.9497   18.8631 C   0  0  2  0  0  0  0  0  0  0  0  0
  -22.3468  -24.2596   23.6406 C   0  0  1  0  0  0  0  0  0  1  0  0
  -20.6591  -27.9069   24.3183 C   0  0  0  0  0  0  0  0  0  0  0  0
  -25.3957  -25.3504   23.8480 C   0  0  0  0  0  0  0  0  0  0  0  0
  -14.9328  -21.6412   18.5444 C   0  0  0  0  0  0  0  0  0  0  0  0
  -20.8168  -18.7233   17.6869 C   0  0  0  0  0  0  0  0  0  0  0  0
  -19.0197  -20.2277   16.8063 C   0  0  0  0  0  0  0  0  0  0  0  0
  -18.5094  -17.8375   17.3052 C   0  0  0  0  0  0  0  0  0  0  0  0
  -15.4746  -21.3995   22.3026 C   0  0  0  0  0  0  0  0  0  0  0  0
  -24.7540  -25.6485   22.4890 C   0  0  1  0  0  0  0  0  0  0  0  0
  -18.8689  -19.4532   19.2163 C   0  0  1  0  0  0  0  0  0  0  0  0
  -15.4836  -21.0446   19.8302 C   0  0  2  0  0  0  0  0  0  0  0  0
  -19.3164  -19.0661   17.7785 C   0  0  0  0  0  0  0  0  0  0  0  0
  -29.4698  -20.8948   20.1586 N   0  0  0  0  0  0  0  0  0  0  0  0
  -29.2274  -22.0037   19.4390 N   0  0  0  0  0  0  0  0  0  0  0  0
  -25.1309  -27.9496   20.8448 N   0  0  3  0  0  0  0  0  0  0  0  0
  -20.0130  -18.7022   21.2781 N   0  0  0  0  0  0  0  0  0  0  0  0
  -29.6958  -25.3785   21.1710 N   0  0  0  0  0  0  0  0  0  0  0  0
  -28.0278  -22.8141   17.5642 N   0  0  0  0  0  0  0  0  0  0  0  0
  -26.9294  -18.4353   17.6907 N   0  0  0  0  0  0  0  0  0  0  0  0
  -21.8615  -15.8826   21.2297 N   0  0  0  0  0  0  0  0  0  0  0  0
  -17.4471  -19.7566   19.3383 N   0  0  0  0  0  0  0  0  0  0  0  0
  -27.9815  -26.7806   20.3409 N   0  0  0  0  0  0  0  0  0  0  0  0
  -26.1963  -29.3084   18.2880 N   0  3  0  0  0  0  0  0  0  0  0  0
  -24.1034  -24.3838   22.0092 N   0  3  0  0  0  0  0  0  0  0  0  0
  -15.0244  -21.8844   20.9725 N   0  3  0  0  0  0  0  0  0  0  0  0
  -26.6216  -20.3999   16.5487 O   0  0  0  0  0  0  0  0  0  0  0  0
  -22.7591  -17.9950   21.6231 O   0  0  0  0  0  0  0  0  0  0  0  0
  -18.6335  -17.2557   20.0778 O   0  0  0  0  0  0  0  0  0  0  0  0
  -17.7158  -21.9111   20.1525 O   0  0  0  0  0  0  0  0  0  0  0  0
  -29.8485  -27.6881   21.3143 O   0  0  0  0  0  0  0  0  0  0  0  0
  -28.7234  -14.6960   21.4102 O   0  0  0  0  0  0  0  0  0  0  0  0
  -22.8738  -23.1803   24.4111 O   0  0  0  0  0  0  0  0  0  1  0  0
  -29.2429  -10.6519   17.6982 F   0  0  0  0  0  0  0  0  0  0  0  0
  -26.8767  -14.3926   19.3754 F   0  0  0  0  0  0  0  0  0  0  0  0
  1  2  1  0  0  0  0
  1  5  2  0  0  0  0
  2  6  2  0  0  0  0
  3 10  2  0  0  0  0
  3 17  1  0  0  0  0
  4 11  1  0  0  0  0
  4 17  2  0  0  0  0
  5 19  1  0  0  0  0
  6 21  1  0  0  0  0
  7 12  2  0  0  0  0
  7 20  1  0  0  0  0
  8  9  1  0  0  0  0
  8 24  2  0  0  0  0
  9 26  2  0  0  0  0
 10 27  1  0  0  0  0
 11 27  2  0  0  0  0
 12 28  1  0  0  0  0
 13 14  2  0  0  0  0
 13 29  1  0  0  0  0
 14 30  1  0  0  0  0
 15 22  1  0  0  0  0
 15 28  2  0  0  0  0
 16 30  2  0  0  0  0
 16 31  1  0  0  0  0
 17 32  1  0  0  0  0
 18 32  1  0  0  0  0
 18 33  2  0  0  0  0
 18 34  1  0  0  0  0
 19 21  2  0  0  0  0
 19 39  1  0  0  0  0
 20 22  2  0  0  0  0
 20 40  1  0  0  0  0
 21 52  1  0  0  0  0
 22 41  1  0  0  0  0
 23 24  1  0  0  0  0
 23 25  2  0  0  0  0
 23 51  1  0  0  0  0
 24 58  1  0  0  0  0
 25 26  1  0  0  0  0
 25 65  1  0  0  0  0
 26 71  1  0  0  0  0
 27 87  1  0  0  0  0
 28 88  1  0  0  0  0
 29 31  2  0  0  0  0
 29 87  1  0  0  0  0
 30 89  1  0  0  0  0
 31 90  1  0  0  0  0
 32 69  2  0  0  0  0
 33 70  1  0  0  0  0
 33 74  1  0  0  0  0
 34 75  1  0  0  0  0
 34 82  2  0  0  0  0
 35 53  1  0  0  0  0
 35 76  1  0  0  0  0
 35 83  2  0  0  0  0
 36 66  1  0  0  0  0
 36 72  1  0  0  0  0
 36 84  2  0  0  0  0
 37 67  1  0  0  0  0
 37 77  1  0  0  0  0
 37 85  2  0  0  0  0
 38 73  1  0  0  0  0
 38 78  1  0  0  0  0
 38 86  2  0  0  0  0
 39 42  1  0  0  0  0
 40 53  1  0  0  0  0
 41 72  1  0  0  0  0
 42 44  1  0  0  0  0
 43 45  1  0  0  0  0
 43 47  1  0  0  0  0
 44 52  1  0  0  0  0
 45 54  1  0  0  0  0
 46 51  1  0  0  0  0
 46 57  1  0  0  0  0
 47 73  1  0  0  0  0
 48 54  1  0  0  0  0
 48 73  1  0  0  0  0
 49 55  1  0  0  0  0
 49 71  1  0  0  0  0
 50 56  1  0  0  0  0
 50 71  1  0  0  0  0
 51 57  1  0  0  0  0
 52 76  1  0  0  0  0
 53 72  1  0  0  0  0
 54 70  1  0  0  0  0
 55 56  1  0  0  0  0
 55 78  1  0  0  0  0
 56 79  1  0  0  0  0
 57 88  1  0  0  0  0
 59 65  1  0  0  0  0
 60 67  1  0  0  0  0
 61 68  1  0  0  0  0
 62 68  1  0  0  0  0
 63 68  1  0  0  0  0
 64 81  1  0  0  0  0
 65 80  1  0  0  0  0
 66 68  1  0  0  0  0
 66 77  1  0  0  0  0
 67 81  1  0  0  0  0
 69 70  1  0  0  0  0
M  CHG  3  79   1  80   1  81   1
M  ISO  4  38 100  57 101  78 100  88 101
M  END
> <Batch ID>
0166

> <Smiles>
CNC(C)C(=O)NC(C(=O)N1Cc2cc([101O:1][101CH:1]3CC3c3c(C)ccc(N4CC(N)C([100NH:0][100C:0](=O)N5CCCC(n6nc(-c7ccc(Oc8ccc(F)cc8F)cc7)c(C(N)=O)c6N)C5)C4)c3C(C)N)ccc2CC1C(=O)NC1CCCc2ccccc21)C(C)(C)C

> <Shape>
0.209

> <Color>
0.049

> <Negative vol penalty>
0.000

$$$$

  -OEChem-04052322243D

 90 99  0     1  0  0  0  0  0999 V2000
  -20.2927  -26.9133   26.3495 C   0  0  0  0  0  0  0  0  0  0  0  0
  -21.4505  -26.5996   25.6450 C   0  0  0  0  0  0  0  0  0  0  0  0
  -25.3503  -16.0501   17.3243 C   0  0  0  0  0  0  0  0  0  0  0  0
  -25.8723  -13.7654   16.7371 C   0  0  0  0  0  0  0  0  0  0  0  0
  -19.2429  -27.5683   25.7069 C   0  0  0  0  0  0  0  0  0  0  0  0
  -21.5589  -26.9397   24.2971 C   0  0  0  0  0  0  0  0  0  0  0  0
  -26.0502  -28.9871   23.1650 C   0  0  0  0  0  0  0  0  0  0  0  0
  -25.1710  -16.3559   15.9752 C   0  0  0  0  0  0  0  0  0  0  0  0
  -25.6929  -14.0711   15.3881 C   0  0  0  0  0  0  0  0  0  0  0  0
  -27.1297  -28.1161   23.0245 C   0  0  0  0  0  0  0  0  0  0  0  0
  -22.7773  -15.9395   13.6237 C   0  0  0  0  0  0  0  0  0  0  0  0
  -21.6588  -16.6958   13.2736 C   0  0  0  0  0  0  0  0  0  0  0  0
  -26.8934  -28.2195   20.6261 C   0  0  0  0  0  0  0  0  0  0  0  0
  -23.1010  -18.4066   12.3622 C   0  0  0  0  0  0  0  0  0  0  0  0
  -25.7011  -14.7549   17.7052 C   0  0  0  0  0  0  0  0  0  0  0  0
  -24.9108  -13.9826   20.0045 C   0  0  0  0  0  0  0  0  0  0  0  0
  -19.3423  -27.9252   24.3529 C   0  0  0  0  0  0  0  0  0  0  0  0
  -25.3761  -29.4731   22.0354 C   0  0  0  0  0  0  0  0  0  0  0  0
  -20.5089  -27.5989   23.6353 C   0  0  0  0  0  0  0  0  0  0  0  0
  -25.8072  -29.0986   20.7548 C   0  0  0  0  0  0  0  0  0  0  0  0
  -25.3422  -15.3664   15.0071 C   0  0  0  0  0  0  0  0  0  0  0  0
  -27.5497  -27.7299   21.7551 C   0  0  0  0  0  0  0  0  0  0  0  0
  -24.0576  -16.4167   13.3431 C   0  0  0  0  0  0  0  0  0  0  0  0
  -21.8206  -17.9294   12.6428 C   0  0  0  0  0  0  0  0  0  0  0  0
  -24.2195  -17.6502   12.7123 C   0  0  0  0  0  0  0  0  0  0  0  0
  -25.8871  -14.4386   19.0986 C   0  0  0  0  0  0  0  0  0  0  0  0
  -25.5868  -13.8314   21.1905 C   0  0  0  0  0  0  0  0  0  0  0  0
  -28.9888  -22.1953   21.5734 C   0  0  0  0  0  0  0  0  0  0  0  0
  -29.7611  -23.1325   19.4716 C   0  0  0  0  0  0  0  0  0  0  0  0
  -29.1793  -22.1304   20.1479 C   0  0  0  0  0  0  0  0  0  0  0  0
  -29.3911  -23.2675   22.2748 C   0  0  0  0  0  0  0  0  0  0  0  0
  -30.2214  -24.3468   20.2325 C   0  0  0  0  0  0  0  0  0  0  0  0
  -23.5174  -13.7191   19.7928 C   0  0  0  0  0  0  0  0  0  0  0  0
  -22.4050  -29.2504   20.9279 C   0  0  0  0  0  0  0  0  0  0  0  0
  -23.4911  -31.3499   18.7064 C   0  0  0  0  0  0  0  0  0  0  0  0
  -26.1488  -32.6579   17.0114 C   0  0  0  0  0  0  0  0  0  0  0  0
  -30.3357  -15.7000   19.4929 C   0  0  0  0  0  0  0  0  0  0  0  0
  -18.1626  -28.5901   23.6889 C   0  0  0  0  0  0  0  0  0  0  0  0
  -24.2303  -30.4329   22.2030 C   0  0  0  0  0  0  0  0  0  0  0  0
  -25.1302  -29.6081   19.5096 C   0  0  0  0  0  0  0  0  0  0  0  0
  -18.5059  -29.2497   22.3558 C   0  0  0  0  0  0  0  0  0  0  0  0
  -29.7910  -12.5735   20.9849 C   0  0  0  0  0  0  0  0  0  0  0  0
  -19.3431  -28.3092   21.4948 C   0  0  0  0  0  0  0  0  0  0  0  0
  -28.7179  -12.8289   22.0404 C   0  0  0  0  0  0  0  0  0  0  0  0
  -29.6145  -19.1177   20.8358 C   0  0  0  0  0  0  0  0  0  0  0  0
  -29.3700  -19.0812   18.3304 C   0  0  0  0  0  0  0  0  0  0  0  0
  -30.7797  -13.7289   20.9210 C   0  0  0  0  0  0  0  0  0  0  0  0
  -30.5019  -17.8832   20.7395 C   0  0  0  0  0  0  0  0  0  0  0  0
  -30.2582  -17.8437   18.2780 C   0  0  0  0  0  0  0  0  0  0  0  0
  -29.0567  -15.3451   21.6661 C   0  0  0  0  0  0  0  0  0  0  0  0
  -20.6740  -27.9734   22.1784 C   0  0  1  0  0  0  0  0  0  0  0  0
  -23.2929  -30.4604   20.9997 C   0  0  1  0  0  0  0  0  0  0  0  0
  -28.0427  -14.2062   21.9128 C   0  0  1  0  0  0  0  0  0  0  0  0
  -29.6759  -19.9448   19.5521 C   0  0  0  0  0  0  0  0  0  0  0  0
  -29.1853  -23.3206   23.7634 C   0  0  0  0  0  0  0  0  0  0  0  0
  -29.2544  -24.3416   17.3645 C   0  0  0  0  0  0  0  0  0  0  0  0
  -31.5012  -23.2643   17.6955 C   0  0  0  0  0  0  0  0  0  0  0  0
  -26.7189  -34.3320   15.2311 C   0  0  0  0  0  0  0  0  0  0  0  0
  -22.4856  -29.4171   16.5702 C   0  0  0  0  0  0  0  0  0  0  0  0
  -23.8941  -30.6399   14.9001 C   0  0  0  0  0  0  0  0  0  0  0  0
  -22.0483  -31.8307   16.0824 C   0  0  0  0  0  0  0  0  0  0  0  0
  -27.8156  -34.2434   18.8734 C   0  0  0  0  0  0  0  0  0  0  0  0
  -30.4381  -25.5027   22.3986 C   0  0  0  0  0  0  0  0  0  0  0  0
  -29.2691  -26.3899   22.7877 C   0  0  0  0  0  0  0  0  0  1  0  0
  -30.0077  -23.1736   17.9900 C   0  0  0  0  0  0  0  0  0  0  0  0
  -24.1496  -31.2293   17.3533 C   0  0  1  0  0  0  0  0  0  0  0  0
  -26.5526  -34.0926   16.7237 C   0  0  2  0  0  0  0  0  0  0  0  0
  -23.1561  -30.7679   16.2498 C   0  0  0  0  0  0  0  0  0  0  0  0
  -27.0916  -14.5688   19.6610 N   0  0  0  0  0  0  0  0  0  0  0  0
  -26.8766  -14.1923   20.9330 N   0  0  0  0  0  0  0  0  0  0  0  0
  -30.0043  -24.3413   21.6220 N   0  0  0  0  0  0  0  0  0  0  0  0
  -24.0107  -30.5395   19.7258 N   0  0  0  0  0  0  0  0  0  0  0  0
  -30.0974  -15.0001   20.6868 N   0  0  0  0  0  0  0  0  0  0  0  0
  -30.2045  -17.0965   19.5347 N   0  0  0  0  0  0  0  0  0  0  0  0
  -25.1978  -13.4263   22.4181 N   0  0  0  0  0  0  0  0  0  0  0  0
  -22.9850  -13.9271   18.5131 N   0  0  0  0  0  0  0  0  0  0  0  0
  -21.6048  -29.0730   22.0404 N   0  0  0  0  0  0  0  0  0  0  0  0
  -24.7792  -32.5186   17.0894 N   0  0  0  0  0  0  0  0  0  0  0  0
  -27.8427  -34.4127   17.3977 N   0  3  0  0  0  0  0  0  0  0  0  0
  -30.7569  -25.2719   19.6194 O   0  0  0  0  0  0  0  0  0  0  0  0
  -22.7632  -13.3270   20.7152 O   0  0  0  0  0  0  0  0  0  0  0  0
  -22.4420  -28.5318   19.9359 O   0  0  0  0  0  0  0  0  0  0  0  0
  -22.5551  -32.1394   18.8553 O   0  0  0  0  0  0  0  0  0  0  0  0
  -26.9663  -31.7506   17.1493 O   0  0  0  0  0  0  0  0  0  0  0  0
  -30.6232  -15.1129   18.4420 O   0  0  0  0  0  0  0  0  0  0  0  0
  -25.1670  -15.6643   13.6906 O   0  0  0  0  0  0  0  0  0  0  0  0
  -28.6234  -26.8626   21.6124 O   0  0  0  0  0  0  0  0  0  1  0  0
  -28.7272  -21.0032   19.6147 O   0  0  0  0  0  0  0  0  0  0  0  0
  -20.7465  -18.6548   12.3052 F   0  0  0  0  0  0  0  0  0  0  0  0
  -25.4469  -18.1134   12.4392 F   0  0  0  0  0  0  0  0  0  0  0  0
  1  2  1  0  0  0  0
  1  5  2  0  0  0  0
  2  6  2  0  0  0  0
  3  8  2  0  0  0  0
  3 15  1  0  0  0  0
  4  9  1  0  0  0  0
  4 15  2  0  0  0  0
  5 17  1  0  0  0  0
  6 19  1  0  0  0  0
  7 10  2  0  0  0  0
  7 18  1  0  0  0  0
  8 21  1  0  0  0  0
  9 21  2  0  0  0  0
 10 22  1  0  0  0  0
 11 12  2  0  0  0  0
 11 23  1  0  0  0  0
 12 24  1  0  0  0  0
 13 20  1  0  0  0  0
 13 22  2  0  0  0  0
 14 24  2  0  0  0  0
 14 25  1  0  0  0  0
 15 26  1  0  0  0  0
 16 26  1  0  0  0  0
 16 27  2  0  0  0  0
 16 33  1  0  0  0  0
 17 19  2  0  0  0  0
 17 38  1  0  0  0  0
 18 20  2  0  0  0  0
 18 39  1  0  0  0  0
 19 51  1  0  0  0  0
 20 40  1  0  0  0  0
 21 86  1  0  0  0  0
 22 87  1  0  0  0  0
 23 25  2  0  0  0  0
 23 86  1  0  0  0  0
 24 89  1  0  0  0  0
 25 90  1  0  0  0  0
 26 69  2  0  0  0  0
 27 70  1  0  0  0  0
 27 75  1  0  0  0  0
 28 30  1  0  0  0  0
 28 31  2  0  0  0  0
 29 30  2  0  0  0  0
 29 32  1  0  0  0  0
 29 65  1  0  0  0  0
 30 88  1  0  0  0  0
 31 55  1  0  0  0  0
 31 71  1  0  0  0  0
 32 71  1  0  0  0  0
 32 80  2  0  0  0  0
 33 76  1  0  0  0  0
 33 81  2  0  0  0  0
 34 52  1  0  0  0  0
 34 77  1  0  0  0  0
 34 82  2  0  0  0  0
 35 66  1  0  0  0  0
 35 72  1  0  0  0  0
 35 83  2  0  0  0  0
 36 67  1  0  0  0  0
 36 78  1  0  0  0  0
 36 84  2  0  0  0  0
 37 73  1  0  0  0  0
 37 74  1  0  0  0  0
 37 85  2  0  0  0  0
 38 41  1  0  0  0  0
 39 52  1  0  0  0  0
 40 72  1  0  0  0  0
 41 43  1  0  0  0  0
 42 44  1  0  0  0  0
 42 47  1  0  0  0  0
 43 51  1  0  0  0  0
 44 53  1  0  0  0  0
 45 48  1  0  0  0  0
 45 54  1  0  0  0  0
 46 49  1  0  0  0  0
 46 54  1  0  0  0  0
 47 73  1  0  0  0  0
 48 74  1  0  0  0  0
 49 74  1  0  0  0  0
 50 53  1  0  0  0  0
 50 73  1  0  0  0  0
 51 77  1  0  0  0  0
 52 72  1  0  0  0  0
 53 70  1  0  0  0  0
 54 88  1  0  0  0  0
 56 65  1  0  0  0  0
 57 65  1  0  0  0  0
 58 67  1  0  0  0  0
 59 68  1  0  0  0  0
 60 68  1  0  0  0  0
 61 68  1  0  0  0  0
 62 79  1  0  0  0  0
 63 64  1  0  0  0  0
 63 71  1  0  0  0  0
 64 87  1  0  0  0  0
 66 68  1  0  0  0  0
 66 78  1  0  0  0  0
 67 79  1  0  0  0  0
 69 70  1  0  0  0  0
M  CHG  1  79   1
M  ISO  4  37 100  64 101  74 100  87 101
M  END
> <Batch ID>
0166

> <Smiles>
CNC(C)C(=O)NC(C(=O)N1Cc2cc([101O:1][101CH2:1]Cn3c(C)cc(OC4CC[100N:0]([100C:0](=O)N5CCCC(n6nc(-c7ccc(Oc8ccc(F)cc8F)cc7)c(C(N)=O)c6N)C5)CC4)c(C(C)C)c3=O)ccc2CC1C(=O)NC1CCCc2ccccc21)C(C)(C)C

> <Shape>
0.243

> <Color>
0.078

> <Negative vol penalty>
0.000

$$$$

  -OEChem-04052322243D

 88 98  0     1  0  0  0  0  0999 V2000
  -23.7488  -32.1477   25.9355 C   0  0  0  0  0  0  0  0  0  0  0  0
  -23.3368  -31.1971   25.0070 C   0  0  0  0  0  0  0  0  0  0  0  0
  -23.3850   -9.7133   19.8898 C   0  0  0  0  0  0  0  0  0  0  0  0
  -23.7133   -9.9067   22.2756 C   0  0  0  0  0  0  0  0  0  0  0  0
  -24.6389  -33.1514   25.5558 C   0  0  0  0  0  0  0  0  0  0  0  0
  -23.8141  -31.2503   23.6978 C   0  0  0  0  0  0  0  0  0  0  0  0
  -25.2204  -26.7077   21.9566 C   0  0  0  0  0  0  0  0  0  0  0  0
  -22.7134   -8.5057   20.0801 C   0  0  0  0  0  0  0  0  0  0  0  0
  -23.0417   -8.6991   22.4659 C   0  0  0  0  0  0  0  0  0  0  0  0
  -24.2079  -25.8423   21.5447 C   0  0  0  0  0  0  0  0  0  0  0  0
  -23.7222   -5.3991   22.1870 C   0  0  0  0  0  0  0  0  0  0  0  0
  -24.2859   -4.4758   23.0675 C   0  0  0  0  0  0  0  0  0  0  0  0
  -25.5558  -19.5370   17.8492 C   0  0  0  0  0  0  0  0  0  0  0  0
  -23.5222  -19.7599   15.8956 C   0  0  0  0  0  0  0  0  0  0  0  0
  -24.6359  -26.4444   19.2482 C   0  0  0  0  0  0  0  0  0  0  0  0
  -22.2949   -4.5627   24.4334 C   0  0  0  0  0  0  0  0  0  0  0  0
  -23.8850  -10.4138   20.9876 C   0  0  0  0  0  0  0  0  0  0  0  0
  -24.0176  -12.9516   20.7645 C   0  0  0  0  0  0  0  0  0  0  0  0
  -25.1348  -33.2112   24.2439 C   0  0  0  0  0  0  0  0  0  0  0  0
  -25.9422  -27.4574   21.0167 C   0  0  0  0  0  0  0  0  0  0  0  0
  -24.7107  -32.2565   23.2999 C   0  0  0  0  0  0  0  0  0  0  0  0
  -24.5110  -20.4314   18.0035 C   0  0  0  0  0  0  0  0  0  0  0  0
  -25.5853  -18.7482   16.6971 C   0  0  0  0  0  0  0  0  0  0  0  0
  -23.5055  -20.5416   17.0375 C   0  0  0  0  0  0  0  0  0  0  0  0
  -25.6588  -27.3166   19.6506 C   0  0  0  0  0  0  0  0  0  0  0  0
  -24.5758  -18.8589   15.7274 C   0  0  0  0  0  0  0  0  0  0  0  0
  -22.5417   -7.9986   21.3681 C   0  0  0  0  0  0  0  0  0  0  0  0
  -23.9135  -25.7127   20.1906 C   0  0  0  0  0  0  0  0  0  0  0  0
  -22.4448   -5.9043   22.4297 C   0  0  0  0  0  0  0  0  0  0  0  0
  -23.5723   -4.0576   24.1907 C   0  0  0  0  0  0  0  0  0  0  0  0
  -21.7312   -5.4861   23.5529 C   0  0  0  0  0  0  0  0  0  0  0  0
  -24.5794  -11.6610   20.7916 C   0  0  0  0  0  0  0  0  0  0  0  0
  -25.0867  -13.7869   20.5505 C   0  0  0  0  0  0  0  0  0  0  0  0
  -22.6516  -13.3588   20.9190 C   0  0  0  0  0  0  0  0  0  0  0  0
  -26.3430  -30.5597   20.4522 C   0  0  0  0  0  0  0  0  0  0  0  0
  -28.4880  -29.4873   18.2679 C   0  0  0  0  0  0  0  0  0  0  0  0
  -29.5378  -26.9492   16.2424 C   0  0  0  0  0  0  0  0  0  0  0  0
  -29.7681  -15.1467   18.0707 C   0  0  0  0  0  0  0  0  0  0  0  0
  -26.0585  -34.3426   23.8678 C   0  0  0  0  0  0  0  0  0  0  0  0
  -27.0493  -28.3664   21.4752 C   0  0  0  0  0  0  0  0  0  0  0  0
  -26.4180  -28.0837   18.6001 C   0  0  0  0  0  0  0  0  0  0  0  0
  -24.2484  -21.3579   19.1428 C   0  0  0  0  0  0  0  0  0  0  0  0
  -22.4882  -21.5512   17.4514 C   0  0  0  0  0  0  0  0  0  0  0  0
  -26.8084  -34.1073   22.5592 C   0  0  0  0  0  0  0  0  0  0  0  0
  -30.0574  -12.8971   20.6798 C   0  0  0  0  0  0  0  0  0  0  0  0
  -25.8540  -33.6073   21.4794 C   0  0  0  0  0  0  0  0  0  0  0  0
  -28.6146  -12.4708   20.9514 C   0  0  0  0  0  0  0  0  0  0  0  0
  -28.0361  -18.2813   17.1383 C   0  0  0  0  0  0  0  0  0  0  0  0
  -26.3798  -16.3704   17.0606 C   0  0  0  0  0  0  0  0  0  0  0  0
  -30.3231  -13.0039   19.1824 C   0  0  0  0  0  0  0  0  0  0  0  0
  -29.1711  -17.2740   16.9705 C   0  0  0  0  0  0  0  0  0  0  0  0
  -27.5512  -15.4070   16.8929 C   0  0  0  0  0  0  0  0  0  0  0  0
  -27.9460  -13.5139   18.7313 C   0  0  0  0  0  0  0  0  0  0  0  0
  -26.7275  -17.7664   16.5143 C   0  0  0  0  0  0  0  0  0  0  0  0
  -25.2254  -32.2662   21.8768 C   0  0  1  0  0  0  0  0  0  0  0  0
  -27.3740  -29.4668   20.4697 C   0  0  1  0  0  0  0  0  0  0  0  0
  -27.6200  -13.4004   20.2339 C   0  0  1  0  0  0  0  0  0  0  0  0
  -24.6069  -18.0109   14.4969 C   0  0  0  0  0  0  0  0  0  0  0  0
  -31.2978  -26.3824   14.5457 C   0  0  0  0  0  0  0  0  0  0  0  0
  -27.0165  -31.1629   16.1854 C   0  0  0  0  0  0  0  0  0  0  0  0
  -28.1841  -29.8474   14.4036 C   0  0  0  0  0  0  0  0  0  0  0  0
  -29.5099  -31.2274   16.0038 C   0  0  0  0  0  0  0  0  0  0  0  0
  -30.5942  -24.7404   17.9050 C   0  0  0  0  0  0  0  0  0  0  0  0
  -22.1109  -22.6032   19.7380 C   0  0  0  0  0  0  0  0  0  0  0  0
  -22.6813  -23.7185   20.5917 C   0  0  0  0  0  0  0  0  0  1  0  0
  -28.4248  -29.0918   16.8124 C   0  0  1  0  0  0  0  0  0  0  0  0
  -30.9113  -26.3435   16.0161 C   0  0  2  0  0  0  0  0  0  0  0  0
  -28.2680  -30.3192   15.8710 C   0  0  0  0  0  0  0  0  0  0  0  0
  -25.9025  -11.6707   20.6093 N   0  0  0  0  0  0  0  0  0  0  0  0
  -26.1811  -12.9775   20.4654 N   0  0  0  0  0  0  0  0  0  0  0  0
  -27.4871  -28.9645   19.0989 N   0  0  0  0  0  0  0  0  0  0  0  0
  -29.3543  -13.8897   18.5371 N   0  0  0  0  0  0  0  0  0  0  0  0
  -28.7890  -15.9524   17.4665 N   0  0  0  0  0  0  0  0  0  0  0  0
  -25.1879  -15.1276   20.4286 N   0  0  0  0  0  0  0  0  0  0  0  0
  -21.6800  -12.3714   21.1319 N   0  0  0  0  0  0  0  0  0  0  0  0
  -26.1665  -31.1862   21.6712 N   0  0  0  0  0  0  0  0  0  0  0  0
  -29.6161  -28.2898   16.5552 N   0  0  0  0  0  0  0  0  0  0  0  0
  -23.0937  -22.2460   18.6733 N   0  3  1  0  0  0  0  0  0  0  0  0
  -30.9328  -24.9243   16.4703 N   0  3  0  0  0  0  0  0  0  0  0  0
  -22.3007  -14.5613   20.8532 O   0  0  0  0  0  0  0  0  0  0  0  0
  -25.7525  -30.8165   19.4096 O   0  0  0  0  0  0  0  0  0  0  0  0
  -29.3963  -30.2270   18.6547 O   0  0  0  0  0  0  0  0  0  0  0  0
  -28.4992  -26.2990   16.1473 O   0  0  0  0  0  0  0  0  0  0  0  0
  -30.9383  -15.5304   18.1906 O   0  0  0  0  0  0  0  0  0  0  0  0
  -21.8862   -6.8203   21.5542 O   0  0  0  0  0  0  0  0  0  0  0  0
  -22.9182  -24.8632   19.7829 O   0  0  0  0  0  0  0  0  0  1  0  0
  -24.1132   -3.1697   25.0353 F   0  0  0  0  0  0  0  0  0  0  0  0
  -20.5032   -5.9671   23.7907 F   0  0  0  0  0  0  0  0  0  0  0  0
  1  2  1  0  0  0  0
  1  5  2  0  0  0  0
  2  6  2  0  0  0  0
  3  8  2  0  0  0  0
  3 17  1  0  0  0  0
  4  9  1  0  0  0  0
  4 17  2  0  0  0  0
  5 19  1  0  0  0  0
  6 21  1  0  0  0  0
  7 10  2  0  0  0  0
  7 20  1  0  0  0  0
  8 27  1  0  0  0  0
  9 27  2  0  0  0  0
 10 28  1  0  0  0  0
 11 12  2  0  0  0  0
 11 29  1  0  0  0  0
 12 30  1  0  0  0  0
 13 22  1  0  0  0  0
 13 23  2  0  0  0  0
 14 24  1  0  0  0  0
 14 26  2  0  0  0  0
 15 25  1  0  0  0  0
 15 28  2  0  0  0  0
 16 30  2  0  0  0  0
 16 31  1  0  0  0  0
 17 32  1  0  0  0  0
 18 32  1  0  0  0  0
 18 33  2  0  0  0  0
 18 34  1  0  0  0  0
 19 21  2  0  0  0  0
 19 39  1  0  0  0  0
 20 25  2  0  0  0  0
 20 40  1  0  0  0  0
 21 55  1  0  0  0  0
 22 24  2  0  0  0  0
 22 42  1  0  0  0  0
 23 26  1  0  0  0  0
 23 54  1  0  0  0  0
 24 43  1  0  0  0  0
 25 41  1  0  0  0  0
 26 58  1  0  0  0  0
 27 85  1  0  0  0  0
 28 86  1  0  0  0  0
 29 31  2  0  0  0  0
 29 85  1  0  0  0  0
 30 87  1  0  0  0  0
 31 88  1  0  0  0  0
 32 69  2  0  0  0  0
 33 70  1  0  0  0  0
 33 74  1  0  0  0  0
 34 75  1  0  0  0  0
 34 80  2  0  0  0  0
 35 56  1  0  0  0  0
 35 76  1  0  0  0  0
 35 81  2  0  0  0  0
 36 66  1  0  0  0  0
 36 71  1  0  0  0  0
 36 82  2  0  0  0  0
 37 67  1  0  0  0  0
 37 77  1  0  0  0  0
 37 83  2  0  0  0  0
 38 72  1  0  0  0  0
 38 73  1  0  0  0  0
 38 84  2  0  0  0  0
 39 44  1  0  0  0  0
 40 56  1  0  0  0  0
 41 71  1  0  0  0  0
 42 78  1  0  0  0  0
 43 78  1  0  0  0  0
 44 46  1  0  0  0  0
 45 47  1  0  0  0  0
 45 50  1  0  0  0  0
 46 55  1  0  0  0  0
 47 57  1  0  0  0  0
 48 51  1  0  0  0  0
 48 54  1  0  0  0  0
 49 52  1  0  0  0  0
 49 54  1  0  0  0  0
 50 72  1  0  0  0  0
 51 73  1  0  0  0  0
 52 73  1  0  0  0  0
 53 57  1  0  0  0  0
 53 72  1  0  0  0  0
 55 76  1  0  0  0  0
 56 71  1  0  0  0  0
 57 70  1  0  0  0  0
 59 67  1  0  0  0  0
 60 68  1  0  0  0  0
 61 68  1  0  0  0  0
 62 68  1  0  0  0  0
 63 79  1  0  0  0  0
 64 65  1  0  0  0  0
 64 78  1  0  0  0  0
 65 86  1  0  0  0  0
 66 68  1  0  0  0  0
 66 77  1  0  0  0  0
 67 79  1  0  0  0  0
 69 70  1  0  0  0  0
M  CHG  2  78   1  79   1
M  ISO  4  38 100  65 101  73 100  86 101
M  END
> <Batch ID>
0166

> <Smiles>
CNC(C)C(=O)NC(C(=O)N1Cc2cc([101O:1][101CH2:1]CN3Cc4cc(C)c(C5CC[100N:0]([100C:0](=O)N6CCCC(n7nc(-c8ccc(Oc9ccc(F)cc9F)cc8)c(C(N)=O)c7N)C6)CC5)cc4C3)ccc2CC1C(=O)NC1CCCc2ccccc21)C(C)(C)C

> <Shape>
0.241

> <Color>
0.181

> <Negative vol penalty>
0.000

$$$$

  -OEChem-04052322243D

 91100  0     1  0  0  0  0  0999 V2000
  -27.0668  -37.6529   24.2240 C   0  0  0  0  0  0  0  0  0  0  0  0
  -27.7662  -36.6589   23.5471 C   0  0  0  0  0  0  0  0  0  0  0  0
  -23.6457  -10.4819   22.4183 C   0  0  0  0  0  0  0  0  0  0  0  0
  -24.4796   -8.6133   21.1337 C   0  0  0  0  0  0  0  0  0  0  0  0
  -25.9373  -37.3229   24.9718 C   0  0  0  0  0  0  0  0  0  0  0  0
  -27.3371  -35.3340   23.6185 C   0  0  0  0  0  0  0  0  0  0  0  0
  -27.0649  -29.3356   19.7120 C   0  0  0  0  0  0  0  0  0  0  0  0
  -22.5049   -9.7486   22.7444 C   0  0  0  0  0  0  0  0  0  0  0  0
  -23.3387   -7.8800   21.4599 C   0  0  0  0  0  0  0  0  0  0  0  0
  -27.4101  -27.9867   19.7841 C   0  0  0  0  0  0  0  0  0  0  0  0
  -22.1810   -6.1221   24.1037 C   0  0  0  0  0  0  0  0  0  0  0  0
  -22.3562   -4.7970   24.5025 C   0  0  0  0  0  0  0  0  0  0  0  0
  -25.3994  -27.5457   21.0419 C   0  0  0  0  0  0  0  0  0  0  0  0
  -20.9909   -4.0593   22.6508 C   0  0  0  0  0  0  0  0  0  0  0  0
  -24.6331   -9.9142   21.6129 C   0  0  0  0  0  0  0  0  0  0  0  0
  -27.0237  -10.7210   21.9895 C   0  0  0  0  0  0  0  0  0  0  0  0
  -25.4885  -35.9947   25.0446 C   0  0  0  0  0  0  0  0  0  0  0  0
  -25.8879  -29.8023   20.3147 C   0  0  0  0  0  0  0  0  0  0  0  0
  -26.2013  -34.9858   24.3691 C   0  0  0  0  0  0  0  0  0  0  0  0
  -25.0404  -28.9005   20.9738 C   0  0  0  0  0  0  0  0  0  0  0  0
  -28.6534  -21.1450   20.3320 C   0  0  0  0  0  0  0  0  0  0  0  0
  -28.2590  -21.6760   19.1040 C   0  0  0  0  0  0  0  0  0  0  0  0
  -28.8766  -21.9910   21.4184 C   0  0  0  0  0  0  0  0  0  0  0  0
  -28.0879  -23.0530   18.9622 C   0  0  0  0  0  0  0  0  0  0  0  0
  -28.7055  -23.3680   21.2766 C   0  0  0  0  0  0  0  0  0  0  0  0
  -28.3112  -23.8991   20.0486 C   0  0  0  0  0  0  0  0  0  0  0  0
  -22.3514   -8.4477   22.2652 C   0  0  0  0  0  0  0  0  0  0  0  0
  -26.5788  -27.0920   20.4516 C   0  0  0  0  0  0  0  0  0  0  0  0
  -21.4107   -6.4158   22.9785 C   0  0  0  0  0  0  0  0  0  0  0  0
  -21.7612   -3.7656   23.7761 C   0  0  0  0  0  0  0  0  0  0  0  0
  -20.8157   -5.3844   22.2521 C   0  0  0  0  0  0  0  0  0  0  0  0
  -25.8116  -10.6714   21.2752 C   0  0  0  0  0  0  0  0  0  0  0  0
  -27.8165  -11.5742   21.2614 C   0  0  0  0  0  0  0  0  0  0  0  0
  -27.3994  -10.0554   23.2025 C   0  0  0  0  0  0  0  0  0  0  0  0
  -25.2236  -31.8750   22.6312 C   0  0  0  0  0  0  0  0  0  0  0  0
  -22.1596  -31.2982   21.7359 C   0  0  0  0  0  0  0  0  0  0  0  0
  -19.9214  -29.1877   20.2584 C   0  0  0  0  0  0  0  0  0  0  0  0
  -28.6545  -16.1451   18.3587 C   0  0  0  0  0  0  0  0  0  0  0  0
  -24.2899  -35.6796   25.9040 C   0  0  0  0  0  0  0  0  0  0  0  0
  -25.5164  -31.2557   20.2050 C   0  0  0  0  0  0  0  0  0  0  0  0
  -23.7554  -29.3475   21.6201 C   0  0  0  0  0  0  0  0  0  0  0  0
  -23.6833  -34.3071   25.6236 C   0  0  0  0  0  0  0  0  0  0  0  0
  -27.1997  -13.5213   16.6419 C   0  0  0  0  0  0  0  0  0  0  0  0
  -24.7764  -33.2459   25.5472 C   0  0  0  0  0  0  0  0  0  0  0  0
  -26.8044  -12.5400   17.7451 C   0  0  0  0  0  0  0  0  0  0  0  0
  -27.5282  -18.8757   20.2542 C   0  0  0  0  0  0  0  0  0  0  0  0
  -29.9557  -19.1073   19.5736 C   0  0  0  0  0  0  0  0  0  0  0  0
  -26.9116  -14.9583   17.0609 C   0  0  0  0  0  0  0  0  0  0  0  0
  -27.7305  -17.3629   20.3796 C   0  0  0  0  0  0  0  0  0  0  0  0
  -30.1071  -17.5981   19.7399 C   0  0  0  0  0  0  0  0  0  0  0  0
  -27.1898  -14.3869   19.4513 C   0  0  0  0  0  0  0  0  0  0  0  0
  -28.8398  -19.6473   20.4864 C   0  0  0  0  0  0  0  0  0  0  0  0
  -25.7526  -33.5409   24.4021 C   0  0  1  0  0  0  0  0  0  0  0  0
  -24.5528  -31.7101   21.2969 C   0  0  1  0  0  0  0  0  0  0  0  0
  -27.4669  -12.9152   19.0825 C   0  0  1  0  0  0  0  0  0  0  0  0
  -28.0196  -20.7681   17.9388 C   0  0  0  0  0  0  0  0  0  0  0  0
  -27.6678  -23.6226   17.6439 C   0  0  0  0  0  0  0  0  0  0  0  0
  -28.9452  -24.2761   22.4416 C   0  0  0  0  0  0  0  0  0  0  0  0
  -30.6954  -20.7687   22.6075 C   0  0  0  0  0  0  0  0  0  0  0  0
  -17.4821  -28.9736   19.7094 C   0  0  0  0  0  0  0  0  0  0  0  0
  -27.0923  -21.2056   24.0106 C   0  0  0  0  0  0  0  0  0  0  0  0
  -28.8559  -19.4880   24.3997 C   0  0  0  0  0  0  0  0  0  0  0  0
  -21.5634  -30.6361   24.6541 C   0  0  0  0  0  0  0  0  0  0  0  0
  -19.4420  -29.5413   23.8997 C   0  0  0  0  0  0  0  0  0  0  0  0
  -19.7935  -31.9795   23.5066 C   0  0  0  0  0  0  0  0  0  0  0  0
  -20.4680  -29.0558   17.3528 C   0  0  0  0  0  0  0  0  0  0  0  0
  -28.1290  -25.3764   19.8954 C   0  0  0  0  0  0  0  0  0  1  0  0
  -29.3006  -21.4216   22.7357 C   0  0  2  0  0  0  0  0  0  0  0  0
  -21.0982  -30.3024   22.1365 C   0  0  1  0  0  0  0  0  0  0  0  0
  -18.8459  -29.4300   19.2149 C   0  0  2  0  0  0  0  0  0  0  0  0
  -28.2498  -20.4359   23.3572 C   0  0  0  0  0  0  0  0  0  0  0  0
  -20.4994  -30.6064   23.5388 C   0  0  0  0  0  0  0  0  0  0  0  0
  -25.8282  -11.4326   20.1778 N   0  0  0  0  0  0  0  0  0  0  0  0
  -27.0604  -11.9686   20.1971 N   0  0  0  0  0  0  0  0  0  0  0  0
  -23.4390  -30.7795   21.4910 N   0  0  0  0  0  0  0  0  0  0  0  0
  -27.5545  -15.2745   18.3362 N   0  0  0  0  0  0  0  0  0  0  0  0
  -28.8335  -16.9136   19.5188 N   0  0  0  0  0  0  0  0  0  0  0  0
  -29.0796  -12.0181   21.4343 N   0  0  0  0  0  0  0  0  0  0  0  0
  -26.4640   -9.2142   23.8203 N   0  0  0  0  0  0  0  0  0  0  0  0
  -25.1714  -33.1618   23.1321 N   0  0  0  0  0  0  0  0  0  0  0  0
  -20.1172  -30.2948   21.0567 N   0  0  0  0  0  0  0  0  0  0  0  0
  -19.1637  -28.6887   17.9617 N   0  3  0  0  0  0  0  0  0  0  0  0
  -28.5254  -10.2150   23.7319 O   0  0  0  0  0  0  0  0  0  0  0  0
  -25.7484  -30.9061   23.1675 O   0  0  0  0  0  0  0  0  0  0  0  0
  -21.8628  -32.4914   21.6366 O   0  0  0  0  0  0  0  0  0  0  0  0
  -20.5247  -28.1216   20.3581 O   0  0  0  0  0  0  0  0  0  0  0  0
  -29.4318  -16.2307   17.3997 O   0  0  0  0  0  0  0  0  0  0  0  0
  -21.2383   -7.7318   22.5834 O   0  0  0  0  0  0  0  0  0  0  0  0
  -26.9161  -25.7652   20.5246 O   0  0  0  0  0  0  0  0  0  1  0  0
  -21.9307   -2.4931   24.1583 F   0  0  0  0  0  0  0  0  0  0  0  0
  -20.0755   -5.6602   21.1695 F   0  0  0  0  0  0  0  0  0  0  0  0
  1  2  1  0  0  0  0
  1  5  2  0  0  0  0
  2  6  2  0  0  0  0
  3  8  2  0  0  0  0
  3 15  1  0  0  0  0
  4  9  1  0  0  0  0
  4 15  2  0  0  0  0
  5 17  1  0  0  0  0
  6 19  1  0  0  0  0
  7 10  2  0  0  0  0
  7 18  1  0  0  0  0
  8 27  1  0  0  0  0
  9 27  2  0  0  0  0
 10 28  1  0  0  0  0
 11 12  2  0  0  0  0
 11 29  1  0  0  0  0
 12 30  1  0  0  0  0
 13 20  1  0  0  0  0
 13 28  2  0  0  0  0
 14 30  2  0  0  0  0
 14 31  1  0  0  0  0
 15 32  1  0  0  0  0
 16 32  1  0  0  0  0
 16 33  2  0  0  0  0
 16 34  1  0  0  0  0
 17 19  2  0  0  0  0
 17 39  1  0  0  0  0
 18 20  2  0  0  0  0
 18 40  1  0  0  0  0
 19 53  1  0  0  0  0
 20 41  1  0  0  0  0
 21 22  1  0  0  0  0
 21 23  2  0  0  0  0
 21 52  1  0  0  0  0
 22 24  2  0  0  0  0
 22 56  1  0  0  0  0
 23 25  1  0  0  0  0
 23 68  1  0  0  0  0
 24 26  1  0  0  0  0
 24 57  1  0  0  0  0
 25 26  2  0  0  0  0
 25 58  1  0  0  0  0
 26 67  1  0  0  0  0
 27 88  1  0  0  0  0
 28 89  1  0  0  0  0
 29 31  2  0  0  0  0
 29 88  1  0  0  0  0
 30 90  1  0  0  0  0
 31 91  1  0  0  0  0
 32 73  2  0  0  0  0
 33 74  1  0  0  0  0
 33 78  1  0  0  0  0
 34 79  1  0  0  0  0
 34 83  2  0  0  0  0
 35 54  1  0  0  0  0
 35 80  1  0  0  0  0
 35 84  2  0  0  0  0
 36 69  1  0  0  0  0
 36 75  1  0  0  0  0
 36 85  2  0  0  0  0
 37 70  1  0  0  0  0
 37 81  1  0  0  0  0
 37 86  2  0  0  0  0
 38 76  1  0  0  0  0
 38 77  1  0  0  0  0
 38 87  2  0  0  0  0
 39 42  1  0  0  0  0
 40 54  1  0  0  0  0
 41 75  1  0  0  0  0
 42 44  1  0  0  0  0
 43 45  1  0  0  0  0
 43 48  1  0  0  0  0
 44 53  1  0  0  0  0
 45 55  1  0  0  0  0
 46 49  1  0  0  0  0
 46 52  1  0  0  0  0
 47 50  1  0  0  0  0
 47 52  1  0  0  0  0
 48 76  1  0  0  0  0
 49 77  1  0  0  0  0
 50 77  1  0  0  0  0
 51 55  1  0  0  0  0
 51 76  1  0  0  0  0
 53 80  1  0  0  0  0
 54 75  1  0  0  0  0
 55 74  1  0  0  0  0
 59 68  1  0  0  0  0
 60 70  1  0  0  0  0
 61 71  1  0  0  0  0
 62 71  1  0  0  0  0
 63 72  1  0  0  0  0
 64 72  1  0  0  0  0
 65 72  1  0  0  0  0
 66 82  1  0  0  0  0
 67 89  1  0  0  0  0
 68 71  1  0  0  0  0
 69 72  1  0  0  0  0
 69 81  1  0  0  0  0
 70 82  1  0  0  0  0
 73 74  1  0  0  0  0
M  CHG  1  82   1
M  ISO  4  38 100  67 101  77 100  89 101
M  END
> <Batch ID>
0166

> <Smiles>
CNC(C)C(=O)NC(C(=O)N1Cc2cc([101O:1][101CH2:1]c3c(C)c(C)c(C4CC[100N:0]([100C:0](=O)N5CCCC(n6nc(-c7ccc(Oc8ccc(F)cc8F)cc7)c(C(N)=O)c6N)C5)CC4)c(C(C)C(C)C)c3C)ccc2CC1C(=O)NC1CCCc2ccccc21)C(C)(C)C

> <Shape>
0.324

> <Color>
0.086

> <Negative vol penalty>
0.000

$$$$

  -OEChem-04052322243D

 95105  0     1  0  0  0  0  0999 V2000
  -34.9254  -31.9465   20.6756 C   0  0  0  0  0  0  0  0  0  0  0  0
  -34.3343  -31.3081   19.5911 C   0  0  0  0  0  0  0  0  0  0  0  0
  -23.1192  -10.1587   21.9004 C   0  0  0  0  0  0  0  0  0  0  0  0
  -24.7246  -10.5244   23.6683 C   0  0  0  0  0  0  0  0  0  0  0  0
  -34.9245  -31.3324   21.9262 C   0  0  0  0  0  0  0  0  0  0  0  0
  -33.7318  -30.0609   19.7595 C   0  0  0  0  0  0  0  0  0  0  0  0
  -29.8647  -23.4230   17.7085 C   0  0  0  0  0  0  0  0  0  0  0  0
  -22.5303   -9.1377   22.6463 C   0  0  0  0  0  0  0  0  0  0  0  0
  -24.1357   -9.5035   24.4143 C   0  0  0  0  0  0  0  0  0  0  0  0
  -29.6082  -22.1141   18.1147 C   0  0  0  0  0  0  0  0  0  0  0  0
  -23.1576   -5.8936   23.3581 C   0  0  0  0  0  0  0  0  0  0  0  0
  -22.8434   -4.7068   22.6961 C   0  0  0  0  0  0  0  0  0  0  0  0
  -28.7760  -22.9381   20.2237 C   0  0  0  0  0  0  0  0  0  0  0  0
  -34.3756  -20.3456   22.9945 C   0  0  0  0  0  0  0  0  0  0  0  0
  -33.7990  -22.4910   24.6820 C   0  0  0  0  0  0  0  0  0  0  0  0
  -20.5150   -5.0040   23.2685 C   0  0  0  0  0  0  0  0  0  0  0  0
  -24.2164  -10.8520   22.4113 C   0  0  0  0  0  0  0  0  0  0  0  0
  -24.2131  -13.0894   21.1860 C   0  0  0  0  0  0  0  0  0  0  0  0
  -34.3324  -30.0715   22.1064 C   0  0  0  0  0  0  0  0  0  0  0  0
  -29.5884  -24.5003   18.5626 C   0  0  0  0  0  0  0  0  0  0  0  0
  -33.6996  -29.4355   21.0190 C   0  0  0  0  0  0  0  0  0  0  0  0
  -29.0274  -24.2598   19.8249 C   0  0  0  0  0  0  0  0  0  0  0  0
  -33.7737  -20.1174   24.2319 C   0  0  0  0  0  0  0  0  0  0  0  0
  -33.4854  -21.1901   25.0756 C   0  0  0  0  0  0  0  0  0  0  0  0
  -34.4011  -22.7192   23.4446 C   0  0  0  0  0  0  0  0  0  0  0  0
  -23.0385   -8.8101   23.9033 C   0  0  0  0  0  0  0  0  0  0  0  0
  -29.0665  -21.8714   19.3736 C   0  0  0  0  0  0  0  0  0  0  0  0
  -22.1505   -6.6356   23.9754 C   0  0  0  0  0  0  0  0  0  0  0  0
  -21.5221   -4.2620   22.6513 C   0  0  0  0  0  0  0  0  0  0  0  0
  -20.8293   -6.1908   23.9305 C   0  0  0  0  0  0  0  0  0  0  0  0
  -34.6894  -21.6465   22.6009 C   0  0  0  0  0  0  0  0  0  0  0  0
  -24.8255  -11.9064   21.6410 C   0  0  0  0  0  0  0  0  0  0  0  0
  -25.2074  -13.7522   20.5088 C   0  0  0  0  0  0  0  0  0  0  0  0
  -22.8659  -13.5483   21.3599 C   0  0  0  0  0  0  0  0  0  0  0  0
  -31.3309  -26.7715   19.9444 C   0  0  0  0  0  0  0  0  0  0  0  0
  -28.4302  -27.8901   20.8704 C   0  0  0  0  0  0  0  0  0  0  0  0
  -25.3436  -26.4945   22.1123 C   0  0  0  0  0  0  0  0  0  0  0  0
  -31.1819  -13.6197   20.8812 C   0  0  0  0  0  0  0  0  0  0  0  0
  -34.3532  -29.4561   23.4834 C   0  0  0  0  0  0  0  0  0  0  0  0
  -29.8459  -25.9079   18.0991 C   0  0  0  0  0  0  0  0  0  0  0  0
  -28.6938  -25.3829   20.7715 C   0  0  0  0  0  0  0  0  0  0  0  0
  -34.0882  -27.9542   23.4674 C   0  0  0  0  0  0  0  0  0  0  0  0
  -29.2013  -12.9550   17.9981 C   0  0  0  0  0  0  0  0  0  0  0  0
  -32.8515  -27.6535   22.6339 C   0  0  0  0  0  0  0  0  0  0  0  0
  -27.8000  -12.7176   18.5637 C   0  0  0  0  0  0  0  0  0  0  0  0
  -31.0139  -17.1388   22.1264 C   0  0  0  0  0  0  0  0  0  0  0  0
  -29.9558  -16.2863   23.7904 C   0  0  0  0  0  0  0  0  0  0  0  0
  -30.2840  -12.3999   18.9210 C   0  0  0  0  0  0  0  0  0  0  0  0
  -28.8095  -12.6356   20.8817 C   0  0  0  0  0  0  0  0  0  0  0  0
  -33.5487  -17.4988   23.6120 C   0  0  0  0  0  0  0  0  0  0  0  0
  -31.9426  -18.1959   24.7307 C   0  0  0  0  0  0  0  0  0  0  0  0
  -33.4261  -18.6342   24.6581 C   0  0  0  0  0  0  0  0  0  0  0  0
  -33.0651  -28.0649   21.1717 C   0  0  1  0  0  0  0  0  0  0  0  0
  -30.0042  -26.8965   19.2502 C   0  0  1  0  0  0  0  0  0  0  0  0
  -29.5494  -16.6805   22.3474 C   0  0  0  0  0  0  0  0  0  0  0  0
  -27.6865  -13.2276   20.0130 C   0  0  2  0  0  0  0  0  0  0  0  0
  -31.4259  -16.2075   23.2982 C   0  0  0  0  0  0  0  0  0  0  0  0
  -32.8400  -20.9668   26.4037 C   0  0  0  0  0  0  0  0  0  0  0  0
  -34.7219  -24.1275   23.0599 C   0  0  0  0  0  0  0  0  0  0  0  0
  -22.9882  -27.3459   21.9548 C   0  0  0  0  0  0  0  0  0  0  0  0
  -32.2413  -13.9998   24.1543 C   0  0  0  0  0  0  0  0  0  0  0  0
  -26.6047  -18.7680   19.1167 C   0  0  0  0  0  0  0  0  0  0  0  0
  -29.0015  -29.1249   23.6015 C   0  0  0  0  0  0  0  0  0  0  0  0
  -26.6599  -28.5486   24.2743 C   0  0  0  0  0  0  0  0  0  0  0  0
  -27.0600  -30.1304   22.3875 C   0  0  0  0  0  0  0  0  0  0  0  0
  -24.3943  -23.9799   20.8736 C   0  0  0  0  0  0  0  0  0  0  0  0
  -28.4803  -17.7460   22.2144 C   0  0  0  0  0  0  0  0  0  0  0  0
  -27.7334  -20.3993   20.6820 C   0  0  0  0  0  0  0  0  0  1  0  0
  -27.5289  -27.6676   22.0608 C   0  0  1  0  0  0  0  0  0  0  0  0
  -24.0243  -26.4002   21.3674 C   0  0  2  0  0  0  0  0  0  0  0  0
  -31.9342  -14.8275   22.9145 C   0  0  1  0  0  0  0  0  0  0  0  0
  -27.1452  -19.0024   20.5180 C   0  0  2  0  0  0  0  0  0  0  0  0
  -27.5804  -28.8477   23.0719 C   0  0  0  0  0  0  0  0  0  0  0  0
  -26.1094  -11.8197   21.2829 N   0  0  0  0  0  0  0  0  0  0  0  0
  -26.3118  -12.9567   20.5957 N   0  0  0  0  0  0  0  0  0  0  0  0
  -28.9697  -26.7411   20.2749 N   0  0  0  0  0  0  0  0  0  0  0  0
  -30.1207  -12.9236   20.2793 N   0  0  0  0  0  0  0  0  0  0  0  0
  -25.2359  -14.9321   19.8533 N   0  0  0  0  0  0  0  0  0  0  0  0
  -21.9742  -12.7439   22.0825 N   0  0  0  0  0  0  0  0  0  0  0  0
  -31.8085  -27.9597   20.4633 N   0  0  0  0  0  0  0  0  0  0  0  0
  -26.1998  -27.3999   21.5221 N   0  0  0  0  0  0  0  0  0  0  0  0
  -30.9416  -14.0879   22.1672 N   0  0  0  0  0  0  0  0  0  0  0  0
  -32.3620  -16.8674   24.2313 N   0  3  0  0  0  0  0  0  0  0  0  0
  -23.4873  -25.0118   21.4386 N   0  3  0  0  0  0  0  0  0  0  0  0
  -28.2217  -18.0023   20.7747 N   0  3  0  0  0  0  0  0  0  0  0  0
  -22.4604  -14.6316   20.8746 O   0  0  0  0  0  0  0  0  0  0  0  0
  -31.8798  -25.6776   20.0061 O   0  0  0  0  0  0  0  0  0  0  0  0
  -28.6420  -29.0405   20.4788 O   0  0  0  0  0  0  0  0  0  0  0  0
  -25.5886  -25.8339   23.1193 O   0  0  0  0  0  0  0  0  0  0  0  0
  -32.2615  -13.8145   20.3124 O   0  0  0  0  0  0  0  0  0  0  0  0
  -22.4640   -7.8141   24.6316 O   0  0  0  0  0  0  0  0  0  0  0  0
  -28.8158  -20.5948   19.7728 O   0  0  0  0  0  0  0  0  0  1  0  0
  -21.2203   -3.1230   22.0142 F   0  0  0  0  0  0  0  0  0  0  0  0
  -19.8573   -6.9000   24.5207 F   0  0  0  0  0  0  0  0  0  0  0  0
  -35.4333  -21.8907   21.0624 Cl  0  0  0  0  0  0  0  0  0  0  0  0
  1  2  1  0  0  0  0
  1  5  2  0  0  0  0
  2  6  2  0  0  0  0
  3  8  2  0  0  0  0
  3 17  1  0  0  0  0
  4  9  1  0  0  0  0
  4 17  2  0  0  0  0
  5 19  1  0  0  0  0
  6 21  1  0  0  0  0
  7 10  2  0  0  0  0
  7 20  1  0  0  0  0
  8 26  1  0  0  0  0
  9 26  2  0  0  0  0
 10 27  1  0  0  0  0
 11 12  2  0  0  0  0
 11 28  1  0  0  0  0
 12 29  1  0  0  0  0
 13 22  1  0  0  0  0
 13 27  2  0  0  0  0
 14 23  1  0  0  0  0
 14 31  2  0  0  0  0
 15 24  1  0  0  0  0
 15 25  2  0  0  0  0
 16 29  2  0  0  0  0
 16 30  1  0  0  0  0
 17 32  1  0  0  0  0
 18 32  1  0  0  0  0
 18 33  2  0  0  0  0
 18 34  1  0  0  0  0
 19 21  2  0  0  0  0
 19 39  1  0  0  0  0
 20 22  2  0  0  0  0
 20 40  1  0  0  0  0
 21 53  1  0  0  0  0
 22 41  1  0  0  0  0
 23 24  2  0  0  0  0
 23 52  1  0  0  0  0
 24 58  1  0  0  0  0
 25 31  1  0  0  0  0
 25 59  1  0  0  0  0
 26 91  1  0  0  0  0
 27 92  1  0  0  0  0
 28 30  2  0  0  0  0
 28 91  1  0  0  0  0
 29 93  1  0  0  0  0
 30 94  1  0  0  0  0
 31 95  1  0  0  0  0
 32 74  2  0  0  0  0
 33 75  1  0  0  0  0
 33 78  1  0  0  0  0
 34 79  1  0  0  0  0
 34 86  2  0  0  0  0
 35 54  1  0  0  0  0
 35 80  1  0  0  0  0
 35 87  2  0  0  0  0
 36 69  1  0  0  0  0
 36 76  1  0  0  0  0
 36 88  2  0  0  0  0
 37 70  1  0  0  0  0
 37 81  1  0  0  0  0
 37 89  2  0  0  0  0
 38 77  1  0  0  0  0
 38 82  1  0  0  0  0
 38 90  2  0  0  0  0
 39 42  1  0  0  0  0
 40 54  1  0  0  0  0
 41 76  1  0  0  0  0
 42 44  1  0  0  0  0
 43 45  1  0  0  0  0
 43 48  1  0  0  0  0
 44 53  1  0  0  0  0
 45 56  1  0  0  0  0
 46 55  1  0  0  0  0
 46 57  1  0  0  0  0
 47 55  1  0  0  0  0
 47 57  1  0  0  0  0
 48 77  1  0  0  0  0
 49 56  1  0  0  0  0
 49 77  1  0  0  0  0
 50 52  1  0  0  0  0
 50 83  1  0  0  0  0
 51 52  1  0  0  0  0
 51 83  1  0  0  0  0
 53 80  1  0  0  0  0
 54 76  1  0  0  0  0
 55 67  1  0  0  0  0
 56 75  1  0  0  0  0
 57 71  1  0  0  0  0
 57 83  1  0  0  0  0
 60 70  1  0  0  0  0
 61 71  1  0  0  0  0
 62 72  1  0  0  0  0
 63 73  1  0  0  0  0
 64 73  1  0  0  0  0
 65 73  1  0  0  0  0
 66 84  1  0  0  0  0
 67 85  1  0  0  0  0
 68 72  1  0  0  0  0
 68 92  1  0  0  0  0
 69 73  1  0  0  0  0
 69 81  1  0  0  0  0
 70 84  1  0  0  0  0
 71 82  1  0  0  0  0
 72 85  1  0  0  0  0
 74 75  1  0  0  0  0
M  CHG  3  83   1  84   1  85   1
M  ISO  4  38 100  68 101  82 100  92 101
M  END
> <Batch ID>
0166

> <Smiles>
CNC(C)C(=O)NC(C(=O)N1Cc2cc([101O:1][101CH2:1]C(C)NCC3CC(C(C)[100NH:0][100C:0](=O)N4CCCC(n5nc(-c6ccc(Oc7ccc(F)cc7F)cc6)c(C(N)=O)c5N)C4)(N4CC(c5cc(Cl)c(C)cc5C)C4)C3)ccc2CC1C(=O)NC1CCCc2ccccc21)C(C)(C)C

> <Shape>
0.276

> <Color>
0.148

> <Negative vol penalty>
0.000

$$$$

  -OEChem-04052322243D

 92102  0     1  0  0  0  0  0999 V2000
  -32.4808  -10.5838   19.1460 C   0  0  0  0  0  0  0  0  0  0  0  0
  -32.3261  -11.9403   19.4129 C   0  0  0  0  0  0  0  0  0  0  0  0
  -27.7542  -24.3931   20.4017 C   0  0  0  0  0  0  0  0  0  0  0  0
  -29.4185  -25.7368   19.2785 C   0  0  0  0  0  0  0  0  0  0  0  0
  -31.4126   -9.8493   18.6327 C   0  0  0  0  0  0  0  0  0  0  0  0
  -31.1034  -12.5634   19.1657 C   0  0  0  0  0  0  0  0  0  0  0  0
  -18.2971  -28.8358   23.4200 C   0  0  0  0  0  0  0  0  0  0  0  0
  -26.8981  -17.7964   21.6653 C   0  0  0  0  0  0  0  0  0  0  0  0
  -17.7460  -28.0056   22.4443 C   0  0  0  0  0  0  0  0  0  0  0  0
  -28.0509  -23.3216   19.5594 C   0  0  0  0  0  0  0  0  0  0  0  0
  -29.7152  -24.6653   18.4362 C   0  0  0  0  0  0  0  0  0  0  0  0
  -26.2219  -18.9353   21.2300 C   0  0  0  0  0  0  0  0  0  0  0  0
  -28.6225  -20.1170   17.9412 C   0  0  0  0  0  0  0  0  0  0  0  0
  -28.7625  -18.8560   18.5207 C   0  0  0  0  0  0  0  0  0  0  0  0
  -24.4228  -17.5490   20.4171 C   0  0  0  0  0  0  0  0  0  0  0  0
  -30.5816  -19.6823   19.8792 C   0  0  0  0  0  0  0  0  0  0  0  0
  -28.4380  -25.6007   20.2612 C   0  0  0  0  0  0  0  0  0  0  0  0
  -28.7282  -27.0059   22.3705 C   0  0  0  0  0  0  0  0  0  0  0  0
  -30.1733  -10.4616   18.3882 C   0  0  0  0  0  0  0  0  0  0  0  0
  -19.6875  -28.9735   23.5344 C   0  0  0  0  0  0  0  0  0  0  0  0
  -26.3459  -16.5224   21.4696 C   0  0  0  0  0  0  0  0  0  0  0  0
  -30.0180  -11.8367   18.6475 C   0  0  0  0  0  0  0  0  0  0  0  0
  -25.0929  -16.3958   20.8530 C   0  0  0  0  0  0  0  0  0  0  0  0
  -20.5271  -28.2863   22.6381 C   0  0  0  0  0  0  0  0  0  0  0  0
  -18.5778  -27.3097   21.5709 C   0  0  0  0  0  0  0  0  0  0  0  0
  -19.9620  -27.4463   21.6685 C   0  0  0  0  0  0  0  0  0  0  0  0
  -29.0314  -23.4576   18.5767 C   0  0  0  0  0  0  0  0  0  0  0  0
  -24.9854  -18.8115   20.6032 C   0  0  0  0  0  0  0  0  0  0  0  0
  -29.4621  -21.1607   18.3306 C   0  0  0  0  0  0  0  0  0  0  0  0
  -29.7420  -18.6386   19.4897 C   0  0  0  0  0  0  0  0  0  0  0  0
  -30.4416  -20.9433   19.2996 C   0  0  0  0  0  0  0  0  0  0  0  0
  -28.1316  -26.7082   21.1306 C   0  0  0  0  0  0  0  0  0  0  0  0
  -28.0920  -28.1479   22.7922 C   0  0  0  0  0  0  0  0  0  0  0  0
  -29.7648  -26.3124   23.0777 C   0  0  0  0  0  0  0  0  0  0  0  0
  -27.2210  -13.9202   19.8675 C   0  0  0  0  0  0  0  0  0  0  0  0
  -24.6219  -12.6285   21.3162 C   0  0  0  0  0  0  0  0  0  0  0  0
  -21.5872  -13.1207   22.7979 C   0  0  0  0  0  0  0  0  0  0  0  0
  -23.0935  -30.6178   22.8944 C   0  0  0  0  0  0  0  0  0  0  0  0
  -29.0619   -9.6369   17.7886 C   0  0  0  0  0  0  0  0  0  0  0  0
  -27.0756  -15.3056   21.9688 C   0  0  0  0  0  0  0  0  0  0  0  0
  -20.2569  -29.9056   24.5780 C   0  0  0  0  0  0  0  0  0  0  0  0
  -24.4474  -15.0521   20.6373 C   0  0  0  0  0  0  0  0  0  0  0  0
  -22.0275  -28.3901   22.7456 C   0  0  0  0  0  0  0  0  0  0  0  0
  -27.6871  -10.2898   17.9068 C   0  0  0  0  0  0  0  0  0  0  0  0
  -25.5012  -31.7248   20.5852 C   0  0  0  0  0  0  0  0  0  0  0  0
  -27.7561  -11.7575   17.4972 C   0  0  0  0  0  0  0  0  0  0  0  0
  -26.4972  -30.5658   20.6050 C   0  0  0  0  0  0  0  0  0  0  0  0
  -20.7994  -23.0385   20.3600 C   0  0  0  0  0  0  0  0  0  0  0  0
  -22.7802  -24.5206   19.9034 C   0  0  0  0  0  0  0  0  0  0  0  0
  -24.0525  -31.2362   20.6326 C   0  0  0  0  0  0  0  0  0  0  0  0
  -24.7601  -29.1631   21.7801 C   0  0  0  0  0  0  0  0  0  0  0  0
  -21.3035  -22.0491   19.3210 C   0  0  0  0  0  0  0  0  0  0  0  0
  -23.2799  -23.5278   18.8655 C   0  0  0  0  0  0  0  0  0  0  0  0
  -28.6998  -12.5429   18.4159 C   0  0  1  0  0  0  0  0  0  0  0  0
  -26.6567  -14.0234   21.2563 C   0  0  1  0  0  0  0  0  0  0  0  0
  -26.2254  -29.6251   21.7923 C   0  0  1  0  0  0  0  0  0  0  0  0
  -21.2626  -24.4606   20.0583 C   0  0  0  0  0  0  0  0  0  0  0  0
  -21.7614  -29.6977   24.8435 C   0  0  1  0  0  0  0  0  0  0  0  0
  -17.9588  -26.4230   20.5400 C   0  0  0  0  0  0  0  0  0  0  0  0
  -22.0093  -28.5180   25.7900 C   0  0  0  0  0  0  0  0  0  0  0  0
  -19.6817  -11.8701   23.8477 C   0  0  0  0  0  0  0  0  0  0  0  0
  -23.6542  -11.7845   18.5484 C   0  0  0  0  0  0  0  0  0  0  0  0
  -21.3813  -11.4166   19.5318 C   0  0  0  0  0  0  0  0  0  0  0  0
  -23.3201  -10.0699   20.3381 C   0  0  0  0  0  0  0  0  0  0  0  0
  -21.9739  -14.4816   25.3973 C   0  0  0  0  0  0  0  0  0  0  0  0
  -20.8333  -26.6735   20.7268 C   0  0  0  0  0  0  0  0  0  0  0  0
  -23.3732  -21.0997   18.3036 C   0  0  0  0  0  0  0  0  0  0  0  0
  -23.4781  -19.7775   19.0377 C   0  0  0  0  0  0  0  0  0  1  0  0
  -23.1560  -12.5110   20.9753 C   0  0  1  0  0  0  0  0  0  0  0  0
  -21.0000  -12.5877   24.0923 C   0  0  2  0  0  0  0  0  0  0  0  0
  -22.8907  -11.4708   19.8506 C   0  0  0  0  0  0  0  0  0  0  0  0
  -27.1887  -27.5897   20.7871 N   0  0  0  0  0  0  0  0  0  0  0  0
  -27.1880  -28.4525   21.8174 N   0  0  0  0  0  0  0  0  0  0  0  0
  -25.2031  -13.8919   21.1374 N   0  0  0  0  0  0  0  0  0  0  0  0
  -22.4557  -29.5428   23.5455 N   0  0  0  0  0  0  0  0  0  0  0  0
  -23.8507  -30.3105   21.7541 N   0  0  0  0  0  0  0  0  0  0  0  0
  -28.2232  -28.9109   23.8980 N   0  0  0  0  0  0  0  0  0  0  0  0
  -30.3084  -25.1562   22.5015 N   0  0  0  0  0  0  0  0  0  0  0  0
  -28.0519  -12.8327   19.6772 N   0  0  0  0  0  0  0  0  0  0  0  0
  -22.4671  -12.2243   22.2290 N   0  0  0  0  0  0  0  0  0  0  0  0
  -22.8091  -22.1397   19.2322 N   0  3  0  0  0  0  0  0  0  0  0  0
  -20.7569  -13.7041   25.0491 N   0  3  0  0  0  0  0  0  0  0  0  0
  -30.1847  -26.6971   24.1953 O   0  0  0  0  0  0  0  0  0  0  0  0
  -26.9233  -14.7640   19.0302 O   0  0  0  0  0  0  0  0  0  0  0  0
  -25.2272  -11.6377   21.7329 O   0  0  0  0  0  0  0  0  0  0  0  0
  -21.2919  -14.2205   22.3356 O   0  0  0  0  0  0  0  0  0  0  0  0
  -22.9986  -31.7792   23.3106 O   0  0  0  0  0  0  0  0  0  0  0  0
  -29.3213  -22.4122   17.7548 O   0  0  0  0  0  0  0  0  0  0  0  0
  -24.3188  -19.9295   20.1738 O   0  0  0  0  0  0  0  0  0  1  0  0
  -20.8539  -25.3102   21.1240 O   0  0  0  0  0  0  0  0  0  0  0  0
  -29.8754  -17.4281   20.0473 F   0  0  0  0  0  0  0  0  0  0  0  0
  -31.2503  -21.9424   19.6786 F   0  0  0  0  0  0  0  0  0  0  0  0
  1  2  1  0  0  0  0
  1  5  2  0  0  0  0
  2  6  2  0  0  0  0
  3 10  2  0  0  0  0
  3 17  1  0  0  0  0
  4 11  1  0  0  0  0
  4 17  2  0  0  0  0
  5 19  1  0  0  0  0
  6 22  1  0  0  0  0
  7  9  1  0  0  0  0
  7 20  2  0  0  0  0
  8 12  2  0  0  0  0
  8 21  1  0  0  0  0
  9 25  2  0  0  0  0
 10 27  1  0  0  0  0
 11 27  2  0  0  0  0
 12 28  1  0  0  0  0
 13 14  2  0  0  0  0
 13 29  1  0  0  0  0
 14 30  1  0  0  0  0
 15 23  1  0  0  0  0
 15 28  2  0  0  0  0
 16 30  2  0  0  0  0
 16 31  1  0  0  0  0
 17 32  1  0  0  0  0
 18 32  1  0  0  0  0
 18 33  2  0  0  0  0
 18 34  1  0  0  0  0
 19 22  2  0  0  0  0
 19 39  1  0  0  0  0
 20 24  1  0  0  0  0
 20 41  1  0  0  0  0
 21 23  2  0  0  0  0
 21 40  1  0  0  0  0
 22 54  1  0  0  0  0
 23 42  1  0  0  0  0
 24 26  2  0  0  0  0
 24 43  1  0  0  0  0
 25 26  1  0  0  0  0
 25 59  1  0  0  0  0
 26 66  1  0  0  0  0
 27 88  1  0  0  0  0
 28 89  1  0  0  0  0
 29 31  2  0  0  0  0
 29 88  1  0  0  0  0
 30 91  1  0  0  0  0
 31 92  1  0  0  0  0
 32 72  2  0  0  0  0
 33 73  1  0  0  0  0
 33 77  1  0  0  0  0
 34 78  1  0  0  0  0
 34 83  2  0  0  0  0
 35 55  1  0  0  0  0
 35 79  1  0  0  0  0
 35 84  2  0  0  0  0
 36 69  1  0  0  0  0
 36 74  1  0  0  0  0
 36 85  2  0  0  0  0
 37 70  1  0  0  0  0
 37 80  1  0  0  0  0
 37 86  2  0  0  0  0
 38 75  1  0  0  0  0
 38 76  1  0  0  0  0
 38 87  2  0  0  0  0
 39 44  1  0  0  0  0
 40 55  1  0  0  0  0
 41 58  1  0  0  0  0
 42 74  1  0  0  0  0
 43 75  1  0  0  0  0
 44 46  1  0  0  0  0
 45 47  1  0  0  0  0
 45 50  1  0  0  0  0
 46 54  1  0  0  0  0
 47 56  1  0  0  0  0
 48 52  1  0  0  0  0
 48 57  1  0  0  0  0
 49 53  1  0  0  0  0
 49 57  1  0  0  0  0
 50 76  1  0  0  0  0
 51 56  1  0  0  0  0
 51 76  1  0  0  0  0
 52 81  1  0  0  0  0
 53 81  1  0  0  0  0
 54 79  1  0  0  0  0
 55 74  1  0  0  0  0
 56 73  1  0  0  0  0
 57 90  1  0  0  0  0
 58 60  1  0  0  0  0
 58 75  1  0  0  0  0
 61 70  1  0  0  0  0
 62 71  1  0  0  0  0
 63 71  1  0  0  0  0
 64 71  1  0  0  0  0
 65 82  1  0  0  0  0
 66 90  1  0  0  0  0
 67 68  1  0  0  0  0
 67 81  1  0  0  0  0
 68 89  1  0  0  0  0
 69 71  1  0  0  0  0
 69 80  1  0  0  0  0
 70 82  1  0  0  0  0
 72 73  1  0  0  0  0
M  CHG  2  81   1  82   1
M  ISO  4  38 100  68 101  75 100  89 101
M  END
> <Batch ID>
0166

> <Smiles>
CNC(C)C(=O)NC(C(=O)N1Cc2cc([101O:1][101CH2:1]CN3CCC(OCc4c(C)ccc5c4C[100N:0]([100C:0](=O)N4CCCC(n6nc(-c7ccc(Oc8ccc(F)cc8F)cc7)c(C(N)=O)c6N)C4)C(C)C5)CC3)ccc2CC1C(=O)NC1CCCc2ccccc21)C(C)(C)C

> <Shape>
0.300

> <Color>
0.056

> <Negative vol penalty>
0.000

$$$$

  -OEChem-04052322243D

 87 97  0     1  0  0  0  0  0999 V2000
  -26.6387  -32.4890   28.1650 C   0  0  0  0  0  0  0  0  0  0  0  0
  -26.4617  -31.1151   28.0373 C   0  0  0  0  0  0  0  0  0  0  0  0
  -23.0969   -9.8524   20.0092 C   0  0  0  0  0  0  0  0  0  0  0  0
  -23.8450   -9.9659   22.3037 C   0  0  0  0  0  0  0  0  0  0  0  0
  -25.9933  -33.3585   27.2866 C   0  0  0  0  0  0  0  0  0  0  0  0
  -25.6382  -30.6098   27.0318 C   0  0  0  0  0  0  0  0  0  0  0  0
  -27.7116  -26.6689   24.6202 C   0  0  0  0  0  0  0  0  0  0  0  0
  -22.3661   -8.7016   20.3044 C   0  0  0  0  0  0  0  0  0  0  0  0
  -23.1141   -8.8151   22.5989 C   0  0  0  0  0  0  0  0  0  0  0  0
  -27.6695  -25.4337   25.2654 C   0  0  0  0  0  0  0  0  0  0  0  0
  -19.8931   -8.0030   23.2200 C   0  0  0  0  0  0  0  0  0  0  0  0
  -19.1308   -8.0031   24.3881 C   0  0  0  0  0  0  0  0  0  0  0  0
  -25.7795  -24.7962   23.9086 C   0  0  0  0  0  0  0  0  0  0  0  0
  -29.9395  -18.1040   25.5672 C   0  0  0  0  0  0  0  0  0  0  0  0
  -20.3923   -6.1142   25.2116 C   0  0  0  0  0  0  0  0  0  0  0  0
  -23.8364  -10.4845   21.0089 C   0  0  0  0  0  0  0  0  0  0  0  0
  -24.1476  -13.0064   20.7836 C   0  0  0  0  0  0  0  0  0  0  0  0
  -25.1692  -32.8631   26.2638 C   0  0  0  0  0  0  0  0  0  0  0  0
  -26.7796  -26.9817   23.6202 C   0  0  0  0  0  0  0  0  0  0  0  0
  -24.9802  -31.4734   26.1398 C   0  0  0  0  0  0  0  0  0  0  0  0
  -25.8136  -26.0351   23.2505 C   0  0  0  0  0  0  0  0  0  0  0  0
  -28.3975  -19.9470   25.4672 C   0  0  0  0  0  0  0  0  0  0  0  0
  -29.3170  -19.1857   26.1801 C   0  0  0  0  0  0  0  0  0  0  0  0
  -22.3747   -8.1829   21.5992 C   0  0  0  0  0  0  0  0  0  0  0  0
  -26.7016  -24.4982   24.9117 C   0  0  0  0  0  0  0  0  0  0  0  0
  -20.9050   -7.0584   23.0476 C   0  0  0  0  0  0  0  0  0  0  0  0
  -19.3804   -7.0587   25.3839 C   0  0  0  0  0  0  0  0  0  0  0  0
  -21.1546   -6.1141   24.0434 C   0  0  0  0  0  0  0  0  0  0  0  0
  -24.5920  -11.6730   20.7044 C   0  0  0  0  0  0  0  0  0  0  0  0
  -29.6104  -17.8274   24.2499 C   0  0  0  0  0  0  0  0  0  0  0  0
  -28.1377  -19.5881   24.1544 C   0  0  0  0  0  0  0  0  0  0  0  0
  -25.2322  -13.7535   20.3939 C   0  0  0  0  0  0  0  0  0  0  0  0
  -22.8687  -13.5235   21.1745 C   0  0  0  0  0  0  0  0  0  0  0  0
  -24.5203  -29.1903   23.2712 C   0  0  0  0  0  0  0  0  0  0  0  0
  -24.2866  -27.9220   20.2948 C   0  0  0  0  0  0  0  0  0  0  0  0
  -24.7747  -25.2399   18.2418 C   0  0  0  0  0  0  0  0  0  0  0  0
  -30.7828  -14.7178   20.7403 C   0  0  0  0  0  0  0  0  0  0  0  0
  -24.4550  -33.8440   25.3680 C   0  0  0  0  0  0  0  0  0  0  0  0
  -26.8551  -28.3083   22.9152 C   0  0  0  0  0  0  0  0  0  0  0  0
  -24.8029  -26.3141   22.1692 C   0  0  0  0  0  0  0  0  0  0  0  0
  -23.8966  -33.2118   24.0956 C   0  0  0  0  0  0  0  0  0  0  0  0
  -29.5900  -12.4013   18.2616 C   0  0  0  0  0  0  0  0  0  0  0  0
  -23.1640  -31.9142   24.4213 C   0  0  0  0  0  0  0  0  0  0  0  0
  -28.1699  -12.0695   18.7077 C   0  0  0  0  0  0  0  0  0  0  0  0
  -28.5475  -22.2010   26.7213 C   0  0  0  0  0  0  0  0  0  0  0  0
  -30.4990  -12.6262   19.4625 C   0  0  0  0  0  0  0  0  0  0  0  0
  -29.3116  -15.6319   22.7050 C   0  0  0  0  0  0  0  0  0  0  0  0
  -30.8741  -16.9065   22.0512 C   0  0  0  0  0  0  0  0  0  0  0  0
  -28.5844  -13.4204   20.8254 C   0  0  0  0  0  0  0  0  0  0  0  0
  -27.7174  -21.1048   26.0952 C   0  0  1  0  0  0  0  0  0  0  0  0
  -24.1145  -30.8859   25.0463 C   0  0  1  0  0  0  0  0  0  0  0  0
  -30.2471  -16.6251   23.4361 C   0  0  0  0  0  0  0  0  0  0  0  0
  -25.5351  -28.7175   22.2690 C   0  0  1  0  0  0  0  0  0  0  0  0
  -27.6312  -13.1627   19.6416 C   0  0  2  0  0  0  0  0  0  0  0  0
  -27.8166  -22.4653   25.4405 C   0  0  1  0  0  0  0  0  0  1  0  0
  -29.6534  -19.5063   27.5993 C   0  0  0  0  0  0  0  0  0  0  0  0
  -25.9565  -19.5168   22.8929 C   0  0  0  0  0  0  0  0  0  0  0  0
  -27.8157  -21.0294   22.1116 C   0  0  0  0  0  0  0  0  0  0  0  0
  -24.4514  -24.4910   15.8686 C   0  0  0  0  0  0  0  0  0  0  0  0
  -21.3009  -27.5689   20.8155 C   0  0  0  0  0  0  0  0  0  0  0  0
  -21.2184  -25.9963   18.8692 C   0  0  0  0  0  0  0  0  0  0  0  0
  -21.8707  -28.3784   18.5189 C   0  0  0  0  0  0  0  0  0  0  0  0
  -27.6782  -24.8136   17.8585 C   0  0  0  0  0  0  0  0  0  0  0  0
  -27.1599  -20.3680   23.3373 C   0  0  0  0  0  0  0  0  0  0  0  0
  -23.4846  -26.8074   19.6676 C   0  0  1  0  0  0  0  0  0  0  0  0
  -25.4073  -25.1259   16.8666 C   0  0  2  0  0  0  0  0  0  0  0  0
  -21.9863  -27.1830   19.4895 C   0  0  0  0  0  0  0  0  0  0  0  0
  -25.8601  -11.5755   20.2963 N   0  0  0  0  0  0  0  0  0  0  0  0
  -28.7224  -18.5441   23.5252 N   0  0  0  0  0  0  0  0  0  0  0  0
  -26.2217  -12.8571   20.1155 N   0  0  0  0  0  0  0  0  0  0  0  0
  -24.9138  -27.6277   21.5137 N   0  0  0  0  0  0  0  0  0  0  0  0
  -29.9658  -13.6417   20.3757 N   0  0  0  0  0  0  0  0  0  0  0  0
  -30.2819  -15.6449   21.6236 N   0  0  0  0  0  0  0  0  0  0  0  0
  -25.4265  -15.0833   20.2655 N   0  0  0  0  0  0  0  0  0  0  0  0
  -21.8664  -12.6168   21.5454 N   0  0  0  0  0  0  0  0  0  0  0  0
  -24.9357  -30.2709   24.0256 N   0  0  0  0  0  0  0  0  0  0  0  0
  -24.1662  -26.4636   18.4243 N   0  0  0  0  0  0  0  0  0  0  0  0
  -26.6410  -24.2925   16.9313 N   0  3  0  0  0  0  0  0  0  0  0  0
  -22.6170  -14.7524   21.1786 O   0  0  0  0  0  0  0  0  0  0  0  0
  -23.4398  -28.6180   23.3529 O   0  0  0  0  0  0  0  0  0  0  0  0
  -24.3600  -29.0113   19.7206 O   0  0  0  0  0  0  0  0  0  0  0  0
  -24.8131  -24.3325   19.0699 O   0  0  0  0  0  0  0  0  0  0  0  0
  -31.9392  -14.8339   20.3133 O   0  0  0  0  0  0  0  0  0  0  0  0
  -21.6615   -7.0601   21.8877 O   0  0  0  0  0  0  0  0  0  0  0  0
  -26.6579  -23.2921   25.5403 O   0  0  0  0  0  0  0  0  0  1  0  0
  -18.6493   -7.0599   26.5062 F   0  0  0  0  0  0  0  0  0  0  0  0
  -22.1262   -5.2050   23.8840 F   0  0  0  0  0  0  0  0  0  0  0  0
  1  2  1  0  0  0  0
  1  5  2  0  0  0  0
  2  6  2  0  0  0  0
  3  8  2  0  0  0  0
  3 16  1  0  0  0  0
  4  9  1  0  0  0  0
  4 16  2  0  0  0  0
  5 18  1  0  0  0  0
  6 20  1  0  0  0  0
  7 10  2  0  0  0  0
  7 19  1  0  0  0  0
  8 24  1  0  0  0  0
  9 24  2  0  0  0  0
 10 25  1  0  0  0  0
 11 12  2  0  0  0  0
 11 26  1  0  0  0  0
 12 27  1  0  0  0  0
 13 21  1  0  0  0  0
 13 25  2  0  0  0  0
 14 23  2  0  0  0  0
 14 30  1  0  0  0  0
 15 27  2  0  0  0  0
 15 28  1  0  0  0  0
 16 29  1  0  0  0  0
 17 29  1  0  0  0  0
 17 32  2  0  0  0  0
 17 33  1  0  0  0  0
 18 20  2  0  0  0  0
 18 38  1  0  0  0  0
 19 21  2  0  0  0  0
 19 39  1  0  0  0  0
 20 51  1  0  0  0  0
 21 40  1  0  0  0  0
 22 23  1  0  0  0  0
 22 31  2  0  0  0  0
 22 50  1  0  0  0  0
 23 56  1  0  0  0  0
 24 84  1  0  0  0  0
 25 85  1  0  0  0  0
 26 28  2  0  0  0  0
 26 84  1  0  0  0  0
 27 86  1  0  0  0  0
 28 87  1  0  0  0  0
 29 68  2  0  0  0  0
 30 52  1  0  0  0  0
 30 69  2  0  0  0  0
 31 64  1  0  0  0  0
 31 69  1  0  0  0  0
 32 70  1  0  0  0  0
 32 74  1  0  0  0  0
 33 75  1  0  0  0  0
 33 79  2  0  0  0  0
 34 53  1  0  0  0  0
 34 76  1  0  0  0  0
 34 80  2  0  0  0  0
 35 65  1  0  0  0  0
 35 71  1  0  0  0  0
 35 81  2  0  0  0  0
 36 66  1  0  0  0  0
 36 77  1  0  0  0  0
 36 82  2  0  0  0  0
 37 72  1  0  0  0  0
 37 73  1  0  0  0  0
 37 83  2  0  0  0  0
 38 41  1  0  0  0  0
 39 53  1  0  0  0  0
 40 71  1  0  0  0  0
 41 43  1  0  0  0  0
 42 44  1  0  0  0  0
 42 46  1  0  0  0  0
 43 51  1  0  0  0  0
 44 54  1  0  0  0  0
 45 50  1  0  0  0  0
 45 55  1  0  0  0  0
 46 72  1  0  0  0  0
 47 52  1  0  0  0  0
 47 73  1  0  0  0  0
 48 52  1  0  0  0  0
 48 73  1  0  0  0  0
 49 54  1  0  0  0  0
 49 72  1  0  0  0  0
 50 55  1  0  0  0  0
 51 76  1  0  0  0  0
 53 71  1  0  0  0  0
 54 70  1  0  0  0  0
 55 85  1  0  0  0  0
 57 64  1  0  0  0  0
 58 64  1  0  0  0  0
 59 66  1  0  0  0  0
 60 67  1  0  0  0  0
 61 67  1  0  0  0  0
 62 67  1  0  0  0  0
 63 78  1  0  0  0  0
 65 67  1  0  0  0  0
 65 77  1  0  0  0  0
 66 78  1  0  0  0  0
 68 70  1  0  0  0  0
M  CHG  1  78   1
M  ISO  4  37 100  55 101  73 100  85 101
M  END
> <Batch ID>
0166

> <Smiles>
CNC(C)C(=O)NC(C(=O)N1Cc2cc([101O:1][101CH:1]3CC3c3c(C)cc(C4C[100N:0]([100C:0](=O)N5CCCC(n6nc(-c7ccc(Oc8ccc(F)cc8F)cc7)c(C(N)=O)c6N)C5)C4)nc3C(C)C)ccc2CC1C(=O)NC1CCCc2ccccc21)C(C)(C)C

> <Shape>
0.252

> <Color>
0.214

> <Negative vol penalty>
0.000

$$$$

  -OEChem-04052322243D

 87 96  0     1  0  0  0  0  0999 V2000
  -32.3519  -15.0673   21.7673 C   0  0  0  0  0  0  0  0  0  0  0  0
  -31.4874  -16.1537   21.6805 C   0  0  0  0  0  0  0  0  0  0  0  0
  -24.8385  -31.3530   20.6372 C   0  0  0  0  0  0  0  0  0  0  0  0
  -24.8573  -29.5464   22.2412 C   0  0  0  0  0  0  0  0  0  0  0  0
  -31.9499  -13.8185   21.2952 C   0  0  0  0  0  0  0  0  0  0  0  0
  -30.2206  -15.9923   21.1204 C   0  0  0  0  0  0  0  0  0  0  0  0
  -25.0677  -18.8530   22.7847 C   0  0  0  0  0  0  0  0  0  0  0  0
  -25.1067  -30.4458   19.6122 C   0  0  0  0  0  0  0  0  0  0  0  0
  -25.1254  -28.6391   21.2161 C   0  0  0  0  0  0  0  0  0  0  0  0
  -24.4001  -19.9610   22.2648 C   0  0  0  0  0  0  0  0  0  0  0  0
  -27.8004  -27.6519   19.3994 C   0  0  0  0  0  0  0  0  0  0  0  0
  -28.7900  -26.6948   19.6235 C   0  0  0  0  0  0  0  0  0  0  0  0
  -22.9620  -18.4938   21.0005 C   0  0  0  0  0  0  0  0  0  0  0  0
  -27.1641  -24.9376   19.2979 C   0  0  0  0  0  0  0  0  0  0  0  0
  -24.7139  -30.9033   21.9518 C   0  0  0  0  0  0  0  0  0  0  0  0
  -25.2238  -32.9416   23.3985 C   0  0  0  0  0  0  0  0  0  0  0  0
  -30.6740  -13.6395   20.7378 C   0  0  0  0  0  0  0  0  0  0  0  0
  -24.6939  -17.5552   22.4074 C   0  0  0  0  0  0  0  0  0  0  0  0
  -29.8016  -14.7403   20.6391 C   0  0  0  0  0  0  0  0  0  0  0  0
  -23.6247  -17.3709   21.5191 C   0  0  0  0  0  0  0  0  0  0  0  0
  -25.2500  -29.0889   19.9016 C   0  0  0  0  0  0  0  0  0  0  0  0
  -23.3490  -19.7817   21.3703 C   0  0  0  0  0  0  0  0  0  0  0  0
  -26.4926  -27.2519   19.1246 C   0  0  0  0  0  0  0  0  0  0  0  0
  -28.4719  -25.3377   19.5727 C   0  0  0  0  0  0  0  0  0  0  0  0
  -26.1745  -25.8947   19.0739 C   0  0  0  0  0  0  0  0  0  0  0  0
  -24.4375  -31.8400   23.0111 C   0  0  0  0  0  0  0  0  0  0  0  0
  -24.5328  -33.5067   24.4423 C   0  0  0  0  0  0  0  0  0  0  0  0
  -26.4677  -33.4121   22.8626 C   0  0  0  0  0  0  0  0  0  0  0  0
  -19.7784  -25.5432   22.0640 C   0  0  0  0  0  0  0  0  0  0  0  0
  -26.1398  -15.1480   20.9179 C   0  0  0  0  0  0  0  0  0  0  0  0
  -23.4185  -13.5551   21.6789 C   0  0  0  0  0  0  0  0  0  0  0  0
  -20.0998  -13.6988   22.4614 C   0  0  0  0  0  0  0  0  0  0  0  0
  -19.7969  -30.4480   24.3861 C   0  0  0  0  0  0  0  0  0  0  0  0
  -30.3017  -12.2814   20.1978 C   0  0  0  0  0  0  0  0  0  0  0  0
  -25.4066  -16.3695   22.9979 C   0  0  0  0  0  0  0  0  0  0  0  0
  -23.1713  -15.9978   21.0979 C   0  0  0  0  0  0  0  0  0  0  0  0
  -28.8036  -12.1102   19.9600 C   0  0  0  0  0  0  0  0  0  0  0  0
  -22.4531  -30.7809   27.0007 C   0  0  0  0  0  0  0  0  0  0  0  0
  -28.2370  -13.3230   19.2287 C   0  0  0  0  0  0  0  0  0  0  0  0
  -22.6794  -32.2913   26.9933 C   0  0  0  0  0  0  0  0  0  0  0  0
  -21.0288  -30.4420   26.5838 C   0  0  0  0  0  0  0  0  0  0  0  0
  -18.6715  -27.6719   22.6521 C   0  0  0  0  0  0  0  0  0  0  0  0
  -21.1119  -27.4673   23.0477 C   0  0  0  0  0  0  0  0  0  0  0  0
  -18.5232  -28.3592   24.0033 C   0  0  0  0  0  0  0  0  0  0  0  0
  -20.9496  -28.1893   24.3867 C   0  0  0  0  0  0  0  0  0  0  0  0
  -20.8956  -32.5004   25.2080 C   0  0  0  0  0  0  0  0  0  0  0  0
  -22.1079  -25.4537   21.2545 C   0  0  0  0  0  0  0  0  0  0  0  0
  -28.4103  -14.5995   20.0607 C   0  0  1  0  0  0  0  0  0  0  0  0
  -25.2767  -15.1098   22.1472 C   0  0  1  0  0  0  0  0  0  0  0  0
  -20.8668  -23.4406   21.2336 C   0  0  1  0  0  0  0  0  0  0  0  0
  -22.3109  -32.9331   25.6410 C   0  0  2  0  0  0  0  0  0  0  0  0
  -21.0418  -24.7219   22.0620 C   0  0  2  0  0  0  0  0  0  0  0  0
  -22.2554  -23.2045   20.5960 C   0  0  2  0  0  0  0  0  0  0  0  0
  -20.2555  -22.2506   21.9666 C   0  0  0  0  0  0  0  0  0  0  0  0
  -21.4897  -24.5134   23.5103 C   0  0  0  0  0  0  0  0  0  0  0  0
  -22.1228  -22.8534   19.1093 C   0  0  0  0  0  0  0  0  0  0  0  0
  -18.1357  -12.2299   22.9925 C   0  0  0  0  0  0  0  0  0  0  0  0
  -23.1668  -12.8282   18.7263 C   0  0  0  0  0  0  0  0  0  0  0  0
  -20.7780  -12.2122   19.1533 C   0  0  0  0  0  0  0  0  0  0  0  0
  -22.6093  -10.9734   20.3084 C   0  0  0  0  0  0  0  0  0  0  0  0
  -19.7759  -14.9045   25.1448 C   0  0  0  0  0  0  0  0  0  0  0  0
  -23.1294  -22.1479   21.2764 C   0  0  0  0  0  0  0  0  0  1  0  0
  -22.0811  -13.3438   21.0113 C   0  0  1  0  0  0  0  0  0  0  0  0
  -19.2947  -13.0326   23.5626 C   0  0  2  0  0  0  0  0  0  0  0  0
  -22.1683  -12.3655   19.8061 C   0  0  0  0  0  0  0  0  0  0  0  0
  -23.3316  -31.7111   23.7489 N   0  0  0  0  0  0  0  0  0  0  0  0
  -23.4181  -32.7389   24.6104 N   0  0  0  0  0  0  0  0  0  0  0  0
  -19.8651  -26.8228   22.6150 N   0  0  0  0  0  0  0  0  0  0  0  0
  -23.9038  -14.8703   21.6978 N   0  0  0  0  0  0  0  0  0  0  0  0
  -20.6814  -31.0530   25.2956 N   0  0  0  0  0  0  0  0  0  0  0  0
  -19.7578  -29.0456   24.3768 N   0  0  0  0  0  0  0  0  0  0  0  0
  -24.7759  -34.5803   25.2236 N   0  0  0  0  0  0  0  0  0  0  0  0
  -27.6601  -32.9149   23.4062 N   0  0  0  0  0  0  0  0  0  0  0  0
  -27.4168  -14.6567   21.1114 N   0  0  0  0  0  0  0  0  0  0  0  0
  -21.1632  -12.9172   22.0620 N   0  0  0  0  0  0  0  0  0  0  0  0
  -18.7436  -14.0574   24.4938 N   0  3  0  0  0  0  0  0  0  0  0  0
  -26.5203  -34.2608   21.9404 O   0  0  0  0  0  0  0  0  0  0  0  0
  -18.7451  -25.0606   21.5935 O   0  0  0  0  0  0  0  0  0  0  0  0
  -25.6807  -15.5892   19.8708 O   0  0  0  0  0  0  0  0  0  0  0  0
  -24.0074  -12.5899   22.1721 O   0  0  0  0  0  0  0  0  0  0  0  0
  -19.8117  -14.8005   21.9991 O   0  0  0  0  0  0  0  0  0  0  0  0
  -19.0956  -31.1223   23.6216 O   0  0  0  0  0  0  0  0  0  0  0  0
  -22.9620  -24.4590   20.6796 O   0  0  0  0  0  0  0  0  0  0  0  0
  -25.5114  -28.2033   18.9016 O   0  0  0  0  0  0  0  0  0  0  0  0
  -22.6897  -20.8721   20.8558 O   0  0  0  0  0  0  0  0  0  1  0  0
  -29.4226  -24.4186   19.7863 F   0  0  0  0  0  0  0  0  0  0  0  0
  -24.9202  -25.5043   18.8092 F   0  0  0  0  0  0  0  0  0  0  0  0
  1  2  1  0  0  0  0
  1  5  2  0  0  0  0
  2  6  2  0  0  0  0
  3  8  2  0  0  0  0
  3 15  1  0  0  0  0
  4  9  1  0  0  0  0
  4 15  2  0  0  0  0
  5 17  1  0  0  0  0
  6 19  1  0  0  0  0
  7 10  2  0  0  0  0
  7 18  1  0  0  0  0
  8 21  1  0  0  0  0
  9 21  2  0  0  0  0
 10 22  1  0  0  0  0
 11 12  2  0  0  0  0
 11 23  1  0  0  0  0
 12 24  1  0  0  0  0
 13 20  1  0  0  0  0
 13 22  2  0  0  0  0
 14 24  2  0  0  0  0
 14 25  1  0  0  0  0
 15 26  1  0  0  0  0
 16 26  1  0  0  0  0
 16 27  2  0  0  0  0
 16 28  1  0  0  0  0
 17 19  2  0  0  0  0
 17 34  1  0  0  0  0
 18 20  2  0  0  0  0
 18 35  1  0  0  0  0
 19 48  1  0  0  0  0
 20 36  1  0  0  0  0
 21 84  1  0  0  0  0
 22 85  1  0  0  0  0
 23 25  2  0  0  0  0
 23 84  1  0  0  0  0
 24 86  1  0  0  0  0
 25 87  1  0  0  0  0
 26 66  2  0  0  0  0
 27 67  1  0  0  0  0
 27 72  1  0  0  0  0
 28 73  1  0  0  0  0
 28 77  2  0  0  0  0
 29 52  1  0  0  0  0
 29 68  1  0  0  0  0
 29 78  2  0  0  0  0
 30 49  1  0  0  0  0
 30 74  1  0  0  0  0
 30 79  2  0  0  0  0
 31 63  1  0  0  0  0
 31 69  1  0  0  0  0
 31 80  2  0  0  0  0
 32 64  1  0  0  0  0
 32 75  1  0  0  0  0
 32 81  2  0  0  0  0
 33 70  1  0  0  0  0
 33 71  1  0  0  0  0
 33 82  2  0  0  0  0
 34 37  1  0  0  0  0
 35 49  1  0  0  0  0
 36 69  1  0  0  0  0
 37 39  1  0  0  0  0
 38 40  1  0  0  0  0
 38 41  1  0  0  0  0
 39 48  1  0  0  0  0
 40 51  1  0  0  0  0
 41 70  1  0  0  0  0
 42 44  1  0  0  0  0
 42 68  1  0  0  0  0
 43 45  1  0  0  0  0
 43 68  1  0  0  0  0
 44 71  1  0  0  0  0
 45 71  1  0  0  0  0
 46 51  1  0  0  0  0
 46 70  1  0  0  0  0
 47 52  1  0  0  0  0
 47 83  1  0  0  0  0
 48 74  1  0  0  0  0
 49 69  1  0  0  0  0
 50 52  1  0  0  0  0
 50 53  1  0  0  0  0
 50 54  1  0  0  0  0
 51 67  1  0  0  0  0
 52 55  1  0  0  0  0
 53 56  1  0  0  0  0
 53 62  1  0  0  0  0
 53 83  1  0  0  0  0
 57 64  1  0  0  0  0
 58 65  1  0  0  0  0
 59 65  1  0  0  0  0
 60 65  1  0  0  0  0
 61 76  1  0  0  0  0
 62 85  1  0  0  0  0
 63 65  1  0  0  0  0
 63 75  1  0  0  0  0
 64 76  1  0  0  0  0
 66 67  1  0  0  0  0
M  CHG  1  76   1
M  ISO  4  33 100  62 101  71 100  85 101
M  END
> <Batch ID>
0166

> <Smiles>
CNC(C)C(=O)NC(C(=O)N1Cc2cc([101O:1][101CH2:1]C3(C)OCC(C)(C(=O)N4CC[100N:0]([100C:0](=O)N5CCCC(n6nc(-c7ccc(Oc8ccc(F)cc8F)cc7)c(C(N)=O)c6N)C5)CC4)C3C)ccc2CC1C(=O)NC1CCCc2ccccc21)C(C)(C)C

> <Shape>
0.255

> <Color>
0.079

> <Negative vol penalty>
0.000

$$$$

  -OEChem-04052322243D

 90101  0     1  0  0  0  0  0999 V2000
  -26.7337  -17.0445   18.2404 C   0  0  0  0  0  0  0  0  0  0  0  0
  -26.0422  -18.0685   18.8797 C   0  0  0  0  0  0  0  0  0  0  0  0
  -23.6365  -16.3328   23.8943 C   0  0  0  0  0  0  0  0  0  0  0  0
  -22.4994  -17.8039   22.3517 C   0  0  0  0  0  0  0  0  0  0  0  0
  -28.1276  -17.0252   18.2645 C   0  0  0  0  0  0  0  0  0  0  0  0
  -26.7443  -19.0733   19.5444 C   0  0  0  0  0  0  0  0  0  0  0  0
  -24.9271  -23.6950   18.5532 C   0  0  0  0  0  0  0  0  0  0  0  0
  -23.4784  -15.2735   23.0007 C   0  0  0  0  0  0  0  0  0  0  0  0
  -22.3414  -16.7447   21.4580 C   0  0  0  0  0  0  0  0  0  0  0  0
  -23.7634  -24.0778   19.2187 C   0  0  0  0  0  0  0  0  0  0  0  0
  -24.9471  -14.1685   20.1626 C   0  0  0  0  0  0  0  0  0  0  0  0
  -26.0495  -13.3459   19.9309 C   0  0  0  0  0  0  0  0  0  0  0  0
  -25.0860  -25.3393   20.7931 C   0  0  0  0  0  0  0  0  0  0  0  0
  -18.8765  -28.8040   22.2685 C   0  0  0  0  0  0  0  0  0  0  0  0
  -24.7984  -11.4425   20.7367 C   0  0  0  0  0  0  0  0  0  0  0  0
  -17.2094  -27.9782   23.5367 C   0  0  0  0  0  0  0  0  0  0  0  0
  -23.1469  -17.5980   23.5698 C   0  0  0  0  0  0  0  0  0  0  0  0
  -24.3873  -19.5956   24.5592 C   0  0  0  0  0  0  0  0  0  0  0  0
  -28.8473  -18.0355   18.9217 C   0  0  0  0  0  0  0  0  0  0  0  0
  -26.1819  -24.1233   19.0098 C   0  0  0  0  0  0  0  0  0  0  0  0
  -28.1492  -19.0667   19.5785 C   0  0  0  0  0  0  0  0  0  0  0  0
  -26.2640  -24.9625   20.1301 C   0  0  0  0  0  0  0  0  0  0  0  0
  -17.7071  -29.1419   22.9933 C   0  0  0  0  0  0  0  0  0  0  0  0
  -22.8309  -15.4795   21.7825 C   0  0  0  0  0  0  0  0  0  0  0  0
  -23.8429  -24.8977   20.3406 C   0  0  0  0  0  0  0  0  0  0  0  0
  -23.7704  -13.6282   20.6814 C   0  0  0  0  0  0  0  0  0  0  0  0
  -25.9751  -11.9829   20.2179 C   0  0  0  0  0  0  0  0  0  0  0  0
  -23.6961  -12.2652   20.9685 C   0  0  0  0  0  0  0  0  0  0  0  0
  -23.3094  -18.6925   24.4928 C   0  0  0  0  0  0  0  0  0  0  0  0
  -19.0577  -27.4440   22.3909 C   0  0  0  0  0  0  0  0  0  0  0  0
  -24.0669  -20.4369   25.5965 C   0  0  0  0  0  0  0  0  0  0  0  0
  -25.5722  -19.6675   23.7551 C   0  0  0  0  0  0  0  0  0  0  0  0
  -28.7863  -22.6679   20.1065 C   0  0  0  0  0  0  0  0  0  0  0  0
  -30.0220  -25.6660   20.0255 C   0  0  0  0  0  0  0  0  0  0  0  0
  -28.9096  -28.9960   20.8568 C   0  0  0  0  0  0  0  0  0  0  0  0
  -18.8623  -22.0533   28.0766 C   0  0  0  0  0  0  0  0  0  0  0  0
  -30.3524  -17.9464   18.9609 C   0  0  0  0  0  0  0  0  0  0  0  0
  -27.4259  -23.7233   18.2649 C   0  0  0  0  0  0  0  0  0  0  0  0
  -27.5854  -25.4661   20.6486 C   0  0  0  0  0  0  0  0  0  0  0  0
  -31.0295  -19.2524   19.3684 C   0  0  0  0  0  0  0  0  0  0  0  0
  -21.6385  -20.5442   29.7174 C   0  0  0  0  0  0  0  0  0  0  0  0
  -17.9748  -31.6528   23.6975 C   0  0  0  0  0  0  0  0  0  0  0  0
  -16.8733  -31.0884   24.5393 C   0  0  0  0  0  0  0  0  0  0  0  0
  -30.3412  -19.8518   20.5906 C   0  0  0  0  0  0  0  0  0  0  0  0
  -20.1462  -26.6239   20.2900 C   0  0  0  0  0  0  0  0  0  0  0  0
  -22.4788  -19.9800   28.5705 C   0  0  0  0  0  0  0  0  0  0  0  0
  -21.5471  -27.1005   19.9038 C   0  0  0  0  0  0  0  0  0  0  0  0
  -16.7391  -25.0808   24.6249 C   0  0  0  0  0  0  0  0  0  0  0  0
  -18.8434  -24.7779   24.5604 C   0  0  0  0  0  0  0  0  0  0  0  0
  -20.1429  -20.4238   29.4336 C   0  0  0  0  0  0  0  0  0  0  0  0
  -20.5478  -20.4401   27.0026 C   0  0  0  0  0  0  0  0  0  0  0  0
  -17.1102  -30.5318   23.1453 C   0  0  0  0  0  0  0  0  0  0  0  0
  -28.8758  -20.1880   20.2890 C   0  0  1  0  0  0  0  0  0  0  0  0
  -20.1190  -26.5729   21.8342 C   0  0  1  0  0  0  0  0  0  0  0  0
  -28.6858  -23.7985   19.1220 C   0  0  1  0  0  0  0  0  0  0  0  0
  -17.6635  -23.9340   25.1021 C   0  0  0  0  0  0  0  0  0  0  0  0
  -21.5286  -27.0303   22.2848 C   0  0  2  0  0  0  0  0  0  0  0  0
  -22.0634  -20.5901   27.2182 C   0  0  2  0  0  0  0  0  0  0  0  0
  -17.8330  -25.4362   23.5734 C   0  0  0  0  0  0  0  0  0  0  0  0
  -22.4202  -26.6979   21.0846 C   0  0  1  0  0  0  0  0  0  1  0  0
  -21.9646  -26.3873   23.5955 C   0  0  0  0  0  0  0  0  0  0  0  0
  -29.6198  -31.2266   19.9527 C   0  0  0  0  0  0  0  0  0  0  0  0
  -31.9455  -25.6888   22.3940 C   0  0  0  0  0  0  0  0  0  0  0  0
  -31.4964  -28.1389   22.6457 C   0  0  0  0  0  0  0  0  0  0  0  0
  -32.5399  -27.2726   20.5521 C   0  0  0  0  0  0  0  0  0  0  0  0
  -26.1313  -29.7193   20.1378 C   0  0  0  0  0  0  0  0  0  0  0  0
  -17.6664  -23.6379   26.5873 C   0  0  0  0  0  0  0  0  0  0  0  0
  -30.0925  -26.8199   20.9964 C   0  0  1  0  0  0  0  0  0  0  0  0
  -28.5844  -30.1149   19.8838 C   0  0  2  0  0  0  0  0  0  0  0  0
  -31.4972  -26.9613   21.6478 C   0  0  0  0  0  0  0  0  0  0  0  0
  -22.3743  -18.9370   25.4145 N   0  0  0  0  0  0  0  0  0  0  0  0
  -18.0383  -26.9525   23.1637 N   0  0  0  0  0  0  0  0  0  0  0  0
  -22.8636  -20.0033   26.0700 N   0  0  0  0  0  0  0  0  0  0  0  0
  -28.7737  -25.0423   19.8898 N   0  0  0  0  0  0  0  0  0  0  0  0
  -19.8149  -21.0229   28.1376 N   0  0  0  0  0  0  0  0  0  0  0  0
  -24.6999  -21.4979   26.1406 N   0  0  0  0  0  0  0  0  0  0  0  0
  -25.7434  -18.7254   22.7317 N   0  0  0  0  0  0  0  0  0  0  0  0
  -28.7854  -21.4141   19.5255 N   0  0  0  0  0  0  0  0  0  0  0  0
  -29.6538  -28.0004   20.2600 N   0  0  0  0  0  0  0  0  0  0  0  0
  -18.6152  -22.5699   26.8106 N   0  0  0  0  0  0  0  0  0  0  0  0
  -27.2479  -30.6976   20.1924 N   0  3  0  0  0  0  0  0  0  0  0  0
  -26.4609  -20.5313   23.9494 O   0  0  0  0  0  0  0  0  0  0  0  0
  -28.8608  -22.9147   21.3045 O   0  0  0  0  0  0  0  0  0  0  0  0
  -31.0354  -25.3350   19.4050 O   0  0  0  0  0  0  0  0  0  0  0  0
  -28.5435  -29.0061   22.0300 O   0  0  0  0  0  0  0  0  0  0  0  0
  -18.2795  -22.4850   29.0771 O   0  0  0  0  0  0  0  0  0  0  0  0
  -22.6766  -14.4461   20.9102 O   0  0  0  0  0  0  0  0  0  0  0  0
  -22.7087  -25.2724   20.9925 O   0  0  0  0  0  0  0  0  0  1  0  0
  -27.0332  -11.1927   19.9939 F   0  0  0  0  0  0  0  0  0  0  0  0
  -22.5679  -11.7402   21.4659 F   0  0  0  0  0  0  0  0  0  0  0  0
  1  2  1  0  0  0  0
  1  5  2  0  0  0  0
  2  6  2  0  0  0  0
  3  8  2  0  0  0  0
  3 17  1  0  0  0  0
  4  9  1  0  0  0  0
  4 17  2  0  0  0  0
  5 19  1  0  0  0  0
  6 21  1  0  0  0  0
  7 10  2  0  0  0  0
  7 20  1  0  0  0  0
  8 24  1  0  0  0  0
  9 24  2  0  0  0  0
 10 25  1  0  0  0  0
 11 12  2  0  0  0  0
 11 26  1  0  0  0  0
 12 27  1  0  0  0  0
 13 22  1  0  0  0  0
 13 25  2  0  0  0  0
 14 23  1  0  0  0  0
 14 30  2  0  0  0  0
 15 27  2  0  0  0  0
 15 28  1  0  0  0  0
 16 23  2  0  0  0  0
 16 72  1  0  0  0  0
 17 29  1  0  0  0  0
 18 29  1  0  0  0  0
 18 31  2  0  0  0  0
 18 32  1  0  0  0  0
 19 21  2  0  0  0  0
 19 37  1  0  0  0  0
 20 22  2  0  0  0  0
 20 38  1  0  0  0  0
 21 53  1  0  0  0  0
 22 39  1  0  0  0  0
 23 52  1  0  0  0  0
 24 87  1  0  0  0  0
 25 88  1  0  0  0  0
 26 28  2  0  0  0  0
 26 87  1  0  0  0  0
 27 89  1  0  0  0  0
 28 90  1  0  0  0  0
 29 71  2  0  0  0  0
 30 54  1  0  0  0  0
 30 72  1  0  0  0  0
 31 73  1  0  0  0  0
 31 76  1  0  0  0  0
 32 77  1  0  0  0  0
 32 82  2  0  0  0  0
 33 55  1  0  0  0  0
 33 78  1  0  0  0  0
 33 83  2  0  0  0  0
 34 68  1  0  0  0  0
 34 74  1  0  0  0  0
 34 84  2  0  0  0  0
 35 69  1  0  0  0  0
 35 79  1  0  0  0  0
 35 85  2  0  0  0  0
 36 75  1  0  0  0  0
 36 80  1  0  0  0  0
 36 86  2  0  0  0  0
 37 40  1  0  0  0  0
 38 55  1  0  0  0  0
 39 74  1  0  0  0  0
 40 44  1  0  0  0  0
 41 46  1  0  0  0  0
 41 50  1  0  0  0  0
 42 43  1  0  0  0  0
 42 52  1  0  0  0  0
 43 52  1  0  0  0  0
 44 53  1  0  0  0  0
 45 47  1  0  0  0  0
 45 54  1  0  0  0  0
 46 58  1  0  0  0  0
 47 60  1  0  0  0  0
 48 56  1  0  0  0  0
 48 59  1  0  0  0  0
 49 56  1  0  0  0  0
 49 59  1  0  0  0  0
 50 75  1  0  0  0  0
 51 58  1  0  0  0  0
 51 75  1  0  0  0  0
 53 78  1  0  0  0  0
 54 57  1  0  0  0  0
 55 74  1  0  0  0  0
 56 67  1  0  0  0  0
 57 60  1  0  0  0  0
 57 61  1  0  0  0  0
 58 73  1  0  0  0  0
 59 72  1  0  0  0  0
 60 88  1  0  0  0  0
 62 69  1  0  0  0  0
 63 70  1  0  0  0  0
 64 70  1  0  0  0  0
 65 70  1  0  0  0  0
 66 81  1  0  0  0  0
 67 80  1  0  0  0  0
 68 70  1  0  0  0  0
 68 79  1  0  0  0  0
 69 81  1  0  0  0  0
 71 73  1  0  0  0  0
M  CHG  1  81   1
M  ISO  4  36 100  60 101  80 100  88 101
M  END
> <Batch ID>
0166

> <Smiles>
CNC(C)C(=O)NC(C(=O)N1Cc2cc([101O:1][101CH:1]3CCC(c4cc(C5CC5)cn4C4CC(C[100NH:0][100C:0](=O)N5CCCC(n6nc(-c7ccc(Oc8ccc(F)cc8F)cc7)c(C(N)=O)c6N)C5)C4)C3C)ccc2CC1C(=O)NC1CCCc2ccccc21)C(C)(C)C

> <Shape>
0.214

> <Color>
0.054

> <Negative vol penalty>
0.000

$$$$

  -OEChem-04052322243D

 87 97  0     1  0  0  0  0  0999 V2000
  -26.7403  -23.5359   17.5415 C   0  0  0  0  0  0  0  0  0  0  0  0
  -25.6023  -24.0788   18.1294 C   0  0  0  0  0  0  0  0  0  0  0  0
  -27.7041  -13.8589   18.3689 C   0  0  0  0  0  0  0  0  0  0  0  0
  -27.8437  -12.5696   20.4074 C   0  0  0  0  0  0  0  0  0  0  0  0
  -27.9958  -23.7858   18.0939 C   0  0  0  0  0  0  0  0  0  0  0  0
  -25.7191  -24.8713   19.2708 C   0  0  0  0  0  0  0  0  0  0  0  0
  -22.8853  -29.0610   19.0254 C   0  0  0  0  0  0  0  0  0  0  0  0
  -28.8480  -13.2221   17.8878 C   0  0  0  0  0  0  0  0  0  0  0  0
  -28.9876  -11.9328   19.9262 C   0  0  0  0  0  0  0  0  0  0  0  0
  -21.5199  -28.9215   19.2708 C   0  0  0  0  0  0  0  0  0  0  0  0
  -31.5238  -11.6766   15.9729 C   0  0  0  0  0  0  0  0  0  0  0  0
  -31.5086  -11.2263   14.6529 C   0  0  0  0  0  0  0  0  0  0  0  0
  -24.3098  -24.5654   25.4742 C   0  0  0  0  0  0  0  0  0  0  0  0
  -22.5313  -24.4156   23.3346 C   0  0  0  0  0  0  0  0  0  0  0  0
  -21.8491  -29.7214   21.5227 C   0  0  0  0  0  0  0  0  0  0  0  0
  -29.6258   -9.8001   15.1611 C   0  0  0  0  0  0  0  0  0  0  0  0
  -27.2019  -13.5327   19.6288 C   0  0  0  0  0  0  0  0  0  0  0  0
  -24.6845  -13.7803   19.9588 C   0  0  0  0  0  0  0  0  0  0  0  0
  -28.1289  -24.5896   19.2371 C   0  0  0  0  0  0  0  0  0  0  0  0
  -23.7459  -29.5222   20.0320 C   0  0  0  0  0  0  0  0  0  0  0  0
  -26.9775  -25.1311   19.8398 C   0  0  0  0  0  0  0  0  0  0  0  0
  -24.5286  -23.6236   24.4587 C   0  0  0  0  0  0  0  0  0  0  0  0
  -23.6223  -23.5359   23.3872 C   0  0  0  0  0  0  0  0  0  0  0  0
  -23.2245  -29.8683   21.2868 C   0  0  0  0  0  0  0  0  0  0  0  0
  -23.2167  -25.4291   25.4148 C   0  0  0  0  0  0  0  0  0  0  0  0
  -22.3295  -25.3560   24.3444 C   0  0  0  0  0  0  0  0  0  0  0  0
  -29.4897  -12.2590   18.6664 C   0  0  0  0  0  0  0  0  0  0  0  0
  -21.0021  -29.2489   20.5205 C   0  0  0  0  0  0  0  0  0  0  0  0
  -30.5900  -11.1886   16.8871 C   0  0  0  0  0  0  0  0  0  0  0  0
  -30.5596  -10.2881   14.2469 C   0  0  0  0  0  0  0  0  0  0  0  0
  -29.6410  -10.2504   16.4811 C   0  0  0  0  0  0  0  0  0  0  0  0
  -26.0206  -14.1906   20.1266 C   0  0  0  0  0  0  0  0  0  0  0  0
  -23.9470  -14.7356   20.6145 C   0  0  0  0  0  0  0  0  0  0  0  0
  -24.1572  -12.6377   19.2717 C   0  0  0  0  0  0  0  0  0  0  0  0
  -26.2417  -28.3065   21.5801 C   0  0  0  0  0  0  0  0  0  0  0  0
  -26.4160  -31.2889   22.8438 C   0  0  0  0  0  0  0  0  0  0  0  0
  -24.8185  -34.2005   23.6297 C   0  0  0  0  0  0  0  0  0  0  0  0
  -24.8051  -20.3315   21.8195 C   0  0  0  0  0  0  0  0  0  0  0  0
  -29.5026  -24.7929   19.8256 C   0  0  0  0  0  0  0  0  0  0  0  0
  -25.2121  -29.6925   19.7430 C   0  0  0  0  0  0  0  0  0  0  0  0
  -25.7016  -22.6828   24.5589 C   0  0  0  0  0  0  0  0  0  0  0  0
  -23.8200  -22.5437   22.2706 C   0  0  0  0  0  0  0  0  0  0  0  0
  -24.1030  -30.3870   22.3948 C   0  0  0  0  0  0  0  0  0  0  0  0
  -29.5749  -25.9505   20.8180 C   0  0  0  0  0  0  0  0  0  0  0  0
  -24.2030  -17.8440   24.2332 C   0  0  0  0  0  0  0  0  0  0  0  0
  -28.4067  -25.8883   21.7969 C   0  0  0  0  0  0  0  0  0  0  0  0
  -24.4759  -16.5713   23.4327 C   0  0  0  0  0  0  0  0  0  0  0  0
  -18.2548  -26.8696   22.9091 C   0  0  0  0  0  0  0  0  0  0  0  0
  -17.7704  -27.7574   21.7455 C   0  0  0  0  0  0  0  0  0  0  0  0
  -26.0409  -22.0303   23.2230 C   0  0  0  0  0  0  0  0  0  0  0  0
  -25.2053  -18.9524   23.9069 C   0  0  0  0  0  0  0  0  0  0  0  0
  -25.5845  -17.9861   21.6619 C   0  0  0  0  0  0  0  0  0  0  0  0
  -27.0656  -26.0161   21.0642 C   0  0  1  0  0  0  0  0  0  0  0  0
  -26.0742  -29.6831   21.0016 C   0  0  1  0  0  0  0  0  0  0  0  0
  -24.5575  -16.8741   21.9261 C   0  0  1  0  0  0  0  0  0  0  0  0
  -19.6396  -27.5281   22.7409 C   0  0  2  0  0  0  0  0  0  0  0  0
  -19.2425  -27.8381   21.2750 C   0  0  2  0  0  0  0  0  0  1  0  0
  -23.0193  -26.4247   26.5102 C   0  0  0  0  0  0  0  0  0  0  0  0
  -25.2141  -36.4405   24.6895 C   0  0  0  0  0  0  0  0  0  0  0  0
  -26.3874  -29.9861   25.6027 C   0  0  0  0  0  0  0  0  0  0  0  0
  -25.8284  -32.2237   26.5769 C   0  0  0  0  0  0  0  0  0  0  0  0
  -27.9853  -31.8955   25.3673 C   0  0  0  0  0  0  0  0  0  0  0  0
  -24.1094  -35.6335   21.1392 C   0  0  0  0  0  0  0  0  0  0  0  0
  -21.1566  -26.2760   24.2537 C   0  0  0  0  0  0  0  0  0  0  0  0
  -25.8267  -31.9737   24.0533 C   0  0  1  0  0  0  0  0  0  0  0  0
  -25.1934  -35.6517   23.3894 C   0  0  2  0  0  0  0  0  0  0  0  0
  -26.4904  -31.5081   25.3800 C   0  0  0  0  0  0  0  0  0  0  0  0
  -26.1286  -15.3188   20.8334 N   0  0  0  0  0  0  0  0  0  0  0  0
  -24.8510  -15.6256   21.1154 N   0  0  0  0  0  0  0  0  0  0  0  0
  -25.5307  -30.5301   22.0653 N   0  0  0  0  0  0  0  0  0  0  0  0
  -24.8344  -21.5281   22.5563 N   0  0  0  0  0  0  0  0  0  0  0  0
  -25.2815  -19.1775   22.4578 N   0  0  0  0  0  0  0  0  0  0  0  0
  -22.6199  -14.8927   20.8057 N   0  0  0  0  0  0  0  0  0  0  0  0
  -25.0549  -11.7573   18.6525 N   0  0  0  0  0  0  0  0  0  0  0  0
  -26.8124  -27.3965   20.7108 N   0  0  0  0  0  0  0  0  0  0  0  0
  -25.9328  -33.4071   23.8029 N   0  0  0  0  0  0  0  0  0  0  0  0
  -20.7547  -26.5815   22.8538 N   0  3  0  0  0  0  0  0  0  0  0  0
  -24.2153  -36.2933   22.4660 N   0  3  0  0  0  0  0  0  0  0  0  0
  -22.9254  -12.4132   19.1947 O   0  0  0  0  0  0  0  0  0  0  0  0
  -25.8812  -28.0866   22.7305 O   0  0  0  0  0  0  0  0  0  0  0  0
  -27.6161  -31.4283   22.5949 O   0  0  0  0  0  0  0  0  0  0  0  0
  -23.6535  -33.8104   23.6643 O   0  0  0  0  0  0  0  0  0  0  0  0
  -24.3790  -20.3003   20.6579 O   0  0  0  0  0  0  0  0  0  0  0  0
  -30.6059  -11.6373   18.1971 O   0  0  0  0  0  0  0  0  0  0  0  0
  -19.6675  -29.1128   20.7633 O   0  0  0  0  0  0  0  0  0  1  0  0
  -30.5442   -9.8569   12.9788 F   0  0  0  0  0  0  0  0  0  0  0  0
  -28.7407   -9.7788   17.3545 F   0  0  0  0  0  0  0  0  0  0  0  0
  1  2  1  0  0  0  0
  1  5  2  0  0  0  0
  2  6  2  0  0  0  0
  3  8  2  0  0  0  0
  3 17  1  0  0  0  0
  4  9  1  0  0  0  0
  4 17  2  0  0  0  0
  5 19  1  0  0  0  0
  6 21  1  0  0  0  0
  7 10  2  0  0  0  0
  7 20  1  0  0  0  0
  8 27  1  0  0  0  0
  9 27  2  0  0  0  0
 10 28  1  0  0  0  0
 11 12  2  0  0  0  0
 11 29  1  0  0  0  0
 12 30  1  0  0  0  0
 13 22  2  0  0  0  0
 13 25  1  0  0  0  0
 14 23  2  0  0  0  0
 14 26  1  0  0  0  0
 15 24  1  0  0  0  0
 15 28  2  0  0  0  0
 16 30  2  0  0  0  0
 16 31  1  0  0  0  0
 17 32  1  0  0  0  0
 18 32  1  0  0  0  0
 18 33  2  0  0  0  0
 18 34  1  0  0  0  0
 19 21  2  0  0  0  0
 19 39  1  0  0  0  0
 20 24  2  0  0  0  0
 20 40  1  0  0  0  0
 21 53  1  0  0  0  0
 22 23  1  0  0  0  0
 22 41  1  0  0  0  0
 23 42  1  0  0  0  0
 24 43  1  0  0  0  0
 25 26  2  0  0  0  0
 25 58  1  0  0  0  0
 26 64  1  0  0  0  0
 27 84  1  0  0  0  0
 28 85  1  0  0  0  0
 29 31  2  0  0  0  0
 29 84  1  0  0  0  0
 30 86  1  0  0  0  0
 31 87  1  0  0  0  0
 32 68  2  0  0  0  0
 33 69  1  0  0  0  0
 33 73  1  0  0  0  0
 34 74  1  0  0  0  0
 34 79  2  0  0  0  0
 35 54  1  0  0  0  0
 35 75  1  0  0  0  0
 35 80  2  0  0  0  0
 36 65  1  0  0  0  0
 36 70  1  0  0  0  0
 36 81  2  0  0  0  0
 37 66  1  0  0  0  0
 37 76  1  0  0  0  0
 37 82  2  0  0  0  0
 38 71  1  0  0  0  0
 38 72  1  0  0  0  0
 38 83  2  0  0  0  0
 39 44  1  0  0  0  0
 40 54  1  0  0  0  0
 41 50  1  0  0  0  0
 42 71  1  0  0  0  0
 43 70  1  0  0  0  0
 44 46  1  0  0  0  0
 45 47  1  0  0  0  0
 45 51  1  0  0  0  0
 46 53  1  0  0  0  0
 47 55  1  0  0  0  0
 48 49  1  0  0  0  0
 48 56  1  0  0  0  0
 49 57  1  0  0  0  0
 50 71  1  0  0  0  0
 51 72  1  0  0  0  0
 52 55  1  0  0  0  0
 52 72  1  0  0  0  0
 53 75  1  0  0  0  0
 54 70  1  0  0  0  0
 55 69  1  0  0  0  0
 56 57  1  0  0  0  0
 56 77  1  0  0  0  0
 57 85  1  0  0  0  0
 59 66  1  0  0  0  0
 60 67  1  0  0  0  0
 61 67  1  0  0  0  0
 62 67  1  0  0  0  0
 63 78  1  0  0  0  0
 64 77  1  0  0  0  0
 65 67  1  0  0  0  0
 65 76  1  0  0  0  0
 66 78  1  0  0  0  0
 68 69  1  0  0  0  0
M  CHG  2  77   1  78   1
M  ISO  4  38 100  57 101  71 100  85 101
M  END
> <Batch ID>
0166

> <Smiles>
CNC(C)C(=O)NC(C(=O)N1Cc2cc([101O:1][101CH:1]3CCC3NCc3cc4c(cc3C)CC[100N:0]([100C:0](=O)N3CCCC(n5nc(-c6ccc(Oc7ccc(F)cc7F)cc6)c(C(N)=O)c5N)C3)C4)ccc2CC1C(=O)NC1CCCc2ccccc21)C(C)(C)C

> <Shape>
0.271

> <Color>
0.094

> <Negative vol penalty>
0.000

$$$$

  -OEChem-04052322243D

 90101  0     1  0  0  0  0  0999 V2000
  -18.4397  -26.9799   26.0483 C   0  0  0  0  0  0  0  0  0  0  0  0
  -19.6421  -27.6283   26.3119 C   0  0  0  0  0  0  0  0  0  0  0  0
  -24.9410  -15.1921   22.0304 C   0  0  0  0  0  0  0  0  0  0  0  0
  -25.3758  -14.1224   19.9082 C   0  0  0  0  0  0  0  0  0  0  0  0
  -18.1940  -26.4585   24.7788 C   0  0  0  0  0  0  0  0  0  0  0  0
  -20.5999  -27.7546   25.3064 C   0  0  0  0  0  0  0  0  0  0  0  0
  -24.4252  -32.4571   24.4355 C   0  0  0  0  0  0  0  0  0  0  0  0
  -23.9404  -14.2575   22.2965 C   0  0  0  0  0  0  0  0  0  0  0  0
  -24.3752  -13.1878   20.1743 C   0  0  0  0  0  0  0  0  0  0  0  0
  -25.7614  -32.6556   24.7804 C   0  0  0  0  0  0  0  0  0  0  0  0
  -22.1804  -10.3029   20.4541 C   0  0  0  0  0  0  0  0  0  0  0  0
  -22.4588   -8.9614   20.1926 C   0  0  0  0  0  0  0  0  0  0  0  0
  -28.2097  -28.5183   23.2080 C   0  0  0  0  0  0  0  0  0  0  0  0
  -26.4306  -31.9390   22.5764 C   0  0  0  0  0  0  0  0  0  0  0  0
  -24.2953   -9.0369   21.7607 C   0  0  0  0  0  0  0  0  0  0  0  0
  -25.6587  -15.1246   20.8362 C   0  0  0  0  0  0  0  0  0  0  0  0
  -28.0573  -15.9916   20.8897 C   0  0  0  0  0  0  0  0  0  0  0  0
  -19.1453  -26.5869   23.7545 C   0  0  0  0  0  0  0  0  0  0  0  0
  -24.0817  -31.9868   23.1598 C   0  0  0  0  0  0  0  0  0  0  0  0
  -20.3672  -27.2332   24.0224 C   0  0  0  0  0  0  0  0  0  0  0  0
  -28.7321  -28.8740   24.4515 C   0  0  0  0  0  0  0  0  0  0  0  0
  -25.0892  -31.7378   22.2169 C   0  0  0  0  0  0  0  0  0  0  0  0
  -29.4602  -27.9443   25.1939 C   0  0  0  0  0  0  0  0  0  0  0  0
  -29.1435  -26.3032   23.4493 C   0  0  0  0  0  0  0  0  0  0  0  0
  -28.4153  -27.2329   22.7070 C   0  0  0  0  0  0  0  0  0  0  0  0
  -29.6660  -26.6589   24.6928 C   0  0  0  0  0  0  0  0  0  0  0  0
  -23.6574  -13.2553   21.3685 C   0  0  0  0  0  0  0  0  0  0  0  0
  -26.7645  -32.3938   23.8518 C   0  0  0  0  0  0  0  0  0  0  0  0
  -22.9595  -11.0115   21.3689 C   0  0  0  0  0  0  0  0  0  0  0  0
  -23.5162   -8.3283   20.8459 C   0  0  0  0  0  0  0  0  0  0  0  0
  -24.0169  -10.3784   22.0221 C   0  0  0  0  0  0  0  0  0  0  0  0
  -26.6921  -16.0901   20.5605 C   0  0  0  0  0  0  0  0  0  0  0  0
  -28.6098  -17.1560   20.4150 C   0  0  0  0  0  0  0  0  0  0  0  0
  -28.7629  -14.9414   21.5641 C   0  0  0  0  0  0  0  0  0  0  0  0
  -22.6158  -29.3967   22.0436 C   0  0  0  0  0  0  0  0  0  0  0  0
  -22.8579  -30.9573   19.2101 C   0  0  0  0  0  0  0  0  0  0  0  0
  -24.4716  -33.2952   17.3189 C   0  0  0  0  0  0  0  0  0  0  0  0
  -28.5855  -22.5765   19.6162 C   0  0  0  0  0  0  0  0  0  0  0  0
  -18.8542  -25.9656   22.4114 C   0  0  0  0  0  0  0  0  0  0  0  0
  -22.6342  -31.8034   22.7945 C   0  0  0  0  0  0  0  0  0  0  0  0
  -24.7720  -31.2509   20.8274 C   0  0  0  0  0  0  0  0  0  0  0  0
  -19.7661  -26.4706   21.2962 C   0  0  0  0  0  0  0  0  0  0  0  0
  -26.7035  -20.7216   17.3878 C   0  0  0  0  0  0  0  0  0  0  0  0
  -29.6688  -27.4926   27.7289 C   0  0  0  0  0  0  0  0  0  0  0  0
  -29.0909  -28.8653   27.5800 C   0  0  0  0  0  0  0  0  0  0  0  0
  -21.2207  -26.4722   21.7556 C   0  0  0  0  0  0  0  0  0  0  0  0
  -26.6388  -19.3368   18.0316 C   0  0  0  0  0  0  0  0  0  0  0  0
  -28.0436  -24.1434   22.7096 C   0  0  0  0  0  0  0  0  0  0  0  0
  -30.1771  -24.9233   21.5917 C   0  0  0  0  0  0  0  0  0  0  0  0
  -29.6797  -31.0965   25.3673 C   0  0  0  0  0  0  0  0  0  0  0  0
  -26.5459  -21.8180   18.4349 C   0  0  0  0  0  0  0  0  0  0  0  0
  -28.2740  -22.7468   22.1251 C   0  0  0  0  0  0  0  0  0  0  0  0
  -30.3703  -23.5071   21.0574 C   0  0  0  0  0  0  0  0  0  0  0  0
  -27.4928  -20.3630   20.1968 C   0  0  0  0  0  0  0  0  0  0  0  0
  -28.4969  -30.2568   24.9645 C   0  0  1  0  0  0  0  0  0  0  0  0
  -30.0202  -28.3263   26.5276 C   0  0  0  0  0  0  0  0  0  0  0  0
  -29.3667  -24.9066   22.9005 C   0  0  0  0  0  0  0  0  0  0  0  0
  -21.4207  -27.4119   22.9508 C   0  0  1  0  0  0  0  0  0  0  0  0
  -22.4288  -30.8311   21.6369 C   0  0  1  0  0  0  0  0  0  0  0  0
  -27.6542  -19.2135   19.1814 C   0  0  1  0  0  0  0  0  0  0  0  0
  -28.9222  -31.4299   24.1185 C   0  0  1  0  0  0  0  0  0  1  0  0
  -27.8459  -26.8774   21.3725 C   0  0  0  0  0  0  0  0  0  0  0  0
  -30.4485  -25.6603   25.4862 C   0  0  0  0  0  0  0  0  0  0  0  0
  -24.4668  -34.3216   15.0289 C   0  0  0  0  0  0  0  0  0  0  0  0
  -24.1917  -28.4531   18.0876 C   0  0  0  0  0  0  0  0  0  0  0  0
  -25.0007  -29.8321   16.1610 C   0  0  0  0  0  0  0  0  0  0  0  0
  -22.5529  -29.5429   16.5446 C   0  0  0  0  0  0  0  0  0  0  0  0
  -23.9089  -35.9915   18.4018 C   0  0  0  0  0  0  0  0  0  0  0  0
  -23.8867  -31.0168   18.1069 C   0  0  1  0  0  0  0  0  0  0  0  0
  -23.9478  -34.4278   16.4544 C   0  0  2  0  0  0  0  0  0  0  0  0
  -23.9144  -29.7185   17.2518 C   0  0  0  0  0  0  0  0  0  0  0  0
  -26.3955  -17.2274   19.9259 N   0  0  0  0  0  0  0  0  0  0  0  0
  -27.5820  -17.8542   19.8526 N   0  0  0  0  0  0  0  0  0  0  0  0
  -23.3423  -31.0808   20.5201 N   0  0  0  0  0  0  0  0  0  0  0  0
  -27.5249  -21.6641   19.5108 N   0  0  0  0  0  0  0  0  0  0  0  0
  -29.0867  -22.8230   20.9032 N   0  0  0  0  0  0  0  0  0  0  0  0
  -29.8698  -17.6406   20.4281 N   0  0  0  0  0  0  0  0  0  0  0  0
  -28.0422  -13.8153   21.9849 N   0  0  0  0  0  0  0  0  0  0  0  0
  -21.4651  -28.7893   22.5089 N   0  0  0  0  0  0  0  0  0  0  0  0
  -23.5993  -32.2277   17.3457 N   0  0  0  0  0  0  0  0  0  0  0  0
  -24.3712  -35.7434   17.0119 N   0  3  0  0  0  0  0  0  0  0  0  0
  -29.9928  -15.0071   21.8015 O   0  0  0  0  0  0  0  0  0  0  0  0
  -23.7217  -28.8790   21.9413 O   0  0  0  0  0  0  0  0  0  0  0  0
  -21.6676  -30.8138   18.9199 O   0  0  0  0  0  0  0  0  0  0  0  0
  -25.5487  -33.3504   17.9082 O   0  0  0  0  0  0  0  0  0  0  0  0
  -29.0577  -23.1377   18.6196 O   0  0  0  0  0  0  0  0  0  0  0  0
  -22.6813  -12.3430   21.6280 O   0  0  0  0  0  0  0  0  0  0  0  0
  -28.0723  -32.5865   24.1869 O   0  0  0  0  0  0  0  0  0  1  0  0
  -23.7825   -7.0397   20.5958 F   0  0  0  0  0  0  0  0  0  0  0  0
  -24.7681  -11.0536   22.9028 F   0  0  0  0  0  0  0  0  0  0  0  0
  1  2  1  0  0  0  0
  1  5  2  0  0  0  0
  2  6  2  0  0  0  0
  3  8  2  0  0  0  0
  3 16  1  0  0  0  0
  4  9  1  0  0  0  0
  4 16  2  0  0  0  0
  5 18  1  0  0  0  0
  6 20  1  0  0  0  0
  7 10  2  0  0  0  0
  7 19  1  0  0  0  0
  8 27  1  0  0  0  0
  9 27  2  0  0  0  0
 10 28  1  0  0  0  0
 11 12  2  0  0  0  0
 11 29  1  0  0  0  0
 12 30  1  0  0  0  0
 13 21  1  0  0  0  0
 13 25  2  0  0  0  0
 14 22  1  0  0  0  0
 14 28  2  0  0  0  0
 15 30  2  0  0  0  0
 15 31  1  0  0  0  0
 16 32  1  0  0  0  0
 17 32  1  0  0  0  0
 17 33  2  0  0  0  0
 17 34  1  0  0  0  0
 18 20  2  0  0  0  0
 18 39  1  0  0  0  0
 19 22  2  0  0  0  0
 19 40  1  0  0  0  0
 20 58  1  0  0  0  0
 21 23  2  0  0  0  0
 21 55  1  0  0  0  0
 22 41  1  0  0  0  0
 23 26  1  0  0  0  0
 23 56  1  0  0  0  0
 24 25  1  0  0  0  0
 24 26  2  0  0  0  0
 24 57  1  0  0  0  0
 25 62  1  0  0  0  0
 26 63  1  0  0  0  0
 27 87  1  0  0  0  0
 28 88  1  0  0  0  0
 29 31  2  0  0  0  0
 29 87  1  0  0  0  0
 30 89  1  0  0  0  0
 31 90  1  0  0  0  0
 32 72  2  0  0  0  0
 33 73  1  0  0  0  0
 33 77  1  0  0  0  0
 34 78  1  0  0  0  0
 34 82  2  0  0  0  0
 35 59  1  0  0  0  0
 35 79  1  0  0  0  0
 35 83  2  0  0  0  0
 36 69  1  0  0  0  0
 36 74  1  0  0  0  0
 36 84  2  0  0  0  0
 37 70  1  0  0  0  0
 37 80  1  0  0  0  0
 37 85  2  0  0  0  0
 38 75  1  0  0  0  0
 38 76  1  0  0  0  0
 38 86  2  0  0  0  0
 39 42  1  0  0  0  0
 40 59  1  0  0  0  0
 41 74  1  0  0  0  0
 42 46  1  0  0  0  0
 43 47  1  0  0  0  0
 43 51  1  0  0  0  0
 44 45  1  0  0  0  0
 44 56  1  0  0  0  0
 45 56  1  0  0  0  0
 46 58  1  0  0  0  0
 47 60  1  0  0  0  0
 48 52  1  0  0  0  0
 48 57  1  0  0  0  0
 49 53  1  0  0  0  0
 49 57  1  0  0  0  0
 50 55  1  0  0  0  0
 50 61  1  0  0  0  0
 51 75  1  0  0  0  0
 52 76  1  0  0  0  0
 53 76  1  0  0  0  0
 54 60  1  0  0  0  0
 54 75  1  0  0  0  0
 55 61  1  0  0  0  0
 58 79  1  0  0  0  0
 59 74  1  0  0  0  0
 60 73  1  0  0  0  0
 61 88  1  0  0  0  0
 64 70  1  0  0  0  0
 65 71  1  0  0  0  0
 66 71  1  0  0  0  0
 67 71  1  0  0  0  0
 68 81  1  0  0  0  0
 69 71  1  0  0  0  0
 69 80  1  0  0  0  0
 70 81  1  0  0  0  0
 72 73  1  0  0  0  0
M  CHG  1  81   1
M  ISO  4  38 100  61 101  76 100  88 101
M  END
> <Batch ID>
0166

> <Smiles>
CNC(C)C(=O)NC(C(=O)N1Cc2cc([101O:1][101CH:1]3CC3c3cc(C)c(C4CC[100N:0]([100C:0](=O)N5CCCC(n6nc(-c7ccc(Oc8ccc(F)cc8F)cc7)c(C(N)=O)c6N)C5)CC4)c(C)c3C3CC3)ccc2CC1C(=O)NC1CCCc2ccccc21)C(C)(C)C

> <Shape>
0.273

> <Color>
0.070

> <Negative vol penalty>
0.000

$$$$

  -OEChem-04052322243D

 84 94  0     1  0  0  0  0  0999 V2000
  -21.6459  -26.2582   29.7307 C   0  0  0  0  0  0  0  0  0  0  0  0
  -22.6802  -25.8236   28.9080 C   0  0  0  0  0  0  0  0  0  0  0  0
  -23.2264   -9.7550   19.9998 C   0  0  0  0  0  0  0  0  0  0  0  0
  -23.8646   -9.9615   22.3208 C   0  0  0  0  0  0  0  0  0  0  0  0
  -20.6835  -27.1362   29.2338 C   0  0  0  0  0  0  0  0  0  0  0  0
  -22.7520  -26.2659   27.5875 C   0  0  0  0  0  0  0  0  0  0  0  0
  -27.8291  -27.3974   24.3552 C   0  0  0  0  0  0  0  0  0  0  0  0
  -22.5379   -8.5780   20.2938 C   0  0  0  0  0  0  0  0  0  0  0  0
  -23.1761   -8.7845   22.6148 C   0  0  0  0  0  0  0  0  0  0  0  0
  -28.5302  -26.6433   23.4152 C   0  0  0  0  0  0  0  0  0  0  0  0
  -19.9721   -7.8340   23.1164 C   0  0  0  0  0  0  0  0  0  0  0  0
  -19.1590   -7.8265   24.2497 C   0  0  0  0  0  0  0  0  0  0  0  0
  -27.3634  -27.7840   21.6386 C   0  0  0  0  0  0  0  0  0  0  0  0
  -20.4696   -6.0217   25.1781 C   0  0  0  0  0  0  0  0  0  0  0  0
  -23.8898  -10.4467   21.0133 C   0  0  0  0  0  0  0  0  0  0  0  0
  -24.0919  -12.9743   20.7338 C   0  0  0  0  0  0  0  0  0  0  0  0
  -20.7491  -27.5971   27.9095 C   0  0  0  0  0  0  0  0  0  0  0  0
  -26.8804  -28.3445   23.9435 C   0  0  0  0  0  0  0  0  0  0  0  0
  -21.7889  -27.1499   27.0721 C   0  0  0  0  0  0  0  0  0  0  0  0
  -26.6535  -28.5507   22.5752 C   0  0  0  0  0  0  0  0  0  0  0  0
  -22.5128   -8.0928   21.6013 C   0  0  0  0  0  0  0  0  0  0  0  0
  -28.2953  -26.8345   22.0568 C   0  0  0  0  0  0  0  0  0  0  0  0
  -21.0340   -6.9353   23.0139 C   0  0  0  0  0  0  0  0  0  0  0  0
  -19.4077   -6.9204   25.2805 C   0  0  0  0  0  0  0  0  0  0  0  0
  -21.2827   -6.0292   24.0448 C   0  0  0  0  0  0  0  0  0  0  0  0
  -24.6016  -11.6622   20.7102 C   0  0  0  0  0  0  0  0  0  0  0  0
  -25.1566  -13.7628   20.3717 C   0  0  0  0  0  0  0  0  0  0  0  0
  -22.7739  -13.4387   21.0544 C   0  0  0  0  0  0  0  0  0  0  0  0
  -23.7499  -28.7094   24.3564 C   0  0  0  0  0  0  0  0  0  0  0  0
  -24.2743  -31.5329   22.8482 C   0  0  0  0  0  0  0  0  0  0  0  0
  -26.2255  -33.3705   20.7356 C   0  0  0  0  0  0  0  0  0  0  0  0
  -30.5488  -15.1323   20.7322 C   0  0  0  0  0  0  0  0  0  0  0  0
  -19.6592  -28.5085   27.4032 C   0  0  0  0  0  0  0  0  0  0  0  0
  -26.1519  -29.1688   24.9692 C   0  0  0  0  0  0  0  0  0  0  0  0
  -25.6601  -29.5692   22.0809 C   0  0  0  0  0  0  0  0  0  0  0  0
  -20.0183  -29.2239   26.1035 C   0  0  0  0  0  0  0  0  0  0  0  0
  -29.6843  -12.5199   18.4872 C   0  0  0  0  0  0  0  0  0  0  0  0
  -20.6181  -28.2422   25.1018 C   0  0  0  0  0  0  0  0  0  0  0  0
  -28.2446  -12.1698   18.8673 C   0  0  0  0  0  0  0  0  0  0  0  0
  -29.8408  -21.3108   19.8487 C   0  0  0  0  0  0  0  0  0  0  0  0
  -28.0986  -23.3210   19.8375 C   0  0  0  0  0  0  0  0  0  0  0  0
  -30.5210  -12.8764   19.7140 C   0  0  0  0  0  0  0  0  0  0  0  0
  -28.5106  -13.5812   20.9501 C   0  0  0  0  0  0  0  0  0  0  0  0
  -29.4425  -18.4077   22.3650 C   0  0  0  0  0  0  0  0  0  0  0  0
  -30.5482  -18.3501   20.6000 C   0  0  0  0  0  0  0  0  0  0  0  0
  -21.9149  -27.6267   25.6414 C   0  0  1  0  0  0  0  0  0  0  0  0
  -24.8369  -29.7425   24.4504 C   0  0  1  0  0  0  0  0  0  0  0  0
  -28.9484  -21.6676   21.7759 C   0  0  1  0  0  0  0  0  0  0  0  0
  -27.6115  -13.2695   19.7413 C   0  0  2  0  0  0  0  0  0  0  0  0
  -30.4349  -17.3840   21.7904 C   0  0  0  0  0  0  0  0  0  0  0  0
  -29.1638  -20.4131   20.8955 C   0  0  2  0  0  0  0  0  0  0  0  0
  -29.1059  -22.4314   20.4987 C   0  0  1  0  0  0  0  0  0  0  0  0
  -29.4104  -23.8999   20.3285 C   0  0  1  0  0  0  0  0  0  0  0  0
  -27.6142  -21.6992   22.4983 C   0  0  0  0  0  0  0  0  0  0  0  0
  -30.4240  -24.3095   19.2914 C   0  0  0  0  0  0  0  0  0  0  0  0
  -26.3784  -35.6344   19.6638 C   0  0  0  0  0  0  0  0  0  0  0  0
  -22.0761  -30.7483   20.8830 C   0  0  0  0  0  0  0  0  0  0  0  0
  -22.9136  -32.5339   19.3409 C   0  0  0  0  0  0  0  0  0  0  0  0
  -22.0333  -33.1458   21.5933 C   0  0  0  0  0  0  0  0  0  0  0  0
  -28.8181  -33.9427   22.0432 C   0  0  0  0  0  0  0  0  0  0  0  0
  -29.3821  -24.7869   21.5254 C   0  0  0  0  0  0  0  0  0  1  0  0
  -24.2759  -31.9928   21.4103 C   0  0  1  0  0  0  0  0  0  0  0  0
  -26.7880  -34.7759   20.8503 C   0  0  2  0  0  0  0  0  0  0  0  0
  -22.8421  -32.0846   20.8159 C   0  0  0  0  0  0  0  0  0  0  0  0
  -25.8899  -11.6157   20.3606 N   0  0  0  0  0  0  0  0  0  0  0  0
  -26.1986  -12.9084   20.1611 N   0  0  0  0  0  0  0  0  0  0  0  0
  -24.9683  -30.3460   23.1227 N   0  0  0  0  0  0  0  0  0  0  0  0
  -29.8659  -13.9290   20.4946 N   0  0  0  0  0  0  0  0  0  0  0  0
  -25.2938  -15.0967   20.2161 N   0  0  0  0  0  0  0  0  0  0  0  0
  -21.7997  -12.4943   21.4055 N   0  0  0  0  0  0  0  0  0  0  0  0
  -23.0102  -28.5640   25.5145 N   0  0  0  0  0  0  0  0  0  0  0  0
  -25.0149  -33.2504   21.3847 N   0  0  0  0  0  0  0  0  0  0  0  0
  -29.8601  -16.0874   21.4727 N   0  0  0  0  0  0  0  0  0  0  0  0
  -30.0778  -19.4298   21.4999 N   0  3  0  0  0  0  0  0  0  0  0  0
  -28.2765  -34.7348   20.9091 N   0  3  0  0  0  0  0  0  0  0  0  0
  -22.4648  -14.6538   21.0143 O   0  0  0  0  0  0  0  0  0  0  0  0
  -23.5929  -28.0910   23.3101 O   0  0  0  0  0  0  0  0  0  0  0  0
  -23.6853  -32.2060   23.6977 O   0  0  0  0  0  0  0  0  0  0  0  0
  -26.8006  -32.4705   20.1276 O   0  0  0  0  0  0  0  0  0  0  0  0
  -31.6897  -15.3505   20.3102 O   0  0  0  0  0  0  0  0  0  0  0  0
  -21.8409   -6.9445   21.8885 O   0  0  0  0  0  0  0  0  0  0  0  0
  -28.9778  -26.0993   21.1372 O   0  0  0  0  0  0  0  0  0  1  0  0
  -18.6277   -6.9143   26.3695 F   0  0  0  0  0  0  0  0  0  0  0  0
  -22.3021   -5.1642   23.9526 F   0  0  0  0  0  0  0  0  0  0  0  0
  1  2  1  0  0  0  0
  1  5  2  0  0  0  0
  2  6  2  0  0  0  0
  3  8  2  0  0  0  0
  3 15  1  0  0  0  0
  4  9  1  0  0  0  0
  4 15  2  0  0  0  0
  5 17  1  0  0  0  0
  6 19  1  0  0  0  0
  7 10  2  0  0  0  0
  7 18  1  0  0  0  0
  8 21  1  0  0  0  0
  9 21  2  0  0  0  0
 10 22  1  0  0  0  0
 11 12  2  0  0  0  0
 11 23  1  0  0  0  0
 12 24  1  0  0  0  0
 13 20  1  0  0  0  0
 13 22  2  0  0  0  0
 14 24  2  0  0  0  0
 14 25  1  0  0  0  0
 15 26  1  0  0  0  0
 16 26  1  0  0  0  0
 16 27  2  0  0  0  0
 16 28  1  0  0  0  0
 17 19  2  0  0  0  0
 17 33  1  0  0  0  0
 18 20  2  0  0  0  0
 18 34  1  0  0  0  0
 19 46  1  0  0  0  0
 20 35  1  0  0  0  0
 21 81  1  0  0  0  0
 22 82  1  0  0  0  0
 23 25  2  0  0  0  0
 23 81  1  0  0  0  0
 24 83  1  0  0  0  0
 25 84  1  0  0  0  0
 26 65  2  0  0  0  0
 27 66  1  0  0  0  0
 27 69  1  0  0  0  0
 28 70  1  0  0  0  0
 28 76  2  0  0  0  0
 29 47  1  0  0  0  0
 29 71  1  0  0  0  0
 29 77  2  0  0  0  0
 30 62  1  0  0  0  0
 30 67  1  0  0  0  0
 30 78  2  0  0  0  0
 31 63  1  0  0  0  0
 31 72  1  0  0  0  0
 31 79  2  0  0  0  0
 32 68  1  0  0  0  0
 32 73  1  0  0  0  0
 32 80  2  0  0  0  0
 33 36  1  0  0  0  0
 34 47  1  0  0  0  0
 35 67  1  0  0  0  0
 36 38  1  0  0  0  0
 37 39  1  0  0  0  0
 37 42  1  0  0  0  0
 38 46  1  0  0  0  0
 39 49  1  0  0  0  0
 40 51  1  0  0  0  0
 40 52  1  0  0  0  0
 41 52  1  0  0  0  0
 41 53  1  0  0  0  0
 42 68  1  0  0  0  0
 43 49  1  0  0  0  0
 43 68  1  0  0  0  0
 44 50  1  0  0  0  0
 44 74  1  0  0  0  0
 45 50  1  0  0  0  0
 45 74  1  0  0  0  0
 46 71  1  0  0  0  0
 47 67  1  0  0  0  0
 48 51  1  0  0  0  0
 48 52  1  0  0  0  0
 48 54  1  0  0  0  0
 49 66  1  0  0  0  0
 50 73  1  0  0  0  0
 51 74  1  0  0  0  0
 52 53  1  0  0  0  0
 53 55  1  0  0  0  0
 53 61  1  0  0  0  0
 56 63  1  0  0  0  0
 57 64  1  0  0  0  0
 58 64  1  0  0  0  0
 59 64  1  0  0  0  0
 60 75  1  0  0  0  0
 61 82  1  0  0  0  0
 62 64  1  0  0  0  0
 62 72  1  0  0  0  0
 63 75  1  0  0  0  0
 65 66  1  0  0  0  0
M  CHG  2  74   1  75   1
M  ISO  4  32 100  61 101  73 100  82 101
M  END
> <Batch ID>
0166

> <Smiles>
CNC(C)C(=O)NC(C(=O)N1Cc2cc([101O:1][101CH2:1]C3(C)CC34CC(N3CC([100NH:0][100C:0](=O)N5CCCC(n6nc(-c7ccc(Oc8ccc(F)cc8F)cc7)c(C(N)=O)c6N)C5)C3)C4C)ccc2CC1C(=O)NC1CCCc2ccccc21)C(C)(C)C

> <Shape>
0.299

> <Color>
0.218

> <Negative vol penalty>
0.000

$$$$

  -OEChem-04052322243D

 88 98  0     1  0  0  0  0  0999 V2000
  -16.8158  -29.7447   24.1509 C   0  0  0  0  0  0  0  0  0  0  0  0
  -17.7107  -28.6916   24.3106 C   0  0  0  0  0  0  0  0  0  0  0  0
  -23.3987   -9.4607   19.9535 C   0  0  0  0  0  0  0  0  0  0  0  0
  -24.4648   -9.1982   22.1057 C   0  0  0  0  0  0  0  0  0  0  0  0
  -17.0448  -30.7102   23.1715 C   0  0  0  0  0  0  0  0  0  0  0  0
  -18.8348  -28.6028   23.4902 C   0  0  0  0  0  0  0  0  0  0  0  0
  -24.3720  -26.5001   25.0470 C   0  0  0  0  0  0  0  0  0  0  0  0
  -23.0434   -8.1119   19.9650 C   0  0  0  0  0  0  0  0  0  0  0  0
  -24.1094   -7.8494   22.1172 C   0  0  0  0  0  0  0  0  0  0  0  0
  -24.9922  -25.2651   24.8628 C   0  0  0  0  0  0  0  0  0  0  0  0
  -21.3496   -6.0078   22.7593 C   0  0  0  0  0  0  0  0  0  0  0  0
  -20.8176   -5.4893   23.9399 C   0  0  0  0  0  0  0  0  0  0  0  0
  -26.0715  -26.1101   22.8777 C   0  0  0  0  0  0  0  0  0  0  0  0
  -29.9092  -19.1172   19.4011 C   0  0  0  0  0  0  0  0  0  0  0  0
  -22.6358   -3.9031   24.0625 C   0  0  0  0  0  0  0  0  0  0  0  0
  -24.1095  -10.0038   21.0238 C   0  0  0  0  0  0  0  0  0  0  0  0
  -23.7289  -12.4779   21.5152 C   0  0  0  0  0  0  0  0  0  0  0  0
  -18.1773  -30.6385   22.3450 C   0  0  0  0  0  0  0  0  0  0  0  0
  -24.5887  -27.5477   24.1404 C   0  0  0  0  0  0  0  0  0  0  0  0
  -19.0785  -29.5675   22.4979 C   0  0  0  0  0  0  0  0  0  0  0  0
  -25.4549  -27.3582   23.0541 C   0  0  0  0  0  0  0  0  0  0  0  0
  -29.0147  -21.3585   19.5149 C   0  0  0  0  0  0  0  0  0  0  0  0
  -29.3742  -21.4337   20.8606 C   0  0  0  0  0  0  0  0  0  0  0  0
  -29.2822  -20.2003   18.7852 C   0  0  0  0  0  0  0  0  0  0  0  0
  -30.2687  -19.1923   20.7468 C   0  0  0  0  0  0  0  0  0  0  0  0
  -30.0012  -20.3505   21.4765 C   0  0  0  0  0  0  0  0  0  0  0  0
  -23.3987   -7.3062   21.0468 C   0  0  0  0  0  0  0  0  0  0  0  0
  -25.8399  -25.0691   23.7764 C   0  0  0  0  0  0  0  0  0  0  0  0
  -22.5246   -5.4738   22.2302 C   0  0  0  0  0  0  0  0  0  0  0  0
  -21.4608   -4.4370   24.5915 C   0  0  0  0  0  0  0  0  0  0  0  0
  -23.1678   -4.4215   22.8819 C   0  0  0  0  0  0  0  0  0  0  0  0
  -24.4773  -11.3969   21.0123 C   0  0  0  0  0  0  0  0  0  0  0  0
  -24.5080  -13.5810   21.2647 C   0  0  0  0  0  0  0  0  0  0  0  0
  -22.4442  -12.4845   22.1518 C   0  0  0  0  0  0  0  0  0  0  0  0
  -22.7435  -29.2289   22.1724 C   0  0  0  0  0  0  0  0  0  0  0  0
  -25.4606  -30.9405   21.7141 C   0  0  0  0  0  0  0  0  0  0  0  0
  -28.8703  -31.0448   21.8126 C   0  0  0  0  0  0  0  0  0  0  0  0
  -29.3633  -16.1024   21.3881 C   0  0  0  0  0  0  0  0  0  0  0  0
  -18.3577  -31.6796   21.2688 C   0  0  0  0  0  0  0  0  0  0  0  0
  -23.9331  -28.8822   24.3680 C   0  0  0  0  0  0  0  0  0  0  0  0
  -25.7366  -28.4571   22.0634 C   0  0  0  0  0  0  0  0  0  0  0  0
  -19.7696  -31.7188   20.6898 C   0  0  0  0  0  0  0  0  0  0  0  0
  -28.6821  -14.0967   18.4537 C   0  0  0  0  0  0  0  0  0  0  0  0
  -28.9529  -23.1033   17.6108 C   0  0  0  0  0  0  0  0  0  0  0  0
  -29.0089  -23.8677   18.8965 C   0  0  0  0  0  0  0  0  0  0  0  0
  -20.2566  -30.3081   20.3744 C   0  0  0  0  0  0  0  0  0  0  0  0
  -27.4566  -13.3012   18.9068 C   0  0  0  0  0  0  0  0  0  0  0  0
  -27.7337  -23.5041   21.4441 C   0  0  0  0  0  0  0  0  0  0  0  0
  -28.6017  -22.6153   23.1684 C   0  0  0  0  0  0  0  0  0  0  0  0
  -29.6722  -14.2868   19.5990 C   0  0  0  0  0  0  0  0  0  0  0  0
  -27.8676  -14.1297   21.2700 C   0  0  0  0  0  0  0  0  0  0  0  0
  -28.3420  -22.5199   18.8554 C   0  0  0  0  0  0  0  0  0  0  0  0
  -29.0707  -22.7481   21.6910 C   0  0  0  0  0  0  0  0  0  0  0  0
  -20.3223  -29.4504   21.6439 C   0  0  1  0  0  0  0  0  0  0  0  0
  -23.8224  -29.7182   23.0967 C   0  0  1  0  0  0  0  0  0  0  0  0
  -26.8180  -13.9230   20.1629 C   0  0  2  0  0  0  0  0  0  0  0  0
  -27.7282  -23.8691   22.9450 C   0  0  0  0  0  0  0  0  0  1  0  0
  -28.9078  -20.0922   17.3430 C   0  0  0  0  0  0  0  0  0  0  0  0
  -30.3860  -20.4317   22.9195 C   0  0  0  0  0  0  0  0  0  0  0  0
  -32.4694  -18.0808   21.2788 C   0  0  0  0  0  0  0  0  0  0  0  0
  -30.8089  -32.5681   21.3446 C   0  0  0  0  0  0  0  0  0  0  0  0
  -25.0980  -30.4780   18.7200 C   0  0  0  0  0  0  0  0  0  0  0  0
  -27.4834  -31.1657   18.3957 C   0  0  0  0  0  0  0  0  0  0  0  0
  -25.8371  -32.7861   19.3371 C   0  0  0  0  0  0  0  0  0  0  0  0
  -29.7736  -30.9511   24.6294 C   0  0  0  0  0  0  0  0  0  0  0  0
  -30.9394  -18.0189   21.3825 C   0  0  2  0  0  0  0  0  0  0  0  0
  -26.6303  -30.8552   20.7635 C   0  0  1  0  0  0  0  0  0  0  0  0
  -29.8304  -32.0663   22.3951 C   0  0  2  0  0  0  0  0  0  0  0  0
  -26.2556  -31.2998   19.3215 C   0  0  0  0  0  0  0  0  0  0  0  0
  -25.6424  -11.7786   20.4823 N   0  0  0  0  0  0  0  0  0  0  0  0
  -25.6318  -13.1119   20.6507 N   0  0  0  0  0  0  0  0  0  0  0  0
  -25.0670  -29.7417   22.3256 N   0  0  0  0  0  0  0  0  0  0  0  0
  -29.0056  -14.8996   20.7567 N   0  0  0  0  0  0  0  0  0  0  0  0
  -24.3345  -14.8967   21.5120 N   0  0  0  0  0  0  0  0  0  0  0  0
  -21.7809  -11.2628   22.3305 N   0  0  0  0  0  0  0  0  0  0  0  0
  -21.5004  -29.7807   22.4167 N   0  0  0  0  0  0  0  0  0  0  0  0
  -27.7055  -31.6340   21.3685 N   0  0  0  0  0  0  0  0  0  0  0  0
  -30.4563  -16.7665   20.8449 N   0  0  0  0  0  0  0  0  0  0  0  0
  -30.6097  -31.4653   23.5143 N   0  3  0  0  0  0  0  0  0  0  0  0
  -21.8933  -13.5441   22.5356 O   0  0  0  0  0  0  0  0  0  0  0  0
  -23.0188  -28.4123   21.3012 O   0  0  0  0  0  0  0  0  0  0  0  0
  -24.9208  -32.0317   21.9124 O   0  0  0  0  0  0  0  0  0  0  0  0
  -29.1294  -29.8448   21.7539 O   0  0  0  0  0  0  0  0  0  0  0  0
  -28.7504  -16.5543   22.3613 O   0  0  0  0  0  0  0  0  0  0  0  0
  -23.0519   -5.9901   21.0584 O   0  0  0  0  0  0  0  0  0  0  0  0
  -26.4460  -23.8644   23.5939 O   0  0  0  0  0  0  0  0  0  1  0  0
  -20.9507   -3.9403   25.7261 F   0  0  0  0  0  0  0  0  0  0  0  0
  -24.2976   -3.9052   22.3791 F   0  0  0  0  0  0  0  0  0  0  0  0
  1  2  1  0  0  0  0
  1  5  2  0  0  0  0
  2  6  2  0  0  0  0
  3  8  2  0  0  0  0
  3 16  1  0  0  0  0
  4  9  1  0  0  0  0
  4 16  2  0  0  0  0
  5 18  1  0  0  0  0
  6 20  1  0  0  0  0
  7 10  2  0  0  0  0
  7 19  1  0  0  0  0
  8 27  1  0  0  0  0
  9 27  2  0  0  0  0
 10 28  1  0  0  0  0
 11 12  2  0  0  0  0
 11 29  1  0  0  0  0
 12 30  1  0  0  0  0
 13 21  1  0  0  0  0
 13 28  2  0  0  0  0
 14 24  2  0  0  0  0
 14 25  1  0  0  0  0
 15 30  2  0  0  0  0
 15 31  1  0  0  0  0
 16 32  1  0  0  0  0
 17 32  1  0  0  0  0
 17 33  2  0  0  0  0
 17 34  1  0  0  0  0
 18 20  2  0  0  0  0
 18 39  1  0  0  0  0
 19 21  2  0  0  0  0
 19 40  1  0  0  0  0
 20 54  1  0  0  0  0
 21 41  1  0  0  0  0
 22 23  2  0  0  0  0
 22 24  1  0  0  0  0
 22 52  1  0  0  0  0
 23 26  1  0  0  0  0
 23 53  1  0  0  0  0
 24 58  1  0  0  0  0
 25 26  2  0  0  0  0
 25 66  1  0  0  0  0
 26 59  1  0  0  0  0
 27 85  1  0  0  0  0
 28 86  1  0  0  0  0
 29 31  2  0  0  0  0
 29 85  1  0  0  0  0
 30 87  1  0  0  0  0
 31 88  1  0  0  0  0
 32 70  2  0  0  0  0
 33 71  1  0  0  0  0
 33 74  1  0  0  0  0
 34 75  1  0  0  0  0
 34 80  2  0  0  0  0
 35 55  1  0  0  0  0
 35 76  1  0  0  0  0
 35 81  2  0  0  0  0
 36 67  1  0  0  0  0
 36 72  1  0  0  0  0
 36 82  2  0  0  0  0
 37 68  1  0  0  0  0
 37 77  1  0  0  0  0
 37 83  2  0  0  0  0
 38 73  1  0  0  0  0
 38 78  1  0  0  0  0
 38 84  2  0  0  0  0
 39 42  1  0  0  0  0
 40 55  1  0  0  0  0
 41 72  1  0  0  0  0
 42 46  1  0  0  0  0
 43 47  1  0  0  0  0
 43 50  1  0  0  0  0
 44 45  1  0  0  0  0
 44 52  1  0  0  0  0
 45 52  1  0  0  0  0
 46 54  1  0  0  0  0
 47 56  1  0  0  0  0
 48 53  1  0  0  0  0
 48 57  1  0  0  0  0
 49 53  1  0  0  0  0
 49 57  1  0  0  0  0
 50 73  1  0  0  0  0
 51 56  1  0  0  0  0
 51 73  1  0  0  0  0
 54 76  1  0  0  0  0
 55 72  1  0  0  0  0
 56 71  1  0  0  0  0
 57 86  1  0  0  0  0
 60 66  1  0  0  0  0
 61 68  1  0  0  0  0
 62 69  1  0  0  0  0
 63 69  1  0  0  0  0
 64 69  1  0  0  0  0
 65 79  1  0  0  0  0
 66 78  1  0  0  0  0
 67 69  1  0  0  0  0
 67 77  1  0  0  0  0
 68 79  1  0  0  0  0
 70 71  1  0  0  0  0
M  CHG  1  79   1
M  ISO  4  38 100  57 101  78 100  86 101
M  END
> <Batch ID>
0166

> <Smiles>
CNC(C)C(=O)NC(C(=O)N1Cc2cc([101O:1][101CH:1]3CC(c4c(C)c(C(C)[100NH:0][100C:0](=O)N5CCCC(n6nc(-c7ccc(Oc8ccc(F)cc8F)cc7)c(C(N)=O)c6N)C5)cc(C)c4C4CC4)C3)ccc2CC1C(=O)NC1CCCc2ccccc21)C(C)(C)C

> <Shape>
0.300

> <Color>
0.101

> <Negative vol penalty>
0.000

$$$$

  -OEChem-04052322243D

 87 96  0     1  0  0  0  0  0999 V2000
  -27.6905  -34.2807   21.6249 C   0  0  0  0  0  0  0  0  0  0  0  0
  -27.8457  -32.8987   21.5894 C   0  0  0  0  0  0  0  0  0  0  0  0
  -22.9377  -10.1702   20.2485 C   0  0  0  0  0  0  0  0  0  0  0  0
  -24.2350   -9.3038   22.0932 C   0  0  0  0  0  0  0  0  0  0  0  0
  -26.5451  -34.8381   22.1919 C   0  0  0  0  0  0  0  0  0  0  0  0
  -26.8560  -32.0732   22.1219 C   0  0  0  0  0  0  0  0  0  0  0  0
  -25.7663  -28.1531   19.1069 C   0  0  0  0  0  0  0  0  0  0  0  0
  -22.1625   -9.0106   20.2489 C   0  0  0  0  0  0  0  0  0  0  0  0
  -23.4598   -8.1442   22.0938 C   0  0  0  0  0  0  0  0  0  0  0  0
  -26.6551  -27.0791   19.1126 C   0  0  0  0  0  0  0  0  0  0  0  0
  -20.4144   -7.1864   23.2020 C   0  0  0  0  0  0  0  0  0  0  0  0
  -19.9689   -6.7070   24.4338 C   0  0  0  0  0  0  0  0  0  0  0  0
  -29.8500  -19.2506   22.2207 C   0  0  0  0  0  0  0  0  0  0  0  0
  -25.1803  -25.8743   20.5933 C   0  0  0  0  0  0  0  0  0  0  0  0
  -32.0846  -17.9519   21.1707 C   0  0  0  0  0  0  0  0  0  0  0  0
  -21.1451   -4.6316   24.0514 C   0  0  0  0  0  0  0  0  0  0  0  0
  -23.9740  -10.3168   21.1706 C   0  0  0  0  0  0  0  0  0  0  0  0
  -24.5363  -12.6975   21.8944 C   0  0  0  0  0  0  0  0  0  0  0  0
  -25.5365  -34.0188   22.7229 C   0  0  0  0  0  0  0  0  0  0  0  0
  -24.5809  -28.1001   19.8542 C   0  0  0  0  0  0  0  0  0  0  0  0
  -25.6967  -32.6202   22.6978 C   0  0  0  0  0  0  0  0  0  0  0  0
  -30.6692  -19.9055   21.3011 C   0  0  0  0  0  0  0  0  0  0  0  0
  -24.2768  -26.9480   20.5933 C   0  0  0  0  0  0  0  0  0  0  0  0
  -30.1482  -17.9463   22.6154 C   0  0  0  0  0  0  0  0  0  0  0  0
  -31.7865  -19.2561   20.7761 C   0  0  0  0  0  0  0  0  0  0  0  0
  -31.2654  -17.2970   22.0903 C   0  0  0  0  0  0  0  0  0  0  0  0
  -22.4235   -7.9976   21.1716 C   0  0  0  0  0  0  0  0  0  0  0  0
  -26.3636  -25.9406   19.8582 C   0  0  0  0  0  0  0  0  0  0  0  0
  -21.2251   -6.3884   22.3949 C   0  0  0  0  0  0  0  0  0  0  0  0
  -20.3343   -5.4296   24.8586 C   0  0  0  0  0  0  0  0  0  0  0  0
  -21.5905   -5.1110   22.8196 C   0  0  0  0  0  0  0  0  0  0  0  0
  -24.7755  -11.5142   21.1702 C   0  0  0  0  0  0  0  0  0  0  0  0
  -25.5773  -13.5257   21.5524 C   0  0  0  0  0  0  0  0  0  0  0  0
  -23.4687  -13.0192   22.7957 C   0  0  0  0  0  0  0  0  0  0  0  0
  -23.3759  -29.7768   22.2709 C   0  0  0  0  0  0  0  0  0  0  0  0
  -20.7622  -27.9312   21.7375 C   0  0  0  0  0  0  0  0  0  0  0  0
  -19.4717  -25.0244   20.4997 C   0  0  0  0  0  0  0  0  0  0  0  0
  -31.0140  -14.3815   20.6277 C   0  0  0  0  0  0  0  0  0  0  0  0
  -24.3380  -34.6685   23.3680 C   0  0  0  0  0  0  0  0  0  0  0  0
  -23.6198  -29.2564   19.8162 C   0  0  0  0  0  0  0  0  0  0  0  0
  -23.0079  -26.8329   21.3964 C   0  0  0  0  0  0  0  0  0  0  0  0
  -23.1645  -33.7139   23.5732 C   0  0  0  0  0  0  0  0  0  0  0  0
  -29.0826  -13.0849   17.9323 C   0  0  0  0  0  0  0  0  0  0  0  0
  -23.6457  -32.3986   24.1776 C   0  0  0  0  0  0  0  0  0  0  0  0
  -27.7734  -12.6529   18.5951 C   0  0  0  0  0  0  0  0  0  0  0  0
  -30.2848  -12.8307   18.8389 C   0  0  0  0  0  0  0  0  0  0  0  0
  -28.8694  -12.9859   20.8504 C   0  0  0  0  0  0  0  0  0  0  0  0
  -28.9503  -21.9243   21.3025 C   0  0  0  0  0  0  0  0  0  0  0  0
  -29.8087  -21.5837   19.4374 C   0  0  0  0  0  0  0  0  0  0  0  0
  -30.3227  -21.3386   20.8800 C   0  0  0  0  0  0  0  0  0  0  0  0
  -24.6340  -31.6908   23.2428 C   0  0  1  0  0  0  0  0  0  0  0  0
  -22.6881  -29.2989   21.0235 C   0  0  1  0  0  0  0  0  0  0  0  0
  -27.6227  -13.2743   19.9967 C   0  0  2  0  0  0  0  0  0  0  0  0
  -29.2572  -17.2658   23.6020 C   0  0  0  0  0  0  0  0  0  0  0  0
  -32.6752  -19.9395   19.7897 C   0  0  0  0  0  0  0  0  0  0  0  0
  -17.3062  -23.7827   20.2422 C   0  0  0  0  0  0  0  0  0  0  0  0
  -27.6972  -22.7614   17.8906 C   0  0  0  0  0  0  0  0  0  0  0  0
  -20.8446  -27.1793   24.6935 C   0  0  0  0  0  0  0  0  0  0  0  0
  -19.3133  -25.2668   24.1780 C   0  0  0  0  0  0  0  0  0  0  0  0
  -18.5527  -27.6107   23.7903 C   0  0  0  0  0  0  0  0  0  0  0  0
  -19.6820  -25.0364   17.5477 C   0  0  0  0  0  0  0  0  0  0  0  0
  -31.6053  -15.9012   22.4985 C   0  0  0  0  0  0  0  0  0  0  0  0
  -26.6721  -23.5900   20.0464 C   0  0  0  0  0  0  0  0  0  1  0  0
  -20.2757  -26.5948   22.2438 C   0  0  1  0  0  0  0  0  0  0  0  0
  -18.2816  -24.7547   19.5967 C   0  0  2  0  0  0  0  0  0  0  0  0
  -27.5541  -22.5358   19.3870 C   0  0  2  0  0  0  0  0  0  0  0  0
  -19.7715  -26.6655   23.7129 C   0  0  0  0  0  0  0  0  0  0  0  0
  -25.8815  -11.5808   20.4243 N   0  0  0  0  0  0  0  0  0  0  0  0
  -26.3465  -12.8159   20.6779 N   0  0  0  0  0  0  0  0  0  0  0  0
  -22.1030  -27.9925   21.3322 N   0  0  0  0  0  0  0  0  0  0  0  0
  -30.0792  -13.4473   20.1517 N   0  0  0  0  0  0  0  0  0  0  0  0
  -25.9004  -14.7846   21.9173 N   0  0  0  0  0  0  0  0  0  0  0  0
  -22.4821  -12.0529   23.0348 N   0  0  0  0  0  0  0  0  0  0  0  0
  -23.9279  -31.0388   22.1608 N   0  0  0  0  0  0  0  0  0  0  0  0
  -19.2720  -26.1373   21.2890 N   0  0  0  0  0  0  0  0  0  0  0  0
  -30.7404  -14.9227   21.8779 N   0  0  0  0  0  0  0  0  0  0  0  0
  -28.9124  -22.6044   19.9997 N   0  3  0  0  0  0  0  0  0  0  0  0
  -18.7355  -24.1743   18.3013 N   0  3  0  0  0  0  0  0  0  0  0  0
  -23.3830  -14.1365   23.3594 O   0  0  0  0  0  0  0  0  0  0  0  0
  -23.4027  -29.0546   23.2606 O   0  0  0  0  0  0  0  0  0  0  0  0
  -19.9794  -28.8836   21.6962 O   0  0  0  0  0  0  0  0  0  0  0  0
  -20.4763  -24.3164   20.5071 O   0  0  0  0  0  0  0  0  0  0  0  0
  -32.0153  -14.7128   19.9838 O   0  0  0  0  0  0  0  0  0  0  0  0
  -21.6672   -6.8660   21.1725 O   0  0  0  0  0  0  0  0  0  0  0  0
  -27.2298  -24.8910   19.8661 O   0  0  0  0  0  0  0  0  0  1  0  0
  -19.9077   -4.9700   26.0422 F   0  0  0  0  0  0  0  0  0  0  0  0
  -22.3702   -4.3401   22.0490 F   0  0  0  0  0  0  0  0  0  0  0  0
  1  2  1  0  0  0  0
  1  5  2  0  0  0  0
  2  6  2  0  0  0  0
  3  8  2  0  0  0  0
  3 17  1  0  0  0  0
  4  9  1  0  0  0  0
  4 17  2  0  0  0  0
  5 19  1  0  0  0  0
  6 21  1  0  0  0  0
  7 10  2  0  0  0  0
  7 20  1  0  0  0  0
  8 27  1  0  0  0  0
  9 27  2  0  0  0  0
 10 28  1  0  0  0  0
 11 12  2  0  0  0  0
 11 29  1  0  0  0  0
 12 30  1  0  0  0  0
 13 22  1  0  0  0  0
 13 24  2  0  0  0  0
 14 23  1  0  0  0  0
 14 28  2  0  0  0  0
 15 25  1  0  0  0  0
 15 26  2  0  0  0  0
 16 30  2  0  0  0  0
 16 31  1  0  0  0  0
 17 32  1  0  0  0  0
 18 32  1  0  0  0  0
 18 33  2  0  0  0  0
 18 34  1  0  0  0  0
 19 21  2  0  0  0  0
 19 39  1  0  0  0  0
 20 23  2  0  0  0  0
 20 40  1  0  0  0  0
 21 51  1  0  0  0  0
 22 25  2  0  0  0  0
 22 50  1  0  0  0  0
 23 41  1  0  0  0  0
 24 26  1  0  0  0  0
 24 54  1  0  0  0  0
 25 55  1  0  0  0  0
 26 62  1  0  0  0  0
 27 84  1  0  0  0  0
 28 85  1  0  0  0  0
 29 31  2  0  0  0  0
 29 84  1  0  0  0  0
 30 86  1  0  0  0  0
 31 87  1  0  0  0  0
 32 68  2  0  0  0  0
 33 69  1  0  0  0  0
 33 72  1  0  0  0  0
 34 73  1  0  0  0  0
 34 79  2  0  0  0  0
 35 52  1  0  0  0  0
 35 74  1  0  0  0  0
 35 80  2  0  0  0  0
 36 64  1  0  0  0  0
 36 70  1  0  0  0  0
 36 81  2  0  0  0  0
 37 65  1  0  0  0  0
 37 75  1  0  0  0  0
 37 82  2  0  0  0  0
 38 71  1  0  0  0  0
 38 76  1  0  0  0  0
 38 83  2  0  0  0  0
 39 42  1  0  0  0  0
 40 52  1  0  0  0  0
 41 70  1  0  0  0  0
 42 44  1  0  0  0  0
 43 45  1  0  0  0  0
 43 46  1  0  0  0  0
 44 51  1  0  0  0  0
 45 53  1  0  0  0  0
 46 71  1  0  0  0  0
 47 53  1  0  0  0  0
 47 71  1  0  0  0  0
 48 50  1  0  0  0  0
 48 77  1  0  0  0  0
 49 50  1  0  0  0  0
 49 77  1  0  0  0  0
 51 74  1  0  0  0  0
 52 70  1  0  0  0  0
 53 69  1  0  0  0  0
 56 65  1  0  0  0  0
 57 66  1  0  0  0  0
 58 67  1  0  0  0  0
 59 67  1  0  0  0  0
 60 67  1  0  0  0  0
 61 78  1  0  0  0  0
 62 76  1  0  0  0  0
 63 66  1  0  0  0  0
 63 85  1  0  0  0  0
 64 67  1  0  0  0  0
 64 75  1  0  0  0  0
 65 78  1  0  0  0  0
 66 77  1  0  0  0  0
 68 69  1  0  0  0  0
M  CHG  2  77   1  78   1
M  ISO  4  38 100  63 101  76 100  85 101
M  END
> <Batch ID>
0166

> <Smiles>
CNC(C)C(=O)NC(C(=O)N1Cc2cc([101O:1][101CH2:1]C(C)N3CC(c4cc(C)c(C[100NH:0][100C:0](=O)N5CCCC(n6nc(-c7ccc(Oc8ccc(F)cc8F)cc7)c(C(N)=O)c6N)C5)cc4C)C3)ccc2CC1C(=O)NC1CCCc2ccccc21)C(C)(C)C

> <Shape>
0.365

> <Color>
0.143

> <Negative vol penalty>
0.000

$$$$

  -OEChem-04052322243D

100111  0     1  0  0  0  0  0999 V2000
  -17.2595  -31.0670   23.3761 C   0  0  0  0  0  0  0  0  0  0  0  0
  -18.5848  -31.4446   23.1854 C   0  0  0  0  0  0  0  0  0  0  0  0
  -24.1986  -13.1927   20.3667 C   0  0  0  0  0  0  0  0  0  0  0  0
  -26.4450  -13.1304   21.2538 C   0  0  0  0  0  0  0  0  0  0  0  0
  -16.9182  -29.7155   23.4052 C   0  0  0  0  0  0  0  0  0  0  0  0
  -19.5698  -30.4708   23.0247 C   0  0  0  0  0  0  0  0  0  0  0  0
  -25.7630  -29.3033   19.6192 C   0  0  0  0  0  0  0  0  0  0  0  0
  -24.2531  -11.8188   20.1321 C   0  0  0  0  0  0  0  0  0  0  0  0
  -26.4995  -11.7564   21.0193 C   0  0  0  0  0  0  0  0  0  0  0  0
  -27.0723  -28.8974   19.8738 C   0  0  0  0  0  0  0  0  0  0  0  0
  -23.6674   -8.2659   19.6332 C   0  0  0  0  0  0  0  0  0  0  0  0
  -22.5606   -7.5008   20.0009 C   0  0  0  0  0  0  0  0  0  0  0  0
  -26.3541  -26.5945   19.8626 C   0  0  0  0  0  0  0  0  0  0  0  0
  -28.0580  -21.9585   24.4346 C   0  0  0  0  0  0  0  0  0  0  0  0
  -26.8450  -23.9127   23.6953 C   0  0  0  0  0  0  0  0  0  0  0  0
  -22.8366   -8.2044   22.2956 C   0  0  0  0  0  0  0  0  0  0  0  0
  -25.2945  -13.8485   20.9276 C   0  0  0  0  0  0  0  0  0  0  0  0
  -24.7954  -15.9140   22.3389 C   0  0  0  0  0  0  0  0  0  0  0  0
  -17.8981  -28.7248   23.2351 C   0  0  0  0  0  0  0  0  0  0  0  0
  -24.7358  -28.3568   19.4950 C   0  0  0  0  0  0  0  0  0  0  0  0
  -19.2416  -29.1047   23.0529 C   0  0  0  0  0  0  0  0  0  0  0  0
  -25.0331  -26.9909   19.6039 C   0  0  0  0  0  0  0  0  0  0  0  0
  -26.5266  -23.0698   25.9370 C   0  0  0  0  0  0  0  0  0  0  0  0
  -32.6406  -24.8596   22.5931 C   0  0  0  0  0  0  0  0  0  0  0  0
  -27.7598  -22.8909   23.4409 C   0  0  0  0  0  0  0  0  0  0  0  0
  -27.4414  -22.0479   25.6826 C   0  0  0  0  0  0  0  0  0  0  0  0
  -26.2284  -24.0022   24.9433 C   0  0  0  0  0  0  0  0  0  0  0  0
  -31.7953  -24.1071   24.7198 C   0  0  0  0  0  0  0  0  0  0  0  0
  -31.5932  -24.3718   23.3686 C   0  0  0  0  0  0  0  0  0  0  0  0
  -25.4035  -11.1007   20.4584 C   0  0  0  0  0  0  0  0  0  0  0  0
  -27.3675  -27.5430   19.9984 C   0  0  0  0  0  0  0  0  0  0  0  0
  -24.3589   -9.0002   20.5967 C   0  0  0  0  0  0  0  0  0  0  0  0
  -22.1452   -7.4701   21.3321 C   0  0  0  0  0  0  0  0  0  0  0  0
  -23.9434   -8.9695   21.9279 C   0  0  0  0  0  0  0  0  0  0  0  0
  -25.2391  -15.2678   21.1696 C   0  0  0  0  0  0  0  0  0  0  0  0
  -33.8737  -25.0720   23.1931 C   0  0  0  0  0  0  0  0  0  0  0  0
  -33.0499  -24.3384   25.2658 C   0  0  0  0  0  0  0  0  0  0  0  0
  -24.9406  -17.2526   22.0676 C   0  0  0  0  0  0  0  0  0  0  0  0
  -24.2968  -15.3544   23.5612 C   0  0  0  0  0  0  0  0  0  0  0  0
  -22.0523  -27.7376   21.0822 C   0  0  0  0  0  0  0  0  0  0  0  0
  -21.5910  -25.5966   18.6894 C   0  0  0  0  0  0  0  0  0  0  0  0
  -22.9575  -23.6309   16.2572 C   0  0  0  0  0  0  0  0  0  0  0  0
  -27.9157  -21.5096   20.0250 C   0  0  0  0  0  0  0  0  0  0  0  0
  -17.4882  -27.2759   23.3213 C   0  0  0  0  0  0  0  0  0  0  0  0
  -23.3334  -28.8095   19.1939 C   0  0  0  0  0  0  0  0  0  0  0  0
  -23.9700  -25.9339   19.4588 C   0  0  0  0  0  0  0  0  0  0  0  0
  -18.5357  -26.3126   22.7688 C   0  0  0  0  0  0  0  0  0  0  0  0
  -25.9440  -19.6413   17.7232 C   0  0  0  0  0  0  0  0  0  0  0  0
  -25.9734  -24.4509   28.0489 C   0  0  0  0  0  0  0  0  0  0  0  0
  -26.7239  -23.2401   28.5080 C   0  0  0  0  0  0  0  0  0  0  0  0
  -19.9214  -26.6708   23.2965 C   0  0  0  0  0  0  0  0  0  0  0  0
  -25.5538  -18.3881   18.5088 C   0  0  0  0  0  0  0  0  0  0  0  0
  -32.7985  -26.5234   20.6204 C   0  0  0  0  0  0  0  0  0  0  0  0
  -27.3593  -20.1028   18.0634 C   0  0  0  0  0  0  0  0  0  0  0  0
  -27.2264  -19.0494   20.2875 C   0  0  0  0  0  0  0  0  0  0  0  0
  -25.8655  -23.1657   27.2751 C   0  0  0  0  0  0  0  0  0  0  0  0
  -32.4525  -25.1490   21.1511 C   0  0  2  0  0  0  0  0  0  0  0  0
  -20.3349  -28.0783   22.8500 C   0  0  1  0  0  0  0  0  0  0  0  0
  -22.2758  -27.7867   19.5972 C   0  0  1  0  0  0  0  0  0  0  0  0
  -31.3610  -26.1092   20.7264 C   0  0  2  0  0  0  0  0  0  0  0  0
  -25.7867  -18.5783   20.0197 C   0  0  2  0  0  0  0  0  0  0  0  0
  -27.7795  -21.0359   26.7282 C   0  0  0  0  0  0  0  0  0  0  0  0
  -25.2527  -25.1067   25.1882 C   0  0  0  0  0  0  0  0  0  0  0  0
  -30.6882  -23.5838   25.5754 C   0  0  0  0  0  0  0  0  0  0  0  0
  -35.0551  -25.5897   22.4535 C   0  0  0  0  0  0  0  0  0  0  0  0
  -33.3668  -24.0880   26.6965 C   0  0  0  0  0  0  0  0  0  0  0  0
  -22.3318  -21.9638   14.4890 C   0  0  0  0  0  0  0  0  0  0  0  0
  -30.9230  -26.7999   18.3664 C   0  0  0  0  0  0  0  0  0  0  0  0
  -21.1986  -23.4673   20.8392 C   0  0  0  0  0  0  0  0  0  0  0  0
  -21.5283  -21.7232   19.0735 C   0  0  0  0  0  0  0  0  0  0  0  0
  -19.6106  -23.3106   18.9136 C   0  0  0  0  0  0  0  0  0  0  0  0
  -24.0293  -25.3462   14.0966 C   0  0  0  0  0  0  0  0  0  0  0  0
  -29.9560  -22.8968   22.1983 C   0  0  0  0  0  0  0  0  0  0  0  0
  -29.0379  -25.8701   19.7391 C   0  0  0  0  0  0  0  0  0  1  0  0
  -28.4293  -22.7938   22.0857 C   0  0  1  0  0  0  0  0  0  0  0  0
  -21.9537  -24.1483   18.4660 C   0  0  1  0  0  0  0  0  0  0  0  0
  -22.5884  -23.4305   14.7984 C   0  0  2  0  0  0  0  0  0  0  0  0
  -30.5455  -25.8346   19.4618 C   0  0  2  0  0  0  0  0  0  0  0  0
  -21.0927  -23.1821   19.3278 C   0  0  0  0  0  0  0  0  0  0  0  0
  -25.6361  -16.1252   20.2256 N   0  0  0  0  0  0  0  0  0  0  0  0
  -25.4425  -17.3240   20.8014 N   0  0  0  0  0  0  0  0  0  0  0  0
  -34.0410  -24.8086   24.4962 N   0  3  0  0  0  0  0  0  0  0  0  0
  -22.6130  -26.4270   19.1709 N   0  0  0  0  0  0  0  0  0  0  0  0
  -27.5137  -20.2657   19.5111 N   0  0  0  0  0  0  0  0  0  0  0  0
  -24.6865  -18.3638   22.7909 N   0  0  0  0  0  0  0  0  0  0  0  0
  -24.2134  -13.9598   23.6723 N   0  0  0  0  0  0  0  0  0  0  0  0
  -30.3247  -24.1451   22.7858 N   0  0  0  0  0  0  0  0  0  0  0  0
  -20.7664  -28.0640   21.4687 N   0  0  0  0  0  0  0  0  0  0  0  0
  -21.8517  -23.9189   17.0289 N   0  0  0  0  0  0  0  0  0  0  0  0
  -28.0314  -21.5800   21.4079 N   0  0  0  0  0  0  0  0  0  0  0  0
  -23.6879  -23.9118   13.9150 N   0  3  0  0  0  0  0  0  0  0  0  0
  -23.9204  -16.0703   24.5200 O   0  0  0  0  0  0  0  0  0  0  0  0
  -22.9776  -27.4252   21.8224 O   0  0  0  0  0  0  0  0  0  0  0  0
  -20.4452  -25.9787   18.4388 O   0  0  0  0  0  0  0  0  0  0  0  0
  -24.1109  -23.5374   16.6714 O   0  0  0  0  0  0  0  0  0  0  0  0
  -28.1488  -22.4866   19.3053 O   0  0  0  0  0  0  0  0  0  0  0  0
  -25.4570   -9.7600   20.2299 O   0  0  0  0  0  0  0  0  0  0  0  0
  -28.6445  -27.1441   20.2475 O   0  0  0  0  0  0  0  0  0  1  0  0
  -21.0814   -6.7365   21.6848 F   0  0  0  0  0  0  0  0  0  0  0  0
  -24.6030   -9.6738   22.8578 F   0  0  0  0  0  0  0  0  0  0  0  0
  1  2  1  0  0  0  0
  1  5  2  0  0  0  0
  2  6  2  0  0  0  0
  3  8  2  0  0  0  0
  3 17  1  0  0  0  0
  4  9  1  0  0  0  0
  4 17  2  0  0  0  0
  5 19  1  0  0  0  0
  6 21  1  0  0  0  0
  7 10  2  0  0  0  0
  7 20  1  0  0  0  0
  8 30  1  0  0  0  0
  9 30  2  0  0  0  0
 10 31  1  0  0  0  0
 11 12  2  0  0  0  0
 11 32  1  0  0  0  0
 12 33  1  0  0  0  0
 13 22  1  0  0  0  0
 13 31  2  0  0  0  0
 14 25  1  0  0  0  0
 14 26  2  0  0  0  0
 15 25  2  0  0  0  0
 15 27  1  0  0  0  0
 16 33  2  0  0  0  0
 16 34  1  0  0  0  0
 17 35  1  0  0  0  0
 18 35  1  0  0  0  0
 18 38  2  0  0  0  0
 18 39  1  0  0  0  0
 19 21  2  0  0  0  0
 19 44  1  0  0  0  0
 20 22  2  0  0  0  0
 20 45  1  0  0  0  0
 21 58  1  0  0  0  0
 22 46  1  0  0  0  0
 23 26  1  0  0  0  0
 23 27  2  0  0  0  0
 23 56  1  0  0  0  0
 24 29  2  0  0  0  0
 24 36  1  0  0  0  0
 24 57  1  0  0  0  0
 25 75  1  0  0  0  0
 26 62  1  0  0  0  0
 27 63  1  0  0  0  0
 28 29  1  0  0  0  0
 28 37  2  0  0  0  0
 28 64  1  0  0  0  0
 29 87  1  0  0  0  0
 30 97  1  0  0  0  0
 31 98  1  0  0  0  0
 32 34  2  0  0  0  0
 32 97  1  0  0  0  0
 33 99  1  0  0  0  0
 34100  1  0  0  0  0
 35 80  2  0  0  0  0
 36 65  1  0  0  0  0
 36 82  2  0  0  0  0
 37 66  1  0  0  0  0
 37 82  1  0  0  0  0
 38 81  1  0  0  0  0
 38 85  1  0  0  0  0
 39 86  1  0  0  0  0
 39 92  2  0  0  0  0
 40 59  1  0  0  0  0
 40 88  1  0  0  0  0
 40 93  2  0  0  0  0
 41 76  1  0  0  0  0
 41 83  1  0  0  0  0
 41 94  2  0  0  0  0
 42 77  1  0  0  0  0
 42 89  1  0  0  0  0
 42 95  2  0  0  0  0
 43 84  1  0  0  0  0
 43 90  1  0  0  0  0
 43 96  2  0  0  0  0
 44 47  1  0  0  0  0
 45 59  1  0  0  0  0
 46 83  1  0  0  0  0
 47 51  1  0  0  0  0
 48 52  1  0  0  0  0
 48 54  1  0  0  0  0
 49 50  1  0  0  0  0
 49 56  1  0  0  0  0
 50 56  1  0  0  0  0
 51 58  1  0  0  0  0
 52 61  1  0  0  0  0
 53 57  1  0  0  0  0
 53 60  1  0  0  0  0
 54 84  1  0  0  0  0
 55 61  1  0  0  0  0
 55 84  1  0  0  0  0
 57 60  1  0  0  0  0
 58 88  1  0  0  0  0
 59 83  1  0  0  0  0
 60 78  1  0  0  0  0
 61 81  1  0  0  0  0
 67 77  1  0  0  0  0
 68 78  1  0  0  0  0
 69 79  1  0  0  0  0
 70 79  1  0  0  0  0
 71 79  1  0  0  0  0
 72 91  1  0  0  0  0
 73 75  1  0  0  0  0
 73 87  1  0  0  0  0
 74 78  1  0  0  0  0
 74 98  1  0  0  0  0
 75 90  1  0  0  0  0
 76 79  1  0  0  0  0
 76 89  1  0  0  0  0
 77 91  1  0  0  0  0
 80 81  1  0  0  0  0
M  CHG  2  82   1  91   1
M  ISO  4  43 100  74 101  90 100  98 101
M  END
> <Batch ID>
0166

> <Smiles>
CNC(C)C(=O)NC(C(=O)N1Cc2cc([101O:1][101CH2:1]C(C)C3CC3c3c(C)nc(C)c(C)c3NCC([100NH:0][100C:0](=O)N3CCCC(n4nc(-c5ccc(Oc6ccc(F)cc6F)cc5)c(C(N)=O)c4N)C3)c3cc(C)c(C4CC4)c(C)c3)ccc2CC1C(=O)NC1CCCc2ccccc21)C(C)(C)C

> <Shape>
0.219

> <Color>
0.090

> <Negative vol penalty>
0.000

$$$$

  -OEChem-04052322243D

 90100  0     1  0  0  0  0  0999 V2000
  -30.5572  -34.3049   17.3260 C   0  0  0  0  0  0  0  0  0  0  0  0
  -30.6830  -32.9585   17.6530 C   0  0  0  0  0  0  0  0  0  0  0  0
  -24.2855  -15.9614   19.9797 C   0  0  0  0  0  0  0  0  0  0  0  0
  -25.8121  -15.8147   21.8465 C   0  0  0  0  0  0  0  0  0  0  0  0
  -29.7032  -35.1235   18.0640 C   0  0  0  0  0  0  0  0  0  0  0  0
  -29.9556  -32.4302   18.7190 C   0  0  0  0  0  0  0  0  0  0  0  0
  -27.5863  -26.7977   19.1264 C   0  0  0  0  0  0  0  0  0  0  0  0
  -24.1795  -17.3385   20.1746 C   0  0  0  0  0  0  0  0  0  0  0  0
  -25.7061  -17.1918   22.0414 C   0  0  0  0  0  0  0  0  0  0  0  0
  -28.0328  -25.6353   19.7537 C   0  0  0  0  0  0  0  0  0  0  0  0
  -23.5054  -19.3491   23.4319 C   0  0  0  0  0  0  0  0  0  0  0  0
  -23.3326  -19.8074   24.7380 C   0  0  0  0  0  0  0  0  0  0  0  0
  -26.6650  -26.1525   21.6723 C   0  0  0  0  0  0  0  0  0  0  0  0
  -25.3833  -21.0731   24.5651 C   0  0  0  0  0  0  0  0  0  0  0  0
  -25.1017  -15.1995   20.8157 C   0  0  0  0  0  0  0  0  0  0  0  0
  -24.1716  -12.8288   20.6654 C   0  0  0  0  0  0  0  0  0  0  0  0
  -28.9577  -34.6028   19.1334 C   0  0  0  0  0  0  0  0  0  0  0  0
  -26.6826  -27.6532   19.7729 C   0  0  0  0  0  0  0  0  0  0  0  0
  -29.0919  -33.2429   19.4728 C   0  0  0  0  0  0  0  0  0  0  0  0
  -26.2066  -27.3238   21.0500 C   0  0  0  0  0  0  0  0  0  0  0  0
  -26.9853  -22.3510   20.3076 C   0  0  0  0  0  0  0  0  0  0  0  0
  -24.8898  -17.9537   21.2054 C   0  0  0  0  0  0  0  0  0  0  0  0
  -27.5744  -25.3141   21.0280 C   0  0  0  0  0  0  0  0  0  0  0  0
  -24.6172  -19.7528   22.6925 C   0  0  0  0  0  0  0  0  0  0  0  0
  -28.0607  -23.0164   20.9466 C   0  0  0  0  0  0  0  0  0  1  0  0
  -24.2716  -20.6695   25.3045 C   0  0  0  0  0  0  0  0  0  0  0  0
  -25.5561  -20.6148   23.2590 C   0  0  0  0  0  0  0  0  0  0  0  0
  -25.2112  -13.7768   20.6153 C   0  0  0  0  0  0  0  0  0  0  0  0
  -27.5000  -21.2270   19.7000 C   0  0  0  0  0  0  0  0  0  0  0  0
  -29.1997  -22.2786   20.7102 C   0  0  0  0  0  0  0  0  0  0  0  0
  -24.7887  -11.6288   20.4095 C   0  0  0  0  0  0  0  0  0  0  0  0
  -22.7733  -13.0163   20.9205 C   0  0  0  0  0  0  0  0  0  0  0  0
  -26.7659  -30.6748   20.7562 C   0  0  0  0  0  0  0  0  0  0  0  0
  -23.6393  -30.1332   21.4299 C   0  0  0  0  0  0  0  0  0  0  0  0
  -21.1777  -27.8802   22.1445 C   0  0  0  0  0  0  0  0  0  0  0  0
  -29.8870  -13.5003   19.4270 C   0  0  0  0  0  0  0  0  0  0  0  0
  -28.0834  -35.5371   19.9318 C   0  0  0  0  0  0  0  0  0  0  0  0
  -26.1901  -28.8894   19.0719 C   0  0  0  0  0  0  0  0  0  0  0  0
  -25.2205  -28.1984   21.7787 C   0  0  0  0  0  0  0  0  0  0  0  0
  -27.0642  -34.8160   20.8102 C   0  0  0  0  0  0  0  0  0  0  0  0
  -28.8091  -11.1640   21.9063 C   0  0  0  0  0  0  0  0  0  0  0  0
  -29.3880  -14.2796   15.9208 C   0  0  0  0  0  0  0  0  0  0  0  0
  -27.7289  -33.6732   21.5711 C   0  0  0  0  0  0  0  0  0  0  0  0
  -27.7815  -10.2885   21.1977 C   0  0  0  0  0  0  0  0  0  0  0  0
  -29.2575  -15.6824   16.4974 C   0  0  0  0  0  0  0  0  0  0  0  0
  -29.8679  -19.9873   17.9334 C   0  0  0  0  0  0  0  0  0  0  0  0
  -29.9254  -11.5595   20.9521 C   0  0  0  0  0  0  0  0  0  0  0  0
  -28.9236  -13.4023   17.0730 C   0  0  0  0  0  0  0  0  0  0  0  0
  -28.3614  -11.5004   19.0190 C   0  0  0  0  0  0  0  0  0  0  0  0
  -29.3190  -18.6129   17.6103 C   0  0  0  0  0  0  0  0  0  0  0  0
  -28.3009  -32.6273   20.6065 C   0  0  1  0  0  0  0  0  0  0  0  0
  -25.6652  -29.9520   20.0325 C   0  0  1  0  0  0  0  0  0  0  0  0
  -27.2347  -10.9402   19.9175 C   0  0  2  0  0  0  0  0  0  0  0  0
  -29.8006  -20.1209   19.4649 C   0  0  2  0  0  0  0  0  0  0  0  0
  -29.6916  -15.5051   17.9550 C   0  0  1  0  0  0  0  0  0  0  0  0
  -29.4228  -18.7234   20.0007 C   0  0  2  0  0  0  0  0  0  0  0  0
  -25.5733  -22.7836   20.2950 C   0  0  0  0  0  0  0  0  0  0  0  0
  -26.8245  -20.1814   18.9020 C   0  0  0  0  0  0  0  0  0  0  0  0
  -30.5940  -22.5155   21.1423 C   0  0  0  0  0  0  0  0  0  0  0  0
  -30.2611  -18.3010   21.1987 C   0  0  0  0  0  0  0  0  0  0  0  0
  -18.7307  -27.7408   22.6833 C   0  0  0  0  0  0  0  0  0  0  0  0
  -24.2102  -31.1095   24.2638 C   0  0  0  0  0  0  0  0  0  0  0  0
  -22.0475  -30.0725   24.9819 C   0  0  0  0  0  0  0  0  0  0  0  0
  -22.0476  -31.9139   23.2991 C   0  0  0  0  0  0  0  0  0  0  0  0
  -20.6244  -26.2379   19.7454 C   0  0  0  0  0  0  0  0  0  0  0  0
  -28.9814  -16.4821   18.8831 C   0  0  0  0  0  0  0  0  0  0  0  0
  -22.8770  -29.6217   22.6282 C   0  0  1  0  0  0  0  0  0  0  0  0
  -19.7787  -27.7045   21.5819 C   0  0  2  0  0  0  0  0  0  0  0  0
  -22.8156  -30.6637   23.7806 C   0  0  0  0  0  0  0  0  0  0  0  0
  -26.3986  -13.2264   20.3486 N   0  0  0  0  0  0  0  0  0  0  0  0
  -28.8469  -21.1932   19.9514 N   0  0  0  0  0  0  0  0  0  0  0  0
  -26.1090  -11.9195   20.2290 N   0  0  0  0  0  0  0  0  0  0  0  0
  -24.7734  -29.3995   21.0541 N   0  0  0  0  0  0  0  0  0  0  0  0
  -29.4113  -12.2215   19.7530 N   0  0  0  0  0  0  0  0  0  0  0  0
  -29.3876  -14.1042   18.2708 N   0  0  0  0  0  0  0  0  0  0  0  0
  -24.3254  -10.3637   20.3236 N   0  0  0  0  0  0  0  0  0  0  0  0
  -22.3208  -12.9490   22.2453 N   0  0  0  0  0  0  0  0  0  0  0  0
  -27.2435  -31.7861   20.0881 N   0  0  0  0  0  0  0  0  0  0  0  0
  -21.5708  -29.2018   22.1322 N   0  0  0  0  0  0  0  0  0  0  0  0
  -29.6844  -17.8022   18.8253 N   0  3  1  0  0  0  0  0  0  0  0  0
  -19.6669  -26.4002   20.8696 N   0  3  0  0  0  0  0  0  0  0  0  0
  -21.9469  -13.2206   19.9992 O   0  0  0  0  0  0  0  0  0  0  0  0
  -27.1522  -30.2560   21.8412 O   0  0  0  0  0  0  0  0  0  0  0  0
  -23.2392  -31.1425   20.8443 O   0  0  0  0  0  0  0  0  0  0  0  0
  -21.8526  -26.9397   22.5573 O   0  0  0  0  0  0  0  0  0  0  0  0
  -30.7281  -14.0735   20.1320 O   0  0  0  0  0  0  0  0  0  0  0  0
  -24.7869  -19.2975   21.3957 O   0  0  0  0  0  0  0  0  0  0  0  0
  -28.0197  -24.1528   21.6578 O   0  0  0  0  0  0  0  0  0  1  0  0
  -24.1047  -21.1107   26.5582 F   0  0  0  0  0  0  0  0  0  0  0  0
  -26.6255  -21.0070   22.5531 F   0  0  0  0  0  0  0  0  0  0  0  0
  1  2  1  0  0  0  0
  1  5  2  0  0  0  0
  2  6  2  0  0  0  0
  3  8  2  0  0  0  0
  3 15  1  0  0  0  0
  4  9  1  0  0  0  0
  4 15  2  0  0  0  0
  5 17  1  0  0  0  0
  6 19  1  0  0  0  0
  7 10  2  0  0  0  0
  7 18  1  0  0  0  0
  8 22  1  0  0  0  0
  9 22  2  0  0  0  0
 10 23  1  0  0  0  0
 11 12  2  0  0  0  0
 11 24  1  0  0  0  0
 12 26  1  0  0  0  0
 13 20  1  0  0  0  0
 13 23  2  0  0  0  0
 14 26  2  0  0  0  0
 14 27  1  0  0  0  0
 15 28  1  0  0  0  0
 16 28  1  0  0  0  0
 16 31  2  0  0  0  0
 16 32  1  0  0  0  0
 17 19  2  0  0  0  0
 17 37  1  0  0  0  0
 18 20  2  0  0  0  0
 18 38  1  0  0  0  0
 19 51  1  0  0  0  0
 20 39  1  0  0  0  0
 21 25  1  0  0  0  0
 21 29  2  0  0  0  0
 21 57  1  0  0  0  0
 22 87  1  0  0  0  0
 23 88  1  0  0  0  0
 24 27  2  0  0  0  0
 24 87  1  0  0  0  0
 25 30  2  0  0  0  0
 25 88  1  0  0  0  0
 26 89  1  0  0  0  0
 27 90  1  0  0  0  0
 28 70  2  0  0  0  0
 29 58  1  0  0  0  0
 29 71  1  0  0  0  0
 30 59  1  0  0  0  0
 30 71  1  0  0  0  0
 31 72  1  0  0  0  0
 31 76  1  0  0  0  0
 32 77  1  0  0  0  0
 32 82  2  0  0  0  0
 33 52  1  0  0  0  0
 33 78  1  0  0  0  0
 33 83  2  0  0  0  0
 34 67  1  0  0  0  0
 34 73  1  0  0  0  0
 34 84  2  0  0  0  0
 35 68  1  0  0  0  0
 35 79  1  0  0  0  0
 35 85  2  0  0  0  0
 36 74  1  0  0  0  0
 36 75  1  0  0  0  0
 36 86  2  0  0  0  0
 37 40  1  0  0  0  0
 38 52  1  0  0  0  0
 39 73  1  0  0  0  0
 40 43  1  0  0  0  0
 41 44  1  0  0  0  0
 41 47  1  0  0  0  0
 42 45  1  0  0  0  0
 42 48  1  0  0  0  0
 43 51  1  0  0  0  0
 44 53  1  0  0  0  0
 45 55  1  0  0  0  0
 46 50  1  0  0  0  0
 46 54  1  0  0  0  0
 47 74  1  0  0  0  0
 48 75  1  0  0  0  0
 49 53  1  0  0  0  0
 49 74  1  0  0  0  0
 50 80  1  0  0  0  0
 51 78  1  0  0  0  0
 52 73  1  0  0  0  0
 53 72  1  0  0  0  0
 54 56  1  0  0  0  0
 54 71  1  0  0  0  0
 55 66  1  0  0  0  0
 55 75  1  0  0  0  0
 56 60  1  0  0  0  0
 56 80  1  0  0  0  0
 61 68  1  0  0  0  0
 62 69  1  0  0  0  0
 63 69  1  0  0  0  0
 64 69  1  0  0  0  0
 65 81  1  0  0  0  0
 66 80  1  0  0  0  0
 67 69  1  0  0  0  0
 67 79  1  0  0  0  0
 68 81  1  0  0  0  0
 70 72  1  0  0  0  0
M  CHG  2  80   1  81   1
M  ISO  4  25 101  36 100  75 100  88 101
M  END
> <Batch ID>
0166

> <Smiles>
CNC(C)C(=O)NC(C(=O)N1Cc2cc([101O:1][101c:1]3c(C)c(C)n(C4CCN(CC5CCC[100N:0]5[100C:0](=O)N5CCCC(n6nc(-c7ccc(Oc8ccc(F)cc8F)cc7)c(C(N)=O)c6N)C5)C4C)c3C)ccc2CC1C(=O)NC1CCCc2ccccc21)C(C)(C)C

> <Shape>
0.279

> <Color>
0.074

> <Negative vol penalty>
0.000

$$$$

  -OEChem-04052322243D

 90101  0     1  0  0  0  0  0999 V2000
  -28.2056  -29.3029   13.6280 C   0  0  0  0  0  0  0  0  0  0  0  0
  -27.1560  -28.7087   14.3214 C   0  0  0  0  0  0  0  0  0  0  0  0
  -26.6834  -12.4262   21.6500 C   0  0  0  0  0  0  0  0  0  0  0  0
  -25.6861  -14.0696   20.1866 C   0  0  0  0  0  0  0  0  0  0  0  0
  -29.3138  -29.7856   14.3228 C   0  0  0  0  0  0  0  0  0  0  0  0
  -27.2146  -28.5960   15.7100 C   0  0  0  0  0  0  0  0  0  0  0  0
  -22.5281  -28.9692   19.6348 C   0  0  0  0  0  0  0  0  0  0  0  0
  -25.4494  -11.7878   21.7741 C   0  0  0  0  0  0  0  0  0  0  0  0
  -24.4521  -13.4312   20.3106 C   0  0  0  0  0  0  0  0  0  0  0  0
  -21.7636  -27.9968   20.2780 C   0  0  0  0  0  0  0  0  0  0  0  0
  -23.5467   -9.6687   19.9515 C   0  0  0  0  0  0  0  0  0  0  0  0
  -23.5227   -8.2781   19.8455 C   0  0  0  0  0  0  0  0  0  0  0  0
  -23.1735  -28.1855   22.2262 C   0  0  0  0  0  0  0  0  0  0  0  0
  -25.3472  -21.4818   19.6754 C   0  0  0  0  0  0  0  0  0  0  0  0
  -22.6169   -8.1235   22.0800 C   0  0  0  0  0  0  0  0  0  0  0  0
  -23.9857  -22.7650   18.4225 C   0  0  0  0  0  0  0  0  0  0  0  0
  -26.8017  -13.5671   20.8563 C   0  0  0  0  0  0  0  0  0  0  0  0
  -29.2706  -13.6790   20.2241 C   0  0  0  0  0  0  0  0  0  0  0  0
  -29.3816  -29.6874   15.7215 C   0  0  0  0  0  0  0  0  0  0  0  0
  -23.6295  -29.5502   20.2796 C   0  0  0  0  0  0  0  0  0  0  0  0
  -28.3253  -29.0767   16.4240 C   0  0  0  0  0  0  0  0  0  0  0  0
  -23.9489  -29.1669   21.5900 C   0  0  0  0  0  0  0  0  0  0  0  0
  -24.1327  -22.2113   19.6752 C   0  0  0  0  0  0  0  0  0  0  0  0
  -24.3338  -12.2903   21.1044 C   0  0  0  0  0  0  0  0  0  0  0  0
  -22.0879  -27.6027   21.5728 C   0  0  0  0  0  0  0  0  0  0  0  0
  -23.1059  -10.2868   21.1217 C   0  0  0  0  0  0  0  0  0  0  0  0
  -23.0578   -7.5055   20.9097 C   0  0  0  0  0  0  0  0  0  0  0  0
  -22.6409   -9.5141   22.1859 C   0  0  0  0  0  0  0  0  0  0  0  0
  -28.0760  -14.2273   20.7281 C   0  0  0  0  0  0  0  0  0  0  0  0
  -25.9055  -21.6121   18.4229 C   0  0  0  0  0  0  0  0  0  0  0  0
  -30.1825  -14.7022   20.3134 C   0  0  0  0  0  0  0  0  0  0  0  0
  -29.5326  -12.3625   19.7203 C   0  0  0  0  0  0  0  0  0  0  0  0
  -26.7563  -29.6596   19.7182 C   0  0  0  0  0  0  0  0  0  0  0  0
  -26.7440  -31.6942   22.2446 C   0  0  0  0  0  0  0  0  0  0  0  0
  -25.1309  -31.8822   25.4664 C   0  0  0  0  0  0  0  0  0  0  0  0
  -29.4410  -20.7111   20.5171 C   0  0  0  0  0  0  0  0  0  0  0  0
  -30.6213  -30.1811   16.4246 C   0  0  0  0  0  0  0  0  0  0  0  0
  -24.4280  -30.6170   19.5820 C   0  0  0  0  0  0  0  0  0  0  0  0
  -25.1092  -29.7746   22.3335 C   0  0  0  0  0  0  0  0  0  0  0  0
  -30.4374  -30.3604   17.9293 C   0  0  0  0  0  0  0  0  0  0  0  0
  -31.2107  -18.6112   22.8319 C   0  0  0  0  0  0  0  0  0  0  0  0
  -29.7406  -29.1440   18.5307 C   0  0  0  0  0  0  0  0  0  0  0  0
  -30.6791  -17.2094   22.5516 C   0  0  0  0  0  0  0  0  0  0  0  0
  -26.5720  -23.4564   15.8667 C   0  0  0  0  0  0  0  0  0  0  0  0
  -25.2895  -24.2278   15.8716 C   0  0  0  0  0  0  0  0  0  0  0  0
  -21.7672  -21.8346   20.5577 C   0  0  0  0  0  0  0  0  0  0  0  0
  -30.1184  -19.6551   22.6422 C   0  0  0  0  0  0  0  0  0  0  0  0
  -28.6119  -21.6683   18.3049 C   0  0  0  0  0  0  0  0  0  0  0  0
  -27.8342  -19.7290   18.7050 C   0  0  0  0  0  0  0  0  0  0  0  0
  -28.9866  -18.2364   20.9511 C   0  0  0  0  0  0  0  0  0  0  0  0
  -20.9700  -22.4271   21.7009 C   0  0  0  0  0  0  0  0  0  0  0  0
  -22.9516  -23.8014   21.2855 C   0  0  0  0  0  0  0  0  0  0  0  0
  -23.1758  -22.3565   20.8330 C   0  0  2  0  0  0  0  0  0  0  0  0
  -28.3409  -28.9583   17.9326 C   0  0  1  0  0  0  0  0  0  0  0  0
  -27.2837  -20.9613   17.9446 C   0  0  0  0  0  0  0  0  0  0  0  0
  -25.8384  -30.7707   20.1430 C   0  0  1  0  0  0  0  0  0  0  0  0
  -25.2912  -22.7764   16.2908 C   0  0  0  0  0  0  0  0  0  0  0  0
  -30.0539  -17.1419   21.1508 C   0  0  2  0  0  0  0  0  0  0  0  0
  -24.5529  -33.8676   26.8882 C   0  0  0  0  0  0  0  0  0  0  0  0
  -19.9218  -24.4398   23.5544 C   0  0  0  0  0  0  0  0  0  0  0  0
  -29.4271  -31.1467   23.5904 C   0  0  0  0  0  0  0  0  0  0  0  0
  -28.3729  -31.7493   25.7799 C   0  0  0  0  0  0  0  0  0  0  0  0
  -28.5248  -33.4495   23.9609 C   0  0  0  0  0  0  0  0  0  0  0  0
  -22.2805  -31.0983   25.6062 C   0  0  0  0  0  0  0  0  0  0  0  0
  -22.0140  -25.8067   23.1813 C   0  0  0  0  0  0  0  0  0  1  0  0
  -26.8801  -31.5421   23.7404 C   0  0  1  0  0  0  0  0  0  0  0  0
  -24.0384  -32.8514   25.8805 C   0  0  2  0  0  0  0  0  0  0  0  0
  -21.3976  -24.4124   23.1912 C   0  0  2  0  0  0  0  0  0  0  0  0
  -28.2902  -31.9512   24.2518 C   0  0  0  0  0  0  0  0  0  0  0  0
  -28.2134  -15.5000   21.1094 N   0  0  0  0  0  0  0  0  0  0  0  0
  -25.0694  -22.3944   17.6699 N   0  0  0  0  0  0  0  0  0  0  0  0
  -29.5052  -15.7599   20.8450 N   0  0  0  0  0  0  0  0  0  0  0  0
  -25.8633  -30.8091   21.6066 N   0  0  0  0  0  0  0  0  0  0  0  0
  -29.4947  -19.5654   21.3187 N   0  0  0  0  0  0  0  0  0  0  0  0
  -28.8208  -20.6181   19.2919 N   0  0  0  0  0  0  0  0  0  0  0  0
  -31.4897  -14.7913   19.9883 N   0  0  0  0  0  0  0  0  0  0  0  0
  -28.4829  -11.4340   19.6994 N   0  0  0  0  0  0  0  0  0  0  0  0
  -27.4102  -29.8957   18.5239 N   0  0  0  0  0  0  0  0  0  0  0  0
  -25.7859  -32.3063   24.3296 N   0  0  0  0  0  0  0  0  0  0  0  0
  -21.5300  -23.8256   21.8231 N   0  3  2  0  0  0  0  0  0  0  0  0
  -22.8985  -32.1147   26.4961 N   0  3  0  0  0  0  0  0  0  0  0  0
  -30.6681  -12.0147   19.3162 O   0  0  0  0  0  0  0  0  0  0  0  0
  -26.8645  -28.6627   20.4225 O   0  0  0  0  0  0  0  0  0  0  0  0
  -27.3897  -32.5707   21.6646 O   0  0  0  0  0  0  0  0  0  0  0  0
  -25.3809  -30.8537   26.0911 O   0  0  0  0  0  0  0  0  0  0  0  0
  -29.9050  -21.7949   20.8952 O   0  0  0  0  0  0  0  0  0  0  0  0
  -23.1296  -11.6675   21.2251 O   0  0  0  0  0  0  0  0  0  0  0  0
  -21.3438  -26.6533   22.2026 O   0  0  0  0  0  0  0  0  0  1  0  0
  -23.0333   -6.1702   20.8072 F   0  0  0  0  0  0  0  0  0  0  0  0
  -22.2150  -10.1022   23.3122 F   0  0  0  0  0  0  0  0  0  0  0  0
  1  2  1  0  0  0  0
  1  5  2  0  0  0  0
  2  6  2  0  0  0  0
  3  8  2  0  0  0  0
  3 17  1  0  0  0  0
  4  9  1  0  0  0  0
  4 17  2  0  0  0  0
  5 19  1  0  0  0  0
  6 21  1  0  0  0  0
  7 10  2  0  0  0  0
  7 20  1  0  0  0  0
  8 24  1  0  0  0  0
  9 24  2  0  0  0  0
 10 25  1  0  0  0  0
 11 12  2  0  0  0  0
 11 26  1  0  0  0  0
 12 27  1  0  0  0  0
 13 22  1  0  0  0  0
 13 25  2  0  0  0  0
 14 23  1  0  0  0  0
 14 30  2  0  0  0  0
 15 27  2  0  0  0  0
 15 28  1  0  0  0  0
 16 23  2  0  0  0  0
 16 71  1  0  0  0  0
 17 29  1  0  0  0  0
 18 29  1  0  0  0  0
 18 31  2  0  0  0  0
 18 32  1  0  0  0  0
 19 21  2  0  0  0  0
 19 37  1  0  0  0  0
 20 22  2  0  0  0  0
 20 38  1  0  0  0  0
 21 54  1  0  0  0  0
 22 39  1  0  0  0  0
 23 53  1  0  0  0  0
 24 87  1  0  0  0  0
 25 88  1  0  0  0  0
 26 28  2  0  0  0  0
 26 87  1  0  0  0  0
 27 89  1  0  0  0  0
 28 90  1  0  0  0  0
 29 70  2  0  0  0  0
 30 55  1  0  0  0  0
 30 71  1  0  0  0  0
 31 72  1  0  0  0  0
 31 76  1  0  0  0  0
 32 77  1  0  0  0  0
 32 82  2  0  0  0  0
 33 56  1  0  0  0  0
 33 78  1  0  0  0  0
 33 83  2  0  0  0  0
 34 66  1  0  0  0  0
 34 73  1  0  0  0  0
 34 84  2  0  0  0  0
 35 67  1  0  0  0  0
 35 79  1  0  0  0  0
 35 85  2  0  0  0  0
 36 74  1  0  0  0  0
 36 75  1  0  0  0  0
 36 86  2  0  0  0  0
 37 40  1  0  0  0  0
 38 56  1  0  0  0  0
 39 73  1  0  0  0  0
 40 42  1  0  0  0  0
 41 43  1  0  0  0  0
 41 47  1  0  0  0  0
 42 54  1  0  0  0  0
 43 58  1  0  0  0  0
 44 45  1  0  0  0  0
 44 57  1  0  0  0  0
 45 57  1  0  0  0  0
 46 51  1  0  0  0  0
 46 53  1  0  0  0  0
 47 74  1  0  0  0  0
 48 55  1  0  0  0  0
 48 75  1  0  0  0  0
 49 55  1  0  0  0  0
 49 75  1  0  0  0  0
 50 58  1  0  0  0  0
 50 74  1  0  0  0  0
 51 80  1  0  0  0  0
 52 53  1  0  0  0  0
 52 80  1  0  0  0  0
 54 78  1  0  0  0  0
 56 73  1  0  0  0  0
 57 71  1  0  0  0  0
 58 72  1  0  0  0  0
 59 67  1  0  0  0  0
 60 68  1  0  0  0  0
 61 69  1  0  0  0  0
 62 69  1  0  0  0  0
 63 69  1  0  0  0  0
 64 81  1  0  0  0  0
 65 68  1  0  0  0  0
 65 88  1  0  0  0  0
 66 69  1  0  0  0  0
 66 79  1  0  0  0  0
 67 81  1  0  0  0  0
 68 80  1  0  0  0  0
 70 72  1  0  0  0  0
M  CHG  2  80   1  81   1
M  ISO  4  36 100  65 101  75 100  88 101
M  END
> <Batch ID>
0166

> <Smiles>
CNC(C)C(=O)NC(C(=O)N1Cc2cc([101O:1][101CH2:1]C(C)N3CCC(c4cc(C5C[100N:0]([100C:0](=O)N6CCCC(n7nc(-c8ccc(Oc9ccc(F)cc9F)cc8)c(C(N)=O)c7N)C6)C5)n(C5CC5)c4)C3)ccc2CC1C(=O)NC1CCCc2ccccc21)C(C)(C)C

> <Shape>
0.277

> <Color>
0.068

> <Negative vol penalty>
0.000

$$$$

  -OEChem-04052322243D

 86 95  0     1  0  0  0  0  0999 V2000
  -30.8285  -33.5976   21.5589 C   0  0  0  0  0  0  0  0  0  0  0  0
  -30.7310  -32.4879   20.7256 C   0  0  0  0  0  0  0  0  0  0  0  0
  -23.0882  -10.1405   19.8772 C   0  0  0  0  0  0  0  0  0  0  0  0
  -23.8033   -9.7816   22.1569 C   0  0  0  0  0  0  0  0  0  0  0  0
  -30.2468  -33.5699   22.8257 C   0  0  0  0  0  0  0  0  0  0  0  0
  -30.0527  -31.3493   21.1591 C   0  0  0  0  0  0  0  0  0  0  0  0
  -26.7078  -27.5296   17.7346 C   0  0  0  0  0  0  0  0  0  0  0  0
  -22.2878   -9.0005   19.9487 C   0  0  0  0  0  0  0  0  0  0  0  0
  -23.0028   -8.6415   22.2285 C   0  0  0  0  0  0  0  0  0  0  0  0
  -26.9952  -26.2955   17.1529 C   0  0  0  0  0  0  0  0  0  0  0  0
  -23.1524   -5.4239   21.2010 C   0  0  0  0  0  0  0  0  0  0  0  0
  -23.7065   -4.2778   21.7710 C   0  0  0  0  0  0  0  0  0  0  0  0
  -28.5630  -19.1458   19.9055 C   0  0  0  0  0  0  0  0  0  0  0  0
  -26.0011  -25.1786   19.0459 C   0  0  0  0  0  0  0  0  0  0  0  0
  -29.1764  -19.8409   17.2319 C   0  0  0  0  0  0  0  0  0  0  0  0
  -21.9822   -4.2859   23.4633 C   0  0  0  0  0  0  0  0  0  0  0  0
  -23.8460  -10.5311   20.9813 C   0  0  0  0  0  0  0  0  0  0  0  0
  -24.3050  -13.0280   21.2314 C   0  0  0  0  0  0  0  0  0  0  0  0
  -29.5527  -32.4339   23.2712 C   0  0  0  0  0  0  0  0  0  0  0  0
  -26.0736  -27.5974   18.9834 C   0  0  0  0  0  0  0  0  0  0  0  0
  -29.4623  -31.3059   22.4335 C   0  0  0  0  0  0  0  0  0  0  0  0
  -28.8064  -18.1742   18.9509 C   0  0  0  0  0  0  0  0  0  0  0  0
  -25.7045  -26.4147   19.6400 C   0  0  0  0  0  0  0  0  0  0  0  0
  -29.1091  -18.5175   17.6296 C   0  0  0  0  0  0  0  0  0  0  0  0
  -28.6308  -20.4849   19.5151 C   0  0  0  0  0  0  0  0  0  0  0  0
  -22.2451   -8.2509   21.1243 C   0  0  0  0  0  0  0  0  0  0  0  0
  -26.6444  -25.1197   17.8099 C   0  0  0  0  0  0  0  0  0  0  0  0
  -22.0133   -6.0011   21.7621 C   0  0  0  0  0  0  0  0  0  0  0  0
  -28.9346  -20.8299   18.1880 C   0  0  0  0  0  0  0  0  0  0  0  0
  -23.1214   -3.7087   22.9021 C   0  0  0  0  0  0  0  0  0  0  0  0
  -21.4282   -5.4320   22.8933 C   0  0  0  0  0  0  0  0  0  0  0  0
  -24.6735  -11.7084   20.9079 C   0  0  0  0  0  0  0  0  0  0  0  0
  -25.4370  -13.7686   20.9939 C   0  0  0  0  0  0  0  0  0  0  0  0
  -23.0516  -13.5386   21.7045 C   0  0  0  0  0  0  0  0  0  0  0  0
  -26.8604  -28.7506   21.8391 C   0  0  0  0  0  0  0  0  0  0  0  0
  -23.7958  -27.9736   22.5650 C   0  0  0  0  0  0  0  0  0  0  0  0
  -21.0525  -26.0614   21.8834 C   0  0  0  0  0  0  0  0  0  0  0  0
  -29.6847  -14.9183   17.4817 C   0  0  0  0  0  0  0  0  0  0  0  0
  -28.9811  -32.4335   24.6669 C   0  0  0  0  0  0  0  0  0  0  0  0
  -25.7466  -28.9366   19.5850 C   0  0  0  0  0  0  0  0  0  0  0  0
  -28.7729  -16.6885   19.1070 C   0  0  0  0  0  0  0  0  0  0  0  0
  -25.0038  -26.4334   20.9731 C   0  0  0  0  0  0  0  0  0  0  0  0
  -29.3309  -17.2892   16.8133 C   0  0  0  0  0  0  0  0  0  0  0  0
  -27.9582  -31.3259   24.9058 C   0  0  0  0  0  0  0  0  0  0  0  0
  -30.1909  -12.3281   20.0306 C   0  0  0  0  0  0  0  0  0  0  0  0
  -28.4782  -29.9948   24.3722 C   0  0  0  0  0  0  0  0  0  0  0  0
  -28.7609  -12.0169   20.4781 C   0  0  0  0  0  0  0  0  0  0  0  0
  -30.2506  -12.7759   18.5715 C   0  0  0  0  0  0  0  0  0  0  0  0
  -27.9194  -13.5642   18.6758 C   0  0  0  0  0  0  0  0  0  0  0  0
  -28.7135  -30.0613   22.8584 C   0  0  1  0  0  0  0  0  0  0  0  0
  -25.5599  -28.8823   21.0982 C   0  0  1  0  0  0  0  0  0  0  0  0
  -27.8091  -13.1859   20.1587 C   0  0  1  0  0  0  0  0  0  0  0  0
  -18.7105  -25.6246   22.6717 C   0  0  0  0  0  0  0  0  0  0  0  0
  -24.8904  -26.3862   24.9298 C   0  0  0  0  0  0  0  0  0  0  0  0
  -22.6737  -25.2340   25.0929 C   0  0  0  0  0  0  0  0  0  0  0  0
  -22.8219  -27.7019   25.4244 C   0  0  0  0  0  0  0  0  0  0  0  0
  -19.9000  -26.8899   19.2864 C   0  0  0  0  0  0  0  0  0  0  0  0
  -28.0735  -23.8423   16.4020 C   0  0  0  0  0  0  0  0  0  1  0  0
  -28.6550  -22.4432   16.4631 C   0  0  0  0  0  0  0  0  0  0  0  0
  -23.1030  -26.7443   23.1015 C   0  0  1  0  0  0  0  0  0  0  0  0
  -19.5874  -26.4237   21.7203 C   0  0  2  0  0  0  0  0  0  0  0  0
  -28.3715  -21.5491   20.5315 C   0  0  0  0  0  0  0  0  0  0  0  0
  -23.3872  -26.5159   24.6129 C   0  0  0  0  0  0  0  0  0  0  0  0
  -25.9405  -11.6131   20.4960 N   0  0  0  0  0  0  0  0  0  0  0  0
  -26.3780  -12.8822   20.5590 N   0  0  0  0  0  0  0  0  0  0  0  0
  -24.7114  -27.7673   21.5233 N   0  0  0  0  0  0  0  0  0  0  0  0
  -29.1792  -16.1867   17.7773 N   0  0  0  0  0  0  0  0  0  0  0  0
  -29.3097  -13.8673   18.3245 N   0  0  0  0  0  0  0  0  0  0  0  0
  -25.7094  -15.0851   21.1165 N   0  0  0  0  0  0  0  0  0  0  0  0
  -21.9929  -12.6400   21.8943 N   0  0  0  0  0  0  0  0  0  0  0  0
  -27.4575  -29.9582   22.1467 N   0  0  0  0  0  0  0  0  0  0  0  0
  -21.6892  -26.8977   22.7758 N   0  0  0  0  0  0  0  0  0  0  0  0
  -19.1384  -26.1505   20.3257 N   0  3  0  0  0  0  0  0  0  0  0  0
  -22.8707  -14.7581   21.9360 O   0  0  0  0  0  0  0  0  0  0  0  0
  -27.2896  -27.6358   22.1128 O   0  0  0  0  0  0  0  0  0  0  0  0
  -23.5291  -29.0771   23.0475 O   0  0  0  0  0  0  0  0  0  0  0  0
  -21.5786  -25.1273   21.2823 O   0  0  0  0  0  0  0  0  0  0  0  0
  -30.4756  -14.7423   16.5461 O   0  0  0  0  0  0  0  0  0  0  0  0
  -21.4639   -7.1385   21.1946 O   0  0  0  0  0  0  0  0  0  0  0  0
  -26.9263  -23.9057   17.2408 O   0  0  0  0  0  0  0  0  0  1  0  0
  -28.9977  -22.1400   17.8131 O   0  0  0  0  0  0  0  0  0  0  0  0
  -23.6527   -2.6072   23.4485 F   0  0  0  0  0  0  0  0  0  0  0  0
  -20.3330   -5.9813   23.4361 F   0  0  0  0  0  0  0  0  0  0  0  0
  -28.0873  -21.0587   21.7731 F   0  0  0  0  0  0  0  0  0  0  0  0
  -29.4260  -22.3961   20.7134 F   0  0  0  0  0  0  0  0  0  0  0  0
  -27.3141  -22.3432   20.1981 F   0  0  0  0  0  0  0  0  0  0  0  0
  1  2  1  0  0  0  0
  1  5  2  0  0  0  0
  2  6  2  0  0  0  0
  3  8  2  0  0  0  0
  3 17  1  0  0  0  0
  4  9  1  0  0  0  0
  4 17  2  0  0  0  0
  5 19  1  0  0  0  0
  6 21  1  0  0  0  0
  7 10  2  0  0  0  0
  7 20  1  0  0  0  0
  8 26  1  0  0  0  0
  9 26  2  0  0  0  0
 10 27  1  0  0  0  0
 11 12  2  0  0  0  0
 11 28  1  0  0  0  0
 12 30  1  0  0  0  0
 13 22  2  0  0  0  0
 13 25  1  0  0  0  0
 14 23  1  0  0  0  0
 14 27  2  0  0  0  0
 15 24  2  0  0  0  0
 15 29  1  0  0  0  0
 16 30  2  0  0  0  0
 16 31  1  0  0  0  0
 17 32  1  0  0  0  0
 18 32  1  0  0  0  0
 18 33  2  0  0  0  0
 18 34  1  0  0  0  0
 19 21  2  0  0  0  0
 19 39  1  0  0  0  0
 20 23  2  0  0  0  0
 20 40  1  0  0  0  0
 21 50  1  0  0  0  0
 22 24  1  0  0  0  0
 22 41  1  0  0  0  0
 23 42  1  0  0  0  0
 24 43  1  0  0  0  0
 25 29  2  0  0  0  0
 25 62  1  0  0  0  0
 26 79  1  0  0  0  0
 27 80  1  0  0  0  0
 28 31  2  0  0  0  0
 28 79  1  0  0  0  0
 29 81  1  0  0  0  0
 30 82  1  0  0  0  0
 31 83  1  0  0  0  0
 32 64  2  0  0  0  0
 33 65  1  0  0  0  0
 33 69  1  0  0  0  0
 34 70  1  0  0  0  0
 34 74  2  0  0  0  0
 35 51  1  0  0  0  0
 35 71  1  0  0  0  0
 35 75  2  0  0  0  0
 36 60  1  0  0  0  0
 36 66  1  0  0  0  0
 36 76  2  0  0  0  0
 37 61  1  0  0  0  0
 37 72  1  0  0  0  0
 37 77  2  0  0  0  0
 38 67  1  0  0  0  0
 38 68  1  0  0  0  0
 38 78  2  0  0  0  0
 39 44  1  0  0  0  0
 40 51  1  0  0  0  0
 41 67  1  0  0  0  0
 42 66  1  0  0  0  0
 43 67  1  0  0  0  0
 44 46  1  0  0  0  0
 45 47  1  0  0  0  0
 45 48  1  0  0  0  0
 46 50  1  0  0  0  0
 47 52  1  0  0  0  0
 48 68  1  0  0  0  0
 49 52  1  0  0  0  0
 49 68  1  0  0  0  0
 50 71  1  0  0  0  0
 51 66  1  0  0  0  0
 52 65  1  0  0  0  0
 53 61  1  0  0  0  0
 54 63  1  0  0  0  0
 55 63  1  0  0  0  0
 56 63  1  0  0  0  0
 57 73  1  0  0  0  0
 58 59  1  0  0  0  0
 58 80  1  0  0  0  0
 59 81  1  0  0  0  0
 60 63  1  0  0  0  0
 60 72  1  0  0  0  0
 61 73  1  0  0  0  0
 62 84  1  0  0  0  0
 62 85  1  0  0  0  0
 62 86  1  0  0  0  0
 64 65  1  0  0  0  0
M  CHG  1  73   1
M  ISO  4  38 100  58 101  67 100  80 101
M  END
> <Batch ID>
0166

> <Smiles>
CNC(C)C(=O)NC(C(=O)N1Cc2cc([101O:1][101CH2:1]COc3cc4c(cc3C(F)(F)F)C[100N:0]([100C:0](=O)N3CCCC(n5nc(-c6ccc(Oc7ccc(F)cc7F)cc6)c(C(N)=O)c5N)C3)C4)ccc2CC1C(=O)NC1CCCc2ccccc21)C(C)(C)C

> <Shape>
0.307

> <Color>
0.182

> <Negative vol penalty>
0.000

$$$$

  -OEChem-04052322243D

 89 99  0     1  0  0  0  0  0999 V2000
  -23.3339   -7.8520   20.6672 C   0  0  0  0  0  0  0  0  0  0  0  0
  -23.7715   -8.9567   19.9437 C   0  0  0  0  0  0  0  0  0  0  0  0
  -22.4510  -27.6812   20.0860 C   0  0  0  0  0  0  0  0  0  0  0  0
  -22.7457  -28.6511   22.2791 C   0  0  0  0  0  0  0  0  0  0  0  0
  -22.3332   -8.0002   21.6266 C   0  0  0  0  0  0  0  0  0  0  0  0
  -23.2078  -10.2103   20.1785 C   0  0  0  0  0  0  0  0  0  0  0  0
  -26.6858  -13.8787   20.4813 C   0  0  0  0  0  0  0  0  0  0  0  0
  -21.1463  -27.3193   20.4213 C   0  0  0  0  0  0  0  0  0  0  0  0
  -21.4409  -28.2893   22.6144 C   0  0  0  0  0  0  0  0  0  0  0  0
  -27.2191  -14.3509   19.2828 C   0  0  0  0  0  0  0  0  0  0  0  0
  -18.3140  -29.4339   22.0372 C   0  0  0  0  0  0  0  0  0  0  0  0
  -17.5254  -30.3851   22.6845 C   0  0  0  0  0  0  0  0  0  0  0  0
  -25.7399  -16.2539   19.3815 C   0  0  0  0  0  0  0  0  0  0  0  0
  -17.2775  -28.8957   24.5707 C   0  0  0  0  0  0  0  0  0  0  0  0
  -23.2507  -28.3470   21.0149 C   0  0  0  0  0  0  0  0  0  0  0  0
  -25.0220  -29.9266   20.0793 C   0  0  0  0  0  0  0  0  0  0  0  0
  -21.7637   -9.2580   21.8800 C   0  0  0  0  0  0  0  0  0  0  0  0
  -25.6662  -14.5860   21.1343 C   0  0  0  0  0  0  0  0  0  0  0  0
  -22.1975  -10.3753   21.1412 C   0  0  0  0  0  0  0  0  0  0  0  0
  -25.1971  -15.7898   20.5894 C   0  0  0  0  0  0  0  0  0  0  0  0
  -30.5663  -19.5113   18.5271 C   0  0  0  0  0  0  0  0  0  0  0  0
  -30.5698  -18.1463   18.1480 C   0  0  0  0  0  0  0  0  0  0  0  0
  -20.6413  -27.6234   21.6855 C   0  0  0  0  0  0  0  0  0  0  0  0
  -26.7442  -15.5372   18.7312 C   0  0  0  0  0  0  0  0  0  0  0  0
  -18.5843  -28.2137   22.6566 C   0  0  0  0  0  0  0  0  0  0  0  0
  -17.0072  -30.1160   23.9513 C   0  0  0  0  0  0  0  0  0  0  0  0
  -18.0661  -27.9446   23.9233 C   0  0  0  0  0  0  0  0  0  0  0  0
  -24.5987  -28.7205   20.6694 C   0  0  0  0  0  0  0  0  0  0  0  0
  -29.6345  -20.1539   17.7422 C   0  0  0  0  0  0  0  0  0  0  0  0
  -29.6400  -17.9963   17.1427 C   0  0  0  0  0  0  0  0  0  0  0  0
  -26.3832  -29.7902   19.9577 C   0  0  0  0  0  0  0  0  0  0  0  0
  -24.2533  -31.0681   19.6772 C   0  0  0  0  0  0  0  0  0  0  0  0
  -22.6540  -13.9561   21.9305 C   0  0  0  0  0  0  0  0  0  0  0  0
  -22.8636  -16.8199   23.4394 C   0  0  0  0  0  0  0  0  0  0  0  0
  -24.3834  -19.8665   23.6743 C   0  0  0  0  0  0  0  0  0  0  0  0
  -30.0398  -25.2247   19.4787 C   0  0  0  0  0  0  0  0  0  0  0  0
  -20.6515   -9.3604   22.8935 C   0  0  0  0  0  0  0  0  0  0  0  0
  -25.1201  -14.0771   22.4402 C   0  0  0  0  0  0  0  0  0  0  0  0
  -24.1179  -16.5973   21.2616 C   0  0  0  0  0  0  0  0  0  0  0  0
  -20.3690  -10.7909   23.3454 C   0  0  0  0  0  0  0  0  0  0  0  0
  -30.1325  -27.6189   21.9701 C   0  0  0  0  0  0  0  0  0  0  0  0
  -20.2952  -11.7260   22.1425 C   0  0  0  0  0  0  0  0  0  0  0  0
  -28.7680  -28.3004   21.8701 C   0  0  0  0  0  0  0  0  0  0  0  0
  -28.2447  -19.1210   14.4655 C   0  0  0  0  0  0  0  0  0  0  0  0
  -28.2406  -20.5635   14.8644 C   0  0  0  0  0  0  0  0  0  0  0  0
  -28.5930  -22.0554   19.0541 C   0  0  0  0  0  0  0  0  0  0  0  0
  -30.3817  -22.5401   17.3292 C   0  0  0  0  0  0  0  0  0  0  0  0
  -30.0037  -26.1108   21.7904 C   0  0  0  0  0  0  0  0  0  0  0  0
  -28.2034  -23.5363   19.0341 C   0  0  0  0  0  0  0  0  0  0  0  0
  -29.9342  -23.9990   17.3303 C   0  0  0  0  0  0  0  0  0  0  0  0
  -27.9790  -26.3834   20.3959 C   0  0  0  0  0  0  0  0  0  0  0  0
  -21.6279  -11.7561   21.3846 C   0  0  1  0  0  0  0  0  0  0  0  0
  -29.2167  -21.6121   17.7184 C   0  0  0  0  0  0  0  0  0  0  0  0
  -23.7262  -14.6118   22.7539 C   0  0  1  0  0  0  0  0  0  0  0  0
  -28.0504  -19.4959   15.9161 C   0  0  0  0  0  0  0  0  0  0  0  0
  -28.0516  -27.9147   20.5637 C   0  0  1  0  0  0  0  0  0  0  0  0
  -31.4068  -20.1356   19.5699 C   0  0  0  0  0  0  0  0  0  0  0  0
  -31.4151  -17.0794   18.7223 C   0  0  0  0  0  0  0  0  0  0  0  0
  -30.4051  -16.1875   15.5697 C   0  0  0  0  0  0  0  0  0  0  0  0
  -24.3126  -22.0077   24.9810 C   0  0  0  0  0  0  0  0  0  0  0  0
  -20.3624  -17.6670   21.9110 C   0  0  0  0  0  0  0  0  0  0  0  0
  -20.8883  -20.0417   22.5050 C   0  0  0  0  0  0  0  0  0  0  0  0
  -20.4136  -18.3830   24.3067 C   0  0  0  0  0  0  0  0  0  0  0  0
  -27.1589  -19.5066   24.6365 C   0  0  0  0  0  0  0  0  0  0  0  0
  -28.6253  -15.6799   17.2832 C   0  0  0  0  0  0  0  0  0  1  0  0
  -29.2391  -16.7887   16.3893 C   0  0  1  0  0  0  0  0  0  0  0  0
  -22.6036  -18.2551   23.0499 C   0  0  1  0  0  0  0  0  0  0  0  0
  -24.9380  -20.6263   24.8657 C   0  0  2  0  0  0  0  0  0  0  0  0
  -21.0859  -18.5707   22.9292 C   0  0  0  0  0  0  0  0  0  0  0  0
  -25.6093  -27.8798   20.9060 N   0  0  0  0  0  0  0  0  0  0  0  0
  -29.0779  -19.2232   16.9042 N   0  0  0  0  0  0  0  0  0  0  0  0
  -26.6810  -28.5586   20.4623 N   0  0  0  0  0  0  0  0  0  0  0  0
  -23.6115  -16.0549   22.5332 N   0  0  0  0  0  0  0  0  0  0  0  0
  -29.3155  -25.7856   20.5413 N   0  0  0  0  0  0  0  0  0  0  0  0
  -29.3412  -24.3668   18.6158 N   0  0  0  0  0  0  0  0  0  0  0  0
  -27.3426  -30.6048   19.4693 N   0  0  0  0  0  0  0  0  0  0  0  0
  -22.8659  -31.0425   19.8741 N   0  0  0  0  0  0  0  0  0  0  0  0
  -22.5878  -12.5842   22.0826 N   0  0  0  0  0  0  0  0  0  0  0  0
  -23.3091  -19.0774   24.0269 N   0  0  0  0  0  0  0  0  0  0  0  0
  -26.4138  -20.7880   24.7356 N   0  3  0  0  0  0  0  0  0  0  0  0
  -24.7791  -32.0743   19.1436 O   0  0  0  0  0  0  0  0  0  0  0  0
  -21.9388  -14.6439   21.2115 O   0  0  0  0  0  0  0  0  0  0  0  0
  -22.4256  -16.3954   24.5115 O   0  0  0  0  0  0  0  0  0  0  0  0
  -24.8537  -19.9662   22.5431 O   0  0  0  0  0  0  0  0  0  0  0  0
  -31.2396  -25.4756   19.3097 O   0  0  0  0  0  0  0  0  0  0  0  0
  -19.3681  -27.2707   22.0129 O   0  0  0  0  0  0  0  0  0  0  0  0
  -27.2659  -16.0031   17.5535 O   0  0  0  0  0  0  0  0  0  1  0  0
  -16.2512  -31.0300   24.5735 F   0  0  0  0  0  0  0  0  0  0  0  0
  -18.3233  -26.7745   24.5239 F   0  0  0  0  0  0  0  0  0  0  0  0
  1  2  1  0  0  0  0
  1  5  2  0  0  0  0
  2  6  2  0  0  0  0
  3  8  2  0  0  0  0
  3 15  1  0  0  0  0
  4  9  1  0  0  0  0
  4 15  2  0  0  0  0
  5 17  1  0  0  0  0
  6 19  1  0  0  0  0
  7 10  2  0  0  0  0
  7 18  1  0  0  0  0
  8 23  1  0  0  0  0
  9 23  2  0  0  0  0
 10 24  1  0  0  0  0
 11 12  2  0  0  0  0
 11 25  1  0  0  0  0
 12 26  1  0  0  0  0
 13 20  1  0  0  0  0
 13 24  2  0  0  0  0
 14 26  2  0  0  0  0
 14 27  1  0  0  0  0
 15 28  1  0  0  0  0
 16 28  1  0  0  0  0
 16 31  2  0  0  0  0
 16 32  1  0  0  0  0
 17 19  2  0  0  0  0
 17 37  1  0  0  0  0
 18 20  2  0  0  0  0
 18 38  1  0  0  0  0
 19 52  1  0  0  0  0
 20 39  1  0  0  0  0
 21 22  1  0  0  0  0
 21 29  2  0  0  0  0
 21 57  1  0  0  0  0
 22 30  2  0  0  0  0
 22 58  1  0  0  0  0
 23 86  1  0  0  0  0
 24 87  1  0  0  0  0
 25 27  2  0  0  0  0
 25 86  1  0  0  0  0
 26 88  1  0  0  0  0
 27 89  1  0  0  0  0
 28 70  2  0  0  0  0
 29 53  1  0  0  0  0
 29 71  1  0  0  0  0
 30 66  1  0  0  0  0
 30 71  1  0  0  0  0
 31 72  1  0  0  0  0
 31 76  1  0  0  0  0
 32 77  1  0  0  0  0
 32 81  2  0  0  0  0
 33 54  1  0  0  0  0
 33 78  1  0  0  0  0
 33 82  2  0  0  0  0
 34 67  1  0  0  0  0
 34 73  1  0  0  0  0
 34 83  2  0  0  0  0
 35 68  1  0  0  0  0
 35 79  1  0  0  0  0
 35 84  2  0  0  0  0
 36 74  1  0  0  0  0
 36 75  1  0  0  0  0
 36 85  2  0  0  0  0
 37 40  1  0  0  0  0
 38 54  1  0  0  0  0
 39 73  1  0  0  0  0
 40 42  1  0  0  0  0
 41 43  1  0  0  0  0
 41 48  1  0  0  0  0
 42 52  1  0  0  0  0
 43 56  1  0  0  0  0
 44 45  1  0  0  0  0
 44 55  1  0  0  0  0
 45 55  1  0  0  0  0
 46 49  1  0  0  0  0
 46 53  1  0  0  0  0
 47 50  1  0  0  0  0
 47 53  1  0  0  0  0
 48 74  1  0  0  0  0
 49 75  1  0  0  0  0
 50 75  1  0  0  0  0
 51 56  1  0  0  0  0
 51 74  1  0  0  0  0
 52 78  1  0  0  0  0
 54 73  1  0  0  0  0
 55 71  1  0  0  0  0
 56 72  1  0  0  0  0
 59 66  1  0  0  0  0
 60 68  1  0  0  0  0
 61 69  1  0  0  0  0
 62 69  1  0  0  0  0
 63 69  1  0  0  0  0
 64 80  1  0  0  0  0
 65 66  1  0  0  0  0
 65 87  1  0  0  0  0
 67 69  1  0  0  0  0
 67 79  1  0  0  0  0
 68 80  1  0  0  0  0
 70 72  1  0  0  0  0
M  CHG  1  80   1
M  ISO  4  36 100  65 101  75 100  87 101
M  END
> <Batch ID>
0166

> <Smiles>
CNC(C)C(=O)NC(C(=O)N1Cc2cc([101O:1][101CH2:1]C(C)c3c(C)c(C)c(C4CC[100N:0]([100C:0](=O)N5CCCC(n6nc(-c7ccc(Oc8ccc(F)cc8F)cc7)c(C(N)=O)c6N)C5)CC4)n3C3CC3)ccc2CC1C(=O)NC1CCCc2ccccc21)C(C)(C)C

> <Shape>
0.243

> <Color>
0.085

> <Negative vol penalty>
0.000

$$$$

  -OEChem-04052322243D

 89 98  0     1  0  0  0  0  0999 V2000
  -23.0577  -16.1551   33.6972 C   0  0  0  0  0  0  0  0  0  0  0  0
  -23.4242  -16.4479   32.3875 C   0  0  0  0  0  0  0  0  0  0  0  0
  -23.0747   -9.8689   19.9419 C   0  0  0  0  0  0  0  0  0  0  0  0
  -23.8395   -9.8749   22.2337 C   0  0  0  0  0  0  0  0  0  0  0  0
  -23.8525  -15.3094   34.4698 C   0  0  0  0  0  0  0  0  0  0  0  0
  -24.5865  -15.8960   31.8500 C   0  0  0  0  0  0  0  0  0  0  0  0
  -23.8976  -14.0984   27.1661 C   0  0  0  0  0  0  0  0  0  0  0  0
  -22.3322   -8.7151   20.1927 C   0  0  0  0  0  0  0  0  0  0  0  0
  -23.0969   -8.7210   22.4845 C   0  0  0  0  0  0  0  0  0  0  0  0
  -23.8660  -15.0265   26.1262 C   0  0  0  0  0  0  0  0  0  0  0  0
  -19.8706   -7.9207   23.0934 C   0  0  0  0  0  0  0  0  0  0  0  0
  -19.1162   -7.8794   24.2659 C   0  0  0  0  0  0  0  0  0  0  0  0
  -26.1587  -14.4983   25.5933 C   0  0  0  0  0  0  0  0  0  0  0  0
  -30.2911  -17.2703   25.6320 C   0  0  0  0  0  0  0  0  0  0  0  0
  -29.4723  -18.4902   23.2605 C   0  0  0  0  0  0  0  0  0  0  0  0
  -20.3605   -5.9423   24.9984 C   0  0  0  0  0  0  0  0  0  0  0  0
  -23.8285  -10.4488   20.9624 C   0  0  0  0  0  0  0  0  0  0  0  0
  -24.1683  -12.9742   20.8434 C   0  0  0  0  0  0  0  0  0  0  0  0
  -25.0200  -14.7391   33.9384 C   0  0  0  0  0  0  0  0  0  0  0  0
  -25.0653  -13.3700   27.4348 C   0  0  0  0  0  0  0  0  0  0  0  0
  -25.3984  -15.0429   32.6167 C   0  0  0  0  0  0  0  0  0  0  0  0
  -26.2017  -13.5598   26.6356 C   0  0  0  0  0  0  0  0  0  0  0  0
  -30.7461  -16.7863   24.4055 C   0  0  0  0  0  0  0  0  0  0  0  0
  -30.3368  -17.3962   23.2198 C   0  0  0  0  0  0  0  0  0  0  0  0
  -29.0172  -18.9742   24.4870 C   0  0  0  0  0  0  0  0  0  0  0  0
  -22.3432   -8.1412   21.4640 C   0  0  0  0  0  0  0  0  0  0  0  0
  -24.9975  -15.2286   25.3414 C   0  0  0  0  0  0  0  0  0  0  0  0
  -20.8699   -6.9727   22.8733 C   0  0  0  0  0  0  0  0  0  0  0  0
  -29.4266  -18.3642   25.6728 C   0  0  0  0  0  0  0  0  0  0  0  0
  -19.3611   -6.8903   25.2184 C   0  0  0  0  0  0  0  0  0  0  0  0
  -21.1149   -5.9835   23.8258 C   0  0  0  0  0  0  0  0  0  0  0  0
  -24.5962  -11.6403   20.7038 C   0  0  0  0  0  0  0  0  0  0  0  0
  -25.2592  -13.7247   20.4783 C   0  0  0  0  0  0  0  0  0  0  0  0
  -22.8984  -13.4889   21.2654 C   0  0  0  0  0  0  0  0  0  0  0  0
  -27.0419  -13.1345   29.9130 C   0  0  0  0  0  0  0  0  0  0  0  0
  -28.3923  -10.7960   28.1158 C   0  0  0  0  0  0  0  0  0  0  0  0
  -28.9240   -9.4642   25.0189 C   0  0  0  0  0  0  0  0  0  0  0  0
  -30.7427  -14.7473   20.6556 C   0  0  0  0  0  0  0  0  0  0  0  0
  -25.8722  -13.8684   34.8273 C   0  0  0  0  0  0  0  0  0  0  0  0
  -25.0748  -12.3533   28.5432 C   0  0  0  0  0  0  0  0  0  0  0  0
  -27.4739  -12.7884   26.8700 C   0  0  0  0  0  0  0  0  0  0  0  0
  -26.8892  -13.0265   34.0611 C   0  0  0  0  0  0  0  0  0  0  0  0
  -29.6015  -12.3636   18.2696 C   0  0  0  0  0  0  0  0  0  0  0  0
  -31.0961  -14.2344   24.2070 C   0  0  0  0  0  0  0  0  0  0  0  0
  -31.6474  -14.6446   25.5367 C   0  0  0  0  0  0  0  0  0  0  0  0
  -27.6173  -13.8792   33.0269 C   0  0  0  0  0  0  0  0  0  0  0  0
  -28.1652  -12.0686   18.7054 C   0  0  0  0  0  0  0  0  0  0  0  0
  -30.5211  -12.5842   19.4687 C   0  0  0  0  0  0  0  0  0  0  0  0
  -28.6218  -13.3131   20.8598 C   0  0  0  0  0  0  0  0  0  0  0  0
  -31.6707  -15.6145   24.3853 C   0  0  0  0  0  0  0  0  0  0  0  0
  -26.6388  -14.4439   31.9900 C   0  0  1  0  0  0  0  0  0  0  0  0
  -26.4777  -12.0388   29.0536 C   0  0  1  0  0  0  0  0  0  0  0  0
  -27.6453  -13.1387   19.6842 C   0  0  2  0  0  0  0  0  0  0  0  0
  -28.7585  -21.4175   23.9419 C   0  0  0  0  0  0  0  0  0  0  0  0
  -29.7026   -7.8138   23.2964 C   0  0  0  0  0  0  0  0  0  0  0  0
  -31.0569  -12.2416   28.4617 C   0  0  0  0  0  0  0  0  0  0  0  0
  -31.9599  -10.8857   26.5606 C   0  0  0  0  0  0  0  0  0  0  0  0
  -31.1899   -9.7510   28.6444 C   0  0  0  0  0  0  0  0  0  0  0  0
  -26.4008   -7.9263   25.1836 C   0  0  0  0  0  0  0  0  0  0  0  0
  -29.4598  -18.1415   28.0403 C   0  0  0  0  0  0  0  0  0  0  0  0
  -30.8097  -16.8971   21.8938 C   0  0  0  0  0  0  0  0  0  0  0  0
  -24.7131  -18.4654   23.7942 C   0  0  0  0  0  0  0  0  0  0  0  0
  -26.7548  -19.9041   23.7742 C   0  0  0  0  0  0  0  0  0  0  0  0
  -24.1056  -17.2592   24.4828 C   0  0  0  0  0  0  0  0  0  1  0  0
  -28.0731  -20.1703   24.5125 C   0  0  1  0  0  0  0  0  0  0  0  0
  -29.4796  -10.7447   27.0698 C   0  0  1  0  0  0  0  0  0  0  0  0
  -28.7999   -8.0436   24.4985 C   0  0  2  0  0  0  0  0  0  0  0  0
  -30.8984  -10.9218   27.6807 C   0  0  0  0  0  0  0  0  0  0  0  0
  -25.8602  -11.5456   20.2828 N   0  0  0  0  0  0  0  0  0  0  0  0
  -26.2360  -12.8295   20.1545 N   0  0  0  0  0  0  0  0  0  0  0  0
  -27.4354  -11.8103   27.9697 N   0  0  0  0  0  0  0  0  0  0  0  0
  -29.9718  -13.6118   20.3565 N   0  0  0  0  0  0  0  0  0  0  0  0
  -25.4686  -15.0563   20.4057 N   0  0  0  0  0  0  0  0  0  0  0  0
  -21.8878  -12.5788   21.6042 N   0  0  0  0  0  0  0  0  0  0  0  0
  -26.2785  -13.4249   31.0276 N   0  0  0  0  0  0  0  0  0  0  0  0
  -29.2923   -9.4911   26.3474 N   0  0  0  0  0  0  0  0  0  0  0  0
  -30.1447  -15.6751   21.4995 N   0  0  0  0  0  0  0  0  0  0  0  0
  -27.3942   -7.7621   24.0913 N   0  3  0  0  0  0  0  0  0  0  0  0
  -26.0421  -18.7524   24.3905 N   0  3  0  0  0  0  0  0  0  0  0  0
  -22.6615  -14.7193   21.3240 O   0  0  0  0  0  0  0  0  0  0  0  0
  -28.0929  -13.6755   29.5896 O   0  0  0  0  0  0  0  0  0  0  0  0
  -28.3879   -9.9622   29.0249 O   0  0  0  0  0  0  0  0  0  0  0  0
  -28.7187  -10.4514   24.3162 O   0  0  0  0  0  0  0  0  0  0  0  0
  -31.8775  -14.9238   20.1996 O   0  0  0  0  0  0  0  0  0  0  0  0
  -21.6186   -7.0154   21.7091 O   0  0  0  0  0  0  0  0  0  0  0  0
  -28.9915  -18.8244   26.8792 O   0  0  0  0  0  0  0  0  0  0  0  0
  -24.9696  -16.1344   24.3261 O   0  0  0  0  0  0  0  0  0  1  0  0
  -18.6376   -6.8517   26.3450 F   0  0  0  0  0  0  0  0  0  0  0  0
  -22.0744   -5.0708   23.6205 F   0  0  0  0  0  0  0  0  0  0  0  0
  1  2  1  0  0  0  0
  1  5  2  0  0  0  0
  2  6  2  0  0  0  0
  3  8  2  0  0  0  0
  3 17  1  0  0  0  0
  4  9  1  0  0  0  0
  4 17  2  0  0  0  0
  5 19  1  0  0  0  0
  6 21  1  0  0  0  0
  7 10  2  0  0  0  0
  7 20  1  0  0  0  0
  8 26  1  0  0  0  0
  9 26  2  0  0  0  0
 10 27  1  0  0  0  0
 11 12  2  0  0  0  0
 11 28  1  0  0  0  0
 12 30  1  0  0  0  0
 13 22  1  0  0  0  0
 13 27  2  0  0  0  0
 14 23  2  0  0  0  0
 14 29  1  0  0  0  0
 15 24  2  0  0  0  0
 15 25  1  0  0  0  0
 16 30  2  0  0  0  0
 16 31  1  0  0  0  0
 17 32  1  0  0  0  0
 18 32  1  0  0  0  0
 18 33  2  0  0  0  0
 18 34  1  0  0  0  0
 19 21  2  0  0  0  0
 19 39  1  0  0  0  0
 20 22  2  0  0  0  0
 20 40  1  0  0  0  0
 21 51  1  0  0  0  0
 22 41  1  0  0  0  0
 23 24  1  0  0  0  0
 23 50  1  0  0  0  0
 24 61  1  0  0  0  0
 25 29  2  0  0  0  0
 25 65  1  0  0  0  0
 26 85  1  0  0  0  0
 27 87  1  0  0  0  0
 28 31  2  0  0  0  0
 28 85  1  0  0  0  0
 29 86  1  0  0  0  0
 30 88  1  0  0  0  0
 31 89  1  0  0  0  0
 32 69  2  0  0  0  0
 33 70  1  0  0  0  0
 33 73  1  0  0  0  0
 34 74  1  0  0  0  0
 34 80  2  0  0  0  0
 35 52  1  0  0  0  0
 35 75  1  0  0  0  0
 35 81  2  0  0  0  0
 36 66  1  0  0  0  0
 36 71  1  0  0  0  0
 36 82  2  0  0  0  0
 37 67  1  0  0  0  0
 37 76  1  0  0  0  0
 37 83  2  0  0  0  0
 38 72  1  0  0  0  0
 38 77  1  0  0  0  0
 38 84  2  0  0  0  0
 39 42  1  0  0  0  0
 40 52  1  0  0  0  0
 41 71  1  0  0  0  0
 42 46  1  0  0  0  0
 43 47  1  0  0  0  0
 43 48  1  0  0  0  0
 44 45  1  0  0  0  0
 44 50  1  0  0  0  0
 45 50  1  0  0  0  0
 46 51  1  0  0  0  0
 47 53  1  0  0  0  0
 48 72  1  0  0  0  0
 49 53  1  0  0  0  0
 49 72  1  0  0  0  0
 51 75  1  0  0  0  0
 52 71  1  0  0  0  0
 53 70  1  0  0  0  0
 54 65  1  0  0  0  0
 55 67  1  0  0  0  0
 56 68  1  0  0  0  0
 57 68  1  0  0  0  0
 58 68  1  0  0  0  0
 59 78  1  0  0  0  0
 60 86  1  0  0  0  0
 61 77  1  0  0  0  0
 62 64  1  0  0  0  0
 62 79  1  0  0  0  0
 63 65  1  0  0  0  0
 63 79  1  0  0  0  0
 64 87  1  0  0  0  0
 66 68  1  0  0  0  0
 66 76  1  0  0  0  0
 67 78  1  0  0  0  0
 69 70  1  0  0  0  0
M  CHG  2  78   1  79   1
M  ISO  4  38 100  64 101  77 100  87 101
M  END
> <Batch ID>
0166

> <Smiles>
CNC(C)C(=O)NC(C(=O)N1Cc2cc([101O:1][101CH2:1]CNCC(C)c3cc(C[100NH:0][100C:0](=O)N4CCCC(n5nc(-c6ccc(Oc7ccc(F)cc7F)cc6)c(C(N)=O)c5N)C4)c(C4CC4)cc3OC)ccc2CC1C(=O)NC1CCCc2ccccc21)C(C)(C)C

> <Shape>
0.163

> <Color>
0.184

> <Negative vol penalty>
0.000

$$$$

  -OEChem-04052322243D

 89 99  0     1  0  0  0  0  0999 V2000
  -31.0296  -35.2530   19.8828 C   0  0  0  0  0  0  0  0  0  0  0  0
  -30.5801  -34.0566   19.3333 C   0  0  0  0  0  0  0  0  0  0  0  0
  -22.7445   -9.8711   21.9464 C   0  0  0  0  0  0  0  0  0  0  0  0
  -24.7012   -9.1314   20.7376 C   0  0  0  0  0  0  0  0  0  0  0  0
  -30.7711  -35.5446   21.2215 C   0  0  0  0  0  0  0  0  0  0  0  0
  -29.8728  -33.1504   20.1226 C   0  0  0  0  0  0  0  0  0  0  0  0
  -25.3014  -29.4911   18.3288 C   0  0  0  0  0  0  0  0  0  0  0  0
  -22.2002   -8.5906   21.8491 C   0  0  0  0  0  0  0  0  0  0  0  0
  -24.1570   -7.8507   20.6404 C   0  0  0  0  0  0  0  0  0  0  0  0
  -25.2646  -28.1458   17.9649 C   0  0  0  0  0  0  0  0  0  0  0  0
  -20.4554   -5.4247   22.2338 C   0  0  0  0  0  0  0  0  0  0  0  0
  -19.8762   -4.8775   23.3787 C   0  0  0  0  0  0  0  0  0  0  0  0
  -28.8355  -20.6788   22.1541 C   0  0  0  0  0  0  0  0  0  0  0  0
  -29.3651  -18.4240   21.4669 C   0  0  0  0  0  0  0  0  0  0  0  0
  -28.7303  -20.0718   19.8180 C   0  0  0  0  0  0  0  0  0  0  0  0
  -24.6074  -27.5624   20.2114 C   0  0  0  0  0  0  0  0  0  0  0  0
  -21.9912   -5.0546   24.5331 C   0  0  0  0  0  0  0  0  0  0  0  0
  -23.9949  -10.1416   21.3906 C   0  0  0  0  0  0  0  0  0  0  0  0
  -25.3808  -11.9629   22.5175 C   0  0  0  0  0  0  0  0  0  0  0  0
  -30.0519  -34.6458   22.0251 C   0  0  0  0  0  0  0  0  0  0  0  0
  -25.0016  -29.8818   19.6418 C   0  0  0  0  0  0  0  0  0  0  0  0
  -29.6056  -33.4296   21.4737 C   0  0  0  0  0  0  0  0  0  0  0  0
  -29.2236  -19.3780   22.4747 C   0  0  0  0  0  0  0  0  0  0  0  0
  -28.5888  -21.0257   20.8257 C   0  0  0  0  0  0  0  0  0  0  0  0
  -24.6386  -28.9135   20.5888 C   0  0  0  0  0  0  0  0  0  0  0  0
  -29.1185  -18.7709   20.1385 C   0  0  0  0  0  0  0  0  0  0  0  0
  -22.9065   -7.5803   21.1962 C   0  0  0  0  0  0  0  0  0  0  0  0
  -24.9203  -27.1809   18.9070 C   0  0  0  0  0  0  0  0  0  0  0  0
  -21.8025   -5.7867   22.2385 C   0  0  0  0  0  0  0  0  0  0  0  0
  -20.6441   -4.6925   24.5283 C   0  0  0  0  0  0  0  0  0  0  0  0
  -22.5703   -5.6017   23.3882 C   0  0  0  0  0  0  0  0  0  0  0  0
  -24.5574  -11.4644   21.4902 C   0  0  0  0  0  0  0  0  0  0  0  0
  -25.6438  -13.2594   22.1481 C   0  0  0  0  0  0  0  0  0  0  0  0
  -25.8647  -11.3122   23.6999 C   0  0  0  0  0  0  0  0  0  0  0  0
  -26.6049  -31.3319   21.9721 C   0  0  0  0  0  0  0  0  0  0  0  0
  -23.7265  -31.2624   23.4661 C   0  0  0  0  0  0  0  0  0  0  0  0
  -20.6593  -29.7991   23.7792 C   0  0  0  0  0  0  0  0  0  0  0  0
  -27.0307  -17.0303   18.2749 C   0  0  0  0  0  0  0  0  0  0  0  0
  -29.8379  -34.9835   23.4793 C   0  0  0  0  0  0  0  0  0  0  0  0
  -25.0199  -31.3397   20.0115 C   0  0  0  0  0  0  0  0  0  0  0  0
  -24.2883  -29.2829   22.0063 C   0  0  0  0  0  0  0  0  0  0  0  0
  -28.7572  -34.1379   24.1483 C   0  0  0  0  0  0  0  0  0  0  0  0
  -23.5950  -16.1296   18.5217 C   0  0  0  0  0  0  0  0  0  0  0  0
  -28.7415  -17.8466   24.4986 C   0  0  0  0  0  0  0  0  0  0  0  0
  -28.4141  -19.2434   24.9252 C   0  0  0  0  0  0  0  0  0  0  0  0
  -28.9417  -32.6640   23.8016 C   0  0  0  0  0  0  0  0  0  0  0  0
  -23.6079  -14.8738   19.3951 C   0  0  0  0  0  0  0  0  0  0  0  0
  -29.1237  -23.1437   19.5191 C   0  0  0  0  0  0  0  0  0  0  0  0
  -24.8053  -16.1830   17.5921 C   0  0  0  0  0  0  0  0  0  0  0  0
  -26.1230  -14.7885   19.1391 C   0  0  0  0  0  0  0  0  0  0  0  0
  -28.3397  -24.3668   19.0812 C   0  0  0  0  0  0  0  0  0  0  0  0
  -29.4872  -19.0078   23.8942 C   0  0  0  0  0  0  0  0  0  0  0  0
  -28.1697  -22.4350   20.4777 C   0  0  1  0  0  0  0  0  0  0  0  0
  -28.8136  -32.4323   22.2911 C   0  0  1  0  0  0  0  0  0  0  0  0
  -25.1963  -31.5742   21.5086 C   0  0  1  0  0  0  0  0  0  0  0  0
  -24.9511  -14.7178   20.1331 C   0  0  2  0  0  0  0  0  0  0  0  0
  -26.8280  -22.5421   19.7418 C   0  0  1  0  0  0  0  0  0  0  0  0
  -25.6168  -22.4412   20.6565 C   0  0  0  0  0  0  0  0  0  0  0  0
  -18.5376  -29.9372   25.1121 C   0  0  0  0  0  0  0  0  0  0  0  0
  -25.1228  -29.9192   25.8233 C   0  0  0  0  0  0  0  0  0  0  0  0
  -22.8709  -29.2367   26.6785 C   0  0  0  0  0  0  0  0  0  0  0  0
  -23.4393  -31.6557   26.4597 C   0  0  0  0  0  0  0  0  0  0  0  0
  -19.0451  -30.3790   21.3673 C   0  0  0  0  0  0  0  0  0  0  0  0
  -29.2717  -17.7516   19.0604 C   0  0  0  0  0  0  0  0  0  0  0  0
  -26.2075  -24.0157   17.7774 C   0  0  0  0  0  0  0  0  0  0  0  0
  -25.7759  -25.4464   17.5229 C   0  0  0  0  0  0  0  0  0  1  0  0
  -23.0172  -30.2883   24.3755 C   0  0  1  0  0  0  0  0  0  0  0  0
  -19.2637  -30.3915   23.8555 C   0  0  2  0  0  0  0  0  0  0  0  0
  -23.6210  -30.2675   25.8081 C   0  0  0  0  0  0  0  0  0  0  0  0
  -24.3133  -12.3704   20.5396 N   0  0  0  0  0  0  0  0  0  0  0  0
  -24.9872  -13.4513   20.9681 N   0  0  0  0  0  0  0  0  0  0  0  0
  -24.3268  -30.7206   22.3208 N   0  0  0  0  0  0  0  0  0  0  0  0
  -26.0470  -16.0308   18.3544 N   0  0  0  0  0  0  0  0  0  0  0  0
  -26.3702  -14.2426   22.7208 N   0  0  0  0  0  0  0  0  0  0  0  0
  -25.4988   -9.9782   23.9257 N   0  0  0  0  0  0  0  0  0  0  0  0
  -27.4219  -32.4437   21.8944 N   0  0  0  0  0  0  0  0  0  0  0  0
  -21.6025  -30.6417   24.3283 N   0  0  0  0  0  0  0  0  0  0  0  0
  -28.1740  -16.8108   19.0336 N   0  0  0  0  0  0  0  0  0  0  0  0
  -26.8841  -23.9330   19.1120 N   0  3  2  0  0  0  0  0  0  0  0  0
  -18.4592  -29.9761   22.6717 N   0  3  0  0  0  0  0  0  0  0  0  0
  -26.5862  -11.9014   24.5399 O   0  0  0  0  0  0  0  0  0  0  0  0
  -26.9264  -30.2191   22.3721 O   0  0  0  0  0  0  0  0  0  0  0  0
  -23.7410  -32.4610   23.7575 O   0  0  0  0  0  0  0  0  0  0  0  0
  -20.8892  -28.6974   23.2854 O   0  0  0  0  0  0  0  0  0  0  0  0
  -26.8976  -18.0458   17.5835 O   0  0  0  0  0  0  0  0  0  0  0  0
  -22.3758   -6.3306   21.1013 O   0  0  0  0  0  0  0  0  0  0  0  0
  -24.8842  -25.8669   18.5546 O   0  0  0  0  0  0  0  0  0  1  0  0
  -20.0874   -4.1685   25.6282 F   0  0  0  0  0  0  0  0  0  0  0  0
  -23.8647   -5.9487   23.3992 F   0  0  0  0  0  0  0  0  0  0  0  0
  1  2  1  0  0  0  0
  1  5  2  0  0  0  0
  2  6  2  0  0  0  0
  3  8  2  0  0  0  0
  3 18  1  0  0  0  0
  4  9  1  0  0  0  0
  4 18  2  0  0  0  0
  5 20  1  0  0  0  0
  6 22  1  0  0  0  0
  7 10  2  0  0  0  0
  7 21  1  0  0  0  0
  8 27  1  0  0  0  0
  9 27  2  0  0  0  0
 10 28  1  0  0  0  0
 11 12  2  0  0  0  0
 11 29  1  0  0  0  0
 12 30  1  0  0  0  0
 13 23  1  0  0  0  0
 13 24  2  0  0  0  0
 14 23  2  0  0  0  0
 14 26  1  0  0  0  0
 15 24  1  0  0  0  0
 15 26  2  0  0  0  0
 16 25  1  0  0  0  0
 16 28  2  0  0  0  0
 17 30  2  0  0  0  0
 17 31  1  0  0  0  0
 18 32  1  0  0  0  0
 19 32  1  0  0  0  0
 19 33  2  0  0  0  0
 19 34  1  0  0  0  0
 20 22  2  0  0  0  0
 20 39  1  0  0  0  0
 21 25  2  0  0  0  0
 21 40  1  0  0  0  0
 22 54  1  0  0  0  0
 23 52  1  0  0  0  0
 24 53  1  0  0  0  0
 25 41  1  0  0  0  0
 26 64  1  0  0  0  0
 27 86  1  0  0  0  0
 28 87  1  0  0  0  0
 29 31  2  0  0  0  0
 29 86  1  0  0  0  0
 30 88  1  0  0  0  0
 31 89  1  0  0  0  0
 32 70  2  0  0  0  0
 33 71  1  0  0  0  0
 33 74  1  0  0  0  0
 34 75  1  0  0  0  0
 34 81  2  0  0  0  0
 35 55  1  0  0  0  0
 35 76  1  0  0  0  0
 35 82  2  0  0  0  0
 36 67  1  0  0  0  0
 36 72  1  0  0  0  0
 36 83  2  0  0  0  0
 37 68  1  0  0  0  0
 37 77  1  0  0  0  0
 37 84  2  0  0  0  0
 38 73  1  0  0  0  0
 38 78  1  0  0  0  0
 38 85  2  0  0  0  0
 39 42  1  0  0  0  0
 40 55  1  0  0  0  0
 41 72  1  0  0  0  0
 42 46  1  0  0  0  0
 43 47  1  0  0  0  0
 43 49  1  0  0  0  0
 44 45  1  0  0  0  0
 44 52  1  0  0  0  0
 45 52  1  0  0  0  0
 46 54  1  0  0  0  0
 47 56  1  0  0  0  0
 48 51  1  0  0  0  0
 48 53  1  0  0  0  0
 49 73  1  0  0  0  0
 50 56  1  0  0  0  0
 50 73  1  0  0  0  0
 51 79  1  0  0  0  0
 53 57  1  0  0  0  0
 54 76  1  0  0  0  0
 55 72  1  0  0  0  0
 56 71  1  0  0  0  0
 57 58  1  0  0  0  0
 57 79  1  0  0  0  0
 59 68  1  0  0  0  0
 60 69  1  0  0  0  0
 61 69  1  0  0  0  0
 62 69  1  0  0  0  0
 63 80  1  0  0  0  0
 64 78  1  0  0  0  0
 65 66  1  0  0  0  0
 65 79  1  0  0  0  0
 66 87  1  0  0  0  0
 67 69  1  0  0  0  0
 67 77  1  0  0  0  0
 68 80  1  0  0  0  0
 70 71  1  0  0  0  0
M  CHG  2  79   1  80   1
M  ISO  4  38 100  66 101  78 100  87 101
M  END
> <Batch ID>
0166

> <Smiles>
CNC(C)C(=O)NC(C(=O)N1Cc2cc([101O:1][101CH2:1]CN3CCC(c4cc(C[100NH:0][100C:0](=O)N5CCCC(n6nc(-c7ccc(Oc8ccc(F)cc8F)cc7)c(C(N)=O)c6N)C5)cc(C5CC5)c4)C3C)ccc2CC1C(=O)NC1CCCc2ccccc21)C(C)(C)C

> <Shape>
0.258

> <Color>
0.084

> <Negative vol penalty>
0.000

$$$$

  -OEChem-04052322243D

 91101  0     1  0  0  0  0  0999 V2000
  -28.4509  -24.1394   18.2109 C   0  0  0  0  0  0  0  0  0  0  0  0
  -27.2389  -24.4237   18.8319 C   0  0  0  0  0  0  0  0  0  0  0  0
  -25.0542  -13.0357   21.2017 C   0  0  0  0  0  0  0  0  0  0  0  0
  -25.9724  -12.6248   19.0051 C   0  0  0  0  0  0  0  0  0  0  0  0
  -29.6240  -24.7397   18.6664 C   0  0  0  0  0  0  0  0  0  0  0  0
  -27.1995  -25.3076   19.9097 C   0  0  0  0  0  0  0  0  0  0  0  0
  -23.3823  -28.6179   19.5686 C   0  0  0  0  0  0  0  0  0  0  0  0
  -24.1466  -11.9926   21.0175 C   0  0  0  0  0  0  0  0  0  0  0  0
  -25.0649  -11.5817   18.8209 C   0  0  0  0  0  0  0  0  0  0  0  0
  -22.1099  -28.1596   19.9072 C   0  0  0  0  0  0  0  0  0  0  0  0
  -21.8278   -9.2043   21.2695 C   0  0  0  0  0  0  0  0  0  0  0  0
  -21.6469   -8.3084   22.3231 C   0  0  0  0  0  0  0  0  0  0  0  0
  -21.1599  -23.5094   21.3028 C   0  0  0  0  0  0  0  0  0  0  0  0
  -22.3223  -29.1917   22.0772 C   0  0  0  0  0  0  0  0  0  0  0  0
  -19.7943  -24.3567   23.5832 C   0  0  0  0  0  0  0  0  0  0  0  0
  -23.9876   -7.7180   22.2229 C   0  0  0  0  0  0  0  0  0  0  0  0
  -25.9671  -13.3518   20.1955 C   0  0  0  0  0  0  0  0  0  0  0  0
  -28.1954  -14.3457   20.9401 C   0  0  0  0  0  0  0  0  0  0  0  0
  -29.5975  -25.6388   19.7441 C   0  0  0  0  0  0  0  0  0  0  0  0
  -24.1400  -29.3585   20.4872 C   0  0  0  0  0  0  0  0  0  0  0  0
  -28.3735  -25.9195   20.3809 C   0  0  0  0  0  0  0  0  0  0  0  0
  -21.5118  -23.0041   22.5545 C   0  0  0  0  0  0  0  0  0  0  0  0
  -20.1253  -24.4383   21.1914 C   0  0  0  0  0  0  0  0  0  0  0  0
  -23.6030  -29.6605   21.7468 C   0  0  0  0  0  0  0  0  0  0  0  0
  -20.8290  -23.4278   23.6946 C   0  0  0  0  0  0  0  0  0  0  0  0
  -19.4425  -24.8619   22.3315 C   0  0  0  0  0  0  0  0  0  0  0  0
  -24.1520  -11.2656   19.8271 C   0  0  0  0  0  0  0  0  0  0  0  0
  -21.5809  -28.4440   21.1627 C   0  0  0  0  0  0  0  0  0  0  0  0
  -23.0886   -9.3571   20.6925 C   0  0  0  0  0  0  0  0  0  0  0  0
  -22.7268   -7.5652   22.7998 C   0  0  0  0  0  0  0  0  0  0  0  0
  -24.1684   -8.6140   21.1692 C   0  0  0  0  0  0  0  0  0  0  0  0
  -26.9044  -14.4296   20.3850 C   0  0  0  0  0  0  0  0  0  0  0  0
  -28.6718  -15.6332   20.8975 C   0  0  0  0  0  0  0  0  0  0  0  0
  -28.9009  -13.2058   21.4487 C   0  0  0  0  0  0  0  0  0  0  0  0
  -26.9286  -28.9352   21.9527 C   0  0  0  0  0  0  0  0  0  0  0  0
  -26.3913  -31.9559   23.0057 C   0  0  0  0  0  0  0  0  0  0  0  0
  -24.1396  -34.4252   23.6980 C   0  0  0  0  0  0  0  0  0  0  0  0
  -26.1823  -20.9480   20.8662 C   0  0  0  0  0  0  0  0  0  0  0  0
  -30.8982  -26.2266   20.2313 C   0  0  0  0  0  0  0  0  0  0  0  0
  -25.5001  -29.8684   20.0968 C   0  0  0  0  0  0  0  0  0  0  0  0
  -24.3676  -30.4691   22.7617 C   0  0  0  0  0  0  0  0  0  0  0  0
  -30.7161  -27.4399   21.1396 C   0  0  0  0  0  0  0  0  0  0  0  0
  -28.2827  -19.6996   18.4211 C   0  0  0  0  0  0  0  0  0  0  0  0
  -18.6514  -24.3061   19.0738 C   0  0  0  0  0  0  0  0  0  0  0  0
  -20.0689  -24.1318   18.6260 C   0  0  0  0  0  0  0  0  0  0  0  0
  -29.6464  -27.1635   22.1914 C   0  0  0  0  0  0  0  0  0  0  0  0
  -28.3031  -18.1956   18.6929 C   0  0  0  0  0  0  0  0  0  0  0  0
  -22.7176  -21.0937   21.4064 C   0  0  0  0  0  0  0  0  0  0  0  0
  -23.9982  -22.6723   22.9156 C   0  0  0  0  0  0  0  0  0  0  0  0
  -26.8774  -20.2655   18.5898 C   0  0  0  0  0  0  0  0  0  0  0  0
  -23.8792  -20.1000   21.4967 C   0  0  0  0  0  0  0  0  0  0  0  0
  -25.1141  -21.6343   22.9914 C   0  0  0  0  0  0  0  0  0  0  0  0
  -26.2900  -18.4987   20.2181 C   0  0  0  0  0  0  0  0  0  0  0  0
  -19.7654  -24.9659   19.8420 C   0  0  0  0  0  0  0  0  0  0  0  0
  -22.6409  -21.9956   22.6515 C   0  0  0  0  0  0  0  0  0  0  0  0
  -28.2864  -26.8920   21.5371 C   0  0  1  0  0  0  0  0  0  0  0  0
  -26.3903  -30.1754   21.2971 C   0  0  1  0  0  0  0  0  0  0  0  0
  -27.6920  -17.8738   20.0682 C   0  0  1  0  0  0  0  0  0  0  0  0
  -21.1863  -22.9001   25.0454 C   0  0  0  0  0  0  0  0  0  0  0  0
  -16.9941  -25.2066   22.6668 C   0  0  0  0  0  0  0  0  0  0  0  0
  -23.9965  -36.7693   24.5825 C   0  0  0  0  0  0  0  0  0  0  0  0
  -26.8169  -30.9097   25.8402 C   0  0  0  0  0  0  0  0  0  0  0  0
  -25.7486  -33.0047   26.6992 C   0  0  0  0  0  0  0  0  0  0  0  0
  -27.8627  -33.1346   25.3814 C   0  0  0  0  0  0  0  0  0  0  0  0
  -22.9800  -35.4328   21.1683 C   0  0  0  0  0  0  0  0  0  0  0  0
  -20.0456  -27.7012   22.8684 C   0  0  0  0  0  0  0  0  0  1  0  0
  -18.3314  -25.8560   22.2386 C   0  0  1  0  0  0  0  0  0  0  0  0
  -25.7003  -32.5639   24.2023 C   0  0  1  0  0  0  0  0  0  0  0  0
  -24.1208  -35.9005   23.3406 C   0  0  2  0  0  0  0  0  0  0  0  0
  -18.6197  -27.1648   23.0420 C   0  0  2  0  0  0  0  0  0  0  0  0
  -26.5182  -32.3863   25.5126 C   0  0  0  0  0  0  0  0  0  0  0  0
  -26.5812  -15.6722   20.0170 N   0  0  0  0  0  0  0  0  0  0  0  0
  -27.6759  -16.3809   20.3415 N   0  0  0  0  0  0  0  0  0  0  0  0
  -25.6957  -30.9399   22.3351 N   0  0  0  0  0  0  0  0  0  0  0  0
  -26.3309  -19.9358   19.9060 N   0  0  0  0  0  0  0  0  0  0  0  0
  -25.1381  -20.7985   21.7913 N   0  0  0  0  0  0  0  0  0  0  0  0
  -29.8413  -16.1873   21.2819 N   0  0  0  0  0  0  0  0  0  0  0  0
  -28.2646  -11.9574   21.4170 N   0  0  0  0  0  0  0  0  0  0  0  0
  -27.6741  -28.1321   21.1108 N   0  0  0  0  0  0  0  0  0  0  0  0
  -25.4260  -33.9535   23.8528 N   0  0  0  0  0  0  0  0  0  0  0  0
  -17.6850  -28.2529   22.6105 N   0  3  0  0  0  0  0  0  0  0  0  0
  -22.9720  -36.2007   22.4400 N   0  3  0  0  0  0  0  0  0  0  0  0
  -30.0549  -13.2945   21.9324 O   0  0  0  0  0  0  0  0  0  0  0  0
  -26.6869  -28.7234   23.1353 O   0  0  0  0  0  0  0  0  0  0  0  0
  -27.5040  -32.3722   22.6738 O   0  0  0  0  0  0  0  0  0  0  0  0
  -23.1154  -33.7589   23.8306 O   0  0  0  0  0  0  0  0  0  0  0  0
  -26.9381  -21.9273   20.8963 O   0  0  0  0  0  0  0  0  0  0  0  0
  -23.2667  -10.2476   19.6470 O   0  0  0  0  0  0  0  0  0  0  0  0
  -20.3148  -27.9885   21.5027 O   0  0  0  0  0  0  0  0  0  1  0  0
  -22.5533   -6.7060   23.8126 F   0  0  0  0  0  0  0  0  0  0  0  0
  -25.3822   -8.7573   20.6197 F   0  0  0  0  0  0  0  0  0  0  0  0
  1  2  1  0  0  0  0
  1  5  2  0  0  0  0
  2  6  2  0  0  0  0
  3  8  2  0  0  0  0
  3 17  1  0  0  0  0
  4  9  1  0  0  0  0
  4 17  2  0  0  0  0
  5 19  1  0  0  0  0
  6 21  1  0  0  0  0
  7 10  2  0  0  0  0
  7 20  1  0  0  0  0
  8 27  1  0  0  0  0
  9 27  2  0  0  0  0
 10 28  1  0  0  0  0
 11 12  2  0  0  0  0
 11 29  1  0  0  0  0
 12 30  1  0  0  0  0
 13 22  2  0  0  0  0
 13 23  1  0  0  0  0
 14 24  1  0  0  0  0
 14 28  2  0  0  0  0
 15 25  2  0  0  0  0
 15 26  1  0  0  0  0
 16 30  2  0  0  0  0
 16 31  1  0  0  0  0
 17 32  1  0  0  0  0
 18 32  1  0  0  0  0
 18 33  2  0  0  0  0
 18 34  1  0  0  0  0
 19 21  2  0  0  0  0
 19 39  1  0  0  0  0
 20 24  2  0  0  0  0
 20 40  1  0  0  0  0
 21 56  1  0  0  0  0
 22 25  1  0  0  0  0
 22 55  1  0  0  0  0
 23 26  2  0  0  0  0
 23 54  1  0  0  0  0
 24 41  1  0  0  0  0
 25 59  1  0  0  0  0
 26 67  1  0  0  0  0
 27 88  1  0  0  0  0
 28 89  1  0  0  0  0
 29 31  2  0  0  0  0
 29 88  1  0  0  0  0
 30 90  1  0  0  0  0
 31 91  1  0  0  0  0
 32 72  2  0  0  0  0
 33 73  1  0  0  0  0
 33 77  1  0  0  0  0
 34 78  1  0  0  0  0
 34 83  2  0  0  0  0
 35 57  1  0  0  0  0
 35 79  1  0  0  0  0
 35 84  2  0  0  0  0
 36 68  1  0  0  0  0
 36 74  1  0  0  0  0
 36 85  2  0  0  0  0
 37 69  1  0  0  0  0
 37 80  1  0  0  0  0
 37 86  2  0  0  0  0
 38 75  1  0  0  0  0
 38 76  1  0  0  0  0
 38 87  2  0  0  0  0
 39 42  1  0  0  0  0
 40 57  1  0  0  0  0
 41 74  1  0  0  0  0
 42 46  1  0  0  0  0
 43 47  1  0  0  0  0
 43 50  1  0  0  0  0
 44 45  1  0  0  0  0
 44 54  1  0  0  0  0
 45 54  1  0  0  0  0
 46 56  1  0  0  0  0
 47 58  1  0  0  0  0
 48 51  1  0  0  0  0
 48 55  1  0  0  0  0
 49 52  1  0  0  0  0
 49 55  1  0  0  0  0
 50 75  1  0  0  0  0
 51 76  1  0  0  0  0
 52 76  1  0  0  0  0
 53 58  1  0  0  0  0
 53 75  1  0  0  0  0
 56 79  1  0  0  0  0
 57 74  1  0  0  0  0
 58 73  1  0  0  0  0
 60 67  1  0  0  0  0
 61 69  1  0  0  0  0
 62 71  1  0  0  0  0
 63 71  1  0  0  0  0
 64 71  1  0  0  0  0
 65 82  1  0  0  0  0
 66 70  1  0  0  0  0
 66 89  1  0  0  0  0
 67 70  1  0  0  0  0
 68 71  1  0  0  0  0
 68 80  1  0  0  0  0
 69 82  1  0  0  0  0
 70 81  1  0  0  0  0
 72 73  1  0  0  0  0
M  CHG  2  81   1  82   1
M  ISO  4  38 100  66 101  76 100  89 101
M  END
> <Batch ID>
0166

> <Smiles>
CNC(C)C(=O)NC(C(=O)N1Cc2cc([101O:1][101CH2:1]C(N)C(C)c3cc(C)c(C4CC[100N:0]([100C:0](=O)N5CCCC(n6nc(-c7ccc(Oc8ccc(F)cc8F)cc7)c(C(N)=O)c6N)C5)CC4)cc3C3CC3)ccc2CC1C(=O)NC1CCCc2ccccc21)C(C)(C)C

> <Shape>
0.349

> <Color>
0.059

> <Negative vol penalty>
0.000

$$$$

  -OEChem-04052322243D

 85 94  0     1  0  0  0  0  0999 V2000
  -27.8426  -37.5068   26.4102 C   0  0  0  0  0  0  0  0  0  0  0  0
  -28.5423  -36.5816   25.6422 C   0  0  0  0  0  0  0  0  0  0  0  0
  -24.4696   -9.1209   22.1707 C   0  0  0  0  0  0  0  0  0  0  0  0
  -23.6807   -9.4409   19.9097 C   0  0  0  0  0  0  0  0  0  0  0  0
  -26.5589  -37.2060   26.8637 C   0  0  0  0  0  0  0  0  0  0  0  0
  -27.9591  -35.3546   25.3281 C   0  0  0  0  0  0  0  0  0  0  0  0
  -27.7700  -30.4314   20.1278 C   0  0  0  0  0  0  0  0  0  0  0  0
  -23.3920   -8.2731   22.4267 C   0  0  0  0  0  0  0  0  0  0  0  0
  -22.6031   -8.5931   20.1657 C   0  0  0  0  0  0  0  0  0  0  0  0
  -27.9382  -29.0608   19.9356 C   0  0  0  0  0  0  0  0  0  0  0  0
  -22.5420   -5.0629   21.7902 C   0  0  0  0  0  0  0  0  0  0  0  0
  -22.8022   -3.8685   22.4620 C   0  0  0  0  0  0  0  0  0  0  0  0
  -25.6841  -28.6822   20.7069 C   0  0  0  0  0  0  0  0  0  0  0  0
  -28.2085  -24.3883   18.0853 C   0  0  0  0  0  0  0  0  0  0  0  0
  -21.3084   -4.5416   24.2375 C   0  0  0  0  0  0  0  0  0  0  0  0
  -24.6140   -9.7048   20.9122 C   0  0  0  0  0  0  0  0  0  0  0  0
  -26.9945  -10.2197   20.1535 C   0  0  0  0  0  0  0  0  0  0  0  0
  -25.9559  -35.9786   26.5468 C   0  0  0  0  0  0  0  0  0  0  0  0
  -26.5593  -30.9375   20.6222 C   0  0  0  0  0  0  0  0  0  0  0  0
  -26.6666  -35.0365   25.7788 C   0  0  0  0  0  0  0  0  0  0  0  0
  -25.5023  -30.0598   20.9021 C   0  0  0  0  0  0  0  0  0  0  0  0
  -28.3056  -24.9302   19.3621 C   0  0  0  0  0  0  0  0  0  0  0  0
  -28.1942  -23.0076   17.9215 C   0  0  0  0  0  0  0  0  0  0  0  0
  -22.4587   -8.0092   21.4242 C   0  0  0  0  0  0  0  0  0  0  0  0
  -26.8962  -28.1857   20.2279 C   0  0  0  0  0  0  0  0  0  0  0  0
  -21.6650   -5.9968   22.3422 C   0  0  0  0  0  0  0  0  0  0  0  0
  -22.1854   -3.6078   23.6856 C   0  0  0  0  0  0  0  0  0  0  0  0
  -21.0482   -5.7361   23.5658 C   0  0  0  0  0  0  0  0  0  0  0  0
  -25.7266  -10.5811   20.6472 C   0  0  0  0  0  0  0  0  0  0  0  0
  -28.3852  -24.0555   20.4337 C   0  0  0  0  0  0  0  0  0  0  0  0
  -28.2791  -22.2189   19.0575 C   0  0  0  0  0  0  0  0  0  0  0  0
  -27.6847  -11.4049   20.0795 C   0  0  0  0  0  0  0  0  0  0  0  0
  -27.5028   -8.9283   19.7939 C   0  0  0  0  0  0  0  0  0  0  0  0
  -25.6975  -32.5526   23.2208 C   0  0  0  0  0  0  0  0  0  0  0  0
  -22.8213  -32.6605   21.7249 C   0  0  0  0  0  0  0  0  0  0  0  0
  -20.6877  -31.2827   19.4454 C   0  0  0  0  0  0  0  0  0  0  0  0
  -28.1371  -16.6018   18.8022 C   0  0  0  0  0  0  0  0  0  0  0  0
  -24.5848  -35.6793   27.0993 C   0  0  0  0  0  0  0  0  0  0  0  0
  -26.3847  -32.4210   20.7987 C   0  0  0  0  0  0  0  0  0  0  0  0
  -24.1757  -30.5545   21.4158 C   0  0  0  0  0  0  0  0  0  0  0  0
  -23.8918  -34.5080   26.4078 C   0  0  0  0  0  0  0  0  0  0  0  0
  -26.5808  -15.9889   21.8912 C   0  0  0  0  0  0  0  0  0  0  0  0
  -24.8503  -33.3302   26.2637 C   0  0  0  0  0  0  0  0  0  0  0  0
  -26.3170  -14.4859   21.8055 C   0  0  0  0  0  0  0  0  0  0  0  0
  -26.3147  -16.6942   20.5603 C   0  0  0  0  0  0  0  0  0  0  0  0
  -29.4105  -20.0388   19.3657 C   0  0  0  0  0  0  0  0  0  0  0  0
  -26.9596  -20.1539   18.8904 C   0  0  0  0  0  0  0  0  0  0  0  0
  -29.4619  -18.6785   18.6753 C   0  0  0  0  0  0  0  0  0  0  0  0
  -27.0568  -18.7990   18.1980 C   0  0  0  0  0  0  0  0  0  0  0  0
  -26.7748  -14.6003   19.3266 C   0  0  0  0  0  0  0  0  0  0  0  0
  -26.0582  -33.7048   25.3964 C   0  0  1  0  0  0  0  0  0  0  0  0
  -25.2851  -32.7790   21.7938 C   0  0  1  0  0  0  0  0  0  0  0  0
  -27.0897  -13.8554   20.6333 C   0  0  2  0  0  0  0  0  0  0  0  0
  -28.0901  -22.4297   16.5510 C   0  0  0  0  0  0  0  0  0  0  0  0
  -28.4908  -24.5815   21.8277 C   0  0  0  0  0  0  0  0  0  0  0  0
  -18.3939  -31.5706   18.4692 C   0  0  0  0  0  0  0  0  0  0  0  0
  -21.5964  -31.4987   24.2665 C   0  0  0  0  0  0  0  0  0  0  0  0
  -19.5517  -30.9306   22.9381 C   0  0  0  0  0  0  0  0  0  0  0  0
  -20.2490  -33.3120   23.1937 C   0  0  0  0  0  0  0  0  0  0  0  0
  -21.7711  -31.6832   16.7206 C   0  0  0  0  0  0  0  0  0  0  0  0
  -28.3213  -26.4088   19.5442 C   0  0  0  0  0  0  0  0  0  1  0  0
  -21.5955  -31.7797   21.7000 C   0  0  1  0  0  0  0  0  0  0  0  0
  -19.8709  -31.9036   18.3266 C   0  0  2  0  0  0  0  0  0  0  0  0
  -20.7737  -31.8705   23.0168 C   0  0  0  0  0  0  0  0  0  0  0  0
  -25.6153  -11.8931   20.8712 N   0  0  0  0  0  0  0  0  0  0  0  0
  -28.3744  -22.7090   20.3138 N   0  0  0  0  0  0  0  0  0  0  0  0
  -26.8220  -12.3666   20.5167 N   0  0  0  0  0  0  0  0  0  0  0  0
  -28.2655  -20.8274   18.8977 N   0  0  0  0  0  0  0  0  0  0  0  0
  -24.0561  -32.0129   21.5778 N   0  0  0  0  0  0  0  0  0  0  0  0
  -27.0401  -16.0336   19.4668 N   0  0  0  0  0  0  0  0  0  0  0  0
  -28.1708  -18.0025   18.7165 N   0  0  0  0  0  0  0  0  0  0  0  0
  -28.9394  -11.7078   19.6839 N   0  0  0  0  0  0  0  0  0  0  0  0
  -26.6604   -7.8166   19.9313 N   0  0  0  0  0  0  0  0  0  0  0  0
  -25.6960  -33.6970   23.9952 N   0  0  0  0  0  0  0  0  0  0  0  0
  -20.8492  -32.1524   20.5031 N   0  0  0  0  0  0  0  0  0  0  0  0
  -20.3399  -31.4030   17.0035 N   0  3  0  0  0  0  0  0  0  0  0  0
  -28.6750   -8.7627   19.3789 O   0  0  0  0  0  0  0  0  0  0  0  0
  -25.9937  -31.4229   23.5921 O   0  0  0  0  0  0  0  0  0  0  0  0
  -22.6876  -33.8791   21.8624 O   0  0  0  0  0  0  0  0  0  0  0  0
  -21.1343  -30.1391   19.3885 O   0  0  0  0  0  0  0  0  0  0  0  0
  -29.0348  -15.9022   18.3168 O   0  0  0  0  0  0  0  0  0  0  0  0
  -21.4072   -7.1818   21.6737 O   0  0  0  0  0  0  0  0  0  0  0  0
  -27.0590  -26.8384   20.0405 O   0  0  0  0  0  0  0  0  0  1  0  0
  -22.4341   -2.4601   24.3298 F   0  0  0  0  0  0  0  0  0  0  0  0
  -20.2038   -6.6289   24.1004 F   0  0  0  0  0  0  0  0  0  0  0  0
  1  2  1  0  0  0  0
  1  5  2  0  0  0  0
  2  6  2  0  0  0  0
  3  8  2  0  0  0  0
  3 16  1  0  0  0  0
  4  9  1  0  0  0  0
  4 16  2  0  0  0  0
  5 18  1  0  0  0  0
  6 20  1  0  0  0  0
  7 10  2  0  0  0  0
  7 19  1  0  0  0  0
  8 24  1  0  0  0  0
  9 24  2  0  0  0  0
 10 25  1  0  0  0  0
 11 12  2  0  0  0  0
 11 26  1  0  0  0  0
 12 27  1  0  0  0  0
 13 21  1  0  0  0  0
 13 25  2  0  0  0  0
 14 22  1  0  0  0  0
 14 23  2  0  0  0  0
 15 27  2  0  0  0  0
 15 28  1  0  0  0  0
 16 29  1  0  0  0  0
 17 29  1  0  0  0  0
 17 32  2  0  0  0  0
 17 33  1  0  0  0  0
 18 20  2  0  0  0  0
 18 38  1  0  0  0  0
 19 21  2  0  0  0  0
 19 39  1  0  0  0  0
 20 51  1  0  0  0  0
 21 40  1  0  0  0  0
 22 30  2  0  0  0  0
 22 61  1  0  0  0  0
 23 31  1  0  0  0  0
 23 54  1  0  0  0  0
 24 82  1  0  0  0  0
 25 83  1  0  0  0  0
 26 28  2  0  0  0  0
 26 82  1  0  0  0  0
 27 84  1  0  0  0  0
 28 85  1  0  0  0  0
 29 65  2  0  0  0  0
 30 55  1  0  0  0  0
 30 66  1  0  0  0  0
 31 66  2  0  0  0  0
 31 68  1  0  0  0  0
 32 67  1  0  0  0  0
 32 72  1  0  0  0  0
 33 73  1  0  0  0  0
 33 77  2  0  0  0  0
 34 52  1  0  0  0  0
 34 74  1  0  0  0  0
 34 78  2  0  0  0  0
 35 62  1  0  0  0  0
 35 69  1  0  0  0  0
 35 79  2  0  0  0  0
 36 63  1  0  0  0  0
 36 75  1  0  0  0  0
 36 80  2  0  0  0  0
 37 70  1  0  0  0  0
 37 71  1  0  0  0  0
 37 81  2  0  0  0  0
 38 41  1  0  0  0  0
 39 52  1  0  0  0  0
 40 69  1  0  0  0  0
 41 43  1  0  0  0  0
 42 44  1  0  0  0  0
 42 45  1  0  0  0  0
 43 51  1  0  0  0  0
 44 53  1  0  0  0  0
 45 70  1  0  0  0  0
 46 48  1  0  0  0  0
 46 68  1  0  0  0  0
 47 49  1  0  0  0  0
 47 68  1  0  0  0  0
 48 71  1  0  0  0  0
 49 71  1  0  0  0  0
 50 53  1  0  0  0  0
 50 70  1  0  0  0  0
 51 74  1  0  0  0  0
 52 69  1  0  0  0  0
 53 67  1  0  0  0  0
 56 63  1  0  0  0  0
 57 64  1  0  0  0  0
 58 64  1  0  0  0  0
 59 64  1  0  0  0  0
 60 76  1  0  0  0  0
 61 83  1  0  0  0  0
 62 64  1  0  0  0  0
 62 75  1  0  0  0  0
 63 76  1  0  0  0  0
 65 67  1  0  0  0  0
M  CHG  1  76   1
M  ISO  4  37 100  61 101  71 100  83 101
M  END
> <Batch ID>
0166

> <Smiles>
CNC(C)C(=O)NC(C(=O)N1Cc2cc([101O:1][101CH2:1]c3cc(C)c(N4CC[100N:0]([100C:0](=O)N5CCCC(n6nc(-c7ccc(Oc8ccc(F)cc8F)cc7)c(C(N)=O)c6N)C5)CC4)nc3C)ccc2CC1C(=O)NC1CCCc2ccccc21)C(C)(C)C

> <Shape>
0.283

> <Color>
0.086

> <Negative vol penalty>
0.000

$$$$

  -OEChem-04052322243D

 87 97  0     1  0  0  0  0  0999 V2000
  -26.7533  -38.0944   20.3019 C   0  0  0  0  0  0  0  0  0  0  0  0
  -27.3670  -36.8707   20.0537 C   0  0  0  0  0  0  0  0  0  0  0  0
  -22.0798  -13.3662   22.5449 C   0  0  0  0  0  0  0  0  0  0  0  0
  -21.9013  -14.3519   20.3464 C   0  0  0  0  0  0  0  0  0  0  0  0
  -25.7978  -38.2016   21.3115 C   0  0  0  0  0  0  0  0  0  0  0  0
  -27.0261  -35.7538   20.8158 C   0  0  0  0  0  0  0  0  0  0  0  0
  -26.7522  -29.9404   18.9095 C   0  0  0  0  0  0  0  0  0  0  0  0
  -20.7887  -13.8007   22.8445 C   0  0  0  0  0  0  0  0  0  0  0  0
  -20.6101  -14.7864   20.6460 C   0  0  0  0  0  0  0  0  0  0  0  0
  -27.6486  -28.8772   19.0093 C   0  0  0  0  0  0  0  0  0  0  0  0
  -17.6178  -12.8351   22.1767 C   0  0  0  0  0  0  0  0  0  0  0  0
  -16.7575  -11.9306   22.7990 C   0  0  0  0  0  0  0  0  0  0  0  0
  -26.4930  -28.0956   20.9773 C   0  0  0  0  0  0  0  0  0  0  0  0
  -28.4438  -20.5738   21.1927 C   0  0  0  0  0  0  0  0  0  0  0  0
  -16.5419  -13.4303   24.6809 C   0  0  0  0  0  0  0  0  0  0  0  0
  -22.6362  -13.6419   21.2958 C   0  0  0  0  0  0  0  0  0  0  0  0
  -24.3411  -11.9663   20.4053 C   0  0  0  0  0  0  0  0  0  0  0  0
  -25.4380  -37.0833   22.0799 C   0  0  0  0  0  0  0  0  0  0  0  0
  -25.7243  -30.0955   19.8507 C   0  0  0  0  0  0  0  0  0  0  0  0
  -26.0658  -35.8466   21.8376 C   0  0  0  0  0  0  0  0  0  0  0  0
  -25.5833  -29.1600   20.8856 C   0  0  0  0  0  0  0  0  0  0  0  0
  -28.3025  -20.7700   19.8190 C   0  0  0  0  0  0  0  0  0  0  0  0
  -28.6352  -23.1435   20.1239 C   0  0  0  0  0  0  0  0  0  0  0  0
  -28.3982  -22.0549   19.2846 C   0  0  0  0  0  0  0  0  0  0  0  0
  -28.7765  -22.9473   21.4976 C   0  0  0  0  0  0  0  0  0  0  0  0
  -20.0538  -14.5107   21.8951 C   0  0  0  0  0  0  0  0  0  0  0  0
  -27.5208  -27.9563   20.0450 C   0  0  0  0  0  0  0  0  0  0  0  0
  -17.9402  -14.0373   22.8065 C   0  0  0  0  0  0  0  0  0  0  0  0
  -28.6808  -21.6624   22.0321 C   0  0  0  0  0  0  0  0  0  0  0  0
  -16.2195  -12.2282   24.0511 C   0  0  0  0  0  0  0  0  0  0  0  0
  -17.4022  -14.3349   24.0586 C   0  0  0  0  0  0  0  0  0  0  0  0
  -23.9701  -13.1939   20.9859 C   0  0  0  0  0  0  0  0  0  0  0  0
  -25.7106  -12.0267   20.3202 C   0  0  0  0  0  0  0  0  0  0  0  0
  -23.5211  -10.8695   19.9806 C   0  0  0  0  0  0  0  0  0  0  0  0
  -24.9467  -32.3278   21.9757 C   0  0  0  0  0  0  0  0  0  0  0  0
  -22.3172  -30.4724   22.3819 C   0  0  0  0  0  0  0  0  0  0  0  0
  -20.8813  -27.3868   22.1286 C   0  0  0  0  0  0  0  0  0  0  0  0
  -29.4998  -16.7493   20.1325 C   0  0  0  0  0  0  0  0  0  0  0  0
  -24.4342  -37.2590   23.1918 C   0  0  0  0  0  0  0  0  0  0  0  0
  -24.7493  -31.2325   19.7135 C   0  0  0  0  0  0  0  0  0  0  0  0
  -24.4846  -29.2703   21.9100 C   0  0  0  0  0  0  0  0  0  0  0  0
  -23.8573  -35.9422   23.7052 C   0  0  0  0  0  0  0  0  0  0  0  0
  -29.5236  -13.9712   22.4086 C   0  0  0  0  0  0  0  0  0  0  0  0
  -24.9706  -34.9249   23.9344 C   0  0  0  0  0  0  0  0  0  0  0  0
  -28.1231  -13.3781   22.2943 C   0  0  0  0  0  0  0  0  0  0  0  0
  -27.6089  -25.0439   18.7057 C   0  0  0  0  0  0  0  0  0  0  0  0
  -29.4874  -15.4854   22.2521 C   0  0  0  0  0  0  0  0  0  0  0  0
  -29.2275  -18.6318   18.4355 C   0  0  0  0  0  0  0  0  0  0  0  0
  -27.4342  -18.2220   19.5042 C   0  0  0  0  0  0  0  0  0  0  0  0
  -27.4803  -15.3378   20.8018 C   0  0  0  0  0  0  0  0  0  0  0  0
  -28.0314  -19.5073   18.8788 C   0  0  0  0  0  0  0  0  0  0  0  0
  -28.7384  -24.5217   19.5508 C   0  0  1  0  0  0  0  0  0  0  0  0
  -25.7049  -34.6066   22.6264 C   0  0  1  0  0  0  0  0  0  0  0  0
  -24.0527  -31.5837   21.0245 C   0  0  1  0  0  0  0  0  0  0  0  0
  -27.4645  -13.8059   20.9748 C   0  0  2  0  0  0  0  0  0  0  0  0
  -27.8274  -25.5982   20.0804 C   0  0  1  0  0  0  0  0  0  1  0  0
  -28.2458  -22.2575   17.8105 C   0  0  0  0  0  0  0  0  0  0  0  0
  -29.0312  -24.1079   22.4065 C   0  0  0  0  0  0  0  0  0  0  0  0
  -18.7306  -26.1724   22.5726 C   0  0  0  0  0  0  0  0  0  0  0  0
  -22.9522  -30.4437   25.3662 C   0  0  0  0  0  0  0  0  0  0  0  0
  -21.3914  -28.5013   25.6087 C   0  0  0  0  0  0  0  0  0  0  0  0
  -20.5259  -30.7033   24.8184 C   0  0  0  0  0  0  0  0  0  0  0  0
  -20.5495  -26.6909   19.2712 C   0  0  0  0  0  0  0  0  0  0  0  0
  -28.7033  -20.1051   23.8293 C   0  0  0  0  0  0  0  0  0  0  0  0
  -21.9581  -29.3071   23.2720 C   0  0  1  0  0  0  0  0  0  0  0  0
  -19.5522  -26.9389   21.5478 C   0  0  2  0  0  0  0  0  0  0  0  0
  -21.7289  -29.7376   24.7483 C   0  0  0  0  0  0  0  0  0  0  0  0
  -25.0192  -13.9768   21.2512 N   0  0  0  0  0  0  0  0  0  0  0  0
  -26.0630  -13.2394   20.8354 N   0  0  0  0  0  0  0  0  0  0  0  0
  -23.5601  -30.4030   21.7368 N   0  0  0  0  0  0  0  0  0  0  0  0
  -28.8239  -15.8951   21.0108 N   0  0  0  0  0  0  0  0  0  0  0  0
  -28.7554  -17.6319   19.3833 N   0  0  0  0  0  0  0  0  0  0  0  0
  -26.6358  -11.1602   19.8559 N   0  0  0  0  0  0  0  0  0  0  0  0
  -22.1325  -10.9724   20.1403 N   0  0  0  0  0  0  0  0  0  0  0  0
  -24.9214  -33.7000   21.8147 N   0  0  0  0  0  0  0  0  0  0  0  0
  -20.8066  -28.6600   22.6526 N   0  0  0  0  0  0  0  0  0  0  0  0
  -19.7737  -26.0561   20.3677 N   0  3  0  0  0  0  0  0  0  0  0  0
  -24.0067   -9.8223   19.4896 O   0  0  0  0  0  0  0  0  0  0  0  0
  -25.6093  -31.7034   22.7959 O   0  0  0  0  0  0  0  0  0  0  0  0
  -21.5210  -31.4064   22.2579 O   0  0  0  0  0  0  0  0  0  0  0  0
  -21.8844  -26.6767   22.1217 O   0  0  0  0  0  0  0  0  0  0  0  0
  -30.7345  -16.7478   20.0409 O   0  0  0  0  0  0  0  0  0  0  0  0
  -18.7938  -14.9346   22.1870 O   0  0  0  0  0  0  0  0  0  0  0  0
  -28.3967  -26.9159   20.1454 O   0  0  0  0  0  0  0  0  0  1  0  0
  -28.8158  -21.4510   23.3712 O   0  0  0  0  0  0  0  0  0  0  0  0
  -15.3922  -11.3601   24.6479 F   0  0  0  0  0  0  0  0  0  0  0  0
  -17.7073  -15.4887   24.6680 F   0  0  0  0  0  0  0  0  0  0  0  0
  1  2  1  0  0  0  0
  1  5  2  0  0  0  0
  2  6  2  0  0  0  0
  3  8  2  0  0  0  0
  3 16  1  0  0  0  0
  4  9  1  0  0  0  0
  4 16  2  0  0  0  0
  5 18  1  0  0  0  0
  6 20  1  0  0  0  0
  7 10  2  0  0  0  0
  7 19  1  0  0  0  0
  8 26  1  0  0  0  0
  9 26  2  0  0  0  0
 10 27  1  0  0  0  0
 11 12  2  0  0  0  0
 11 28  1  0  0  0  0
 12 30  1  0  0  0  0
 13 21  1  0  0  0  0
 13 27  2  0  0  0  0
 14 22  2  0  0  0  0
 14 29  1  0  0  0  0
 15 30  2  0  0  0  0
 15 31  1  0  0  0  0
 16 32  1  0  0  0  0
 17 32  1  0  0  0  0
 17 33  2  0  0  0  0
 17 34  1  0  0  0  0
 18 20  2  0  0  0  0
 18 39  1  0  0  0  0
 19 21  2  0  0  0  0
 19 40  1  0  0  0  0
 20 53  1  0  0  0  0
 21 41  1  0  0  0  0
 22 24  1  0  0  0  0
 22 51  1  0  0  0  0
 23 24  2  0  0  0  0
 23 25  1  0  0  0  0
 23 52  1  0  0  0  0
 24 57  1  0  0  0  0
 25 29  2  0  0  0  0
 25 58  1  0  0  0  0
 26 83  1  0  0  0  0
 27 84  1  0  0  0  0
 28 31  2  0  0  0  0
 28 83  1  0  0  0  0
 29 85  1  0  0  0  0
 30 86  1  0  0  0  0
 31 87  1  0  0  0  0
 32 68  2  0  0  0  0
 33 69  1  0  0  0  0
 33 73  1  0  0  0  0
 34 74  1  0  0  0  0
 34 78  2  0  0  0  0
 35 54  1  0  0  0  0
 35 75  1  0  0  0  0
 35 79  2  0  0  0  0
 36 65  1  0  0  0  0
 36 70  1  0  0  0  0
 36 80  2  0  0  0  0
 37 66  1  0  0  0  0
 37 76  1  0  0  0  0
 37 81  2  0  0  0  0
 38 71  1  0  0  0  0
 38 72  1  0  0  0  0
 38 82  2  0  0  0  0
 39 42  1  0  0  0  0
 40 54  1  0  0  0  0
 41 70  1  0  0  0  0
 42 44  1  0  0  0  0
 43 45  1  0  0  0  0
 43 47  1  0  0  0  0
 44 53  1  0  0  0  0
 45 55  1  0  0  0  0
 46 52  1  0  0  0  0
 46 56  1  0  0  0  0
 47 71  1  0  0  0  0
 48 51  1  0  0  0  0
 48 72  1  0  0  0  0
 49 51  1  0  0  0  0
 49 72  1  0  0  0  0
 50 55  1  0  0  0  0
 50 71  1  0  0  0  0
 52 56  1  0  0  0  0
 53 75  1  0  0  0  0
 54 70  1  0  0  0  0
 55 69  1  0  0  0  0
 56 84  1  0  0  0  0
 59 66  1  0  0  0  0
 60 67  1  0  0  0  0
 61 67  1  0  0  0  0
 62 67  1  0  0  0  0
 63 77  1  0  0  0  0
 64 85  1  0  0  0  0
 65 67  1  0  0  0  0
 65 76  1  0  0  0  0
 66 77  1  0  0  0  0
 68 69  1  0  0  0  0
M  CHG  1  77   1
M  ISO  4  38 100  56 101  72 100  84 101
M  END
> <Batch ID>
0166

> <Smiles>
CNC(C)C(=O)NC(C(=O)N1Cc2cc([101O:1][101CH:1]3CC3c3c(C)c(OC)cc(C4C[100N:0]([100C:0](=O)N5CCCC(n6nc(-c7ccc(Oc8ccc(F)cc8F)cc7)c(C(N)=O)c6N)C5)C4)c3C)ccc2CC1C(=O)NC1CCCc2ccccc21)C(C)(C)C

> <Shape>
0.309

> <Color>
0.085

> <Negative vol penalty>
0.000

$$$$

  -OEChem-04052322243D

 89100  0     1  0  0  0  0  0999 V2000
  -24.0823  -33.6969   14.7811 C   0  0  0  0  0  0  0  0  0  0  0  0
  -24.9927  -32.8143   15.3535 C   0  0  0  0  0  0  0  0  0  0  0  0
  -23.7530  -10.1969   22.2594 C   0  0  0  0  0  0  0  0  0  0  0  0
  -25.0332   -8.1617   22.0222 C   0  0  0  0  0  0  0  0  0  0  0  0
  -23.4351  -34.6419   15.5760 C   0  0  0  0  0  0  0  0  0  0  0  0
  -25.2571  -32.8769   16.7212 C   0  0  0  0  0  0  0  0  0  0  0  0
  -25.3394  -28.3040   18.8954 C   0  0  0  0  0  0  0  0  0  0  0  0
  -22.5713   -9.4712   22.1094 C   0  0  0  0  0  0  0  0  0  0  0  0
  -23.8515   -7.4359   21.8723 C   0  0  0  0  0  0  0  0  0  0  0  0
  -26.4878  -27.5342   18.7159 C   0  0  0  0  0  0  0  0  0  0  0  0
  -21.1576   -4.9958   21.7874 C   0  0  0  0  0  0  0  0  0  0  0  0
  -21.0362   -3.7997   22.4946 C   0  0  0  0  0  0  0  0  0  0  0  0
  -29.3209  -21.5707   21.5833 C   0  0  0  0  0  0  0  0  0  0  0  0
  -29.9597  -20.7290   19.4107 C   0  0  0  0  0  0  0  0  0  0  0  0
  -27.2577  -28.1824   20.9082 C   0  0  0  0  0  0  0  0  0  0  0  0
  -21.2952   -5.0027   24.5737 C   0  0  0  0  0  0  0  0  0  0  0  0
  -24.9839   -9.5422   22.2157 C   0  0  0  0  0  0  0  0  0  0  0  0
  -26.8813  -10.5766   23.5712 C   0  0  0  0  0  0  0  0  0  0  0  0
  -23.6846  -34.7098   16.9558 C   0  0  0  0  0  0  0  0  0  0  0  0
  -25.1463  -29.0287   20.0803 C   0  0  0  0  0  0  0  0  0  0  0  0
  -24.6136  -33.8246   17.5351 C   0  0  0  0  0  0  0  0  0  0  0  0
  -29.6438  -20.4998   20.7498 C   0  0  0  0  0  0  0  0  0  0  0  0
  -29.3139  -22.8706   21.0776 C   0  0  0  0  0  0  0  0  0  0  0  0
  -26.1047  -28.9586   21.1013 C   0  0  0  0  0  0  0  0  0  0  0  0
  -29.6299  -23.0998   19.7385 C   0  0  0  0  0  0  0  0  0  0  0  0
  -29.9528  -22.0289   18.9050 C   0  0  0  0  0  0  0  0  0  0  0  0
  -22.6205   -8.0907   21.9159 C   0  0  0  0  0  0  0  0  0  0  0  0
  -27.4486  -27.4756   19.7212 C   0  0  0  0  0  0  0  0  0  0  0  0
  -21.3480   -6.1953   22.4733 C   0  0  0  0  0  0  0  0  0  0  0  0
  -21.1049   -3.8031   23.8877 C   0  0  0  0  0  0  0  0  0  0  0  0
  -21.4167   -6.1988   23.8664 C   0  0  0  0  0  0  0  0  0  0  0  0
  -26.2050  -10.2914   22.3700 C   0  0  0  0  0  0  0  0  0  0  0  0
  -27.9762  -11.3095   23.1832 C   0  0  0  0  0  0  0  0  0  0  0  0
  -26.5497  -10.2116   24.9175 C   0  0  0  0  0  0  0  0  0  0  0  0
  -24.8349  -32.1091   20.8002 C   0  0  0  0  0  0  0  0  0  0  0  0
  -24.2243  -30.9528   23.7688 C   0  0  0  0  0  0  0  0  0  0  0  0
  -24.5885  -28.4147   26.0210 C   0  0  0  0  0  0  0  0  0  0  0  0
  -30.4072  -15.2079   20.1975 C   0  0  0  0  0  0  0  0  0  0  0  0
  -22.9961  -35.7794   17.7662 C   0  0  0  0  0  0  0  0  0  0  0  0
  -23.8894  -29.8331   20.2692 C   0  0  0  0  0  0  0  0  0  0  0  0
  -25.9353  -29.7018   22.4004 C   0  0  0  0  0  0  0  0  0  0  0  0
  -23.0522  -35.5336   19.2718 C   0  0  0  0  0  0  0  0  0  0  0  0
  -29.9085  -12.1839   18.5991 C   0  0  0  0  0  0  0  0  0  0  0  0
  -29.9333  -25.1431   22.1389 C   0  0  0  0  0  0  0  0  0  0  0  0
  -29.7485  -24.1753   23.2656 C   0  0  0  0  0  0  0  0  0  0  0  0
  -24.4651  -35.1470   19.6973 C   0  0  0  0  0  0  0  0  0  0  0  0
  -28.9561  -11.4337   19.5299 C   0  0  0  0  0  0  0  0  0  0  0  0
  -28.6062  -18.1923   20.6064 C   0  0  0  0  0  0  0  0  0  0  0  0
  -31.0479  -18.4445   21.2261 C   0  0  0  0  0  0  0  0  0  0  0  0
  -28.7815  -24.7974   17.9852 C   0  0  0  0  0  0  0  0  0  0  0  0
  -29.5181  -13.6531   18.4879 C   0  0  0  0  0  0  0  0  0  0  0  0
  -28.6406  -16.7587   21.1436 C   0  0  0  0  0  0  0  0  0  0  0  0
  -31.0179  -17.0193   21.7706 C   0  0  0  0  0  0  0  0  0  0  0  0
  -28.5047  -13.6229   20.7440 C   0  0  0  0  0  0  0  0  0  0  0  0
  -29.6504  -19.0859   21.2997 C   0  0  0  0  0  0  0  0  0  0  0  0
  -28.9662  -23.9991   21.9917 C   0  0  0  0  0  0  0  0  0  0  0  0
  -29.6229  -24.4932   19.1945 C   0  0  1  0  0  0  0  0  0  0  0  0
  -24.9086  -33.8450   19.0193 C   0  0  1  0  0  0  0  0  0  0  0  0
  -24.0390  -30.9402   21.3081 C   0  0  1  0  0  0  0  0  0  0  0  0
  -28.8582  -12.1298   20.8990 C   0  0  1  0  0  0  0  0  0  0  0  0
  -28.3698  -25.3186   19.3280 C   0  0  1  0  0  0  0  0  0  1  0  0
  -30.2961  -22.2455   17.4672 C   0  0  0  0  0  0  0  0  0  0  0  0
  -24.0118  -27.7747   28.3779 C   0  0  0  0  0  0  0  0  0  0  0  0
  -26.4125  -32.8093   24.8058 C   0  0  0  0  0  0  0  0  0  0  0  0
  -26.4476  -31.4718   26.9220 C   0  0  0  0  0  0  0  0  0  0  0  0
  -24.3755  -32.6881   26.2516 C   0  0  0  0  0  0  0  0  0  0  0  0
  -23.0158  -26.0738   25.1236 C   0  0  0  0  0  0  0  0  0  0  0  0
  -25.0627  -30.6151   24.9779 C   0  0  1  0  0  0  0  0  0  0  0  0
  -23.5856  -27.7136   26.9194 C   0  0  2  0  0  0  0  0  0  0  0  0
  -25.5790  -31.8835   25.7142 C   0  0  0  0  0  0  0  0  0  0  0  0
  -26.8187  -10.8017   21.2990 N   0  0  0  0  0  0  0  0  0  0  0  0
  -27.8922  -11.4150   21.8260 N   0  0  0  0  0  0  0  0  0  0  0  0
  -24.6925  -30.4795   22.5349 N   0  0  0  0  0  0  0  0  0  0  0  0
  -29.4323  -14.2772   19.8081 N   0  0  0  0  0  0  0  0  0  0  0  0
  -30.0050  -16.2157   21.0869 N   0  0  0  0  0  0  0  0  0  0  0  0
  -28.9930  -11.8677   23.8739 N   0  0  0  0  0  0  0  0  0  0  0  0
  -25.3895   -9.4570   25.1386 N   0  0  0  0  0  0  0  0  0  0  0  0
  -24.3035  -32.7038   19.6718 N   0  0  0  0  0  0  0  0  0  0  0  0
  -24.2475  -29.7335   25.8066 N   0  0  0  0  0  0  0  0  0  0  0  0
  -23.4522  -26.2817   26.5283 N   0  3  0  0  0  0  0  0  0  0  0  0
  -27.2522  -10.5587   25.8970 O   0  0  0  0  0  0  0  0  0  0  0  0
  -25.8548  -32.4473   21.3894 O   0  0  0  0  0  0  0  0  0  0  0  0
  -23.1883  -31.6063   23.9147 O   0  0  0  0  0  0  0  0  0  0  0  0
  -25.5775  -27.8501   25.5589 O   0  0  0  0  0  0  0  0  0  0  0  0
  -31.5690  -15.1426   19.7765 O   0  0  0  0  0  0  0  0  0  0  0  0
  -21.4677   -7.3821   21.7698 O   0  0  0  0  0  0  0  0  0  0  0  0
  -28.5731  -26.7240   19.5479 O   0  0  0  0  0  0  0  0  0  1  0  0
  -20.9867   -2.6546   24.5668 F   0  0  0  0  0  0  0  0  0  0  0  0
  -21.5983   -7.3483   24.5310 F   0  0  0  0  0  0  0  0  0  0  0  0
  1  2  1  0  0  0  0
  1  5  2  0  0  0  0
  2  6  2  0  0  0  0
  3  8  2  0  0  0  0
  3 17  1  0  0  0  0
  4  9  1  0  0  0  0
  4 17  2  0  0  0  0
  5 19  1  0  0  0  0
  6 21  1  0  0  0  0
  7 10  2  0  0  0  0
  7 20  1  0  0  0  0
  8 27  1  0  0  0  0
  9 27  2  0  0  0  0
 10 28  1  0  0  0  0
 11 12  2  0  0  0  0
 11 29  1  0  0  0  0
 12 30  1  0  0  0  0
 13 22  2  0  0  0  0
 13 23  1  0  0  0  0
 14 22  1  0  0  0  0
 14 26  2  0  0  0  0
 15 24  1  0  0  0  0
 15 28  2  0  0  0  0
 16 30  2  0  0  0  0
 16 31  1  0  0  0  0
 17 32  1  0  0  0  0
 18 32  1  0  0  0  0
 18 33  2  0  0  0  0
 18 34  1  0  0  0  0
 19 21  2  0  0  0  0
 19 39  1  0  0  0  0
 20 24  2  0  0  0  0
 20 40  1  0  0  0  0
 21 58  1  0  0  0  0
 22 55  1  0  0  0  0
 23 25  2  0  0  0  0
 23 56  1  0  0  0  0
 24 41  1  0  0  0  0
 25 26  1  0  0  0  0
 25 57  1  0  0  0  0
 26 62  1  0  0  0  0
 27 86  1  0  0  0  0
 28 87  1  0  0  0  0
 29 31  2  0  0  0  0
 29 86  1  0  0  0  0
 30 88  1  0  0  0  0
 31 89  1  0  0  0  0
 32 71  2  0  0  0  0
 33 72  1  0  0  0  0
 33 76  1  0  0  0  0
 34 77  1  0  0  0  0
 34 81  2  0  0  0  0
 35 59  1  0  0  0  0
 35 78  1  0  0  0  0
 35 82  2  0  0  0  0
 36 68  1  0  0  0  0
 36 73  1  0  0  0  0
 36 83  2  0  0  0  0
 37 69  1  0  0  0  0
 37 79  1  0  0  0  0
 37 84  2  0  0  0  0
 38 74  1  0  0  0  0
 38 75  1  0  0  0  0
 38 85  2  0  0  0  0
 39 42  1  0  0  0  0
 40 59  1  0  0  0  0
 41 73  1  0  0  0  0
 42 46  1  0  0  0  0
 43 47  1  0  0  0  0
 43 51  1  0  0  0  0
 44 45  1  0  0  0  0
 44 56  1  0  0  0  0
 45 56  1  0  0  0  0
 46 58  1  0  0  0  0
 47 60  1  0  0  0  0
 48 52  1  0  0  0  0
 48 55  1  0  0  0  0
 49 53  1  0  0  0  0
 49 55  1  0  0  0  0
 50 57  1  0  0  0  0
 50 61  1  0  0  0  0
 51 74  1  0  0  0  0
 52 75  1  0  0  0  0
 53 75  1  0  0  0  0
 54 60  1  0  0  0  0
 54 74  1  0  0  0  0
 57 61  1  0  0  0  0
 58 78  1  0  0  0  0
 59 73  1  0  0  0  0
 60 72  1  0  0  0  0
 61 87  1  0  0  0  0
 63 69  1  0  0  0  0
 64 70  1  0  0  0  0
 65 70  1  0  0  0  0
 66 70  1  0  0  0  0
 67 80  1  0  0  0  0
 68 70  1  0  0  0  0
 68 79  1  0  0  0  0
 69 80  1  0  0  0  0
 71 72  1  0  0  0  0
M  CHG  1  80   1
M  ISO  4  38 100  61 101  75 100  87 101
M  END
> <Batch ID>
0166

> <Smiles>
CNC(C)C(=O)NC(C(=O)N1Cc2cc([101O:1][101CH:1]3CC3c3c(C)cc(C4CC[100N:0]([100C:0](=O)N5CCCC(n6nc(-c7ccc(Oc8ccc(F)cc8F)cc7)c(C(N)=O)c6N)C5)CC4)cc3C3CC3)ccc2CC1C(=O)NC1CCCc2ccccc21)C(C)(C)C

> <Shape>
0.310

> <Color>
0.143

> <Negative vol penalty>
0.000

$$$$

  -OEChem-04052322243D

 87 96  0     1  0  0  0  0  0999 V2000
  -31.2069  -38.2954   20.3508 C   0  0  0  0  0  0  0  0  0  0  0  0
  -31.1632  -37.2481   19.4361 C   0  0  0  0  0  0  0  0  0  0  0  0
  -23.9937   -8.1735   19.0980 C   0  0  0  0  0  0  0  0  0  0  0  0
  -23.2368   -9.6312   20.8698 C   0  0  0  0  0  0  0  0  0  0  0  0
  -31.0142  -38.0423   21.7083 C   0  0  0  0  0  0  0  0  0  0  0  0
  -30.9278  -35.9468   19.8785 C   0  0  0  0  0  0  0  0  0  0  0  0
  -27.8116  -29.8311   17.8284 C   0  0  0  0  0  0  0  0  0  0  0  0
  -23.1927   -7.1477   19.5998 C   0  0  0  0  0  0  0  0  0  0  0  0
  -22.4358   -8.6054   21.3715 C   0  0  0  0  0  0  0  0  0  0  0  0
  -28.0912  -28.4717   17.6951 C   0  0  0  0  0  0  0  0  0  0  0  0
  -20.4667   -6.2602   23.3293 C   0  0  0  0  0  0  0  0  0  0  0  0
  -20.4798   -6.0422   24.7070 C   0  0  0  0  0  0  0  0  0  0  0  0
  -28.2869  -19.4008   18.9564 C   0  0  0  0  0  0  0  0  0  0  0  0
  -27.6937  -28.1647   20.0545 C   0  0  0  0  0  0  0  0  0  0  0  0
  -22.8522   -5.5949   24.6136 C   0  0  0  0  0  0  0  0  0  0  0  0
  -24.0158   -9.4152   19.7330 C   0  0  0  0  0  0  0  0  0  0  0  0
  -24.4833  -11.4467   18.2626 C   0  0  0  0  0  0  0  0  0  0  0  0
  -30.7667  -36.7387   22.1664 C   0  0  0  0  0  0  0  0  0  0  0  0
  -27.4811  -30.3704   19.0799 C   0  0  0  0  0  0  0  0  0  0  0  0
  -30.7329  -35.6759   21.2435 C   0  0  0  0  0  0  0  0  0  0  0  0
  -29.5623  -19.9408   19.0787 C   0  0  0  0  0  0  0  0  0  0  0  0
  -27.4078  -29.5308   20.2005 C   0  0  0  0  0  0  0  0  0  0  0  0
  -28.0815  -18.0509   19.2190 C   0  0  0  0  0  0  0  0  0  0  0  0
  -22.4137   -7.3636   20.7365 C   0  0  0  0  0  0  0  0  0  0  0  0
  -28.0351  -27.6388   18.8087 C   0  0  0  0  0  0  0  0  0  0  0  0
  -21.6464   -6.1455   22.5938 C   0  0  0  0  0  0  0  0  0  0  0  0
  -21.6726   -5.7096   25.3491 C   0  0  0  0  0  0  0  0  0  0  0  0
  -22.8391   -5.8129   23.2359 C   0  0  0  0  0  0  0  0  0  0  0  0
  -24.8434  -10.4751   19.2156 C   0  0  0  0  0  0  0  0  0  0  0  0
  -30.5905  -19.0955   19.4635 C   0  0  0  0  0  0  0  0  0  0  0  0
  -29.1760  -17.2901   19.5973 C   0  0  0  0  0  0  0  0  0  0  0  0
  -25.6115  -12.2157   18.1131 C   0  0  0  0  0  0  0  0  0  0  0  0
  -23.2401  -11.6372   17.5742 C   0  0  0  0  0  0  0  0  0  0  0  0
  -28.7762  -32.5514   20.9955 C   0  0  0  0  0  0  0  0  0  0  0  0
  -26.0693  -32.0787   22.7194 C   0  0  0  0  0  0  0  0  0  0  0  0
  -23.4722  -30.0177   23.5279 C   0  0  0  0  0  0  0  0  0  0  0  0
  -29.9400  -14.9828   20.2602 C   0  0  0  0  0  0  0  0  0  0  0  0
  -30.6114  -36.5074   23.6487 C   0  0  0  0  0  0  0  0  0  0  0  0
  -27.1561  -31.8339   19.2020 C   0  0  0  0  0  0  0  0  0  0  0  0
  -27.0380  -30.0567   21.5626 C   0  0  0  0  0  0  0  0  0  0  0  0
  -29.9951  -35.1539   23.9927 C   0  0  0  0  0  0  0  0  0  0  0  0
  -30.3410  -11.4805   19.7601 C   0  0  0  0  0  0  0  0  0  0  0  0
  -30.6615  -34.0435   23.1867 C   0  0  0  0  0  0  0  0  0  0  0  0
  -28.9169  -10.9867   19.4954 C   0  0  0  0  0  0  0  0  0  0  0  0
  -30.1319  -21.7087   17.3381 C   0  0  0  0  0  0  0  0  0  0  0  0
  -30.3697  -12.5963   20.8031 C   0  0  0  0  0  0  0  0  0  0  0  0
  -28.0530  -13.2350   20.2608 C   0  0  0  0  0  0  0  0  0  0  0  0
  -29.9916  -23.2168   17.2479 C   0  0  0  0  0  0  0  0  0  0  0  0
  -29.7922  -21.4071   18.7958 C   0  0  1  0  0  0  0  0  0  0  0  0
  -30.4555  -34.2542   21.6818 C   0  0  1  0  0  0  0  0  0  0  0  0
  -27.3329  -32.3689   20.6197 C   0  0  1  0  0  0  0  0  0  0  0  0
  -27.9665  -12.1555   19.1695 C   0  0  2  0  0  0  0  0  0  0  0  0
  -28.5735  -22.3063   19.0399 C   0  0  1  0  0  0  0  0  0  0  0  0
  -26.7129  -17.4748   19.0850 C   0  0  0  0  0  0  0  0  0  0  0  0
  -31.9805  -19.6209   19.6133 C   0  0  0  0  0  0  0  0  0  0  0  0
  -28.3521  -22.6555   20.5037 C   0  0  0  0  0  0  0  0  0  0  0  0
  -21.4403  -29.8918   24.9952 C   0  0  0  0  0  0  0  0  0  0  0  0
  -27.8519  -31.5477   25.1382 C   0  0  0  0  0  0  0  0  0  0  0  0
  -25.8753  -30.5213   26.2820 C   0  0  0  0  0  0  0  0  0  0  0  0
  -25.8218  -32.9261   25.6210 C   0  0  0  0  0  0  0  0  0  0  0  0
  -21.6639  -29.7586   21.1994 C   0  0  0  0  0  0  0  0  0  0  0  0
  -27.7129  -24.2302   17.6351 C   0  0  0  0  0  0  0  0  0  0  0  0
  -28.0037  -25.7034   17.4271 C   0  0  0  0  0  0  0  0  0  1  0  0
  -25.6606  -31.1455   23.8334 C   0  0  1  0  0  0  0  0  0  0  0  0
  -21.9783  -30.2699   23.6239 C   0  0  2  0  0  0  0  0  0  0  0  0
  -26.3113  -31.5253   25.1935 C   0  0  0  0  0  0  0  0  0  0  0  0
  -26.1020  -10.6120   19.6413 N   0  0  0  0  0  0  0  0  0  0  0  0
  -30.4296  -17.7793   19.7269 N   0  0  0  0  0  0  0  0  0  0  0  0
  -26.5426  -11.6786   18.9526 N   0  0  0  0  0  0  0  0  0  0  0  0
  -26.7352  -31.4958   21.6320 N   0  0  0  0  0  0  0  0  0  0  0  0
  -29.4487  -13.6706   20.4258 N   0  0  0  0  0  0  0  0  0  0  0  0
  -25.8880  -13.2920   17.3466 N   0  0  0  0  0  0  0  0  0  0  0  0
  -22.1840  -10.7568   17.8463 N   0  0  0  0  0  0  0  0  0  0  0  0
  -28.9781  -15.9135   19.8689 N   0  0  0  0  0  0  0  0  0  0  0  0
  -29.1192  -33.8563   21.2940 N   0  0  0  0  0  0  0  0  0  0  0  0
  -24.2018  -31.1428   23.8490 N   0  0  0  0  0  0  0  0  0  0  0  0
  -28.9092  -23.5722   18.2529 N   0  3  2  0  0  0  0  0  0  0  0  0
  -21.2511  -29.4712   22.5972 N   0  3  0  0  0  0  0  0  0  0  0  0
  -23.0760  -12.5506   16.7303 O   0  0  0  0  0  0  0  0  0  0  0  0
  -29.5230  -31.5800   21.0147 O   0  0  0  0  0  0  0  0  0  0  0  0
  -25.8012  -33.2795   22.8075 O   0  0  0  0  0  0  0  0  0  0  0  0
  -23.9447  -28.9302   23.2043 O   0  0  0  0  0  0  0  0  0  0  0  0
  -31.1319  -15.2551   20.4250 O   0  0  0  0  0  0  0  0  0  0  0  0
  -21.6318   -6.3630   21.2262 O   0  0  0  0  0  0  0  0  0  0  0  0
  -28.3081  -26.3118   18.6815 O   0  0  0  0  0  0  0  0  0  1  0  0
  -21.6853   -5.5019   26.6723 F   0  0  0  0  0  0  0  0  0  0  0  0
  -23.9758   -5.7024   22.5348 F   0  0  0  0  0  0  0  0  0  0  0  0
  1  2  1  0  0  0  0
  1  5  2  0  0  0  0
  2  6  2  0  0  0  0
  3  8  2  0  0  0  0
  3 16  1  0  0  0  0
  4  9  1  0  0  0  0
  4 16  2  0  0  0  0
  5 18  1  0  0  0  0
  6 20  1  0  0  0  0
  7 10  2  0  0  0  0
  7 19  1  0  0  0  0
  8 24  1  0  0  0  0
  9 24  2  0  0  0  0
 10 25  1  0  0  0  0
 11 12  2  0  0  0  0
 11 26  1  0  0  0  0
 12 27  1  0  0  0  0
 13 21  1  0  0  0  0
 13 23  2  0  0  0  0
 14 22  1  0  0  0  0
 14 25  2  0  0  0  0
 15 27  2  0  0  0  0
 15 28  1  0  0  0  0
 16 29  1  0  0  0  0
 17 29  1  0  0  0  0
 17 32  2  0  0  0  0
 17 33  1  0  0  0  0
 18 20  2  0  0  0  0
 18 38  1  0  0  0  0
 19 22  2  0  0  0  0
 19 39  1  0  0  0  0
 20 50  1  0  0  0  0
 21 30  2  0  0  0  0
 21 49  1  0  0  0  0
 22 40  1  0  0  0  0
 23 31  1  0  0  0  0
 23 54  1  0  0  0  0
 24 84  1  0  0  0  0
 25 85  1  0  0  0  0
 26 28  2  0  0  0  0
 26 84  1  0  0  0  0
 27 86  1  0  0  0  0
 28 87  1  0  0  0  0
 29 67  2  0  0  0  0
 30 55  1  0  0  0  0
 30 68  1  0  0  0  0
 31 68  2  0  0  0  0
 31 74  1  0  0  0  0
 32 69  1  0  0  0  0
 32 72  1  0  0  0  0
 33 73  1  0  0  0  0
 33 79  2  0  0  0  0
 34 51  1  0  0  0  0
 34 75  1  0  0  0  0
 34 80  2  0  0  0  0
 35 64  1  0  0  0  0
 35 70  1  0  0  0  0
 35 81  2  0  0  0  0
 36 65  1  0  0  0  0
 36 76  1  0  0  0  0
 36 82  2  0  0  0  0
 37 71  1  0  0  0  0
 37 74  1  0  0  0  0
 37 83  2  0  0  0  0
 38 41  1  0  0  0  0
 39 51  1  0  0  0  0
 40 70  1  0  0  0  0
 41 43  1  0  0  0  0
 42 44  1  0  0  0  0
 42 46  1  0  0  0  0
 43 50  1  0  0  0  0
 44 52  1  0  0  0  0
 45 48  1  0  0  0  0
 45 49  1  0  0  0  0
 46 71  1  0  0  0  0
 47 52  1  0  0  0  0
 47 71  1  0  0  0  0
 48 77  1  0  0  0  0
 49 53  1  0  0  0  0
 50 75  1  0  0  0  0
 51 70  1  0  0  0  0
 52 69  1  0  0  0  0
 53 56  1  0  0  0  0
 53 77  1  0  0  0  0
 57 65  1  0  0  0  0
 58 66  1  0  0  0  0
 59 66  1  0  0  0  0
 60 66  1  0  0  0  0
 61 78  1  0  0  0  0
 62 63  1  0  0  0  0
 62 77  1  0  0  0  0
 63 85  1  0  0  0  0
 64 66  1  0  0  0  0
 64 76  1  0  0  0  0
 65 78  1  0  0  0  0
 67 69  1  0  0  0  0
M  CHG  2  77   1  78   1
M  ISO  4  37 100  63 101  74 100  85 101
M  END
> <Batch ID>
0166

> <Smiles>
CNC(C)C(=O)NC(C(=O)N1Cc2cc([101O:1][101CH2:1]CN3CCC(c4cc(C)c([100NH:0][100C:0](=O)N5CCCC(n6nc(-c7ccc(Oc8ccc(F)cc8F)cc7)c(C(N)=O)c6N)C5)nc4C)C3C)ccc2CC1C(=O)NC1CCCc2ccccc21)C(C)(C)C

> <Shape>
0.274

> <Color>
0.123

> <Negative vol penalty>
0.000

$$$$

  -OEChem-04052322243D

 88 97  0     1  0  0  0  0  0999 V2000
  -26.8160  -34.0731   22.0132 C   0  0  0  0  0  0  0  0  0  0  0  0
  -27.0072  -32.8239   21.4314 C   0  0  0  0  0  0  0  0  0  0  0  0
  -23.0762   -9.9097   19.9308 C   0  0  0  0  0  0  0  0  0  0  0  0
  -23.8544   -9.8843   22.2179 C   0  0  0  0  0  0  0  0  0  0  0  0
  -25.9550  -34.2097   23.1012 C   0  0  0  0  0  0  0  0  0  0  0  0
  -26.3381  -31.7103   21.9382 C   0  0  0  0  0  0  0  0  0  0  0  0
  -24.2136  -26.9286   18.7558 C   0  0  0  0  0  0  0  0  0  0  0  0
  -22.3419   -8.7477   20.1677 C   0  0  0  0  0  0  0  0  0  0  0  0
  -23.1200   -8.7223   22.4548 C   0  0  0  0  0  0  0  0  0  0  0  0
  -24.7277  -25.6536   18.5232 C   0  0  0  0  0  0  0  0  0  0  0  0
  -19.9020   -7.8934   23.0697 C   0  0  0  0  0  0  0  0  0  0  0  0
  -19.1547   -7.8294   24.2457 C   0  0  0  0  0  0  0  0  0  0  0  0
  -29.3205  -18.9406   22.2813 C   0  0  0  0  0  0  0  0  0  0  0  0
  -23.4055  -24.7942   20.3487 C   0  0  0  0  0  0  0  0  0  0  0  0
  -28.8810  -18.2689   24.9531 C   0  0  0  0  0  0  0  0  0  0  0  0
  -20.4145   -5.8885   24.9405 C   0  0  0  0  0  0  0  0  0  0  0  0
  -23.8325  -10.4780   20.9559 C   0  0  0  0  0  0  0  0  0  0  0  0
  -24.1570  -13.0070   20.8745 C   0  0  0  0  0  0  0  0  0  0  0  0
  -25.2676  -33.0989   23.6154 C   0  0  0  0  0  0  0  0  0  0  0  0
  -23.2984  -27.1483   19.7953 C   0  0  0  0  0  0  0  0  0  0  0  0
  -25.4681  -31.8320   23.0350 C   0  0  0  0  0  0  0  0  0  0  0  0
  -28.5066  -19.7458   23.0781 C   0  0  0  0  0  0  0  0  0  0  0  0
  -22.8794  -26.0723   20.5908 C   0  0  0  0  0  0  0  0  0  0  0  0
  -29.9146  -17.7994   22.8205 C   0  0  0  0  0  0  0  0  0  0  0  0
  -28.2869  -19.4100   24.4139 C   0  0  0  0  0  0  0  0  0  0  0  0
  -29.6949  -17.4636   24.1563 C   0  0  0  0  0  0  0  0  0  0  0  0
  -22.3637   -8.1540   21.4297 C   0  0  0  0  0  0  0  0  0  0  0  0
  -24.3259  -24.5867   19.3216 C   0  0  0  0  0  0  0  0  0  0  0  0
  -20.9055   -6.9549   22.8290 C   0  0  0  0  0  0  0  0  0  0  0  0
  -19.4110   -6.8269   25.1812 C   0  0  0  0  0  0  0  0  0  0  0  0
  -21.1618   -5.9525   23.7645 C   0  0  0  0  0  0  0  0  0  0  0  0
  -24.5918  -11.6780   20.7116 C   0  0  0  0  0  0  0  0  0  0  0  0
  -25.2413  -13.7695   20.5149 C   0  0  0  0  0  0  0  0  0  0  0  0
  -22.8866  -13.5074   21.3118 C   0  0  0  0  0  0  0  0  0  0  0  0
  -23.2924  -28.9043   22.4448 C   0  0  0  0  0  0  0  0  0  0  0  0
  -20.2148  -27.8979   22.6391 C   0  0  0  0  0  0  0  0  0  0  0  0
  -17.8718  -25.5628   21.7998 C   0  0  0  0  0  0  0  0  0  0  0  0
  -30.7196  -14.8216   20.6766 C   0  0  0  0  0  0  0  0  0  0  0  0
  -24.3836  -33.2875   24.8228 C   0  0  0  0  0  0  0  0  0  0  0  0
  -22.7329  -28.5245   20.0161 C   0  0  0  0  0  0  0  0  0  0  0  0
  -21.8838  -26.2516   21.7066 C   0  0  0  0  0  0  0  0  0  0  0  0
  -23.4246  -32.1244   25.0631 C   0  0  0  0  0  0  0  0  0  0  0  0
  -29.5785  -12.4689   18.2602 C   0  0  0  0  0  0  0  0  0  0  0  0
  -24.1602  -30.7932   24.9471 C   0  0  0  0  0  0  0  0  0  0  0  0
  -28.1465  -12.1586   18.6996 C   0  0  0  0  0  0  0  0  0  0  0  0
  -28.8842  -21.9852   21.9284 C   0  0  0  0  0  0  0  0  0  0  0  0
  -30.5038  -12.6761   19.4573 C   0  0  0  0  0  0  0  0  0  0  0  0
  -28.6085  -13.3719   20.8706 C   0  0  0  0  0  0  0  0  0  0  0  0
  -28.0293  -22.9332   21.1081 C   0  0  0  0  0  0  0  0  0  0  0  0
  -27.8746  -20.9771   22.4722 C   0  0  1  0  0  0  0  0  0  0  0  0
  -24.7412  -30.6047   23.5405 C   0  0  1  0  0  0  0  0  0  0  0  0
  -22.1981  -28.7309   21.4299 C   0  0  1  0  0  0  0  0  0  0  0  0
  -27.6261  -13.2101   19.6980 C   0  0  2  0  0  0  0  0  0  0  0  0
  -26.9901  -20.7079   21.2480 C   0  0  1  0  0  0  0  0  0  0  0  0
  -27.4199  -20.2572   25.2863 C   0  0  0  0  0  0  0  0  0  0  0  0
  -30.3196  -16.2464   24.7552 C   0  0  0  0  0  0  0  0  0  0  0  0
  -25.5981  -20.2028   21.5960 C   0  0  0  0  0  0  0  0  0  0  0  0
  -15.4520  -24.9903   22.1378 C   0  0  0  0  0  0  0  0  0  0  0  0
  -20.8408  -26.9307   25.4644 C   0  0  0  0  0  0  0  0  0  0  0  0
  -18.7472  -25.5600   25.3841 C   0  0  0  0  0  0  0  0  0  0  0  0
  -18.6162  -28.0451   25.2122 C   0  0  0  0  0  0  0  0  0  0  0  0
  -17.3050  -25.7400   18.9004 C   0  0  0  0  0  0  0  0  0  0  0  0
  -30.7814  -16.9521   21.9480 C   0  0  0  0  0  0  0  0  0  0  0  0
  -26.8326  -22.0154   19.0845 C   0  0  0  0  0  0  0  0  0  0  0  0
  -26.1447  -23.2590   18.5568 C   0  0  0  0  0  0  0  0  0  1  0  0
  -19.5145  -26.7134   23.2599 C   0  0  1  0  0  0  0  0  0  0  0  0
  -16.4629  -25.7013   21.2516 C   0  0  2  0  0  0  0  0  0  0  0  0
  -19.4499  -26.8090   24.8104 C   0  0  0  0  0  0  0  0  0  0  0  0
  -25.8538  -11.5973   20.2818 N   0  0  0  0  0  0  0  0  0  0  0  0
  -26.2214  -12.8853   20.1715 N   0  0  0  0  0  0  0  0  0  0  0  0
  -21.3644  -27.6173   21.8870 N   0  0  0  0  0  0  0  0  0  0  0  0
  -29.9536  -13.6864   20.3643 N   0  0  0  0  0  0  0  0  0  0  0  0
  -25.4425  -15.1033   20.4620 N   0  0  0  0  0  0  0  0  0  0  0  0
  -21.8833  -12.5862   21.6421 N   0  0  0  0  0  0  0  0  0  0  0  0
  -23.7018  -30.2134   22.6126 N   0  0  0  0  0  0  0  0  0  0  0  0
  -18.2105  -26.6244   22.6119 N   0  0  0  0  0  0  0  0  0  0  0  0
  -30.1212  -15.7326   21.5385 N   0  0  0  0  0  0  0  0  0  0  0  0
  -26.8893  -22.0787   20.5807 N   0  3  2  0  0  0  0  0  0  0  0  0
  -16.3801  -25.1181   19.8827 N   0  3  0  0  0  0  0  0  0  0  0  0
  -22.6428  -14.7354   21.3911 O   0  0  0  0  0  0  0  0  0  0  0  0
  -23.7317  -27.9233   23.0333 O   0  0  0  0  0  0  0  0  0  0  0  0
  -19.7546  -29.0297   22.8090 O   0  0  0  0  0  0  0  0  0  0  0  0
  -18.5977  -24.6065   21.5370 O   0  0  0  0  0  0  0  0  0  0  0  0
  -31.8508  -15.0120   20.2170 O   0  0  0  0  0  0  0  0  0  0  0  0
  -21.6471   -7.0203   21.6613 O   0  0  0  0  0  0  0  0  0  0  0  0
  -24.8265  -23.3414   19.0971 O   0  0  0  0  0  0  0  0  0  1  0  0
  -18.6943   -6.7665   26.3112 F   0  0  0  0  0  0  0  0  0  0  0  0
  -22.1254   -5.0488   23.5394 F   0  0  0  0  0  0  0  0  0  0  0  0
  1  2  1  0  0  0  0
  1  5  2  0  0  0  0
  2  6  2  0  0  0  0
  3  8  2  0  0  0  0
  3 17  1  0  0  0  0
  4  9  1  0  0  0  0
  4 17  2  0  0  0  0
  5 19  1  0  0  0  0
  6 21  1  0  0  0  0
  7 10  2  0  0  0  0
  7 20  1  0  0  0  0
  8 27  1  0  0  0  0
  9 27  2  0  0  0  0
 10 28  1  0  0  0  0
 11 12  2  0  0  0  0
 11 29  1  0  0  0  0
 12 30  1  0  0  0  0
 13 22  1  0  0  0  0
 13 24  2  0  0  0  0
 14 23  1  0  0  0  0
 14 28  2  0  0  0  0
 15 25  1  0  0  0  0
 15 26  2  0  0  0  0
 16 30  2  0  0  0  0
 16 31  1  0  0  0  0
 17 32  1  0  0  0  0
 18 32  1  0  0  0  0
 18 33  2  0  0  0  0
 18 34  1  0  0  0  0
 19 21  2  0  0  0  0
 19 39  1  0  0  0  0
 20 23  2  0  0  0  0
 20 40  1  0  0  0  0
 21 51  1  0  0  0  0
 22 25  2  0  0  0  0
 22 50  1  0  0  0  0
 23 41  1  0  0  0  0
 24 26  1  0  0  0  0
 24 63  1  0  0  0  0
 25 55  1  0  0  0  0
 26 56  1  0  0  0  0
 27 85  1  0  0  0  0
 28 86  1  0  0  0  0
 29 31  2  0  0  0  0
 29 85  1  0  0  0  0
 30 87  1  0  0  0  0
 31 88  1  0  0  0  0
 32 69  2  0  0  0  0
 33 70  1  0  0  0  0
 33 73  1  0  0  0  0
 34 74  1  0  0  0  0
 34 80  2  0  0  0  0
 35 52  1  0  0  0  0
 35 75  1  0  0  0  0
 35 81  2  0  0  0  0
 36 66  1  0  0  0  0
 36 71  1  0  0  0  0
 36 82  2  0  0  0  0
 37 67  1  0  0  0  0
 37 76  1  0  0  0  0
 37 83  2  0  0  0  0
 38 72  1  0  0  0  0
 38 77  1  0  0  0  0
 38 84  2  0  0  0  0
 39 42  1  0  0  0  0
 40 52  1  0  0  0  0
 41 71  1  0  0  0  0
 42 44  1  0  0  0  0
 43 45  1  0  0  0  0
 43 47  1  0  0  0  0
 44 51  1  0  0  0  0
 45 53  1  0  0  0  0
 46 49  1  0  0  0  0
 46 50  1  0  0  0  0
 47 72  1  0  0  0  0
 48 53  1  0  0  0  0
 48 72  1  0  0  0  0
 49 78  1  0  0  0  0
 50 54  1  0  0  0  0
 51 75  1  0  0  0  0
 52 71  1  0  0  0  0
 53 70  1  0  0  0  0
 54 57  1  0  0  0  0
 54 78  1  0  0  0  0
 58 67  1  0  0  0  0
 59 68  1  0  0  0  0
 60 68  1  0  0  0  0
 61 68  1  0  0  0  0
 62 79  1  0  0  0  0
 63 77  1  0  0  0  0
 64 65  1  0  0  0  0
 64 78  1  0  0  0  0
 65 86  1  0  0  0  0
 66 68  1  0  0  0  0
 66 76  1  0  0  0  0
 67 79  1  0  0  0  0
 69 70  1  0  0  0  0
M  CHG  2  78   1  79   1
M  ISO  4  38 100  65 101  77 100  86 101
M  END
> <Batch ID>
0166

> <Smiles>
CNC(C)C(=O)NC(C(=O)N1Cc2cc([101O:1][101CH2:1]CN3CCC(c4cc(C[100NH:0][100C:0](=O)N5CCCC(n6nc(-c7ccc(Oc8ccc(F)cc8F)cc7)c(C(N)=O)c6N)C5)c(C)cc4C)C3C)ccc2CC1C(=O)NC1CCCc2ccccc21)C(C)(C)C

> <Shape>
0.330

> <Color>
0.196

> <Negative vol penalty>
0.000

$$$$

  -OEChem-04052322243D

 87 96  0     1  0  0  0  0  0999 V2000
  -32.0587  -31.7938   14.7245 C   0  0  0  0  0  0  0  0  0  0  0  0
  -31.0401  -30.8548   14.8418 C   0  0  0  0  0  0  0  0  0  0  0  0
  -22.9555  -12.0717   21.9724 C   0  0  0  0  0  0  0  0  0  0  0  0
  -22.7971  -11.0022   19.8118 C   0  0  0  0  0  0  0  0  0  0  0  0
  -32.6090  -32.3662   15.8694 C   0  0  0  0  0  0  0  0  0  0  0  0
  -30.5634  -30.4966   16.1033 C   0  0  0  0  0  0  0  0  0  0  0  0
  -26.4404  -26.3198   17.7408 C   0  0  0  0  0  0  0  0  0  0  0  0
  -25.1280  -18.9696   19.9068 C   0  0  0  0  0  0  0  0  0  0  0  0
  -21.5984  -12.3888   21.9149 C   0  0  0  0  0  0  0  0  0  0  0  0
  -21.4400  -11.3192   19.7543 C   0  0  0  0  0  0  0  0  0  0  0  0
  -26.4290  -24.9774   18.1173 C   0  0  0  0  0  0  0  0  0  0  0  0
  -26.2690  -18.4215   20.4926 C   0  0  0  0  0  0  0  0  0  0  0  0
  -18.2548  -13.7946   22.1743 C   0  0  0  0  0  0  0  0  0  0  0  0
  -17.8727  -15.0852   22.5401 C   0  0  0  0  0  0  0  0  0  0  0  0
  -26.4189  -25.6348   20.4383 C   0  0  0  0  0  0  0  0  0  0  0  0
  -19.2580  -15.9938   20.7815 C   0  0  0  0  0  0  0  0  0  0  0  0
  -23.5549  -11.3785   20.9207 C   0  0  0  0  0  0  0  0  0  0  0  0
  -25.5359   -9.8847   21.5139 C   0  0  0  0  0  0  0  0  0  0  0  0
  -32.1468  -32.0051   17.1457 C   0  0  0  0  0  0  0  0  0  0  0  0
  -26.4521  -27.3313   18.7118 C   0  0  0  0  0  0  0  0  0  0  0  0
  -31.0895  -31.0808   17.2697 C   0  0  0  0  0  0  0  0  0  0  0  0
  -26.4278  -26.9893   20.0714 C   0  0  0  0  0  0  0  0  0  0  0  0
  -25.1740  -20.2496   19.3542 C   0  0  0  0  0  0  0  0  0  0  0  0
  -26.3610  -20.9814   19.3875 C   0  0  0  0  0  0  0  0  0  0  0  0
  -27.5021  -20.4332   19.9733 C   0  0  0  0  0  0  0  0  0  0  0  0
  -20.8406  -12.0125   20.8059 C   0  0  0  0  0  0  0  0  0  0  0  0
  -26.4211  -24.6348   19.4662 C   0  0  0  0  0  0  0  0  0  0  0  0
  -27.4561  -19.1533   20.5259 C   0  0  0  0  0  0  0  0  0  0  0  0
  -19.1385  -13.6035   21.1121 C   0  0  0  0  0  0  0  0  0  0  0  0
  -18.3742  -16.1848   21.8437 C   0  0  0  0  0  0  0  0  0  0  0  0
  -19.6401  -14.7031   20.4157 C   0  0  0  0  0  0  0  0  0  0  0  0
  -24.9569  -11.0512   20.9792 C   0  0  0  0  0  0  0  0  0  0  0  0
  -26.8861  -10.0560   21.3293 C   0  0  0  0  0  0  0  0  0  0  0  0
  -24.9093   -8.7480   22.1230 C   0  0  0  0  0  0  0  0  0  0  0  0
  -28.4640  -29.6637   19.4970 C   0  0  0  0  0  0  0  0  0  0  0  0
  -26.0783  -30.5094   21.5257 C   0  0  0  0  0  0  0  0  0  0  0  0
  -23.3310  -29.5698   23.3192 C   0  0  0  0  0  0  0  0  0  0  0  0
  -30.3023  -14.9284   20.7023 C   0  0  0  0  0  0  0  0  0  0  0  0
  -32.7728  -32.6615   18.3509 C   0  0  0  0  0  0  0  0  0  0  0  0
  -26.4374  -28.7748   18.2892 C   0  0  0  0  0  0  0  0  0  0  0  0
  -26.4194  -28.0375   21.1529 C   0  0  0  0  0  0  0  0  0  0  0  0
  -32.5135  -31.8980   19.6455 C   0  0  0  0  0  0  0  0  0  0  0  0
  -30.0455  -12.2011   18.4742 C   0  0  0  0  0  0  0  0  0  0  0  0
  -31.0321  -31.5751   19.7708 C   0  0  0  0  0  0  0  0  0  0  0  0
  -28.7532  -11.4998   18.8835 C   0  0  0  0  0  0  0  0  0  0  0  0
  -29.5437  -17.6414   23.1050 C   0  0  0  0  0  0  0  0  0  0  0  0
  -29.9003  -13.7123   18.5907 C   0  0  0  0  0  0  0  0  0  0  0  0
  -30.5268  -16.7395   22.3727 C   0  0  0  0  0  0  0  0  0  0  0  0
  -28.2395  -13.4704   20.4161 C   0  0  0  0  0  0  0  0  0  0  0  0
  -28.3010  -16.2617   21.6022 C   0  0  0  0  0  0  0  0  0  0  0  0
  -30.5760  -30.6532   18.6327 C   0  0  1  0  0  0  0  0  0  0  0  0
  -26.9682  -29.7177   19.3645 C   0  0  1  0  0  0  0  0  0  0  0  0
  -28.3234  -11.9349   20.2931 C   0  0  1  0  0  0  0  0  0  0  0  0
  -28.3429  -17.6770   22.1659 C   0  0  2  0  0  0  0  0  0  0  0  0
  -23.9377  -20.8128   18.7329 C   0  0  0  0  0  0  0  0  0  0  0  0
  -29.9086  -20.5219   19.2287 C   0  0  0  0  0  0  0  0  0  0  0  0
  -29.2398  -21.5055   21.4514 C   0  0  0  0  0  0  0  0  0  0  0  0
  -21.6152  -30.4728   24.9123 C   0  0  0  0  0  0  0  0  0  0  0  0
  -28.1401  -30.4538   23.7742 C   0  0  0  0  0  0  0  0  0  0  0  0
  -26.2484  -30.4157   25.4138 C   0  0  0  0  0  0  0  0  0  0  0  0
  -26.5301  -32.3644   23.8822 C   0  0  0  0  0  0  0  0  0  0  0  0
  -21.1117  -28.9507   21.4618 C   0  0  0  0  0  0  0  0  0  0  0  0
  -26.4082  -22.3537   18.7937 C   0  0  0  0  0  0  0  0  0  1  0  0
  -28.7785  -21.2117   20.0130 C   0  0  0  0  0  0  0  0  0  0  0  0
  -25.7113  -30.1622   22.9484 C   0  0  1  0  0  0  0  0  0  0  0  0
  -21.9549  -30.1960   23.4561 C   0  0  2  0  0  0  0  0  0  0  0  0
  -26.6596  -30.8290   23.9845 C   0  0  0  0  0  0  0  0  0  0  0  0
  -25.8649  -11.9007   20.4916 N   0  0  0  0  0  0  0  0  0  0  0  0
  -27.0282  -11.2675   20.7193 N   0  0  0  0  0  0  0  0  0  0  0  0
  -26.4118  -29.4348   20.6891 N   0  0  0  0  0  0  0  0  0  0  0  0
  -29.4661  -14.1149   19.9296 N   0  0  0  0  0  0  0  0  0  0  0  0
  -29.7041  -15.8330   21.5792 N   0  0  0  0  0  0  0  0  0  0  0  0
  -27.9538   -9.2869   21.6309 N   0  0  0  0  0  0  0  0  0  0  0  0
  -23.5122   -8.7344   22.2330 N   0  0  0  0  0  0  0  0  0  0  0  0
  -29.1345  -30.5404   18.6656 N   0  0  0  0  0  0  0  0  0  0  0  0
  -24.3062  -30.5212   23.1067 N   0  0  0  0  0  0  0  0  0  0  0  0
  -20.9147  -29.2881   22.8951 N   0  3  0  0  0  0  0  0  0  0  0  0
  -25.5700   -7.7807   22.5717 O   0  0  0  0  0  0  0  0  0  0  0  0
  -28.9720  -28.8853   20.2956 O   0  0  0  0  0  0  0  0  0  0  0  0
  -26.0625  -31.6898   21.1680 O   0  0  0  0  0  0  0  0  0  0  0  0
  -23.5223  -28.3583   23.3971 O   0  0  0  0  0  0  0  0  0  0  0  0
  -31.5341  -14.8801   20.5835 O   0  0  0  0  0  0  0  0  0  0  0  0
  -19.5163  -12.3215   20.7497 O   0  0  0  0  0  0  0  0  0  0  0  0
  -28.5664  -18.5979   21.1057 O   0  0  0  0  0  0  0  0  0  0  0  0
  -26.4106  -23.3156   19.8393 O   0  0  0  0  0  0  0  0  0  1  0  0
  -18.0060  -17.4241   22.1941 F   0  0  0  0  0  0  0  0  0  0  0  0
  -20.4885  -14.5258   19.3937 F   0  0  0  0  0  0  0  0  0  0  0  0
  1  2  1  0  0  0  0
  1  5  2  0  0  0  0
  2  6  2  0  0  0  0
  3  9  2  0  0  0  0
  3 17  1  0  0  0  0
  4 10  1  0  0  0  0
  4 17  2  0  0  0  0
  5 19  1  0  0  0  0
  6 21  1  0  0  0  0
  7 11  2  0  0  0  0
  7 20  1  0  0  0  0
  8 12  1  0  0  0  0
  8 23  2  0  0  0  0
  9 26  1  0  0  0  0
 10 26  2  0  0  0  0
 11 27  1  0  0  0  0
 12 28  2  0  0  0  0
 13 14  2  0  0  0  0
 13 29  1  0  0  0  0
 14 30  1  0  0  0  0
 15 22  1  0  0  0  0
 15 27  2  0  0  0  0
 16 30  2  0  0  0  0
 16 31  1  0  0  0  0
 17 32  1  0  0  0  0
 18 32  1  0  0  0  0
 18 33  2  0  0  0  0
 18 34  1  0  0  0  0
 19 21  2  0  0  0  0
 19 39  1  0  0  0  0
 20 22  2  0  0  0  0
 20 40  1  0  0  0  0
 21 51  1  0  0  0  0
 22 41  1  0  0  0  0
 23 24  1  0  0  0  0
 23 55  1  0  0  0  0
 24 25  2  0  0  0  0
 24 63  1  0  0  0  0
 25 28  1  0  0  0  0
 25 64  1  0  0  0  0
 26 83  1  0  0  0  0
 27 85  1  0  0  0  0
 28 84  1  0  0  0  0
 29 31  2  0  0  0  0
 29 83  1  0  0  0  0
 30 86  1  0  0  0  0
 31 87  1  0  0  0  0
 32 68  2  0  0  0  0
 33 69  1  0  0  0  0
 33 73  1  0  0  0  0
 34 74  1  0  0  0  0
 34 78  2  0  0  0  0
 35 52  1  0  0  0  0
 35 75  1  0  0  0  0
 35 79  2  0  0  0  0
 36 65  1  0  0  0  0
 36 70  1  0  0  0  0
 36 80  2  0  0  0  0
 37 66  1  0  0  0  0
 37 76  1  0  0  0  0
 37 81  2  0  0  0  0
 38 71  1  0  0  0  0
 38 72  1  0  0  0  0
 38 82  2  0  0  0  0
 39 42  1  0  0  0  0
 40 52  1  0  0  0  0
 41 70  1  0  0  0  0
 42 44  1  0  0  0  0
 43 45  1  0  0  0  0
 43 47  1  0  0  0  0
 44 51  1  0  0  0  0
 45 53  1  0  0  0  0
 46 48  1  0  0  0  0
 46 54  1  0  0  0  0
 47 71  1  0  0  0  0
 48 72  1  0  0  0  0
 49 53  1  0  0  0  0
 49 71  1  0  0  0  0
 50 54  1  0  0  0  0
 50 72  1  0  0  0  0
 51 75  1  0  0  0  0
 52 70  1  0  0  0  0
 53 69  1  0  0  0  0
 54 84  1  0  0  0  0
 56 64  1  0  0  0  0
 57 64  1  0  0  0  0
 58 66  1  0  0  0  0
 59 67  1  0  0  0  0
 60 67  1  0  0  0  0
 61 67  1  0  0  0  0
 62 77  1  0  0  0  0
 63 85  1  0  0  0  0
 65 67  1  0  0  0  0
 65 76  1  0  0  0  0
 66 77  1  0  0  0  0
 68 69  1  0  0  0  0
M  CHG  1  77   1
M  ISO  4  38 100  63 101  72 100  85 101
M  END
> <Batch ID>
0166

> <Smiles>
CNC(C)C(=O)NC(C(=O)N1Cc2cc([101O:1][101CH2:1]c3c(C)ccc(OC4CC[100N:0]([100C:0](=O)N5CCCC(n6nc(-c7ccc(Oc8ccc(F)cc8F)cc7)c(C(N)=O)c6N)C5)C4)c3C(C)C)ccc2CC1C(=O)NC1CCCc2ccccc21)C(C)(C)C

> <Shape>
0.256

> <Color>
0.096

> <Negative vol penalty>
0.000

$$$$

  -OEChem-04052322243D

 95105  0     1  0  0  0  0  0999 V2000
  -18.3965  -23.9125   21.6824 C   0  0  0  0  0  0  0  0  0  0  0  0
  -19.7558  -23.6282   21.7637 C   0  0  0  0  0  0  0  0  0  0  0  0
  -22.4940  -12.1842   18.9821 C   0  0  0  0  0  0  0  0  0  0  0  0
  -23.0951  -10.1332   20.1086 C   0  0  0  0  0  0  0  0  0  0  0  0
  -17.9494  -25.2241   21.8365 C   0  0  0  0  0  0  0  0  0  0  0  0
  -20.6691  -24.6555   21.9980 C   0  0  0  0  0  0  0  0  0  0  0  0
  -24.1416  -23.4138   25.4686 C   0  0  0  0  0  0  0  0  0  0  0  0
  -21.4232  -11.5337   18.3691 C   0  0  0  0  0  0  0  0  0  0  0  0
  -22.0243   -9.4827   19.4956 C   0  0  0  0  0  0  0  0  0  0  0  0
  -25.1869  -22.5884   25.0565 C   0  0  0  0  0  0  0  0  0  0  0  0
  -18.2983  -10.5490   19.2046 C   0  0  0  0  0  0  0  0  0  0  0  0
  -17.0671  -11.2043   19.1848 C   0  0  0  0  0  0  0  0  0  0  0  0
  -26.6206  -24.5173   24.8497 C   0  0  0  0  0  0  0  0  0  0  0  0
  -17.0821  -11.1597   16.7693 C   0  0  0  0  0  0  0  0  0  0  0  0
  -31.8575  -20.4262   17.6155 C   0  0  0  0  0  0  0  0  0  0  0  0
  -23.3300  -11.4839   19.8519 C   0  0  0  0  0  0  0  0  0  0  0  0
  -24.4271  -12.8306   21.7202 C   0  0  0  0  0  0  0  0  0  0  0  0
  -18.8568  -26.2667   22.0825 C   0  0  0  0  0  0  0  0  0  0  0  0
  -24.3251  -24.8008   25.5641 C   0  0  0  0  0  0  0  0  0  0  0  0
  -20.2339  -25.9825   22.1542 C   0  0  0  0  0  0  0  0  0  0  0  0
  -25.5768  -25.3579   25.2658 C   0  0  0  0  0  0  0  0  0  0  0  0
  -30.8422  -20.7405   18.5043 C   0  0  0  0  0  0  0  0  0  0  0  0
  -30.4712  -22.0752   18.6230 C   0  0  0  0  0  0  0  0  0  0  0  0
  -31.1178  -23.0413   17.8601 C   0  0  0  0  0  0  0  0  0  0  0  0
  -21.1883  -10.1830   18.6258 C   0  0  0  0  0  0  0  0  0  0  0  0
  -26.4258  -23.1404   24.7442 C   0  0  0  0  0  0  0  0  0  0  0  0
  -18.9215  -10.1992   18.0067 C   0  0  0  0  0  0  0  0  0  0  0  0
  -16.4590  -11.5096   17.9672 C   0  0  0  0  0  0  0  0  0  0  0  0
  -18.3134  -10.5045   16.7890 C   0  0  0  0  0  0  0  0  0  0  0  0
  -24.4366  -12.1552   20.4850 C   0  0  0  0  0  0  0  0  0  0  0  0
  -32.1209  -22.6240   17.0002 C   0  0  0  0  0  0  0  0  0  0  0  0
  -25.7131  -13.2891   21.8707 C   0  0  0  0  0  0  0  0  0  0  0  0
  -23.3521  -13.0259   22.6485 C   0  0  0  0  0  0  0  0  0  0  0  0
  -23.0351  -27.3369   24.1472 C   0  0  0  0  0  0  0  0  0  0  0  0
  -24.8397  -28.9674   26.2937 C   0  0  0  0  0  0  0  0  0  0  0  0
  -27.5667  -29.0125   28.3450 C   0  0  0  0  0  0  0  0  0  0  0  0
  -30.3050  -15.5974   19.9715 C   0  0  0  0  0  0  0  0  0  0  0  0
  -18.3306  -27.6756   22.1952 C   0  0  0  0  0  0  0  0  0  0  0  0
  -23.1954  -25.6745   26.0358 C   0  0  0  0  0  0  0  0  0  0  0  0
  -25.8313  -26.8386   25.3715 C   0  0  0  0  0  0  0  0  0  0  0  0
  -19.3287  -28.6509   22.8137 C   0  0  0  0  0  0  0  0  0  0  0  0
  -29.9198  -12.2321   19.2828 C   0  0  0  0  0  0  0  0  0  0  0  0
  -20.7064  -28.4768   22.1825 C   0  0  0  0  0  0  0  0  0  0  0  0
  -28.4584  -11.9543   19.6339 C   0  0  0  0  0  0  0  0  0  0  0  0
  -29.4528  -18.6233   18.4109 C   0  0  0  0  0  0  0  0  0  0  0  0
  -31.1623  -18.9336   20.2523 C   0  0  0  0  0  0  0  0  0  0  0  0
  -30.0645  -13.5711   18.5690 C   0  0  0  0  0  0  0  0  0  0  0  0
  -28.8070  -17.5017   19.2294 C   0  0  0  0  0  0  0  0  0  0  0  0
  -30.4631  -17.8268   21.0363 C   0  0  0  0  0  0  0  0  0  0  0  0
  -28.0528  -14.4647   19.6972 C   0  0  0  0  0  0  0  0  0  0  0  0
  -27.2750  -21.9500   20.5612 C   0  0  0  0  0  0  0  0  0  0  0  0
  -30.1727  -19.6437   19.3108 C   0  0  0  0  0  0  0  0  0  0  0  0
  -29.3810  -22.4678   19.5682 C   0  0  1  0  0  0  0  0  0  0  0  0
  -21.2532  -27.0660   22.4319 C   0  0  1  0  0  0  0  0  0  0  0  0
  -23.3445  -27.1297   25.6029 C   0  0  1  0  0  0  0  0  0  0  0  0
  -28.0668  -21.7322   19.2775 C   0  0  2  0  0  0  0  0  0  0  0  0
  -27.8490  -13.1225   20.4290 C   0  0  1  0  0  0  0  0  0  0  0  0
  -29.6945  -22.0223   21.0039 C   0  0  1  0  0  0  0  0  0  0  0  0
  -30.7415  -24.4812   17.9635 C   0  0  0  0  0  0  0  0  0  0  0  0
  -32.8520  -23.6160   16.1559 C   0  0  0  0  0  0  0  0  0  0  0  0
  -27.3262  -22.2519   18.0534 C   0  0  0  0  0  0  0  0  0  0  0  0
  -28.8037  -30.4981   29.9451 C   0  0  0  0  0  0  0  0  0  0  0  0
  -29.9311  -24.3754   21.8467 C   0  0  0  0  0  0  0  0  0  0  0  0
  -30.8758  -22.4653   23.1744 C   0  0  0  0  0  0  0  0  0  0  0  0
  -26.0030  -30.5264   23.9429 C   0  0  0  0  0  0  0  0  0  0  0  0
  -27.8540  -31.2819   25.4500 C   0  0  0  0  0  0  0  0  0  0  0  0
  -25.4951  -31.9101   25.9633 C   0  0  0  0  0  0  0  0  0  0  0  0
  -27.1300  -27.1443   30.5985 C   0  0  0  0  0  0  0  0  0  0  0  0
  -28.1754  -20.8113   22.6260 C   0  0  0  0  0  0  0  0  0  0  0  0
  -27.1002  -21.1441   23.6416 C   0  0  0  0  0  0  0  0  0  1  0  0
  -26.2444  -29.5202   26.3084 C   0  0  1  0  0  0  0  0  0  0  0  0
  -27.7297  -29.4319   29.7949 C   0  0  2  0  0  0  0  0  0  0  0  0
  -30.5802  -22.9929   21.7699 C   0  0  0  0  0  0  0  0  0  0  0  0
  -26.3941  -30.7819   25.4122 C   0  0  0  0  0  0  0  0  0  0  0  0
  -32.5088  -21.3368   16.8577 N   0  0  0  0  0  0  0  0  0  0  0  0
  -25.6336  -12.1802   19.8929 N   0  0  0  0  0  0  0  0  0  0  0  0
  -26.3882  -12.8769   20.7596 N   0  0  0  0  0  0  0  0  0  0  0  0
  -24.6934  -27.6519   25.8312 N   0  0  0  0  0  0  0  0  0  0  0  0
  -29.4708  -14.6535   19.3537 N   0  0  0  0  0  0  0  0  0  0  0  0
  -29.7878  -16.8910   20.1375 N   0  0  0  0  0  0  0  0  0  0  0  0
  -26.3208  -14.0008   22.8436 N   0  0  0  0  0  0  0  0  0  0  0  0
  -22.0955  -12.4882   22.3383 N   0  0  0  0  0  0  0  0  0  0  0  0
  -21.7590  -26.9515   23.7830 N   0  0  0  0  0  0  0  0  0  0  0  0
  -26.5820  -29.7398   27.7106 N   0  0  0  0  0  0  0  0  0  0  0  0
  -28.3183  -21.9526   21.6649 N   0  3  2  0  0  0  0  0  0  0  0  0
  -28.1101  -28.2602   30.6334 N   0  3  0  0  0  0  0  0  0  0  0  0
  -23.4972  -13.6726   23.7135 O   0  0  0  0  0  0  0  0  0  0  0  0
  -23.8901  -27.8126   23.4095 O   0  0  0  0  0  0  0  0  0  0  0  0
  -23.9075  -29.6741   26.6851 O   0  0  0  0  0  0  0  0  0  0  0  0
  -28.2476  -28.1306   27.8262 O   0  0  0  0  0  0  0  0  0  0  0  0
  -31.4445  -15.3024   20.3532 O   0  0  0  0  0  0  0  0  0  0  0  0
  -20.1434   -9.5479   18.0280 O   0  0  0  0  0  0  0  0  0  0  0  0
  -27.4548  -22.3313   24.3382 O   0  0  0  0  0  0  0  0  0  1  0  0
  -15.2760  -12.1375   17.9484 F   0  0  0  0  0  0  0  0  0  0  0  0
  -18.9066  -10.1698   15.6350 F   0  0  0  0  0  0  0  0  0  0  0  0
  1  2  1  0  0  0  0
  1  5  2  0  0  0  0
  2  6  2  0  0  0  0
  3  8  2  0  0  0  0
  3 16  1  0  0  0  0
  4  9  1  0  0  0  0
  4 16  2  0  0  0  0
  5 18  1  0  0  0  0
  6 20  1  0  0  0  0
  7 10  2  0  0  0  0
  7 19  1  0  0  0  0
  8 25  1  0  0  0  0
  9 25  2  0  0  0  0
 10 26  1  0  0  0  0
 11 12  2  0  0  0  0
 11 27  1  0  0  0  0
 12 28  1  0  0  0  0
 13 21  1  0  0  0  0
 13 26  2  0  0  0  0
 14 28  2  0  0  0  0
 14 29  1  0  0  0  0
 15 22  2  0  0  0  0
 15 75  1  0  0  0  0
 16 30  1  0  0  0  0
 17 30  1  0  0  0  0
 17 32  2  0  0  0  0
 17 33  1  0  0  0  0
 18 20  2  0  0  0  0
 18 38  1  0  0  0  0
 19 21  2  0  0  0  0
 19 39  1  0  0  0  0
 20 54  1  0  0  0  0
 21 40  1  0  0  0  0
 22 23  1  0  0  0  0
 22 52  1  0  0  0  0
 23 24  2  0  0  0  0
 23 53  1  0  0  0  0
 24 31  1  0  0  0  0
 24 59  1  0  0  0  0
 25 92  1  0  0  0  0
 26 93  1  0  0  0  0
 27 29  2  0  0  0  0
 27 92  1  0  0  0  0
 28 94  1  0  0  0  0
 29 95  1  0  0  0  0
 30 76  2  0  0  0  0
 31 60  1  0  0  0  0
 31 75  2  0  0  0  0
 32 77  1  0  0  0  0
 32 81  1  0  0  0  0
 33 82  1  0  0  0  0
 33 87  2  0  0  0  0
 34 55  1  0  0  0  0
 34 83  1  0  0  0  0
 34 88  2  0  0  0  0
 35 71  1  0  0  0  0
 35 78  1  0  0  0  0
 35 89  2  0  0  0  0
 36 72  1  0  0  0  0
 36 84  1  0  0  0  0
 36 90  2  0  0  0  0
 37 79  1  0  0  0  0
 37 80  1  0  0  0  0
 37 91  2  0  0  0  0
 38 41  1  0  0  0  0
 39 55  1  0  0  0  0
 40 78  1  0  0  0  0
 41 43  1  0  0  0  0
 42 44  1  0  0  0  0
 42 47  1  0  0  0  0
 43 54  1  0  0  0  0
 44 57  1  0  0  0  0
 45 48  1  0  0  0  0
 45 52  1  0  0  0  0
 46 49  1  0  0  0  0
 46 52  1  0  0  0  0
 47 79  1  0  0  0  0
 48 80  1  0  0  0  0
 49 80  1  0  0  0  0
 50 57  1  0  0  0  0
 50 79  1  0  0  0  0
 51 56  1  0  0  0  0
 51 85  1  0  0  0  0
 53 56  1  0  0  0  0
 53 58  1  0  0  0  0
 54 83  1  0  0  0  0
 55 78  1  0  0  0  0
 56 61  1  0  0  0  0
 57 77  1  0  0  0  0
 58 73  1  0  0  0  0
 58 85  1  0  0  0  0
 62 72  1  0  0  0  0
 63 73  1  0  0  0  0
 64 73  1  0  0  0  0
 65 74  1  0  0  0  0
 66 74  1  0  0  0  0
 67 74  1  0  0  0  0
 68 86  1  0  0  0  0
 69 70  1  0  0  0  0
 69 85  1  0  0  0  0
 70 93  1  0  0  0  0
 71 74  1  0  0  0  0
 71 84  1  0  0  0  0
 72 86  1  0  0  0  0
 76 77  1  0  0  0  0
M  CHG  2  85   1  86   1
M  ISO  4  37 100  70 101  80 100  93 101
M  END
> <Batch ID>
0166

> <Smiles>
CNC(C)C(=O)NC(C(=O)N1Cc2cc([101O:1][101CH2:1]CN3CC(C)C(c4c(C5CC[100N:0]([100C:0](=O)N6CCCC(n7nc(-c8ccc(Oc9ccc(F)cc9F)cc8)c(C(N)=O)c7N)C6)CC5)cnc(C)c4C)C3C(C)C)ccc2CC1C(=O)NC1CCCc2ccccc21)C(C)(C)C

> <Shape>
0.242

> <Color>
0.098

> <Negative vol penalty>
0.000

$$$$

  -OEChem-04052322243D

 89 98  0     1  0  0  0  0  0999 V2000
  -26.9450  -38.0272   22.5801 C   0  0  0  0  0  0  0  0  0  0  0  0
  -27.5136  -37.0432   21.7777 C   0  0  0  0  0  0  0  0  0  0  0  0
  -32.0865  -14.1071   19.0355 C   0  0  0  0  0  0  0  0  0  0  0  0
  -32.1497  -12.1399   20.4367 C   0  0  0  0  0  0  0  0  0  0  0  0
  -26.2156  -37.6664   23.7122 C   0  0  0  0  0  0  0  0  0  0  0  0
  -27.3541  -35.6978   22.1076 C   0  0  0  0  0  0  0  0  0  0  0  0
  -26.6990  -29.2441   19.0683 C   0  0  0  0  0  0  0  0  0  0  0  0
  -33.4763  -14.2019   19.1059 C   0  0  0  0  0  0  0  0  0  0  0  0
  -33.5395  -12.2348   20.5071 C   0  0  0  0  0  0  0  0  0  0  0  0
  -27.2585  -27.9681   19.1186 C   0  0  0  0  0  0  0  0  0  0  0  0
  -37.1337  -11.7485   20.7599 C   0  0  0  0  0  0  0  0  0  0  0  0
  -37.8737  -10.5784   20.5904 C   0  0  0  0  0  0  0  0  0  0  0  0
  -25.9111  -27.4601   21.0539 C   0  0  0  0  0  0  0  0  0  0  0  0
  -28.3715  -23.1091   18.4867 C   0  0  0  0  0  0  0  0  0  0  0  0
  -36.9316  -10.3024   18.3828 C   0  0  0  0  0  0  0  0  0  0  0  0
  -31.4231  -13.0761   19.7009 C   0  0  0  0  0  0  0  0  0  0  0  0
  -29.2303  -12.2731   18.6741 C   0  0  0  0  0  0  0  0  0  0  0  0
  -26.0388  -36.3155   24.0508 C   0  0  0  0  0  0  0  0  0  0  0  0
  -25.7477  -29.6421   20.0186 C   0  0  0  0  0  0  0  0  0  0  0  0
  -26.6227  -35.3186   23.2460 C   0  0  0  0  0  0  0  0  0  0  0  0
  -25.3391  -28.7408   21.0119 C   0  0  0  0  0  0  0  0  0  0  0  0
  -28.8354  -24.0925   19.3604 C   0  0  0  0  0  0  0  0  0  0  0  0
  -28.7835  -21.7857   18.6440 C   0  0  0  0  0  0  0  0  0  0  0  0
  -29.7113  -23.7526   20.3913 C   0  0  0  0  0  0  0  0  0  0  0  0
  -30.1234  -22.4293   20.5486 C   0  0  0  0  0  0  0  0  0  0  0  0
  -34.2028  -13.2658   19.8417 C   0  0  0  0  0  0  0  0  0  0  0  0
  -26.8667  -27.0769   20.1132 C   0  0  0  0  0  0  0  0  0  0  0  0
  -36.2925  -12.1956   19.7409 C   0  0  0  0  0  0  0  0  0  0  0  0
  -29.6594  -21.4458   19.6749 C   0  0  0  0  0  0  0  0  0  0  0  0
  -37.7727   -9.8554   19.4018 C   0  0  0  0  0  0  0  0  0  0  0  0
  -36.1915  -11.4726   18.5523 C   0  0  0  0  0  0  0  0  0  0  0  0
  -29.9874  -12.9779   19.6290 C   0  0  0  0  0  0  0  0  0  0  0  0
  -27.9250  -12.4918   19.0414 C   0  0  0  0  0  0  0  0  0  0  0  0
  -29.6678  -11.4907   17.5551 C   0  0  0  0  0  0  0  0  0  0  0  0
  -25.6110  -31.9096   22.2420 C   0  0  0  0  0  0  0  0  0  0  0  0
  -22.5614  -30.8552   22.5747 C   0  0  0  0  0  0  0  0  0  0  0  0
  -20.3166  -28.3136   22.1906 C   0  0  0  0  0  0  0  0  0  0  0  0
  -28.9353  -15.8388   23.1283 C   0  0  0  0  0  0  0  0  0  0  0  0
  -25.2821  -35.9758   25.3104 C   0  0  0  0  0  0  0  0  0  0  0  0
  -25.1340  -31.0128   19.9345 C   0  0  0  0  0  0  0  0  0  0  0  0
  -24.3065  -29.1123   22.0436 C   0  0  0  0  0  0  0  0  0  0  0  0
  -24.8436  -34.5154   25.3824 C   0  0  0  0  0  0  0  0  0  0  0  0
  -27.0612  -12.8817   23.3311 C   0  0  0  0  0  0  0  0  0  0  0  0
  -25.9960  -33.5925   24.9991 C   0  0  0  0  0  0  0  0  0  0  0  0
  -26.3033  -12.8111   22.0077 C   0  0  0  0  0  0  0  0  0  0  0  0
  -28.3809  -18.8452   20.9700 C   0  0  0  0  0  0  0  0  0  0  0  0
  -30.8389  -18.4965   21.3878 C   0  0  0  0  0  0  0  0  0  0  0  0
  -27.1260  -14.3121   23.8474 C   0  0  0  0  0  0  0  0  0  0  0  0
  -28.0806  -18.0281   22.2201 C   0  0  0  0  0  0  0  0  0  0  0  0
  -30.4957  -17.6808   22.6287 C   0  0  0  0  0  0  0  0  0  0  0  0
  -27.0347  -15.2276   21.5475 C   0  0  0  0  0  0  0  0  0  0  0  0
  -26.4509  -33.8476   23.5571 C   0  0  1  0  0  0  0  0  0  0  0  0
  -24.5524  -31.4894   21.2619 C   0  0  1  0  0  0  0  0  0  0  0  0
  -26.8017  -13.8193   20.9569 C   0  0  1  0  0  0  0  0  0  0  0  0
  -29.7503  -19.5173   21.0638 C   0  0  0  0  0  0  0  0  0  0  0  0
  -30.2070  -24.8084   21.3279 C   0  0  0  0  0  0  0  0  0  0  0  0
  -31.0619  -22.0583   21.6524 C   0  0  0  0  0  0  0  0  0  0  0  0
  -28.7066  -21.0153   16.2452 C   0  0  0  0  0  0  0  0  0  0  0  0
  -26.7460  -20.5858   17.7705 C   0  0  0  0  0  0  0  0  0  0  0  0
  -17.9067  -27.7370   22.5876 C   0  0  0  0  0  0  0  0  0  0  0  0
  -23.1347  -30.5203   25.5528 C   0  0  0  0  0  0  0  0  0  0  0  0
  -21.0875  -29.0882   25.7147 C   0  0  0  0  0  0  0  0  0  0  0  0
  -20.8851  -31.4768   25.0246 C   0  0  0  0  0  0  0  0  0  0  0  0
  -19.8288  -27.8630   19.3065 C   0  0  0  0  0  0  0  0  0  0  0  0
  -28.3788  -25.5021   19.1701 C   0  0  0  0  0  0  0  0  0  1  0  0
  -28.2756  -20.7473   17.6989 C   0  0  0  0  0  0  0  0  0  0  0  0
  -21.8802  -29.8013   23.4138 C   0  0  1  0  0  0  0  0  0  0  0  0
  -18.9206  -28.2840   21.5949 C   0  0  2  0  0  0  0  0  0  0  0  0
  -21.7678  -30.2151   24.9083 C   0  0  0  0  0  0  0  0  0  0  0  0
  -29.2265  -13.5980   20.5348 N   0  0  0  0  0  0  0  0  0  0  0  0
  -27.9776  -13.2837   20.1506 N   0  0  0  0  0  0  0  0  0  0  0  0
  -23.7404  -30.4660   21.9232 N   0  0  0  0  0  0  0  0  0  0  0  0
  -27.7101  -15.2101   22.8531 N   0  0  0  0  0  0  0  0  0  0  0  0
  -29.1647  -17.0830   22.5213 N   0  0  0  0  0  0  0  0  0  0  0  0
  -26.7489  -12.0821   18.5205 N   0  0  0  0  0  0  0  0  0  0  0  0
  -31.0445  -11.3697   17.3218 N   0  0  0  0  0  0  0  0  0  0  0  0
  -25.5317  -33.2360   22.6214 N   0  0  0  0  0  0  0  0  0  0  0  0
  -20.5988  -29.5325   22.7702 N   0  0  0  0  0  0  0  0  0  0  0  0
  -18.8954  -27.4262   20.3765 N   0  3  0  0  0  0  0  0  0  0  0  0
  -28.8613  -10.9294   16.7753 O   0  0  0  0  0  0  0  0  0  0  0  0
  -26.4375  -31.0908   22.6266 O   0  0  0  0  0  0  0  0  0  0  0  0
  -22.0619  -31.9803   22.4942 O   0  0  0  0  0  0  0  0  0  0  0  0
  -21.0789  -27.3504   22.1494 O   0  0  0  0  0  0  0  0  0  0  0  0
  -29.7885  -15.3102   23.8524 O   0  0  0  0  0  0  0  0  0  0  0  0
  -35.5591  -13.3579   19.9104 O   0  0  0  0  0  0  0  0  0  0  0  0
  -30.0646  -20.1459   19.8268 O   0  0  0  0  0  0  0  0  0  0  0  0
  -27.4156  -25.8221   20.1653 O   0  0  0  0  0  0  0  0  0  1  0  0
  -38.4846   -8.7326   19.2385 F   0  0  0  0  0  0  0  0  0  0  0  0
  -35.3860  -11.8977   17.5694 F   0  0  0  0  0  0  0  0  0  0  0  0
  1  2  1  0  0  0  0
  1  5  2  0  0  0  0
  2  6  2  0  0  0  0
  3  8  2  0  0  0  0
  3 16  1  0  0  0  0
  4  9  1  0  0  0  0
  4 16  2  0  0  0  0
  5 18  1  0  0  0  0
  6 20  1  0  0  0  0
  7 10  2  0  0  0  0
  7 19  1  0  0  0  0
  8 26  1  0  0  0  0
  9 26  2  0  0  0  0
 10 27  1  0  0  0  0
 11 12  2  0  0  0  0
 11 28  1  0  0  0  0
 12 30  1  0  0  0  0
 13 21  1  0  0  0  0
 13 27  2  0  0  0  0
 14 22  1  0  0  0  0
 14 23  2  0  0  0  0
 15 30  2  0  0  0  0
 15 31  1  0  0  0  0
 16 32  1  0  0  0  0
 17 32  1  0  0  0  0
 17 33  2  0  0  0  0
 17 34  1  0  0  0  0
 18 20  2  0  0  0  0
 18 39  1  0  0  0  0
 19 21  2  0  0  0  0
 19 40  1  0  0  0  0
 20 52  1  0  0  0  0
 21 41  1  0  0  0  0
 22 24  2  0  0  0  0
 22 65  1  0  0  0  0
 23 29  1  0  0  0  0
 23 66  1  0  0  0  0
 24 25  1  0  0  0  0
 24 56  1  0  0  0  0
 25 29  2  0  0  0  0
 25 57  1  0  0  0  0
 26 85  1  0  0  0  0
 27 87  1  0  0  0  0
 28 31  2  0  0  0  0
 28 85  1  0  0  0  0
 29 86  1  0  0  0  0
 30 88  1  0  0  0  0
 31 89  1  0  0  0  0
 32 70  2  0  0  0  0
 33 71  1  0  0  0  0
 33 75  1  0  0  0  0
 34 76  1  0  0  0  0
 34 80  2  0  0  0  0
 35 53  1  0  0  0  0
 35 77  1  0  0  0  0
 35 81  2  0  0  0  0
 36 67  1  0  0  0  0
 36 72  1  0  0  0  0
 36 82  2  0  0  0  0
 37 68  1  0  0  0  0
 37 78  1  0  0  0  0
 37 83  2  0  0  0  0
 38 73  1  0  0  0  0
 38 74  1  0  0  0  0
 38 84  2  0  0  0  0
 39 42  1  0  0  0  0
 40 53  1  0  0  0  0
 41 72  1  0  0  0  0
 42 44  1  0  0  0  0
 43 45  1  0  0  0  0
 43 48  1  0  0  0  0
 44 52  1  0  0  0  0
 45 54  1  0  0  0  0
 46 49  1  0  0  0  0
 46 55  1  0  0  0  0
 47 50  1  0  0  0  0
 47 55  1  0  0  0  0
 48 73  1  0  0  0  0
 49 74  1  0  0  0  0
 50 74  1  0  0  0  0
 51 54  1  0  0  0  0
 51 73  1  0  0  0  0
 52 77  1  0  0  0  0
 53 72  1  0  0  0  0
 54 71  1  0  0  0  0
 55 86  1  0  0  0  0
 58 66  1  0  0  0  0
 59 66  1  0  0  0  0
 60 68  1  0  0  0  0
 61 69  1  0  0  0  0
 62 69  1  0  0  0  0
 63 69  1  0  0  0  0
 64 79  1  0  0  0  0
 65 87  1  0  0  0  0
 67 69  1  0  0  0  0
 67 78  1  0  0  0  0
 68 79  1  0  0  0  0
 70 71  1  0  0  0  0
M  CHG  1  79   1
M  ISO  4  38 100  65 101  74 100  87 101
M  END
> <Batch ID>
0166

> <Smiles>
CNC(C)C(=O)NC(C(=O)N1Cc2cc([101O:1][101CH2:1]c3cc(C(C)C)c(OC4CC[100N:0]([100C:0](=O)N5CCCC(n6nc(-c7ccc(Oc8ccc(F)cc8F)cc7)c(C(N)=O)c6N)C5)CC4)c(C)c3C)ccc2CC1C(=O)NC1CCCc2ccccc21)C(C)(C)C

> <Shape>
0.300

> <Color>
0.079

> <Negative vol penalty>
0.000

$$$$

  -OEChem-04052322243D

 94104  0     1  0  0  0  0  0999 V2000
  -20.2328  -35.7536   18.7897 C   0  0  0  0  0  0  0  0  0  0  0  0
  -21.2013  -34.7629   18.6632 C   0  0  0  0  0  0  0  0  0  0  0  0
  -25.4398   -8.0423   22.5845 C   0  0  0  0  0  0  0  0  0  0  0  0
  -25.2494   -8.0229   20.1761 C   0  0  0  0  0  0  0  0  0  0  0  0
  -20.4616  -36.8482   19.6225 C   0  0  0  0  0  0  0  0  0  0  0  0
  -22.3996  -34.8668   19.3687 C   0  0  0  0  0  0  0  0  0  0  0  0
  -23.7517  -30.5035   21.5547 C   0  0  0  0  0  0  0  0  0  0  0  0
  -24.0944   -7.6911   22.6938 C   0  0  0  0  0  0  0  0  0  0  0  0
  -23.9039   -7.6715   20.2854 C   0  0  0  0  0  0  0  0  0  0  0  0
  -24.3262  -29.5324   20.7359 C   0  0  0  0  0  0  0  0  0  0  0  0
  -20.8018   -6.4467   23.6025 C   0  0  0  0  0  0  0  0  0  0  0  0
  -20.4647   -5.4465   24.5143 C   0  0  0  0  0  0  0  0  0  0  0  0
  -28.8739  -19.6866   20.9201 C   0  0  0  0  0  0  0  0  0  0  0  0
  -26.5152  -30.1756   21.5194 C   0  0  0  0  0  0  0  0  0  0  0  0
  -21.8826   -3.8893   23.3303 C   0  0  0  0  0  0  0  0  0  0  0  0
  -26.0173   -8.2083   21.3257 C   0  0  0  0  0  0  0  0  0  0  0  0
  -28.5163   -7.8506   21.6929 C   0  0  0  0  0  0  0  0  0  0  0  0
  -21.6593  -36.9607   20.3459 C   0  0  0  0  0  0  0  0  0  0  0  0
  -24.5567  -31.3267   22.3552 C   0  0  0  0  0  0  0  0  0  0  0  0
  -22.6452  -35.9646   20.2109 C   0  0  0  0  0  0  0  0  0  0  0  0
  -28.0570  -18.8975   21.7297 C   0  0  0  0  0  0  0  0  0  0  0  0
  -25.9483  -31.1547   22.3494 C   0  0  0  0  0  0  0  0  0  0  0  0
  -28.5353  -21.0171   20.6737 C   0  0  0  0  0  0  0  0  0  0  0  0
  -26.9014  -19.4388   22.2929 C   0  0  0  0  0  0  0  0  0  0  0  0
  -26.5628  -20.7694   22.0465 C   0  0  0  0  0  0  0  0  0  0  0  0
  -27.3798  -21.5585   21.2369 C   0  0  0  0  0  0  0  0  0  0  0  0
  -23.3264   -7.5056   21.5442 C   0  0  0  0  0  0  0  0  0  0  0  0
  -25.7084  -29.3702   20.7160 C   0  0  0  0  0  0  0  0  0  0  0  0
  -21.6793   -6.1683   22.5545 C   0  0  0  0  0  0  0  0  0  0  0  0
  -21.0051   -4.1678   24.3783 C   0  0  0  0  0  0  0  0  0  0  0  0
  -22.2197   -4.8895   22.4184 C   0  0  0  0  0  0  0  0  0  0  0  0
  -27.4070   -8.5718   21.2122 C   0  0  0  0  0  0  0  0  0  0  0  0
  -29.6021   -8.6116   21.3346 C   0  0  0  0  0  0  0  0  0  0  0  0
  -28.5613   -6.6041   22.4001 C   0  0  0  0  0  0  0  0  0  0  0  0
  -25.1026  -34.4538   22.5198 C   0  0  0  0  0  0  0  0  0  0  0  0
  -26.8264  -33.6203   25.1382 C   0  0  0  0  0  0  0  0  0  0  0  0
  -29.1168  -30.9875   26.0546 C   0  0  0  0  0  0  0  0  0  0  0  0
  -30.4606  -14.3181   20.2652 C   0  0  0  0  0  0  0  0  0  0  0  0
  -21.8810  -38.1859   21.1971 C   0  0  0  0  0  0  0  0  0  0  0  0
  -23.9196  -32.3517   23.2530 C   0  0  0  0  0  0  0  0  0  0  0  0
  -26.8553  -31.9993   23.2052 C   0  0  0  0  0  0  0  0  0  0  0  0
  -23.0220  -38.0329   22.1996 C   0  0  0  0  0  0  0  0  0  0  0  0
  -31.0671  -11.7442   18.0392 C   0  0  0  0  0  0  0  0  0  0  0  0
  -24.2495  -37.4306   21.5234 C   0  0  0  0  0  0  0  0  0  0  0  0
  -30.3104  -10.5593   18.6389 C   0  0  0  0  0  0  0  0  0  0  0  0
  -27.7983  -16.4946   20.9675 C   0  0  0  0  0  0  0  0  0  0  0  0
  -29.9756  -17.2646   22.0049 C   0  0  0  0  0  0  0  0  0  0  0  0
  -30.2552  -13.0285   18.1616 C   0  0  0  0  0  0  0  0  0  0  0  0
  -28.2229  -15.0429   21.2076 C   0  0  0  0  0  0  0  0  0  0  0  0
  -30.3358  -15.8011   22.2435 C   0  0  0  0  0  0  0  0  0  0  0  0
  -27.5325  -23.9447   21.8810 C   0  0  0  0  0  0  0  0  0  0  0  0
  -29.0967  -12.1821   20.1764 C   0  0  0  0  0  0  0  0  0  0  0  0
  -26.8089  -23.2868   19.5928 C   0  0  0  0  0  0  0  0  0  0  0  0
  -26.6141  -25.1579   21.8353 C   0  0  0  0  0  0  0  0  0  0  0  0
  -28.4479  -17.4534   21.9815 C   0  0  0  0  0  0  0  0  0  0  0  0
  -23.9475  -36.0292   20.9789 C   0  0  1  0  0  0  0  0  0  0  0  0
  -24.8704  -33.4801   23.6404 C   0  0  1  0  0  0  0  0  0  0  0  0
  -29.8770  -10.8550   20.0856 C   0  0  1  0  0  0  0  0  0  0  0  0
  -25.8862  -24.5055   19.5035 C   0  0  1  0  0  0  0  0  0  0  0  0
  -29.4302  -21.8377   19.8025 C   0  0  0  0  0  0  0  0  0  0  0  0
  -26.0273  -18.5896   23.1606 C   0  0  0  0  0  0  0  0  0  0  0  0
  -25.3216  -21.3465   22.6525 C   0  0  0  0  0  0  0  0  0  0  0  0
  -24.4333  -24.1706   19.8428 C   0  0  0  0  0  0  0  0  0  0  0  0
  -29.6647  -30.0099   28.2999 C   0  0  0  0  0  0  0  0  0  0  0  0
  -29.1104  -35.6435   25.1392 C   0  0  0  0  0  0  0  0  0  0  0  0
  -30.5543  -33.9084   26.2220 C   0  0  0  0  0  0  0  0  0  0  0  0
  -28.5157  -34.7406   27.3943 C   0  0  0  0  0  0  0  0  0  0  0  0
  -28.4676  -28.2458   25.1486 C   0  0  0  0  0  0  0  0  0  0  0  0
  -27.5556  -26.3704   19.8435 C   0  0  0  0  0  0  0  0  0  0  0  0
  -27.5037  -27.8086   20.3199 C   0  0  0  0  0  0  0  0  0  1  0  0
  -28.2595  -33.2190   25.3915 C   0  0  1  0  0  0  0  0  0  0  0  0
  -28.8525  -29.8497   27.0242 C   0  0  2  0  0  0  0  0  0  0  0  0
  -29.0973  -34.3726   26.0118 C   0  0  0  0  0  0  0  0  0  0  0  0
  -27.7560   -9.7040   20.5956 N   0  0  0  0  0  0  0  0  0  0  0  0
  -29.0968   -9.7001   20.6865 N   0  0  0  0  0  0  0  0  0  0  0  0
  -27.0416  -22.8930   20.9882 N   0  0  1  0  0  0  0  0  0  0  0  0
  -26.1852  -32.9920   24.0613 N   0  0  0  0  0  0  0  0  0  0  0  0
  -29.8600  -13.2720   19.5487 N   0  0  0  0  0  0  0  0  0  0  0  0
  -29.6872  -14.9325   21.2617 N   0  0  0  0  0  0  0  0  0  0  0  0
  -30.9302   -8.4492   21.5138 N   0  0  0  0  0  0  0  0  0  0  0  0
  -28.6529   -5.4183   21.6587 N   0  0  0  0  0  0  0  0  0  0  0  0
  -23.9515  -35.0583   22.0521 N   0  0  0  0  0  0  0  0  0  0  0  0
  -28.2070  -32.0120   26.2093 N   0  0  0  0  0  0  0  0  0  0  0  0
  -26.3835  -25.6140   20.4157 N   0  3  2  0  0  0  0  0  0  0  0  0
  -29.2095  -28.5441   26.4006 N   0  3  0  0  0  0  0  0  0  0  0  0
  -28.5048   -6.5428   23.6517 O   0  0  0  0  0  0  0  0  0  0  0  0
  -26.2421  -34.6437   22.1109 O   0  0  0  0  0  0  0  0  0  0  0  0
  -26.2933  -34.4551   25.8734 O   0  0  0  0  0  0  0  0  0  0  0  0
  -30.0403  -30.9707   25.2438 O   0  0  0  0  0  0  0  0  0  0  0  0
  -31.6196  -14.6819   20.0297 O   0  0  0  0  0  0  0  0  0  0  0  0
  -22.0136   -7.1626   21.6505 O   0  0  0  0  0  0  0  0  0  0  0  0
  -26.2830  -28.4047   19.9014 O   0  0  0  0  0  0  0  0  0  1  0  0
  -20.6825   -3.2078   25.2549 F   0  0  0  0  0  0  0  0  0  0  0  0
  -23.0641   -4.6163   21.4144 F   0  0  0  0  0  0  0  0  0  0  0  0
  1  2  1  0  0  0  0
  1  5  2  0  0  0  0
  2  6  2  0  0  0  0
  3  8  2  0  0  0  0
  3 16  1  0  0  0  0
  4  9  1  0  0  0  0
  4 16  2  0  0  0  0
  5 18  1  0  0  0  0
  6 20  1  0  0  0  0
  7 10  2  0  0  0  0
  7 19  1  0  0  0  0
  8 27  1  0  0  0  0
  9 27  2  0  0  0  0
 10 28  1  0  0  0  0
 11 12  2  0  0  0  0
 11 29  1  0  0  0  0
 12 30  1  0  0  0  0
 13 21  1  0  0  0  0
 13 23  2  0  0  0  0
 14 22  1  0  0  0  0
 14 28  2  0  0  0  0
 15 30  2  0  0  0  0
 15 31  1  0  0  0  0
 16 32  1  0  0  0  0
 17 32  1  0  0  0  0
 17 33  2  0  0  0  0
 17 34  1  0  0  0  0
 18 20  2  0  0  0  0
 18 39  1  0  0  0  0
 19 22  2  0  0  0  0
 19 40  1  0  0  0  0
 20 56  1  0  0  0  0
 21 24  2  0  0  0  0
 21 55  1  0  0  0  0
 22 41  1  0  0  0  0
 23 26  1  0  0  0  0
 23 60  1  0  0  0  0
 24 25  1  0  0  0  0
 24 61  1  0  0  0  0
 25 26  2  0  0  0  0
 25 62  1  0  0  0  0
 26 76  1  0  0  0  0
 27 91  1  0  0  0  0
 28 92  1  0  0  0  0
 29 31  2  0  0  0  0
 29 91  1  0  0  0  0
 30 93  1  0  0  0  0
 31 94  1  0  0  0  0
 32 74  2  0  0  0  0
 33 75  1  0  0  0  0
 33 80  1  0  0  0  0
 34 81  1  0  0  0  0
 34 86  2  0  0  0  0
 35 57  1  0  0  0  0
 35 82  1  0  0  0  0
 35 87  2  0  0  0  0
 36 71  1  0  0  0  0
 36 77  1  0  0  0  0
 36 88  2  0  0  0  0
 37 72  1  0  0  0  0
 37 83  1  0  0  0  0
 37 89  2  0  0  0  0
 38 78  1  0  0  0  0
 38 79  1  0  0  0  0
 38 90  2  0  0  0  0
 39 42  1  0  0  0  0
 40 57  1  0  0  0  0
 41 77  1  0  0  0  0
 42 44  1  0  0  0  0
 43 45  1  0  0  0  0
 43 48  1  0  0  0  0
 44 56  1  0  0  0  0
 45 58  1  0  0  0  0
 46 49  1  0  0  0  0
 46 55  1  0  0  0  0
 47 50  1  0  0  0  0
 47 55  1  0  0  0  0
 48 78  1  0  0  0  0
 49 79  1  0  0  0  0
 50 79  1  0  0  0  0
 51 54  1  0  0  0  0
 51 76  1  0  0  0  0
 52 58  1  0  0  0  0
 52 78  1  0  0  0  0
 53 59  1  0  0  0  0
 53 76  1  0  0  0  0
 54 84  1  0  0  0  0
 56 82  1  0  0  0  0
 57 77  1  0  0  0  0
 58 75  1  0  0  0  0
 59 63  1  0  0  0  0
 59 84  1  0  0  0  0
 64 72  1  0  0  0  0
 65 73  1  0  0  0  0
 66 73  1  0  0  0  0
 67 73  1  0  0  0  0
 68 85  1  0  0  0  0
 69 70  1  0  0  0  0
 69 84  1  0  0  0  0
 70 92  1  0  0  0  0
 71 73  1  0  0  0  0
 71 83  1  0  0  0  0
 72 85  1  0  0  0  0
 74 75  1  0  0  0  0
M  CHG  2  84   1  85   1
M  ISO  4  38 100  70 101  79 100  92 101
M  END
> <Batch ID>
0166

> <Smiles>
CNC(C)C(=O)NC(C(=O)N1Cc2cc([101O:1][101CH2:1]CN3CCN(c4c(C)cc(C5CC[100N:0]([100C:0](=O)N6CCCC(n7nc(-c8ccc(Oc9ccc(F)cc9F)cc8)c(C(N)=O)c7N)C6)CC5)c(C)c4C)CC3C)ccc2CC1C(=O)NC1CCCc2ccccc21)C(C)(C)C

> <Shape>
0.263

> <Color>
0.078

> <Negative vol penalty>
0.000

$$$$

  -OEChem-04052322243D

 90100  0     1  0  0  0  0  0999 V2000
  -17.8281  -31.1909   21.3611 C   0  0  0  0  0  0  0  0  0  0  0  0
  -19.2040  -31.3655   21.2524 C   0  0  0  0  0  0  0  0  0  0  0  0
  -25.5276  -14.2253   20.9713 C   0  0  0  0  0  0  0  0  0  0  0  0
  -26.5818  -12.3362   19.8955 C   0  0  0  0  0  0  0  0  0  0  0  0
  -17.3168  -30.0138   21.9060 C   0  0  0  0  0  0  0  0  0  0  0  0
  -20.0695  -30.3635   21.6898 C   0  0  0  0  0  0  0  0  0  0  0  0
  -25.4623  -28.8243   19.2291 C   0  0  0  0  0  0  0  0  0  0  0  0
  -24.3145  -13.5371   20.9910 C   0  0  0  0  0  0  0  0  0  0  0  0
  -25.3686  -11.6480   19.9153 C   0  0  0  0  0  0  0  0  0  0  0  0
  -26.7749  -29.1498   19.5678 C   0  0  0  0  0  0  0  0  0  0  0  0
  -23.5266   -9.9141   22.1561 C   0  0  0  0  0  0  0  0  0  0  0  0
  -23.5471   -8.5790   22.5594 C   0  0  0  0  0  0  0  0  0  0  0  0
  -30.6346  -25.2125   19.2875 C   0  0  0  0  0  0  0  0  0  0  0  0
  -31.7786  -26.9299   21.1648 C   0  0  0  0  0  0  0  0  0  0  0  0
  -26.9592  -27.0898   20.8093 C   0  0  0  0  0  0  0  0  0  0  0  0
  -22.6556   -7.9171   20.4137 C   0  0  0  0  0  0  0  0  0  0  0  0
  -26.6613  -13.6248   20.4235 C   0  0  0  0  0  0  0  0  0  0  0  0
  -28.9132  -14.3274   21.3945 C   0  0  0  0  0  0  0  0  0  0  0  0
  -18.1762  -28.9928   22.3414 C   0  0  0  0  0  0  0  0  0  0  0  0
  -24.8836  -27.6321   19.6878 C   0  0  0  0  0  0  0  0  0  0  0  0
  -19.5692  -29.1722   22.2423 C   0  0  0  0  0  0  0  0  0  0  0  0
  -31.2975  -24.6900   20.3979 C   0  0  0  0  0  0  0  0  0  0  0  0
  -31.1158  -27.4525   20.0543 C   0  0  0  0  0  0  0  0  0  0  0  0
  -25.6398  -26.7502   20.4730 C   0  0  0  0  0  0  0  0  0  0  0  0
  -31.8695  -25.5486   21.3366 C   0  0  0  0  0  0  0  0  0  0  0  0
  -30.5438  -26.5938   19.1156 C   0  0  0  0  0  0  0  0  0  0  0  0
  -24.2350  -12.2485   20.4630 C   0  0  0  0  0  0  0  0  0  0  0  0
  -27.5226  -28.2839   20.3604 C   0  0  0  0  0  0  0  0  0  0  0  0
  -23.0705  -10.2507   20.8815 C   0  0  0  0  0  0  0  0  0  0  0  0
  -23.1116   -7.5805   21.6882 C   0  0  0  0  0  0  0  0  0  0  0  0
  -22.6350   -9.2522   20.0104 C   0  0  0  0  0  0  0  0  0  0  0  0
  -27.9146  -14.3354   20.4023 C   0  0  0  0  0  0  0  0  0  0  0  0
  -29.8933  -15.1538   20.9019 C   0  0  0  0  0  0  0  0  0  0  0  0
  -28.9514  -13.6347   22.6493 C   0  0  0  0  0  0  0  0  0  0  0  0
  -22.4064  -26.9103   21.5442 C   0  0  0  0  0  0  0  0  0  0  0  0
  -23.1259  -23.8738   20.6587 C   0  0  0  0  0  0  0  0  0  0  0  0
  -25.4339  -21.2024   19.9142 C   0  0  0  0  0  0  0  0  0  0  0  0
  -31.5969  -19.7141   18.3872 C   0  0  0  0  0  0  0  0  0  0  0  0
  -17.5779  -27.7579   22.9672 C   0  0  0  0  0  0  0  0  0  0  0  0
  -23.4753  -27.2828   19.2915 C   0  0  0  0  0  0  0  0  0  0  0  0
  -25.0718  -25.4484   20.9740 C   0  0  0  0  0  0  0  0  0  0  0  0
  -18.5549  -26.5888   23.0621 C   0  0  0  0  0  0  0  0  0  0  0  0
  -33.2193  -29.6817   20.6853 C   0  0  0  0  0  0  0  0  0  0  0  0
  -33.2722  -29.6312   19.1596 C   0  0  0  0  0  0  0  0  0  0  0  0
  -30.5136  -17.1703   16.3127 C   0  0  0  0  0  0  0  0  0  0  0  0
  -19.8984  -27.0590   23.6105 C   0  0  0  0  0  0  0  0  0  0  0  0
  -29.8205  -16.1955   17.2644 C   0  0  0  0  0  0  0  0  0  0  0  0
  -31.7353  -29.7161   21.0479 C   0  0  0  0  0  0  0  0  0  0  0  0
  -31.8170  -29.5749   18.6961 C   0  0  0  0  0  0  0  0  0  0  0  0
  -30.1411  -22.4705   19.9997 C   0  0  0  0  0  0  0  0  0  0  0  0
  -32.6685  -22.6073   19.9443 C   0  0  0  0  0  0  0  0  0  0  0  0
  -30.1856  -18.6138   16.6760 C   0  0  0  0  0  0  0  0  0  0  0  0
  -30.2484  -20.9495   20.1411 C   0  0  0  0  0  0  0  0  0  0  0  0
  -32.7166  -21.0915   20.1128 C   0  0  0  0  0  0  0  0  0  0  0  0
  -29.8415  -18.0078   19.0492 C   0  0  0  0  0  0  0  0  0  0  0  0
  -31.3828  -23.1844   20.5638 C   0  0  0  0  0  0  0  0  0  0  0  0
  -20.5398  -28.0979   22.6828 C   0  0  1  0  0  0  0  0  0  0  0  0
  -22.8172  -26.2861   20.2407 C   0  0  1  0  0  0  0  0  0  0  0  0
  -30.1451  -16.5296   18.7312 C   0  0  1  0  0  0  0  0  0  0  0  0
  -31.0294  -28.9776   19.8863 C   0  0  0  0  0  0  0  0  0  0  0  0
  -32.5836  -25.0122   22.5336 C   0  0  0  0  0  0  0  0  0  0  0  0
  -29.8299  -27.1302   17.9185 C   0  0  0  0  0  0  0  0  0  0  0  0
  -25.0156  -18.8581   19.1227 C   0  0  0  0  0  0  0  0  0  0  0  0
  -23.2205  -23.1644   23.6249 C   0  0  0  0  0  0  0  0  0  0  0  0
  -24.4269  -21.0582   23.0113 C   0  0  0  0  0  0  0  0  0  0  0  0
  -22.1092  -21.4538   22.1781 C   0  0  0  0  0  0  0  0  0  0  0  0
  -27.2077  -21.5532   17.5712 C   0  0  0  0  0  0  0  0  0  0  0  0
  -29.5500  -29.3844   19.7821 C   0  0  0  0  0  0  0  0  0  1  0  0
  -24.0222  -22.7863   21.1999 C   0  0  1  0  0  0  0  0  0  0  0  0
  -25.3924  -20.2736   18.7142 C   0  0  2  0  0  0  0  0  0  0  0  0
  -23.4551  -22.1410   22.4959 C   0  0  0  0  0  0  0  0  0  0  0  0
  -28.2312  -15.1060   19.3583 N   0  0  0  0  0  0  0  0  0  0  0  0
  -29.4397  -15.5899   19.6918 N   0  0  0  0  0  0  0  0  0  0  0  0
  -23.6884  -25.1546   20.5649 N   0  0  0  0  0  0  0  0  0  0  0  0
  -30.5044  -18.8904   18.0765 N   0  0  0  0  0  0  0  0  0  0  0  0
  -31.5123  -20.4630   19.5706 N   0  0  0  0  0  0  0  0  0  0  0  0
  -31.0903  -15.5429   21.3901 N   0  0  0  0  0  0  0  0  0  0  0  0
  -27.8609  -12.8273   23.0003 N   0  0  0  0  0  0  0  0  0  0  0  0
  -21.1345  -27.4502   21.5333 N   0  0  0  0  0  0  0  0  0  0  0  0
  -24.2288  -21.8449   20.1047 N   0  0  0  0  0  0  0  0  0  0  0  0
  -26.7237  -20.2312   18.0457 N   0  3  0  0  0  0  0  0  0  0  0  0
  -29.9166  -13.7420   23.4434 O   0  0  0  0  0  0  0  0  0  0  0  0
  -23.1851  -26.9014   22.4904 O   0  0  0  0  0  0  0  0  0  0  0  0
  -21.9715  -23.5955   20.3247 O   0  0  0  0  0  0  0  0  0  0  0  0
  -26.4340  -21.3411   20.6149 O   0  0  0  0  0  0  0  0  0  0  0  0
  -32.5900  -19.7766   17.6517 O   0  0  0  0  0  0  0  0  0  0  0  0
  -23.0515  -11.5766   20.4823 O   0  0  0  0  0  0  0  0  0  0  0  0
  -28.8190  -28.6033   20.6969 O   0  0  0  0  0  0  0  0  0  1  0  0
  -23.1329   -6.2983   22.0751 F   0  0  0  0  0  0  0  0  0  0  0  0
  -22.1968   -9.5694   18.7843 F   0  0  0  0  0  0  0  0  0  0  0  0
  1  2  1  0  0  0  0
  1  5  2  0  0  0  0
  2  6  2  0  0  0  0
  3  8  2  0  0  0  0
  3 17  1  0  0  0  0
  4  9  1  0  0  0  0
  4 17  2  0  0  0  0
  5 19  1  0  0  0  0
  6 21  1  0  0  0  0
  7 10  2  0  0  0  0
  7 20  1  0  0  0  0
  8 27  1  0  0  0  0
  9 27  2  0  0  0  0
 10 28  1  0  0  0  0
 11 12  2  0  0  0  0
 11 29  1  0  0  0  0
 12 30  1  0  0  0  0
 13 22  2  0  0  0  0
 13 26  1  0  0  0  0
 14 23  1  0  0  0  0
 14 25  2  0  0  0  0
 15 24  1  0  0  0  0
 15 28  2  0  0  0  0
 16 30  2  0  0  0  0
 16 31  1  0  0  0  0
 17 32  1  0  0  0  0
 18 32  1  0  0  0  0
 18 33  2  0  0  0  0
 18 34  1  0  0  0  0
 19 21  2  0  0  0  0
 19 39  1  0  0  0  0
 20 24  2  0  0  0  0
 20 40  1  0  0  0  0
 21 57  1  0  0  0  0
 22 25  1  0  0  0  0
 22 56  1  0  0  0  0
 23 26  2  0  0  0  0
 23 60  1  0  0  0  0
 24 41  1  0  0  0  0
 25 61  1  0  0  0  0
 26 62  1  0  0  0  0
 27 87  1  0  0  0  0
 28 88  1  0  0  0  0
 29 31  2  0  0  0  0
 29 87  1  0  0  0  0
 30 89  1  0  0  0  0
 31 90  1  0  0  0  0
 32 72  2  0  0  0  0
 33 73  1  0  0  0  0
 33 77  1  0  0  0  0
 34 78  1  0  0  0  0
 34 82  2  0  0  0  0
 35 58  1  0  0  0  0
 35 79  1  0  0  0  0
 35 83  2  0  0  0  0
 36 69  1  0  0  0  0
 36 74  1  0  0  0  0
 36 84  2  0  0  0  0
 37 70  1  0  0  0  0
 37 80  1  0  0  0  0
 37 85  2  0  0  0  0
 38 75  1  0  0  0  0
 38 76  1  0  0  0  0
 38 86  2  0  0  0  0
 39 42  1  0  0  0  0
 40 58  1  0  0  0  0
 41 74  1  0  0  0  0
 42 46  1  0  0  0  0
 43 44  1  0  0  0  0
 43 48  1  0  0  0  0
 44 49  1  0  0  0  0
 45 47  1  0  0  0  0
 45 52  1  0  0  0  0
 46 57  1  0  0  0  0
 47 59  1  0  0  0  0
 48 60  1  0  0  0  0
 49 60  1  0  0  0  0
 50 53  1  0  0  0  0
 50 56  1  0  0  0  0
 51 54  1  0  0  0  0
 51 56  1  0  0  0  0
 52 75  1  0  0  0  0
 53 76  1  0  0  0  0
 54 76  1  0  0  0  0
 55 59  1  0  0  0  0
 55 75  1  0  0  0  0
 57 79  1  0  0  0  0
 58 74  1  0  0  0  0
 59 73  1  0  0  0  0
 60 68  1  0  0  0  0
 63 70  1  0  0  0  0
 64 71  1  0  0  0  0
 65 71  1  0  0  0  0
 66 71  1  0  0  0  0
 67 81  1  0  0  0  0
 68 88  1  0  0  0  0
 69 71  1  0  0  0  0
 69 80  1  0  0  0  0
 70 81  1  0  0  0  0
 72 73  1  0  0  0  0
M  CHG  1  81   1
M  ISO  4  38 100  68 101  76 100  88 101
M  END
> <Batch ID>
0166

> <Smiles>
CNC(C)C(=O)NC(C(=O)N1Cc2cc([101O:1][101CH2:1]C3(c4cc(C)c(C5CC[100N:0]([100C:0](=O)N6CCCC(n7nc(-c8ccc(Oc9ccc(F)cc9F)cc8)c(C(N)=O)c7N)C6)CC5)cc4C)CCCC3)ccc2CC1C(=O)NC1CCCc2ccccc21)C(C)(C)C

> <Shape>
0.245

> <Color>
0.069

> <Negative vol penalty>
0.000

$$$$

  -OEChem-04052322243D

 87 97  0     1  0  0  0  0  0999 V2000
  -28.0272  -11.8361   18.2919 C   0  0  0  0  0  0  0  0  0  0  0  0
  -27.3362  -12.8122   17.5813 C   0  0  0  0  0  0  0  0  0  0  0  0
  -28.0325  -26.6120   18.9641 C   0  0  0  0  0  0  0  0  0  0  0  0
  -26.1453  -25.1610   18.5515 C   0  0  0  0  0  0  0  0  0  0  0  0
  -27.6093  -11.4816   19.5739 C   0  0  0  0  0  0  0  0  0  0  0  0
  -26.2260  -13.4337   18.1519 C   0  0  0  0  0  0  0  0  0  0  0  0
  -22.8011  -19.7242   18.2796 C   0  0  0  0  0  0  0  0  0  0  0  0
  -28.8762  -25.5022   19.0085 C   0  0  0  0  0  0  0  0  0  0  0  0
  -26.9891  -24.0511   18.5959 C   0  0  0  0  0  0  0  0  0  0  0  0
  -21.5273  -20.2609   18.0979 C   0  0  0  0  0  0  0  0  0  0  0  0
  -28.5879  -20.8072   18.9580 C   0  0  0  0  0  0  0  0  0  0  0  0
  -28.1617  -19.6976   19.6879 C   0  0  0  0  0  0  0  0  0  0  0  0
  -20.9442  -19.6241   20.3504 C   0  0  0  0  0  0  0  0  0  0  0  0
  -17.7485  -22.6293   21.0611 C   0  0  0  0  0  0  0  0  0  0  0  0
  -28.0701  -21.0488   21.6886 C   0  0  0  0  0  0  0  0  0  0  0  0
  -18.7252  -24.4708   20.2098 C   0  0  0  0  0  0  0  0  0  0  0  0
  -26.6670  -26.4414   18.7357 C   0  0  0  0  0  0  0  0  0  0  0  0
  -25.4541  -28.3521   17.5585 C   0  0  0  0  0  0  0  0  0  0  0  0
  -26.4992  -12.1059   20.1643 C   0  0  0  0  0  0  0  0  0  0  0  0
  -23.1531  -19.1227   19.4965 C   0  0  0  0  0  0  0  0  0  0  0  0
  -25.7920  -13.0863   19.4425 C   0  0  0  0  0  0  0  0  0  0  0  0
  -22.2240  -19.0828   20.5459 C   0  0  0  0  0  0  0  0  0  0  0  0
  -18.1682  -23.2595   19.8637 C   0  0  0  0  0  0  0  0  0  0  0  0
  -28.3545  -24.2217   18.8243 C   0  0  0  0  0  0  0  0  0  0  0  0
  -20.5977  -20.2083   19.1324 C   0  0  0  0  0  0  0  0  0  0  0  0
  -28.7552  -22.0377   19.5934 C   0  0  0  0  0  0  0  0  0  0  0  0
  -27.9028  -19.8184   21.0532 C   0  0  0  0  0  0  0  0  0  0  0  0
  -28.4963  -22.1585   20.9587 C   0  0  0  0  0  0  0  0  0  0  0  0
  -25.7948  -27.5874   18.6903 C   0  0  0  0  0  0  0  0  0  0  0  0
  -18.0615  -23.4748   22.1025 C   0  0  0  0  0  0  0  0  0  0  0  0
  -24.6048  -29.3183   18.0399 C   0  0  0  0  0  0  0  0  0  0  0  0
  -25.8681  -28.2024   16.1940 C   0  0  0  0  0  0  0  0  0  0  0  0
  -24.0397  -16.2011   20.3808 C   0  0  0  0  0  0  0  0  0  0  0  0
  -24.5035  -17.6339   23.2538 C   0  0  0  0  0  0  0  0  0  0  0  0
  -23.7389  -20.2016   25.3679 C   0  0  0  0  0  0  0  0  0  0  0  0
  -20.9679  -29.6797   22.6231 C   0  0  0  0  0  0  0  0  0  0  0  0
  -26.0565  -11.6558   21.5340 C   0  0  0  0  0  0  0  0  0  0  0  0
  -24.5401  -18.5723   19.6857 C   0  0  0  0  0  0  0  0  0  0  0  0
  -22.5590  -18.4662   21.8786 C   0  0  0  0  0  0  0  0  0  0  0  0
  -25.0962  -12.6283   22.2139 C   0  0  0  0  0  0  0  0  0  0  0  0
  -23.6118  -31.8171   21.9916 C   0  0  0  0  0  0  0  0  0  0  0  0
  -24.0030  -13.0649   21.2438 C   0  0  0  0  0  0  0  0  0  0  0  0
  -18.8894  -22.5900   24.4270 C   0  0  0  0  0  0  0  0  0  0  0  0
  -17.6917  -21.7707   24.0604 C   0  0  0  0  0  0  0  0  0  0  0  0
  -24.4503  -31.0611   20.9610 C   0  0  0  0  0  0  0  0  0  0  0  0
  -18.4128  -27.0768   22.0011 C   0  0  0  0  0  0  0  0  0  0  0  0
  -20.6788  -25.9722   22.2151 C   0  0  0  0  0  0  0  0  0  0  0  0
  -23.0912  -30.8740   23.0704 C   0  0  0  0  0  0  0  0  0  0  0  0
  -18.9468  -28.2722   22.7867 C   0  0  0  0  0  0  0  0  0  0  0  0
  -21.1608  -27.1907   22.9972 C   0  0  0  0  0  0  0  0  0  0  0  0
  -23.1256  -28.9602   21.5048 C   0  0  0  0  0  0  0  0  0  0  0  0
  -24.5979  -13.8009   20.0372 C   0  0  1  0  0  0  0  0  0  0  0  0
  -17.7917  -23.2055   23.5830 C   0  0  0  0  0  0  0  0  0  0  0  0
  -24.6213  -17.5243   20.7914 C   0  0  1  0  0  0  0  0  0  0  0  0
  -23.6694  -29.8674   20.3832 C   0  0  2  0  0  0  0  0  0  0  0  0
  -19.1592  -25.7820   22.3663 C   0  0  0  0  0  0  0  0  0  0  0  0
  -17.8163  -23.8261   17.4374 C   0  0  0  0  0  0  0  0  0  0  0  0
  -24.2482  -21.0830   27.6616 C   0  0  0  0  0  0  0  0  0  0  0  0
  -22.7179  -15.4819   24.4746 C   0  0  0  0  0  0  0  0  0  0  0  0
  -22.4925  -16.9220   26.5102 C   0  0  0  0  0  0  0  0  0  0  0  0
  -24.7343  -16.0603   25.8362 C   0  0  0  0  0  0  0  0  0  0  0  0
  -24.8346  -22.7267   24.2807 C   0  0  0  0  0  0  0  0  0  0  0  0
  -19.2329  -21.8346   18.0606 C   0  0  0  0  0  0  0  0  0  1  0  0
  -18.0344  -22.7192   18.4976 C   0  0  1  0  0  0  0  0  0  0  0  0
  -23.6483  -17.8903   24.4711 C   0  0  1  0  0  0  0  0  0  0  0  0
  -24.6192  -21.1277   26.1875 C   0  0  2  0  0  0  0  0  0  0  0  0
  -23.3910  -16.5986   25.2974 C   0  0  0  0  0  0  0  0  0  0  0  0
  -25.2100  -28.0298   19.8067 N   0  0  0  0  0  0  0  0  0  0  0  0
  -18.6546  -24.5912   21.5732 N   0  0  0  0  0  0  0  0  0  0  0  0
  -24.4932  -29.0830   19.3787 N   0  0  0  0  0  0  0  0  0  0  0  0
  -23.9259  -17.9359   22.0125 N   0  0  0  0  0  0  0  0  0  0  0  0
  -22.3621  -29.7507   22.4818 N   0  0  0  0  0  0  0  0  0  0  0  0
  -20.3973  -28.3964   22.6478 N   0  0  0  0  0  0  0  0  0  0  0  0
  -23.9502  -30.3377   17.4445 N   0  0  0  0  0  0  0  0  0  0  0  0
  -26.7437  -27.1563   15.8725 N   0  0  0  0  0  0  0  0  0  0  0  0
  -24.9469  -15.1589   20.3954 N   0  0  0  0  0  0  0  0  0  0  0  0
  -24.3094  -18.9553   25.2175 N   0  0  0  0  0  0  0  0  0  0  0  0
  -24.4790  -22.5325   25.7100 N   0  3  0  0  0  0  0  0  0  0  0  0
  -25.4862  -28.9833   15.2897 O   0  0  0  0  0  0  0  0  0  0  0  0
  -22.8551  -16.1306   20.0750 O   0  0  0  0  0  0  0  0  0  0  0  0
  -25.6448  -17.1890   23.3994 O   0  0  0  0  0  0  0  0  0  0  0  0
  -22.6521  -20.5478   24.9103 O   0  0  0  0  0  0  0  0  0  0  0  0
  -20.2725  -30.6988   22.7159 O   0  0  0  0  0  0  0  0  0  0  0  0
  -29.1776  -23.1385   18.8673 O   0  0  0  0  0  0  0  0  0  0  0  0
  -19.3452  -20.7343   18.9563 O   0  0  0  0  0  0  0  0  0  1  0  0
  -27.4921  -18.7531   21.7536 F   0  0  0  0  0  0  0  0  0  0  0  0
  -28.6541  -23.3382   21.5744 F   0  0  0  0  0  0  0  0  0  0  0  0
  1  2  1  0  0  0  0
  1  5  2  0  0  0  0
  2  6  2  0  0  0  0
  3  8  2  0  0  0  0
  3 17  1  0  0  0  0
  4  9  1  0  0  0  0
  4 17  2  0  0  0  0
  5 19  1  0  0  0  0
  6 21  1  0  0  0  0
  7 10  2  0  0  0  0
  7 20  1  0  0  0  0
  8 24  1  0  0  0  0
  9 24  2  0  0  0  0
 10 25  1  0  0  0  0
 11 12  2  0  0  0  0
 11 26  1  0  0  0  0
 12 27  1  0  0  0  0
 13 22  1  0  0  0  0
 13 25  2  0  0  0  0
 14 23  1  0  0  0  0
 14 30  2  0  0  0  0
 15 27  2  0  0  0  0
 15 28  1  0  0  0  0
 16 23  2  0  0  0  0
 16 69  1  0  0  0  0
 17 29  1  0  0  0  0
 18 29  1  0  0  0  0
 18 31  2  0  0  0  0
 18 32  1  0  0  0  0
 19 21  2  0  0  0  0
 19 37  1  0  0  0  0
 20 22  2  0  0  0  0
 20 38  1  0  0  0  0
 21 52  1  0  0  0  0
 22 39  1  0  0  0  0
 23 64  1  0  0  0  0
 24 84  1  0  0  0  0
 25 85  1  0  0  0  0
 26 28  2  0  0  0  0
 26 84  1  0  0  0  0
 27 86  1  0  0  0  0
 28 87  1  0  0  0  0
 29 68  2  0  0  0  0
 30 53  1  0  0  0  0
 30 69  1  0  0  0  0
 31 70  1  0  0  0  0
 31 74  1  0  0  0  0
 32 75  1  0  0  0  0
 32 79  2  0  0  0  0
 33 54  1  0  0  0  0
 33 76  1  0  0  0  0
 33 80  2  0  0  0  0
 34 65  1  0  0  0  0
 34 71  1  0  0  0  0
 34 81  2  0  0  0  0
 35 66  1  0  0  0  0
 35 77  1  0  0  0  0
 35 82  2  0  0  0  0
 36 72  1  0  0  0  0
 36 73  1  0  0  0  0
 36 83  2  0  0  0  0
 37 40  1  0  0  0  0
 38 54  1  0  0  0  0
 39 71  1  0  0  0  0
 40 42  1  0  0  0  0
 41 45  1  0  0  0  0
 41 48  1  0  0  0  0
 42 52  1  0  0  0  0
 43 44  1  0  0  0  0
 43 53  1  0  0  0  0
 44 53  1  0  0  0  0
 45 55  1  0  0  0  0
 46 49  1  0  0  0  0
 46 56  1  0  0  0  0
 47 50  1  0  0  0  0
 47 56  1  0  0  0  0
 48 72  1  0  0  0  0
 49 73  1  0  0  0  0
 50 73  1  0  0  0  0
 51 55  1  0  0  0  0
 51 72  1  0  0  0  0
 52 76  1  0  0  0  0
 54 71  1  0  0  0  0
 55 70  1  0  0  0  0
 56 69  1  0  0  0  0
 57 64  1  0  0  0  0
 58 66  1  0  0  0  0
 59 67  1  0  0  0  0
 60 67  1  0  0  0  0
 61 67  1  0  0  0  0
 62 78  1  0  0  0  0
 63 64  1  0  0  0  0
 63 85  1  0  0  0  0
 65 67  1  0  0  0  0
 65 77  1  0  0  0  0
 66 78  1  0  0  0  0
 68 70  1  0  0  0  0
M  CHG  1  78   1
M  ISO  4  36 100  63 101  73 100  85 101
M  END
> <Batch ID>
0166

> <Smiles>
CNC(C)C(=O)NC(C(=O)N1Cc2cc([101O:1][101CH2:1]C(C)c3cc(C4CC4)n(C4CC[100N:0]([100C:0](=O)N5CCCC(n6nc(-c7ccc(Oc8ccc(F)cc8F)cc7)c(C(N)=O)c6N)C5)CC4)c3)ccc2CC1C(=O)NC1CCCc2ccccc21)C(C)(C)C

> <Shape>
0.205

> <Color>
0.069

> <Negative vol penalty>
0.000

$$$$

  -OEChem-04052322243D

 88 98  0     1  0  0  0  0  0999 V2000
  -16.8993  -27.5641   23.4941 C   0  0  0  0  0  0  0  0  0  0  0  0
  -17.9898  -26.7326   23.2604 C   0  0  0  0  0  0  0  0  0  0  0  0
  -25.2171  -14.9851   19.1183 C   0  0  0  0  0  0  0  0  0  0  0  0
  -23.2851  -14.7859   20.5552 C   0  0  0  0  0  0  0  0  0  0  0  0
  -16.9268  -28.8876   23.0564 C   0  0  0  0  0  0  0  0  0  0  0  0
  -19.1082  -27.2238   22.5879 C   0  0  0  0  0  0  0  0  0  0  0  0
  -26.2324  -26.5148   22.3420 C   0  0  0  0  0  0  0  0  0  0  0  0
  -25.6724  -13.7422   19.5582 C   0  0  0  0  0  0  0  0  0  0  0  0
  -23.7404  -13.5430   20.9951 C   0  0  0  0  0  0  0  0  0  0  0  0
  -27.2601  -26.2746   21.4310 C   0  0  0  0  0  0  0  0  0  0  0  0
  -23.7795  -10.3612   19.8572 C   0  0  0  0  0  0  0  0  0  0  0  0
  -22.8514   -9.3227   19.9338 C   0  0  0  0  0  0  0  0  0  0  0  0
  -27.2278  -28.6002   20.7908 C   0  0  0  0  0  0  0  0  0  0  0  0
  -23.2792   -9.1150   22.3025 C   0  0  0  0  0  0  0  0  0  0  0  0
  -24.0234  -15.5070   19.6169 C   0  0  0  0  0  0  0  0  0  0  0  0
  -22.7097  -17.0483   18.0657 C   0  0  0  0  0  0  0  0  0  0  0  0
  -18.0500  -29.3980   22.3868 C   0  0  0  0  0  0  0  0  0  0  0  0
  -25.6864  -27.7994   22.4767 C   0  0  0  0  0  0  0  0  0  0  0  0
  -19.1503  -28.5550   22.1397 C   0  0  0  0  0  0  0  0  0  0  0  0
  -26.1951  -28.8546   21.7061 C   0  0  0  0  0  0  0  0  0  0  0  0
  -32.4105  -25.5791   16.8078 C   0  0  0  0  0  0  0  0  0  0  0  0
  -32.5233  -26.4105   17.9284 C   0  0  0  0  0  0  0  0  0  0  0  0
  -30.2570  -24.8654   17.5512 C   0  0  0  0  0  0  0  0  0  0  0  0
  -31.2859  -24.7958   16.6095 C   0  0  0  0  0  0  0  0  0  0  0  0
  -31.5135  -26.4763   18.8734 C   0  0  0  0  0  0  0  0  0  0  0  0
  -30.3699  -25.6997   18.6748 C   0  0  0  0  0  0  0  0  0  0  0  0
  -24.9341  -13.0212   20.4965 C   0  0  0  0  0  0  0  0  0  0  0  0
  -27.7560  -27.3168   20.6531 C   0  0  0  0  0  0  0  0  0  0  0  0
  -24.4575  -10.7766   21.0033 C   0  0  0  0  0  0  0  0  0  0  0  0
  -22.6013   -8.6996   21.1564 C   0  0  0  0  0  0  0  0  0  0  0  0
  -24.2073  -10.1535   22.2260 C   0  0  0  0  0  0  0  0  0  0  0  0
  -23.5529  -16.7911   19.1633 C   0  0  0  0  0  0  0  0  0  0  0  0
  -22.5625  -18.4139   18.0584 C   0  0  0  0  0  0  0  0  0  0  0  0
  -22.1129  -16.1345   17.1359 C   0  0  0  0  0  0  0  0  0  0  0  0
  -22.8075  -29.0711   22.0312 C   0  0  0  0  0  0  0  0  0  0  0  0
  -24.2075  -31.7116   23.2921 C   0  0  0  0  0  0  0  0  0  0  0  0
  -27.0751  -33.4568   23.9068 C   0  0  0  0  0  0  0  0  0  0  0  0
  -25.3632  -23.2438   19.0720 C   0  0  0  0  0  0  0  0  0  0  0  0
  -18.0145  -30.8219   21.8908 C   0  0  0  0  0  0  0  0  0  0  0  0
  -24.5964  -28.0475   23.4831 C   0  0  0  0  0  0  0  0  0  0  0  0
  -33.6462  -25.6473   15.9673 C   0  0  0  0  0  0  0  0  0  0  0  0
  -33.8453  -27.1106   17.9416 C   0  0  0  0  0  0  0  0  0  0  0  0
  -25.6571  -30.2561   21.8273 C   0  0  0  0  0  0  0  0  0  0  0  0
  -19.3888  -31.3709   21.5162 C   0  0  0  0  0  0  0  0  0  0  0  0
  -34.2814  -26.9496   16.4775 C   0  0  0  0  0  0  0  0  0  0  0  0
  -23.1223  -22.0073   21.3954 C   0  0  0  0  0  0  0  0  0  0  0  0
  -20.1527  -30.3619   20.6646 C   0  0  0  0  0  0  0  0  0  0  0  0
  -22.9094  -20.5579   20.9593 C   0  0  0  0  0  0  0  0  0  0  0  0
  -28.8176  -23.0075   18.4990 C   0  0  0  0  0  0  0  0  0  0  0  0
  -27.7482  -24.8945   17.1932 C   0  0  0  0  0  0  0  0  0  0  0  0
  -24.5883  -22.4054   21.2691 C   0  0  0  0  0  0  0  0  0  0  0  0
  -27.5383  -22.1858   18.3169 C   0  0  0  0  0  0  0  0  0  0  0  0
  -26.5087  -24.0216   17.0198 C   0  0  0  0  0  0  0  0  0  0  0  0
  -24.9435  -20.7711   19.4468 C   0  0  0  0  0  0  0  0  0  0  0  0
  -29.0080  -24.0256   17.3603 C   0  0  0  0  0  0  0  0  0  0  0  0
  -20.3917  -29.0581   21.4355 C   0  0  1  0  0  0  0  0  0  0  0  0
  -23.7644  -29.2871   23.1693 C   0  0  1  0  0  0  0  0  0  0  0  0
  -23.4733  -20.3166   19.5478 C   0  0  1  0  0  0  0  0  0  0  0  0
  -31.1868  -23.9013   15.4201 C   0  0  0  0  0  0  0  0  0  0  0  0
  -31.6544  -27.3526   20.0719 C   0  0  0  0  0  0  0  0  0  0  0  0
  -27.8979  -35.5998   24.9206 C   0  0  0  0  0  0  0  0  0  0  0  0
  -23.2547  -33.2398   20.8290 C   0  0  0  0  0  0  0  0  0  0  0  0
  -24.8724  -35.0578   21.4171 C   0  0  0  0  0  0  0  0  0  0  0  0
  -23.0187  -34.4849   22.9850 C   0  0  0  0  0  0  0  0  0  0  0  0
  -28.6850  -32.0169   25.9301 C   0  0  0  0  0  0  0  0  0  0  0  0
  -29.2570  -25.7529   19.6749 C   0  0  0  0  0  0  0  0  0  1  0  0
  -24.9649  -32.8911   22.7315 C   0  0  1  0  0  0  0  0  0  0  0  0
  -27.5947  -34.1297   25.1644 C   0  0  2  0  0  0  0  0  0  0  0  0
  -24.0367  -33.8917   21.9867 C   0  0  0  0  0  0  0  0  0  0  0  0
  -23.9159  -17.9040   19.8065 N   0  0  0  0  0  0  0  0  0  0  0  0
  -23.2980  -18.8737   19.1109 N   0  0  0  0  0  0  0  0  0  0  0  0
  -24.5875  -30.4470   22.8208 N   0  0  0  0  0  0  0  0  0  0  0  0
  -25.0871  -22.1579   19.9165 N   0  0  0  0  0  0  0  0  0  0  0  0
  -26.3789  -23.0671   18.1204 N   0  0  0  0  0  0  0  0  0  0  0  0
  -21.8770  -19.2541   17.2544 N   0  0  0  0  0  0  0  0  0  0  0  0
  -22.3681  -14.7648   17.2879 N   0  0  0  0  0  0  0  0  0  0  0  0
  -21.4781  -29.2200   22.3778 N   0  0  0  0  0  0  0  0  0  0  0  0
  -25.6975  -33.4747   23.8500 N   0  0  0  0  0  0  0  0  0  0  0  0
  -28.8437  -33.4632   25.6302 N   0  3  0  0  0  0  0  0  0  0  0  0
  -21.3885  -16.5226   16.1882 O   0  0  0  0  0  0  0  0  0  0  0  0
  -23.2430  -28.7914   20.9204 O   0  0  0  0  0  0  0  0  0  0  0  0
  -23.3164  -31.9047   24.1230 O   0  0  0  0  0  0  0  0  0  0  0  0
  -27.8171  -32.9678   23.0578 O   0  0  0  0  0  0  0  0  0  0  0  0
  -24.7389  -24.3084   19.1617 O   0  0  0  0  0  0  0  0  0  0  0  0
  -25.3780  -11.8082   20.9258 O   0  0  0  0  0  0  0  0  0  0  0  0
  -28.7661  -27.0833   19.7560 O   0  0  0  0  0  0  0  0  0  1  0  0
  -21.7089   -7.7034   21.2301 F   0  0  0  0  0  0  0  0  0  0  0  0
  -24.8546  -10.5490   23.3306 F   0  0  0  0  0  0  0  0  0  0  0  0
  1  2  1  0  0  0  0
  1  5  2  0  0  0  0
  2  6  2  0  0  0  0
  3  8  2  0  0  0  0
  3 15  1  0  0  0  0
  4  9  1  0  0  0  0
  4 15  2  0  0  0  0
  5 17  1  0  0  0  0
  6 19  1  0  0  0  0
  7 10  2  0  0  0  0
  7 18  1  0  0  0  0
  8 27  1  0  0  0  0
  9 27  2  0  0  0  0
 10 28  1  0  0  0  0
 11 12  2  0  0  0  0
 11 29  1  0  0  0  0
 12 30  1  0  0  0  0
 13 20  1  0  0  0  0
 13 28  2  0  0  0  0
 14 30  2  0  0  0  0
 14 31  1  0  0  0  0
 15 32  1  0  0  0  0
 16 32  1  0  0  0  0
 16 33  2  0  0  0  0
 16 34  1  0  0  0  0
 17 19  2  0  0  0  0
 17 39  1  0  0  0  0
 18 20  2  0  0  0  0
 18 40  1  0  0  0  0
 19 56  1  0  0  0  0
 20 43  1  0  0  0  0
 21 22  1  0  0  0  0
 21 24  2  0  0  0  0
 21 41  1  0  0  0  0
 22 25  2  0  0  0  0
 22 42  1  0  0  0  0
 23 24  1  0  0  0  0
 23 26  2  0  0  0  0
 23 55  1  0  0  0  0
 24 59  1  0  0  0  0
 25 26  1  0  0  0  0
 25 60  1  0  0  0  0
 26 66  1  0  0  0  0
 27 85  1  0  0  0  0
 28 86  1  0  0  0  0
 29 31  2  0  0  0  0
 29 85  1  0  0  0  0
 30 87  1  0  0  0  0
 31 88  1  0  0  0  0
 32 70  2  0  0  0  0
 33 71  1  0  0  0  0
 33 75  1  0  0  0  0
 34 76  1  0  0  0  0
 34 80  2  0  0  0  0
 35 57  1  0  0  0  0
 35 77  1  0  0  0  0
 35 81  2  0  0  0  0
 36 67  1  0  0  0  0
 36 72  1  0  0  0  0
 36 82  2  0  0  0  0
 37 68  1  0  0  0  0
 37 78  1  0  0  0  0
 37 83  2  0  0  0  0
 38 73  1  0  0  0  0
 38 74  1  0  0  0  0
 38 84  2  0  0  0  0
 39 44  1  0  0  0  0
 40 57  1  0  0  0  0
 41 45  1  0  0  0  0
 42 45  1  0  0  0  0
 43 72  1  0  0  0  0
 44 47  1  0  0  0  0
 46 48  1  0  0  0  0
 46 51  1  0  0  0  0
 47 56  1  0  0  0  0
 48 58  1  0  0  0  0
 49 52  1  0  0  0  0
 49 55  1  0  0  0  0
 50 53  1  0  0  0  0
 50 55  1  0  0  0  0
 51 73  1  0  0  0  0
 52 74  1  0  0  0  0
 53 74  1  0  0  0  0
 54 58  1  0  0  0  0
 54 73  1  0  0  0  0
 56 77  1  0  0  0  0
 57 72  1  0  0  0  0
 58 71  1  0  0  0  0
 61 68  1  0  0  0  0
 62 69  1  0  0  0  0
 63 69  1  0  0  0  0
 64 69  1  0  0  0  0
 65 79  1  0  0  0  0
 66 86  1  0  0  0  0
 67 69  1  0  0  0  0
 67 78  1  0  0  0  0
 68 79  1  0  0  0  0
 70 71  1  0  0  0  0
M  CHG  1  79   1
M  ISO  4  38 100  66 101  74 100  86 101
M  END
> <Batch ID>
0166

> <Smiles>
CNC(C)C(=O)NC(C(=O)N1Cc2cc([101O:1][101CH2:1]c3c(C)c4c(c(C)c3C3CC[100N:0]([100C:0](=O)N5CCCC(n6nc(-c7ccc(Oc8ccc(F)cc8F)cc7)c(C(N)=O)c6N)C5)CC3)CCC4)ccc2CC1C(=O)NC1CCCc2ccccc21)C(C)(C)C

> <Shape>
0.251

> <Color>
0.098

> <Negative vol penalty>
0.000

$$$$

  -OEChem-04052322243D

 89 99  0     1  0  0  0  0  0999 V2000
  -18.1734  -22.3399   22.2693 C   0  0  0  0  0  0  0  0  0  0  0  0
  -19.5322  -22.3979   21.9764 C   0  0  0  0  0  0  0  0  0  0  0  0
  -22.8866  -10.9314   19.2599 C   0  0  0  0  0  0  0  0  0  0  0  0
  -23.4400   -9.7759   21.3082 C   0  0  0  0  0  0  0  0  0  0  0  0
  -17.3440  -23.4107   21.9390 C   0  0  0  0  0  0  0  0  0  0  0  0
  -20.0621  -23.5265   21.3519 C   0  0  0  0  0  0  0  0  0  0  0  0
  -25.6098  -25.9630   22.2422 C   0  0  0  0  0  0  0  0  0  0  0  0
  -21.9311   -9.9578   18.9688 C   0  0  0  0  0  0  0  0  0  0  0  0
  -22.4844   -8.8023   21.0171 C   0  0  0  0  0  0  0  0  0  0  0  0
  -26.8053  -25.8579   21.5326 C   0  0  0  0  0  0  0  0  0  0  0  0
  -22.2257   -6.0826   19.0254 C   0  0  0  0  0  0  0  0  0  0  0  0
  -22.5863   -4.7470   19.2032 C   0  0  0  0  0  0  0  0  0  0  0  0
  -26.2903  -27.9095   20.3728 C   0  0  0  0  0  0  0  0  0  0  0  0
  -20.8055   -4.4805   20.8141 C   0  0  0  0  0  0  0  0  0  0  0  0
  -23.6411  -10.8404   20.4296 C   0  0  0  0  0  0  0  0  0  0  0  0
  -24.4355  -13.0370   21.4552 C   0  0  0  0  0  0  0  0  0  0  0  0
  -17.8656  -24.5570   21.3190 C   0  0  0  0  0  0  0  0  0  0  0  0
  -24.7389  -27.0382   22.0142 C   0  0  0  0  0  0  0  0  0  0  0  0
  -19.2386  -24.6131   21.0118 C   0  0  0  0  0  0  0  0  0  0  0  0
  -25.0856  -28.0273   21.0827 C   0  0  0  0  0  0  0  0  0  0  0  0
  -30.3633  -20.9979   19.0036 C   0  0  0  0  0  0  0  0  0  0  0  0
  -30.5635  -22.3673   19.1377 C   0  0  0  0  0  0  0  0  0  0  0  0
  -29.0738  -20.4807   19.0591 C   0  0  0  0  0  0  0  0  0  0  0  0
  -21.7300   -8.8933   19.8474 C   0  0  0  0  0  0  0  0  0  0  0  0
  -27.1443  -26.8296   20.5957 C   0  0  0  0  0  0  0  0  0  0  0  0
  -21.1549   -6.6172   19.7420 C   0  0  0  0  0  0  0  0  0  0  0  0
  -21.8763   -3.9459   20.0975 C   0  0  0  0  0  0  0  0  0  0  0  0
  -20.4449   -5.8162   20.6363 C   0  0  0  0  0  0  0  0  0  0  0  0
  -24.6286  -11.8455   20.7306 C   0  0  0  0  0  0  0  0  0  0  0  0
  -29.4498  -23.1704   19.3239 C   0  0  0  0  0  0  0  0  0  0  0  0
  -28.0269  -21.3682   19.2490 C   0  0  0  0  0  0  0  0  0  0  0  0
  -25.6702  -13.6386   21.4620 C   0  0  0  0  0  0  0  0  0  0  0  0
  -23.2463  -13.5536   22.0673 C   0  0  0  0  0  0  0  0  0  0  0  0
  -21.7513  -27.3218   20.9666 C   0  0  0  0  0  0  0  0  0  0  0  0
  -22.1923  -30.4430   21.7320 C   0  0  0  0  0  0  0  0  0  0  0  0
  -24.3693  -33.0207   22.2447 C   0  0  0  0  0  0  0  0  0  0  0  0
  -30.1522  -15.1592   18.3432 C   0  0  0  0  0  0  0  0  0  0  0  0
  -16.9215  -25.6698   20.9382 C   0  0  0  0  0  0  0  0  0  0  0  0
  -23.4658  -27.1512   22.8071 C   0  0  0  0  0  0  0  0  0  0  0  0
  -24.1948  -29.2120   20.8155 C   0  0  0  0  0  0  0  0  0  0  0  0
  -17.6275  -26.9845   20.6168 C   0  0  0  0  0  0  0  0  0  0  0  0
  -30.2155  -11.9042   20.0997 C   0  0  0  0  0  0  0  0  0  0  0  0
  -18.8156  -26.7402   19.6918 C   0  0  0  0  0  0  0  0  0  0  0  0
  -28.7384  -11.6690   20.4145 C   0  0  0  0  0  0  0  0  0  0  0  0
  -29.7004  -25.5010   18.2372 C   0  0  0  0  0  0  0  0  0  0  0  0
  -30.4011  -12.7576   18.8481 C   0  0  0  0  0  0  0  0  0  0  0  0
  -28.6126  -18.5443   17.5981 C   0  0  0  0  0  0  0  0  0  0  0  0
  -29.5211  -17.3361   17.3992 C   0  0  0  0  0  0  0  0  0  0  0  0
  -28.1948  -13.8116   19.1961 C   0  0  0  0  0  0  0  0  0  0  0  0
  -28.6372  -16.7377   19.6437 C   0  0  0  0  0  0  0  0  0  0  0  0
  -19.8551  -25.8304   20.3574 C   0  0  1  0  0  0  0  0  0  0  0  0
  -29.6156  -24.6484   19.4741 C   0  0  1  0  0  0  0  0  0  0  0  0
  -22.4112  -28.0165   22.1240 C   0  0  1  0  0  0  0  0  0  0  0  0
  -27.9722  -13.0021   20.4818 C   0  0  1  0  0  0  0  0  0  0  0  0
  -28.4711  -25.5511   19.0920 C   0  0  1  0  0  0  0  0  0  1  0  0
  -28.9313  -18.1888   20.0745 C   0  0  2  0  0  0  0  0  0  0  0  0
  -31.5329  -20.0873   18.7997 C   0  0  0  0  0  0  0  0  0  0  0  0
  -31.9362  -22.9501   19.0813 C   0  0  0  0  0  0  0  0  0  0  0  0
  -26.6177  -20.8754   19.3176 C   0  0  0  0  0  0  0  0  0  0  0  0
  -27.9290  -18.5717   21.1702 C   0  0  0  0  0  0  0  0  0  0  0  0
  -24.4306  -35.4622   22.8215 C   0  0  0  0  0  0  0  0  0  0  0  0
  -21.3180  -31.1336   18.8915 C   0  0  0  0  0  0  0  0  0  0  0  0
  -22.2917  -33.4164   19.2213 C   0  0  0  0  0  0  0  0  0  0  0  0
  -20.4054  -32.6471   20.6609 C   0  0  0  0  0  0  0  0  0  0  0  0
  -25.9218  -32.5172   24.7136 C   0  0  0  0  0  0  0  0  0  0  0  0
  -22.7078  -31.6601   21.0027 C   0  0  1  0  0  0  0  0  0  0  0  0
  -24.4760  -34.0418   23.3630 C   0  0  2  0  0  0  0  0  0  0  0  0
  -21.6968  -32.1911   19.9475 C   0  0  0  0  0  0  0  0  0  0  0  0
  -25.8869  -11.6974   20.3078 N   0  0  0  0  0  0  0  0  0  0  0  0
  -28.1822  -22.7045   19.3833 N   0  0  0  0  0  0  0  0  0  0  0  0
  -26.4956  -12.8037   20.7679 N   0  0  0  0  0  0  0  0  0  0  0  0
  -28.8426  -19.1126   18.9278 N   0  0  3  0  0  0  0  0  0  0  0  0
  -22.9579  -29.2746   21.6115 N   0  0  0  0  0  0  0  0  0  0  0  0
  -29.6274  -13.9967   18.9270 N   0  0  0  0  0  0  0  0  0  0  0  0
  -29.3942  -16.3364   18.4543 N   0  0  0  0  0  0  0  0  0  0  0  0
  -26.1194  -14.7952   21.9939 N   0  0  0  0  0  0  0  0  0  0  0  0
  -22.0641  -12.8078   21.9651 N   0  0  0  0  0  0  0  0  0  0  0  0
  -20.6407  -26.5776   21.3161 N   0  0  0  0  0  0  0  0  0  0  0  0
  -23.0638  -32.6318   22.0310 N   0  0  0  0  0  0  0  0  0  0  0  0
  -25.7547  -33.8631   24.1073 N   0  3  0  0  0  0  0  0  0  0  0  0
  -23.2288  -14.6522   22.6725 O   0  0  0  0  0  0  0  0  0  0  0  0
  -22.2146  -27.4525   19.8396 O   0  0  0  0  0  0  0  0  0  0  0  0
  -21.1526  -30.5278   22.3904 O   0  0  0  0  0  0  0  0  0  0  0  0
  -25.3459  -32.6120   21.6205 O   0  0  0  0  0  0  0  0  0  0  0  0
  -31.2487  -15.1523   17.7684 O   0  0  0  0  0  0  0  0  0  0  0  0
  -20.7976   -7.9432   19.5637 O   0  0  0  0  0  0  0  0  0  0  0  0
  -28.3127  -26.7289   19.8997 O   0  0  0  0  0  0  0  0  0  1  0  0
  -22.2218   -2.6629   20.2670 F   0  0  0  0  0  0  0  0  0  0  0  0
  -19.4146   -6.3238   21.3266 F   0  0  0  0  0  0  0  0  0  0  0  0
  1  2  1  0  0  0  0
  1  5  2  0  0  0  0
  2  6  2  0  0  0  0
  3  8  2  0  0  0  0
  3 15  1  0  0  0  0
  4  9  1  0  0  0  0
  4 15  2  0  0  0  0
  5 17  1  0  0  0  0
  6 19  1  0  0  0  0
  7 10  2  0  0  0  0
  7 18  1  0  0  0  0
  8 24  1  0  0  0  0
  9 24  2  0  0  0  0
 10 25  1  0  0  0  0
 11 12  2  0  0  0  0
 11 26  1  0  0  0  0
 12 27  1  0  0  0  0
 13 20  1  0  0  0  0
 13 25  2  0  0  0  0
 14 27  2  0  0  0  0
 14 28  1  0  0  0  0
 15 29  1  0  0  0  0
 16 29  1  0  0  0  0
 16 32  2  0  0  0  0
 16 33  1  0  0  0  0
 17 19  2  0  0  0  0
 17 38  1  0  0  0  0
 18 20  2  0  0  0  0
 18 39  1  0  0  0  0
 19 51  1  0  0  0  0
 20 40  1  0  0  0  0
 21 22  1  0  0  0  0
 21 23  2  0  0  0  0
 21 57  1  0  0  0  0
 22 30  2  0  0  0  0
 22 58  1  0  0  0  0
 23 31  1  0  0  0  0
 23 72  1  0  0  0  0
 24 86  1  0  0  0  0
 25 87  1  0  0  0  0
 26 28  2  0  0  0  0
 26 86  1  0  0  0  0
 27 88  1  0  0  0  0
 28 89  1  0  0  0  0
 29 69  2  0  0  0  0
 30 52  1  0  0  0  0
 30 70  1  0  0  0  0
 31 59  1  0  0  0  0
 31 70  2  0  0  0  0
 32 71  1  0  0  0  0
 32 76  1  0  0  0  0
 33 77  1  0  0  0  0
 33 81  2  0  0  0  0
 34 53  1  0  0  0  0
 34 78  1  0  0  0  0
 34 82  2  0  0  0  0
 35 66  1  0  0  0  0
 35 73  1  0  0  0  0
 35 83  2  0  0  0  0
 36 67  1  0  0  0  0
 36 79  1  0  0  0  0
 36 84  2  0  0  0  0
 37 74  1  0  0  0  0
 37 75  1  0  0  0  0
 37 85  2  0  0  0  0
 38 41  1  0  0  0  0
 39 53  1  0  0  0  0
 40 73  1  0  0  0  0
 41 43  1  0  0  0  0
 42 44  1  0  0  0  0
 42 46  1  0  0  0  0
 43 51  1  0  0  0  0
 44 54  1  0  0  0  0
 45 52  1  0  0  0  0
 45 55  1  0  0  0  0
 46 74  1  0  0  0  0
 47 48  1  0  0  0  0
 47 72  1  0  0  0  0
 48 75  1  0  0  0  0
 49 54  1  0  0  0  0
 49 74  1  0  0  0  0
 50 56  1  0  0  0  0
 50 75  1  0  0  0  0
 51 78  1  0  0  0  0
 52 55  1  0  0  0  0
 53 73  1  0  0  0  0
 54 71  1  0  0  0  0
 55 87  1  0  0  0  0
 56 60  1  0  0  0  0
 56 72  1  0  0  0  0
 61 67  1  0  0  0  0
 62 68  1  0  0  0  0
 63 68  1  0  0  0  0
 64 68  1  0  0  0  0
 65 80  1  0  0  0  0
 66 68  1  0  0  0  0
 66 79  1  0  0  0  0
 67 80  1  0  0  0  0
 69 71  1  0  0  0  0
M  CHG  1  80   1
M  ISO  4  37 100  55 101  75 100  87 101
M  END
> <Batch ID>
0166

> <Smiles>
CNC(C)C(=O)NC(C(=O)N1Cc2cc([101O:1][101CH:1]3CC3c3nc(C)c(N4CC[100N:0]([100C:0](=O)N5CCCC(n6nc(-c7ccc(Oc8ccc(F)cc8F)cc7)c(C(N)=O)c6N)C5)CC4C)c(C)c3C)ccc2CC1C(=O)NC1CCCc2ccccc21)C(C)(C)C

> <Shape>
0.301

> <Color>
0.132

> <Negative vol penalty>
0.000

$$$$

  -OEChem-04052322243D

 90101  0     1  0  0  0  0  0999 V2000
  -25.5380  -10.4574   35.7264 C   0  0  0  0  0  0  0  0  0  0  0  0
  -26.1557  -11.3713   34.8787 C   0  0  0  0  0  0  0  0  0  0  0  0
  -22.9953   -9.8994   19.9837 C   0  0  0  0  0  0  0  0  0  0  0  0
  -23.6999   -9.9540   22.2940 C   0  0  0  0  0  0  0  0  0  0  0  0
  -24.1552  -10.2862   35.6764 C   0  0  0  0  0  0  0  0  0  0  0  0
  -25.3910  -12.1138   33.9796 C   0  0  0  0  0  0  0  0  0  0  0  0
  -26.7025  -17.0043   33.8898 C   0  0  0  0  0  0  0  0  0  0  0  0
  -22.2164   -8.7729   20.2478 C   0  0  0  0  0  0  0  0  0  0  0  0
  -22.9208   -8.8275   22.5582 C   0  0  0  0  0  0  0  0  0  0  0  0
  -27.8532  -17.3419   33.1788 C   0  0  0  0  0  0  0  0  0  0  0  0
  -23.1398   -5.4845   22.1028 C   0  0  0  0  0  0  0  0  0  0  0  0
  -23.7114   -4.4654   22.8646 C   0  0  0  0  0  0  0  0  0  0  0  0
  -30.8805  -17.5751   25.4113 C   0  0  0  0  0  0  0  0  0  0  0  0
  -26.4891  -18.0552   31.3215 C   0  0  0  0  0  0  0  0  0  0  0  0
  -21.9745   -4.7309   24.5229 C   0  0  0  0  0  0  0  0  0  0  0  0
  -23.7372  -10.4899   21.0068 C   0  0  0  0  0  0  0  0  0  0  0  0
  -24.1464  -13.0012   20.8236 C   0  0  0  0  0  0  0  0  0  0  0  0
  -23.3721  -11.0339   34.7829 C   0  0  0  0  0  0  0  0  0  0  0  0
  -25.4347  -17.1796   33.3168 C   0  0  0  0  0  0  0  0  0  0  0  0
  -23.9966  -11.9515   33.9166 C   0  0  0  0  0  0  0  0  0  0  0  0
  -30.9483  -16.1825   25.4534 C   0  0  0  0  0  0  0  0  0  0  0  0
  -25.3237  -17.7213   32.0283 C   0  0  0  0  0  0  0  0  0  0  0  0
  -30.7243  -15.5094   26.6544 C   0  0  0  0  0  0  0  0  0  0  0  0
  -30.3650  -17.6215   27.7712 C   0  0  0  0  0  0  0  0  0  0  0  0
  -30.5889  -18.2946   26.5702 C   0  0  0  0  0  0  0  0  0  0  0  0
  -30.4327  -16.2289   27.8133 C   0  0  0  0  0  0  0  0  0  0  0  0
  -22.1791   -8.2369   21.5351 C   0  0  0  0  0  0  0  0  0  0  0  0
  -27.7468  -17.8648   31.8934 C   0  0  0  0  0  0  0  0  0  0  0  0
  -21.9856   -6.1268   22.5511 C   0  0  0  0  0  0  0  0  0  0  0  0
  -23.1287   -4.0886   24.0746 C   0  0  0  0  0  0  0  0  0  0  0  0
  -21.4029   -5.7500   23.7611 C   0  0  0  0  0  0  0  0  0  0  0  0
  -24.5425  -11.6532   20.7344 C   0  0  0  0  0  0  0  0  0  0  0  0
  -25.2658  -13.7123   20.4663 C   0  0  0  0  0  0  0  0  0  0  0  0
  -22.8799  -13.5605   21.1961 C   0  0  0  0  0  0  0  0  0  0  0  0
  -23.0379  -15.2426   32.5375 C   0  0  0  0  0  0  0  0  0  0  0  0
  -21.5144  -18.0298   31.8793 C   0  0  0  0  0  0  0  0  0  0  0  0
  -21.7455  -21.3333   31.0546 C   0  0  0  0  0  0  0  0  0  0  0  0
  -30.8401  -14.4634   20.9374 C   0  0  0  0  0  0  0  0  0  0  0  0
  -21.8863  -10.7801   34.7322 C   0  0  0  0  0  0  0  0  0  0  0  0
  -24.2021  -16.8354   34.1072 C   0  0  0  0  0  0  0  0  0  0  0  0
  -23.9853  -17.9481   31.3759 C   0  0  0  0  0  0  0  0  0  0  0  0
  -21.1052  -11.8764   34.0122 C   0  0  0  0  0  0  0  0  0  0  0  0
  -29.6132  -12.2266   18.4027 C   0  0  0  0  0  0  0  0  0  0  0  0
  -31.7321  -13.3607   27.6749 C   0  0  0  0  0  0  0  0  0  0  0  0
  -32.0513  -13.3363   26.2128 C   0  0  0  0  0  0  0  0  0  0  0  0
  -21.7882  -12.2436   32.6986 C   0  0  0  0  0  0  0  0  0  0  0  0
  -28.1729  -11.9423   18.8156 C   0  0  0  0  0  0  0  0  0  0  0  0
  -28.9001  -19.3618   28.9965 C   0  0  0  0  0  0  0  0  0  0  0  0
  -30.5051  -12.4012   19.6247 C   0  0  0  0  0  0  0  0  0  0  0  0
  -30.1808  -14.5151   23.4717 C   0  0  0  0  0  0  0  0  0  0  0  0
  -31.3276  -16.1592   22.7823 C   0  0  0  0  0  0  0  0  0  0  0  0
  -28.5937  -13.2482   20.9601 C   0  0  0  0  0  0  0  0  0  0  0  0
  -31.2807  -15.3889   24.1220 C   0  0  0  0  0  0  0  0  0  0  0  0
  -30.7989  -14.0164   26.6941 C   0  0  0  0  0  0  0  0  0  0  0  0
  -30.0530  -18.3958   29.0127 C   0  0  1  0  0  0  0  0  0  0  0  0
  -23.1984  -12.7933   32.9449 C   0  0  1  0  0  0  0  0  0  0  0  0
  -22.9822  -16.5757   33.2286 C   0  0  1  0  0  0  0  0  0  0  0  0
  -27.6561  -13.0423   19.7539 C   0  0  2  0  0  0  0  0  0  0  0  0
  -28.7868  -18.0812   29.7656 C   0  0  1  0  0  0  0  0  0  1  0  0
  -30.5228  -19.7855   26.4957 C   0  0  0  0  0  0  0  0  0  0  0  0
  -31.1636  -15.9175   30.2136 C   0  0  0  0  0  0  0  0  0  0  0  0
  -20.3279  -23.3408   30.5470 C   0  0  0  0  0  0  0  0  0  0  0  0
  -20.9136  -16.9019   29.1086 C   0  0  0  0  0  0  0  0  0  0  0  0
  -20.3669  -19.2268   28.3572 C   0  0  0  0  0  0  0  0  0  0  0  0
  -19.0191  -18.1510   30.1597 C   0  0  0  0  0  0  0  0  0  0  0  0
  -22.8556  -22.8412   33.3465 C   0  0  0  0  0  0  0  0  0  0  0  0
  -30.1928  -15.5062   29.1017 C   0  0  1  0  0  0  0  0  0  0  0  0
  -21.3774  -18.9116   30.6617 C   0  0  1  0  0  0  0  0  0  0  0  0
  -21.0657  -22.5642   31.6265 C   0  0  2  0  0  0  0  0  0  0  0  0
  -20.4447  -18.2919   29.5831 C   0  0  0  0  0  0  0  0  0  0  0  0
  -25.8141  -11.5138   20.3504 N   0  0  0  0  0  0  0  0  0  0  0  0
  -26.2268  -12.7833   20.1951 N   0  0  0  0  0  0  0  0  0  0  0  0
  -22.8097  -17.5900   32.1867 N   0  0  0  0  0  0  0  0  0  0  0  0
  -29.9914  -13.4236   20.5414 N   0  0  0  0  0  0  0  0  0  0  0  0
  -30.6709  -14.9991   22.1923 N   0  0  0  0  0  0  0  0  0  0  0  0
  -25.5120  -15.0355   20.3607 N   0  0  0  0  0  0  0  0  0  0  0  0
  -21.8372  -12.6870   21.5339 N   0  0  0  0  0  0  0  0  0  0  0  0
  -23.1336  -14.1661   33.3985 N   0  0  0  0  0  0  0  0  0  0  0  0
  -20.9428  -20.2161   31.1493 N   0  0  0  0  0  0  0  0  0  0  0  0
  -28.7991  -15.6852   29.6301 N   0  3  0  0  0  0  0  0  0  0  0  0
  -22.0721  -23.4685   32.2513 N   0  3  0  0  0  0  0  0  0  0  0  0
  -22.6740  -14.7977   21.2126 O   0  0  0  0  0  0  0  0  0  0  0  0
  -22.9956  -15.1943   31.3138 O   0  0  0  0  0  0  0  0  0  0  0  0
  -20.5101  -17.7476   32.5377 O   0  0  0  0  0  0  0  0  0  0  0  0
  -22.8741  -21.3608   30.5688 O   0  0  0  0  0  0  0  0  0  0  0  0
  -31.7446  -14.8836   20.2037 O   0  0  0  0  0  0  0  0  0  0  0  0
  -21.4189   -7.1379   21.7932 O   0  0  0  0  0  0  0  0  0  0  0  0
  -28.8708  -18.1953   31.1955 O   0  0  0  0  0  0  0  0  0  1  0  0
  -23.6768   -3.1089   24.8053 F   0  0  0  0  0  0  0  0  0  0  0  0
  -20.2934   -6.3626   24.1964 F   0  0  0  0  0  0  0  0  0  0  0  0
  1  2  1  0  0  0  0
  1  5  2  0  0  0  0
  2  6  2  0  0  0  0
  3  8  2  0  0  0  0
  3 16  1  0  0  0  0
  4  9  1  0  0  0  0
  4 16  2  0  0  0  0
  5 18  1  0  0  0  0
  6 20  1  0  0  0  0
  7 10  2  0  0  0  0
  7 19  1  0  0  0  0
  8 27  1  0  0  0  0
  9 27  2  0  0  0  0
 10 28  1  0  0  0  0
 11 12  2  0  0  0  0
 11 29  1  0  0  0  0
 12 30  1  0  0  0  0
 13 21  1  0  0  0  0
 13 25  2  0  0  0  0
 14 22  1  0  0  0  0
 14 28  2  0  0  0  0
 15 30  2  0  0  0  0
 15 31  1  0  0  0  0
 16 32  1  0  0  0  0
 17 32  1  0  0  0  0
 17 33  2  0  0  0  0
 17 34  1  0  0  0  0
 18 20  2  0  0  0  0
 18 39  1  0  0  0  0
 19 22  2  0  0  0  0
 19 40  1  0  0  0  0
 20 56  1  0  0  0  0
 21 23  2  0  0  0  0
 21 53  1  0  0  0  0
 22 41  1  0  0  0  0
 23 26  1  0  0  0  0
 23 54  1  0  0  0  0
 24 25  1  0  0  0  0
 24 26  2  0  0  0  0
 24 55  1  0  0  0  0
 25 60  1  0  0  0  0
 26 67  1  0  0  0  0
 27 87  1  0  0  0  0
 28 88  1  0  0  0  0
 29 31  2  0  0  0  0
 29 87  1  0  0  0  0
 30 89  1  0  0  0  0
 31 90  1  0  0  0  0
 32 71  2  0  0  0  0
 33 72  1  0  0  0  0
 33 76  1  0  0  0  0
 34 77  1  0  0  0  0
 34 82  2  0  0  0  0
 35 57  1  0  0  0  0
 35 78  1  0  0  0  0
 35 83  2  0  0  0  0
 36 68  1  0  0  0  0
 36 73  1  0  0  0  0
 36 84  2  0  0  0  0
 37 69  1  0  0  0  0
 37 79  1  0  0  0  0
 37 85  2  0  0  0  0
 38 74  1  0  0  0  0
 38 75  1  0  0  0  0
 38 86  2  0  0  0  0
 39 42  1  0  0  0  0
 40 57  1  0  0  0  0
 41 73  1  0  0  0  0
 42 46  1  0  0  0  0
 43 47  1  0  0  0  0
 43 49  1  0  0  0  0
 44 45  1  0  0  0  0
 44 54  1  0  0  0  0
 45 54  1  0  0  0  0
 46 56  1  0  0  0  0
 47 58  1  0  0  0  0
 48 55  1  0  0  0  0
 48 59  1  0  0  0  0
 49 74  1  0  0  0  0
 50 53  1  0  0  0  0
 50 75  1  0  0  0  0
 51 53  1  0  0  0  0
 51 75  1  0  0  0  0
 52 58  1  0  0  0  0
 52 74  1  0  0  0  0
 55 59  1  0  0  0  0
 56 78  1  0  0  0  0
 57 73  1  0  0  0  0
 58 72  1  0  0  0  0
 59 88  1  0  0  0  0
 61 67  1  0  0  0  0
 62 69  1  0  0  0  0
 63 70  1  0  0  0  0
 64 70  1  0  0  0  0
 65 70  1  0  0  0  0
 66 81  1  0  0  0  0
 67 80  1  0  0  0  0
 68 70  1  0  0  0  0
 68 79  1  0  0  0  0
 69 81  1  0  0  0  0
 71 72  1  0  0  0  0
M  CHG  2  80   1  81   1
M  ISO  4  38 100  59 101  75 100  88 101
M  END
> <Batch ID>
0166

> <Smiles>
CNC(C)C(=O)NC(C(=O)N1Cc2cc([101O:1][101CH:1]3CC3c3c(C)cc(C4C[100N:0]([100C:0](=O)N5CCCC(n6nc(-c7ccc(Oc8ccc(F)cc8F)cc7)c(C(N)=O)c6N)C5)C4)c(C4CC4)c3C(C)N)ccc2CC1C(=O)NC1CCCc2ccccc21)C(C)(C)C

> <Shape>
0.158

> <Color>
0.197

> <Negative vol penalty>
0.000

$$$$

  -OEChem-04052322243D

 86 95  0     1  0  0  0  0  0999 V2000
  -21.2585  -29.7573   27.5266 C   0  0  0  0  0  0  0  0  0  0  0  0
  -20.4479  -29.1436   26.5783 C   0  0  0  0  0  0  0  0  0  0  0  0
  -27.7355  -17.5940   19.0838 C   0  0  0  0  0  0  0  0  0  0  0  0
  -26.3874  -18.5958   20.8205 C   0  0  0  0  0  0  0  0  0  0  0  0
  -22.1712  -30.7329   27.1314 C   0  0  0  0  0  0  0  0  0  0  0  0
  -20.5582  -29.4967   25.2329 C   0  0  0  0  0  0  0  0  0  0  0  0
  -25.1198  -28.3124   19.1465 C   0  0  0  0  0  0  0  0  0  0  0  0
  -27.0397  -16.3947   19.2355 C   0  0  0  0  0  0  0  0  0  0  0  0
  -25.6915  -17.3965   20.9721 C   0  0  0  0  0  0  0  0  0  0  0  0
  -26.5003  -28.1203   19.1128 C   0  0  0  0  0  0  0  0  0  0  0  0
  -25.8578  -12.9604   19.4156 C   0  0  0  0  0  0  0  0  0  0  0  0
  -26.5990  -11.7796   19.4570 C   0  0  0  0  0  0  0  0  0  0  0  0
  -26.3368  -26.6550   21.0221 C   0  0  0  0  0  0  0  0  0  0  0  0
  -27.7755  -12.5865   21.4068 C   0  0  0  0  0  0  0  0  0  0  0  0
  -27.4094  -18.6946   19.8764 C   0  0  0  0  0  0  0  0  0  0  0  0
  -27.8086  -20.9992   18.8581 C   0  0  0  0  0  0  0  0  0  0  0  0
  -22.2833  -31.1065   25.7820 C   0  0  0  0  0  0  0  0  0  0  0  0
  -24.3375  -27.6849   20.1266 C   0  0  0  0  0  0  0  0  0  0  0  0
  -21.4902  -30.4621   24.8109 C   0  0  0  0  0  0  0  0  0  0  0  0
  -24.9463  -26.8388   21.0645 C   0  0  0  0  0  0  0  0  0  0  0  0
  -31.4316  -27.9718   20.1202 C   0  0  0  0  0  0  0  0  0  0  0  0
  -30.6380  -27.4286   19.1159 C   0  0  0  0  0  0  0  0  0  0  0  0
  -32.7754  -27.6240   20.2012 C   0  0  0  0  0  0  0  0  0  0  0  0
  -26.0176  -16.2959   20.1796 C   0  0  0  0  0  0  0  0  0  0  0  0
  -27.1094  -27.2938   20.0525 C   0  0  0  0  0  0  0  0  0  0  0  0
  -26.0755  -13.9544   20.3697 C   0  0  0  0  0  0  0  0  0  0  0  0
  -27.5579  -11.5926   20.4527 C   0  0  0  0  0  0  0  0  0  0  0  0
  -27.0343  -13.7674   21.3653 C   0  0  0  0  0  0  0  0  0  0  0  0
  -28.1283  -19.9336   19.7207 C   0  0  0  0  0  0  0  0  0  0  0  0
  -31.2316  -26.5494   18.2245 C   0  0  0  0  0  0  0  0  0  0  0  0
  -33.2732  -26.7359   19.2614 C   0  0  0  0  0  0  0  0  0  0  0  0
  -28.7917  -21.9312   19.0848 C   0  0  0  0  0  0  0  0  0  0  0  0
  -26.7203  -21.1346   17.9346 C   0  0  0  0  0  0  0  0  0  0  0  0
  -22.4653  -28.6950   22.4884 C   0  0  0  0  0  0  0  0  0  0  0  0
  -21.7835  -25.5367   22.7762 C   0  0  0  0  0  0  0  0  0  0  0  0
  -22.7464  -22.3052   22.2498 C   0  0  0  0  0  0  0  0  0  0  0  0
  -31.8667  -24.8572   22.5266 C   0  0  0  0  0  0  0  0  0  0  0  0
  -23.2934  -32.1627   25.4085 C   0  0  0  0  0  0  0  0  0  0  0  0
  -22.8463  -27.8812   20.1329 C   0  0  0  0  0  0  0  0  0  0  0  0
  -24.1486  -26.1258   22.1246 C   0  0  0  0  0  0  0  0  0  0  0  0
  -23.0277  -32.7820   24.0402 C   0  0  0  0  0  0  0  0  0  0  0  0
  -33.1329  -21.5814   21.6574 C   0  0  0  0  0  0  0  0  0  0  0  0
  -22.8125  -31.6864   23.0067 C   0  0  0  0  0  0  0  0  0  0  0  0
  -31.9059  -20.9479   20.9993 C   0  0  0  0  0  0  0  0  0  0  0  0
  -34.9114  -28.1782   23.3000 C   0  0  0  0  0  0  0  0  0  0  0  0
  -34.4262  -27.0792   24.2696 C   0  0  0  0  0  0  0  0  0  0  0  0
  -32.7356  -22.4587   22.8412 C   0  0  0  0  0  0  0  0  0  0  0  0
  -30.5189  -22.8909   21.8576 C   0  0  0  0  0  0  0  0  0  0  0  0
  -21.5711  -30.8518   23.3460 C   0  0  1  0  0  0  0  0  0  0  0  0
  -22.2122  -27.5996   21.4916 C   0  0  1  0  0  0  0  0  0  0  0  0
  -30.8523  -22.0117   20.6388 C   0  0  2  0  0  0  0  0  0  0  0  0
  -34.2751  -27.3483   22.1638 C   0  0  1  0  0  0  0  0  0  0  0  0
  -33.3258  -26.7502   23.2317 C   0  0  1  0  0  0  0  0  0  0  0  0
  -30.8391  -28.9269   21.1080 C   0  0  0  0  0  0  0  0  0  0  0  0
  -30.4303  -25.9357   17.1231 C   0  0  0  0  0  0  0  0  0  0  0  0
  -34.7089  -26.3223   19.2954 C   0  0  0  0  0  0  0  0  0  0  0  0
  -21.9971  -19.9401   22.6271 C   0  0  0  0  0  0  0  0  0  0  0  0
  -22.5382  -25.7703   25.7233 C   0  0  0  0  0  0  0  0  0  0  0  0
  -22.6926  -23.2729   25.8099 C   0  0  0  0  0  0  0  0  0  0  0  0
  -20.5170  -24.3684   25.2720 C   0  0  0  0  0  0  0  0  0  0  0  0
  -22.7094  -21.7311   19.3467 C   0  0  0  0  0  0  0  0  0  0  0  0
  -29.1850  -27.7847   19.0006 C   0  0  0  0  0  0  0  0  0  1  0  0
  -22.3704  -24.3827   23.5525 C   0  0  1  0  0  0  0  0  0  0  0  0
  -22.0064  -21.1165   21.6633 C   0  0  2  0  0  0  0  0  0  0  0  0
  -22.0451  -24.4634   25.0708 C   0  0  0  0  0  0  0  0  0  0  0  0
  -29.2285  -20.1659   20.4415 N   0  0  0  0  0  0  0  0  0  0  0  0
  -32.5333  -26.1878   18.2716 N   0  0  0  0  0  0  0  0  0  0  0  0
  -29.6089  -21.3881   20.0322 N   0  0  0  0  0  0  0  0  0  0  0  0
  -22.6946  -26.3548   22.0933 N   0  0  0  0  0  0  0  0  0  0  0  0
  -31.7448  -23.4622   22.4261 N   0  0  0  0  0  0  0  0  0  0  0  0
  -29.0283  -23.1540   18.5641 N   0  0  0  0  0  0  0  0  0  0  0  0
  -25.8008  -20.0824   17.8267 N   0  0  0  0  0  0  0  0  0  0  0  0
  -33.6031  -28.1565   21.2089 N   0  0  0  0  0  0  0  0  0  0  0  0
  -21.5204  -29.7030   22.4687 N   0  0  0  0  0  0  0  0  0  0  0  0
  -21.8912  -23.1677   22.9025 N   0  0  0  0  0  0  0  0  0  0  0  0
  -33.0561  -25.3289   23.0718 N   0  0  0  0  0  0  0  0  0  0  0  0
  -22.6529  -20.6789   20.3939 N   0  3  0  0  0  0  0  0  0  0  0  0
  -26.5770  -22.1514   17.2141 O   0  0  0  0  0  0  0  0  0  0  0  0
  -23.4446  -28.6297   23.2222 O   0  0  0  0  0  0  0  0  0  0  0  0
  -20.5611  -25.7018   22.7698 O   0  0  0  0  0  0  0  0  0  0  0  0
  -23.9619  -22.4519   22.1430 O   0  0  0  0  0  0  0  0  0  0  0  0
  -30.9829  -25.6360   22.1525 O   0  0  0  0  0  0  0  0  0  0  0  0
  -25.3382  -15.1259   20.3276 O   0  0  0  0  0  0  0  0  0  0  0  0
  -28.4567  -27.1050   20.0223 O   0  0  0  0  0  0  0  0  0  1  0  0
  -28.2685  -10.4579   20.4933 F   0  0  0  0  0  0  0  0  0  0  0  0
  -27.2471  -14.7183   22.2854 F   0  0  0  0  0  0  0  0  0  0  0  0
  1  2  1  0  0  0  0
  1  5  2  0  0  0  0
  2  6  2  0  0  0  0
  3  8  2  0  0  0  0
  3 15  1  0  0  0  0
  4  9  1  0  0  0  0
  4 15  2  0  0  0  0
  5 17  1  0  0  0  0
  6 19  1  0  0  0  0
  7 10  2  0  0  0  0
  7 18  1  0  0  0  0
  8 24  1  0  0  0  0
  9 24  2  0  0  0  0
 10 25  1  0  0  0  0
 11 12  2  0  0  0  0
 11 26  1  0  0  0  0
 12 27  1  0  0  0  0
 13 20  1  0  0  0  0
 13 25  2  0  0  0  0
 14 27  2  0  0  0  0
 14 28  1  0  0  0  0
 15 29  1  0  0  0  0
 16 29  1  0  0  0  0
 16 32  2  0  0  0  0
 16 33  1  0  0  0  0
 17 19  2  0  0  0  0
 17 38  1  0  0  0  0
 18 20  2  0  0  0  0
 18 39  1  0  0  0  0
 19 49  1  0  0  0  0
 20 40  1  0  0  0  0
 21 22  2  0  0  0  0
 21 23  1  0  0  0  0
 21 54  1  0  0  0  0
 22 30  1  0  0  0  0
 22 62  1  0  0  0  0
 23 31  2  0  0  0  0
 23 73  1  0  0  0  0
 24 83  1  0  0  0  0
 25 84  1  0  0  0  0
 26 28  2  0  0  0  0
 26 83  1  0  0  0  0
 27 85  1  0  0  0  0
 28 86  1  0  0  0  0
 29 66  2  0  0  0  0
 30 55  1  0  0  0  0
 30 67  2  0  0  0  0
 31 56  1  0  0  0  0
 31 67  1  0  0  0  0
 32 68  1  0  0  0  0
 32 71  1  0  0  0  0
 33 72  1  0  0  0  0
 33 78  2  0  0  0  0
 34 50  1  0  0  0  0
 34 74  1  0  0  0  0
 34 79  2  0  0  0  0
 35 63  1  0  0  0  0
 35 69  1  0  0  0  0
 35 80  2  0  0  0  0
 36 64  1  0  0  0  0
 36 75  1  0  0  0  0
 36 81  2  0  0  0  0
 37 70  1  0  0  0  0
 37 76  1  0  0  0  0
 37 82  2  0  0  0  0
 38 41  1  0  0  0  0
 39 50  1  0  0  0  0
 40 69  1  0  0  0  0
 41 43  1  0  0  0  0
 42 44  1  0  0  0  0
 42 47  1  0  0  0  0
 43 49  1  0  0  0  0
 44 51  1  0  0  0  0
 45 46  1  0  0  0  0
 45 52  1  0  0  0  0
 46 53  1  0  0  0  0
 47 70  1  0  0  0  0
 48 51  1  0  0  0  0
 48 70  1  0  0  0  0
 49 74  1  0  0  0  0
 50 69  1  0  0  0  0
 51 68  1  0  0  0  0
 52 53  1  0  0  0  0
 52 73  1  0  0  0  0
 53 76  1  0  0  0  0
 57 64  1  0  0  0  0
 58 65  1  0  0  0  0
 59 65  1  0  0  0  0
 60 65  1  0  0  0  0
 61 77  1  0  0  0  0
 62 84  1  0  0  0  0
 63 65  1  0  0  0  0
 63 75  1  0  0  0  0
 64 77  1  0  0  0  0
 66 68  1  0  0  0  0
M  CHG  1  77   1
M  ISO  4  37 100  62 101  76 100  84 101
M  END
> <Batch ID>
0166

> <Smiles>
CNC(C)C(=O)NC(C(=O)N1Cc2cc([101O:1][101CH2:1]c3c(C)nc(C)c(NC4CCC4[100NH:0][100C:0](=O)N4CCCC(n5nc(-c6ccc(Oc7ccc(F)cc7F)cc6)c(C(N)=O)c5N)C4)c3C)ccc2CC1C(=O)NC1CCCc2ccccc21)C(C)(C)C

> <Shape>
0.180

> <Color>
0.115

> <Negative vol penalty>
0.000

$$$$
