
  -OEChem-04052322273D

 88 97  0     1  0  0  0  0  0999 V2000
  -16.8727  -30.4074   23.5543 C   0  0  0  0  0  0  0  0  0  0  0  0
  -18.1515  -30.9372   23.4148 C   0  0  0  0  0  0  0  0  0  0  0  0
  -26.6064  -14.4017   20.6033 C   0  0  0  0  0  0  0  0  0  0  0  0
  -26.9704  -14.1118   18.2325 C   0  0  0  0  0  0  0  0  0  0  0  0
  -16.6814  -29.0274   23.5004 C   0  0  0  0  0  0  0  0  0  0  0  0
  -19.2400  -30.0871   23.2224 C   0  0  0  0  0  0  0  0  0  0  0  0
  -25.5786  -29.7983   19.8976 C   0  0  0  0  0  0  0  0  0  0  0  0
  -25.6266  -13.4094   20.5742 C   0  0  0  0  0  0  0  0  0  0  0  0
  -25.9905  -13.1195   18.2034 C   0  0  0  0  0  0  0  0  0  0  0  0
  -26.9202  -29.5230   20.1586 C   0  0  0  0  0  0  0  0  0  0  0  0
  -22.3855  -13.1362   19.6550 C   0  0  0  0  0  0  0  0  0  0  0  0
  -21.1910  -13.3860   20.3306 C   0  0  0  0  0  0  0  0  0  0  0  0
  -26.4594  -27.1602   20.0030 C   0  0  0  0  0  0  0  0  0  0  0  0
  -21.5792  -11.4553   21.7303 C   0  0  0  0  0  0  0  0  0  0  0  0
  -27.2783  -14.7529   19.4325 C   0  0  0  0  0  0  0  0  0  0  0  0
  -29.6680  -15.6065   19.6941 C   0  0  0  0  0  0  0  0  0  0  0  0
  -17.7668  -28.1605   23.2976 C   0  0  0  0  0  0  0  0  0  0  0  0
  -24.6637  -28.7545   19.6978 C   0  0  0  0  0  0  0  0  0  0  0  0
  -19.0632  -28.6941   23.1671 C   0  0  0  0  0  0  0  0  0  0  0  0
  -25.1073  -27.4250   19.7371 C   0  0  0  0  0  0  0  0  0  0  0  0
  -30.9138  -27.5075   17.3847 C   0  0  0  0  0  0  0  0  0  0  0  0
  -31.2088  -26.1434   17.5117 C   0  0  0  0  0  0  0  0  0  0  0  0
  -30.6953  -28.0847   16.1438 C   0  0  0  0  0  0  0  0  0  0  0  0
  -31.2793  -25.3327   16.3867 C   0  0  0  0  0  0  0  0  0  0  0  0
  -30.7589  -27.2706   15.0124 C   0  0  0  0  0  0  0  0  0  0  0  0
  -31.0480  -25.9037   15.1330 C   0  0  0  0  0  0  0  0  0  0  0  0
  -25.3186  -12.7683   19.3743 C   0  0  0  0  0  0  0  0  0  0  0  0
  -27.3602  -28.2038   20.2142 C   0  0  0  0  0  0  0  0  0  0  0  0
  -23.1767  -12.0460   20.0169 C   0  0  0  0  0  0  0  0  0  0  0  0
  -20.7879  -12.5455   21.3683 C   0  0  0  0  0  0  0  0  0  0  0  0
  -22.7736  -11.2056   21.0546 C   0  0  0  0  0  0  0  0  0  0  0  0
  -28.2902  -15.7783   19.4618 C   0  0  0  0  0  0  0  0  0  0  0  0
  -30.1897  -16.8748   19.6183 C   0  0  0  0  0  0  0  0  0  0  0  0
  -30.4099  -14.4077   19.9550 C   0  0  0  0  0  0  0  0  0  0  0  0
  -22.0388  -27.7567   21.1872 C   0  0  0  0  0  0  0  0  0  0  0  0
  -21.8544  -25.7201   18.6691 C   0  0  0  0  0  0  0  0  0  0  0  0
  -23.4679  -24.0584   16.1627 C   0  0  0  0  0  0  0  0  0  0  0  0
  -30.6061  -21.7028   17.0758 C   0  0  0  0  0  0  0  0  0  0  0  0
  -17.5171  -26.6731   23.2937 C   0  0  0  0  0  0  0  0  0  0  0  0
  -23.2251  -29.0688   19.3908 C   0  0  0  0  0  0  0  0  0  0  0  0
  -30.9137  -28.1928   18.7163 C   0  0  0  0  0  0  0  0  0  0  0  0
  -24.1691  -26.2689   19.5095 C   0  0  0  0  0  0  0  0  0  0  0  0
  -18.6728  -25.8630   22.7122 C   0  0  0  0  0  0  0  0  0  0  0  0
  -27.8912  -21.3780   19.4467 C   0  0  0  0  0  0  0  0  0  0  0  0
  -20.0020  -26.3384   23.2901 C   0  0  0  0  0  0  0  0  0  0  0  0
  -27.8703  -19.8662   19.6800 C   0  0  0  0  0  0  0  0  0  0  0  0
  -28.2071  -21.7084   17.9910 C   0  0  0  0  0  0  0  0  0  0  0  0
  -29.4576  -19.6024   17.7176 C   0  0  0  0  0  0  0  0  0  0  0  0
  -20.2658  -27.8060   22.9321 C   0  0  1  0  0  0  0  0  0  0  0  0
  -22.2797  -27.9155   19.7126 C   0  0  1  0  0  0  0  0  0  0  0  0
  -29.1660  -19.2035   19.1757 C   0  0  2  0  0  0  0  0  0  0  0  0
  -31.4502  -25.7729   18.9643 C   0  0  0  0  0  0  0  0  0  0  0  0
  -30.7382  -26.9922   19.6942 C   0  0  1  0  0  0  0  0  0  0  0  0
  -30.4014  -29.5427   16.0281 C   0  0  0  0  0  0  0  0  0  0  0  0
  -30.5216  -27.8641   13.6585 C   0  0  0  0  0  0  0  0  0  0  0  0
  -31.1183  -25.0526   13.9025 C   0  0  0  0  0  0  0  0  0  0  0  0
  -32.9760  -25.7339   19.1933 C   0  0  0  0  0  0  0  0  0  0  0  0
  -30.8691  -24.4009   19.3360 C   0  0  0  0  0  0  0  0  0  0  0  0
  -31.3478  -27.3349   21.0633 C   0  0  0  0  0  0  0  0  0  0  0  0
  -23.0579  -22.4382   14.2908 C   0  0  0  0  0  0  0  0  0  0  0  0
  -21.6631  -23.4401   20.6877 C   0  0  0  0  0  0  0  0  0  0  0  0
  -22.2110  -21.8472   18.8355 C   0  0  0  0  0  0  0  0  0  0  0  0
  -20.1335  -23.2233   18.7210 C   0  0  0  0  0  0  0  0  0  0  0  0
  -24.3800  -26.0020   14.1257 C   0  0  0  0  0  0  0  0  0  0  0  0
  -31.6250  -23.8838   16.4742 C   0  0  0  0  0  0  0  0  0  0  0  0
  -29.2215  -26.7543   19.9131 C   0  0  0  0  0  0  0  0  0  1  0  0
  -22.3774  -24.3352   18.3737 C   0  0  1  0  0  0  0  0  0  0  0  0
  -23.1468  -23.9037   14.6871 C   0  0  2  0  0  0  0  0  0  0  0  0
  -21.6138  -23.2329   19.1608 C   0  0  0  0  0  0  0  0  0  0  0  0
  -27.9576  -17.0551   19.2541 N   0  0  0  0  0  0  0  0  0  0  0  0
  -29.1338  -17.6971   19.3557 N   0  0  0  0  0  0  0  0  0  0  0  0
  -22.7710  -26.6274   19.2191 N   0  0  0  0  0  0  0  0  0  0  0  0
  -29.4615  -21.0626   17.5792 N   0  0  0  0  0  0  0  0  0  0  0  0
  -31.4441  -17.3557   19.7513 N   0  0  0  0  0  0  0  0  0  0  0  0
  -29.7178  -13.1897   19.9984 N   0  0  0  0  0  0  0  0  0  0  0  0
  -20.7187  -27.9186   21.5622 N   0  0  0  0  0  0  0  0  0  0  0  0
  -22.3247  -24.1795   16.9241 N   0  0  0  0  0  0  0  0  0  0  0  0
  -30.5255  -23.0859   16.9695 N   0  0  0  0  0  0  0  0  0  0  0  0
  -24.2011  -24.5519   13.8568 N   0  3  0  0  0  0  0  0  0  0  0  0
  -31.6474  -14.4183   20.1603 O   0  0  0  0  0  0  0  0  0  0  0  0
  -22.9806  -27.5044   21.9295 O   0  0  0  0  0  0  0  0  0  0  0  0
  -20.6778  -25.9893   18.4144 O   0  0  0  0  0  0  0  0  0  0  0  0
  -24.6176  -24.0670   16.5969 O   0  0  0  0  0  0  0  0  0  0  0  0
  -31.6271  -21.0876   16.7499 O   0  0  0  0  0  0  0  0  0  0  0  0
  -24.3627  -11.7998   19.3456 O   0  0  0  0  0  0  0  0  0  0  0  0
  -28.6845  -27.9291   20.4725 O   0  0  0  0  0  0  0  0  0  1  0  0
  -19.6416  -12.7864   22.0181 F   0  0  0  0  0  0  0  0  0  0  0  0
  -23.5302  -10.1573   21.4076 F   0  0  0  0  0  0  0  0  0  0  0  0
  1  2  1  0  0  0  0
  1  5  2  0  0  0  0
  2  6  2  0  0  0  0
  3  8  2  0  0  0  0
  3 15  1  0  0  0  0
  4  9  1  0  0  0  0
  4 15  2  0  0  0  0
  5 17  1  0  0  0  0
  6 19  1  0  0  0  0
  7 10  2  0  0  0  0
  7 18  1  0  0  0  0
  8 27  1  0  0  0  0
  9 27  2  0  0  0  0
 10 28  1  0  0  0  0
 11 12  2  0  0  0  0
 11 29  1  0  0  0  0
 12 30  1  0  0  0  0
 13 20  1  0  0  0  0
 13 28  2  0  0  0  0
 14 30  2  0  0  0  0
 14 31  1  0  0  0  0
 15 32  1  0  0  0  0
 16 32  1  0  0  0  0
 16 33  2  0  0  0  0
 16 34  1  0  0  0  0
 17 19  2  0  0  0  0
 17 39  1  0  0  0  0
 18 20  2  0  0  0  0
 18 40  1  0  0  0  0
 19 49  1  0  0  0  0
 20 42  1  0  0  0  0
 21 22  2  0  0  0  0
 21 23  1  0  0  0  0
 21 41  1  0  0  0  0
 22 24  1  0  0  0  0
 22 52  1  0  0  0  0
 23 25  2  0  0  0  0
 23 54  1  0  0  0  0
 24 26  2  0  0  0  0
 24 65  1  0  0  0  0
 25 26  1  0  0  0  0
 25 55  1  0  0  0  0
 26 56  1  0  0  0  0
 27 85  1  0  0  0  0
 28 86  1  0  0  0  0
 29 31  2  0  0  0  0
 29 85  1  0  0  0  0
 30 87  1  0  0  0  0
 31 88  1  0  0  0  0
 32 70  2  0  0  0  0
 33 71  1  0  0  0  0
 33 74  1  0  0  0  0
 34 75  1  0  0  0  0
 34 80  2  0  0  0  0
 35 50  1  0  0  0  0
 35 76  1  0  0  0  0
 35 81  2  0  0  0  0
 36 67  1  0  0  0  0
 36 72  1  0  0  0  0
 36 82  2  0  0  0  0
 37 68  1  0  0  0  0
 37 77  1  0  0  0  0
 37 83  2  0  0  0  0
 38 73  1  0  0  0  0
 38 78  1  0  0  0  0
 38 84  2  0  0  0  0
 39 43  1  0  0  0  0
 40 50  1  0  0  0  0
 41 53  1  0  0  0  0
 42 72  1  0  0  0  0
 43 45  1  0  0  0  0
 44 46  1  0  0  0  0
 44 47  1  0  0  0  0
 45 49  1  0  0  0  0
 46 51  1  0  0  0  0
 47 73  1  0  0  0  0
 48 51  1  0  0  0  0
 48 73  1  0  0  0  0
 49 76  1  0  0  0  0
 50 72  1  0  0  0  0
 51 71  1  0  0  0  0
 52 53  1  0  0  0  0
 52 57  1  0  0  0  0
 52 58  1  0  0  0  0
 53 59  1  0  0  0  0
 53 66  1  0  0  0  0
 60 68  1  0  0  0  0
 61 69  1  0  0  0  0
 62 69  1  0  0  0  0
 63 69  1  0  0  0  0
 64 79  1  0  0  0  0
 65 78  1  0  0  0  0
 66 86  1  0  0  0  0
 67 69  1  0  0  0  0
 67 77  1  0  0  0  0
 68 79  1  0  0  0  0
 70 71  1  0  0  0  0
M  CHG  1  79   1
M  ISO  4  38 100  66 101  78 100  86 101
M  END
> <Batch ID>
0167

> <Smiles>
CNC(C)C(=O)NC(C(=O)N1Cc2cc([101O:1][101CH2:1]C3(C)Cc4c(C)c(C)c(C)c(C[100NH:0][100C:0](=O)N5CCCC(n6nc(-c7ccc(Oc8ccc(F)cc8F)cc7)c(C(N)=O)c6N)C5)c4C3(C)C)ccc2CC1C(=O)NC1CCCc2ccccc21)C(C)(C)C

> <Shape>
0.271

> <Color>
0.074

> <Negative vol penalty>
0.000

$$$$

  -OEChem-04052322273D

 91101  0     1  0  0  0  0  0999 V2000
  -38.7122  -26.1613   17.3002 C   0  0  0  0  0  0  0  0  0  0  0  0
  -37.8243  -25.1450   17.6380 C   0  0  0  0  0  0  0  0  0  0  0  0
  -23.2898   -9.7927   19.9117 C   0  0  0  0  0  0  0  0  0  0  0  0
  -23.7222   -9.9401   22.2841 C   0  0  0  0  0  0  0  0  0  0  0  0
  -38.5924  -27.4164   17.8954 C   0  0  0  0  0  0  0  0  0  0  0  0
  -36.8167  -25.3829   18.5721 C   0  0  0  0  0  0  0  0  0  0  0  0
  -32.3328  -23.5429   17.1045 C   0  0  0  0  0  0  0  0  0  0  0  0
  -22.5599   -8.6220   20.1174 C   0  0  0  0  0  0  0  0  0  0  0  0
  -22.9922   -8.7694   22.4899 C   0  0  0  0  0  0  0  0  0  0  0  0
  -32.1303  -22.1708   17.2463 C   0  0  0  0  0  0  0  0  0  0  0  0
  -19.7421   -7.8644   22.6846 C   0  0  0  0  0  0  0  0  0  0  0  0
  -18.8314   -7.8476   23.7410 C   0  0  0  0  0  0  0  0  0  0  0  0
  -33.4331  -14.3443   25.0211 C   0  0  0  0  0  0  0  0  0  0  0  0
  -30.8866  -22.5700   19.2743 C   0  0  0  0  0  0  0  0  0  0  0  0
  -20.0263   -6.0015   24.7417 C   0  0  0  0  0  0  0  0  0  0  0  0
  -23.8710  -10.4517   20.9950 C   0  0  0  0  0  0  0  0  0  0  0  0
  -24.1362  -12.9806   20.7904 C   0  0  0  0  0  0  0  0  0  0  0  0
  -37.5770  -27.6727   18.8301 C   0  0  0  0  0  0  0  0  0  0  0  0
  -31.8221  -24.4396   18.0540 C   0  0  0  0  0  0  0  0  0  0  0  0
  -36.6841  -26.6422   19.1814 C   0  0  0  0  0  0  0  0  0  0  0  0
  -33.5753  -14.0830   23.6431 C   0  0  0  0  0  0  0  0  0  0  0  0
  -31.0818  -23.9532   19.1409 C   0  0  0  0  0  0  0  0  0  0  0  0
  -33.5466  -15.1690   22.7458 C   0  0  0  0  0  0  0  0  0  0  0  0
  -33.3557  -16.4710   23.2454 C   0  0  0  0  0  0  0  0  0  0  0  0
  -33.2455  -15.6400   25.5006 C   0  0  0  0  0  0  0  0  0  0  0  0
  -33.2035  -16.7044   24.6109 C   0  0  0  0  0  0  0  0  0  0  0  0
  -22.4110   -8.1104   21.4065 C   0  0  0  0  0  0  0  0  0  0  0  0
  -31.4096  -21.6840   18.3329 C   0  0  0  0  0  0  0  0  0  0  0  0
  -20.7949   -6.9497   22.6567 C   0  0  0  0  0  0  0  0  0  0  0  0
  -18.9735   -6.9162   24.7695 C   0  0  0  0  0  0  0  0  0  0  0  0
  -20.9370   -6.0183   23.6853 C   0  0  0  0  0  0  0  0  0  0  0  0
  -24.6256  -11.6607   20.7830 C   0  0  0  0  0  0  0  0  0  0  0  0
  -25.2409  -13.7579   20.5416 C   0  0  0  0  0  0  0  0  0  0  0  0
  -22.8022  -13.4612   21.0033 C   0  0  0  0  0  0  0  0  0  0  0  0
  -33.0983  -26.5424   20.0673 C   0  0  0  0  0  0  0  0  0  0  0  0
  -29.9953  -27.3083   20.6213 C   0  0  0  0  0  0  0  0  0  0  0  0
  -26.7199  -26.3513   20.5627 C   0  0  0  0  0  0  0  0  0  0  0  0
  -31.0733  -12.3598   21.4573 C   0  0  0  0  0  0  0  0  0  0  0  0
  -37.5165  -29.0313   19.4822 C   0  0  0  0  0  0  0  0  0  0  0  0
  -32.0264  -25.9187   17.8723 C   0  0  0  0  0  0  0  0  0  0  0  0
  -33.7757  -12.6341   23.2468 C   0  0  0  0  0  0  0  0  0  0  0  0
  -33.7334  -14.9961   21.2605 C   0  0  0  0  0  0  0  0  0  0  0  0
  -30.4952  -24.8755   20.1771 C   0  0  0  0  0  0  0  0  0  0  0  0
  -36.1901  -29.3117   20.1838 C   0  0  0  0  0  0  0  0  0  0  0  0
  -29.4822  -13.6618   18.3435 C   0  0  0  0  0  0  0  0  0  0  0  0
  -35.7744  -28.1173   21.0368 C   0  0  0  0  0  0  0  0  0  0  0  0
  -28.0111  -13.3431   18.6105 C   0  0  0  0  0  0  0  0  0  0  0  0
  -34.5487  -17.8650   21.4811 C   0  0  0  0  0  0  0  0  0  0  0  0
  -33.5095  -12.2083   21.7985 C   0  0  0  0  0  0  0  0  0  0  0  0
  -32.6120  -14.1931   20.5939 C   0  0  0  0  0  0  0  0  0  0  0  0
  -30.3962  -12.6664   19.0472 C   0  0  0  0  0  0  0  0  0  0  0  0
  -28.7001  -12.2445   20.7918 C   0  0  0  0  0  0  0  0  0  0  0  0
  -34.1200  -18.8824   20.4402 C   0  0  0  0  0  0  0  0  0  0  0  0
  -33.2895  -17.6643   22.3210 C   0  0  1  0  0  0  0  0  0  0  0  0
  -35.5627  -26.8688   20.1720 C   0  0  1  0  0  0  0  0  0  0  0  0
  -31.9006  -26.7036   19.1744 C   0  0  1  0  0  0  0  0  0  0  0  0
  -27.7340  -13.2352   20.1203 C   0  0  2  0  0  0  0  0  0  0  0  0
  -32.1924  -17.5872   21.2515 C   0  0  1  0  0  0  0  0  0  0  0  0
  -33.0875  -15.8523   26.9706 C   0  0  0  0  0  0  0  0  0  0  0  0
  -32.9951  -18.0943   25.1253 C   0  0  0  0  0  0  0  0  0  0  0  0
  -30.8074  -17.9486   21.7663 C   0  0  0  0  0  0  0  0  0  0  0  0
  -24.4155  -27.1799   21.1107 C   0  0  0  0  0  0  0  0  0  0  0  0
  -30.5498  -26.8790   23.5908 C   0  0  0  0  0  0  0  0  0  0  0  0
  -28.0765  -26.7799   23.9670 C   0  0  0  0  0  0  0  0  0  0  0  0
  -29.1179  -28.8630   23.0731 C   0  0  0  0  0  0  0  0  0  0  0  0
  -25.8279  -26.0782   17.7540 C   0  0  0  0  0  0  0  0  0  0  0  0
  -32.3126  -18.2293   18.8043 C   0  0  0  0  0  0  0  0  0  0  0  0
  -32.2171  -19.4796   17.9525 C   0  0  0  0  0  0  0  0  0  1  0  0
  -28.9311  -26.8313   21.5800 C   0  0  1  0  0  0  0  0  0  0  0  0
  -25.4777  -27.0433   20.0310 C   0  0  2  0  0  0  0  0  0  0  0  0
  -29.1814  -27.3205   23.0344 C   0  0  0  0  0  0  0  0  0  0  0  0
  -25.9390  -11.5991   20.5480 N   0  0  0  0  0  0  0  0  0  0  0  0
  -26.2842  -12.8901   20.4053 N   0  0  0  0  0  0  0  0  0  0  0  0
  -30.7275  -26.3129   19.9589 N   0  0  0  0  0  0  0  0  0  0  0  0
  -32.3561  -12.8811   21.2075 N   0  0  0  0  0  0  0  0  0  0  0  0
  -30.0915  -12.5760   20.4795 N   0  0  0  0  0  0  0  0  0  0  0  0
  -25.4119  -15.0922   20.4283 N   0  0  0  0  0  0  0  0  0  0  0  0
  -21.7861  -12.5267   21.2458 N   0  0  0  0  0  0  0  0  0  0  0  0
  -34.2890  -26.9377   19.4882 N   0  0  0  0  0  0  0  0  0  0  0  0
  -27.6543  -27.2577   21.0175 N   0  0  0  0  0  0  0  0  0  0  0  0
  -32.6416  -18.6154   20.2145 N   0  3  2  0  0  0  0  0  0  0  0  0
  -24.8985  -26.2687   18.8972 N   0  3  0  0  0  0  0  0  0  0  0  0
  -22.5166  -14.6820   20.9628 O   0  0  0  0  0  0  0  0  0  0  0  0
  -32.9526  -26.0940   21.1984 O   0  0  0  0  0  0  0  0  0  0  0  0
  -30.1655  -28.5194   20.4606 O   0  0  0  0  0  0  0  0  0  0  0  0
  -26.8471  -25.1290   20.5767 O   0  0  0  0  0  0  0  0  0  0  0  0
  -30.8102  -11.7626   22.5091 O   0  0  0  0  0  0  0  0  0  0  0  0
  -21.6986   -6.9682   21.6077 O   0  0  0  0  0  0  0  0  0  0  0  0
  -31.2097  -20.3355   18.4750 O   0  0  0  0  0  0  0  0  0  1  0  0
  -18.0997   -6.9011   25.7847 F   0  0  0  0  0  0  0  0  0  0  0  0
  -21.9470   -5.1379   23.6646 F   0  0  0  0  0  0  0  0  0  0  0  0
  1  2  1  0  0  0  0
  1  5  2  0  0  0  0
  2  6  2  0  0  0  0
  3  8  2  0  0  0  0
  3 16  1  0  0  0  0
  4  9  1  0  0  0  0
  4 16  2  0  0  0  0
  5 18  1  0  0  0  0
  6 20  1  0  0  0  0
  7 10  2  0  0  0  0
  7 19  1  0  0  0  0
  8 27  1  0  0  0  0
  9 27  2  0  0  0  0
 10 28  1  0  0  0  0
 11 12  2  0  0  0  0
 11 29  1  0  0  0  0
 12 30  1  0  0  0  0
 13 21  2  0  0  0  0
 13 25  1  0  0  0  0
 14 22  1  0  0  0  0
 14 28  2  0  0  0  0
 15 30  2  0  0  0  0
 15 31  1  0  0  0  0
 16 32  1  0  0  0  0
 17 32  1  0  0  0  0
 17 33  2  0  0  0  0
 17 34  1  0  0  0  0
 18 20  2  0  0  0  0
 18 39  1  0  0  0  0
 19 22  2  0  0  0  0
 19 40  1  0  0  0  0
 20 55  1  0  0  0  0
 21 23  1  0  0  0  0
 21 41  1  0  0  0  0
 22 43  1  0  0  0  0
 23 24  2  0  0  0  0
 23 42  1  0  0  0  0
 24 26  1  0  0  0  0
 24 54  1  0  0  0  0
 25 26  2  0  0  0  0
 25 59  1  0  0  0  0
 26 60  1  0  0  0  0
 27 88  1  0  0  0  0
 28 89  1  0  0  0  0
 29 31  2  0  0  0  0
 29 88  1  0  0  0  0
 30 90  1  0  0  0  0
 31 91  1  0  0  0  0
 32 72  2  0  0  0  0
 33 73  1  0  0  0  0
 33 77  1  0  0  0  0
 34 78  1  0  0  0  0
 34 83  2  0  0  0  0
 35 56  1  0  0  0  0
 35 79  1  0  0  0  0
 35 84  2  0  0  0  0
 36 69  1  0  0  0  0
 36 74  1  0  0  0  0
 36 85  2  0  0  0  0
 37 70  1  0  0  0  0
 37 80  1  0  0  0  0
 37 86  2  0  0  0  0
 38 75  1  0  0  0  0
 38 76  1  0  0  0  0
 38 87  2  0  0  0  0
 39 44  1  0  0  0  0
 40 56  1  0  0  0  0
 41 49  1  0  0  0  0
 42 50  1  0  0  0  0
 43 74  1  0  0  0  0
 44 46  1  0  0  0  0
 45 47  1  0  0  0  0
 45 51  1  0  0  0  0
 46 55  1  0  0  0  0
 47 57  1  0  0  0  0
 48 53  1  0  0  0  0
 48 54  1  0  0  0  0
 49 75  1  0  0  0  0
 50 75  1  0  0  0  0
 51 76  1  0  0  0  0
 52 57  1  0  0  0  0
 52 76  1  0  0  0  0
 53 81  1  0  0  0  0
 54 58  1  0  0  0  0
 55 79  1  0  0  0  0
 56 74  1  0  0  0  0
 57 73  1  0  0  0  0
 58 61  1  0  0  0  0
 58 81  1  0  0  0  0
 62 70  1  0  0  0  0
 63 71  1  0  0  0  0
 64 71  1  0  0  0  0
 65 71  1  0  0  0  0
 66 82  1  0  0  0  0
 67 68  1  0  0  0  0
 67 81  1  0  0  0  0
 68 89  1  0  0  0  0
 69 71  1  0  0  0  0
 69 80  1  0  0  0  0
 70 82  1  0  0  0  0
 72 73  1  0  0  0  0
M  CHG  2  81   1  82   1
M  ISO  4  38 100  68 101  75 100  89 101
M  END
> <Batch ID>
0167

> <Smiles>
CNC(C)C(=O)NC(C(=O)N1Cc2cc([101O:1][101CH2:1]CN3CCC(c4c(C)c(C)cc5c4CC[100N:0]([100C:0](=O)N4CCCC(n6nc(-c7ccc(Oc8ccc(F)cc8F)cc7)c(C(N)=O)c6N)C4)CC5)C3C)ccc2CC1C(=O)NC1CCCc2ccccc21)C(C)(C)C

> <Shape>
0.220

> <Color>
0.170

> <Negative vol penalty>
0.000

$$$$

  -OEChem-04052322273D

 89 98  0     1  0  0  0  0  0999 V2000
  -17.3332  -26.8003   24.1523 C   0  0  0  0  0  0  0  0  0  0  0  0
  -18.4140  -26.1746   23.5392 C   0  0  0  0  0  0  0  0  0  0  0  0
  -23.6436  -10.2248   21.7120 C   0  0  0  0  0  0  0  0  0  0  0  0
  -24.9766   -8.2751   22.2208 C   0  0  0  0  0  0  0  0  0  0  0  0
  -17.1260  -28.1671   23.9714 C   0  0  0  0  0  0  0  0  0  0  0  0
  -19.2876  -26.9153   22.7438 C   0  0  0  0  0  0  0  0  0  0  0  0
  -24.1478  -25.8394   23.6739 C   0  0  0  0  0  0  0  0  0  0  0  0
  -22.5288   -9.4106   21.5124 C   0  0  0  0  0  0  0  0  0  0  0  0
  -23.8617   -7.4609   22.0213 C   0  0  0  0  0  0  0  0  0  0  0  0
  -24.6561  -24.6632   23.1242 C   0  0  0  0  0  0  0  0  0  0  0  0
  -21.2801   -4.9011   21.9982 C   0  0  0  0  0  0  0  0  0  0  0  0
  -21.0353   -3.8949   22.9327 C   0  0  0  0  0  0  0  0  0  0  0  0
  -25.6635  -25.9388   21.3417 C   0  0  0  0  0  0  0  0  0  0  0  0
  -20.8459   -5.5586   24.6744 C   0  0  0  0  0  0  0  0  0  0  0  0
  -29.5269  -20.1461   17.5839 C   0  0  0  0  0  0  0  0  0  0  0  0
  -24.8676   -9.6571   22.0661 C   0  0  0  0  0  0  0  0  0  0  0  0
  -26.4321  -11.0942   23.4784 C   0  0  0  0  0  0  0  0  0  0  0  0
  -18.0030  -28.9268   23.1813 C   0  0  0  0  0  0  0  0  0  0  0  0
  -24.3848  -27.0750   23.0546 C   0  0  0  0  0  0  0  0  0  0  0  0
  -19.0911  -28.2934   22.5511 C   0  0  0  0  0  0  0  0  0  0  0  0
  -25.1593  -27.1294   21.8870 C   0  0  0  0  0  0  0  0  0  0  0  0
  -29.5584  -20.2548   18.9649 C   0  0  0  0  0  0  0  0  0  0  0  0
  -29.6678  -21.5269   19.5152 C   0  0  0  0  0  0  0  0  0  0  0  0
  -29.7415  -22.6359   18.6797 C   0  0  0  0  0  0  0  0  0  0  0  0
  -22.6379   -8.0287   21.6671 C   0  0  0  0  0  0  0  0  0  0  0  0
  -25.4116  -24.7125   21.9564 C   0  0  0  0  0  0  0  0  0  0  0  0
  -21.3078   -6.2360   22.4018 C   0  0  0  0  0  0  0  0  0  0  0  0
  -20.8182   -4.2237   24.2708 C   0  0  0  0  0  0  0  0  0  0  0  0
  -21.0907   -6.5648   23.7399 C   0  0  0  0  0  0  0  0  0  0  0  0
  -26.0197  -10.4976   22.2718 C   0  0  0  0  0  0  0  0  0  0  0  0
  -29.7021  -22.4205   17.3115 C   0  0  0  0  0  0  0  0  0  0  0  0
  -27.5717  -11.7858   23.1474 C   0  0  0  0  0  0  0  0  0  0  0  0
  -25.8383  -11.0290   24.7818 C   0  0  0  0  0  0  0  0  0  0  0  0
  -22.5496  -29.3203   21.7530 C   0  0  0  0  0  0  0  0  0  0  0  0
  -25.3555  -30.9319   21.5251 C   0  0  0  0  0  0  0  0  0  0  0  0
  -28.7619  -30.8089   21.3579 C   0  0  0  0  0  0  0  0  0  0  0  0
  -30.5003  -15.0374   19.8501 C   0  0  0  0  0  0  0  0  0  0  0  0
  -17.7111  -30.3923   22.9767 C   0  0  0  0  0  0  0  0  0  0  0  0
  -23.8521  -28.3374   23.6749 C   0  0  0  0  0  0  0  0  0  0  0  0
  -25.4594  -28.4328   21.1945 C   0  0  0  0  0  0  0  0  0  0  0  0
  -18.8968  -31.1779   22.4223 C   0  0  0  0  0  0  0  0  0  0  0  0
  -30.3851  -11.7010   18.9535 C   0  0  0  0  0  0  0  0  0  0  0  0
  -19.5330  -30.4309   21.2544 C   0  0  0  0  0  0  0  0  0  0  0  0
  -29.2745  -11.1266   19.8327 C   0  0  0  0  0  0  0  0  0  0  0  0
  -28.6077  -17.9153   19.1768 C   0  0  0  0  0  0  0  0  0  0  0  0
  -30.8674  -18.4578   20.1815 C   0  0  0  0  0  0  0  0  0  0  0  0
  -30.0029  -13.0773   18.4213 C   0  0  0  0  0  0  0  0  0  0  0  0
  -28.5540  -16.6492   20.0366 C   0  0  0  0  0  0  0  0  0  0  0  0
  -30.7490  -17.1975   21.0336 C   0  0  0  0  0  0  0  0  0  0  0  0
  -28.5510  -13.5036   20.3778 C   0  0  0  0  0  0  0  0  0  0  0  0
  -29.4745  -19.0090   19.8266 C   0  0  0  0  0  0  0  0  0  0  0  0
  -20.0749  -29.0677   21.7009 C   0  0  1  0  0  0  0  0  0  0  0  0
  -23.7226  -29.4846   22.6776 C   0  0  1  0  0  0  0  0  0  0  0  0
  -28.8885  -12.1119   20.9502 C   0  0  1  0  0  0  0  0  0  0  0  0
  -29.8577  -24.0138   19.2395 C   0  0  0  0  0  0  0  0  0  0  0  0
  -29.7783  -23.5727   16.3638 C   0  0  0  0  0  0  0  0  0  0  0  0
  -30.9784  -22.3962   21.4950 C   0  0  0  0  0  0  0  0  0  0  0  0
  -30.7780  -32.2869   21.1379 C   0  0  0  0  0  0  0  0  0  0  0  0
  -24.7593  -31.2990   18.5552 C   0  0  0  0  0  0  0  0  0  0  0  0
  -27.1643  -31.9086   18.2191 C   0  0  0  0  0  0  0  0  0  0  0  0
  -25.7159  -33.3151   19.6842 C   0  0  0  0  0  0  0  0  0  0  0  0
  -29.8407  -29.9221   23.9672 C   0  0  0  0  0  0  0  0  0  0  0  0
  -27.3204  -21.6414   21.7375 C   0  0  0  0  0  0  0  0  0  0  0  0
  -26.2171  -22.5042   22.3176 C   0  0  0  0  0  0  0  0  0  1  0  0
  -29.7061  -21.6993   21.0000 C   0  0  1  0  0  0  0  0  0  0  0  0
  -26.4490  -31.0334   20.4892 C   0  0  1  0  0  0  0  0  0  0  0  0
  -29.8355  -31.5828   22.1015 C   0  0  2  0  0  0  0  0  0  0  0  0
  -26.0150  -31.8641   19.2487 C   0  0  0  0  0  0  0  0  0  0  0  0
  -29.5962  -21.1999   16.7400 N   0  0  0  0  0  0  0  0  0  0  0  0
  -26.8311  -10.7852   21.2506 N   0  0  0  0  0  0  0  0  0  0  0  0
  -27.7648  -11.5701   21.8146 N   0  0  0  0  0  0  0  0  0  0  0  0
  -24.9111  -29.6391   21.8363 N   0  0  0  0  0  0  0  0  0  0  0  0
  -29.6399  -13.9820   19.5119 N   0  0  0  0  0  0  0  0  0  0  0  0
  -29.9094  -16.1954   20.3777 N   0  0  0  0  0  0  0  0  0  0  0  0
  -28.4173  -12.5515   23.8693 N   0  0  0  0  0  0  0  0  0  0  0  0
  -24.6693  -10.2736   24.9463 N   0  0  0  0  0  0  0  0  0  0  0  0
  -21.3320  -29.2278   22.3998 N   0  0  0  0  0  0  0  0  0  0  0  0
  -27.6197  -31.5609   21.1819 N   0  0  0  0  0  0  0  0  0  0  0  0
  -30.6383  -30.6634   22.9566 N   0  3  0  0  0  0  0  0  0  0  0  0
  -28.5334  -22.4674   21.5384 N   0  3  0  0  0  0  0  0  0  0  0  0
  -26.3207  -11.6363   25.7677 O   0  0  0  0  0  0  0  0  0  0  0  0
  -22.7354  -29.2819   20.5423 O   0  0  0  0  0  0  0  0  0  0  0  0
  -24.9170  -31.9613   22.0443 O   0  0  0  0  0  0  0  0  0  0  0  0
  -28.9221  -29.6542   20.9685 O   0  0  0  0  0  0  0  0  0  0  0  0
  -31.7244  -14.9506   19.6912 O   0  0  0  0  0  0  0  0  0  0  0  0
  -21.5502   -7.2339   21.4727 O   0  0  0  0  0  0  0  0  0  0  0  0
  -25.9119  -23.5577   21.4135 O   0  0  0  0  0  0  0  0  0  1  0  0
  -20.5817   -3.2574   25.1678 F   0  0  0  0  0  0  0  0  0  0  0  0
  -21.1150   -7.8456   24.1333 F   0  0  0  0  0  0  0  0  0  0  0  0
  1  2  1  0  0  0  0
  1  5  2  0  0  0  0
  2  6  2  0  0  0  0
  3  8  2  0  0  0  0
  3 16  1  0  0  0  0
  4  9  1  0  0  0  0
  4 16  2  0  0  0  0
  5 18  1  0  0  0  0
  6 20  1  0  0  0  0
  7 10  2  0  0  0  0
  7 19  1  0  0  0  0
  8 25  1  0  0  0  0
  9 25  2  0  0  0  0
 10 26  1  0  0  0  0
 11 12  2  0  0  0  0
 11 27  1  0  0  0  0
 12 28  1  0  0  0  0
 13 21  1  0  0  0  0
 13 26  2  0  0  0  0
 14 28  2  0  0  0  0
 14 29  1  0  0  0  0
 15 22  2  0  0  0  0
 15 69  1  0  0  0  0
 16 30  1  0  0  0  0
 17 30  1  0  0  0  0
 17 32  2  0  0  0  0
 17 33  1  0  0  0  0
 18 20  2  0  0  0  0
 18 38  1  0  0  0  0
 19 21  2  0  0  0  0
 19 39  1  0  0  0  0
 20 52  1  0  0  0  0
 21 40  1  0  0  0  0
 22 23  1  0  0  0  0
 22 51  1  0  0  0  0
 23 24  2  0  0  0  0
 23 65  1  0  0  0  0
 24 31  1  0  0  0  0
 24 55  1  0  0  0  0
 25 86  1  0  0  0  0
 26 87  1  0  0  0  0
 27 29  2  0  0  0  0
 27 86  1  0  0  0  0
 28 88  1  0  0  0  0
 29 89  1  0  0  0  0
 30 70  2  0  0  0  0
 31 56  1  0  0  0  0
 31 69  2  0  0  0  0
 32 71  1  0  0  0  0
 32 75  1  0  0  0  0
 33 76  1  0  0  0  0
 33 81  2  0  0  0  0
 34 53  1  0  0  0  0
 34 77  1  0  0  0  0
 34 82  2  0  0  0  0
 35 66  1  0  0  0  0
 35 72  1  0  0  0  0
 35 83  2  0  0  0  0
 36 67  1  0  0  0  0
 36 78  1  0  0  0  0
 36 84  2  0  0  0  0
 37 73  1  0  0  0  0
 37 74  1  0  0  0  0
 37 85  2  0  0  0  0
 38 41  1  0  0  0  0
 39 53  1  0  0  0  0
 40 72  1  0  0  0  0
 41 43  1  0  0  0  0
 42 44  1  0  0  0  0
 42 47  1  0  0  0  0
 43 52  1  0  0  0  0
 44 54  1  0  0  0  0
 45 48  1  0  0  0  0
 45 51  1  0  0  0  0
 46 49  1  0  0  0  0
 46 51  1  0  0  0  0
 47 73  1  0  0  0  0
 48 74  1  0  0  0  0
 49 74  1  0  0  0  0
 50 54  1  0  0  0  0
 50 73  1  0  0  0  0
 52 77  1  0  0  0  0
 53 72  1  0  0  0  0
 54 71  1  0  0  0  0
 57 65  1  0  0  0  0
 58 67  1  0  0  0  0
 59 68  1  0  0  0  0
 60 68  1  0  0  0  0
 61 68  1  0  0  0  0
 62 79  1  0  0  0  0
 63 64  1  0  0  0  0
 63 80  1  0  0  0  0
 64 87  1  0  0  0  0
 65 80  1  0  0  0  0
 66 68  1  0  0  0  0
 66 78  1  0  0  0  0
 67 79  1  0  0  0  0
 70 71  1  0  0  0  0
M  CHG  2  79   1  80   1
M  ISO  4  37 100  64 101  74 100  87 101
M  END
> <Batch ID>
0167

> <Smiles>
CNC(C)C(=O)NC(C(=O)N1Cc2cc([101O:1][101CH2:1]CNC(C)c3c(C4CC[100N:0]([100C:0](=O)N5CCCC(n6nc(-c7ccc(Oc8ccc(F)cc8F)cc7)c(C(N)=O)c6N)C5)CC4)cnc(C)c3C)ccc2CC1C(=O)NC1CCCc2ccccc21)C(C)(C)C

> <Shape>
0.305

> <Color>
0.095

> <Negative vol penalty>
0.000

$$$$

  -OEChem-04052322273D

 94105  0     1  0  0  0  0  0999 V2000
  -32.4498  -13.5173   20.7435 C   0  0  0  0  0  0  0  0  0  0  0  0
  -31.7577  -14.6724   21.0930 C   0  0  0  0  0  0  0  0  0  0  0  0
  -29.5800  -26.1300   23.8856 C   0  0  0  0  0  0  0  0  0  0  0  0
  -29.6755  -26.1022   21.4716 C   0  0  0  0  0  0  0  0  0  0  0  0
  -31.7908  -12.4866   20.0748 C   0  0  0  0  0  0  0  0  0  0  0  0
  -30.4063  -14.7979   20.7729 C   0  0  0  0  0  0  0  0  0  0  0  0
  -26.0926  -17.6405   24.0619 C   0  0  0  0  0  0  0  0  0  0  0  0
  -30.1606  -24.8623   23.9232 C   0  0  0  0  0  0  0  0  0  0  0  0
  -30.2561  -24.8344   21.5092 C   0  0  0  0  0  0  0  0  0  0  0  0
  -25.5243  -18.9100   23.9659 C   0  0  0  0  0  0  0  0  0  0  0  0
  -29.2393  -21.6407   21.9534 C   0  0  0  0  0  0  0  0  0  0  0  0
  -28.7491  -20.6770   21.0722 C   0  0  0  0  0  0  0  0  0  0  0  0
  -19.3770  -26.6324   21.3972 C   0  0  0  0  0  0  0  0  0  0  0  0
  -23.6918  -17.9871   22.6972 C   0  0  0  0  0  0  0  0  0  0  0  0
  -30.9403  -20.4741   20.0750 C   0  0  0  0  0  0  0  0  0  0  0  0
  -29.3374  -26.7499   22.6598 C   0  0  0  0  0  0  0  0  0  0  0  0
  -29.2432  -29.2439   23.1879 C   0  0  0  0  0  0  0  0  0  0  0  0
  -30.4283  -12.5954   19.7549 C   0  0  0  0  0  0  0  0  0  0  0  0
  -25.4692  -16.5347   23.4659 C   0  0  0  0  0  0  0  0  0  0  0  0
  -29.7288  -13.7682   20.0981 C   0  0  0  0  0  0  0  0  0  0  0  0
  -20.4518  -26.8487   22.2465 C   0  0  0  0  0  0  0  0  0  0  0  0
  -24.2529  -16.7043   22.7893 C   0  0  0  0  0  0  0  0  0  0  0  0
  -20.3898  -27.8213   23.2507 C   0  0  0  0  0  0  0  0  0  0  0  0
  -18.2275  -27.4065   21.5670 C   0  0  0  0  0  0  0  0  0  0  0  0
  -19.2531  -28.5972   23.4220 C   0  0  0  0  0  0  0  0  0  0  0  0
  -18.1661  -28.3826   22.5725 C   0  0  0  0  0  0  0  0  0  0  0  0
  -30.4987  -24.2145   22.7351 C   0  0  0  0  0  0  0  0  0  0  0  0
  -24.3252  -19.0840   23.2810 C   0  0  0  0  0  0  0  0  0  0  0  0
  -30.5801  -22.0212   21.8953 C   0  0  0  0  0  0  0  0  0  0  0  0
  -29.5995  -20.0937   20.1331 C   0  0  0  0  0  0  0  0  0  0  0  0
  -31.4306  -21.4378   20.9562 C   0  0  0  0  0  0  0  0  0  0  0  0
  -28.7372  -28.0592   22.6202 C   0  0  0  0  0  0  0  0  0  0  0  0
  -28.3095  -30.2011   22.8742 C   0  0  0  0  0  0  0  0  0  0  0  0
  -30.4495  -29.4598   23.9322 C   0  0  0  0  0  0  0  0  0  0  0  0
  -26.2678  -14.4685   21.1863 C   0  0  0  0  0  0  0  0  0  0  0  0
  -23.4995  -13.0248   22.0665 C   0  0  0  0  0  0  0  0  0  0  0  0
  -20.4159  -13.3031   23.5020 C   0  0  0  0  0  0  0  0  0  0  0  0
  -22.4320  -29.6953   22.4132 C   0  0  0  0  0  0  0  0  0  0  0  0
  -29.7705  -11.4747   18.9895 C   0  0  0  0  0  0  0  0  0  0  0  0
  -26.0814  -15.1675   23.6014 C   0  0  0  0  0  0  0  0  0  0  0  0
  -23.5333  -15.5462   22.1493 C   0  0  0  0  0  0  0  0  0  0  0  0
  -28.2453  -11.5298   19.0193 C   0  0  0  0  0  0  0  0  0  0  0  0
  -24.4148  -30.1749   19.6590 C   0  0  0  0  0  0  0  0  0  0  0  0
  -27.7565  -12.9451   18.7276 C   0  0  0  0  0  0  0  0  0  0  0  0
  -25.6260  -29.4693   20.2820 C   0  0  0  0  0  0  0  0  0  0  0  0
  -23.7008  -30.8784   25.0164 C   0  0  0  0  0  0  0  0  0  0  0  0
  -23.1387  -29.9048   26.0088 C   0  0  0  0  0  0  0  0  0  0  0  0
  -22.8121  -23.3609   23.3819 C   0  0  0  0  0  0  0  0  0  0  0  0
  -22.8795  -23.1825   25.5447 C   0  0  0  0  0  0  0  0  0  0  0  0
  -23.6121  -30.9883   20.6729 C   0  0  0  0  0  0  0  0  0  0  0  0
  -24.9240  -30.1748   22.6111 C   0  0  0  0  0  0  0  0  0  0  0  0
  -21.7815  -26.1477   22.2391 C   0  0  2  0  0  0  0  0  0  0  0  0
  -28.2561  -13.9313   19.7903 C   0  0  1  0  0  0  0  0  0  0  0  0
  -21.6689  -27.8894   24.0294 C   0  0  1  0  0  0  0  0  0  0  0  0
  -25.6235  -14.1977   22.5164 C   0  0  1  0  0  0  0  0  0  0  0  0
  -22.8346  -22.1787   24.3734 C   0  0  0  0  0  0  0  0  0  0  0  0
  -22.3707  -26.5664   23.6181 C   0  0  1  0  0  0  0  0  0  0  0  0
  -26.0756  -30.1604   21.5801 C   0  0  1  0  0  0  0  0  0  0  0  0
  -23.4859  -29.4434   24.6199 C   0  0  0  0  0  0  0  0  0  0  0  0
  -23.1197  -24.3427   24.5431 C   0  0  0  0  0  0  0  0  0  0  0  0
  -17.0619  -27.1667   20.6628 C   0  0  0  0  0  0  0  0  0  0  0  0
  -19.1707  -29.6236   24.5018 C   0  0  0  0  0  0  0  0  0  0  0  0
  -16.9179  -29.1918   22.7406 C   0  0  0  0  0  0  0  0  0  0  0  0
  -22.6479  -26.5981   21.0669 C   0  0  0  0  0  0  0  0  0  0  0  0
  -24.5511  -24.8763   24.5425 C   0  0  0  0  0  0  0  0  0  0  0  0
  -18.3666  -11.9598   24.0434 C   0  0  0  0  0  0  0  0  0  0  0  0
  -22.6572  -13.1334   19.1358 C   0  0  0  0  0  0  0  0  0  0  0  0
  -20.3061  -12.6798   19.8671 C   0  0  0  0  0  0  0  0  0  0  0  0
  -22.0934  -10.9956   20.3048 C   0  0  0  0  0  0  0  0  0  0  0  0
  -20.7256  -13.7849   26.4056 C   0  0  0  0  0  0  0  0  0  0  0  0
  -22.1040  -25.4760   24.6681 C   0  0  0  0  0  0  0  0  0  0  0  0
  -24.0159  -21.2300   24.2581 C   0  0  0  0  0  0  0  0  0  1  0  0
  -22.0540  -13.1383   21.6462 C   0  0  1  0  0  0  0  0  0  0  0  0
  -19.7119  -12.4579   24.5482 C   0  0  2  0  0  0  0  0  0  0  0  0
  -21.7920  -12.5091   20.2488 C   0  0  0  0  0  0  0  0  0  0  0  0
  -27.5723  -28.2444   21.9935 N   0  0  0  0  0  0  0  0  0  0  0  0
  -27.3386  -29.5566   22.1656 N   0  0  0  0  0  0  0  0  0  0  0  0
  -24.1751  -14.2302   22.3038 N   0  0  0  0  0  0  0  0  0  0  0  0
  -23.6026  -30.3384   21.9811 N   0  0  0  0  0  0  0  0  0  0  0  0
  -28.2325  -31.5228   23.1382 N   0  0  0  0  0  0  0  0  0  0  0  0
  -31.6138  -29.8048   23.2323 N   0  0  0  0  0  0  0  0  0  0  0  0
  -27.4697  -13.8127   20.9994 N   0  0  0  0  0  0  0  0  0  0  0  0
  -21.2680  -12.5479   22.7242 N   0  0  0  0  0  0  0  0  0  0  0  0
  -22.4520  -29.0709   23.6684 N   0  0  0  0  0  0  0  0  0  0  0  0
  -19.4837  -13.2524   25.7882 N   0  3  0  0  0  0  0  0  0  0  0  0
  -30.4975  -29.3340   25.1793 O   0  0  0  0  0  0  0  0  0  0  0  0
  -25.7147  -15.2159   20.3880 O   0  0  0  0  0  0  0  0  0  0  0  0
  -24.0084  -11.9076   22.1868 O   0  0  0  0  0  0  0  0  0  0  0  0
  -20.2260  -14.5116   23.3841 O   0  0  0  0  0  0  0  0  0  0  0  0
  -21.4136  -29.6697   21.7084 O   0  0  0  0  0  0  0  0  0  0  0  0
  -31.0654  -22.9776   22.7714 O   0  0  0  0  0  0  0  0  0  0  0  0
  -23.7687  -20.3221   23.1853 O   0  0  0  0  0  0  0  0  0  1  0  0
  -29.1290  -19.1671   19.2880 F   0  0  0  0  0  0  0  0  0  0  0  0
  -32.7198  -21.7984   20.8965 F   0  0  0  0  0  0  0  0  0  0  0  0
  1  2  1  0  0  0  0
  1  5  2  0  0  0  0
  2  6  2  0  0  0  0
  3  8  2  0  0  0  0
  3 16  1  0  0  0  0
  4  9  1  0  0  0  0
  4 16  2  0  0  0  0
  5 18  1  0  0  0  0
  6 20  1  0  0  0  0
  7 10  2  0  0  0  0
  7 19  1  0  0  0  0
  8 27  1  0  0  0  0
  9 27  2  0  0  0  0
 10 28  1  0  0  0  0
 11 12  2  0  0  0  0
 11 29  1  0  0  0  0
 12 30  1  0  0  0  0
 13 21  1  0  0  0  0
 13 24  2  0  0  0  0
 14 22  1  0  0  0  0
 14 28  2  0  0  0  0
 15 30  2  0  0  0  0
 15 31  1  0  0  0  0
 16 32  1  0  0  0  0
 17 32  1  0  0  0  0
 17 33  2  0  0  0  0
 17 34  1  0  0  0  0
 18 20  2  0  0  0  0
 18 39  1  0  0  0  0
 19 22  2  0  0  0  0
 19 40  1  0  0  0  0
 20 53  1  0  0  0  0
 21 23  2  0  0  0  0
 21 52  1  0  0  0  0
 22 41  1  0  0  0  0
 23 25  1  0  0  0  0
 23 54  1  0  0  0  0
 24 26  1  0  0  0  0
 24 61  1  0  0  0  0
 25 26  2  0  0  0  0
 25 62  1  0  0  0  0
 26 63  1  0  0  0  0
 27 91  1  0  0  0  0
 28 92  1  0  0  0  0
 29 31  2  0  0  0  0
 29 91  1  0  0  0  0
 30 93  1  0  0  0  0
 31 94  1  0  0  0  0
 32 76  2  0  0  0  0
 33 77  1  0  0  0  0
 33 80  1  0  0  0  0
 34 81  1  0  0  0  0
 34 86  2  0  0  0  0
 35 55  1  0  0  0  0
 35 82  1  0  0  0  0
 35 87  2  0  0  0  0
 36 73  1  0  0  0  0
 36 78  1  0  0  0  0
 36 88  2  0  0  0  0
 37 74  1  0  0  0  0
 37 83  1  0  0  0  0
 37 89  2  0  0  0  0
 38 79  1  0  0  0  0
 38 84  1  0  0  0  0
 38 90  2  0  0  0  0
 39 42  1  0  0  0  0
 40 55  1  0  0  0  0
 41 78  1  0  0  0  0
 42 44  1  0  0  0  0
 43 45  1  0  0  0  0
 43 50  1  0  0  0  0
 44 53  1  0  0  0  0
 45 58  1  0  0  0  0
 46 47  1  0  0  0  0
 46 59  1  0  0  0  0
 47 59  1  0  0  0  0
 48 56  1  0  0  0  0
 48 60  1  0  0  0  0
 49 56  1  0  0  0  0
 49 60  1  0  0  0  0
 50 79  1  0  0  0  0
 51 58  1  0  0  0  0
 51 79  1  0  0  0  0
 52 57  1  0  0  0  0
 52 64  1  0  0  0  0
 53 82  1  0  0  0  0
 54 57  1  0  0  0  0
 54 84  1  0  0  0  0
 55 78  1  0  0  0  0
 56 72  1  0  0  0  0
 57 71  1  0  0  0  0
 58 77  1  0  0  0  0
 59 84  1  0  0  0  0
 60 65  1  0  0  0  0
 60 71  1  0  0  0  0
 66 74  1  0  0  0  0
 67 75  1  0  0  0  0
 68 75  1  0  0  0  0
 69 75  1  0  0  0  0
 70 85  1  0  0  0  0
 72 92  1  0  0  0  0
 73 75  1  0  0  0  0
 73 83  1  0  0  0  0
 74 85  1  0  0  0  0
 76 77  1  0  0  0  0
M  CHG  1  85   1
M  ISO  4  38 100  72 101  84 100  92 101
M  END
> <Batch ID>
0167

> <Smiles>
CNC(C)C(=O)NC(C(=O)N1Cc2cc([101O:1][101CH2:1]C3CC(C)(CC4C(C)c5cc(C)c(C)c(C)c5C4[100N:0](C4CC4)[100C:0](=O)N4CCCC(n5nc(-c6ccc(Oc7ccc(F)cc7F)cc6)c(C(N)=O)c5N)C4)C3)ccc2CC1C(=O)NC1CCCc2ccccc21)C(C)(C)C

> <Shape>
0.263

> <Color>
0.081

> <Negative vol penalty>
0.000

$$$$

  -OEChem-04052322273D

 83 92  0     1  0  0  0  0  0999 V2000
  -24.8161  -31.7755   15.1487 C   0  0  0  0  0  0  0  0  0  0  0  0
  -25.5654  -30.6459   15.4619 C   0  0  0  0  0  0  0  0  0  0  0  0
  -23.0593   -9.7749   19.9944 C   0  0  0  0  0  0  0  0  0  0  0  0
  -23.7034   -9.9566   22.3158 C   0  0  0  0  0  0  0  0  0  0  0  0
  -24.5087  -32.7042   16.1422 C   0  0  0  0  0  0  0  0  0  0  0  0
  -26.0087  -30.4449   16.7686 C   0  0  0  0  0  0  0  0  0  0  0  0
  -26.6168  -25.0841   19.6664 C   0  0  0  0  0  0  0  0  0  0  0  0
  -22.3061   -8.6394   20.2922 C   0  0  0  0  0  0  0  0  0  0  0  0
  -22.9501   -8.8211   22.6137 C   0  0  0  0  0  0  0  0  0  0  0  0
  -27.7196  -24.2634   19.8992 C   0  0  0  0  0  0  0  0  0  0  0  0
  -23.2748   -5.4686   22.3207 C   0  0  0  0  0  0  0  0  0  0  0  0
  -23.8555   -4.5029   23.1429 C   0  0  0  0  0  0  0  0  0  0  0  0
  -27.9976  -25.2648   22.0761 C   0  0  0  0  0  0  0  0  0  0  0  0
  -31.0822  -17.6560   20.4600 C   0  0  0  0  0  0  0  0  0  0  0  0
  -22.0705   -4.7934   24.7449 C   0  0  0  0  0  0  0  0  0  0  0  0
  -23.7581  -10.4335   21.0061 C   0  0  0  0  0  0  0  0  0  0  0  0
  -24.1007  -12.9446   20.7154 C   0  0  0  0  0  0  0  0  0  0  0  0
  -24.9403  -32.5096   17.4638 C   0  0  0  0  0  0  0  0  0  0  0  0
  -26.2021  -26.0104   20.6340 C   0  0  0  0  0  0  0  0  0  0  0  0
  -25.7080  -31.3726   17.7804 C   0  0  0  0  0  0  0  0  0  0  0  0
  -26.8877  -26.0942   21.8542 C   0  0  0  0  0  0  0  0  0  0  0  0
  -30.4975  -19.8997   21.1388 C   0  0  0  0  0  0  0  0  0  0  0  0
  -31.2634  -19.0351   20.3568 C   0  0  0  0  0  0  0  0  0  0  0  0
  -29.5504  -19.3851   22.0242 C   0  0  0  0  0  0  0  0  0  0  0  0
  -29.3691  -18.0059   22.1274 C   0  0  0  0  0  0  0  0  0  0  0  0
  -30.1350  -17.1414   21.3453 C   0  0  0  0  0  0  0  0  0  0  0  0
  -22.2514   -8.1625   21.6019 C   0  0  0  0  0  0  0  0  0  0  0  0
  -28.4120  -24.3557   21.1030 C   0  0  0  0  0  0  0  0  0  0  0  0
  -22.0920   -6.0967   22.7107 C   0  0  0  0  0  0  0  0  0  0  0  0
  -23.2534   -4.1653   24.3549 C   0  0  0  0  0  0  0  0  0  0  0  0
  -21.4898   -5.7591   23.9227 C   0  0  0  0  0  0  0  0  0  0  0  0
  -24.5369  -11.6062   20.6989 C   0  0  0  0  0  0  0  0  0  0  0  0
  -25.2083  -13.6711   20.3521 C   0  0  0  0  0  0  0  0  0  0  0  0
  -22.8099  -13.4830   21.0309 C   0  0  0  0  0  0  0  0  0  0  0  0
  -25.9436  -29.1767   20.7428 C   0  0  0  0  0  0  0  0  0  0  0  0
  -24.5770  -28.5764   23.6228 C   0  0  0  0  0  0  0  0  0  0  0  0
  -24.2284  -26.4638   26.2802 C   0  0  0  0  0  0  0  0  0  0  0  0
  -30.6569  -14.7574   20.7202 C   0  0  0  0  0  0  0  0  0  0  0  0
  -24.6236  -33.5649   18.4936 C   0  0  0  0  0  0  0  0  0  0  0  0
  -24.9943  -26.8697   20.3783 C   0  0  0  0  0  0  0  0  0  0  0  0
  -26.4705  -27.0581   22.9337 C   0  0  0  0  0  0  0  0  0  0  0  0
  -24.8127  -33.0888   19.9316 C   0  0  0  0  0  0  0  0  0  0  0  0
  -29.6670  -12.1680   18.4859 C   0  0  0  0  0  0  0  0  0  0  0  0
  -26.1419  -32.3554   20.0807 C   0  0  0  0  0  0  0  0  0  0  0  0
  -28.2082  -11.9011   18.8639 C   0  0  0  0  0  0  0  0  0  0  0  0
  -30.5805  -22.0264   19.6738 C   0  0  0  0  0  0  0  0  0  0  0  0
  -30.5204  -12.4906   19.7112 C   0  0  0  0  0  0  0  0  0  0  0  0
  -28.5453  -13.3051   20.9380 C   0  0  0  0  0  0  0  0  0  0  0  0
  -30.6922  -21.3650   21.0276 C   0  0  1  0  0  0  0  0  0  0  0  0
  -26.1859  -31.1069   19.1915 C   0  0  1  0  0  0  0  0  0  0  0  0
  -24.9724  -28.1374   21.2269 C   0  0  1  0  0  0  0  0  0  0  0  0
  -27.6330  -13.0393   19.7294 C   0  0  2  0  0  0  0  0  0  0  0  0
  -29.5073  -22.2456   20.6959 C   0  0  1  0  0  0  0  0  0  1  0  0
  -32.2845  -19.5587   19.3998 C   0  0  0  0  0  0  0  0  0  0  0  0
  -28.7280  -20.3115   22.8641 C   0  0  0  0  0  0  0  0  0  0  0  0
  -28.3515  -17.4550   23.0772 C   0  0  0  0  0  0  0  0  0  0  0  0
  -23.0734  -26.2632   28.4991 C   0  0  0  0  0  0  0  0  0  0  0  0
  -26.5841  -30.5251   24.8409 C   0  0  0  0  0  0  0  0  0  0  0  0
  -26.0308  -29.5792   27.0920 C   0  0  0  0  0  0  0  0  0  0  0  0
  -24.2619  -30.7156   25.7495 C   0  0  0  0  0  0  0  0  0  0  0  0
  -22.7522  -24.0458   25.4240 C   0  0  0  0  0  0  0  0  0  0  0  0
  -25.0838  -28.4331   25.0375 C   0  0  1  0  0  0  0  0  0  0  0  0
  -22.9973  -25.9590   27.0110 C   0  0  2  0  0  0  0  0  0  0  0  0
  -25.4995  -29.7964   25.6591 C   0  0  0  0  0  0  0  0  0  0  0  0
  -25.8213  -11.4866   20.3524 N   0  0  0  0  0  0  0  0  0  0  0  0
  -26.2017  -12.7592   20.1477 N   0  0  0  0  0  0  0  0  0  0  0  0
  -25.2873  -27.8812   22.6338 N   0  0  0  0  0  0  0  0  0  0  0  0
  -29.9163  -13.5807   20.4804 N   0  0  0  0  0  0  0  0  0  0  0  0
  -25.4196  -14.9946   20.1905 N   0  0  0  0  0  0  0  0  0  0  0  0
  -21.7841  -12.5958   21.3842 N   0  0  0  0  0  0  0  0  0  0  0  0
  -29.9677  -15.7371   21.4341 N   0  0  0  0  0  0  0  0  0  0  0  0
  -25.4235  -30.0326   19.7907 N   0  0  0  0  0  0  0  0  0  0  0  0
  -24.0387  -27.7333   25.7766 N   0  0  0  0  0  0  0  0  0  0  0  0
  -22.8610  -24.4849   26.8391 N   0  3  0  0  0  0  0  0  0  0  0  0
  -22.5688  -14.7132   20.9845 O   0  0  0  0  0  0  0  0  0  0  0  0
  -27.0801  -29.2012   21.2003 O   0  0  0  0  0  0  0  0  0  0  0  0
  -23.5831  -29.2736   23.4042 O   0  0  0  0  0  0  0  0  0  0  0  0
  -25.2569  -25.7999   26.1705 O   0  0  0  0  0  0  0  0  0  0  0  0
  -31.8077  -14.8972   20.2981 O   0  0  0  0  0  0  0  0  0  0  0  0
  -21.5163   -7.0546   21.8930 O   0  0  0  0  0  0  0  0  0  0  0  0
  -29.4891  -23.5564   21.3325 O   0  0  0  0  0  0  0  0  0  1  0  0
  -23.8103   -3.2369   25.1436 F   0  0  0  0  0  0  0  0  0  0  0  0
  -20.3528   -6.3583   24.3022 F   0  0  0  0  0  0  0  0  0  0  0  0
  1  2  1  0  0  0  0
  1  5  2  0  0  0  0
  2  6  2  0  0  0  0
  3  8  2  0  0  0  0
  3 16  1  0  0  0  0
  4  9  1  0  0  0  0
  4 16  2  0  0  0  0
  5 18  1  0  0  0  0
  6 20  1  0  0  0  0
  7 10  2  0  0  0  0
  7 19  1  0  0  0  0
  8 27  1  0  0  0  0
  9 27  2  0  0  0  0
 10 28  1  0  0  0  0
 11 12  2  0  0  0  0
 11 29  1  0  0  0  0
 12 30  1  0  0  0  0
 13 21  1  0  0  0  0
 13 28  2  0  0  0  0
 14 23  2  0  0  0  0
 14 26  1  0  0  0  0
 15 30  2  0  0  0  0
 15 31  1  0  0  0  0
 16 32  1  0  0  0  0
 17 32  1  0  0  0  0
 17 33  2  0  0  0  0
 17 34  1  0  0  0  0
 18 20  2  0  0  0  0
 18 39  1  0  0  0  0
 19 21  2  0  0  0  0
 19 40  1  0  0  0  0
 20 50  1  0  0  0  0
 21 41  1  0  0  0  0
 22 23  1  0  0  0  0
 22 24  2  0  0  0  0
 22 49  1  0  0  0  0
 23 54  1  0  0  0  0
 24 25  1  0  0  0  0
 24 55  1  0  0  0  0
 25 26  2  0  0  0  0
 25 56  1  0  0  0  0
 26 71  1  0  0  0  0
 27 80  1  0  0  0  0
 28 81  1  0  0  0  0
 29 31  2  0  0  0  0
 29 80  1  0  0  0  0
 30 82  1  0  0  0  0
 31 83  1  0  0  0  0
 32 65  2  0  0  0  0
 33 66  1  0  0  0  0
 33 69  1  0  0  0  0
 34 70  1  0  0  0  0
 34 75  2  0  0  0  0
 35 51  1  0  0  0  0
 35 72  1  0  0  0  0
 35 76  2  0  0  0  0
 36 62  1  0  0  0  0
 36 67  1  0  0  0  0
 36 77  2  0  0  0  0
 37 63  1  0  0  0  0
 37 73  1  0  0  0  0
 37 78  2  0  0  0  0
 38 68  1  0  0  0  0
 38 71  1  0  0  0  0
 38 79  2  0  0  0  0
 39 42  1  0  0  0  0
 40 51  1  0  0  0  0
 41 67  1  0  0  0  0
 42 44  1  0  0  0  0
 43 45  1  0  0  0  0
 43 47  1  0  0  0  0
 44 50  1  0  0  0  0
 45 52  1  0  0  0  0
 46 49  1  0  0  0  0
 46 53  1  0  0  0  0
 47 68  1  0  0  0  0
 48 52  1  0  0  0  0
 48 68  1  0  0  0  0
 49 53  1  0  0  0  0
 50 72  1  0  0  0  0
 51 67  1  0  0  0  0
 52 66  1  0  0  0  0
 53 81  1  0  0  0  0
 57 63  1  0  0  0  0
 58 64  1  0  0  0  0
 59 64  1  0  0  0  0
 60 64  1  0  0  0  0
 61 74  1  0  0  0  0
 62 64  1  0  0  0  0
 62 73  1  0  0  0  0
 63 74  1  0  0  0  0
 65 66  1  0  0  0  0
M  CHG  1  74   1
M  ISO  4  38 100  53 101  71 100  81 101
M  END
> <Batch ID>
0167

> <Smiles>
CNC(C)C(=O)NC(C(=O)N1Cc2cc([101O:1][101CH:1]3CC3c3c(C)cc([100NH:0][100C:0](=O)N4CCCC(n5nc(-c6ccc(Oc7ccc(F)cc7F)cc6)c(C(N)=O)c5N)C4)c(C)c3C)ccc2CC1C(=O)NC1CCCc2ccccc21)C(C)(C)C

> <Shape>
0.280

> <Color>
0.226

> <Negative vol penalty>
0.000

$$$$

  -OEChem-04052322273D

 90100  0     1  0  0  0  0  0999 V2000
  -22.8787  -11.0117   18.7342 C   0  0  0  0  0  0  0  0  0  0  0  0
  -22.3285  -12.2887   18.7814 C   0  0  0  0  0  0  0  0  0  0  0  0
  -29.7815  -28.9928   17.6686 C   0  0  0  0  0  0  0  0  0  0  0  0
  -28.1159  -27.7362   16.4506 C   0  0  0  0  0  0  0  0  0  0  0  0
  -24.0632  -10.7386   19.4169 C   0  0  0  0  0  0  0  0  0  0  0  0
  -22.9621  -13.2930   19.5124 C   0  0  0  0  0  0  0  0  0  0  0  0
  -23.1996  -19.2559   18.1368 C   0  0  0  0  0  0  0  0  0  0  0  0
  -30.4977  -29.1882   16.4878 C   0  0  0  0  0  0  0  0  0  0  0  0
  -28.8320  -27.9317   15.2697 C   0  0  0  0  0  0  0  0  0  0  0  0
  -22.4612  -20.3514   18.5822 C   0  0  0  0  0  0  0  0  0  0  0  0
  -30.3221  -31.1932   13.7708 C   0  0  0  0  0  0  0  0  0  0  0  0
  -30.8090  -32.4746   13.5124 C   0  0  0  0  0  0  0  0  0  0  0  0
  -24.1792  -20.8429   20.2027 C   0  0  0  0  0  0  0  0  0  0  0  0
  -33.0644  -31.6094   13.4722 C   0  0  0  0  0  0  0  0  0  0  0  0
  -28.5906  -28.2668   17.6501 C   0  0  0  0  0  0  0  0  0  0  0  0
  -20.4982  -27.2640   22.2586 C   0  0  0  0  0  0  0  0  0  0  0  0
  -28.2974  -27.4174   20.0376 C   0  0  0  0  0  0  0  0  0  0  0  0
  -24.7168  -11.7426   20.1487 C   0  0  0  0  0  0  0  0  0  0  0  0
  -24.4303  -18.9387   18.7293 C   0  0  0  0  0  0  0  0  0  0  0  0
  -24.1558  -13.0327   20.2067 C   0  0  0  0  0  0  0  0  0  0  0  0
  -24.9325  -19.7444   19.7612 C   0  0  0  0  0  0  0  0  0  0  0  0
  -19.3908  -26.8223   21.5344 C   0  0  0  0  0  0  0  0  0  0  0  0
  -18.1051  -27.1840   21.9366 C   0  0  0  0  0  0  0  0  0  0  0  0
  -20.3198  -28.0672   23.3849 C   0  0  0  0  0  0  0  0  0  0  0  0
  -17.9267  -27.9872   23.0629 C   0  0  0  0  0  0  0  0  0  0  0  0
  -19.0341  -28.4289   23.7871 C   0  0  0  0  0  0  0  0  0  0  0  0
  -30.0230  -28.6577   15.2883 C   0  0  0  0  0  0  0  0  0  0  0  0
  -22.9496  -21.1434   19.6172 C   0  0  0  0  0  0  0  0  0  0  0  0
  -31.2064  -30.1200   13.8800 C   0  0  0  0  0  0  0  0  0  0  0  0
  -32.1801  -32.6827   13.3631 C   0  0  0  0  0  0  0  0  0  0  0  0
  -32.5776  -30.3281   13.7306 C   0  0  0  0  0  0  0  0  0  0  0  0
  -27.8506  -28.0641   18.8697 C   0  0  0  0  0  0  0  0  0  0  0  0
  -27.2298  -27.4879   20.8989 C   0  0  0  0  0  0  0  0  0  0  0  0
  -21.8514  -26.8831   21.8356 C   0  0  0  0  0  0  0  0  0  0  0  0
  -29.5641  -26.8076   20.3188 C   0  0  0  0  0  0  0  0  0  0  0  0
  -25.5693  -16.4441   20.3366 C   0  0  0  0  0  0  0  0  0  0  0  0
  -28.3588  -18.0885   20.1441 C   0  0  0  0  0  0  0  0  0  0  0  0
  -29.9298  -21.0952   19.7714 C   0  0  0  0  0  0  0  0  0  0  0  0
  -25.9699  -11.3875   20.9091 C   0  0  0  0  0  0  0  0  0  0  0  0
  -25.2272  -17.7694   18.2194 C   0  0  0  0  0  0  0  0  0  0  0  0
  -26.2578  -19.4584   20.4171 C   0  0  0  0  0  0  0  0  0  0  0  0
  -26.7780  -12.6040   21.3536 C   0  0  0  0  0  0  0  0  0  0  0  0
  -22.9270  -30.1255   20.6124 C   0  0  0  0  0  0  0  0  0  0  0  0
  -15.8328  -25.9563   21.8768 C   0  0  0  0  0  0  0  0  0  0  0  0
  -16.7393  -25.2353   20.9289 C   0  0  0  0  0  0  0  0  0  0  0  0
  -25.8638  -13.6523   21.9800 C   0  0  0  0  0  0  0  0  0  0  0  0
  -24.3430  -29.8126   20.1271 C   0  0  0  0  0  0  0  0  0  0  0  0
  -20.2362  -24.5769   20.5910 C   0  0  0  0  0  0  0  0  0  0  0  0
  -20.4220  -26.5336   19.1583 C   0  0  0  0  0  0  0  0  0  0  0  0
  -21.9815  -28.9553   20.3592 C   0  0  0  0  0  0  0  0  0  0  0  0
  -23.8567  -27.3474   20.4663 C   0  0  0  0  0  0  0  0  0  0  0  0
  -19.5824  -25.9504   20.3094 C   0  0  2  0  0  0  0  0  0  0  0  0
  -16.9175  -26.7106   21.1587 C   0  0  0  0  0  0  0  0  0  0  0  0
  -24.8267  -14.1550   20.9685 C   0  0  1  0  0  0  0  0  0  0  0  0
  -26.2262  -17.2359   19.2415 C   0  0  1  0  0  0  0  0  0  0  0  0
  -21.2747  -24.3409   19.4795 C   0  0  2  0  0  0  0  0  0  0  0  0
  -24.8562  -28.4886   20.7227 C   0  0  1  0  0  0  0  0  0  0  0  0
  -20.8777  -25.3091   18.3434 C   0  0  0  0  0  0  0  0  0  0  0  0
  -21.5057  -28.5433   24.1646 C   0  0  0  0  0  0  0  0  0  0  0  0
  -16.5481  -28.3764   23.4960 C   0  0  0  0  0  0  0  0  0  0  0  0
  -18.8430  -29.2907   24.9952 C   0  0  0  0  0  0  0  0  0  0  0  0
  -19.7385  -24.7809   17.4540 C   0  0  0  0  0  0  0  0  0  0  0  0
  -22.0741  -25.6643   17.4523 C   0  0  0  0  0  0  0  0  0  0  0  0
  -32.2160  -22.1269   19.6933 C   0  0  0  0  0  0  0  0  0  0  0  0
  -28.5791  -17.8239   23.1758 C   0  0  0  0  0  0  0  0  0  0  0  0
  -30.3080  -19.6343   23.1384 C   0  0  0  0  0  0  0  0  0  0  0  0
  -30.7273  -17.4868   21.9404 C   0  0  0  0  0  0  0  0  0  0  0  0
  -29.5170  -22.0822   17.0120 C   0  0  0  0  0  0  0  0  0  0  0  0
  -21.3998  -22.8713   19.0990 C   0  0  0  0  0  0  0  0  0  1  0  0
  -29.0495  -19.1257   20.9963 C   0  0  1  0  0  0  0  0  0  0  0  0
  -31.0799  -21.5271   18.8796 C   0  0  2  0  0  0  0  0  0  0  0  0
  -29.6400  -18.5222   22.3019 C   0  0  0  0  0  0  0  0  0  0  0  0
  -26.5969  -28.5123   18.9759 N   0  0  0  0  0  0  0  0  0  0  0  0
  -26.2467  -28.1466   20.2208 N   0  0  0  0  0  0  0  0  0  0  0  0
  -22.5208  -27.7180   20.9376 N   0  0  0  0  0  0  0  0  0  0  0  0
  -26.9968  -18.3004   19.8875 N   0  0  0  0  0  0  0  0  0  0  0  0
  -27.0455  -27.0501   22.1625 N   0  0  0  0  0  0  0  0  0  0  0  0
  -29.7338  -25.4496   20.0162 N   0  0  0  0  0  0  0  0  0  0  0  0
  -25.4304  -15.0990   20.0525 N   0  0  0  0  0  0  0  0  0  0  0  0
  -30.0362  -19.7697   20.1360 N   0  0  0  0  0  0  0  0  0  0  0  0
  -30.6177  -22.5462   17.8953 N   0  3  0  0  0  0  0  0  0  0  0  0
  -22.3000  -25.8461   22.3221 O   0  0  0  0  0  0  0  0  0  0  0  0
  -30.5120  -27.4438   20.8386 O   0  0  0  0  0  0  0  0  0  0  0  0
  -25.2161  -17.0113   21.3638 O   0  0  0  0  0  0  0  0  0  0  0  0
  -29.0057  -17.1296   19.7156 O   0  0  0  0  0  0  0  0  0  0  0  0
  -29.0292  -21.8584   20.1135 O   0  0  0  0  0  0  0  0  0  0  0  0
  -30.7214  -28.8484   14.1358 O   0  0  0  0  0  0  0  0  0  0  0  0
  -22.2305  -22.2129   20.0544 O   0  0  0  0  0  0  0  0  0  1  0  0
  -32.6474  -33.9129   13.1134 F   0  0  0  0  0  0  0  0  0  0  0  0
  -33.4319  -29.3008   13.8333 F   0  0  0  0  0  0  0  0  0  0  0  0
  1  2  1  0  0  0  0
  1  5  2  0  0  0  0
  2  6  2  0  0  0  0
  3  8  2  0  0  0  0
  3 15  1  0  0  0  0
  4  9  1  0  0  0  0
  4 15  2  0  0  0  0
  5 18  1  0  0  0  0
  6 20  1  0  0  0  0
  7 10  2  0  0  0  0
  7 19  1  0  0  0  0
  8 27  1  0  0  0  0
  9 27  2  0  0  0  0
 10 28  1  0  0  0  0
 11 12  2  0  0  0  0
 11 29  1  0  0  0  0
 12 30  1  0  0  0  0
 13 21  1  0  0  0  0
 13 28  2  0  0  0  0
 14 30  2  0  0  0  0
 14 31  1  0  0  0  0
 15 32  1  0  0  0  0
 16 22  2  0  0  0  0
 16 24  1  0  0  0  0
 16 34  1  0  0  0  0
 17 32  1  0  0  0  0
 17 33  2  0  0  0  0
 17 35  1  0  0  0  0
 18 20  2  0  0  0  0
 18 39  1  0  0  0  0
 19 21  2  0  0  0  0
 19 40  1  0  0  0  0
 20 54  1  0  0  0  0
 21 41  1  0  0  0  0
 22 23  1  0  0  0  0
 22 52  1  0  0  0  0
 23 25  2  0  0  0  0
 23 53  1  0  0  0  0
 24 26  2  0  0  0  0
 24 59  1  0  0  0  0
 25 26  1  0  0  0  0
 25 60  1  0  0  0  0
 26 61  1  0  0  0  0
 27 87  1  0  0  0  0
 28 88  1  0  0  0  0
 29 31  2  0  0  0  0
 29 87  1  0  0  0  0
 30 89  1  0  0  0  0
 31 90  1  0  0  0  0
 32 73  2  0  0  0  0
 33 74  1  0  0  0  0
 33 77  1  0  0  0  0
 34 75  1  0  0  0  0
 34 82  2  0  0  0  0
 35 78  1  0  0  0  0
 35 83  2  0  0  0  0
 36 55  1  0  0  0  0
 36 79  1  0  0  0  0
 36 84  2  0  0  0  0
 37 70  1  0  0  0  0
 37 76  1  0  0  0  0
 37 85  2  0  0  0  0
 38 71  1  0  0  0  0
 38 80  1  0  0  0  0
 38 86  2  0  0  0  0
 39 42  1  0  0  0  0
 40 55  1  0  0  0  0
 41 76  1  0  0  0  0
 42 46  1  0  0  0  0
 43 47  1  0  0  0  0
 43 50  1  0  0  0  0
 44 45  1  0  0  0  0
 44 53  1  0  0  0  0
 45 53  1  0  0  0  0
 46 54  1  0  0  0  0
 47 57  1  0  0  0  0
 48 52  1  0  0  0  0
 48 56  1  0  0  0  0
 49 52  1  0  0  0  0
 49 58  1  0  0  0  0
 50 75  1  0  0  0  0
 51 57  1  0  0  0  0
 51 75  1  0  0  0  0
 54 79  1  0  0  0  0
 55 76  1  0  0  0  0
 56 58  1  0  0  0  0
 56 69  1  0  0  0  0
 57 74  1  0  0  0  0
 58 62  1  0  0  0  0
 58 63  1  0  0  0  0
 64 71  1  0  0  0  0
 65 72  1  0  0  0  0
 66 72  1  0  0  0  0
 67 72  1  0  0  0  0
 68 81  1  0  0  0  0
 69 88  1  0  0  0  0
 70 72  1  0  0  0  0
 70 80  1  0  0  0  0
 71 81  1  0  0  0  0
 73 74  1  0  0  0  0
M  CHG  1  81   1
M  ISO  4  16 100  34 100  69 101  88 101
M  END
> <Batch ID>
0167

> <Smiles>
CNC(C)C(=O)NC(C(=O)N1Cc2cc([101O:1][101CH2:1]C3CC(c4c(C5CC5)c(C)c(C)c(C)[100c:0]4[100C:0](=O)N4CCCC(n5nc(-c6ccc(Oc7ccc(F)cc7F)cc6)c(C(N)=O)c5N)C4)CC3(C)C)ccc2CC1C(=O)NC1CCCc2ccccc21)C(C)(C)C

> <Shape>
0.230

> <Color>
0.063

> <Negative vol penalty>
0.000

$$$$

  -OEChem-04052322273D

 86 95  0     1  0  0  0  0  0999 V2000
  -24.8281  -33.5174   14.5300 C   0  0  0  0  0  0  0  0  0  0  0  0
  -25.5053  -32.4565   15.1228 C   0  0  0  0  0  0  0  0  0  0  0  0
  -24.2625  -10.8624   23.2880 C   0  0  0  0  0  0  0  0  0  0  0  0
  -23.4170  -13.0999   23.6284 C   0  0  0  0  0  0  0  0  0  0  0  0
  -24.4675  -34.6267   15.2938 C   0  0  0  0  0  0  0  0  0  0  0  0
  -25.8232  -32.5048   16.4796 C   0  0  0  0  0  0  0  0  0  0  0  0
  -24.8232  -28.1513   18.8653 C   0  0  0  0  0  0  0  0  0  0  0  0
  -23.7174  -10.4704   24.5106 C   0  0  0  0  0  0  0  0  0  0  0  0
  -22.8718  -12.7079   24.8510 C   0  0  0  0  0  0  0  0  0  0  0  0
  -25.7336  -27.1090   18.6964 C   0  0  0  0  0  0  0  0  0  0  0  0
  -20.6782   -9.6209   25.7250 C   0  0  0  0  0  0  0  0  0  0  0  0
  -19.9852   -8.4112   25.7676 C   0  0  0  0  0  0  0  0  0  0  0  0
  -26.7159  -27.6281   20.8377 C   0  0  0  0  0  0  0  0  0  0  0  0
  -28.7216  -21.7919   18.1213 C   0  0  0  0  0  0  0  0  0  0  0  0
  -21.5421   -7.5774   27.4163 C   0  0  0  0  0  0  0  0  0  0  0  0
  -24.1124  -12.1772   22.8469 C   0  0  0  0  0  0  0  0  0  0  0  0
  -24.0531  -12.5398   20.3225 C   0  0  0  0  0  0  0  0  0  0  0  0
  -24.7726  -34.6843   16.6628 C   0  0  0  0  0  0  0  0  0  0  0  0
  -24.8594  -28.9481   20.0186 C   0  0  0  0  0  0  0  0  0  0  0  0
  -25.4675  -33.6165   17.2622 C   0  0  0  0  0  0  0  0  0  0  0  0
  -25.8032  -28.6783   21.0199 C   0  0  0  0  0  0  0  0  0  0  0  0
  -29.0192  -23.1498   18.1483 C   0  0  0  0  0  0  0  0  0  0  0  0
  -29.5596  -23.7147   19.2982 C   0  0  0  0  0  0  0  0  0  0  0  0
  -23.0220  -11.3931   25.2921 C   0  0  0  0  0  0  0  0  0  0  0  0
  -26.6820  -26.8491   19.6814 C   0  0  0  0  0  0  0  0  0  0  0  0
  -21.8033   -9.8089   26.5279 C   0  0  0  0  0  0  0  0  0  0  0  0
  -20.4171   -7.3895   26.6133 C   0  0  0  0  0  0  0  0  0  0  0  0
  -22.2352   -8.7872   27.3736 C   0  0  0  0  0  0  0  0  0  0  0  0
  -24.6758  -12.5830   21.5843 C   0  0  0  0  0  0  0  0  0  0  0  0
  -28.9812  -21.0483   19.2612 C   0  0  0  0  0  0  0  0  0  0  0  0
  -29.7815  -22.8850   20.3855 C   0  0  0  0  0  0  0  0  0  0  0  0
  -24.9992  -13.0301   19.4558 C   0  0  0  0  0  0  0  0  0  0  0  0
  -22.7372  -12.0964   19.9657 C   0  0  0  0  0  0  0  0  0  0  0  0
  -28.6833  -19.5923   19.2900 C   0  0  0  0  0  0  0  0  0  0  0  0
  -25.3595  -32.0330   20.5989 C   0  0  0  0  0  0  0  0  0  0  0  0
  -24.5780  -31.1891   23.6320 C   0  0  0  0  0  0  0  0  0  0  0  0
  -24.3665  -28.7339   25.9929 C   0  0  0  0  0  0  0  0  0  0  0  0
  -29.6874  -16.6892   20.2000 C   0  0  0  0  0  0  0  0  0  0  0  0
  -24.4041  -35.9250   17.4371 C   0  0  0  0  0  0  0  0  0  0  0  0
  -23.8532  -30.0516   20.1978 C   0  0  0  0  0  0  0  0  0  0  0  0
  -25.8708  -29.4915   22.2858 C   0  0  0  0  0  0  0  0  0  0  0  0
  -24.4474  -35.7335   18.9510 C   0  0  0  0  0  0  0  0  0  0  0  0
  -29.7368  -13.3751   18.8873 C   0  0  0  0  0  0  0  0  0  0  0  0
  -28.7280  -23.3109   15.5864 C   0  0  0  0  0  0  0  0  0  0  0  0
  -29.8647  -24.2142   15.9504 C   0  0  0  0  0  0  0  0  0  0  0  0
  -25.7307  -35.0188   19.3622 C   0  0  0  0  0  0  0  0  0  0  0  0
  -28.3911  -12.7902   19.3178 C   0  0  0  0  0  0  0  0  0  0  0  0
  -30.3134  -14.3042   19.9527 C   0  0  0  0  0  0  0  0  0  0  0  0
  -28.0578  -14.8039   20.8148 C   0  0  0  0  0  0  0  0  0  0  0  0
  -28.7511  -23.9781   16.9360 C   0  0  0  0  0  0  0  0  0  0  0  0
  -25.8083  -33.6209   18.7366 C   0  0  1  0  0  0  0  0  0  0  0  0
  -24.3123  -31.1253   21.1795 C   0  0  1  0  0  0  0  0  0  0  0  0
  -27.4131  -13.8981   19.7514 C   0  0  2  0  0  0  0  0  0  0  0  0
  -30.3599  -23.4348   21.6484 C   0  0  0  0  0  0  0  0  0  0  0  0
  -23.7272  -28.3558   28.3899 C   0  0  0  0  0  0  0  0  0  0  0  0
  -27.1975  -32.4703   24.5301 C   0  0  0  0  0  0  0  0  0  0  0  0
  -26.9659  -31.2535   26.7058 C   0  0  0  0  0  0  0  0  0  0  0  0
  -25.2460  -32.9274   26.0258 C   0  0  0  0  0  0  0  0  0  0  0  0
  -22.2247  -26.8339   25.2431 C   0  0  0  0  0  0  0  0  0  0  0  0
  -29.8934  -25.1855   19.3586 C   0  0  0  0  0  0  0  0  0  0  0  0
  -28.8513  -25.9852   20.1330 C   0  0  0  0  0  0  0  0  0  1  0  0
  -25.3447  -30.6986   24.8364 C   0  0  1  0  0  0  0  0  0  0  0  0
  -23.2502  -28.3464   26.9459 C   0  0  2  0  0  0  0  0  0  0  0  0
  -26.1888  -31.8232   25.4999 C   0  0  0  0  0  0  0  0  0  0  0  0
  -25.9211  -13.0626   21.5287 N   0  0  0  0  0  0  0  0  0  0  0  0
  -29.5053  -21.5617   20.3967 N   0  0  0  0  0  0  0  0  0  0  0  0
  -26.0887  -13.3253   20.2214 N   0  0  0  0  0  0  0  0  0  0  0  0
  -24.8696  -30.5635   22.4116 N   0  0  0  0  0  0  0  0  0  0  0  0
  -29.3394  -15.3336   20.3238 N   0  0  0  0  0  0  0  0  0  0  0  0
  -24.9971  -13.2332   18.1212 N   0  0  0  0  0  0  0  0  0  0  0  0
  -21.8939  -11.6226   20.9799 N   0  0  0  0  0  0  0  0  0  0  0  0
  -28.9783  -18.9419   20.4729 N   0  0  0  0  0  0  0  0  0  0  0  0
  -24.9573  -32.6973   19.4560 N   0  0  0  0  0  0  0  0  0  0  0  0
  -24.3621  -30.0863   25.7241 N   0  0  0  0  0  0  0  0  0  0  0  0
  -28.7061  -17.5953   20.5707 N   0  0  0  0  0  0  0  0  0  0  0  0
  -22.7469  -26.9806   26.6261 N   0  3  0  0  0  0  0  0  0  0  0  0
  -22.3273  -12.1042   18.7802 O   0  0  0  0  0  0  0  0  0  0  0  0
  -28.1890  -19.0591   18.2996 O   0  0  0  0  0  0  0  0  0  0  0  0
  -26.4511  -32.1251   21.1482 O   0  0  0  0  0  0  0  0  0  0  0  0
  -23.7458  -32.0891   23.7702 O   0  0  0  0  0  0  0  0  0  0  0  0
  -25.1649  -27.9190   25.5357 O   0  0  0  0  0  0  0  0  0  0  0  0
  -30.7921  -17.0592   19.7870 O   0  0  0  0  0  0  0  0  0  0  0  0
  -22.4898  -11.0108   26.4850 O   0  0  0  0  0  0  0  0  0  0  0  0
  -27.5723  -25.8328   19.5188 O   0  0  0  0  0  0  0  0  0  1  0  0
  -19.7506   -6.2284   26.6552 F   0  0  0  0  0  0  0  0  0  0  0  0
  -23.3146   -8.9624   28.1482 F   0  0  0  0  0  0  0  0  0  0  0  0
  1  2  1  0  0  0  0
  1  5  2  0  0  0  0
  2  6  2  0  0  0  0
  3  8  2  0  0  0  0
  3 16  1  0  0  0  0
  4  9  1  0  0  0  0
  4 16  2  0  0  0  0
  5 18  1  0  0  0  0
  6 20  1  0  0  0  0
  7 10  2  0  0  0  0
  7 19  1  0  0  0  0
  8 24  1  0  0  0  0
  9 24  2  0  0  0  0
 10 25  1  0  0  0  0
 11 12  2  0  0  0  0
 11 26  1  0  0  0  0
 12 27  1  0  0  0  0
 13 21  1  0  0  0  0
 13 25  2  0  0  0  0
 14 22  2  0  0  0  0
 14 30  1  0  0  0  0
 15 27  2  0  0  0  0
 15 28  1  0  0  0  0
 16 29  1  0  0  0  0
 17 29  1  0  0  0  0
 17 32  2  0  0  0  0
 17 33  1  0  0  0  0
 18 20  2  0  0  0  0
 18 39  1  0  0  0  0
 19 21  2  0  0  0  0
 19 40  1  0  0  0  0
 20 51  1  0  0  0  0
 21 41  1  0  0  0  0
 22 23  1  0  0  0  0
 22 50  1  0  0  0  0
 23 31  2  0  0  0  0
 23 60  1  0  0  0  0
 24 83  1  0  0  0  0
 25 84  1  0  0  0  0
 26 28  2  0  0  0  0
 26 83  1  0  0  0  0
 27 85  1  0  0  0  0
 28 86  1  0  0  0  0
 29 65  2  0  0  0  0
 30 34  1  0  0  0  0
 30 66  2  0  0  0  0
 31 54  1  0  0  0  0
 31 66  1  0  0  0  0
 32 67  1  0  0  0  0
 32 70  1  0  0  0  0
 33 71  1  0  0  0  0
 33 77  2  0  0  0  0
 34 72  1  0  0  0  0
 34 78  2  0  0  0  0
 35 52  1  0  0  0  0
 35 73  1  0  0  0  0
 35 79  2  0  0  0  0
 36 62  1  0  0  0  0
 36 68  1  0  0  0  0
 36 80  2  0  0  0  0
 37 63  1  0  0  0  0
 37 74  1  0  0  0  0
 37 81  2  0  0  0  0
 38 69  1  0  0  0  0
 38 75  1  0  0  0  0
 38 82  2  0  0  0  0
 39 42  1  0  0  0  0
 40 52  1  0  0  0  0
 41 68  1  0  0  0  0
 42 46  1  0  0  0  0
 43 47  1  0  0  0  0
 43 48  1  0  0  0  0
 44 45  1  0  0  0  0
 44 50  1  0  0  0  0
 45 50  1  0  0  0  0
 46 51  1  0  0  0  0
 47 53  1  0  0  0  0
 48 69  1  0  0  0  0
 49 53  1  0  0  0  0
 49 69  1  0  0  0  0
 51 73  1  0  0  0  0
 52 68  1  0  0  0  0
 53 67  1  0  0  0  0
 55 63  1  0  0  0  0
 56 64  1  0  0  0  0
 57 64  1  0  0  0  0
 58 64  1  0  0  0  0
 59 76  1  0  0  0  0
 60 61  1  0  0  0  0
 61 84  1  0  0  0  0
 62 64  1  0  0  0  0
 62 74  1  0  0  0  0
 63 76  1  0  0  0  0
 65 67  1  0  0  0  0
 72 75  1  0  0  0  0
M  CHG  1  76   1
M  ISO  4  38 100  61 101  75 100  84 101
M  END
> <Batch ID>
0167

> <Smiles>
CNC(C)C(=O)NC(C(=O)N1Cc2cc([101O:1][101CH2:1]Cc3c(C4CC4)cc(C(=O)N[100NH:0][100C:0](=O)N4CCCC(n5nc(-c6ccc(Oc7ccc(F)cc7F)cc6)c(C(N)=O)c5N)C4)nc3C)ccc2CC1C(=O)NC1CCCc2ccccc21)C(C)(C)C

> <Shape>
0.262

> <Color>
0.102

> <Negative vol penalty>
0.000

$$$$

  -OEChem-04052322273D

 88 97  0     1  0  0  0  0  0999 V2000
  -22.3173  -10.2710   17.6863 C   0  0  0  0  0  0  0  0  0  0  0  0
  -23.1141  -11.2594   17.1175 C   0  0  0  0  0  0  0  0  0  0  0  0
  -19.8145  -25.5528   20.9518 C   0  0  0  0  0  0  0  0  0  0  0  0
  -21.5241  -24.0751   21.8067 C   0  0  0  0  0  0  0  0  0  0  0  0
  -21.9250  -10.3753   19.0201 C   0  0  0  0  0  0  0  0  0  0  0  0
  -23.5182  -12.3533   17.8820 C   0  0  0  0  0  0  0  0  0  0  0  0
  -28.9991  -16.8994   18.6630 C   0  0  0  0  0  0  0  0  0  0  0  0
  -19.1394  -24.4588   20.4106 C   0  0  0  0  0  0  0  0  0  0  0  0
  -20.8490  -22.9810   21.2655 C   0  0  0  0  0  0  0  0  0  0  0  0
  -29.2649  -18.2669   18.7161 C   0  0  0  0  0  0  0  0  0  0  0  0
  -19.4040  -22.4637   17.6951 C   0  0  0  0  0  0  0  0  0  0  0  0
  -18.9232  -22.5802   16.3909 C   0  0  0  0  0  0  0  0  0  0  0  0
  -29.2091  -26.1587   19.6269 C   0  0  0  0  0  0  0  0  0  0  0  0
  -28.5921  -18.3016   21.0324 C   0  0  0  0  0  0  0  0  0  0  0  0
  -31.8652  -26.6192   18.9088 C   0  0  0  0  0  0  0  0  0  0  0  0
  -16.6727  -22.2086   17.1875 C   0  0  0  0  0  0  0  0  0  0  0  0
  -21.0069  -25.3610   21.6498 C   0  0  0  0  0  0  0  0  0  0  0  0
  -21.5393  -27.0420   23.4933 C   0  0  0  0  0  0  0  0  0  0  0  0
  -22.3324  -11.4661   19.8041 C   0  0  0  0  0  0  0  0  0  0  0  0
  -28.5165  -16.2236   19.7930 C   0  0  0  0  0  0  0  0  0  0  0  0
  -23.1298  -12.4730   19.2272 C   0  0  0  0  0  0  0  0  0  0  0  0
  -29.7743  -25.4600   18.5601 C   0  0  0  0  0  0  0  0  0  0  0  0
  -28.3233  -16.9249   20.9918 C   0  0  0  0  0  0  0  0  0  0  0  0
  -29.9719  -27.0877   20.3346 C   0  0  0  0  0  0  0  0  0  0  0  0
  -31.1023  -25.6902   18.2011 C   0  0  0  0  0  0  0  0  0  0  0  0
  -31.2999  -27.3179   19.9755 C   0  0  0  0  0  0  0  0  0  0  0  0
  -19.6567  -23.1729   20.5675 C   0  0  0  0  0  0  0  0  0  0  0  0
  -29.0587  -18.9689   19.9001 C   0  0  0  0  0  0  0  0  0  0  0  0
  -18.5192  -22.2196   18.7455 C   0  0  0  0  0  0  0  0  0  0  0  0
  -17.5576  -22.4527   16.1371 C   0  0  0  0  0  0  0  0  0  0  0  0
  -17.1536  -22.0921   18.4916 C   0  0  0  0  0  0  0  0  0  0  0  0
  -21.7050  -26.4908   22.2086 C   0  0  0  0  0  0  0  0  0  0  0  0
  -22.4259  -28.0901   23.5343 C   0  0  0  0  0  0  0  0  0  0  0  0
  -20.6623  -26.6422   24.5548 C   0  0  0  0  0  0  0  0  0  0  0  0
  -25.8586  -14.6236   20.4849 C   0  0  0  0  0  0  0  0  0  0  0  0
  -27.4403  -13.9576   23.2375 C   0  0  0  0  0  0  0  0  0  0  0  0
  -29.8655  -14.8383   25.4712 C   0  0  0  0  0  0  0  0  0  0  0  0
  -27.5111  -29.2464   20.5923 C   0  0  0  0  0  0  0  0  0  0  0  0
  -21.8440  -11.5594   21.2279 C   0  0  0  0  0  0  0  0  0  0  0  0
  -28.2601  -14.7430   19.7269 C   0  0  0  0  0  0  0  0  0  0  0  0
  -27.8260  -16.2421   22.2387 C   0  0  0  0  0  0  0  0  0  0  0  0
  -22.6250  -12.5605   22.0754 C   0  0  0  0  0  0  0  0  0  0  0  0
  -24.5890  -31.2779   20.6970 C   0  0  0  0  0  0  0  0  0  0  0  0
  -27.9409  -24.9347   16.6480 C   0  0  0  0  0  0  0  0  0  0  0  0
  -22.8054  -13.8734   21.3199 C   0  0  0  0  0  0  0  0  0  0  0  0
  -23.5036  -30.3311   21.2122 C   0  0  0  0  0  0  0  0  0  0  0  0
  -26.9628  -23.8072   17.0296 C   0  0  0  0  0  0  0  0  0  0  0  0
  -25.5748  -30.5596   19.7782 C   0  0  0  0  0  0  0  0  0  0  0  0
  -25.1018  -28.4007   20.8688 C   0  0  0  0  0  0  0  0  0  0  0  0
  -28.8884  -24.4067   17.7696 C   0  0  2  0  0  0  0  0  0  0  0  0
  -23.6090  -13.6623   20.0310 C   0  0  1  0  0  0  0  0  0  0  0  0
  -27.2829  -14.2577   20.7932 C   0  0  1  0  0  0  0  0  0  0  0  0
  -24.1161  -29.0667   21.8441 C   0  0  2  0  0  0  0  0  0  0  0  0
  -27.5945  -23.8416   18.4371 C   0  0  2  0  0  0  0  0  0  0  0  0
  -31.7261  -24.9517   17.0630 C   0  0  0  0  0  0  0  0  0  0  0  0
  -32.1359  -28.3083   20.7177 C   0  0  0  0  0  0  0  0  0  0  0  0
  -29.5212  -27.1042   22.8161 C   0  0  0  0  0  0  0  0  0  0  0  0
  -30.8989  -14.1198   27.6422 C   0  0  0  0  0  0  0  0  0  0  0  0
  -25.0125  -15.0275   24.7445 C   0  0  0  0  0  0  0  0  0  0  0  0
  -26.4387  -15.1751   26.7969 C   0  0  0  0  0  0  0  0  0  0  0  0
  -26.0222  -12.9608   25.7263 C   0  0  0  0  0  0  0  0  0  0  0  0
  -32.5250  -14.4847   24.2218 C   0  0  0  0  0  0  0  0  0  0  0  0
  -28.4345  -22.5054   20.3515 C   0  0  0  0  0  0  0  0  0  0  0  0
  -28.5331  -21.0805   20.8596 C   0  0  0  0  0  0  0  0  0  1  0  0
  -29.3449  -27.8245   21.4723 C   0  0  2  0  0  0  0  0  0  0  0  0
  -27.5569  -14.6179   24.5901 C   0  0  1  0  0  0  0  0  0  0  0  0
  -30.9729  -14.0322   26.1257 C   0  0  2  0  0  0  0  0  0  0  0  0
  -26.2651  -14.4589   25.4406 C   0  0  0  0  0  0  0  0  0  0  0  0
  -22.6246  -27.1356   21.4856 N   0  0  0  0  0  0  0  0  0  0  0  0
  -23.0445  -28.1028   22.3188 N   0  0  0  0  0  0  0  0  0  0  0  0
  -27.5837  -14.7946   22.1219 N   0  0  0  0  0  0  0  0  0  0  0  0
  -26.1206  -29.3707   20.4376 N   0  0  0  0  0  0  0  0  0  0  0  0
  -22.7289  -28.9930   24.4910 N   0  0  0  0  0  0  0  0  0  0  0  0
  -19.8169  -25.5441   24.3452 N   0  0  0  0  0  0  0  0  0  0  0  0
  -25.0194  -13.5367   20.3297 N   0  0  0  0  0  0  0  0  0  0  0  0
  -28.7543  -14.0639   25.2128 N   0  0  0  0  0  0  0  0  0  0  0  0
  -27.9442  -28.0923   21.2335 N   0  0  0  0  0  0  0  0  0  0  0  0
  -27.7737  -22.5070   19.0220 N   0  3  0  0  0  0  0  0  0  0  0  0
  -32.3064  -14.5352   25.6904 N   0  3  0  0  0  0  0  0  0  0  0  0
  -20.6176  -27.2511   25.6506 O   0  0  0  0  0  0  0  0  0  0  0  0
  -25.5439  -15.8046   20.3959 O   0  0  0  0  0  0  0  0  0  0  0  0
  -27.2367  -12.7426   23.1732 O   0  0  0  0  0  0  0  0  0  0  0  0
  -29.9739  -16.0361   25.2181 O   0  0  0  0  0  0  0  0  0  0  0  0
  -28.3074  -30.1031   20.1936 O   0  0  0  0  0  0  0  0  0  0  0  0
  -18.9981  -22.1050   20.0398 O   0  0  0  0  0  0  0  0  0  0  0  0
  -29.3167  -20.3039   19.9545 O   0  0  0  0  0  0  0  0  0  1  0  0
  -17.0958  -22.5661   14.8849 F   0  0  0  0  0  0  0  0  0  0  0  0
  -16.2986  -21.8588   19.4968 F   0  0  0  0  0  0  0  0  0  0  0  0
  1  2  1  0  0  0  0
  1  5  2  0  0  0  0
  2  6  2  0  0  0  0
  3  8  2  0  0  0  0
  3 17  1  0  0  0  0
  4  9  1  0  0  0  0
  4 17  2  0  0  0  0
  5 19  1  0  0  0  0
  6 21  1  0  0  0  0
  7 10  2  0  0  0  0
  7 20  1  0  0  0  0
  8 27  1  0  0  0  0
  9 27  2  0  0  0  0
 10 28  1  0  0  0  0
 11 12  2  0  0  0  0
 11 29  1  0  0  0  0
 12 30  1  0  0  0  0
 13 22  1  0  0  0  0
 13 24  2  0  0  0  0
 14 23  1  0  0  0  0
 14 28  2  0  0  0  0
 15 25  1  0  0  0  0
 15 26  2  0  0  0  0
 16 30  2  0  0  0  0
 16 31  1  0  0  0  0
 17 32  1  0  0  0  0
 18 32  1  0  0  0  0
 18 33  2  0  0  0  0
 18 34  1  0  0  0  0
 19 21  2  0  0  0  0
 19 39  1  0  0  0  0
 20 23  2  0  0  0  0
 20 40  1  0  0  0  0
 21 51  1  0  0  0  0
 22 25  2  0  0  0  0
 22 50  1  0  0  0  0
 23 41  1  0  0  0  0
 24 26  1  0  0  0  0
 24 65  1  0  0  0  0
 25 55  1  0  0  0  0
 26 56  1  0  0  0  0
 27 85  1  0  0  0  0
 28 86  1  0  0  0  0
 29 31  2  0  0  0  0
 29 85  1  0  0  0  0
 30 87  1  0  0  0  0
 31 88  1  0  0  0  0
 32 69  2  0  0  0  0
 33 70  1  0  0  0  0
 33 73  1  0  0  0  0
 34 74  1  0  0  0  0
 34 80  2  0  0  0  0
 35 52  1  0  0  0  0
 35 75  1  0  0  0  0
 35 81  2  0  0  0  0
 36 66  1  0  0  0  0
 36 71  1  0  0  0  0
 36 82  2  0  0  0  0
 37 67  1  0  0  0  0
 37 76  1  0  0  0  0
 37 83  2  0  0  0  0
 38 72  1  0  0  0  0
 38 77  1  0  0  0  0
 38 84  2  0  0  0  0
 39 42  1  0  0  0  0
 40 52  1  0  0  0  0
 41 71  1  0  0  0  0
 42 45  1  0  0  0  0
 43 46  1  0  0  0  0
 43 48  1  0  0  0  0
 44 47  1  0  0  0  0
 44 50  1  0  0  0  0
 45 51  1  0  0  0  0
 46 53  1  0  0  0  0
 47 54  1  0  0  0  0
 48 72  1  0  0  0  0
 49 53  1  0  0  0  0
 49 72  1  0  0  0  0
 50 54  1  0  0  0  0
 51 75  1  0  0  0  0
 52 71  1  0  0  0  0
 53 70  1  0  0  0  0
 54 78  1  0  0  0  0
 57 65  1  0  0  0  0
 58 67  1  0  0  0  0
 59 68  1  0  0  0  0
 60 68  1  0  0  0  0
 61 68  1  0  0  0  0
 62 79  1  0  0  0  0
 63 64  1  0  0  0  0
 63 78  1  0  0  0  0
 64 86  1  0  0  0  0
 65 77  1  0  0  0  0
 66 68  1  0  0  0  0
 66 76  1  0  0  0  0
 67 79  1  0  0  0  0
 69 70  1  0  0  0  0
M  CHG  2  78   1  79   1
M  ISO  4  38 100  64 101  77 100  86 101
M  END
> <Batch ID>
0167

> <Smiles>
CNC(C)C(=O)NC(C(=O)N1Cc2cc([101O:1][101CH2:1]CNC3CCC3c3cc(C(C)[100NH:0][100C:0](=O)N4CCCC(n5nc(-c6ccc(Oc7ccc(F)cc7F)cc6)c(C(N)=O)c5N)C4)c(C)cc3C)ccc2CC1C(=O)NC1CCCc2ccccc21)C(C)(C)C

> <Shape>
0.229

> <Color>
0.051

> <Negative vol penalty>
0.000

$$$$

  -OEChem-04052322273D

 83 92  0     1  0  0  0  0  0999 V2000
  -29.0478  -25.3401   10.6047 C   0  0  0  0  0  0  0  0  0  0  0  0
  -28.8969  -24.3138   11.5316 C   0  0  0  0  0  0  0  0  0  0  0  0
  -23.3399   -9.7703   19.9705 C   0  0  0  0  0  0  0  0  0  0  0  0
  -23.7967   -9.9961   22.3321 C   0  0  0  0  0  0  0  0  0  0  0  0
  -30.0185  -26.3209   10.8040 C   0  0  0  0  0  0  0  0  0  0  0  0
  -29.7175  -24.2670   12.6581 C   0  0  0  0  0  0  0  0  0  0  0  0
  -28.1766  -22.3224   18.2572 C   0  0  0  0  0  0  0  0  0  0  0  0
  -22.6460   -8.5860   20.2179 C   0  0  0  0  0  0  0  0  0  0  0  0
  -23.1027   -8.8117   22.5796 C   0  0  0  0  0  0  0  0  0  0  0  0
  -28.3715  -21.1089   18.9153 C   0  0  0  0  0  0  0  0  0  0  0  0
  -21.1429   -6.0370   23.8751 C   0  0  0  0  0  0  0  0  0  0  0  0
  -20.2468   -6.0207   24.9438 C   0  0  0  0  0  0  0  0  0  0  0  0
  -30.3484  -22.0044   19.9685 C   0  0  0  0  0  0  0  0  0  0  0  0
  -28.3372  -17.2093   22.1221 C   0  0  0  0  0  0  0  0  0  0  0  0
  -18.9843   -7.8038   23.9123 C   0  0  0  0  0  0  0  0  0  0  0  0
  -23.9153  -10.4754   21.0276 C   0  0  0  0  0  0  0  0  0  0  0  0
  -24.1063  -13.0041   20.7498 C   0  0  0  0  0  0  0  0  0  0  0  0
  -30.8449  -26.2915   11.9384 C   0  0  0  0  0  0  0  0  0  0  0  0
  -29.0738  -23.3842   18.4417 C   0  0  0  0  0  0  0  0  0  0  0  0
  -30.7011  -25.2476   12.8721 C   0  0  0  0  0  0  0  0  0  0  0  0
  -30.1612  -23.2312   19.3135 C   0  0  0  0  0  0  0  0  0  0  0  0
  -28.6806  -16.0908   22.8733 C   0  0  0  0  0  0  0  0  0  0  0  0
  -29.0675  -17.5249   20.9817 C   0  0  0  0  0  0  0  0  0  0  0  0
  -22.5273   -8.1066   21.5224 C   0  0  0  0  0  0  0  0  0  0  0  0
  -29.4591  -20.9487   19.7688 C   0  0  0  0  0  0  0  0  0  0  0  0
  -20.9599   -6.9367   22.8250 C   0  0  0  0  0  0  0  0  0  0  0  0
  -19.1675   -6.9041   24.9624 C   0  0  0  0  0  0  0  0  0  0  0  0
  -19.8806   -7.8201   22.8436 C   0  0  0  0  0  0  0  0  0  0  0  0
  -24.6328  -11.6986   20.7726 C   0  0  0  0  0  0  0  0  0  0  0  0
  -29.7541  -15.3266   22.4452 C   0  0  0  0  0  0  0  0  0  0  0  0
  -30.1238  -16.6965   20.6384 C   0  0  0  0  0  0  0  0  0  0  0  0
  -25.1855  -13.8046   20.4654 C   0  0  0  0  0  0  0  0  0  0  0  0
  -22.7620  -13.4529   20.9664 C   0  0  0  0  0  0  0  0  0  0  0  0
  -31.0277  -25.0250   16.5459 C   0  0  0  0  0  0  0  0  0  0  0  0
  -31.4694  -26.8237   19.2090 C   0  0  0  0  0  0  0  0  0  0  0  0
  -31.3682  -27.0324   22.6139 C   0  0  0  0  0  0  0  0  0  0  0  0
  -31.1722  -12.5376   21.2120 C   0  0  0  0  0  0  0  0  0  0  0  0
  -31.9118  -27.3472   12.0868 C   0  0  0  0  0  0  0  0  0  0  0  0
  -28.8346  -24.6957   17.7451 C   0  0  0  0  0  0  0  0  0  0  0  0
  -31.1420  -24.3470   19.5615 C   0  0  0  0  0  0  0  0  0  0  0  0
  -32.4896  -27.4351   13.4970 C   0  0  0  0  0  0  0  0  0  0  0  0
  -29.3804  -13.7902   18.2203 C   0  0  0  0  0  0  0  0  0  0  0  0
  -32.8173  -26.0429   14.0274 C   0  0  0  0  0  0  0  0  0  0  0  0
  -27.9307  -13.4151   18.5117 C   0  0  0  0  0  0  0  0  0  0  0  0
  -31.4532  -14.2117   24.1594 C   0  0  0  0  0  0  0  0  0  0  0  0
  -30.3557  -12.8478   18.9166 C   0  0  0  0  0  0  0  0  0  0  0  0
  -32.1229  -12.9987   23.5244 C   0  0  0  0  0  0  0  0  0  0  0  0
  -28.6979  -12.3923   20.6934 C   0  0  0  0  0  0  0  0  0  0  0  0
  -31.5555  -25.1764   14.1192 C   0  0  1  0  0  0  0  0  0  0  0  0
  -30.2597  -14.0241   23.1959 C   0  0  2  0  0  0  0  0  0  0  0  0
  -30.0985  -25.5392   17.6090 C   0  0  1  0  0  0  0  0  0  0  0  0
  -27.6876  -13.3403   20.0266 C   0  0  2  0  0  0  0  0  0  0  0  0
  -27.9102  -15.7391   24.0974 C   0  0  0  0  0  0  0  0  0  0  0  0
  -30.9445  -16.9863   19.4244 C   0  0  0  0  0  0  0  0  0  0  0  0
  -31.8216  -28.6189   24.5046 C   0  0  0  0  0  0  0  0  0  0  0  0
  -34.4677  -26.3769   18.8616 C   0  0  0  0  0  0  0  0  0  0  0  0
  -34.7846  -27.1407   21.2248 C   0  0  0  0  0  0  0  0  0  0  0  0
  -33.8297  -28.7012   19.5290 C   0  0  0  0  0  0  0  0  0  0  0  0
  -28.5519  -26.9416   23.5189 C   0  0  0  0  0  0  0  0  0  0  0  0
  -28.7012  -18.7297   20.1660 C   0  0  0  0  0  0  0  0  0  1  0  0
  -32.4201  -26.7831   20.3810 C   0  0  1  0  0  0  0  0  0  0  0  0
  -30.7761  -28.0777   23.5418 C   0  0  2  0  0  0  0  0  0  0  0  0
  -33.8583  -27.2286   19.9931 C   0  0  0  0  0  0  0  0  0  0  0  0
  -25.9445  -11.6672   20.5224 N   0  0  0  0  0  0  0  0  0  0  0  0
  -30.4872  -15.6016   21.3431 N   0  0  0  0  0  0  0  0  0  0  0  0
  -26.2512  -12.9628   20.3397 N   0  0  0  0  0  0  0  0  0  0  0  0
  -30.8688  -25.6080   18.8524 N   0  0  0  0  0  0  0  0  0  0  0  0
  -30.0848  -12.7364   20.3523 N   0  0  0  0  0  0  0  0  0  0  0  0
  -31.1045  -13.0595   22.4832 N   0  0  0  0  0  0  0  0  0  0  0  0
  -25.3173  -15.1395   20.3130 N   0  0  0  0  0  0  0  0  0  0  0  0
  -21.7758  -12.4975   21.2477 N   0  0  0  0  0  0  0  0  0  0  0  0
  -30.7792  -25.5361   15.2864 N   0  0  0  0  0  0  0  0  0  0  0  0
  -31.8077  -27.5892   21.4315 N   0  0  0  0  0  0  0  0  0  0  0  0
  -29.6619  -27.4912   24.3391 N   0  3  0  0  0  0  0  0  0  0  0  0
  -22.4415  -14.6636   20.8960 O   0  0  0  0  0  0  0  0  0  0  0  0
  -31.9060  -24.2251   16.8465 O   0  0  0  0  0  0  0  0  0  0  0  0
  -31.2617  -27.8960   18.6357 O   0  0  0  0  0  0  0  0  0  0  0  0
  -31.4375  -25.8415   22.9099 O   0  0  0  0  0  0  0  0  0  0  0  0
  -32.1890  -11.9332   20.8448 O   0  0  0  0  0  0  0  0  0  0  0  0
  -21.8500   -6.9511   21.7643 O   0  0  0  0  0  0  0  0  0  0  0  0
  -29.6520  -19.7650   20.4119 O   0  0  0  0  0  0  0  0  0  1  0  0
  -18.3061   -6.8873   25.9881 F   0  0  0  0  0  0  0  0  0  0  0  0
  -19.6988   -8.6859   21.8371 F   0  0  0  0  0  0  0  0  0  0  0  0
  1  2  1  0  0  0  0
  1  5  2  0  0  0  0
  2  6  2  0  0  0  0
  3  8  2  0  0  0  0
  3 16  1  0  0  0  0
  4  9  1  0  0  0  0
  4 16  2  0  0  0  0
  5 18  1  0  0  0  0
  6 20  1  0  0  0  0
  7 10  2  0  0  0  0
  7 19  1  0  0  0  0
  8 24  1  0  0  0  0
  9 24  2  0  0  0  0
 10 25  1  0  0  0  0
 11 12  2  0  0  0  0
 11 26  1  0  0  0  0
 12 27  1  0  0  0  0
 13 21  1  0  0  0  0
 13 25  2  0  0  0  0
 14 22  2  0  0  0  0
 14 23  1  0  0  0  0
 15 27  2  0  0  0  0
 15 28  1  0  0  0  0
 16 29  1  0  0  0  0
 17 29  1  0  0  0  0
 17 32  2  0  0  0  0
 17 33  1  0  0  0  0
 18 20  2  0  0  0  0
 18 38  1  0  0  0  0
 19 21  2  0  0  0  0
 19 39  1  0  0  0  0
 20 49  1  0  0  0  0
 21 40  1  0  0  0  0
 22 30  1  0  0  0  0
 22 53  1  0  0  0  0
 23 31  2  0  0  0  0
 23 60  1  0  0  0  0
 24 80  1  0  0  0  0
 25 81  1  0  0  0  0
 26 28  2  0  0  0  0
 26 80  1  0  0  0  0
 27 82  1  0  0  0  0
 28 83  1  0  0  0  0
 29 64  2  0  0  0  0
 30 50  1  0  0  0  0
 30 65  2  0  0  0  0
 31 54  1  0  0  0  0
 31 65  1  0  0  0  0
 32 66  1  0  0  0  0
 32 70  1  0  0  0  0
 33 71  1  0  0  0  0
 33 75  2  0  0  0  0
 34 51  1  0  0  0  0
 34 72  1  0  0  0  0
 34 76  2  0  0  0  0
 35 61  1  0  0  0  0
 35 67  1  0  0  0  0
 35 77  2  0  0  0  0
 36 62  1  0  0  0  0
 36 73  1  0  0  0  0
 36 78  2  0  0  0  0
 37 68  1  0  0  0  0
 37 69  1  0  0  0  0
 37 79  2  0  0  0  0
 38 41  1  0  0  0  0
 39 51  1  0  0  0  0
 40 67  1  0  0  0  0
 41 43  1  0  0  0  0
 42 44  1  0  0  0  0
 42 46  1  0  0  0  0
 43 49  1  0  0  0  0
 44 52  1  0  0  0  0
 45 47  1  0  0  0  0
 45 50  1  0  0  0  0
 46 68  1  0  0  0  0
 47 69  1  0  0  0  0
 48 52  1  0  0  0  0
 48 68  1  0  0  0  0
 49 72  1  0  0  0  0
 50 69  1  0  0  0  0
 51 67  1  0  0  0  0
 52 66  1  0  0  0  0
 55 62  1  0  0  0  0
 56 63  1  0  0  0  0
 57 63  1  0  0  0  0
 58 63  1  0  0  0  0
 59 74  1  0  0  0  0
 60 81  1  0  0  0  0
 61 63  1  0  0  0  0
 61 73  1  0  0  0  0
 62 74  1  0  0  0  0
 64 66  1  0  0  0  0
M  CHG  1  74   1
M  ISO  4  37 100  60 101  69 100  81 101
M  END
> <Batch ID>
0167

> <Smiles>
CNC(C)C(=O)NC(C(=O)N1Cc2cc([101O:1][101CH2:1]c3cc(C)c(C4CC[100N:0]4[100C:0](=O)N4CCCC(n5nc(-c6ccc(Oc7ccc(F)cc7F)cc6)c(C(N)=O)c5N)C4)nc3C)ccc2CC1C(=O)NC1CCCc2ccccc21)C(C)(C)C

> <Shape>
0.253

> <Color>
0.185

> <Negative vol penalty>
0.000

$$$$

  -OEChem-04052322273D

 90100  0     1  0  0  0  0  0999 V2000
  -19.6370  -23.3654   21.7322 C   0  0  0  0  0  0  0  0  0  0  0  0
  -20.8155  -23.8233   21.1518 C   0  0  0  0  0  0  0  0  0  0  0  0
  -22.6551  -10.6141   21.2659 C   0  0  0  0  0  0  0  0  0  0  0  0
  -24.4709   -9.2989   22.1663 C   0  0  0  0  0  0  0  0  0  0  0  0
  -18.8169  -24.2492   22.4325 C   0  0  0  0  0  0  0  0  0  0  0  0
  -21.1740  -25.1656   21.2704 C   0  0  0  0  0  0  0  0  0  0  0  0
  -26.0617  -25.7742   22.4474 C   0  0  0  0  0  0  0  0  0  0  0  0
  -21.9142   -9.4504   21.0602 C   0  0  0  0  0  0  0  0  0  0  0  0
  -23.7299   -8.1352   21.9606 C   0  0  0  0  0  0  0  0  0  0  0  0
  -26.9882  -25.6253   21.4163 C   0  0  0  0  0  0  0  0  0  0  0  0
  -22.1742   -4.8495   22.0066 C   0  0  0  0  0  0  0  0  0  0  0  0
  -22.1448   -3.9082   23.0355 C   0  0  0  0  0  0  0  0  0  0  0  0
  -28.9963  -23.2876   16.9339 C   0  0  0  0  0  0  0  0  0  0  0  0
  -27.1235  -28.0240   21.1995 C   0  0  0  0  0  0  0  0  0  0  0  0
  -21.1661   -5.5518   24.5113 C   0  0  0  0  0  0  0  0  0  0  0  0
  -23.9335  -10.5384   21.8189 C   0  0  0  0  0  0  0  0  0  0  0  0
  -29.2887  -24.6236   17.1397 C   0  0  0  0  0  0  0  0  0  0  0  0
  -24.7128  -12.5474   23.1842 C   0  0  0  0  0  0  0  0  0  0  0  0
  -19.1704  -25.6010   22.5679 C   0  0  0  0  0  0  0  0  0  0  0  0
  -25.6502  -27.0511   22.8556 C   0  0  0  0  0  0  0  0  0  0  0  0
  -20.3573  -26.0686   21.9719 C   0  0  0  0  0  0  0  0  0  0  0  0
  -26.1936  -28.1865   22.2377 C   0  0  0  0  0  0  0  0  0  0  0  0
  -28.3135  -25.6098   17.2322 C   0  0  0  0  0  0  0  0  0  0  0  0
  -26.9770  -25.2606   17.1064 C   0  0  0  0  0  0  0  0  0  0  0  0
  -26.6490  -23.9166   16.8970 C   0  0  0  0  0  0  0  0  0  0  0  0
  -27.6521  -22.9372   16.8127 C   0  0  0  0  0  0  0  0  0  0  0  0
  -22.4515   -8.2109   21.4076 C   0  0  0  0  0  0  0  0  0  0  0  0
  -27.5171  -26.7502   20.7902 C   0  0  0  0  0  0  0  0  0  0  0  0
  -21.6996   -6.1420   22.2300 C   0  0  0  0  0  0  0  0  0  0  0  0
  -21.6407   -4.2593   24.2878 C   0  0  0  0  0  0  0  0  0  0  0  0
  -21.1955   -6.4931   23.4823 C   0  0  0  0  0  0  0  0  0  0  0  0
  -24.6997  -11.7401   22.0310 C   0  0  0  0  0  0  0  0  0  0  0  0
  -25.5938  -13.5579   22.8859 C   0  0  0  0  0  0  0  0  0  0  0  0
  -30.5912  -25.2506   17.2898 C   0  0  0  0  0  0  0  0  0  0  0  0
  -23.9930  -12.3972   24.4151 C   0  0  0  0  0  0  0  0  0  0  0  0
  -22.8767  -28.6030   22.9110 C   0  0  0  0  0  0  0  0  0  0  0  0
  -24.6113  -30.8517   24.4786 C   0  0  0  0  0  0  0  0  0  0  0  0
  -27.6685  -32.2266   25.1187 C   0  0  0  0  0  0  0  0  0  0  0  0
  -27.6274  -17.3247   19.6483 C   0  0  0  0  0  0  0  0  0  0  0  0
  -18.2284  -26.5285   23.2938 C   0  0  0  0  0  0  0  0  0  0  0  0
  -24.6701  -27.1954   23.9873 C   0  0  0  0  0  0  0  0  0  0  0  0
  -25.7999  -29.5799   22.6524 C   0  0  0  0  0  0  0  0  0  0  0  0
  -30.4180  -26.7409   17.4580 C   0  0  0  0  0  0  0  0  0  0  0  0
  -18.8676  -27.8561   23.6926 C   0  0  0  0  0  0  0  0  0  0  0  0
  -28.8434  -14.0847   19.0542 C   0  0  0  0  0  0  0  0  0  0  0  0
  -19.6508  -28.4441   22.5231 C   0  0  0  0  0  0  0  0  0  0  0  0
  -27.8685  -13.2397   19.8738 C   0  0  0  0  0  0  0  0  0  0  0  0
  -27.4741  -19.1821   16.6625 C   0  0  0  0  0  0  0  0  0  0  0  0
  -28.2179  -20.5821   18.6258 C   0  0  0  0  0  0  0  0  0  0  0  0
  -28.1364  -15.2263   18.3213 C   0  0  0  0  0  0  0  0  0  0  0  0
  -28.2023  -17.9781   17.2673 C   0  0  0  0  0  0  0  0  0  0  0  0
  -28.9523  -19.3623   19.1753 C   0  0  0  0  0  0  0  0  0  0  0  0
  -26.3398  -15.2418   20.0215 C   0  0  0  0  0  0  0  0  0  0  0  0
  -28.8891  -26.9792   17.4594 C   0  0  2  0  0  0  0  0  0  0  0  0
  -20.7927  -27.5123   22.0998 C   0  0  1  0  0  0  0  0  0  0  0  0
  -23.9355  -28.5324   23.9748 C   0  0  1  0  0  0  0  0  0  0  0  0
  -27.0298  -14.1219   20.8157 C   0  0  1  0  0  0  0  0  0  0  0  0
  -28.1112  -20.5028   17.1007 C   0  0  0  0  0  0  0  0  0  0  0  0
  -25.9029  -26.2959   17.1568 C   0  0  0  0  0  0  0  0  0  0  0  0
  -25.2113  -23.5194   16.7557 C   0  0  0  0  0  0  0  0  0  0  0  0
  -28.7644  -34.0777   26.4109 C   0  0  0  0  0  0  0  0  0  0  0  0
  -23.6161  -32.8736   22.4215 C   0  0  0  0  0  0  0  0  0  0  0  0
  -25.4375  -34.4220   23.1652 C   0  0  0  0  0  0  0  0  0  0  0  0
  -23.6664  -33.7183   24.7748 C   0  0  0  0  0  0  0  0  0  0  0  0
  -29.2899  -30.3204   26.6988 C   0  0  0  0  0  0  0  0  0  0  0  0
  -28.4467  -27.6116   18.7778 C   0  0  0  0  0  0  0  0  0  1  0  0
  -25.4295  -32.0511   24.0650 C   0  0  1  0  0  0  0  0  0  0  0  0
  -28.3453  -32.6159   26.4206 C   0  0  2  0  0  0  0  0  0  0  0  0
  -24.5435  -33.2401   23.5973 C   0  0  0  0  0  0  0  0  0  0  0  0
  -25.5080  -12.1983   21.0716 N   0  0  0  0  0  0  0  0  0  0  0  0
  -26.0373  -13.3046   21.6213 N   0  0  0  0  0  0  0  0  0  0  0  0
  -24.8336  -29.6687   23.7595 N   0  0  0  0  0  0  0  0  0  0  0  0
  -27.3178  -16.0147   19.2529 N   0  0  0  0  0  0  0  0  0  0  0  0
  -28.3220  -18.1207   18.7254 N   0  0  0  0  0  0  0  0  0  0  0  0
  -26.0247  -14.6297   23.5846 N   0  0  0  0  0  0  0  0  0  0  0  0
  -23.1296  -11.3021   24.5548 N   0  0  0  0  0  0  0  0  0  0  0  0
  -27.3226  -21.6095   16.6055 N   0  0  0  0  0  0  0  0  0  0  0  0
  -21.9051  -27.6263   23.0185 N   0  0  0  0  0  0  0  0  0  0  0  0
  -26.2984  -32.3617   25.1950 N   0  0  0  0  0  0  0  0  0  0  0  0
  -29.5590  -31.7804   26.6434 N   0  3  0  0  0  0  0  0  0  0  0  0
  -31.6485  -24.6473   17.2675 O   0  0  0  0  0  0  0  0  0  0  0  0
  -24.0996  -13.2190   25.3568 O   0  0  0  0  0  0  0  0  0  0  0  0
  -22.9360  -29.4797   22.0568 O   0  0  0  0  0  0  0  0  0  0  0  0
  -23.8097  -30.9585   25.4101 O   0  0  0  0  0  0  0  0  0  0  0  0
  -28.2931  -31.8447   24.1315 O   0  0  0  0  0  0  0  0  0  0  0  0
  -27.3021  -17.7580   20.7607 O   0  0  0  0  0  0  0  0  0  0  0  0
  -21.7287   -7.0752   21.2073 O   0  0  0  0  0  0  0  0  0  0  0  0
  -28.4295  -26.6063   19.7738 O   0  0  0  0  0  0  0  0  0  1  0  0
  -21.6112   -3.3548   25.2753 F   0  0  0  0  0  0  0  0  0  0  0  0
  -20.7370   -7.7329   23.7026 F   0  0  0  0  0  0  0  0  0  0  0  0
  1  2  1  0  0  0  0
  1  5  2  0  0  0  0
  2  6  2  0  0  0  0
  3  8  2  0  0  0  0
  3 16  1  0  0  0  0
  4  9  1  0  0  0  0
  4 16  2  0  0  0  0
  5 19  1  0  0  0  0
  6 21  1  0  0  0  0
  7 10  2  0  0  0  0
  7 20  1  0  0  0  0
  8 27  1  0  0  0  0
  9 27  2  0  0  0  0
 10 28  1  0  0  0  0
 11 12  2  0  0  0  0
 11 29  1  0  0  0  0
 12 30  1  0  0  0  0
 13 17  1  0  0  0  0
 13 26  2  0  0  0  0
 14 22  1  0  0  0  0
 14 28  2  0  0  0  0
 15 30  2  0  0  0  0
 15 31  1  0  0  0  0
 16 32  1  0  0  0  0
 17 23  2  0  0  0  0
 17 34  1  0  0  0  0
 18 32  1  0  0  0  0
 18 33  2  0  0  0  0
 18 35  1  0  0  0  0
 19 21  2  0  0  0  0
 19 40  1  0  0  0  0
 20 22  2  0  0  0  0
 20 41  1  0  0  0  0
 21 55  1  0  0  0  0
 22 42  1  0  0  0  0
 23 24  1  0  0  0  0
 23 54  1  0  0  0  0
 24 25  2  0  0  0  0
 24 59  1  0  0  0  0
 25 26  1  0  0  0  0
 25 60  1  0  0  0  0
 26 77  1  0  0  0  0
 27 87  1  0  0  0  0
 28 88  1  0  0  0  0
 29 31  2  0  0  0  0
 29 87  1  0  0  0  0
 30 89  1  0  0  0  0
 31 90  1  0  0  0  0
 32 70  2  0  0  0  0
 33 71  1  0  0  0  0
 33 75  1  0  0  0  0
 34 43  1  0  0  0  0
 34 81  2  0  0  0  0
 35 76  1  0  0  0  0
 35 82  2  0  0  0  0
 36 56  1  0  0  0  0
 36 78  1  0  0  0  0
 36 83  2  0  0  0  0
 37 67  1  0  0  0  0
 37 72  1  0  0  0  0
 37 84  2  0  0  0  0
 38 68  1  0  0  0  0
 38 79  1  0  0  0  0
 38 85  2  0  0  0  0
 39 73  1  0  0  0  0
 39 74  1  0  0  0  0
 39 86  2  0  0  0  0
 40 44  1  0  0  0  0
 41 56  1  0  0  0  0
 42 72  1  0  0  0  0
 43 54  1  0  0  0  0
 44 46  1  0  0  0  0
 45 47  1  0  0  0  0
 45 50  1  0  0  0  0
 46 55  1  0  0  0  0
 47 57  1  0  0  0  0
 48 51  1  0  0  0  0
 48 58  1  0  0  0  0
 49 52  1  0  0  0  0
 49 58  1  0  0  0  0
 50 73  1  0  0  0  0
 51 74  1  0  0  0  0
 52 74  1  0  0  0  0
 53 57  1  0  0  0  0
 53 73  1  0  0  0  0
 54 66  1  0  0  0  0
 55 78  1  0  0  0  0
 56 72  1  0  0  0  0
 57 71  1  0  0  0  0
 58 77  1  0  0  0  0
 61 68  1  0  0  0  0
 62 69  1  0  0  0  0
 63 69  1  0  0  0  0
 64 69  1  0  0  0  0
 65 80  1  0  0  0  0
 66 88  1  0  0  0  0
 67 69  1  0  0  0  0
 67 79  1  0  0  0  0
 68 80  1  0  0  0  0
 70 71  1  0  0  0  0
M  CHG  1  80   1
M  ISO  4  39 100  66 101  74 100  88 101
M  END
> <Batch ID>
0167

> <Smiles>
CNC(C)C(=O)NC(C(=O)N1Cc2cc([101O:1][101CH2:1]C3CC(=O)c4cc(NC5CC[100N:0]([100C:0](=O)N6CCCC(n7nc(-c8ccc(Oc9ccc(F)cc9F)cc8)c(C(N)=O)c7N)C6)CC5)c(C)c(C)c43)ccc2CC1C(=O)NC1CCCc2ccccc21)C(C)(C)C

> <Shape>
0.306

> <Color>
0.096

> <Negative vol penalty>
0.000

$$$$

  -OEChem-04052322273D

 87 97  0     1  0  0  0  0  0999 V2000
  -20.5500  -33.2792   25.1827 C   0  0  0  0  0  0  0  0  0  0  0  0
  -21.8153  -32.8465   24.7990 C   0  0  0  0  0  0  0  0  0  0  0  0
  -28.1965  -13.4225   18.7008 C   0  0  0  0  0  0  0  0  0  0  0  0
  -28.7625  -12.6786   20.9286 C   0  0  0  0  0  0  0  0  0  0  0  0
  -19.4689  -32.4003   25.1322 C   0  0  0  0  0  0  0  0  0  0  0  0
  -22.0004  -31.5342   24.3655 C   0  0  0  0  0  0  0  0  0  0  0  0
  -25.8929  -29.5960   20.0530 C   0  0  0  0  0  0  0  0  0  0  0  0
  -29.1664  -12.5720   18.1703 C   0  0  0  0  0  0  0  0  0  0  0  0
  -29.7324  -11.8280   20.3981 C   0  0  0  0  0  0  0  0  0  0  0  0
  -27.1612  -29.0215   20.1240 C   0  0  0  0  0  0  0  0  0  0  0  0
  -29.8357   -8.8102   18.8808 C   0  0  0  0  0  0  0  0  0  0  0  0
  -29.8957   -7.5083   19.3778 C   0  0  0  0  0  0  0  0  0  0  0  0
  -29.3766  -24.2074   16.0337 C   0  0  0  0  0  0  0  0  0  0  0  0
  -29.5031  -24.8389   18.3805 C   0  0  0  0  0  0  0  0  0  0  0  0
  -26.1704  -26.8283   19.9582 C   0  0  0  0  0  0  0  0  0  0  0  0
  -32.1684   -7.8900   20.1034 C   0  0  0  0  0  0  0  0  0  0  0  0
  -27.9946  -13.4759   20.0800 C   0  0  0  0  0  0  0  0  0  0  0  0
  -25.6396  -14.0541   20.8723 C   0  0  0  0  0  0  0  0  0  0  0  0
  -19.6390  -31.0793   24.6887 C   0  0  0  0  0  0  0  0  0  0  0  0
  -24.7510  -28.7891   19.9449 C   0  0  0  0  0  0  0  0  0  0  0  0
  -20.9208  -30.6363   24.3103 C   0  0  0  0  0  0  0  0  0  0  0  0
  -29.0565  -23.9698   17.3723 C   0  0  0  0  0  0  0  0  0  0  0  0
  -30.1541  -25.3124   15.7315 C   0  0  0  0  0  0  0  0  0  0  0  0
  -24.8889  -27.3951   19.8835 C   0  0  0  0  0  0  0  0  0  0  0  0
  -30.5998  -26.1786   16.7368 C   0  0  0  0  0  0  0  0  0  0  0  0
  -30.2766  -25.9580   18.0651 C   0  0  0  0  0  0  0  0  0  0  0  0
  -29.9344  -11.7747   19.0190 C   0  0  0  0  0  0  0  0  0  0  0  0
  -27.2999  -27.6373   20.0795 C   0  0  0  0  0  0  0  0  0  0  0  0
  -30.9421   -9.6520   18.9950 C   0  0  0  0  0  0  0  0  0  0  0  0
  -31.0620   -7.0482   19.9892 C   0  0  0  0  0  0  0  0  0  0  0  0
  -32.1084   -9.1919   19.6063 C   0  0  0  0  0  0  0  0  0  0  0  0
  -26.9932  -14.3547   20.6286 C   0  0  0  0  0  0  0  0  0  0  0  0
  -25.1187  -15.2135   21.3927 C   0  0  0  0  0  0  0  0  0  0  0  0
  -24.9178  -12.8357   20.6483 C   0  0  0  0  0  0  0  0  0  0  0  0
  -22.1742  -28.2967   21.7397 C   0  0  0  0  0  0  0  0  0  0  0  0
  -21.2319  -26.5025   19.2069 C   0  0  0  0  0  0  0  0  0  0  0  0
  -22.1132  -24.6832   16.4573 C   0  0  0  0  0  0  0  0  0  0  0  0
  -26.4953  -20.9030   20.9676 C   0  0  0  0  0  0  0  0  0  0  0  0
  -18.4495  -30.1521   24.6962 C   0  0  0  0  0  0  0  0  0  0  0  0
  -23.3920  -29.4254   19.8425 C   0  0  0  0  0  0  0  0  0  0  0  0
  -30.5898  -25.7920   14.3830 C   0  0  0  0  0  0  0  0  0  0  0  0
  -31.3760  -27.3169   16.1538 C   0  0  0  0  0  0  0  0  0  0  0  0
  -23.6962  -26.4855   19.7474 C   0  0  0  0  0  0  0  0  0  0  0  0
  -18.6587  -28.8862   23.8693 C   0  0  0  0  0  0  0  0  0  0  0  0
  -31.7190  -26.7616   14.7632 C   0  0  0  0  0  0  0  0  0  0  0  0
  -26.3497  -19.0858   23.9045 C   0  0  0  0  0  0  0  0  0  0  0  0
  -20.0186  -28.2670   24.1758 C   0  0  0  0  0  0  0  0  0  0  0  0
  -26.3636  -17.6319   23.4332 C   0  0  0  0  0  0  0  0  0  0  0  0
  -28.9743  -21.7787   18.6427 C   0  0  0  0  0  0  0  0  0  0  0  0
  -26.8765  -23.1733   18.3901 C   0  0  0  0  0  0  0  0  0  0  0  0
  -27.3213  -19.9326   23.0906 C   0  0  0  0  0  0  0  0  0  0  0  0
  -28.1045  -20.5815   19.0369 C   0  0  0  0  0  0  0  0  0  0  0  0
  -26.0576  -21.9410   18.7632 C   0  0  0  0  0  0  0  0  0  0  0  0
  -27.0827  -18.4415   21.1315 C   0  0  0  0  0  0  0  0  0  0  0  0
  -28.2111  -22.7651   17.7405 C   0  0  0  0  0  0  0  0  0  0  0  0
  -21.1570  -29.2275   23.8108 C   0  0  1  0  0  0  0  0  0  0  0  0
  -22.2607  -28.4873   20.2517 C   0  0  1  0  0  0  0  0  0  0  0  0
  -26.1103  -17.5392   21.9181 C   0  0  1  0  0  0  0  0  0  0  0  0
  -21.1252  -23.3049   14.6075 C   0  0  0  0  0  0  0  0  0  0  0  0
  -20.7883  -24.2018   21.1614 C   0  0  0  0  0  0  0  0  0  0  0  0
  -20.7351  -22.6414   19.2042 C   0  0  0  0  0  0  0  0  0  0  0  0
  -19.0183  -24.4393   19.4107 C   0  0  0  0  0  0  0  0  0  0  0  0
  -23.1767  -26.5009   14.3779 C   0  0  0  0  0  0  0  0  0  0  0  0
  -30.7303  -26.8827   19.1406 C   0  0  0  0  0  0  0  0  0  0  0  0
  -29.6261  -27.8295   19.6233 C   0  0  0  0  0  0  0  0  0  1  0  0
  -21.3930  -25.0572   18.8016 C   0  0  1  0  0  0  0  0  0  0  0  0
  -21.5863  -24.6900   15.0336 C   0  0  2  0  0  0  0  0  0  0  0  0
  -20.5062  -24.1017   19.6490 C   0  0  0  0  0  0  0  0  0  0  0  0
  -27.3121  -15.6070   20.9663 N   0  0  0  0  0  0  0  0  0  0  0  0
  -26.1515  -16.1036   21.4274 N   0  0  0  0  0  0  0  0  0  0  0  0
  -22.3882  -27.1551   19.6574 N   0  0  0  0  0  0  0  0  0  0  0  0
  -27.0505  -19.8150   21.6579 N   0  0  0  0  0  0  0  0  0  0  0  0
  -26.8294  -21.0330   19.6112 N   0  0  0  0  0  0  0  0  0  0  0  0
  -23.8825  -15.5483   21.8194 N   0  0  0  0  0  0  0  0  0  0  0  0
  -25.6060  -11.7412   20.1072 N   0  0  0  0  0  0  0  0  0  0  0  0
  -21.3792  -29.2276   22.3808 N   0  0  0  0  0  0  0  0  0  0  0  0
  -21.1286  -25.0034   17.3678 N   0  0  0  0  0  0  0  0  0  0  0  0
  -22.6478  -25.1428   14.0906 N   0  3  0  0  0  0  0  0  0  0  0  0
  -23.6948  -12.7261   20.9047 O   0  0  0  0  0  0  0  0  0  0  0  0
  -22.7824  -27.3727   22.2668 O   0  0  0  0  0  0  0  0  0  0  0  0
  -20.1226  -27.0349   19.1200 O   0  0  0  0  0  0  0  0  0  0  0  0
  -23.2806  -24.4165   16.7342 O   0  0  0  0  0  0  0  0  0  0  0  0
  -25.7445  -21.7105   21.5292 O   0  0  0  0  0  0  0  0  0  0  0  0
  -30.8807  -10.9445   18.5017 O   0  0  0  0  0  0  0  0  0  0  0  0
  -28.5454  -27.0700   20.1498 O   0  0  0  0  0  0  0  0  0  1  0  0
  -31.1189   -5.7985   20.4678 F   0  0  0  0  0  0  0  0  0  0  0  0
  -33.1741   -9.9963   19.7199 F   0  0  0  0  0  0  0  0  0  0  0  0
  1  2  1  0  0  0  0
  1  5  2  0  0  0  0
  2  6  2  0  0  0  0
  3  8  2  0  0  0  0
  3 17  1  0  0  0  0
  4  9  1  0  0  0  0
  4 17  2  0  0  0  0
  5 19  1  0  0  0  0
  6 21  1  0  0  0  0
  7 10  2  0  0  0  0
  7 20  1  0  0  0  0
  8 27  1  0  0  0  0
  9 27  2  0  0  0  0
 10 28  1  0  0  0  0
 11 12  2  0  0  0  0
 11 29  1  0  0  0  0
 12 30  1  0  0  0  0
 13 22  1  0  0  0  0
 13 23  2  0  0  0  0
 14 22  2  0  0  0  0
 14 26  1  0  0  0  0
 15 24  1  0  0  0  0
 15 28  2  0  0  0  0
 16 30  2  0  0  0  0
 16 31  1  0  0  0  0
 17 32  1  0  0  0  0
 18 32  1  0  0  0  0
 18 33  2  0  0  0  0
 18 34  1  0  0  0  0
 19 21  2  0  0  0  0
 19 39  1  0  0  0  0
 20 24  2  0  0  0  0
 20 40  1  0  0  0  0
 21 56  1  0  0  0  0
 22 55  1  0  0  0  0
 23 25  1  0  0  0  0
 23 41  1  0  0  0  0
 24 43  1  0  0  0  0
 25 26  2  0  0  0  0
 25 42  1  0  0  0  0
 26 64  1  0  0  0  0
 27 84  1  0  0  0  0
 28 85  1  0  0  0  0
 29 31  2  0  0  0  0
 29 84  1  0  0  0  0
 30 86  1  0  0  0  0
 31 87  1  0  0  0  0
 32 69  2  0  0  0  0
 33 70  1  0  0  0  0
 33 74  1  0  0  0  0
 34 75  1  0  0  0  0
 34 79  2  0  0  0  0
 35 57  1  0  0  0  0
 35 76  1  0  0  0  0
 35 80  2  0  0  0  0
 36 66  1  0  0  0  0
 36 71  1  0  0  0  0
 36 81  2  0  0  0  0
 37 67  1  0  0  0  0
 37 77  1  0  0  0  0
 37 82  2  0  0  0  0
 38 72  1  0  0  0  0
 38 73  1  0  0  0  0
 38 83  2  0  0  0  0
 39 44  1  0  0  0  0
 40 57  1  0  0  0  0
 41 45  1  0  0  0  0
 42 45  1  0  0  0  0
 43 71  1  0  0  0  0
 44 47  1  0  0  0  0
 46 48  1  0  0  0  0
 46 51  1  0  0  0  0
 47 56  1  0  0  0  0
 48 58  1  0  0  0  0
 49 52  1  0  0  0  0
 49 55  1  0  0  0  0
 50 53  1  0  0  0  0
 50 55  1  0  0  0  0
 51 72  1  0  0  0  0
 52 73  1  0  0  0  0
 53 73  1  0  0  0  0
 54 58  1  0  0  0  0
 54 72  1  0  0  0  0
 56 76  1  0  0  0  0
 57 71  1  0  0  0  0
 58 70  1  0  0  0  0
 59 67  1  0  0  0  0
 60 68  1  0  0  0  0
 61 68  1  0  0  0  0
 62 68  1  0  0  0  0
 63 78  1  0  0  0  0
 64 65  1  0  0  0  0
 65 85  1  0  0  0  0
 66 68  1  0  0  0  0
 66 77  1  0  0  0  0
 67 78  1  0  0  0  0
 69 70  1  0  0  0  0
M  CHG  1  78   1
M  ISO  4  38 100  65 101  73 100  85 101
M  END
> <Batch ID>
0167

> <Smiles>
CNC(C)C(=O)NC(C(=O)N1Cc2cc([101O:1][101CH2:1]Cc3cc(C4CC[100N:0]([100C:0](=O)N5CCCC(n6nc(-c7ccc(Oc8ccc(F)cc8F)cc7)c(C(N)=O)c6N)C5)CC4)cc4c3CCC4)ccc2CC1C(=O)NC1CCCc2ccccc21)C(C)(C)C

> <Shape>
0.223

> <Color>
0.076

> <Negative vol penalty>
0.000

$$$$

  -OEChem-04052322273D

 87 96  0     1  0  0  0  0  0999 V2000
  -19.8036  -27.8981   29.2909 C   0  0  0  0  0  0  0  0  0  0  0  0
  -20.3933  -26.7354   28.8052 C   0  0  0  0  0  0  0  0  0  0  0  0
  -23.3775   -9.8266   21.9460 C   0  0  0  0  0  0  0  0  0  0  0  0
  -24.0881  -11.1218   23.8576 C   0  0  0  0  0  0  0  0  0  0  0  0
  -19.6526  -29.0035   28.4548 C   0  0  0  0  0  0  0  0  0  0  0  0
  -20.8313  -26.6771   27.4827 C   0  0  0  0  0  0  0  0  0  0  0  0
  -25.7202  -23.6657   25.3530 C   0  0  0  0  0  0  0  0  0  0  0  0
  -22.7356   -8.9253   22.7952 C   0  0  0  0  0  0  0  0  0  0  0  0
  -23.4461  -10.2206   24.7069 C   0  0  0  0  0  0  0  0  0  0  0  0
  -25.8603  -22.4265   24.7296 C   0  0  0  0  0  0  0  0  0  0  0  0
  -20.2915   -9.5912   25.7427 C   0  0  0  0  0  0  0  0  0  0  0  0
  -19.5182  -10.1168   26.7777 C   0  0  0  0  0  0  0  0  0  0  0  0
  -27.8302  -18.8630   18.7925 C   0  0  0  0  0  0  0  0  0  0  0  0
  -25.8175  -23.5118   22.5757 C   0  0  0  0  0  0  0  0  0  0  0  0
  -26.5555  -17.4192   16.7743 C   0  0  0  0  0  0  0  0  0  0  0  0
  -20.9140   -8.9872   28.3941 C   0  0  0  0  0  0  0  0  0  0  0  0
  -24.0539  -10.9248   22.4771 C   0  0  0  0  0  0  0  0  0  0  0  0
  -24.1695  -13.0149   21.0191 C   0  0  0  0  0  0  0  0  0  0  0  0
  -20.0977  -28.9621   27.1241 C   0  0  0  0  0  0  0  0  0  0  0  0
  -25.6165  -24.8382   24.5907 C   0  0  0  0  0  0  0  0  0  0  0  0
  -20.6848  -27.7826   26.6275 C   0  0  0  0  0  0  0  0  0  0  0  0
  -26.4549  -18.9961   18.6020 C   0  0  0  0  0  0  0  0  0  0  0  0
  -25.6787  -24.7649   23.1918 C   0  0  0  0  0  0  0  0  0  0  0  0
  -28.5683  -18.0081   17.9739 C   0  0  0  0  0  0  0  0  0  0  0  0
  -25.8175  -18.2742   17.5929 C   0  0  0  0  0  0  0  0  0  0  0  0
  -27.9309  -17.2862   16.9648 C   0  0  0  0  0  0  0  0  0  0  0  0
  -22.7699   -9.1223   24.1757 C   0  0  0  0  0  0  0  0  0  0  0  0
  -25.9061  -22.3491   23.3407 C   0  0  0  0  0  0  0  0  0  0  0  0
  -21.3761   -8.7636   26.0333 C   0  0  0  0  0  0  0  0  0  0  0  0
  -19.8294   -9.8148   28.1034 C   0  0  0  0  0  0  0  0  0  0  0  0
  -21.6873   -8.4616   27.3591 C   0  0  0  0  0  0  0  0  0  0  0  0
  -24.7177  -11.8558   21.6004 C   0  0  0  0  0  0  0  0  0  0  0  0
  -25.1968  -13.5462   20.2783 C   0  0  0  0  0  0  0  0  0  0  0  0
  -22.8497  -13.5623   21.1382 C   0  0  0  0  0  0  0  0  0  0  0  0
  -23.3958  -27.0815   24.2168 C   0  0  0  0  0  0  0  0  0  0  0  0
  -25.6988  -28.5145   22.4377 C   0  0  0  0  0  0  0  0  0  0  0  0
  -28.5301  -28.1913   20.5598 C   0  0  0  0  0  0  0  0  0  0  0  0
  -30.5618  -14.9790   19.7227 C   0  0  0  0  0  0  0  0  0  0  0  0
  -19.8700  -30.1659   26.2446 C   0  0  0  0  0  0  0  0  0  0  0  0
  -25.4926  -26.1698   25.2790 C   0  0  0  0  0  0  0  0  0  0  0  0
  -25.5921  -25.9961   22.3287 C   0  0  0  0  0  0  0  0  0  0  0  0
  -20.7004  -30.1504   24.9638 C   0  0  0  0  0  0  0  0  0  0  0  0
  -29.6908  -11.6009   19.0110 C   0  0  0  0  0  0  0  0  0  0  0  0
  -20.6237  -28.7819   24.2944 C   0  0  0  0  0  0  0  0  0  0  0  0
  -28.2773  -11.4603   19.5787 C   0  0  0  0  0  0  0  0  0  0  0  0
  -26.4242  -21.0996   20.2218 C   0  0  0  0  0  0  0  0  0  0  0  0
  -30.5604  -12.5068   19.8800 C   0  0  0  0  0  0  0  0  0  0  0  0
  -28.5735  -13.6970   20.7224 C   0  0  0  0  0  0  0  0  0  0  0  0
  -25.6602  -19.9428   19.5162 C   0  0  2  0  0  0  0  0  0  0  0  0
  -21.1951  -27.6891   25.2059 C   0  0  1  0  0  0  0  0  0  0  0  0
  -24.8792  -27.2472   24.3900 C   0  0  1  0  0  0  0  0  0  0  0  0
  -27.6425  -12.8374   19.8502 C   0  0  2  0  0  0  0  0  0  0  0  0
  -25.4632  -20.9424   21.4188 C   0  0  1  0  0  0  0  0  0  1  0  0
  -25.2379  -19.4615   20.9602 C   0  0  0  0  0  0  0  0  0  0  0  0
  -24.3460  -18.4019   17.3735 C   0  0  0  0  0  0  0  0  0  0  0  0
  -28.7002  -16.3657   16.0753 C   0  0  0  0  0  0  0  0  0  0  0  0
  -23.7787  -19.0171   21.0516 C   0  0  0  0  0  0  0  0  0  0  0  0
  -26.1603  -18.4345   21.6257 C   0  0  0  0  0  0  0  0  0  0  0  0
  -30.1590  -29.5355   19.2045 C   0  0  0  0  0  0  0  0  0  0  0  0
  -23.6607  -28.6979   20.1744 C   0  0  0  0  0  0  0  0  0  0  0  0
  -25.5542  -29.1474   18.5993 C   0  0  0  0  0  0  0  0  0  0  0  0
  -25.0828  -30.7345   20.4653 C   0  0  0  0  0  0  0  0  0  0  0  0
  -30.7906  -27.4373   22.3150 C   0  0  0  0  0  0  0  0  0  0  0  0
  -30.0397  -17.8827   18.1961 C   0  0  0  0  0  0  0  0  0  0  0  0
  -30.4095  -17.4540   19.6202 C   0  0  0  0  0  0  0  0  0  0  0  0
  -26.1028  -28.4799   20.9835 C   0  0  1  0  0  0  0  0  0  0  0  0
  -29.8412  -28.9563   20.5742 C   0  0  2  0  0  0  0  0  0  0  0  0
  -25.0998  -29.2414   20.0716 C   0  0  0  0  0  0  0  0  0  0  0  0
  -25.9940  -11.6616   21.2582 N   0  0  0  0  0  0  0  0  0  0  0  0
  -26.2564  -12.7057   20.4538 N   0  0  0  0  0  0  0  0  0  0  0  0
  -25.4653  -27.2742   23.0484 N   0  0  0  0  0  0  0  0  0  0  0  0
  -29.9021  -13.7972   20.0982 N   0  0  0  0  0  0  0  0  0  0  0  0
  -25.2880  -14.6457   19.5003 N   0  0  0  0  0  0  0  0  0  0  0  0
  -21.9172  -12.8897   21.9396 N   0  0  0  0  0  0  0  0  0  0  0  0
  -22.6419  -27.7182   25.1841 N   0  0  0  0  0  0  0  0  0  0  0  0
  -27.4682  -28.9906   20.9270 N   0  0  0  0  0  0  0  0  0  0  0  0
  -29.8650  -16.1578   19.9584 N   0  0  0  0  0  0  0  0  0  0  0  0
  -30.9605  -28.0582   20.9761 N   0  3  0  0  0  0  0  0  0  0  0  0
  -22.5026  -14.6078   20.5382 O   0  0  0  0  0  0  0  0  0  0  0  0
  -22.9671  -26.4259   23.2744 O   0  0  0  0  0  0  0  0  0  0  0  0
  -25.6012  -29.6015   23.0125 O   0  0  0  0  0  0  0  0  0  0  0  0
  -28.4548  -27.0043   20.2499 O   0  0  0  0  0  0  0  0  0  0  0  0
  -31.6862  -14.9830   19.2100 O   0  0  0  0  0  0  0  0  0  0  0  0
  -22.1433   -8.2432   25.0046 O   0  0  0  0  0  0  0  0  0  0  0  0
  -26.0422  -21.1408   22.7298 O   0  0  0  0  0  0  0  0  0  1  0  0
  -19.0876  -10.3208   29.0974 F   0  0  0  0  0  0  0  0  0  0  0  0
  -22.7287   -7.6680   27.6446 F   0  0  0  0  0  0  0  0  0  0  0  0
  1  2  1  0  0  0  0
  1  5  2  0  0  0  0
  2  6  2  0  0  0  0
  3  8  2  0  0  0  0
  3 17  1  0  0  0  0
  4  9  1  0  0  0  0
  4 17  2  0  0  0  0
  5 19  1  0  0  0  0
  6 21  1  0  0  0  0
  7 10  2  0  0  0  0
  7 20  1  0  0  0  0
  8 27  1  0  0  0  0
  9 27  2  0  0  0  0
 10 28  1  0  0  0  0
 11 12  2  0  0  0  0
 11 29  1  0  0  0  0
 12 30  1  0  0  0  0
 13 22  1  0  0  0  0
 13 24  2  0  0  0  0
 14 23  1  0  0  0  0
 14 28  2  0  0  0  0
 15 25  1  0  0  0  0
 15 26  2  0  0  0  0
 16 30  2  0  0  0  0
 16 31  1  0  0  0  0
 17 32  1  0  0  0  0
 18 32  1  0  0  0  0
 18 33  2  0  0  0  0
 18 34  1  0  0  0  0
 19 21  2  0  0  0  0
 19 39  1  0  0  0  0
 20 23  2  0  0  0  0
 20 40  1  0  0  0  0
 21 50  1  0  0  0  0
 22 25  2  0  0  0  0
 22 49  1  0  0  0  0
 23 41  1  0  0  0  0
 24 26  1  0  0  0  0
 24 64  1  0  0  0  0
 25 55  1  0  0  0  0
 26 56  1  0  0  0  0
 27 84  1  0  0  0  0
 28 85  1  0  0  0  0
 29 31  2  0  0  0  0
 29 84  1  0  0  0  0
 30 86  1  0  0  0  0
 31 87  1  0  0  0  0
 32 69  2  0  0  0  0
 33 70  1  0  0  0  0
 33 73  1  0  0  0  0
 34 74  1  0  0  0  0
 34 79  2  0  0  0  0
 35 51  1  0  0  0  0
 35 75  1  0  0  0  0
 35 80  2  0  0  0  0
 36 66  1  0  0  0  0
 36 71  1  0  0  0  0
 36 81  2  0  0  0  0
 37 67  1  0  0  0  0
 37 76  1  0  0  0  0
 37 82  2  0  0  0  0
 38 72  1  0  0  0  0
 38 77  1  0  0  0  0
 38 83  2  0  0  0  0
 39 42  1  0  0  0  0
 40 51  1  0  0  0  0
 41 71  1  0  0  0  0
 42 44  1  0  0  0  0
 43 45  1  0  0  0  0
 43 47  1  0  0  0  0
 44 50  1  0  0  0  0
 45 52  1  0  0  0  0
 46 49  1  0  0  0  0
 46 53  1  0  0  0  0
 47 72  1  0  0  0  0
 48 52  1  0  0  0  0
 48 72  1  0  0  0  0
 49 54  1  0  0  0  0
 50 75  1  0  0  0  0
 51 71  1  0  0  0  0
 52 70  1  0  0  0  0
 53 54  1  0  0  0  0
 53 85  1  0  0  0  0
 54 57  1  0  0  0  0
 54 58  1  0  0  0  0
 59 67  1  0  0  0  0
 60 68  1  0  0  0  0
 61 68  1  0  0  0  0
 62 68  1  0  0  0  0
 63 78  1  0  0  0  0
 64 65  1  0  0  0  0
 65 77  1  0  0  0  0
 66 68  1  0  0  0  0
 66 76  1  0  0  0  0
 67 78  1  0  0  0  0
 69 70  1  0  0  0  0
M  CHG  1  78   1
M  ISO  4  38 100  53 101  77 100  85 101
M  END
> <Batch ID>
0167

> <Smiles>
CNC(C)C(=O)NC(C(=O)N1Cc2cc([101O:1][101CH:1]3CC(c4cc(CC[100NH:0][100C:0](=O)N5CCCC(n6nc(-c7ccc(Oc8ccc(F)cc8F)cc7)c(C(N)=O)c6N)C5)c(C)cc4C)C3(C)C)ccc2CC1C(=O)NC1CCCc2ccccc21)C(C)(C)C

> <Shape>
0.187

> <Color>
0.129

> <Negative vol penalty>
0.000

$$$$

  -OEChem-04052322273D

 89 99  0     1  0  0  0  0  0999 V2000
  -19.8157  -10.0166   21.7572 C   0  0  0  0  0  0  0  0  0  0  0  0
  -20.3643  -11.1388   22.3696 C   0  0  0  0  0  0  0  0  0  0  0  0
  -26.5337  -26.6350   21.4692 C   0  0  0  0  0  0  0  0  0  0  0  0
  -26.1791  -26.9880   19.1056 C   0  0  0  0  0  0  0  0  0  0  0  0
  -20.6465   -9.0933   21.1237 C   0  0  0  0  0  0  0  0  0  0  0  0
  -21.7443  -11.3379   22.3498 C   0  0  0  0  0  0  0  0  0  0  0  0
  -23.0025  -16.1114   21.2204 C   0  0  0  0  0  0  0  0  0  0  0  0
  -27.0973  -25.3881   21.1984 C   0  0  0  0  0  0  0  0  0  0  0  0
  -26.7427  -25.7412   18.8348 C   0  0  0  0  0  0  0  0  0  0  0  0
  -22.8878  -17.0578   22.2377 C   0  0  0  0  0  0  0  0  0  0  0  0
  -28.9584  -22.2669   21.1033 C   0  0  0  0  0  0  0  0  0  0  0  0
  -30.1362  -21.9290   21.7698 C   0  0  0  0  0  0  0  0  0  0  0  0
  -20.2659  -23.6831   24.3020 C   0  0  0  0  0  0  0  0  0  0  0  0
  -25.2638  -16.9152   22.6299 C   0  0  0  0  0  0  0  0  0  0  0  0
  -31.2416  -23.8378   20.7840 C   0  0  0  0  0  0  0  0  0  0  0  0
  -26.0745  -27.4349   20.4228 C   0  0  0  0  0  0  0  0  0  0  0  0
  -26.1609  -29.9585   20.7859 C   0  0  0  0  0  0  0  0  0  0  0  0
  -22.0365   -9.2862   21.0877 C   0  0  0  0  0  0  0  0  0  0  0  0
  -24.2490  -15.5508   20.9070 C   0  0  0  0  0  0  0  0  0  0  0  0
  -22.5947  -10.4157   21.7164 C   0  0  0  0  0  0  0  0  0  0  0  0
  -21.0965  -23.4349   23.2093 C   0  0  0  0  0  0  0  0  0  0  0  0
  -25.3920  -15.9638   21.6064 C   0  0  0  0  0  0  0  0  0  0  0  0
  -21.3919  -21.9490   25.5519 C   0  0  0  0  0  0  0  0  0  0  0  0
  -20.4136  -22.9402   25.4734 C   0  0  0  0  0  0  0  0  0  0  0  0
  -22.0748  -22.4438   23.2878 C   0  0  0  0  0  0  0  0  0  0  0  0
  -22.2226  -21.7008   24.4591 C   0  0  0  0  0  0  0  0  0  0  0  0
  -27.2018  -24.9412   19.8812 C   0  0  0  0  0  0  0  0  0  0  0  0
  -24.0181  -17.4577   22.9446 C   0  0  0  0  0  0  0  0  0  0  0  0
  -28.9222  -23.3902   20.2770 C   0  0  0  0  0  0  0  0  0  0  0  0
  -31.2778  -22.7144   21.6102 C   0  0  0  0  0  0  0  0  0  0  0  0
  -30.0638  -24.1756   20.1175 C   0  0  0  0  0  0  0  0  0  0  0  0
  -25.4917  -28.7228   20.7019 C   0  0  0  0  0  0  0  0  0  0  0  0
  -25.1703  -30.8668   21.0694 C   0  0  0  0  0  0  0  0  0  0  0  0
  -27.5533  -30.2585   20.6223 C   0  0  0  0  0  0  0  0  0  0  0  0
  -25.4670  -12.6154   20.9656 C   0  0  0  0  0  0  0  0  0  0  0  0
  -28.0107  -14.0633   19.5671 C   0  0  0  0  0  0  0  0  0  0  0  0
  -29.7754  -16.9344   19.0294 C   0  0  0  0  0  0  0  0  0  0  0  0
  -20.5524  -27.6572   20.5106 C   0  0  0  0  0  0  0  0  0  0  0  0
  -22.8983   -8.2365   20.4319 C   0  0  0  0  0  0  0  0  0  0  0  0
  -24.3601  -14.5508   19.7889 C   0  0  0  0  0  0  0  0  0  0  0  0
  -26.7565  -15.4074   21.2951 C   0  0  0  0  0  0  0  0  0  0  0  0
  -24.3169   -8.7137   20.1315 C   0  0  0  0  0  0  0  0  0  0  0  0
  -20.9658  -30.2175   23.3047 C   0  0  0  0  0  0  0  0  0  0  0  0
  -21.4756  -19.6527   26.7324 C   0  0  0  0  0  0  0  0  0  0  0  0
  -20.3546  -20.4211   27.3596 C   0  0  0  0  0  0  0  0  0  0  0  0
  -24.9054   -9.4333   21.3409 C   0  0  0  0  0  0  0  0  0  0  0  0
  -22.3339  -30.7769   22.9347 C   0  0  0  0  0  0  0  0  0  0  0  0
  -20.8111  -28.7996   22.7662 C   0  0  0  0  0  0  0  0  0  0  0  0
  -21.1175  -25.7606   22.1619 C   0  0  0  0  0  0  0  0  0  0  0  0
  -19.5315  -25.4116   20.3959 C   0  0  0  0  0  0  0  0  0  0  0  0
  -21.5315  -29.9065   20.6474 C   0  0  0  0  0  0  0  0  0  0  0  0
  -20.9156  -24.2528   21.9530 C   0  0  2  0  0  0  0  0  0  0  0  0
  -21.5476  -21.1529   26.8089 C   0  0  0  0  0  0  0  0  0  0  0  0
  -24.0847  -10.6793   21.6947 C   0  0  1  0  0  0  0  0  0  0  0  0
  -25.5979  -13.6660   19.8994 C   0  0  1  0  0  0  0  0  0  0  0  0
  -19.5133  -24.1942   21.3185 C   0  0  2  0  0  0  0  0  0  0  0  0
  -22.6166  -30.6767   21.4235 C   0  0  2  0  0  0  0  0  0  0  0  0
  -19.5111  -23.2288   26.6285 C   0  0  0  0  0  0  0  0  0  0  0  0
  -22.9612  -22.1768   22.1124 C   0  0  0  0  0  0  0  0  0  0  0  0
  -19.2361  -22.8976   20.5725 C   0  0  0  0  0  0  0  0  0  0  0  0
  -31.8308  -17.7967   17.8764 C   0  0  0  0  0  0  0  0  0  0  0  0
  -29.7475  -12.8576   21.7670 C   0  0  0  0  0  0  0  0  0  0  0  0
  -31.5477  -14.4802   21.1387 C   0  0  0  0  0  0  0  0  0  0  0  0
  -30.7616  -12.7892   19.4819 C   0  0  0  0  0  0  0  0  0  0  0  0
  -28.1913  -18.7527   17.3137 C   0  0  0  0  0  0  0  0  0  0  0  0
  -23.2725  -20.6376   24.5405 C   0  0  0  0  0  0  0  0  0  0  0  0
  -22.8731  -19.3531   23.8121 C   0  0  0  0  0  0  0  0  0  1  0  0
  -29.2639  -14.7401   20.0674 C   0  0  1  0  0  0  0  0  0  0  0  0
  -30.3347  -17.5502   17.7595 C   0  0  2  0  0  0  0  0  0  0  0  0
  -30.3043  -13.7260   20.6212 C   0  0  0  0  0  0  0  0  0  0  0  0
  -24.1777  -28.8324   20.9150 N   0  0  0  0  0  0  0  0  0  0  0  0
  -24.0132  -30.1478   21.1357 N   0  0  0  0  0  0  0  0  0  0  0  0
  -26.8125  -14.4278   20.1974 N   0  0  0  0  0  0  0  0  0  0  0  0
  -21.0424  -28.6968   21.3195 N   0  0  0  0  0  0  0  0  0  0  0  0
  -20.3789  -26.3933   21.0682 N   0  0  0  0  0  0  0  0  0  0  0  0
  -25.1850  -32.2023   21.2659 N   0  0  0  0  0  0  0  0  0  0  0  0
  -28.4340  -29.2070   20.3338 N   0  0  0  0  0  0  0  0  0  0  0  0
  -24.3942  -11.7630   20.7868 N   0  0  0  0  0  0  0  0  0  0  0  0
  -29.7551  -15.5573   18.9633 N   0  0  0  0  0  0  0  0  0  0  0  0
  -29.6648  -18.8509   17.4759 N   0  3  0  0  0  0  0  0  0  0  0  0
  -28.0057  -31.4221   20.7449 O   0  0  0  0  0  0  0  0  0  0  0  0
  -26.2801  -12.5797   21.8818 O   0  0  0  0  0  0  0  0  0  0  0  0
  -28.0909  -13.2468   18.6459 O   0  0  0  0  0  0  0  0  0  0  0  0
  -29.3980  -17.6077   19.9859 O   0  0  0  0  0  0  0  0  0  0  0  0
  -20.2818  -27.8525   19.3163 O   0  0  0  0  0  0  0  0  0  0  0  0
  -27.7519  -23.7247   19.6166 O   0  0  0  0  0  0  0  0  0  0  0  0
  -23.9081  -18.3873   23.9455 O   0  0  0  0  0  0  0  0  0  1  0  0
  -32.4083  -22.3907   22.2516 F   0  0  0  0  0  0  0  0  0  0  0  0
  -30.0348  -25.2566   19.3260 F   0  0  0  0  0  0  0  0  0  0  0  0
  1  2  1  0  0  0  0
  1  5  2  0  0  0  0
  2  6  2  0  0  0  0
  3  8  2  0  0  0  0
  3 16  1  0  0  0  0
  4  9  1  0  0  0  0
  4 16  2  0  0  0  0
  5 18  1  0  0  0  0
  6 20  1  0  0  0  0
  7 10  2  0  0  0  0
  7 19  1  0  0  0  0
  8 27  1  0  0  0  0
  9 27  2  0  0  0  0
 10 28  1  0  0  0  0
 11 12  2  0  0  0  0
 11 29  1  0  0  0  0
 12 30  1  0  0  0  0
 13 21  1  0  0  0  0
 13 24  2  0  0  0  0
 14 22  1  0  0  0  0
 14 28  2  0  0  0  0
 15 30  2  0  0  0  0
 15 31  1  0  0  0  0
 16 32  1  0  0  0  0
 17 32  1  0  0  0  0
 17 33  2  0  0  0  0
 17 34  1  0  0  0  0
 18 20  2  0  0  0  0
 18 39  1  0  0  0  0
 19 22  2  0  0  0  0
 19 40  1  0  0  0  0
 20 54  1  0  0  0  0
 21 25  2  0  0  0  0
 21 52  1  0  0  0  0
 22 41  1  0  0  0  0
 23 24  1  0  0  0  0
 23 26  2  0  0  0  0
 23 53  1  0  0  0  0
 24 58  1  0  0  0  0
 25 26  1  0  0  0  0
 25 59  1  0  0  0  0
 26 66  1  0  0  0  0
 27 86  1  0  0  0  0
 28 87  1  0  0  0  0
 29 31  2  0  0  0  0
 29 86  1  0  0  0  0
 30 88  1  0  0  0  0
 31 89  1  0  0  0  0
 32 71  2  0  0  0  0
 33 72  1  0  0  0  0
 33 76  1  0  0  0  0
 34 77  1  0  0  0  0
 34 81  2  0  0  0  0
 35 55  1  0  0  0  0
 35 78  1  0  0  0  0
 35 82  2  0  0  0  0
 36 68  1  0  0  0  0
 36 73  1  0  0  0  0
 36 83  2  0  0  0  0
 37 69  1  0  0  0  0
 37 79  1  0  0  0  0
 37 84  2  0  0  0  0
 38 74  1  0  0  0  0
 38 75  1  0  0  0  0
 38 85  2  0  0  0  0
 39 42  1  0  0  0  0
 40 55  1  0  0  0  0
 41 73  1  0  0  0  0
 42 46  1  0  0  0  0
 43 47  1  0  0  0  0
 43 48  1  0  0  0  0
 44 45  1  0  0  0  0
 44 53  1  0  0  0  0
 45 53  1  0  0  0  0
 46 54  1  0  0  0  0
 47 57  1  0  0  0  0
 48 74  1  0  0  0  0
 49 52  1  0  0  0  0
 49 75  1  0  0  0  0
 50 56  1  0  0  0  0
 50 75  1  0  0  0  0
 51 57  1  0  0  0  0
 51 74  1  0  0  0  0
 52 56  1  0  0  0  0
 54 78  1  0  0  0  0
 55 73  1  0  0  0  0
 56 60  1  0  0  0  0
 57 72  1  0  0  0  0
 61 69  1  0  0  0  0
 62 70  1  0  0  0  0
 63 70  1  0  0  0  0
 64 70  1  0  0  0  0
 65 80  1  0  0  0  0
 66 67  1  0  0  0  0
 67 87  1  0  0  0  0
 68 70  1  0  0  0  0
 68 79  1  0  0  0  0
 69 80  1  0  0  0  0
 71 72  1  0  0  0  0
M  CHG  1  80   1
M  ISO  4  38 100  67 101  75 100  87 101
M  END
> <Batch ID>
0167

> <Smiles>
CNC(C)C(=O)NC(C(=O)N1Cc2cc([101O:1][101CH2:1]Cc3c(C)c(C4C[100N:0]([100C:0](=O)N5CCCC(n6nc(-c7ccc(Oc8ccc(F)cc8F)cc7)c(C(N)=O)c6N)C5)CC4C)cc(C)c3C3CC3)ccc2CC1C(=O)NC1CCCc2ccccc21)C(C)(C)C

> <Shape>
0.268

> <Color>
0.043

> <Negative vol penalty>
0.000

$$$$

  -OEChem-04052322273D

 94105  0     1  0  0  0  0  0999 V2000
  -28.6974  -31.9961   26.6577 C   0  0  0  0  0  0  0  0  0  0  0  0
  -28.7215  -31.0189   25.6678 C   0  0  0  0  0  0  0  0  0  0  0  0
  -23.3642   -9.7636   19.9556 C   0  0  0  0  0  0  0  0  0  0  0  0
  -23.5889  -10.0805   22.3402 C   0  0  0  0  0  0  0  0  0  0  0  0
  -27.5096  -32.2732   27.3333 C   0  0  0  0  0  0  0  0  0  0  0  0
  -27.5580  -30.3175   25.3536 C   0  0  0  0  0  0  0  0  0  0  0  0
  -26.8431  -29.8785   20.3595 C   0  0  0  0  0  0  0  0  0  0  0  0
  -22.6229   -8.6034   20.1797 C   0  0  0  0  0  0  0  0  0  0  0  0
  -22.8476   -8.9204   22.5642 C   0  0  0  0  0  0  0  0  0  0  0  0
  -27.5963  -28.9145   19.6907 C   0  0  0  0  0  0  0  0  0  0  0  0
  -19.5957   -8.0010   22.5413 C   0  0  0  0  0  0  0  0  0  0  0  0
  -18.5970   -8.0497   23.5138 C   0  0  0  0  0  0  0  0  0  0  0  0
  -25.7010  -27.4224   19.7196 C   0  0  0  0  0  0  0  0  0  0  0  0
  -19.7066   -6.2893   24.7414 C   0  0  0  0  0  0  0  0  0  0  0  0
  -23.8472  -10.5021   21.0359 C   0  0  0  0  0  0  0  0  0  0  0  0
  -24.1210  -13.0129   20.6772 C   0  0  0  0  0  0  0  0  0  0  0  0
  -26.3288  -31.5815   27.0205 C   0  0  0  0  0  0  0  0  0  0  0  0
  -25.5144  -29.6172   20.7235 C   0  0  0  0  0  0  0  0  0  0  0  0
  -26.3537  -30.5847   26.0265 C   0  0  0  0  0  0  0  0  0  0  0  0
  -24.9323  -28.3858   20.3906 C   0  0  0  0  0  0  0  0  0  0  0  0
  -22.3646   -8.1819   21.4840 C   0  0  0  0  0  0  0  0  0  0  0  0
  -27.0262  -27.6852   19.3733 C   0  0  0  0  0  0  0  0  0  0  0  0
  -20.6499   -7.0965   22.6689 C   0  0  0  0  0  0  0  0  0  0  0  0
  -18.6524   -7.1938   24.6138 C   0  0  0  0  0  0  0  0  0  0  0  0
  -20.7053   -6.2407   23.7689 C   0  0  0  0  0  0  0  0  0  0  0  0
  -24.6135  -11.7003   20.8051 C   0  0  0  0  0  0  0  0  0  0  0  0
  -25.2406  -13.7811   20.4704 C   0  0  0  0  0  0  0  0  0  0  0  0
  -22.7721  -13.4947   20.7398 C   0  0  0  0  0  0  0  0  0  0  0  0
  -23.9366  -29.4391   23.4772 C   0  0  0  0  0  0  0  0  0  0  0  0
  -21.3589  -29.1314   21.5322 C   0  0  0  0  0  0  0  0  0  0  0  0
  -20.1246  -28.2456   18.4763 C   0  0  0  0  0  0  0  0  0  0  0  0
  -30.1373  -14.6391   17.9879 C   0  0  0  0  0  0  0  0  0  0  0  0
  -25.0800  -31.8829   27.8106 C   0  0  0  0  0  0  0  0  0  0  0  0
  -24.7071  -30.6776   21.4209 C   0  0  0  0  0  0  0  0  0  0  0  0
  -23.5035  -28.0634   20.7412 C   0  0  0  0  0  0  0  0  0  0  0  0
  -23.8044  -31.3562   27.1581 C   0  0  0  0  0  0  0  0  0  0  0  0
  -30.1404  -12.6731   20.9082 C   0  0  0  0  0  0  0  0  0  0  0  0
  -23.9974  -29.9159   26.6945 C   0  0  0  0  0  0  0  0  0  0  0  0
  -27.5742  -23.0070   19.1370 C   0  0  0  0  0  0  0  0  0  0  0  0
  -29.6954  -23.8673   20.2122 C   0  0  0  0  0  0  0  0  0  0  0  0
  -28.6701  -12.3237   21.1253 C   0  0  0  0  0  0  0  0  0  0  0  0
  -27.3225  -24.3874   18.5379 C   0  0  0  0  0  0  0  0  0  0  0  0
  -29.4375  -25.2455   19.6106 C   0  0  0  0  0  0  0  0  0  0  0  0
  -26.4419  -16.1580   13.2256 C   0  0  0  0  0  0  0  0  0  0  0  0
  -28.5919  -17.0675   15.6486 C   0  0  0  0  0  0  0  0  0  0  0  0
  -30.4877  -12.6575   19.4253 C   0  0  0  0  0  0  0  0  0  0  0  0
  -28.0324  -14.9575   16.5901 C   0  0  0  0  0  0  0  0  0  0  0  0
  -28.1640  -13.2669   18.8141 C   0  0  0  0  0  0  0  0  0  0  0  0
  -30.4423  -20.2275   18.1439 C   0  0  0  0  0  0  0  0  0  0  0  0
  -25.1065  -29.8196   25.6400 C   0  0  1  0  0  0  0  0  0  0  0  0
  -23.5230  -30.1120   22.1990 C   0  0  1  0  0  0  0  0  0  0  0  0
  -26.6230  -15.8165   14.6813 C   0  0  2  0  0  0  0  0  0  0  0  0
  -27.9962  -15.7133   15.2635 C   0  0  1  0  0  0  0  0  0  0  0  0
  -29.0713  -22.7527   19.3611 C   0  0  0  0  0  0  0  0  0  0  0  0
  -26.1302  -14.7687   13.7170 C   0  0  1  0  0  0  0  0  0  0  0  0
  -30.2943  -19.1523   17.0608 C   0  0  2  0  0  0  0  0  0  0  0  0
  -27.7630  -13.2535   20.3035 C   0  0  1  0  0  0  0  0  0  0  0  0
  -29.6964  -16.6960   16.6434 C   0  0  1  0  0  0  0  0  0  0  0  0
  -29.9133  -17.7865   17.6844 C   0  0  2  0  0  0  0  0  0  0  0  0
  -27.9474  -25.4926   19.3850 C   0  0  0  0  0  0  0  0  0  1  0  0
  -28.7873  -18.9437   19.5079 C   0  0  1  0  0  0  0  0  0  0  0  0
  -24.7190  -14.2970   13.7829 C   0  0  0  0  0  0  0  0  0  0  0  0
  -31.5955  -19.0773   16.2562 C   0  0  0  0  0  0  0  0  0  0  0  0
  -27.4351  -19.0263   20.2184 C   0  0  0  0  0  0  0  0  0  0  0  0
  -17.9730  -28.0665   17.1974 C   0  0  0  0  0  0  0  0  0  0  0  0
  -20.6605  -26.5890   23.0681 C   0  0  0  0  0  0  0  0  0  0  0  0
  -19.1180  -25.9659   21.1971 C   0  0  0  0  0  0  0  0  0  0  0  0
  -18.7033  -28.0438   22.5136 C   0  0  0  0  0  0  0  0  0  0  0  0
  -21.0330  -30.1997   16.4476 C   0  0  0  0  0  0  0  0  0  0  0  0
  -29.2952  -21.3885   20.0108 C   0  0  0  0  0  0  0  0  0  0  0  0
  -20.6382  -27.9719   20.8879 C   0  0  1  0  0  0  0  0  0  0  0  0
  -19.1639  -28.9499   17.5353 C   0  0  2  0  0  0  0  0  0  0  0  0
  -19.8075  -27.1477   21.9116 C   0  0  0  0  0  0  0  0  0  0  0  0
  -25.9425  -11.6347   20.6891 N   0  0  0  0  0  0  0  0  0  0  0  0
  -26.2946  -12.9156   20.4860 N   0  0  0  0  0  0  0  0  0  0  0  0
  -28.6728  -17.9245   18.4606 N   0  0  0  0  0  0  0  0  0  0  0  0
  -22.7571  -29.1304   21.4282 N   0  0  0  0  0  0  0  0  0  0  0  0
  -29.6006  -13.5299   18.6542 N   0  0  0  0  0  0  0  0  0  0  0  0
  -29.2603  -15.4257   17.2361 N   0  0  0  0  0  0  0  0  0  0  0  0
  -25.4165  -15.1057   20.2785 N   0  0  0  0  0  0  0  0  0  0  0  0
  -21.7418  -12.5701   20.9591 N   0  0  0  0  0  0  0  0  0  0  0  0
  -24.6188  -30.2634   24.3517 N   0  0  0  0  0  0  0  0  0  0  0  0
  -19.8517  -28.5360   19.7963 N   0  0  0  0  0  0  0  0  0  0  0  0
  -29.1719  -20.3132   18.9623 N   0  3  1  0  0  0  0  0  0  0  0  0
  -19.8549  -29.3130   16.2659 N   0  3  0  0  0  0  0  0  0  0  0  0
  -22.4871  -14.7070   20.5890 O   0  0  0  0  0  0  0  0  0  0  0  0
  -23.6563  -28.2599   23.6574 O   0  0  0  0  0  0  0  0  0  0  0  0
  -20.7049  -30.0094   22.1006 O   0  0  0  0  0  0  0  0  0  0  0  0
  -21.0248  -27.5085   18.0801 O   0  0  0  0  0  0  0  0  0  0  0  0
  -31.3469  -14.8976   18.0373 O   0  0  0  0  0  0  0  0  0  0  0  0
  -21.6411   -7.0500   21.7030 O   0  0  0  0  0  0  0  0  0  0  0  0
  -27.7641  -26.7360   18.7169 O   0  0  0  0  0  0  0  0  0  1  0  0
  -17.6940   -7.2417   25.5484 F   0  0  0  0  0  0  0  0  0  0  0  0
  -21.7162   -5.3704   23.8975 F   0  0  0  0  0  0  0  0  0  0  0  0
  1  2  1  0  0  0  0
  1  5  2  0  0  0  0
  2  6  2  0  0  0  0
  3  8  2  0  0  0  0
  3 15  1  0  0  0  0
  4  9  1  0  0  0  0
  4 15  2  0  0  0  0
  5 17  1  0  0  0  0
  6 19  1  0  0  0  0
  7 10  2  0  0  0  0
  7 18  1  0  0  0  0
  8 21  1  0  0  0  0
  9 21  2  0  0  0  0
 10 22  1  0  0  0  0
 11 12  2  0  0  0  0
 11 23  1  0  0  0  0
 12 24  1  0  0  0  0
 13 20  1  0  0  0  0
 13 22  2  0  0  0  0
 14 24  2  0  0  0  0
 14 25  1  0  0  0  0
 15 26  1  0  0  0  0
 16 26  1  0  0  0  0
 16 27  2  0  0  0  0
 16 28  1  0  0  0  0
 17 19  2  0  0  0  0
 17 33  1  0  0  0  0
 18 20  2  0  0  0  0
 18 34  1  0  0  0  0
 19 50  1  0  0  0  0
 20 35  1  0  0  0  0
 21 91  1  0  0  0  0
 22 92  1  0  0  0  0
 23 25  2  0  0  0  0
 23 91  1  0  0  0  0
 24 93  1  0  0  0  0
 25 94  1  0  0  0  0
 26 74  2  0  0  0  0
 27 75  1  0  0  0  0
 27 80  1  0  0  0  0
 28 81  1  0  0  0  0
 28 86  2  0  0  0  0
 29 51  1  0  0  0  0
 29 82  1  0  0  0  0
 29 87  2  0  0  0  0
 30 71  1  0  0  0  0
 30 77  1  0  0  0  0
 30 88  2  0  0  0  0
 31 72  1  0  0  0  0
 31 83  1  0  0  0  0
 31 89  2  0  0  0  0
 32 78  1  0  0  0  0
 32 79  1  0  0  0  0
 32 90  2  0  0  0  0
 33 36  1  0  0  0  0
 34 51  1  0  0  0  0
 35 77  1  0  0  0  0
 36 38  1  0  0  0  0
 37 41  1  0  0  0  0
 37 46  1  0  0  0  0
 38 50  1  0  0  0  0
 39 42  1  0  0  0  0
 39 54  1  0  0  0  0
 40 43  1  0  0  0  0
 40 54  1  0  0  0  0
 41 57  1  0  0  0  0
 42 60  1  0  0  0  0
 43 60  1  0  0  0  0
 44 52  1  0  0  0  0
 44 55  1  0  0  0  0
 45 53  1  0  0  0  0
 45 58  1  0  0  0  0
 46 78  1  0  0  0  0
 47 53  1  0  0  0  0
 47 79  1  0  0  0  0
 48 57  1  0  0  0  0
 48 78  1  0  0  0  0
 49 56  1  0  0  0  0
 49 84  1  0  0  0  0
 50 82  1  0  0  0  0
 51 77  1  0  0  0  0
 52 53  1  0  0  0  0
 52 55  1  0  0  0  0
 54 70  1  0  0  0  0
 55 62  1  0  0  0  0
 56 59  1  0  0  0  0
 56 63  1  0  0  0  0
 57 75  1  0  0  0  0
 58 59  1  0  0  0  0
 58 79  1  0  0  0  0
 59 76  1  0  0  0  0
 60 92  1  0  0  0  0
 61 64  1  0  0  0  0
 61 76  1  0  0  0  0
 61 84  1  0  0  0  0
 65 72  1  0  0  0  0
 66 73  1  0  0  0  0
 67 73  1  0  0  0  0
 68 73  1  0  0  0  0
 69 85  1  0  0  0  0
 70 84  1  0  0  0  0
 71 73  1  0  0  0  0
 71 83  1  0  0  0  0
 72 85  1  0  0  0  0
 74 75  1  0  0  0  0
M  CHG  2  84   1  85   1
M  ISO  4  32 100  60 101  79 100  92 101
M  END
> <Batch ID>
0167

> <Smiles>
CNC(C)C(=O)NC(C(=O)N1Cc2cc([101O:1][101CH:1]3CCC(CN4CC(C)C(C5CC(C6CC6C)C[100N:0]5[100C:0](=O)N5CCCC(n6nc(-c7ccc(Oc8ccc(F)cc8F)cc7)c(C(N)=O)c6N)C5)NC4C)CC3)ccc2CC1C(=O)NC1CCCc2ccccc21)C(C)(C)C

> <Shape>
0.355

> <Color>
0.202

> <Negative vol penalty>
0.000

$$$$

  -OEChem-04052322273D

 91102  0     1  0  0  0  0  0999 V2000
  -20.8624  -24.9685   25.1139 C   0  0  0  0  0  0  0  0  0  0  0  0
  -21.9212  -25.0240   24.2132 C   0  0  0  0  0  0  0  0  0  0  0  0
  -25.6431  -13.0664   20.7822 C   0  0  0  0  0  0  0  0  0  0  0  0
  -26.6133  -11.0748   19.8181 C   0  0  0  0  0  0  0  0  0  0  0  0
  -19.7434  -25.7780   24.9233 C   0  0  0  0  0  0  0  0  0  0  0  0
  -21.8611  -25.8883   23.1207 C   0  0  0  0  0  0  0  0  0  0  0  0
  -26.1842  -28.4291   22.4133 C   0  0  0  0  0  0  0  0  0  0  0  0
  -24.4741  -12.3601   21.0651 C   0  0  0  0  0  0  0  0  0  0  0  0
  -25.4442  -10.3685   20.1010 C   0  0  0  0  0  0  0  0  0  0  0  0
  -27.2335  -27.7429   21.8035 C   0  0  0  0  0  0  0  0  0  0  0  0
  -24.0068   -8.9081   22.7883 C   0  0  0  0  0  0  0  0  0  0  0  0
  -24.1385   -7.6395   23.3530 C   0  0  0  0  0  0  0  0  0  0  0  0
  -30.4254  -25.2184   16.4066 C   0  0  0  0  0  0  0  0  0  0  0  0
  -26.6985  -28.8029   19.7037 C   0  0  0  0  0  0  0  0  0  0  0  0
  -22.9834   -6.6776   21.4615 C   0  0  0  0  0  0  0  0  0  0  0  0
  -26.7127  -12.4238   20.1587 C   0  0  0  0  0  0  0  0  0  0  0  0
  -29.0475  -13.2998   20.6964 C   0  0  0  0  0  0  0  0  0  0  0  0
  -19.6736  -26.6597   23.8331 C   0  0  0  0  0  0  0  0  0  0  0  0
  -25.3759  -29.3005   21.6691 C   0  0  0  0  0  0  0  0  0  0  0  0
  -20.7395  -26.7094   22.9145 C   0  0  0  0  0  0  0  0  0  0  0  0
  -30.5816  -23.8691   16.7238 C   0  0  0  0  0  0  0  0  0  0  0  0
  -30.5280  -26.1862   17.4058 C   0  0  0  0  0  0  0  0  0  0  0  0
  -25.6412  -29.5009   20.3069 C   0  0  0  0  0  0  0  0  0  0  0  0
  -30.8403  -23.4876   18.0403 C   0  0  0  0  0  0  0  0  0  0  0  0
  -30.7867  -25.8047   18.7223 C   0  0  0  0  0  0  0  0  0  0  0  0
  -30.9429  -24.4554   19.0396 C   0  0  0  0  0  0  0  0  0  0  0  0
  -24.3746  -11.0111   20.7245 C   0  0  0  0  0  0  0  0  0  0  0  0
  -27.4890  -27.9275   20.4479 C   0  0  0  0  0  0  0  0  0  0  0  0
  -23.3634   -9.0615   21.5602 C   0  0  0  0  0  0  0  0  0  0  0  0
  -23.6269   -6.5242   22.6896 C   0  0  0  0  0  0  0  0  0  0  0  0
  -22.8517   -7.9462   20.8968 C   0  0  0  0  0  0  0  0  0  0  0  0
  -27.9204  -13.1531   19.8658 C   0  0  0  0  0  0  0  0  0  0  0  0
  -29.9142  -14.0749   19.9653 C   0  0  0  0  0  0  0  0  0  0  0  0
  -29.2895  -12.7817   22.0112 C   0  0  0  0  0  0  0  0  0  0  0  0
  -22.2883  -29.4081   20.9217 C   0  0  0  0  0  0  0  0  0  0  0  0
  -23.0967  -32.2790   19.6464 C   0  0  0  0  0  0  0  0  0  0  0  0
  -25.5266  -34.2880   18.3401 C   0  0  0  0  0  0  0  0  0  0  0  0
  -31.0599  -18.2960   16.6652 C   0  0  0  0  0  0  0  0  0  0  0  0
  -18.4230  -27.4807   23.6424 C   0  0  0  0  0  0  0  0  0  0  0  0
  -24.2647  -30.0536   22.3476 C   0  0  0  0  0  0  0  0  0  0  0  0
  -24.8156  -30.4408   19.4682 C   0  0  0  0  0  0  0  0  0  0  0  0
  -18.5993  -28.6416   22.6669 C   0  0  0  0  0  0  0  0  0  0  0  0
  -29.8026  -15.4747   15.1135 C   0  0  0  0  0  0  0  0  0  0  0  0
  -30.9622  -23.1990   14.2581 C   0  0  0  0  0  0  0  0  0  0  0  0
  -29.4918  -23.0880   14.5146 C   0  0  0  0  0  0  0  0  0  0  0  0
  -30.6518  -28.0589   15.6305 C   0  0  0  0  0  0  0  0  0  0  0  0
  -31.5777  -28.4515   16.7389 C   0  0  0  0  0  0  0  0  0  0  0  0
  -19.3175  -28.1740   21.4050 C   0  0  0  0  0  0  0  0  0  0  0  0
  -29.2902  -14.6203   16.2727 C   0  0  0  0  0  0  0  0  0  0  0  0
  -29.7319  -21.2096   18.1021 C   0  0  0  0  0  0  0  0  0  0  0  0
  -32.2189  -21.3943   17.6658 C   0  0  0  0  0  0  0  0  0  0  0  0
  -29.4695  -16.9461   15.3313 C   0  0  0  0  0  0  0  0  0  0  0  0
  -29.9205  -19.7238   18.4213 C   0  0  0  0  0  0  0  0  0  0  0  0
  -32.3525  -19.9159   18.0194 C   0  0  0  0  0  0  0  0  0  0  0  0
  -29.4863  -16.6545   17.7875 C   0  0  0  0  0  0  0  0  0  0  0  0
  -30.4672  -22.8520   15.6367 C   0  0  0  0  0  0  0  0  0  0  0  0
  -30.3571  -27.6240   17.0412 C   0  0  0  0  0  0  0  0  0  0  0  0
  -31.0099  -22.0199   18.3846 C   0  0  0  0  0  0  0  0  0  0  0  0
  -20.7221  -27.6522   21.7308 C   0  0  1  0  0  0  0  0  0  0  0  0
  -23.1838  -30.5244   21.3794 C   0  0  1  0  0  0  0  0  0  0  0  0
  -29.8029  -15.1542   17.6220 C   0  0  1  0  0  0  0  0  0  0  0  0
  -31.2205  -24.0462   20.4518 C   0  0  0  0  0  0  0  0  0  0  0  0
  -25.8766  -36.5670   17.3496 C   0  0  0  0  0  0  0  0  0  0  0  0
  -21.8221  -31.3387   17.0386 C   0  0  0  0  0  0  0  0  0  0  0  0
  -23.0154  -33.2007   15.8651 C   0  0  0  0  0  0  0  0  0  0  0  0
  -21.3382  -33.7181   17.6377 C   0  0  0  0  0  0  0  0  0  0  0  0
  -27.4213  -35.0546   20.4805 C   0  0  0  0  0  0  0  0  0  0  0  0
  -30.8966  -26.8435   19.7937 C   0  0  0  0  0  0  0  0  0  0  0  0
  -29.6399  -26.9356   20.6613 C   0  0  0  0  0  0  0  0  0  1  0  0
  -23.5796  -32.7513   18.2963 C   0  0  1  0  0  0  0  0  0  0  0  0
  -25.8978  -35.7329   18.6210 C   0  0  2  0  0  0  0  0  0  0  0  0
  -22.4533  -32.7330   17.2245 C   0  0  0  0  0  0  0  0  0  0  0  0
  -28.0558  -13.7844   18.6966 N   0  0  0  0  0  0  0  0  0  0  0  0
  -29.2782  -14.3354   18.7872 N   0  0  0  0  0  0  0  0  0  0  0  0
  -23.7364  -31.1493   20.1759 N   0  0  0  0  0  0  0  0  0  0  0  0
  -29.9696  -17.4140   16.6239 N   0  0  0  0  0  0  0  0  0  0  0  0
  -31.1110  -19.1940   17.7420 N   0  0  0  0  0  0  0  0  0  0  0  0
  -31.1507  -14.5522   20.2216 N   0  0  0  0  0  0  0  0  0  0  0  0
  -28.2930  -12.0041   22.6167 N   0  0  0  0  0  0  0  0  0  0  0  0
  -21.6333  -28.7553   21.9485 N   0  0  0  0  0  0  0  0  0  0  0  0
  -24.1770  -34.0645   18.5129 N   0  0  0  0  0  0  0  0  0  0  0  0
  -27.2637  -35.8113   19.2118 N   0  3  0  0  0  0  0  0  0  0  0  0
  -30.3510  -13.0154   22.6373 O   0  0  0  0  0  0  0  0  0  0  0  0
  -22.1972  -29.1584   19.7254 O   0  0  0  0  0  0  0  0  0  0  0  0
  -22.1904  -32.8943   20.2137 O   0  0  0  0  0  0  0  0  0  0  0  0
  -26.3508  -33.4430   17.9976 O   0  0  0  0  0  0  0  0  0  0  0  0
  -31.9369  -18.2821   15.7923 O   0  0  0  0  0  0  0  0  0  0  0  0
  -23.2341  -10.3215   21.0005 O   0  0  0  0  0  0  0  0  0  0  0  0
  -28.5194  -27.2538   19.8459 O   0  0  0  0  0  0  0  0  0  1  0  0
  -23.7548   -5.3059   23.2313 F   0  0  0  0  0  0  0  0  0  0  0  0
  -22.2336   -8.0872   19.7162 F   0  0  0  0  0  0  0  0  0  0  0  0
  1  2  1  0  0  0  0
  1  5  2  0  0  0  0
  2  6  2  0  0  0  0
  3  8  2  0  0  0  0
  3 16  1  0  0  0  0
  4  9  1  0  0  0  0
  4 16  2  0  0  0  0
  5 18  1  0  0  0  0
  6 20  1  0  0  0  0
  7 10  2  0  0  0  0
  7 19  1  0  0  0  0
  8 27  1  0  0  0  0
  9 27  2  0  0  0  0
 10 28  1  0  0  0  0
 11 12  2  0  0  0  0
 11 29  1  0  0  0  0
 12 30  1  0  0  0  0
 13 21  1  0  0  0  0
 13 22  2  0  0  0  0
 14 23  1  0  0  0  0
 14 28  2  0  0  0  0
 15 30  2  0  0  0  0
 15 31  1  0  0  0  0
 16 32  1  0  0  0  0
 17 32  1  0  0  0  0
 17 33  2  0  0  0  0
 17 34  1  0  0  0  0
 18 20  2  0  0  0  0
 18 39  1  0  0  0  0
 19 23  2  0  0  0  0
 19 40  1  0  0  0  0
 20 59  1  0  0  0  0
 21 24  2  0  0  0  0
 21 56  1  0  0  0  0
 22 25  1  0  0  0  0
 22 57  1  0  0  0  0
 23 41  1  0  0  0  0
 24 26  1  0  0  0  0
 24 58  1  0  0  0  0
 25 26  2  0  0  0  0
 25 68  1  0  0  0  0
 26 62  1  0  0  0  0
 27 88  1  0  0  0  0
 28 89  1  0  0  0  0
 29 31  2  0  0  0  0
 29 88  1  0  0  0  0
 30 90  1  0  0  0  0
 31 91  1  0  0  0  0
 32 73  2  0  0  0  0
 33 74  1  0  0  0  0
 33 78  1  0  0  0  0
 34 79  1  0  0  0  0
 34 83  2  0  0  0  0
 35 60  1  0  0  0  0
 35 80  1  0  0  0  0
 35 84  2  0  0  0  0
 36 70  1  0  0  0  0
 36 75  1  0  0  0  0
 36 85  2  0  0  0  0
 37 71  1  0  0  0  0
 37 81  1  0  0  0  0
 37 86  2  0  0  0  0
 38 76  1  0  0  0  0
 38 77  1  0  0  0  0
 38 87  2  0  0  0  0
 39 42  1  0  0  0  0
 40 60  1  0  0  0  0
 41 75  1  0  0  0  0
 42 48  1  0  0  0  0
 43 49  1  0  0  0  0
 43 52  1  0  0  0  0
 44 45  1  0  0  0  0
 44 56  1  0  0  0  0
 45 56  1  0  0  0  0
 46 47  1  0  0  0  0
 46 57  1  0  0  0  0
 47 57  1  0  0  0  0
 48 59  1  0  0  0  0
 49 61  1  0  0  0  0
 50 53  1  0  0  0  0
 50 58  1  0  0  0  0
 51 54  1  0  0  0  0
 51 58  1  0  0  0  0
 52 76  1  0  0  0  0
 53 77  1  0  0  0  0
 54 77  1  0  0  0  0
 55 61  1  0  0  0  0
 55 76  1  0  0  0  0
 59 80  1  0  0  0  0
 60 75  1  0  0  0  0
 61 74  1  0  0  0  0
 63 71  1  0  0  0  0
 64 72  1  0  0  0  0
 65 72  1  0  0  0  0
 66 72  1  0  0  0  0
 67 82  1  0  0  0  0
 68 69  1  0  0  0  0
 69 89  1  0  0  0  0
 70 72  1  0  0  0  0
 70 81  1  0  0  0  0
 71 82  1  0  0  0  0
 73 74  1  0  0  0  0
M  CHG  1  82   1
M  ISO  4  38 100  69 101  77 100  89 101
M  END
> <Batch ID>
0167

> <Smiles>
CNC(C)C(=O)NC(C(=O)N1Cc2cc([101O:1][101CH2:1]Cc3c(C4CC4)cc(C4CC4)c(C4CC[100N:0]([100C:0](=O)N5CCCC(n6nc(-c7ccc(Oc8ccc(F)cc8F)cc7)c(C(N)=O)c6N)C5)CC4)c3C)ccc2CC1C(=O)NC1CCCc2ccccc21)C(C)(C)C

> <Shape>
0.267

> <Color>
0.100

> <Negative vol penalty>
0.000

$$$$

  -OEChem-04052322273D

 87 96  0     1  0  0  0  0  0999 V2000
  -22.2798  -34.9597   15.3502 C   0  0  0  0  0  0  0  0  0  0  0  0
  -23.0010  -33.7721   15.4212 C   0  0  0  0  0  0  0  0  0  0  0  0
  -25.5231   -9.0107   22.3345 C   0  0  0  0  0  0  0  0  0  0  0  0
  -23.1767   -9.2991   21.8362 C   0  0  0  0  0  0  0  0  0  0  0  0
  -22.3893  -35.9025   16.3715 C   0  0  0  0  0  0  0  0  0  0  0  0
  -23.8330  -33.5272   16.5130 C   0  0  0  0  0  0  0  0  0  0  0  0
  -24.9463  -28.1141   19.1520 C   0  0  0  0  0  0  0  0  0  0  0  0
  -25.2065   -7.9976   23.2394 C   0  0  0  0  0  0  0  0  0  0  0  0
  -22.8600   -8.2858   22.7411 C   0  0  0  0  0  0  0  0  0  0  0  0
  -25.9975  -27.2071   19.0249 C   0  0  0  0  0  0  0  0  0  0  0  0
  -22.8901   -4.9071   22.8054 C   0  0  0  0  0  0  0  0  0  0  0  0
  -21.9585   -3.9497   22.4040 C   0  0  0  0  0  0  0  0  0  0  0  0
  -27.0533  -28.1674   20.9697 C   0  0  0  0  0  0  0  0  0  0  0  0
  -20.5268   -4.5694   24.2489 C   0  0  0  0  0  0  0  0  0  0  0  0
  -24.5082   -9.6615   21.6330 C   0  0  0  0  0  0  0  0  0  0  0  0
  -25.1087  -10.5672   19.3250 C   0  0  0  0  0  0  0  0  0  0  0  0
  -23.2157  -35.6648   17.4811 C   0  0  0  0  0  0  0  0  0  0  0  0
  -24.9461  -29.0633   20.1842 C   0  0  0  0  0  0  0  0  0  0  0  0
  -23.9547  -34.4683   17.5495 C   0  0  0  0  0  0  0  0  0  0  0  0
  -25.9997  -29.0836   21.1093 C   0  0  0  0  0  0  0  0  0  0  0  0
  -31.5138  -24.0808   18.4433 C   0  0  0  0  0  0  0  0  0  0  0  0
  -30.4462  -24.9693   18.3798 C   0  0  0  0  0  0  0  0  0  0  0  0
  -31.3047  -22.7826   18.8952 C   0  0  0  0  0  0  0  0  0  0  0  0
  -23.8749   -7.6351   23.4426 C   0  0  0  0  0  0  0  0  0  0  0  0
  -27.0526  -27.2355   19.9321 C   0  0  0  0  0  0  0  0  0  0  0  0
  -22.6401   -5.6956   23.9286 C   0  0  0  0  0  0  0  0  0  0  0  0
  -20.7769   -3.7809   23.1257 C   0  0  0  0  0  0  0  0  0  0  0  0
  -21.4585   -5.5268   24.6503 C   0  0  0  0  0  0  0  0  0  0  0  0
  -24.8346  -10.7086   20.6985 C   0  0  0  0  0  0  0  0  0  0  0  0
  -29.1991  -24.5142   18.7766 C   0  0  0  0  0  0  0  0  0  0  0  0
  -30.0192  -22.4254   19.2691 C   0  0  0  0  0  0  0  0  0  0  0  0
  -25.3572  -11.8464   18.8910 C   0  0  0  0  0  0  0  0  0  0  0  0
  -25.1362   -9.3852   18.5139 C   0  0  0  0  0  0  0  0  0  0  0  0
  -24.9828  -32.2391   20.3111 C   0  0  0  0  0  0  0  0  0  0  0  0
  -24.5989  -31.7279   23.4913 C   0  0  0  0  0  0  0  0  0  0  0  0
  -24.9831  -29.6301   26.1556 C   0  0  0  0  0  0  0  0  0  0  0  0
  -27.6338  -16.6873   19.3331 C   0  0  0  0  0  0  0  0  0  0  0  0
  -23.3382  -36.7343   18.5374 C   0  0  0  0  0  0  0  0  0  0  0  0
  -23.7916  -30.0172   20.3235 C   0  0  0  0  0  0  0  0  0  0  0  0
  -26.0369  -30.0696   22.2472 C   0  0  0  0  0  0  0  0  0  0  0  0
  -23.9530  -36.2343   19.8421 C   0  0  0  0  0  0  0  0  0  0  0  0
  -24.6684  -16.3008   21.1714 C   0  0  0  0  0  0  0  0  0  0  0  0
  -25.1964  -35.3970   19.5598 C   0  0  0  0  0  0  0  0  0  0  0  0
  -24.4645  -14.7875   21.1035 C   0  0  0  0  0  0  0  0  0  0  0  0
  -27.6455  -20.3658   18.8681 C   0  0  0  0  0  0  0  0  0  0  0  0
  -28.4081  -19.8300   21.2220 C   0  0  0  0  0  0  0  0  0  0  0  0
  -26.1378  -16.6722   21.3780 C   0  0  0  0  0  0  0  0  0  0  0  0
  -28.0410  -18.9520   18.4446 C   0  0  0  0  0  0  0  0  0  0  0  0
  -28.7894  -18.4307   20.7440 C   0  0  0  0  0  0  0  0  0  0  0  0
  -26.8517  -14.5540   20.3196 C   0  0  0  0  0  0  0  0  0  0  0  0
  -24.8487  -34.1554   18.7297 C   0  0  1  0  0  0  0  0  0  0  0  0
  -24.1482  -31.2764   21.1075 C   0  0  1  0  0  0  0  0  0  0  0  0
  -25.3928  -14.1513   20.0537 C   0  0  1  0  0  0  0  0  0  0  0  0
  -28.4263  -20.8563   20.0879 C   0  0  0  0  0  0  0  0  0  0  0  0
  -32.8818  -24.5192   18.0274 C   0  0  0  0  0  0  0  0  0  0  0  0
  -30.6385  -26.3688   17.8992 C   0  0  0  0  0  0  0  0  0  0  0  0
  -32.4259  -21.8023   18.9766 C   0  0  0  0  0  0  0  0  0  0  0  0
  -24.6115  -29.5054   28.6343 C   0  0  0  0  0  0  0  0  0  0  0  0
  -27.0392  -33.5028   23.9440 C   0  0  0  0  0  0  0  0  0  0  0  0
  -27.1869  -32.5872   26.2696 C   0  0  0  0  0  0  0  0  0  0  0  0
  -25.1677  -33.8697   25.5619 C   0  0  0  0  0  0  0  0  0  0  0  0
  -23.1255  -27.3429   25.8791 C   0  0  0  0  0  0  0  0  0  0  0  0
  -28.0144  -25.4227   18.7302 C   0  0  0  0  0  0  0  0  0  1  0  0
  -25.5308  -31.5347   24.6632 C   0  0  1  0  0  0  0  0  0  0  0  0
  -24.0263  -29.2190   27.2601 C   0  0  2  0  0  0  0  0  0  0  0  0
  -26.2317  -32.8562   25.0872 C   0  0  0  0  0  0  0  0  0  0  0  0
  -24.9026  -11.9775   21.1099 N   0  0  0  0  0  0  0  0  0  0  0  0
  -28.9572  -23.2606   19.2212 N   0  0  0  0  0  0  0  0  0  0  0  0
  -25.2224  -12.6451   19.9883 N   0  0  0  0  0  0  0  0  0  0  0  0
  -24.8880  -30.9859   22.3373 N   0  0  0  0  0  0  0  0  0  0  0  0
  -26.9873  -16.0109   20.3785 N   0  0  0  0  0  0  0  0  0  0  0  0
  -28.0028  -18.0219   19.5725 N   0  0  0  0  0  0  0  0  0  0  0  0
  -25.6757  -12.3547   17.6816 N   0  0  0  0  0  0  0  0  0  0  0  0
  -24.8568   -8.1526   19.1197 N   0  0  0  0  0  0  0  0  0  0  0  0
  -24.2458  -33.1404   19.5668 N   0  0  0  0  0  0  0  0  0  0  0  0
  -24.7367  -30.9143   25.7182 N   0  0  0  0  0  0  0  0  0  0  0  0
  -23.7278  -27.7617   27.1709 N   0  3  0  0  0  0  0  0  0  0  0  0
  -25.4167   -9.4191   17.2917 O   0  0  0  0  0  0  0  0  0  0  0  0
  -26.2049  -32.1704   20.3689 O   0  0  0  0  0  0  0  0  0  0  0  0
  -23.6453  -32.5031   23.5984 O   0  0  0  0  0  0  0  0  0  0  0  0
  -25.8637  -28.8878   25.7266 O   0  0  0  0  0  0  0  0  0  0  0  0
  -27.8652  -16.1362   18.2497 O   0  0  0  0  0  0  0  0  0  0  0  0
  -23.5656   -6.6463   24.3253 O   0  0  0  0  0  0  0  0  0  0  0  0
  -28.0876  -26.3455   19.8090 O   0  0  0  0  0  0  0  0  0  1  0  0
  -29.7710  -21.1557   19.7202 O   0  0  0  0  0  0  0  0  0  0  0  0
  -19.8817   -2.8625   22.7392 F   0  0  0  0  0  0  0  0  0  0  0  0
  -21.2122   -6.2822   25.7294 F   0  0  0  0  0  0  0  0  0  0  0  0
  1  2  1  0  0  0  0
  1  5  2  0  0  0  0
  2  6  2  0  0  0  0
  3  8  2  0  0  0  0
  3 15  1  0  0  0  0
  4  9  1  0  0  0  0
  4 15  2  0  0  0  0
  5 17  1  0  0  0  0
  6 19  1  0  0  0  0
  7 10  2  0  0  0  0
  7 18  1  0  0  0  0
  8 24  1  0  0  0  0
  9 24  2  0  0  0  0
 10 25  1  0  0  0  0
 11 12  2  0  0  0  0
 11 26  1  0  0  0  0
 12 27  1  0  0  0  0
 13 20  1  0  0  0  0
 13 25  2  0  0  0  0
 14 27  2  0  0  0  0
 14 28  1  0  0  0  0
 15 29  1  0  0  0  0
 16 29  1  0  0  0  0
 16 32  2  0  0  0  0
 16 33  1  0  0  0  0
 17 19  2  0  0  0  0
 17 38  1  0  0  0  0
 18 20  2  0  0  0  0
 18 39  1  0  0  0  0
 19 51  1  0  0  0  0
 20 40  1  0  0  0  0
 21 22  1  0  0  0  0
 21 23  2  0  0  0  0
 21 55  1  0  0  0  0
 22 30  2  0  0  0  0
 22 56  1  0  0  0  0
 23 31  1  0  0  0  0
 23 57  1  0  0  0  0
 24 83  1  0  0  0  0
 25 84  1  0  0  0  0
 26 28  2  0  0  0  0
 26 83  1  0  0  0  0
 27 86  1  0  0  0  0
 28 87  1  0  0  0  0
 29 67  2  0  0  0  0
 30 63  1  0  0  0  0
 30 68  1  0  0  0  0
 31 68  2  0  0  0  0
 31 85  1  0  0  0  0
 32 69  1  0  0  0  0
 32 73  1  0  0  0  0
 33 74  1  0  0  0  0
 33 78  2  0  0  0  0
 34 52  1  0  0  0  0
 34 75  1  0  0  0  0
 34 79  2  0  0  0  0
 35 64  1  0  0  0  0
 35 70  1  0  0  0  0
 35 80  2  0  0  0  0
 36 65  1  0  0  0  0
 36 76  1  0  0  0  0
 36 81  2  0  0  0  0
 37 71  1  0  0  0  0
 37 72  1  0  0  0  0
 37 82  2  0  0  0  0
 38 41  1  0  0  0  0
 39 52  1  0  0  0  0
 40 70  1  0  0  0  0
 41 43  1  0  0  0  0
 42 44  1  0  0  0  0
 42 47  1  0  0  0  0
 43 51  1  0  0  0  0
 44 53  1  0  0  0  0
 45 48  1  0  0  0  0
 45 54  1  0  0  0  0
 46 49  1  0  0  0  0
 46 54  1  0  0  0  0
 47 71  1  0  0  0  0
 48 72  1  0  0  0  0
 49 72  1  0  0  0  0
 50 53  1  0  0  0  0
 50 71  1  0  0  0  0
 51 75  1  0  0  0  0
 52 70  1  0  0  0  0
 53 69  1  0  0  0  0
 54 85  1  0  0  0  0
 58 65  1  0  0  0  0
 59 66  1  0  0  0  0
 60 66  1  0  0  0  0
 61 66  1  0  0  0  0
 62 77  1  0  0  0  0
 63 84  1  0  0  0  0
 64 66  1  0  0  0  0
 64 76  1  0  0  0  0
 65 77  1  0  0  0  0
 67 69  1  0  0  0  0
M  CHG  1  77   1
M  ISO  4  37 100  63 101  72 100  84 101
M  END
> <Batch ID>
0167

> <Smiles>
CNC(C)C(=O)NC(C(=O)N1Cc2cc([101O:1][101CH2:1]c3nc(OC4CC[100N:0]([100C:0](=O)N5CCCC(n6nc(-c7ccc(Oc8ccc(F)cc8F)cc7)c(C(N)=O)c6N)C5)CC4)c(C)c(C)c3C)ccc2CC1C(=O)NC1CCCc2ccccc21)C(C)(C)C

> <Shape>
0.302

> <Color>
0.122

> <Negative vol penalty>
0.000

$$$$

  -OEChem-04052322273D

 89 98  0     1  0  0  0  0  0999 V2000
  -18.0946  -28.1746   24.0689 C   0  0  0  0  0  0  0  0  0  0  0  0
  -19.4629  -27.9236   24.0633 C   0  0  0  0  0  0  0  0  0  0  0  0
  -25.0044  -14.0522   20.2299 C   0  0  0  0  0  0  0  0  0  0  0  0
  -27.1757  -13.5862   21.1816 C   0  0  0  0  0  0  0  0  0  0  0  0
  -17.3445  -27.9691   22.9117 C   0  0  0  0  0  0  0  0  0  0  0  0
  -20.0819  -27.4657   22.9007 C   0  0  0  0  0  0  0  0  0  0  0  0
  -25.7399  -28.7980   20.9727 C   0  0  0  0  0  0  0  0  0  0  0  0
  -24.7629  -12.6836   20.1108 C   0  0  0  0  0  0  0  0  0  0  0  0
  -26.9341  -12.2176   21.0625 C   0  0  0  0  0  0  0  0  0  0  0  0
  -26.9484  -28.1088   21.0635 C   0  0  0  0  0  0  0  0  0  0  0  0
  -23.4277   -9.3097   19.8897 C   0  0  0  0  0  0  0  0  0  0  0  0
  -22.1782   -8.8346   20.2880 C   0  0  0  0  0  0  0  0  0  0  0  0
  -31.8992  -23.1743   18.2308 C   0  0  0  0  0  0  0  0  0  0  0  0
  -33.3672  -24.2633   19.8106 C   0  0  0  0  0  0  0  0  0  0  0  0
  -26.5997  -27.2178   18.8491 C   0  0  0  0  0  0  0  0  0  0  0  0
  -22.5779   -9.6582   22.5239 C   0  0  0  0  0  0  0  0  0  0  0  0
  -26.2109  -14.5035   20.7652 C   0  0  0  0  0  0  0  0  0  0  0  0
  -26.1566  -16.7421   21.9874 C   0  0  0  0  0  0  0  0  0  0  0  0
  -17.9563  -27.5177   21.7316 C   0  0  0  0  0  0  0  0  0  0  0  0
  -24.9457  -28.6935   19.8218 C   0  0  0  0  0  0  0  0  0  0  0  0
  -19.3391  -27.2527   21.7270 C   0  0  0  0  0  0  0  0  0  0  0  0
  -32.1372  -24.1898   19.1570 C   0  0  0  0  0  0  0  0  0  0  0  0
  -25.3828  -27.9087   18.7451 C   0  0  0  0  0  0  0  0  0  0  0  0
  -32.8913  -22.2323   17.9584 C   0  0  0  0  0  0  0  0  0  0  0  0
  -34.1213  -22.3059   18.6120 C   0  0  0  0  0  0  0  0  0  0  0  0
  -34.3593  -23.3214   19.5382 C   0  0  0  0  0  0  0  0  0  0  0  0
  -25.7277  -11.7663   20.5271 C   0  0  0  0  0  0  0  0  0  0  0  0
  -27.3771  -27.3162   20.0028 C   0  0  0  0  0  0  0  0  0  0  0  0
  -24.2523   -9.9590   20.8085 C   0  0  0  0  0  0  0  0  0  0  0  0
  -21.7533   -9.0089   21.6051 C   0  0  0  0  0  0  0  0  0  0  0  0
  -23.8274  -10.1332   22.1255 C   0  0  0  0  0  0  0  0  0  0  0  0
  -26.4612  -15.9172   20.8880 C   0  0  0  0  0  0  0  0  0  0  0  0
  -26.5904  -17.9898   21.6109 C   0  0  0  0  0  0  0  0  0  0  0  0
  -25.5371  -16.4102   23.2371 C   0  0  0  0  0  0  0  0  0  0  0  0
  -22.0164  -27.6231   19.2075 C   0  0  0  0  0  0  0  0  0  0  0  0
  -22.6271  -28.8031   16.2483 C   0  0  0  0  0  0  0  0  0  0  0  0
  -24.9436  -29.7015   13.9087 C   0  0  0  0  0  0  0  0  0  0  0  0
  -30.7789  -19.7225   17.8282 C   0  0  0  0  0  0  0  0  0  0  0  0
  -17.0960  -27.2650   20.5188 C   0  0  0  0  0  0  0  0  0  0  0  0
  -23.6575  -29.4645   19.7288 C   0  0  0  0  0  0  0  0  0  0  0  0
  -24.5768  -27.7793   17.4794 C   0  0  0  0  0  0  0  0  0  0  0  0
  -17.8928  -27.1362   19.2231 C   0  0  0  0  0  0  0  0  0  0  0  0
  -27.2945  -20.6954   17.7262 C   0  0  0  0  0  0  0  0  0  0  0  0
  -30.6756  -25.9843   18.1822 C   0  0  0  0  0  0  0  0  0  0  0  0
  -19.0919  -26.2149   19.4231 C   0  0  0  0  0  0  0  0  0  0  0  0
  -26.6588  -19.6459   18.6398 C   0  0  0  0  0  0  0  0  0  0  0  0
  -29.1843  -25.7210   17.9699 C   0  0  0  0  0  0  0  0  0  0  0  0
  -28.4180  -20.0917   16.8887 C   0  0  0  0  0  0  0  0  0  0  0  0
  -28.8507  -18.3677   18.5958 C   0  0  0  0  0  0  0  0  0  0  0  0
  -31.0745  -25.1965   19.4499 C   0  0  1  0  0  0  0  0  0  0  0  0
  -20.0510  -26.7789   20.4784 C   0  0  1  0  0  0  0  0  0  0  0  0
  -22.6814  -28.8770   18.7143 C   0  0  1  0  0  0  0  0  0  0  0  0
  -29.7695  -24.5192   19.9457 C   0  0  2  0  0  0  0  0  0  0  0  0
  -27.7226  -18.9209   19.4854 C   0  0  2  0  0  0  0  0  0  0  0  0
  -28.6551  -25.4126   19.3711 C   0  0  2  0  0  0  0  0  0  1  0  0
  -35.1825  -21.2928   18.3173 C   0  0  0  0  0  0  0  0  0  0  0  0
  -29.7501  -24.3535   21.4624 C   0  0  0  0  0  0  0  0  0  0  0  0
  -27.2850  -24.7478   19.3372 C   0  0  0  0  0  0  0  0  0  0  0  0
  -33.0097  -21.5481   15.5336 C   0  0  0  0  0  0  0  0  0  0  0  0
  -25.1390  -30.5962   11.5724 C   0  0  0  0  0  0  0  0  0  0  0  0
  -21.8882  -26.0588   15.1381 C   0  0  0  0  0  0  0  0  0  0  0  0
  -22.9918  -26.7090   12.9870 C   0  0  0  0  0  0  0  0  0  0  0  0
  -21.0163  -27.9905   13.8104 C   0  0  0  0  0  0  0  0  0  0  0  0
  -35.7286  -23.9573   21.5247 C   0  0  0  0  0  0  0  0  0  0  0  0
  -26.3824  -32.1179   14.8303 C   0  0  0  0  0  0  0  0  0  0  0  0
  -32.6107  -21.1550   16.9624 C   0  0  2  0  0  0  0  0  0  0  0  0
  -23.2405  -28.2527   14.9835 C   0  0  1  0  0  0  0  0  0  0  0  0
  -25.0783  -30.9466   13.0509 C   0  0  2  0  0  0  0  0  0  0  0  0
  -22.2987  -27.2534   14.2542 C   0  0  0  0  0  0  0  0  0  0  0  0
  -27.0433  -16.5846   19.8881 N   0  0  0  0  0  0  0  0  0  0  0  0
  -27.1079  -17.8421   20.3577 N   0  0  0  0  0  0  0  0  0  0  0  0
  -23.3215  -28.5475   17.4392 N   0  0  0  0  0  0  0  0  0  0  0  0
  -29.4062  -19.4332   17.7547 N   0  0  0  0  0  0  0  0  0  0  0  0
  -26.5756  -19.1878   22.2330 N   0  0  0  0  0  0  0  0  0  0  0  0
  -25.1532  -15.0809   23.4602 N   0  0  0  0  0  0  0  0  0  0  0  0
  -35.5984  -23.4135   20.2095 N   0  0  0  0  0  0  0  0  0  0  0  0
  -20.8509  -27.8456   19.9157 N   0  0  0  0  0  0  0  0  0  0  0  0
  -23.6237  -29.4081   14.1794 N   0  0  0  0  0  0  0  0  0  0  0  0
  -31.2258  -20.7402   16.9943 N   0  0  0  0  0  0  0  0  0  0  0  0
  -26.3191  -31.6905   13.4090 N   0  3  0  0  0  0  0  0  0  0  0  0
  -25.3153  -17.2703   24.1228 O   0  0  0  0  0  0  0  0  0  0  0  0
  -22.5224  -26.5343   18.9624 O   0  0  0  0  0  0  0  0  0  0  0  0
  -21.5743  -29.4426   16.1812 O   0  0  0  0  0  0  0  0  0  0  0  0
  -25.9121  -29.0517   14.2965 O   0  0  0  0  0  0  0  0  0  0  0  0
  -31.5489  -19.1218   18.5853 O   0  0  0  0  0  0  0  0  0  0  0  0
  -25.4922  -10.4308   20.4112 O   0  0  0  0  0  0  0  0  0  0  0  0
  -28.5560  -26.6419   20.0891 O   0  0  0  0  0  0  0  0  0  1  0  0
  -20.5527   -8.5540   21.9871 F   0  0  0  0  0  0  0  0  0  0  0  0
  -24.6147  -10.7573   23.0124 F   0  0  0  0  0  0  0  0  0  0  0  0
  1  2  1  0  0  0  0
  1  5  2  0  0  0  0
  2  6  2  0  0  0  0
  3  8  2  0  0  0  0
  3 17  1  0  0  0  0
  4  9  1  0  0  0  0
  4 17  2  0  0  0  0
  5 19  1  0  0  0  0
  6 21  1  0  0  0  0
  7 10  2  0  0  0  0
  7 20  1  0  0  0  0
  8 27  1  0  0  0  0
  9 27  2  0  0  0  0
 10 28  1  0  0  0  0
 11 12  2  0  0  0  0
 11 29  1  0  0  0  0
 12 30  1  0  0  0  0
 13 22  1  0  0  0  0
 13 24  2  0  0  0  0
 14 22  2  0  0  0  0
 14 26  1  0  0  0  0
 15 23  1  0  0  0  0
 15 28  2  0  0  0  0
 16 30  2  0  0  0  0
 16 31  1  0  0  0  0
 17 32  1  0  0  0  0
 18 32  1  0  0  0  0
 18 33  2  0  0  0  0
 18 34  1  0  0  0  0
 19 21  2  0  0  0  0
 19 39  1  0  0  0  0
 20 23  2  0  0  0  0
 20 40  1  0  0  0  0
 21 51  1  0  0  0  0
 22 50  1  0  0  0  0
 23 41  1  0  0  0  0
 24 25  1  0  0  0  0
 24 66  1  0  0  0  0
 25 26  2  0  0  0  0
 25 56  1  0  0  0  0
 26 76  1  0  0  0  0
 27 86  1  0  0  0  0
 28 87  1  0  0  0  0
 29 31  2  0  0  0  0
 29 86  1  0  0  0  0
 30 88  1  0  0  0  0
 31 89  1  0  0  0  0
 32 70  2  0  0  0  0
 33 71  1  0  0  0  0
 33 74  1  0  0  0  0
 34 75  1  0  0  0  0
 34 81  2  0  0  0  0
 35 52  1  0  0  0  0
 35 77  1  0  0  0  0
 35 82  2  0  0  0  0
 36 67  1  0  0  0  0
 36 72  1  0  0  0  0
 36 83  2  0  0  0  0
 37 68  1  0  0  0  0
 37 78  1  0  0  0  0
 37 84  2  0  0  0  0
 38 73  1  0  0  0  0
 38 79  1  0  0  0  0
 38 85  2  0  0  0  0
 39 42  1  0  0  0  0
 40 52  1  0  0  0  0
 41 72  1  0  0  0  0
 42 45  1  0  0  0  0
 43 46  1  0  0  0  0
 43 48  1  0  0  0  0
 44 47  1  0  0  0  0
 44 50  1  0  0  0  0
 45 51  1  0  0  0  0
 46 54  1  0  0  0  0
 47 55  1  0  0  0  0
 48 73  1  0  0  0  0
 49 54  1  0  0  0  0
 49 73  1  0  0  0  0
 50 53  1  0  0  0  0
 51 77  1  0  0  0  0
 52 72  1  0  0  0  0
 53 55  1  0  0  0  0
 53 57  1  0  0  0  0
 54 71  1  0  0  0  0
 55 58  1  0  0  0  0
 55 87  1  0  0  0  0
 59 66  1  0  0  0  0
 60 68  1  0  0  0  0
 61 69  1  0  0  0  0
 62 69  1  0  0  0  0
 63 69  1  0  0  0  0
 64 76  1  0  0  0  0
 65 80  1  0  0  0  0
 66 79  1  0  0  0  0
 67 69  1  0  0  0  0
 67 78  1  0  0  0  0
 68 80  1  0  0  0  0
 70 71  1  0  0  0  0
M  CHG  1  80   1
M  ISO  4  38 100  55 101  79 100  87 101
M  END
> <Batch ID>
0167

> <Smiles>
CNc1cc(C2CC[101C:1](C)([101O:1]c3ccc4c(c3)CN(C(=O)C(NC(=O)C(C)NC)C(C)(C)C)C(C(=O)NC3CCCc5ccccc53)C4)C2C)cc(C(C)[100NH:0][100C:0](=O)N2CCCC(n3nc(-c4ccc(Oc5ccc(F)cc5F)cc4)c(C(N)=O)c3N)C2)c1C

> <Shape>
0.208

> <Color>
0.078

> <Negative vol penalty>
0.000

$$$$

  -OEChem-04052322273D

 85 95  0     1  0  0  0  0  0999 V2000
  -25.8981  -37.7483   24.8129 C   0  0  0  0  0  0  0  0  0  0  0  0
  -26.6576  -37.0625   23.8705 C   0  0  0  0  0  0  0  0  0  0  0  0
  -27.3902  -11.6192   21.9581 C   0  0  0  0  0  0  0  0  0  0  0  0
  -25.7281  -12.4854   20.4335 C   0  0  0  0  0  0  0  0  0  0  0  0
  -25.1544  -37.0403   25.7561 C   0  0  0  0  0  0  0  0  0  0  0  0
  -26.6747  -35.6681   23.8714 C   0  0  0  0  0  0  0  0  0  0  0  0
  -27.1785  -30.0881   19.4076 C   0  0  0  0  0  0  0  0  0  0  0  0
  -26.4015  -10.8956   22.6247 C   0  0  0  0  0  0  0  0  0  0  0  0
  -24.7395  -11.7617   21.1001 C   0  0  0  0  0  0  0  0  0  0  0  0
  -27.9141  -28.9179   19.2250 C   0  0  0  0  0  0  0  0  0  0  0  0
  -21.8344   -9.8597   22.1777 C   0  0  0  0  0  0  0  0  0  0  0  0
  -20.9092   -9.1593   21.4037 C   0  0  0  0  0  0  0  0  0  0  0  0
  -25.7723  -21.1390   16.4588 C   0  0  0  0  0  0  0  0  0  0  0  0
  -27.9404  -21.7917   18.0884 C   0  0  0  0  0  0  0  0  0  0  0  0
  -26.5276  -27.7997   20.8518 C   0  0  0  0  0  0  0  0  0  0  0  0
  -22.7032   -7.8690   20.4269 C   0  0  0  0  0  0  0  0  0  0  0  0
  -27.0535  -12.4142   20.8624 C   0  0  0  0  0  0  0  0  0  0  0  0
  -28.8520  -12.7333   19.0817 C   0  0  0  0  0  0  0  0  0  0  0  0
  -25.1547  -35.6366   25.7625 C   0  0  0  0  0  0  0  0  0  0  0  0
  -26.1171  -30.1261   20.3232 C   0  0  0  0  0  0  0  0  0  0  0  0
  -25.9314  -34.9407   24.8164 C   0  0  0  0  0  0  0  0  0  0  0  0
  -26.3695  -20.1584   17.2507 C   0  0  0  0  0  0  0  0  0  0  0  0
  -27.3431  -22.7723   17.2964 C   0  0  0  0  0  0  0  0  0  0  0  0
  -25.7785  -28.9709   21.0423 C   0  0  0  0  0  0  0  0  0  0  0  0
  -26.2591  -22.4460   16.4816 C   0  0  0  0  0  0  0  0  0  0  0  0
  -27.4536  -20.4847   18.0655 C   0  0  0  0  0  0  0  0  0  0  0  0
  -25.0762  -10.9667   22.1957 C   0  0  0  0  0  0  0  0  0  0  0  0
  -27.5905  -27.7743   19.9492 C   0  0  0  0  0  0  0  0  0  0  0  0
  -23.1940   -9.5648   22.0762 C   0  0  0  0  0  0  0  0  0  0  0  0
  -21.3436   -8.1639   20.5283 C   0  0  0  0  0  0  0  0  0  0  0  0
  -23.6284   -8.5695   21.2009 C   0  0  0  0  0  0  0  0  0  0  0  0
  -28.0742  -13.1625   20.1737 C   0  0  0  0  0  0  0  0  0  0  0  0
  -29.6669  -13.8022   18.7993 C   0  0  0  0  0  0  0  0  0  0  0  0
  -28.8390  -11.4803   18.3847 C   0  0  0  0  0  0  0  0  0  0  0  0
  -25.4998  -31.7666   22.9749 C   0  0  0  0  0  0  0  0  0  0  0  0
  -22.6219  -30.2860   22.7554 C   0  0  0  0  0  0  0  0  0  0  0  0
  -20.8044  -27.6444   21.5869 C   0  0  0  0  0  0  0  0  0  0  0  0
  -29.1593  -19.6818   19.7365 C   0  0  0  0  0  0  0  0  0  0  0  0
  -24.3723  -34.9153   26.8313 C   0  0  0  0  0  0  0  0  0  0  0  0
  -25.3165  -31.3886   20.4890 C   0  0  0  0  0  0  0  0  0  0  0  0
  -24.6352  -28.9537   22.0226 C   0  0  0  0  0  0  0  0  0  0  0  0
  -24.1484  -33.4360   26.5286 C   0  0  0  0  0  0  0  0  0  0  0  0
  -31.7747  -17.5594   20.8909 C   0  0  0  0  0  0  0  0  0  0  0  0
  -26.7607  -17.6325   16.8752 C   0  0  0  0  0  0  0  0  0  0  0  0
  -25.7283  -18.0631   15.8806 C   0  0  0  0  0  0  0  0  0  0  0  0
  -25.4467  -32.7836   26.0644 C   0  0  0  0  0  0  0  0  0  0  0  0
  -31.1956  -16.1517   20.7329 C   0  0  0  0  0  0  0  0  0  0  0  0
  -27.0451  -25.3743   17.9741 C   0  0  0  0  0  0  0  0  0  0  0  0
  -28.9832  -24.6163   18.4050 C   0  0  0  0  0  0  0  0  0  0  0  0
  -30.7100  -18.5652   21.3251 C   0  0  0  0  0  0  0  0  0  0  0  0
  -28.9272  -17.1891   20.3266 C   0  0  0  0  0  0  0  0  0  0  0  0
  -25.8287  -18.7665   17.2074 C   0  0  0  0  0  0  0  0  0  0  0  0
  -27.9120  -24.2502   17.3378 C   0  0  0  0  0  0  0  0  0  0  0  0
  -25.9560  -33.4283   24.7696 C   0  0  1  0  0  0  0  0  0  0  0  0
  -24.5829  -31.4598   21.8247 C   0  0  1  0  0  0  0  0  0  0  0  0
  -29.9483  -16.1537   19.8275 C   0  0  2  0  0  0  0  0  0  0  0  0
  -28.3547  -26.0254   18.4711 C   0  0  0  0  0  0  0  0  0  1  0  0
  -25.6058  -23.4810   15.6265 C   0  0  0  0  0  0  0  0  0  0  0  0
  -18.4836  -26.6899   21.6012 C   0  0  0  0  0  0  0  0  0  0  0  0
  -23.0350  -29.3309   25.6237 C   0  0  0  0  0  0  0  0  0  0  0  0
  -21.2132  -27.6538   25.2538 C   0  0  0  0  0  0  0  0  0  0  0  0
  -20.7107  -30.0925   25.1024 C   0  0  0  0  0  0  0  0  0  0  0  0
  -20.5843  -27.8315   18.6415 C   0  0  0  0  0  0  0  0  0  0  0  0
  -22.0470  -28.9858   23.2635 C   0  0  1  0  0  0  0  0  0  0  0  0
  -19.4714  -27.5802   20.8634 C   0  0  2  0  0  0  0  0  0  0  0  0
  -21.7743  -29.0163   24.7939 C   0  0  0  0  0  0  0  0  0  0  0  0
  -28.3687  -14.4070   20.5590 N   0  0  0  0  0  0  0  0  0  0  0  0
  -29.3406  -14.7690   19.7044 N   0  0  0  0  0  0  0  0  0  0  0  0
  -23.8865  -30.2145   22.1542 N   0  0  0  0  0  0  0  0  0  0  0  0
  -29.5606  -18.5139   20.4190 N   0  0  0  0  0  0  0  0  0  0  0  0
  -30.6236  -14.0001   17.8677 N   0  0  0  0  0  0  0  0  0  0  0  0
  -27.9392  -10.4914   18.8050 N   0  0  0  0  0  0  0  0  0  0  0  0
  -28.0751  -19.5040   18.8778 N   0  0  0  0  0  0  0  0  0  0  0  0
  -25.2017  -32.9443   23.6333 N   0  0  0  0  0  0  0  0  0  0  0  0
  -20.8653  -28.7170   22.4512 N   0  0  0  0  0  0  0  0  0  0  0  0
  -19.6546  -27.0392   19.4870 N   0  3  0  0  0  0  0  0  0  0  0  0
  -29.6140  -11.2388   17.4285 O   0  0  0  0  0  0  0  0  0  0  0  0
  -26.4093  -30.9913   23.2459 O   0  0  0  0  0  0  0  0  0  0  0  0
  -21.9697  -31.3255   22.8808 O   0  0  0  0  0  0  0  0  0  0  0  0
  -21.7005  -26.8229   21.4063 O   0  0  0  0  0  0  0  0  0  0  0  0
  -29.7522  -20.7540   19.8811 O   0  0  0  0  0  0  0  0  0  0  0  0
  -24.1112  -10.2605   22.8459 O   0  0  0  0  0  0  0  0  0  0  0  0
  -28.3072  -26.6309   19.7734 O   0  0  0  0  0  0  0  0  0  1  0  0
  -20.4548   -7.4903   19.7863 F   0  0  0  0  0  0  0  0  0  0  0  0
  -24.9331   -8.2809   21.0999 F   0  0  0  0  0  0  0  0  0  0  0  0
  1  2  1  0  0  0  0
  1  5  2  0  0  0  0
  2  6  2  0  0  0  0
  3  8  2  0  0  0  0
  3 17  1  0  0  0  0
  4  9  1  0  0  0  0
  4 17  2  0  0  0  0
  5 19  1  0  0  0  0
  6 21  1  0  0  0  0
  7 10  2  0  0  0  0
  7 20  1  0  0  0  0
  8 27  1  0  0  0  0
  9 27  2  0  0  0  0
 10 28  1  0  0  0  0
 11 12  2  0  0  0  0
 11 29  1  0  0  0  0
 12 30  1  0  0  0  0
 13 22  2  0  0  0  0
 13 25  1  0  0  0  0
 14 23  1  0  0  0  0
 14 26  2  0  0  0  0
 15 24  1  0  0  0  0
 15 28  2  0  0  0  0
 16 30  2  0  0  0  0
 16 31  1  0  0  0  0
 17 32  1  0  0  0  0
 18 32  1  0  0  0  0
 18 33  2  0  0  0  0
 18 34  1  0  0  0  0
 19 21  2  0  0  0  0
 19 39  1  0  0  0  0
 20 24  2  0  0  0  0
 20 40  1  0  0  0  0
 21 54  1  0  0  0  0
 22 26  1  0  0  0  0
 22 52  1  0  0  0  0
 23 25  2  0  0  0  0
 23 53  1  0  0  0  0
 24 41  1  0  0  0  0
 25 58  1  0  0  0  0
 26 73  1  0  0  0  0
 27 82  1  0  0  0  0
 28 83  1  0  0  0  0
 29 31  2  0  0  0  0
 29 82  1  0  0  0  0
 30 84  1  0  0  0  0
 31 85  1  0  0  0  0
 32 67  2  0  0  0  0
 33 68  1  0  0  0  0
 33 71  1  0  0  0  0
 34 72  1  0  0  0  0
 34 77  2  0  0  0  0
 35 55  1  0  0  0  0
 35 74  1  0  0  0  0
 35 78  2  0  0  0  0
 36 64  1  0  0  0  0
 36 69  1  0  0  0  0
 36 79  2  0  0  0  0
 37 65  1  0  0  0  0
 37 75  1  0  0  0  0
 37 80  2  0  0  0  0
 38 70  1  0  0  0  0
 38 73  1  0  0  0  0
 38 81  2  0  0  0  0
 39 42  1  0  0  0  0
 40 55  1  0  0  0  0
 41 69  1  0  0  0  0
 42 46  1  0  0  0  0
 43 47  1  0  0  0  0
 43 50  1  0  0  0  0
 44 45  1  0  0  0  0
 44 52  1  0  0  0  0
 45 52  1  0  0  0  0
 46 54  1  0  0  0  0
 47 56  1  0  0  0  0
 48 53  1  0  0  0  0
 48 57  1  0  0  0  0
 49 53  1  0  0  0  0
 49 57  1  0  0  0  0
 50 70  1  0  0  0  0
 51 56  1  0  0  0  0
 51 70  1  0  0  0  0
 54 74  1  0  0  0  0
 55 69  1  0  0  0  0
 56 68  1  0  0  0  0
 57 83  1  0  0  0  0
 59 65  1  0  0  0  0
 60 66  1  0  0  0  0
 61 66  1  0  0  0  0
 62 66  1  0  0  0  0
 63 76  1  0  0  0  0
 64 66  1  0  0  0  0
 64 75  1  0  0  0  0
 65 76  1  0  0  0  0
 67 68  1  0  0  0  0
M  CHG  1  76   1
M  ISO  4  38 100  57 101  73 100  83 101
M  END
> <Batch ID>
0167

> <Smiles>
CNC(C)C(=O)NC(C(=O)N1Cc2cc([101O:1][101CH:1]3CC(c4cc([100NH:0][100C:0](=O)N5CCCC(n6nc(-c7ccc(Oc8ccc(F)cc8F)cc7)c(C(N)=O)c6N)C5)c(C5CC5)cc4C)C3)ccc2CC1C(=O)NC1CCCc2ccccc21)C(C)(C)C

> <Shape>
0.335

> <Color>
0.088

> <Negative vol penalty>
0.000

$$$$

  -OEChem-04052322273D

 90100  0     1  0  0  0  0  0999 V2000
  -22.6108   -7.3533   21.7397 C   0  0  0  0  0  0  0  0  0  0  0  0
  -23.5073   -8.2632   21.1885 C   0  0  0  0  0  0  0  0  0  0  0  0
  -22.2947  -27.7017   20.2935 C   0  0  0  0  0  0  0  0  0  0  0  0
  -22.6832  -28.9480   22.3264 C   0  0  0  0  0  0  0  0  0  0  0  0
  -21.3145   -7.7578   22.0556 C   0  0  0  0  0  0  0  0  0  0  0  0
  -23.1075   -9.5779   20.9518 C   0  0  0  0  0  0  0  0  0  0  0  0
  -26.5681  -12.9596   22.4462 C   0  0  0  0  0  0  0  0  0  0  0  0
  -21.0056  -27.3942   20.7283 C   0  0  0  0  0  0  0  0  0  0  0  0
  -21.3939  -28.6405   22.7613 C   0  0  0  0  0  0  0  0  0  0  0  0
  -27.6703  -13.1527   21.6146 C   0  0  0  0  0  0  0  0  0  0  0  0
  -18.2453  -29.7178   22.1727 C   0  0  0  0  0  0  0  0  0  0  0  0
  -17.4853  -30.7497   22.7231 C   0  0  0  0  0  0  0  0  0  0  0  0
  -26.6438  -15.1471   20.7271 C   0  0  0  0  0  0  0  0  0  0  0  0
  -17.3182  -29.5209   24.7966 C   0  0  0  0  0  0  0  0  0  0  0  0
  -23.1336  -28.4786   21.0926 C   0  0  0  0  0  0  0  0  0  0  0  0
  -24.8632  -29.9123   19.8842 C   0  0  0  0  0  0  0  0  0  0  0  0
  -20.9016   -9.0806   21.8316 C   0  0  0  0  0  0  0  0  0  0  0  0
  -25.4888  -13.8544   22.4166 C   0  0  0  0  0  0  0  0  0  0  0  0
  -21.8040  -10.0002   21.2637 C   0  0  0  0  0  0  0  0  0  0  0  0
  -25.5302  -14.9646   21.5611 C   0  0  0  0  0  0  0  0  0  0  0  0
  -29.3698  -19.8911   18.6540 C   0  0  0  0  0  0  0  0  0  0  0  0
  -28.7475  -18.8708   17.9434 C   0  0  0  0  0  0  0  0  0  0  0  0
  -29.1448  -17.5527   18.1386 C   0  0  0  0  0  0  0  0  0  0  0  0
  -20.5552  -27.8636   21.9622 C   0  0  0  0  0  0  0  0  0  0  0  0
  -27.7070  -14.2449   20.7527 C   0  0  0  0  0  0  0  0  0  0  0  0
  -18.5418  -28.5873   22.9342 C   0  0  0  0  0  0  0  0  0  0  0  0
  -17.0217  -30.6513   24.0350 C   0  0  0  0  0  0  0  0  0  0  0  0
  -18.0783  -28.4889   24.2461 C   0  0  0  0  0  0  0  0  0  0  0  0
  -24.4656  -28.7961   20.6442 C   0  0  0  0  0  0  0  0  0  0  0  0
  -30.1612  -17.3097   19.0485 C   0  0  0  0  0  0  0  0  0  0  0  0
  -30.3759  -19.5434   19.5409 C   0  0  0  0  0  0  0  0  0  0  0  0
  -26.2180  -29.7535   19.7237 C   0  0  0  0  0  0  0  0  0  0  0  0
  -24.0782  -30.9959   19.3693 C   0  0  0  0  0  0  0  0  0  0  0  0
  -22.3997  -13.6200   21.7047 C   0  0  0  0  0  0  0  0  0  0  0  0
  -22.3281  -16.6943   22.7372 C   0  0  0  0  0  0  0  0  0  0  0  0
  -24.3939  -19.6333   22.4026 C   0  0  0  0  0  0  0  0  0  0  0  0
  -29.8500  -25.1433   19.6916 C   0  0  0  0  0  0  0  0  0  0  0  0
  -19.4757   -9.4591   22.1453 C   0  0  0  0  0  0  0  0  0  0  0  0
  -24.3191  -13.6469   23.3392 C   0  0  0  0  0  0  0  0  0  0  0  0
  -24.4061  -15.9655   21.5059 C   0  0  0  0  0  0  0  0  0  0  0  0
  -19.2460  -10.9668   22.2109 C   0  0  0  0  0  0  0  0  0  0  0  0
  -32.1388  -15.1971   21.1100 C   0  0  0  0  0  0  0  0  0  0  0  0
  -30.0502  -27.8428   21.8412 C   0  0  0  0  0  0  0  0  0  0  0  0
  -19.8974  -11.6584   21.0175 C   0  0  0  0  0  0  0  0  0  0  0  0
  -32.1247  -15.7937   19.7063 C   0  0  0  0  0  0  0  0  0  0  0  0
  -28.6827  -28.5132   21.7110 C   0  0  0  0  0  0  0  0  0  0  0  0
  -30.8859  -14.3425   21.1492 C   0  0  0  0  0  0  0  0  0  0  0  0
  -28.3859  -21.9541   19.7484 C   0  0  0  0  0  0  0  0  0  0  0  0
  -30.0987  -22.1984   17.9002 C   0  0  0  0  0  0  0  0  0  0  0  0
  -29.9135  -26.3249   21.8666 C   0  0  0  0  0  0  0  0  0  0  0  0
  -27.9960  -23.4218   19.5510 C   0  0  0  0  0  0  0  0  0  0  0  0
  -29.6519  -23.6474   17.7290 C   0  0  0  0  0  0  0  0  0  0  0  0
  -27.8308  -26.4240   20.5360 C   0  0  0  0  0  0  0  0  0  0  0  0
  -28.9515  -21.3361   18.4571 C   0  0  0  0  0  0  0  0  0  0  0  0
  -21.4154  -11.4414   21.0151 C   0  0  1  0  0  0  0  0  0  0  0  0
  -30.6374  -15.8942   19.3044 C   0  0  1  0  0  0  0  0  0  0  0  0
  -23.0471  -14.3367   22.8558 C   0  0  1  0  0  0  0  0  0  0  0  0
  -27.9107  -27.9637   20.4983 C   0  0  1  0  0  0  0  0  0  0  0  0
  -29.8561  -15.2175   20.4474 C   0  0  1  0  0  0  0  0  0  1  0  0
  -27.6557  -19.1885   16.9720 C   0  0  0  0  0  0  0  0  0  0  0  0
  -28.4968  -16.4362   17.3906 C   0  0  0  0  0  0  0  0  0  0  0  0
  -24.6678  -21.6160   23.9163 C   0  0  0  0  0  0  0  0  0  0  0  0
  -20.1850  -17.9681   20.9781 C   0  0  0  0  0  0  0  0  0  0  0  0
  -21.4215  -20.1372   21.1626 C   0  0  0  0  0  0  0  0  0  0  0  0
  -20.4873  -19.0581   23.2085 C   0  0  0  0  0  0  0  0  0  0  0  0
  -27.3256  -19.2578   22.5557 C   0  0  0  0  0  0  0  0  0  0  0  0
  -22.5147  -18.0446   22.0884 C   0  0  1  0  0  0  0  0  0  0  0  0
  -25.2425  -20.2757   23.4850 C   0  0  2  0  0  0  0  0  0  0  0  0
  -21.1651  -18.7788   21.8494 C   0  0  0  0  0  0  0  0  0  0  0  0
  -25.4853  -27.9877   20.9456 N   0  0  0  0  0  0  0  0  0  0  0  0
  -30.7892  -18.2745   19.7572 N   0  0  0  0  0  0  0  0  0  0  0  0
  -26.5370  -28.5966   20.3719 N   0  0  0  0  0  0  0  0  0  0  0  0
  -23.2816  -15.7157   22.4227 N   0  0  0  0  0  0  0  0  0  0  0  0
  -29.1722  -25.8428   20.7014 N   0  0  0  0  0  0  0  0  0  0  0  0
  -29.1148  -24.1838   18.9793 N   0  0  0  0  0  0  0  0  0  0  0  0
  -31.0131  -20.5778   20.2709 N   0  0  0  0  0  0  0  0  0  0  0  0
  -27.1557  -30.4918   19.0928 N   0  0  0  0  0  0  0  0  0  0  0  0
  -22.7005  -31.0041   19.6266 N   0  0  0  0  0  0  0  0  0  0  0  0
  -22.0518  -12.3115   21.9807 N   0  0  0  0  0  0  0  0  0  0  0  0
  -23.4521  -18.7772   22.9328 N   0  0  0  0  0  0  0  0  0  0  0  0
  -26.6313  -20.4967   22.9915 N   0  3  0  0  0  0  0  0  0  0  0  0
  -24.5807  -31.9208   18.6869 O   0  0  0  0  0  0  0  0  0  0  0  0
  -22.2272  -14.2110   20.6452 O   0  0  0  0  0  0  0  0  0  0  0  0
  -21.3756  -16.5166   23.5006 O   0  0  0  0  0  0  0  0  0  0  0  0
  -24.5485  -19.8704   21.2066 O   0  0  0  0  0  0  0  0  0  0  0  0
  -31.0415  -25.3630   19.4401 O   0  0  0  0  0  0  0  0  0  0  0  0
  -19.2972  -27.5639   22.3867 O   0  0  0  0  0  0  0  0  0  0  0  0
  -28.7906  -14.4370   19.9325 O   0  0  0  0  0  0  0  0  0  1  0  0
  -16.2932  -31.6431   24.5639 F   0  0  0  0  0  0  0  0  0  0  0  0
  -18.3609  -27.4058   24.9830 F   0  0  0  0  0  0  0  0  0  0  0  0
  1  2  1  0  0  0  0
  1  5  2  0  0  0  0
  2  6  2  0  0  0  0
  3  8  2  0  0  0  0
  3 15  1  0  0  0  0
  4  9  1  0  0  0  0
  4 15  2  0  0  0  0
  5 17  1  0  0  0  0
  6 19  1  0  0  0  0
  7 10  2  0  0  0  0
  7 18  1  0  0  0  0
  8 24  1  0  0  0  0
  9 24  2  0  0  0  0
 10 25  1  0  0  0  0
 11 12  2  0  0  0  0
 11 26  1  0  0  0  0
 12 27  1  0  0  0  0
 13 20  1  0  0  0  0
 13 25  2  0  0  0  0
 14 27  2  0  0  0  0
 14 28  1  0  0  0  0
 15 29  1  0  0  0  0
 16 29  1  0  0  0  0
 16 32  2  0  0  0  0
 16 33  1  0  0  0  0
 17 19  2  0  0  0  0
 17 38  1  0  0  0  0
 18 20  2  0  0  0  0
 18 39  1  0  0  0  0
 19 55  1  0  0  0  0
 20 40  1  0  0  0  0
 21 22  2  0  0  0  0
 21 31  1  0  0  0  0
 21 54  1  0  0  0  0
 22 23  1  0  0  0  0
 22 60  1  0  0  0  0
 23 30  2  0  0  0  0
 23 61  1  0  0  0  0
 24 87  1  0  0  0  0
 25 88  1  0  0  0  0
 26 28  2  0  0  0  0
 26 87  1  0  0  0  0
 27 89  1  0  0  0  0
 28 90  1  0  0  0  0
 29 70  2  0  0  0  0
 30 56  1  0  0  0  0
 30 71  1  0  0  0  0
 31 71  2  0  0  0  0
 31 76  1  0  0  0  0
 32 72  1  0  0  0  0
 32 77  1  0  0  0  0
 33 78  1  0  0  0  0
 33 82  2  0  0  0  0
 34 57  1  0  0  0  0
 34 79  1  0  0  0  0
 34 83  2  0  0  0  0
 35 67  1  0  0  0  0
 35 73  1  0  0  0  0
 35 84  2  0  0  0  0
 36 68  1  0  0  0  0
 36 80  1  0  0  0  0
 36 85  2  0  0  0  0
 37 74  1  0  0  0  0
 37 75  1  0  0  0  0
 37 86  2  0  0  0  0
 38 41  1  0  0  0  0
 39 57  1  0  0  0  0
 40 73  1  0  0  0  0
 41 44  1  0  0  0  0
 42 45  1  0  0  0  0
 42 47  1  0  0  0  0
 43 46  1  0  0  0  0
 43 50  1  0  0  0  0
 44 55  1  0  0  0  0
 45 56  1  0  0  0  0
 46 58  1  0  0  0  0
 47 59  1  0  0  0  0
 48 51  1  0  0  0  0
 48 54  1  0  0  0  0
 49 52  1  0  0  0  0
 49 54  1  0  0  0  0
 50 74  1  0  0  0  0
 51 75  1  0  0  0  0
 52 75  1  0  0  0  0
 53 58  1  0  0  0  0
 53 74  1  0  0  0  0
 55 79  1  0  0  0  0
 56 59  1  0  0  0  0
 57 73  1  0  0  0  0
 58 72  1  0  0  0  0
 59 88  1  0  0  0  0
 62 68  1  0  0  0  0
 63 69  1  0  0  0  0
 64 69  1  0  0  0  0
 65 69  1  0  0  0  0
 66 81  1  0  0  0  0
 67 69  1  0  0  0  0
 67 80  1  0  0  0  0
 68 81  1  0  0  0  0
 70 72  1  0  0  0  0
M  CHG  1  81   1
M  ISO  4  37 100  59 101  75 100  88 101
M  END
> <Batch ID>
0167

> <Smiles>
CNC(C)C(=O)NC(C(=O)N1Cc2cc([101O:1][101CH:1]3CCCC3c3nc(N)c(C4CC[100N:0]([100C:0](=O)N5CCCC(n6nc(-c7ccc(Oc8ccc(F)cc8F)cc7)c(C(N)=O)c6N)C5)CC4)c(C)c3C)ccc2CC1C(=O)NC1CCCc2ccccc21)C(C)(C)C

> <Shape>
0.282

> <Color>
0.093

> <Negative vol penalty>
0.000

$$$$

  -OEChem-04052322273D

 86 96  0     1  0  0  0  0  0999 V2000
  -32.4908  -26.2667   22.8799 C   0  0  0  0  0  0  0  0  0  0  0  0
  -31.9971  -27.5610   22.7605 C   0  0  0  0  0  0  0  0  0  0  0  0
  -27.1030  -17.5457   21.2702 C   0  0  0  0  0  0  0  0  0  0  0  0
  -25.5919  -18.5651   19.6845 C   0  0  0  0  0  0  0  0  0  0  0  0
  -32.4820  -25.4169   21.7758 C   0  0  0  0  0  0  0  0  0  0  0  0
  -31.4837  -28.0019   21.5403 C   0  0  0  0  0  0  0  0  0  0  0  0
  -25.1705  -27.3567   17.1834 C   0  0  0  0  0  0  0  0  0  0  0  0
  -26.7891  -16.2862   20.7597 C   0  0  0  0  0  0  0  0  0  0  0  0
  -25.2780  -17.3056   19.1739 C   0  0  0  0  0  0  0  0  0  0  0  0
  -24.3113  -26.2674   17.0451 C   0  0  0  0  0  0  0  0  0  0  0  0
  -24.2749  -14.0438   21.0336 C   0  0  0  0  0  0  0  0  0  0  0  0
  -24.0220  -13.0199   21.9464 C   0  0  0  0  0  0  0  0  0  0  0  0
  -18.3939  -25.4297   19.5721 C   0  0  0  0  0  0  0  0  0  0  0  0
  -20.7324  -23.9243   19.7920 C   0  0  0  0  0  0  0  0  0  0  0  0
  -24.3854  -25.9139   19.4302 C   0  0  0  0  0  0  0  0  0  0  0  0
  -25.8592  -11.7475   21.0283 C   0  0  0  0  0  0  0  0  0  0  0  0
  -26.5044  -18.6852   20.7327 C   0  0  0  0  0  0  0  0  0  0  0  0
  -27.8571  -20.8457   20.8311 C   0  0  0  0  0  0  0  0  0  0  0  0
  -31.9794  -25.8526   20.5386 C   0  0  0  0  0  0  0  0  0  0  0  0
  -25.6530  -27.7266   18.4470 C   0  0  0  0  0  0  0  0  0  0  0  0
  -31.4441  -27.1514   20.4207 C   0  0  0  0  0  0  0  0  0  0  0  0
  -19.0334  -24.9629   18.4237 C   0  0  0  0  0  0  0  0  0  0  0  0
  -20.0929  -24.3912   20.9404 C   0  0  0  0  0  0  0  0  0  0  0  0
  -25.2485  -27.0098   19.5822 C   0  0  0  0  0  0  0  0  0  0  0  0
  -18.9237  -25.1439   20.8304 C   0  0  0  0  0  0  0  0  0  0  0  0
  -20.2026  -24.2102   18.5337 C   0  0  0  0  0  0  0  0  0  0  0  0
  -25.8767  -16.1661   19.7115 C   0  0  0  0  0  0  0  0  0  0  0  0
  -23.9209  -25.5441   18.1682 C   0  0  0  0  0  0  0  0  0  0  0  0
  -25.3200  -13.9195   20.1180 C   0  0  0  0  0  0  0  0  0  0  0  0
  -24.8141  -11.8718   21.9438 C   0  0  0  0  0  0  0  0  0  0  0  0
  -26.1121  -12.7714   20.1154 C   0  0  0  0  0  0  0  0  0  0  0  0
  -26.8278  -19.9865   21.2600 C   0  0  0  0  0  0  0  0  0  0  0  0
  -27.7459  -21.9473   21.6440 C   0  0  0  0  0  0  0  0  0  0  0  0
  -28.8271  -20.6644   19.7910 C   0  0  0  0  0  0  0  0  0  0  0  0
  -28.5312  -27.9105   19.7833 C   0  0  0  0  0  0  0  0  0  0  0  0
  -26.8753  -29.2199   22.2462 C   0  0  0  0  0  0  0  0  0  0  0  0
  -23.9006  -29.5516   23.8857 C   0  0  0  0  0  0  0  0  0  0  0  0
  -23.0336  -24.1375   24.7678 C   0  0  0  0  0  0  0  0  0  0  0  0
  -31.9869  -24.8887   19.3784 C   0  0  0  0  0  0  0  0  0  0  0  0
  -26.5579  -28.9205   18.5825 C   0  0  0  0  0  0  0  0  0  0  0  0
  -25.7222  -27.3786   20.9635 C   0  0  0  0  0  0  0  0  0  0  0  0
  -31.8368  -25.5822   18.0283 C   0  0  0  0  0  0  0  0  0  0  0  0
  -26.3085  -23.2851   25.9847 C   0  0  0  0  0  0  0  0  0  0  0  0
  -18.9574  -26.4839   16.3369 C   0  0  0  0  0  0  0  0  0  0  0  0
  -17.5874  -26.5068   16.9393 C   0  0  0  0  0  0  0  0  0  0  0  0
  -30.6636  -26.5500   18.0687 C   0  0  0  0  0  0  0  0  0  0  0  0
  -26.8874  -22.3765   24.9053 C   0  0  0  0  0  0  0  0  0  0  0  0
  -24.8057  -23.0798   26.1202 C   0  0  0  0  0  0  0  0  0  0  0  0
  -22.1082  -23.3899   22.4344 C   0  0  0  0  0  0  0  0  0  0  0  0
  -21.3172  -25.1994   23.2047 C   0  0  0  0  0  0  0  0  0  0  0  0
  -24.6288  -22.4329   23.7319 C   0  0  0  0  0  0  0  0  0  0  0  0
  -18.4496  -25.2816   17.0873 C   0  0  0  0  0  0  0  0  0  0  0  0
  -20.7121  -24.0543   22.3603 C   0  0  0  0  0  0  0  0  0  0  0  0
  -30.9087  -27.6629   19.0955 C   0  0  1  0  0  0  0  0  0  0  0  0
  -27.3967  -28.8929   19.8565 C   0  0  1  0  0  0  0  0  0  0  0  0
  -26.1541  -22.5904   23.5734 C   0  0  2  0  0  0  0  0  0  0  0  0
  -18.2253  -25.6541   22.0474 C   0  0  0  0  0  0  0  0  0  0  0  0
  -22.8673  -30.6565   25.8879 C   0  0  0  0  0  0  0  0  0  0  0  0
  -28.1749  -27.1401   24.0615 C   0  0  0  0  0  0  0  0  0  0  0  0
  -26.4354  -27.6597   25.7855 C   0  0  0  0  0  0  0  0  0  0  0  0
  -28.0241  -29.4346   25.0448 C   0  0  0  0  0  0  0  0  0  0  0  0
  -22.0220  -31.1026   22.2052 C   0  0  0  0  0  0  0  0  0  0  0  0
  -20.9062  -23.6981   17.3197 C   0  0  0  0  0  0  0  0  0  0  0  0
  -22.1474  -24.5188   16.9601 C   0  0  0  0  0  0  0  0  0  1  0  0
  -26.1881  -28.6822   23.4781 C   0  0  1  0  0  0  0  0  0  0  0  0
  -23.1657  -30.7757   24.4015 C   0  0  2  0  0  0  0  0  0  0  0  0
  -27.1980  -28.2208   24.5664 C   0  0  0  0  0  0  0  0  0  0  0  0
  -26.1152  -20.4981   22.2672 N   0  0  0  0  0  0  0  0  0  0  0  0
  -26.6977  -21.6907   22.4781 N   0  0  0  0  0  0  0  0  0  0  0  0
  -26.6107  -28.5498   21.0434 N   0  0  0  0  0  0  0  0  0  0  0  0
  -24.1086  -23.2446   24.8410 N   0  0  0  0  0  0  0  0  0  0  0  0
  -22.3676  -24.2573   23.5709 N   0  0  0  0  0  0  0  0  0  0  0  0
  -28.4435  -23.1006   21.7196 N   0  0  0  0  0  0  0  0  0  0  0  0
  -28.8000  -19.4736   19.0524 N   0  0  0  0  0  0  0  0  0  0  0  0
  -29.6956  -28.4341   19.2545 N   0  0  0  0  0  0  0  0  0  0  0  0
  -25.2681  -29.7246   23.9201 N   0  0  0  0  0  0  0  0  0  0  0  0
  -21.8758  -30.9495   23.6756 N   0  3  0  0  0  0  0  0  0  0  0  0
  -29.7025  -21.5257   19.5353 O   0  0  0  0  0  0  0  0  0  0  0  0
  -28.3632  -26.7629   20.1788 O   0  0  0  0  0  0  0  0  0  0  0  0
  -27.6140  -30.2028   22.3462 O   0  0  0  0  0  0  0  0  0  0  0  0
  -23.3197  -28.5414   23.4950 O   0  0  0  0  0  0  0  0  0  0  0  0
  -22.6576  -24.7891   25.7513 O   0  0  0  0  0  0  0  0  0  0  0  0
  -25.5703  -14.9372   19.2129 O   0  0  0  0  0  0  0  0  0  0  0  0
  -23.0770  -24.4726   18.0351 O   0  0  0  0  0  0  0  0  0  1  0  0
  -24.5721  -10.8894   22.8215 F   0  0  0  0  0  0  0  0  0  0  0  0
  -27.1182  -12.6468   19.2391 F   0  0  0  0  0  0  0  0  0  0  0  0
  1  2  1  0  0  0  0
  1  5  2  0  0  0  0
  2  6  2  0  0  0  0
  3  8  2  0  0  0  0
  3 17  1  0  0  0  0
  4  9  1  0  0  0  0
  4 17  2  0  0  0  0
  5 19  1  0  0  0  0
  6 21  1  0  0  0  0
  7 10  2  0  0  0  0
  7 20  1  0  0  0  0
  8 27  1  0  0  0  0
  9 27  2  0  0  0  0
 10 28  1  0  0  0  0
 11 12  2  0  0  0  0
 11 29  1  0  0  0  0
 12 30  1  0  0  0  0
 13 22  1  0  0  0  0
 13 25  2  0  0  0  0
 14 23  2  0  0  0  0
 14 26  1  0  0  0  0
 15 24  1  0  0  0  0
 15 28  2  0  0  0  0
 16 30  2  0  0  0  0
 16 31  1  0  0  0  0
 17 32  1  0  0  0  0
 18 32  1  0  0  0  0
 18 33  2  0  0  0  0
 18 34  1  0  0  0  0
 19 21  2  0  0  0  0
 19 39  1  0  0  0  0
 20 24  2  0  0  0  0
 20 40  1  0  0  0  0
 21 54  1  0  0  0  0
 22 26  2  0  0  0  0
 22 52  1  0  0  0  0
 23 25  1  0  0  0  0
 23 53  1  0  0  0  0
 24 41  1  0  0  0  0
 25 57  1  0  0  0  0
 26 63  1  0  0  0  0
 27 83  1  0  0  0  0
 28 84  1  0  0  0  0
 29 31  2  0  0  0  0
 29 83  1  0  0  0  0
 30 85  1  0  0  0  0
 31 86  1  0  0  0  0
 32 68  2  0  0  0  0
 33 69  1  0  0  0  0
 33 73  1  0  0  0  0
 34 74  1  0  0  0  0
 34 78  2  0  0  0  0
 35 55  1  0  0  0  0
 35 75  1  0  0  0  0
 35 79  2  0  0  0  0
 36 65  1  0  0  0  0
 36 70  1  0  0  0  0
 36 80  2  0  0  0  0
 37 66  1  0  0  0  0
 37 76  1  0  0  0  0
 37 81  2  0  0  0  0
 38 71  1  0  0  0  0
 38 72  1  0  0  0  0
 38 82  2  0  0  0  0
 39 42  1  0  0  0  0
 40 55  1  0  0  0  0
 41 70  1  0  0  0  0
 42 46  1  0  0  0  0
 43 47  1  0  0  0  0
 43 48  1  0  0  0  0
 44 45  1  0  0  0  0
 44 52  1  0  0  0  0
 45 52  1  0  0  0  0
 46 54  1  0  0  0  0
 47 56  1  0  0  0  0
 48 71  1  0  0  0  0
 49 53  1  0  0  0  0
 49 72  1  0  0  0  0
 50 53  1  0  0  0  0
 50 72  1  0  0  0  0
 51 56  1  0  0  0  0
 51 71  1  0  0  0  0
 54 75  1  0  0  0  0
 55 70  1  0  0  0  0
 56 69  1  0  0  0  0
 58 66  1  0  0  0  0
 59 67  1  0  0  0  0
 60 67  1  0  0  0  0
 61 67  1  0  0  0  0
 62 77  1  0  0  0  0
 63 64  1  0  0  0  0
 64 84  1  0  0  0  0
 65 67  1  0  0  0  0
 65 76  1  0  0  0  0
 66 77  1  0  0  0  0
 68 69  1  0  0  0  0
M  CHG  1  77   1
M  ISO  4  38 100  64 101  72 100  84 101
M  END
> <Batch ID>
0167

> <Smiles>
CNC(C)C(=O)NC(C(=O)N1Cc2cc([101O:1][101CH2:1]Cc3cc(C4C[100N:0]([100C:0](=O)N5CCCC(n6nc(-c7ccc(Oc8ccc(F)cc8F)cc7)c(C(N)=O)c6N)C5)C4)c(C)cc3C3CC3)ccc2CC1C(=O)NC1CCCc2ccccc21)C(C)(C)C

> <Shape>
0.185

> <Color>
0.079

> <Negative vol penalty>
0.000

$$$$

  -OEChem-04052322273D

 82 91  0     1  0  0  0  0  0999 V2000
  -25.8111  -32.4315   28.0896 C   0  0  0  0  0  0  0  0  0  0  0  0
  -26.1707  -31.0885   28.1383 C   0  0  0  0  0  0  0  0  0  0  0  0
  -23.1314   -9.8674   21.4474 C   0  0  0  0  0  0  0  0  0  0  0  0
  -24.0100  -10.7368   23.5233 C   0  0  0  0  0  0  0  0  0  0  0  0
  -25.6187  -33.0562   26.8580 C   0  0  0  0  0  0  0  0  0  0  0  0
  -26.3370  -30.3690   26.9555 C   0  0  0  0  0  0  0  0  0  0  0  0
  -30.2274  -25.0424   24.1611 C   0  0  0  0  0  0  0  0  0  0  0  0
  -22.4623   -8.8654   22.1502 C   0  0  0  0  0  0  0  0  0  0  0  0
  -23.3407   -9.7348   24.2261 C   0  0  0  0  0  0  0  0  0  0  0  0
  -30.0696  -23.8339   23.4841 C   0  0  0  0  0  0  0  0  0  0  0  0
  -23.2195   -5.9028   23.5902 C   0  0  0  0  0  0  0  0  0  0  0  0
  -23.2897   -4.6031   23.0888 C   0  0  0  0  0  0  0  0  0  0  0  0
  -29.7881  -25.0379   21.4128 C   0  0  0  0  0  0  0  0  0  0  0  0
  -20.8846   -4.5599   22.8639 C   0  0  0  0  0  0  0  0  0  0  0  0
  -23.9053  -10.8030   22.1340 C   0  0  0  0  0  0  0  0  0  0  0  0
  -24.1097  -13.1169   21.0795 C   0  0  0  0  0  0  0  0  0  0  0  0
  -25.7922  -32.3466   25.6593 C   0  0  0  0  0  0  0  0  0  0  0  0
  -30.1557  -26.2602   23.4697 C   0  0  0  0  0  0  0  0  0  0  0  0
  -26.1455  -30.9845   25.7068 C   0  0  0  0  0  0  0  0  0  0  0  0
  -29.9478  -26.2604   22.0830 C   0  0  0  0  0  0  0  0  0  0  0  0
  -22.5669   -8.7992   23.5395 C   0  0  0  0  0  0  0  0  0  0  0  0
  -29.8471  -23.8316   22.1102 C   0  0  0  0  0  0  0  0  0  0  0  0
  -21.9818   -6.5311   23.7285 C   0  0  0  0  0  0  0  0  0  0  0  0
  -22.1223   -3.9316   22.7257 C   0  0  0  0  0  0  0  0  0  0  0  0
  -20.8144   -5.8596   23.3653 C   0  0  0  0  0  0  0  0  0  0  0  0
  -24.5973  -11.8379   21.4085 C   0  0  0  0  0  0  0  0  0  0  0  0
  -25.1410  -13.7119   20.3948 C   0  0  0  0  0  0  0  0  0  0  0  0
  -22.8382  -13.7137   21.3671 C   0  0  0  0  0  0  0  0  0  0  0  0
  -28.2522  -28.8028   23.5961 C   0  0  0  0  0  0  0  0  0  0  0  0
  -30.3706  -30.0097   21.4564 C   0  0  0  0  0  0  0  0  0  0  0  0
  -32.7304  -29.4136   19.0642 C   0  0  0  0  0  0  0  0  0  0  0  0
  -30.7338  -14.7504   20.3512 C   0  0  0  0  0  0  0  0  0  0  0  0
  -25.5270  -33.0523   24.3530 C   0  0  0  0  0  0  0  0  0  0  0  0
  -30.3545  -27.5542   24.2103 C   0  0  0  0  0  0  0  0  0  0  0  0
  -29.8826  -27.5399   21.2911 C   0  0  0  0  0  0  0  0  0  0  0  0
  -26.0887  -32.3173   23.1387 C   0  0  0  0  0  0  0  0  0  0  0  0
  -29.4251  -11.7938   18.5383 C   0  0  0  0  0  0  0  0  0  0  0  0
  -25.7412  -30.8335   23.2049 C   0  0  0  0  0  0  0  0  0  0  0  0
  -28.0417  -11.6112   19.1599 C   0  0  0  0  0  0  0  0  0  0  0  0
  -31.3418  -18.0793   21.1164 C   0  0  0  0  0  0  0  0  0  0  0  0
  -29.2834  -17.8869   19.6646 C   0  0  0  0  0  0  0  0  0  0  0  0
  -29.8765  -22.1763   19.1020 C   0  0  0  0  0  0  0  0  0  0  0  0
  -30.3993  -12.4550   19.5082 C   0  0  0  0  0  0  0  0  0  0  0  0
  -30.9561  -16.7606   21.7813 C   0  0  0  0  0  0  0  0  0  0  0  0
  -28.9517  -16.5540   20.3421 C   0  0  0  0  0  0  0  0  0  0  0  0
  -28.5271  -13.5679   20.6824 C   0  0  0  0  0  0  0  0  0  0  0  0
  -29.3562  -20.7579   19.2101 C   0  0  0  0  0  0  0  0  0  0  0  0
  -26.3595  -30.1769   24.4450 C   0  0  1  0  0  0  0  0  0  0  0  0
  -29.7501  -28.7547   23.4886 C   0  0  1  0  0  0  0  0  0  0  0  0
  -27.5104  -12.9442   19.7143 C   0  0  2  0  0  0  0  0  0  0  0  0
  -30.0951  -18.7887   20.5920 C   0  0  0  0  0  0  0  0  0  0  0  0
  -30.6306  -22.3665   20.4086 C   0  0  2  0  0  0  0  0  0  1  0  0
  -31.3089  -21.0210   20.6769 C   0  0  2  0  0  0  0  0  0  0  0  0
  -32.7566  -20.9836   20.2052 C   0  0  0  0  0  0  0  0  0  0  0  0
  -34.2588  -30.5998   17.4660 C   0  0  0  0  0  0  0  0  0  0  0  0
  -27.9987  -30.5996   19.6299 C   0  0  0  0  0  0  0  0  0  0  0  0
  -29.6143  -30.8778   17.7377 C   0  0  0  0  0  0  0  0  0  0  0  0
  -29.7292  -32.4034   19.7080 C   0  0  0  0  0  0  0  0  0  0  0  0
  -35.1424  -28.2586   20.3320 C   0  0  0  0  0  0  0  0  0  0  0  0
  -30.4904  -30.0048   19.9516 C   0  0  1  0  0  0  0  0  0  0  0  0
  -34.1183  -29.9909   18.8525 C   0  0  2  0  0  0  0  0  0  0  0  0
  -29.4574  -30.9472   19.2717 C   0  0  0  0  0  0  0  0  0  0  0  0
  -25.8416  -11.6317   20.9689 N   0  0  0  0  0  0  0  0  0  0  0  0
  -26.1445  -12.7890   20.3566 N   0  0  0  0  0  0  0  0  0  0  0  0
  -30.0767  -28.7794   22.0614 N   0  0  0  0  0  0  0  0  0  0  0  0
  -29.8530  -13.6957   20.0584 N   0  0  0  0  0  0  0  0  0  0  0  0
  -30.1683  -15.9229   20.8748 N   0  0  0  0  0  0  0  0  0  0  0  0
  -25.2783  -14.9293   19.8277 N   0  0  0  0  0  0  0  0  0  0  0  0
  -21.8937  -12.9630   22.0804 N   0  0  0  0  0  0  0  0  0  0  0  0
  -27.7699  -29.9289   24.2354 N   0  0  0  0  0  0  0  0  0  0  0  0
  -31.8813  -30.3274   19.6518 N   0  0  0  0  0  0  0  0  0  0  0  0
  -30.5070  -20.0065   19.8470 N   0  3  2  0  0  0  0  0  0  0  0  0
  -35.1507  -28.9271   19.0054 N   0  3  0  0  0  0  0  0  0  0  0  0
  -22.5421  -14.8723   20.9882 O   0  0  0  0  0  0  0  0  0  0  0  0
  -27.5834  -27.8868   23.1320 O   0  0  0  0  0  0  0  0  0  0  0  0
  -30.5387  -31.0648   22.0731 O   0  0  0  0  0  0  0  0  0  0  0  0
  -32.4286  -28.2679   18.7374 O   0  0  0  0  0  0  0  0  0  0  0  0
  -31.9512  -14.6498   20.1539 O   0  0  0  0  0  0  0  0  0  0  0  0
  -21.9138   -7.8217   24.2256 O   0  0  0  0  0  0  0  0  0  0  0  0
  -29.6912  -22.6464   21.4431 O   0  0  0  0  0  0  0  0  0  1  0  0
  -22.1900   -2.6840   22.2428 F   0  0  0  0  0  0  0  0  0  0  0  0
  -19.6226   -6.4584   23.4948 F   0  0  0  0  0  0  0  0  0  0  0  0
  1  2  1  0  0  0  0
  1  5  2  0  0  0  0
  2  6  2  0  0  0  0
  3  8  2  0  0  0  0
  3 15  1  0  0  0  0
  4  9  1  0  0  0  0
  4 15  2  0  0  0  0
  5 17  1  0  0  0  0
  6 19  1  0  0  0  0
  7 10  2  0  0  0  0
  7 18  1  0  0  0  0
  8 21  1  0  0  0  0
  9 21  2  0  0  0  0
 10 22  1  0  0  0  0
 11 12  2  0  0  0  0
 11 23  1  0  0  0  0
 12 24  1  0  0  0  0
 13 20  1  0  0  0  0
 13 22  2  0  0  0  0
 14 24  2  0  0  0  0
 14 25  1  0  0  0  0
 15 26  1  0  0  0  0
 16 26  1  0  0  0  0
 16 27  2  0  0  0  0
 16 28  1  0  0  0  0
 17 19  2  0  0  0  0
 17 33  1  0  0  0  0
 18 20  2  0  0  0  0
 18 34  1  0  0  0  0
 19 48  1  0  0  0  0
 20 35  1  0  0  0  0
 21 79  1  0  0  0  0
 22 80  1  0  0  0  0
 23 25  2  0  0  0  0
 23 79  1  0  0  0  0
 24 81  1  0  0  0  0
 25 82  1  0  0  0  0
 26 63  2  0  0  0  0
 27 64  1  0  0  0  0
 27 68  1  0  0  0  0
 28 69  1  0  0  0  0
 28 74  2  0  0  0  0
 29 49  1  0  0  0  0
 29 70  1  0  0  0  0
 29 75  2  0  0  0  0
 30 60  1  0  0  0  0
 30 65  1  0  0  0  0
 30 76  2  0  0  0  0
 31 61  1  0  0  0  0
 31 71  1  0  0  0  0
 31 77  2  0  0  0  0
 32 66  1  0  0  0  0
 32 67  1  0  0  0  0
 32 78  2  0  0  0  0
 33 36  1  0  0  0  0
 34 49  1  0  0  0  0
 35 65  1  0  0  0  0
 36 38  1  0  0  0  0
 37 39  1  0  0  0  0
 37 43  1  0  0  0  0
 38 48  1  0  0  0  0
 39 50  1  0  0  0  0
 40 44  1  0  0  0  0
 40 51  1  0  0  0  0
 41 45  1  0  0  0  0
 41 51  1  0  0  0  0
 42 47  1  0  0  0  0
 42 52  1  0  0  0  0
 43 66  1  0  0  0  0
 44 67  1  0  0  0  0
 45 67  1  0  0  0  0
 46 50  1  0  0  0  0
 46 66  1  0  0  0  0
 47 72  1  0  0  0  0
 48 70  1  0  0  0  0
 49 65  1  0  0  0  0
 50 64  1  0  0  0  0
 51 72  1  0  0  0  0
 52 53  1  0  0  0  0
 52 80  1  0  0  0  0
 53 54  1  0  0  0  0
 53 72  1  0  0  0  0
 55 61  1  0  0  0  0
 56 62  1  0  0  0  0
 57 62  1  0  0  0  0
 58 62  1  0  0  0  0
 59 73  1  0  0  0  0
 60 62  1  0  0  0  0
 60 71  1  0  0  0  0
 61 73  1  0  0  0  0
 63 64  1  0  0  0  0
M  CHG  2  72   1  73   1
M  ISO  4  32 100  52 101  67 100  80 101
M  END
> <Batch ID>
0167

> <Smiles>
CNC(C)C(=O)NC(C(=O)N1Cc2cc([101O:1][101CH:1]3CCN(C4CC[100N:0]([100C:0](=O)N5CCCC(n6nc(-c7ccc(Oc8ccc(F)cc8F)cc7)c(C(N)=O)c6N)C5)CC4)C3C)ccc2CC1C(=O)NC1CCCc2ccccc21)C(C)(C)C

> <Shape>
0.283

> <Color>
0.156

> <Negative vol penalty>
0.000

$$$$

  -OEChem-04052322273D

 84 94  0     1  0  0  0  0  0999 V2000
  -17.2620  -26.2309   21.7786 C   0  0  0  0  0  0  0  0  0  0  0  0
  -18.5562  -25.9232   21.3712 C   0  0  0  0  0  0  0  0  0  0  0  0
  -22.5443  -14.6231   23.1233 C   0  0  0  0  0  0  0  0  0  0  0  0
  -22.5358  -15.5182   20.8793 C   0  0  0  0  0  0  0  0  0  0  0  0
  -17.0244  -27.3790   22.5332 C   0  0  0  0  0  0  0  0  0  0  0  0
  -19.6133  -26.7641   21.7172 C   0  0  0  0  0  0  0  0  0  0  0  0
  -23.6648  -24.2133   23.3675 C   0  0  0  0  0  0  0  0  0  0  0  0
  -21.4235  -15.3928   23.4346 C   0  0  0  0  0  0  0  0  0  0  0  0
  -21.4149  -16.2879   21.1906 C   0  0  0  0  0  0  0  0  0  0  0  0
  -24.4712  -23.6074   22.4050 C   0  0  0  0  0  0  0  0  0  0  0  0
  -18.7685  -18.7599   21.5001 C   0  0  0  0  0  0  0  0  0  0  0  0
  -18.7634  -20.0931   21.0903 C   0  0  0  0  0  0  0  0  0  0  0  0
  -26.0260  -25.4453   22.5594 C   0  0  0  0  0  0  0  0  0  0  0  0
  -20.7427  -20.5072   22.4124 C   0  0  0  0  0  0  0  0  0  0  0  0
  -23.1005  -14.6858   21.8457 C   0  0  0  0  0  0  0  0  0  0  0  0
  -24.2745  -12.5840   21.0019 C   0  0  0  0  0  0  0  0  0  0  0  0
  -18.0806  -28.2293   22.8967 C   0  0  0  0  0  0  0  0  0  0  0  0
  -24.0281  -25.4471   23.9261 C   0  0  0  0  0  0  0  0  0  0  0  0
  -19.3894  -27.9254   22.4761 C   0  0  0  0  0  0  0  0  0  0  0  0
  -25.2238  -26.0635   23.5307 C   0  0  0  0  0  0  0  0  0  0  0  0
  -20.8587  -16.2251   22.4683 C   0  0  0  0  0  0  0  0  0  0  0  0
  -25.6506  -24.2247   21.9987 C   0  0  0  0  0  0  0  0  0  0  0  0
  -19.7607  -18.3003   22.3662 C   0  0  0  0  0  0  0  0  0  0  0  0
  -19.7505  -20.9668   21.5464 C   0  0  0  0  0  0  0  0  0  0  0  0
  -20.7478  -19.1739   22.8223 C   0  0  0  0  0  0  0  0  0  0  0  0
  -24.2587  -13.8914   21.5237 C   0  0  0  0  0  0  0  0  0  0  0  0
  -25.6081  -12.2810   20.8751 C   0  0  0  0  0  0  0  0  0  0  0  0
  -23.1813  -11.7207   20.6622 C   0  0  0  0  0  0  0  0  0  0  0  0
  -22.7355  -28.3504   23.9849 C   0  0  0  0  0  0  0  0  0  0  0  0
  -25.1934  -28.9788   26.0062 C   0  0  0  0  0  0  0  0  0  0  0  0
  -28.3286  -28.1793   27.0918 C   0  0  0  0  0  0  0  0  0  0  0  0
  -30.4902  -15.4405   20.1446 C   0  0  0  0  0  0  0  0  0  0  0  0
  -17.7680  -29.4840   23.6731 C   0  0  0  0  0  0  0  0  0  0  0  0
  -23.1608  -26.0746   24.9828 C   0  0  0  0  0  0  0  0  0  0  0  0
  -25.6689  -27.3786   24.1145 C   0  0  0  0  0  0  0  0  0  0  0  0
  -18.9957  -30.1242   24.3160 C   0  0  0  0  0  0  0  0  0  0  0  0
  -29.4327  -16.8787   16.8850 C   0  0  0  0  0  0  0  0  0  0  0  0
  -29.8815  -13.2808   22.7698 C   0  0  0  0  0  0  0  0  0  0  0  0
  -20.1443  -30.1996   23.3151 C   0  0  0  0  0  0  0  0  0  0  0  0
  -29.1833  -18.3422   17.2239 C   0  0  0  0  0  0  0  0  0  0  0  0
  -28.3713  -13.0519   22.7071 C   0  0  0  0  0  0  0  0  0  0  0  0
  -30.8481  -18.7300   19.8474 C   0  0  0  0  0  0  0  0  0  0  0  0
  -30.2930  -20.1365   19.5790 C   0  0  0  0  0  0  0  0  0  0  0  0
  -27.8835  -20.2040   20.4056 C   0  0  0  0  0  0  0  0  0  0  0  0
  -30.2236  -14.7428   22.5061 C   0  0  0  0  0  0  0  0  0  0  0  0
  -30.4570  -16.2663   17.8287 C   0  0  0  0  0  0  0  0  0  0  0  0
  -28.1910  -15.0358   21.1263 C   0  0  0  0  0  0  0  0  0  0  0  0
  -28.2990  -21.0151   18.2228 C   0  0  0  0  0  0  0  0  0  0  0  0
  -20.5659  -28.7997   22.8526 C   0  0  1  0  0  0  0  0  0  0  0  0
  -23.3685  -27.5807   25.1093 C   0  0  1  0  0  0  0  0  0  0  0  0
  -28.7323  -18.5016   18.6847 C   0  0  1  0  0  0  0  0  0  0  0  0
  -27.7883  -13.5693   21.3800 C   0  0  2  0  0  0  0  0  0  0  0  0
  -29.6634  -17.7702   19.6625 C   0  0  1  0  0  0  0  0  0  0  0  0
  -27.7757  -21.7253   20.4983 C   0  0  2  0  0  0  0  0  0  0  0  0
  -28.8046  -19.9561   19.1955 C   0  0  1  0  0  0  0  0  0  0  0  0
  -30.0885  -28.8969   28.7304 C   0  0  0  0  0  0  0  0  0  0  0  0
  -25.9148  -31.3287   24.1985 C   0  0  0  0  0  0  0  0  0  0  0  0
  -28.1564  -31.4061   25.3109 C   0  0  0  0  0  0  0  0  0  0  0  0
  -26.0883  -31.8048   26.6475 C   0  0  0  0  0  0  0  0  0  0  0  0
  -28.2457  -25.5764   28.4979 C   0  0  0  0  0  0  0  0  0  0  0  0
  -26.4285  -22.2135   20.9958 C   0  0  0  0  0  0  0  0  0  1  0  0
  -26.6131  -29.4658   25.8441 C   0  0  1  0  0  0  0  0  0  0  0  0
  -28.8930  -27.9888   28.4881 C   0  0  2  0  0  0  0  0  0  0  0  0
  -26.6841  -30.9775   25.4877 C   0  0  0  0  0  0  0  0  0  0  0  0
  -25.4849  -14.3850   21.7153 N   0  0  0  0  0  0  0  0  0  0  0  0
  -26.2837  -13.3823   21.3119 N   0  0  0  0  0  0  0  0  0  0  0  0
  -24.7837  -27.9555   25.1397 N   0  0  0  0  0  0  0  0  0  0  0  0
  -29.6487  -15.1980   21.2411 N   0  0  0  0  0  0  0  0  0  0  0  0
  -30.0661  -16.4223   19.2294 N   0  0  0  0  0  0  0  0  0  0  0  0
  -26.2570  -11.1826   20.4337 N   0  0  0  0  0  0  0  0  0  0  0  0
  -21.8747  -12.1896   20.8550 N   0  0  0  0  0  0  0  0  0  0  0  0
  -21.3728  -28.1543   23.8659 N   0  0  0  0  0  0  0  0  0  0  0  0
  -27.3102  -29.1087   27.0750 N   0  0  0  0  0  0  0  0  0  0  0  0
  -28.0091  -22.2042   19.0897 N   0  3  0  0  0  0  0  0  0  0  0  0
  -29.3283  -26.5768   28.6826 N   0  3  0  0  0  0  0  0  0  0  0  0
  -23.3581  -10.5615   20.2167 O   0  0  0  0  0  0  0  0  0  0  0  0
  -23.4315  -29.0702   23.2784 O   0  0  0  0  0  0  0  0  0  0  0  0
  -24.4767  -29.4827   26.8746 O   0  0  0  0  0  0  0  0  0  0  0  0
  -28.7515  -27.5677   26.1132 O   0  0  0  0  0  0  0  0  0  0  0  0
  -31.5464  -14.8172   19.9830 O   0  0  0  0  0  0  0  0  0  0  0  0
  -19.7649  -16.9761   22.7716 O   0  0  0  0  0  0  0  0  0  0  0  0
  -26.4456  -23.6311   21.0514 O   0  0  0  0  0  0  0  0  0  1  0  0
  -19.7463  -22.2467   21.1515 F   0  0  0  0  0  0  0  0  0  0  0  0
  -21.7042  -18.7379   23.6535 F   0  0  0  0  0  0  0  0  0  0  0  0
  1  2  1  0  0  0  0
  1  5  2  0  0  0  0
  2  6  2  0  0  0  0
  3  8  2  0  0  0  0
  3 15  1  0  0  0  0
  4  9  1  0  0  0  0
  4 15  2  0  0  0  0
  5 17  1  0  0  0  0
  6 19  1  0  0  0  0
  7 10  2  0  0  0  0
  7 18  1  0  0  0  0
  8 21  1  0  0  0  0
  9 21  2  0  0  0  0
 10 22  1  0  0  0  0
 11 12  2  0  0  0  0
 11 23  1  0  0  0  0
 12 24  1  0  0  0  0
 13 20  1  0  0  0  0
 13 22  2  0  0  0  0
 14 24  2  0  0  0  0
 14 25  1  0  0  0  0
 15 26  1  0  0  0  0
 16 26  1  0  0  0  0
 16 27  2  0  0  0  0
 16 28  1  0  0  0  0
 17 19  2  0  0  0  0
 17 33  1  0  0  0  0
 18 20  2  0  0  0  0
 18 34  1  0  0  0  0
 19 49  1  0  0  0  0
 20 35  1  0  0  0  0
 21 81  1  0  0  0  0
 22 82  1  0  0  0  0
 23 25  2  0  0  0  0
 23 81  1  0  0  0  0
 24 83  1  0  0  0  0
 25 84  1  0  0  0  0
 26 65  2  0  0  0  0
 27 66  1  0  0  0  0
 27 70  1  0  0  0  0
 28 71  1  0  0  0  0
 28 76  2  0  0  0  0
 29 50  1  0  0  0  0
 29 72  1  0  0  0  0
 29 77  2  0  0  0  0
 30 62  1  0  0  0  0
 30 67  1  0  0  0  0
 30 78  2  0  0  0  0
 31 63  1  0  0  0  0
 31 73  1  0  0  0  0
 31 79  2  0  0  0  0
 32 68  1  0  0  0  0
 32 69  1  0  0  0  0
 32 80  2  0  0  0  0
 33 36  1  0  0  0  0
 34 50  1  0  0  0  0
 35 67  1  0  0  0  0
 36 39  1  0  0  0  0
 37 40  1  0  0  0  0
 37 46  1  0  0  0  0
 38 41  1  0  0  0  0
 38 45  1  0  0  0  0
 39 49  1  0  0  0  0
 40 51  1  0  0  0  0
 41 52  1  0  0  0  0
 42 43  1  0  0  0  0
 42 53  1  0  0  0  0
 43 55  1  0  0  0  0
 44 54  1  0  0  0  0
 44 55  1  0  0  0  0
 45 68  1  0  0  0  0
 46 69  1  0  0  0  0
 47 52  1  0  0  0  0
 47 68  1  0  0  0  0
 48 55  1  0  0  0  0
 48 74  1  0  0  0  0
 49 72  1  0  0  0  0
 50 67  1  0  0  0  0
 51 53  1  0  0  0  0
 51 55  1  0  0  0  0
 52 66  1  0  0  0  0
 53 69  1  0  0  0  0
 54 61  1  0  0  0  0
 54 74  1  0  0  0  0
 56 63  1  0  0  0  0
 57 64  1  0  0  0  0
 58 64  1  0  0  0  0
 59 64  1  0  0  0  0
 60 75  1  0  0  0  0
 61 82  1  0  0  0  0
 62 64  1  0  0  0  0
 62 73  1  0  0  0  0
 63 75  1  0  0  0  0
 65 66  1  0  0  0  0
M  CHG  2  74   1  75   1
M  ISO  4  32 100  61 101  69 100  82 101
M  END
> <Batch ID>
0167

> <Smiles>
CNC(C)C(=O)NC(C(=O)N1Cc2cc([101O:1][101CH2:1]C3CC4(CCC5C4CCC[100N:0]5[100C:0](=O)N4CCCC(n5nc(-c6ccc(Oc7ccc(F)cc7F)cc6)c(C(N)=O)c5N)C4)CN3)ccc2CC1C(=O)NC1CCCc2ccccc21)C(C)(C)C

> <Shape>
0.228

> <Color>
0.090

> <Negative vol penalty>
0.000

$$$$

  -OEChem-04052322273D

 85 94  0     1  0  0  0  0  0999 V2000
  -16.9026  -18.1845   20.6711 C   0  0  0  0  0  0  0  0  0  0  0  0
  -18.1734  -17.6225   20.6032 C   0  0  0  0  0  0  0  0  0  0  0  0
  -23.4038   -9.8799   21.7747 C   0  0  0  0  0  0  0  0  0  0  0  0
  -24.3236  -11.0379   23.6852 C   0  0  0  0  0  0  0  0  0  0  0  0
  -16.7391  -19.5584   20.4996 C   0  0  0  0  0  0  0  0  0  0  0  0
  -19.2815  -18.4341   20.3627 C   0  0  0  0  0  0  0  0  0  0  0  0
  -26.2403  -19.0001   21.9661 C   0  0  0  0  0  0  0  0  0  0  0  0
  -22.8015   -8.9536   22.6261 C   0  0  0  0  0  0  0  0  0  0  0  0
  -23.7213  -10.1116   24.5366 C   0  0  0  0  0  0  0  0  0  0  0  0
  -27.4798  -19.1496   21.3457 C   0  0  0  0  0  0  0  0  0  0  0  0
  -20.0632   -8.8007   24.6037 C   0  0  0  0  0  0  0  0  0  0  0  0
  -18.7361   -8.4543   24.3501 C   0  0  0  0  0  0  0  0  0  0  0  0
  -27.0861  -21.5210   21.1439 C   0  0  0  0  0  0  0  0  0  0  0  0
  -19.3935   -6.1476   24.0600 C   0  0  0  0  0  0  0  0  0  0  0  0
  -24.1648  -10.9221   22.3043 C   0  0  0  0  0  0  0  0  0  0  0  0
  -24.2377  -13.0876   20.9578 C   0  0  0  0  0  0  0  0  0  0  0  0
  -17.8469  -20.3886   20.2664 C   0  0  0  0  0  0  0  0  0  0  0  0
  -25.4082  -20.1102   22.1706 C   0  0  0  0  0  0  0  0  0  0  0  0
  -19.1326  -19.8203   20.1866 C   0  0  0  0  0  0  0  0  0  0  0  0
  -25.8376  -21.3833   21.7694 C   0  0  0  0  0  0  0  0  0  0  0  0
  -29.6964  -17.7600   17.1568 C   0  0  0  0  0  0  0  0  0  0  0  0
  -29.2480  -19.0951   17.3102 C   0  0  0  0  0  0  0  0  0  0  0  0
  -22.9603   -9.0694   24.0070 C   0  0  0  0  0  0  0  0  0  0  0  0
  -27.9017  -20.4097   20.9318 C   0  0  0  0  0  0  0  0  0  0  0  0
  -21.0556   -7.8205   24.5854 C   0  0  0  0  0  0  0  0  0  0  0  0
  -18.4012   -7.1278   24.0783 C   0  0  0  0  0  0  0  0  0  0  0  0
  -20.7207   -6.4940   24.3136 C   0  0  0  0  0  0  0  0  0  0  0  0
  -24.7877  -11.8789   21.4253 C   0  0  0  0  0  0  0  0  0  0  0  0
  -30.9627  -17.6871   17.6939 C   0  0  0  0  0  0  0  0  0  0  0  0
  -30.2540  -19.7975   17.9363 C   0  0  0  0  0  0  0  0  0  0  0  0
  -25.2184  -13.6254   20.1607 C   0  0  0  0  0  0  0  0  0  0  0  0
  -22.9550  -13.6718   21.2206 C   0  0  0  0  0  0  0  0  0  0  0  0
  -22.5065  -20.9509   21.1823 C   0  0  0  0  0  0  0  0  0  0  0  0
  -22.9534  -23.4293   23.2268 C   0  0  0  0  0  0  0  0  0  0  0  0
  -25.1389  -25.4416   24.9063 C   0  0  0  0  0  0  0  0  0  0  0  0
  -30.4789  -14.9733   19.3839 C   0  0  0  0  0  0  0  0  0  0  0  0
  -17.6153  -21.8617   20.0403 C   0  0  0  0  0  0  0  0  0  0  0  0
  -24.0856  -19.9363   22.8654 C   0  0  0  0  0  0  0  0  0  0  0  0
  -24.9905  -22.6101   21.9841 C   0  0  0  0  0  0  0  0  0  0  0  0
  -18.8830  -22.7033   20.1619 C   0  0  0  0  0  0  0  0  0  0  0  0
  -29.5156  -11.6064   18.4105 C   0  0  0  0  0  0  0  0  0  0  0  0
  -20.0286  -22.0578   19.3887 C   0  0  0  0  0  0  0  0  0  0  0  0
  -28.1418  -11.4815   19.0728 C   0  0  0  0  0  0  0  0  0  0  0  0
  -32.0959  -15.6038   16.4510 C   0  0  0  0  0  0  0  0  0  0  0  0
  -30.4700  -12.4089   19.2871 C   0  0  0  0  0  0  0  0  0  0  0  0
  -31.8403  -14.3163   17.2325 C   0  0  0  0  0  0  0  0  0  0  0  0
  -28.6191  -13.6464   20.3176 C   0  0  0  0  0  0  0  0  0  0  0  0
  -20.3619  -20.6710   19.9521 C   0  0  1  0  0  0  0  0  0  0  0  0
  -31.8782  -16.3934   17.7568 C   0  0  2  0  0  0  0  0  0  0  0  0
  -23.0978  -21.0579   22.5594 C   0  0  1  0  0  0  0  0  0  0  0  0
  -27.5895  -12.8596   19.4841 C   0  0  2  0  0  0  0  0  0  0  0  0
  -28.9439  -16.6504   16.5352 C   0  0  0  0  0  0  0  0  0  0  0  0
  -27.9428  -19.6371   16.8793 C   0  0  0  0  0  0  0  0  0  0  0  0
  -30.2314  -22.1804   17.1281 C   0  0  0  0  0  0  0  0  0  0  0  0
  -25.2072  -27.4029   26.4704 C   0  0  0  0  0  0  0  0  0  0  0  0
  -22.2916  -25.2985   20.9078 C   0  0  0  0  0  0  0  0  0  0  0  0
  -23.2840  -27.1781   22.2310 C   0  0  0  0  0  0  0  0  0  0  0  0
  -21.2879  -25.9607   23.1007 C   0  0  0  0  0  0  0  0  0  0  0  0
  -32.5449  -19.2693   18.8034 C   0  0  0  0  0  0  0  0  0  0  0  0
  -26.5065  -23.8673   27.0063 C   0  0  0  0  0  0  0  0  0  0  0  0
  -29.2354  -21.6159   19.3755 C   0  0  0  0  0  0  0  0  0  1  0  0
  -30.3190  -21.2597   18.3486 C   0  0  1  0  0  0  0  0  0  0  0  0
  -23.5416  -24.8151   23.1146 C   0  0  1  0  0  0  0  0  0  0  0  0
  -25.1875  -25.8865   26.3569 C   0  0  2  0  0  0  0  0  0  0  0  0
  -22.6166  -25.7899   22.3326 C   0  0  0  0  0  0  0  0  0  0  0  0
  -26.0220  -11.6614   20.9636 N   0  0  0  0  0  0  0  0  0  0  0  0
  -31.2914  -18.9316   18.1645 N   0  0  0  0  0  0  0  0  0  0  0  0
  -26.2556  -12.7406   20.1975 N   0  0  0  0  0  0  0  0  0  0  0  0
  -23.7028  -22.3875   22.6621 N   0  0  0  0  0  0  0  0  0  0  0  0
  -29.8995  -13.7212   19.6032 N   0  0  0  0  0  0  0  0  0  0  0  0
  -31.3109  -15.1437   18.3010 N   0  0  0  0  0  0  0  0  0  0  0  0
  -25.2860  -14.7642   19.4388 N   0  0  0  0  0  0  0  0  0  0  0  0
  -22.0683  -12.9863   22.0621 N   0  0  0  0  0  0  0  0  0  0  0  0
  -21.1338  -20.7926   21.1702 N   0  0  0  0  0  0  0  0  0  0  0  0
  -23.8441  -25.2416   24.4765 N   0  0  0  0  0  0  0  0  0  0  0  0
  -26.4079  -25.3495   27.0228 N   0  3  0  0  0  0  0  0  0  0  0  0
  -22.5993  -14.7614   20.7109 O   0  0  0  0  0  0  0  0  0  0  0  0
  -23.2410  -21.0091   20.2031 O   0  0  0  0  0  0  0  0  0  0  0  0
  -21.8724  -23.2758   23.8009 O   0  0  0  0  0  0  0  0  0  0  0  0
  -26.1484  -25.2905   24.2218 O   0  0  0  0  0  0  0  0  0  0  0  0
  -30.2251  -15.9336   20.1247 O   0  0  0  0  0  0  0  0  0  0  0  0
  -22.3726   -8.1659   24.8381 O   0  0  0  0  0  0  0  0  0  0  0  0
  -29.1108  -20.5583   20.3254 O   0  0  0  0  0  0  0  0  0  1  0  0
  -17.1265   -6.7951   23.8363 F   0  0  0  0  0  0  0  0  0  0  0  0
  -21.6695   -5.5478   24.2957 F   0  0  0  0  0  0  0  0  0  0  0  0
  1  2  1  0  0  0  0
  1  5  2  0  0  0  0
  2  6  2  0  0  0  0
  3  8  2  0  0  0  0
  3 15  1  0  0  0  0
  4  9  1  0  0  0  0
  4 15  2  0  0  0  0
  5 17  1  0  0  0  0
  6 19  1  0  0  0  0
  7 10  2  0  0  0  0
  7 18  1  0  0  0  0
  8 23  1  0  0  0  0
  9 23  2  0  0  0  0
 10 24  1  0  0  0  0
 11 12  2  0  0  0  0
 11 25  1  0  0  0  0
 12 26  1  0  0  0  0
 13 20  1  0  0  0  0
 13 24  2  0  0  0  0
 14 26  2  0  0  0  0
 14 27  1  0  0  0  0
 15 28  1  0  0  0  0
 16 28  1  0  0  0  0
 16 31  2  0  0  0  0
 16 32  1  0  0  0  0
 17 19  2  0  0  0  0
 17 37  1  0  0  0  0
 18 20  2  0  0  0  0
 18 38  1  0  0  0  0
 19 48  1  0  0  0  0
 20 39  1  0  0  0  0
 21 22  1  0  0  0  0
 21 29  2  0  0  0  0
 21 52  1  0  0  0  0
 22 30  2  0  0  0  0
 22 53  1  0  0  0  0
 23 82  1  0  0  0  0
 24 83  1  0  0  0  0
 25 27  2  0  0  0  0
 25 82  1  0  0  0  0
 26 84  1  0  0  0  0
 27 85  1  0  0  0  0
 28 66  2  0  0  0  0
 29 49  1  0  0  0  0
 29 67  1  0  0  0  0
 30 62  1  0  0  0  0
 30 67  1  0  0  0  0
 31 68  1  0  0  0  0
 31 72  1  0  0  0  0
 32 73  1  0  0  0  0
 32 77  2  0  0  0  0
 33 50  1  0  0  0  0
 33 74  1  0  0  0  0
 33 78  2  0  0  0  0
 34 63  1  0  0  0  0
 34 69  1  0  0  0  0
 34 79  2  0  0  0  0
 35 64  1  0  0  0  0
 35 75  1  0  0  0  0
 35 80  2  0  0  0  0
 36 70  1  0  0  0  0
 36 71  1  0  0  0  0
 36 81  2  0  0  0  0
 37 40  1  0  0  0  0
 38 50  1  0  0  0  0
 39 69  1  0  0  0  0
 40 42  1  0  0  0  0
 41 43  1  0  0  0  0
 41 45  1  0  0  0  0
 42 48  1  0  0  0  0
 43 51  1  0  0  0  0
 44 46  1  0  0  0  0
 44 49  1  0  0  0  0
 45 70  1  0  0  0  0
 46 71  1  0  0  0  0
 47 51  1  0  0  0  0
 47 70  1  0  0  0  0
 48 74  1  0  0  0  0
 49 71  1  0  0  0  0
 50 69  1  0  0  0  0
 51 68  1  0  0  0  0
 54 62  1  0  0  0  0
 55 64  1  0  0  0  0
 56 65  1  0  0  0  0
 57 65  1  0  0  0  0
 58 65  1  0  0  0  0
 59 67  1  0  0  0  0
 60 76  1  0  0  0  0
 61 62  1  0  0  0  0
 61 83  1  0  0  0  0
 63 65  1  0  0  0  0
 63 75  1  0  0  0  0
 64 76  1  0  0  0  0
 66 68  1  0  0  0  0
M  CHG  1  76   1
M  ISO  4  36 100  61 101  71 100  83 101
M  END
> <Batch ID>
0167

> <Smiles>
CNC(C)C(=O)NC(C(=O)N1Cc2cc([101O:1][101CH2:1]C(C)c3c(C)c(C)c(C4CC[100N:0]4[100C:0](=O)N4CCCC(n5nc(-c6ccc(Oc7ccc(F)cc7F)cc6)c(C(N)=O)c5N)C4)n3C)ccc2CC1C(=O)NC1CCCc2ccccc21)C(C)(C)C

> <Shape>
0.157

> <Color>
0.126

> <Negative vol penalty>
0.000

$$$$

  -OEChem-04052322273D

 87 96  0     1  0  0  0  0  0999 V2000
  -21.1528  -33.3761   26.7801 C   0  0  0  0  0  0  0  0  0  0  0  0
  -21.5236  -34.2733   25.7848 C   0  0  0  0  0  0  0  0  0  0  0  0
  -24.5071   -9.1237   22.0917 C   0  0  0  0  0  0  0  0  0  0  0  0
  -23.5301   -9.6341   19.9418 C   0  0  0  0  0  0  0  0  0  0  0  0
  -22.1191  -32.5785   27.3894 C   0  0  0  0  0  0  0  0  0  0  0  0
  -22.8588  -34.3646   25.3902 C   0  0  0  0  0  0  0  0  0  0  0  0
  -28.0513  -30.6094   21.1249 C   0  0  0  0  0  0  0  0  0  0  0  0
  -23.4383   -8.2737   22.3757 C   0  0  0  0  0  0  0  0  0  0  0  0
  -22.4612   -8.7840   20.2258 C   0  0  0  0  0  0  0  0  0  0  0  0
  -28.1786  -29.2379   20.9097 C   0  0  0  0  0  0  0  0  0  0  0  0
  -22.4677   -5.1369   21.5686 C   0  0  0  0  0  0  0  0  0  0  0  0
  -22.7604   -3.8891   22.1191 C   0  0  0  0  0  0  0  0  0  0  0  0
  -25.7873  -29.0637   20.6444 C   0  0  0  0  0  0  0  0  0  0  0  0
  -21.4425   -4.4398   24.0677 C   0  0  0  0  0  0  0  0  0  0  0  0
  -24.5530   -9.8039   20.8748 C   0  0  0  0  0  0  0  0  0  0  0  0
  -26.8683  -10.3437   19.9497 C   0  0  0  0  0  0  0  0  0  0  0  0
  -23.4685  -32.6697   27.0101 C   0  0  0  0  0  0  0  0  0  0  0  0
  -26.7879  -31.2177   21.1123 C   0  0  0  0  0  0  0  0  0  0  0  0
  -23.8452  -33.5510   25.9764 C   0  0  0  0  0  0  0  0  0  0  0  0
  -25.6469  -30.4436   20.8572 C   0  0  0  0  0  0  0  0  0  0  0  0
  -28.8223  -24.6222   18.9706 C   0  0  0  0  0  0  0  0  0  0  0  0
  -27.9630  -24.2274   21.1937 C   0  0  0  0  0  0  0  0  0  0  0  0
  -28.4213  -25.1089   20.2147 C   0  0  0  0  0  0  0  0  0  0  0  0
  -28.7650  -23.2540   18.7054 C   0  0  0  0  0  0  0  0  0  0  0  0
  -27.9057  -22.8591   20.9286 C   0  0  0  0  0  0  0  0  0  0  0  0
  -28.3067  -22.3724   19.6844 C   0  0  0  0  0  0  0  0  0  0  0  0
  -22.4154   -8.1038   21.4427 C   0  0  0  0  0  0  0  0  0  0  0  0
  -27.0462  -28.4643   20.6723 C   0  0  0  0  0  0  0  0  0  0  0  0
  -21.6626   -6.0362   22.2677 C   0  0  0  0  0  0  0  0  0  0  0  0
  -22.2477   -3.5406   23.3686 C   0  0  0  0  0  0  0  0  0  0  0  0
  -21.1500   -5.6876   23.5172 C   0  0  0  0  0  0  0  0  0  0  0  0
  -25.6566  -10.6826   20.5811 C   0  0  0  0  0  0  0  0  0  0  0  0
  -27.5744  -11.5210   19.9073 C   0  0  0  0  0  0  0  0  0  0  0  0
  -27.3156   -9.0778   19.4464 C   0  0  0  0  0  0  0  0  0  0  0  0
  -25.0412  -32.8052   23.2413 C   0  0  0  0  0  0  0  0  0  0  0  0
  -23.0773  -33.2723   20.7022 C   0  0  0  0  0  0  0  0  0  0  0  0
  -21.9998  -32.2180   17.6404 C   0  0  0  0  0  0  0  0  0  0  0  0
  -28.0235  -16.7962   19.0047 C   0  0  0  0  0  0  0  0  0  0  0  0
  -24.4718  -31.7771   27.6973 C   0  0  0  0  0  0  0  0  0  0  0  0
  -26.6700  -32.7028   21.3197 C   0  0  0  0  0  0  0  0  0  0  0  0
  -24.2696  -31.0516   20.8132 C   0  0  0  0  0  0  0  0  0  0  0  0
  -25.9093  -32.2578   27.5278 C   0  0  0  0  0  0  0  0  0  0  0  0
  -26.7313  -15.9613   22.1627 C   0  0  0  0  0  0  0  0  0  0  0  0
  -26.1897  -32.5516   26.0617 C   0  0  0  0  0  0  0  0  0  0  0  0
  -26.4291  -14.4738   21.9837 C   0  0  0  0  0  0  0  0  0  0  0  0
  -26.3646  -16.7741   20.9199 C   0  0  0  0  0  0  0  0  0  0  0  0
  -29.4142  -20.1588   19.7194 C   0  0  0  0  0  0  0  0  0  0  0  0
  -26.9340  -20.3464   19.4747 C   0  0  0  0  0  0  0  0  0  0  0  0
  -29.3759  -18.8572   18.9230 C   0  0  0  0  0  0  0  0  0  0  0  0
  -26.9414  -19.0498   18.6726 C   0  0  0  0  0  0  0  0  0  0  0  0
  -26.6701  -14.7788   19.4904 C   0  0  0  0  0  0  0  0  0  0  0  0
  -25.2962  -33.6895   25.5521 C   0  0  1  0  0  0  0  0  0  0  0  0
  -25.2853  -33.1317   21.7951 C   0  0  1  0  0  0  0  0  0  0  0  0
  -27.0825  -13.9278   20.7016 C   0  0  2  0  0  0  0  0  0  0  0  0
  -29.3147  -25.5681   17.9206 C   0  0  0  0  0  0  0  0  0  0  0  0
  -27.5318  -24.7501   22.5278 C   0  0  0  0  0  0  0  0  0  0  0  0
  -29.1966  -22.7354   17.3692 C   0  0  0  0  0  0  0  0  0  0  0  0
  -27.4126  -21.9159   21.9817 C   0  0  0  0  0  0  0  0  0  0  0  0
  -20.3581  -32.7821   15.8282 C   0  0  0  0  0  0  0  0  0  0  0  0
  -20.8125  -32.1403   22.4049 C   0  0  0  0  0  0  0  0  0  0  0  0
  -19.4781  -31.8425   20.3076 C   0  0  0  0  0  0  0  0  0  0  0  0
  -20.1846  -34.1262   21.0205 C   0  0  0  0  0  0  0  0  0  0  0  0
  -24.1551  -32.6157   15.6516 C   0  0  0  0  0  0  0  0  0  0  0  0
  -28.4826  -26.5768   20.4990 C   0  0  0  0  0  0  0  0  0  1  0  0
  -21.9116  -32.5252   20.1006 C   0  0  1  0  0  0  0  0  0  0  0  0
  -21.7791  -32.9657   16.3378 C   0  0  2  0  0  0  0  0  0  0  0  0
  -20.6223  -32.6464   20.9611 C   0  0  0  0  0  0  0  0  0  0  0  0
  -25.5932  -11.9740   20.9159 N   0  0  0  0  0  0  0  0  0  0  0  0
  -26.7740  -12.4570   20.4934 N   0  0  0  0  0  0  0  0  0  0  0  0
  -28.2496  -20.9984   19.4183 N   0  0  0  0  0  0  0  0  0  0  0  0
  -24.2057  -32.5067   21.0282 N   0  0  0  0  0  0  0  0  0  0  0  0
  -26.9771  -16.1925   19.7180 N   0  0  0  0  0  0  0  0  0  0  0  0
  -28.0793  -18.1986   19.0260 N   0  0  0  0  0  0  0  0  0  0  0  0
  -28.7957  -11.8365   19.4264 N   0  0  0  0  0  0  0  0  0  0  0  0
  -26.4649   -7.9709   19.5710 N   0  0  0  0  0  0  0  0  0  0  0  0
  -25.4406  -33.7967   24.1170 N   0  0  0  0  0  0  0  0  0  0  0  0
  -21.7685  -33.0221   18.7364 N   0  0  0  0  0  0  0  0  0  0  0  0
  -22.7205  -32.4740   15.2924 N   0  3  0  0  0  0  0  0  0  0  0  0
  -28.4430   -8.9291   18.9170 O   0  0  0  0  0  0  0  0  0  0  0  0
  -24.5271  -31.7338   23.5404 O   0  0  0  0  0  0  0  0  0  0  0  0
  -22.9926  -34.4914   20.8698 O   0  0  0  0  0  0  0  0  0  0  0  0
  -22.3395  -31.0376   17.6816 O   0  0  0  0  0  0  0  0  0  0  0  0
  -28.8601  -16.1248   18.3881 O   0  0  0  0  0  0  0  0  0  0  0  0
  -21.3724   -7.2742   21.7194 O   0  0  0  0  0  0  0  0  0  0  0  0
  -27.1685  -27.1152   20.4610 O   0  0  0  0  0  0  0  0  0  1  0  0
  -22.5276   -2.3417   23.8965 F   0  0  0  0  0  0  0  0  0  0  0  0
  -20.3749   -6.5469   24.1930 F   0  0  0  0  0  0  0  0  0  0  0  0
  1  2  1  0  0  0  0
  1  5  2  0  0  0  0
  2  6  2  0  0  0  0
  3  8  2  0  0  0  0
  3 15  1  0  0  0  0
  4  9  1  0  0  0  0
  4 15  2  0  0  0  0
  5 17  1  0  0  0  0
  6 19  1  0  0  0  0
  7 10  2  0  0  0  0
  7 18  1  0  0  0  0
  8 27  1  0  0  0  0
  9 27  2  0  0  0  0
 10 28  1  0  0  0  0
 11 12  2  0  0  0  0
 11 29  1  0  0  0  0
 12 30  1  0  0  0  0
 13 20  1  0  0  0  0
 13 28  2  0  0  0  0
 14 30  2  0  0  0  0
 14 31  1  0  0  0  0
 15 32  1  0  0  0  0
 16 32  1  0  0  0  0
 16 33  2  0  0  0  0
 16 34  1  0  0  0  0
 17 19  2  0  0  0  0
 17 39  1  0  0  0  0
 18 20  2  0  0  0  0
 18 40  1  0  0  0  0
 19 52  1  0  0  0  0
 20 41  1  0  0  0  0
 21 23  1  0  0  0  0
 21 24  2  0  0  0  0
 21 55  1  0  0  0  0
 22 23  2  0  0  0  0
 22 25  1  0  0  0  0
 22 56  1  0  0  0  0
 23 64  1  0  0  0  0
 24 26  1  0  0  0  0
 24 57  1  0  0  0  0
 25 26  2  0  0  0  0
 25 58  1  0  0  0  0
 26 70  1  0  0  0  0
 27 84  1  0  0  0  0
 28 85  1  0  0  0  0
 29 31  2  0  0  0  0
 29 84  1  0  0  0  0
 30 86  1  0  0  0  0
 31 87  1  0  0  0  0
 32 68  2  0  0  0  0
 33 69  1  0  0  0  0
 33 74  1  0  0  0  0
 34 75  1  0  0  0  0
 34 79  2  0  0  0  0
 35 53  1  0  0  0  0
 35 76  1  0  0  0  0
 35 80  2  0  0  0  0
 36 65  1  0  0  0  0
 36 71  1  0  0  0  0
 36 81  2  0  0  0  0
 37 66  1  0  0  0  0
 37 77  1  0  0  0  0
 37 82  2  0  0  0  0
 38 72  1  0  0  0  0
 38 73  1  0  0  0  0
 38 83  2  0  0  0  0
 39 42  1  0  0  0  0
 40 53  1  0  0  0  0
 41 71  1  0  0  0  0
 42 44  1  0  0  0  0
 43 45  1  0  0  0  0
 43 46  1  0  0  0  0
 44 52  1  0  0  0  0
 45 54  1  0  0  0  0
 46 72  1  0  0  0  0
 47 49  1  0  0  0  0
 47 70  1  0  0  0  0
 48 50  1  0  0  0  0
 48 70  1  0  0  0  0
 49 73  1  0  0  0  0
 50 73  1  0  0  0  0
 51 54  1  0  0  0  0
 51 72  1  0  0  0  0
 52 76  1  0  0  0  0
 53 71  1  0  0  0  0
 54 69  1  0  0  0  0
 59 66  1  0  0  0  0
 60 67  1  0  0  0  0
 61 67  1  0  0  0  0
 62 67  1  0  0  0  0
 63 78  1  0  0  0  0
 64 85  1  0  0  0  0
 65 67  1  0  0  0  0
 65 77  1  0  0  0  0
 66 78  1  0  0  0  0
 68 69  1  0  0  0  0
M  CHG  1  78   1
M  ISO  4  38 100  64 101  73 100  85 101
M  END
> <Batch ID>
0167

> <Smiles>
CNC(C)C(=O)NC(C(=O)N1Cc2cc([101O:1][101CH2:1]c3c(C)c(C)c(N4CC[100N:0]([100C:0](=O)N5CCCC(n6nc(-c7ccc(Oc8ccc(F)cc8F)cc7)c(C(N)=O)c6N)C5)CC4)c(C)c3C)ccc2CC1C(=O)NC1CCCc2ccccc21)C(C)(C)C

> <Shape>
0.280

> <Color>
0.085

> <Negative vol penalty>
0.000

$$$$

  -OEChem-04052322273D

 92102  0     1  0  0  0  0  0999 V2000
  -32.3335  -12.7909   21.5507 C   0  0  0  0  0  0  0  0  0  0  0  0
  -31.8537  -14.0655   21.8344 C   0  0  0  0  0  0  0  0  0  0  0  0
  -27.1824  -27.8911   20.1762 C   0  0  0  0  0  0  0  0  0  0  0  0
  -25.1595  -27.4915   18.9172 C   0  0  0  0  0  0  0  0  0  0  0  0
  -31.5922  -11.9328   20.7395 C   0  0  0  0  0  0  0  0  0  0  0  0
  -30.6327  -14.4832   21.3059 C   0  0  0  0  0  0  0  0  0  0  0  0
  -24.9940  -18.6158   22.8691 C   0  0  0  0  0  0  0  0  0  0  0  0
  -27.7794  -26.7872   19.5674 C   0  0  0  0  0  0  0  0  0  0  0  0
  -25.7565  -26.3877   18.3083 C   0  0  0  0  0  0  0  0  0  0  0  0
  -24.2367  -19.6540   22.3284 C   0  0  0  0  0  0  0  0  0  0  0  0
  -27.7088  -23.4235   19.8914 C   0  0  0  0  0  0  0  0  0  0  0  0
  -28.4192  -22.5411   20.7051 C   0  0  0  0  0  0  0  0  0  0  0  0
  -23.0048  -18.0576   21.0043 C   0  0  0  0  0  0  0  0  0  0  0  0
  -30.4229  -22.9756   19.4269 C   0  0  0  0  0  0  0  0  0  0  0  0
  -25.8724  -28.2432   19.8512 C   0  0  0  0  0  0  0  0  0  0  0  0
  -25.2724  -30.7163   20.0286 C   0  0  0  0  0  0  0  0  0  0  0  0
  -30.3570  -12.3367   20.2087 C   0  0  0  0  0  0  0  0  0  0  0  0
  -24.7694  -17.2896   22.4726 C   0  0  0  0  0  0  0  0  0  0  0  0
  -29.8749  -13.6302   20.4857 C   0  0  0  0  0  0  0  0  0  0  0  0
  -23.7590  -17.0041   21.5433 C   0  0  0  0  0  0  0  0  0  0  0  0
  -20.5463  -23.4049   22.0857 C   0  0  0  0  0  0  0  0  0  0  0  0
  -19.6145  -22.7334   22.8971 C   0  0  0  0  0  0  0  0  0  0  0  0
  -27.0665  -26.0355   18.6335 C   0  0  0  0  0  0  0  0  0  0  0  0
  -23.2438  -19.3753   21.3937 C   0  0  0  0  0  0  0  0  0  0  0  0
  -28.3553  -24.0820   18.8454 C   0  0  0  0  0  0  0  0  0  0  0  0
  -20.4527  -24.8034   22.0016 C   0  0  0  0  0  0  0  0  0  0  0  0
  -29.7763  -22.3171   20.4728 C   0  0  0  0  0  0  0  0  0  0  0  0
  -29.7124  -23.8581   18.6132 C   0  0  0  0  0  0  0  0  0  0  0  0
  -25.2549  -29.3831   20.4801 C   0  0  0  0  0  0  0  0  0  0  0  0
  -19.4782  -25.4637   22.7351 C   0  0  0  0  0  0  0  0  0  0  0  0
  -18.6832  -23.5012   23.5988 C   0  0  0  0  0  0  0  0  0  0  0  0
  -24.5491  -31.4072   20.9698 C   0  0  0  0  0  0  0  0  0  0  0  0
  -25.8874  -31.2799   18.8624 C   0  0  0  0  0  0  0  0  0  0  0  0
  -26.5091  -15.0544   21.0300 C   0  0  0  0  0  0  0  0  0  0  0  0
  -23.9383  -13.1861   21.6800 C   0  0  0  0  0  0  0  0  0  0  0  0
  -20.5952  -12.9841   22.3355 C   0  0  0  0  0  0  0  0  0  0  0  0
  -20.2863  -29.9523   24.7478 C   0  0  0  0  0  0  0  0  0  0  0  0
  -29.6140  -11.3912   19.2984 C   0  0  0  0  0  0  0  0  0  0  0  0
  -25.5770  -16.1783   23.0853 C   0  0  0  0  0  0  0  0  0  0  0  0
  -19.6121  -21.2424   23.0828 C   0  0  0  0  0  0  0  0  0  0  0  0
  -23.4646  -15.5953   21.0996 C   0  0  0  0  0  0  0  0  0  0  0  0
  -28.1522  -11.7751   19.0837 C   0  0  0  0  0  0  0  0  0  0  0  0
  -20.3895  -20.5054   22.0037 C   0  0  0  0  0  0  0  0  0  0  0  0
  -17.9299  -28.9614   22.0685 C   0  0  0  0  0  0  0  0  0  0  0  0
  -23.3577  -31.3202   25.5979 C   0  0  0  0  0  0  0  0  0  0  0  0
  -28.0307  -13.2649   18.7795 C   0  0  0  0  0  0  0  0  0  0  0  0
  -18.0149  -27.4361   22.1003 C   0  0  0  0  0  0  0  0  0  0  0  0
  -24.2081  -31.1137   24.3447 C   0  0  0  0  0  0  0  0  0  0  0  0
  -18.2307  -29.5755   23.4326 C   0  0  0  0  0  0  0  0  0  0  0  0
  -22.4870  -30.0999   25.8747 C   0  0  0  0  0  0  0  0  0  0  0  0
  -19.6150  -27.6193   24.0451 C   0  0  0  0  0  0  0  0  0  0  0  0
  -22.4348  -29.5140   23.4723 C   0  0  0  0  0  0  0  0  0  0  0  0
  -28.5431  -14.1109   19.9514 C   0  0  1  0  0  0  0  0  0  0  0  0
  -19.3666  -26.9754   22.6728 C   0  0  1  0  0  0  0  0  0  0  0  0
  -25.6088  -14.9186   22.2253 C   0  0  1  0  0  0  0  0  0  0  0  0
  -23.3314  -30.7237   23.1419 C   0  0  2  0  0  0  0  0  0  0  0  0
  -21.7436  -21.1725   21.7833 C   0  0  2  0  0  0  0  0  0  1  0  0
  -21.5993  -22.6385   21.2720 C   0  0  0  0  0  0  0  0  0  0  0  0
  -21.1775  -22.6720   19.7836 C   0  0  0  0  0  0  0  0  0  0  0  0
  -22.9946  -23.3007   21.3848 C   0  0  0  0  0  0  0  0  0  0  0  0
  -17.3146  -23.7352   25.6864 C   0  0  0  0  0  0  0  0  0  0  0  0
  -18.7731  -11.3182   22.7852 C   0  0  0  0  0  0  0  0  0  0  0  0
  -23.8737  -12.4605   18.7170 C   0  0  0  0  0  0  0  0  0  0  0  0
  -21.5460  -11.6006   19.0499 C   0  0  0  0  0  0  0  0  0  0  0  0
  -23.4496  -10.5461   20.2693 C   0  0  0  0  0  0  0  0  0  0  0  0
  -20.0488  -14.1293   25.0092 C   0  0  0  0  0  0  0  0  0  0  0  0
  -22.4901  -26.0262   21.9056 C   0  0  0  0  0  0  0  0  0  0  0  0
  -17.6750  -22.8548   24.4947 C   0  0  0  0  0  0  0  0  0  0  0  0
  -22.6556  -12.8447   20.9609 C   0  0  1  0  0  0  0  0  0  0  0  0
  -19.8216  -12.2306   23.4024 C   0  0  2  0  0  0  0  0  0  0  0  0
  -22.8879  -11.8898   19.7560 C   0  0  0  0  0  0  0  0  0  0  0  0
  -24.5746  -29.2335   21.6198 N   0  0  0  0  0  0  0  0  0  0  0  0
  -18.5911  -24.8465   23.5381 N   0  0  0  0  0  0  0  0  0  0  0  0
  -24.1579  -30.4818   21.8923 N   0  0  0  0  0  0  0  0  0  0  0  0
  -24.2855  -14.5438   21.7227 N   0  0  0  0  0  0  0  0  0  0  0  0
  -19.4973  -29.0839   23.9756 N   0  0  0  0  0  0  0  0  0  0  0  0
  -21.6748  -29.7543   24.7080 N   0  0  0  0  0  0  0  0  0  0  0  0
  -24.2160  -32.7098   21.0903 N   0  0  0  0  0  0  0  0  0  0  0  0
  -26.5926  -30.4282   18.0012 N   0  0  0  0  0  0  0  0  0  0  0  0
  -27.5585  -14.1555   21.0111 N   0  0  0  0  0  0  0  0  0  0  0  0
  -21.7473  -12.3184   21.9740 N   0  0  0  0  0  0  0  0  0  0  0  0
  -19.1339  -13.1864   24.3158 N   0  3  0  0  0  0  0  0  0  0  0  0
  -25.8277  -32.5053   18.6008 O   0  0  0  0  0  0  0  0  0  0  0  0
  -26.2687  -15.9103   20.1866 O   0  0  0  0  0  0  0  0  0  0  0  0
  -24.6039  -12.2822   22.1915 O   0  0  0  0  0  0  0  0  0  0  0  0
  -20.2135  -14.0542   21.8668 O   0  0  0  0  0  0  0  0  0  0  0  0
  -19.7794  -30.8525   25.4288 O   0  0  0  0  0  0  0  0  0  0  0  0
  -27.6488  -24.9585   18.0390 O   0  0  0  0  0  0  0  0  0  0  0  0
  -22.5008  -20.3906   20.8619 O   0  0  0  0  0  0  0  0  0  1  0  0
  -21.3092  -25.5555   21.2578 O   0  0  0  0  0  0  0  0  0  0  0  0
  -30.4588  -21.4708   21.2552 F   0  0  0  0  0  0  0  0  0  0  0  0
  -30.3392  -24.4887   17.6105 F   0  0  0  0  0  0  0  0  0  0  0  0
  1  2  1  0  0  0  0
  1  5  2  0  0  0  0
  2  6  2  0  0  0  0
  3  8  2  0  0  0  0
  3 15  1  0  0  0  0
  4  9  1  0  0  0  0
  4 15  2  0  0  0  0
  5 17  1  0  0  0  0
  6 19  1  0  0  0  0
  7 10  2  0  0  0  0
  7 18  1  0  0  0  0
  8 23  1  0  0  0  0
  9 23  2  0  0  0  0
 10 24  1  0  0  0  0
 11 12  2  0  0  0  0
 11 25  1  0  0  0  0
 12 27  1  0  0  0  0
 13 20  1  0  0  0  0
 13 24  2  0  0  0  0
 14 27  2  0  0  0  0
 14 28  1  0  0  0  0
 15 29  1  0  0  0  0
 16 29  1  0  0  0  0
 16 32  2  0  0  0  0
 16 33  1  0  0  0  0
 17 19  2  0  0  0  0
 17 38  1  0  0  0  0
 18 20  2  0  0  0  0
 18 39  1  0  0  0  0
 19 53  1  0  0  0  0
 20 41  1  0  0  0  0
 21 22  1  0  0  0  0
 21 26  2  0  0  0  0
 21 58  1  0  0  0  0
 22 31  2  0  0  0  0
 22 40  1  0  0  0  0
 23 88  1  0  0  0  0
 24 89  1  0  0  0  0
 25 28  2  0  0  0  0
 25 88  1  0  0  0  0
 26 30  1  0  0  0  0
 26 90  1  0  0  0  0
 27 91  1  0  0  0  0
 28 92  1  0  0  0  0
 29 72  2  0  0  0  0
 30 54  1  0  0  0  0
 30 73  2  0  0  0  0
 31 68  1  0  0  0  0
 31 73  1  0  0  0  0
 32 74  1  0  0  0  0
 32 78  1  0  0  0  0
 33 79  1  0  0  0  0
 33 83  2  0  0  0  0
 34 55  1  0  0  0  0
 34 80  1  0  0  0  0
 34 84  2  0  0  0  0
 35 69  1  0  0  0  0
 35 75  1  0  0  0  0
 35 85  2  0  0  0  0
 36 70  1  0  0  0  0
 36 81  1  0  0  0  0
 36 86  2  0  0  0  0
 37 76  1  0  0  0  0
 37 77  1  0  0  0  0
 37 87  2  0  0  0  0
 38 42  1  0  0  0  0
 39 55  1  0  0  0  0
 40 43  1  0  0  0  0
 41 75  1  0  0  0  0
 42 46  1  0  0  0  0
 43 57  1  0  0  0  0
 44 47  1  0  0  0  0
 44 49  1  0  0  0  0
 45 48  1  0  0  0  0
 45 50  1  0  0  0  0
 46 53  1  0  0  0  0
 47 54  1  0  0  0  0
 48 56  1  0  0  0  0
 49 76  1  0  0  0  0
 50 77  1  0  0  0  0
 51 54  1  0  0  0  0
 51 76  1  0  0  0  0
 52 56  1  0  0  0  0
 52 77  1  0  0  0  0
 53 80  1  0  0  0  0
 55 75  1  0  0  0  0
 56 74  1  0  0  0  0
 57 58  1  0  0  0  0
 57 89  1  0  0  0  0
 58 59  1  0  0  0  0
 58 60  1  0  0  0  0
 61 68  1  0  0  0  0
 62 70  1  0  0  0  0
 63 71  1  0  0  0  0
 64 71  1  0  0  0  0
 65 71  1  0  0  0  0
 66 82  1  0  0  0  0
 67 90  1  0  0  0  0
 69 71  1  0  0  0  0
 69 81  1  0  0  0  0
 70 82  1  0  0  0  0
 72 74  1  0  0  0  0
M  CHG  1  82   1
M  ISO  4  37 100  57 101  76 100  89 101
M  END
> <Batch ID>
0167

> <Smiles>
CCc1nc(C2CCC[100N:0]([100C:0](=O)N3CCCC(n4nc(-c5ccc(Oc6ccc(F)cc6F)cc5)c(C(N)=O)c4N)C3)C2)c(OC)c2c1CC[101CH:1]([101O:1]c1ccc3c(c1)CN(C(=O)C(NC(=O)C(C)NC)C(C)(C)C)C(C(=O)NC1CCCc4ccccc41)C3)C2(C)C

> <Shape>
0.265

> <Color>
0.065

> <Negative vol penalty>
0.000

$$$$

  -OEChem-04052322273D

 89 98  0     1  0  0  0  0  0999 V2000
  -17.0599  -30.3105   17.7577 C   0  0  0  0  0  0  0  0  0  0  0  0
  -18.1280  -29.4470   17.5360 C   0  0  0  0  0  0  0  0  0  0  0  0
  -23.0405  -10.2436   19.8921 C   0  0  0  0  0  0  0  0  0  0  0  0
  -23.8130   -9.8669   22.1500 C   0  0  0  0  0  0  0  0  0  0  0  0
  -17.2875  -31.5730   18.3038 C   0  0  0  0  0  0  0  0  0  0  0  0
  -19.4244  -29.8461   17.8592 C   0  0  0  0  0  0  0  0  0  0  0  0
  -23.9459  -26.3022   19.9812 C   0  0  0  0  0  0  0  0  0  0  0  0
  -22.2214   -9.1184   19.9845 C   0  0  0  0  0  0  0  0  0  0  0  0
  -22.9939   -8.7416   22.2425 C   0  0  0  0  0  0  0  0  0  0  0  0
  -25.0298  -25.6890   19.3544 C   0  0  0  0  0  0  0  0  0  0  0  0
  -19.7227   -8.0810   22.7746 C   0  0  0  0  0  0  0  0  0  0  0  0
  -18.9719   -7.9218   23.9392 C   0  0  0  0  0  0  0  0  0  0  0  0
  -26.4358  -27.5458   19.9825 C   0  0  0  0  0  0  0  0  0  0  0  0
  -20.0830   -5.8198   24.3682 C   0  0  0  0  0  0  0  0  0  0  0  0
  -28.9626  -21.9271   16.3142 C   0  0  0  0  0  0  0  0  0  0  0  0
  -23.8364  -10.6178   20.9748 C   0  0  0  0  0  0  0  0  0  0  0  0
  -24.3485  -13.1053   21.2155 C   0  0  0  0  0  0  0  0  0  0  0  0
  -18.5862  -31.9840   18.6429 C   0  0  0  0  0  0  0  0  0  0  0  0
  -24.0965  -27.5491   20.6049 C   0  0  0  0  0  0  0  0  0  0  0  0
  -19.6697  -31.1158   18.4091 C   0  0  0  0  0  0  0  0  0  0  0  0
  -25.3528  -28.1716   20.6187 C   0  0  0  0  0  0  0  0  0  0  0  0
  -27.9075  -22.5876   15.7055 C   0  0  0  0  0  0  0  0  0  0  0  0
  -26.7680  -21.8515   15.4007 C   0  0  0  0  0  0  0  0  0  0  0  0
  -26.7190  -20.4967   15.7095 C   0  0  0  0  0  0  0  0  0  0  0  0
  -22.1981   -8.3674   21.1597 C   0  0  0  0  0  0  0  0  0  0  0  0
  -26.2743  -26.3121   19.3525 C   0  0  0  0  0  0  0  0  0  0  0  0
  -20.6536   -7.1096   22.4066 C   0  0  0  0  0  0  0  0  0  0  0  0
  -19.1521   -6.7912   24.7361 C   0  0  0  0  0  0  0  0  0  0  0  0
  -20.8338   -5.9790   23.2034 C   0  0  0  0  0  0  0  0  0  0  0  0
  -24.6831  -11.7798   20.8797 C   0  0  0  0  0  0  0  0  0  0  0  0
  -27.8273  -19.9298   16.3178 C   0  0  0  0  0  0  0  0  0  0  0  0
  -25.4869  -13.8254   20.9471 C   0  0  0  0  0  0  0  0  0  0  0  0
  -23.1186  -13.6380   21.7247 C   0  0  0  0  0  0  0  0  0  0  0  0
  -22.8450  -30.4389   20.1731 C   0  0  0  0  0  0  0  0  0  0  0  0
  -24.4855  -31.1275   22.8855 C   0  0  0  0  0  0  0  0  0  0  0  0
  -27.0829  -30.3801   24.9692 C   0  0  0  0  0  0  0  0  0  0  0  0
  -29.6139  -14.8274   17.1933 C   0  0  0  0  0  0  0  0  0  0  0  0
  -18.7883  -33.3762   19.1868 C   0  0  0  0  0  0  0  0  0  0  0  0
  -22.9237  -28.1849   21.2997 C   0  0  0  0  0  0  0  0  0  0  0  0
  -25.5718  -29.5010   21.2919 C   0  0  0  0  0  0  0  0  0  0  0  0
  -20.1483  -33.5797   19.8495 C   0  0  0  0  0  0  0  0  0  0  0  0
  -30.1848  -12.3222   19.8547 C   0  0  0  0  0  0  0  0  0  0  0  0
  -21.2599  -33.0132   18.9720 C   0  0  0  0  0  0  0  0  0  0  0  0
  -28.7655  -12.0185   20.3336 C   0  0  0  0  0  0  0  0  0  0  0  0
  -30.2107  -12.7554   18.3915 C   0  0  0  0  0  0  0  0  0  0  0  0
  -27.5952  -17.5914   15.5596 C   0  0  0  0  0  0  0  0  0  0  0  0
  -28.6566  -16.5030   15.6754 C   0  0  0  0  0  0  0  0  0  0  0  0
  -27.8909  -13.5863   18.5594 C   0  0  0  0  0  0  0  0  0  0  0  0
  -27.9350  -16.5360   18.0535 C   0  0  0  0  0  0  0  0  0  0  0  0
  -21.0875  -31.5029   18.7696 C   0  0  1  0  0  0  0  0  0  0  0  0
  -23.0704  -29.6950   21.4590 C   0  0  1  0  0  0  0  0  0  0  0  0
  -27.8235  -13.2006   20.0441 C   0  0  1  0  0  0  0  0  0  0  0  0
  -28.0373  -18.0735   17.9953 C   0  0  2  0  0  0  0  0  0  0  0  0
  -25.6016  -22.5177   14.7435 C   0  0  0  0  0  0  0  0  0  0  0  0
  -25.5048  -19.6878   15.3905 C   0  0  0  0  0  0  0  0  0  0  0  0
  -27.0260  -18.6551   18.9907 C   0  0  0  0  0  0  0  0  0  0  0  0
  -29.1409  -24.3221   14.3788 C   0  0  0  0  0  0  0  0  0  0  0  0
  -28.1925  -31.1440   27.0864 C   0  0  0  0  0  0  0  0  0  0  0  0
  -25.7576  -33.4543   21.3764 C   0  0  0  0  0  0  0  0  0  0  0  0
  -27.4996  -33.5746   23.1706 C   0  0  0  0  0  0  0  0  0  0  0  0
  -25.1024  -33.9733   23.7335 C   0  0  0  0  0  0  0  0  0  0  0  0
  -26.5478  -27.8004   26.3175 C   0  0  0  0  0  0  0  0  0  0  0  0
  -28.2242  -24.9392   16.6474 C   0  0  0  0  0  0  0  0  0  0  0  0
  -27.0518  -24.8780   17.6220 C   0  0  0  0  0  0  0  0  0  1  0  0
  -28.0158  -24.0410   15.3981 C   0  0  2  0  0  0  0  0  0  0  0  0
  -25.8757  -31.6269   23.1965 C   0  0  1  0  0  0  0  0  0  0  0  0
  -27.1503  -30.2191   26.4772 C   0  0  2  0  0  0  0  0  0  0  0  0
  -26.0546  -33.1331   22.8548 C   0  0  0  0  0  0  0  0  0  0  0  0
  -28.9518  -20.6125   16.6293 N   0  0  0  0  0  0  0  0  0  0  0  0
  -25.9359  -11.6619   20.4319 N   0  0  0  0  0  0  0  0  0  0  0  0
  -26.3985  -12.9226   20.4845 N   0  0  0  0  0  0  0  0  0  0  0  0
  -27.7850  -18.5722   16.6301 N   0  0  3  0  0  0  0  0  0  0  0  0
  -24.3928  -30.0855   21.9521 N   0  0  0  0  0  0  0  0  0  0  0  0
  -29.2747  -13.8519   18.1424 N   0  0  0  0  0  0  0  0  0  0  0  0
  -28.7031  -15.8775   16.9927 N   0  0  0  0  0  0  0  0  0  0  0  0
  -25.7869  -15.1364   21.0640 N   0  0  0  0  0  0  0  0  0  0  0  0
  -22.0492  -12.7588   21.9431 N   0  0  0  0  0  0  0  0  0  0  0  0
  -21.5260  -30.7821   19.9455 N   0  0  0  0  0  0  0  0  0  0  0  0
  -26.1241  -31.2981   24.5960 N   0  0  0  0  0  0  0  0  0  0  0  0
  -27.5022  -28.8154   26.8331 N   0  3  0  0  0  0  0  0  0  0  0  0
  -22.9670  -14.8602   21.9631 O   0  0  0  0  0  0  0  0  0  0  0  0
  -23.7975  -30.6847   19.4424 O   0  0  0  0  0  0  0  0  0  0  0  0
  -23.5179  -31.6381   23.4554 O   0  0  0  0  0  0  0  0  0  0  0  0
  -27.8106  -29.7568   24.1996 O   0  0  0  0  0  0  0  0  0  0  0  0
  -30.6822  -14.7749   16.5699 O   0  0  0  0  0  0  0  0  0  0  0  0
  -21.3988   -7.2695   21.2504 O   0  0  0  0  0  0  0  0  0  0  0  0
  -27.3413  -25.7118   18.7367 O   0  0  0  0  0  0  0  0  0  1  0  0
  -18.4321   -6.6392   25.8553 F   0  0  0  0  0  0  0  0  0  0  0  0
  -21.7275   -5.0429   22.8557 F   0  0  0  0  0  0  0  0  0  0  0  0
  1  2  1  0  0  0  0
  1  5  2  0  0  0  0
  2  6  2  0  0  0  0
  3  8  2  0  0  0  0
  3 16  1  0  0  0  0
  4  9  1  0  0  0  0
  4 16  2  0  0  0  0
  5 18  1  0  0  0  0
  6 20  1  0  0  0  0
  7 10  2  0  0  0  0
  7 19  1  0  0  0  0
  8 25  1  0  0  0  0
  9 25  2  0  0  0  0
 10 26  1  0  0  0  0
 11 12  2  0  0  0  0
 11 27  1  0  0  0  0
 12 28  1  0  0  0  0
 13 21  1  0  0  0  0
 13 26  2  0  0  0  0
 14 28  2  0  0  0  0
 14 29  1  0  0  0  0
 15 22  1  0  0  0  0
 15 69  2  0  0  0  0
 16 30  1  0  0  0  0
 17 30  1  0  0  0  0
 17 32  2  0  0  0  0
 17 33  1  0  0  0  0
 18 20  2  0  0  0  0
 18 38  1  0  0  0  0
 19 21  2  0  0  0  0
 19 39  1  0  0  0  0
 20 50  1  0  0  0  0
 21 40  1  0  0  0  0
 22 23  2  0  0  0  0
 22 65  1  0  0  0  0
 23 24  1  0  0  0  0
 23 54  1  0  0  0  0
 24 31  2  0  0  0  0
 24 55  1  0  0  0  0
 25 86  1  0  0  0  0
 26 87  1  0  0  0  0
 27 29  2  0  0  0  0
 27 86  1  0  0  0  0
 28 88  1  0  0  0  0
 29 89  1  0  0  0  0
 30 70  2  0  0  0  0
 31 69  1  0  0  0  0
 31 72  1  0  0  0  0
 32 71  1  0  0  0  0
 32 76  1  0  0  0  0
 33 77  1  0  0  0  0
 33 81  2  0  0  0  0
 34 51  1  0  0  0  0
 34 78  1  0  0  0  0
 34 82  2  0  0  0  0
 35 66  1  0  0  0  0
 35 73  1  0  0  0  0
 35 83  2  0  0  0  0
 36 67  1  0  0  0  0
 36 79  1  0  0  0  0
 36 84  2  0  0  0  0
 37 74  1  0  0  0  0
 37 75  1  0  0  0  0
 37 85  2  0  0  0  0
 38 41  1  0  0  0  0
 39 51  1  0  0  0  0
 40 73  1  0  0  0  0
 41 43  1  0  0  0  0
 42 44  1  0  0  0  0
 42 45  1  0  0  0  0
 43 50  1  0  0  0  0
 44 52  1  0  0  0  0
 45 74  1  0  0  0  0
 46 47  1  0  0  0  0
 46 72  1  0  0  0  0
 47 75  1  0  0  0  0
 48 52  1  0  0  0  0
 48 74  1  0  0  0  0
 49 53  1  0  0  0  0
 49 75  1  0  0  0  0
 50 78  1  0  0  0  0
 51 73  1  0  0  0  0
 52 71  1  0  0  0  0
 53 56  1  0  0  0  0
 53 72  1  0  0  0  0
 57 65  1  0  0  0  0
 58 67  1  0  0  0  0
 59 68  1  0  0  0  0
 60 68  1  0  0  0  0
 61 68  1  0  0  0  0
 62 80  1  0  0  0  0
 63 64  1  0  0  0  0
 63 65  1  0  0  0  0
 64 87  1  0  0  0  0
 66 68  1  0  0  0  0
 66 79  1  0  0  0  0
 67 80  1  0  0  0  0
 70 71  1  0  0  0  0
M  CHG  1  80   1
M  ISO  4  37 100  64 101  75 100  87 101
M  END
> <Batch ID>
0167

> <Smiles>
CNC(C)C(=O)NC(C(=O)N1Cc2cc([101O:1][101CH2:1]CC(C)c3cnc(N4CC[100N:0]([100C:0](=O)N5CCCC(n6nc(-c7ccc(Oc8ccc(F)cc8F)cc7)c(C(N)=O)c6N)C5)CC4C)c(C)c3C)ccc2CC1C(=O)NC1CCCc2ccccc21)C(C)(C)C

> <Shape>
0.270

> <Color>
0.159

> <Negative vol penalty>
0.000

$$$$

  -OEChem-04052322273D

 84 93  0     1  0  0  0  0  0999 V2000
  -29.2013  -31.0070   26.6482 C   0  0  0  0  0  0  0  0  0  0  0  0
  -28.9668  -30.0050   25.7120 C   0  0  0  0  0  0  0  0  0  0  0  0
  -23.1971  -10.5674   21.5057 C   0  0  0  0  0  0  0  0  0  0  0  0
  -24.8133   -8.8053   21.8523 C   0  0  0  0  0  0  0  0  0  0  0  0
  -28.1293  -31.6983   27.2111 C   0  0  0  0  0  0  0  0  0  0  0  0
  -27.6599  -29.6931   25.3388 C   0  0  0  0  0  0  0  0  0  0  0  0
  -27.1472  -29.1481   20.3303 C   0  0  0  0  0  0  0  0  0  0  0  0
  -22.1826   -9.6161   21.3997 C   0  0  0  0  0  0  0  0  0  0  0  0
  -23.7987   -7.8539   21.7464 C   0  0  0  0  0  0  0  0  0  0  0  0
  -27.5854  -27.9479   19.7723 C   0  0  0  0  0  0  0  0  0  0  0  0
  -21.3465   -6.6014   23.7057 C   0  0  0  0  0  0  0  0  0  0  0  0
  -21.3264   -5.5704   24.6449 C   0  0  0  0  0  0  0  0  0  0  0  0
  -26.8744  -22.4348   18.8919 C   0  0  0  0  0  0  0  0  0  0  0  0
  -25.3099  -27.1487   19.7196 C   0  0  0  0  0  0  0  0  0  0  0  0
  -21.5592   -3.9485   22.8694 C   0  0  0  0  0  0  0  0  0  0  0  0
  -27.9234  -21.3315   17.0646 C   0  0  0  0  0  0  0  0  0  0  0  0
  -24.5125  -10.1620   21.7319 C   0  0  0  0  0  0  0  0  0  0  0  0
  -26.0080  -11.7843   23.0123 C   0  0  0  0  0  0  0  0  0  0  0  0
  -26.8091  -31.4012   26.8375 C   0  0  0  0  0  0  0  0  0  0  0  0
  -25.7861  -29.3537   20.5977 C   0  0  0  0  0  0  0  0  0  0  0  0
  -26.5691  -30.3802   25.8982 C   0  0  0  0  0  0  0  0  0  0  0  0
  -27.4754  -21.2924   18.3752 C   0  0  0  0  0  0  0  0  0  0  0  0
  -24.8568  -28.3534   20.2787 C   0  0  0  0  0  0  0  0  0  0  0  0
  -26.7415  -23.5654   18.0935 C   0  0  0  0  0  0  0  0  0  0  0  0
  -22.4833   -8.2594   21.5202 C   0  0  0  0  0  0  0  0  0  0  0  0
  -26.6670  -26.9469   19.4695 C   0  0  0  0  0  0  0  0  0  0  0  0
  -21.4729   -6.3060   22.3483 C   0  0  0  0  0  0  0  0  0  0  0  0
  -21.4328   -4.2439   24.2268 C   0  0  0  0  0  0  0  0  0  0  0  0
  -21.5793   -4.9795   21.9302 C   0  0  0  0  0  0  0  0  0  0  0  0
  -25.5611  -11.1442   21.8408 C   0  0  0  0  0  0  0  0  0  0  0  0
  -27.2225  -23.5028   16.7956 C   0  0  0  0  0  0  0  0  0  0  0  0
  -27.0114  -12.6195   22.5858 C   0  0  0  0  0  0  0  0  0  0  0  0
  -25.5565  -11.6369   24.3651 C   0  0  0  0  0  0  0  0  0  0  0  0
  -24.0713  -29.8899   23.2199 C   0  0  0  0  0  0  0  0  0  0  0  0
  -21.6573  -30.2858   21.0896 C   0  0  0  0  0  0  0  0  0  0  0  0
  -20.3910  -29.6250   17.9901 C   0  0  0  0  0  0  0  0  0  0  0  0
  -29.1634  -16.2380   19.0791 C   0  0  0  0  0  0  0  0  0  0  0  0
  -25.6804  -32.1433   27.5083 C   0  0  0  0  0  0  0  0  0  0  0  0
  -25.3265  -30.6643   21.1752 C   0  0  0  0  0  0  0  0  0  0  0  0
  -23.3822  -28.5324   20.5275 C   0  0  0  0  0  0  0  0  0  0  0  0
  -24.3452  -32.0080   26.7808 C   0  0  0  0  0  0  0  0  0  0  0  0
  -29.3932  -12.9188   18.1418 C   0  0  0  0  0  0  0  0  0  0  0  0
  -24.0873  -30.5524   26.4047 C   0  0  0  0  0  0  0  0  0  0  0  0
  -28.4562  -12.2012   19.1131 C   0  0  0  0  0  0  0  0  0  0  0  0
  -26.8594  -18.8484   18.6376 C   0  0  0  0  0  0  0  0  0  0  0  0
  -29.1168  -19.6756   19.4311 C   0  0  0  0  0  0  0  0  0  0  0  0
  -28.7870  -14.2359   17.6716 C   0  0  0  0  0  0  0  0  0  0  0  0
  -27.0528  -17.5824   19.4773 C   0  0  0  0  0  0  0  0  0  0  0  0
  -29.2448  -18.4071   20.2695 C   0  0  0  0  0  0  0  0  0  0  0  0
  -27.4884  -14.4617   19.7646 C   0  0  0  0  0  0  0  0  0  0  0  0
  -27.6367  -20.0426   19.2199 C   0  0  0  0  0  0  0  0  0  0  0  0
  -25.1670  -30.0298   25.4494 C   0  0  1  0  0  0  0  0  0  0  0  0
  -23.9777  -30.5659   21.8813 C   0  0  1  0  0  0  0  0  0  0  0  0
  -28.0564  -13.1232   20.2787 C   0  0  1  0  0  0  0  0  0  0  0  0
  -27.1077  -24.6873   15.8926 C   0  0  0  0  0  0  0  0  0  0  0  0
  -18.3803  -30.0538   16.5512 C   0  0  0  0  0  0  0  0  0  0  0  0
  -20.0779  -28.2194   22.6850 C   0  0  0  0  0  0  0  0  0  0  0  0
  -18.5338  -27.9908   20.7276 C   0  0  0  0  0  0  0  0  0  0  0  0
  -18.7377  -30.1810   21.9040 C   0  0  0  0  0  0  0  0  0  0  0  0
  -22.0073  -31.0331   15.9495 C   0  0  0  0  0  0  0  0  0  0  0  0
  -26.0969  -24.7921   18.6402 C   0  0  0  0  0  0  0  0  0  1  0  0
  -20.6395  -29.3755   20.4458 C   0  0  1  0  0  0  0  0  0  0  0  0
  -19.7707  -30.5305   16.9414 C   0  0  2  0  0  0  0  0  0  0  0  0
  -19.5252  -28.9372   21.4376 C   0  0  0  0  0  0  0  0  0  0  0  0
  -27.8120  -22.4111   16.2586 N   0  0  0  0  0  0  0  0  0  0  0  0
  -26.2260  -11.5391   20.7518 N   0  0  0  0  0  0  0  0  0  0  0  0
  -27.1008  -12.4364   21.2372 N   0  0  0  0  0  0  0  0  0  0  0  0
  -22.9828  -29.8290   21.0994 N   0  0  0  0  0  0  0  0  0  0  0  0
  -28.4176  -15.0812   18.8068 N   0  0  0  0  0  0  0  0  0  0  0  0
  -28.4820  -17.3071   19.6799 N   0  0  0  0  0  0  0  0  0  0  0  0
  -27.8171  -13.4855   23.2365 N   0  0  0  0  0  0  0  0  0  0  0  0
  -24.5160  -10.7354   24.6278 N   0  0  0  0  0  0  0  0  0  0  0  0
  -24.9297  -30.5125   24.1058 N   0  0  0  0  0  0  0  0  0  0  0  0
  -20.1472  -30.0819   19.2681 N   0  0  0  0  0  0  0  0  0  0  0  0
  -20.6184  -30.5604   15.7161 N   0  3  0  0  0  0  0  0  0  0  0  0
  -26.0496  -12.2976   25.3105 O   0  0  0  0  0  0  0  0  0  0  0  0
  -23.4123  -28.8791   23.4337 O   0  0  0  0  0  0  0  0  0  0  0  0
  -21.2909  -31.3657   21.5599 O   0  0  0  0  0  0  0  0  0  0  0  0
  -21.0250  -28.6116   17.7044 O   0  0  0  0  0  0  0  0  0  0  0  0
  -30.3673  -16.3116   18.8027 O   0  0  0  0  0  0  0  0  0  0  0  0
  -21.4935   -7.3308   21.4171 O   0  0  0  0  0  0  0  0  0  0  0  0
  -27.0949  -25.7664   18.9217 O   0  0  0  0  0  0  0  0  0  1  0  0
  -21.4150   -3.2540   25.1289 F   0  0  0  0  0  0  0  0  0  0  0  0
  -21.7022   -4.6896   20.6276 F   0  0  0  0  0  0  0  0  0  0  0  0
  1  2  1  0  0  0  0
  1  5  2  0  0  0  0
  2  6  2  0  0  0  0
  3  8  2  0  0  0  0
  3 17  1  0  0  0  0
  4  9  1  0  0  0  0
  4 17  2  0  0  0  0
  5 19  1  0  0  0  0
  6 21  1  0  0  0  0
  7 10  2  0  0  0  0
  7 20  1  0  0  0  0
  8 25  1  0  0  0  0
  9 25  2  0  0  0  0
 10 26  1  0  0  0  0
 11 12  2  0  0  0  0
 11 27  1  0  0  0  0
 12 28  1  0  0  0  0
 13 22  2  0  0  0  0
 13 24  1  0  0  0  0
 14 23  1  0  0  0  0
 14 26  2  0  0  0  0
 15 28  2  0  0  0  0
 15 29  1  0  0  0  0
 16 22  1  0  0  0  0
 16 65  2  0  0  0  0
 17 30  1  0  0  0  0
 18 30  1  0  0  0  0
 18 32  2  0  0  0  0
 18 33  1  0  0  0  0
 19 21  2  0  0  0  0
 19 38  1  0  0  0  0
 20 23  2  0  0  0  0
 20 39  1  0  0  0  0
 21 52  1  0  0  0  0
 22 51  1  0  0  0  0
 23 40  1  0  0  0  0
 24 31  2  0  0  0  0
 24 61  1  0  0  0  0
 25 81  1  0  0  0  0
 26 82  1  0  0  0  0
 27 29  2  0  0  0  0
 27 81  1  0  0  0  0
 28 83  1  0  0  0  0
 29 84  1  0  0  0  0
 30 66  2  0  0  0  0
 31 55  1  0  0  0  0
 31 65  1  0  0  0  0
 32 67  1  0  0  0  0
 32 71  1  0  0  0  0
 33 72  1  0  0  0  0
 33 76  2  0  0  0  0
 34 53  1  0  0  0  0
 34 73  1  0  0  0  0
 34 77  2  0  0  0  0
 35 62  1  0  0  0  0
 35 68  1  0  0  0  0
 35 78  2  0  0  0  0
 36 63  1  0  0  0  0
 36 74  1  0  0  0  0
 36 79  2  0  0  0  0
 37 69  1  0  0  0  0
 37 70  1  0  0  0  0
 37 80  2  0  0  0  0
 38 41  1  0  0  0  0
 39 53  1  0  0  0  0
 40 68  1  0  0  0  0
 41 43  1  0  0  0  0
 42 44  1  0  0  0  0
 42 47  1  0  0  0  0
 43 52  1  0  0  0  0
 44 54  1  0  0  0  0
 45 48  1  0  0  0  0
 45 51  1  0  0  0  0
 46 49  1  0  0  0  0
 46 51  1  0  0  0  0
 47 69  1  0  0  0  0
 48 70  1  0  0  0  0
 49 70  1  0  0  0  0
 50 54  1  0  0  0  0
 50 69  1  0  0  0  0
 52 73  1  0  0  0  0
 53 68  1  0  0  0  0
 54 67  1  0  0  0  0
 56 63  1  0  0  0  0
 57 64  1  0  0  0  0
 58 64  1  0  0  0  0
 59 64  1  0  0  0  0
 60 75  1  0  0  0  0
 61 82  1  0  0  0  0
 62 64  1  0  0  0  0
 62 74  1  0  0  0  0
 63 75  1  0  0  0  0
 66 67  1  0  0  0  0
M  CHG  1  75   1
M  ISO  4  37 100  61 101  70 100  82 101
M  END
> <Batch ID>
0167

> <Smiles>
CNC(C)C(=O)NC(C(=O)N1Cc2cc([101O:1][101CH2:1]c3cc(C4CC[100N:0]([100C:0](=O)N5CCCC(n6nc(-c7ccc(Oc8ccc(F)cc8F)cc7)c(C(N)=O)c6N)C5)CC4)cnc3C)ccc2CC1C(=O)NC1CCCc2ccccc21)C(C)(C)C

> <Shape>
0.303

> <Color>
0.126

> <Negative vol penalty>
0.000

$$$$

  -OEChem-04052322273D

 87 97  0     1  0  0  0  0  0999 V2000
  -21.3089  -31.7075   15.8435 C   0  0  0  0  0  0  0  0  0  0  0  0
  -21.2982  -30.3314   15.6396 C   0  0  0  0  0  0  0  0  0  0  0  0
  -23.1988   -9.8124   19.9263 C   0  0  0  0  0  0  0  0  0  0  0  0
  -23.5443   -9.9995   22.3101 C   0  0  0  0  0  0  0  0  0  0  0  0
  -22.3420  -32.4812   15.3160 C   0  0  0  0  0  0  0  0  0  0  0  0
  -22.3199  -29.7282   14.9071 C   0  0  0  0  0  0  0  0  0  0  0  0
  -24.0581  -19.1789   17.9412 C   0  0  0  0  0  0  0  0  0  0  0  0
  -25.2637  -18.4862   17.8314 C   0  0  0  0  0  0  0  0  0  0  0  0
  -24.0432  -25.4988   17.0951 C   0  0  0  0  0  0  0  0  0  0  0  0
  -22.4285   -8.6671   20.1278 C   0  0  0  0  0  0  0  0  0  0  0  0
  -22.7740   -8.8542   22.5117 C   0  0  0  0  0  0  0  0  0  0  0  0
  -23.2703  -24.3473   16.9516 C   0  0  0  0  0  0  0  0  0  0  0  0
  -23.1753   -5.5064   22.2631 C   0  0  0  0  0  0  0  0  0  0  0  0
  -23.6605   -4.5472   23.1520 C   0  0  0  0  0  0  0  0  0  0  0  0
  -23.8570  -19.2104   15.5337 C   0  0  0  0  0  0  0  0  0  0  0  0
  -24.7346  -23.5914   15.1899 C   0  0  0  0  0  0  0  0  0  0  0  0
  -21.6851   -4.8133   24.5174 C   0  0  0  0  0  0  0  0  0  0  0  0
  -23.7568  -10.4785   21.0174 C   0  0  0  0  0  0  0  0  0  0  0  0
  -24.1014  -12.9941   20.7709 C   0  0  0  0  0  0  0  0  0  0  0  0
  -23.3546  -19.5410   16.7923 C   0  0  0  0  0  0  0  0  0  0  0  0
  -23.3820  -31.8859   14.5848 C   0  0  0  0  0  0  0  0  0  0  0  0
  -25.1631  -25.7107   16.2783 C   0  0  0  0  0  0  0  0  0  0  0  0
  -23.3671  -30.4948   14.3681 C   0  0  0  0  0  0  0  0  0  0  0  0
  -25.7661  -18.1556   16.5728 C   0  0  0  0  0  0  0  0  0  0  0  0
  -25.5215  -24.7452   15.3268 C   0  0  0  0  0  0  0  0  0  0  0  0
  -25.0627  -18.5177   15.4240 C   0  0  0  0  0  0  0  0  0  0  0  0
  -22.2161   -8.1880   21.4205 C   0  0  0  0  0  0  0  0  0  0  0  0
  -23.6143  -23.3948   15.9969 C   0  0  0  0  0  0  0  0  0  0  0  0
  -21.9450   -6.1191   22.5014 C   0  0  0  0  0  0  0  0  0  0  0  0
  -22.9154   -4.2006   24.2791 C   0  0  0  0  0  0  0  0  0  0  0  0
  -21.2000   -5.7725   23.6285 C   0  0  0  0  0  0  0  0  0  0  0  0
  -24.5530  -11.6613   20.8098 C   0  0  0  0  0  0  0  0  0  0  0  0
  -25.2365  -13.7349   20.5490 C   0  0  0  0  0  0  0  0  0  0  0  0
  -22.7744  -13.5158   20.9218 C   0  0  0  0  0  0  0  0  0  0  0  0
  -25.9914  -27.9044   14.1322 C   0  0  0  0  0  0  0  0  0  0  0  0
  -28.8136  -26.3054   14.1620 C   0  0  0  0  0  0  0  0  0  0  0  0
  -30.4886  -23.3958   14.7748 C   0  0  0  0  0  0  0  0  0  0  0  0
  -30.0131  -14.6747   18.0560 C   0  0  0  0  0  0  0  0  0  0  0  0
  -24.4520  -32.7694   13.9939 C   0  0  0  0  0  0  0  0  0  0  0  0
  -26.0019  -26.9454   16.4638 C   0  0  0  0  0  0  0  0  0  0  0  0
  -26.7261  -24.9156   14.4389 C   0  0  0  0  0  0  0  0  0  0  0  0
  -25.6957  -32.0047   13.5481 C   0  0  0  0  0  0  0  0  0  0  0  0
  -30.1152  -12.4328   20.6857 C   0  0  0  0  0  0  0  0  0  0  0  0
  -25.3030  -30.7667   12.7482 C   0  0  0  0  0  0  0  0  0  0  0  0
  -28.6421  -12.1315   20.9614 C   0  0  0  0  0  0  0  0  0  0  0  0
  -20.9317  -19.6166   17.6677 C   0  0  0  0  0  0  0  0  0  0  0  0
  -20.8588  -19.7239   16.1766 C   0  0  0  0  0  0  0  0  0  0  0  0
  -28.0410  -17.7759   17.6213 C   0  0  0  0  0  0  0  0  0  0  0  0
  -26.8681  -15.8793   16.4262 C   0  0  0  0  0  0  0  0  0  0  0  0
  -30.3875  -12.5032   19.1873 C   0  0  0  0  0  0  0  0  0  0  0  0
  -29.3489  -16.9932   17.5311 C   0  0  0  0  0  0  0  0  0  0  0  0
  -28.2018  -15.1407   16.3613 C   0  0  0  0  0  0  0  0  0  0  0  0
  -28.0611  -13.2065   18.7319 C   0  0  0  0  0  0  0  0  0  0  0  0
  -27.0800  -17.4027   16.4794 C   0  0  0  0  0  0  0  0  0  0  0  0
  -24.4709  -29.8006   13.6000 C   0  0  1  0  0  0  0  0  0  0  0  0
  -26.8233  -27.3010   15.2283 C   0  0  1  0  0  0  0  0  0  0  0  0
  -27.7282  -13.1345   20.2356 C   0  0  1  0  0  0  0  0  0  0  0  0
  -22.0664  -20.2809   16.9089 C   0  0  0  0  0  0  0  0  0  0  0  0
  -25.5813  -18.1746   14.0661 C   0  0  0  0  0  0  0  0  0  0  0  0
  -32.7826  -22.3839   14.6702 C   0  0  0  0  0  0  0  0  0  0  0  0
  -28.5681  -26.0683   11.1300 C   0  0  0  0  0  0  0  0  0  0  0  0
  -30.3223  -24.2833   11.1973 C   0  0  0  0  0  0  0  0  0  0  0  0
  -30.8701  -26.5969   11.9520 C   0  0  0  0  0  0  0  0  0  0  0  0
  -30.5187  -22.8761   17.6882 C   0  0  0  0  0  0  0  0  0  0  0  0
  -22.1980  -21.7752   17.0102 C   0  0  0  0  0  0  0  0  0  1  0  0
  -29.3904  -25.1403   13.3946 C   0  0  1  0  0  0  0  0  0  0  0  0
  -31.7693  -23.1126   15.5390 C   0  0  2  0  0  0  0  0  0  0  0  0
  -29.7638  -25.5196   11.9337 C   0  0  0  0  0  0  0  0  0  0  0  0
  -25.8721  -11.5584   20.6272 N   0  0  0  0  0  0  0  0  0  0  0  0
  -26.2591  -12.8359   20.4712 N   0  0  0  0  0  0  0  0  0  0  0  0
  -27.5108  -26.1426   14.6542 N   0  0  0  0  0  0  0  0  0  0  0  0
  -29.4958  -13.4611   18.5340 N   0  0  0  0  0  0  0  0  0  0  0  0
  -29.1044  -15.5540   17.4445 N   0  0  0  0  0  0  0  0  0  0  0  0
  -25.4496  -15.0612   20.4147 N   0  0  0  0  0  0  0  0  0  0  0  0
  -21.7237  -12.6153   21.1441 N   0  0  0  0  0  0  0  0  0  0  0  0
  -25.3251  -29.0573   14.5013 N   0  0  0  0  0  0  0  0  0  0  0  0
  -30.5096  -24.6432   14.1876 N   0  0  0  0  0  0  0  0  0  0  0  0
  -31.4835  -22.2702   16.7347 N   0  3  0  0  0  0  0  0  0  0  0  0
  -22.5255  -14.7429   20.8450 O   0  0  0  0  0  0  0  0  0  0  0  0
  -25.9578  -27.3648   13.0325 O   0  0  0  0  0  0  0  0  0  0  0  0
  -29.4964  -27.3196   14.3252 O   0  0  0  0  0  0  0  0  0  0  0  0
  -29.5638  -22.5896   14.7026 O   0  0  0  0  0  0  0  0  0  0  0  0
  -31.2114  -14.9601   18.1721 O   0  0  0  0  0  0  0  0  0  0  0  0
  -21.4643   -7.0706   21.6175 O   0  0  0  0  0  0  0  0  0  0  0  0
  -22.8546  -22.2602   15.8530 O   0  0  0  0  0  0  0  0  0  1  0  0
  -23.3808   -3.2783   25.1318 F   0  0  0  0  0  0  0  0  0  0  0  0
  -20.0168   -6.3568   23.8621 F   0  0  0  0  0  0  0  0  0  0  0  0
  1  2  1  0  0  0  0
  1  5  2  0  0  0  0
  2  6  2  0  0  0  0
  3 10  2  0  0  0  0
  3 18  1  0  0  0  0
  4 11  1  0  0  0  0
  4 18  2  0  0  0  0
  5 21  1  0  0  0  0
  6 23  1  0  0  0  0
  7  8  2  0  0  0  0
  7 20  1  0  0  0  0
  8 24  1  0  0  0  0
  9 12  2  0  0  0  0
  9 22  1  0  0  0  0
 10 27  1  0  0  0  0
 11 27  2  0  0  0  0
 12 28  1  0  0  0  0
 13 14  2  0  0  0  0
 13 29  1  0  0  0  0
 14 30  1  0  0  0  0
 15 20  2  0  0  0  0
 15 26  1  0  0  0  0
 16 25  1  0  0  0  0
 16 28  2  0  0  0  0
 17 30  2  0  0  0  0
 17 31  1  0  0  0  0
 18 32  1  0  0  0  0
 19 32  1  0  0  0  0
 19 33  2  0  0  0  0
 19 34  1  0  0  0  0
 20 58  1  0  0  0  0
 21 23  2  0  0  0  0
 21 39  1  0  0  0  0
 22 25  2  0  0  0  0
 22 40  1  0  0  0  0
 23 55  1  0  0  0  0
 24 26  2  0  0  0  0
 24 54  1  0  0  0  0
 25 41  1  0  0  0  0
 26 59  1  0  0  0  0
 27 84  1  0  0  0  0
 28 85  1  0  0  0  0
 29 31  2  0  0  0  0
 29 84  1  0  0  0  0
 30 86  1  0  0  0  0
 31 87  1  0  0  0  0
 32 69  2  0  0  0  0
 33 70  1  0  0  0  0
 33 74  1  0  0  0  0
 34 75  1  0  0  0  0
 34 79  2  0  0  0  0
 35 56  1  0  0  0  0
 35 76  1  0  0  0  0
 35 80  2  0  0  0  0
 36 66  1  0  0  0  0
 36 71  1  0  0  0  0
 36 81  2  0  0  0  0
 37 67  1  0  0  0  0
 37 77  1  0  0  0  0
 37 82  2  0  0  0  0
 38 72  1  0  0  0  0
 38 73  1  0  0  0  0
 38 83  2  0  0  0  0
 39 42  1  0  0  0  0
 40 56  1  0  0  0  0
 41 71  1  0  0  0  0
 42 44  1  0  0  0  0
 43 45  1  0  0  0  0
 43 50  1  0  0  0  0
 44 55  1  0  0  0  0
 45 57  1  0  0  0  0
 46 47  1  0  0  0  0
 46 58  1  0  0  0  0
 47 58  1  0  0  0  0
 48 51  1  0  0  0  0
 48 54  1  0  0  0  0
 49 52  1  0  0  0  0
 49 54  1  0  0  0  0
 50 72  1  0  0  0  0
 51 73  1  0  0  0  0
 52 73  1  0  0  0  0
 53 57  1  0  0  0  0
 53 72  1  0  0  0  0
 55 76  1  0  0  0  0
 56 71  1  0  0  0  0
 57 70  1  0  0  0  0
 58 65  1  0  0  0  0
 60 67  1  0  0  0  0
 61 68  1  0  0  0  0
 62 68  1  0  0  0  0
 63 68  1  0  0  0  0
 64 78  1  0  0  0  0
 65 85  1  0  0  0  0
 66 68  1  0  0  0  0
 66 77  1  0  0  0  0
 67 78  1  0  0  0  0
 69 70  1  0  0  0  0
M  CHG  1  78   1
M  ISO  4  38 100  65 101  73 100  85 101
M  END
> <Batch ID>
0167

> <Smiles>
CNC(C)C(=O)NC(C(=O)N1Cc2cc([101O:1][101CH2:1]C3(c4ccc(C5CC[100N:0]([100C:0](=O)N6CCCC(n7nc(-c8ccc(Oc9ccc(F)cc9F)cc8)c(C(N)=O)c7N)C6)CC5)c(C)c4)CC3)ccc2CC1C(=O)NC1CCCc2ccccc21)C(C)(C)C

> <Shape>
0.150

> <Color>
0.190

> <Negative vol penalty>
0.000

$$$$

  -OEChem-04052322273D

 86 95  0     1  0  0  0  0  0999 V2000
  -28.3763  -31.8489   28.0003 C   0  0  0  0  0  0  0  0  0  0  0  0
  -28.5097  -30.8776   27.0134 C   0  0  0  0  0  0  0  0  0  0  0  0
  -25.0163   -9.4198   20.0539 C   0  0  0  0  0  0  0  0  0  0  0  0
  -24.6087   -9.7273   22.4153 C   0  0  0  0  0  0  0  0  0  0  0  0
  -27.1229  -32.3941   28.2754 C   0  0  0  0  0  0  0  0  0  0  0  0
  -27.3895  -30.4500   26.3016 C   0  0  0  0  0  0  0  0  0  0  0  0
  -27.1892  -28.7638   20.4175 C   0  0  0  0  0  0  0  0  0  0  0  0
  -24.7373   -8.0593   20.1829 C   0  0  0  0  0  0  0  0  0  0  0  0
  -24.3296   -8.3667   22.5443 C   0  0  0  0  0  0  0  0  0  0  0  0
  -27.2040  -27.5146   19.7987 C   0  0  0  0  0  0  0  0  0  0  0  0
  -21.7431   -6.2855   21.9127 C   0  0  0  0  0  0  0  0  0  0  0  0
  -20.6222   -5.9234   22.6598 C   0  0  0  0  0  0  0  0  0  0  0  0
  -24.7948  -27.5505   19.6819 C   0  0  0  0  0  0  0  0  0  0  0  0
  -22.0341   -4.6787   24.1746 C   0  0  0  0  0  0  0  0  0  0  0  0
  -24.9521  -10.2539   21.1702 C   0  0  0  0  0  0  0  0  0  0  0  0
  -24.3282  -12.6908   20.7460 C   0  0  0  0  0  0  0  0  0  0  0  0
  -25.9883  -31.9799   27.5600 C   0  0  0  0  0  0  0  0  0  0  0  0
  -25.9744  -29.4120   20.6834 C   0  0  0  0  0  0  0  0  0  0  0  0
  -26.1195  -30.9891   26.5683 C   0  0  0  0  0  0  0  0  0  0  0  0
  -24.7674  -28.8090   20.3019 C   0  0  0  0  0  0  0  0  0  0  0  0
  -24.3939   -7.5327   21.4280 C   0  0  0  0  0  0  0  0  0  0  0  0
  -26.0066  -26.9064   19.4334 C   0  0  0  0  0  0  0  0  0  0  0  0
  -23.0094   -5.8442   22.2965 C   0  0  0  0  0  0  0  0  0  0  0  0
  -20.7677   -5.1200   23.7908 C   0  0  0  0  0  0  0  0  0  0  0  0
  -23.1549   -5.0408   23.4275 C   0  0  0  0  0  0  0  0  0  0  0  0
  -25.2408  -11.6593   21.0377 C   0  0  0  0  0  0  0  0  0  0  0  0
  -25.0930  -13.8315   20.7304 C   0  0  0  0  0  0  0  0  0  0  0  0
  -22.9155  -12.6238   20.5104 C   0  0  0  0  0  0  0  0  0  0  0  0
  -24.4768  -30.3783   23.3153 C   0  0  0  0  0  0  0  0  0  0  0  0
  -28.0262  -18.8127   17.9060 C   0  0  0  0  0  0  0  0  0  0  0  0
  -22.4042  -31.6827   21.1881 C   0  0  0  0  0  0  0  0  0  0  0  0
  -21.0730  -31.6481   18.0459 C   0  0  0  0  0  0  0  0  0  0  0  0
  -29.6889  -16.5724   19.2765 C   0  0  0  0  0  0  0  0  0  0  0  0
  -24.6466  -32.5639   27.9254 C   0  0  0  0  0  0  0  0  0  0  0  0
  -25.9767  -30.7713   21.3274 C   0  0  0  0  0  0  0  0  0  0  0  0
  -23.4375  -29.4722   20.5467 C   0  0  0  0  0  0  0  0  0  0  0  0
  -23.5710  -32.3270   26.8684 C   0  0  0  0  0  0  0  0  0  0  0  0
  -29.5793  -16.4242   15.6750 C   0  0  0  0  0  0  0  0  0  0  0  0
  -29.8494  -14.6435   22.2025 C   0  0  0  0  0  0  0  0  0  0  0  0
  -23.5885  -30.8737   26.4053 C   0  0  0  0  0  0  0  0  0  0  0  0
  -29.0960  -17.8574   15.8579 C   0  0  0  0  0  0  0  0  0  0  0  0
  -28.6046  -13.7615   22.1373 C   0  0  0  0  0  0  0  0  0  0  0  0
  -26.2300  -21.5651   17.3900 C   0  0  0  0  0  0  0  0  0  0  0  0
  -26.0983  -23.0776   17.5861 C   0  0  0  0  0  0  0  0  0  0  0  0
  -30.4711  -14.8074   20.8215 C   0  0  0  0  0  0  0  0  0  0  0  0
  -29.1029  -15.7347   16.9427 C   0  0  0  0  0  0  0  0  0  0  0  0
  -28.2690  -14.5121   19.7269 C   0  0  0  0  0  0  0  0  0  0  0  0
  -24.9319  -30.5172   25.7575 C   0  0  1  0  0  0  0  0  0  0  0  0
  -24.6573  -31.1090   22.0149 C   0  0  1  0  0  0  0  0  0  0  0  0
  -29.2193  -18.0937   17.3605 C   0  0  2  0  0  0  0  0  0  0  0  0
  -27.7309  -22.3336   19.1591 C   0  0  1  0  0  0  0  0  0  0  0  0
  -27.6044  -14.3037   21.1032 C   0  0  1  0  0  0  0  0  0  0  0  0
  -27.1618  -21.0669   18.5009 C   0  0  2  0  0  0  0  0  0  0  0  0
  -26.5800  -23.3612   19.0212 C   0  0  2  0  0  0  0  0  0  0  0  0
  -28.2356  -22.0863   20.5760 C   0  0  0  0  0  0  0  0  0  0  0  0
  -25.4311  -23.1437   20.0223 C   0  0  0  0  0  0  0  0  0  0  0  0
  -19.3714  -32.8112   16.6144 C   0  0  0  0  0  0  0  0  0  0  0  0
  -20.1688  -30.2114   22.6539 C   0  0  0  0  0  0  0  0  0  0  0  0
  -18.6940  -30.6226   20.6731 C   0  0  0  0  0  0  0  0  0  0  0  0
  -19.6047  -32.5496   21.9691 C   0  0  0  0  0  0  0  0  0  0  0  0
  -23.1292  -32.5107   16.0999 C   0  0  0  0  0  0  0  0  0  0  0  0
  -27.0822  -24.8040   19.1524 C   0  0  0  0  0  0  0  0  0  1  0  0
  -21.1538  -31.2103   20.4864 C   0  0  1  0  0  0  0  0  0  0  0  0
  -20.8298  -32.7611   17.0426 C   0  0  2  0  0  0  0  0  0  0  0  0
  -19.9301  -31.1349   21.4426 C   0  0  0  0  0  0  0  0  0  0  0  0
  -26.4898  -12.1053   21.1958 N   0  0  0  0  0  0  0  0  0  0  0  0
  -26.3676  -13.4296   21.0027 N   0  0  0  0  0  0  0  0  0  0  0  0
  -23.4917  -30.7979   21.1849 N   0  0  0  0  0  0  0  0  0  0  0  0
  -29.4977  -15.3087   19.8503 N   0  0  0  0  0  0  0  0  0  0  0  0
  -29.2228  -16.7661   17.9730 N   0  0  0  0  0  0  0  0  0  0  0  0
  -24.7929  -15.1292   20.5104 N   0  0  0  0  0  0  0  0  0  0  0  0
  -22.2878  -11.3718   20.5643 N   0  0  0  0  0  0  0  0  0  0  0  0
  -24.9982  -31.0411   24.4101 N   0  0  0  0  0  0  0  0  0  0  0  0
  -28.1895  -20.1814   18.0020 N   0  0  0  0  0  0  0  0  0  0  0  0
  -20.9660  -32.0988   19.3446 N   0  0  0  0  0  0  0  0  0  0  0  0
  -21.6694  -32.5566   15.8284 N   0  3  0  0  0  0  0  0  0  0  0  0
  -22.2330  -13.6418   20.2433 O   0  0  0  0  0  0  0  0  0  0  0  0
  -23.9054  -29.2943   23.3251 O   0  0  0  0  0  0  0  0  0  0  0  0
  -27.0268  -18.1754   18.2172 O   0  0  0  0  0  0  0  0  0  0  0  0
  -22.4178  -32.7988   21.7134 O   0  0  0  0  0  0  0  0  0  0  0  0
  -21.3284  -30.4935   17.7109 O   0  0  0  0  0  0  0  0  0  0  0  0
  -30.2676  -17.4781   19.8907 O   0  0  0  0  0  0  0  0  0  0  0  0
  -24.1213   -6.2052   21.5542 O   0  0  0  0  0  0  0  0  0  0  0  0
  -26.0184  -25.6747   18.8240 O   0  0  0  0  0  0  0  0  0  1  0  0
  -19.6915   -4.7736   24.5090 F   0  0  0  0  0  0  0  0  0  0  0  0
  -24.3691   -4.6147   23.8018 F   0  0  0  0  0  0  0  0  0  0  0  0
  1  2  1  0  0  0  0
  1  5  2  0  0  0  0
  2  6  2  0  0  0  0
  3  8  2  0  0  0  0
  3 15  1  0  0  0  0
  4  9  1  0  0  0  0
  4 15  2  0  0  0  0
  5 17  1  0  0  0  0
  6 19  1  0  0  0  0
  7 10  2  0  0  0  0
  7 18  1  0  0  0  0
  8 21  1  0  0  0  0
  9 21  2  0  0  0  0
 10 22  1  0  0  0  0
 11 12  2  0  0  0  0
 11 23  1  0  0  0  0
 12 24  1  0  0  0  0
 13 20  1  0  0  0  0
 13 22  2  0  0  0  0
 14 24  2  0  0  0  0
 14 25  1  0  0  0  0
 15 26  1  0  0  0  0
 16 26  1  0  0  0  0
 16 27  2  0  0  0  0
 16 28  1  0  0  0  0
 17 19  2  0  0  0  0
 17 34  1  0  0  0  0
 18 20  2  0  0  0  0
 18 35  1  0  0  0  0
 19 48  1  0  0  0  0
 20 36  1  0  0  0  0
 21 83  1  0  0  0  0
 22 84  1  0  0  0  0
 23 25  2  0  0  0  0
 23 83  1  0  0  0  0
 24 85  1  0  0  0  0
 25 86  1  0  0  0  0
 26 66  2  0  0  0  0
 27 67  1  0  0  0  0
 27 71  1  0  0  0  0
 28 72  1  0  0  0  0
 28 77  2  0  0  0  0
 29 49  1  0  0  0  0
 29 73  1  0  0  0  0
 29 78  2  0  0  0  0
 30 50  1  0  0  0  0
 30 74  1  0  0  0  0
 30 79  2  0  0  0  0
 31 63  1  0  0  0  0
 31 68  1  0  0  0  0
 31 80  2  0  0  0  0
 32 64  1  0  0  0  0
 32 75  1  0  0  0  0
 32 81  2  0  0  0  0
 33 69  1  0  0  0  0
 33 70  1  0  0  0  0
 33 82  2  0  0  0  0
 34 37  1  0  0  0  0
 35 49  1  0  0  0  0
 36 68  1  0  0  0  0
 37 40  1  0  0  0  0
 38 41  1  0  0  0  0
 38 46  1  0  0  0  0
 39 42  1  0  0  0  0
 39 45  1  0  0  0  0
 40 48  1  0  0  0  0
 41 50  1  0  0  0  0
 42 52  1  0  0  0  0
 43 44  1  0  0  0  0
 43 53  1  0  0  0  0
 44 54  1  0  0  0  0
 45 69  1  0  0  0  0
 46 70  1  0  0  0  0
 47 52  1  0  0  0  0
 47 69  1  0  0  0  0
 48 73  1  0  0  0  0
 49 68  1  0  0  0  0
 50 70  1  0  0  0  0
 51 53  1  0  0  0  0
 51 54  1  0  0  0  0
 51 55  1  0  0  0  0
 52 67  1  0  0  0  0
 53 74  1  0  0  0  0
 54 56  1  0  0  0  0
 54 62  1  0  0  0  0
 57 64  1  0  0  0  0
 58 65  1  0  0  0  0
 59 65  1  0  0  0  0
 60 65  1  0  0  0  0
 61 76  1  0  0  0  0
 62 84  1  0  0  0  0
 63 65  1  0  0  0  0
 63 75  1  0  0  0  0
 64 76  1  0  0  0  0
 66 67  1  0  0  0  0
M  CHG  1  76   1
M  ISO  4  33 100  62 101  70 100  84 101
M  END
> <Batch ID>
0167

> <Smiles>
CNC(C)C(=O)NC(C(=O)N1Cc2cc([101O:1][101CH2:1]C3(C)CCC(NC(=O)C4CCC[100N:0]4[100C:0](=O)N4CCCC(n5nc(-c6ccc(Oc7ccc(F)cc7F)cc6)c(C(N)=O)c5N)C4)C3C)ccc2CC1C(=O)NC1CCCc2ccccc21)C(C)(C)C

> <Shape>
0.274

> <Color>
0.149

> <Negative vol penalty>
0.000

$$$$

  -OEChem-04052322273D

 85 94  0     1  0  0  0  0  0999 V2000
  -18.4553  -28.0078   18.1052 C   0  0  0  0  0  0  0  0  0  0  0  0
  -19.2541  -26.9384   18.4975 C   0  0  0  0  0  0  0  0  0  0  0  0
  -23.0014   -9.8879   19.9908 C   0  0  0  0  0  0  0  0  0  0  0  0
  -23.7195   -9.9625   22.2965 C   0  0  0  0  0  0  0  0  0  0  0  0
  -19.0440  -29.2108   17.7179 C   0  0  0  0  0  0  0  0  0  0  0  0
  -20.6422  -27.0712   18.5016 C   0  0  0  0  0  0  0  0  0  0  0  0
  -24.5732  -24.5153   22.4412 C   0  0  0  0  0  0  0  0  0  0  0  0
  -22.2351   -8.7554   20.2661 C   0  0  0  0  0  0  0  0  0  0  0  0
  -22.9531   -8.8299   22.5717 C   0  0  0  0  0  0  0  0  0  0  0  0
  -25.3725  -23.3758   22.3624 C   0  0  0  0  0  0  0  0  0  0  0  0
  -23.2020   -5.4867   22.1337 C   0  0  0  0  0  0  0  0  0  0  0  0
  -23.7882   -4.4776   22.8977 C   0  0  0  0  0  0  0  0  0  0  0  0
  -28.4218  -19.4898   23.2889 C   0  0  0  0  0  0  0  0  0  0  0  0
  -29.2571  -18.5414   20.8109 C   0  0  0  0  0  0  0  0  0  0  0  0
  -27.2374  -24.7393   21.6678 C   0  0  0  0  0  0  0  0  0  0  0  0
  -22.0589   -4.7355   24.5651 C   0  0  0  0  0  0  0  0  0  0  0  0
  -23.7437  -10.4915   21.0060 C   0  0  0  0  0  0  0  0  0  0  0  0
  -24.1272  -13.0055   20.8062 C   0  0  0  0  0  0  0  0  0  0  0  0
  -20.4397  -29.3615   17.7265 C   0  0  0  0  0  0  0  0  0  0  0  0
  -25.0979  -25.7762   22.1229 C   0  0  0  0  0  0  0  0  0  0  0  0
  -21.2501  -28.2769   18.1128 C   0  0  0  0  0  0  0  0  0  0  0  0
  -29.3718  -18.4571   23.2327 C   0  0  0  0  0  0  0  0  0  0  0  0
  -29.8028  -17.9833   21.9799 C   0  0  0  0  0  0  0  0  0  0  0  0
  -26.4433  -25.8936   21.7459 C   0  0  0  0  0  0  0  0  0  0  0  0
  -28.3084  -19.5607   20.8817 C   0  0  0  0  0  0  0  0  0  0  0  0
  -27.8911  -20.0352   22.1207 C   0  0  0  0  0  0  0  0  0  0  0  0
  -22.2110   -8.2264   21.5565 C   0  0  0  0  0  0  0  0  0  0  0  0
  -26.7041  -23.4872   21.9729 C   0  0  0  0  0  0  0  0  0  0  0  0
  -22.0443   -6.1203   22.5855 C   0  0  0  0  0  0  0  0  0  0  0  0
  -23.2166   -4.1020   24.1134 C   0  0  0  0  0  0  0  0  0  0  0  0
  -21.4728   -5.7447   23.8012 C   0  0  0  0  0  0  0  0  0  0  0  0
  -24.5359  -11.6610   20.7222 C   0  0  0  0  0  0  0  0  0  0  0  0
  -25.2374  -13.7255   20.4381 C   0  0  0  0  0  0  0  0  0  0  0  0
  -22.8575  -13.5545   21.1834 C   0  0  0  0  0  0  0  0  0  0  0  0
  -24.4546  -27.9847   19.9291 C   0  0  0  0  0  0  0  0  0  0  0  0
  -26.6463  -29.7095   21.5854 C   0  0  0  0  0  0  0  0  0  0  0  0
  -29.3350  -29.7233   23.6873 C   0  0  0  0  0  0  0  0  0  0  0  0
  -30.7321  -14.6678   20.6942 C   0  0  0  0  0  0  0  0  0  0  0  0
  -21.0319  -30.6657   17.2542 C   0  0  0  0  0  0  0  0  0  0  0  0
  -24.2298  -26.9990   22.2387 C   0  0  0  0  0  0  0  0  0  0  0  0
  -29.9468  -17.9350   24.5263 C   0  0  0  0  0  0  0  0  0  0  0  0
  -27.0602  -27.2267   21.4132 C   0  0  0  0  0  0  0  0  0  0  0  0
  -22.4965  -30.8464   17.6448 C   0  0  0  0  0  0  0  0  0  0  0  0
  -29.6009  -12.2199   18.3694 C   0  0  0  0  0  0  0  0  0  0  0  0
  -23.2897  -29.5787   17.3438 C   0  0  0  0  0  0  0  0  0  0  0  0
  -28.1513  -11.9629   18.7851 C   0  0  0  0  0  0  0  0  0  0  0  0
  -30.4993  -12.4681   19.5790 C   0  0  0  0  0  0  0  0  0  0  0  0
  -28.5844  -13.2751   20.9039 C   0  0  0  0  0  0  0  0  0  0  0  0
  -22.7586  -28.3902   18.1542 C   0  0  1  0  0  0  0  0  0  0  0  0
  -30.8092  -16.8585   21.8579 C   0  0  1  0  0  0  0  0  0  0  0  0
  -24.7287  -28.1681   21.3950 C   0  0  1  0  0  0  0  0  0  0  0  0
  -30.7227  -16.6177   24.3761 C   0  0  1  0  0  0  0  0  0  0  0  0
  -31.6501  -16.6447   23.1389 C   0  0  2  0  0  0  0  0  0  0  0  0
  -27.6292  -13.0747   19.7149 C   0  0  2  0  0  0  0  0  0  0  0  0
  -27.7561  -20.1263   19.6146 C   0  0  0  0  0  0  0  0  0  0  0  0
  -31.4672  -16.2838   25.6700 C   0  0  0  0  0  0  0  0  0  0  0  0
  -32.7712  -17.6921   23.2295 C   0  0  0  0  0  0  0  0  0  0  0  0
  -30.9313  -31.2839   24.8335 C   0  0  0  0  0  0  0  0  0  0  0  0
  -28.1189  -30.1370   18.9475 C   0  0  0  0  0  0  0  0  0  0  0  0
  -30.1263  -30.8485   20.2636 C   0  0  0  0  0  0  0  0  0  0  0  0
  -28.0075  -32.1560   20.4191 C   0  0  0  0  0  0  0  0  0  0  0  0
  -28.4874  -28.8055   26.3702 C   0  0  0  0  0  0  0  0  0  0  0  0
  -26.8797  -21.1290   22.2251 C   0  0  0  0  0  0  0  0  0  1  0  0
  -28.1445  -29.8825   21.5166 C   0  0  1  0  0  0  0  0  0  0  0  0
  -29.6232  -30.5168   24.9489 C   0  0  2  0  0  0  0  0  0  0  0  0
  -28.5875  -30.7305   20.2910 C   0  0  0  0  0  0  0  0  0  0  0  0
  -25.8065  -11.5318   20.3312 N   0  0  0  0  0  0  0  0  0  0  0  0
  -26.2057  -12.8044   20.1662 N   0  0  0  0  0  0  0  0  0  0  0  0
  -26.1690  -28.3922   21.5353 N   0  0  0  0  0  0  0  0  0  0  0  0
  -29.9489  -13.5347   20.4188 N   0  0  0  0  0  0  0  0  0  0  0  0
  -25.4699  -15.0504   20.3236 N   0  0  0  0  0  0  0  0  0  0  0  0
  -21.8255  -12.6729   21.5325 N   0  0  0  0  0  0  0  0  0  0  0  0
  -23.2237  -28.4635   19.5227 N   0  0  0  0  0  0  0  0  0  0  0  0
  -28.5511  -30.4352   22.8041 N   0  0  0  0  0  0  0  0  0  0  0  0
  -30.1324  -15.6340   21.4926 N   0  0  0  0  0  0  0  0  0  0  0  0
  -29.7149  -29.6054   26.1244 N   0  3  0  0  0  0  0  0  0  0  0  0
  -22.6396  -14.7898   21.1942 O   0  0  0  0  0  0  0  0  0  0  0  0
  -25.2979  -27.4497   19.2190 O   0  0  0  0  0  0  0  0  0  0  0  0
  -25.9266  -30.7061   21.6873 O   0  0  0  0  0  0  0  0  0  0  0  0
  -29.7655  -28.5872   23.5020 O   0  0  0  0  0  0  0  0  0  0  0  0
  -31.8787  -14.8104   20.2562 O   0  0  0  0  0  0  0  0  0  0  0  0
  -21.4631   -7.1215   21.8255 O   0  0  0  0  0  0  0  0  0  0  0  0
  -27.4919  -22.3686   21.8940 O   0  0  0  0  0  0  0  0  0  1  0  0
  -23.7788   -3.1318   24.8462 F   0  0  0  0  0  0  0  0  0  0  0  0
  -20.3600   -6.3489   24.2398 F   0  0  0  0  0  0  0  0  0  0  0  0
  1  2  1  0  0  0  0
  1  5  2  0  0  0  0
  2  6  2  0  0  0  0
  3  8  2  0  0  0  0
  3 17  1  0  0  0  0
  4  9  1  0  0  0  0
  4 17  2  0  0  0  0
  5 19  1  0  0  0  0
  6 21  1  0  0  0  0
  7 10  2  0  0  0  0
  7 20  1  0  0  0  0
  8 27  1  0  0  0  0
  9 27  2  0  0  0  0
 10 28  1  0  0  0  0
 11 12  2  0  0  0  0
 11 29  1  0  0  0  0
 12 30  1  0  0  0  0
 13 22  2  0  0  0  0
 13 26  1  0  0  0  0
 14 23  2  0  0  0  0
 14 25  1  0  0  0  0
 15 24  1  0  0  0  0
 15 28  2  0  0  0  0
 16 30  2  0  0  0  0
 16 31  1  0  0  0  0
 17 32  1  0  0  0  0
 18 32  1  0  0  0  0
 18 33  2  0  0  0  0
 18 34  1  0  0  0  0
 19 21  2  0  0  0  0
 19 39  1  0  0  0  0
 20 24  2  0  0  0  0
 20 40  1  0  0  0  0
 21 49  1  0  0  0  0
 22 23  1  0  0  0  0
 22 41  1  0  0  0  0
 23 50  1  0  0  0  0
 24 42  1  0  0  0  0
 25 26  2  0  0  0  0
 25 55  1  0  0  0  0
 26 63  1  0  0  0  0
 27 82  1  0  0  0  0
 28 83  1  0  0  0  0
 29 31  2  0  0  0  0
 29 82  1  0  0  0  0
 30 84  1  0  0  0  0
 31 85  1  0  0  0  0
 32 67  2  0  0  0  0
 33 68  1  0  0  0  0
 33 71  1  0  0  0  0
 34 72  1  0  0  0  0
 34 77  2  0  0  0  0
 35 51  1  0  0  0  0
 35 73  1  0  0  0  0
 35 78  2  0  0  0  0
 36 64  1  0  0  0  0
 36 69  1  0  0  0  0
 36 79  2  0  0  0  0
 37 65  1  0  0  0  0
 37 74  1  0  0  0  0
 37 80  2  0  0  0  0
 38 70  1  0  0  0  0
 38 75  1  0  0  0  0
 38 81  2  0  0  0  0
 39 43  1  0  0  0  0
 40 51  1  0  0  0  0
 41 52  1  0  0  0  0
 42 69  1  0  0  0  0
 43 45  1  0  0  0  0
 44 46  1  0  0  0  0
 44 47  1  0  0  0  0
 45 49  1  0  0  0  0
 46 54  1  0  0  0  0
 47 70  1  0  0  0  0
 48 54  1  0  0  0  0
 48 70  1  0  0  0  0
 49 73  1  0  0  0  0
 50 53  1  0  0  0  0
 50 75  1  0  0  0  0
 51 69  1  0  0  0  0
 52 53  1  0  0  0  0
 52 56  1  0  0  0  0
 53 57  1  0  0  0  0
 54 68  1  0  0  0  0
 58 65  1  0  0  0  0
 59 66  1  0  0  0  0
 60 66  1  0  0  0  0
 61 66  1  0  0  0  0
 62 76  1  0  0  0  0
 63 83  1  0  0  0  0
 64 66  1  0  0  0  0
 64 74  1  0  0  0  0
 65 76  1  0  0  0  0
 67 68  1  0  0  0  0
M  CHG  1  76   1
M  ISO  4  38 100  63 101  75 100  83 101
M  END
> <Batch ID>
0167

> <Smiles>
CNC(C)C(=O)NC(C(=O)N1Cc2cc([101O:1][101CH2:1]c3cc4c(cc3C)C([100NH:0][100C:0](=O)N3CCCC(n5nc(-c6ccc(Oc7ccc(F)cc7F)cc6)c(C(N)=O)c5N)C3)C(C)C(C)C4)ccc2CC1C(=O)NC1CCCc2ccccc21)C(C)(C)C

> <Shape>
0.267

> <Color>
0.202

> <Negative vol penalty>
0.000

$$$$

  -OEChem-04052322273D

 86 95  0     1  0  0  0  0  0999 V2000
  -18.8051  -32.7128   19.6945 C   0  0  0  0  0  0  0  0  0  0  0  0
  -20.0598  -32.2275   19.3400 C   0  0  0  0  0  0  0  0  0  0  0  0
  -26.5748  -12.5222   20.4985 C   0  0  0  0  0  0  0  0  0  0  0  0
  -24.6337  -13.7064   19.6818 C   0  0  0  0  0  0  0  0  0  0  0  0
  -18.3591  -32.5936   21.0101 C   0  0  0  0  0  0  0  0  0  0  0  0
  -20.8697  -31.6237   20.3012 C   0  0  0  0  0  0  0  0  0  0  0  0
  -24.7340  -26.9496   19.4496 C   0  0  0  0  0  0  0  0  0  0  0  0
  -25.7555  -11.7415   21.3138 C   0  0  0  0  0  0  0  0  0  0  0  0
  -23.8143  -12.9256   20.4972 C   0  0  0  0  0  0  0  0  0  0  0  0
  -26.1130  -26.8968   19.2511 C   0  0  0  0  0  0  0  0  0  0  0  0
  -24.1398   -9.1932   23.3414 C   0  0  0  0  0  0  0  0  0  0  0  0
  -24.3765   -7.8190   23.3728 C   0  0  0  0  0  0  0  0  0  0  0  0
  -26.4307  -26.4927   21.6080 C   0  0  0  0  0  0  0  0  0  0  0  0
  -23.9527   -7.6918   20.9976 C   0  0  0  0  0  0  0  0  0  0  0  0
  -26.0139  -13.5047   19.6825 C   0  0  0  0  0  0  0  0  0  0  0  0
  -27.2500  -14.0385   17.5157 C   0  0  0  0  0  0  0  0  0  0  0  0
  -19.1600  -31.9793   21.9858 C   0  0  0  0  0  0  0  0  0  0  0  0
  -24.1928  -26.7849   20.7327 C   0  0  0  0  0  0  0  0  0  0  0  0
  -20.4346  -31.4974   21.6314 C   0  0  0  0  0  0  0  0  0  0  0  0
  -25.0443  -26.5412   21.8197 C   0  0  0  0  0  0  0  0  0  0  0  0
  -30.5630  -26.3970   20.8912 C   0  0  0  0  0  0  0  0  0  0  0  0
  -31.3608  -27.4928   21.2011 C   0  0  0  0  0  0  0  0  0  0  0  0
  -31.1117  -25.3142   20.2132 C   0  0  0  0  0  0  0  0  0  0  0  0
  -24.3753  -11.9431   21.3132 C   0  0  0  0  0  0  0  0  0  0  0  0
  -26.9618  -26.6712   20.3309 C   0  0  0  0  0  0  0  0  0  0  0  0
  -23.8095   -9.8168   22.1381 C   0  0  0  0  0  0  0  0  0  0  0  0
  -24.2830   -7.0682   22.2009 C   0  0  0  0  0  0  0  0  0  0  0  0
  -23.7159   -9.0660   20.9663 C   0  0  0  0  0  0  0  0  0  0  0  0
  -26.8597  -14.3119   18.8404 C   0  0  0  0  0  0  0  0  0  0  0  0
  -32.6907  -27.4570   20.8138 C   0  0  0  0  0  0  0  0  0  0  0  0
  -32.4527  -25.3760   19.8700 C   0  0  0  0  0  0  0  0  0  0  0  0
  -28.0452  -15.1022   17.1656 C   0  0  0  0  0  0  0  0  0  0  0  0
  -26.9229  -12.9228   16.6768 C   0  0  0  0  0  0  0  0  0  0  0  0
  -22.4716  -28.6027   22.6915 C   0  0  0  0  0  0  0  0  0  0  0  0
  -22.3769  -25.9014   24.4850 C   0  0  0  0  0  0  0  0  0  0  0  0
  -23.8061  -22.9102   25.2953 C   0  0  0  0  0  0  0  0  0  0  0  0
  -28.3182  -20.6292   18.8405 C   0  0  0  0  0  0  0  0  0  0  0  0
  -18.6544  -31.9158   23.4053 C   0  0  0  0  0  0  0  0  0  0  0  0
  -22.7015  -26.8179   20.9258 C   0  0  0  0  0  0  0  0  0  0  0  0
  -24.5121  -26.3378   23.2139 C   0  0  0  0  0  0  0  0  0  0  0  0
  -19.4199  -30.9270   24.2808 C   0  0  0  0  0  0  0  0  0  0  0  0
  -30.9932  -18.3614   19.0422 C   0  0  0  0  0  0  0  0  0  0  0  0
  -20.9236  -31.0984   24.0905 C   0  0  0  0  0  0  0  0  0  0  0  0
  -30.2703  -17.0241   18.8839 C   0  0  0  0  0  0  0  0  0  0  0  0
  -30.2092  -19.3359   19.9228 C   0  0  0  0  0  0  0  0  0  0  0  0
  -30.1729  -23.8198   18.4772 C   0  0  0  0  0  0  0  0  0  0  0  0
  -30.2438  -23.1133   20.8735 C   0  0  0  0  0  0  0  0  0  0  0  0
  -28.9350  -22.9498   18.2764 C   0  0  0  0  0  0  0  0  0  0  0  0
  -28.9986  -22.2669   20.6335 C   0  0  0  0  0  0  0  0  0  0  0  0
  -28.0882  -18.2112   19.3275 C   0  0  0  0  0  0  0  0  0  0  0  0
  -21.3321  -30.8139   22.6401 C   0  0  1  0  0  0  0  0  0  0  0  0
  -22.2915  -27.1488   22.3575 C   0  0  1  0  0  0  0  0  0  0  0  0
  -28.8242  -17.2319   18.3999 C   0  0  2  0  0  0  0  0  0  0  0  0
  -30.8023  -28.6695   21.9289 C   0  0  0  0  0  0  0  0  0  0  0  0
  -33.5973  -28.6040   21.1209 C   0  0  0  0  0  0  0  0  0  0  0  0
  -33.1011  -24.2447   19.1398 C   0  0  0  0  0  0  0  0  0  0  0  0
  -23.5210  -20.9406   26.8240 C   0  0  0  0  0  0  0  0  0  0  0  0
  -23.4273  -27.5634   26.8183 C   0  0  0  0  0  0  0  0  0  0  0  0
  -24.0139  -25.4273   27.9850 C   0  0  0  0  0  0  0  0  0  0  0  0
  -21.6351  -25.9283   27.4256 C   0  0  0  0  0  0  0  0  0  0  0  0
  -23.5210  -21.0385   23.0205 C   0  0  0  0  0  0  0  0  0  0  0  0
  -29.1202  -26.3856   21.2877 C   0  0  0  0  0  0  0  0  0  1  0  0
  -23.2402  -25.3096   25.5728 C   0  0  1  0  0  0  0  0  0  0  0  0
  -23.2147  -21.5209   25.4520 C   0  0  2  0  0  0  0  0  0  0  0  0
  -23.0896  -26.0629   26.9246 C   0  0  0  0  0  0  0  0  0  0  0  0
  -27.3654  -15.4593   19.3005 N   0  0  0  0  0  0  0  0  0  0  0  0
  -33.2592  -26.4232   20.1539 N   0  0  0  0  0  0  0  0  0  0  0  0
  -28.0817  -15.9162   18.2593 N   0  0  0  0  0  0  0  0  0  0  0  0
  -30.3319  -24.1976   19.8857 N   0  0  0  0  0  0  0  0  0  0  0  0
  -23.0472  -26.3853   23.3526 N   0  0  0  0  0  0  0  0  0  0  0  0
  -28.8260  -19.4705   19.4467 N   0  0  0  0  0  0  0  0  0  0  0  0
  -28.8852  -21.8516   19.2339 N   0  0  0  0  0  0  0  0  0  0  0  0
  -28.7098  -15.4113   16.0319 N   0  0  0  0  0  0  0  0  0  0  0  0
  -26.0935  -11.9184   17.1940 N   0  0  0  0  0  0  0  0  0  0  0  0
  -21.3733  -29.3878   22.3970 N   0  0  0  0  0  0  0  0  0  0  0  0
  -22.9007  -23.8922   25.6376 N   0  0  0  0  0  0  0  0  0  0  0  0
  -23.7700  -20.6019   24.4185 N   0  3  0  0  0  0  0  0  0  0  0  0
  -27.3667  -12.8114   15.5088 O   0  0  0  0  0  0  0  0  0  0  0  0
  -23.5282  -28.9836   23.1815 O   0  0  0  0  0  0  0  0  0  0  0  0
  -21.1523  -25.9267   24.6314 O   0  0  0  0  0  0  0  0  0  0  0  0
  -24.9573  -23.1047   24.9115 O   0  0  0  0  0  0  0  0  0  0  0  0
  -27.4151  -20.5771   17.9963 O   0  0  0  0  0  0  0  0  0  0  0  0
  -23.5755  -11.1813   22.1085 O   0  0  0  0  0  0  0  0  0  0  0  0
  -28.3182  -26.6195   20.1386 O   0  0  0  0  0  0  0  0  0  1  0  0
  -24.5118   -5.7488   22.2309 F   0  0  0  0  0  0  0  0  0  0  0  0
  -23.4001   -9.6597   19.8071 F   0  0  0  0  0  0  0  0  0  0  0  0
  1  2  1  0  0  0  0
  1  5  2  0  0  0  0
  2  6  2  0  0  0  0
  3  8  2  0  0  0  0
  3 15  1  0  0  0  0
  4  9  1  0  0  0  0
  4 15  2  0  0  0  0
  5 17  1  0  0  0  0
  6 19  1  0  0  0  0
  7 10  2  0  0  0  0
  7 18  1  0  0  0  0
  8 24  1  0  0  0  0
  9 24  2  0  0  0  0
 10 25  1  0  0  0  0
 11 12  2  0  0  0  0
 11 26  1  0  0  0  0
 12 27  1  0  0  0  0
 13 20  1  0  0  0  0
 13 25  2  0  0  0  0
 14 27  2  0  0  0  0
 14 28  1  0  0  0  0
 15 29  1  0  0  0  0
 16 29  1  0  0  0  0
 16 32  2  0  0  0  0
 16 33  1  0  0  0  0
 17 19  2  0  0  0  0
 17 38  1  0  0  0  0
 18 20  2  0  0  0  0
 18 39  1  0  0  0  0
 19 51  1  0  0  0  0
 20 40  1  0  0  0  0
 21 22  1  0  0  0  0
 21 23  2  0  0  0  0
 21 62  1  0  0  0  0
 22 30  2  0  0  0  0
 22 54  1  0  0  0  0
 23 31  1  0  0  0  0
 23 69  1  0  0  0  0
 24 83  1  0  0  0  0
 25 84  1  0  0  0  0
 26 28  2  0  0  0  0
 26 83  1  0  0  0  0
 27 85  1  0  0  0  0
 28 86  1  0  0  0  0
 29 66  2  0  0  0  0
 30 55  1  0  0  0  0
 30 67  1  0  0  0  0
 31 56  1  0  0  0  0
 31 67  2  0  0  0  0
 32 68  1  0  0  0  0
 32 73  1  0  0  0  0
 33 74  1  0  0  0  0
 33 78  2  0  0  0  0
 34 52  1  0  0  0  0
 34 75  1  0  0  0  0
 34 79  2  0  0  0  0
 35 63  1  0  0  0  0
 35 70  1  0  0  0  0
 35 80  2  0  0  0  0
 36 64  1  0  0  0  0
 36 76  1  0  0  0  0
 36 81  2  0  0  0  0
 37 71  1  0  0  0  0
 37 72  1  0  0  0  0
 37 82  2  0  0  0  0
 38 41  1  0  0  0  0
 39 52  1  0  0  0  0
 40 70  1  0  0  0  0
 41 43  1  0  0  0  0
 42 44  1  0  0  0  0
 42 45  1  0  0  0  0
 43 51  1  0  0  0  0
 44 53  1  0  0  0  0
 45 71  1  0  0  0  0
 46 48  1  0  0  0  0
 46 69  1  0  0  0  0
 47 49  1  0  0  0  0
 47 69  1  0  0  0  0
 48 72  1  0  0  0  0
 49 72  1  0  0  0  0
 50 53  1  0  0  0  0
 50 71  1  0  0  0  0
 51 75  1  0  0  0  0
 52 70  1  0  0  0  0
 53 68  1  0  0  0  0
 57 64  1  0  0  0  0
 58 65  1  0  0  0  0
 59 65  1  0  0  0  0
 60 65  1  0  0  0  0
 61 77  1  0  0  0  0
 62 84  1  0  0  0  0
 63 65  1  0  0  0  0
 63 76  1  0  0  0  0
 64 77  1  0  0  0  0
 66 68  1  0  0  0  0
M  CHG  1  77   1
M  ISO  4  37 100  62 101  72 100  84 101
M  END
> <Batch ID>
0167

> <Smiles>
CNC(C)C(=O)NC(C(=O)N1Cc2cc([101O:1][101CH2:1]c3c(C)c(C)nc(C)c3N3CC[100N:0]([100C:0](=O)N4CCCC(n5nc(-c6ccc(Oc7ccc(F)cc7F)cc6)c(C(N)=O)c5N)C4)CC3)ccc2CC1C(=O)NC1CCCc2ccccc21)C(C)(C)C

> <Shape>
0.218

> <Color>
0.079

> <Negative vol penalty>
0.000

$$$$

  -OEChem-04052322273D

 89 99  0     1  0  0  0  0  0999 V2000
  -28.5176  -23.0758   20.2850 C   0  0  0  0  0  0  0  0  0  0  0  0
  -27.2982  -23.4705   20.8260 C   0  0  0  0  0  0  0  0  0  0  0  0
  -22.3903  -10.4403   22.0458 C   0  0  0  0  0  0  0  0  0  0  0  0
  -22.8559   -9.8769   19.7430 C   0  0  0  0  0  0  0  0  0  0  0  0
  -29.6880  -23.7407   20.6485 C   0  0  0  0  0  0  0  0  0  0  0  0
  -27.2486  -24.5296   21.7316 C   0  0  0  0  0  0  0  0  0  0  0  0
  -21.0482  -22.5415   24.4129 C   0  0  0  0  0  0  0  0  0  0  0  0
  -23.4636  -27.7481   20.7516 C   0  0  0  0  0  0  0  0  0  0  0  0
  -20.8289  -23.2302   25.6055 C   0  0  0  0  0  0  0  0  0  0  0  0
  -21.9051   -9.1508   22.2632 C   0  0  0  0  0  0  0  0  0  0  0  0
  -22.3706   -8.5874   19.9604 C   0  0  0  0  0  0  0  0  0  0  0  0
  -22.1824  -27.3625   21.1434 C   0  0  0  0  0  0  0  0  0  0  0  0
  -23.1820   -6.0673   22.8056 C   0  0  0  0  0  0  0  0  0  0  0  0
  -23.5912   -5.4075   23.9644 C   0  0  0  0  0  0  0  0  0  0  0  0
  -19.9376  -24.3026   23.1847 C   0  0  0  0  0  0  0  0  0  0  0  0
  -22.3683  -28.7575   23.1026 C   0  0  0  0  0  0  0  0  0  0  0  0
  -21.2897   -5.2357   24.6792 C   0  0  0  0  0  0  0  0  0  0  0  0
  -22.8657  -10.8034   20.7856 C   0  0  0  0  0  0  0  0  0  0  0  0
  -24.6918  -12.5835   20.7184 C   0  0  0  0  0  0  0  0  0  0  0  0
  -20.5999  -23.0745   23.2051 C   0  0  0  0  0  0  0  0  0  0  0  0
  -29.6514  -24.8148   21.5517 C   0  0  0  0  0  0  0  0  0  0  0  0
  -24.2123  -28.6343   21.5393 C   0  0  0  0  0  0  0  0  0  0  0  0
  -28.4197  -25.2086   22.1086 C   0  0  0  0  0  0  0  0  0  0  0  0
  -19.7078  -25.0013   24.3766 C   0  0  0  0  0  0  0  0  0  0  0  0
  -23.6577  -29.1547   22.7173 C   0  0  0  0  0  0  0  0  0  0  0  0
  -20.1483  -24.4503   25.5875 C   0  0  0  0  0  0  0  0  0  0  0  0
  -21.8952   -8.2243   21.2205 C   0  0  0  0  0  0  0  0  0  0  0  0
  -21.6356  -27.8649   22.3206 C   0  0  0  0  0  0  0  0  0  0  0  0
  -21.8267   -6.3114   22.5837 C   0  0  0  0  0  0  0  0  0  0  0  0
  -22.6451   -4.9917   24.9012 C   0  0  0  0  0  0  0  0  0  0  0  0
  -20.8806   -5.8956   23.5204 C   0  0  0  0  0  0  0  0  0  0  0  0
  -23.3666  -12.1355   20.5603 C   0  0  0  0  0  0  0  0  0  0  0  0
  -24.6466  -13.9145   20.3827 C   0  0  0  0  0  0  0  0  0  0  0  0
  -19.1429  -26.2615   26.9109 C   0  0  0  0  0  0  0  0  0  0  0  0
  -25.8592  -11.8610   21.1316 C   0  0  0  0  0  0  0  0  0  0  0  0
  -26.9738  -28.4601   23.1036 C   0  0  0  0  0  0  0  0  0  0  0  0
  -26.4437  -31.6212   23.6026 C   0  0  0  0  0  0  0  0  0  0  0  0
  -24.2008  -34.1847   23.8137 C   0  0  0  0  0  0  0  0  0  0  0  0
  -22.4629  -18.8163   20.5592 C   0  0  0  0  0  0  0  0  0  0  0  0
  -30.9488  -25.4722   21.9506 C   0  0  0  0  0  0  0  0  0  0  0  0
  -25.5825  -29.0612   21.0890 C   0  0  0  0  0  0  0  0  0  0  0  0
  -24.4124  -30.1248   23.5879 C   0  0  0  0  0  0  0  0  0  0  0  0
  -18.3267  -26.6142   25.6821 C   0  0  0  0  0  0  0  0  0  0  0  0
  -30.7618  -26.8267   22.6294 C   0  0  0  0  0  0  0  0  0  0  0  0
  -20.9988  -16.6524   18.2115 C   0  0  0  0  0  0  0  0  0  0  0  0
  -29.6734  -26.7440   23.6949 C   0  0  0  0  0  0  0  0  0  0  0  0
  -21.5931  -15.3069   18.6268 C   0  0  0  0  0  0  0  0  0  0  0  0
  -20.0912  -20.9764   21.9235 C   0  0  0  0  0  0  0  0  0  0  0  0
  -20.6154  -17.5072   19.4208 C   0  0  0  0  0  0  0  0  0  0  0  0
  -20.3244  -20.1685   20.6465 C   0  0  0  0  0  0  0  0  0  0  0  0
  -22.4999  -21.2775   20.3016 C   0  0  0  0  0  0  0  0  0  0  0  0
  -22.3109  -16.3565   20.8065 C   0  0  0  0  0  0  0  0  0  0  0  0
  -20.8443  -22.3224   21.9067 C   0  0  2  0  0  0  0  0  0  0  0  0
  -19.0647  -26.3666   24.3649 C   0  0  1  0  0  0  0  0  0  0  0  0
  -28.3219  -26.3690   23.0751 C   0  0  1  0  0  0  0  0  0  0  0  0
  -26.4558  -29.5691   22.2321 C   0  0  1  0  0  0  0  0  0  0  0  0
  -22.3490  -22.1109   21.5841 C   0  0  2  0  0  0  0  0  0  0  0  0
  -22.7591  -15.4989   19.6128 C   0  0  1  0  0  0  0  0  0  0  0  0
  -23.0927  -23.4401   21.4143 C   0  0  0  0  0  0  0  0  0  0  0  0
  -24.0621  -36.6481   24.2720 C   0  0  0  0  0  0  0  0  0  0  0  0
  -26.8158  -31.0852   26.5833 C   0  0  0  0  0  0  0  0  0  0  0  0
  -25.7505  -33.3035   27.0441 C   0  0  0  0  0  0  0  0  0  0  0  0
  -27.8862  -33.1902   25.7602 C   0  0  0  0  0  0  0  0  0  0  0  0
  -23.0897  -34.7397   21.1274 C   0  0  0  0  0  0  0  0  0  0  0  0
  -20.1106  -27.4530   24.0984 C   0  0  0  0  0  0  0  0  0  1  0  0
  -25.7385  -32.4327   24.6624 C   0  0  1  0  0  0  0  0  0  0  0  0
  -24.1994  -35.5747   23.2034 C   0  0  2  0  0  0  0  0  0  0  0  0
  -26.5340  -32.4831   25.9973 C   0  0  0  0  0  0  0  0  0  0  0  0
  -22.5399  -13.1035   20.1558 N   0  0  0  0  0  0  0  0  0  0  0  0
  -23.3476  -14.1730   20.0570 N   0  0  0  0  0  0  0  0  0  0  0  0
  -19.9340  -25.1356   26.7962 N   0  0  0  0  0  0  0  0  0  0  0  0
  -25.7509  -30.5069   23.1083 N   0  0  0  0  0  0  0  0  0  0  0  0
  -21.7459  -17.6286   20.3517 N   0  0  0  0  0  0  0  0  0  0  0  0
  -21.7614  -20.0197   20.3925 N   0  0  0  0  0  0  0  0  0  0  0  0
  -25.5917  -14.8775   20.3374 N   0  0  0  0  0  0  0  0  0  0  0  0
  -25.7286  -10.4998   21.4390 N   0  0  0  0  0  0  0  0  0  0  0  0
  -27.7262  -27.5183   22.4280 N   0  0  0  0  0  0  0  0  0  0  0  0
  -25.4808  -33.7410   24.0706 N   0  0  0  0  0  0  0  0  0  0  0  0
  -23.0674  -35.7184   22.2448 N   0  3  0  0  0  0  0  0  0  0  0  0
  -19.0233  -26.8931   27.9607 O   0  0  0  0  0  0  0  0  0  0  0  0
  -26.9817  -12.4101   21.2413 O   0  0  0  0  0  0  0  0  0  0  0  0
  -26.7116  -28.4598   24.3007 O   0  0  0  0  0  0  0  0  0  0  0  0
  -27.5648  -31.9674   23.2221 O   0  0  0  0  0  0  0  0  0  0  0  0
  -23.1694  -33.5570   24.0433 O   0  0  0  0  0  0  0  0  0  0  0  0
  -23.6595  -18.8033   20.8742 O   0  0  0  0  0  0  0  0  0  0  0  0
  -21.4220   -6.9659   21.4323 O   0  0  0  0  0  0  0  0  0  0  0  0
  -20.3735  -27.4861   22.7094 O   0  0  0  0  0  0  0  0  0  1  0  0
  -23.0380   -4.3567   26.0132 F   0  0  0  0  0  0  0  0  0  0  0  0
  -19.5770   -6.1261   23.3121 F   0  0  0  0  0  0  0  0  0  0  0  0
  1  2  1  0  0  0  0
  1  5  2  0  0  0  0
  2  6  2  0  0  0  0
  3 10  2  0  0  0  0
  3 18  1  0  0  0  0
  4 11  1  0  0  0  0
  4 18  2  0  0  0  0
  5 21  1  0  0  0  0
  6 23  1  0  0  0  0
  7  9  2  0  0  0  0
  7 20  1  0  0  0  0
  8 12  2  0  0  0  0
  8 22  1  0  0  0  0
  9 26  1  0  0  0  0
 10 27  1  0  0  0  0
 11 27  2  0  0  0  0
 12 28  1  0  0  0  0
 13 14  2  0  0  0  0
 13 29  1  0  0  0  0
 14 30  1  0  0  0  0
 15 20  2  0  0  0  0
 15 24  1  0  0  0  0
 16 25  1  0  0  0  0
 16 28  2  0  0  0  0
 17 30  2  0  0  0  0
 17 31  1  0  0  0  0
 18 32  1  0  0  0  0
 19 32  1  0  0  0  0
 19 33  2  0  0  0  0
 19 35  1  0  0  0  0
 20 53  1  0  0  0  0
 21 23  2  0  0  0  0
 21 40  1  0  0  0  0
 22 25  2  0  0  0  0
 22 41  1  0  0  0  0
 23 55  1  0  0  0  0
 24 26  2  0  0  0  0
 24 54  1  0  0  0  0
 25 42  1  0  0  0  0
 26 71  1  0  0  0  0
 27 86  1  0  0  0  0
 28 87  1  0  0  0  0
 29 31  2  0  0  0  0
 29 86  1  0  0  0  0
 30 88  1  0  0  0  0
 31 89  1  0  0  0  0
 32 69  2  0  0  0  0
 33 70  1  0  0  0  0
 33 75  1  0  0  0  0
 34 43  1  0  0  0  0
 34 71  1  0  0  0  0
 34 80  2  0  0  0  0
 35 76  1  0  0  0  0
 35 81  2  0  0  0  0
 36 56  1  0  0  0  0
 36 77  1  0  0  0  0
 36 82  2  0  0  0  0
 37 66  1  0  0  0  0
 37 72  1  0  0  0  0
 37 83  2  0  0  0  0
 38 67  1  0  0  0  0
 38 78  1  0  0  0  0
 38 84  2  0  0  0  0
 39 73  1  0  0  0  0
 39 74  1  0  0  0  0
 39 85  2  0  0  0  0
 40 44  1  0  0  0  0
 41 56  1  0  0  0  0
 42 72  1  0  0  0  0
 43 54  1  0  0  0  0
 44 46  1  0  0  0  0
 45 47  1  0  0  0  0
 45 49  1  0  0  0  0
 46 55  1  0  0  0  0
 47 58  1  0  0  0  0
 48 50  1  0  0  0  0
 48 53  1  0  0  0  0
 49 73  1  0  0  0  0
 50 74  1  0  0  0  0
 51 57  1  0  0  0  0
 51 74  1  0  0  0  0
 52 58  1  0  0  0  0
 52 73  1  0  0  0  0
 53 57  1  0  0  0  0
 54 65  1  0  0  0  0
 55 77  1  0  0  0  0
 56 72  1  0  0  0  0
 57 59  1  0  0  0  0
 58 70  1  0  0  0  0
 60 67  1  0  0  0  0
 61 68  1  0  0  0  0
 62 68  1  0  0  0  0
 63 68  1  0  0  0  0
 64 79  1  0  0  0  0
 65 87  1  0  0  0  0
 66 68  1  0  0  0  0
 66 78  1  0  0  0  0
 67 79  1  0  0  0  0
 69 70  1  0  0  0  0
M  CHG  1  79   1
M  ISO  4  39 100  65 101  74 100  87 101
M  END
> <Batch ID>
0167

> <Smiles>
CNC(C)C(=O)NC(C(=O)N1Cc2cc([101O:1][101CH2:1]C3CC(=O)Nc4ccc(C5CC[100N:0]([100C:0](=O)N6CCCC(n7nc(-c8ccc(Oc9ccc(F)cc9F)cc8)c(C(N)=O)c7N)C6)CC5C)cc43)ccc2CC1C(=O)NC1CCCc2ccccc21)C(C)(C)C

> <Shape>
0.243

> <Color>
0.102

> <Negative vol penalty>
0.000

$$$$

  -OEChem-04052322273D

 87 96  0     1  0  0  0  0  0999 V2000
  -29.1607  -34.6644   27.5301 C   0  0  0  0  0  0  0  0  0  0  0  0
  -28.9478  -33.4717   26.8462 C   0  0  0  0  0  0  0  0  0  0  0  0
  -24.1150   -9.3589   22.1459 C   0  0  0  0  0  0  0  0  0  0  0  0
  -24.5421   -8.4885   19.9330 C   0  0  0  0  0  0  0  0  0  0  0  0
  -28.1316  -35.5991   27.6361 C   0  0  0  0  0  0  0  0  0  0  0  0
  -27.7052  -33.2127   26.2688 C   0  0  0  0  0  0  0  0  0  0  0  0
  -28.0944  -31.3420   21.5790 C   0  0  0  0  0  0  0  0  0  0  0  0
  -23.0551   -8.4642   22.2933 C   0  0  0  0  0  0  0  0  0  0  0  0
  -23.4822   -7.5937   20.0804 C   0  0  0  0  0  0  0  0  0  0  0  0
  -28.4243  -29.9929   21.4570 C   0  0  0  0  0  0  0  0  0  0  0  0
  -22.6443   -5.1864   23.0142 C   0  0  0  0  0  0  0  0  0  0  0  0
  -22.5449   -4.4921   24.2199 C   0  0  0  0  0  0  0  0  0  0  0  0
  -26.1013  -29.4654   21.0768 C   0  0  0  0  0  0  0  0  0  0  0  0
  -28.4186  -23.7085   19.5837 C   0  0  0  0  0  0  0  0  0  0  0  0
  -20.3668   -5.4655   24.6009 C   0  0  0  0  0  0  0  0  0  0  0  0
  -24.8585   -9.3711   20.9657 C   0  0  0  0  0  0  0  0  0  0  0  0
  -27.3012  -10.0813   21.1569 C   0  0  0  0  0  0  0  0  0  0  0  0
  -26.8788  -35.3555   27.0515 C   0  0  0  0  0  0  0  0  0  0  0  0
  -26.7617  -31.7623   21.4615 C   0  0  0  0  0  0  0  0  0  0  0  0
  -26.6580  -34.1444   26.3683 C   0  0  0  0  0  0  0  0  0  0  0  0
  -25.7574  -30.8207   21.1952 C   0  0  0  0  0  0  0  0  0  0  0  0
  -27.9190  -25.0093   19.6459 C   0  0  0  0  0  0  0  0  0  0  0  0
  -27.0050  -24.5535   21.8354 C   0  0  0  0  0  0  0  0  0  0  0  0
  -27.2122  -25.4318   20.7717 C   0  0  0  0  0  0  0  0  0  0  0  0
  -27.5047  -23.2527   21.7732 C   0  0  0  0  0  0  0  0  0  0  0  0
  -22.7388   -7.5816   21.2606 C   0  0  0  0  0  0  0  0  0  0  0  0
  -27.4273  -29.0540   21.2087 C   0  0  0  0  0  0  0  0  0  0  0  0
  -21.6049   -6.0203   22.6018 C   0  0  0  0  0  0  0  0  0  0  0  0
  -28.2114  -22.8302   20.6473 C   0  0  0  0  0  0  0  0  0  0  0  0
  -21.4062   -4.6317   25.0132 C   0  0  0  0  0  0  0  0  0  0  0  0
  -20.4662   -6.1598   23.3951 C   0  0  0  0  0  0  0  0  0  0  0  0
  -25.9531  -10.2955   20.8126 C   0  0  0  0  0  0  0  0  0  0  0  0
  -27.9327  -11.2527   20.8171 C   0  0  0  0  0  0  0  0  0  0  0  0
  -27.9267   -8.9266   21.7323 C   0  0  0  0  0  0  0  0  0  0  0  0
  -24.6840  -33.1981   23.3916 C   0  0  0  0  0  0  0  0  0  0  0  0
  -22.8335  -33.2415   20.7278 C   0  0  0  0  0  0  0  0  0  0  0  0
  -22.1027  -31.8794   17.6852 C   0  0  0  0  0  0  0  0  0  0  0  0
  -28.3251  -16.6041   20.6706 C   0  0  0  0  0  0  0  0  0  0  0  0
  -25.7824  -36.3752   27.2331 C   0  0  0  0  0  0  0  0  0  0  0  0
  -26.4258  -33.2245   21.5691 C   0  0  0  0  0  0  0  0  0  0  0  0
  -24.3142  -31.2229   21.0404 C   0  0  0  0  0  0  0  0  0  0  0  0
  -24.6113  -36.1881   26.2719 C   0  0  0  0  0  0  0  0  0  0  0  0
  -26.3149  -15.2231   18.1459 C   0  0  0  0  0  0  0  0  0  0  0  0
  -24.1902  -34.7228   26.2224 C   0  0  0  0  0  0  0  0  0  0  0  0
  -26.1462  -13.7878   18.6436 C   0  0  0  0  0  0  0  0  0  0  0  0
  -29.3352  -19.7797   19.0450 C   0  0  0  0  0  0  0  0  0  0  0  0
  -26.9654  -20.0112   19.9050 C   0  0  0  0  0  0  0  0  0  0  0  0
  -26.2342  -16.2384   19.2872 C   0  0  0  0  0  0  0  0  0  0  0  0
  -29.5603  -18.6448   20.0430 C   0  0  0  0  0  0  0  0  0  0  0  0
  -27.2457  -18.8744   20.8852 C   0  0  0  0  0  0  0  0  0  0  0  0
  -26.9956  -14.5269   20.9019 C   0  0  0  0  0  0  0  0  0  0  0  0
  -25.3317  -33.8379   25.7072 C   0  0  1  0  0  0  0  0  0  0  0  0
  -24.9684  -33.4768   21.9428 C   0  0  1  0  0  0  0  0  0  0  0  0
  -27.1307  -13.4795   19.7857 C   0  0  1  0  0  0  0  0  0  0  0  0
  -28.2398  -20.7488   19.4910 C   0  0  0  0  0  0  0  0  0  0  0  0
  -28.1539  -25.9292   18.4927 C   0  0  0  0  0  0  0  0  0  0  0  0
  -26.2472  -25.0062   23.0435 C   0  0  0  0  0  0  0  0  0  0  0  0
  -27.2865  -22.3051   22.9097 C   0  0  0  0  0  0  0  0  0  0  0  0
  -20.5126  -32.1042   15.7569 C   0  0  0  0  0  0  0  0  0  0  0  0
  -20.6483  -31.8926   22.3756 C   0  0  0  0  0  0  0  0  0  0  0  0
  -19.4993  -31.2938   20.2333 C   0  0  0  0  0  0  0  0  0  0  0  0
  -19.8360  -33.6903   20.8384 C   0  0  0  0  0  0  0  0  0  0  0  0
  -24.2994  -32.4714   15.7923 C   0  0  0  0  0  0  0  0  0  0  0  0
  -26.6781  -26.8279   20.8357 C   0  0  0  0  0  0  0  0  0  1  0  0
  -21.8222  -32.3042   20.1132 C   0  0  1  0  0  0  0  0  0  0  0  0
  -21.8603  -32.5160   16.3285 C   0  0  2  0  0  0  0  0  0  0  0  0
  -20.4783  -32.2871   20.8949 C   0  0  0  0  0  0  0  0  0  0  0  0
  -25.7397  -11.5078   20.2941 N   0  0  0  0  0  0  0  0  0  0  0  0
  -26.9622  -12.0658   20.3100 N   0  0  0  0  0  0  0  0  0  0  0  0
  -24.0354  -32.6635   21.1603 N   0  0  0  0  0  0  0  0  0  0  0  0
  -27.1616  -15.8806   20.3687 N   0  0  0  0  0  0  0  0  0  0  0  0
  -28.3053  -17.9821   20.3961 N   0  0  0  0  0  0  0  0  0  0  0  0
  -29.2179  -11.6562   20.9056 N   0  0  0  0  0  0  0  0  0  0  0  0
  -27.1311   -7.8090   22.0192 N   0  0  0  0  0  0  0  0  0  0  0  0
  -25.4456  -33.9466   24.2686 N   0  0  0  0  0  0  0  0  0  0  0  0
  -21.6951  -32.7007   18.7149 N   0  0  0  0  0  0  0  0  0  0  0  0
  -22.9233  -32.1074   15.3672 N   0  3  0  0  0  0  0  0  0  0  0  0
  -29.1518   -8.8930   21.9998 O   0  0  0  0  0  0  0  0  0  0  0  0
  -23.8353  -32.3666   23.6916 O   0  0  0  0  0  0  0  0  0  0  0  0
  -22.5697  -34.4434   20.8142 O   0  0  0  0  0  0  0  0  0  0  0  0
  -22.6003  -30.7634   17.8179 O   0  0  0  0  0  0  0  0  0  0  0  0
  -29.3234  -16.0545   21.1528 O   0  0  0  0  0  0  0  0  0  0  0  0
  -21.7048   -6.7082   21.4041 O   0  0  0  0  0  0  0  0  0  0  0  0
  -28.7098  -21.5564   20.5681 O   0  0  0  0  0  0  0  0  0  0  0  0
  -27.7489  -27.7267   21.0890 O   0  0  0  0  0  0  0  0  0  1  0  0
  -21.3102   -3.9637   26.1703 F   0  0  0  0  0  0  0  0  0  0  0  0
  -19.4639   -6.9586   23.0037 F   0  0  0  0  0  0  0  0  0  0  0  0
  1  2  1  0  0  0  0
  1  5  2  0  0  0  0
  2  6  2  0  0  0  0
  3  8  2  0  0  0  0
  3 16  1  0  0  0  0
  4  9  1  0  0  0  0
  4 16  2  0  0  0  0
  5 18  1  0  0  0  0
  6 20  1  0  0  0  0
  7 10  2  0  0  0  0
  7 19  1  0  0  0  0
  8 26  1  0  0  0  0
  9 26  2  0  0  0  0
 10 27  1  0  0  0  0
 11 12  2  0  0  0  0
 11 28  1  0  0  0  0
 12 30  1  0  0  0  0
 13 21  1  0  0  0  0
 13 27  2  0  0  0  0
 14 22  2  0  0  0  0
 14 29  1  0  0  0  0
 15 30  2  0  0  0  0
 15 31  1  0  0  0  0
 16 32  1  0  0  0  0
 17 32  1  0  0  0  0
 17 33  2  0  0  0  0
 17 34  1  0  0  0  0
 18 20  2  0  0  0  0
 18 39  1  0  0  0  0
 19 21  2  0  0  0  0
 19 40  1  0  0  0  0
 20 52  1  0  0  0  0
 21 41  1  0  0  0  0
 22 24  1  0  0  0  0
 22 56  1  0  0  0  0
 23 24  2  0  0  0  0
 23 25  1  0  0  0  0
 23 57  1  0  0  0  0
 24 64  1  0  0  0  0
 25 29  2  0  0  0  0
 25 58  1  0  0  0  0
 26 83  1  0  0  0  0
 27 85  1  0  0  0  0
 28 31  2  0  0  0  0
 28 83  1  0  0  0  0
 29 84  1  0  0  0  0
 30 86  1  0  0  0  0
 31 87  1  0  0  0  0
 32 68  2  0  0  0  0
 33 69  1  0  0  0  0
 33 73  1  0  0  0  0
 34 74  1  0  0  0  0
 34 78  2  0  0  0  0
 35 53  1  0  0  0  0
 35 75  1  0  0  0  0
 35 79  2  0  0  0  0
 36 65  1  0  0  0  0
 36 70  1  0  0  0  0
 36 80  2  0  0  0  0
 37 66  1  0  0  0  0
 37 76  1  0  0  0  0
 37 81  2  0  0  0  0
 38 71  1  0  0  0  0
 38 72  1  0  0  0  0
 38 82  2  0  0  0  0
 39 42  1  0  0  0  0
 40 53  1  0  0  0  0
 41 70  1  0  0  0  0
 42 44  1  0  0  0  0
 43 45  1  0  0  0  0
 43 48  1  0  0  0  0
 44 52  1  0  0  0  0
 45 54  1  0  0  0  0
 46 49  1  0  0  0  0
 46 55  1  0  0  0  0
 47 50  1  0  0  0  0
 47 55  1  0  0  0  0
 48 71  1  0  0  0  0
 49 72  1  0  0  0  0
 50 72  1  0  0  0  0
 51 54  1  0  0  0  0
 51 71  1  0  0  0  0
 52 75  1  0  0  0  0
 53 70  1  0  0  0  0
 54 69  1  0  0  0  0
 55 84  1  0  0  0  0
 59 66  1  0  0  0  0
 60 67  1  0  0  0  0
 61 67  1  0  0  0  0
 62 67  1  0  0  0  0
 63 77  1  0  0  0  0
 64 85  1  0  0  0  0
 65 67  1  0  0  0  0
 65 76  1  0  0  0  0
 66 77  1  0  0  0  0
 68 69  1  0  0  0  0
M  CHG  1  77   1
M  ISO  4  38 100  64 101  72 100  85 101
M  END
> <Batch ID>
0167

> <Smiles>
CNC(C)C(=O)NC(C(=O)N1Cc2cc([101O:1][101CH2:1]c3c(C)cc(OC4CC[100N:0]([100C:0](=O)N5CCCC(n6nc(-c7ccc(Oc8ccc(F)cc8F)cc7)c(C(N)=O)c6N)C5)CC4)c(C)c3C)ccc2CC1C(=O)NC1CCCc2ccccc21)C(C)(C)C

> <Shape>
0.243

> <Color>
0.105

> <Negative vol penalty>
0.000

$$$$

  -OEChem-04052322273D

 87 96  0     1  0  0  0  0  0999 V2000
  -21.7922  -34.8401   15.5001 C   0  0  0  0  0  0  0  0  0  0  0  0
  -22.5631  -33.6827   15.5405 C   0  0  0  0  0  0  0  0  0  0  0  0
  -24.8115   -9.1102   21.1159 C   0  0  0  0  0  0  0  0  0  0  0  0
  -22.9212   -9.6335   22.5266 C   0  0  0  0  0  0  0  0  0  0  0  0
  -21.9097  -35.7902   16.5137 C   0  0  0  0  0  0  0  0  0  0  0  0
  -23.4528  -33.4753   16.5940 C   0  0  0  0  0  0  0  0  0  0  0  0
  -24.9012  -28.1208   19.1896 C   0  0  0  0  0  0  0  0  0  0  0  0
  -24.8595   -7.8254   21.6568 C   0  0  0  0  0  0  0  0  0  0  0  0
  -22.9692   -8.3487   23.0675 C   0  0  0  0  0  0  0  0  0  0  0  0
  -25.9812  -27.2563   19.0166 C   0  0  0  0  0  0  0  0  0  0  0  0
  -22.3671   -5.0888   24.5603 C   0  0  0  0  0  0  0  0  0  0  0  0
  -21.1635   -4.3979   24.7003 C   0  0  0  0  0  0  0  0  0  0  0  0
  -27.0843  -28.2652   20.9099 C   0  0  0  0  0  0  0  0  0  0  0  0
  -20.8041   -4.5409   22.3155 C   0  0  0  0  0  0  0  0  0  0  0  0
  -23.8424  -10.0143   21.5508 C   0  0  0  0  0  0  0  0  0  0  0  0
  -23.0657  -11.7623   19.8630 C   0  0  0  0  0  0  0  0  0  0  0  0
  -22.7942  -35.5899   17.5852 C   0  0  0  0  0  0  0  0  0  0  0  0
  -24.9094  -29.0729   20.2190 C   0  0  0  0  0  0  0  0  0  0  0  0
  -23.5832  -34.4243   17.6222 C   0  0  0  0  0  0  0  0  0  0  0  0
  -26.0020  -29.1389   21.0954 C   0  0  0  0  0  0  0  0  0  0  0  0
  -31.5873  -24.3520   18.1922 C   0  0  0  0  0  0  0  0  0  0  0  0
  -30.4830  -25.1966   18.1748 C   0  0  0  0  0  0  0  0  0  0  0  0
  -31.4513  -23.0483   18.6561 C   0  0  0  0  0  0  0  0  0  0  0  0
  -23.9384   -7.4446   22.6326 C   0  0  0  0  0  0  0  0  0  0  0  0
  -27.0743  -27.3304   19.8750 C   0  0  0  0  0  0  0  0  0  0  0  0
  -22.7892   -5.5058   23.2979 C   0  0  0  0  0  0  0  0  0  0  0  0
  -20.3820   -4.1239   23.5779 C   0  0  0  0  0  0  0  0  0  0  0  0
  -22.0077   -5.2318   22.1755 C   0  0  0  0  0  0  0  0  0  0  0  0
  -23.7926  -11.3418   20.9928 C   0  0  0  0  0  0  0  0  0  0  0  0
  -29.2744  -24.6933   18.6284 C   0  0  0  0  0  0  0  0  0  0  0  0
  -30.1994  -22.6412   19.0883 C   0  0  0  0  0  0  0  0  0  0  0  0
  -23.3509  -13.1011   19.7500 C   0  0  0  0  0  0  0  0  0  0  0  0
  -22.2091  -11.0101   18.9935 C   0  0  0  0  0  0  0  0  0  0  0  0
  -24.8238  -32.2482   20.3385 C   0  0  0  0  0  0  0  0  0  0  0  0
  -24.6049  -31.7334   23.5337 C   0  0  0  0  0  0  0  0  0  0  0  0
  -25.1932  -29.6624   26.1816 C   0  0  0  0  0  0  0  0  0  0  0  0
  -26.7095  -17.2874   19.7368 C   0  0  0  0  0  0  0  0  0  0  0  0
  -22.9211  -36.6673   18.6330 C   0  0  0  0  0  0  0  0  0  0  0  0
  -23.7248  -29.9803   20.4087 C   0  0  0  0  0  0  0  0  0  0  0  0
  -26.0508  -30.1297   22.2287 C   0  0  0  0  0  0  0  0  0  0  0  0
  -23.6139  -36.1971   19.9094 C   0  0  0  0  0  0  0  0  0  0  0  0
  -25.6715  -16.2652   22.9316 C   0  0  0  0  0  0  0  0  0  0  0  0
  -24.8760  -35.4093   19.5726 C   0  0  0  0  0  0  0  0  0  0  0  0
  -25.0256  -14.9148   22.6230 C   0  0  0  0  0  0  0  0  0  0  0  0
  -29.0821  -19.5955   20.9335 C   0  0  0  0  0  0  0  0  0  0  0  0
  -27.9224  -20.4081   18.8449 C   0  0  0  0  0  0  0  0  0  0  0  0
  -26.9547  -16.4838   22.1279 C   0  0  0  0  0  0  0  0  0  0  0  0
  -27.7843  -18.9061   21.3651 C   0  0  0  0  0  0  0  0  0  0  0  0
  -26.6446  -19.7290   19.3297 C   0  0  0  0  0  0  0  0  0  0  0  0
  -26.1392  -14.9588   20.3592 C   0  0  0  0  0  0  0  0  0  0  0  0
  -24.5414  -34.1518   18.7613 C   0  0  1  0  0  0  0  0  0  0  0  0
  -24.0655  -31.2556   21.1736 C   0  0  1  0  0  0  0  0  0  0  0  0
  -24.8166  -14.7355   21.1088 C   0  0  1  0  0  0  0  0  0  0  0  0
  -28.8055  -20.8010   20.0320 C   0  0  0  0  0  0  0  0  0  0  0  0
  -32.9154  -24.8447   17.7125 C   0  0  0  0  0  0  0  0  0  0  0  0
  -30.5971  -26.6004   17.6822 C   0  0  0  0  0  0  0  0  0  0  0  0
  -32.6244  -22.1249   18.6840 C   0  0  0  0  0  0  0  0  0  0  0  0
  -24.9393  -29.5318   28.6748 C   0  0  0  0  0  0  0  0  0  0  0  0
  -26.9896  -33.6065   23.8723 C   0  0  0  0  0  0  0  0  0  0  0  0
  -27.2790  -32.7059   26.1904 C   0  0  0  0  0  0  0  0  0  0  0  0
  -25.1799  -33.9038   25.5726 C   0  0  0  0  0  0  0  0  0  0  0  0
  -23.4187  -27.3014   25.9936 C   0  0  0  0  0  0  0  0  0  0  0  0
  -28.0531  -25.5533   18.6340 C   0  0  0  0  0  0  0  0  0  1  0  0
  -25.5957  -31.5819   24.6625 C   0  0  1  0  0  0  0  0  0  0  0  0
  -24.3046  -29.2171   27.3290 C   0  0  2  0  0  0  0  0  0  0  0  0
  -26.2613  -32.9321   25.0520 C   0  0  0  0  0  0  0  0  0  0  0  0
  -24.4876  -12.3331   21.5571 N   0  0  0  0  0  0  0  0  0  0  0  0
  -29.1035  -23.4329   19.0864 N   0  0  0  0  0  0  0  0  0  0  0  0
  -24.1986  -13.3898   20.7787 N   0  0  0  0  0  0  0  0  0  0  0  0
  -24.8712  -30.9995   22.3691 N   0  0  0  0  0  0  0  0  0  0  0  0
  -26.7151  -16.2627   20.6949 N   0  0  0  0  0  0  0  0  0  0  0  0
  -26.9492  -18.5907   20.1973 N   0  0  0  0  0  0  0  0  0  0  0  0
  -22.9568  -14.0478   18.8720 N   0  0  0  0  0  0  0  0  0  0  0  0
  -22.0259   -9.6451   19.2532 N   0  0  0  0  0  0  0  0  0  0  0  0
  -30.0570  -21.3461   19.5538 N   0  0  0  0  0  0  0  0  0  0  0  0
  -24.0182  -33.1164   19.6267 N   0  0  0  0  0  0  0  0  0  0  0  0
  -24.8757  -30.9341   25.7535 N   0  0  0  0  0  0  0  0  0  0  0  0
  -24.0613  -27.7487   27.2561 N   0  3  0  0  0  0  0  0  0  0  0  0
  -21.6364  -11.5293   18.0056 O   0  0  0  0  0  0  0  0  0  0  0  0
  -26.0491  -32.2287   20.3409 O   0  0  0  0  0  0  0  0  0  0  0  0
  -23.6267  -32.4700   23.6824 O   0  0  0  0  0  0  0  0  0  0  0  0
  -26.0827  -28.9544   25.7145 O   0  0  0  0  0  0  0  0  0  0  0  0
  -26.5028  -17.0519   18.5398 O   0  0  0  0  0  0  0  0  0  0  0  0
  -23.9848   -6.1910   23.1605 O   0  0  0  0  0  0  0  0  0  0  0  0
  -28.1376  -26.4822   19.7068 O   0  0  0  0  0  0  0  0  0  1  0  0
  -19.2270   -3.4591   23.7123 F   0  0  0  0  0  0  0  0  0  0  0  0
  -22.4085   -5.6289   20.9600 F   0  0  0  0  0  0  0  0  0  0  0  0
  1  2  1  0  0  0  0
  1  5  2  0  0  0  0
  2  6  2  0  0  0  0
  3  8  2  0  0  0  0
  3 15  1  0  0  0  0
  4  9  1  0  0  0  0
  4 15  2  0  0  0  0
  5 17  1  0  0  0  0
  6 19  1  0  0  0  0
  7 10  2  0  0  0  0
  7 18  1  0  0  0  0
  8 24  1  0  0  0  0
  9 24  2  0  0  0  0
 10 25  1  0  0  0  0
 11 12  2  0  0  0  0
 11 26  1  0  0  0  0
 12 27  1  0  0  0  0
 13 20  1  0  0  0  0
 13 25  2  0  0  0  0
 14 27  2  0  0  0  0
 14 28  1  0  0  0  0
 15 29  1  0  0  0  0
 16 29  1  0  0  0  0
 16 32  2  0  0  0  0
 16 33  1  0  0  0  0
 17 19  2  0  0  0  0
 17 38  1  0  0  0  0
 18 20  2  0  0  0  0
 18 39  1  0  0  0  0
 19 51  1  0  0  0  0
 20 40  1  0  0  0  0
 21 22  1  0  0  0  0
 21 23  2  0  0  0  0
 21 55  1  0  0  0  0
 22 30  2  0  0  0  0
 22 56  1  0  0  0  0
 23 31  1  0  0  0  0
 23 57  1  0  0  0  0
 24 84  1  0  0  0  0
 25 85  1  0  0  0  0
 26 28  2  0  0  0  0
 26 84  1  0  0  0  0
 27 86  1  0  0  0  0
 28 87  1  0  0  0  0
 29 67  2  0  0  0  0
 30 63  1  0  0  0  0
 30 68  1  0  0  0  0
 31 68  2  0  0  0  0
 31 75  1  0  0  0  0
 32 69  1  0  0  0  0
 32 73  1  0  0  0  0
 33 74  1  0  0  0  0
 33 79  2  0  0  0  0
 34 52  1  0  0  0  0
 34 76  1  0  0  0  0
 34 80  2  0  0  0  0
 35 64  1  0  0  0  0
 35 70  1  0  0  0  0
 35 81  2  0  0  0  0
 36 65  1  0  0  0  0
 36 77  1  0  0  0  0
 36 82  2  0  0  0  0
 37 71  1  0  0  0  0
 37 72  1  0  0  0  0
 37 83  2  0  0  0  0
 38 41  1  0  0  0  0
 39 52  1  0  0  0  0
 40 70  1  0  0  0  0
 41 43  1  0  0  0  0
 42 44  1  0  0  0  0
 42 47  1  0  0  0  0
 43 51  1  0  0  0  0
 44 53  1  0  0  0  0
 45 48  1  0  0  0  0
 45 54  1  0  0  0  0
 46 49  1  0  0  0  0
 46 54  1  0  0  0  0
 47 71  1  0  0  0  0
 48 72  1  0  0  0  0
 49 72  1  0  0  0  0
 50 53  1  0  0  0  0
 50 71  1  0  0  0  0
 51 76  1  0  0  0  0
 52 70  1  0  0  0  0
 53 69  1  0  0  0  0
 54 75  1  0  0  0  0
 58 65  1  0  0  0  0
 59 66  1  0  0  0  0
 60 66  1  0  0  0  0
 61 66  1  0  0  0  0
 62 78  1  0  0  0  0
 63 85  1  0  0  0  0
 64 66  1  0  0  0  0
 64 77  1  0  0  0  0
 65 78  1  0  0  0  0
 67 69  1  0  0  0  0
M  CHG  1  78   1
M  ISO  4  37 100  63 101  72 100  85 101
M  END
> <Batch ID>
0167

> <Smiles>
CNC(C)C(=O)NC(C(=O)N1Cc2cc([101O:1][101CH2:1]c3nc(NC4CC[100N:0]([100C:0](=O)N5CCCC(n6nc(-c7ccc(Oc8ccc(F)cc8F)cc7)c(C(N)=O)c6N)C5)CC4)c(C)c(C)c3C)ccc2CC1C(=O)NC1CCCc2ccccc21)C(C)(C)C

> <Shape>
0.294

> <Color>
0.111

> <Negative vol penalty>
0.000

$$$$

  -OEChem-04052322273D

 87 96  0     1  0  0  0  0  0999 V2000
  -37.8017  -30.1090   19.5246 C   0  0  0  0  0  0  0  0  0  0  0  0
  -38.0676  -28.7528   19.6841 C   0  0  0  0  0  0  0  0  0  0  0  0
  -23.0485   -9.8510   20.0669 C   0  0  0  0  0  0  0  0  0  0  0  0
  -23.7812   -9.9913   22.3649 C   0  0  0  0  0  0  0  0  0  0  0  0
  -36.6055  -30.6444   20.0005 C   0  0  0  0  0  0  0  0  0  0  0  0
  -37.1378  -27.9314   20.3207 C   0  0  0  0  0  0  0  0  0  0  0  0
  -35.9144  -22.0701   19.0343 C   0  0  0  0  0  0  0  0  0  0  0  0
  -22.2722   -8.7360   20.3825 C   0  0  0  0  0  0  0  0  0  0  0  0
  -23.0047   -8.8762   22.6805 C   0  0  0  0  0  0  0  0  0  0  0  0
  -36.3372  -20.8746   19.6139 C   0  0  0  0  0  0  0  0  0  0  0  0
  -20.9340   -6.2845   24.1682 C   0  0  0  0  0  0  0  0  0  0  0  0
  -20.1631   -6.3378   25.3294 C   0  0  0  0  0  0  0  0  0  0  0  0
  -34.3245  -20.8139   20.9423 C   0  0  0  0  0  0  0  0  0  0  0  0
  -36.4866  -13.9786   18.2197 C   0  0  0  0  0  0  0  0  0  0  0  0
  -18.9778   -8.2528   24.4546 C   0  0  0  0  0  0  0  0  0  0  0  0
  -23.8031  -10.4786   21.0581 C   0  0  0  0  0  0  0  0  0  0  0  0
  -24.2115  -12.9808   20.7760 C   0  0  0  0  0  0  0  0  0  0  0  0
  -35.6564  -29.8272   20.6346 C   0  0  0  0  0  0  0  0  0  0  0  0
  -34.6966  -22.6531   19.4130 C   0  0  0  0  0  0  0  0  0  0  0  0
  -35.9284  -28.4565   20.8067 C   0  0  0  0  0  0  0  0  0  0  0  0
  -33.8874  -22.0155   20.3641 C   0  0  0  0  0  0  0  0  0  0  0  0
  -36.9897  -15.7723   19.7470 C   0  0  0  0  0  0  0  0  0  0  0  0
  -36.0716  -14.8893   19.1866 C   0  0  0  0  0  0  0  0  0  0  0  0
  -22.2502   -8.2486   21.6893 C   0  0  0  0  0  0  0  0  0  0  0  0
  -35.5435  -20.2478   20.5701 C   0  0  0  0  0  0  0  0  0  0  0  0
  -20.7269   -7.2154   23.1502 C   0  0  0  0  0  0  0  0  0  0  0  0
  -19.1849   -7.3219   25.4726 C   0  0  0  0  0  0  0  0  0  0  0  0
  -19.7488   -8.1995   23.2934 C   0  0  0  0  0  0  0  0  0  0  0  0
  -24.6057  -11.6301   20.7326 C   0  0  0  0  0  0  0  0  0  0  0  0
  -37.8197  -13.9737   17.8346 C   0  0  0  0  0  0  0  0  0  0  0  0
  -38.3101  -15.7219   19.3234 C   0  0  0  0  0  0  0  0  0  0  0  0
  -25.3269  -13.6770   20.3788 C   0  0  0  0  0  0  0  0  0  0  0  0
  -22.9500  -13.5550   21.1427 C   0  0  0  0  0  0  0  0  0  0  0  0
  -33.8506  -25.4014   20.7676 C   0  0  0  0  0  0  0  0  0  0  0  0
  -30.8505  -24.3311   20.1544 C   0  0  0  0  0  0  0  0  0  0  0  0
  -28.7806  -21.6778   19.5865 C   0  0  0  0  0  0  0  0  0  0  0  0
  -30.5960  -14.7132   20.4609 C   0  0  0  0  0  0  0  0  0  0  0  0
  -34.3984  -30.4602   21.1746 C   0  0  0  0  0  0  0  0  0  0  0  0
  -34.2423  -23.9291   18.7589 C   0  0  0  0  0  0  0  0  0  0  0  0
  -32.5619  -22.5898   20.7904 C   0  0  0  0  0  0  0  0  0  0  0  0
  -33.3017  -29.4508   21.5040 C   0  0  0  0  0  0  0  0  0  0  0  0
  -29.6596  -12.0826   18.3296 C   0  0  0  0  0  0  0  0  0  0  0  0
  -33.8757  -28.2762   22.2898 C   0  0  0  0  0  0  0  0  0  0  0  0
  -28.2175  -11.8334   18.7701 C   0  0  0  0  0  0  0  0  0  0  0  0
  -30.5817  -12.3615   19.5176 C   0  0  0  0  0  0  0  0  0  0  0  0
  -33.7770  -15.7624   18.8696 C   0  0  0  0  0  0  0  0  0  0  0  0
  -34.1842  -13.6812   20.1920 C   0  0  0  0  0  0  0  0  0  0  0  0
  -32.5396  -16.0385   19.7195 C   0  0  0  0  0  0  0  0  0  0  0  0
  -32.9483  -14.0005   21.0258 C   0  0  0  0  0  0  0  0  0  0  0  0
  -28.6688  -13.2036   20.8404 C   0  0  0  0  0  0  0  0  0  0  0  0
  -34.9339  -27.5284   21.4698 C   0  0  1  0  0  0  0  0  0  0  0  0
  -33.2255  -24.7000   19.5950 C   0  0  1  0  0  0  0  0  0  0  0  0
  -27.7072  -12.9781   19.6633 C   0  0  2  0  0  0  0  0  0  0  0  0
  -38.3410  -13.0335   16.8097 C   0  0  0  0  0  0  0  0  0  0  0  0
  -39.3657  -16.6211   19.8599 C   0  0  0  0  0  0  0  0  0  0  0  0
  -37.2840  -16.5219   22.1310 C   0  0  0  0  0  0  0  0  0  0  0  0
  -26.3734  -21.1140   19.1567 C   0  0  0  0  0  0  0  0  0  0  0  0
  -30.2195  -24.7872   23.1046 C   0  0  0  0  0  0  0  0  0  0  0  0
  -28.1870  -23.3532   22.8198 C   0  0  0  0  0  0  0  0  0  0  0  0
  -28.4030  -25.4777   21.5304 C   0  0  0  0  0  0  0  0  0  0  0  0
  -29.4090  -20.4903   16.9494 C   0  0  0  0  0  0  0  0  0  0  0  0
  -36.7726  -18.2247   20.3420 C   0  0  0  0  0  0  0  0  0  1  0  0
  -36.5690  -16.7589   20.7865 C   0  0  1  0  0  0  0  0  0  0  0  0
  -29.8401  -23.4948   20.9019 C   0  0  1  0  0  0  0  0  0  0  0  0
  -27.7199  -21.4363   18.5277 C   0  0  2  0  0  0  0  0  0  0  0  0
  -29.1882  -24.2682   22.0827 C   0  0  0  0  0  0  0  0  0  0  0  0
  -25.8725  -11.4750   20.3387 N   0  0  0  0  0  0  0  0  0  0  0  0
  -26.2840  -12.7374   20.1309 N   0  0  0  0  0  0  0  0  0  0  0  0
  -38.6827  -14.8349   18.3906 N   0  3  0  0  0  0  0  0  0  0  0  0
  -34.7280  -14.9025   19.5823 N   0  0  0  0  0  0  0  0  0  0  0  0
  -32.1643  -23.8423   20.1266 N   0  0  0  0  0  0  0  0  0  0  0  0
  -30.0339  -13.4317   20.3618 N   0  0  0  0  0  0  0  0  0  0  0  0
  -31.9845  -14.8124   20.2799 N   0  0  0  0  0  0  0  0  0  0  0  0
  -25.5726  -14.9949   20.2208 N   0  0  0  0  0  0  0  0  0  0  0  0
  -21.9109  -12.6959   21.5257 N   0  0  0  0  0  0  0  0  0  0  0  0
  -34.3016  -26.6767   20.4853 N   0  0  0  0  0  0  0  0  0  0  0  0
  -28.8895  -23.0150   19.9046 N   0  0  0  0  0  0  0  0  0  0  0  0
  -28.1135  -20.2976   17.6505 N   0  3  0  0  0  0  0  0  0  0  0  0
  -22.7450  -14.7922   21.1154 O   0  0  0  0  0  0  0  0  0  0  0  0
  -33.9174  -24.8285   21.8488 O   0  0  0  0  0  0  0  0  0  0  0  0
  -30.4859  -25.3757   19.6089 O   0  0  0  0  0  0  0  0  0  0  0  0
  -29.4434  -20.7705   20.0844 O   0  0  0  0  0  0  0  0  0  0  0  0
  -29.9011  -15.7101   20.6936 O   0  0  0  0  0  0  0  0  0  0  0  0
  -21.4926   -7.1607   21.9976 O   0  0  0  0  0  0  0  0  0  0  0  0
  -35.9568  -19.0735   21.1416 O   0  0  0  0  0  0  0  0  0  1  0  0
  -18.4436   -7.3720   26.5871 F   0  0  0  0  0  0  0  0  0  0  0  0
  -19.5444   -9.0958   22.3183 F   0  0  0  0  0  0  0  0  0  0  0  0
  1  2  1  0  0  0  0
  1  5  2  0  0  0  0
  2  6  2  0  0  0  0
  3  8  2  0  0  0  0
  3 16  1  0  0  0  0
  4  9  1  0  0  0  0
  4 16  2  0  0  0  0
  5 18  1  0  0  0  0
  6 20  1  0  0  0  0
  7 10  2  0  0  0  0
  7 19  1  0  0  0  0
  8 24  1  0  0  0  0
  9 24  2  0  0  0  0
 10 25  1  0  0  0  0
 11 12  2  0  0  0  0
 11 26  1  0  0  0  0
 12 27  1  0  0  0  0
 13 21  1  0  0  0  0
 13 25  2  0  0  0  0
 14 23  2  0  0  0  0
 14 30  1  0  0  0  0
 15 27  2  0  0  0  0
 15 28  1  0  0  0  0
 16 29  1  0  0  0  0
 17 29  1  0  0  0  0
 17 32  2  0  0  0  0
 17 33  1  0  0  0  0
 18 20  2  0  0  0  0
 18 38  1  0  0  0  0
 19 21  2  0  0  0  0
 19 39  1  0  0  0  0
 20 51  1  0  0  0  0
 21 40  1  0  0  0  0
 22 23  1  0  0  0  0
 22 31  2  0  0  0  0
 22 63  1  0  0  0  0
 23 70  1  0  0  0  0
 24 84  1  0  0  0  0
 25 85  1  0  0  0  0
 26 28  2  0  0  0  0
 26 84  1  0  0  0  0
 27 86  1  0  0  0  0
 28 87  1  0  0  0  0
 29 67  2  0  0  0  0
 30 54  1  0  0  0  0
 30 69  2  0  0  0  0
 31 55  1  0  0  0  0
 31 69  1  0  0  0  0
 32 68  1  0  0  0  0
 32 74  1  0  0  0  0
 33 75  1  0  0  0  0
 33 79  2  0  0  0  0
 34 52  1  0  0  0  0
 34 76  1  0  0  0  0
 34 80  2  0  0  0  0
 35 64  1  0  0  0  0
 35 71  1  0  0  0  0
 35 81  2  0  0  0  0
 36 65  1  0  0  0  0
 36 77  1  0  0  0  0
 36 82  2  0  0  0  0
 37 72  1  0  0  0  0
 37 73  1  0  0  0  0
 37 83  2  0  0  0  0
 38 41  1  0  0  0  0
 39 52  1  0  0  0  0
 40 71  1  0  0  0  0
 41 43  1  0  0  0  0
 42 44  1  0  0  0  0
 42 45  1  0  0  0  0
 43 51  1  0  0  0  0
 44 53  1  0  0  0  0
 45 72  1  0  0  0  0
 46 48  1  0  0  0  0
 46 70  1  0  0  0  0
 47 49  1  0  0  0  0
 47 70  1  0  0  0  0
 48 73  1  0  0  0  0
 49 73  1  0  0  0  0
 50 53  1  0  0  0  0
 50 72  1  0  0  0  0
 51 76  1  0  0  0  0
 52 71  1  0  0  0  0
 53 68  1  0  0  0  0
 56 63  1  0  0  0  0
 57 65  1  0  0  0  0
 58 66  1  0  0  0  0
 59 66  1  0  0  0  0
 60 66  1  0  0  0  0
 61 78  1  0  0  0  0
 62 63  1  0  0  0  0
 62 85  1  0  0  0  0
 64 66  1  0  0  0  0
 64 77  1  0  0  0  0
 65 78  1  0  0  0  0
 67 68  1  0  0  0  0
M  CHG  2  69   1  78   1
M  ISO  4  37 100  62 101  73 100  85 101
M  END
> <Batch ID>
0167

> <Smiles>
CNC(C)C(=O)NC(C(=O)N1Cc2cc([101O:1][101CH2:1]C(C)c3c(N4CC[100N:0]([100C:0](=O)N5CCCC(n6nc(-c7ccc(Oc8ccc(F)cc8F)cc7)c(C(N)=O)c6N)C5)CC4)cc(C)nc3C)ccc2CC1C(=O)NC1CCCc2ccccc21)C(C)(C)C

> <Shape>
0.186

> <Color>
0.203

> <Negative vol penalty>
0.000

$$$$

  -OEChem-04052322273D

 92102  0     1  0  0  0  0  0999 V2000
  -16.6477  -29.9817   23.5784 C   0  0  0  0  0  0  0  0  0  0  0  0
  -17.7504  -30.6952   24.0370 C   0  0  0  0  0  0  0  0  0  0  0  0
  -26.4174  -13.8948   19.4992 C   0  0  0  0  0  0  0  0  0  0  0  0
  -27.0569  -14.4057   17.2261 C   0  0  0  0  0  0  0  0  0  0  0  0
  -16.8238  -28.7280   22.9943 C   0  0  0  0  0  0  0  0  0  0  0  0
  -19.0299  -30.1549   23.9128 C   0  0  0  0  0  0  0  0  0  0  0  0
  -25.8378  -32.1134   22.8485 C   0  0  0  0  0  0  0  0  0  0  0  0
  -25.6715  -12.8072   19.0450 C   0  0  0  0  0  0  0  0  0  0  0  0
  -26.3111  -13.3180   16.7718 C   0  0  0  0  0  0  0  0  0  0  0  0
  -27.1060  -31.9461   23.4030 C   0  0  0  0  0  0  0  0  0  0  0  0
  -26.2575   -9.6383   18.0215 C   0  0  0  0  0  0  0  0  0  0  0  0
  -26.3822   -8.4330   18.7123 C   0  0  0  0  0  0  0  0  0  0  0  0
  -29.2774  -27.0988   29.0236 C   0  0  0  0  0  0  0  0  0  0  0  0
  -28.2647  -26.6295   26.8810 C   0  0  0  0  0  0  0  0  0  0  0  0
  -27.2971  -29.8065   22.3053 C   0  0  0  0  0  0  0  0  0  0  0  0
  -28.0463  -25.0465   28.6930 C   0  0  0  0  0  0  0  0  0  0  0  0
  -24.0182   -8.4732   19.2092 C   0  0  0  0  0  0  0  0  0  0  0  0
  -27.1101  -14.6941   18.5898 C   0  0  0  0  0  0  0  0  0  0  0  0
  -29.0126  -27.4701   27.7054 C   0  0  0  0  0  0  0  0  0  0  0  0
  -29.2353  -15.8203   19.4399 C   0  0  0  0  0  0  0  0  0  0  0  0
  -18.1070  -28.1763   22.8540 C   0  0  0  0  0  0  0  0  0  0  0  0
  -25.2844  -31.1220   22.0256 C   0  0  0  0  0  0  0  0  0  0  0  0
  -19.2232  -28.8921   23.3274 C   0  0  0  0  0  0  0  0  0  0  0  0
  -26.0228  -29.9649   21.7395 C   0  0  0  0  0  0  0  0  0  0  0  0
  -28.7943  -25.8870   29.5174 C   0  0  0  0  0  0  0  0  0  0  0  0
  -27.7815  -25.4177   27.3747 C   0  0  0  0  0  0  0  0  0  0  0  0
  -25.6184  -12.5187   17.6813 C   0  0  0  0  0  0  0  0  0  0  0  0
  -27.8346  -30.7913   23.1339 C   0  0  0  0  0  0  0  0  0  0  0  0
  -25.0132  -10.2611   17.9246 C   0  0  0  0  0  0  0  0  0  0  0  0
  -25.2625   -7.8504   19.3061 C   0  0  0  0  0  0  0  0  0  0  0  0
  -23.8935   -9.6786   18.5184 C   0  0  0  0  0  0  0  0  0  0  0  0
  -27.8802  -15.8181   19.0583 C   0  0  0  0  0  0  0  0  0  0  0  0
  -29.4879  -17.1208   19.8023 C   0  0  0  0  0  0  0  0  0  0  0  0
  -29.8571  -28.9973   25.9049 C   0  0  0  0  0  0  0  0  0  0  0  0
  -29.5249  -28.7517   27.1823 C   0  0  0  0  0  0  0  0  0  0  0  0
  -30.1812  -14.7431   19.4644 C   0  0  0  0  0  0  0  0  0  0  0  0
  -22.7168  -29.2546   22.1799 C   0  0  0  0  0  0  0  0  0  0  0  0
  -23.6400  -28.3991   19.1902 C   0  0  0  0  0  0  0  0  0  0  0  0
  -26.1569  -28.1283   16.9014 C   0  0  0  0  0  0  0  0  0  0  0  0
  -28.2777  -21.6992   22.3281 C   0  0  0  0  0  0  0  0  0  0  0  0
  -18.2432  -26.7972   22.2589 C   0  0  0  0  0  0  0  0  0  0  0  0
  -23.9262  -31.3296   21.4135 C   0  0  0  0  0  0  0  0  0  0  0  0
  -25.4820  -28.8797   20.8459 C   0  0  0  0  0  0  0  0  0  0  0  0
  -19.6671  -26.4589   21.8249 C   0  0  0  0  0  0  0  0  0  0  0  0
  -26.7358  -21.3136   19.1971 C   0  0  0  0  0  0  0  0  0  0  0  0
  -20.6627  -26.8417   22.9154 C   0  0  0  0  0  0  0  0  0  0  0  0
  -27.0048  -19.8374   18.9062 C   0  0  0  0  0  0  0  0  0  0  0  0
  -26.2176  -23.5087   24.5348 C   0  0  0  0  0  0  0  0  0  0  0  0
  -28.6560  -24.1047   24.7930 C   0  0  0  0  0  0  0  0  0  0  0  0
  -30.5797  -30.8951   27.1250 C   0  0  0  0  0  0  0  0  0  0  0  0
  -26.3721  -21.5518   20.6638 C   0  0  0  0  0  0  0  0  0  0  0  0
  -26.4448  -23.3017   23.0344 C   0  0  0  0  0  0  0  0  0  0  0  0
  -28.8280  -23.9141   23.2886 C   0  0  0  0  0  0  0  0  0  0  0  0
  -27.6259  -19.5270   21.3321 C   0  0  0  0  0  0  0  0  0  0  0  0
  -20.6294  -28.3504   23.1879 C   0  0  1  0  0  0  0  0  0  0  0  0
  -29.7717  -29.9622   28.0486 C   0  0  1  0  0  0  0  0  0  0  0  0
  -23.2492  -30.0250   21.0049 C   0  0  1  0  0  0  0  0  0  0  0  0
  -28.0508  -19.2644   19.8790 C   0  0  1  0  0  0  0  0  0  0  0  0
  -27.2165  -24.5085   25.1222 C   0  0  0  0  0  0  0  0  0  0  0  0
  -30.3667  -30.3939   25.6821 C   0  0  1  0  0  0  0  0  0  0  0  0
  -29.0789  -25.4893   30.9265 C   0  0  0  0  0  0  0  0  0  0  0  0
  -28.4797  -30.6164   28.5345 C   0  0  0  0  0  0  0  0  0  0  0  0
  -31.6868  -30.3861   24.9046 C   0  0  0  0  0  0  0  0  0  0  0  0
  -26.6131  -27.3582   14.5570 C   0  0  0  0  0  0  0  0  0  0  0  0
  -23.5543  -25.4972   20.1294 C   0  0  0  0  0  0  0  0  0  0  0  0
  -24.8994  -24.8772   18.1108 C   0  0  0  0  0  0  0  0  0  0  0  0
  -22.6315  -25.8793   17.8366 C   0  0  0  0  0  0  0  0  0  0  0  0
  -27.0079  -30.8334   16.0546 C   0  0  0  0  0  0  0  0  0  0  0  0
  -29.3275  -31.2336   24.9315 C   0  0  0  0  0  0  0  0  0  1  0  0
  -24.5452  -27.3375   18.6136 C   0  0  1  0  0  0  0  0  0  0  0  0
  -26.2393  -28.5372   15.4418 C   0  0  2  0  0  0  0  0  0  0  0  0
  -23.9173  -25.9172   18.6910 C   0  0  0  0  0  0  0  0  0  0  0  0
  -27.3116  -17.0217   19.1683 N   0  0  0  0  0  0  0  0  0  0  0  0
  -28.3143  -17.7923   19.6231 N   0  0  0  0  0  0  0  0  0  0  0  0
  -24.1469  -29.1264   20.2764 N   0  0  0  0  0  0  0  0  0  0  0  0
  -27.3773  -20.9531   21.5530 N   0  0  0  0  0  0  0  0  0  0  0  0
  -27.8489  -22.9623   22.7625 N   0  0  0  0  0  0  0  0  0  0  0  0
  -30.5970  -17.7440   20.2536 N   0  0  0  0  0  0  0  0  0  0  0  0
  -29.7554  -13.4707   19.0594 N   0  0  0  0  0  0  0  0  0  0  0  0
  -27.0428  -24.5818   26.5562 N   0  0  0  0  0  0  0  0  0  0  0  0
  -21.3480  -29.0664   22.1558 N   0  0  0  0  0  0  0  0  0  0  0  0
  -24.8740  -27.7724   17.2604 N   0  0  0  0  0  0  0  0  0  0  0  0
  -27.2634  -29.6045   15.2600 N   0  3  0  0  0  0  0  0  0  0  0  0
  -31.3644  -14.9006   19.8500 O   0  0  0  0  0  0  0  0  0  0  0  0
  -23.4907  -28.8588   23.0436 O   0  0  0  0  0  0  0  0  0  0  0  0
  -22.5269  -28.5813   18.6906 O   0  0  0  0  0  0  0  0  0  0  0  0
  -27.1335  -28.1214   17.6474 O   0  0  0  0  0  0  0  0  0  0  0  0
  -29.3993  -21.2625   22.6154 O   0  0  0  0  0  0  0  0  0  0  0  0
  -24.8909  -11.4574   17.2377 O   0  0  0  0  0  0  0  0  0  0  0  0
  -29.0845  -30.6235   23.6797 O   0  0  0  0  0  0  0  0  0  1  0  0
  -25.3821   -6.6921   19.9681 F   0  0  0  0  0  0  0  0  0  0  0  0
  -22.6952  -10.2716   18.4276 F   0  0  0  0  0  0  0  0  0  0  0  0
  1  2  1  0  0  0  0
  1  5  2  0  0  0  0
  2  6  2  0  0  0  0
  3  8  2  0  0  0  0
  3 18  1  0  0  0  0
  4  9  1  0  0  0  0
  4 18  2  0  0  0  0
  5 21  1  0  0  0  0
  6 23  1  0  0  0  0
  7 10  2  0  0  0  0
  7 22  1  0  0  0  0
  8 27  1  0  0  0  0
  9 27  2  0  0  0  0
 10 28  1  0  0  0  0
 11 12  2  0  0  0  0
 11 29  1  0  0  0  0
 12 30  1  0  0  0  0
 13 19  1  0  0  0  0
 13 25  2  0  0  0  0
 14 19  2  0  0  0  0
 14 26  1  0  0  0  0
 15 24  1  0  0  0  0
 15 28  2  0  0  0  0
 16 25  1  0  0  0  0
 16 26  2  0  0  0  0
 17 30  2  0  0  0  0
 17 31  1  0  0  0  0
 18 32  1  0  0  0  0
 19 35  1  0  0  0  0
 20 32  1  0  0  0  0
 20 33  2  0  0  0  0
 20 36  1  0  0  0  0
 21 23  2  0  0  0  0
 21 41  1  0  0  0  0
 22 24  2  0  0  0  0
 22 42  1  0  0  0  0
 23 55  1  0  0  0  0
 24 43  1  0  0  0  0
 25 61  1  0  0  0  0
 26 80  1  0  0  0  0
 27 89  1  0  0  0  0
 28 90  1  0  0  0  0
 29 31  2  0  0  0  0
 29 89  1  0  0  0  0
 30 91  1  0  0  0  0
 31 92  1  0  0  0  0
 32 73  2  0  0  0  0
 33 74  1  0  0  0  0
 33 78  1  0  0  0  0
 34 35  2  0  0  0  0
 34 60  1  0  0  0  0
 35 56  1  0  0  0  0
 36 79  1  0  0  0  0
 36 84  2  0  0  0  0
 37 57  1  0  0  0  0
 37 81  1  0  0  0  0
 37 85  2  0  0  0  0
 38 70  1  0  0  0  0
 38 75  1  0  0  0  0
 38 86  2  0  0  0  0
 39 71  1  0  0  0  0
 39 82  1  0  0  0  0
 39 87  2  0  0  0  0
 40 76  1  0  0  0  0
 40 77  1  0  0  0  0
 40 88  2  0  0  0  0
 41 44  1  0  0  0  0
 42 57  1  0  0  0  0
 43 75  1  0  0  0  0
 44 46  1  0  0  0  0
 45 47  1  0  0  0  0
 45 51  1  0  0  0  0
 46 55  1  0  0  0  0
 47 58  1  0  0  0  0
 48 52  1  0  0  0  0
 48 59  1  0  0  0  0
 49 53  1  0  0  0  0
 49 59  1  0  0  0  0
 50 56  1  0  0  0  0
 50 60  1  0  0  0  0
 51 76  1  0  0  0  0
 52 77  1  0  0  0  0
 53 77  1  0  0  0  0
 54 58  1  0  0  0  0
 54 76  1  0  0  0  0
 55 81  1  0  0  0  0
 56 62  1  0  0  0  0
 57 75  1  0  0  0  0
 58 74  1  0  0  0  0
 59 80  1  0  0  0  0
 60 63  1  0  0  0  0
 60 69  1  0  0  0  0
 64 71  1  0  0  0  0
 65 72  1  0  0  0  0
 66 72  1  0  0  0  0
 67 72  1  0  0  0  0
 68 83  1  0  0  0  0
 69 90  1  0  0  0  0
 70 72  1  0  0  0  0
 70 82  1  0  0  0  0
 71 83  1  0  0  0  0
 73 74  1  0  0  0  0
M  CHG  1  83   1
M  ISO  4  40 100  69 101  77 100  90 101
M  END
> <Batch ID>
0167

> <Smiles>
CNC(C)C(=O)NC(C(=O)N1Cc2cc([101O:1][101CH2:1]C3(C)C=C(c4cc(C)cc(NC5CC[100N:0]([100C:0](=O)N6CCCC(n7nc(-c8ccc(Oc9ccc(F)cc9F)cc8)c(C(N)=O)c7N)C6)CC5)c4)C(C)C3)ccc2CC1C(=O)NC1CCCc2ccccc21)C(C)(C)C

> <Shape>
0.221

> <Color>
0.128

> <Negative vol penalty>
0.000

$$$$

  -OEChem-04052322273D

 84 93  0     1  0  0  0  0  0999 V2000
  -23.3167  -32.0134   27.3613 C   0  0  0  0  0  0  0  0  0  0  0  0
  -24.5007  -31.4015   26.9624 C   0  0  0  0  0  0  0  0  0  0  0  0
  -23.0745   -9.8674   19.9450 C   0  0  0  0  0  0  0  0  0  0  0  0
  -23.8364   -9.8791   22.2377 C   0  0  0  0  0  0  0  0  0  0  0  0
  -22.1969  -31.2368   27.6559 C   0  0  0  0  0  0  0  0  0  0  0  0
  -24.5659  -30.0125   26.8591 C   0  0  0  0  0  0  0  0  0  0  0  0
  -27.7111  -24.8409   23.0276 C   0  0  0  0  0  0  0  0  0  0  0  0
  -22.3315   -8.7143   20.1978 C   0  0  0  0  0  0  0  0  0  0  0  0
  -23.0934   -8.7260   22.4905 C   0  0  0  0  0  0  0  0  0  0  0  0
  -28.4638  -23.6799   23.1988 C   0  0  0  0  0  0  0  0  0  0  0  0
  -19.8663   -7.9273   23.0973 C   0  0  0  0  0  0  0  0  0  0  0  0
  -19.1104   -7.8891   24.2690 C   0  0  0  0  0  0  0  0  0  0  0  0
  -26.4430  -22.4446   23.6567 C   0  0  0  0  0  0  0  0  0  0  0  0
  -20.3536   -5.9537   25.0079 C   0  0  0  0  0  0  0  0  0  0  0  0
  -23.8270  -10.4498   20.9650 C   0  0  0  0  0  0  0  0  0  0  0  0
  -24.1672  -12.9749   20.8400 C   0  0  0  0  0  0  0  0  0  0  0  0
  -22.2456  -29.8381   27.5468 C   0  0  0  0  0  0  0  0  0  0  0  0
  -26.3174  -24.8147   23.1807 C   0  0  0  0  0  0  0  0  0  0  0  0
  -23.4461  -29.2163   27.1538 C   0  0  0  0  0  0  0  0  0  0  0  0
  -25.6747  -23.6061   23.4844 C   0  0  0  0  0  0  0  0  0  0  0  0
  -29.4241  -18.4442   23.0780 C   0  0  0  0  0  0  0  0  0  0  0  0
  -30.3308  -17.3862   23.2242 C   0  0  0  0  0  0  0  0  0  0  0  0
  -28.8258  -19.0305   24.1806 C   0  0  0  0  0  0  0  0  0  0  0  0
  -30.6626  -16.9004   24.4787 C   0  0  0  0  0  0  0  0  0  0  0  0
  -29.1609  -18.5511   25.4487 C   0  0  0  0  0  0  0  0  0  0  0  0
  -30.0730  -17.4943   25.5968 C   0  0  0  0  0  0  0  0  0  0  0  0
  -22.3410   -8.1436   21.4705 C   0  0  0  0  0  0  0  0  0  0  0  0
  -27.8301  -22.4821   23.5162 C   0  0  0  0  0  0  0  0  0  0  0  0
  -20.8658   -6.9787   22.8809 C   0  0  0  0  0  0  0  0  0  0  0  0
  -19.3540   -6.9023   25.2243 C   0  0  0  0  0  0  0  0  0  0  0  0
  -21.1095   -5.9920   23.8362 C   0  0  0  0  0  0  0  0  0  0  0  0
  -24.5951  -11.6407   20.7044 C   0  0  0  0  0  0  0  0  0  0  0  0
  -25.2585  -13.7244   20.4744 C   0  0  0  0  0  0  0  0  0  0  0  0
  -22.8967  -13.4908   21.2591 C   0  0  0  0  0  0  0  0  0  0  0  0
  -24.2490  -26.2243   25.1398 C   0  0  0  0  0  0  0  0  0  0  0  0
  -22.0563  -24.8144   23.2093 C   0  0  0  0  0  0  0  0  0  0  0  0
  -21.3170  -22.3153   21.0061 C   0  0  0  0  0  0  0  0  0  0  0  0
  -30.7418  -14.7471   20.6560 C   0  0  0  0  0  0  0  0  0  0  0  0
  -21.0234  -29.0378   27.9214 C   0  0  0  0  0  0  0  0  0  0  0  0
  -25.5172  -26.0701   22.9664 C   0  0  0  0  0  0  0  0  0  0  0  0
  -29.1986  -18.7602   21.6329 C   0  0  0  0  0  0  0  0  0  0  0  0
  -24.1790  -23.5204   23.6396 C   0  0  0  0  0  0  0  0  0  0  0  0
  -21.0647  -27.5946   27.4256 C   0  0  0  0  0  0  0  0  0  0  0  0
  -30.4205  -18.0876   20.9871 C   0  0  0  0  0  0  0  0  0  0  0  0
  -29.6036  -12.3575   18.2747 C   0  0  0  0  0  0  0  0  0  0  0  0
  -22.4212  -26.9653   27.7268 C   0  0  0  0  0  0  0  0  0  0  0  0
  -28.1667  -12.0637   18.7094 C   0  0  0  0  0  0  0  0  0  0  0  0
  -30.5216  -12.5811   19.4743 C   0  0  0  0  0  0  0  0  0  0  0  0
  -28.6207  -13.3136   20.8613 C   0  0  0  0  0  0  0  0  0  0  0  0
  -23.5489  -27.7138   27.0059 C   0  0  1  0  0  0  0  0  0  0  0  0
  -30.8075  -16.9000   21.8889 C   0  0  2  0  0  0  0  0  0  0  0  0
  -24.1549  -26.0347   23.6523 C   0  0  1  0  0  0  0  0  0  0  0  0
  -27.6456  -13.1362   19.6848 C   0  0  2  0  0  0  0  0  0  0  0  0
  -31.6423  -15.7877   24.6430 C   0  0  0  0  0  0  0  0  0  0  0  0
  -28.5467  -19.1773   26.6623 C   0  0  0  0  0  0  0  0  0  0  0  0
  -30.4248  -17.0065   26.9681 C   0  0  0  0  0  0  0  0  0  0  0  0
  -19.4317  -21.3999   19.6257 C   0  0  0  0  0  0  0  0  0  0  0  0
  -20.8108  -23.6035   25.7178 C   0  0  0  0  0  0  0  0  0  0  0  0
  -19.5807  -21.9946   24.2459 C   0  0  0  0  0  0  0  0  0  0  0  0
  -19.1619  -24.4447   24.0362 C   0  0  0  0  0  0  0  0  0  0  0  0
  -22.7936  -22.7650   18.4810 C   0  0  0  0  0  0  0  0  0  0  0  0
  -27.8482  -20.1555   24.0087 C   0  0  0  0  0  0  0  0  0  1  0  0
  -21.3436  -23.4837   23.1943 C   0  0  1  0  0  0  0  0  0  0  0  0
  -20.6298  -22.3362   19.6526 C   0  0  2  0  0  0  0  0  0  0  0  0
  -20.2526  -23.3833   24.2976 C   0  0  0  0  0  0  0  0  0  0  0  0
  -25.8596  -11.5448   20.2852 N   0  0  0  0  0  0  0  0  0  0  0  0
  -26.2357  -12.8284   20.1541 N   0  0  0  0  0  0  0  0  0  0  0  0
  -23.4410  -24.7764   23.4265 N   0  0  0  0  0  0  0  0  0  0  0  0
  -29.9712  -13.6109   20.3589 N   0  0  0  0  0  0  0  0  0  0  0  0
  -25.4681  -15.0559   20.3987 N   0  0  0  0  0  0  0  0  0  0  0  0
  -21.8857  -12.5816   21.5990 N   0  0  0  0  0  0  0  0  0  0  0  0
  -23.5876  -27.3439   25.6073 N   0  0  0  0  0  0  0  0  0  0  0  0
  -20.8389  -23.3063   21.8370 N   0  0  0  0  0  0  0  0  0  0  0  0
  -30.1429  -15.6771   21.4969 N   0  0  0  0  0  0  0  0  0  0  0  0
  -21.5789  -21.9159   18.5833 N   0  3  0  0  0  0  0  0  0  0  0  0
  -22.6598  -14.7213   21.3144 O   0  0  0  0  0  0  0  0  0  0  0  0
  -24.8740  -25.4139   25.8139 O   0  0  0  0  0  0  0  0  0  0  0  0
  -21.4095  -25.8490   23.0278 O   0  0  0  0  0  0  0  0  0  0  0  0
  -22.1879  -21.4988   21.2983 O   0  0  0  0  0  0  0  0  0  0  0  0
  -31.8773  -14.9224   20.2011 O   0  0  0  0  0  0  0  0  0  0  0  0
  -21.6159   -7.0185   21.7175 O   0  0  0  0  0  0  0  0  0  0  0  0
  -28.5625  -21.3476   23.6845 O   0  0  0  0  0  0  0  0  0  1  0  0
  -18.6291   -6.8667   26.3501 F   0  0  0  0  0  0  0  0  0  0  0  0
  -22.0692   -5.0787   23.6344 F   0  0  0  0  0  0  0  0  0  0  0  0
  1  2  1  0  0  0  0
  1  5  2  0  0  0  0
  2  6  2  0  0  0  0
  3  8  2  0  0  0  0
  3 15  1  0  0  0  0
  4  9  1  0  0  0  0
  4 15  2  0  0  0  0
  5 17  1  0  0  0  0
  6 19  1  0  0  0  0
  7 10  2  0  0  0  0
  7 18  1  0  0  0  0
  8 27  1  0  0  0  0
  9 27  2  0  0  0  0
 10 28  1  0  0  0  0
 11 12  2  0  0  0  0
 11 29  1  0  0  0  0
 12 30  1  0  0  0  0
 13 20  1  0  0  0  0
 13 28  2  0  0  0  0
 14 30  2  0  0  0  0
 14 31  1  0  0  0  0
 15 32  1  0  0  0  0
 16 32  1  0  0  0  0
 16 33  2  0  0  0  0
 16 34  1  0  0  0  0
 17 19  2  0  0  0  0
 17 39  1  0  0  0  0
 18 20  2  0  0  0  0
 18 40  1  0  0  0  0
 19 50  1  0  0  0  0
 20 42  1  0  0  0  0
 21 22  1  0  0  0  0
 21 23  2  0  0  0  0
 21 41  1  0  0  0  0
 22 24  2  0  0  0  0
 22 51  1  0  0  0  0
 23 25  1  0  0  0  0
 23 62  1  0  0  0  0
 24 26  1  0  0  0  0
 24 54  1  0  0  0  0
 25 26  2  0  0  0  0
 25 55  1  0  0  0  0
 26 56  1  0  0  0  0
 27 81  1  0  0  0  0
 28 82  1  0  0  0  0
 29 31  2  0  0  0  0
 29 81  1  0  0  0  0
 30 83  1  0  0  0  0
 31 84  1  0  0  0  0
 32 66  2  0  0  0  0
 33 67  1  0  0  0  0
 33 70  1  0  0  0  0
 34 71  1  0  0  0  0
 34 76  2  0  0  0  0
 35 52  1  0  0  0  0
 35 72  1  0  0  0  0
 35 77  2  0  0  0  0
 36 63  1  0  0  0  0
 36 68  1  0  0  0  0
 36 78  2  0  0  0  0
 37 64  1  0  0  0  0
 37 73  1  0  0  0  0
 37 79  2  0  0  0  0
 38 69  1  0  0  0  0
 38 74  1  0  0  0  0
 38 80  2  0  0  0  0
 39 43  1  0  0  0  0
 40 52  1  0  0  0  0
 41 44  1  0  0  0  0
 42 68  1  0  0  0  0
 43 46  1  0  0  0  0
 44 51  1  0  0  0  0
 45 47  1  0  0  0  0
 45 48  1  0  0  0  0
 46 50  1  0  0  0  0
 47 53  1  0  0  0  0
 48 69  1  0  0  0  0
 49 53  1  0  0  0  0
 49 69  1  0  0  0  0
 50 72  1  0  0  0  0
 51 74  1  0  0  0  0
 52 68  1  0  0  0  0
 53 67  1  0  0  0  0
 57 64  1  0  0  0  0
 58 65  1  0  0  0  0
 59 65  1  0  0  0  0
 60 65  1  0  0  0  0
 61 75  1  0  0  0  0
 62 82  1  0  0  0  0
 63 65  1  0  0  0  0
 63 73  1  0  0  0  0
 64 75  1  0  0  0  0
 66 67  1  0  0  0  0
M  CHG  1  75   1
M  ISO  4  38 100  62 101  74 100  82 101
M  END
> <Batch ID>
0167

> <Smiles>
CNC(C)C(=O)NC(C(=O)N1Cc2cc([101O:1][101CH2:1]c3c(C)c(C)c(C)c4c3CCC4[100NH:0][100C:0](=O)N3CCCC(n4nc(-c5ccc(Oc6ccc(F)cc6F)cc5)c(C(N)=O)c4N)C3)ccc2CC1C(=O)NC1CCCc2ccccc21)C(C)(C)C

> <Shape>
0.193

> <Color>
0.196

> <Negative vol penalty>
0.000

$$$$

  -OEChem-04052322273D

 86 97  0     1  0  0  0  0  0999 V2000
  -21.7443   -8.5893   21.1461 C   0  0  0  0  0  0  0  0  0  0  0  0
  -21.9133   -9.8880   21.6155 C   0  0  0  0  0  0  0  0  0  0  0  0
  -24.8736  -27.4238   19.4861 C   0  0  0  0  0  0  0  0  0  0  0  0
  -24.7468  -26.7023   21.7884 C   0  0  0  0  0  0  0  0  0  0  0  0
  -22.8569   -7.8260   20.7950 C   0  0  0  0  0  0  0  0  0  0  0  0
  -23.1951  -10.4237   21.7352 C   0  0  0  0  0  0  0  0  0  0  0  0
  -23.4987  -15.1532   19.9506 C   0  0  0  0  0  0  0  0  0  0  0  0
  -23.4952  -27.2537   19.3569 C   0  0  0  0  0  0  0  0  0  0  0  0
  -23.3684  -26.5322   21.6592 C   0  0  0  0  0  0  0  0  0  0  0  0
  -23.0045  -16.1730   20.7626 C   0  0  0  0  0  0  0  0  0  0  0  0
  -20.6095  -28.4839   21.6512 C   0  0  0  0  0  0  0  0  0  0  0  0
  -19.7990  -28.9722   22.6760 C   0  0  0  0  0  0  0  0  0  0  0  0
  -25.2519  -16.6903   21.4703 C   0  0  0  0  0  0  0  0  0  0  0  0
  -18.9527  -26.7435   23.0685 C   0  0  0  0  0  0  0  0  0  0  0  0
  -25.4994  -27.1480   20.7019 C   0  0  0  0  0  0  0  0  0  0  0  0
  -27.6025  -28.4884   21.2387 C   0  0  0  0  0  0  0  0  0  0  0  0
  -24.1525   -8.3559   20.9013 C   0  0  0  0  0  0  0  0  0  0  0  0
  -24.8745  -14.8866   19.9006 C   0  0  0  0  0  0  0  0  0  0  0  0
  -24.3262   -9.6662   21.3865 C   0  0  0  0  0  0  0  0  0  0  0  0
  -25.7612  -15.6682   20.6549 C   0  0  0  0  0  0  0  0  0  0  0  0
  -22.7426  -26.8080   20.4434 C   0  0  0  0  0  0  0  0  0  0  0  0
  -23.8808  -16.9399   21.5248 C   0  0  0  0  0  0  0  0  0  0  0  0
  -20.5916  -27.1255   21.3350 C   0  0  0  0  0  0  0  0  0  0  0  0
  -18.9706  -28.1020   23.3847 C   0  0  0  0  0  0  0  0  0  0  0  0
  -19.7632  -26.2553   22.0436 C   0  0  0  0  0  0  0  0  0  0  0  0
  -26.9233  -27.3229   20.8358 C   0  0  0  0  0  0  0  0  0  0  0  0
  -28.9309  -28.1410   21.2038 C   0  0  0  0  0  0  0  0  0  0  0  0
  -27.0793  -29.7703   21.6111 C   0  0  0  0  0  0  0  0  0  0  0  0
  -26.7038  -12.3911   20.6284 C   0  0  0  0  0  0  0  0  0  0  0  0
  -29.0446  -14.2226   19.3290 C   0  0  0  0  0  0  0  0  0  0  0  0
  -30.7279  -17.3625   18.7591 C   0  0  0  0  0  0  0  0  0  0  0  0
  -28.3693  -22.8094   19.8931 C   0  0  0  0  0  0  0  0  0  0  0  0
  -25.3274   -7.4761   20.5546 C   0  0  0  0  0  0  0  0  0  0  0  0
  -25.3941  -13.8004   18.9991 C   0  0  0  0  0  0  0  0  0  0  0  0
  -27.2489  -15.4357   20.6210 C   0  0  0  0  0  0  0  0  0  0  0  0
  -26.6291   -8.2484   20.3562 C   0  0  0  0  0  0  0  0  0  0  0  0
  -30.1241  -25.3680   18.1206 C   0  0  0  0  0  0  0  0  0  0  0  0
  -28.8112  -20.3337   22.5055 C   0  0  0  0  0  0  0  0  0  0  0  0
  -26.8297   -9.2553   21.4844 C   0  0  0  0  0  0  0  0  0  0  0  0
  -30.8171  -26.1882   19.2031 C   0  0  0  0  0  0  0  0  0  0  0  0
  -27.2966  -20.4743   22.5646 C   0  0  0  0  0  0  0  0  0  0  0  0
  -21.7171  -21.2457   20.2765 C   0  0  0  0  0  0  0  0  0  0  0  0
  -23.2884  -22.1682   22.0007 C   0  0  0  0  0  0  0  0  0  0  0  0
  -24.1844  -21.2849   19.8244 C   0  0  0  0  0  0  0  0  0  0  0  0
  -22.1229  -19.9862   22.4053 C   0  0  0  0  0  0  0  0  0  0  0  0
  -23.0181  -19.1037   20.2309 C   0  0  0  0  0  0  0  0  0  0  0  0
  -24.5908  -20.0208   21.9567 C   0  0  0  0  0  0  0  0  0  0  0  0
  -30.0943  -23.8957   18.5006 C   0  0  0  0  0  0  0  0  0  0  0  0
  -29.2527  -21.7011   22.0074 C   0  0  0  0  0  0  0  0  0  0  0  0
  -30.0072  -24.4703   20.9189 C   0  0  0  0  0  0  0  0  0  0  0  0
  -25.6992  -10.2911   21.5069 C   0  0  1  0  0  0  0  0  0  0  0  0
  -26.7656  -13.2806   19.4191 C   0  0  1  0  0  0  0  0  0  0  0  0
  -21.9812  -21.3849   21.7855 C   0  0  2  0  0  0  0  0  0  0  0  0
  -22.8802  -20.4985   19.6017 C   0  0  1  0  0  0  0  0  0  0  0  0
  -30.2002  -25.9695   20.5938 C   0  0  2  0  0  0  0  0  0  0  0  0
  -26.9743  -21.3239   21.3323 C   0  0  1  0  0  0  0  0  0  0  0  0
  -24.4768  -21.4322   21.3369 C   0  0  0  0  0  0  0  0  0  0  0  0
  -23.2874  -19.2328   21.7399 C   0  0  0  0  0  0  0  0  0  1  0  0
  -32.7256  -17.9091   17.3422 C   0  0  0  0  0  0  0  0  0  0  0  0
  -30.6231  -13.8143   21.9081 C   0  0  0  0  0  0  0  0  0  0  0  0
  -32.0835  -15.7336   21.2361 C   0  0  0  0  0  0  0  0  0  0  0  0
  -31.9891  -13.6840   19.8173 C   0  0  0  0  0  0  0  0  0  0  0  0
  -29.2465  -19.4473   17.2699 C   0  0  0  0  0  0  0  0  0  0  0  0
  -25.7443  -22.1962   21.5484 C   0  0  0  0  0  0  0  0  0  0  0  0
  -30.0099  -15.2566   19.8564 C   0  0  1  0  0  0  0  0  0  0  0  0
  -31.2072  -17.9079   17.4260 C   0  0  2  0  0  0  0  0  0  0  0  0
  -31.1482  -14.6255   20.7068 C   0  0  0  0  0  0  0  0  0  0  0  0
  -27.7519  -26.3109   20.5648 N   0  0  0  0  0  0  0  0  0  0  0  0
  -28.9653  -26.8395   20.7977 N   0  0  0  0  0  0  0  0  0  0  0  0
  -27.7077  -14.3579   19.7291 N   0  0  0  0  0  0  0  0  0  0  0  0
  -29.4660  -23.6796   19.8041 N   0  0  0  0  0  0  0  0  0  0  0  0
  -28.1890  -22.1114   21.0894 N   0  0  0  0  0  0  0  0  0  0  0  0
  -30.0612  -28.8251   21.4812 N   0  0  0  0  0  0  0  0  0  0  0  0
  -25.6903  -29.9562   21.5921 N   0  0  0  0  0  0  0  0  0  0  0  0
  -25.8987  -11.2795   20.4687 N   0  0  0  0  0  0  0  0  0  0  0  0
  -30.4769  -16.0081   18.6965 N   0  0  0  0  0  0  0  0  0  0  0  0
  -30.7248  -19.3048   17.2342 N   0  3  0  0  0  0  0  0  0  0  0  0
  -27.8225  -30.7275   21.9349 O   0  0  0  0  0  0  0  0  0  0  0  0
  -27.3407  -12.6904   21.6317 O   0  0  0  0  0  0  0  0  0  0  0  0
  -29.4602  -13.3319   18.5837 O   0  0  0  0  0  0  0  0  0  0  0  0
  -30.5935  -18.0668   19.7574 O   0  0  0  0  0  0  0  0  0  0  0  0
  -27.5912  -22.6549   18.9425 O   0  0  0  0  0  0  0  0  0  0  0  0
  -21.3975  -26.6422   20.3178 O   0  0  0  0  0  0  0  0  0  0  0  0
  -23.3975  -17.9431   22.3247 O   0  0  0  0  0  0  0  0  0  1  0  0
  -18.1934  -28.5707   24.3698 F   0  0  0  0  0  0  0  0  0  0  0  0
  -19.7426  -24.9490   21.7451 F   0  0  0  0  0  0  0  0  0  0  0  0
  1  2  1  0  0  0  0
  1  5  2  0  0  0  0
  2  6  2  0  0  0  0
  3  8  2  0  0  0  0
  3 15  1  0  0  0  0
  4  9  1  0  0  0  0
  4 15  2  0  0  0  0
  5 17  1  0  0  0  0
  6 19  1  0  0  0  0
  7 10  2  0  0  0  0
  7 18  1  0  0  0  0
  8 21  1  0  0  0  0
  9 21  2  0  0  0  0
 10 22  1  0  0  0  0
 11 12  2  0  0  0  0
 11 23  1  0  0  0  0
 12 24  1  0  0  0  0
 13 20  1  0  0  0  0
 13 22  2  0  0  0  0
 14 24  2  0  0  0  0
 14 25  1  0  0  0  0
 15 26  1  0  0  0  0
 16 26  1  0  0  0  0
 16 27  2  0  0  0  0
 16 28  1  0  0  0  0
 17 19  2  0  0  0  0
 17 33  1  0  0  0  0
 18 20  2  0  0  0  0
 18 34  1  0  0  0  0
 19 51  1  0  0  0  0
 20 35  1  0  0  0  0
 21 83  1  0  0  0  0
 22 84  1  0  0  0  0
 23 25  2  0  0  0  0
 23 83  1  0  0  0  0
 24 85  1  0  0  0  0
 25 86  1  0  0  0  0
 26 68  2  0  0  0  0
 27 69  1  0  0  0  0
 27 73  1  0  0  0  0
 28 74  1  0  0  0  0
 28 78  2  0  0  0  0
 29 52  1  0  0  0  0
 29 75  1  0  0  0  0
 29 79  2  0  0  0  0
 30 65  1  0  0  0  0
 30 70  1  0  0  0  0
 30 80  2  0  0  0  0
 31 66  1  0  0  0  0
 31 76  1  0  0  0  0
 31 81  2  0  0  0  0
 32 71  1  0  0  0  0
 32 72  1  0  0  0  0
 32 82  2  0  0  0  0
 33 36  1  0  0  0  0
 34 52  1  0  0  0  0
 35 70  1  0  0  0  0
 36 39  1  0  0  0  0
 37 40  1  0  0  0  0
 37 48  1  0  0  0  0
 38 41  1  0  0  0  0
 38 49  1  0  0  0  0
 39 51  1  0  0  0  0
 40 55  1  0  0  0  0
 41 56  1  0  0  0  0
 42 53  1  0  0  0  0
 42 54  1  0  0  0  0
 43 53  1  0  0  0  0
 43 57  1  0  0  0  0
 44 54  1  0  0  0  0
 44 57  1  0  0  0  0
 45 53  1  0  0  0  0
 45 58  1  0  0  0  0
 46 54  1  0  0  0  0
 46 58  1  0  0  0  0
 47 57  1  0  0  0  0
 47 58  1  0  0  0  0
 48 71  1  0  0  0  0
 49 72  1  0  0  0  0
 50 55  1  0  0  0  0
 50 71  1  0  0  0  0
 51 75  1  0  0  0  0
 52 70  1  0  0  0  0
 55 69  1  0  0  0  0
 56 64  1  0  0  0  0
 56 72  1  0  0  0  0
 57 64  1  0  0  0  0
 58 84  1  0  0  0  0
 59 66  1  0  0  0  0
 60 67  1  0  0  0  0
 61 67  1  0  0  0  0
 62 67  1  0  0  0  0
 63 77  1  0  0  0  0
 65 67  1  0  0  0  0
 65 76  1  0  0  0  0
 66 77  1  0  0  0  0
 68 69  1  0  0  0  0
M  CHG  1  77   1
M  ISO  4  32 100  58 101  72 100  84 101
M  END
> <Batch ID>
0167

> <Smiles>
CNC(C)C(=O)NC(C(=O)N1Cc2cc([101O:1][101C:1]34CC5CC(CC(CC6CCC[100N:0]6[100C:0](=O)N6CCCC(n7nc(-c8ccc(Oc9ccc(F)cc9F)cc8)c(C(N)=O)c7N)C6)(C5)C3)C4)ccc2CC1C(=O)NC1CCCc2ccccc21)C(C)(C)C

> <Shape>
0.283

> <Color>
0.055

> <Negative vol penalty>
0.000

$$$$

  -OEChem-04052322273D

 87 96  0     1  0  0  0  0  0999 V2000
  -22.4562  -34.8296   15.4380 C   0  0  0  0  0  0  0  0  0  0  0  0
  -23.1436  -33.6222   15.5077 C   0  0  0  0  0  0  0  0  0  0  0  0
  -23.9738  -10.9787   22.6760 C   0  0  0  0  0  0  0  0  0  0  0  0
  -24.6628   -9.1915   21.2036 C   0  0  0  0  0  0  0  0  0  0  0  0
  -22.5728  -35.7575   16.4722 C   0  0  0  0  0  0  0  0  0  0  0  0
  -23.9490  -33.3423   16.6111 C   0  0  0  0  0  0  0  0  0  0  0  0
  -24.8679  -27.8713   19.2053 C   0  0  0  0  0  0  0  0  0  0  0  0
  -22.8052  -10.2796   22.9778 C   0  0  0  0  0  0  0  0  0  0  0  0
  -23.4942   -8.4923   21.5054 C   0  0  0  0  0  0  0  0  0  0  0  0
  -25.8964  -26.9376   19.0861 C   0  0  0  0  0  0  0  0  0  0  0  0
  -20.8617   -6.0731   22.1656 C   0  0  0  0  0  0  0  0  0  0  0  0
  -20.9729   -4.7098   22.4387 C   0  0  0  0  0  0  0  0  0  0  0  0
  -32.1980  -21.7135   17.2442 C   0  0  0  0  0  0  0  0  0  0  0  0
  -26.9426  -27.8467   21.0604 C   0  0  0  0  0  0  0  0  0  0  0  0
  -22.4347   -5.2015   24.2984 C   0  0  0  0  0  0  0  0  0  0  0  0
  -24.9027  -10.4347   21.7889 C   0  0  0  0  0  0  0  0  0  0  0  0
  -27.3447  -11.0791   22.1479 C   0  0  0  0  0  0  0  0  0  0  0  0
  -23.3723  -35.4848   17.5933 C   0  0  0  0  0  0  0  0  0  0  0  0
  -24.8748  -28.8084   20.2485 C   0  0  0  0  0  0  0  0  0  0  0  0
  -24.0774  -34.2680   17.6606 C   0  0  0  0  0  0  0  0  0  0  0  0
  -30.9352  -21.1397   17.3417 C   0  0  0  0  0  0  0  0  0  0  0  0
  -25.9117  -28.7896   21.1921 C   0  0  0  0  0  0  0  0  0  0  0  0
  -32.3278  -23.0978   17.2371 C   0  0  0  0  0  0  0  0  0  0  0  0
  -22.5653   -9.0364   22.3925 C   0  0  0  0  0  0  0  0  0  0  0  0
  -26.9354  -26.9270   20.0120 C   0  0  0  0  0  0  0  0  0  0  0  0
  -21.5371   -7.0007   22.9588 C   0  0  0  0  0  0  0  0  0  0  0  0
  -21.7593   -4.2740   23.5051 C   0  0  0  0  0  0  0  0  0  0  0  0
  -22.3236   -6.5649   24.0252 C   0  0  0  0  0  0  0  0  0  0  0  0
  -26.1098  -11.1566   21.4764 C   0  0  0  0  0  0  0  0  0  0  0  0
  -29.8427  -21.9873   17.4290 C   0  0  0  0  0  0  0  0  0  0  0  0
  -31.1729  -23.8578   17.3289 C   0  0  0  0  0  0  0  0  0  0  0  0
  -28.1600  -11.9515   21.4691 C   0  0  0  0  0  0  0  0  0  0  0  0
  -27.7212  -10.2892   23.2836 C   0  0  0  0  0  0  0  0  0  0  0  0
  -24.9950  -31.9805   20.4135 C   0  0  0  0  0  0  0  0  0  0  0  0
  -24.5403  -31.4439   23.5801 C   0  0  0  0  0  0  0  0  0  0  0  0
  -24.8197  -29.3064   26.2259 C   0  0  0  0  0  0  0  0  0  0  0  0
  -28.9129  -16.9460   19.2689 C   0  0  0  0  0  0  0  0  0  0  0  0
  -23.5046  -36.5386   18.6642 C   0  0  0  0  0  0  0  0  0  0  0  0
  -23.7441  -29.7918   20.3786 C   0  0  0  0  0  0  0  0  0  0  0  0
  -25.9551  -29.7613   22.3421 C   0  0  0  0  0  0  0  0  0  0  0  0
  -24.0821  -36.0073   19.9735 C   0  0  0  0  0  0  0  0  0  0  0  0
  -27.5222  -14.3295   17.0706 C   0  0  0  0  0  0  0  0  0  0  0  0
  -25.3073  -35.1396   19.7034 C   0  0  0  0  0  0  0  0  0  0  0  0
  -27.0847  -13.2872   18.0956 C   0  0  0  0  0  0  0  0  0  0  0  0
  -31.5536  -18.8495   18.3642 C   0  0  0  0  0  0  0  0  0  0  0  0
  -27.3693  -15.7545   17.6007 C   0  0  0  0  0  0  0  0  0  0  0  0
  -27.6240  -14.9389   19.9276 C   0  0  0  0  0  0  0  0  0  0  0  0
  -30.7878  -19.6572   17.3500 C   0  0  1  0  0  0  0  0  0  0  0  0
  -24.9412  -33.9175   18.8527 C   0  0  1  0  0  0  0  0  0  0  0  0
  -24.1205  -31.0319   21.1836 C   0  0  1  0  0  0  0  0  0  0  0  0
  -27.8164  -13.4982   19.4299 C   0  0  1  0  0  0  0  0  0  0  0  0
  -30.0676  -18.9991   18.5050 C   0  0  1  0  0  0  0  0  0  0  0  0
  -33.6778  -23.7188   17.1330 C   0  0  0  0  0  0  0  0  0  0  0  0
  -28.4614  -21.4285   17.5358 C   0  0  0  0  0  0  0  0  0  0  0  0
  -31.1454  -25.9590   15.9227 C   0  0  0  0  0  0  0  0  0  0  0  0
  -24.4003  -29.1638   28.6959 C   0  0  0  0  0  0  0  0  0  0  0  0
  -27.0191  -33.1465   24.0969 C   0  0  0  0  0  0  0  0  0  0  0  0
  -27.1001  -32.2009   26.4137 C   0  0  0  0  0  0  0  0  0  0  0  0
  -25.1294  -33.5458   25.6856 C   0  0  0  0  0  0  0  0  0  0  0  0
  -22.9063  -27.0738   25.8895 C   0  0  0  0  0  0  0  0  0  0  0  0
  -30.3019  -25.6576   19.6171 C   0  0  0  0  0  0  0  0  0  0  0  0
  -29.2264  -26.4056   20.3800 C   0  0  0  0  0  0  0  0  0  1  0  0
  -31.2527  -25.3670   17.3258 C   0  0  1  0  0  0  0  0  0  0  0  0
  -25.4454  -31.2121   24.7659 C   0  0  1  0  0  0  0  0  0  0  0  0
  -23.8325  -28.9090   27.3084 C   0  0  2  0  0  0  0  0  0  0  0  0
  -26.1740  -32.5091   25.2179 C   0  0  0  0  0  0  0  0  0  0  0  0
  -26.1338  -12.0108   20.4499 N   0  0  0  0  0  0  0  0  0  0  0  0
  -29.9292  -23.3364   17.4251 N   0  0  0  0  0  0  0  0  0  0  0  0
  -27.3936  -12.4782   20.4713 N   0  0  0  0  0  0  0  0  0  0  0  0
  -24.8300  -30.7074   22.4228 N   0  0  0  0  0  0  0  0  0  0  0  0
  -28.0225  -15.9182   18.9090 N   0  0  0  0  0  0  0  0  0  0  0  0
  -29.4504  -12.3118   21.6344 N   0  0  0  0  0  0  0  0  0  0  0  0
  -26.7608   -9.4460   23.8589 N   0  0  0  0  0  0  0  0  0  0  0  0
  -24.2961  -32.9098   19.6670 N   0  0  0  0  0  0  0  0  0  0  0  0
  -24.6159  -30.6017   25.7993 N   0  0  0  0  0  0  0  0  0  0  0  0
  -29.1819  -17.8876   18.2821 N   0  0  0  0  0  0  0  0  0  0  0  0
  -23.4963  -27.4614   27.1967 N   0  3  0  0  0  0  0  0  0  0  0  0
  -30.2074  -25.9991   18.1753 N   0  3  0  0  0  0  0  0  0  0  0  0
  -28.8703  -10.3421   23.7839 O   0  0  0  0  0  0  0  0  0  0  0  0
  -26.2136  -31.8778   20.4920 O   0  0  0  0  0  0  0  0  0  0  0  0
  -23.6062  -32.2435   23.6795 O   0  0  0  0  0  0  0  0  0  0  0  0
  -25.6875  -28.5453   25.8037 O   0  0  0  0  0  0  0  0  0  0  0  0
  -29.4276  -17.0242   20.3899 O   0  0  0  0  0  0  0  0  0  0  0  0
  -21.4251   -8.3539   22.6869 O   0  0  0  0  0  0  0  0  0  0  0  0
  -27.9408  -26.0171   19.8976 O   0  0  0  0  0  0  0  0  0  1  0  0
  -21.8647   -2.9649   23.7682 F   0  0  0  0  0  0  0  0  0  0  0  0
  -22.9738   -7.4513   24.7916 F   0  0  0  0  0  0  0  0  0  0  0  0
  1  2  1  0  0  0  0
  1  5  2  0  0  0  0
  2  6  2  0  0  0  0
  3  8  2  0  0  0  0
  3 16  1  0  0  0  0
  4  9  1  0  0  0  0
  4 16  2  0  0  0  0
  5 18  1  0  0  0  0
  6 20  1  0  0  0  0
  7 10  2  0  0  0  0
  7 19  1  0  0  0  0
  8 24  1  0  0  0  0
  9 24  2  0  0  0  0
 10 25  1  0  0  0  0
 11 12  2  0  0  0  0
 11 26  1  0  0  0  0
 12 27  1  0  0  0  0
 13 21  2  0  0  0  0
 13 23  1  0  0  0  0
 14 22  1  0  0  0  0
 14 25  2  0  0  0  0
 15 27  2  0  0  0  0
 15 28  1  0  0  0  0
 16 29  1  0  0  0  0
 17 29  1  0  0  0  0
 17 32  2  0  0  0  0
 17 33  1  0  0  0  0
 18 20  2  0  0  0  0
 18 38  1  0  0  0  0
 19 22  2  0  0  0  0
 19 39  1  0  0  0  0
 20 49  1  0  0  0  0
 21 30  1  0  0  0  0
 21 48  1  0  0  0  0
 22 40  1  0  0  0  0
 23 31  2  0  0  0  0
 23 53  1  0  0  0  0
 24 84  1  0  0  0  0
 25 85  1  0  0  0  0
 26 28  2  0  0  0  0
 26 84  1  0  0  0  0
 27 86  1  0  0  0  0
 28 87  1  0  0  0  0
 29 67  2  0  0  0  0
 30 54  1  0  0  0  0
 30 68  2  0  0  0  0
 31 63  1  0  0  0  0
 31 68  1  0  0  0  0
 32 69  1  0  0  0  0
 32 72  1  0  0  0  0
 33 73  1  0  0  0  0
 33 79  2  0  0  0  0
 34 50  1  0  0  0  0
 34 74  1  0  0  0  0
 34 80  2  0  0  0  0
 35 64  1  0  0  0  0
 35 70  1  0  0  0  0
 35 81  2  0  0  0  0
 36 65  1  0  0  0  0
 36 75  1  0  0  0  0
 36 82  2  0  0  0  0
 37 71  1  0  0  0  0
 37 76  1  0  0  0  0
 37 83  2  0  0  0  0
 38 41  1  0  0  0  0
 39 50  1  0  0  0  0
 40 70  1  0  0  0  0
 41 43  1  0  0  0  0
 42 44  1  0  0  0  0
 42 46  1  0  0  0  0
 43 49  1  0  0  0  0
 44 51  1  0  0  0  0
 45 48  1  0  0  0  0
 45 52  1  0  0  0  0
 46 71  1  0  0  0  0
 47 51  1  0  0  0  0
 47 71  1  0  0  0  0
 48 52  1  0  0  0  0
 49 74  1  0  0  0  0
 50 70  1  0  0  0  0
 51 69  1  0  0  0  0
 52 76  1  0  0  0  0
 55 63  1  0  0  0  0
 56 65  1  0  0  0  0
 57 66  1  0  0  0  0
 58 66  1  0  0  0  0
 59 66  1  0  0  0  0
 60 77  1  0  0  0  0
 61 62  1  0  0  0  0
 61 78  1  0  0  0  0
 62 85  1  0  0  0  0
 63 78  1  0  0  0  0
 64 66  1  0  0  0  0
 64 75  1  0  0  0  0
 65 77  1  0  0  0  0
 67 69  1  0  0  0  0
M  CHG  2  77   1  78   1
M  ISO  4  37 100  62 101  76 100  85 101
M  END
> <Batch ID>
0167

> <Smiles>
CNC(C)C(=O)NC(C(=O)N1Cc2cc([101O:1][101CH2:1]CNC(C)c3nc(C)c(C4CC4[100NH:0][100C:0](=O)N4CCCC(n5nc(-c6ccc(Oc7ccc(F)cc7F)cc6)c(C(N)=O)c5N)C4)cc3C)ccc2CC1C(=O)NC1CCCc2ccccc21)C(C)(C)C

> <Shape>
0.282

> <Color>
0.104

> <Negative vol penalty>
0.000

$$$$

  -OEChem-04052322273D

 85 94  0     1  0  0  0  0  0999 V2000
  -23.8763   -8.1426   21.5042 C   0  0  0  0  0  0  0  0  0  0  0  0
  -24.5616   -9.2633   21.0461 C   0  0  0  0  0  0  0  0  0  0  0  0
  -23.5884  -28.5870   20.7290 C   0  0  0  0  0  0  0  0  0  0  0  0
  -24.9391  -27.2860   22.2521 C   0  0  0  0  0  0  0  0  0  0  0  0
  -22.5047   -8.2151   21.7433 C   0  0  0  0  0  0  0  0  0  0  0  0
  -23.8753  -10.4570   20.8258 C   0  0  0  0  0  0  0  0  0  0  0  0
  -26.3379  -14.4817   22.6649 C   0  0  0  0  0  0  0  0  0  0  0  0
  -22.5442  -28.5856   21.6537 C   0  0  0  0  0  0  0  0  0  0  0  0
  -23.8949  -27.2846   23.1769 C   0  0  0  0  0  0  0  0  0  0  0  0
  -27.4096  -14.9684   21.9178 C   0  0  0  0  0  0  0  0  0  0  0  0
  -19.3930  -28.6179   23.4683 C   0  0  0  0  0  0  0  0  0  0  0  0
  -18.1073  -28.3529   22.9967 C   0  0  0  0  0  0  0  0  0  0  0  0
  -25.9924  -16.7059   21.0279 C   0  0  0  0  0  0  0  0  0  0  0  0
  -18.8417  -26.1897   22.2104 C   0  0  0  0  0  0  0  0  0  0  0  0
  -24.7858  -27.9372   21.0282 C   0  0  0  0  0  0  0  0  0  0  0  0
  -26.9013  -28.8838   19.9621 C   0  0  0  0  0  0  0  0  0  0  0  0
  -21.8030   -9.4130   21.5351 C   0  0  0  0  0  0  0  0  0  0  0  0
  -25.0804  -15.0978   22.5907 C   0  0  0  0  0  0  0  0  0  0  0  0
  -22.4927  -10.5452   21.0612 C   0  0  0  0  0  0  0  0  0  0  0  0
  -24.9070  -16.2265   21.7771 C   0  0  0  0  0  0  0  0  0  0  0  0
  -22.6974  -27.9344   22.8777 C   0  0  0  0  0  0  0  0  0  0  0  0
  -27.2363  -16.0789   21.0969 C   0  0  0  0  0  0  0  0  0  0  0  0
  -20.4031  -27.6688   23.3109 C   0  0  0  0  0  0  0  0  0  0  0  0
  -17.8317  -27.1388   22.3677 C   0  0  0  0  0  0  0  0  0  0  0  0
  -20.1274  -26.4547   22.6820 C   0  0  0  0  0  0  0  0  0  0  0  0
  -25.8647  -27.9378   20.0731 C   0  0  0  0  0  0  0  0  0  0  0  0
  -27.6616  -28.4382   18.9086 C   0  0  0  0  0  0  0  0  0  0  0  0
  -29.9674  -22.0977   20.3650 C   0  0  0  0  0  0  0  0  0  0  0  0
  -27.1544  -30.0602   20.7418 C   0  0  0  0  0  0  0  0  0  0  0  0
  -29.7288  -18.4449   19.9366 C   0  0  0  0  0  0  0  0  0  0  0  0
  -22.1833  -14.1781   21.6609 C   0  0  0  0  0  0  0  0  0  0  0  0
  -21.3217  -17.0958   22.7865 C   0  0  0  0  0  0  0  0  0  0  0  0
  -22.2393  -20.2925   23.5517 C   0  0  0  0  0  0  0  0  0  0  0  0
  -28.4950  -23.0278   16.4829 C   0  0  0  0  0  0  0  0  0  0  0  0
  -20.3121   -9.4298   21.7624 C   0  0  0  0  0  0  0  0  0  0  0  0
  -23.9413  -14.5767   23.4234 C   0  0  0  0  0  0  0  0  0  0  0  0
  -23.5823  -16.9364   21.6776 C   0  0  0  0  0  0  0  0  0  0  0  0
  -29.2807  -20.7987   20.7333 C   0  0  0  0  0  0  0  0  0  0  0  0
  -19.7269  -10.8362   21.8616 C   0  0  0  0  0  0  0  0  0  0  0  0
  -27.3227  -25.9566   14.8322 C   0  0  0  0  0  0  0  0  0  0  0  0
  -20.2643  -11.7184   20.7392 C   0  0  0  0  0  0  0  0  0  0  0  0
  -26.9096  -26.8818   15.9781 C   0  0  0  0  0  0  0  0  0  0  0  0
  -29.2451  -20.3120   18.2817 C   0  0  0  0  0  0  0  0  0  0  0  0
  -27.0120  -24.4949   15.1469 C   0  0  0  0  0  0  0  0  0  0  0  0
  -27.1535  -24.9300   17.5686 C   0  0  0  0  0  0  0  0  0  0  0  0
  -21.7878  -11.8649   20.8340 C   0  0  1  0  0  0  0  0  0  0  0  0
  -22.5726  -14.9705   22.8767 C   0  0  1  0  0  0  0  0  0  0  0  0
  -27.4982  -26.4085   17.3209 C   0  0  2  0  0  0  0  0  0  0  0  0
  -29.9486  -21.6524   17.9507 C   0  0  2  0  0  0  0  0  0  0  0  0
  -30.8958  -21.8557   19.1663 C   0  0  2  0  0  0  0  0  0  0  0  0
  -29.8913  -19.8990   19.6310 C   0  0  2  0  0  0  0  0  0  0  0  0
  -31.3616  -20.4034   19.4964 C   0  0  0  0  0  0  0  0  0  0  0  0
  -31.9689  -22.9059   18.9829 C   0  0  0  0  0  0  0  0  0  0  0  0
  -32.2200  -20.2993   20.7782 C   0  0  0  0  0  0  0  0  0  0  0  0
  -32.1709  -19.7125   18.3784 C   0  0  0  0  0  0  0  0  0  0  0  0
  -21.3075  -22.4557   24.4176 C   0  0  0  0  0  0  0  0  0  0  0  0
  -20.0290  -17.6222   20.0733 C   0  0  0  0  0  0  0  0  0  0  0  0
  -19.9702  -20.0574   20.6519 C   0  0  0  0  0  0  0  0  0  0  0  0
  -18.6974  -18.4175   22.0352 C   0  0  0  0  0  0  0  0  0  0  0  0
  -24.0383  -20.2609   25.9016 C   0  0  0  0  0  0  0  0  0  0  0  0
  -28.3073  -17.9457   20.0851 C   0  0  0  0  0  0  0  0  0  1  0  0
  -21.2197  -18.4817   22.1969 C   0  0  1  0  0  0  0  0  0  0  0  0
  -21.9881  -21.1455   24.7821 C   0  0  2  0  0  0  0  0  0  0  0  0
  -20.0037  -18.6304   21.2395 C   0  0  0  0  0  0  0  0  0  0  0  0
  -25.9550  -26.9648   19.1626 N   0  0  0  0  0  0  0  0  0  0  0  0
  -27.0574  -27.2970   18.4694 N   0  0  0  0  0  0  0  0  0  0  0  0
  -22.4975  -16.3852   22.5063 N   0  0  0  0  0  0  0  0  0  0  0  0
  -27.5996  -24.1089   16.4321 N   0  0  0  0  0  0  0  0  0  0  0  0
  -28.7811  -28.9151   18.3243 N   0  0  0  0  0  0  0  0  0  0  0  0
  -26.2740  -30.3712   21.7870 N   0  0  0  0  0  0  0  0  0  0  0  0
  -22.1409  -12.8127   21.8691 N   0  0  0  0  0  0  0  0  0  0  0  0
  -21.2079  -19.4058   23.3257 N   0  0  0  0  0  0  0  0  0  0  0  0
  -29.0107  -22.7324   17.7388 N   0  0  0  0  0  0  0  0  0  0  0  0
  -23.2743  -21.4585   25.4668 N   0  3  0  0  0  0  0  0  0  0  0  0
  -29.7861  -23.1662   20.9283 O   0  0  0  0  0  0  0  0  0  0  0  0
  -28.1230  -30.8221   20.5077 O   0  0  0  0  0  0  0  0  0  0  0  0
  -30.7036  -17.7047   20.0587 O   0  0  0  0  0  0  0  0  0  0  0  0
  -21.9380  -14.7623   20.6120 O   0  0  0  0  0  0  0  0  0  0  0  0
  -20.3955  -16.6624   23.4765 O   0  0  0  0  0  0  0  0  0  0  0  0
  -23.2478  -20.4045   22.8582 O   0  0  0  0  0  0  0  0  0  0  0  0
  -28.8154  -22.3776   15.4821 O   0  0  0  0  0  0  0  0  0  0  0  0
  -21.6787  -27.9331   23.7804 O   0  0  0  0  0  0  0  0  0  0  0  0
  -28.2913  -16.5606   20.3586 O   0  0  0  0  0  0  0  0  0  1  0  0
  -16.5966  -26.8838   21.9162 F   0  0  0  0  0  0  0  0  0  0  0  0
  -21.0933  -25.5385   22.5289 F   0  0  0  0  0  0  0  0  0  0  0  0
  1  2  1  0  0  0  0
  1  5  2  0  0  0  0
  2  6  2  0  0  0  0
  3  8  2  0  0  0  0
  3 15  1  0  0  0  0
  4  9  1  0  0  0  0
  4 15  2  0  0  0  0
  5 17  1  0  0  0  0
  6 19  1  0  0  0  0
  7 10  2  0  0  0  0
  7 18  1  0  0  0  0
  8 21  1  0  0  0  0
  9 21  2  0  0  0  0
 10 22  1  0  0  0  0
 11 12  2  0  0  0  0
 11 23  1  0  0  0  0
 12 24  1  0  0  0  0
 13 20  1  0  0  0  0
 13 22  2  0  0  0  0
 14 24  2  0  0  0  0
 14 25  1  0  0  0  0
 15 26  1  0  0  0  0
 16 26  1  0  0  0  0
 16 27  2  0  0  0  0
 16 29  1  0  0  0  0
 17 19  2  0  0  0  0
 17 35  1  0  0  0  0
 18 20  2  0  0  0  0
 18 36  1  0  0  0  0
 19 46  1  0  0  0  0
 20 37  1  0  0  0  0
 21 82  1  0  0  0  0
 22 83  1  0  0  0  0
 23 25  2  0  0  0  0
 23 82  1  0  0  0  0
 24 84  1  0  0  0  0
 25 85  1  0  0  0  0
 26 65  2  0  0  0  0
 27 66  1  0  0  0  0
 27 69  1  0  0  0  0
 28 38  1  0  0  0  0
 28 50  1  0  0  0  0
 28 75  2  0  0  0  0
 29 70  1  0  0  0  0
 29 76  2  0  0  0  0
 30 51  1  0  0  0  0
 30 61  1  0  0  0  0
 30 77  2  0  0  0  0
 31 47  1  0  0  0  0
 31 71  1  0  0  0  0
 31 78  2  0  0  0  0
 32 62  1  0  0  0  0
 32 67  1  0  0  0  0
 32 79  2  0  0  0  0
 33 63  1  0  0  0  0
 33 72  1  0  0  0  0
 33 80  2  0  0  0  0
 34 68  1  0  0  0  0
 34 73  1  0  0  0  0
 34 81  2  0  0  0  0
 35 39  1  0  0  0  0
 36 47  1  0  0  0  0
 37 67  1  0  0  0  0
 38 51  1  0  0  0  0
 39 41  1  0  0  0  0
 40 42  1  0  0  0  0
 40 44  1  0  0  0  0
 41 46  1  0  0  0  0
 42 48  1  0  0  0  0
 43 49  1  0  0  0  0
 43 51  1  0  0  0  0
 44 68  1  0  0  0  0
 45 48  1  0  0  0  0
 45 68  1  0  0  0  0
 46 71  1  0  0  0  0
 47 67  1  0  0  0  0
 48 66  1  0  0  0  0
 49 50  1  0  0  0  0
 49 73  1  0  0  0  0
 50 52  1  0  0  0  0
 50 53  1  0  0  0  0
 51 52  1  0  0  0  0
 52 54  1  0  0  0  0
 52 55  1  0  0  0  0
 56 63  1  0  0  0  0
 57 64  1  0  0  0  0
 58 64  1  0  0  0  0
 59 64  1  0  0  0  0
 60 74  1  0  0  0  0
 61 83  1  0  0  0  0
 62 64  1  0  0  0  0
 62 72  1  0  0  0  0
 63 74  1  0  0  0  0
 65 66  1  0  0  0  0
M  CHG  1  74   1
M  ISO  4  34 100  61 101  73 100  83 101
M  END
> <Batch ID>
0167

> <Smiles>
CNC(C)C(=O)NC(C(=O)N1Cc2cc([101O:1][101CH2:1]C(=O)C34CC(=O)C(C)(C([100NH:0][100C:0](=O)N5CCCC(n6nc(-c7ccc(Oc8ccc(F)cc8F)cc7)c(C(N)=O)c6N)C5)C3)C4(C)C)ccc2CC1C(=O)NC1CCCc2ccccc21)C(C)(C)C

> <Shape>
0.217

> <Color>
0.083

> <Negative vol penalty>
0.000

$$$$

  -OEChem-04052322273D

 85 94  0     1  0  0  0  0  0999 V2000
  -31.7497  -31.2869   15.1524 C   0  0  0  0  0  0  0  0  0  0  0  0
  -31.3751  -30.1594   15.8761 C   0  0  0  0  0  0  0  0  0  0  0  0
  -23.0439   -9.8941   19.9313 C   0  0  0  0  0  0  0  0  0  0  0  0
  -23.8463   -9.8465   22.2096 C   0  0  0  0  0  0  0  0  0  0  0  0
  -30.9626  -31.7238   14.0877 C   0  0  0  0  0  0  0  0  0  0  0  0
  -30.2125  -29.4685   15.5361 C   0  0  0  0  0  0  0  0  0  0  0  0
  -30.8854  -24.4498   15.4651 C   0  0  0  0  0  0  0  0  0  0  0  0
  -22.3175   -8.7260   20.1627 C   0  0  0  0  0  0  0  0  0  0  0  0
  -23.1199   -8.6784   22.4410 C   0  0  0  0  0  0  0  0  0  0  0  0
  -30.9075  -23.7929   16.6946 C   0  0  0  0  0  0  0  0  0  0  0  0
  -23.4370   -5.3766   21.7862 C   0  0  0  0  0  0  0  0  0  0  0  0
  -24.0770   -4.3390   22.4639 C   0  0  0  0  0  0  0  0  0  0  0  0
  -28.6145  -23.1184   16.3687 C   0  0  0  0  0  0  0  0  0  0  0  0
  -22.4059   -4.4458   24.2055 C   0  0  0  0  0  0  0  0  0  0  0  0
  -23.8083  -10.4543   20.9548 C   0  0  0  0  0  0  0  0  0  0  0  0
  -24.1200  -12.9856   20.8988 C   0  0  0  0  0  0  0  0  0  0  0  0
  -29.7949  -31.0323   13.7284 C   0  0  0  0  0  0  0  0  0  0  0  0
  -29.7222  -24.4552   14.6818 C   0  0  0  0  0  0  0  0  0  0  0  0
  -29.4083  -29.8973   14.4665 C   0  0  0  0  0  0  0  0  0  0  0  0
  -28.5810  -23.7739   15.1285 C   0  0  0  0  0  0  0  0  0  0  0  0
  -29.3466  -21.4381   22.4642 C   0  0  0  0  0  0  0  0  0  0  0  0
  -29.2144  -20.0603   22.6364 C   0  0  0  0  0  0  0  0  0  0  0  0
  -29.1379  -22.0072   21.2078 C   0  0  0  0  0  0  0  0  0  0  0  0
  -28.6651  -19.8205   20.2959 C   0  0  0  0  0  0  0  0  0  0  0  0
  -28.8737  -19.2515   21.5523 C   0  0  0  0  0  0  0  0  0  0  0  0
  -28.7973  -21.1984   20.1237 C   0  0  0  0  0  0  0  0  0  0  0  0
  -22.3555   -8.1181   21.4175 C   0  0  0  0  0  0  0  0  0  0  0  0
  -29.7711  -23.1295   17.1479 C   0  0  0  0  0  0  0  0  0  0  0  0
  -22.2814   -5.9489   22.3182 C   0  0  0  0  0  0  0  0  0  0  0  0
  -23.5615   -3.8736   23.6736 C   0  0  0  0  0  0  0  0  0  0  0  0
  -21.7659   -5.4835   23.5278 C   0  0  0  0  0  0  0  0  0  0  0  0
  -24.5593  -11.6607   20.7162 C   0  0  0  0  0  0  0  0  0  0  0  0
  -25.1969  -13.7574   20.5366 C   0  0  0  0  0  0  0  0  0  0  0  0
  -22.8520  -13.4750   21.3552 C   0  0  0  0  0  0  0  0  0  0  0  0
  -27.7594  -26.7073   13.5959 C   0  0  0  0  0  0  0  0  0  0  0  0
  -26.4102  -24.2192   12.0111 C   0  0  0  0  0  0  0  0  0  0  0  0
  -25.8685  -20.8550   11.8239 C   0  0  0  0  0  0  0  0  0  0  0  0
  -30.6788  -14.7951   20.7426 C   0  0  0  0  0  0  0  0  0  0  0  0
  -28.9511  -31.5699   12.5999 C   0  0  0  0  0  0  0  0  0  0  0  0
  -29.7229  -25.1458   13.3456 C   0  0  0  0  0  0  0  0  0  0  0  0
  -27.3134  -23.7326   14.3161 C   0  0  0  0  0  0  0  0  0  0  0  0
  -27.9339  -30.5640   12.0672 C   0  0  0  0  0  0  0  0  0  0  0  0
  -29.5122  -12.5277   18.2146 C   0  0  0  0  0  0  0  0  0  0  0  0
  -27.1968  -29.8891   13.2196 C   0  0  0  0  0  0  0  0  0  0  0  0
  -28.0940  -12.1857   18.6717 C   0  0  0  0  0  0  0  0  0  0  0  0
  -30.4536  -12.7124   19.4009 C   0  0  0  0  0  0  0  0  0  0  0  0
  -28.5628  -13.3789   20.8571 C   0  0  0  0  0  0  0  0  0  0  0  0
  -30.7382  -16.4083   22.6287 C   0  0  0  0  0  0  0  0  0  0  0  0
  -28.1674  -29.1067   14.1125 C   0  0  1  0  0  0  0  0  0  0  0  0
  -28.3241  -25.5212   12.8664 C   0  0  1  0  0  0  0  0  0  0  0  0
  -27.5753  -13.2188   19.6883 C   0  0  2  0  0  0  0  0  0  0  0  0
  -30.0148  -17.0541   21.5097 C   0  0  2  0  0  0  0  0  0  0  0  0
  -29.7101  -22.3063   23.6275 C   0  0  0  0  0  0  0  0  0  0  0  0
  -29.4363  -19.4504   23.9847 C   0  0  0  0  0  0  0  0  0  0  0  0
  -29.2786  -23.4855   21.0232 C   0  0  0  0  0  0  0  0  0  0  0  0
  -28.2996  -18.9523   19.1332 C   0  0  0  0  0  0  0  0  0  0  0  0
  -24.6963  -19.1226   10.4375 C   0  0  0  0  0  0  0  0  0  0  0  0
  -23.7410  -25.0505   13.2335 C   0  0  0  0  0  0  0  0  0  0  0  0
  -22.8343  -22.8018   12.6097 C   0  0  0  0  0  0  0  0  0  0  0  0
  -23.6199  -24.3650   10.8315 C   0  0  0  0  0  0  0  0  0  0  0  0
  -28.4111  -19.4866   11.1747 C   0  0  0  0  0  0  0  0  0  0  0  0
  -28.7329  -17.7733   21.7372 C   0  0  0  0  0  0  0  0  0  0  0  0
  -28.5716  -21.8101   18.7724 C   0  0  0  0  0  0  0  0  0  1  0  0
  -25.3178  -23.2232   12.3167 C   0  0  1  0  0  0  0  0  0  0  0  0
  -25.9962  -19.8768   10.6701 C   0  0  2  0  0  0  0  0  0  0  0  0
  -23.9014  -23.8623   12.2643 C   0  0  0  0  0  0  0  0  0  0  0  0
  -25.8171  -11.5910   20.2723 N   0  0  0  0  0  0  0  0  0  0  0  0
  -26.1774  -12.8819   20.1728 N   0  0  0  0  0  0  0  0  0  0  0  0
  -27.3618  -24.4281   13.0194 N   0  0  0  0  0  0  0  0  0  0  0  0
  -29.9112  -13.6801   20.3545 N   0  0  0  0  0  0  0  0  0  0  0  0
  -30.0306  -15.6298   21.6516 N   0  0  0  0  0  0  0  0  0  0  0  0
  -25.3912  -15.0927   20.4968 N   0  0  0  0  0  0  0  0  0  0  0  0
  -21.8566  -12.5452   21.6856 N   0  0  0  0  0  0  0  0  0  0  0  0
  -28.5273  -27.8512   13.4893 N   0  0  0  0  0  0  0  0  0  0  0  0
  -25.5069  -22.1127   11.3896 N   0  0  0  0  0  0  0  0  0  0  0  0
  -27.0720  -18.8841   10.9493 N   0  3  0  0  0  0  0  0  0  0  0  0
  -22.6033  -14.7007   21.4511 O   0  0  0  0  0  0  0  0  0  0  0  0
  -26.7045  -26.5934   14.2089 O   0  0  0  0  0  0  0  0  0  0  0  0
  -26.4230  -24.7856   10.9153 O   0  0  0  0  0  0  0  0  0  0  0  0
  -26.0658  -20.5344   12.9939 O   0  0  0  0  0  0  0  0  0  0  0  0
  -31.8158  -15.0165   20.3170 O   0  0  0  0  0  0  0  0  0  0  0  0
  -21.6467   -6.9784   21.6437 O   0  0  0  0  0  0  0  0  0  0  0  0
  -29.7898  -22.4881   18.3480 O   0  0  0  0  0  0  0  0  0  1  0  0
  -24.1754   -2.8761   24.3235 F   0  0  0  0  0  0  0  0  0  0  0  0
  -20.6555   -6.0285   24.0433 F   0  0  0  0  0  0  0  0  0  0  0  0
  1  2  1  0  0  0  0
  1  5  2  0  0  0  0
  2  6  2  0  0  0  0
  3  8  2  0  0  0  0
  3 15  1  0  0  0  0
  4  9  1  0  0  0  0
  4 15  2  0  0  0  0
  5 17  1  0  0  0  0
  6 19  1  0  0  0  0
  7 10  2  0  0  0  0
  7 18  1  0  0  0  0
  8 27  1  0  0  0  0
  9 27  2  0  0  0  0
 10 28  1  0  0  0  0
 11 12  2  0  0  0  0
 11 29  1  0  0  0  0
 12 30  1  0  0  0  0
 13 20  1  0  0  0  0
 13 28  2  0  0  0  0
 14 30  2  0  0  0  0
 14 31  1  0  0  0  0
 15 32  1  0  0  0  0
 16 32  1  0  0  0  0
 16 33  2  0  0  0  0
 16 34  1  0  0  0  0
 17 19  2  0  0  0  0
 17 39  1  0  0  0  0
 18 20  2  0  0  0  0
 18 40  1  0  0  0  0
 19 49  1  0  0  0  0
 20 41  1  0  0  0  0
 21 22  1  0  0  0  0
 21 23  2  0  0  0  0
 21 53  1  0  0  0  0
 22 25  2  0  0  0  0
 22 54  1  0  0  0  0
 23 26  1  0  0  0  0
 23 55  1  0  0  0  0
 24 25  1  0  0  0  0
 24 26  2  0  0  0  0
 24 56  1  0  0  0  0
 25 62  1  0  0  0  0
 26 63  1  0  0  0  0
 27 82  1  0  0  0  0
 28 83  1  0  0  0  0
 29 31  2  0  0  0  0
 29 82  1  0  0  0  0
 30 84  1  0  0  0  0
 31 85  1  0  0  0  0
 32 67  2  0  0  0  0
 33 68  1  0  0  0  0
 33 72  1  0  0  0  0
 34 73  1  0  0  0  0
 34 77  2  0  0  0  0
 35 50  1  0  0  0  0
 35 74  1  0  0  0  0
 35 78  2  0  0  0  0
 36 64  1  0  0  0  0
 36 69  1  0  0  0  0
 36 79  2  0  0  0  0
 37 65  1  0  0  0  0
 37 75  1  0  0  0  0
 37 80  2  0  0  0  0
 38 70  1  0  0  0  0
 38 71  1  0  0  0  0
 38 81  2  0  0  0  0
 39 42  1  0  0  0  0
 40 50  1  0  0  0  0
 41 69  1  0  0  0  0
 42 44  1  0  0  0  0
 43 45  1  0  0  0  0
 43 46  1  0  0  0  0
 44 49  1  0  0  0  0
 45 51  1  0  0  0  0
 46 70  1  0  0  0  0
 47 51  1  0  0  0  0
 47 70  1  0  0  0  0
 48 52  1  0  0  0  0
 48 71  1  0  0  0  0
 49 74  1  0  0  0  0
 50 69  1  0  0  0  0
 51 68  1  0  0  0  0
 52 62  1  0  0  0  0
 52 71  1  0  0  0  0
 57 65  1  0  0  0  0
 58 66  1  0  0  0  0
 59 66  1  0  0  0  0
 60 66  1  0  0  0  0
 61 76  1  0  0  0  0
 63 83  1  0  0  0  0
 64 66  1  0  0  0  0
 64 75  1  0  0  0  0
 65 76  1  0  0  0  0
 67 68  1  0  0  0  0
M  CHG  1  76   1
M  ISO  4  38 100  63 101  71 100  83 101
M  END
> <Batch ID>
0167

> <Smiles>
CNC(C)C(=O)NC(C(=O)N1Cc2cc([101O:1][101CH2:1]c3c(C)c(C)c(C)c(CC4C[100N:0]4[100C:0](=O)N4CCCC(n5nc(-c6ccc(Oc7ccc(F)cc7F)cc6)c(C(N)=O)c5N)C4)c3C)ccc2CC1C(=O)NC1CCCc2ccccc21)C(C)(C)C

> <Shape>
0.239

> <Color>
0.213

> <Negative vol penalty>
0.000

$$$$

  -OEChem-04052322273D

 88 97  0     1  0  0  0  0  0999 V2000
  -23.1555  -37.5906   22.3942 C   0  0  0  0  0  0  0  0  0  0  0  0
  -23.9991  -36.8807   21.5458 C   0  0  0  0  0  0  0  0  0  0  0  0
  -23.4793  -10.5494   22.1055 C   0  0  0  0  0  0  0  0  0  0  0  0
  -24.6030   -8.8813   20.7668 C   0  0  0  0  0  0  0  0  0  0  0  0
  -22.7391  -37.0220   23.5972 C   0  0  0  0  0  0  0  0  0  0  0  0
  -24.4277  -35.6021   21.9004 C   0  0  0  0  0  0  0  0  0  0  0  0
  -26.1694  -29.2912   18.9925 C   0  0  0  0  0  0  0  0  0  0  0  0
  -22.3334   -9.7546   22.1339 C   0  0  0  0  0  0  0  0  0  0  0  0
  -23.4571   -8.0865   20.7953 C   0  0  0  0  0  0  0  0  0  0  0  0
  -27.1993  -28.3515   18.9956 C   0  0  0  0  0  0  0  0  0  0  0  0
  -20.9479   -5.4557   20.8183 C   0  0  0  0  0  0  0  0  0  0  0  0
  -21.1085   -4.0937   21.0731 C   0  0  0  0  0  0  0  0  0  0  0  0
  -26.3520  -27.4385   21.0614 C   0  0  0  0  0  0  0  0  0  0  0  0
  -32.1795  -24.5483   20.2084 C   0  0  0  0  0  0  0  0  0  0  0  0
  -22.1036   -4.6115   23.2130 C   0  0  0  0  0  0  0  0  0  0  0  0
  -24.6141  -10.1128   21.4219 C   0  0  0  0  0  0  0  0  0  0  0  0
  -26.8667  -10.9181   22.3079 C   0  0  0  0  0  0  0  0  0  0  0  0
  -23.1550  -35.7319   23.9622 C   0  0  0  0  0  0  0  0  0  0  0  0
  -25.2278  -29.3187   20.0314 C   0  0  0  0  0  0  0  0  0  0  0  0
  -24.0175  -35.0161   23.1100 C   0  0  0  0  0  0  0  0  0  0  0  0
  -25.3096  -28.3779   21.0679 C   0  0  0  0  0  0  0  0  0  0  0  0
  -31.2417  -25.5700   20.0590 C   0  0  0  0  0  0  0  0  0  0  0  0
  -32.1013  -23.4075   19.4095 C   0  0  0  0  0  0  0  0  0  0  0  0
  -30.1476  -24.3102   18.3117 C   0  0  0  0  0  0  0  0  0  0  0  0
  -30.2258  -25.4510   19.1106 C   0  0  0  0  0  0  0  0  0  0  0  0
  -31.0854  -23.2885   18.4611 C   0  0  0  0  0  0  0  0  0  0  0  0
  -22.3223   -8.5232   21.4788 C   0  0  0  0  0  0  0  0  0  0  0  0
  -27.2924  -27.4268   20.0316 C   0  0  0  0  0  0  0  0  0  0  0  0
  -21.3652   -6.3956   21.7607 C   0  0  0  0  0  0  0  0  0  0  0  0
  -21.6863   -3.6717   22.2705 C   0  0  0  0  0  0  0  0  0  0  0  0
  -21.9430   -5.9735   22.9581 C   0  0  0  0  0  0  0  0  0  0  0  0
  -25.7980  -10.9336   21.3917 C   0  0  0  0  0  0  0  0  0  0  0  0
  -27.7334  -11.8757   21.8406 C   0  0  0  0  0  0  0  0  0  0  0  0
  -27.0590  -10.1102   23.4767 C   0  0  0  0  0  0  0  0  0  0  0  0
  -24.3856  -31.4440   22.2398 C   0  0  0  0  0  0  0  0  0  0  0  0
  -22.0664  -29.2706   22.8881 C   0  0  0  0  0  0  0  0  0  0  0  0
  -21.0170  -26.0261   22.7531 C   0  0  0  0  0  0  0  0  0  0  0  0
  -28.8761  -16.7323   19.8606 C   0  0  0  0  0  0  0  0  0  0  0  0
  -22.7167  -35.1777   25.2947 C   0  0  0  0  0  0  0  0  0  0  0  0
  -24.1073  -30.3216   19.9996 C   0  0  0  0  0  0  0  0  0  0  0  0
  -24.3121  -28.3522   22.1961 C   0  0  0  0  0  0  0  0  0  0  0  0
  -22.9147  -33.6694   25.4219 C   0  0  0  0  0  0  0  0  0  0  0  0
  -27.8257  -14.3939   17.4626 C   0  0  0  0  0  0  0  0  0  0  0  0
  -24.3025  -33.2699   24.9308 C   0  0  0  0  0  0  0  0  0  0  0  0
  -27.2848  -13.2723   18.3491 C   0  0  0  0  0  0  0  0  0  0  0  0
  -30.8562  -19.0243   17.7221 C   0  0  0  0  0  0  0  0  0  0  0  0
  -28.3933  -19.5041   17.3852 C   0  0  0  0  0  0  0  0  0  0  0  0
  -27.4506  -15.7775   17.9962 C   0  0  0  0  0  0  0  0  0  0  0  0
  -30.5229  -18.3907   19.0719 C   0  0  0  0  0  0  0  0  0  0  0  0
  -28.1170  -18.8634   18.7434 C   0  0  0  0  0  0  0  0  0  0  0  0
  -27.2908  -14.8791   20.2949 C   0  0  0  0  0  0  0  0  0  0  0  0
  -24.4840  -33.6168   23.4481 C   0  0  1  0  0  0  0  0  0  0  0  0
  -23.5042  -30.5875   21.3754 C   0  0  1  0  0  0  0  0  0  0  0  0
  -27.7016  -13.4779   19.8163 C   0  0  1  0  0  0  0  0  0  0  0  0
  -29.8165  -20.0553   17.2816 C   0  0  0  0  0  0  0  0  0  0  0  0
  -31.3474  -26.7809   20.9272 C   0  0  0  0  0  0  0  0  0  0  0  0
  -33.1185  -22.3282   19.5893 C   0  0  0  0  0  0  0  0  0  0  0  0
  -29.0577  -24.1827   17.2943 C   0  0  0  0  0  0  0  0  0  0  0  0
  -19.0925  -24.5497   23.3969 C   0  0  0  0  0  0  0  0  0  0  0  0
  -22.9907  -29.3375   25.7952 C   0  0  0  0  0  0  0  0  0  0  0  0
  -21.7213  -27.2132   26.1748 C   0  0  0  0  0  0  0  0  0  0  0  0
  -20.5091  -29.2832   25.4905 C   0  0  0  0  0  0  0  0  0  0  0  0
  -20.4967  -25.2797   19.9369 C   0  0  0  0  0  0  0  0  0  0  0  0
  -29.2212  -26.5481   18.9528 C   0  0  0  0  0  0  0  0  0  1  0  0
  -31.0042  -22.0610   17.6019 C   0  0  0  0  0  0  0  0  0  0  0  0
  -21.9480  -28.0734   23.8000 C   0  0  1  0  0  0  0  0  0  0  0  0
  -19.7050  -25.4097   22.3023 C   0  0  2  0  0  0  0  0  0  0  0  0
  -21.8123  -28.4783   25.2950 C   0  0  0  0  0  0  0  0  0  0  0  0
  -25.9679  -11.8301   20.4163 N   0  0  0  0  0  0  0  0  0  0  0  0
  -27.1535  -12.3869   20.7170 N   0  0  0  0  0  0  0  0  0  0  0  0
  -23.2385  -29.3570   22.1234 N   0  0  0  0  0  0  0  0  0  0  0  0
  -27.8319  -15.9115   19.4085 N   0  0  0  0  0  0  0  0  0  0  0  0
  -29.1512  -17.8844   19.1045 N   0  0  0  0  0  0  0  0  0  0  0  0
  -28.9273  -12.3220   22.2854 N   0  0  0  0  0  0  0  0  0  0  0  0
  -26.0702   -9.1754   23.8128 N   0  0  0  0  0  0  0  0  0  0  0  0
  -23.8110  -32.6433   22.6152 N   0  0  0  0  0  0  0  0  0  0  0  0
  -20.8328  -27.2819   23.2918 N   0  0  0  0  0  0  0  0  0  0  0  0
  -19.9198  -24.5566   21.0993 N   0  3  0  0  0  0  0  0  0  0  0  0
  -28.0696  -10.2256   24.2107 O   0  0  0  0  0  0  0  0  0  0  0  0
  -25.5036  -31.0456   22.5448 O   0  0  0  0  0  0  0  0  0  0  0  0
  -21.1495  -30.0950   22.8501 O   0  0  0  0  0  0  0  0  0  0  0  0
  -22.0967  -25.4495   22.6422 O   0  0  0  0  0  0  0  0  0  0  0  0
  -29.5268  -16.4535   20.8754 O   0  0  0  0  0  0  0  0  0  0  0  0
  -21.2043   -7.7473   21.5066 O   0  0  0  0  0  0  0  0  0  0  0  0
  -28.3044  -26.5021   20.0373 O   0  0  0  0  0  0  0  0  0  1  0  0
  -29.9405  -21.2407   18.0645 O   0  0  0  0  0  0  0  0  0  0  0  0
  -21.8391   -2.3637   22.5157 F   0  0  0  0  0  0  0  0  0  0  0  0
  -22.3448   -6.8717   23.8678 F   0  0  0  0  0  0  0  0  0  0  0  0
  1  2  1  0  0  0  0
  1  5  2  0  0  0  0
  2  6  2  0  0  0  0
  3  8  2  0  0  0  0
  3 16  1  0  0  0  0
  4  9  1  0  0  0  0
  4 16  2  0  0  0  0
  5 18  1  0  0  0  0
  6 20  1  0  0  0  0
  7 10  2  0  0  0  0
  7 19  1  0  0  0  0
  8 27  1  0  0  0  0
  9 27  2  0  0  0  0
 10 28  1  0  0  0  0
 11 12  2  0  0  0  0
 11 29  1  0  0  0  0
 12 30  1  0  0  0  0
 13 21  1  0  0  0  0
 13 28  2  0  0  0  0
 14 22  2  0  0  0  0
 14 23  1  0  0  0  0
 15 30  2  0  0  0  0
 15 31  1  0  0  0  0
 16 32  1  0  0  0  0
 17 32  1  0  0  0  0
 17 33  2  0  0  0  0
 17 34  1  0  0  0  0
 18 20  2  0  0  0  0
 18 39  1  0  0  0  0
 19 21  2  0  0  0  0
 19 40  1  0  0  0  0
 20 52  1  0  0  0  0
 21 41  1  0  0  0  0
 22 25  1  0  0  0  0
 22 56  1  0  0  0  0
 23 26  2  0  0  0  0
 23 57  1  0  0  0  0
 24 25  2  0  0  0  0
 24 26  1  0  0  0  0
 24 58  1  0  0  0  0
 25 64  1  0  0  0  0
 26 65  1  0  0  0  0
 27 84  1  0  0  0  0
 28 85  1  0  0  0  0
 29 31  2  0  0  0  0
 29 84  1  0  0  0  0
 30 87  1  0  0  0  0
 31 88  1  0  0  0  0
 32 69  2  0  0  0  0
 33 70  1  0  0  0  0
 33 74  1  0  0  0  0
 34 75  1  0  0  0  0
 34 79  2  0  0  0  0
 35 53  1  0  0  0  0
 35 76  1  0  0  0  0
 35 80  2  0  0  0  0
 36 66  1  0  0  0  0
 36 71  1  0  0  0  0
 36 81  2  0  0  0  0
 37 67  1  0  0  0  0
 37 77  1  0  0  0  0
 37 82  2  0  0  0  0
 38 72  1  0  0  0  0
 38 73  1  0  0  0  0
 38 83  2  0  0  0  0
 39 42  1  0  0  0  0
 40 53  1  0  0  0  0
 41 71  1  0  0  0  0
 42 44  1  0  0  0  0
 43 45  1  0  0  0  0
 43 48  1  0  0  0  0
 44 52  1  0  0  0  0
 45 54  1  0  0  0  0
 46 49  1  0  0  0  0
 46 55  1  0  0  0  0
 47 50  1  0  0  0  0
 47 55  1  0  0  0  0
 48 72  1  0  0  0  0
 49 73  1  0  0  0  0
 50 73  1  0  0  0  0
 51 54  1  0  0  0  0
 51 72  1  0  0  0  0
 52 76  1  0  0  0  0
 53 71  1  0  0  0  0
 54 70  1  0  0  0  0
 55 86  1  0  0  0  0
 59 67  1  0  0  0  0
 60 68  1  0  0  0  0
 61 68  1  0  0  0  0
 62 68  1  0  0  0  0
 63 78  1  0  0  0  0
 64 85  1  0  0  0  0
 65 86  1  0  0  0  0
 66 68  1  0  0  0  0
 66 77  1  0  0  0  0
 67 78  1  0  0  0  0
 69 70  1  0  0  0  0
M  CHG  1  78   1
M  ISO  4  38 100  64 101  73 100  85 101
M  END
> <Batch ID>
0167

> <Smiles>
CNC(C)C(=O)NC(C(=O)N1Cc2cc([101O:1][101CH2:1]c3c(C)cc(C)c(COC4CC[100N:0]([100C:0](=O)N5CCCC(n6nc(-c7ccc(Oc8ccc(F)cc8F)cc7)c(C(N)=O)c6N)C5)CC4)c3C)ccc2CC1C(=O)NC1CCCc2ccccc21)C(C)(C)C

> <Shape>
0.327

> <Color>
0.094

> <Negative vol penalty>
0.000

$$$$

  -OEChem-04052322273D

 83 92  0     1  0  0  0  0  0999 V2000
  -26.2799  -25.1551   11.8690 C   0  0  0  0  0  0  0  0  0  0  0  0
  -25.6844  -26.2399   12.5046 C   0  0  0  0  0  0  0  0  0  0  0  0
  -26.8682  -18.2280   18.9950 C   0  0  0  0  0  0  0  0  0  0  0  0
  -26.7832  -18.3408   21.4069 C   0  0  0  0  0  0  0  0  0  0  0  0
  -26.5041  -23.9730   12.5734 C   0  0  0  0  0  0  0  0  0  0  0  0
  -25.3117  -26.1428   13.8448 C   0  0  0  0  0  0  0  0  0  0  0  0
  -24.7418  -30.1095   19.7825 C   0  0  0  0  0  0  0  0  0  0  0  0
  -28.2534  -18.0748   19.0510 C   0  0  0  0  0  0  0  0  0  0  0  0
  -28.1685  -18.1877   21.4629 C   0  0  0  0  0  0  0  0  0  0  0  0
  -23.8196  -30.4344   20.7764 C   0  0  0  0  0  0  0  0  0  0  0  0
  -30.4063  -15.6677   21.2132 C   0  0  0  0  0  0  0  0  0  0  0  0
  -30.9202  -14.7691   22.1481 C   0  0  0  0  0  0  0  0  0  0  0  0
  -24.3281  -28.3693   21.9149 C   0  0  0  0  0  0  0  0  0  0  0  0
  -32.1554  -16.5632   23.1934 C   0  0  0  0  0  0  0  0  0  0  0  0
  -20.3210  -27.9026   24.0545 C   0  0  0  0  0  0  0  0  0  0  0  0
  -26.1330  -18.3610   20.1730 C   0  0  0  0  0  0  0  0  0  0  0  0
  -23.7323  -17.4994   20.1296 C   0  0  0  0  0  0  0  0  0  0  0  0
  -26.1428  -23.8646   13.9255 C   0  0  0  0  0  0  0  0  0  0  0  0
  -25.4573  -28.9050   19.8418 C   0  0  0  0  0  0  0  0  0  0  0  0
  -25.5301  -24.9576   14.5675 C   0  0  0  0  0  0  0  0  0  0  0  0
  -25.2607  -28.0327   20.9219 C   0  0  0  0  0  0  0  0  0  0  0  0
  -20.0043  -28.8356   23.0883 C   0  0  0  0  0  0  0  0  0  0  0  0
  -28.9036  -18.0547   20.2849 C   0  0  0  0  0  0  0  0  0  0  0  0
  -23.6105  -29.5629   21.8413 C   0  0  0  0  0  0  0  0  0  0  0  0
  -30.7670  -17.0140   21.2683 C   0  0  0  0  0  0  0  0  0  0  0  0
  -31.7947  -15.2169   23.1382 C   0  0  0  0  0  0  0  0  0  0  0  0
  -31.6415  -17.4618   22.2584 C   0  0  0  0  0  0  0  0  0  0  0  0
  -24.7021  -18.5198   20.1158 C   0  0  0  0  0  0  0  0  0  0  0  0
  -19.3397  -28.3473   21.9819 C   0  0  0  0  0  0  0  0  0  0  0  0
  -22.5329  -18.1647   20.0571 C   0  0  0  0  0  0  0  0  0  0  0  0
  -19.3684  -26.2394   22.8324 C   0  0  0  0  0  0  0  0  0  0  0  0
  -23.9006  -16.0774   20.2016 C   0  0  0  0  0  0  0  0  0  0  0  0
  -25.6604  -26.3234   17.9984 C   0  0  0  0  0  0  0  0  0  0  0  0
  -27.9951  -25.4909   20.0908 C   0  0  0  0  0  0  0  0  0  0  0  0
  -29.3379  -25.8122   23.2118 C   0  0  0  0  0  0  0  0  0  0  0  0
  -20.9522  -23.6136   21.6897 C   0  0  0  0  0  0  0  0  0  0  0  0
  -26.3620  -22.5504   14.6324 C   0  0  0  0  0  0  0  0  0  0  0  0
  -26.4680  -28.5816   18.7758 C   0  0  0  0  0  0  0  0  0  0  0  0
  -26.0183  -26.7366   21.0426 C   0  0  0  0  0  0  0  0  0  0  0  0
  -26.2793  -22.6555   16.1530 C   0  0  0  0  0  0  0  0  0  0  0  0
  -20.5851  -22.2013   18.3779 C   0  0  0  0  0  0  0  0  0  0  0  0
  -25.0549  -23.4660   16.5663 C   0  0  0  0  0  0  0  0  0  0  0  0
  -21.5173  -20.9910   18.4583 C   0  0  0  0  0  0  0  0  0  0  0  0
  -18.7468  -24.0076   23.9591 C   0  0  0  0  0  0  0  0  0  0  0  0
  -17.6057  -24.3753   23.0674 C   0  0  0  0  0  0  0  0  0  0  0  0
  -21.1585  -23.3923   19.1399 C   0  0  0  0  0  0  0  0  0  0  0  0
  -22.4138  -21.9033   20.6501 C   0  0  0  0  0  0  0  0  0  0  0  0
  -25.1344  -24.8993   16.0271 C   0  0  1  0  0  0  0  0  0  0  0  0
  -26.7661  -27.0893   18.6680 C   0  0  1  0  0  0  0  0  0  0  0  0
  -21.8796  -20.6588   19.9180 C   0  0  2  0  0  0  0  0  0  0  0  0
  -19.0143  -24.7968   22.6905 C   0  0  0  0  0  0  0  0  0  0  0  0
  -18.9433  -29.2660   20.8732 C   0  0  0  0  0  0  0  0  0  0  0  0
  -31.2254  -24.9779   24.6396 C   0  0  0  0  0  0  0  0  0  0  0  0
  -26.5217  -22.8491   20.4905 C   0  0  0  0  0  0  0  0  0  0  0  0
  -27.8788  -22.4860   22.5629 C   0  0  0  0  0  0  0  0  0  0  0  0
  -29.0099  -22.6442   20.3452 C   0  0  0  0  0  0  0  0  0  0  0  0
  -30.4601  -28.5332   23.5215 C   0  0  0  0  0  0  0  0  0  0  0  0
  -20.3726  -30.2898   23.2554 C   0  0  0  0  0  0  0  0  0  0  0  0
  -21.5933  -30.6776   22.4280 C   0  0  0  0  0  0  0  0  0  1  0  0
  -28.0413  -24.7307   21.3942 C   0  0  1  0  0  0  0  0  0  0  0  0
  -30.7624  -26.0586   23.6750 C   0  0  2  0  0  0  0  0  0  0  0  0
  -27.8471  -23.2010   21.1952 C   0  0  0  0  0  0  0  0  0  0  0  0
  -20.0171  -26.5916   23.9587 N   0  0  0  0  0  0  0  0  0  0  0  0
  -24.1651  -19.7405   20.0403 N   0  0  0  0  0  0  0  0  0  0  0  0
  -19.0049  -27.0503   21.8205 N   0  0  0  0  0  0  0  0  0  0  0  0
  -22.8450  -19.4914   20.0059 N   0  0  0  0  0  0  0  0  0  0  0  0
  -26.9910  -26.4622   19.9720 N   0  0  0  0  0  0  0  0  0  0  0  0
  -21.4644  -23.0145   20.5269 N   0  0  0  0  0  0  0  0  0  0  0  0
  -21.2522  -17.7384   20.0326 N   0  0  0  0  0  0  0  0  0  0  0  0
  -25.2019  -15.5613   20.2709 N   0  0  0  0  0  0  0  0  0  0  0  0
  -26.0410  -25.6918   16.8298 N   0  0  0  0  0  0  0  0  0  0  0  0
  -29.3004  -25.0949   22.0348 N   0  0  0  0  0  0  0  0  0  0  0  0
  -19.6764  -24.1528   21.5780 N   0  0  0  0  0  0  0  0  0  0  0  0
  -30.8628  -27.3768   24.3627 N   0  3  0  0  0  0  0  0  0  0  0  0
  -22.9266  -15.2870   20.1880 O   0  0  0  0  0  0  0  0  0  0  0  0
  -24.5448  -26.3056   18.5052 O   0  0  0  0  0  0  0  0  0  0  0  0
  -28.8241  -25.2375   19.2132 O   0  0  0  0  0  0  0  0  0  0  0  0
  -28.3565  -26.2126   23.8339 O   0  0  0  0  0  0  0  0  0  0  0  0
  -21.5831  -23.6600   22.7512 O   0  0  0  0  0  0  0  0  0  0  0  0
  -30.2553  -17.9050   20.3398 O   0  0  0  0  0  0  0  0  0  0  0  0
  -22.7105  -29.8773   22.8123 O   0  0  0  0  0  0  0  0  0  1  0  0
  -32.2869  -14.3542   24.0369 F   0  0  0  0  0  0  0  0  0  0  0  0
  -31.9907  -18.7542   22.3172 F   0  0  0  0  0  0  0  0  0  0  0  0
  1  2  1  0  0  0  0
  1  5  2  0  0  0  0
  2  6  2  0  0  0  0
  3  8  2  0  0  0  0
  3 16  1  0  0  0  0
  4  9  1  0  0  0  0
  4 16  2  0  0  0  0
  5 18  1  0  0  0  0
  6 20  1  0  0  0  0
  7 10  2  0  0  0  0
  7 19  1  0  0  0  0
  8 23  1  0  0  0  0
  9 23  2  0  0  0  0
 10 24  1  0  0  0  0
 11 12  2  0  0  0  0
 11 25  1  0  0  0  0
 12 26  1  0  0  0  0
 13 21  1  0  0  0  0
 13 24  2  0  0  0  0
 14 26  2  0  0  0  0
 14 27  1  0  0  0  0
 15 22  1  0  0  0  0
 15 63  2  0  0  0  0
 16 28  1  0  0  0  0
 17 28  1  0  0  0  0
 17 30  2  0  0  0  0
 17 32  1  0  0  0  0
 18 20  2  0  0  0  0
 18 37  1  0  0  0  0
 19 21  2  0  0  0  0
 19 38  1  0  0  0  0
 20 48  1  0  0  0  0
 21 39  1  0  0  0  0
 22 29  2  0  0  0  0
 22 58  1  0  0  0  0
 23 80  1  0  0  0  0
 24 81  1  0  0  0  0
 25 27  2  0  0  0  0
 25 80  1  0  0  0  0
 26 82  1  0  0  0  0
 27 83  1  0  0  0  0
 28 64  2  0  0  0  0
 29 52  1  0  0  0  0
 29 65  1  0  0  0  0
 30 66  1  0  0  0  0
 30 69  1  0  0  0  0
 31 51  1  0  0  0  0
 31 63  1  0  0  0  0
 31 65  2  0  0  0  0
 32 70  1  0  0  0  0
 32 75  2  0  0  0  0
 33 49  1  0  0  0  0
 33 71  1  0  0  0  0
 33 76  2  0  0  0  0
 34 60  1  0  0  0  0
 34 67  1  0  0  0  0
 34 77  2  0  0  0  0
 35 61  1  0  0  0  0
 35 72  1  0  0  0  0
 35 78  2  0  0  0  0
 36 68  1  0  0  0  0
 36 73  1  0  0  0  0
 36 79  2  0  0  0  0
 37 40  1  0  0  0  0
 38 49  1  0  0  0  0
 39 67  1  0  0  0  0
 40 42  1  0  0  0  0
 41 43  1  0  0  0  0
 41 46  1  0  0  0  0
 42 48  1  0  0  0  0
 43 50  1  0  0  0  0
 44 45  1  0  0  0  0
 44 51  1  0  0  0  0
 45 51  1  0  0  0  0
 46 68  1  0  0  0  0
 47 50  1  0  0  0  0
 47 68  1  0  0  0  0
 48 71  1  0  0  0  0
 49 67  1  0  0  0  0
 50 66  1  0  0  0  0
 51 73  1  0  0  0  0
 53 61  1  0  0  0  0
 54 62  1  0  0  0  0
 55 62  1  0  0  0  0
 56 62  1  0  0  0  0
 57 74  1  0  0  0  0
 58 59  1  0  0  0  0
 59 81  1  0  0  0  0
 60 62  1  0  0  0  0
 60 72  1  0  0  0  0
 61 74  1  0  0  0  0
 64 66  1  0  0  0  0
M  CHG  1  74   1
M  ISO  4  36 100  59 101  73 100  81 101
M  END
> <Batch ID>
0167

> <Smiles>
CNC(C)C(=O)NC(C(=O)N1Cc2cc([101O:1][101CH2:1]Cc3cnc(C4([100NH:0][100C:0](=O)N5CCCC(n6nc(-c7ccc(Oc8ccc(F)cc8F)cc7)c(C(N)=O)c6N)C5)CC4)nc3C)ccc2CC1C(=O)NC1CCCc2ccccc21)C(C)(C)C

> <Shape>
0.176

> <Color>
0.079

> <Negative vol penalty>
0.000

$$$$

  -OEChem-04052322273D

 85 94  0     1  0  0  0  0  0999 V2000
  -28.6553  -23.3883   17.9144 C   0  0  0  0  0  0  0  0  0  0  0  0
  -27.4401  -23.6422   18.5423 C   0  0  0  0  0  0  0  0  0  0  0  0
  -25.8475  -15.1352   19.3149 C   0  0  0  0  0  0  0  0  0  0  0  0
  -25.4796  -15.0520   21.7013 C   0  0  0  0  0  0  0  0  0  0  0  0
  -29.8174  -24.0090   18.3704 C   0  0  0  0  0  0  0  0  0  0  0  0
  -27.3866  -24.5162   19.6275 C   0  0  0  0  0  0  0  0  0  0  0  0
  -23.5002  -27.7490   19.3284 C   0  0  0  0  0  0  0  0  0  0  0  0
  -25.9076  -13.7422   19.2756 C   0  0  0  0  0  0  0  0  0  0  0  0
  -25.5397  -13.6589   21.6619 C   0  0  0  0  0  0  0  0  0  0  0  0
  -22.2389  -27.2615   19.6681 C   0  0  0  0  0  0  0  0  0  0  0  0
  -25.2364  -10.0669   22.1344 C   0  0  0  0  0  0  0  0  0  0  0  0
  -24.2703   -9.3550   22.8452 C   0  0  0  0  0  0  0  0  0  0  0  0
  -22.4384  -28.2800   21.8457 C   0  0  0  0  0  0  0  0  0  0  0  0
  -22.5342  -10.3879   21.5199 C   0  0  0  0  0  0  0  0  0  0  0  0
  -25.6335  -15.7901   20.5278 C   0  0  0  0  0  0  0  0  0  0  0  0
  -24.6616  -18.0608   19.8900 C   0  0  0  0  0  0  0  0  0  0  0  0
  -29.7765  -24.8986   19.4556 C   0  0  0  0  0  0  0  0  0  0  0  0
  -24.2459  -28.4976   20.2503 C   0  0  0  0  0  0  0  0  0  0  0  0
  -28.5495  -25.1484   20.0994 C   0  0  0  0  0  0  0  0  0  0  0  0
  -23.7078  -28.7780   21.5144 C   0  0  0  0  0  0  0  0  0  0  0  0
  -25.7537  -13.0041   20.4491 C   0  0  0  0  0  0  0  0  0  0  0  0
  -21.7090  -27.5245   20.9279 C   0  0  0  0  0  0  0  0  0  0  0  0
  -24.8515  -10.9393   21.1163 C   0  0  0  0  0  0  0  0  0  0  0  0
  -22.9192   -9.5155   22.5380 C   0  0  0  0  0  0  0  0  0  0  0  0
  -23.5004  -11.0998   20.8091 C   0  0  0  0  0  0  0  0  0  0  0  0
  -25.5719  -17.2290   20.5691 C   0  0  0  0  0  0  0  0  0  0  0  0
  -25.0196  -19.3346   20.2584 C   0  0  0  0  0  0  0  0  0  0  0  0
  -20.8051  -23.9617   23.0308 C   0  0  0  0  0  0  0  0  0  0  0  0
  -23.5882  -17.7131   19.0053 C   0  0  0  0  0  0  0  0  0  0  0  0
  -27.0485  -28.1204   21.7016 C   0  0  0  0  0  0  0  0  0  0  0  0
  -26.4527  -31.1205   22.7817 C   0  0  0  0  0  0  0  0  0  0  0  0
  -24.1530  -33.5366   23.5031 C   0  0  0  0  0  0  0  0  0  0  0  0
  -26.5810  -23.0672   23.9463 C   0  0  0  0  0  0  0  0  0  0  0  0
  -31.0667  -25.5092   19.9427 C   0  0  0  0  0  0  0  0  0  0  0  0
  -25.5936  -29.0389   19.8590 C   0  0  0  0  0  0  0  0  0  0  0  0
  -24.4594  -29.5940   22.5330 C   0  0  0  0  0  0  0  0  0  0  0  0
  -30.8630  -26.7109   20.8618 C   0  0  0  0  0  0  0  0  0  0  0  0
  -29.0955  -21.0456   22.7034 C   0  0  0  0  0  0  0  0  0  0  0  0
  -29.8035  -26.4037   21.9153 C   0  0  0  0  0  0  0  0  0  0  0  0
  -28.3405  -19.9337   21.9754 C   0  0  0  0  0  0  0  0  0  0  0  0
  -23.2893  -24.7518   24.1771 C   0  0  0  0  0  0  0  0  0  0  0  0
  -23.0039  -22.3164   24.7573 C   0  0  0  0  0  0  0  0  0  0  0  0
  -28.4108  -21.3999   24.0186 C   0  0  0  0  0  0  0  0  0  0  0  0
  -24.7713  -24.6417   24.5246 C   0  0  0  0  0  0  0  0  0  0  0  0
  -24.4889  -22.2537   25.0989 C   0  0  0  0  0  0  0  0  0  0  0  0
  -26.2103  -20.6931   23.1390 C   0  0  0  0  0  0  0  0  0  0  0  0
  -19.1087  -25.2356   24.0871 C   0  0  0  0  0  0  0  0  0  0  0  0
  -28.4468  -26.1094   21.2639 C   0  0  1  0  0  0  0  0  0  0  0  0
  -20.9810  -23.8036   24.5336 C   0  0  1  0  0  0  0  0  0  0  0  0
  -26.4819  -29.3545   21.0585 C   0  0  1  0  0  0  0  0  0  0  0  0
  -22.4467  -23.7326   24.9551 C   0  0  0  0  0  0  0  0  0  0  0  0
  -26.8565  -20.2996   21.7954 C   0  0  2  0  0  0  0  0  0  0  0  0
  -20.2464  -25.0340   25.0677 C   0  0  2  0  0  0  0  0  0  0  0  0
  -23.9647  -35.8698   24.4076 C   0  0  0  0  0  0  0  0  0  0  0  0
  -26.9112  -30.0601   25.6058 C   0  0  0  0  0  0  0  0  0  0  0  0
  -25.8030  -32.1253   26.4862 C   0  0  0  0  0  0  0  0  0  0  0  0
  -27.9087  -32.3100   25.1615 C   0  0  0  0  0  0  0  0  0  0  0  0
  -22.9627  -34.5406   20.9863 C   0  0  0  0  0  0  0  0  0  0  0  0
  -19.0926  -25.1034   21.5648 C   0  0  0  0  0  0  0  0  0  0  0  0
  -20.0646  -25.8289   20.6515 C   0  0  0  0  0  0  0  0  0  1  0  0
  -25.7540  -31.7041   23.9859 C   0  0  1  0  0  0  0  0  0  0  0  0
  -24.1022  -35.0141   23.1580 C   0  0  2  0  0  0  0  0  0  0  0  0
  -26.5806  -31.5328   25.2916 C   0  0  0  0  0  0  0  0  0  0  0  0
  -26.4429  -17.9166   21.3125 N   0  0  0  0  0  0  0  0  0  0  0  0
  -26.0815  -19.1939   21.1027 N   0  0  0  0  0  0  0  0  0  0  0  0
  -19.6917  -24.7835   22.8423 N   0  0  0  0  0  0  0  0  0  0  0  0
  -25.7758  -30.0958   22.1054 N   0  0  0  0  0  0  0  0  0  0  0  0
  -27.0033  -21.7366   23.8059 N   0  0  0  0  0  0  0  0  0  0  0  0
  -25.2571  -23.2713   24.3693 N   0  0  0  0  0  0  0  0  0  0  0  0
  -24.5266  -20.5501   19.9393 N   0  0  0  0  0  0  0  0  0  0  0  0
  -22.3171  -17.4904   19.5522 N   0  0  0  0  0  0  0  0  0  0  0  0
  -27.8072  -27.3399   20.8503 N   0  0  0  0  0  0  0  0  0  0  0  0
  -25.4495  -33.0906   23.6490 N   0  0  0  0  0  0  0  0  0  0  0  0
  -19.7379  -24.8088   26.4333 N   0  3  0  0  0  0  0  0  0  0  0  0
  -22.9437  -35.2977   22.2643 N   0  3  0  0  0  0  0  0  0  0  0  0
  -21.4906  -23.4184   22.1774 O   0  0  0  0  0  0  0  0  0  0  0  0
  -23.7551  -17.5870   17.7685 O   0  0  0  0  0  0  0  0  0  0  0  0
  -26.8160  -27.8938   22.8833 O   0  0  0  0  0  0  0  0  0  0  0  0
  -27.5552  -31.5626   22.4491 O   0  0  0  0  0  0  0  0  0  0  0  0
  -23.1434  -32.8481   23.6340 O   0  0  0  0  0  0  0  0  0  0  0  0
  -27.3368  -24.0167   23.7049 O   0  0  0  0  0  0  0  0  0  0  0  0
  -25.8120  -11.6448   20.4110 O   0  0  0  0  0  0  0  0  0  0  0  0
  -20.4698  -27.0460   21.2646 O   0  0  0  0  0  0  0  0  0  1  0  0
  -21.9915   -8.8306   23.2197 F   0  0  0  0  0  0  0  0  0  0  0  0
  -23.1246  -11.9356   19.8314 F   0  0  0  0  0  0  0  0  0  0  0  0
  1  2  1  0  0  0  0
  1  5  2  0  0  0  0
  2  6  2  0  0  0  0
  3  8  2  0  0  0  0
  3 15  1  0  0  0  0
  4  9  1  0  0  0  0
  4 15  2  0  0  0  0
  5 17  1  0  0  0  0
  6 19  1  0  0  0  0
  7 10  2  0  0  0  0
  7 18  1  0  0  0  0
  8 21  1  0  0  0  0
  9 21  2  0  0  0  0
 10 22  1  0  0  0  0
 11 12  2  0  0  0  0
 11 23  1  0  0  0  0
 12 24  1  0  0  0  0
 13 20  1  0  0  0  0
 13 22  2  0  0  0  0
 14 24  2  0  0  0  0
 14 25  1  0  0  0  0
 15 26  1  0  0  0  0
 16 26  1  0  0  0  0
 16 27  2  0  0  0  0
 16 29  1  0  0  0  0
 17 19  2  0  0  0  0
 17 34  1  0  0  0  0
 18 20  2  0  0  0  0
 18 35  1  0  0  0  0
 19 48  1  0  0  0  0
 20 36  1  0  0  0  0
 21 82  1  0  0  0  0
 22 83  1  0  0  0  0
 23 25  2  0  0  0  0
 23 82  1  0  0  0  0
 24 84  1  0  0  0  0
 25 85  1  0  0  0  0
 26 64  2  0  0  0  0
 27 65  1  0  0  0  0
 27 70  1  0  0  0  0
 28 49  1  0  0  0  0
 28 66  1  0  0  0  0
 28 76  2  0  0  0  0
 29 71  1  0  0  0  0
 29 77  2  0  0  0  0
 30 50  1  0  0  0  0
 30 72  1  0  0  0  0
 30 78  2  0  0  0  0
 31 61  1  0  0  0  0
 31 67  1  0  0  0  0
 31 79  2  0  0  0  0
 32 62  1  0  0  0  0
 32 73  1  0  0  0  0
 32 80  2  0  0  0  0
 33 68  1  0  0  0  0
 33 69  1  0  0  0  0
 33 81  2  0  0  0  0
 34 37  1  0  0  0  0
 35 50  1  0  0  0  0
 36 67  1  0  0  0  0
 37 39  1  0  0  0  0
 38 40  1  0  0  0  0
 38 43  1  0  0  0  0
 39 48  1  0  0  0  0
 40 52  1  0  0  0  0
 41 44  1  0  0  0  0
 41 51  1  0  0  0  0
 42 45  1  0  0  0  0
 42 51  1  0  0  0  0
 43 68  1  0  0  0  0
 44 69  1  0  0  0  0
 45 69  1  0  0  0  0
 46 52  1  0  0  0  0
 46 68  1  0  0  0  0
 47 53  1  0  0  0  0
 47 66  1  0  0  0  0
 48 72  1  0  0  0  0
 49 51  1  0  0  0  0
 49 53  1  0  0  0  0
 50 67  1  0  0  0  0
 52 65  1  0  0  0  0
 53 74  1  0  0  0  0
 54 62  1  0  0  0  0
 55 63  1  0  0  0  0
 56 63  1  0  0  0  0
 57 63  1  0  0  0  0
 58 75  1  0  0  0  0
 59 60  1  0  0  0  0
 59 66  1  0  0  0  0
 60 83  1  0  0  0  0
 61 63  1  0  0  0  0
 61 73  1  0  0  0  0
 62 75  1  0  0  0  0
 64 65  1  0  0  0  0
M  CHG  2  74   1  75   1
M  ISO  4  33 100  60 101  69 100  83 101
M  END
> <Batch ID>
0167

> <Smiles>
CNC(C)C(=O)NC(C(=O)N1Cc2cc([101O:1][101CH2:1]CN3CC(N)C(C4CC[100N:0]([100C:0](=O)N5CCCC(n6nc(-c7ccc(Oc8ccc(F)cc8F)cc7)c(C(N)=O)c6N)C5)CC4)C3=O)ccc2CC1C(=O)NC1CCCc2ccccc21)C(C)(C)C

> <Shape>
0.246

> <Color>
0.063

> <Negative vol penalty>
0.000

$$$$

  -OEChem-04052322273D

 91101  0     1  0  0  0  0  0999 V2000
  -28.5353  -37.2662   20.2377 C   0  0  0  0  0  0  0  0  0  0  0  0
  -28.8938  -35.9225   20.2752 C   0  0  0  0  0  0  0  0  0  0  0  0
  -24.5552   -8.7431   21.5037 C   0  0  0  0  0  0  0  0  0  0  0  0
  -26.3820   -7.2170   21.0903 C   0  0  0  0  0  0  0  0  0  0  0  0
  -27.4278  -37.7114   20.9582 C   0  0  0  0  0  0  0  0  0  0  0  0
  -28.1455  -35.0233   21.0341 C   0  0  0  0  0  0  0  0  0  0  0  0
  -26.9899  -29.1570   19.7087 C   0  0  0  0  0  0  0  0  0  0  0  0
  -24.0677   -7.8911   22.4946 C   0  0  0  0  0  0  0  0  0  0  0  0
  -25.8945   -6.3650   22.0813 C   0  0  0  0  0  0  0  0  0  0  0  0
  -27.5748  -27.9659   20.1365 C   0  0  0  0  0  0  0  0  0  0  0  0
  -22.2950   -5.0180   22.6576 C   0  0  0  0  0  0  0  0  0  0  0  0
  -20.9249   -4.7566   22.6700 C   0  0  0  0  0  0  0  0  0  0  0  0
  -25.8602  -27.7348   21.8176 C   0  0  0  0  0  0  0  0  0  0  0  0
  -20.7686   -5.6814   24.8965 C   0  0  0  0  0  0  0  0  0  0  0  0
  -25.7124   -8.4060   20.8014 C   0  0  0  0  0  0  0  0  0  0  0  0
  -25.5515   -9.6945   18.6056 C   0  0  0  0  0  0  0  0  0  0  0  0
  -26.6598  -36.8155   21.7186 C   0  0  0  0  0  0  0  0  0  0  0  0
  -25.8401  -29.6524   20.3404 C   0  0  0  0  0  0  0  0  0  0  0  0
  -27.0274  -35.4572   21.7666 C   0  0  0  0  0  0  0  0  0  0  0  0
  -25.2612  -28.9310   21.3943 C   0  0  0  0  0  0  0  0  0  0  0  0
  -24.7374   -6.7021   22.7835 C   0  0  0  0  0  0  0  0  0  0  0  0
  -27.0116  -27.2561   21.1930 C   0  0  0  0  0  0  0  0  0  0  0  0
  -22.9019   -5.6110   23.7647 C   0  0  0  0  0  0  0  0  0  0  0  0
  -20.1617   -5.0883   23.7894 C   0  0  0  0  0  0  0  0  0  0  0  0
  -22.1387   -5.9428   24.8841 C   0  0  0  0  0  0  0  0  0  0  0  0
  -26.2162   -9.2855   19.7773 C   0  0  0  0  0  0  0  0  0  0  0  0
  -26.4484  -10.5200   17.9725 C   0  0  0  0  0  0  0  0  0  0  0  0
  -24.2407   -9.3585   18.1320 C   0  0  0  0  0  0  0  0  0  0  0  0
  -25.1348  -32.2901   21.9679 C   0  0  0  0  0  0  0  0  0  0  0  0
  -22.1296  -31.0721   21.8814 C   0  0  0  0  0  0  0  0  0  0  0  0
  -20.5892  -27.8324   22.2668 C   0  0  0  0  0  0  0  0  0  0  0  0
  -31.0213  -13.8461   19.9413 C   0  0  0  0  0  0  0  0  0  0  0  0
  -25.4992  -37.3519   22.5186 C   0  0  0  0  0  0  0  0  0  0  0  0
  -25.2059  -30.9249   19.8496 C   0  0  0  0  0  0  0  0  0  0  0  0
  -24.0155  -29.4095   22.0926 C   0  0  0  0  0  0  0  0  0  0  0  0
  -24.5375  -36.2679   22.9986 C   0  0  0  0  0  0  0  0  0  0  0  0
  -31.1485  -11.2707   17.4861 C   0  0  0  0  0  0  0  0  0  0  0  0
  -25.3093  -35.0981   23.6009 C   0  0  0  0  0  0  0  0  0  0  0  0
  -29.8388  -10.5068   17.6892 C   0  0  0  0  0  0  0  0  0  0  0  0
  -29.0481  -17.7762   22.3248 C   0  0  0  0  0  0  0  0  0  0  0  0
  -30.5542  -18.2643   20.3866 C   0  0  0  0  0  0  0  0  0  0  0  0
  -31.5177  -17.4411   22.5446 C   0  0  0  0  0  0  0  0  0  0  0  0
  -28.8949  -16.3272   21.8396 C   0  0  0  0  0  0  0  0  0  0  0  0
  -30.4013  -16.8149   19.9022 C   0  0  0  0  0  0  0  0  0  0  0  0
  -31.3633  -15.9918   22.0604 C   0  0  0  0  0  0  0  0  0  0  0  0
  -31.7290  -11.7581   18.8118 C   0  0  0  0  0  0  0  0  0  0  0  0
  -29.4911  -11.7857   19.8437 C   0  0  0  0  0  0  0  0  0  0  0  0
  -30.7421  -22.0801   21.4602 C   0  0  0  0  0  0  0  0  0  0  0  0
  -28.6670  -20.7368   21.1222 C   0  0  0  0  0  0  0  0  0  0  0  0
  -26.2261  -34.4468   22.5584 C   0  0  1  0  0  0  0  0  0  0  0  0
  -24.3317  -31.6011   20.9012 C   0  0  1  0  0  0  0  0  0  0  0  0
  -28.8384  -11.3225   18.5300 C   0  0  2  0  0  0  0  0  0  0  0  0
  -30.3378  -22.9774   20.2829 C   0  0  1  0  0  0  0  0  0  0  0  0
  -28.3112  -21.6391   19.9342 C   0  0  1  0  0  0  0  0  0  0  0  0
  -30.4280  -18.3428   21.9242 C   0  0  0  0  0  0  0  0  0  0  0  0
  -30.1660  -15.8694   21.0963 C   0  0  0  0  0  0  0  0  0  0  0  0
  -31.0914  -22.6101   18.9958 C   0  0  0  0  0  0  0  0  0  0  0  0
  -26.7941  -21.6301   19.7064 C   0  0  0  0  0  0  0  0  0  0  0  0
  -18.4415  -26.9261   21.3376 C   0  0  0  0  0  0  0  0  0  0  0  0
  -29.7176  -20.0729   23.6201 C   0  0  0  0  0  0  0  0  0  0  0  0
  -20.9330  -31.9861   24.5352 C   0  0  0  0  0  0  0  0  0  0  0  0
  -19.5171  -29.9213   24.5281 C   0  0  0  0  0  0  0  0  0  0  0  0
  -19.2630  -31.6120   22.7116 C   0  0  0  0  0  0  0  0  0  0  0  0
  -21.9635  -25.5194   21.0339 C   0  0  0  0  0  0  0  0  0  0  0  0
  -28.1997  -23.8495   21.0261 C   0  0  0  0  0  0  0  0  0  0  0  0
  -28.2727  -25.3180   20.6366 C   0  0  0  0  0  0  0  0  0  1  0  0
  -21.3243  -30.1491   22.7637 C   0  0  1  0  0  0  0  0  0  0  0  0
  -19.9519  -26.9933   21.1740 C   0  0  2  0  0  0  0  0  0  0  0  0
  -30.5800  -19.7774   22.4035 C   0  0  2  0  0  0  0  0  0  0  0  0
  -20.2877  -30.9152   23.6331 C   0  0  0  0  0  0  0  0  0  0  0  0
  -27.4408   -9.8078   19.8845 N   0  0  0  0  0  0  0  0  0  0  0  0
  -27.5528  -10.5535   18.7721 N   0  0  0  0  0  0  0  0  0  0  0  0
  -23.4362  -30.6623   21.5804 N   0  0  0  0  0  0  0  0  0  0  0  0
  -30.7305  -12.5259   19.5597 N   0  0  0  0  0  0  0  0  0  0  0  0
  -28.8784  -23.0009   20.0430 N   0  0  0  0  0  0  0  0  0  0  0  0
  -26.3922  -11.2130   16.8154 N   0  0  0  0  0  0  0  0  0  0  0  0
  -24.0957   -8.2335   17.3088 N   0  0  0  0  0  0  0  0  0  0  0  0
  -25.4595  -33.5998   21.6700 N   0  0  0  0  0  0  0  0  0  0  0  0
  -20.7386  -29.1473   21.8795 N   0  0  0  0  0  0  0  0  0  0  0  0
  -30.0180  -14.5048   20.6414 N   0  0  0  0  0  0  0  0  0  0  0  0
  -30.1651  -20.6986   21.2899 N   0  3  0  0  0  0  0  0  0  0  0  0
  -20.4905  -25.6042   21.2070 N   0  3  0  0  0  0  0  0  0  0  0  0
  -23.2303  -10.0454   18.4165 O   0  0  0  0  0  0  0  0  0  0  0  0
  -25.4364  -31.6792   22.9865 O   0  0  0  0  0  0  0  0  0  0  0  0
  -21.6157  -32.1147   21.4684 O   0  0  0  0  0  0  0  0  0  0  0  0
  -20.9178  -27.3686   23.3565 O   0  0  0  0  0  0  0  0  0  0  0  0
  -32.0935  -14.3988   19.6728 O   0  0  0  0  0  0  0  0  0  0  0  0
  -24.2621   -5.8706   23.7506 O   0  0  0  0  0  0  0  0  0  0  0  0
  -27.5850  -26.0852   21.6159 O   0  0  0  0  0  0  0  0  0  1  0  0
  -18.8457   -4.8386   23.8005 F   0  0  0  0  0  0  0  0  0  0  0  0
  -22.7159   -6.5138   25.9502 F   0  0  0  0  0  0  0  0  0  0  0  0
  1  2  1  0  0  0  0
  1  5  2  0  0  0  0
  2  6  2  0  0  0  0
  3  8  2  0  0  0  0
  3 15  1  0  0  0  0
  4  9  1  0  0  0  0
  4 15  2  0  0  0  0
  5 17  1  0  0  0  0
  6 19  1  0  0  0  0
  7 10  2  0  0  0  0
  7 18  1  0  0  0  0
  8 21  1  0  0  0  0
  9 21  2  0  0  0  0
 10 22  1  0  0  0  0
 11 12  2  0  0  0  0
 11 23  1  0  0  0  0
 12 24  1  0  0  0  0
 13 20  1  0  0  0  0
 13 22  2  0  0  0  0
 14 24  2  0  0  0  0
 14 25  1  0  0  0  0
 15 26  1  0  0  0  0
 16 26  1  0  0  0  0
 16 27  2  0  0  0  0
 16 28  1  0  0  0  0
 17 19  2  0  0  0  0
 17 33  1  0  0  0  0
 18 20  2  0  0  0  0
 18 34  1  0  0  0  0
 19 50  1  0  0  0  0
 20 35  1  0  0  0  0
 21 88  1  0  0  0  0
 22 89  1  0  0  0  0
 23 25  2  0  0  0  0
 23 88  1  0  0  0  0
 24 90  1  0  0  0  0
 25 91  1  0  0  0  0
 26 71  2  0  0  0  0
 27 72  1  0  0  0  0
 27 76  1  0  0  0  0
 28 77  1  0  0  0  0
 28 83  2  0  0  0  0
 29 51  1  0  0  0  0
 29 78  1  0  0  0  0
 29 84  2  0  0  0  0
 30 67  1  0  0  0  0
 30 73  1  0  0  0  0
 30 85  2  0  0  0  0
 31 68  1  0  0  0  0
 31 79  1  0  0  0  0
 31 86  2  0  0  0  0
 32 74  1  0  0  0  0
 32 80  1  0  0  0  0
 32 87  2  0  0  0  0
 33 36  1  0  0  0  0
 34 51  1  0  0  0  0
 35 73  1  0  0  0  0
 36 38  1  0  0  0  0
 37 39  1  0  0  0  0
 37 46  1  0  0  0  0
 38 50  1  0  0  0  0
 39 52  1  0  0  0  0
 40 43  1  0  0  0  0
 40 55  1  0  0  0  0
 41 44  1  0  0  0  0
 41 55  1  0  0  0  0
 42 45  1  0  0  0  0
 42 55  1  0  0  0  0
 43 56  1  0  0  0  0
 44 56  1  0  0  0  0
 45 56  1  0  0  0  0
 46 74  1  0  0  0  0
 47 52  1  0  0  0  0
 47 74  1  0  0  0  0
 48 53  1  0  0  0  0
 48 81  1  0  0  0  0
 49 54  1  0  0  0  0
 49 81  1  0  0  0  0
 50 78  1  0  0  0  0
 51 73  1  0  0  0  0
 52 72  1  0  0  0  0
 53 57  1  0  0  0  0
 53 75  1  0  0  0  0
 54 58  1  0  0  0  0
 54 75  1  0  0  0  0
 55 69  1  0  0  0  0
 56 80  1  0  0  0  0
 59 68  1  0  0  0  0
 60 69  1  0  0  0  0
 61 70  1  0  0  0  0
 62 70  1  0  0  0  0
 63 70  1  0  0  0  0
 64 82  1  0  0  0  0
 65 66  1  0  0  0  0
 65 75  1  0  0  0  0
 66 89  1  0  0  0  0
 67 70  1  0  0  0  0
 67 79  1  0  0  0  0
 68 82  1  0  0  0  0
 69 81  1  0  0  0  0
 71 72  1  0  0  0  0
M  CHG  2  81   1  82   1
M  ISO  4  32 100  66 101  80 100  89 101
M  END
> <Batch ID>
0167

> <Smiles>
CNC(C)C(=O)NC(C(=O)N1Cc2cc([101O:1][101CH2:1]CN3C(C)CN(C(C)C45CCC([100NH:0][100C:0](=O)N6CCCC(n7nc(-c8ccc(Oc9ccc(F)cc9F)cc8)c(C(N)=O)c7N)C6)(CC4)CC5)CC3C)ccc2CC1C(=O)NC1CCCc2ccccc21)C(C)(C)C

> <Shape>
0.314

> <Color>
0.063

> <Negative vol penalty>
0.000

$$$$

  -OEChem-04052322273D

 83 92  0     1  0  0  0  0  0999 V2000
  -25.2768  -37.3251   17.8352 C   0  0  0  0  0  0  0  0  0  0  0  0
  -25.3135  -36.0560   17.2664 C   0  0  0  0  0  0  0  0  0  0  0  0
  -24.3368   -9.7058   21.8410 C   0  0  0  0  0  0  0  0  0  0  0  0
  -22.9597  -11.4336   20.8634 C   0  0  0  0  0  0  0  0  0  0  0  0
  -25.7591  -37.5223   19.1284 C   0  0  0  0  0  0  0  0  0  0  0  0
  -25.8335  -34.9836   17.9901 C   0  0  0  0  0  0  0  0  0  0  0  0
  -24.9995  -27.9255   18.8868 C   0  0  0  0  0  0  0  0  0  0  0  0
  -23.2950   -9.3632   22.7029 C   0  0  0  0  0  0  0  0  0  0  0  0
  -21.9179  -11.0909   21.7253 C   0  0  0  0  0  0  0  0  0  0  0  0
  -25.7389  -26.7435   18.8757 C   0  0  0  0  0  0  0  0  0  0  0  0
  -20.4113   -7.6044   22.5495 C   0  0  0  0  0  0  0  0  0  0  0  0
  -20.1244   -6.2492   22.7131 C   0  0  0  0  0  0  0  0  0  0  0  0
  -29.4877  -20.8815   19.3667 C   0  0  0  0  0  0  0  0  0  0  0  0
  -27.3441  -21.9837   19.2030 C   0  0  0  0  0  0  0  0  0  0  0  0
  -26.4709  -27.1874   21.1310 C   0  0  0  0  0  0  0  0  0  0  0  0
  -20.5849   -6.4372   25.0774 C   0  0  0  0  0  0  0  0  0  0  0  0
  -24.1691  -10.7411   20.9212 C   0  0  0  0  0  0  0  0  0  0  0  0
  -25.4960  -10.5708   18.7491 C   0  0  0  0  0  0  0  0  0  0  0  0
  -26.2765  -36.4498   19.8719 C   0  0  0  0  0  0  0  0  0  0  0  0
  -24.9990  -28.7541   20.0180 C   0  0  0  0  0  0  0  0  0  0  0  0
  -26.3245  -35.1669   19.2940 C   0  0  0  0  0  0  0  0  0  0  0  0
  -28.0943  -20.8226   19.3891 C   0  0  0  0  0  0  0  0  0  0  0  0
  -25.7287  -28.3780   21.1548 C   0  0  0  0  0  0  0  0  0  0  0  0
  -30.1310  -22.1015   19.1584 C   0  0  0  0  0  0  0  0  0  0  0  0
  -27.9873  -23.2038   18.9946 C   0  0  0  0  0  0  0  0  0  0  0  0
  -29.3808  -23.2627   18.9722 C   0  0  0  0  0  0  0  0  0  0  0  0
  -22.0856  -10.0557   22.6451 C   0  0  0  0  0  0  0  0  0  0  0  0
  -26.4771  -26.3758   19.9968 C   0  0  0  0  0  0  0  0  0  0  0  0
  -20.7851   -8.3760   23.6498 C   0  0  0  0  0  0  0  0  0  0  0  0
  -20.2112   -5.6656   23.9770 C   0  0  0  0  0  0  0  0  0  0  0  0
  -20.8718   -7.7924   24.9137 C   0  0  0  0  0  0  0  0  0  0  0  0
  -25.2451  -11.0959   20.0310 C   0  0  0  0  0  0  0  0  0  0  0  0
  -26.6234  -11.2294   18.3229 C   0  0  0  0  0  0  0  0  0  0  0  0
  -24.7744   -9.5767   18.0097 C   0  0  0  0  0  0  0  0  0  0  0  0
  -25.9146  -31.7394   20.6122 C   0  0  0  0  0  0  0  0  0  0  0  0
  -24.5700  -31.1622   23.5073 C   0  0  0  0  0  0  0  0  0  0  0  0
  -23.6116  -28.8757   25.8525 C   0  0  0  0  0  0  0  0  0  0  0  0
  -29.0270  -16.5294   19.7313 C   0  0  0  0  0  0  0  0  0  0  0  0
  -26.8298  -36.7209   21.2485 C   0  0  0  0  0  0  0  0  0  0  0  0
  -24.1749  -30.0124   20.0237 C   0  0  0  0  0  0  0  0  0  0  0  0
  -25.7451  -29.2225   22.4018 C   0  0  0  0  0  0  0  0  0  0  0  0
  -27.0201  -35.4600   22.0877 C   0  0  0  0  0  0  0  0  0  0  0  0
  -30.5829  -13.3372   19.9874 C   0  0  0  0  0  0  0  0  0  0  0  0
  -27.7084  -34.3726   21.2687 C   0  0  0  0  0  0  0  0  0  0  0  0
  -29.4140  -12.3534   19.9119 C   0  0  0  0  0  0  0  0  0  0  0  0
  -26.3845  -19.0487   18.6128 C   0  0  0  0  0  0  0  0  0  0  0  0
  -30.2057  -14.6043   20.7517 C   0  0  0  0  0  0  0  0  0  0  0  0
  -27.8266  -14.3042   20.1829 C   0  0  0  0  0  0  0  0  0  0  0  0
  -27.4072  -19.5193   19.6125 C   0  0  1  0  0  0  0  0  0  0  0  0
  -26.8582  -33.9736   20.0565 C   0  0  1  0  0  0  0  0  0  0  0  0
  -24.6579  -31.0383   21.0443 C   0  0  1  0  0  0  0  0  0  0  0  0
  -28.1416  -13.0347   19.3733 C   0  0  2  0  0  0  0  0  0  0  0  0
  -27.7156  -18.3614   18.6906 C   0  0  1  0  0  0  0  0  0  0  0  0
  -31.6241  -22.1374   19.1388 C   0  0  0  0  0  0  0  0  0  0  0  0
  -30.0706  -24.5708   18.7483 C   0  0  0  0  0  0  0  0  0  0  0  0
  -22.5759  -28.7078   28.1321 C   0  0  0  0  0  0  0  0  0  0  0  0
  -27.2066  -32.0402   24.7672 C   0  0  0  0  0  0  0  0  0  0  0  0
  -26.4614  -30.9700   26.9044 C   0  0  0  0  0  0  0  0  0  0  0  0
  -25.1613  -32.8696   25.9432 C   0  0  0  0  0  0  0  0  0  0  0  0
  -21.3166  -27.3168   24.8222 C   0  0  0  0  0  0  0  0  0  0  0  0
  -27.1573  -24.4381   18.7974 C   0  0  0  0  0  0  0  0  0  1  0  0
  -25.0606  -30.6058   24.8220 C   0  0  1  0  0  0  0  0  0  0  0  0
  -22.3197  -28.7144   26.6330 C   0  0  2  0  0  0  0  0  0  0  0  0
  -25.9739  -31.6062   25.5852 C   0  0  0  0  0  0  0  0  0  0  0  0
  -26.1411  -12.0169   20.3954 N   0  0  0  0  0  0  0  0  0  0  0  0
  -26.9661  -12.0757   19.3361 N   0  0  0  0  0  0  0  0  0  0  0  0
  -24.9284  -30.4466   22.3561 N   0  0  0  0  0  0  0  0  0  0  0  0
  -28.9920  -15.2022   20.1900 N   0  0  0  0  0  0  0  0  0  0  0  0
  -27.3451  -11.1613   17.1841 N   0  0  0  0  0  0  0  0  0  0  0  0
  -23.6384   -9.0018   18.5957 N   0  0  0  0  0  0  0  0  0  0  0  0
  -25.7737  -33.1060   20.4633 N   0  0  0  0  0  0  0  0  0  0  0  0
  -23.8712  -30.1984   25.5621 N   0  0  0  0  0  0  0  0  0  0  0  0
  -27.8355  -17.0166   19.2081 N   0  0  0  0  0  0  0  0  0  0  0  0
  -21.6485  -27.4356   26.2653 N   0  3  0  0  0  0  0  0  0  0  0  0
  -25.1360   -9.1972   16.8701 O   0  0  0  0  0  0  0  0  0  0  0  0
  -26.9369  -31.0890   20.4291 O   0  0  0  0  0  0  0  0  0  0  0  0
  -23.8878  -32.1899   23.5024 O   0  0  0  0  0  0  0  0  0  0  0  0
  -24.3216  -27.9239   25.5355 O   0  0  0  0  0  0  0  0  0  0  0  0
  -30.0460  -17.2267   19.7793 O   0  0  0  0  0  0  0  0  0  0  0  0
  -21.0688   -9.7215   23.4859 O   0  0  0  0  0  0  0  0  0  0  0  0
  -27.2002  -25.2230   19.9884 O   0  0  0  0  0  0  0  0  0  1  0  0
  -19.9342   -4.3646   24.1343 F   0  0  0  0  0  0  0  0  0  0  0  0
  -21.2292   -8.5288   25.9748 F   0  0  0  0  0  0  0  0  0  0  0  0
  1  2  1  0  0  0  0
  1  5  2  0  0  0  0
  2  6  2  0  0  0  0
  3  8  2  0  0  0  0
  3 17  1  0  0  0  0
  4  9  1  0  0  0  0
  4 17  2  0  0  0  0
  5 19  1  0  0  0  0
  6 21  1  0  0  0  0
  7 10  2  0  0  0  0
  7 20  1  0  0  0  0
  8 27  1  0  0  0  0
  9 27  2  0  0  0  0
 10 28  1  0  0  0  0
 11 12  2  0  0  0  0
 11 29  1  0  0  0  0
 12 30  1  0  0  0  0
 13 22  1  0  0  0  0
 13 24  2  0  0  0  0
 14 22  2  0  0  0  0
 14 25  1  0  0  0  0
 15 23  1  0  0  0  0
 15 28  2  0  0  0  0
 16 30  2  0  0  0  0
 16 31  1  0  0  0  0
 17 32  1  0  0  0  0
 18 32  1  0  0  0  0
 18 33  2  0  0  0  0
 18 34  1  0  0  0  0
 19 21  2  0  0  0  0
 19 39  1  0  0  0  0
 20 23  2  0  0  0  0
 20 40  1  0  0  0  0
 21 50  1  0  0  0  0
 22 49  1  0  0  0  0
 23 41  1  0  0  0  0
 24 26  1  0  0  0  0
 24 54  1  0  0  0  0
 25 26  2  0  0  0  0
 25 61  1  0  0  0  0
 26 55  1  0  0  0  0
 27 80  1  0  0  0  0
 28 81  1  0  0  0  0
 29 31  2  0  0  0  0
 29 80  1  0  0  0  0
 30 82  1  0  0  0  0
 31 83  1  0  0  0  0
 32 65  2  0  0  0  0
 33 66  1  0  0  0  0
 33 69  1  0  0  0  0
 34 70  1  0  0  0  0
 34 75  2  0  0  0  0
 35 51  1  0  0  0  0
 35 71  1  0  0  0  0
 35 76  2  0  0  0  0
 36 62  1  0  0  0  0
 36 67  1  0  0  0  0
 36 77  2  0  0  0  0
 37 63  1  0  0  0  0
 37 72  1  0  0  0  0
 37 78  2  0  0  0  0
 38 68  1  0  0  0  0
 38 73  1  0  0  0  0
 38 79  2  0  0  0  0
 39 42  1  0  0  0  0
 40 51  1  0  0  0  0
 41 67  1  0  0  0  0
 42 44  1  0  0  0  0
 43 45  1  0  0  0  0
 43 47  1  0  0  0  0
 44 50  1  0  0  0  0
 45 52  1  0  0  0  0
 46 49  1  0  0  0  0
 46 53  1  0  0  0  0
 47 68  1  0  0  0  0
 48 52  1  0  0  0  0
 48 68  1  0  0  0  0
 49 53  1  0  0  0  0
 50 71  1  0  0  0  0
 51 67  1  0  0  0  0
 52 66  1  0  0  0  0
 53 73  1  0  0  0  0
 56 63  1  0  0  0  0
 57 64  1  0  0  0  0
 58 64  1  0  0  0  0
 59 64  1  0  0  0  0
 60 74  1  0  0  0  0
 61 81  1  0  0  0  0
 62 64  1  0  0  0  0
 62 72  1  0  0  0  0
 63 74  1  0  0  0  0
 65 66  1  0  0  0  0
M  CHG  1  74   1
M  ISO  4  38 100  61 101  73 100  81 101
M  END
> <Batch ID>
0167

> <Smiles>
CNC(C)C(=O)NC(C(=O)N1Cc2cc([101O:1][101CH2:1]c3cc(C4CC4[100NH:0][100C:0](=O)N4CCCC(n5nc(-c6ccc(Oc7ccc(F)cc7F)cc6)c(C(N)=O)c5N)C4)cc(C)c3C)ccc2CC1C(=O)NC1CCCc2ccccc21)C(C)(C)C

> <Shape>
0.273

> <Color>
0.095

> <Negative vol penalty>
0.000

$$$$

  -OEChem-04052322273D

 89 99  0     1  0  0  0  0  0999 V2000
  -23.2430  -37.6891   18.8514 C   0  0  0  0  0  0  0  0  0  0  0  0
  -23.1024  -36.5119   18.1236 C   0  0  0  0  0  0  0  0  0  0  0  0
  -23.1184  -10.7645   21.2359 C   0  0  0  0  0  0  0  0  0  0  0  0
  -24.7256   -9.2540   22.2221 C   0  0  0  0  0  0  0  0  0  0  0  0
  -24.1087  -37.7330   19.9435 C   0  0  0  0  0  0  0  0  0  0  0  0
  -23.8284  -35.3780   18.4868 C   0  0  0  0  0  0  0  0  0  0  0  0
  -23.3453  -28.2314   18.5761 C   0  0  0  0  0  0  0  0  0  0  0  0
  -22.2533   -9.6945   21.0070 C   0  0  0  0  0  0  0  0  0  0  0  0
  -23.8605   -8.1841   21.9932 C   0  0  0  0  0  0  0  0  0  0  0  0
  -24.0474  -27.0992   18.1650 C   0  0  0  0  0  0  0  0  0  0  0  0
  -21.0882   -6.8762   23.4161 C   0  0  0  0  0  0  0  0  0  0  0  0
  -20.9046   -5.9602   24.4519 C   0  0  0  0  0  0  0  0  0  0  0  0
  -27.0933  -23.5687   15.9761 C   0  0  0  0  0  0  0  0  0  0  0  0
  -25.4531  -27.2693   20.1180 C   0  0  0  0  0  0  0  0  0  0  0  0
  -21.7402   -4.1906   23.0351 C   0  0  0  0  0  0  0  0  0  0  0  0
  -24.3546  -10.5442   21.8434 C   0  0  0  0  0  0  0  0  0  0  0  0
  -25.3102  -12.4628   23.2267 C   0  0  0  0  0  0  0  0  0  0  0  0
  -24.8382  -36.5964   20.3262 C   0  0  0  0  0  0  0  0  0  0  0  0
  -23.6994  -28.8985   19.7575 C   0  0  0  0  0  0  0  0  0  0  0  0
  -24.7056  -35.4072   19.5842 C   0  0  0  0  0  0  0  0  0  0  0  0
  -27.9158  -22.4615   15.7679 C   0  0  0  0  0  0  0  0  0  0  0  0
  -24.7523  -28.4083   20.5431 C   0  0  0  0  0  0  0  0  0  0  0  0
  -27.1570  -21.5058   17.8531 C   0  0  0  0  0  0  0  0  0  0  0  0
  -26.3027  -23.6444   17.1228 C   0  0  0  0  0  0  0  0  0  0  0  0
  -27.9476  -21.4301   16.7064 C   0  0  0  0  0  0  0  0  0  0  0  0
  -26.3345  -22.6130   18.0613 C   0  0  0  0  0  0  0  0  0  0  0  0
  -22.6243   -8.4043   21.3857 C   0  0  0  0  0  0  0  0  0  0  0  0
  -25.1034  -26.6197   18.9345 C   0  0  0  0  0  0  0  0  0  0  0  0
  -21.5978   -6.4494   22.1898 C   0  0  0  0  0  0  0  0  0  0  0  0
  -21.2306   -4.6174   24.2615 C   0  0  0  0  0  0  0  0  0  0  0  0
  -21.9238   -5.1066   21.9993 C   0  0  0  0  0  0  0  0  0  0  0  0
  -25.2489  -11.6490   22.0796 C   0  0  0  0  0  0  0  0  0  0  0  0
  -26.3170  -13.3580   22.9591 C   0  0  0  0  0  0  0  0  0  0  0  0
  -24.5272  -12.4140   24.4267 C   0  0  0  0  0  0  0  0  0  0  0  0
  -24.7455  -31.8172   20.4581 C   0  0  0  0  0  0  0  0  0  0  0  0
  -24.3868  -30.7894   23.5138 C   0  0  0  0  0  0  0  0  0  0  0  0
  -24.2268  -28.1631   25.6872 C   0  0  0  0  0  0  0  0  0  0  0  0
  -29.0155  -16.7942   19.6529 C   0  0  0  0  0  0  0  0  0  0  0  0
  -25.7973  -36.7057   21.4850 C   0  0  0  0  0  0  0  0  0  0  0  0
  -22.9149  -30.1029   20.2009 C   0  0  0  0  0  0  0  0  0  0  0  0
  -25.1591  -29.0763   21.8303 C   0  0  0  0  0  0  0  0  0  0  0  0
  -26.2475  -35.3537   22.0325 C   0  0  0  0  0  0  0  0  0  0  0  0
  -29.7672  -13.4420   19.2713 C   0  0  0  0  0  0  0  0  0  0  0  0
  -28.0826  -22.5385   13.1911 C   0  0  0  0  0  0  0  0  0  0  0  0
  -28.6283  -21.2127   13.6206 C   0  0  0  0  0  0  0  0  0  0  0  0
  -26.6455  -34.4217   20.8924 C   0  0  0  0  0  0  0  0  0  0  0  0
  -28.6685  -12.7310   20.0611 C   0  0  0  0  0  0  0  0  0  0  0  0
  -26.7019  -19.0504   18.2839 C   0  0  0  0  0  0  0  0  0  0  0  0
  -28.5863  -20.2202   19.5046 C   0  0  0  0  0  0  0  0  0  0  0  0
  -29.2001  -14.6185   18.4854 C   0  0  0  0  0  0  0  0  0  0  0  0
  -26.7696  -17.9167   19.3111 C   0  0  0  0  0  0  0  0  0  0  0  0
  -28.5919  -19.0761   20.5143 C   0  0  0  0  0  0  0  0  0  0  0  0
  -27.3744  -14.9200   20.1267 C   0  0  0  0  0  0  0  0  0  0  0  0
  -28.7523  -22.4040   14.5324 C   0  0  0  0  0  0  0  0  0  0  0  0
  -27.1912  -20.3849   18.8748 C   0  0  0  0  0  0  0  0  0  0  0  0
  -25.4572  -34.1493   19.9623 C   0  0  1  0  0  0  0  0  0  0  0  0
  -23.6921  -31.0039   21.1557 C   0  0  1  0  0  0  0  0  0  0  0  0
  -27.8949  -13.7228   20.9478 C   0  0  1  0  0  0  0  0  0  0  0  0
  -25.4865  -22.6980   19.2908 C   0  0  0  0  0  0  0  0  0  0  0  0
  -30.2955  -20.6354   16.3292 C   0  0  0  0  0  0  0  0  0  0  0  0
  -23.9653  -27.6385   28.1273 C   0  0  0  0  0  0  0  0  0  0  0  0
  -27.2834  -31.6164   23.9996 C   0  0  0  0  0  0  0  0  0  0  0  0
  -27.2556  -30.2323   26.0857 C   0  0  0  0  0  0  0  0  0  0  0  0
  -25.7116  -32.1788   25.8618 C   0  0  0  0  0  0  0  0  0  0  0  0
  -21.7293  -26.6479   25.2127 C   0  0  0  0  0  0  0  0  0  0  0  0
  -28.8304  -20.2428   16.4826 C   0  0  0  0  0  0  0  0  0  0  0  0
  -25.4315  -24.8412   17.3226 C   0  0  0  0  0  0  0  0  0  1  0  0
  -25.2698  -30.0850   24.5154 C   0  0  1  0  0  0  0  0  0  0  0  0
  -23.2484  -27.8352   26.8006 C   0  0  2  0  0  0  0  0  0  0  0  0
  -26.3739  -31.0164   25.0904 C   0  0  0  0  0  0  0  0  0  0  0  0
  -26.1452  -11.9965   21.1523 N   0  0  0  0  0  0  0  0  0  0  0  0
  -26.7792  -13.0386   21.7163 N   0  0  0  0  0  0  0  0  0  0  0  0
  -24.3655  -30.2542   22.2181 N   0  0  0  0  0  0  0  0  0  0  0  0
  -28.4703  -15.5348   19.3615 N   0  0  0  0  0  0  0  0  0  0  0  0
  -28.1104  -17.8357   19.9071 N   0  0  0  0  0  0  0  0  0  0  0  0
  -26.8430  -14.3794   23.6680 N   0  0  0  0  0  0  0  0  0  0  0  0
  -23.5344  -11.4309   24.5372 N   0  0  0  0  0  0  0  0  0  0  0  0
  -24.5599  -33.1829   20.5584 N   0  0  0  0  0  0  0  0  0  0  0  0
  -24.3767  -29.5240   25.5234 N   0  0  0  0  0  0  0  0  0  0  0  0
  -22.4999  -26.5866   26.4813 N   0  3  0  0  0  0  0  0  0  0  0  0
  -24.6917  -13.2286   25.3663 O   0  0  0  0  0  0  0  0  0  0  0  0
  -25.6597  -31.2480   19.8735 O   0  0  0  0  0  0  0  0  0  0  0  0
  -23.7344  -31.7739   23.8699 O   0  0  0  0  0  0  0  0  0  0  0  0
  -24.8036  -27.2985   25.0312 O   0  0  0  0  0  0  0  0  0  0  0  0
  -30.2388  -16.9780   19.6850 O   0  0  0  0  0  0  0  0  0  0  0  0
  -21.7803   -7.3601   21.1627 O   0  0  0  0  0  0  0  0  0  0  0  0
  -25.8025  -25.4963   18.5285 O   0  0  0  0  0  0  0  0  0  1  0  0
  -21.0556   -3.7382   25.2567 F   0  0  0  0  0  0  0  0  0  0  0  0
  -22.4149   -4.6908   20.8238 F   0  0  0  0  0  0  0  0  0  0  0  0
  1  2  1  0  0  0  0
  1  5  2  0  0  0  0
  2  6  2  0  0  0  0
  3  8  2  0  0  0  0
  3 16  1  0  0  0  0
  4  9  1  0  0  0  0
  4 16  2  0  0  0  0
  5 18  1  0  0  0  0
  6 20  1  0  0  0  0
  7 10  2  0  0  0  0
  7 19  1  0  0  0  0
  8 27  1  0  0  0  0
  9 27  2  0  0  0  0
 10 28  1  0  0  0  0
 11 12  2  0  0  0  0
 11 29  1  0  0  0  0
 12 30  1  0  0  0  0
 13 21  2  0  0  0  0
 13 24  1  0  0  0  0
 14 22  1  0  0  0  0
 14 28  2  0  0  0  0
 15 30  2  0  0  0  0
 15 31  1  0  0  0  0
 16 32  1  0  0  0  0
 17 32  1  0  0  0  0
 17 33  2  0  0  0  0
 17 34  1  0  0  0  0
 18 20  2  0  0  0  0
 18 39  1  0  0  0  0
 19 22  2  0  0  0  0
 19 40  1  0  0  0  0
 20 56  1  0  0  0  0
 21 25  1  0  0  0  0
 21 54  1  0  0  0  0
 22 41  1  0  0  0  0
 23 25  2  0  0  0  0
 23 26  1  0  0  0  0
 23 55  1  0  0  0  0
 24 26  2  0  0  0  0
 24 67  1  0  0  0  0
 25 66  1  0  0  0  0
 26 59  1  0  0  0  0
 27 86  1  0  0  0  0
 28 87  1  0  0  0  0
 29 31  2  0  0  0  0
 29 86  1  0  0  0  0
 30 88  1  0  0  0  0
 31 89  1  0  0  0  0
 32 71  2  0  0  0  0
 33 72  1  0  0  0  0
 33 76  1  0  0  0  0
 34 77  1  0  0  0  0
 34 81  2  0  0  0  0
 35 57  1  0  0  0  0
 35 78  1  0  0  0  0
 35 82  2  0  0  0  0
 36 68  1  0  0  0  0
 36 73  1  0  0  0  0
 36 83  2  0  0  0  0
 37 69  1  0  0  0  0
 37 79  1  0  0  0  0
 37 84  2  0  0  0  0
 38 74  1  0  0  0  0
 38 75  1  0  0  0  0
 38 85  2  0  0  0  0
 39 42  1  0  0  0  0
 40 57  1  0  0  0  0
 41 73  1  0  0  0  0
 42 46  1  0  0  0  0
 43 47  1  0  0  0  0
 43 50  1  0  0  0  0
 44 45  1  0  0  0  0
 44 54  1  0  0  0  0
 45 54  1  0  0  0  0
 46 56  1  0  0  0  0
 47 58  1  0  0  0  0
 48 51  1  0  0  0  0
 48 55  1  0  0  0  0
 49 52  1  0  0  0  0
 49 55  1  0  0  0  0
 50 74  1  0  0  0  0
 51 75  1  0  0  0  0
 52 75  1  0  0  0  0
 53 58  1  0  0  0  0
 53 74  1  0  0  0  0
 56 78  1  0  0  0  0
 57 73  1  0  0  0  0
 58 72  1  0  0  0  0
 60 66  1  0  0  0  0
 61 69  1  0  0  0  0
 62 70  1  0  0  0  0
 63 70  1  0  0  0  0
 64 70  1  0  0  0  0
 65 80  1  0  0  0  0
 67 87  1  0  0  0  0
 68 70  1  0  0  0  0
 68 79  1  0  0  0  0
 69 80  1  0  0  0  0
 71 72  1  0  0  0  0
M  CHG  1  80   1
M  ISO  4  38 100  67 101  75 100  87 101
M  END
> <Batch ID>
0167

> <Smiles>
CCc1c(C2CC2)cc([101CH2:1][101O:1]c2ccc3c(c2)CN(C(=O)C(NC(=O)C(C)NC)C(C)(C)C)C(C(=O)NC2CCCc4ccccc42)C3)c(C)c1C1CC[100N:0]([100C:0](=O)N2CCCC(n3nc(-c4ccc(Oc5ccc(F)cc5F)cc4)c(C(N)=O)c3N)C2)CC1

> <Shape>
0.254

> <Color>
0.119

> <Negative vol penalty>
0.000

$$$$

  -OEChem-04052322273D

 84 93  0     1  0  0  0  0  0999 V2000
  -32.0800  -30.0684   19.0446 C   0  0  0  0  0  0  0  0  0  0  0  0
  -31.3853  -28.8954   18.7672 C   0  0  0  0  0  0  0  0  0  0  0  0
  -24.5142   -9.6932   21.3459 C   0  0  0  0  0  0  0  0  0  0  0  0
  -24.8780  -10.6977   23.5129 C   0  0  0  0  0  0  0  0  0  0  0  0
  -31.8623  -30.7382   20.2479 C   0  0  0  0  0  0  0  0  0  0  0  0
  -30.4733  -28.3909   19.6935 C   0  0  0  0  0  0  0  0  0  0  0  0
  -26.1391  -26.9014   17.5392 C   0  0  0  0  0  0  0  0  0  0  0  0
  -24.2164   -8.4766   21.9597 C   0  0  0  0  0  0  0  0  0  0  0  0
  -24.5802   -9.4810   24.1268 C   0  0  0  0  0  0  0  0  0  0  0  0
  -26.1436  -25.6707   16.8842 C   0  0  0  0  0  0  0  0  0  0  0  0
  -21.5879   -7.0681   23.5534 C   0  0  0  0  0  0  0  0  0  0  0  0
  -20.4738   -6.3658   23.0940 C   0  0  0  0  0  0  0  0  0  0  0  0
  -26.5250  -20.6307   18.1224 C   0  0  0  0  0  0  0  0  0  0  0  0
  -25.1076  -24.6496   18.8086 C   0  0  0  0  0  0  0  0  0  0  0  0
  -29.2454  -20.4524   18.7145 C   0  0  0  0  0  0  0  0  0  0  0  0
  -21.8913   -4.4977   22.5126 C   0  0  0  0  0  0  0  0  0  0  0  0
  -24.8450  -10.8038   22.1224 C   0  0  0  0  0  0  0  0  0  0  0  0
  -24.2520  -13.0917   21.1625 C   0  0  0  0  0  0  0  0  0  0  0  0
  -30.9400  -30.2468   21.1853 C   0  0  0  0  0  0  0  0  0  0  0  0
  -25.6278  -27.0135   18.8402 C   0  0  0  0  0  0  0  0  0  0  0  0
  -30.2440  -29.0540   20.9111 C   0  0  0  0  0  0  0  0  0  0  0  0
  -27.4703  -21.0808   17.2008 C   0  0  0  0  0  0  0  0  0  0  0  0
  -25.0953  -25.8834   19.4769 C   0  0  0  0  0  0  0  0  0  0  0  0
  -26.9399  -20.0915   19.3401 C   0  0  0  0  0  0  0  0  0  0  0  0
  -28.8305  -20.9917   17.4968 C   0  0  0  0  0  0  0  0  0  0  0  0
  -28.3000  -20.0023   19.6362 C   0  0  0  0  0  0  0  0  0  0  0  0
  -24.2494   -8.3705   23.3502 C   0  0  0  0  0  0  0  0  0  0  0  0
  -25.6305  -24.5439   17.5200 C   0  0  0  0  0  0  0  0  0  0  0  0
  -22.8537   -6.4853   23.4923 C   0  0  0  0  0  0  0  0  0  0  0  0
  -20.6255   -5.0806   22.5736 C   0  0  0  0  0  0  0  0  0  0  0  0
  -23.0054   -5.2001   22.9719 C   0  0  0  0  0  0  0  0  0  0  0  0
  -25.1532  -12.0606   21.4889 C   0  0  0  0  0  0  0  0  0  0  0  0
  -25.0341  -14.0607   20.5830 C   0  0  0  0  0  0  0  0  0  0  0  0
  -22.8346  -13.1668   21.3652 C   0  0  0  0  0  0  0  0  0  0  0  0
  -26.8364  -27.8385   21.6619 C   0  0  0  0  0  0  0  0  0  0  0  0
  -23.7462  -27.5975   22.6186 C   0  0  0  0  0  0  0  0  0  0  0  0
  -20.6483  -26.2634   22.0993 C   0  0  0  0  0  0  0  0  0  0  0  0
  -29.6744  -17.1598   20.4930 C   0  0  0  0  0  0  0  0  0  0  0  0
  -30.7732  -30.9800   22.4927 C   0  0  0  0  0  0  0  0  0  0  0  0
  -25.6057  -28.3536   19.5228 C   0  0  0  0  0  0  0  0  0  0  0  0
  -24.5162  -25.9546   20.8654 C   0  0  0  0  0  0  0  0  0  0  0  0
  -29.5140  -30.5815   23.2582 C   0  0  0  0  0  0  0  0  0  0  0  0
  -29.8474  -13.9164   19.0348 C   0  0  0  0  0  0  0  0  0  0  0  0
  -29.3694  -29.0634   23.2945 C   0  0  0  0  0  0  0  0  0  0  0  0
  -28.5710  -13.2280   19.5213 C   0  0  0  0  0  0  0  0  0  0  0  0
  -26.1808  -20.7668   14.9915 C   0  0  0  0  0  0  0  0  0  0  0  0
  -27.5957  -21.0907   14.6267 C   0  0  0  0  0  0  0  0  0  0  0  0
  -30.4357  -14.8350   20.1035 C   0  0  0  0  0  0  0  0  0  0  0  0
  -28.2191  -15.1435   21.1356 C   0  0  0  0  0  0  0  0  0  0  0  0
  -29.2282  -28.4886   21.8799 C   0  0  1  0  0  0  0  0  0  0  0  0
  -25.5302  -28.2487   21.0429 C   0  0  1  0  0  0  0  0  0  0  0  0
  -27.5581  -14.2496   20.0724 C   0  0  2  0  0  0  0  0  0  0  0  0
  -27.0051  -21.6544   15.9066 C   0  0  0  0  0  0  0  0  0  0  0  0
  -25.9098  -19.6157   20.3113 C   0  0  0  0  0  0  0  0  0  0  0  0
  -29.8624  -21.4657   16.5263 C   0  0  0  0  0  0  0  0  0  0  0  0
  -18.3343  -26.2201   23.0694 C   0  0  0  0  0  0  0  0  0  0  0  0
  -24.7037  -25.7044   24.8117 C   0  0  0  0  0  0  0  0  0  0  0  0
  -22.3295  -24.9714   25.1189 C   0  0  0  0  0  0  0  0  0  0  0  0
  -22.9636  -27.3473   25.5381 C   0  0  0  0  0  0  0  0  0  0  0  0
  -19.4736  -27.4356   19.6488 C   0  0  0  0  0  0  0  0  0  0  0  0
  -28.7683  -19.4280   20.9329 C   0  0  0  0  0  0  0  0  0  0  0  0
  -26.6809  -23.1083   15.9416 C   0  0  0  0  0  0  0  0  0  1  0  0
  -22.8787  -26.4879   23.1619 C   0  0  1  0  0  0  0  0  0  0  0  0
  -19.2690  -26.8973   22.0792 C   0  0  2  0  0  0  0  0  0  0  0  0
  -23.2315  -26.1257   24.6322 C   0  0  0  0  0  0  0  0  0  0  0  0
  -26.4116  -12.3477   21.1451 N   0  0  0  0  0  0  0  0  0  0  0  0
  -26.3066  -13.5701   20.5966 N   0  0  0  0  0  0  0  0  0  0  0  0
  -24.5230  -27.2861   21.4937 N   0  0  0  0  0  0  0  0  0  0  0  0
  -29.4247  -15.7805   20.5829 N   0  0  0  0  0  0  0  0  0  0  0  0
  -24.7505  -15.2759   20.0681 N   0  0  0  0  0  0  0  0  0  0  0  0
  -22.1885  -12.0829   21.9752 N   0  0  0  0  0  0  0  0  0  0  0  0
  -27.8847  -28.6943   21.3826 N   0  0  0  0  0  0  0  0  0  0  0  0
  -21.4979  -26.9166   22.9669 N   0  0  0  0  0  0  0  0  0  0  0  0
  -28.6616  -17.9864   20.9640 N   0  0  0  0  0  0  0  0  0  0  0  0
  -18.6698  -26.7908   20.7189 N   0  3  0  0  0  0  0  0  0  0  0  0
  -22.1585  -14.1586   21.0008 O   0  0  0  0  0  0  0  0  0  0  0  0
  -26.8889  -26.8216   22.3438 O   0  0  0  0  0  0  0  0  0  0  0  0
  -23.7297  -28.7020   23.1676 O   0  0  0  0  0  0  0  0  0  0  0  0
  -20.9414  -25.2844   21.4167 O   0  0  0  0  0  0  0  0  0  0  0  0
  -30.7200  -17.6207   20.0227 O   0  0  0  0  0  0  0  0  0  0  0  0
  -23.9587   -7.1836   23.9495 O   0  0  0  0  0  0  0  0  0  0  0  0
  -25.6343  -23.3413   16.8832 O   0  0  0  0  0  0  0  0  0  1  0  0
  -19.5553   -4.4056   22.1340 F   0  0  0  0  0  0  0  0  0  0  0  0
  -24.2188   -4.6345   22.9118 F   0  0  0  0  0  0  0  0  0  0  0  0
  1  2  1  0  0  0  0
  1  5  2  0  0  0  0
  2  6  2  0  0  0  0
  3  8  2  0  0  0  0
  3 17  1  0  0  0  0
  4  9  1  0  0  0  0
  4 17  2  0  0  0  0
  5 19  1  0  0  0  0
  6 21  1  0  0  0  0
  7 10  2  0  0  0  0
  7 20  1  0  0  0  0
  8 27  1  0  0  0  0
  9 27  2  0  0  0  0
 10 28  1  0  0  0  0
 11 12  2  0  0  0  0
 11 29  1  0  0  0  0
 12 30  1  0  0  0  0
 13 22  1  0  0  0  0
 13 24  2  0  0  0  0
 14 23  1  0  0  0  0
 14 28  2  0  0  0  0
 15 25  1  0  0  0  0
 15 26  2  0  0  0  0
 16 30  2  0  0  0  0
 16 31  1  0  0  0  0
 17 32  1  0  0  0  0
 18 32  1  0  0  0  0
 18 33  2  0  0  0  0
 18 34  1  0  0  0  0
 19 21  2  0  0  0  0
 19 39  1  0  0  0  0
 20 23  2  0  0  0  0
 20 40  1  0  0  0  0
 21 50  1  0  0  0  0
 22 25  2  0  0  0  0
 22 53  1  0  0  0  0
 23 41  1  0  0  0  0
 24 26  1  0  0  0  0
 24 54  1  0  0  0  0
 25 55  1  0  0  0  0
 26 61  1  0  0  0  0
 27 81  1  0  0  0  0
 28 82  1  0  0  0  0
 29 31  2  0  0  0  0
 29 81  1  0  0  0  0
 30 83  1  0  0  0  0
 31 84  1  0  0  0  0
 32 66  2  0  0  0  0
 33 67  1  0  0  0  0
 33 70  1  0  0  0  0
 34 71  1  0  0  0  0
 34 76  2  0  0  0  0
 35 51  1  0  0  0  0
 35 72  1  0  0  0  0
 35 77  2  0  0  0  0
 36 63  1  0  0  0  0
 36 68  1  0  0  0  0
 36 78  2  0  0  0  0
 37 64  1  0  0  0  0
 37 73  1  0  0  0  0
 37 79  2  0  0  0  0
 38 69  1  0  0  0  0
 38 74  1  0  0  0  0
 38 80  2  0  0  0  0
 39 42  1  0  0  0  0
 40 51  1  0  0  0  0
 41 68  1  0  0  0  0
 42 44  1  0  0  0  0
 43 45  1  0  0  0  0
 43 48  1  0  0  0  0
 44 50  1  0  0  0  0
 45 52  1  0  0  0  0
 46 47  1  0  0  0  0
 46 53  1  0  0  0  0
 47 53  1  0  0  0  0
 48 69  1  0  0  0  0
 49 52  1  0  0  0  0
 49 69  1  0  0  0  0
 50 72  1  0  0  0  0
 51 68  1  0  0  0  0
 52 67  1  0  0  0  0
 53 62  1  0  0  0  0
 56 64  1  0  0  0  0
 57 65  1  0  0  0  0
 58 65  1  0  0  0  0
 59 65  1  0  0  0  0
 60 75  1  0  0  0  0
 61 74  1  0  0  0  0
 62 82  1  0  0  0  0
 63 65  1  0  0  0  0
 63 73  1  0  0  0  0
 64 75  1  0  0  0  0
 66 67  1  0  0  0  0
M  CHG  1  75   1
M  ISO  4  38 100  62 101  74 100  82 101
M  END
> <Batch ID>
0167

> <Smiles>
CNC(C)C(=O)NC(C(=O)N1Cc2cc([101O:1][101CH2:1]C3(c4cc(C)c(C[100NH:0][100C:0](=O)N5CCCC(n6nc(-c7ccc(Oc8ccc(F)cc8F)cc7)c(C(N)=O)c6N)C5)cc4C)CC3)ccc2CC1C(=O)NC1CCCc2ccccc21)C(C)(C)C

> <Shape>
0.244

> <Color>
0.124

> <Negative vol penalty>
0.000

$$$$

  -OEChem-04052322273D

 86 95  0     1  0  0  0  0  0999 V2000
  -17.3943  -24.1610   23.4492 C   0  0  0  0  0  0  0  0  0  0  0  0
  -18.3849  -23.6866   22.5954 C   0  0  0  0  0  0  0  0  0  0  0  0
  -26.5728  -13.9724   20.0899 C   0  0  0  0  0  0  0  0  0  0  0  0
  -24.6831  -14.1537   21.5844 C   0  0  0  0  0  0  0  0  0  0  0  0
  -17.2911  -25.5279   23.7039 C   0  0  0  0  0  0  0  0  0  0  0  0
  -19.2722  -24.5790   21.9948 C   0  0  0  0  0  0  0  0  0  0  0  0
  -25.1773  -23.5924   20.7054 C   0  0  0  0  0  0  0  0  0  0  0  0
  -26.0252  -12.8144   19.5380 C   0  0  0  0  0  0  0  0  0  0  0  0
  -24.1355  -12.9957   21.0324 C   0  0  0  0  0  0  0  0  0  0  0  0
  -25.8321  -23.2244   19.5308 C   0  0  0  0  0  0  0  0  0  0  0  0
  -24.5918   -9.6557   21.2917 C   0  0  0  0  0  0  0  0  0  0  0  0
  -24.0784   -8.7000   22.1684 C   0  0  0  0  0  0  0  0  0  0  0  0
  -26.3085  -25.5451   19.0764 C   0  0  0  0  0  0  0  0  0  0  0  0
  -21.9024   -8.9289   21.1438 C   0  0  0  0  0  0  0  0  0  0  0  0
  -29.5483  -21.7901   19.9474 C   0  0  0  0  0  0  0  0  0  0  0  0
  -25.9018  -14.6421   21.1131 C   0  0  0  0  0  0  0  0  0  0  0  0
  -26.2582  -17.1639   21.2592 C   0  0  0  0  0  0  0  0  0  0  0  0
  -18.1837  -26.4366   23.1138 C   0  0  0  0  0  0  0  0  0  0  0  0
  -25.0735  -24.9427   21.0693 C   0  0  0  0  0  0  0  0  0  0  0  0
  -19.1800  -25.9595   22.2408 C   0  0  0  0  0  0  0  0  0  0  0  0
  -25.6540  -25.9274   20.2573 C   0  0  0  0  0  0  0  0  0  0  0  0
  -30.6626  -22.3703   20.5316 C   0  0  0  0  0  0  0  0  0  0  0  0
  -31.0560  -23.6248   20.0790 C   0  0  0  0  0  0  0  0  0  0  0  0
  -30.3331  -24.2518   19.0702 C   0  0  0  0  0  0  0  0  0  0  0  0
  -24.8066  -12.3260   20.0092 C   0  0  0  0  0  0  0  0  0  0  0  0
  -26.3953  -24.2010   18.7147 C   0  0  0  0  0  0  0  0  0  0  0  0
  -23.7604  -10.2481   20.3410 C   0  0  0  0  0  0  0  0  0  0  0  0
  -22.7338   -8.3366   22.0945 C   0  0  0  0  0  0  0  0  0  0  0  0
  -22.4158   -9.8846   20.2670 C   0  0  0  0  0  0  0  0  0  0  0  0
  -26.4672  -15.8381   21.6840 C   0  0  0  0  0  0  0  0  0  0  0  0
  -29.2337  -23.5873   18.5512 C   0  0  0  0  0  0  0  0  0  0  0  0
  -27.0114  -17.9233   22.1208 C   0  0  0  0  0  0  0  0  0  0  0  0
  -25.4549  -17.6641   20.1821 C   0  0  0  0  0  0  0  0  0  0  0  0
  -22.6631  -26.9640   21.5254 C   0  0  0  0  0  0  0  0  0  0  0  0
  -25.0286  -28.9510   22.5145 C   0  0  0  0  0  0  0  0  0  0  0  0
  -28.3344  -29.7931   22.4183 C   0  0  0  0  0  0  0  0  0  0  0  0
  -31.5552  -18.9491   24.9872 C   0  0  0  0  0  0  0  0  0  0  0  0
  -18.0031  -27.9097   23.3821 C   0  0  0  0  0  0  0  0  0  0  0  0
  -24.3871  -25.3212   22.3530 C   0  0  0  0  0  0  0  0  0  0  0  0
  -25.5878  -27.3894   20.6135 C   0  0  0  0  0  0  0  0  0  0  0  0
  -19.2177  -28.7517   23.0003 C   0  0  0  0  0  0  0  0  0  0  0  0
  -29.3595  -16.6968   26.4218 C   0  0  0  0  0  0  0  0  0  0  0  0
  -19.7259  -28.3591   21.6166 C   0  0  0  0  0  0  0  0  0  0  0  0
  -28.3847  -16.3712   25.2901 C   0  0  0  0  0  0  0  0  0  0  0  0
  -30.9035  -22.0212   23.0294 C   0  0  0  0  0  0  0  0  0  0  0  0
  -31.3701  -20.1122   21.4360 C   0  0  0  0  0  0  0  0  0  0  0  0
  -30.7910  -16.7784   25.9035 C   0  0  0  0  0  0  0  0  0  0  0  0
  -31.6478  -21.2594   24.1235 C   0  0  0  0  0  0  0  0  0  0  0  0
  -32.1049  -19.3948   22.5646 C   0  0  0  0  0  0  0  0  0  0  0  0
  -30.0077  -17.4475   23.6556 C   0  0  0  0  0  0  0  0  0  0  0  0
  -31.4124  -21.6384   21.6289 C   0  0  0  0  0  0  0  0  0  0  0  0
  -20.1768  -26.8937   21.5898 C   0  0  1  0  0  0  0  0  0  0  0  0
  -23.8940  -26.7648   22.3638 C   0  0  1  0  0  0  0  0  0  0  0  0
  -28.5413  -17.3633   24.1242 C   0  0  1  0  0  0  0  0  0  0  0  0
  -32.2519  -24.2948   20.6761 C   0  0  0  0  0  0  0  0  0  0  0  0
  -30.7288  -25.5984   18.5642 C   0  0  0  0  0  0  0  0  0  0  0  0
  -28.9059  -23.8283   16.0657 C   0  0  0  0  0  0  0  0  0  0  0  0
  -29.9619  -31.4880   23.2992 C   0  0  0  0  0  0  0  0  0  0  0  0
  -23.9705  -31.0012   20.5178 C   0  0  0  0  0  0  0  0  0  0  0  0
  -26.1342  -32.2394   20.7486 C   0  0  0  0  0  0  0  0  0  0  0  0
  -24.6462  -31.9520   22.7300 C   0  0  0  0  0  0  0  0  0  0  0  0
  -29.9161  -27.7189   23.8165 C   0  0  0  0  0  0  0  0  0  0  0  0
  -28.4189  -24.2102   17.4652 C   0  0  1  0  0  0  0  0  0  1  0  0
  -25.9272  -29.9610   21.8427 C   0  0  1  0  0  0  0  0  0  0  0  0
  -29.3214  -30.1269   23.5224 C   0  0  2  0  0  0  0  0  0  0  0  0
  -25.1693  -31.2611   21.4518 C   0  0  0  0  0  0  0  0  0  0  0  0
  -28.8210  -22.3683   18.9653 N   0  0  0  0  0  0  0  0  0  0  0  0
  -27.2890  -15.7566   22.7338 N   0  0  0  0  0  0  0  0  0  0  0  0
  -27.6030  -17.0407   22.9758 N   0  0  0  0  0  0  0  0  0  0  0  0
  -24.9006  -27.7096   21.8756 N   0  0  0  0  0  0  0  0  0  0  0  0
  -30.8964  -17.7254   24.7936 N   0  0  0  0  0  0  0  0  0  0  0  0
  -31.6169  -19.8170   23.8846 N   0  0  0  0  0  0  0  0  0  0  0  0
  -27.2188  -19.2534   22.2228 N   0  0  0  0  0  0  0  0  0  0  0  0
  -24.7456  -16.7463   19.3954 N   0  0  0  0  0  0  0  0  0  0  0  0
  -21.4789  -26.7542   22.2059 N   0  0  0  0  0  0  0  0  0  0  0  0
  -27.0509  -30.1739   22.7484 N   0  0  0  0  0  0  0  0  0  0  0  0
  -30.4022  -29.1023   23.5782 N   0  3  0  0  0  0  0  0  0  0  0  0
  -25.3816  -18.8875   19.9147 O   0  0  0  0  0  0  0  0  0  0  0  0
  -22.7791  -27.2857   20.3487 O   0  0  0  0  0  0  0  0  0  0  0  0
  -24.4668  -29.2500   23.5713 O   0  0  0  0  0  0  0  0  0  0  0  0
  -28.6692  -29.2523   21.3667 O   0  0  0  0  0  0  0  0  0  0  0  0
  -32.0534  -19.2526   26.0783 O   0  0  0  0  0  0  0  0  0  0  0  0
  -24.2718  -11.1961   19.4707 O   0  0  0  0  0  0  0  0  0  0  0  0
  -27.0365  -23.8434   17.5637 O   0  0  0  0  0  0  0  0  0  1  0  0
  -22.2413   -7.4177   22.9355 F   0  0  0  0  0  0  0  0  0  0  0  0
  -21.6126  -10.4493   19.3551 F   0  0  0  0  0  0  0  0  0  0  0  0
  1  2  1  0  0  0  0
  1  5  2  0  0  0  0
  2  6  2  0  0  0  0
  3  8  2  0  0  0  0
  3 16  1  0  0  0  0
  4  9  1  0  0  0  0
  4 16  2  0  0  0  0
  5 18  1  0  0  0  0
  6 20  1  0  0  0  0
  7 10  2  0  0  0  0
  7 19  1  0  0  0  0
  8 25  1  0  0  0  0
  9 25  2  0  0  0  0
 10 26  1  0  0  0  0
 11 12  2  0  0  0  0
 11 27  1  0  0  0  0
 12 28  1  0  0  0  0
 13 21  1  0  0  0  0
 13 26  2  0  0  0  0
 14 28  2  0  0  0  0
 14 29  1  0  0  0  0
 15 22  1  0  0  0  0
 15 67  2  0  0  0  0
 16 30  1  0  0  0  0
 17 30  1  0  0  0  0
 17 32  2  0  0  0  0
 17 33  1  0  0  0  0
 18 20  2  0  0  0  0
 18 38  1  0  0  0  0
 19 21  2  0  0  0  0
 19 39  1  0  0  0  0
 20 52  1  0  0  0  0
 21 40  1  0  0  0  0
 22 23  2  0  0  0  0
 22 51  1  0  0  0  0
 23 24  1  0  0  0  0
 23 55  1  0  0  0  0
 24 31  2  0  0  0  0
 24 56  1  0  0  0  0
 25 83  1  0  0  0  0
 26 84  1  0  0  0  0
 27 29  2  0  0  0  0
 27 83  1  0  0  0  0
 28 85  1  0  0  0  0
 29 86  1  0  0  0  0
 30 68  2  0  0  0  0
 31 63  1  0  0  0  0
 31 67  1  0  0  0  0
 32 69  1  0  0  0  0
 32 73  1  0  0  0  0
 33 74  1  0  0  0  0
 33 78  2  0  0  0  0
 34 53  1  0  0  0  0
 34 75  1  0  0  0  0
 34 79  2  0  0  0  0
 35 64  1  0  0  0  0
 35 70  1  0  0  0  0
 35 80  2  0  0  0  0
 36 65  1  0  0  0  0
 36 76  1  0  0  0  0
 36 81  2  0  0  0  0
 37 71  1  0  0  0  0
 37 72  1  0  0  0  0
 37 82  2  0  0  0  0
 38 41  1  0  0  0  0
 39 53  1  0  0  0  0
 40 70  1  0  0  0  0
 41 43  1  0  0  0  0
 42 44  1  0  0  0  0
 42 47  1  0  0  0  0
 43 52  1  0  0  0  0
 44 54  1  0  0  0  0
 45 48  1  0  0  0  0
 45 51  1  0  0  0  0
 46 49  1  0  0  0  0
 46 51  1  0  0  0  0
 47 71  1  0  0  0  0
 48 72  1  0  0  0  0
 49 72  1  0  0  0  0
 50 54  1  0  0  0  0
 50 71  1  0  0  0  0
 52 75  1  0  0  0  0
 53 70  1  0  0  0  0
 54 69  1  0  0  0  0
 57 63  1  0  0  0  0
 58 65  1  0  0  0  0
 59 66  1  0  0  0  0
 60 66  1  0  0  0  0
 61 66  1  0  0  0  0
 62 77  1  0  0  0  0
 63 84  1  0  0  0  0
 64 66  1  0  0  0  0
 64 76  1  0  0  0  0
 65 77  1  0  0  0  0
 68 69  1  0  0  0  0
M  CHG  1  77   1
M  ISO  4  37 100  63 101  72 100  84 101
M  END
> <Batch ID>
0167

> <Smiles>
CNC(C)C(=O)NC(C(=O)N1Cc2cc([101O:1][101CH:1](C)c3ncc(C4CC[100N:0]([100C:0](=O)N5CCCC(n6nc(-c7ccc(Oc8ccc(F)cc8F)cc7)c(C(N)=O)c6N)C5)CC4)c(C)c3C)ccc2CC1C(=O)NC1CCCc2ccccc21)C(C)(C)C

> <Shape>
0.232

> <Color>
0.064

> <Negative vol penalty>
0.000

$$$$

  -OEChem-04052322273D

 86 95  0     1  0  0  0  0  0999 V2000
  -28.7130  -17.6632   19.5646 C   0  0  0  0  0  0  0  0  0  0  0  0
  -27.5641  -18.3790   19.2433 C   0  0  0  0  0  0  0  0  0  0  0  0
  -23.1630  -13.9130   21.1664 C   0  0  0  0  0  0  0  0  0  0  0  0
  -24.9855  -14.8756   22.4270 C   0  0  0  0  0  0  0  0  0  0  0  0
  -29.6276  -18.1879   20.4767 C   0  0  0  0  0  0  0  0  0  0  0  0
  -27.3287  -19.6196   19.8350 C   0  0  0  0  0  0  0  0  0  0  0  0
  -24.3583  -25.9901   18.4533 C   0  0  0  0  0  0  0  0  0  0  0  0
  -24.0288  -12.9485   20.6510 C   0  0  0  0  0  0  0  0  0  0  0  0
  -25.8513  -13.9110   21.9117 C   0  0  0  0  0  0  0  0  0  0  0  0
  -23.4320  -26.8851   18.9870 C   0  0  0  0  0  0  0  0  0  0  0  0
  -28.6196  -11.9225   20.6499 C   0  0  0  0  0  0  0  0  0  0  0  0
  -29.8681  -12.3480   20.1963 C   0  0  0  0  0  0  0  0  0  0  0  0
  -25.1210  -27.7282   20.4888 C   0  0  0  0  0  0  0  0  0  0  0  0
  -18.6415  -27.2807   21.6922 C   0  0  0  0  0  0  0  0  0  0  0  0
  -21.0104  -27.0590   23.1489 C   0  0  0  0  0  0  0  0  0  0  0  0
  -28.7912  -13.7868   18.5817 C   0  0  0  0  0  0  0  0  0  0  0  0
  -23.6413  -14.8766   22.0543 C   0  0  0  0  0  0  0  0  0  0  0  0
  -21.9801  -15.7859   23.7634 C   0  0  0  0  0  0  0  0  0  0  0  0
  -29.4081  -19.4399   21.0726 C   0  0  0  0  0  0  0  0  0  0  0  0
  -25.6721  -25.9499   18.9417 C   0  0  0  0  0  0  0  0  0  0  0  0
  -28.2406  -20.1609   20.7570 C   0  0  0  0  0  0  0  0  0  0  0  0
  -26.0627  -26.8336   19.9579 C   0  0  0  0  0  0  0  0  0  0  0  0
  -18.9245  -26.1058   22.3887 C   0  0  0  0  0  0  0  0  0  0  0  0
  -20.1090  -25.9950   23.1171 C   0  0  0  0  0  0  0  0  0  0  0  0
  -20.7274  -28.2339   22.4523 C   0  0  0  0  0  0  0  0  0  0  0  0
  -25.3730  -12.9474   21.0237 C   0  0  0  0  0  0  0  0  0  0  0  0
  -23.8125  -27.7523   20.0069 C   0  0  0  0  0  0  0  0  0  0  0  0
  -27.4569  -12.4291   20.0693 C   0  0  0  0  0  0  0  0  0  0  0  0
  -19.5430  -28.3447   21.7239 C   0  0  0  0  0  0  0  0  0  0  0  0
  -29.9540  -13.2802   19.1622 C   0  0  0  0  0  0  0  0  0  0  0  0
  -27.5427  -13.3613   19.0352 C   0  0  0  0  0  0  0  0  0  0  0  0
  -22.7475  -15.8736   22.5865 C   0  0  0  0  0  0  0  0  0  0  0  0
  -21.3073  -16.9818   23.8246 C   0  0  0  0  0  0  0  0  0  0  0  0
  -21.8839  -14.7189   24.7163 C   0  0  0  0  0  0  0  0  0  0  0  0
  -27.4643  -23.7537   20.3800 C   0  0  0  0  0  0  0  0  0  0  0  0
  -29.7917  -25.9862   20.0308 C   0  0  0  0  0  0  0  0  0  0  0  0
  -30.6166  -29.2741   19.6361 C   0  0  0  0  0  0  0  0  0  0  0  0
  -21.2753  -22.4439   23.4918 C   0  0  0  0  0  0  0  0  0  0  0  0
  -30.4019  -19.9446   22.0886 C   0  0  0  0  0  0  0  0  0  0  0  0
  -26.6666  -24.9971   18.3370 C   0  0  0  0  0  0  0  0  0  0  0  0
  -27.4666  -26.8442   20.5033 C   0  0  0  0  0  0  0  0  0  0  0  0
  -30.2635  -21.4352   22.3876 C   0  0  0  0  0  0  0  0  0  0  0  0
  -20.7962  -20.6541   20.3830 C   0  0  0  0  0  0  0  0  0  0  0  0
  -18.1373  -23.8891   21.3210 C   0  0  0  0  0  0  0  0  0  0  0  0
  -17.0165  -24.8682   21.1616 C   0  0  0  0  0  0  0  0  0  0  0  0
  -28.7998  -21.8009   22.6127 C   0  0  0  0  0  0  0  0  0  0  0  0
  -21.2016  -19.2345   20.7838 C   0  0  0  0  0  0  0  0  0  0  0  0
  -21.6764  -21.6948   21.0688 C   0  0  0  0  0  0  0  0  0  0  0  0
  -22.1135  -20.1735   22.9579 C   0  0  0  0  0  0  0  0  0  0  0  0
  -17.9457  -24.9798   22.3408 C   0  0  0  0  0  0  0  0  0  0  0  0
  -27.9622  -21.5211   21.3590 C   0  0  1  0  0  0  0  0  0  0  0  0
  -27.8380  -24.6881   19.2642 C   0  0  1  0  0  0  0  0  0  0  0  0
  -21.2463  -19.0758   22.3151 C   0  0  2  0  0  0  0  0  0  0  0  0
  -21.8914  -29.9080   23.9267 C   0  0  0  0  0  0  0  0  0  0  0  0
  -32.6010  -30.7949   19.4194 C   0  0  0  0  0  0  0  0  0  0  0  0
  -30.3074  -25.7362   23.0277 C   0  0  0  0  0  0  0  0  0  0  0  0
  -31.5798  -27.8896   22.9177 C   0  0  0  0  0  0  0  0  0  0  0  0
  -32.3706  -25.9083   21.6248 C   0  0  0  0  0  0  0  0  0  0  0  0
  -29.7744  -30.1809   16.9477 C   0  0  0  0  0  0  0  0  0  0  0  0
  -18.0190  -29.5124   20.3204 C   0  0  0  0  0  0  0  0  0  0  0  0
  -20.4353  -24.7477   23.8714 C   0  0  0  0  0  0  0  0  0  0  0  0
  -23.0794  -28.9932   21.8986 C   0  0  0  0  0  0  0  0  0  1  0  0
  -21.7216  -29.3836   22.4981 C   0  0  1  0  0  0  0  0  0  0  0  0
  -30.2992  -27.1403   20.8610 C   0  0  1  0  0  0  0  0  0  0  0  0
  -31.5661  -29.9660   18.6746 C   0  0  2  0  0  0  0  0  0  0  0  0
  -31.1122  -26.6673   22.0991 C   0  0  0  0  0  0  0  0  0  0  0  0
  -22.5786  -17.0335   21.9461 N   0  0  0  0  0  0  0  0  0  0  0  0
  -21.6972  -17.6856   22.7233 N   0  0  0  0  0  0  0  0  0  0  0  0
  -28.4007  -25.8896   19.8838 N   0  0  0  0  0  0  0  0  0  0  0  0
  -21.6607  -21.4999   22.5255 N   0  0  0  0  0  0  0  0  0  0  0  0
  -20.4261  -17.4894   24.7123 N   0  0  0  0  0  0  0  0  0  0  0  0
  -22.6434  -13.5607   24.5012 N   0  0  0  0  0  0  0  0  0  0  0  0
  -28.1638  -22.5620   20.3739 N   0  0  0  0  0  0  0  0  0  0  0  0
  -31.0451  -28.0017   19.9499 N   0  0  0  0  0  0  0  0  0  0  0  0
  -20.8664  -23.6774   22.9998 N   0  0  0  0  0  0  0  0  0  0  0  0
  -30.8107  -30.8684   17.7602 N   0  3  0  0  0  0  0  0  0  0  0  0
  -21.1340  -14.7837   25.7197 O   0  0  0  0  0  0  0  0  0  0  0  0
  -26.6061  -24.0898   21.1875 O   0  0  0  0  0  0  0  0  0  0  0  0
  -30.5999  -25.2034   19.5252 O   0  0  0  0  0  0  0  0  0  0  0  0
  -29.5988  -29.8103   20.0685 O   0  0  0  0  0  0  0  0  0  0  0  0
  -21.2895  -22.2036   24.7039 O   0  0  0  0  0  0  0  0  0  0  0  0
  -26.2181  -12.0062   20.5212 O   0  0  0  0  0  0  0  0  0  0  0  0
  -19.2511  -29.4853   21.0380 O   0  0  0  0  0  0  0  0  0  0  0  0
  -22.9102  -28.6264   20.5300 O   0  0  0  0  0  0  0  0  0  1  0  0
  -31.1530  -13.6899   18.7278 F   0  0  0  0  0  0  0  0  0  0  0  0
  -26.4291  -13.8524   18.4744 F   0  0  0  0  0  0  0  0  0  0  0  0
  1  2  1  0  0  0  0
  1  5  2  0  0  0  0
  2  6  2  0  0  0  0
  3  8  2  0  0  0  0
  3 17  1  0  0  0  0
  4  9  1  0  0  0  0
  4 17  2  0  0  0  0
  5 19  1  0  0  0  0
  6 21  1  0  0  0  0
  7 10  2  0  0  0  0
  7 20  1  0  0  0  0
  8 26  1  0  0  0  0
  9 26  2  0  0  0  0
 10 27  1  0  0  0  0
 11 12  2  0  0  0  0
 11 28  1  0  0  0  0
 12 30  1  0  0  0  0
 13 22  1  0  0  0  0
 13 27  2  0  0  0  0
 14 23  2  0  0  0  0
 14 29  1  0  0  0  0
 15 24  2  0  0  0  0
 15 25  1  0  0  0  0
 16 30  2  0  0  0  0
 16 31  1  0  0  0  0
 17 32  1  0  0  0  0
 18 32  1  0  0  0  0
 18 33  2  0  0  0  0
 18 34  1  0  0  0  0
 19 21  2  0  0  0  0
 19 39  1  0  0  0  0
 20 22  2  0  0  0  0
 20 40  1  0  0  0  0
 21 51  1  0  0  0  0
 22 41  1  0  0  0  0
 23 24  1  0  0  0  0
 23 50  1  0  0  0  0
 24 61  1  0  0  0  0
 25 29  2  0  0  0  0
 25 63  1  0  0  0  0
 26 82  1  0  0  0  0
 27 84  1  0  0  0  0
 28 31  2  0  0  0  0
 28 82  1  0  0  0  0
 29 83  1  0  0  0  0
 30 85  1  0  0  0  0
 31 86  1  0  0  0  0
 32 67  2  0  0  0  0
 33 68  1  0  0  0  0
 33 71  1  0  0  0  0
 34 72  1  0  0  0  0
 34 77  2  0  0  0  0
 35 52  1  0  0  0  0
 35 73  1  0  0  0  0
 35 78  2  0  0  0  0
 36 64  1  0  0  0  0
 36 69  1  0  0  0  0
 36 79  2  0  0  0  0
 37 65  1  0  0  0  0
 37 74  1  0  0  0  0
 37 80  2  0  0  0  0
 38 70  1  0  0  0  0
 38 75  1  0  0  0  0
 38 81  2  0  0  0  0
 39 42  1  0  0  0  0
 40 52  1  0  0  0  0
 41 69  1  0  0  0  0
 42 46  1  0  0  0  0
 43 47  1  0  0  0  0
 43 48  1  0  0  0  0
 44 45  1  0  0  0  0
 44 50  1  0  0  0  0
 45 50  1  0  0  0  0
 46 51  1  0  0  0  0
 47 53  1  0  0  0  0
 48 70  1  0  0  0  0
 49 53  1  0  0  0  0
 49 70  1  0  0  0  0
 51 73  1  0  0  0  0
 52 69  1  0  0  0  0
 53 68  1  0  0  0  0
 54 63  1  0  0  0  0
 55 65  1  0  0  0  0
 56 66  1  0  0  0  0
 57 66  1  0  0  0  0
 58 66  1  0  0  0  0
 59 76  1  0  0  0  0
 60 83  1  0  0  0  0
 61 75  1  0  0  0  0
 62 63  1  0  0  0  0
 62 84  1  0  0  0  0
 64 66  1  0  0  0  0
 64 74  1  0  0  0  0
 65 76  1  0  0  0  0
 67 68  1  0  0  0  0
M  CHG  1  76   1
M  ISO  4  38 100  62 101  75 100  84 101
M  END
> <Batch ID>
0167

> <Smiles>
CNC(C)C(=O)NC(C(=O)N1Cc2cc([101O:1][101CH2:1]C(C)c3cc(C[100NH:0][100C:0](=O)N4CCCC(n5nc(-c6ccc(Oc7ccc(F)cc7F)cc6)c(C(N)=O)c5N)C4)c(C4CC4)cc3OC)ccc2CC1C(=O)NC1CCCc2ccccc21)C(C)(C)C

> <Shape>
0.242

> <Color>
0.064

> <Negative vol penalty>
0.000

$$$$

  -OEChem-04052322273D

 87 97  0     1  0  0  0  0  0999 V2000
  -29.3088  -36.7105   23.8051 C   0  0  0  0  0  0  0  0  0  0  0  0
  -29.6303  -35.6451   22.9701 C   0  0  0  0  0  0  0  0  0  0  0  0
  -24.6452   -8.5616   21.3360 C   0  0  0  0  0  0  0  0  0  0  0  0
  -23.3233  -10.5429   21.7409 C   0  0  0  0  0  0  0  0  0  0  0  0
  -28.3425  -36.5500   24.7973 C   0  0  0  0  0  0  0  0  0  0  0  0
  -28.9864  -34.4183   23.1277 C   0  0  0  0  0  0  0  0  0  0  0  0
  -26.6820  -28.7951   19.3349 C   0  0  0  0  0  0  0  0  0  0  0  0
  -23.9474   -7.8907   22.3403 C   0  0  0  0  0  0  0  0  0  0  0  0
  -22.6254   -9.8721   22.7452 C   0  0  0  0  0  0  0  0  0  0  0  0
  -26.7724  -27.4041   19.3080 C   0  0  0  0  0  0  0  0  0  0  0  0
  -22.2696   -5.5436   24.5519 C   0  0  0  0  0  0  0  0  0  0  0  0
  -21.8383   -4.2443   24.2850 C   0  0  0  0  0  0  0  0  0  0  0  0
  -27.4152  -21.1662   20.4896 C   0  0  0  0  0  0  0  0  0  0  0  0
  -25.0630  -27.2663   21.0046 C   0  0  0  0  0  0  0  0  0  0  0  0
  -20.5209   -5.0621   22.4322 C   0  0  0  0  0  0  0  0  0  0  0  0
  -24.3332   -9.8877   21.0363 C   0  0  0  0  0  0  0  0  0  0  0  0
  -24.7268  -10.6427   18.6316 C   0  0  0  0  0  0  0  0  0  0  0  0
  -27.6796  -35.3235   24.9608 C   0  0  0  0  0  0  0  0  0  0  0  0
  -25.7877  -29.4336   20.2061 C   0  0  0  0  0  0  0  0  0  0  0  0
  -28.0113  -34.2410   24.1239 C   0  0  0  0  0  0  0  0  0  0  0  0
  -26.7907  -20.4315   19.4818 C   0  0  0  0  0  0  0  0  0  0  0  0
  -24.9614  -28.6655   21.0387 C   0  0  0  0  0  0  0  0  0  0  0  0
  -26.2943  -22.4781   18.2975 C   0  0  0  0  0  0  0  0  0  0  0  0
  -27.4792  -22.5569   20.4015 C   0  0  0  0  0  0  0  0  0  0  0  0
  -26.2303  -21.0874   18.3857 C   0  0  0  0  0  0  0  0  0  0  0  0
  -26.9188  -23.2128   19.3054 C   0  0  0  0  0  0  0  0  0  0  0  0
  -22.9375   -8.5460   23.0449 C   0  0  0  0  0  0  0  0  0  0  0  0
  -25.9649  -26.6396   20.1450 C   0  0  0  0  0  0  0  0  0  0  0  0
  -21.8265   -6.6023   23.7590 C   0  0  0  0  0  0  0  0  0  0  0  0
  -20.9640   -4.0035   23.2252 C   0  0  0  0  0  0  0  0  0  0  0  0
  -20.9522   -6.3615   22.6992 C   0  0  0  0  0  0  0  0  0  0  0  0
  -25.0541  -10.5814   19.9994 C   0  0  0  0  0  0  0  0  0  0  0  0
  -25.7158  -11.4171   18.0762 C   0  0  0  0  0  0  0  0  0  0  0  0
  -23.6269  -10.0525   17.9262 C   0  0  0  0  0  0  0  0  0  0  0  0
  -26.0852  -31.4606   22.6364 C   0  0  0  0  0  0  0  0  0  0  0  0
  -22.8448  -31.5003   22.4920 C   0  0  0  0  0  0  0  0  0  0  0  0
  -19.9662  -29.9165   21.5690 C   0  0  0  0  0  0  0  0  0  0  0  0
  -29.0123  -15.9973   19.3543 C   0  0  0  0  0  0  0  0  0  0  0  0
  -26.6761  -35.1840   26.0780 C   0  0  0  0  0  0  0  0  0  0  0  0
  -25.6833  -30.9341   20.2038 C   0  0  0  0  0  0  0  0  0  0  0  0
  -23.9705  -29.3017   21.9778 C   0  0  0  0  0  0  0  0  0  0  0  0
  -25.7721  -33.9621   25.9358 C   0  0  0  0  0  0  0  0  0  0  0  0
  -30.2922  -12.7041   19.3617 C   0  0  0  0  0  0  0  0  0  0  0  0
  -24.6721  -24.2598   17.3659 C   0  0  0  0  0  0  0  0  0  0  0  0
  -24.2446  -22.9442   16.7942 C   0  0  0  0  0  0  0  0  0  0  0  0
  -26.5960  -32.7260   25.5893 C   0  0  0  0  0  0  0  0  0  0  0  0
  -29.0513  -11.8183   19.4292 C   0  0  0  0  0  0  0  0  0  0  0  0
  -26.7410  -18.3427   21.0258 C   0  0  0  0  0  0  0  0  0  0  0  0
  -30.1097  -13.9563   20.2089 C   0  0  0  0  0  0  0  0  0  0  0  0
  -27.0849  -16.8774   20.7948 C   0  0  0  0  0  0  0  0  0  0  0  0
  -27.9235  -18.1883   18.9725 C   0  0  0  0  0  0  0  0  0  0  0  0
  -27.6555  -13.9068   19.8564 C   0  0  0  0  0  0  0  0  0  0  0  0
  -26.7331  -18.9248   19.6029 C   0  0  2  0  0  0  0  0  0  0  0  0
  -25.6927  -23.1825   17.1225 C   0  0  0  0  0  0  0  0  0  0  0  0
  -27.3171  -32.9020   24.2475 C   0  0  1  0  0  0  0  0  0  0  0  0
  -25.1039  -31.4946   21.4990 C   0  0  1  0  0  0  0  0  0  0  0  0
  -27.7971  -12.6115   19.0305 C   0  0  2  0  0  0  0  0  0  0  0  0
  -28.1540  -23.3197   21.4946 C   0  0  0  0  0  0  0  0  0  0  0  0
  -25.5606  -20.2958   17.3071 C   0  0  0  0  0  0  0  0  0  0  0  0
  -17.4711  -30.1795   21.6158 C   0  0  0  0  0  0  0  0  0  0  0  0
  -22.8288  -30.7965   25.4610 C   0  0  0  0  0  0  0  0  0  0  0  0
  -20.4221  -30.1487   25.2230 C   0  0  0  0  0  0  0  0  0  0  0  0
  -21.1282  -32.5005   24.7836 C   0  0  0  0  0  0  0  0  0  0  0  0
  -19.7874  -29.8490   18.6156 C   0  0  0  0  0  0  0  0  0  0  0  0
  -26.9894  -24.7047   19.2164 C   0  0  0  0  0  0  0  0  0  1  0  0
  -21.7366  -30.6930   23.1238 C   0  0  1  0  0  0  0  0  0  0  0  0
  -18.7436  -30.4075   20.8150 C   0  0  2  0  0  0  0  0  0  0  0  0
  -21.5489  -31.0224   24.6316 C   0  0  0  0  0  0  0  0  0  0  0  0
  -26.1645  -11.2624   20.2949 N   0  0  0  0  0  0  0  0  0  0  0  0
  -26.5435  -11.7590   19.1050 N   0  0  0  0  0  0  0  0  0  0  0  0
  -23.9101  -30.7723   21.9433 N   0  0  0  0  0  0  0  0  0  0  0  0
  -28.8976  -14.6903   19.8407 N   0  0  0  0  0  0  0  0  0  0  0  0
  -27.9832  -16.8929   19.6421 N   0  0  0  0  0  0  0  0  0  0  0  0
  -25.9497  -11.8321   16.8131 N   0  0  0  0  0  0  0  0  0  0  0  0
  -22.7025   -9.2869   18.6499 N   0  0  0  0  0  0  0  0  0  0  0  0
  -26.3956  -32.7058   23.1490 N   0  0  0  0  0  0  0  0  0  0  0  0
  -20.5483  -30.9236   22.3093 N   0  0  0  0  0  0  0  0  0  0  0  0
  -18.6150  -29.6915   19.5143 N   0  3  0  0  0  0  0  0  0  0  0  0
  -23.4776  -10.1860   16.6879 O   0  0  0  0  0  0  0  0  0  0  0  0
  -26.5268  -30.3843   23.0214 O   0  0  0  0  0  0  0  0  0  0  0  0
  -22.7647  -32.7312   22.4794 O   0  0  0  0  0  0  0  0  0  0  0  0
  -20.3629  -28.7547   21.5103 O   0  0  0  0  0  0  0  0  0  0  0  0
  -30.0133  -16.3627   18.7232 O   0  0  0  0  0  0  0  0  0  0  0  0
  -22.2562   -7.8916   24.0248 O   0  0  0  0  0  0  0  0  0  0  0  0
  -26.0522  -25.2716   20.1211 O   0  0  0  0  0  0  0  0  0  1  0  0
  -20.5511   -2.7554   22.9680 F   0  0  0  0  0  0  0  0  0  0  0  0
  -20.5240   -7.3743   21.9333 F   0  0  0  0  0  0  0  0  0  0  0  0
  1  2  1  0  0  0  0
  1  5  2  0  0  0  0
  2  6  2  0  0  0  0
  3  8  2  0  0  0  0
  3 16  1  0  0  0  0
  4  9  1  0  0  0  0
  4 16  2  0  0  0  0
  5 18  1  0  0  0  0
  6 20  1  0  0  0  0
  7 10  2  0  0  0  0
  7 19  1  0  0  0  0
  8 27  1  0  0  0  0
  9 27  2  0  0  0  0
 10 28  1  0  0  0  0
 11 12  2  0  0  0  0
 11 29  1  0  0  0  0
 12 30  1  0  0  0  0
 13 21  1  0  0  0  0
 13 24  2  0  0  0  0
 14 22  1  0  0  0  0
 14 28  2  0  0  0  0
 15 30  2  0  0  0  0
 15 31  1  0  0  0  0
 16 32  1  0  0  0  0
 17 32  1  0  0  0  0
 17 33  2  0  0  0  0
 17 34  1  0  0  0  0
 18 20  2  0  0  0  0
 18 39  1  0  0  0  0
 19 22  2  0  0  0  0
 19 40  1  0  0  0  0
 20 55  1  0  0  0  0
 21 25  2  0  0  0  0
 21 53  1  0  0  0  0
 22 41  1  0  0  0  0
 23 25  1  0  0  0  0
 23 26  2  0  0  0  0
 23 54  1  0  0  0  0
 24 26  1  0  0  0  0
 24 58  1  0  0  0  0
 25 59  1  0  0  0  0
 26 65  1  0  0  0  0
 27 84  1  0  0  0  0
 28 85  1  0  0  0  0
 29 31  2  0  0  0  0
 29 84  1  0  0  0  0
 30 86  1  0  0  0  0
 31 87  1  0  0  0  0
 32 69  2  0  0  0  0
 33 70  1  0  0  0  0
 33 74  1  0  0  0  0
 34 75  1  0  0  0  0
 34 79  2  0  0  0  0
 35 56  1  0  0  0  0
 35 76  1  0  0  0  0
 35 80  2  0  0  0  0
 36 66  1  0  0  0  0
 36 71  1  0  0  0  0
 36 81  2  0  0  0  0
 37 67  1  0  0  0  0
 37 77  1  0  0  0  0
 37 82  2  0  0  0  0
 38 72  1  0  0  0  0
 38 73  1  0  0  0  0
 38 83  2  0  0  0  0
 39 42  1  0  0  0  0
 40 56  1  0  0  0  0
 41 71  1  0  0  0  0
 42 46  1  0  0  0  0
 43 47  1  0  0  0  0
 43 49  1  0  0  0  0
 44 45  1  0  0  0  0
 44 54  1  0  0  0  0
 45 54  1  0  0  0  0
 46 55  1  0  0  0  0
 47 57  1  0  0  0  0
 48 50  1  0  0  0  0
 48 53  1  0  0  0  0
 49 72  1  0  0  0  0
 50 73  1  0  0  0  0
 51 53  1  0  0  0  0
 51 73  1  0  0  0  0
 52 57  1  0  0  0  0
 52 72  1  0  0  0  0
 55 76  1  0  0  0  0
 56 71  1  0  0  0  0
 57 70  1  0  0  0  0
 60 67  1  0  0  0  0
 61 68  1  0  0  0  0
 62 68  1  0  0  0  0
 63 68  1  0  0  0  0
 64 78  1  0  0  0  0
 65 85  1  0  0  0  0
 66 68  1  0  0  0  0
 66 77  1  0  0  0  0
 67 78  1  0  0  0  0
 69 70  1  0  0  0  0
M  CHG  1  78   1
M  ISO  4  38 100  65 101  73 100  85 101
M  END
> <Batch ID>
0167

> <Smiles>
CNC(C)C(=O)NC(C(=O)N1Cc2cc([101O:1][101CH2:1]c3c(C)cc(C4CC[100N:0]([100C:0](=O)N5CCCC(n6nc(-c7ccc(Oc8ccc(F)cc8F)cc7)c(C(N)=O)c6N)C5)C4)c(C)c3C3CC3)ccc2CC1C(=O)NC1CCCc2ccccc21)C(C)(C)C

> <Shape>
0.271

> <Color>
0.099

> <Negative vol penalty>
0.000

$$$$

  -OEChem-04052322273D

 90100  0     1  0  0  0  0  0999 V2000
  -27.6245  -36.0041   25.3766 C   0  0  0  0  0  0  0  0  0  0  0  0
  -28.0062  -34.7185   25.0067 C   0  0  0  0  0  0  0  0  0  0  0  0
  -23.6787  -10.3677   22.6757 C   0  0  0  0  0  0  0  0  0  0  0  0
  -24.4201   -8.5740   21.2369 C   0  0  0  0  0  0  0  0  0  0  0  0
  -26.2718  -36.3275   25.4741 C   0  0  0  0  0  0  0  0  0  0  0  0
  -27.0354  -33.7551   24.7351 C   0  0  0  0  0  0  0  0  0  0  0  0
  -27.3554  -29.2787   20.5679 C   0  0  0  0  0  0  0  0  0  0  0  0
  -22.5379   -9.6345   23.0020 C   0  0  0  0  0  0  0  0  0  0  0  0
  -23.2792   -7.8407   21.5633 C   0  0  0  0  0  0  0  0  0  0  0  0
  -27.6823  -27.9270   20.6665 C   0  0  0  0  0  0  0  0  0  0  0  0
  -22.1978   -5.9321   24.1339 C   0  0  0  0  0  0  0  0  0  0  0  0
  -22.3627   -4.5807   24.4373 C   0  0  0  0  0  0  0  0  0  0  0  0
  -25.3381  -27.3768   20.8114 C   0  0  0  0  0  0  0  0  0  0  0  0
  -29.0013  -21.7172   19.8641 C   0  0  0  0  0  0  0  0  0  0  0  0
  -20.9064   -3.9911   22.6019 C   0  0  0  0  0  0  0  0  0  0  0  0
  -24.6198   -9.8375   21.7931 C   0  0  0  0  0  0  0  0  0  0  0  0
  -27.0399  -10.5757   22.1183 C   0  0  0  0  0  0  0  0  0  0  0  0
  -25.2838  -35.3703   25.1941 C   0  0  0  0  0  0  0  0  0  0  0  0
  -26.0155  -29.6912   20.6013 C   0  0  0  0  0  0  0  0  0  0  0  0
  -25.6682  -34.0656   24.8302 C   0  0  0  0  0  0  0  0  0  0  0  0
  -24.9967  -28.7341   20.7104 C   0  0  0  0  0  0  0  0  0  0  0  0
  -28.8095  -21.0565   21.0775 C   0  0  0  0  0  0  0  0  0  0  0  0
  -28.4752  -21.7815   22.2212 C   0  0  0  0  0  0  0  0  0  0  0  0
  -28.3327  -23.1674   22.1517 C   0  0  0  0  0  0  0  0  0  0  0  0
  -28.5245  -23.8281   20.9383 C   0  0  0  0  0  0  0  0  0  0  0  0
  -22.3381   -8.3710   22.4458 C   0  0  0  0  0  0  0  0  0  0  0  0
  -26.6738  -26.9760   20.7912 C   0  0  0  0  0  0  0  0  0  0  0  0
  -21.3872   -6.3131   23.0646 C   0  0  0  0  0  0  0  0  0  0  0  0
  -28.8589  -23.1031   19.7945 C   0  0  0  0  0  0  0  0  0  0  0  0
  -21.7170   -3.6102   23.6713 C   0  0  0  0  0  0  0  0  0  0  0  0
  -20.7415   -5.3425   22.2986 C   0  0  0  0  0  0  0  0  0  0  0  0
  -25.7982  -10.5946   21.4552 C   0  0  0  0  0  0  0  0  0  0  0  0
  -27.8187  -11.4613   21.4141 C   0  0  0  0  0  0  0  0  0  0  0  0
  -27.4525   -9.8248   23.2678 C   0  0  0  0  0  0  0  0  0  0  0  0
  -24.2811  -31.5269   22.5315 C   0  0  0  0  0  0  0  0  0  0  0  0
  -21.9945  -31.0639   20.2778 C   0  0  0  0  0  0  0  0  0  0  0  0
  -20.7688  -29.1271   17.7493 C   0  0  0  0  0  0  0  0  0  0  0  0
  -28.6268  -16.1990   18.7832 C   0  0  0  0  0  0  0  0  0  0  0  0
  -23.8344  -35.7535   25.3589 C   0  0  0  0  0  0  0  0  0  0  0  0
  -25.6782  -31.1509   20.4669 C   0  0  0  0  0  0  0  0  0  0  0  0
  -23.5418  -29.1233   20.7308 C   0  0  0  0  0  0  0  0  0  0  0  0
  -22.8672  -34.7798   24.6906 C   0  0  0  0  0  0  0  0  0  0  0  0
  -27.0486  -13.7204   16.9627 C   0  0  0  0  0  0  0  0  0  0  0  0
  -23.2431  -33.3398   25.0251 C   0  0  0  0  0  0  0  0  0  0  0  0
  -26.6800  -12.6753   18.0154 C   0  0  0  0  0  0  0  0  0  0  0  0
  -27.6363  -18.8173   20.9000 C   0  0  0  0  0  0  0  0  0  0  0  0
  -30.0374  -19.0511   20.1320 C   0  0  0  0  0  0  0  0  0  0  0  0
  -26.8075  -15.1313   17.4868 C   0  0  0  0  0  0  0  0  0  0  0  0
  -27.8131  -17.2963   20.9173 C   0  0  0  0  0  0  0  0  0  0  0  0
  -30.1651  -17.5318   20.1925 C   0  0  0  0  0  0  0  0  0  0  0  0
  -27.1738  -14.3981   19.8205 C   0  0  0  0  0  0  0  0  0  0  0  0
  -31.5001  -24.3265   18.6781 C   0  0  0  0  0  0  0  0  0  0  0  0
  -30.6340  -24.5058   16.7911 C   0  0  0  0  0  0  0  0  0  0  0  0
  -28.9718  -19.5489   21.1254 C   0  0  0  0  0  0  0  0  0  0  0  0
  -24.6445  -33.0000   24.5035 C   0  0  1  0  0  0  0  0  0  0  0  0
  -24.3040  -31.5008   21.0294 C   0  0  1  0  0  0  0  0  0  0  0  0
  -27.4054  -12.9495   19.3447 C   0  0  1  0  0  0  0  0  0  0  0  0
  -30.3424  -23.5908   17.9890 C   0  0  0  0  0  0  0  0  0  0  0  0
  -28.2694  -21.0698   23.5210 C   0  0  0  0  0  0  0  0  0  0  0  0
  -27.9739  -23.9457   23.3781 C   0  0  0  0  0  0  0  0  0  0  0  0
  -18.8635  -28.9860   16.1222 C   0  0  0  0  0  0  0  0  0  0  0  0
  -20.1534  -30.1179   22.5196 C   0  0  0  0  0  0  0  0  0  0  0  0
  -18.6594  -29.1188   20.7765 C   0  0  0  0  0  0  0  0  0  0  0  0
  -19.0548  -31.5815   20.8150 C   0  0  0  0  0  0  0  0  0  0  0  0
  -22.5917  -29.2822   15.4229 C   0  0  0  0  0  0  0  0  0  0  0  0
  -28.3736  -25.3140   20.8558 C   0  0  0  0  0  0  0  0  0  1  0  0
  -20.9080  -30.0405   20.0516 C   0  0  1  0  0  0  0  0  0  0  0  0
  -20.2828  -29.4799   16.3551 C   0  0  2  0  0  0  0  0  0  0  0  0
  -19.7213  -30.2072   21.0423 C   0  0  0  0  0  0  0  0  0  0  0  0
  -25.7843  -11.4264   20.4102 N   0  0  0  0  0  0  0  0  0  0  0  0
  -27.0268  -11.9384   20.4114 N   0  0  0  0  0  0  0  0  0  0  0  0
  -23.2632  -30.5633   20.6027 N   0  0  0  0  0  0  0  0  0  0  0  0
  -27.5095  -15.3511   18.7511 N   0  0  0  0  0  0  0  0  0  0  0  0
  -28.8698  -16.8858   19.9822 N   0  0  0  0  0  0  0  0  0  0  0  0
  -29.0966  -11.8706   21.5611 N   0  0  0  0  0  0  0  0  0  0  0  0
  -26.5270   -8.9610   23.8691 N   0  0  0  0  0  0  0  0  0  0  0  0
  -24.6072  -32.7535   23.0779 N   0  0  0  0  0  0  0  0  0  0  0  0
  -20.5325  -30.1476   18.6460 N   0  0  0  0  0  0  0  0  0  0  0  0
  -31.9715  -24.7498   17.3511 N   0  3  0  0  0  0  0  0  0  0  0  0
  -21.1691  -28.8652   15.3266 N   0  3  0  0  0  0  0  0  0  0  0  0
  -28.6027   -9.9293   23.7575 O   0  0  0  0  0  0  0  0  0  0  0  0
  -23.9879  -30.5099   23.1491 O   0  0  0  0  0  0  0  0  0  0  0  0
  -21.7290  -32.2631   20.1632 O   0  0  0  0  0  0  0  0  0  0  0  0
  -21.3011  -28.0522   18.0170 O   0  0  0  0  0  0  0  0  0  0  0  0
  -29.3648  -16.3344   17.7992 O   0  0  0  0  0  0  0  0  0  0  0  0
  -21.2251   -7.6551   22.7642 O   0  0  0  0  0  0  0  0  0  0  0  0
  -29.0501  -23.7310   18.6006 O   0  0  0  0  0  0  0  0  0  0  0  0
  -26.9925  -25.6463   20.8890 O   0  0  0  0  0  0  0  0  0  1  0  0
  -21.8766   -2.3123   23.9617 F   0  0  0  0  0  0  0  0  0  0  0  0
  -19.9624   -5.7023   21.2693 F   0  0  0  0  0  0  0  0  0  0  0  0
  1  2  1  0  0  0  0
  1  5  2  0  0  0  0
  2  6  2  0  0  0  0
  3  8  2  0  0  0  0
  3 16  1  0  0  0  0
  4  9  1  0  0  0  0
  4 16  2  0  0  0  0
  5 18  1  0  0  0  0
  6 20  1  0  0  0  0
  7 10  2  0  0  0  0
  7 19  1  0  0  0  0
  8 26  1  0  0  0  0
  9 26  2  0  0  0  0
 10 27  1  0  0  0  0
 11 12  2  0  0  0  0
 11 28  1  0  0  0  0
 12 30  1  0  0  0  0
 13 21  1  0  0  0  0
 13 27  2  0  0  0  0
 14 22  1  0  0  0  0
 14 29  2  0  0  0  0
 15 30  2  0  0  0  0
 15 31  1  0  0  0  0
 16 32  1  0  0  0  0
 17 32  1  0  0  0  0
 17 33  2  0  0  0  0
 17 34  1  0  0  0  0
 18 20  2  0  0  0  0
 18 39  1  0  0  0  0
 19 21  2  0  0  0  0
 19 40  1  0  0  0  0
 20 55  1  0  0  0  0
 21 41  1  0  0  0  0
 22 23  2  0  0  0  0
 22 54  1  0  0  0  0
 23 24  1  0  0  0  0
 23 59  1  0  0  0  0
 24 25  2  0  0  0  0
 24 60  1  0  0  0  0
 25 29  1  0  0  0  0
 25 66  1  0  0  0  0
 26 86  1  0  0  0  0
 27 88  1  0  0  0  0
 28 31  2  0  0  0  0
 28 86  1  0  0  0  0
 29 87  1  0  0  0  0
 30 89  1  0  0  0  0
 31 90  1  0  0  0  0
 32 70  2  0  0  0  0
 33 71  1  0  0  0  0
 33 75  1  0  0  0  0
 34 76  1  0  0  0  0
 34 81  2  0  0  0  0
 35 56  1  0  0  0  0
 35 77  1  0  0  0  0
 35 82  2  0  0  0  0
 36 67  1  0  0  0  0
 36 72  1  0  0  0  0
 36 83  2  0  0  0  0
 37 68  1  0  0  0  0
 37 78  1  0  0  0  0
 37 84  2  0  0  0  0
 38 73  1  0  0  0  0
 38 74  1  0  0  0  0
 38 85  2  0  0  0  0
 39 42  1  0  0  0  0
 40 56  1  0  0  0  0
 41 72  1  0  0  0  0
 42 44  1  0  0  0  0
 43 45  1  0  0  0  0
 43 48  1  0  0  0  0
 44 55  1  0  0  0  0
 45 57  1  0  0  0  0
 46 49  1  0  0  0  0
 46 54  1  0  0  0  0
 47 50  1  0  0  0  0
 47 54  1  0  0  0  0
 48 73  1  0  0  0  0
 49 74  1  0  0  0  0
 50 74  1  0  0  0  0
 51 57  1  0  0  0  0
 51 73  1  0  0  0  0
 52 58  1  0  0  0  0
 52 79  1  0  0  0  0
 53 58  1  0  0  0  0
 53 79  1  0  0  0  0
 55 77  1  0  0  0  0
 56 72  1  0  0  0  0
 57 71  1  0  0  0  0
 58 87  1  0  0  0  0
 61 68  1  0  0  0  0
 62 69  1  0  0  0  0
 63 69  1  0  0  0  0
 64 69  1  0  0  0  0
 65 80  1  0  0  0  0
 66 88  1  0  0  0  0
 67 69  1  0  0  0  0
 67 78  1  0  0  0  0
 68 80  1  0  0  0  0
 70 71  1  0  0  0  0
M  CHG  2  79   1  80   1
M  ISO  4  38 100  66 101  74 100  88 101
M  END
> <Batch ID>
0167

> <Smiles>
CNC(C)C(=O)NC(C(=O)N1Cc2cc([101O:1][101CH2:1]c3c(OC4CNC4)cc(C4CC[100N:0]([100C:0](=O)N5CCCC(n6nc(-c7ccc(Oc8ccc(F)cc8F)cc7)c(C(N)=O)c6N)C5)CC4)c(C)c3C)ccc2CC1C(=O)NC1CCCc2ccccc21)C(C)(C)C

> <Shape>
0.310

> <Color>
0.084

> <Negative vol penalty>
0.000

$$$$

  -OEChem-04052322273D

 83 92  0     1  0  0  0  0  0999 V2000
  -20.1597  -31.1585   17.8408 C   0  0  0  0  0  0  0  0  0  0  0  0
  -21.4771  -30.8063   18.1161 C   0  0  0  0  0  0  0  0  0  0  0  0
  -28.7612  -17.9064   20.9132 C   0  0  0  0  0  0  0  0  0  0  0  0
  -31.1598  -18.0649   21.1558 C   0  0  0  0  0  0  0  0  0  0  0  0
  -19.2264  -31.2244   18.8745 C   0  0  0  0  0  0  0  0  0  0  0  0
  -21.8622  -30.5208   19.4256 C   0  0  0  0  0  0  0  0  0  0  0  0
  -24.7534  -26.3751   19.7402 C   0  0  0  0  0  0  0  0  0  0  0  0
  -28.8338  -16.5257   21.0978 C   0  0  0  0  0  0  0  0  0  0  0  0
  -31.2323  -16.6843   21.3405 C   0  0  0  0  0  0  0  0  0  0  0  0
  -26.0945  -26.5054   19.3818 C   0  0  0  0  0  0  0  0  0  0  0  0
  -29.6490  -13.8071   19.2623 C   0  0  0  0  0  0  0  0  0  0  0  0
  -28.9105  -12.9988   18.3981 C   0  0  0  0  0  0  0  0  0  0  0  0
  -32.9196  -25.4732   19.4789 C   0  0  0  0  0  0  0  0  0  0  0  0
  -26.6969  -26.6524   21.7130 C   0  0  0  0  0  0  0  0  0  0  0  0
  -27.6881  -12.1036   20.2800 C   0  0  0  0  0  0  0  0  0  0  0  0
  -31.7803  -26.0603   17.4755 C   0  0  0  0  0  0  0  0  0  0  0  0
  -29.9242  -18.6760   20.9421 C   0  0  0  0  0  0  0  0  0  0  0  0
  -29.6847  -21.0857   21.7444 C   0  0  0  0  0  0  0  0  0  0  0  0
  -19.5980  -30.9302   20.1959 C   0  0  0  0  0  0  0  0  0  0  0  0
  -24.3723  -26.3935   21.0896 C   0  0  0  0  0  0  0  0  0  0  0  0
  -20.9333  -30.5842   20.4781 C   0  0  0  0  0  0  0  0  0  0  0  0
  -32.7376  -25.2877   18.1130 C   0  0  0  0  0  0  0  0  0  0  0  0
  -25.3507  -26.5197   22.0860 C   0  0  0  0  0  0  0  0  0  0  0  0
  -32.1496  -26.4123   20.1560 C   0  0  0  0  0  0  0  0  0  0  0  0
  -30.0693  -15.9147   21.3115 C   0  0  0  0  0  0  0  0  0  0  0  0
  -27.0661  -26.6470   20.3682 C   0  0  0  0  0  0  0  0  0  0  0  0
  -29.4070  -13.7637   20.6354 C   0  0  0  0  0  0  0  0  0  0  0  0
  -27.9301  -12.1470   18.9070 C   0  0  0  0  0  0  0  0  0  0  0  0
  -28.4266  -12.9120   21.1442 C   0  0  0  0  0  0  0  0  0  0  0  0
  -29.8500  -20.1022   20.7508 C   0  0  0  0  0  0  0  0  0  0  0  0
  -31.2187  -27.1346   19.4270 C   0  0  0  0  0  0  0  0  0  0  0  0
  -29.6768  -22.2731   21.0542 C   0  0  0  0  0  0  0  0  0  0  0  0
  -29.5503  -20.9390   23.1643 C   0  0  0  0  0  0  0  0  0  0  0  0
  -22.5358  -28.2747   22.8763 C   0  0  0  0  0  0  0  0  0  0  0  0
  -23.1031  -26.0220   25.1404 C   0  0  0  0  0  0  0  0  0  0  0  0
  -25.1243  -23.5322   26.3076 C   0  0  0  0  0  0  0  0  0  0  0  0
  -31.9251  -23.4276   15.4315 C   0  0  0  0  0  0  0  0  0  0  0  0
  -18.5649  -31.0609   21.2868 C   0  0  0  0  0  0  0  0  0  0  0  0
  -22.9244  -26.2250   21.4607 C   0  0  0  0  0  0  0  0  0  0  0  0
  -24.9958  -26.5250   23.5497 C   0  0  0  0  0  0  0  0  0  0  0  0
  -18.9675  -30.3789   22.5919 C   0  0  0  0  0  0  0  0  0  0  0  0
  -28.5677  -24.1475   16.8241 C   0  0  0  0  0  0  0  0  0  0  0  0
  -20.4058  -30.7320   22.9571 C   0  0  0  0  0  0  0  0  0  0  0  0
  -28.4852  -23.2000   18.0169 C   0  0  0  0  0  0  0  0  0  0  0  0
  -34.8347  -24.7807   16.5595 C   0  0  0  0  0  0  0  0  0  0  0  0
  -29.4954  -23.6084   15.7411 C   0  0  0  0  0  0  0  0  0  0  0  0
  -34.3993  -24.0023   15.3235 C   0  0  0  0  0  0  0  0  0  0  0  0
  -30.7978  -22.3607   17.4322 C   0  0  0  0  0  0  0  0  0  0  0  0
  -33.6018  -24.2280   17.3094 C   0  0  2  0  0  0  0  0  0  0  0  0
  -21.3839  -30.2432   21.8820 C   0  0  1  0  0  0  0  0  0  0  0  0
  -22.5948  -26.7736   22.8455 C   0  0  1  0  0  0  0  0  0  0  0  0
  -29.8896  -22.8881   18.5552 C   0  0  2  0  0  0  0  0  0  0  0  0
  -32.3403  -26.6161   21.6191 C   0  0  0  0  0  0  0  0  0  0  0  0
  -25.3469  -21.9005   28.2011 C   0  0  0  0  0  0  0  0  0  0  0  0
  -24.0424  -28.2764   26.9694 C   0  0  0  0  0  0  0  0  0  0  0  0
  -25.1153  -26.5498   28.4308 C   0  0  0  0  0  0  0  0  0  0  0  0
  -22.6437  -26.5349   28.0941 C   0  0  0  0  0  0  0  0  0  0  0  0
  -24.9778  -21.2109   24.4776 C   0  0  0  0  0  0  0  0  0  0  0  0
  -30.3628  -28.1560   20.1023 C   0  0  0  0  0  0  0  0  0  0  0  0
  -29.2084  -27.5361   20.8937 C   0  0  0  0  0  0  0  0  0  1  0  0
  -24.1569  -25.8141   26.2012 C   0  0  1  0  0  0  0  0  0  0  0  0
  -24.8143  -22.1284   26.7950 C   0  0  2  0  0  0  0  0  0  0  0  0
  -23.9964  -26.7957   27.3963 C   0  0  0  0  0  0  0  0  0  0  0  0
  -31.0134  -26.9823   18.0995 N   0  0  0  0  0  0  0  0  0  0  0  0
  -29.9405  -20.6199   19.5229 N   0  0  0  0  0  0  0  0  0  0  0  0
  -29.8315  -21.9416   19.7403 N   0  0  0  0  0  0  0  0  0  0  0  0
  -23.5661  -26.3636   23.8618 N   0  0  0  0  0  0  0  0  0  0  0  0
  -30.8165  -23.2597   16.2704 N   0  0  0  0  0  0  0  0  0  0  0  0
  -33.1338  -23.7535   16.0026 N   0  0  0  0  0  0  0  0  0  0  0  0
  -29.5527  -23.5581   21.4491 N   0  0  0  0  0  0  0  0  0  0  0  0
  -29.5798  -19.6477   23.7084 N   0  0  0  0  0  0  0  0  0  0  0  0
  -21.6062  -28.8190   22.0109 N   0  0  0  0  0  0  0  0  0  0  0  0
  -24.0900  -24.4048   26.5723 N   0  0  0  0  0  0  0  0  0  0  0  0
  -25.4305  -21.1178   25.8895 N   0  3  0  0  0  0  0  0  0  0  0  0
  -29.3917  -21.9227   23.9263 O   0  0  0  0  0  0  0  0  0  0  0  0
  -23.2777  -28.8932   23.6305 O   0  0  0  0  0  0  0  0  0  0  0  0
  -21.9134  -25.8794   25.4336 O   0  0  0  0  0  0  0  0  0  0  0  0
  -26.1801  -23.8262   25.7513 O   0  0  0  0  0  0  0  0  0  0  0  0
  -31.8321  -23.3167   14.2015 O   0  0  0  0  0  0  0  0  0  0  0  0
  -30.1405  -14.5675   21.4920 O   0  0  0  0  0  0  0  0  0  0  0  0
  -28.3849  -26.7758   20.0186 O   0  0  0  0  0  0  0  0  0  1  0  0
  -27.2200  -11.3719   18.0768 F   0  0  0  0  0  0  0  0  0  0  0  0
  -28.1888  -12.8668   22.4623 F   0  0  0  0  0  0  0  0  0  0  0  0
  1  2  1  0  0  0  0
  1  5  2  0  0  0  0
  2  6  2  0  0  0  0
  3  8  2  0  0  0  0
  3 17  1  0  0  0  0
  4  9  1  0  0  0  0
  4 17  2  0  0  0  0
  5 19  1  0  0  0  0
  6 21  1  0  0  0  0
  7 10  2  0  0  0  0
  7 20  1  0  0  0  0
  8 25  1  0  0  0  0
  9 25  2  0  0  0  0
 10 26  1  0  0  0  0
 11 12  2  0  0  0  0
 11 27  1  0  0  0  0
 12 28  1  0  0  0  0
 13 22  2  0  0  0  0
 13 24  1  0  0  0  0
 14 23  1  0  0  0  0
 14 26  2  0  0  0  0
 15 28  2  0  0  0  0
 15 29  1  0  0  0  0
 16 22  1  0  0  0  0
 16 64  2  0  0  0  0
 17 30  1  0  0  0  0
 18 30  1  0  0  0  0
 18 32  2  0  0  0  0
 18 33  1  0  0  0  0
 19 21  2  0  0  0  0
 19 38  1  0  0  0  0
 20 23  2  0  0  0  0
 20 39  1  0  0  0  0
 21 50  1  0  0  0  0
 22 49  1  0  0  0  0
 23 40  1  0  0  0  0
 24 31  2  0  0  0  0
 24 53  1  0  0  0  0
 25 80  1  0  0  0  0
 26 81  1  0  0  0  0
 27 29  2  0  0  0  0
 27 80  1  0  0  0  0
 28 82  1  0  0  0  0
 29 83  1  0  0  0  0
 30 65  2  0  0  0  0
 31 59  1  0  0  0  0
 31 64  1  0  0  0  0
 32 66  1  0  0  0  0
 32 70  1  0  0  0  0
 33 71  1  0  0  0  0
 33 75  2  0  0  0  0
 34 51  1  0  0  0  0
 34 72  1  0  0  0  0
 34 76  2  0  0  0  0
 35 61  1  0  0  0  0
 35 67  1  0  0  0  0
 35 77  2  0  0  0  0
 36 62  1  0  0  0  0
 36 73  1  0  0  0  0
 36 78  2  0  0  0  0
 37 68  1  0  0  0  0
 37 69  1  0  0  0  0
 37 79  2  0  0  0  0
 38 41  1  0  0  0  0
 39 51  1  0  0  0  0
 40 67  1  0  0  0  0
 41 43  1  0  0  0  0
 42 44  1  0  0  0  0
 42 46  1  0  0  0  0
 43 50  1  0  0  0  0
 44 52  1  0  0  0  0
 45 47  1  0  0  0  0
 45 49  1  0  0  0  0
 46 68  1  0  0  0  0
 47 69  1  0  0  0  0
 48 52  1  0  0  0  0
 48 68  1  0  0  0  0
 49 69  1  0  0  0  0
 50 72  1  0  0  0  0
 51 67  1  0  0  0  0
 52 66  1  0  0  0  0
 54 62  1  0  0  0  0
 55 63  1  0  0  0  0
 56 63  1  0  0  0  0
 57 63  1  0  0  0  0
 58 74  1  0  0  0  0
 59 60  1  0  0  0  0
 60 81  1  0  0  0  0
 61 63  1  0  0  0  0
 61 73  1  0  0  0  0
 62 74  1  0  0  0  0
 65 66  1  0  0  0  0
M  CHG  1  74   1
M  ISO  4  37 100  60 101  69 100  81 101
M  END
> <Batch ID>
0167

> <Smiles>
CNC(C)C(=O)NC(C(=O)N1Cc2cc([101O:1][101CH2:1]Cc3ncc(C4CC[100N:0]4[100C:0](=O)N4CCCC(n5nc(-c6ccc(Oc7ccc(F)cc7F)cc6)c(C(N)=O)c5N)C4)cc3C)ccc2CC1C(=O)NC1CCCc2ccccc21)C(C)(C)C

> <Shape>
0.205

> <Color>
0.077

> <Negative vol penalty>
0.000

$$$$

  -OEChem-04052322273D

 85 94  0     1  0  0  0  0  0999 V2000
  -32.1366  -33.5641   23.1307 C   0  0  0  0  0  0  0  0  0  0  0  0
  -31.7409  -32.3222   22.6443 C   0  0  0  0  0  0  0  0  0  0  0  0
  -23.1797   -9.8363   21.6134 C   0  0  0  0  0  0  0  0  0  0  0  0
  -23.7909  -11.1075   23.5749 C   0  0  0  0  0  0  0  0  0  0  0  0
  -31.4081  -34.1769   24.1494 C   0  0  0  0  0  0  0  0  0  0  0  0
  -30.6169  -31.6919   23.1772 C   0  0  0  0  0  0  0  0  0  0  0  0
  -26.6014  -28.1724   20.1781 C   0  0  0  0  0  0  0  0  0  0  0  0
  -22.4680   -8.9430   22.4141 C   0  0  0  0  0  0  0  0  0  0  0  0
  -23.0791  -10.2143   24.3756 C   0  0  0  0  0  0  0  0  0  0  0  0
  -26.4698  -26.7893   20.0621 C   0  0  0  0  0  0  0  0  0  0  0  0
  -23.1523   -6.3293   24.4450 C   0  0  0  0  0  0  0  0  0  0  0  0
  -23.3199   -4.9662   24.2010 C   0  0  0  0  0  0  0  0  0  0  0  0
  -24.8496  -26.7997   21.8493 C   0  0  0  0  0  0  0  0  0  0  0  0
  -20.9579   -4.7590   23.7369 C   0  0  0  0  0  0  0  0  0  0  0  0
  -27.8165  -19.2802   21.6686 C   0  0  0  0  0  0  0  0  0  0  0  0
  -23.8413  -10.9185   22.1938 C   0  0  0  0  0  0  0  0  0  0  0  0
  -24.0891  -13.0136   20.7597 C   0  0  0  0  0  0  0  0  0  0  0  0
  -30.2691  -33.5581   24.6883 C   0  0  0  0  0  0  0  0  0  0  0  0
  -25.8650  -28.8793   21.1395 C   0  0  0  0  0  0  0  0  0  0  0  0
  -29.8733  -32.2964   24.2049 C   0  0  0  0  0  0  0  0  0  0  0  0
  -24.9718  -28.1920   21.9738 C   0  0  0  0  0  0  0  0  0  0  0  0
  -29.1967  -19.2067   21.5715 C   0  0  0  0  0  0  0  0  0  0  0  0
  -29.9124  -20.3987   21.5546 C   0  0  0  0  0  0  0  0  0  0  0  0
  -29.2355  -21.6106   21.6341 C   0  0  0  0  0  0  0  0  0  0  0  0
  -22.4176   -9.1321   23.7952 C   0  0  0  0  0  0  0  0  0  0  0  0
  -25.5959  -26.1023   20.8997 C   0  0  0  0  0  0  0  0  0  0  0  0
  -21.8876   -6.9072   24.3350 C   0  0  0  0  0  0  0  0  0  0  0  0
  -22.2227   -4.1811   23.8470 C   0  0  0  0  0  0  0  0  0  0  0  0
  -20.7904   -6.1221   23.9810 C   0  0  0  0  0  0  0  0  0  0  0  0
  -24.5771  -11.8412   21.3673 C   0  0  0  0  0  0  0  0  0  0  0  0
  -27.8536  -21.5766   21.7282 C   0  0  0  0  0  0  0  0  0  0  0  0
  -25.1715  -13.5291   20.0894 C   0  0  0  0  0  0  0  0  0  0  0  0
  -22.7750  -13.5857   20.7979 C   0  0  0  0  0  0  0  0  0  0  0  0
  -26.6030  -30.6637   23.6644 C   0  0  0  0  0  0  0  0  0  0  0  0
  -23.4063  -31.2119   23.7225 C   0  0  0  0  0  0  0  0  0  0  0  0
  -20.2704  -30.1579   22.8848 C   0  0  0  0  0  0  0  0  0  0  0  0
  -30.6615  -14.8396   20.1072 C   0  0  0  0  0  0  0  0  0  0  0  0
  -29.5411  -34.2378   25.8210 C   0  0  0  0  0  0  0  0  0  0  0  0
  -25.9985  -30.3745   21.2340 C   0  0  0  0  0  0  0  0  0  0  0  0
  -24.1433  -28.9070   23.0086 C   0  0  0  0  0  0  0  0  0  0  0  0
  -28.1450  -33.6743   26.0728 C   0  0  0  0  0  0  0  0  0  0  0  0
  -29.6832  -11.5407   19.0617 C   0  0  0  0  0  0  0  0  0  0  0  0
  -28.1800  -32.1494   26.0909 C   0  0  0  0  0  0  0  0  0  0  0  0
  -28.2504  -11.3953   19.5635 C   0  0  0  0  0  0  0  0  0  0  0  0
  -30.5145  -12.3780   20.0245 C   0  0  0  0  0  0  0  0  0  0  0  0
  -29.0531  -16.5222   21.3079 C   0  0  0  0  0  0  0  0  0  0  0  0
  -30.6117  -17.3913   20.1638 C   0  0  0  0  0  0  0  0  0  0  0  0
  -28.5018  -13.6355   20.7467 C   0  0  0  0  0  0  0  0  0  0  0  0
  -29.9148  -17.7962   21.4832 C   0  0  0  0  0  0  0  0  0  0  0  0
  -28.6454  -31.5922   24.7402 C   0  0  1  0  0  0  0  0  0  0  0  0
  -25.5821  -30.9269   22.5938 C   0  0  1  0  0  0  0  0  0  0  0  0
  -27.6263  -12.7758   19.8134 C   0  0  2  0  0  0  0  0  0  0  0  0
  -31.4032  -20.3714   21.4506 C   0  0  0  0  0  0  0  0  0  0  0  0
  -29.9703  -22.9085   21.6177 C   0  0  0  0  0  0  0  0  0  0  0  0
  -17.8537  -30.7983   23.1009 C   0  0  0  0  0  0  0  0  0  0  0  0
  -23.4322  -30.3157   26.6391 C   0  0  0  0  0  0  0  0  0  0  0  0
  -20.9445  -30.0643   26.5112 C   0  0  0  0  0  0  0  0  0  0  0  0
  -21.9890  -32.3039   26.1714 C   0  0  0  0  0  0  0  0  0  0  0  0
  -19.9316  -30.3228   19.9494 C   0  0  0  0  0  0  0  0  0  0  0  0
  -25.1343  -24.0320   21.9751 C   0  0  0  0  0  0  0  0  0  1  0  0
  -25.7341  -22.6411   21.9025 C   0  0  0  0  0  0  0  0  0  0  0  0
  -22.2186  -30.5433   24.3716 C   0  0  1  0  0  0  0  0  0  0  0  0
  -19.1034  -30.8823   22.2385 C   0  0  2  0  0  0  0  0  0  0  0  0
  -22.1630  -30.7928   25.9052 C   0  0  0  0  0  0  0  0  0  0  0  0
  -27.1240  -20.4386   21.7476 N   0  0  0  0  0  0  0  0  0  0  0  0
  -25.8689  -11.6243   21.1059 N   0  0  0  0  0  0  0  0  0  0  0  0
  -26.2018  -12.6674   20.3267 N   0  0  0  0  0  0  0  0  0  0  0  0
  -24.3138  -30.3682   23.0665 N   0  0  0  0  0  0  0  0  0  0  0  0
  -29.8995  -13.6810   20.2953 N   0  0  0  0  0  0  0  0  0  0  0  0
  -30.0832  -16.0529   20.3969 N   0  0  0  0  0  0  0  0  0  0  0  0
  -25.3329  -14.6307   19.3260 N   0  0  0  0  0  0  0  0  0  0  0  0
  -21.7807  -12.9269   21.5339 N   0  0  0  0  0  0  0  0  0  0  0  0
  -27.5694  -31.6453   23.7738 N   0  0  0  0  0  0  0  0  0  0  0  0
  -21.0413  -31.0098   23.6472 N   0  0  0  0  0  0  0  0  0  0  0  0
  -18.7968  -30.2861   20.9074 N   0  3  0  0  0  0  0  0  0  0  0  0
  -22.4867  -14.6408   20.1838 O   0  0  0  0  0  0  0  0  0  0  0  0
  -26.5191  -29.6462   24.3422 O   0  0  0  0  0  0  0  0  0  0  0  0
  -23.5208  -32.4383   23.7889 O   0  0  0  0  0  0  0  0  0  0  0  0
  -20.4753  -28.9557   22.7320 O   0  0  0  0  0  0  0  0  0  0  0  0
  -31.8366  -14.7927   19.7197 O   0  0  0  0  0  0  0  0  0  0  0  0
  -21.7230   -8.2608   24.5768 O   0  0  0  0  0  0  0  0  0  0  0  0
  -25.4651  -24.7430   20.7883 O   0  0  0  0  0  0  0  0  0  1  0  0
  -27.1493  -22.7497   21.8082 O   0  0  0  0  0  0  0  0  0  0  0  0
  -22.3840   -2.8724   23.6112 F   0  0  0  0  0  0  0  0  0  0  0  0
  -19.5731   -6.6719   23.8726 F   0  0  0  0  0  0  0  0  0  0  0  0
  1  2  1  0  0  0  0
  1  5  2  0  0  0  0
  2  6  2  0  0  0  0
  3  8  2  0  0  0  0
  3 16  1  0  0  0  0
  4  9  1  0  0  0  0
  4 16  2  0  0  0  0
  5 18  1  0  0  0  0
  6 20  1  0  0  0  0
  7 10  2  0  0  0  0
  7 19  1  0  0  0  0
  8 25  1  0  0  0  0
  9 25  2  0  0  0  0
 10 26  1  0  0  0  0
 11 12  2  0  0  0  0
 11 27  1  0  0  0  0
 12 28  1  0  0  0  0
 13 21  1  0  0  0  0
 13 26  2  0  0  0  0
 14 28  2  0  0  0  0
 14 29  1  0  0  0  0
 15 22  1  0  0  0  0
 15 65  2  0  0  0  0
 16 30  1  0  0  0  0
 17 30  1  0  0  0  0
 17 32  2  0  0  0  0
 17 33  1  0  0  0  0
 18 20  2  0  0  0  0
 18 38  1  0  0  0  0
 19 21  2  0  0  0  0
 19 39  1  0  0  0  0
 20 50  1  0  0  0  0
 21 40  1  0  0  0  0
 22 23  2  0  0  0  0
 22 49  1  0  0  0  0
 23 24  1  0  0  0  0
 23 53  1  0  0  0  0
 24 31  2  0  0  0  0
 24 54  1  0  0  0  0
 25 81  1  0  0  0  0
 26 82  1  0  0  0  0
 27 29  2  0  0  0  0
 27 81  1  0  0  0  0
 28 84  1  0  0  0  0
 29 85  1  0  0  0  0
 30 66  2  0  0  0  0
 31 65  1  0  0  0  0
 31 83  1  0  0  0  0
 32 67  1  0  0  0  0
 32 71  1  0  0  0  0
 33 72  1  0  0  0  0
 33 76  2  0  0  0  0
 34 51  1  0  0  0  0
 34 73  1  0  0  0  0
 34 77  2  0  0  0  0
 35 62  1  0  0  0  0
 35 68  1  0  0  0  0
 35 78  2  0  0  0  0
 36 63  1  0  0  0  0
 36 74  1  0  0  0  0
 36 79  2  0  0  0  0
 37 69  1  0  0  0  0
 37 70  1  0  0  0  0
 37 80  2  0  0  0  0
 38 41  1  0  0  0  0
 39 51  1  0  0  0  0
 40 68  1  0  0  0  0
 41 43  1  0  0  0  0
 42 44  1  0  0  0  0
 42 45  1  0  0  0  0
 43 50  1  0  0  0  0
 44 52  1  0  0  0  0
 45 69  1  0  0  0  0
 46 49  1  0  0  0  0
 46 70  1  0  0  0  0
 47 49  1  0  0  0  0
 47 70  1  0  0  0  0
 48 52  1  0  0  0  0
 48 69  1  0  0  0  0
 50 73  1  0  0  0  0
 51 68  1  0  0  0  0
 52 67  1  0  0  0  0
 55 63  1  0  0  0  0
 56 64  1  0  0  0  0
 57 64  1  0  0  0  0
 58 64  1  0  0  0  0
 59 75  1  0  0  0  0
 60 61  1  0  0  0  0
 60 82  1  0  0  0  0
 61 83  1  0  0  0  0
 62 64  1  0  0  0  0
 62 74  1  0  0  0  0
 63 75  1  0  0  0  0
 66 67  1  0  0  0  0
M  CHG  1  75   1
M  ISO  4  37 100  60 101  70 100  82 101
M  END
> <Batch ID>
0167

> <Smiles>
CNC(C)C(=O)NC(C(=O)N1Cc2cc([101O:1][101CH2:1]COc3ncc(C4C[100N:0]([100C:0](=O)N5CCCC(n6nc(-c7ccc(Oc8ccc(F)cc8F)cc7)c(C(N)=O)c6N)C5)C4)c(C)c3C)ccc2CC1C(=O)NC1CCCc2ccccc21)C(C)(C)C

> <Shape>
0.296

> <Color>
0.152

> <Negative vol penalty>
0.000

$$$$

  -OEChem-04052322273D

 87 96  0     1  0  0  0  0  0999 V2000
  -18.3835  -26.8522   25.9916 C   0  0  0  0  0  0  0  0  0  0  0  0
  -19.4738  -26.2833   25.3411 C   0  0  0  0  0  0  0  0  0  0  0  0
  -22.9434  -10.0925   19.9740 C   0  0  0  0  0  0  0  0  0  0  0  0
  -23.8253   -9.9301   22.2174 C   0  0  0  0  0  0  0  0  0  0  0  0
  -17.7134  -27.9300   25.4143 C   0  0  0  0  0  0  0  0  0  0  0  0
  -19.8939  -26.7913   24.1123 C   0  0  0  0  0  0  0  0  0  0  0  0
  -24.9232  -27.3203   23.8460 C   0  0  0  0  0  0  0  0  0  0  0  0
  -22.1550   -8.9647   20.2023 C   0  0  0  0  0  0  0  0  0  0  0  0
  -23.0369   -8.8024   22.4457 C   0  0  0  0  0  0  0  0  0  0  0  0
  -25.6735  -26.1676   23.6178 C   0  0  0  0  0  0  0  0  0  0  0  0
  -19.8087   -8.1304   23.1861 C   0  0  0  0  0  0  0  0  0  0  0  0
  -19.1150   -8.0602   24.3941 C   0  0  0  0  0  0  0  0  0  0  0  0
  -25.8590  -26.7571   21.2860 C   0  0  0  0  0  0  0  0  0  0  0  0
  -20.2917   -6.0250   24.9516 C   0  0  0  0  0  0  0  0  0  0  0  0
  -23.7786  -10.5752   20.9816 C   0  0  0  0  0  0  0  0  0  0  0  0
  -24.2446  -13.0833   20.9808 C   0  0  0  0  0  0  0  0  0  0  0  0
  -18.1315  -28.4576   24.1824 C   0  0  0  0  0  0  0  0  0  0  0  0
  -24.6254  -28.1959   22.7919 C   0  0  0  0  0  0  0  0  0  0  0  0
  -19.2279  -27.8763   23.5174 C   0  0  0  0  0  0  0  0  0  0  0  0
  -25.1069  -27.9215   21.5039 C   0  0  0  0  0  0  0  0  0  0  0  0
  -22.2017   -8.3197   21.4381 C   0  0  0  0  0  0  0  0  0  0  0  0
  -26.1391  -25.8843   22.3372 C   0  0  0  0  0  0  0  0  0  0  0  0
  -20.7439   -7.1478   22.8607 C   0  0  0  0  0  0  0  0  0  0  0  0
  -19.3565   -7.0076   25.2769 C   0  0  0  0  0  0  0  0  0  0  0  0
  -20.9854   -6.0952   23.7435 C   0  0  0  0  0  0  0  0  0  0  0  0
  -24.5937  -11.7398   20.7462 C   0  0  0  0  0  0  0  0  0  0  0  0
  -25.3532  -13.7980   20.5977 C   0  0  0  0  0  0  0  0  0  0  0  0
  -23.0272  -13.6358   21.4989 C   0  0  0  0  0  0  0  0  0  0  0  0
  -21.9508  -29.2090   21.4049 C   0  0  0  0  0  0  0  0  0  0  0  0
  -23.9856  -31.1515   19.7897 C   0  0  0  0  0  0  0  0  0  0  0  0
  -27.1520  -31.7298   18.6556 C   0  0  0  0  0  0  0  0  0  0  0  0
  -30.8847  -14.5345   20.5297 C   0  0  0  0  0  0  0  0  0  0  0  0
  -17.3464  -29.5931   23.5751 C   0  0  0  0  0  0  0  0  0  0  0  0
  -23.8376  -29.4489   23.0597 C   0  0  0  0  0  0  0  0  0  0  0  0
  -24.8319  -28.8398   20.3422 C   0  0  0  0  0  0  0  0  0  0  0  0
  -18.0865  -30.3119   22.4499 C   0  0  0  0  0  0  0  0  0  0  0  0
  -29.4972  -12.3500   18.0844 C   0  0  0  0  0  0  0  0  0  0  0  0
  -18.7001  -29.3028   21.4846 C   0  0  0  0  0  0  0  0  0  0  0  0
  -28.0719  -12.1027   18.5815 C   0  0  0  0  0  0  0  0  0  0  0  0
  -27.3899  -20.0990   21.7692 C   0  0  0  0  0  0  0  0  0  0  0  0
  -31.4431  -17.5101   20.6702 C   0  0  0  0  0  0  0  0  0  0  0  0
  -30.3158  -17.3998   22.9160 C   0  0  0  0  0  0  0  0  0  0  0  0
  -30.4881  -12.4561   19.2415 C   0  0  0  0  0  0  0  0  0  0  0  0
  -28.7047  -13.1985   20.7719 C   0  0  0  0  0  0  0  0  0  0  0  0
  -27.9916  -21.1849   22.6527 C   0  0  0  0  0  0  0  0  0  0  0  0
  -30.1995  -18.1666   20.0813 C   0  0  0  0  0  0  0  0  0  0  0  0
  -29.0746  -18.0564   22.3221 C   0  0  0  0  0  0  0  0  0  0  0  0
  -29.3680  -22.0118   20.7188 C   0  0  0  0  0  0  0  0  0  0  0  0
  -19.7291  -28.4150   22.1950 C   0  0  1  0  0  0  0  0  0  0  0  0
  -23.1580  -30.0054   21.8124 C   0  0  1  0  0  0  0  0  0  0  0  0
  -28.7708  -20.9282   19.8146 C   0  0  2  0  0  0  0  0  0  0  0  0
  -27.6606  -13.1399   19.6437 C   0  0  2  0  0  0  0  0  0  0  0  0
  -28.3032  -19.6958   20.6100 C   0  0  1  0  0  0  0  0  0  0  0  0
  -31.1293  -16.6045   21.8768 C   0  0  0  0  0  0  0  0  0  0  0  0
  -29.7507  -20.5777   18.6925 C   0  0  0  0  0  0  0  0  0  0  0  0
  -32.4446  -16.1263   22.5091 C   0  0  0  0  0  0  0  0  0  0  0  0
  -28.4995  -33.3828   17.3330 C   0  0  0  0  0  0  0  0  0  0  0  0
  -22.7573  -30.0840   17.2087 C   0  0  0  0  0  0  0  0  0  0  0  0
  -24.7256  -31.0116   15.9704 C   0  0  0  0  0  0  0  0  0  0  0  0
  -23.2005  -32.5453   17.2131 C   0  0  0  0  0  0  0  0  0  0  0  0
  -28.9290  -32.2954   20.9537 C   0  0  0  0  0  0  0  0  0  0  0  0
  -28.8627  -23.5199   22.6400 C   0  0  0  0  0  0  0  0  0  0  0  0
  -27.6710  -24.2779   23.1907 C   0  0  0  0  0  0  0  0  0  1  0  0
  -24.7723  -31.0451   18.5057 C   0  0  1  0  0  0  0  0  0  0  0  0
  -28.0351  -32.9629   18.7190 C   0  0  2  0  0  0  0  0  0  0  0  0
  -23.8676  -31.1530   17.2458 C   0  0  0  0  0  0  0  0  0  0  0  0
  -25.8274  -11.6064   20.2521 N   0  0  0  0  0  0  0  0  0  0  0  0
  -26.2632  -12.8752   20.1730 N   0  0  0  0  0  0  0  0  0  0  0  0
  -24.0519  -30.0490   20.6534 N   0  0  0  0  0  0  0  0  0  0  0  0
  -30.0405  -13.4577   20.2123 N   0  0  0  0  0  0  0  0  0  0  0  0
  -25.6284  -15.1196   20.5859 N   0  0  0  0  0  0  0  0  0  0  0  0
  -21.9890  -12.7594   21.8428 N   0  0  0  0  0  0  0  0  0  0  0  0
  -20.9733  -29.1309   22.3785 N   0  0  0  0  0  0  0  0  0  0  0  0
  -25.8158  -32.0618   18.5809 N   0  0  0  0  0  0  0  0  0  0  0  0
  -30.3811  -15.4416   21.4540 N   0  0  0  0  0  0  0  0  0  0  0  0
  -29.4673  -18.9392   21.1572 N   0  3  0  0  0  0  0  0  0  0  0  0
  -28.3818  -22.3854   21.8119 N   0  3  2  0  0  0  0  0  0  0  0  0
  -29.2382  -32.6959   19.5569 N   0  3  0  0  0  0  0  0  0  0  0  0
  -22.8589  -14.8711   21.6369 O   0  0  0  0  0  0  0  0  0  0  0  0
  -21.9087  -28.7039   20.2891 O   0  0  0  0  0  0  0  0  0  0  0  0
  -23.3418  -32.1780   20.0213 O   0  0  0  0  0  0  0  0  0  0  0  0
  -27.6026  -30.5864   18.6673 O   0  0  0  0  0  0  0  0  0  0  0  0
  -32.0022  -14.6799   20.0225 O   0  0  0  0  0  0  0  0  0  0  0  0
  -21.4323   -7.2193   21.6613 O   0  0  0  0  0  0  0  0  0  0  0  0
  -26.8711  -24.7595   22.1116 O   0  0  0  0  0  0  0  0  0  1  0  0
  -18.6914   -6.9412   26.4377 F   0  0  0  0  0  0  0  0  0  0  0  0
  -21.8834   -5.1490   23.4370 F   0  0  0  0  0  0  0  0  0  0  0  0
  1  2  1  0  0  0  0
  1  5  2  0  0  0  0
  2  6  2  0  0  0  0
  3  8  2  0  0  0  0
  3 15  1  0  0  0  0
  4  9  1  0  0  0  0
  4 15  2  0  0  0  0
  5 17  1  0  0  0  0
  6 19  1  0  0  0  0
  7 10  2  0  0  0  0
  7 18  1  0  0  0  0
  8 21  1  0  0  0  0
  9 21  2  0  0  0  0
 10 22  1  0  0  0  0
 11 12  2  0  0  0  0
 11 23  1  0  0  0  0
 12 24  1  0  0  0  0
 13 20  1  0  0  0  0
 13 22  2  0  0  0  0
 14 24  2  0  0  0  0
 14 25  1  0  0  0  0
 15 26  1  0  0  0  0
 16 26  1  0  0  0  0
 16 27  2  0  0  0  0
 16 28  1  0  0  0  0
 17 19  2  0  0  0  0
 17 33  1  0  0  0  0
 18 20  2  0  0  0  0
 18 34  1  0  0  0  0
 19 49  1  0  0  0  0
 20 35  1  0  0  0  0
 21 84  1  0  0  0  0
 22 85  1  0  0  0  0
 23 25  2  0  0  0  0
 23 84  1  0  0  0  0
 24 86  1  0  0  0  0
 25 87  1  0  0  0  0
 26 67  2  0  0  0  0
 27 68  1  0  0  0  0
 27 71  1  0  0  0  0
 28 72  1  0  0  0  0
 28 79  2  0  0  0  0
 29 50  1  0  0  0  0
 29 73  1  0  0  0  0
 29 80  2  0  0  0  0
 30 64  1  0  0  0  0
 30 69  1  0  0  0  0
 30 81  2  0  0  0  0
 31 65  1  0  0  0  0
 31 74  1  0  0  0  0
 31 82  2  0  0  0  0
 32 70  1  0  0  0  0
 32 75  1  0  0  0  0
 32 83  2  0  0  0  0
 33 36  1  0  0  0  0
 34 50  1  0  0  0  0
 35 69  1  0  0  0  0
 36 38  1  0  0  0  0
 37 39  1  0  0  0  0
 37 43  1  0  0  0  0
 38 49  1  0  0  0  0
 39 52  1  0  0  0  0
 40 45  1  0  0  0  0
 40 53  1  0  0  0  0
 41 46  1  0  0  0  0
 41 54  1  0  0  0  0
 42 47  1  0  0  0  0
 42 54  1  0  0  0  0
 43 70  1  0  0  0  0
 44 52  1  0  0  0  0
 44 70  1  0  0  0  0
 45 77  1  0  0  0  0
 46 76  1  0  0  0  0
 47 76  1  0  0  0  0
 48 51  1  0  0  0  0
 48 77  1  0  0  0  0
 49 73  1  0  0  0  0
 50 69  1  0  0  0  0
 51 53  1  0  0  0  0
 51 55  1  0  0  0  0
 52 68  1  0  0  0  0
 53 76  1  0  0  0  0
 54 56  1  0  0  0  0
 54 75  1  0  0  0  0
 57 65  1  0  0  0  0
 58 66  1  0  0  0  0
 59 66  1  0  0  0  0
 60 66  1  0  0  0  0
 61 78  1  0  0  0  0
 62 63  1  0  0  0  0
 62 77  1  0  0  0  0
 63 85  1  0  0  0  0
 64 66  1  0  0  0  0
 64 74  1  0  0  0  0
 65 78  1  0  0  0  0
 67 68  1  0  0  0  0
M  CHG  3  76   1  77   1  78   1
M  ISO  4  32 100  63 101  75 100  85 101
M  END
> <Batch ID>
0167

> <Smiles>
CNC(C)C(=O)NC(C(=O)N1Cc2cc([101O:1][101CH2:1]CN3CCC(N4CCC(C)([100NH:0][100C:0](=O)N5CCCC(n6nc(-c7ccc(Oc8ccc(F)cc8F)cc7)c(C(N)=O)c6N)C5)CC4)C(C)C3)ccc2CC1C(=O)NC1CCCc2ccccc21)C(C)(C)C

> <Shape>
0.323

> <Color>
0.205

> <Negative vol penalty>
0.000

$$$$

  -OEChem-04052322273D

 89 98  0     1  0  0  0  0  0999 V2000
  -21.7303  -11.8878   19.6622 C   0  0  0  0  0  0  0  0  0  0  0  0
  -21.5040  -13.2400   19.8984 C   0  0  0  0  0  0  0  0  0  0  0  0
  -30.6733  -26.8778   20.4282 C   0  0  0  0  0  0  0  0  0  0  0  0
  -29.9250  -26.1579   22.6097 C   0  0  0  0  0  0  0  0  0  0  0  0
  -22.9775  -11.3315   19.9433 C   0  0  0  0  0  0  0  0  0  0  0  0
  -22.5245  -14.0365   20.4168 C   0  0  0  0  0  0  0  0  0  0  0  0
  -23.6070  -19.9272   19.1387 C   0  0  0  0  0  0  0  0  0  0  0  0
  -31.9995  -26.7493   20.8407 C   0  0  0  0  0  0  0  0  0  0  0  0
  -31.2512  -26.0293   23.0222 C   0  0  0  0  0  0  0  0  0  0  0  0
  -23.2849  -21.1068   19.8084 C   0  0  0  0  0  0  0  0  0  0  0  0
  -34.2402  -24.2559   21.2827 C   0  0  0  0  0  0  0  0  0  0  0  0
  -35.1309  -23.6248   20.4144 C   0  0  0  0  0  0  0  0  0  0  0  0
  -25.4696  -21.1156   20.8312 C   0  0  0  0  0  0  0  0  0  0  0  0
  -20.1545  -22.7450   24.4350 C   0  0  0  0  0  0  0  0  0  0  0  0
  -36.4759  -25.6303   20.3363 C   0  0  0  0  0  0  0  0  0  0  0  0
  -29.6360  -26.5822   21.3127 C   0  0  0  0  0  0  0  0  0  0  0  0
  -27.4625  -25.7279   20.2862 C   0  0  0  0  0  0  0  0  0  0  0  0
  -24.0167  -12.1235   20.4563 C   0  0  0  0  0  0  0  0  0  0  0  0
  -24.8610  -19.3260   19.3190 C   0  0  0  0  0  0  0  0  0  0  0  0
  -23.7863  -13.4899   20.7062 C   0  0  0  0  0  0  0  0  0  0  0  0
  -25.8060  -19.9297   20.1607 C   0  0  0  0  0  0  0  0  0  0  0  0
  -22.5001  -23.1811   24.1017 C   0  0  0  0  0  0  0  0  0  0  0  0
  -21.1688  -23.4739   23.8216 C   0  0  0  0  0  0  0  0  0  0  0  0
  -32.2885  -26.3250   22.1377 C   0  0  0  0  0  0  0  0  0  0  0  0
  -24.2151  -21.6997   20.6570 C   0  0  0  0  0  0  0  0  0  0  0  0
  -34.4673  -25.5743   21.6777 C   0  0  0  0  0  0  0  0  0  0  0  0
  -36.2487  -24.3119   19.9412 C   0  0  0  0  0  0  0  0  0  0  0  0
  -35.5851  -26.2615   21.2046 C   0  0  0  0  0  0  0  0  0  0  0  0
  -28.2658  -26.7153   20.8874 C   0  0  0  0  0  0  0  0  0  0  0  0
  -20.4997  -21.7337   25.3202 C   0  0  0  0  0  0  0  0  0  0  0  0
  -22.7860  -22.1588   24.9954 C   0  0  0  0  0  0  0  0  0  0  0  0
  -26.2548  -26.3478   20.0774 C   0  0  0  0  0  0  0  0  0  0  0  0
  -27.7797  -24.3714   19.9468 C   0  0  0  0  0  0  0  0  0  0  0  0
  -25.8670  -16.5330   20.4551 C   0  0  0  0  0  0  0  0  0  0  0  0
  -28.7569  -17.6045   19.4438 C   0  0  0  0  0  0  0  0  0  0  0  0
  -30.7490  -20.2620   18.6590 C   0  0  0  0  0  0  0  0  0  0  0  0
  -22.0967  -29.6243   21.8438 C   0  0  0  0  0  0  0  0  0  0  0  0
  -25.3333  -11.4673   20.7889 C   0  0  0  0  0  0  0  0  0  0  0  0
  -25.2027  -18.0680   18.5687 C   0  0  0  0  0  0  0  0  0  0  0  0
  -27.1736  -19.3352   20.3727 C   0  0  0  0  0  0  0  0  0  0  0  0
  -26.4763  -12.4599   20.9848 C   0  0  0  0  0  0  0  0  0  0  0  0
  -24.9506  -31.2219   20.4369 C   0  0  0  0  0  0  0  0  0  0  0  0
  -26.0343  -13.6133   21.8798 C   0  0  0  0  0  0  0  0  0  0  0  0
  -26.0024  -30.1124   20.3851 C   0  0  0  0  0  0  0  0  0  0  0  0
  -24.0726  -31.1094   21.6813 C   0  0  0  0  0  0  0  0  0  0  0  0
  -20.6205  -25.8753   23.3319 C   0  0  0  0  0  0  0  0  0  0  0  0
  -24.4866  -28.6839   21.8204 C   0  0  0  0  0  0  0  0  0  0  0  0
  -20.6449  -24.2842   21.5030 C   0  0  0  0  0  0  0  0  0  0  0  0
  -24.8758  -14.3917   21.2446 C   0  0  1  0  0  0  0  0  0  0  0  0
  -26.3223  -17.2662   19.2251 C   0  0  1  0  0  0  0  0  0  0  0  0
  -19.9801  -26.5107   22.0882 C   0  0  2  0  0  0  0  0  0  0  0  0
  -25.3602  -28.7225   20.5549 C   0  0  2  0  0  0  0  0  0  0  0  0
  -20.6243  -25.7103   20.9609 C   0  0  2  0  0  0  0  0  0  0  0  0
  -19.4770  -20.9107   26.0151 C   0  0  0  0  0  0  0  0  0  0  0  0
  -24.1738  -21.7695   25.3607 C   0  0  0  0  0  0  0  0  0  0  0  0
  -24.4591  -24.7122   24.4888 C   0  0  0  0  0  0  0  0  0  0  0  0
  -33.0739  -20.8250   17.9006 C   0  0  0  0  0  0  0  0  0  0  0  0
  -29.8049  -17.0551   22.2563 C   0  0  0  0  0  0  0  0  0  0  0  0
  -31.7887  -18.4855   21.7212 C   0  0  0  0  0  0  0  0  0  0  0  0
  -31.3666  -16.4026   20.4151 C   0  0  0  0  0  0  0  0  0  0  0  0
  -29.7564  -21.5329   16.1774 C   0  0  0  0  0  0  0  0  0  0  0  0
  -20.2188  -28.0088   21.9966 C   0  0  0  0  0  0  0  0  0  0  0  0
  -24.5218  -23.0644   22.5804 C   0  0  0  0  0  0  0  0  0  1  0  0
  -23.6267  -23.9630   23.4446 C   0  0  1  0  0  0  0  0  0  0  0  0
  -29.8734  -18.4118   20.0607 C   0  0  1  0  0  0  0  0  0  0  0  0
  -31.6471  -20.5297   17.4648 C   0  0  2  0  0  0  0  0  0  0  0  0
  -30.6820  -17.5992   21.1110 C   0  0  0  0  0  0  0  0  0  0  0  0
  -27.6226  -27.8746   21.0499 N   0  0  0  0  0  0  0  0  0  0  0  0
  -26.4025  -27.6196   20.5476 N   0  0  0  0  0  0  0  0  0  0  0  0
  -21.7898  -21.4728   25.5720 N   0  3  0  0  0  0  0  0  0  0  0  0
  -20.8362  -24.4806   22.9405 N   0  0  3  0  0  0  0  0  0  0  0  0
  -27.4579  -18.1012   19.6217 N   0  0  0  0  0  0  0  0  0  0  0  0
  -23.4926  -29.7681   21.7826 N   0  0  0  0  0  0  0  0  0  0  0  0
  -25.0917  -25.9238   19.5392 N   0  0  0  0  0  0  0  0  0  0  0  0
  -29.0670  -23.8952   20.2304 N   0  0  0  0  0  0  0  0  0  0  0  0
  -25.3670  -15.2695   20.2041 N   0  0  0  0  0  0  0  0  0  0  0  0
  -30.6740  -18.9164   18.9503 N   0  0  0  0  0  0  0  0  0  0  0  0
  -21.6298  -28.3185   21.9322 N   0  0  0  0  0  0  0  0  0  0  0  0
  -19.8417  -25.7947   19.7143 N   0  3  0  0  0  0  0  0  0  0  0  0
  -31.1418  -21.6968   16.6879 N   0  3  0  0  0  0  0  0  0  0  0  0
  -26.9514  -23.6093   19.3931 O   0  0  0  0  0  0  0  0  0  0  0  0
  -25.9636  -17.0730   21.5509 O   0  0  0  0  0  0  0  0  0  0  0  0
  -29.0279  -16.5749   18.8208 O   0  0  0  0  0  0  0  0  0  0  0  0
  -30.1745  -21.1575   19.2744 O   0  0  0  0  0  0  0  0  0  0  0  0
  -21.3235  -30.5878   21.8159 O   0  0  0  0  0  0  0  0  0  0  0  0
  -33.5825  -26.1993   22.5405 O   0  0  0  0  0  0  0  0  0  0  0  0
  -23.9031  -22.8507   21.3124 O   0  0  0  0  0  0  0  0  0  1  0  0
  -37.1048  -23.7052   19.1086 F   0  0  0  0  0  0  0  0  0  0  0  0
  -35.8092  -27.5277   21.5815 F   0  0  0  0  0  0  0  0  0  0  0  0
  1  2  1  0  0  0  0
  1  5  2  0  0  0  0
  2  6  2  0  0  0  0
  3  8  2  0  0  0  0
  3 16  1  0  0  0  0
  4  9  1  0  0  0  0
  4 16  2  0  0  0  0
  5 18  1  0  0  0  0
  6 20  1  0  0  0  0
  7 10  2  0  0  0  0
  7 19  1  0  0  0  0
  8 24  1  0  0  0  0
  9 24  2  0  0  0  0
 10 25  1  0  0  0  0
 11 12  2  0  0  0  0
 11 26  1  0  0  0  0
 12 27  1  0  0  0  0
 13 21  1  0  0  0  0
 13 25  2  0  0  0  0
 14 23  2  0  0  0  0
 14 30  1  0  0  0  0
 15 27  2  0  0  0  0
 15 28  1  0  0  0  0
 16 29  1  0  0  0  0
 17 29  1  0  0  0  0
 17 32  2  0  0  0  0
 17 33  1  0  0  0  0
 18 20  2  0  0  0  0
 18 38  1  0  0  0  0
 19 21  2  0  0  0  0
 19 39  1  0  0  0  0
 20 49  1  0  0  0  0
 21 40  1  0  0  0  0
 22 23  1  0  0  0  0
 22 31  2  0  0  0  0
 22 64  1  0  0  0  0
 23 71  1  0  0  0  0
 24 86  1  0  0  0  0
 25 87  1  0  0  0  0
 26 28  2  0  0  0  0
 26 86  1  0  0  0  0
 27 88  1  0  0  0  0
 28 89  1  0  0  0  0
 29 68  2  0  0  0  0
 30 54  1  0  0  0  0
 30 70  2  0  0  0  0
 31 55  1  0  0  0  0
 31 70  1  0  0  0  0
 32 69  1  0  0  0  0
 32 74  1  0  0  0  0
 33 75  1  0  0  0  0
 33 81  2  0  0  0  0
 34 50  1  0  0  0  0
 34 76  1  0  0  0  0
 34 82  2  0  0  0  0
 35 65  1  0  0  0  0
 35 72  1  0  0  0  0
 35 83  2  0  0  0  0
 36 66  1  0  0  0  0
 36 77  1  0  0  0  0
 36 84  2  0  0  0  0
 37 73  1  0  0  0  0
 37 78  1  0  0  0  0
 37 85  2  0  0  0  0
 38 41  1  0  0  0  0
 39 50  1  0  0  0  0
 40 72  1  0  0  0  0
 41 43  1  0  0  0  0
 42 44  1  0  0  0  0
 42 45  1  0  0  0  0
 43 49  1  0  0  0  0
 44 52  1  0  0  0  0
 45 73  1  0  0  0  0
 46 51  1  0  0  0  0
 46 71  1  0  0  0  0
 47 52  1  0  0  0  0
 47 73  1  0  0  0  0
 48 53  1  0  0  0  0
 48 71  1  0  0  0  0
 49 76  1  0  0  0  0
 50 72  1  0  0  0  0
 51 53  1  0  0  0  0
 51 62  1  0  0  0  0
 52 69  1  0  0  0  0
 53 79  1  0  0  0  0
 56 64  1  0  0  0  0
 57 66  1  0  0  0  0
 58 67  1  0  0  0  0
 59 67  1  0  0  0  0
 60 67  1  0  0  0  0
 61 80  1  0  0  0  0
 62 78  1  0  0  0  0
 63 64  1  0  0  0  0
 63 87  1  0  0  0  0
 65 67  1  0  0  0  0
 65 77  1  0  0  0  0
 66 80  1  0  0  0  0
 68 69  1  0  0  0  0
M  CHG  3  70   1  79   1  80   1
M  ISO  4  37 100  63 101  78 100  87 101
M  END
> <Batch ID>
0167

> <Smiles>
CNC(C)C(=O)NC(C(=O)N1Cc2cc([101O:1][101CH2:1]C(C)c3c(N4CC(N)C(C[100NH:0][100C:0](=O)N5CCCC(n6nc(-c7ccc(Oc8ccc(F)cc8F)cc7)c(C(N)=O)c6N)C5)C4)cc(C)nc3C)ccc2CC1C(=O)NC1CCCc2ccccc21)C(C)(C)C

> <Shape>
0.217

> <Color>
0.059

> <Negative vol penalty>
0.000

$$$$

  -OEChem-04052322273D

 91101  0     1  0  0  0  0  0999 V2000
  -30.9637  -19.0656   31.7903 C   0  0  0  0  0  0  0  0  0  0  0  0
  -30.8842  -19.6468   30.5289 C   0  0  0  0  0  0  0  0  0  0  0  0
  -23.3399  -10.1898   22.2469 C   0  0  0  0  0  0  0  0  0  0  0  0
  -23.6090   -9.5309   19.9381 C   0  0  0  0  0  0  0  0  0  0  0  0
  -29.7989  -18.8033   32.5104 C   0  0  0  0  0  0  0  0  0  0  0  0
  -29.6398  -19.9652   29.9863 C   0  0  0  0  0  0  0  0  0  0  0  0
  -29.5644  -24.5624   27.8637 C   0  0  0  0  0  0  0  0  0  0  0  0
  -22.6057   -9.0295   22.4925 C   0  0  0  0  0  0  0  0  0  0  0  0
  -22.8749   -8.3705   20.1837 C   0  0  0  0  0  0  0  0  0  0  0  0
  -30.1399  -24.6898   26.6002 C   0  0  0  0  0  0  0  0  0  0  0  0
  -19.4555   -7.9194   21.9748 C   0  0  0  0  0  0  0  0  0  0  0  0
  -18.2805   -8.0416   22.7164 C   0  0  0  0  0  0  0  0  0  0  0  0
  -27.9472  -24.5974   25.5989 C   0  0  0  0  0  0  0  0  0  0  0  0
  -31.1224  -26.2229   20.2941 C   0  0  0  0  0  0  0  0  0  0  0  0
  -19.1762   -6.5395   24.3832 C   0  0  0  0  0  0  0  0  0  0  0  0
  -23.8415  -10.4405   20.9696 C   0  0  0  0  0  0  0  0  0  0  0  0
  -24.1648  -12.9690   20.8715 C   0  0  0  0  0  0  0  0  0  0  0  0
  -28.5401  -19.1275   31.9804 C   0  0  0  0  0  0  0  0  0  0  0  0
  -28.1745  -24.4403   28.0037 C   0  0  0  0  0  0  0  0  0  0  0  0
  -28.4570  -19.7058   30.6993 C   0  0  0  0  0  0  0  0  0  0  0  0
  -27.3564  -24.4711   26.8654 C   0  0  0  0  0  0  0  0  0  0  0  0
  -30.3831  -26.1554   21.4698 C   0  0  0  0  0  0  0  0  0  0  0  0
  -29.8060  -24.9499   21.8533 C   0  0  0  0  0  0  0  0  0  0  0  0
  -22.3732   -8.1199   21.4609 C   0  0  0  0  0  0  0  0  0  0  0  0
  -29.3315  -24.7045   25.4674 C   0  0  0  0  0  0  0  0  0  0  0  0
  -20.4909   -7.1071   22.4373 C   0  0  0  0  0  0  0  0  0  0  0  0
  -18.1409   -7.3517   23.9206 C   0  0  0  0  0  0  0  0  0  0  0  0
  -20.3513   -6.4172   23.6415 C   0  0  0  0  0  0  0  0  0  0  0  0
  -24.5994  -11.6392   20.7152 C   0  0  0  0  0  0  0  0  0  0  0  0
  -29.9962  -23.8498   21.0327 C   0  0  0  0  0  0  0  0  0  0  0  0
  -31.2538  -25.0657   19.5435 C   0  0  0  0  0  0  0  0  0  0  0  0
  -25.2476  -13.7297   20.5032 C   0  0  0  0  0  0  0  0  0  0  0  0
  -22.8959  -13.4718   21.3104 C   0  0  0  0  0  0  0  0  0  0  0  0
  -26.2230  -22.2094   29.1519 C   0  0  0  0  0  0  0  0  0  0  0  0
  -23.9583  -24.4702   28.6209 C   0  0  0  0  0  0  0  0  0  0  0  0
  -22.9947  -27.2589   26.9058 C   0  0  0  0  0  0  0  0  0  0  0  0
  -30.7261  -14.7844   20.6383 C   0  0  0  0  0  0  0  0  0  0  0  0
  -27.3065  -18.7817   32.7762 C   0  0  0  0  0  0  0  0  0  0  0  0
  -27.5673  -24.3305   29.3755 C   0  0  0  0  0  0  0  0  0  0  0  0
  -25.8573  -24.3638   26.9631 C   0  0  0  0  0  0  0  0  0  0  0  0
  -26.0472  -19.4930   32.2876 C   0  0  0  0  0  0  0  0  0  0  0  0
  -29.5768  -12.4165   18.2406 C   0  0  0  0  0  0  0  0  0  0  0  0
  -25.9374  -19.4012   30.7689 C   0  0  0  0  0  0  0  0  0  0  0  0
  -28.1466  -12.1085   18.6872 C   0  0  0  0  0  0  0  0  0  0  0  0
  -29.8535  -21.2074   20.4575 C   0  0  0  0  0  0  0  0  0  0  0  0
  -29.9745  -21.6031   22.5443 C   0  0  0  0  0  0  0  0  0  0  0  0
  -30.5064  -12.6314   19.4330 C   0  0  0  0  0  0  0  0  0  0  0  0
  -28.6161  -13.3353   20.8490 C   0  0  0  0  0  0  0  0  0  0  0  0
  -30.8832  -18.8502   23.2885 C   0  0  0  0  0  0  0  0  0  0  0  0
  -27.1269  -20.0883   30.0873 C   0  0  1  0  0  0  0  0  0  0  0  0
  -29.4048  -22.4127   21.3394 C   0  0  0  0  0  0  0  0  0  0  0  0
  -26.1799  -23.6960   29.3657 C   0  0  1  0  0  0  0  0  0  0  0  0
  -30.3419  -17.4238   23.2675 C   0  0  1  0  0  0  0  0  0  0  0  0
  -27.6295  -13.1659   19.6810 C   0  0  2  0  0  0  0  0  0  0  0  0
  -30.7919  -16.9227   21.8962 C   0  0  2  0  0  0  0  0  0  0  0  0
  -29.7188  -20.3265   21.7167 C   0  0  0  0  0  0  0  0  0  0  0  0
  -30.4541  -18.1020   20.9830 C   0  0  2  0  0  0  0  0  0  0  0  0
  -30.2225  -27.3857   22.3002 C   0  0  0  0  0  0  0  0  0  0  0  0
  -32.0424  -25.1001   18.2769 C   0  0  0  0  0  0  0  0  0  0  0  0
  -30.8576  -16.5892   24.4293 C   0  0  0  0  0  0  0  0  0  0  0  0
  -31.2698  -18.1427   19.7020 C   0  0  0  0  0  0  0  0  0  0  0  0
  -21.0742  -28.8556   26.6612 C   0  0  0  0  0  0  0  0  0  0  0  0
  -22.4310  -22.3816   27.0039 C   0  0  0  0  0  0  0  0  0  0  0  0
  -21.0674  -24.2387   26.0240 C   0  0  0  0  0  0  0  0  0  0  0  0
  -21.0021  -23.8076   28.4802 C   0  0  0  0  0  0  0  0  0  0  0  0
  -24.6465  -29.5591   27.7659 C   0  0  0  0  0  0  0  0  0  0  0  0
  -29.0030  -24.8358   23.1156 C   0  0  0  0  0  0  0  0  0  1  0  0
  -23.0704  -24.8415   27.4578 C   0  0  1  0  0  0  0  0  0  0  0  0
  -22.3871  -28.5692   27.3733 C   0  0  2  0  0  0  0  0  0  0  0  0
  -21.9211  -23.8174   27.2392 C   0  0  0  0  0  0  0  0  0  0  0  0
  -25.8599  -11.5563   20.2813 N   0  0  0  0  0  0  0  0  0  0  0  0
  -30.7077  -23.8767   19.8836 N   0  0  0  0  0  0  0  0  0  0  0  0
  -26.2266  -12.8437   20.1617 N   0  0  0  0  0  0  0  0  0  0  0  0
  -25.3115  -24.2519   28.3259 N   0  0  0  0  0  0  0  0  0  0  0  0
  -29.9593  -13.6471   20.3358 N   0  0  0  0  0  0  0  0  0  0  0  0
  -25.4481  -15.0632   20.4414 N   0  0  0  0  0  0  0  0  0  0  0  0
  -21.9039  -13.7122   20.3498 N   0  0  0  0  0  0  0  0  0  0  0  0
  -26.9569  -21.5254   30.1022 N   0  0  0  0  0  0  0  0  0  0  0  0
  -22.6161  -26.2047   27.7099 N   0  0  0  0  0  0  0  0  0  0  0  0
  -30.1306  -15.7005   21.4967 N   0  0  0  0  0  0  0  0  0  0  0  0
  -30.7928  -19.3090   21.8473 N   0  3  2  0  0  0  0  0  0  0  0  0
  -23.3225  -29.6982   27.1065 N   0  3  0  0  0  0  0  0  0  0  0  0
  -22.6544  -13.7167   22.5167 O   0  0  0  0  0  0  0  0  0  0  0  0
  -25.6329  -21.7190   28.1964 O   0  0  0  0  0  0  0  0  0  0  0  0
  -23.4707  -24.3843   29.7507 O   0  0  0  0  0  0  0  0  0  0  0  0
  -23.7285  -27.1780   25.9232 O   0  0  0  0  0  0  0  0  0  0  0  0
  -31.8555  -14.9723   20.1733 O   0  0  0  0  0  0  0  0  0  0  0  0
  -21.6571   -6.9874   21.7003 O   0  0  0  0  0  0  0  0  0  0  0  0
  -29.8907  -24.8281   24.2329 O   0  0  0  0  0  0  0  0  0  1  0  0
  -17.0131   -7.4704   24.6334 F   0  0  0  0  0  0  0  0  0  0  0  0
  -21.3430   -5.6363   24.0916 F   0  0  0  0  0  0  0  0  0  0  0  0
  1  2  1  0  0  0  0
  1  5  2  0  0  0  0
  2  6  2  0  0  0  0
  3  8  2  0  0  0  0
  3 16  1  0  0  0  0
  4  9  1  0  0  0  0
  4 16  2  0  0  0  0
  5 18  1  0  0  0  0
  6 20  1  0  0  0  0
  7 10  2  0  0  0  0
  7 19  1  0  0  0  0
  8 24  1  0  0  0  0
  9 24  2  0  0  0  0
 10 25  1  0  0  0  0
 11 12  2  0  0  0  0
 11 26  1  0  0  0  0
 12 27  1  0  0  0  0
 13 21  1  0  0  0  0
 13 25  2  0  0  0  0
 14 22  2  0  0  0  0
 14 31  1  0  0  0  0
 15 27  2  0  0  0  0
 15 28  1  0  0  0  0
 16 29  1  0  0  0  0
 17 29  1  0  0  0  0
 17 32  2  0  0  0  0
 17 33  1  0  0  0  0
 18 20  2  0  0  0  0
 18 38  1  0  0  0  0
 19 21  2  0  0  0  0
 19 39  1  0  0  0  0
 20 50  1  0  0  0  0
 21 40  1  0  0  0  0
 22 23  1  0  0  0  0
 22 58  1  0  0  0  0
 23 30  2  0  0  0  0
 23 67  1  0  0  0  0
 24 88  1  0  0  0  0
 25 89  1  0  0  0  0
 26 28  2  0  0  0  0
 26 88  1  0  0  0  0
 27 90  1  0  0  0  0
 28 91  1  0  0  0  0
 29 71  2  0  0  0  0
 30 51  1  0  0  0  0
 30 72  1  0  0  0  0
 31 59  1  0  0  0  0
 31 72  2  0  0  0  0
 32 73  1  0  0  0  0
 32 76  1  0  0  0  0
 33 77  1  0  0  0  0
 33 83  2  0  0  0  0
 34 52  1  0  0  0  0
 34 78  1  0  0  0  0
 34 84  2  0  0  0  0
 35 68  1  0  0  0  0
 35 74  1  0  0  0  0
 35 85  2  0  0  0  0
 36 69  1  0  0  0  0
 36 79  1  0  0  0  0
 36 86  2  0  0  0  0
 37 75  1  0  0  0  0
 37 80  1  0  0  0  0
 37 87  2  0  0  0  0
 38 41  1  0  0  0  0
 39 52  1  0  0  0  0
 40 74  1  0  0  0  0
 41 43  1  0  0  0  0
 42 44  1  0  0  0  0
 42 47  1  0  0  0  0
 43 50  1  0  0  0  0
 44 54  1  0  0  0  0
 45 51  1  0  0  0  0
 45 56  1  0  0  0  0
 46 51  1  0  0  0  0
 46 56  1  0  0  0  0
 47 75  1  0  0  0  0
 48 54  1  0  0  0  0
 48 75  1  0  0  0  0
 49 53  1  0  0  0  0
 49 81  1  0  0  0  0
 50 78  1  0  0  0  0
 52 74  1  0  0  0  0
 53 55  1  0  0  0  0
 53 60  1  0  0  0  0
 54 73  1  0  0  0  0
 55 57  1  0  0  0  0
 55 80  1  0  0  0  0
 56 81  1  0  0  0  0
 57 61  1  0  0  0  0
 57 81  1  0  0  0  0
 62 69  1  0  0  0  0
 63 70  1  0  0  0  0
 64 70  1  0  0  0  0
 65 70  1  0  0  0  0
 66 82  1  0  0  0  0
 67 89  1  0  0  0  0
 68 70  1  0  0  0  0
 68 79  1  0  0  0  0
 69 82  1  0  0  0  0
 71 73  1  0  0  0  0
M  CHG  2  81   1  82   1
M  ISO  4  37 100  67 101  80 100  89 101
M  END
> <Batch ID>
0167

> <Smiles>
CNC(C)C(=O)NC(C(=O)N1Cc2cc([101O:1][101CH2:1]c3c(C)cc(C)nc3C3CC(N4CC(C)C([100NH:0][100C:0](=O)N5CCCC(n6nc(-c7ccc(Oc8ccc(F)cc8F)cc7)c(C(N)=O)c6N)C5)C4C)C3)ccc2CC1C(=O)NC1CCCc2ccccc21)C(C)(C)C

> <Shape>
0.204

> <Color>
0.152

> <Negative vol penalty>
0.000

$$$$

  -OEChem-04052322273D

 86 95  0     1  0  0  0  0  0999 V2000
  -30.1450  -33.6436   25.2669 C   0  0  0  0  0  0  0  0  0  0  0  0
  -30.6834  -32.4442   25.7221 C   0  0  0  0  0  0  0  0  0  0  0  0
  -22.9872   -9.9439   20.8939 C   0  0  0  0  0  0  0  0  0  0  0  0
  -23.7771  -10.5088   23.1061 C   0  0  0  0  0  0  0  0  0  0  0  0
  -28.9451  -33.6427   24.5570 C   0  0  0  0  0  0  0  0  0  0  0  0
  -30.0215  -31.2434   25.4685 C   0  0  0  0  0  0  0  0  0  0  0  0
  -32.5812  -25.7896   24.3691 C   0  0  0  0  0  0  0  0  0  0  0  0
  -22.2091   -8.9195   21.4332 C   0  0  0  0  0  0  0  0  0  0  0  0
  -22.9990   -9.4844   23.6455 C   0  0  0  0  0  0  0  0  0  0  0  0
  -32.8240  -24.6857   25.1853 C   0  0  0  0  0  0  0  0  0  0  0  0
  -22.6758   -5.7670   22.5593 C   0  0  0  0  0  0  0  0  0  0  0  0
  -22.6963   -4.5304   21.9144 C   0  0  0  0  0  0  0  0  0  0  0  0
  -30.7729  -23.6744   24.4173 C   0  0  0  0  0  0  0  0  0  0  0  0
  -29.3592  -17.8703   22.7653 C   0  0  0  0  0  0  0  0  0  0  0  0
  -20.3141   -4.6848   21.5425 C   0  0  0  0  0  0  0  0  0  0  0  0
  -23.7712  -10.7385   21.7303 C   0  0  0  0  0  0  0  0  0  0  0  0
  -24.1943  -13.1359   20.9680 C   0  0  0  0  0  0  0  0  0  0  0  0
  -28.2731  -32.4404   24.2862 C   0  0  0  0  0  0  0  0  0  0  0  0
  -31.4251  -25.8492   23.5777 C   0  0  0  0  0  0  0  0  0  0  0  0
  -28.8107  -31.2266   24.7555 C   0  0  0  0  0  0  0  0  0  0  0  0
  -30.5191  -24.7790   23.5900 C   0  0  0  0  0  0  0  0  0  0  0  0
  -29.5201  -18.7682   23.8450 C   0  0  0  0  0  0  0  0  0  0  0  0
  -22.2150   -8.6898   22.8090 C   0  0  0  0  0  0  0  0  0  0  0  0
  -31.9183  -23.6292   25.2117 C   0  0  0  0  0  0  0  0  0  0  0  0
  -21.4744   -6.4625   22.6959 C   0  0  0  0  0  0  0  0  0  0  0  0
  -21.5155   -3.9893   21.4060 C   0  0  0  0  0  0  0  0  0  0  0  0
  -20.2936   -5.9214   22.1875 C   0  0  0  0  0  0  0  0  0  0  0  0
  -24.5756  -11.7964   21.1736 C   0  0  0  0  0  0  0  0  0  0  0  0
  -30.8346  -19.1803   23.8521 C   0  0  0  0  0  0  0  0  0  0  0  0
  -30.5865  -17.7642   22.1433 C   0  0  0  0  0  0  0  0  0  0  0  0
  -25.3057  -13.7290   20.4206 C   0  0  0  0  0  0  0  0  0  0  0  0
  -31.4710  -20.0969   24.7409 C   0  0  0  0  0  0  0  0  0  0  0  0
  -30.6042  -20.7786   25.5422 C   0  0  0  0  0  0  0  0  0  0  0  0
  -22.9472  -13.7859   21.2468 C   0  0  0  0  0  0  0  0  0  0  0  0
  -28.9021  -27.7772   23.4341 C   0  0  0  0  0  0  0  0  0  0  0  0
  -28.1799  -25.9973   20.8201 C   0  0  0  0  0  0  0  0  0  0  0  0
  -28.5220  -23.0470   19.1392 C   0  0  0  0  0  0  0  0  0  0  0  0
  -30.8220  -14.5688   20.3185 C   0  0  0  0  0  0  0  0  0  0  0  0
  -26.9546  -32.4942   23.5559 C   0  0  0  0  0  0  0  0  0  0  0  0
  -31.1913  -27.0350   22.6825 C   0  0  0  0  0  0  0  0  0  0  0  0
  -28.5723  -19.2524   24.8726 C   0  0  0  0  0  0  0  0  0  0  0  0
  -29.2731  -24.7852   22.7439 C   0  0  0  0  0  0  0  0  0  0  0  0
  -29.0795  -20.5681   25.5040 C   0  0  0  0  0  0  0  0  0  0  0  0
  -26.5078  -31.1425   23.0049 C   0  0  0  0  0  0  0  0  0  0  0  0
  -29.5751  -11.6960   18.6247 C   0  0  0  0  0  0  0  0  0  0  0  0
  -26.6671  -30.0556   24.0632 C   0  0  0  0  0  0  0  0  0  0  0  0
  -28.1346  -11.5732   19.1246 C   0  0  0  0  0  0  0  0  0  0  0  0
  -30.5148  -12.1834   19.7254 C   0  0  0  0  0  0  0  0  0  0  0  0
  -28.6566  -13.3104   20.8876 C   0  0  0  0  0  0  0  0  0  0  0  0
  -28.1350  -29.9011   24.4788 C   0  0  1  0  0  0  0  0  0  0  0  0
  -29.7243  -27.2199   22.3067 C   0  0  1  0  0  0  0  0  0  0  0  0
  -27.6618  -12.8756   19.7979 C   0  0  2  0  0  0  0  0  0  0  0  0
  -32.9689  -20.2866   24.7989 C   0  0  0  0  0  0  0  0  0  0  0  0
  -30.8089  -17.7135   19.6315 C   0  0  0  0  0  0  0  0  0  0  0  0
  -31.3744  -21.2824   27.8748 C   0  0  0  0  0  0  0  0  0  0  0  0
  -27.7828  -21.8745   17.0472 C   0  0  0  0  0  0  0  0  0  0  0  0
  -25.4395  -25.5041   22.0678 C   0  0  0  0  0  0  0  0  0  0  0  0
  -25.1220  -23.6161   20.4544 C   0  0  0  0  0  0  0  0  0  0  0  0
  -25.4009  -25.9455   19.6065 C   0  0  0  0  0  0  0  0  0  0  0  0
  -32.8852  -18.6248   22.4662 C   0  0  0  0  0  0  0  0  0  0  0  0
  -31.3034  -22.7926   18.1603 C   0  0  0  0  0  0  0  0  0  0  0  0
  -30.9749  -16.9600   20.9650 C   0  0  2  0  0  0  0  0  0  0  0  0
  -31.0125  -21.8573   26.5141 C   0  0  1  0  0  0  0  0  0  1  0  0
  -27.3968  -24.7307   20.5722 C   0  0  1  0  0  0  0  0  0  0  0  0
  -28.8511  -22.7469   17.6880 C   0  0  2  0  0  0  0  0  0  0  0  0
  -25.8622  -24.9495   20.6928 C   0  0  0  0  0  0  0  0  0  0  0  0
  -25.8310  -11.5526   20.7882 N   0  0  0  0  0  0  0  0  0  0  0  0
  -31.4800  -18.5650   22.8146 N   0  0  0  0  0  0  0  0  0  0  0  0
  -26.2482  -12.7470   20.3347 N   0  0  0  0  0  0  0  0  0  0  0  0
  -29.0857  -25.9697   21.8900 N   0  0  0  0  0  0  0  0  0  0  0  0
  -30.0101  -13.4226   20.3218 N   0  0  0  0  0  0  0  0  0  0  0  0
  -25.5588  -14.9896   20.0091 N   0  0  0  0  0  0  0  0  0  0  0  0
  -21.9104  -13.0290   21.8095 N   0  0  0  0  0  0  0  0  0  0  0  0
  -28.8685  -29.1580   23.4767 N   0  0  0  0  0  0  0  0  0  0  0  0
  -27.8289  -24.2317   19.2712 N   0  0  0  0  0  0  0  0  0  0  0  0
  -30.2649  -15.7022   20.8981 N   0  0  0  0  0  0  0  0  0  0  0  0
  -30.1583  -22.0379   17.5892 N   0  3  0  0  0  0  0  0  0  0  0  0
  -22.7523  -14.9979   20.9891 O   0  0  0  0  0  0  0  0  0  0  0  0
  -28.3386  -27.0113   24.2071 O   0  0  0  0  0  0  0  0  0  0  0  0
  -27.9999  -26.9729   20.0869 O   0  0  0  0  0  0  0  0  0  0  0  0
  -28.8441  -22.3030   20.0629 O   0  0  0  0  0  0  0  0  0  0  0  0
  -31.9570  -14.5827   19.8301 O   0  0  0  0  0  0  0  0  0  0  0  0
  -21.4558   -7.6905   23.3357 O   0  0  0  0  0  0  0  0  0  0  0  0
  -32.1525  -22.5508   26.0080 O   0  0  0  0  0  0  0  0  0  1  0  0
  -21.5356   -2.8024   20.7854 F   0  0  0  0  0  0  0  0  0  0  0  0
  -19.1365   -6.5855   22.3146 F   0  0  0  0  0  0  0  0  0  0  0  0
  1  2  1  0  0  0  0
  1  5  2  0  0  0  0
  2  6  2  0  0  0  0
  3  8  2  0  0  0  0
  3 16  1  0  0  0  0
  4  9  1  0  0  0  0
  4 16  2  0  0  0  0
  5 18  1  0  0  0  0
  6 20  1  0  0  0  0
  7 10  2  0  0  0  0
  7 19  1  0  0  0  0
  8 23  1  0  0  0  0
  9 23  2  0  0  0  0
 10 24  1  0  0  0  0
 11 12  2  0  0  0  0
 11 25  1  0  0  0  0
 12 26  1  0  0  0  0
 13 21  1  0  0  0  0
 13 24  2  0  0  0  0
 14 22  1  0  0  0  0
 14 30  2  0  0  0  0
 15 26  2  0  0  0  0
 15 27  1  0  0  0  0
 16 28  1  0  0  0  0
 17 28  1  0  0  0  0
 17 31  2  0  0  0  0
 17 34  1  0  0  0  0
 18 20  2  0  0  0  0
 18 39  1  0  0  0  0
 19 21  2  0  0  0  0
 19 40  1  0  0  0  0
 20 50  1  0  0  0  0
 21 42  1  0  0  0  0
 22 29  2  0  0  0  0
 22 41  1  0  0  0  0
 23 83  1  0  0  0  0
 24 84  1  0  0  0  0
 25 27  2  0  0  0  0
 25 83  1  0  0  0  0
 26 85  1  0  0  0  0
 27 86  1  0  0  0  0
 28 67  2  0  0  0  0
 29 32  1  0  0  0  0
 29 68  1  0  0  0  0
 30 62  1  0  0  0  0
 30 68  1  0  0  0  0
 31 69  1  0  0  0  0
 31 72  1  0  0  0  0
 32 33  2  0  0  0  0
 32 53  1  0  0  0  0
 33 43  1  0  0  0  0
 33 63  1  0  0  0  0
 34 73  1  0  0  0  0
 34 78  2  0  0  0  0
 35 51  1  0  0  0  0
 35 74  1  0  0  0  0
 35 79  2  0  0  0  0
 36 64  1  0  0  0  0
 36 70  1  0  0  0  0
 36 80  2  0  0  0  0
 37 65  1  0  0  0  0
 37 75  1  0  0  0  0
 37 81  2  0  0  0  0
 38 71  1  0  0  0  0
 38 76  1  0  0  0  0
 38 82  2  0  0  0  0
 39 44  1  0  0  0  0
 40 51  1  0  0  0  0
 41 43  1  0  0  0  0
 42 70  1  0  0  0  0
 44 46  1  0  0  0  0
 45 47  1  0  0  0  0
 45 48  1  0  0  0  0
 46 50  1  0  0  0  0
 47 52  1  0  0  0  0
 48 71  1  0  0  0  0
 49 52  1  0  0  0  0
 49 71  1  0  0  0  0
 50 74  1  0  0  0  0
 51 70  1  0  0  0  0
 52 69  1  0  0  0  0
 54 62  1  0  0  0  0
 55 63  1  0  0  0  0
 56 65  1  0  0  0  0
 57 66  1  0  0  0  0
 58 66  1  0  0  0  0
 59 66  1  0  0  0  0
 60 68  1  0  0  0  0
 61 77  1  0  0  0  0
 62 76  1  0  0  0  0
 63 84  1  0  0  0  0
 64 66  1  0  0  0  0
 64 75  1  0  0  0  0
 65 77  1  0  0  0  0
 67 69  1  0  0  0  0
M  CHG  1  77   1
M  ISO  4  38 100  63 101  76 100  84 101
M  END
> <Batch ID>
0167

> <Smiles>
CNC(C)C(=O)NC(C(=O)N1Cc2cc([101O:1][101CH:1](C)C3=C(C)c4c(cc(C(C)[100NH:0][100C:0](=O)N5CCCC(n6nc(-c7ccc(Oc8ccc(F)cc8F)cc7)c(C(N)=O)c6N)C5)n4C)CC3)ccc2CC1C(=O)NC1CCCc2ccccc21)C(C)(C)C

> <Shape>
0.251

> <Color>
0.175

> <Negative vol penalty>
0.000

$$$$

  -OEChem-04052322273D

 85 94  0     1  0  0  0  0  0999 V2000
  -28.9462  -33.1995   26.2597 C   0  0  0  0  0  0  0  0  0  0  0  0
  -29.0239  -31.8669   25.8677 C   0  0  0  0  0  0  0  0  0  0  0  0
  -23.6133  -15.3601   21.4290 C   0  0  0  0  0  0  0  0  0  0  0  0
  -22.7782  -14.4247   19.3639 C   0  0  0  0  0  0  0  0  0  0  0  0
  -27.8064  -33.9463   25.9648 C   0  0  0  0  0  0  0  0  0  0  0  0
  -27.9613  -31.2801   25.1814 C   0  0  0  0  0  0  0  0  0  0  0  0
  -28.3155  -27.0253   20.7908 C   0  0  0  0  0  0  0  0  0  0  0  0
  -22.7090  -16.4161   21.3164 C   0  0  0  0  0  0  0  0  0  0  0  0
  -21.8737  -15.4806   19.2514 C   0  0  0  0  0  0  0  0  0  0  0  0
  -28.1647  -25.6395   20.8133 C   0  0  0  0  0  0  0  0  0  0  0  0
  -22.4601  -19.3080   19.5846 C   0  0  0  0  0  0  0  0  0  0  0  0
  -22.9353  -20.5962   19.8302 C   0  0  0  0  0  0  0  0  0  0  0  0
  -25.8622  -25.8851   20.1369 C   0  0  0  0  0  0  0  0  0  0  0  0
  -21.3432  -20.8401   21.6311 C   0  0  0  0  0  0  0  0  0  0  0  0
  -23.6480  -14.3644   20.4527 C   0  0  0  0  0  0  0  0  0  0  0  0
  -24.3729  -12.0393   21.2117 C   0  0  0  0  0  0  0  0  0  0  0  0
  -26.7333  -33.3712   25.2660 C   0  0  0  0  0  0  0  0  0  0  0  0
  -27.2359  -27.8533   20.4513 C   0  0  0  0  0  0  0  0  0  0  0  0
  -26.8055  -32.0196   24.8780 C   0  0  0  0  0  0  0  0  0  0  0  0
  -26.0026  -27.2810   20.1084 C   0  0  0  0  0  0  0  0  0  0  0  0
  -27.5844  -21.4868   20.8084 C   0  0  0  0  0  0  0  0  0  0  0  0
  -28.0468  -20.7077   19.7537 C   0  0  0  0  0  0  0  0  0  0  0  0
  -26.8007  -20.9088   21.8009 C   0  0  0  0  0  0  0  0  0  0  0  0
  -21.8391  -16.4763   20.2277 C   0  0  0  0  0  0  0  0  0  0  0  0
  -26.9371  -25.0693   20.4892 C   0  0  0  0  0  0  0  0  0  0  0  0
  -21.4265  -18.7858   20.3622 C   0  0  0  0  0  0  0  0  0  0  0  0
  -22.3769  -21.3623   20.8534 C   0  0  0  0  0  0  0  0  0  0  0  0
  -20.8681  -19.5519   21.3854 C   0  0  0  0  0  0  0  0  0  0  0  0
  -24.5824  -13.2737   20.5681 C   0  0  0  0  0  0  0  0  0  0  0  0
  -27.7003  -19.3663   19.7376 C   0  0  0  0  0  0  0  0  0  0  0  0
  -26.5097  -19.5584   21.6931 C   0  0  0  0  0  0  0  0  0  0  0  0
  -25.5536  -11.3586   21.0415 C   0  0  0  0  0  0  0  0  0  0  0  0
  -23.2145  -11.5516   21.9016 C   0  0  0  0  0  0  0  0  0  0  0  0
  -25.5880  -30.1193   21.9524 C   0  0  0  0  0  0  0  0  0  0  0  0
  -24.1811  -30.4736   19.0511 C   0  0  0  0  0  0  0  0  0  0  0  0
  -23.3674  -29.0933   16.0379 C   0  0  0  0  0  0  0  0  0  0  0  0
  -28.1271  -14.8489   17.5843 C   0  0  0  0  0  0  0  0  0  0  0  0
  -25.5025  -34.2049   25.0115 C   0  0  0  0  0  0  0  0  0  0  0  0
  -27.4222  -29.3452   20.4058 C   0  0  0  0  0  0  0  0  0  0  0  0
  -24.8181  -28.1249   19.7172 C   0  0  0  0  0  0  0  0  0  0  0  0
  -24.5754  -33.6146   23.9521 C   0  0  0  0  0  0  0  0  0  0  0  0
  -30.0167  -13.0343   20.3988 C   0  0  0  0  0  0  0  0  0  0  0  0
  -24.3610  -32.1249   24.2005 C   0  0  0  0  0  0  0  0  0  0  0  0
  -28.8266  -12.2723   20.9666 C   0  0  0  0  0  0  0  0  0  0  0  0
  -27.2206  -18.3836   17.4264 C   0  0  0  0  0  0  0  0  0  0  0  0
  -29.5424  -14.2668   19.6339 C   0  0  0  0  0  0  0  0  0  0  0  0
  -27.6829  -17.1168   16.7263 C   0  0  0  0  0  0  0  0  0  0  0  0
  -28.3667  -17.0006   19.0181 C   0  0  0  0  0  0  0  0  0  0  0  0
  -28.0989  -12.5756   18.5170 C   0  0  0  0  0  0  0  0  0  0  0  0
  -25.6838  -31.3546   24.1101 C   0  0  1  0  0  0  0  0  0  0  0  0
  -28.1719  -18.4704   18.6199 C   0  0  2  0  0  0  0  0  0  0  0  0
  -26.1127  -30.1154   20.5445 C   0  0  1  0  0  0  0  0  0  0  0  0
  -27.7928  -11.9232   19.8794 C   0  0  2  0  0  0  0  0  0  0  0  0
  -28.8905  -21.2990   18.6745 C   0  0  0  0  0  0  0  0  0  0  0  0
  -26.2892  -21.7179   22.9455 C   0  0  0  0  0  0  0  0  0  0  0  0
  -25.6704  -18.8817   22.7271 C   0  0  0  0  0  0  0  0  0  0  0  0
  -22.1835  -29.6148   13.8876 C   0  0  0  0  0  0  0  0  0  0  0  0
  -21.4919  -30.1410   20.4539 C   0  0  0  0  0  0  0  0  0  0  0  0
  -20.4547  -29.7196   18.2145 C   0  0  0  0  0  0  0  0  0  0  0  0
  -21.5372  -31.9156   18.6923 C   0  0  0  0  0  0  0  0  0  0  0  0
  -25.8303  -28.6862   14.4482 C   0  0  0  0  0  0  0  0  0  0  0  0
  -27.9265  -22.9412   20.8743 C   0  0  0  0  0  0  0  0  0  1  0  0
  -22.9820  -29.8671   18.3632 C   0  0  1  0  0  0  0  0  0  0  0  0
  -23.5168  -29.6120   14.6191 C   0  0  2  0  0  0  0  0  0  0  0  0
  -21.6380  -30.3947   18.9402 C   0  0  0  0  0  0  0  0  0  0  0  0
  -25.8004  -13.3741   20.0293 N   0  0  0  0  0  0  0  0  0  0  0  0
  -26.9409  -18.7694   20.6835 N   0  0  0  0  0  0  0  0  0  0  0  0
  -26.3670  -12.1942   20.3342 N   0  0  0  0  0  0  0  0  0  0  0  0
  -25.0485  -29.5789   19.6937 N   0  0  0  0  0  0  0  0  0  0  0  0
  -28.5348  -13.9767   18.6071 N   0  0  0  0  0  0  0  0  0  0  0  0
  -28.1359  -16.2268   17.7953 N   0  0  0  0  0  0  0  0  0  0  0  0
  -25.9651  -10.1328   21.4296 N   0  0  0  0  0  0  0  0  0  0  0  0
  -22.0871  -12.3803   21.9831 N   0  0  0  0  0  0  0  0  0  0  0  0
  -26.0623  -31.1608   22.7268 N   0  0  0  0  0  0  0  0  0  0  0  0
  -23.1594  -30.1178   16.9370 N   0  0  0  0  0  0  0  0  0  0  0  0
  -24.4708  -28.7603   13.8540 N   0  3  0  0  0  0  0  0  0  0  0  0
  -23.1859  -10.4211   22.4444 O   0  0  0  0  0  0  0  0  0  0  0  0
  -24.8092  -29.2431   22.3094 O   0  0  0  0  0  0  0  0  0  0  0  0
  -24.3460  -31.6955   19.0134 O   0  0  0  0  0  0  0  0  0  0  0  0
  -23.4253  -27.8984   16.3199 O   0  0  0  0  0  0  0  0  0  0  0  0
  -27.7363  -14.3970   16.4961 O   0  0  0  0  0  0  0  0  0  0  0  0
  -20.9564  -17.5064   20.1177 O   0  0  0  0  0  0  0  0  0  0  0  0
  -26.7860  -23.7070   20.5111 O   0  0  0  0  0  0  0  0  0  1  0  0
  -22.8343  -22.5987   21.0901 F   0  0  0  0  0  0  0  0  0  0  0  0
  -19.8756  -19.0552   22.1366 F   0  0  0  0  0  0  0  0  0  0  0  0
  1  2  1  0  0  0  0
  1  5  2  0  0  0  0
  2  6  2  0  0  0  0
  3  8  2  0  0  0  0
  3 15  1  0  0  0  0
  4  9  1  0  0  0  0
  4 15  2  0  0  0  0
  5 17  1  0  0  0  0
  6 19  1  0  0  0  0
  7 10  2  0  0  0  0
  7 18  1  0  0  0  0
  8 24  1  0  0  0  0
  9 24  2  0  0  0  0
 10 25  1  0  0  0  0
 11 12  2  0  0  0  0
 11 26  1  0  0  0  0
 12 27  1  0  0  0  0
 13 20  1  0  0  0  0
 13 25  2  0  0  0  0
 14 27  2  0  0  0  0
 14 28  1  0  0  0  0
 15 29  1  0  0  0  0
 16 29  1  0  0  0  0
 16 32  2  0  0  0  0
 16 33  1  0  0  0  0
 17 19  2  0  0  0  0
 17 38  1  0  0  0  0
 18 20  2  0  0  0  0
 18 39  1  0  0  0  0
 19 50  1  0  0  0  0
 20 40  1  0  0  0  0
 21 22  2  0  0  0  0
 21 23  1  0  0  0  0
 21 62  1  0  0  0  0
 22 30  1  0  0  0  0
 22 54  1  0  0  0  0
 23 31  2  0  0  0  0
 23 55  1  0  0  0  0
 24 82  1  0  0  0  0
 25 83  1  0  0  0  0
 26 28  2  0  0  0  0
 26 82  1  0  0  0  0
 27 84  1  0  0  0  0
 28 85  1  0  0  0  0
 29 66  2  0  0  0  0
 30 51  1  0  0  0  0
 30 67  2  0  0  0  0
 31 56  1  0  0  0  0
 31 67  1  0  0  0  0
 32 68  1  0  0  0  0
 32 72  1  0  0  0  0
 33 73  1  0  0  0  0
 33 77  2  0  0  0  0
 34 52  1  0  0  0  0
 34 74  1  0  0  0  0
 34 78  2  0  0  0  0
 35 63  1  0  0  0  0
 35 69  1  0  0  0  0
 35 79  2  0  0  0  0
 36 64  1  0  0  0  0
 36 75  1  0  0  0  0
 36 80  2  0  0  0  0
 37 70  1  0  0  0  0
 37 71  1  0  0  0  0
 37 81  2  0  0  0  0
 38 41  1  0  0  0  0
 39 52  1  0  0  0  0
 40 69  1  0  0  0  0
 41 43  1  0  0  0  0
 42 44  1  0  0  0  0
 42 46  1  0  0  0  0
 43 50  1  0  0  0  0
 44 53  1  0  0  0  0
 45 47  1  0  0  0  0
 45 51  1  0  0  0  0
 46 70  1  0  0  0  0
 47 71  1  0  0  0  0
 48 51  1  0  0  0  0
 48 71  1  0  0  0  0
 49 53  1  0  0  0  0
 49 70  1  0  0  0  0
 50 74  1  0  0  0  0
 52 69  1  0  0  0  0
 53 68  1  0  0  0  0
 57 64  1  0  0  0  0
 58 65  1  0  0  0  0
 59 65  1  0  0  0  0
 60 65  1  0  0  0  0
 61 76  1  0  0  0  0
 62 83  1  0  0  0  0
 63 65  1  0  0  0  0
 63 75  1  0  0  0  0
 64 76  1  0  0  0  0
 66 68  1  0  0  0  0
M  CHG  1  76   1
M  ISO  4  37 100  62 101  71 100  83 101
M  END
> <Batch ID>
0167

> <Smiles>
CNC(C)C(=O)NC(C(=O)N1Cc2cc([101O:1][101CH2:1]c3c(C)c(C)nc(C4CC[100N:0]([100C:0](=O)N5CCCC(n6nc(-c7ccc(Oc8ccc(F)cc8F)cc7)c(C(N)=O)c6N)C5)C4)c3C)ccc2CC1C(=O)NC1CCCc2ccccc21)C(C)(C)C

> <Shape>
0.254

> <Color>
0.071

> <Negative vol penalty>
0.000

$$$$

  -OEChem-04052322273D

 91101  0     1  0  0  0  0  0999 V2000
  -30.0282  -31.7569   25.8530 C   0  0  0  0  0  0  0  0  0  0  0  0
  -29.5782  -30.6310   25.1709 C   0  0  0  0  0  0  0  0  0  0  0  0
  -24.7990  -16.4004   21.3707 C   0  0  0  0  0  0  0  0  0  0  0  0
  -25.7026  -14.7711   22.9089 C   0  0  0  0  0  0  0  0  0  0  0  0
  -29.1128  -32.6966   26.3252 C   0  0  0  0  0  0  0  0  0  0  0  0
  -28.2124  -30.4436   24.9615 C   0  0  0  0  0  0  0  0  0  0  0  0
  -27.1558  -28.9747   20.2317 C   0  0  0  0  0  0  0  0  0  0  0  0
  -25.9296  -16.2667   20.5649 C   0  0  0  0  0  0  0  0  0  0  0  0
  -26.8333  -14.6375   22.1031 C   0  0  0  0  0  0  0  0  0  0  0  0
  -27.3806  -27.6355   19.9157 C   0  0  0  0  0  0  0  0  0  0  0  0
  -27.6741  -13.0581   19.2362 C   0  0  0  0  0  0  0  0  0  0  0  0
  -28.1308  -11.7669   18.9719 C   0  0  0  0  0  0  0  0  0  0  0  0
  -28.4782  -18.9185   21.2461 C   0  0  0  0  0  0  0  0  0  0  0  0
  -25.0269  -27.1824   20.1877 C   0  0  0  0  0  0  0  0  0  0  0  0
  -30.2495  -12.3057   20.0004 C   0  0  0  0  0  0  0  0  0  0  0  0
  -24.6855  -15.6526   22.5428 C   0  0  0  0  0  0  0  0  0  0  0  0
  -22.3232  -15.0506   23.2944 C   0  0  0  0  0  0  0  0  0  0  0  0
  -27.7357  -32.5255   26.1129 C   0  0  0  0  0  0  0  0  0  0  0  0
  -25.8643  -29.4263   20.5393 C   0  0  0  0  0  0  0  0  0  0  0  0
  -27.2776  -31.3813   25.4324 C   0  0  0  0  0  0  0  0  0  0  0  0
  -28.6276  -19.9110   20.2775 C   0  0  0  0  0  0  0  0  0  0  0  0
  -24.7880  -28.5283   20.5048 C   0  0  0  0  0  0  0  0  0  0  0  0
  -27.6459  -20.5657   22.8054 C   0  0  0  0  0  0  0  0  0  0  0  0
  -27.9872  -19.2459   22.5101 C   0  0  0  0  0  0  0  0  0  0  0  0
  -28.2863  -21.2308   20.5727 C   0  0  0  0  0  0  0  0  0  0  0  0
  -27.7954  -21.5582   21.8367 C   0  0  0  0  0  0  0  0  0  0  0  0
  -26.9468  -15.3853   20.9310 C   0  0  0  0  0  0  0  0  0  0  0  0
  -26.3166  -26.7385   19.8965 C   0  0  0  0  0  0  0  0  0  0  0  0
  -28.5052  -13.9732   19.8825 C   0  0  0  0  0  0  0  0  0  0  0  0
  -29.4184  -11.3907   19.3540 C   0  0  0  0  0  0  0  0  0  0  0  0
  -29.7929  -13.5970   20.2646 C   0  0  0  0  0  0  0  0  0  0  0  0
  -23.5180  -15.7906   23.3759 C   0  0  0  0  0  0  0  0  0  0  0  0
  -21.5351  -15.5595   24.2977 C   0  0  0  0  0  0  0  0  0  0  0  0
  -21.9584  -13.9975   22.3925 C   0  0  0  0  0  0  0  0  0  0  0  0
  -24.4921  -30.7271   23.0944 C   0  0  0  0  0  0  0  0  0  0  0  0
  -21.9558  -31.0301   21.0950 C   0  0  0  0  0  0  0  0  0  0  0  0
  -20.3236  -29.9460   18.3008 C   0  0  0  0  0  0  0  0  0  0  0  0
  -25.1540  -19.0424   26.7449 C   0  0  0  0  0  0  0  0  0  0  0  0
  -26.7812  -33.5446   26.6832 C   0  0  0  0  0  0  0  0  0  0  0  0
  -25.6343  -30.8794   20.8520 C   0  0  0  0  0  0  0  0  0  0  0  0
  -23.3793  -28.9670   20.8075 C   0  0  0  0  0  0  0  0  0  0  0  0
  -25.3761  -33.4605   26.0926 C   0  0  0  0  0  0  0  0  0  0  0  0
  -21.9347  -19.7673   25.0633 C   0  0  0  0  0  0  0  0  0  0  0  0
  -30.0261  -18.3137   18.8054 C   0  0  0  0  0  0  0  0  0  0  0  0
  -30.6292  -19.6758   18.6598 C   0  0  0  0  0  0  0  0  0  0  0  0
  -24.8986  -32.0123   26.0550 C   0  0  0  0  0  0  0  0  0  0  0  0
  -21.0495  -18.6432   25.6041 C   0  0  0  0  0  0  0  0  0  0  0  0
  -28.0676  -20.5897   25.3276 C   0  0  0  0  0  0  0  0  0  0  0  0
  -22.9943  -20.1472   26.0855 C   0  0  0  0  0  0  0  0  0  0  0  0
  -27.1372  -20.5231   26.5273 C   0  0  0  0  0  0  0  0  0  0  0  0
  -25.8177  -20.1826   24.5509 C   0  0  0  0  0  0  0  0  0  0  0  0
  -22.9994  -17.8634   27.0223 C   0  0  0  0  0  0  0  0  0  0  0  0
  -29.1554  -19.5351   18.9322 C   0  0  0  0  0  0  0  0  0  0  0  0
  -27.1138  -20.9162   24.1729 C   0  0  2  0  0  0  0  0  0  0  0  0
  -25.8056  -31.1552   25.1638 C   0  0  1  0  0  0  0  0  0  0  0  0
  -24.3581  -31.1239   21.6514 C   0  0  1  0  0  0  0  0  0  0  0  0
  -21.8662  -17.4172   26.0718 C   0  0  2  0  0  0  0  0  0  0  0  0
  -27.8355  -18.1645   23.5292 C   0  0  0  0  0  0  0  0  0  0  0  0
  -27.4284  -22.9734   22.1544 C   0  0  0  0  0  0  0  0  0  0  0  0
  -18.2559  -30.3623   16.9412 C   0  0  0  0  0  0  0  0  0  0  0  0
  -20.2846  -29.5828   23.1980 C   0  0  0  0  0  0  0  0  0  0  0  0
  -18.5432  -29.1893   21.4427 C   0  0  0  0  0  0  0  0  0  0  0  0
  -19.1386  -31.5191   22.1063 C   0  0  0  0  0  0  0  0  0  0  0  0
  -21.9040  -30.6601   15.9026 C   0  0  0  0  0  0  0  0  0  0  0  0
  -26.3873  -21.5821   18.3283 C   0  0  0  0  0  0  0  0  0  0  0  0
  -28.4467  -22.2949   19.5331 C   0  0  0  0  0  0  0  0  0  0  0  0
  -27.3279  -23.8565   17.9486 C   0  0  0  0  0  0  0  0  0  0  0  0
  -27.6117  -25.1409   18.7022 C   0  0  0  0  0  0  0  0  0  1  0  0
  -20.7725  -30.1663   20.7307 C   0  0  1  0  0  0  0  0  0  0  0  0
  -19.7270  -30.7004   17.1264 C   0  0  2  0  0  0  0  0  0  0  0  0
  -19.7115  -30.1054   21.8656 C   0  0  0  0  0  0  0  0  0  0  0  0
  -23.4955  -16.7004   24.3536 N   0  0  0  0  0  0  0  0  0  0  0  0
  -22.2768  -16.5355   24.8956 N   0  0  0  0  0  0  0  0  0  0  0  0
  -23.2065  -30.3966   21.1138 N   0  0  0  0  0  0  0  0  0  0  0  0
  -23.7802  -18.9786   26.4792 N   0  0  0  0  0  0  0  0  0  0  0  0
  -25.9024  -19.9574   25.9980 N   0  0  0  0  0  0  0  0  0  0  0  0
  -20.2870  -15.2628   24.7178 N   0  0  0  0  0  0  0  0  0  0  0  0
  -22.8870  -13.5973   21.4220 N   0  0  0  0  0  0  0  0  0  0  0  0
  -25.5044  -31.3847   23.7670 N   0  0  0  0  0  0  0  0  0  0  0  0
  -20.2643  -30.6831   19.4646 N   0  0  0  0  0  0  0  0  0  0  0  0
  -20.4500  -30.3574   15.8692 N   0  3  0  0  0  0  0  0  0  0  0  0
  -27.1563  -22.7286   18.9345 N   0  3  1  0  0  0  0  0  0  0  0  0
  -20.8358  -13.4393   22.4352 O   0  0  0  0  0  0  0  0  0  0  0  0
  -23.7324  -29.8877   23.5633 O   0  0  0  0  0  0  0  0  0  0  0  0
  -21.7779  -32.2245   21.3465 O   0  0  0  0  0  0  0  0  0  0  0  0
  -20.7919  -28.8144   18.1970 O   0  0  0  0  0  0  0  0  0  0  0  0
  -25.6862  -18.2754   27.5569 O   0  0  0  0  0  0  0  0  0  0  0  0
  -28.0501  -15.2545   20.1448 O   0  0  0  0  0  0  0  0  0  0  0  0
  -26.5349  -25.4214   19.5867 O   0  0  0  0  0  0  0  0  0  1  0  0
  -29.8563  -10.1502   19.1016 F   0  0  0  0  0  0  0  0  0  0  0  0
  -30.5954  -14.4713   20.8869 F   0  0  0  0  0  0  0  0  0  0  0  0
  1  2  1  0  0  0  0
  1  5  2  0  0  0  0
  2  6  2  0  0  0  0
  3  8  2  0  0  0  0
  3 16  1  0  0  0  0
  4  9  1  0  0  0  0
  4 16  2  0  0  0  0
  5 18  1  0  0  0  0
  6 20  1  0  0  0  0
  7 10  2  0  0  0  0
  7 19  1  0  0  0  0
  8 27  1  0  0  0  0
  9 27  2  0  0  0  0
 10 28  1  0  0  0  0
 11 12  2  0  0  0  0
 11 29  1  0  0  0  0
 12 30  1  0  0  0  0
 13 21  2  0  0  0  0
 13 24  1  0  0  0  0
 14 22  1  0  0  0  0
 14 28  2  0  0  0  0
 15 30  2  0  0  0  0
 15 31  1  0  0  0  0
 16 32  1  0  0  0  0
 17 32  1  0  0  0  0
 17 33  2  0  0  0  0
 17 34  1  0  0  0  0
 18 20  2  0  0  0  0
 18 39  1  0  0  0  0
 19 22  2  0  0  0  0
 19 40  1  0  0  0  0
 20 55  1  0  0  0  0
 21 25  1  0  0  0  0
 21 53  1  0  0  0  0
 22 41  1  0  0  0  0
 23 24  2  0  0  0  0
 23 26  1  0  0  0  0
 23 54  1  0  0  0  0
 24 58  1  0  0  0  0
 25 26  2  0  0  0  0
 25 66  1  0  0  0  0
 26 59  1  0  0  0  0
 27 88  1  0  0  0  0
 28 89  1  0  0  0  0
 29 31  2  0  0  0  0
 29 88  1  0  0  0  0
 30 90  1  0  0  0  0
 31 91  1  0  0  0  0
 32 72  2  0  0  0  0
 33 73  1  0  0  0  0
 33 77  1  0  0  0  0
 34 78  1  0  0  0  0
 34 83  2  0  0  0  0
 35 56  1  0  0  0  0
 35 79  1  0  0  0  0
 35 84  2  0  0  0  0
 36 69  1  0  0  0  0
 36 74  1  0  0  0  0
 36 85  2  0  0  0  0
 37 70  1  0  0  0  0
 37 80  1  0  0  0  0
 37 86  2  0  0  0  0
 38 75  1  0  0  0  0
 38 76  1  0  0  0  0
 38 87  2  0  0  0  0
 39 42  1  0  0  0  0
 40 56  1  0  0  0  0
 41 74  1  0  0  0  0
 42 46  1  0  0  0  0
 43 47  1  0  0  0  0
 43 49  1  0  0  0  0
 44 45  1  0  0  0  0
 44 53  1  0  0  0  0
 45 53  1  0  0  0  0
 46 55  1  0  0  0  0
 47 57  1  0  0  0  0
 48 50  1  0  0  0  0
 48 54  1  0  0  0  0
 49 75  1  0  0  0  0
 50 76  1  0  0  0  0
 51 54  1  0  0  0  0
 51 76  1  0  0  0  0
 52 57  1  0  0  0  0
 52 75  1  0  0  0  0
 55 79  1  0  0  0  0
 56 74  1  0  0  0  0
 57 73  1  0  0  0  0
 60 70  1  0  0  0  0
 61 71  1  0  0  0  0
 62 71  1  0  0  0  0
 63 71  1  0  0  0  0
 64 81  1  0  0  0  0
 65 82  1  0  0  0  0
 66 82  1  0  0  0  0
 67 68  1  0  0  0  0
 67 82  1  0  0  0  0
 68 89  1  0  0  0  0
 69 71  1  0  0  0  0
 69 80  1  0  0  0  0
 70 81  1  0  0  0  0
 72 73  1  0  0  0  0
M  CHG  2  81   1  82   1
M  ISO  4  38 100  68 101  76 100  89 101
M  END
> <Batch ID>
0167

> <Smiles>
CNC(C)C(=O)NC(C(=O)N1Cc2cc([101O:1][101CH2:1]CN(C)Cc3c(C4CC4)cc(C)c(C4CC[100N:0]([100C:0](=O)N5CCCC(n6nc(-c7ccc(Oc8ccc(F)cc8F)cc7)c(C(N)=O)c6N)C5)C4)c3C)ccc2CC1C(=O)NC1CCCc2ccccc21)C(C)(C)C

> <Shape>
0.254

> <Color>
0.063

> <Negative vol penalty>
0.000

$$$$

  -OEChem-04052322273D

 89 98  0     1  0  0  0  0  0999 V2000
  -18.2910  -28.4906   26.2558 C   0  0  0  0  0  0  0  0  0  0  0  0
  -19.6640  -28.2826   26.3391 C   0  0  0  0  0  0  0  0  0  0  0  0
  -27.7041  -17.2853   20.8403 C   0  0  0  0  0  0  0  0  0  0  0  0
  -28.8669  -15.2397   20.2923 C   0  0  0  0  0  0  0  0  0  0  0  0
  -17.6640  -28.5080   25.0106 C   0  0  0  0  0  0  0  0  0  0  0  0
  -20.4108  -28.0907   25.1772 C   0  0  0  0  0  0  0  0  0  0  0  0
  -26.9023  -29.3800   22.4361 C   0  0  0  0  0  0  0  0  0  0  0  0
  -26.4822  -16.6506   20.6171 C   0  0  0  0  0  0  0  0  0  0  0  0
  -27.6451  -14.6049   20.0692 C   0  0  0  0  0  0  0  0  0  0  0  0
  -27.9570  -28.7190   21.8082 C   0  0  0  0  0  0  0  0  0  0  0  0
  -25.1779  -13.2315   21.9258 C   0  0  0  0  0  0  0  0  0  0  0  0
  -25.0036  -11.9567   22.4646 C   0  0  0  0  0  0  0  0  0  0  0  0
  -26.7791  -28.8481   19.7070 C   0  0  0  0  0  0  0  0  0  0  0  0
  -24.6470  -11.0680   20.2464 C   0  0  0  0  0  0  0  0  0  0  0  0
  -28.8964  -16.5799   20.6778 C   0  0  0  0  0  0  0  0  0  0  0  0
  -30.8679  -17.3128   22.1214 C   0  0  0  0  0  0  0  0  0  0  0  0
  -18.4049  -28.3258   23.8322 C   0  0  0  0  0  0  0  0  0  0  0  0
  -25.7714  -29.7711   21.7051 C   0  0  0  0  0  0  0  0  0  0  0  0
  -19.7929  -28.1042   23.9151 C   0  0  0  0  0  0  0  0  0  0  0  0
  -25.7125  -29.5163   20.3276 C   0  0  0  0  0  0  0  0  0  0  0  0
  -26.4527  -15.3104   20.2316 C   0  0  0  0  0  0  0  0  0  0  0  0
  -27.8943  -28.4503   20.4440 C   0  0  0  0  0  0  0  0  0  0  0  0
  -25.0866  -13.4245   20.5474 C   0  0  0  0  0  0  0  0  0  0  0  0
  -24.7382  -10.8750   21.6249 C   0  0  0  0  0  0  0  0  0  0  0  0
  -24.8212  -12.3428   19.7077 C   0  0  0  0  0  0  0  0  0  0  0  0
  -30.1589  -17.2352   20.9077 C   0  0  0  0  0  0  0  0  0  0  0  0
  -31.9953  -18.0349   21.8149 C   0  0  0  0  0  0  0  0  0  0  0  0
  -30.5369  -16.7799   23.4106 C   0  0  0  0  0  0  0  0  0  0  0  0
  -22.6758  -29.0567   21.8093 C   0  0  0  0  0  0  0  0  0  0  0  0
  -22.4627  -31.3790   19.5545 C   0  0  0  0  0  0  0  0  0  0  0  0
  -24.0015  -33.1864   17.1026 C   0  0  0  0  0  0  0  0  0  0  0  0
  -30.7597  -19.0944   16.6658 C   0  0  0  0  0  0  0  0  0  0  0  0
  -17.6759  -28.3055   22.5121 C   0  0  0  0  0  0  0  0  0  0  0  0
  -24.6538  -30.5071   22.3921 C   0  0  0  0  0  0  0  0  0  0  0  0
  -24.5295  -29.9334   19.4938 C   0  0  0  0  0  0  0  0  0  0  0  0
  -18.5965  -28.4675   21.3053 C   0  0  0  0  0  0  0  0  0  0  0  0
  -33.6892  -17.5247   17.8096 C   0  0  0  0  0  0  0  0  0  0  0  0
  -19.8133  -27.5570   21.4361 C   0  0  0  0  0  0  0  0  0  0  0  0
  -34.0322  -18.2405   19.1132 C   0  0  0  0  0  0  0  0  0  0  0  0
  -33.1600  -18.5058   16.7738 C   0  0  0  0  0  0  0  0  0  0  0  0
  -29.8110  -20.7303   18.3472 C   0  0  0  0  0  0  0  0  0  0  0  0
  -32.2391  -19.9841   18.5388 C   0  0  0  0  0  0  0  0  0  0  0  0
  -29.4584  -22.1628   17.9691 C   0  0  0  0  0  0  0  0  0  0  0  0
  -29.9066  -24.7101   17.5239 C   0  0  0  0  0  0  0  0  0  0  0  0
  -28.1511  -24.5614   19.3236 C   0  0  0  0  0  0  0  0  0  0  0  0
  -28.0494  -21.3164   16.0935 C   0  0  0  0  0  0  0  0  0  0  0  0
  -20.6409  -27.9169   22.6758 C   0  0  1  0  0  0  0  0  0  0  0  0
  -23.3248  -30.4025   21.6504 C   0  0  1  0  0  0  0  0  0  0  0  0
  -28.8475  -24.4250   16.4547 C   0  0  2  0  0  0  0  0  0  0  0  0
  -27.0795  -24.2750   18.2672 C   0  0  1  0  0  0  0  0  0  0  0  0
  -32.8902  -19.1239   19.6453 C   0  0  1  0  0  0  0  0  0  0  0  0
  -27.6660  -23.6035   17.0090 C   0  0  2  0  0  0  0  0  0  0  0  0
  -28.4103  -19.8763   16.4608 C   0  0  2  0  0  0  0  0  0  0  0  0
  -29.4984  -23.7893   15.2238 C   0  0  0  0  0  0  0  0  0  0  0  0
  -27.2993  -19.1683   17.2421 C   0  0  0  0  0  0  0  0  0  0  0  0
  -24.8210  -23.2658   17.9078 C   0  0  0  0  0  0  0  0  0  0  0  0
  -23.5600  -34.9860   15.4102 C   0  0  0  0  0  0  0  0  0  0  0  0
  -30.6633  -24.5579   20.5394 C   0  0  0  0  0  0  0  0  0  0  0  0
  -21.0007  -29.3610   17.7937 C   0  0  0  0  0  0  0  0  0  0  0  0
  -21.4307  -30.8622   15.8366 C   0  0  0  0  0  0  0  0  0  0  0  0
  -20.0453  -31.6717   17.7465 C   0  0  0  0  0  0  0  0  0  0  0  0
  -26.0068  -34.9881   18.3239 C   0  0  0  0  0  0  0  0  0  0  0  0
  -25.9242  -23.4861   18.8883 C   0  0  0  0  0  0  0  0  0  0  0  0
  -29.6734  -26.8816   20.6157 C   0  0  0  0  0  0  0  0  0  1  0  0
  -22.5425  -31.4164   18.0474 C   0  0  1  0  0  0  0  0  0  0  0  0
  -24.0357  -34.6778   16.8214 C   0  0  2  0  0  0  0  0  0  0  0  0
  -30.2791  -25.7916   19.7387 C   0  0  2  0  0  0  0  0  0  0  0  0
  -21.2764  -30.8181   17.3719 C   0  0  0  0  0  0  0  0  0  0  0  0
  -30.7836  -17.8583   19.9049 N   0  0  0  0  0  0  0  0  0  0  0  0
  -31.8968  -18.3344   20.4880 N   0  0  0  0  0  0  0  0  0  0  0  0
  -23.4594  -30.6446   20.2125 N   0  0  0  0  0  0  0  0  0  0  0  0
  -32.0113  -19.2531   17.2831 N   0  0  0  0  0  0  0  0  0  0  0  0
  -29.6822  -19.8174   17.2021 N   0  0  0  0  0  0  0  0  0  0  0  0
  -33.0514  -18.4365   22.5537 N   0  0  0  0  0  0  0  0  0  0  0  0
  -29.3405  -16.0633   23.5503 N   0  0  0  0  0  0  0  0  0  0  0  0
  -21.4395  -29.0975   22.4252 N   0  0  0  0  0  0  0  0  0  0  0  0
  -22.8127  -32.8041   17.6873 N   0  0  0  0  0  0  0  0  0  0  0  0
  -28.1006  -22.1972   17.3168 N   0  3  2  0  0  0  0  0  0  0  0  0
  -29.2590  -25.3843   18.7101 N   0  3  1  0  0  0  0  0  0  0  0  0
  -25.4222  -35.2022   16.9750 N   0  3  0  0  0  0  0  0  0  0  0  0
  -31.2720  -16.9486   24.4129 O   0  0  0  0  0  0  0  0  0  0  0  0
  -23.2532  -28.0556   21.4018 O   0  0  0  0  0  0  0  0  0  0  0  0
  -21.5537  -31.9852   20.1272 O   0  0  0  0  0  0  0  0  0  0  0  0
  -24.9344  -32.4351   16.8273 O   0  0  0  0  0  0  0  0  0  0  0  0
  -30.6098  -18.3351   15.7000 O   0  0  0  0  0  0  0  0  0  0  0  0
  -25.2606  -14.6906   20.0140 O   0  0  0  0  0  0  0  0  0  0  0  0
  -28.9290  -27.8002   19.8246 O   0  0  0  0  0  0  0  0  0  1  0  0
  -24.5725   -9.6506   22.1422 F   0  0  0  0  0  0  0  0  0  0  0  0
  -24.7336  -12.5219   18.3825 F   0  0  0  0  0  0  0  0  0  0  0  0
  1  2  1  0  0  0  0
  1  5  2  0  0  0  0
  2  6  2  0  0  0  0
  3  8  2  0  0  0  0
  3 15  1  0  0  0  0
  4  9  1  0  0  0  0
  4 15  2  0  0  0  0
  5 17  1  0  0  0  0
  6 19  1  0  0  0  0
  7 10  2  0  0  0  0
  7 18  1  0  0  0  0
  8 21  1  0  0  0  0
  9 21  2  0  0  0  0
 10 22  1  0  0  0  0
 11 12  2  0  0  0  0
 11 23  1  0  0  0  0
 12 24  1  0  0  0  0
 13 20  1  0  0  0  0
 13 22  2  0  0  0  0
 14 24  2  0  0  0  0
 14 25  1  0  0  0  0
 15 26  1  0  0  0  0
 16 26  1  0  0  0  0
 16 27  2  0  0  0  0
 16 28  1  0  0  0  0
 17 19  2  0  0  0  0
 17 33  1  0  0  0  0
 18 20  2  0  0  0  0
 18 34  1  0  0  0  0
 19 47  1  0  0  0  0
 20 35  1  0  0  0  0
 21 86  1  0  0  0  0
 22 87  1  0  0  0  0
 23 25  2  0  0  0  0
 23 86  1  0  0  0  0
 24 88  1  0  0  0  0
 25 89  1  0  0  0  0
 26 69  2  0  0  0  0
 27 70  1  0  0  0  0
 27 74  1  0  0  0  0
 28 75  1  0  0  0  0
 28 81  2  0  0  0  0
 29 48  1  0  0  0  0
 29 76  1  0  0  0  0
 29 82  2  0  0  0  0
 30 65  1  0  0  0  0
 30 71  1  0  0  0  0
 30 83  2  0  0  0  0
 31 66  1  0  0  0  0
 31 77  1  0  0  0  0
 31 84  2  0  0  0  0
 32 72  1  0  0  0  0
 32 73  1  0  0  0  0
 32 85  2  0  0  0  0
 33 36  1  0  0  0  0
 34 48  1  0  0  0  0
 35 71  1  0  0  0  0
 36 38  1  0  0  0  0
 37 39  1  0  0  0  0
 37 40  1  0  0  0  0
 38 47  1  0  0  0  0
 39 51  1  0  0  0  0
 40 72  1  0  0  0  0
 41 43  1  0  0  0  0
 41 73  1  0  0  0  0
 42 51  1  0  0  0  0
 42 72  1  0  0  0  0
 43 78  1  0  0  0  0
 44 49  1  0  0  0  0
 44 79  1  0  0  0  0
 45 50  1  0  0  0  0
 45 79  1  0  0  0  0
 46 53  1  0  0  0  0
 46 78  1  0  0  0  0
 47 76  1  0  0  0  0
 48 71  1  0  0  0  0
 49 52  1  0  0  0  0
 49 54  1  0  0  0  0
 50 52  1  0  0  0  0
 50 63  1  0  0  0  0
 51 70  1  0  0  0  0
 52 78  1  0  0  0  0
 53 55  1  0  0  0  0
 53 73  1  0  0  0  0
 56 63  1  0  0  0  0
 57 66  1  0  0  0  0
 58 67  1  0  0  0  0
 59 68  1  0  0  0  0
 60 68  1  0  0  0  0
 61 68  1  0  0  0  0
 62 80  1  0  0  0  0
 64 67  1  0  0  0  0
 64 87  1  0  0  0  0
 65 68  1  0  0  0  0
 65 77  1  0  0  0  0
 66 80  1  0  0  0  0
 67 79  1  0  0  0  0
 69 70  1  0  0  0  0
M  CHG  3  78   1  79   1  80   1
M  ISO  4  32 100  64 101  73 100  87 101
M  END
> <Batch ID>
0167

> <Smiles>
CCC1CN(C(C)[101CH2:1][101O:1]c2ccc3c(c2)CN(C(=O)C(NC(=O)C(C)NC)C(C)(C)C)C(C(=O)NC2CCCc4ccccc42)C3)CC(C)C1N1CC[100N:0]([100C:0](=O)N2CCCC(n3nc(-c4ccc(Oc5ccc(F)cc5F)cc4)c(C(N)=O)c3N)C2)C(C)C1

> <Shape>
0.236

> <Color>
0.095

> <Negative vol penalty>
0.000

$$$$

  -OEChem-04052322273D

 86 96  0     1  0  0  0  0  0999 V2000
  -27.7266  -28.6845   28.1061 C   0  0  0  0  0  0  0  0  0  0  0  0
  -27.4612  -27.9381   26.9625 C   0  0  0  0  0  0  0  0  0  0  0  0
  -23.1730   -9.5365   20.6416 C   0  0  0  0  0  0  0  0  0  0  0  0
  -23.2187  -11.1439   22.4447 C   0  0  0  0  0  0  0  0  0  0  0  0
  -26.8790  -29.7313   28.4662 C   0  0  0  0  0  0  0  0  0  0  0  0
  -26.3473  -28.2375   26.1788 C   0  0  0  0  0  0  0  0  0  0  0  0
  -27.4081  -28.2718   21.2272 C   0  0  0  0  0  0  0  0  0  0  0  0
  -22.3374   -8.7134   21.3966 C   0  0  0  0  0  0  0  0  0  0  0  0
  -22.3831  -10.3208   23.1997 C   0  0  0  0  0  0  0  0  0  0  0  0
  -27.5150  -27.0361   20.5904 C   0  0  0  0  0  0  0  0  0  0  0  0
  -22.6480   -6.5160   23.9460 C   0  0  0  0  0  0  0  0  0  0  0  0
  -22.9436   -5.1534   23.9836 C   0  0  0  0  0  0  0  0  0  0  0  0
  -26.4455  -20.5772   20.4867 C   0  0  0  0  0  0  0  0  0  0  0  0
  -25.2737  -27.2897   19.7352 C   0  0  0  0  0  0  0  0  0  0  0  0
  -20.7804   -4.6578   23.0287 C   0  0  0  0  0  0  0  0  0  0  0  0
  -23.6137  -10.7517   21.1657 C   0  0  0  0  0  0  0  0  0  0  0  0
  -24.0889  -12.6171   19.4918 C   0  0  0  0  0  0  0  0  0  0  0  0
  -25.7596  -30.0499   27.6813 C   0  0  0  0  0  0  0  0  0  0  0  0
  -26.2271  -29.0219   21.1316 C   0  0  0  0  0  0  0  0  0  0  0  0
  -25.4832  -29.2887   26.5295 C   0  0  0  0  0  0  0  0  0  0  0  0
  -27.0717  -21.6426   19.8398 C   0  0  0  0  0  0  0  0  0  0  0  0
  -25.1552  -28.5357   20.3696 C   0  0  0  0  0  0  0  0  0  0  0  0
  -28.5015  -19.3117   20.3927 C   0  0  0  0  0  0  0  0  0  0  0  0
  -27.1604  -19.4118   20.7632 C   0  0  0  0  0  0  0  0  0  0  0  0
  -28.4127  -21.5426   19.4693 C   0  0  0  0  0  0  0  0  0  0  0  0
  -21.9424   -9.1056   22.6756 C   0  0  0  0  0  0  0  0  0  0  0  0
  -26.4467  -26.5436   19.8466 C   0  0  0  0  0  0  0  0  0  0  0  0
  -21.4185   -6.9496   23.4498 C   0  0  0  0  0  0  0  0  0  0  0  0
  -22.0099   -4.2243   23.5250 C   0  0  0  0  0  0  0  0  0  0  0  0
  -20.4848   -6.0204   22.9912 C   0  0  0  0  0  0  0  0  0  0  0  0
  -29.1276  -20.3771   19.7458 C   0  0  0  0  0  0  0  0  0  0  0  0
  -24.4773  -11.6021   20.3866 C   0  0  0  0  0  0  0  0  0  0  0  0
  -25.2721  -13.1231   19.0119 C   0  0  0  0  0  0  0  0  0  0  0  0
  -22.7758  -13.0629   19.1272 C   0  0  0  0  0  0  0  0  0  0  0  0
  -24.0655  -30.0770   23.2096 C   0  0  0  0  0  0  0  0  0  0  0  0
  -22.8721  -31.5954   20.6033 C   0  0  0  0  0  0  0  0  0  0  0  0
  -22.5900  -31.7299   17.2049 C   0  0  0  0  0  0  0  0  0  0  0  0
  -30.5134  -14.9286   20.0738 C   0  0  0  0  0  0  0  0  0  0  0  0
  -24.8459  -31.1601   28.1366 C   0  0  0  0  0  0  0  0  0  0  0  0
  -26.1374  -30.3652   21.8024 C   0  0  0  0  0  0  0  0  0  0  0  0
  -23.8731  -29.3116   20.2190 C   0  0  0  0  0  0  0  0  0  0  0  0
  -23.8963  -31.6526   27.0476 C   0  0  0  0  0  0  0  0  0  0  0  0
  -29.9995  -11.4319   19.4093 C   0  0  0  0  0  0  0  0  0  0  0  0
  -23.2459  -30.4725   26.3327 C   0  0  0  0  0  0  0  0  0  0  0  0
  -28.4977  -11.2315   19.5836 C   0  0  0  0  0  0  0  0  0  0  0  0
  -25.5834  -23.5739   20.6946 C   0  0  0  0  0  0  0  0  0  0  0  0
  -30.5248  -12.4804   20.3807 C   0  0  0  0  0  0  0  0  0  0  0  0
  -28.5723  -16.6170   20.5651 C   0  0  0  0  0  0  0  0  0  0  0  0
  -30.3128  -17.4431   19.6810 C   0  0  0  0  0  0  0  0  0  0  0  0
  -28.3316  -13.6396   20.3928 C   0  0  0  0  0  0  0  0  0  0  0  0
  -26.2835  -22.8791   19.5573 C   0  0  1  0  0  0  0  0  0  0  0  0
  -29.2950  -17.9777   20.7148 C   0  0  0  0  0  0  0  0  0  0  0  0
  -24.2986  -29.5987   25.6402 C   0  0  1  0  0  0  0  0  0  0  0  0
  -24.7010  -30.8089   22.0615 C   0  0  1  0  0  0  0  0  0  0  0  0
  -27.7575  -12.5694   19.4433 C   0  0  2  0  0  0  0  0  0  0  0  0
  -26.7928  -24.2015   20.0719 C   0  0  1  0  0  0  0  0  0  1  0  0
  -26.4684  -18.2857   21.4581 C   0  0  0  0  0  0  0  0  0  0  0  0
  -29.0672  -22.6969   18.7748 C   0  0  0  0  0  0  0  0  0  0  0  0
  -21.5194  -33.0634   15.3684 C   0  0  0  0  0  0  0  0  0  0  0  0
  -20.1805  -30.3074   21.2406 C   0  0  0  0  0  0  0  0  0  0  0  0
  -19.4356  -30.8805   18.9200 C   0  0  0  0  0  0  0  0  0  0  0  0
  -20.0479  -32.6973   20.5158 C   0  0  0  0  0  0  0  0  0  0  0  0
  -25.2132  -32.4353   16.0300 C   0  0  0  0  0  0  0  0  0  0  0  0
  -21.8696  -31.2481   19.5294 C   0  0  1  0  0  0  0  0  0  0  0  0
  -22.7623  -32.8759   16.2244 C   0  0  2  0  0  0  0  0  0  0  0  0
  -20.4067  -31.2676   20.0557 C   0  0  0  0  0  0  0  0  0  0  0  0
  -25.8037  -11.4696   20.4717 N   0  0  0  0  0  0  0  0  0  0  0  0
  -26.2590  -12.4080   19.6242 N   0  0  0  0  0  0  0  0  0  0  0  0
  -23.8316  -30.6167   20.8990 N   0  0  0  0  0  0  0  0  0  0  0  0
  -29.7926  -13.7462   20.2756 N   0  0  0  0  0  0  0  0  0  0  0  0
  -29.8169  -16.1124   20.0106 N   0  0  0  0  0  0  0  0  0  0  0  0
  -25.5544  -14.1054   18.1299 N   0  0  0  0  0  0  0  0  0  0  0  0
  -21.6696  -12.4341   19.7148 N   0  0  0  0  0  0  0  0  0  0  0  0
  -24.7384  -30.2179   24.4082 N   0  0  0  0  0  0  0  0  0  0  0  0
  -22.1196  -32.1678   18.4248 N   0  0  0  0  0  0  0  0  0  0  0  0
  -23.9196  -32.6162   15.3222 N   0  3  0  0  0  0  0  0  0  0  0  0
  -22.5888  -13.9802   18.2923 O   0  0  0  0  0  0  0  0  0  0  0  0
  -23.0398  -29.4332   23.0221 O   0  0  0  0  0  0  0  0  0  0  0  0
  -22.8107  -32.6973   21.1544 O   0  0  0  0  0  0  0  0  0  0  0  0
  -22.8437  -30.5625   16.9162 O   0  0  0  0  0  0  0  0  0  0  0  0
  -31.7482  -14.9332   19.9822 O   0  0  0  0  0  0  0  0  0  0  0  0
  -21.1269   -8.3028   23.4124 O   0  0  0  0  0  0  0  0  0  0  0  0
  -26.5483  -25.3350   19.2232 O   0  0  0  0  0  0  0  0  0  1  0  0
  -22.2945   -2.9158   23.5597 F   0  0  0  0  0  0  0  0  0  0  0  0
  -19.3024   -6.4309   22.5123 F   0  0  0  0  0  0  0  0  0  0  0  0
  -30.7936  -20.2495   19.2904 Cl  0  0  0  0  0  0  0  0  0  0  0  0
  1  2  1  0  0  0  0
  1  5  2  0  0  0  0
  2  6  2  0  0  0  0
  3  8  2  0  0  0  0
  3 16  1  0  0  0  0
  4  9  1  0  0  0  0
  4 16  2  0  0  0  0
  5 18  1  0  0  0  0
  6 20  1  0  0  0  0
  7 10  2  0  0  0  0
  7 19  1  0  0  0  0
  8 26  1  0  0  0  0
  9 26  2  0  0  0  0
 10 27  1  0  0  0  0
 11 12  2  0  0  0  0
 11 28  1  0  0  0  0
 12 29  1  0  0  0  0
 13 21  1  0  0  0  0
 13 24  2  0  0  0  0
 14 22  1  0  0  0  0
 14 27  2  0  0  0  0
 15 29  2  0  0  0  0
 15 30  1  0  0  0  0
 16 32  1  0  0  0  0
 17 32  1  0  0  0  0
 17 33  2  0  0  0  0
 17 34  1  0  0  0  0
 18 20  2  0  0  0  0
 18 39  1  0  0  0  0
 19 22  2  0  0  0  0
 19 40  1  0  0  0  0
 20 53  1  0  0  0  0
 21 25  2  0  0  0  0
 21 51  1  0  0  0  0
 22 41  1  0  0  0  0
 23 24  1  0  0  0  0
 23 31  2  0  0  0  0
 23 52  1  0  0  0  0
 24 57  1  0  0  0  0
 25 31  1  0  0  0  0
 25 58  1  0  0  0  0
 26 82  1  0  0  0  0
 27 83  1  0  0  0  0
 28 30  2  0  0  0  0
 28 82  1  0  0  0  0
 29 84  1  0  0  0  0
 30 85  1  0  0  0  0
 31 86  1  0  0  0  0
 32 67  2  0  0  0  0
 33 68  1  0  0  0  0
 33 72  1  0  0  0  0
 34 73  1  0  0  0  0
 34 77  2  0  0  0  0
 35 54  1  0  0  0  0
 35 74  1  0  0  0  0
 35 78  2  0  0  0  0
 36 64  1  0  0  0  0
 36 69  1  0  0  0  0
 36 79  2  0  0  0  0
 37 65  1  0  0  0  0
 37 75  1  0  0  0  0
 37 80  2  0  0  0  0
 38 70  1  0  0  0  0
 38 71  1  0  0  0  0
 38 81  2  0  0  0  0
 39 42  1  0  0  0  0
 40 54  1  0  0  0  0
 41 69  1  0  0  0  0
 42 44  1  0  0  0  0
 43 45  1  0  0  0  0
 43 47  1  0  0  0  0
 44 53  1  0  0  0  0
 45 55  1  0  0  0  0
 46 51  1  0  0  0  0
 46 56  1  0  0  0  0
 47 70  1  0  0  0  0
 48 52  1  0  0  0  0
 48 71  1  0  0  0  0
 49 52  1  0  0  0  0
 49 71  1  0  0  0  0
 50 55  1  0  0  0  0
 50 70  1  0  0  0  0
 51 56  1  0  0  0  0
 53 74  1  0  0  0  0
 54 69  1  0  0  0  0
 55 68  1  0  0  0  0
 56 83  1  0  0  0  0
 59 65  1  0  0  0  0
 60 66  1  0  0  0  0
 61 66  1  0  0  0  0
 62 66  1  0  0  0  0
 63 76  1  0  0  0  0
 64 66  1  0  0  0  0
 64 75  1  0  0  0  0
 65 76  1  0  0  0  0
 67 68  1  0  0  0  0
M  CHG  1  76   1
M  ISO  4  38 100  56 101  71 100  83 101
M  END
> <Batch ID>
0167

> <Smiles>
CNC(C)C(=O)NC(C(=O)N1Cc2cc([101O:1][101CH:1]3CC3c3cc(C)c(C4C[100N:0]([100C:0](=O)N5CCCC(n6nc(-c7ccc(Oc8ccc(F)cc8F)cc7)c(C(N)=O)c6N)C5)C4)c(Cl)c3C)ccc2CC1C(=O)NC1CCCc2ccccc21)C(C)(C)C

> <Shape>
0.278

> <Color>
0.132

> <Negative vol penalty>
0.000

$$$$

  -OEChem-04052322273D

 91102  0     1  0  0  0  0  0999 V2000
  -18.9920  -24.6564   21.1273 C   0  0  0  0  0  0  0  0  0  0  0  0
  -20.0083  -25.1854   20.3381 C   0  0  0  0  0  0  0  0  0  0  0  0
  -32.3133  -13.3116   17.3108 C   0  0  0  0  0  0  0  0  0  0  0  0
  -33.9135  -12.6388   18.9912 C   0  0  0  0  0  0  0  0  0  0  0  0
  -18.3265  -25.4705   22.0428 C   0  0  0  0  0  0  0  0  0  0  0  0
  -20.3588  -26.5292   20.4632 C   0  0  0  0  0  0  0  0  0  0  0  0
  -25.3731  -27.2244   20.5999 C   0  0  0  0  0  0  0  0  0  0  0  0
  -33.1792  -12.8713   16.3099 C   0  0  0  0  0  0  0  0  0  0  0  0
  -34.7795  -12.1984   17.9902 C   0  0  0  0  0  0  0  0  0  0  0  0
  -26.0573  -27.1664   19.3865 C   0  0  0  0  0  0  0  0  0  0  0  0
  -35.0892   -9.5032   15.9753 C   0  0  0  0  0  0  0  0  0  0  0  0
  -35.7022   -8.2625   16.1504 C   0  0  0  0  0  0  0  0  0  0  0  0
  -30.6711  -24.3055   18.4557 C   0  0  0  0  0  0  0  0  0  0  0  0
  -26.0975  -29.5768   19.3008 C   0  0  0  0  0  0  0  0  0  0  0  0
  -29.0571  -25.5729   16.5660 C   0  0  0  0  0  0  0  0  0  0  0  0
  -37.8716   -9.3227   16.0673 C   0  0  0  0  0  0  0  0  0  0  0  0
  -32.6805  -13.1954   18.6515 C   0  0  0  0  0  0  0  0  0  0  0  0
  -30.7883  -12.9015   20.3370 C   0  0  0  0  0  0  0  0  0  0  0  0
  -18.6756  -26.8227   22.1861 C   0  0  0  0  0  0  0  0  0  0  0  0
  -25.0358  -28.4612   21.1684 C   0  0  0  0  0  0  0  0  0  0  0  0
  -19.6964  -27.3626   21.3806 C   0  0  0  0  0  0  0  0  0  0  0  0
  -29.6123  -23.6142   17.8668 C   0  0  0  0  0  0  0  0  0  0  0  0
  -30.9228  -25.6305   18.0998 C   0  0  0  0  0  0  0  0  0  0  0  0
  -25.4113  -29.6479   20.5228 C   0  0  0  0  0  0  0  0  0  0  0  0
  -28.8053  -24.2479   16.9219 C   0  0  0  0  0  0  0  0  0  0  0  0
  -30.1158  -26.2642   17.1549 C   0  0  0  0  0  0  0  0  0  0  0  0
  -34.4123  -12.3147   16.6496 C   0  0  0  0  0  0  0  0  0  0  0  0
  -26.4170  -28.3427   18.7353 C   0  0  0  0  0  0  0  0  0  0  0  0
  -35.8675  -10.6536   15.8461 C   0  0  0  0  0  0  0  0  0  0  0  0
  -37.0934   -8.1723   16.1964 C   0  0  0  0  0  0  0  0  0  0  0  0
  -37.2586  -10.5633   15.8922 C   0  0  0  0  0  0  0  0  0  0  0  0
  -31.7867  -13.6506   19.6859 C   0  0  0  0  0  0  0  0  0  0  0  0
  -30.2244  -13.7820   21.2277 C   0  0  0  0  0  0  0  0  0  0  0  0
  -30.4050  -11.5322   20.1532 C   0  0  0  0  0  0  0  0  0  0  0  0
  -22.3115  -29.9170   21.9181 C   0  0  0  0  0  0  0  0  0  0  0  0
  -24.3017  -32.1241   23.2182 C   0  0  0  0  0  0  0  0  0  0  0  0
  -27.3987  -33.5565   23.2742 C   0  0  0  0  0  0  0  0  0  0  0  0
  -29.6810  -19.6210   21.4643 C   0  0  0  0  0  0  0  0  0  0  0  0
  -17.8957  -27.6750   23.1556 C   0  0  0  0  0  0  0  0  0  0  0  0
  -24.3212  -28.5069   22.4911 C   0  0  0  0  0  0  0  0  0  0  0  0
  -25.0907  -31.0010   21.1013 C   0  0  0  0  0  0  0  0  0  0  0  0
  -18.5811  -28.9967   23.4926 C   0  0  0  0  0  0  0  0  0  0  0  0
  -31.2442  -17.6517   23.8364 C   0  0  0  0  0  0  0  0  0  0  0  0
  -32.1180  -26.4227   20.2488 C   0  0  0  0  0  0  0  0  0  0  0  0
  -31.7972  -27.6501   19.4545 C   0  0  0  0  0  0  0  0  0  0  0  0
  -19.0816  -29.6775   22.2226 C   0  0  0  0  0  0  0  0  0  0  0  0
  -31.4673  -16.3225   23.1153 C   0  0  0  0  0  0  0  0  0  0  0  0
  -29.7735  -29.9584   16.2776 C   0  0  0  0  0  0  0  0  0  0  0  0
  -28.4261  -30.3409   16.9220 C   0  0  0  0  0  0  0  0  0  0  0  0
  -30.6598  -21.4342   18.6232 C   0  0  0  0  0  0  0  0  0  0  0  0
  -28.3435  -22.0689   19.4242 C   0  0  0  0  0  0  0  0  0  0  0  0
  -31.5281  -18.8289   22.9107 C   0  0  0  0  0  0  0  0  0  0  0  0
  -30.3917  -19.9913   19.0604 C   0  0  0  0  0  0  0  0  0  0  0  0
  -28.1209  -20.6113   19.8169 C   0  0  0  0  0  0  0  0  0  0  0  0
  -30.9394  -17.4885   20.9170 C   0  0  0  0  0  0  0  0  0  0  0  0
  -29.3570  -22.1742   18.2702 C   0  0  0  0  0  0  0  0  0  0  0  0
  -32.0618  -26.3485   18.7466 C   0  0  0  0  0  0  0  0  0  0  0  0
  -20.1221  -28.8094   21.5047 C   0  0  1  0  0  0  0  0  0  0  0  0
  -23.5764  -29.8180   22.7229 C   0  0  1  0  0  0  0  0  0  0  0  0
  -30.6591  -16.2606   21.8071 C   0  0  1  0  0  0  0  0  0  0  0  0
  -29.3134  -28.4887   16.3591 C   0  0  2  0  0  0  0  0  0  0  0  0
  -28.3799  -28.9138   17.5202 C   0  0  2  0  0  0  0  0  0  1  0  0
  -27.6657  -23.5283   16.2787 C   0  0  0  0  0  0  0  0  0  0  0  0
  -28.7134  -35.3626   24.4175 C   0  0  0  0  0  0  0  0  0  0  0  0
  -22.8474  -34.2305   21.5576 C   0  0  0  0  0  0  0  0  0  0  0  0
  -24.7572  -35.7903   21.9911 C   0  0  0  0  0  0  0  0  0  0  0  0
  -23.3898  -34.9364   23.8947 C   0  0  0  0  0  0  0  0  0  0  0  0
  -29.3589  -31.6138   24.3430 C   0  0  0  0  0  0  0  0  0  0  0  0
  -24.9884  -33.3714   22.7168 C   0  0  1  0  0  0  0  0  0  0  0  0
  -28.3337  -33.8900   24.4227 C   0  0  2  0  0  0  0  0  0  0  0  0
  -24.0002  -34.5568   22.5279 C   0  0  0  0  0  0  0  0  0  0  0  0
  -31.8554  -14.9100   20.1254 N   0  0  0  0  0  0  0  0  0  0  0  0
  -30.8931  -14.9591   21.0622 N   0  0  0  0  0  0  0  0  0  0  0  0
  -24.3853  -30.9933   22.3935 N   0  0  0  0  0  0  0  0  0  0  0  0
  -30.7449  -18.7318   21.6790 N   0  0  0  0  0  0  0  0  0  0  0  0
  -29.3877  -19.9519   20.1328 N   0  0  0  0  0  0  0  0  0  0  0  0
  -29.2268  -13.6564   22.1285 N   0  0  0  0  0  0  0  0  0  0  0  0
  -31.0883  -10.7698   19.1961 N   0  0  0  0  0  0  0  0  0  0  0  0
  -30.3542  -27.6054   16.7824 N   0  0  0  0  0  0  0  0  0  0  0  0
  -21.4046  -28.9049   22.1685 N   0  0  0  0  0  0  0  0  0  0  0  0
  -26.0753  -33.6428   23.6515 N   0  0  0  0  0  0  0  0  0  0  0  0
  -29.5824  -33.0824   24.3254 N   0  3  0  0  0  0  0  0  0  0  0  0
  -29.4728  -11.0052   20.8064 O   0  0  0  0  0  0  0  0  0  0  0  0
  -22.1682  -30.8439   21.1294 O   0  0  0  0  0  0  0  0  0  0  0  0
  -23.7188  -32.1500   24.3051 O   0  0  0  0  0  0  0  0  0  0  0  0
  -27.8020  -33.2537   22.1534 O   0  0  0  0  0  0  0  0  0  0  0  0
  -29.0307  -20.0913   22.4061 O   0  0  0  0  0  0  0  0  0  0  0  0
  -35.2574  -11.8846   15.6731 O   0  0  0  0  0  0  0  0  0  0  0  0
  -27.0855  -28.2887   17.5484 O   0  0  0  0  0  0  0  0  0  1  0  0
  -37.6818   -6.9810   16.3661 F   0  0  0  0  0  0  0  0  0  0  0  0
  -38.0115  -11.6652   15.7699 F   0  0  0  0  0  0  0  0  0  0  0  0
  1  2  1  0  0  0  0
  1  5  2  0  0  0  0
  2  6  2  0  0  0  0
  3  8  2  0  0  0  0
  3 17  1  0  0  0  0
  4  9  1  0  0  0  0
  4 17  2  0  0  0  0
  5 19  1  0  0  0  0
  6 21  1  0  0  0  0
  7 10  2  0  0  0  0
  7 20  1  0  0  0  0
  8 27  1  0  0  0  0
  9 27  2  0  0  0  0
 10 28  1  0  0  0  0
 11 12  2  0  0  0  0
 11 29  1  0  0  0  0
 12 30  1  0  0  0  0
 13 22  2  0  0  0  0
 13 23  1  0  0  0  0
 14 24  1  0  0  0  0
 14 28  2  0  0  0  0
 15 25  2  0  0  0  0
 15 26  1  0  0  0  0
 16 30  2  0  0  0  0
 16 31  1  0  0  0  0
 17 32  1  0  0  0  0
 18 32  1  0  0  0  0
 18 33  2  0  0  0  0
 18 34  1  0  0  0  0
 19 21  2  0  0  0  0
 19 39  1  0  0  0  0
 20 24  2  0  0  0  0
 20 40  1  0  0  0  0
 21 58  1  0  0  0  0
 22 25  1  0  0  0  0
 22 56  1  0  0  0  0
 23 26  2  0  0  0  0
 23 57  1  0  0  0  0
 24 41  1  0  0  0  0
 25 63  1  0  0  0  0
 26 79  1  0  0  0  0
 27 88  1  0  0  0  0
 28 89  1  0  0  0  0
 29 31  2  0  0  0  0
 29 88  1  0  0  0  0
 30 90  1  0  0  0  0
 31 91  1  0  0  0  0
 32 72  2  0  0  0  0
 33 73  1  0  0  0  0
 33 77  1  0  0  0  0
 34 78  1  0  0  0  0
 34 83  2  0  0  0  0
 35 59  1  0  0  0  0
 35 80  1  0  0  0  0
 35 84  2  0  0  0  0
 36 69  1  0  0  0  0
 36 74  1  0  0  0  0
 36 85  2  0  0  0  0
 37 70  1  0  0  0  0
 37 81  1  0  0  0  0
 37 86  2  0  0  0  0
 38 75  1  0  0  0  0
 38 76  1  0  0  0  0
 38 87  2  0  0  0  0
 39 42  1  0  0  0  0
 40 59  1  0  0  0  0
 41 74  1  0  0  0  0
 42 46  1  0  0  0  0
 43 47  1  0  0  0  0
 43 52  1  0  0  0  0
 44 45  1  0  0  0  0
 44 57  1  0  0  0  0
 45 57  1  0  0  0  0
 46 58  1  0  0  0  0
 47 60  1  0  0  0  0
 48 49  1  0  0  0  0
 48 61  1  0  0  0  0
 49 62  1  0  0  0  0
 50 53  1  0  0  0  0
 50 56  1  0  0  0  0
 51 54  1  0  0  0  0
 51 56  1  0  0  0  0
 52 75  1  0  0  0  0
 53 76  1  0  0  0  0
 54 76  1  0  0  0  0
 55 60  1  0  0  0  0
 55 75  1  0  0  0  0
 58 80  1  0  0  0  0
 59 74  1  0  0  0  0
 60 73  1  0  0  0  0
 61 62  1  0  0  0  0
 61 79  1  0  0  0  0
 62 89  1  0  0  0  0
 64 70  1  0  0  0  0
 65 71  1  0  0  0  0
 66 71  1  0  0  0  0
 67 71  1  0  0  0  0
 68 82  1  0  0  0  0
 69 71  1  0  0  0  0
 69 81  1  0  0  0  0
 70 82  1  0  0  0  0
 72 73  1  0  0  0  0
M  CHG  1  82   1
M  ISO  4  38 100  62 101  76 100  89 101
M  END
> <Batch ID>
0167

> <Smiles>
CNC(C)C(=O)NC(C(=O)N1Cc2cc([101O:1][101CH:1]3CCC3Nc3cc(C)c(C4CC[100N:0]([100C:0](=O)N5CCCC(n6nc(-c7ccc(Oc8ccc(F)cc8F)cc7)c(C(N)=O)c6N)C5)CC4)cc3C3CC3)ccc2CC1C(=O)NC1CCCc2ccccc21)C(C)(C)C

> <Shape>
0.278

> <Color>
0.098

> <Negative vol penalty>
0.000

$$$$

  -OEChem-04052322273D

 89 99  0     1  0  0  0  0  0999 V2000
  -16.8918  -29.0539   24.4329 C   0  0  0  0  0  0  0  0  0  0  0  0
  -17.4446  -28.0158   23.6899 C   0  0  0  0  0  0  0  0  0  0  0  0
  -28.4752  -13.9511   20.9951 C   0  0  0  0  0  0  0  0  0  0  0  0
  -28.4145  -12.5728   19.0117 C   0  0  0  0  0  0  0  0  0  0  0  0
  -17.3979  -30.3469   24.3061 C   0  0  0  0  0  0  0  0  0  0  0  0
  -18.5032  -28.2702   22.8187 C   0  0  0  0  0  0  0  0  0  0  0  0
  -22.1889  -24.8161   23.1790 C   0  0  0  0  0  0  0  0  0  0  0  0
  -29.8588  -14.0736   20.8676 C   0  0  0  0  0  0  0  0  0  0  0  0
  -29.7981  -12.6953   18.8842 C   0  0  0  0  0  0  0  0  0  0  0  0
  -21.9760  -23.5899   22.5506 C   0  0  0  0  0  0  0  0  0  0  0  0
  -33.3613  -15.0469   20.8590 C   0  0  0  0  0  0  0  0  0  0  0  0
  -33.9182  -16.3148   21.0260 C   0  0  0  0  0  0  0  0  0  0  0  0
  -19.6277  -16.3194   20.9599 C   0  0  0  0  0  0  0  0  0  0  0  0
  -19.3682  -18.8202   22.1687 C   0  0  0  0  0  0  0  0  0  0  0  0
  -23.3390  -24.3107   20.6954 C   0  0  0  0  0  0  0  0  0  0  0  0
  -32.5981  -17.1380   19.1775 C   0  0  0  0  0  0  0  0  0  0  0  0
  -27.7530  -13.2006   20.0671 C   0  0  0  0  0  0  0  0  0  0  0  0
  -25.3408  -13.9144   19.6439 C   0  0  0  0  0  0  0  0  0  0  0  0
  -18.4696  -30.6155   23.4400 C   0  0  0  0  0  0  0  0  0  0  0  0
  -22.9709  -25.8046   22.5642 C   0  0  0  0  0  0  0  0  0  0  0  0
  -19.0232  -29.5682   22.6791 C   0  0  0  0  0  0  0  0  0  0  0  0
  -19.5576  -16.4184   22.3494 C   0  0  0  0  0  0  0  0  0  0  0  0
  -19.4383  -18.7212   20.7792 C   0  0  0  0  0  0  0  0  0  0  0  0
  -23.5624  -25.5476   21.3192 C   0  0  0  0  0  0  0  0  0  0  0  0
  -19.4278  -17.6688   22.9539 C   0  0  0  0  0  0  0  0  0  0  0  0
  -19.5681  -17.4708   20.1747 C   0  0  0  0  0  0  0  0  0  0  0  0
  -30.5203  -13.4458   19.8122 C   0  0  0  0  0  0  0  0  0  0  0  0
  -22.5487  -23.3381   21.3074 C   0  0  0  0  0  0  0  0  0  0  0  0
  -32.4229  -14.8245   19.8513 C   0  0  0  0  0  0  0  0  0  0  0  0
  -33.5366  -17.3604   20.1852 C   0  0  0  0  0  0  0  0  0  0  0  0
  -32.0412  -15.8700   19.0105 C   0  0  0  0  0  0  0  0  0  0  0  0
  -26.3238  -13.0732   20.1986 C   0  0  0  0  0  0  0  0  0  0  0  0
  -24.1497  -13.3699   20.0577 C   0  0  0  0  0  0  0  0  0  0  0  0
  -25.4909  -15.0835   18.8274 C   0  0  0  0  0  0  0  0  0  0  0  0
  -22.4389  -28.7607   21.5240 C   0  0  0  0  0  0  0  0  0  0  0  0
  -25.6434  -28.7428   21.0208 C   0  0  0  0  0  0  0  0  0  0  0  0
  -28.4800  -26.9260   20.4733 C   0  0  0  0  0  0  0  0  0  0  0  0
  -20.8978  -11.0891   23.8176 C   0  0  0  0  0  0  0  0  0  0  0  0
  -18.9517  -32.0378   23.3012 C   0  0  0  0  0  0  0  0  0  0  0  0
  -23.2129  -27.1121   23.2673 C   0  0  0  0  0  0  0  0  0  0  0  0
  -24.4269  -26.5679   20.6263 C   0  0  0  0  0  0  0  0  0  0  0  0
  -20.3206  -32.1547   22.6357 C   0  0  0  0  0  0  0  0  0  0  0  0
  -23.1270   -8.9462   22.2716 C   0  0  0  0  0  0  0  0  0  0  0  0
  -20.3843  -31.2791   21.3883 C   0  0  0  0  0  0  0  0  0  0  0  0
  -24.0863   -9.8869   21.5422 C   0  0  0  0  0  0  0  0  0  0  0  0
  -18.1305  -20.8280   20.0766 C   0  0  0  0  0  0  0  0  0  0  0  0
  -18.3541  -20.0212   18.8360 C   0  0  0  0  0  0  0  0  0  0  0  0
  -18.9867  -13.9525   22.4598 C   0  0  0  0  0  0  0  0  0  0  0  0
  -21.0647  -14.8211   23.6123 C   0  0  0  0  0  0  0  0  0  0  0  0
  -22.7786   -9.4855   23.6543 C   0  0  0  0  0  0  0  0  0  0  0  0
  -19.0831  -12.6788   23.2963 C   0  0  0  0  0  0  0  0  0  0  0  0
  -21.1132  -13.5296   24.4235 C   0  0  0  0  0  0  0  0  0  0  0  0
  -23.1505  -11.8143   22.9110 C   0  0  0  0  0  0  0  0  0  0  0  0
  -19.6246  -15.1518   23.1820 C   0  0  0  0  0  0  0  0  0  0  0  0
  -20.1887  -29.7998   21.7419 C   0  0  1  0  0  0  0  0  0  0  0  0
  -23.6043  -28.2386   22.3159 C   0  0  1  0  0  0  0  0  0  0  0  0
  -23.5282  -11.3204   21.5001 C   0  0  1  0  0  0  0  0  0  0  0  0
  -19.3731  -19.9664   19.9580 C   0  0  0  0  0  0  0  0  0  0  0  0
  -19.3485  -17.7992   24.4395 C   0  0  0  0  0  0  0  0  0  0  0  0
  -19.6458  -17.3383   18.6888 C   0  0  0  0  0  0  0  0  0  0  0  0
  -30.9413  -27.1923   20.0627 C   0  0  0  0  0  0  0  0  0  0  0  0
  -25.0702  -29.5840   18.1444 C   0  0  0  0  0  0  0  0  0  0  0  0
  -27.4104  -28.9162   17.5563 C   0  0  0  0  0  0  0  0  0  0  0  0
  -27.0143  -30.7471   19.2037 C   0  0  0  0  0  0  0  0  0  0  0  0
  -29.1698  -25.4211   22.9265 C   0  0  0  0  0  0  0  0  0  0  0  0
  -20.6912  -20.6558   19.7476 C   0  0  0  0  0  0  0  0  0  0  0  0
  -21.1088  -21.4777   20.9584 C   0  0  0  0  0  0  0  0  0  1  0  0
  -26.5430  -28.3548   19.8723 C   0  0  1  0  0  0  0  0  0  0  0  0
  -29.8566  -26.9915   21.1096 C   0  0  2  0  0  0  0  0  0  0  0  0
  -26.4916  -29.3818   18.7061 C   0  0  0  0  0  0  0  0  0  0  0  0
  -25.8025  -12.0706   20.9106 N   0  0  0  0  0  0  0  0  0  0  0  0
  -24.4789  -12.2784   20.8062 N   0  0  0  0  0  0  0  0  0  0  0  0
  -24.6287  -27.8334   21.3512 N   0  0  0  0  0  0  0  0  0  0  0  0
  -22.2585  -10.8502   23.5721 N   0  0  0  0  0  0  0  0  0  0  0  0
  -20.4596  -12.4197   23.7167 N   0  0  0  0  0  0  0  0  0  0  0  0
  -22.8633  -13.7232   19.8507 N   0  0  0  0  0  0  0  0  0  0  0  0
  -26.7857  -15.5050   18.4958 N   0  0  0  0  0  0  0  0  0  0  0  0
  -21.4048  -29.2485   22.3000 N   0  0  0  0  0  0  0  0  0  0  0  0
  -27.8725  -28.1634   20.4418 N   0  0  0  0  0  0  0  0  0  0  0  0
  -30.1456  -25.7308   21.8499 N   0  3  0  0  0  0  0  0  0  0  0  0
  -24.5064  -15.7444   18.4182 O   0  0  0  0  0  0  0  0  0  0  0  0
  -22.4758  -28.7251   20.2997 O   0  0  0  0  0  0  0  0  0  0  0  0
  -25.8384  -29.8100   21.6078 O   0  0  0  0  0  0  0  0  0  0  0  0
  -27.9938  -25.8822   20.0434 O   0  0  0  0  0  0  0  0  0  0  0  0
  -20.1190  -10.1713   24.1040 O   0  0  0  0  0  0  0  0  0  0  0  0
  -31.8703  -13.5653   19.6873 O   0  0  0  0  0  0  0  0  0  0  0  0
  -22.3404  -22.1337   20.6872 O   0  0  0  0  0  0  0  0  0  1  0  0
  -34.0703  -18.5783   20.3466 F   0  0  0  0  0  0  0  0  0  0  0  0
  -31.1392  -15.6627   18.0414 F   0  0  0  0  0  0  0  0  0  0  0  0
  1  2  1  0  0  0  0
  1  5  2  0  0  0  0
  2  6  2  0  0  0  0
  3  8  2  0  0  0  0
  3 17  1  0  0  0  0
  4  9  1  0  0  0  0
  4 17  2  0  0  0  0
  5 19  1  0  0  0  0
  6 21  1  0  0  0  0
  7 10  2  0  0  0  0
  7 20  1  0  0  0  0
  8 27  1  0  0  0  0
  9 27  2  0  0  0  0
 10 28  1  0  0  0  0
 11 12  2  0  0  0  0
 11 29  1  0  0  0  0
 12 30  1  0  0  0  0
 13 22  2  0  0  0  0
 13 26  1  0  0  0  0
 14 23  1  0  0  0  0
 14 25  2  0  0  0  0
 15 24  1  0  0  0  0
 15 28  2  0  0  0  0
 16 30  2  0  0  0  0
 16 31  1  0  0  0  0
 17 32  1  0  0  0  0
 18 32  1  0  0  0  0
 18 33  2  0  0  0  0
 18 34  1  0  0  0  0
 19 21  2  0  0  0  0
 19 39  1  0  0  0  0
 20 24  2  0  0  0  0
 20 40  1  0  0  0  0
 21 55  1  0  0  0  0
 22 25  1  0  0  0  0
 22 54  1  0  0  0  0
 23 26  2  0  0  0  0
 23 58  1  0  0  0  0
 24 41  1  0  0  0  0
 25 59  1  0  0  0  0
 26 60  1  0  0  0  0
 27 86  1  0  0  0  0
 28 87  1  0  0  0  0
 29 31  2  0  0  0  0
 29 86  1  0  0  0  0
 30 88  1  0  0  0  0
 31 89  1  0  0  0  0
 32 71  2  0  0  0  0
 33 72  1  0  0  0  0
 33 76  1  0  0  0  0
 34 77  1  0  0  0  0
 34 81  2  0  0  0  0
 35 56  1  0  0  0  0
 35 78  1  0  0  0  0
 35 82  2  0  0  0  0
 36 68  1  0  0  0  0
 36 73  1  0  0  0  0
 36 83  2  0  0  0  0
 37 69  1  0  0  0  0
 37 79  1  0  0  0  0
 37 84  2  0  0  0  0
 38 74  1  0  0  0  0
 38 75  1  0  0  0  0
 38 85  2  0  0  0  0
 39 42  1  0  0  0  0
 40 56  1  0  0  0  0
 41 73  1  0  0  0  0
 42 44  1  0  0  0  0
 43 45  1  0  0  0  0
 43 50  1  0  0  0  0
 44 55  1  0  0  0  0
 45 57  1  0  0  0  0
 46 47  1  0  0  0  0
 46 58  1  0  0  0  0
 47 58  1  0  0  0  0
 48 51  1  0  0  0  0
 48 54  1  0  0  0  0
 49 52  1  0  0  0  0
 49 54  1  0  0  0  0
 50 74  1  0  0  0  0
 51 75  1  0  0  0  0
 52 75  1  0  0  0  0
 53 57  1  0  0  0  0
 53 74  1  0  0  0  0
 55 78  1  0  0  0  0
 56 73  1  0  0  0  0
 57 72  1  0  0  0  0
 58 66  1  0  0  0  0
 61 69  1  0  0  0  0
 62 70  1  0  0  0  0
 63 70  1  0  0  0  0
 64 70  1  0  0  0  0
 65 80  1  0  0  0  0
 66 67  1  0  0  0  0
 67 87  1  0  0  0  0
 68 70  1  0  0  0  0
 68 79  1  0  0  0  0
 69 80  1  0  0  0  0
 71 72  1  0  0  0  0
M  CHG  1  80   1
M  ISO  4  38 100  67 101  75 100  87 101
M  END
> <Batch ID>
0167

> <Smiles>
CNC(C)C(=O)NC(C(=O)N1Cc2cc([101O:1][101CH2:1]CC3(c4cc(C)c(C5CC[100N:0]([100C:0](=O)N6CCCC(n7nc(-c8ccc(Oc9ccc(F)cc9F)cc8)c(C(N)=O)c7N)C6)CC5)cc4C)CC3)ccc2CC1C(=O)NC1CCCc2ccccc21)C(C)(C)C

> <Shape>
0.211

> <Color>
0.104

> <Negative vol penalty>
0.000

$$$$

  -OEChem-04052322273D

 86 95  0     1  0  0  0  0  0999 V2000
  -26.8683  -31.8060   27.2914 C   0  0  0  0  0  0  0  0  0  0  0  0
  -27.5130  -30.8040   26.5733 C   0  0  0  0  0  0  0  0  0  0  0  0
  -22.9124  -11.1655   20.9292 C   0  0  0  0  0  0  0  0  0  0  0  0
  -23.8638   -9.0152   21.4843 C   0  0  0  0  0  0  0  0  0  0  0  0
  -25.4959  -31.9986   27.1387 C   0  0  0  0  0  0  0  0  0  0  0  0
  -26.7854  -29.9932   25.7029 C   0  0  0  0  0  0  0  0  0  0  0  0
  -28.7122  -27.6383   20.3880 C   0  0  0  0  0  0  0  0  0  0  0  0
  -21.7120  -10.5450   20.5832 C   0  0  0  0  0  0  0  0  0  0  0  0
  -22.6634   -8.3947   21.1384 C   0  0  0  0  0  0  0  0  0  0  0  0
  -29.2079  -26.3815   20.0438 C   0  0  0  0  0  0  0  0  0  0  0  0
  -18.2795   -9.5639   19.8971 C   0  0  0  0  0  0  0  0  0  0  0  0
  -17.0955  -10.1409   20.3561 C   0  0  0  0  0  0  0  0  0  0  0  0
  -27.0022  -25.7132   19.3315 C   0  0  0  0  0  0  0  0  0  0  0  0
  -17.8340   -9.8419   22.6370 C   0  0  0  0  0  0  0  0  0  0  0  0
  -23.9884  -10.4005   21.3797 C   0  0  0  0  0  0  0  0  0  0  0  0
  -25.5986  -11.5313   23.0033 C   0  0  0  0  0  0  0  0  0  0  0  0
  -24.7528  -31.1960   26.2588 C   0  0  0  0  0  0  0  0  0  0  0  0
  -27.3533  -27.9388   20.2165 C   0  0  0  0  0  0  0  0  0  0  0  0
  -25.4015  -30.1743   25.5393 C   0  0  0  0  0  0  0  0  0  0  0  0
  -26.4922  -26.9754   19.6720 C   0  0  0  0  0  0  0  0  0  0  0  0
  -30.5744  -20.1951   19.2298 C   0  0  0  0  0  0  0  0  0  0  0  0
  -30.2303  -21.4637   19.6832 C   0  0  0  0  0  0  0  0  0  0  0  0
  -30.5795  -22.5820   18.9343 C   0  0  0  0  0  0  0  0  0  0  0  0
  -21.5875   -9.1597   20.6879 C   0  0  0  0  0  0  0  0  0  0  0  0
  -28.3524  -25.4178   19.5181 C   0  0  0  0  0  0  0  0  0  0  0  0
  -19.2408   -9.1258   20.8080 C   0  0  0  0  0  0  0  0  0  0  0  0
  -16.8727  -10.2799   21.7260 C   0  0  0  0  0  0  0  0  0  0  0  0
  -19.0181   -9.2648   22.1779 C   0  0  0  0  0  0  0  0  0  0  0  0
  -25.2288  -11.0408   21.7366 C   0  0  0  0  0  0  0  0  0  0  0  0
  -31.2622  -20.0994   18.0308 C   0  0  0  0  0  0  0  0  0  0  0  0
  -31.2672  -22.3794   17.7487 C   0  0  0  0  0  0  0  0  0  0  0  0
  -26.8606  -12.0411   22.8191 C   0  0  0  0  0  0  0  0  0  0  0  0
  -24.8668  -11.5263   24.2363 C   0  0  0  0  0  0  0  0  0  0  0  0
  -24.9703  -28.7402   22.1614 C   0  0  0  0  0  0  0  0  0  0  0  0
  -23.3508  -29.1373   19.3790 C   0  0  0  0  0  0  0  0  0  0  0  0
  -23.0363  -28.3532   16.0725 C   0  0  0  0  0  0  0  0  0  0  0  0
  -30.5932  -14.8723   19.9777 C   0  0  0  0  0  0  0  0  0  0  0  0
  -23.2631  -31.4110   26.1627 C   0  0  0  0  0  0  0  0  0  0  0  0
  -26.8395  -29.3081   20.5678 C   0  0  0  0  0  0  0  0  0  0  0  0
  -25.0291  -27.2549   19.4491 C   0  0  0  0  0  0  0  0  0  0  0  0
  -22.6305  -30.7536   24.9388 C   0  0  0  0  0  0  0  0  0  0  0  0
  -30.0559  -11.6224   18.9298 C   0  0  0  0  0  0  0  0  0  0  0  0
  -23.1331  -29.3219   24.7822 C   0  0  0  0  0  0  0  0  0  0  0  0
  -28.7823  -11.2088   19.6670 C   0  0  0  0  0  0  0  0  0  0  0  0
  -29.2541  -18.0322   19.2431 C   0  0  0  0  0  0  0  0  0  0  0  0
  -31.4510  -18.1802   20.4927 C   0  0  0  0  0  0  0  0  0  0  0  0
  -29.9514  -13.0559   18.4222 C   0  0  0  0  0  0  0  0  0  0  0  0
  -28.9129  -16.7681   20.0372 C   0  0  0  0  0  0  0  0  0  0  0  0
  -31.0480  -16.9324   21.2730 C   0  0  0  0  0  0  0  0  0  0  0  0
  -28.3840  -13.6551   20.2394 C   0  0  0  0  0  0  0  0  0  0  0  0
  -30.2066  -18.9558   20.0237 C   0  0  0  0  0  0  0  0  0  0  0  0
  -24.6510  -29.2905   24.5669 C   0  0  1  0  0  0  0  0  0  0  0  0
  -25.3369  -29.3333   20.8304 C   0  0  1  0  0  0  0  0  0  0  0  0
  -28.4380  -12.2124   20.7817 C   0  0  1  0  0  0  0  0  0  0  0  0
  -29.4895  -21.6253   20.9723 C   0  0  0  0  0  0  0  0  0  0  0  0
  -31.6589  -18.7637   17.4926 C   0  0  0  0  0  0  0  0  0  0  0  0
  -31.6717  -23.5418   16.9021 C   0  0  0  0  0  0  0  0  0  0  0  0
  -21.5932  -28.8041   14.0696 C   0  0  0  0  0  0  0  0  0  0  0  0
  -21.2132  -27.2721   20.5023 C   0  0  0  0  0  0  0  0  0  0  0  0
  -20.3213  -27.0079   18.1779 C   0  0  0  0  0  0  0  0  0  0  0  0
  -20.3223  -29.2537   19.2637 C   0  0  0  0  0  0  0  0  0  0  0  0
  -25.2946  -29.5317   14.5658 C   0  0  0  0  0  0  0  0  0  0  0  0
  -30.2246  -23.9566   19.3937 C   0  0  0  0  0  0  0  0  0  1  0  0
  -22.5107  -28.2478   18.4947 C   0  0  1  0  0  0  0  0  0  0  0  0
  -22.8318  -29.2238   14.8458 C   0  0  2  0  0  0  0  0  0  0  0  0
  -21.1190  -27.9392   19.1155 C   0  0  0  0  0  0  0  0  0  0  0  0
  -26.1789  -11.2229   20.8157 N   0  0  0  0  0  0  0  0  0  0  0  0
  -31.6188  -21.1627   17.2759 N   0  0  0  0  0  0  0  0  0  0  0  0
  -27.1582  -11.8335   21.5044 N   0  0  0  0  0  0  0  0  0  0  0  0
  -24.5733  -28.6063   19.8142 N   0  0  0  0  0  0  0  0  0  0  0  0
  -29.6198  -13.9771   19.5090 N   0  0  0  0  0  0  0  0  0  0  0  0
  -30.1371  -16.0950   20.4929 N   0  0  0  0  0  0  0  0  0  0  0  0
  -27.7335  -12.6424   23.6550 N   0  0  0  0  0  0  0  0  0  0  0  0
  -23.5837  -10.9627   24.2494 N   0  0  0  0  0  0  0  0  0  0  0  0
  -24.9755  -29.6486   23.2027 N   0  0  0  0  0  0  0  0  0  0  0  0
  -22.4520  -28.9044   17.1932 N   0  0  0  0  0  0  0  0  0  0  0  0
  -24.0103  -29.1261   13.9389 N   0  3  0  0  0  0  0  0  0  0  0  0
  -25.3304  -12.0221   25.2912 O   0  0  0  0  0  0  0  0  0  0  0  0
  -24.7012  -27.5472   22.2378 O   0  0  0  0  0  0  0  0  0  0  0  0
  -22.9408  -30.2645   19.6670 O   0  0  0  0  0  0  0  0  0  0  0  0
  -23.6496  -27.2887   16.0390 O   0  0  0  0  0  0  0  0  0  0  0  0
  -31.7987  -14.5959   19.9392 O   0  0  0  0  0  0  0  0  0  0  0  0
  -20.4162   -8.5539   20.3507 O   0  0  0  0  0  0  0  0  0  0  0  0
  -28.8369  -24.1815   19.1796 O   0  0  0  0  0  0  0  0  0  1  0  0
  -15.7363  -10.8354   22.1666 F   0  0  0  0  0  0  0  0  0  0  0  0
  -19.9384   -8.8469   23.0578 F   0  0  0  0  0  0  0  0  0  0  0  0
  1  2  1  0  0  0  0
  1  5  2  0  0  0  0
  2  6  2  0  0  0  0
  3  8  2  0  0  0  0
  3 15  1  0  0  0  0
  4  9  1  0  0  0  0
  4 15  2  0  0  0  0
  5 17  1  0  0  0  0
  6 19  1  0  0  0  0
  7 10  2  0  0  0  0
  7 18  1  0  0  0  0
  8 24  1  0  0  0  0
  9 24  2  0  0  0  0
 10 25  1  0  0  0  0
 11 12  2  0  0  0  0
 11 26  1  0  0  0  0
 12 27  1  0  0  0  0
 13 20  1  0  0  0  0
 13 25  2  0  0  0  0
 14 27  2  0  0  0  0
 14 28  1  0  0  0  0
 15 29  1  0  0  0  0
 16 29  1  0  0  0  0
 16 32  2  0  0  0  0
 16 33  1  0  0  0  0
 17 19  2  0  0  0  0
 17 38  1  0  0  0  0
 18 20  2  0  0  0  0
 18 39  1  0  0  0  0
 19 52  1  0  0  0  0
 20 40  1  0  0  0  0
 21 22  1  0  0  0  0
 21 30  2  0  0  0  0
 21 51  1  0  0  0  0
 22 23  2  0  0  0  0
 22 55  1  0  0  0  0
 23 31  1  0  0  0  0
 23 63  1  0  0  0  0
 24 83  1  0  0  0  0
 25 84  1  0  0  0  0
 26 28  2  0  0  0  0
 26 83  1  0  0  0  0
 27 85  1  0  0  0  0
 28 86  1  0  0  0  0
 29 67  2  0  0  0  0
 30 56  1  0  0  0  0
 30 68  1  0  0  0  0
 31 57  1  0  0  0  0
 31 68  2  0  0  0  0
 32 69  1  0  0  0  0
 32 73  1  0  0  0  0
 33 74  1  0  0  0  0
 33 78  2  0  0  0  0
 34 53  1  0  0  0  0
 34 75  1  0  0  0  0
 34 79  2  0  0  0  0
 35 64  1  0  0  0  0
 35 70  1  0  0  0  0
 35 80  2  0  0  0  0
 36 65  1  0  0  0  0
 36 76  1  0  0  0  0
 36 81  2  0  0  0  0
 37 71  1  0  0  0  0
 37 72  1  0  0  0  0
 37 82  2  0  0  0  0
 38 41  1  0  0  0  0
 39 53  1  0  0  0  0
 40 70  1  0  0  0  0
 41 43  1  0  0  0  0
 42 44  1  0  0  0  0
 42 47  1  0  0  0  0
 43 52  1  0  0  0  0
 44 54  1  0  0  0  0
 45 48  1  0  0  0  0
 45 51  1  0  0  0  0
 46 49  1  0  0  0  0
 46 51  1  0  0  0  0
 47 71  1  0  0  0  0
 48 72  1  0  0  0  0
 49 72  1  0  0  0  0
 50 54  1  0  0  0  0
 50 71  1  0  0  0  0
 52 75  1  0  0  0  0
 53 70  1  0  0  0  0
 54 69  1  0  0  0  0
 58 65  1  0  0  0  0
 59 66  1  0  0  0  0
 60 66  1  0  0  0  0
 61 66  1  0  0  0  0
 62 77  1  0  0  0  0
 63 84  1  0  0  0  0
 64 66  1  0  0  0  0
 64 76  1  0  0  0  0
 65 77  1  0  0  0  0
 67 69  1  0  0  0  0
M  CHG  1  77   1
M  ISO  4  37 100  63 101  72 100  84 101
M  END
> <Batch ID>
0167

> <Smiles>
CNC(C)C(=O)NC(C(=O)N1Cc2cc([101O:1][101CH2:1]c3c(C)nc(C)c(C4CC[100N:0]([100C:0](=O)N5CCCC(n6nc(-c7ccc(Oc8ccc(F)cc8F)cc7)c(C(N)=O)c6N)C5)CC4)c3C)ccc2CC1C(=O)NC1CCCc2ccccc21)C(C)(C)C

> <Shape>
0.267

> <Color>
0.090

> <Negative vol penalty>
0.000

$$$$

  -OEChem-04052322273D

 87 96  0     1  0  0  0  0  0999 V2000
  -26.5655  -17.8167   17.2562 C   0  0  0  0  0  0  0  0  0  0  0  0
  -25.6420  -18.8456   17.4109 C   0  0  0  0  0  0  0  0  0  0  0  0
  -23.5581  -13.4035   19.5510 C   0  0  0  0  0  0  0  0  0  0  0  0
  -24.7891  -13.9021   21.5692 C   0  0  0  0  0  0  0  0  0  0  0  0
  -27.7445  -17.8220   18.0003 C   0  0  0  0  0  0  0  0  0  0  0  0
  -25.8967  -19.8800   18.3107 C   0  0  0  0  0  0  0  0  0  0  0  0
  -24.3182  -25.7654   17.6969 C   0  0  0  0  0  0  0  0  0  0  0  0
  -24.6039  -12.5906   19.1139 C   0  0  0  0  0  0  0  0  0  0  0  0
  -25.8349  -13.0891   21.1321 C   0  0  0  0  0  0  0  0  0  0  0  0
  -23.2552  -26.5095   18.2069 C   0  0  0  0  0  0  0  0  0  0  0  0
  -28.9821  -11.4317   20.3853 C   0  0  0  0  0  0  0  0  0  0  0  0
  -30.2820  -11.9196   20.5190 C   0  0  0  0  0  0  0  0  0  0  0  0
  -24.6596  -27.2635   20.0175 C   0  0  0  0  0  0  0  0  0  0  0  0
  -29.7240  -13.7946   19.1013 C   0  0  0  0  0  0  0  0  0  0  0  0
  -23.6507  -14.0593   20.7786 C   0  0  0  0  0  0  0  0  0  0  0  0
  -21.4598  -14.5138   22.0037 C   0  0  0  0  0  0  0  0  0  0  0  0
  -28.0182  -18.8620   18.9026 C   0  0  0  0  0  0  0  0  0  0  0  0
  -25.5588  -25.7560   18.3505 C   0  0  0  0  0  0  0  0  0  0  0  0
  -27.0799  -19.8986   19.0686 C   0  0  0  0  0  0  0  0  0  0  0  0
  -25.7375  -26.5205   19.5123 C   0  0  0  0  0  0  0  0  0  0  0  0
  -19.2691  -28.6630   23.5534 C   0  0  0  0  0  0  0  0  0  0  0  0
  -19.4941  -29.1691   22.2781 C   0  0  0  0  0  0  0  0  0  0  0  0
  -19.3963  -27.2981   23.7860 C   0  0  0  0  0  0  0  0  0  0  0  0
  -25.7423  -12.4333   19.9044 C   0  0  0  0  0  0  0  0  0  0  0  0
  -23.4250  -27.2564   19.3690 C   0  0  0  0  0  0  0  0  0  0  0  0
  -28.0532  -12.1252   19.6095 C   0  0  0  0  0  0  0  0  0  0  0  0
  -30.6530  -13.1011   19.8770 C   0  0  0  0  0  0  0  0  0  0  0  0
  -28.4241  -13.3067   18.9675 C   0  0  0  0  0  0  0  0  0  0  0  0
  -22.5710  -14.8997   21.2304 C   0  0  0  0  0  0  0  0  0  0  0  0
  -19.8413  -28.2756   21.2776 C   0  0  0  0  0  0  0  0  0  0  0  0
  -19.7476  -26.4883   22.7180 C   0  0  0  0  0  0  0  0  0  0  0  0
  -20.7339  -15.6689   22.1621 C   0  0  0  0  0  0  0  0  0  0  0  0
  -21.1147  -13.2262   22.5318 C   0  0  0  0  0  0  0  0  0  0  0  0
  -27.3484  -23.5231   19.7344 C   0  0  0  0  0  0  0  0  0  0  0  0
  -29.4893  -25.9471   19.9852 C   0  0  0  0  0  0  0  0  0  0  0  0
  -30.0561  -29.3098   20.1184 C   0  0  0  0  0  0  0  0  0  0  0  0
  -20.2641  -20.9110   23.2318 C   0  0  0  0  0  0  0  0  0  0  0  0
  -29.2844  -18.7999   19.7196 C   0  0  0  0  0  0  0  0  0  0  0  0
  -26.7032  -24.9694   17.7727 C   0  0  0  0  0  0  0  0  0  0  0  0
  -27.0553  -26.5603   20.2405 C   0  0  0  0  0  0  0  0  0  0  0  0
  -29.6510  -20.1280   20.3769 C   0  0  0  0  0  0  0  0  0  0  0  0
  -21.1620  -20.1733   19.9168 C   0  0  0  0  0  0  0  0  0  0  0  0
  -28.4280  -20.7484   21.0449 C   0  0  0  0  0  0  0  0  0  0  0  0
  -21.5241  -18.6922   20.0226 C   0  0  0  0  0  0  0  0  0  0  0  0
  -21.6634  -20.9732   21.1203 C   0  0  0  0  0  0  0  0  0  0  0  0
  -18.7041  -24.2442   22.7757 C   0  0  0  0  0  0  0  0  0  0  0  0
  -21.1893  -24.4997   22.7056 C   0  0  0  0  0  0  0  0  0  0  0  0
  -18.8790  -22.9297   23.5315 C   0  0  0  0  0  0  0  0  0  0  0  0
  -21.3195  -23.1887   23.4729 C   0  0  0  0  0  0  0  0  0  0  0  0
  -21.5971  -18.9435   22.5324 C   0  0  0  0  0  0  0  0  0  0  0  0
  -27.3316  -21.0511   20.0164 C   0  0  1  0  0  0  0  0  0  0  0  0
  -27.7726  -24.6247   18.8047 C   0  0  1  0  0  0  0  0  0  0  0  0
  -21.0555  -18.1035   21.3652 C   0  0  2  0  0  0  0  0  0  0  0  0
  -18.8929  -29.5842   24.6698 C   0  0  0  0  0  0  0  0  0  0  0  0
  -19.3662  -30.6289   21.9973 C   0  0  0  0  0  0  0  0  0  0  0  0
  -19.1584  -26.7335   25.1478 C   0  0  0  0  0  0  0  0  0  0  0  0
  -31.9060  -30.9875   20.3643 C   0  0  0  0  0  0  0  0  0  0  0  0
  -29.6466  -25.3327   22.9698 C   0  0  0  0  0  0  0  0  0  0  0  0
  -30.7224  -27.5688   23.3025 C   0  0  0  0  0  0  0  0  0  0  0  0
  -31.8450  -25.8439   21.8927 C   0  0  0  0  0  0  0  0  0  0  0  0
  -29.4782  -30.5075   17.4744 C   0  0  0  0  0  0  0  0  0  0  0  0
  -20.0952  -28.7601   19.8876 C   0  0  0  0  0  0  0  0  0  0  0  0
  -21.1559  -27.9355   19.1540 C   0  0  0  0  0  0  0  0  0  1  0  0
  -29.7824  -27.0125   21.0138 C   0  0  1  0  0  0  0  0  0  0  0  0
  -31.0518  -30.1932   19.3885 C   0  0  2  0  0  0  0  0  0  0  0  0
  -30.4736  -26.4374   22.2823 C   0  0  0  0  0  0  0  0  0  0  0  0
  -22.5565  -16.1985   20.9190 N   0  0  0  0  0  0  0  0  0  0  0  0
  -19.9743  -26.9435   21.4654 N   0  0  0  0  0  0  0  0  0  0  0  0
  -21.4272  -16.6387   21.4995 N   0  0  0  0  0  0  0  0  0  0  0  0
  -19.8749  -25.1118   22.9441 N   0  0  0  0  0  0  0  0  0  0  0  0
  -28.1421  -25.7694   19.6397 N   0  0  0  0  0  0  0  0  0  0  0  0
  -21.2260  -20.3516   22.3774 N   0  0  0  0  0  0  0  0  0  0  0  0
  -20.1687  -22.3113   23.2490 N   0  0  0  0  0  0  0  0  0  0  0  0
  -19.5764  -15.9396   22.8021 N   0  0  0  0  0  0  0  0  0  0  0  0
  -21.9714  -12.1472   22.2749 N   0  0  0  0  0  0  0  0  0  0  0  0
  -27.6498  -22.2542   19.2778 N   0  0  0  0  0  0  0  0  0  0  0  0
  -30.5554  -28.0416   20.3268 N   0  0  0  0  0  0  0  0  0  0  0  0
  -30.3382  -31.1530   18.4994 N   0  3  0  0  0  0  0  0  0  0  0  0
  -20.0689  -13.0347   23.1974 O   0  0  0  0  0  0  0  0  0  0  0  0
  -26.7903  -23.8037   20.7887 O   0  0  0  0  0  0  0  0  0  0  0  0
  -30.4220  -25.3014   19.5007 O   0  0  0  0  0  0  0  0  0  0  0  0
  -28.9478  -29.7064   20.4718 O   0  0  0  0  0  0  0  0  0  0  0  0
  -19.5317  -20.2040   23.9352 O   0  0  0  0  0  0  0  0  0  0  0  0
  -26.7629  -11.6399   19.4784 O   0  0  0  0  0  0  0  0  0  0  0  0
  -22.3816  -27.9882   19.8728 O   0  0  0  0  0  0  0  0  0  1  0  0
  -31.9008  -13.5703   20.0067 F   0  0  0  0  0  0  0  0  0  0  0  0
  -27.5358  -13.9780   18.2219 F   0  0  0  0  0  0  0  0  0  0  0  0
  1  2  1  0  0  0  0
  1  5  2  0  0  0  0
  2  6  2  0  0  0  0
  3  8  2  0  0  0  0
  3 15  1  0  0  0  0
  4  9  1  0  0  0  0
  4 15  2  0  0  0  0
  5 17  1  0  0  0  0
  6 19  1  0  0  0  0
  7 10  2  0  0  0  0
  7 18  1  0  0  0  0
  8 24  1  0  0  0  0
  9 24  2  0  0  0  0
 10 25  1  0  0  0  0
 11 12  2  0  0  0  0
 11 26  1  0  0  0  0
 12 27  1  0  0  0  0
 13 20  1  0  0  0  0
 13 25  2  0  0  0  0
 14 27  2  0  0  0  0
 14 28  1  0  0  0  0
 15 29  1  0  0  0  0
 16 29  1  0  0  0  0
 16 32  2  0  0  0  0
 16 33  1  0  0  0  0
 17 19  2  0  0  0  0
 17 38  1  0  0  0  0
 18 20  2  0  0  0  0
 18 39  1  0  0  0  0
 19 51  1  0  0  0  0
 20 40  1  0  0  0  0
 21 22  1  0  0  0  0
 21 23  2  0  0  0  0
 21 54  1  0  0  0  0
 22 30  2  0  0  0  0
 22 55  1  0  0  0  0
 23 31  1  0  0  0  0
 23 56  1  0  0  0  0
 24 84  1  0  0  0  0
 25 85  1  0  0  0  0
 26 28  2  0  0  0  0
 26 84  1  0  0  0  0
 27 86  1  0  0  0  0
 28 87  1  0  0  0  0
 29 67  2  0  0  0  0
 30 62  1  0  0  0  0
 30 68  1  0  0  0  0
 31 68  2  0  0  0  0
 31 70  1  0  0  0  0
 32 69  1  0  0  0  0
 32 74  1  0  0  0  0
 33 75  1  0  0  0  0
 33 79  2  0  0  0  0
 34 52  1  0  0  0  0
 34 76  1  0  0  0  0
 34 80  2  0  0  0  0
 35 64  1  0  0  0  0
 35 71  1  0  0  0  0
 35 81  2  0  0  0  0
 36 65  1  0  0  0  0
 36 77  1  0  0  0  0
 36 82  2  0  0  0  0
 37 72  1  0  0  0  0
 37 73  1  0  0  0  0
 37 83  2  0  0  0  0
 38 41  1  0  0  0  0
 39 52  1  0  0  0  0
 40 71  1  0  0  0  0
 41 43  1  0  0  0  0
 42 44  1  0  0  0  0
 42 45  1  0  0  0  0
 43 51  1  0  0  0  0
 44 53  1  0  0  0  0
 45 72  1  0  0  0  0
 46 48  1  0  0  0  0
 46 70  1  0  0  0  0
 47 49  1  0  0  0  0
 47 70  1  0  0  0  0
 48 73  1  0  0  0  0
 49 73  1  0  0  0  0
 50 53  1  0  0  0  0
 50 72  1  0  0  0  0
 51 76  1  0  0  0  0
 52 71  1  0  0  0  0
 53 69  1  0  0  0  0
 57 65  1  0  0  0  0
 58 66  1  0  0  0  0
 59 66  1  0  0  0  0
 60 66  1  0  0  0  0
 61 78  1  0  0  0  0
 62 63  1  0  0  0  0
 63 85  1  0  0  0  0
 64 66  1  0  0  0  0
 64 77  1  0  0  0  0
 65 78  1  0  0  0  0
 67 69  1  0  0  0  0
M  CHG  1  78   1
M  ISO  4  37 100  63 101  73 100  85 101
M  END
> <Batch ID>
0167

> <Smiles>
CNC(C)C(=O)NC(C(=O)N1Cc2cc([101O:1][101CH2:1]Cc3nc(N4CC[100N:0]([100C:0](=O)N5CCCC(n6nc(-c7ccc(Oc8ccc(F)cc8F)cc7)c(C(N)=O)c6N)C5)CC4)c(C)c(C)c3C)ccc2CC1C(=O)NC1CCCc2ccccc21)C(C)(C)C

> <Shape>
0.226

> <Color>
0.077

> <Negative vol penalty>
0.000

$$$$

  -OEChem-04052322273D

 90100  0     1  0  0  0  0  0999 V2000
  -18.4702  -29.4056   15.4861 C   0  0  0  0  0  0  0  0  0  0  0  0
  -19.2086  -28.3123   15.9275 C   0  0  0  0  0  0  0  0  0  0  0  0
  -23.0808   -9.8622   19.9478 C   0  0  0  0  0  0  0  0  0  0  0  0
  -23.8320   -9.8899   22.2438 C   0  0  0  0  0  0  0  0  0  0  0  0
  -18.4068  -30.5619   16.2625 C   0  0  0  0  0  0  0  0  0  0  0  0
  -19.8849  -28.3751   17.1453 C   0  0  0  0  0  0  0  0  0  0  0  0
  -20.7725  -23.7877   21.1043 C   0  0  0  0  0  0  0  0  0  0  0  0
  -22.3400   -8.7085   20.2040 C   0  0  0  0  0  0  0  0  0  0  0  0
  -23.0911   -8.7362   22.5001 C   0  0  0  0  0  0  0  0  0  0  0  0
  -21.8572  -22.9419   21.3321 C   0  0  0  0  0  0  0  0  0  0  0  0
  -19.8634   -7.9320   23.0968 C   0  0  0  0  0  0  0  0  0  0  0  0
  -19.1022   -7.8987   24.2651 C   0  0  0  0  0  0  0  0  0  0  0  0
  -28.2665  -19.4537   24.2576 C   0  0  0  0  0  0  0  0  0  0  0  0
  -29.3270  -18.9279   22.1515 C   0  0  0  0  0  0  0  0  0  0  0  0
  -22.5993  -24.3845   23.1175 C   0  0  0  0  0  0  0  0  0  0  0  0
  -20.3474   -5.9714   25.0215 C   0  0  0  0  0  0  0  0  0  0  0  0
  -23.8269  -10.4529   20.9677 C   0  0  0  0  0  0  0  0  0  0  0  0
  -24.1605  -12.9782   20.8290 C   0  0  0  0  0  0  0  0  0  0  0  0
  -19.0748  -30.6354   17.4950 C   0  0  0  0  0  0  0  0  0  0  0  0
  -20.5988  -24.9459   21.8755 C   0  0  0  0  0  0  0  0  0  0  0  0
  -19.8315  -29.5339   17.9384 C   0  0  0  0  0  0  0  0  0  0  0  0
  -28.5051  -19.7552   22.9169 C   0  0  0  0  0  0  0  0  0  0  0  0
  -21.5102  -25.2419   22.8992 C   0  0  0  0  0  0  0  0  0  0  0  0
  -28.8498  -18.3248   24.8331 C   0  0  0  0  0  0  0  0  0  0  0  0
  -29.9102  -17.7990   22.7270 C   0  0  0  0  0  0  0  0  0  0  0  0
  -29.6716  -17.4975   24.0678 C   0  0  0  0  0  0  0  0  0  0  0  0
  -22.3451   -8.1455   21.4802 C   0  0  0  0  0  0  0  0  0  0  0  0
  -22.7724  -23.2418   22.3369 C   0  0  0  0  0  0  0  0  0  0  0  0
  -20.8666   -6.9850   22.8907 C   0  0  0  0  0  0  0  0  0  0  0  0
  -19.3442   -6.9185   25.2275 C   0  0  0  0  0  0  0  0  0  0  0  0
  -21.1087   -6.0047   23.8531 C   0  0  0  0  0  0  0  0  0  0  0  0
  -24.5929  -11.6444   20.7034 C   0  0  0  0  0  0  0  0  0  0  0  0
  -25.2515  -13.7286   20.4639 C   0  0  0  0  0  0  0  0  0  0  0  0
  -22.8867  -13.4929   21.2390 C   0  0  0  0  0  0  0  0  0  0  0  0
  -20.5242  -28.0628   21.2563 C   0  0  0  0  0  0  0  0  0  0  0  0
  -19.7104  -28.2698   24.3896 C   0  0  0  0  0  0  0  0  0  0  0  0
  -19.7759  -26.8646   27.4989 C   0  0  0  0  0  0  0  0  0  0  0  0
  -30.7310  -14.7680   20.6649 C   0  0  0  0  0  0  0  0  0  0  0  0
  -19.0156  -31.9236   18.2771 C   0  0  0  0  0  0  0  0  0  0  0  0
  -19.4087  -25.8338   21.6349 C   0  0  0  0  0  0  0  0  0  0  0  0
  -21.3575  -26.4624   23.7685 C   0  0  0  0  0  0  0  0  0  0  0  0
  -19.4544  -31.7739   19.7315 C   0  0  0  0  0  0  0  0  0  0  0  0
  -29.6106  -12.3608   18.2927 C   0  0  0  0  0  0  0  0  0  0  0  0
  -20.7492  -30.9721   19.8186 C   0  0  0  0  0  0  0  0  0  0  0  0
  -28.1725  -12.0656   18.7226 C   0  0  0  0  0  0  0  0  0  0  0  0
  -25.8665  -19.5130   21.2231 C   0  0  0  0  0  0  0  0  0  0  0  0
  -26.8528  -21.8853   20.5572 C   0  0  0  0  0  0  0  0  0  0  0  0
  -30.5224  -12.5943   19.4953 C   0  0  0  0  0  0  0  0  0  0  0  0
  -28.6129  -13.3297   20.8689 C   0  0  0  0  0  0  0  0  0  0  0  0
  -27.8454  -21.0363   22.2653 C   0  0  1  0  0  0  0  0  0  0  0  0
  -20.5587  -29.5547   19.2654 C   0  0  1  0  0  0  0  0  0  0  0  0
  -19.6141  -27.2583   22.1407 C   0  0  1  0  0  0  0  0  0  0  0  0
  -25.2231  -20.5053   22.1612 C   0  0  1  0  0  0  0  0  0  0  0  0
  -27.6438  -13.1425   19.6890 C   0  0  2  0  0  0  0  0  0  0  0  0
  -28.3266  -21.5963   20.8987 C   0  0  2  0  0  0  0  0  0  0  0  0
  -26.5511  -20.8087   21.5388 C   0  0  2  0  0  0  0  0  0  0  0  0
  -28.5805  -18.0258   26.2717 C   0  0  0  0  0  0  0  0  0  0  0  0
  -30.2971  -16.2871   24.6850 C   0  0  0  0  0  0  0  0  0  0  0  0
  -19.0619  -27.2874   29.8672 C   0  0  0  0  0  0  0  0  0  0  0  0
  -22.0092  -30.2475   24.7269 C   0  0  0  0  0  0  0  0  0  0  0  0
  -21.8539  -29.8988   27.2013 C   0  0  0  0  0  0  0  0  0  0  0  0
  -19.9182  -30.8591   25.9549 C   0  0  0  0  0  0  0  0  0  0  0  0
  -18.0437  -24.4650   27.5276 C   0  0  0  0  0  0  0  0  0  0  0  0
  -30.3793  -22.6088   21.8795 C   0  0  0  0  0  0  0  0  0  0  0  0
  -29.5103  -23.4262   19.6937 C   0  0  0  0  0  0  0  0  0  0  0  0
  -30.7848  -16.9284   21.8850 C   0  0  0  0  0  0  0  0  0  0  0  0
  -23.9928  -21.2346   21.7447 C   0  0  0  0  0  0  0  0  0  1  0  0
  -20.4727  -28.4072   25.6853 C   0  0  1  0  0  0  0  0  0  0  0  0
  -18.6852  -26.6590   28.5345 C   0  0  2  0  0  0  0  0  0  0  0  0
  -21.0677  -29.8311   25.8746 C   0  0  0  0  0  0  0  0  0  0  0  0
  -25.8596  -11.5496   20.2907 N   0  0  0  0  0  0  0  0  0  0  0  0
  -26.2326  -12.8334   20.1536 N   0  0  0  0  0  0  0  0  0  0  0  0
  -20.1811  -27.3027   23.4901 N   0  0  0  0  0  0  0  0  0  0  0  0
  -29.9650  -13.6278   20.3710 N   0  0  0  0  0  0  0  0  0  0  0  0
  -25.4576  -15.0601   20.3812 N   0  0  0  0  0  0  0  0  0  0  0  0
  -21.8766  -12.5829   21.5797 N   0  0  0  0  0  0  0  0  0  0  0  0
  -19.8736  -28.7230   20.2315 N   0  0  0  0  0  0  0  0  0  0  0  0
  -19.5561  -27.9971   26.7436 N   0  0  0  0  0  0  0  0  0  0  0  0
  -30.1254  -15.7013   21.4973 N   0  0  0  0  0  0  0  0  0  0  0  0
  -18.4450  -25.2043   28.7521 N   0  3  0  0  0  0  0  0  0  0  0  0
  -29.1428  -22.8110   21.0282 N   0  3  0  0  0  0  0  0  0  0  0  0
  -22.6460  -14.7231   21.2858 O   0  0  0  0  0  0  0  0  0  0  0  0
  -21.7274  -28.0842   21.4875 O   0  0  0  0  0  0  0  0  0  0  0  0
  -18.7289  -28.9889   24.1861 O   0  0  0  0  0  0  0  0  0  0  0  0
  -20.7295  -26.0993   27.3749 O   0  0  0  0  0  0  0  0  0  0  0  0
  -31.8680  -14.9438   20.2141 O   0  0  0  0  0  0  0  0  0  0  0  0
  -21.6221   -7.0199   21.7307 O   0  0  0  0  0  0  0  0  0  0  0  0
  -23.8324  -22.4184   22.5609 O   0  0  0  0  0  0  0  0  0  1  0  0
  -18.6141   -6.8875   26.3501 F   0  0  0  0  0  0  0  0  0  0  0  0
  -22.0719   -5.0930   23.6613 F   0  0  0  0  0  0  0  0  0  0  0  0
  1  2  1  0  0  0  0
  1  5  2  0  0  0  0
  2  6  2  0  0  0  0
  3  8  2  0  0  0  0
  3 17  1  0  0  0  0
  4  9  1  0  0  0  0
  4 17  2  0  0  0  0
  5 19  1  0  0  0  0
  6 21  1  0  0  0  0
  7 10  2  0  0  0  0
  7 20  1  0  0  0  0
  8 27  1  0  0  0  0
  9 27  2  0  0  0  0
 10 28  1  0  0  0  0
 11 12  2  0  0  0  0
 11 29  1  0  0  0  0
 12 30  1  0  0  0  0
 13 22  1  0  0  0  0
 13 24  2  0  0  0  0
 14 22  2  0  0  0  0
 14 25  1  0  0  0  0
 15 23  1  0  0  0  0
 15 28  2  0  0  0  0
 16 30  2  0  0  0  0
 16 31  1  0  0  0  0
 17 32  1  0  0  0  0
 18 32  1  0  0  0  0
 18 33  2  0  0  0  0
 18 34  1  0  0  0  0
 19 21  2  0  0  0  0
 19 39  1  0  0  0  0
 20 23  2  0  0  0  0
 20 40  1  0  0  0  0
 21 51  1  0  0  0  0
 22 50  1  0  0  0  0
 23 41  1  0  0  0  0
 24 26  1  0  0  0  0
 24 57  1  0  0  0  0
 25 26  2  0  0  0  0
 25 66  1  0  0  0  0
 26 58  1  0  0  0  0
 27 87  1  0  0  0  0
 28 88  1  0  0  0  0
 29 31  2  0  0  0  0
 29 87  1  0  0  0  0
 30 89  1  0  0  0  0
 31 90  1  0  0  0  0
 32 71  2  0  0  0  0
 33 72  1  0  0  0  0
 33 75  1  0  0  0  0
 34 76  1  0  0  0  0
 34 82  2  0  0  0  0
 35 52  1  0  0  0  0
 35 77  1  0  0  0  0
 35 83  2  0  0  0  0
 36 68  1  0  0  0  0
 36 73  1  0  0  0  0
 36 84  2  0  0  0  0
 37 69  1  0  0  0  0
 37 78  1  0  0  0  0
 37 85  2  0  0  0  0
 38 74  1  0  0  0  0
 38 79  1  0  0  0  0
 38 86  2  0  0  0  0
 39 42  1  0  0  0  0
 40 52  1  0  0  0  0
 41 73  1  0  0  0  0
 42 44  1  0  0  0  0
 43 45  1  0  0  0  0
 43 48  1  0  0  0  0
 44 51  1  0  0  0  0
 45 54  1  0  0  0  0
 46 53  1  0  0  0  0
 46 56  1  0  0  0  0
 47 55  1  0  0  0  0
 47 56  1  0  0  0  0
 48 74  1  0  0  0  0
 49 54  1  0  0  0  0
 49 74  1  0  0  0  0
 50 55  1  0  0  0  0
 50 56  1  0  0  0  0
 51 77  1  0  0  0  0
 52 73  1  0  0  0  0
 53 56  1  0  0  0  0
 53 67  1  0  0  0  0
 54 72  1  0  0  0  0
 55 81  1  0  0  0  0
 59 69  1  0  0  0  0
 60 70  1  0  0  0  0
 61 70  1  0  0  0  0
 62 70  1  0  0  0  0
 63 80  1  0  0  0  0
 64 81  1  0  0  0  0
 65 81  1  0  0  0  0
 66 79  1  0  0  0  0
 67 88  1  0  0  0  0
 68 70  1  0  0  0  0
 68 78  1  0  0  0  0
 69 80  1  0  0  0  0
 71 72  1  0  0  0  0
M  CHG  2  80   1  81   1
M  ISO  4  38 100  67 101  79 100  88 101
M  END
> <Batch ID>
0167

> <Smiles>
CNC(C)C(=O)NC(C(=O)N1Cc2cc([101O:1][101CH2:1]C3CC34CC(N(C)C)C4c3cc(C)c(C)c(C[100NH:0][100C:0](=O)N4CCCC(n5nc(-c6ccc(Oc7ccc(F)cc7F)cc6)c(C(N)=O)c5N)C4)c3)ccc2CC1C(=O)NC1CCCc2ccccc21)C(C)(C)C

> <Shape>
0.254

> <Color>
0.188

> <Negative vol penalty>
0.000

$$$$

  -OEChem-04052322273D

 82 91  0     1  0  0  0  0  0999 V2000
  -24.5736  -27.0901   28.7130 C   0  0  0  0  0  0  0  0  0  0  0  0
  -25.5613  -26.2305   28.2429 C   0  0  0  0  0  0  0  0  0  0  0  0
  -23.0747   -9.8674   19.9418 C   0  0  0  0  0  0  0  0  0  0  0  0
  -23.8387   -9.8738   22.2338 C   0  0  0  0  0  0  0  0  0  0  0  0
  -23.6992  -27.7022   27.8161 C   0  0  0  0  0  0  0  0  0  0  0  0
  -25.6744  -25.9817   26.8755 C   0  0  0  0  0  0  0  0  0  0  0  0
  -30.8348  -25.0030   23.7262 C   0  0  0  0  0  0  0  0  0  0  0  0
  -22.3326   -8.7133   20.1924 C   0  0  0  0  0  0  0  0  0  0  0  0
  -23.0965   -8.7196   22.4844 C   0  0  0  0  0  0  0  0  0  0  0  0
  -31.4602  -23.8359   23.2897 C   0  0  0  0  0  0  0  0  0  0  0  0
  -19.8703   -7.9179   23.0923 C   0  0  0  0  0  0  0  0  0  0  0  0
  -19.1156   -7.8764   24.2645 C   0  0  0  0  0  0  0  0  0  0  0  0
  -30.4067  -24.0848   21.1339 C   0  0  0  0  0  0  0  0  0  0  0  0
  -20.3604   -5.9398   24.9974 C   0  0  0  0  0  0  0  0  0  0  0  0
  -23.8279  -10.4476   20.9626 C   0  0  0  0  0  0  0  0  0  0  0  0
  -24.1667  -12.9732   20.8435 C   0  0  0  0  0  0  0  0  0  0  0  0
  -23.8078  -27.4683   26.4362 C   0  0  0  0  0  0  0  0  0  0  0  0
  -29.9806  -25.7150   22.8719 C   0  0  0  0  0  0  0  0  0  0  0  0
  -24.7997  -26.5902   25.9594 C   0  0  0  0  0  0  0  0  0  0  0  0
  -29.7736  -25.2620   21.5611 C   0  0  0  0  0  0  0  0  0  0  0  0
  -22.3434   -8.1394   21.4637 C   0  0  0  0  0  0  0  0  0  0  0  0
  -31.2440  -23.3751   21.9943 C   0  0  0  0  0  0  0  0  0  0  0  0
  -20.8701   -6.9703   22.8725 C   0  0  0  0  0  0  0  0  0  0  0  0
  -19.3606   -6.8874   25.2171 C   0  0  0  0  0  0  0  0  0  0  0  0
  -21.1152   -5.9813   23.8252 C   0  0  0  0  0  0  0  0  0  0  0  0
  -24.5952  -11.6395   20.7042 C   0  0  0  0  0  0  0  0  0  0  0  0
  -25.2574  -13.7242   20.4788 C   0  0  0  0  0  0  0  0  0  0  0  0
  -30.7570  -19.3764   21.8945 C   0  0  0  0  0  0  0  0  0  0  0  0
  -22.8964  -13.4874   21.2651 C   0  0  0  0  0  0  0  0  0  0  0  0
  -26.8994  -26.4945   22.9204 C   0  0  0  0  0  0  0  0  0  0  0  0
  -27.6901  -28.2014   20.2778 C   0  0  0  0  0  0  0  0  0  0  0  0
  -29.8067  -28.6375   17.6365 C   0  0  0  0  0  0  0  0  0  0  0  0
  -30.7403  -14.7491   20.6579 C   0  0  0  0  0  0  0  0  0  0  0  0
  -22.8096  -28.1159   25.5093 C   0  0  0  0  0  0  0  0  0  0  0  0
  -29.3345  -26.9867   23.3492 C   0  0  0  0  0  0  0  0  0  0  0  0
  -28.8818  -26.0008   20.5982 C   0  0  0  0  0  0  0  0  0  0  0  0
  -23.2347  -28.0917   24.0434 C   0  0  0  0  0  0  0  0  0  0  0  0
  -29.6011  -12.3649   18.2717 C   0  0  0  0  0  0  0  0  0  0  0  0
  -23.7376  -26.7047   23.6562 C   0  0  0  0  0  0  0  0  0  0  0  0
  -28.1647  -12.0693   18.7070 C   0  0  0  0  0  0  0  0  0  0  0  0
  -31.4695  -19.5226   18.1367 C   0  0  0  0  0  0  0  0  0  0  0  0
  -32.2960  -18.4659   18.7981 C   0  0  0  0  0  0  0  0  0  0  0  0
  -30.5201  -12.5859   19.4711 C   0  0  0  0  0  0  0  0  0  0  0  0
  -28.6200  -13.3140   20.8615 C   0  0  0  0  0  0  0  0  0  0  0  0
  -24.9700  -26.3145   24.4812 C   0  0  1  0  0  0  0  0  0  0  0  0
  -30.0159  -18.1264   21.4617 C   0  0  1  0  0  0  0  0  0  0  0  0
  -31.5431  -20.0002   20.7510 C   0  0  1  0  0  0  0  0  0  0  0  0
  -28.0800  -27.3517   22.5615 C   0  0  1  0  0  0  0  0  0  0  0  0
  -29.9570  -18.2768   19.9241 C   0  0  2  0  0  0  0  0  0  0  0  0
  -27.6440  -13.1391   19.6855 C   0  0  2  0  0  0  0  0  0  0  0  0
  -31.1689  -19.1273   19.5683 C   0  0  0  0  0  0  0  0  0  0  0  0
  -28.6503  -18.9478   19.4932 C   0  0  0  0  0  0  0  0  0  0  0  0
  -30.1744  -30.0941   15.6264 C   0  0  0  0  0  0  0  0  0  0  0  0
  -25.4260  -26.7625   18.8239 C   0  0  0  0  0  0  0  0  0  0  0  0
  -26.4294  -27.5188   16.6585 C   0  0  0  0  0  0  0  0  0  0  0  0
  -25.6126  -29.2025   18.3080 C   0  0  0  0  0  0  0  0  0  0  0  0
  -32.4427  -29.5437   18.6310 C   0  0  0  0  0  0  0  0  0  0  0  0
  -30.8060  -16.8990   21.8961 C   0  0  0  0  0  0  0  0  0  0  0  0
  -31.1657  -21.4626   20.5829 C   0  0  0  0  0  0  0  0  0  1  0  0
  -27.7348  -27.9178   18.7957 C   0  0  1  0  0  0  0  0  0  0  0  0
  -30.5008  -29.8744   17.0954 C   0  0  2  0  0  0  0  0  0  0  0  0
  -26.3160  -27.8352   18.1650 C   0  0  0  0  0  0  0  0  0  0  0  0
  -25.8594  -11.5454   20.2836 N   0  0  0  0  0  0  0  0  0  0  0  0
  -26.2346  -12.8294   20.1554 N   0  0  0  0  0  0  0  0  0  0  0  0
  -28.2678  -27.2355   21.1140 N   0  0  0  0  0  0  0  0  0  0  0  0
  -29.9700  -13.6133   20.3587 N   0  0  0  0  0  0  0  0  0  0  0  0
  -25.4662  -15.0559   20.4062 N   0  0  0  0  0  0  0  0  0  0  0  0
  -21.8861  -12.5769   21.6036 N   0  0  0  0  0  0  0  0  0  0  0  0
  -26.1497  -26.9819   23.9740 N   0  0  0  0  0  0  0  0  0  0  0  0
  -28.5905  -28.9437   18.2094 N   0  0  0  0  0  0  0  0  0  0  0  0
  -30.1417  -15.6767   21.5016 N   0  0  0  0  0  0  0  0  0  0  0  0
  -31.9786  -29.7413   17.2337 N   0  3  0  0  0  0  0  0  0  0  0  0
  -30.7570  -19.8039   23.0426 O   0  0  0  0  0  0  0  0  0  0  0  0
  -22.6589  -14.7177   21.3236 O   0  0  0  0  0  0  0  0  0  0  0  0
  -26.6836  -25.4677   22.2873 O   0  0  0  0  0  0  0  0  0  0  0  0
  -27.1683  -29.2449   20.6783 O   0  0  0  0  0  0  0  0  0  0  0  0
  -30.2930  -27.5116   17.5554 O   0  0  0  0  0  0  0  0  0  0  0  0
  -31.8753  -14.9261   20.2024 O   0  0  0  0  0  0  0  0  0  0  0  0
  -21.6192   -7.0134   21.7086 O   0  0  0  0  0  0  0  0  0  0  0  0
  -31.8527  -22.2358   21.5660 O   0  0  0  0  0  0  0  0  0  1  0  0
  -18.6367   -6.8486   26.3434 F   0  0  0  0  0  0  0  0  0  0  0  0
  -22.0751   -5.0690   23.6202 F   0  0  0  0  0  0  0  0  0  0  0  0
  1  2  1  0  0  0  0
  1  5  2  0  0  0  0
  2  6  2  0  0  0  0
  3  8  2  0  0  0  0
  3 15  1  0  0  0  0
  4  9  1  0  0  0  0
  4 15  2  0  0  0  0
  5 17  1  0  0  0  0
  6 19  1  0  0  0  0
  7 10  2  0  0  0  0
  7 18  1  0  0  0  0
  8 21  1  0  0  0  0
  9 21  2  0  0  0  0
 10 22  1  0  0  0  0
 11 12  2  0  0  0  0
 11 23  1  0  0  0  0
 12 24  1  0  0  0  0
 13 20  1  0  0  0  0
 13 22  2  0  0  0  0
 14 24  2  0  0  0  0
 14 25  1  0  0  0  0
 15 26  1  0  0  0  0
 16 26  1  0  0  0  0
 16 27  2  0  0  0  0
 16 29  1  0  0  0  0
 17 19  2  0  0  0  0
 17 34  1  0  0  0  0
 18 20  2  0  0  0  0
 18 35  1  0  0  0  0
 19 45  1  0  0  0  0
 20 36  1  0  0  0  0
 21 79  1  0  0  0  0
 22 80  1  0  0  0  0
 23 25  2  0  0  0  0
 23 79  1  0  0  0  0
 24 81  1  0  0  0  0
 25 82  1  0  0  0  0
 26 63  2  0  0  0  0
 27 64  1  0  0  0  0
 27 67  1  0  0  0  0
 28 46  1  0  0  0  0
 28 47  1  0  0  0  0
 28 73  2  0  0  0  0
 29 68  1  0  0  0  0
 29 74  2  0  0  0  0
 30 48  1  0  0  0  0
 30 69  1  0  0  0  0
 30 75  2  0  0  0  0
 31 60  1  0  0  0  0
 31 65  1  0  0  0  0
 31 76  2  0  0  0  0
 32 61  1  0  0  0  0
 32 70  1  0  0  0  0
 32 77  2  0  0  0  0
 33 66  1  0  0  0  0
 33 71  1  0  0  0  0
 33 78  2  0  0  0  0
 34 37  1  0  0  0  0
 35 48  1  0  0  0  0
 36 65  1  0  0  0  0
 37 39  1  0  0  0  0
 38 40  1  0  0  0  0
 38 43  1  0  0  0  0
 39 45  1  0  0  0  0
 40 50  1  0  0  0  0
 41 42  1  0  0  0  0
 41 51  1  0  0  0  0
 42 51  1  0  0  0  0
 43 66  1  0  0  0  0
 44 50  1  0  0  0  0
 44 66  1  0  0  0  0
 45 69  1  0  0  0  0
 46 49  1  0  0  0  0
 46 58  1  0  0  0  0
 47 51  1  0  0  0  0
 47 59  1  0  0  0  0
 48 65  1  0  0  0  0
 49 51  1  0  0  0  0
 49 52  1  0  0  0  0
 50 64  1  0  0  0  0
 53 61  1  0  0  0  0
 54 62  1  0  0  0  0
 55 62  1  0  0  0  0
 56 62  1  0  0  0  0
 57 72  1  0  0  0  0
 58 71  1  0  0  0  0
 59 80  1  0  0  0  0
 60 62  1  0  0  0  0
 60 70  1  0  0  0  0
 61 72  1  0  0  0  0
 63 64  1  0  0  0  0
M  CHG  1  72   1
M  ISO  4  33 100  59 101  71 100  80 101
M  END
> <Batch ID>
0167

> <Smiles>
CNC(C)C(=O)NC(C(=O)N1Cc2cc([101O:1][101CH2:1]C3C(=O)C(C[100NH:0][100C:0](=O)N4CCCC(n5nc(-c6ccc(Oc7ccc(F)cc7F)cc6)c(C(N)=O)c5N)C4)C(C)C34CC4)ccc2CC1C(=O)NC1CCCc2ccccc21)C(C)(C)C

> <Shape>
0.246

> <Color>
0.196

> <Negative vol penalty>
0.000

$$$$

  -OEChem-04052322273D

 90 99  0     1  0  0  0  0  0999 V2000
  -34.9522  -27.7734   14.0983 C   0  0  0  0  0  0  0  0  0  0  0  0
  -35.2220  -26.8246   15.0793 C   0  0  0  0  0  0  0  0  0  0  0  0
  -23.3693   -9.7278   19.9040 C   0  0  0  0  0  0  0  0  0  0  0  0
  -23.7704   -9.9024   22.2801 C   0  0  0  0  0  0  0  0  0  0  0  0
  -33.7843  -28.5319   14.1663 C   0  0  0  0  0  0  0  0  0  0  0  0
  -34.3245  -26.6345   16.1295 C   0  0  0  0  0  0  0  0  0  0  0  0
  -33.0175  -21.3553   18.9451 C   0  0  0  0  0  0  0  0  0  0  0  0
  -22.6915   -8.5257   20.1067 C   0  0  0  0  0  0  0  0  0  0  0  0
  -23.0925   -8.7003   22.4828 C   0  0  0  0  0  0  0  0  0  0  0  0
  -33.4665  -20.7929   20.1392 C   0  0  0  0  0  0  0  0  0  0  0  0
  -20.5429   -5.5943   20.0378 C   0  0  0  0  0  0  0  0  0  0  0  0
  -19.3343   -5.4101   19.3663 C   0  0  0  0  0  0  0  0  0  0  0  0
  -30.3874  -16.7439   23.2828 C   0  0  0  0  0  0  0  0  0  0  0  0
  -30.8935  -17.0996   20.9474 C   0  0  0  0  0  0  0  0  0  0  0  0
  -31.5262  -21.6685   21.2741 C   0  0  0  0  0  0  0  0  0  0  0  0
  -18.4213   -7.3517   20.4770 C   0  0  0  0  0  0  0  0  0  0  0  0
  -23.9089  -10.4161   20.9907 C   0  0  0  0  0  0  0  0  0  0  0  0
  -31.3057  -16.7485   22.2329 C   0  0  0  0  0  0  0  0  0  0  0  0
  -24.0605  -12.9539   20.7796 C   0  0  0  0  0  0  0  0  0  0  0  0
  -32.8674  -28.3443   15.2125 C   0  0  0  0  0  0  0  0  0  0  0  0
  -31.8230  -22.0890   18.9088 C   0  0  0  0  0  0  0  0  0  0  0  0
  -33.1440  -27.3921   16.2122 C   0  0  0  0  0  0  0  0  0  0  0  0
  -31.0629  -22.2370   20.0778 C   0  0  0  0  0  0  0  0  0  0  0  0
  -29.0568  -17.0901   23.0472 C   0  0  0  0  0  0  0  0  0  0  0  0
  -29.5630  -17.4459   20.7118 C   0  0  0  0  0  0  0  0  0  0  0  0
  -28.6447  -17.4412   21.7617 C   0  0  0  0  0  0  0  0  0  0  0  0
  -22.5531   -8.0120   21.3961 C   0  0  0  0  0  0  0  0  0  0  0  0
  -32.7223  -20.9519   21.3046 C   0  0  0  0  0  0  0  0  0  0  0  0
  -20.6907   -6.6571   20.9290 C   0  0  0  0  0  0  0  0  0  0  0  0
  -18.2735   -6.2888   19.5859 C   0  0  0  0  0  0  0  0  0  0  0  0
  -19.6299   -7.5358   21.1486 C   0  0  0  0  0  0  0  0  0  0  0  0
  -24.6097  -11.6577   20.7819 C   0  0  0  0  0  0  0  0  0  0  0  0
  -25.1311  -13.7800   20.5391 C   0  0  0  0  0  0  0  0  0  0  0  0
  -32.7093  -16.3797   22.4811 C   0  0  0  0  0  0  0  0  0  0  0  0
  -33.6762  -16.8881   23.2774 C   0  0  0  0  0  0  0  0  0  0  0  0
  -22.7039  -13.3737   20.9773 C   0  0  0  0  0  0  0  0  0  0  0  0
  -31.0577  -25.0961   18.2194 C   0  0  0  0  0  0  0  0  0  0  0  0
  -28.0263  -23.9901   18.5501 C   0  0  0  0  0  0  0  0  0  0  0  0
  -25.9214  -21.6641   19.8940 C   0  0  0  0  0  0  0  0  0  0  0  0
  -30.9063  -13.1392   21.5838 C   0  0  0  0  0  0  0  0  0  0  0  0
  -31.6415  -29.2210   15.2694 C   0  0  0  0  0  0  0  0  0  0  0  0
  -31.3388  -22.6667   17.6071 C   0  0  0  0  0  0  0  0  0  0  0  0
  -29.7634  -22.9983   20.0877 C   0  0  0  0  0  0  0  0  0  0  0  0
  -34.7105  -15.8695   22.8400 C   0  0  0  0  0  0  0  0  0  0  0  0
  -30.5605  -28.6962   16.2108 C   0  0  0  0  0  0  0  0  0  0  0  0
  -29.3975  -13.8456   18.3710 C   0  0  0  0  0  0  0  0  0  0  0  0
  -31.1715  -28.2762   17.5439 C   0  0  0  0  0  0  0  0  0  0  0  0
  -27.9352  -13.4826   18.6354 C   0  0  0  0  0  0  0  0  0  0  0  0
  -30.3434  -12.8891   19.0912 C   0  0  0  0  0  0  0  0  0  0  0  0
  -28.6564  -12.4264   20.8272 C   0  0  0  0  0  0  0  0  0  0  0  0
  -32.1829  -27.1394   17.3535 C   0  0  1  0  0  0  0  0  0  0  0  0
  -33.6210  -15.2960   21.9123 C   0  0  1  0  0  0  0  0  0  0  0  0
  -30.3697  -23.8301   17.7935 C   0  0  1  0  0  0  0  0  0  0  0  0
  -27.6497  -13.3703   20.1447 C   0  0  2  0  0  0  0  0  0  0  0  0
  -28.0922  -17.0743   24.1878 C   0  0  0  0  0  0  0  0  0  0  0  0
  -29.1474  -17.8201   19.3266 C   0  0  0  0  0  0  0  0  0  0  0  0
  -27.2178  -17.8124   21.5091 C   0  0  0  0  0  0  0  0  0  0  0  0
  -33.9807  -17.5695   25.7233 C   0  0  0  0  0  0  0  0  0  0  0  0
  -23.7744  -20.4368   20.3200 C   0  0  0  0  0  0  0  0  0  0  0  0
  -34.9019  -20.3624   24.8019 C   0  0  0  0  0  0  0  0  0  0  0  0
  -27.5526  -26.2501   20.5445 C   0  0  0  0  0  0  0  0  0  0  0  0
  -25.5037  -25.0401   21.3229 C   0  0  0  0  0  0  0  0  0  0  0  0
  -25.6580  -25.8387   18.9648 C   0  0  0  0  0  0  0  0  0  0  0  0
  -26.3683  -19.8493   17.5992 C   0  0  0  0  0  0  0  0  0  0  0  0
  -33.2021  -13.8599   22.1896 C   0  0  0  0  0  0  0  0  0  0  0  0
  -34.3873  -19.6800   22.4298 C   0  0  0  0  0  0  0  0  0  1  0  0
  -33.7279  -18.1192   24.3215 C   0  0  1  0  0  0  0  0  0  0  0  0
  -27.0540  -23.8625   19.6979 C   0  0  1  0  0  0  0  0  0  0  0  0
  -24.8058  -20.8396   19.2775 C   0  0  2  0  0  0  0  0  0  0  0  0
  -34.7456  -19.1783   23.8371 C   0  0  2  0  0  0  0  0  0  0  0  0
  -26.4675  -25.2351   20.1331 C   0  0  0  0  0  0  0  0  0  0  0  0
  -25.9268  -11.6553   20.5603 N   0  0  0  0  0  0  0  0  0  0  0  0
  -26.2142  -12.9602   20.4164 N   0  0  0  0  0  0  0  0  0  0  0  0
  -29.3354  -23.5497   18.7914 N   0  0  0  0  0  0  0  0  0  0  0  0
  -30.0304  -12.8423   20.5264 N   0  0  0  0  0  0  0  0  0  0  0  0
  -25.2422  -15.1203   20.4226 N   0  0  0  0  0  0  0  0  0  0  0  0
  -21.7291  -12.3946   21.2130 N   0  0  0  0  0  0  0  0  0  0  0  0
  -31.4971  -25.8785   17.1685 N   0  0  0  0  0  0  0  0  0  0  0  0
  -26.0509  -22.8904   19.2771 N   0  0  0  0  0  0  0  0  0  0  0  0
  -32.1910  -13.5182   21.2140 N   0  0  0  0  0  0  0  0  0  0  0  0
  -25.3579  -19.6009   18.6595 N   0  3  0  0  0  0  0  0  0  0  0  0
  -22.3634  -14.5800   20.9296 O   0  0  0  0  0  0  0  0  0  0  0  0
  -31.1795  -25.3455   19.4130 O   0  0  0  0  0  0  0  0  0  0  0  0
  -27.6367  -24.4564   17.4766 O   0  0  0  0  0  0  0  0  0  0  0  0
  -26.6067  -21.2621   20.8316 O   0  0  0  0  0  0  0  0  0  0  0  0
  -30.5670  -13.0764   22.7704 O   0  0  0  0  0  0  0  0  0  0  0  0
  -21.8915   -6.8391   21.5943 O   0  0  0  0  0  0  0  0  0  0  0  0
  -33.1586  -20.4045   22.4716 O   0  0  0  0  0  0  0  0  0  1  0  0
  -17.1134   -6.1127   18.9398 F   0  0  0  0  0  0  0  0  0  0  0  0
  -19.7663   -8.5594   22.0026 F   0  0  0  0  0  0  0  0  0  0  0  0
  1  2  1  0  0  0  0
  1  5  2  0  0  0  0
  2  6  2  0  0  0  0
  3  8  2  0  0  0  0
  3 17  1  0  0  0  0
  4  9  1  0  0  0  0
  4 17  2  0  0  0  0
  5 20  1  0  0  0  0
  6 22  1  0  0  0  0
  7 10  2  0  0  0  0
  7 21  1  0  0  0  0
  8 27  1  0  0  0  0
  9 27  2  0  0  0  0
 10 28  1  0  0  0  0
 11 12  2  0  0  0  0
 11 29  1  0  0  0  0
 12 30  1  0  0  0  0
 13 18  1  0  0  0  0
 13 24  2  0  0  0  0
 14 18  2  0  0  0  0
 14 25  1  0  0  0  0
 15 23  1  0  0  0  0
 15 28  2  0  0  0  0
 16 30  2  0  0  0  0
 16 31  1  0  0  0  0
 17 32  1  0  0  0  0
 18 34  1  0  0  0  0
 19 32  1  0  0  0  0
 19 33  2  0  0  0  0
 19 36  1  0  0  0  0
 20 22  2  0  0  0  0
 20 41  1  0  0  0  0
 21 23  2  0  0  0  0
 21 42  1  0  0  0  0
 22 51  1  0  0  0  0
 23 43  1  0  0  0  0
 24 26  1  0  0  0  0
 24 55  1  0  0  0  0
 25 26  2  0  0  0  0
 25 56  1  0  0  0  0
 26 57  1  0  0  0  0
 27 87  1  0  0  0  0
 28 88  1  0  0  0  0
 29 31  2  0  0  0  0
 29 87  1  0  0  0  0
 30 89  1  0  0  0  0
 31 90  1  0  0  0  0
 32 72  2  0  0  0  0
 33 73  1  0  0  0  0
 33 76  1  0  0  0  0
 34 35  2  0  0  0  0
 34 52  1  0  0  0  0
 35 44  1  0  0  0  0
 35 67  1  0  0  0  0
 36 77  1  0  0  0  0
 36 82  2  0  0  0  0
 37 53  1  0  0  0  0
 37 78  1  0  0  0  0
 37 83  2  0  0  0  0
 38 68  1  0  0  0  0
 38 74  1  0  0  0  0
 38 84  2  0  0  0  0
 39 69  1  0  0  0  0
 39 79  1  0  0  0  0
 39 85  2  0  0  0  0
 40 75  1  0  0  0  0
 40 80  1  0  0  0  0
 40 86  2  0  0  0  0
 41 45  1  0  0  0  0
 42 53  1  0  0  0  0
 43 74  1  0  0  0  0
 44 52  1  0  0  0  0
 45 47  1  0  0  0  0
 46 48  1  0  0  0  0
 46 49  1  0  0  0  0
 47 51  1  0  0  0  0
 48 54  1  0  0  0  0
 49 75  1  0  0  0  0
 50 54  1  0  0  0  0
 50 75  1  0  0  0  0
 51 78  1  0  0  0  0
 52 65  1  0  0  0  0
 53 74  1  0  0  0  0
 54 73  1  0  0  0  0
 58 67  1  0  0  0  0
 59 69  1  0  0  0  0
 60 70  1  0  0  0  0
 61 71  1  0  0  0  0
 62 71  1  0  0  0  0
 63 71  1  0  0  0  0
 64 81  1  0  0  0  0
 65 80  1  0  0  0  0
 66 70  1  0  0  0  0
 66 88  1  0  0  0  0
 67 70  1  0  0  0  0
 68 71  1  0  0  0  0
 68 79  1  0  0  0  0
 69 81  1  0  0  0  0
 72 73  1  0  0  0  0
M  CHG  1  81   1
M  ISO  4  40 100  66 101  80 100  88 101
M  END
> <Batch ID>
0167

> <Smiles>
CNC(C)C(=O)NC(C(=O)N1Cc2cc([101O:1][101CH2:1]C(C)C(C)C3=C(c4cc(C)c(C)c(C)c4)C(C[100NH:0][100C:0](=O)N4CCCC(n5nc(-c6ccc(Oc7ccc(F)cc7F)cc6)c(C(N)=O)c5N)C4)C3)ccc2CC1C(=O)NC1CCCc2ccccc21)C(C)(C)C

> <Shape>
0.221

> <Color>
0.185

> <Negative vol penalty>
0.000

$$$$

  -OEChem-04052322273D

 90100  0     1  0  0  0  0  0999 V2000
  -17.0469  -30.2342   23.6409 C   0  0  0  0  0  0  0  0  0  0  0  0
  -18.3629  -30.6675   23.5150 C   0  0  0  0  0  0  0  0  0  0  0  0
  -24.9839  -14.0413   21.2301 C   0  0  0  0  0  0  0  0  0  0  0  0
  -27.2040  -13.2193   20.7479 C   0  0  0  0  0  0  0  0  0  0  0  0
  -16.7440  -28.8801   23.5044 C   0  0  0  0  0  0  0  0  0  0  0  0
  -19.3770  -29.7467   23.2536 C   0  0  0  0  0  0  0  0  0  0  0  0
  -25.6371  -29.1609   19.8208 C   0  0  0  0  0  0  0  0  0  0  0  0
  -24.4372  -12.8634   20.7211 C   0  0  0  0  0  0  0  0  0  0  0  0
  -26.6572  -12.0413   20.2388 C   0  0  0  0  0  0  0  0  0  0  0  0
  -26.9546  -28.7630   20.0437 C   0  0  0  0  0  0  0  0  0  0  0  0
  -22.4730   -9.9223   19.8801 C   0  0  0  0  0  0  0  0  0  0  0  0
  -21.4541   -9.3114   20.6111 C   0  0  0  0  0  0  0  0  0  0  0  0
  -31.4971  -23.4951   20.8104 C   0  0  0  0  0  0  0  0  0  0  0  0
  -26.3024  -26.4593   19.7489 C   0  0  0  0  0  0  0  0  0  0  0  0
  -22.9496   -9.0689   22.4930 C   0  0  0  0  0  0  0  0  0  0  0  0
  -26.3674  -14.2193   21.2435 C   0  0  0  0  0  0  0  0  0  0  0  0
  -27.3161  -15.6903   23.0991 C   0  0  0  0  0  0  0  0  0  0  0  0
  -17.7535  -27.9436   23.2316 C   0  0  0  0  0  0  0  0  0  0  0  0
  -24.6386  -28.2086   19.5707 C   0  0  0  0  0  0  0  0  0  0  0  0
  -19.0874  -28.3787   23.1147 C   0  0  0  0  0  0  0  0  0  0  0  0
  -30.9714  -24.6017   21.4674 C   0  0  0  0  0  0  0  0  0  0  0  0
  -24.9735  -26.8479   19.5206 C   0  0  0  0  0  0  0  0  0  0  0  0
  -31.0101  -25.8705   20.8714 C   0  0  0  0  0  0  0  0  0  0  0  0
  -31.5746  -26.0441   19.6130 C   0  0  0  0  0  0  0  0  0  0  0  0
  -32.0575  -23.6660   19.5436 C   0  0  0  0  0  0  0  0  0  0  0  0
  -32.0959  -24.9330   18.9484 C   0  0  0  0  0  0  0  0  0  0  0  0
  -25.2738  -11.8634   20.2255 C   0  0  0  0  0  0  0  0  0  0  0  0
  -27.2869  -27.4119   20.0107 C   0  0  0  0  0  0  0  0  0  0  0  0
  -23.7303  -10.1064   20.4556 C   0  0  0  0  0  0  0  0  0  0  0  0
  -21.6924   -8.8848   21.9175 C   0  0  0  0  0  0  0  0  0  0  0  0
  -23.9686   -9.6797   21.7620 C   0  0  0  0  0  0  0  0  0  0  0  0
  -26.9327  -15.4361   21.7687 C   0  0  0  0  0  0  0  0  0  0  0  0
  -27.7901  -16.9793   23.0795 C   0  0  0  0  0  0  0  0  0  0  0  0
  -27.2499  -14.8376   24.2498 C   0  0  0  0  0  0  0  0  0  0  0  0
  -21.9569  -27.3325   21.0352 C   0  0  0  0  0  0  0  0  0  0  0  0
  -21.5825  -25.4801   18.3987 C   0  0  0  0  0  0  0  0  0  0  0  0
  -23.0304  -23.8558   15.7697 C   0  0  0  0  0  0  0  0  0  0  0  0
  -30.1675  -20.2308   18.7632 C   0  0  0  0  0  0  0  0  0  0  0  0
  -17.3841  -26.4842   23.1393 C   0  0  0  0  0  0  0  0  0  0  0  0
  -23.2272  -28.6559   19.3058 C   0  0  0  0  0  0  0  0  0  0  0  0
  -23.9425  -25.7874   19.2361 C   0  0  0  0  0  0  0  0  0  0  0  0
  -18.4644  -25.6223   22.4910 C   0  0  0  0  0  0  0  0  0  0  0  0
  -27.2728  -21.1243   20.7431 C   0  0  0  0  0  0  0  0  0  0  0  0
  -30.4031  -28.1961   18.7941 C   0  0  0  0  0  0  0  0  0  0  0  0
  -31.0649  -27.5825   17.6000 C   0  0  0  0  0  0  0  0  0  0  0  0
  -19.8336  -25.9523   23.0769 C   0  0  0  0  0  0  0  0  0  0  0  0
  -26.8972  -19.7752   21.3587 C   0  0  0  0  0  0  0  0  0  0  0  0
  -29.6908  -26.0562   22.8309 C   0  0  0  0  0  0  0  0  0  0  0  0
  -27.7665  -20.9592   19.3088 C   0  0  0  0  0  0  0  0  0  0  0  0
  -28.5331  -18.6627   19.7694 C   0  0  0  0  0  0  0  0  0  0  0  0
  -31.6612  -27.3881   18.9686 C   0  0  0  0  0  0  0  0  0  0  0  0
  -20.2117  -27.4136   22.8067 C   0  0  1  0  0  0  0  0  0  0  0  0
  -22.1948  -27.5641   19.5698 C   0  0  1  0  0  0  0  0  0  0  0  0
  -28.0475  -18.7595   21.2271 C   0  0  2  0  0  0  0  0  0  0  0  0
  -30.3435  -24.6451   22.8391 C   0  0  0  0  0  0  0  0  0  0  0  0
  -30.4131  -26.9290   21.7663 C   0  0  1  0  0  0  0  0  0  0  0  0
  -32.7094  -25.0900   17.5913 C   0  0  0  0  0  0  0  0  0  0  0  0
  -31.4061  -24.5059   23.9365 C   0  0  0  0  0  0  0  0  0  0  0  0
  -29.2709  -23.5632   23.0281 C   0  0  0  0  0  0  0  0  0  0  0  0
  -31.5012  -27.8054   22.4027 C   0  0  0  0  0  0  0  0  0  0  0  0
  -22.4714  -22.3950   13.8073 C   0  0  0  0  0  0  0  0  0  0  0  0
  -21.2278  -23.1000   20.2747 C   0  0  0  0  0  0  0  0  0  0  0  0
  -21.6259  -21.5883   18.3191 C   0  0  0  0  0  0  0  0  0  0  0  0
  -19.6657  -23.1310   18.3219 C   0  0  0  0  0  0  0  0  0  0  0  0
  -24.0760  -25.8446   13.8435 C   0  0  0  0  0  0  0  0  0  0  0  0
  -32.6174  -22.4720   18.8401 C   0  0  0  0  0  0  0  0  0  0  0  0
  -29.3701  -27.8269   21.0801 C   0  0  0  0  0  0  0  0  0  1  0  0
  -31.6907  -21.9111   17.7566 C   0  0  0  0  0  0  0  0  0  0  0  0
  -21.9886  -24.0791   18.0101 C   0  0  1  0  0  0  0  0  0  0  0  0
  -22.6828  -23.8207   14.2924 C   0  0  2  0  0  0  0  0  0  0  0  0
  -21.1463  -22.9942   18.7388 C   0  0  0  0  0  0  0  0  0  0  0  0
  -27.1446  -16.4798   20.9626 N   0  0  0  0  0  0  0  0  0  0  0  0
  -27.6663  -17.4024   21.7889 N   0  0  0  0  0  0  0  0  0  0  0  0
  -22.5752  -26.2745   18.9899 N   0  0  0  0  0  0  0  0  0  0  0  0
  -28.8734  -19.9937   19.2555 N   0  0  0  0  0  0  0  0  0  0  0  0
  -28.2964  -17.7808   24.0406 N   0  0  0  0  0  0  0  0  0  0  0  0
  -26.7358  -13.5431   24.0934 N   0  0  0  0  0  0  0  0  0  0  0  0
  -20.6582  -27.5757   21.4397 N   0  0  0  0  0  0  0  0  0  0  0  0
  -21.9086  -24.0199   16.5545 N   0  0  0  0  0  0  0  0  0  0  0  0
  -30.4059  -21.5148   18.2887 N   0  0  0  0  0  0  0  0  0  0  0  0
  -23.7775  -24.4334   13.4880 N   0  3  0  0  0  0  0  0  0  0  0  0
  -27.6199  -15.2180   25.3864 O   0  0  0  0  0  0  0  0  0  0  0  0
  -22.8828  -26.9592   21.7460 O   0  0  0  0  0  0  0  0  0  0  0  0
  -20.4290  -25.8583   18.1793 O   0  0  0  0  0  0  0  0  0  0  0  0
  -24.1814  -23.7448   16.1860 O   0  0  0  0  0  0  0  0  0  0  0  0
  -31.0477  -19.3635   18.7521 O   0  0  0  0  0  0  0  0  0  0  0  0
  -24.7406  -10.7137   19.7289 O   0  0  0  0  0  0  0  0  0  0  0  0
  -28.5852  -27.0167   20.2308 O   0  0  0  0  0  0  0  0  0  1  0  0
  -20.7134   -8.2996   22.6198 F   0  0  0  0  0  0  0  0  0  0  0  0
  -25.1740   -9.8549   22.3207 F   0  0  0  0  0  0  0  0  0  0  0  0
  1  2  1  0  0  0  0
  1  5  2  0  0  0  0
  2  6  2  0  0  0  0
  3  8  2  0  0  0  0
  3 16  1  0  0  0  0
  4  9  1  0  0  0  0
  4 16  2  0  0  0  0
  5 18  1  0  0  0  0
  6 20  1  0  0  0  0
  7 10  2  0  0  0  0
  7 19  1  0  0  0  0
  8 27  1  0  0  0  0
  9 27  2  0  0  0  0
 10 28  1  0  0  0  0
 11 12  2  0  0  0  0
 11 29  1  0  0  0  0
 12 30  1  0  0  0  0
 13 21  1  0  0  0  0
 13 25  2  0  0  0  0
 14 22  1  0  0  0  0
 14 28  2  0  0  0  0
 15 30  2  0  0  0  0
 15 31  1  0  0  0  0
 16 32  1  0  0  0  0
 17 32  1  0  0  0  0
 17 33  2  0  0  0  0
 17 34  1  0  0  0  0
 18 20  2  0  0  0  0
 18 39  1  0  0  0  0
 19 22  2  0  0  0  0
 19 40  1  0  0  0  0
 20 52  1  0  0  0  0
 21 23  2  0  0  0  0
 21 55  1  0  0  0  0
 22 41  1  0  0  0  0
 23 24  1  0  0  0  0
 23 56  1  0  0  0  0
 24 26  2  0  0  0  0
 24 51  1  0  0  0  0
 25 26  1  0  0  0  0
 25 66  1  0  0  0  0
 26 57  1  0  0  0  0
 27 87  1  0  0  0  0
 28 88  1  0  0  0  0
 29 31  2  0  0  0  0
 29 87  1  0  0  0  0
 30 89  1  0  0  0  0
 31 90  1  0  0  0  0
 32 72  2  0  0  0  0
 33 73  1  0  0  0  0
 33 76  1  0  0  0  0
 34 77  1  0  0  0  0
 34 82  2  0  0  0  0
 35 53  1  0  0  0  0
 35 78  1  0  0  0  0
 35 83  2  0  0  0  0
 36 69  1  0  0  0  0
 36 74  1  0  0  0  0
 36 84  2  0  0  0  0
 37 70  1  0  0  0  0
 37 79  1  0  0  0  0
 37 85  2  0  0  0  0
 38 75  1  0  0  0  0
 38 80  1  0  0  0  0
 38 86  2  0  0  0  0
 39 42  1  0  0  0  0
 40 53  1  0  0  0  0
 41 74  1  0  0  0  0
 42 46  1  0  0  0  0
 43 47  1  0  0  0  0
 43 49  1  0  0  0  0
 44 45  1  0  0  0  0
 44 51  1  0  0  0  0
 45 51  1  0  0  0  0
 46 52  1  0  0  0  0
 47 54  1  0  0  0  0
 48 55  1  0  0  0  0
 48 56  1  0  0  0  0
 49 75  1  0  0  0  0
 50 54  1  0  0  0  0
 50 75  1  0  0  0  0
 52 78  1  0  0  0  0
 53 74  1  0  0  0  0
 54 73  1  0  0  0  0
 55 58  1  0  0  0  0
 55 59  1  0  0  0  0
 56 60  1  0  0  0  0
 56 67  1  0  0  0  0
 61 70  1  0  0  0  0
 62 71  1  0  0  0  0
 63 71  1  0  0  0  0
 64 71  1  0  0  0  0
 65 81  1  0  0  0  0
 66 68  1  0  0  0  0
 67 88  1  0  0  0  0
 68 80  1  0  0  0  0
 69 71  1  0  0  0  0
 69 79  1  0  0  0  0
 70 81  1  0  0  0  0
 72 73  1  0  0  0  0
M  CHG  1  81   1
M  ISO  4  38 100  67 101  80 100  88 101
M  END
> <Batch ID>
0167

> <Smiles>
CNC(C)C(=O)NC(C(=O)N1Cc2cc([101O:1][101CH2:1]C3(C)CC(C)(C)c4cc(CC[100NH:0][100C:0](=O)N5CCCC(n6nc(-c7ccc(Oc8ccc(F)cc8F)cc7)c(C(N)=O)c6N)C5)c(C)c(C5CC5)c43)ccc2CC1C(=O)NC1CCCc2ccccc21)C(C)(C)C

> <Shape>
0.255

> <Color>
0.085

> <Negative vol penalty>
0.000

$$$$

  -OEChem-04052322273D

 85 95  0     1  0  0  0  0  0999 V2000
  -28.5061  -37.2345   20.9578 C   0  0  0  0  0  0  0  0  0  0  0  0
  -28.8764  -35.9285   20.6532 C   0  0  0  0  0  0  0  0  0  0  0  0
  -26.3835  -10.3910   23.1150 C   0  0  0  0  0  0  0  0  0  0  0  0
  -25.4567   -9.0654   21.3202 C   0  0  0  0  0  0  0  0  0  0  0  0
  -27.5502  -37.4748   21.9439 C   0  0  0  0  0  0  0  0  0  0  0  0
  -28.2919  -34.8621   21.3355 C   0  0  0  0  0  0  0  0  0  0  0  0
  -26.9567  -29.3310   19.0705 C   0  0  0  0  0  0  0  0  0  0  0  0
  -25.9363   -9.4492   24.0415 C   0  0  0  0  0  0  0  0  0  0  0  0
  -25.0095   -8.1236   22.2468 C   0  0  0  0  0  0  0  0  0  0  0  0
  -27.6216  -28.1071   19.1312 C   0  0  0  0  0  0  0  0  0  0  0  0
  -22.4410   -7.7917   24.4202 C   0  0  0  0  0  0  0  0  0  0  0  0
  -21.1413   -7.3067   24.2755 C   0  0  0  0  0  0  0  0  0  0  0  0
  -26.2561  -27.4654   21.0134 C   0  0  0  0  0  0  0  0  0  0  0  0
  -22.0058   -5.0647   24.0241 C   0  0  0  0  0  0  0  0  0  0  0  0
  -29.6423  -23.7800   21.4758 C   0  0  0  0  0  0  0  0  0  0  0  0
  -27.9199  -22.6792   20.5613 C   0  0  0  0  0  0  0  0  0  0  0  0
  -26.1437  -10.1992   21.7543 C   0  0  0  0  0  0  0  0  0  0  0  0
  -27.8490  -11.1932   20.1383 C   0  0  0  0  0  0  0  0  0  0  0  0
  -26.9466  -36.4104   22.6319 C   0  0  0  0  0  0  0  0  0  0  0  0
  -25.9422  -29.6362   19.9892 C   0  0  0  0  0  0  0  0  0  0  0  0
  -27.3281  -35.0885   22.3327 C   0  0  0  0  0  0  0  0  0  0  0  0
  -25.5781  -28.6929   20.9606 C   0  0  0  0  0  0  0  0  0  0  0  0
  -30.0693  -22.4983   21.2072 C   0  0  0  0  0  0  0  0  0  0  0  0
  -28.9797  -21.8018   20.6288 C   0  0  0  0  0  0  0  0  0  0  0  0
  -25.2493   -8.3154   23.6075 C   0  0  0  0  0  0  0  0  0  0  0  0
  -27.2733  -27.1752   20.1046 C   0  0  0  0  0  0  0  0  0  0  0  0
  -23.5232   -6.9132   24.3667 C   0  0  0  0  0  0  0  0  0  0  0  0
  -20.9236   -5.9432   24.0775 C   0  0  0  0  0  0  0  0  0  0  0  0
  -23.3056   -5.5497   24.1687 C   0  0  0  0  0  0  0  0  0  0  0  0
  -26.6049  -11.1720   20.7967 C   0  0  0  0  0  0  0  0  0  0  0  0
  -27.7961  -12.3096   19.3400 C   0  0  0  0  0  0  0  0  0  0  0  0
  -28.9538  -10.2849   20.2393 C   0  0  0  0  0  0  0  0  0  0  0  0
  -25.5338  -31.8603   22.2232 C   0  0  0  0  0  0  0  0  0  0  0  0
  -22.5762  -30.5454   22.4390 C   0  0  0  0  0  0  0  0  0  0  0  0
  -20.5727  -27.8252   21.9562 C   0  0  0  0  0  0  0  0  0  0  0  0
  -26.5424  -17.5602   18.4015 C   0  0  0  0  0  0  0  0  0  0  0  0
  -25.9528  -36.7216   23.7228 C   0  0  0  0  0  0  0  0  0  0  0  0
  -25.2164  -30.9502   19.8936 C   0  0  0  0  0  0  0  0  0  0  0  0
  -24.4820  -28.9638   21.9575 C   0  0  0  0  0  0  0  0  0  0  0  0
  -25.1077  -35.5200   24.1379 C   0  0  0  0  0  0  0  0  0  0  0  0
  -23.9260  -15.3185   18.1233 C   0  0  0  0  0  0  0  0  0  0  0  0
  -32.6683  -22.6579   20.9045 C   0  0  0  0  0  0  0  0  0  0  0  0
  -32.2541  -21.3325   20.3459 C   0  0  0  0  0  0  0  0  0  0  0  0
  -25.9888  -34.2909   24.3367 C   0  0  0  0  0  0  0  0  0  0  0  0
  -24.4816  -14.0336   18.7370 C   0  0  0  0  0  0  0  0  0  0  0  0
  -27.9605  -19.5049   20.9559 C   0  0  0  0  0  0  0  0  0  0  0  0
  -28.7127  -20.2380   18.6524 C   0  0  0  0  0  0  0  0  0  0  0  0
  -24.3508  -16.5380   18.9331 C   0  0  0  0  0  0  0  0  0  0  0  0
  -27.9323  -18.0558   20.4614 C   0  0  0  0  0  0  0  0  0  0  0  0
  -28.6922  -18.7744   18.2211 C   0  0  0  0  0  0  0  0  0  0  0  0
  -26.4009  -15.3916   19.7082 C   0  0  0  0  0  0  0  0  0  0  0  0
  -31.4594  -21.9457   21.4858 C   0  0  0  0  0  0  0  0  0  0  0  0
  -28.9696  -20.3572   20.1655 C   0  0  0  0  0  0  0  0  0  0  0  0
  -26.6985  -33.9041   23.0336 C   0  0  1  0  0  0  0  0  0  0  0  0
  -24.5500  -31.3613   21.2029 C   0  0  1  0  0  0  0  0  0  0  0  0
  -26.0066  -14.1240   18.9230 C   0  0  1  0  0  0  0  0  0  0  0  0
  -18.2089  -27.0404   22.2626 C   0  0  0  0  0  0  0  0  0  0  0  0
  -23.0719  -30.2296   25.4331 C   0  0  0  0  0  0  0  0  0  0  0  0
  -21.1508  -28.6260   25.5112 C   0  0  0  0  0  0  0  0  0  0  0  0
  -20.7683  -30.9956   24.8321 C   0  0  0  0  0  0  0  0  0  0  0  0
  -20.2264  -27.3648   19.0532 C   0  0  0  0  0  0  0  0  0  0  0  0
  -27.5172  -25.0653   21.1892 C   0  0  0  0  0  0  0  0  0  1  0  0
  -21.9591  -29.4283   23.2454 C   0  0  1  0  0  0  0  0  0  0  0  0
  -19.2061  -27.6826   21.3108 C   0  0  2  0  0  0  0  0  0  0  0  0
  -21.7595  -29.8152   24.7380 C   0  0  0  0  0  0  0  0  0  0  0  0
  -25.8190  -12.1939   20.4471 N   0  0  0  0  0  0  0  0  0  0  0  0
  -28.3343  -23.8787   21.0787 N   0  0  0  0  0  0  0  0  0  0  0  0
  -26.5712  -12.8677   19.5604 N   0  0  0  0  0  0  0  0  0  0  0  0
  -23.8063  -30.2653   21.8271 N   0  0  0  0  0  0  0  0  0  0  0  0
  -25.8043  -16.5861   19.0905 N   0  0  0  0  0  0  0  0  0  0  0  0
  -27.7263  -18.0074   19.0072 N   0  0  0  0  0  0  0  0  0  0  0  0
  -28.6782  -12.8585   18.4781 N   0  0  0  0  0  0  0  0  0  0  0  0
  -28.8414   -9.1900   21.1070 N   0  0  0  0  0  0  0  0  0  0  0  0
  -25.7855  -33.2167   22.1456 N   0  0  0  0  0  0  0  0  0  0  0  0
  -20.7288  -29.0576   22.5545 N   0  0  0  0  0  0  0  0  0  0  0  0
  -19.2972  -26.8386   20.0859 N   0  3  0  0  0  0  0  0  0  0  0  0
  -30.0157  -10.4487   19.5920 O   0  0  0  0  0  0  0  0  0  0  0  0
  -26.0267  -31.0731   23.0226 O   0  0  0  0  0  0  0  0  0  0  0  0
  -21.9851  -31.6244   22.3492 O   0  0  0  0  0  0  0  0  0  0  0  0
  -21.4159  -26.9313   21.9350 O   0  0  0  0  0  0  0  0  0  0  0  0
  -26.1670  -18.0041   17.3092 O   0  0  0  0  0  0  0  0  0  0  0  0
  -24.8130   -7.3961   24.5113 O   0  0  0  0  0  0  0  0  0  0  0  0
  -27.9254  -25.9724   20.1668 O   0  0  0  0  0  0  0  0  0  1  0  0
  -19.6753   -5.4775   23.9401 F   0  0  0  0  0  0  0  0  0  0  0  0
  -24.3412   -4.7007   24.1176 F   0  0  0  0  0  0  0  0  0  0  0  0
  1  2  1  0  0  0  0
  1  5  2  0  0  0  0
  2  6  2  0  0  0  0
  3  8  2  0  0  0  0
  3 17  1  0  0  0  0
  4  9  1  0  0  0  0
  4 17  2  0  0  0  0
  5 19  1  0  0  0  0
  6 21  1  0  0  0  0
  7 10  2  0  0  0  0
  7 20  1  0  0  0  0
  8 25  1  0  0  0  0
  9 25  2  0  0  0  0
 10 26  1  0  0  0  0
 11 12  2  0  0  0  0
 11 27  1  0  0  0  0
 12 28  1  0  0  0  0
 13 22  1  0  0  0  0
 13 26  2  0  0  0  0
 14 28  2  0  0  0  0
 14 29  1  0  0  0  0
 15 23  2  0  0  0  0
 15 67  1  0  0  0  0
 16 24  2  0  0  0  0
 16 67  1  0  0  0  0
 17 30  1  0  0  0  0
 18 30  1  0  0  0  0
 18 31  2  0  0  0  0
 18 32  1  0  0  0  0
 19 21  2  0  0  0  0
 19 37  1  0  0  0  0
 20 22  2  0  0  0  0
 20 38  1  0  0  0  0
 21 54  1  0  0  0  0
 22 39  1  0  0  0  0
 23 24  1  0  0  0  0
 23 52  1  0  0  0  0
 24 53  1  0  0  0  0
 25 82  1  0  0  0  0
 26 83  1  0  0  0  0
 27 29  2  0  0  0  0
 27 82  1  0  0  0  0
 28 84  1  0  0  0  0
 29 85  1  0  0  0  0
 30 66  2  0  0  0  0
 31 68  1  0  0  0  0
 31 72  1  0  0  0  0
 32 73  1  0  0  0  0
 32 77  2  0  0  0  0
 33 55  1  0  0  0  0
 33 74  1  0  0  0  0
 33 78  2  0  0  0  0
 34 63  1  0  0  0  0
 34 69  1  0  0  0  0
 34 79  2  0  0  0  0
 35 64  1  0  0  0  0
 35 75  1  0  0  0  0
 35 80  2  0  0  0  0
 36 70  1  0  0  0  0
 36 71  1  0  0  0  0
 36 81  2  0  0  0  0
 37 40  1  0  0  0  0
 38 55  1  0  0  0  0
 39 69  1  0  0  0  0
 40 44  1  0  0  0  0
 41 45  1  0  0  0  0
 41 48  1  0  0  0  0
 42 43  1  0  0  0  0
 42 52  1  0  0  0  0
 43 52  1  0  0  0  0
 44 54  1  0  0  0  0
 45 56  1  0  0  0  0
 46 49  1  0  0  0  0
 46 53  1  0  0  0  0
 47 50  1  0  0  0  0
 47 53  1  0  0  0  0
 48 70  1  0  0  0  0
 49 71  1  0  0  0  0
 50 71  1  0  0  0  0
 51 56  1  0  0  0  0
 51 70  1  0  0  0  0
 54 74  1  0  0  0  0
 55 69  1  0  0  0  0
 56 68  1  0  0  0  0
 57 64  1  0  0  0  0
 58 65  1  0  0  0  0
 59 65  1  0  0  0  0
 60 65  1  0  0  0  0
 61 76  1  0  0  0  0
 62 67  1  0  0  0  0
 62 83  1  0  0  0  0
 63 65  1  0  0  0  0
 63 75  1  0  0  0  0
 64 76  1  0  0  0  0
 66 68  1  0  0  0  0
M  CHG  1  76   1
M  ISO  4  36 100  62 101  71 100  83 101
M  END
> <Batch ID>
0167

> <Smiles>
CNC(C)C(=O)NC(C(=O)N1Cc2cc([101O:1][101CH2:1]n3cc(C4CC4)c(C4CC[100N:0]([100C:0](=O)N5CCCC(n6nc(-c7ccc(Oc8ccc(F)cc8F)cc7)c(C(N)=O)c6N)C5)CC4)c3)ccc2CC1C(=O)NC1CCCc2ccccc21)C(C)(C)C

> <Shape>
0.296

> <Color>
0.070

> <Negative vol penalty>
0.000

$$$$

  -OEChem-04052322273D

 85 94  0     1  0  0  0  0  0999 V2000
  -27.5410  -11.0184   16.6222 C   0  0  0  0  0  0  0  0  0  0  0  0
  -26.7443  -12.1588   16.6036 C   0  0  0  0  0  0  0  0  0  0  0  0
  -25.8001  -30.1025   20.3414 C   0  0  0  0  0  0  0  0  0  0  0  0
  -23.9138  -28.7945   21.0952 C   0  0  0  0  0  0  0  0  0  0  0  0
  -28.5534  -10.8923   17.5725 C   0  0  0  0  0  0  0  0  0  0  0  0
  -26.9588  -13.1731   17.5360 C   0  0  0  0  0  0  0  0  0  0  0  0
  -26.8846  -17.7837   15.4427 C   0  0  0  0  0  0  0  0  0  0  0  0
  -25.4877  -31.0909   21.2746 C   0  0  0  0  0  0  0  0  0  0  0  0
  -23.6014  -29.7830   22.0284 C   0  0  0  0  0  0  0  0  0  0  0  0
  -25.6359  -18.3290   15.1476 C   0  0  0  0  0  0  0  0  0  0  0  0
  -25.8877  -31.5991   24.5934 C   0  0  0  0  0  0  0  0  0  0  0  0
  -26.9334  -32.1346   25.3453 C   0  0  0  0  0  0  0  0  0  0  0  0
  -25.7433  -19.6504   17.1629 C   0  0  0  0  0  0  0  0  0  0  0  0
  -20.6906  -22.5670   13.0718 C   0  0  0  0  0  0  0  0  0  0  0  0
  -26.4470  -34.3289   24.4589 C   0  0  0  0  0  0  0  0  0  0  0  0
  -25.0132  -28.9542   20.2516 C   0  0  0  0  0  0  0  0  0  0  0  0
  -26.1799  -26.8227   19.4752 C   0  0  0  0  0  0  0  0  0  0  0  0
  -28.7867  -11.9099   18.5110 C   0  0  0  0  0  0  0  0  0  0  0  0
  -27.5684  -18.1602   16.6077 C   0  0  0  0  0  0  0  0  0  0  0  0
  -27.9744  -13.0598   18.5006 C   0  0  0  0  0  0  0  0  0  0  0  0
  -27.0017  -19.1103   17.4692 C   0  0  0  0  0  0  0  0  0  0  0  0
  -20.6037  -23.1214   14.3439 C   0  0  0  0  0  0  0  0  0  0  0  0
  -20.8802  -22.3372   15.4583 C   0  0  0  0  0  0  0  0  0  0  0  0
  -24.3883  -30.9312   22.1181 C   0  0  0  0  0  0  0  0  0  0  0  0
  -25.0637  -19.2603   16.0092 C   0  0  0  0  0  0  0  0  0  0  0  0
  -25.1216  -32.4285   23.7742 C   0  0  0  0  0  0  0  0  0  0  0  0
  -27.2130  -33.4995   25.2780 C   0  0  0  0  0  0  0  0  0  0  0  0
  -25.4012  -33.7934   23.7070 C   0  0  0  0  0  0  0  0  0  0  0  0
  -25.3351  -27.9331   19.2874 C   0  0  0  0  0  0  0  0  0  0  0  0
  -21.0552  -21.2343   12.9686 C   0  0  0  0  0  0  0  0  0  0  0  0
  -21.2361  -21.0146   15.2483 C   0  0  0  0  0  0  0  0  0  0  0  0
  -26.1540  -26.1640   18.2702 C   0  0  0  0  0  0  0  0  0  0  0  0
  -26.9215  -26.4224   20.6351 C   0  0  0  0  0  0  0  0  0  0  0  0
  -28.5770  -16.6360   19.2083 C   0  0  0  0  0  0  0  0  0  0  0  0
  -29.9437  -19.4996   19.8820 C   0  0  0  0  0  0  0  0  0  0  0  0
  -29.9507  -22.8831   19.4359 C   0  0  0  0  0  0  0  0  0  0  0  0
  -22.1511  -25.9559   13.8222 C   0  0  0  0  0  0  0  0  0  0  0  0
  -29.8620  -11.7075   19.5490 C   0  0  0  0  0  0  0  0  0  0  0  0
  -28.9266  -17.5827   16.8980 C   0  0  0  0  0  0  0  0  0  0  0  0
  -27.7040  -19.5631   18.7223 C   0  0  0  0  0  0  0  0  0  0  0  0
  -30.2678  -12.9935   20.2643 C   0  0  0  0  0  0  0  0  0  0  0  0
  -25.5630  -26.9461   13.5873 C   0  0  0  0  0  0  0  0  0  0  0  0
  -29.0323  -13.7781   20.6940 C   0  0  0  0  0  0  0  0  0  0  0  0
  -22.4435  -19.9540   11.2058 C   0  0  0  0  0  0  0  0  0  0  0  0
  -22.0486  -21.2565   10.5830 C   0  0  0  0  0  0  0  0  0  0  0  0
  -25.9677  -27.2111   15.0384 C   0  0  0  0  0  0  0  0  0  0  0  0
  -24.1211  -27.3702   13.3170 C   0  0  0  0  0  0  0  0  0  0  0  0
  -23.5279  -27.0591   15.6887 C   0  0  0  0  0  0  0  0  0  0  0  0
  -28.1923  -14.1928   19.4799 C   0  0  1  0  0  0  0  0  0  0  0  0
  -21.1549  -20.6182   11.6134 C   0  0  0  0  0  0  0  0  0  0  0  0
  -29.3028  -17.6538   18.3748 C   0  0  1  0  0  0  0  0  0  0  0  0
  -24.9560  -26.5960   16.0240 C   0  0  2  0  0  0  0  0  0  0  0  0
  -20.7951  -22.9050   16.8352 C   0  0  0  0  0  0  0  0  0  0  0  0
  -21.1380  -18.6620   16.1354 C   0  0  0  0  0  0  0  0  0  0  0  0
  -31.1648  -24.9612   20.1464 C   0  0  0  0  0  0  0  0  0  0  0  0
  -28.5384  -19.3925   22.5882 C   0  0  0  0  0  0  0  0  0  0  0  0
  -28.9945  -21.8409   22.8438 C   0  0  0  0  0  0  0  0  0  0  0  0
  -30.8928  -20.2321   22.6679 C   0  0  0  0  0  0  0  0  0  0  0  0
  -30.7532  -23.5043   16.6558 C   0  0  0  0  0  0  0  0  0  0  0  0
  -20.2132  -24.5554   14.4869 C   0  0  0  0  0  0  0  0  0  0  0  0
  -23.0294  -20.1791   16.8298 C   0  0  0  0  0  0  0  0  0  1  0  0
  -21.5500  -20.1075   16.4277 C   0  0  1  0  0  0  0  0  0  0  0  0
  -29.5090  -20.7456   20.6152 C   0  0  1  0  0  0  0  0  0  0  0  0
  -31.0711  -23.8536   19.1085 C   0  0  2  0  0  0  0  0  0  0  0  0
  -29.4693  -20.5430   22.1562 C   0  0  0  0  0  0  0  0  0  0  0  0
  -24.8110  -27.9805   18.0598 N   0  0  0  0  0  0  0  0  0  0  0  0
  -21.3312  -20.4410   14.0279 N   0  0  0  0  0  0  0  0  0  0  0  0
  -25.3278  -26.8917   17.4652 N   0  0  0  0  0  0  0  0  0  0  0  0
  -29.0270  -18.9649   18.9658 N   0  0  0  0  0  0  0  0  0  0  0  0
  -23.2124  -26.7512   14.2850 N   0  0  0  0  0  0  0  0  0  0  0  0
  -26.7577  -25.0391   17.8313 N   0  0  0  0  0  0  0  0  0  0  0  0
  -26.8353  -27.2131   21.7890 N   0  0  0  0  0  0  0  0  0  0  0  0
  -28.7926  -15.3292   18.8144 N   0  0  0  0  0  0  0  0  0  0  0  0
  -30.4035  -21.8110   20.1754 N   0  0  0  0  0  0  0  0  0  0  0  0
  -21.3413  -25.4017   14.8059 N   0  0  0  0  0  0  0  0  0  0  0  0
  -30.8426  -24.4776   17.7746 N   0  3  0  0  0  0  0  0  0  0  0  0
  -27.6524  -25.4029   20.6427 O   0  0  0  0  0  0  0  0  0  0  0  0
  -27.8745  -17.0086   20.1408 O   0  0  0  0  0  0  0  0  0  0  0  0
  -31.0585  -19.0226   20.1085 O   0  0  0  0  0  0  0  0  0  0  0  0
  -28.7892  -23.0603   19.0752 O   0  0  0  0  0  0  0  0  0  0  0  0
  -21.9441  -25.7503   12.6214 O   0  0  0  0  0  0  0  0  0  0  0  0
  -24.0832  -31.8954   23.0290 O   0  0  0  0  0  0  0  0  0  0  0  0
  -23.8447  -19.7936   15.7238 O   0  0  0  0  0  0  0  0  0  1  0  0
  -28.2163  -34.0139   26.0013 F   0  0  0  0  0  0  0  0  0  0  0  0
  -24.6680  -34.5953   22.9227 F   0  0  0  0  0  0  0  0  0  0  0  0
  1  2  1  0  0  0  0
  1  5  2  0  0  0  0
  2  6  2  0  0  0  0
  3  8  2  0  0  0  0
  3 16  1  0  0  0  0
  4  9  1  0  0  0  0
  4 16  2  0  0  0  0
  5 18  1  0  0  0  0
  6 20  1  0  0  0  0
  7 10  2  0  0  0  0
  7 19  1  0  0  0  0
  8 24  1  0  0  0  0
  9 24  2  0  0  0  0
 10 25  1  0  0  0  0
 11 12  2  0  0  0  0
 11 26  1  0  0  0  0
 12 27  1  0  0  0  0
 13 21  1  0  0  0  0
 13 25  2  0  0  0  0
 14 22  2  0  0  0  0
 14 30  1  0  0  0  0
 15 27  2  0  0  0  0
 15 28  1  0  0  0  0
 16 29  1  0  0  0  0
 17 29  1  0  0  0  0
 17 32  2  0  0  0  0
 17 33  1  0  0  0  0
 18 20  2  0  0  0  0
 18 38  1  0  0  0  0
 19 21  2  0  0  0  0
 19 39  1  0  0  0  0
 20 49  1  0  0  0  0
 21 40  1  0  0  0  0
 22 23  1  0  0  0  0
 22 60  1  0  0  0  0
 23 31  2  0  0  0  0
 23 53  1  0  0  0  0
 24 82  1  0  0  0  0
 25 83  1  0  0  0  0
 26 28  2  0  0  0  0
 26 82  1  0  0  0  0
 27 84  1  0  0  0  0
 28 85  1  0  0  0  0
 29 66  2  0  0  0  0
 30 50  1  0  0  0  0
 30 67  2  0  0  0  0
 31 62  1  0  0  0  0
 31 67  1  0  0  0  0
 32 68  1  0  0  0  0
 32 71  1  0  0  0  0
 33 72  1  0  0  0  0
 33 77  2  0  0  0  0
 34 51  1  0  0  0  0
 34 73  1  0  0  0  0
 34 78  2  0  0  0  0
 35 63  1  0  0  0  0
 35 69  1  0  0  0  0
 35 79  2  0  0  0  0
 36 64  1  0  0  0  0
 36 74  1  0  0  0  0
 36 80  2  0  0  0  0
 37 70  1  0  0  0  0
 37 75  1  0  0  0  0
 37 81  2  0  0  0  0
 38 41  1  0  0  0  0
 39 51  1  0  0  0  0
 40 69  1  0  0  0  0
 41 43  1  0  0  0  0
 42 46  1  0  0  0  0
 42 47  1  0  0  0  0
 43 49  1  0  0  0  0
 44 45  1  0  0  0  0
 44 50  1  0  0  0  0
 45 50  1  0  0  0  0
 46 52  1  0  0  0  0
 47 70  1  0  0  0  0
 48 52  1  0  0  0  0
 48 70  1  0  0  0  0
 49 73  1  0  0  0  0
 51 69  1  0  0  0  0
 52 68  1  0  0  0  0
 54 62  1  0  0  0  0
 55 64  1  0  0  0  0
 56 65  1  0  0  0  0
 57 65  1  0  0  0  0
 58 65  1  0  0  0  0
 59 76  1  0  0  0  0
 60 75  1  0  0  0  0
 61 62  1  0  0  0  0
 61 83  1  0  0  0  0
 63 65  1  0  0  0  0
 63 74  1  0  0  0  0
 64 76  1  0  0  0  0
 66 68  1  0  0  0  0
M  CHG  1  76   1
M  ISO  4  37 100  61 101  75 100  83 101
M  END
> <Batch ID>
0167

> <Smiles>
CNC(C)C(=O)NC(C(=O)N1Cc2cc([101O:1][101CH2:1]C(C)c3nc(C4CC4)cc(C[100NH:0][100C:0](=O)N4CCCC(n5nc(-c6ccc(Oc7ccc(F)cc7F)cc6)c(C(N)=O)c5N)C4)c3C)ccc2CC1C(=O)NC1CCCc2ccccc21)C(C)(C)C

> <Shape>
0.230

> <Color>
0.065

> <Negative vol penalty>
0.000

$$$$

  -OEChem-04052322273D

 87 96  0     1  0  0  0  0  0999 V2000
  -28.7008  -23.1696   17.8919 C   0  0  0  0  0  0  0  0  0  0  0  0
  -27.6064  -23.3095   18.7392 C   0  0  0  0  0  0  0  0  0  0  0  0
  -28.2952  -14.6029   20.9239 C   0  0  0  0  0  0  0  0  0  0  0  0
  -26.1389  -15.6307   20.5618 C   0  0  0  0  0  0  0  0  0  0  0  0
  -29.8146  -23.9929   18.0519 C   0  0  0  0  0  0  0  0  0  0  0  0
  -27.6256  -24.2721   19.7479 C   0  0  0  0  0  0  0  0  0  0  0  0
  -23.2880  -26.8696   20.0372 C   0  0  0  0  0  0  0  0  0  0  0  0
  -27.7150  -13.3408   20.7966 C   0  0  0  0  0  0  0  0  0  0  0  0
  -25.5587  -14.3686   20.4345 C   0  0  0  0  0  0  0  0  0  0  0  0
  -22.2118  -26.2438   20.6647 C   0  0  0  0  0  0  0  0  0  0  0  0
  -24.5305  -11.8814   22.4808 C   0  0  0  0  0  0  0  0  0  0  0  0
  -23.3300  -11.6493   23.1519 C   0  0  0  0  0  0  0  0  0  0  0  0
  -22.6651  -27.4951   22.6767 C   0  0  0  0  0  0  0  0  0  0  0  0
  -20.9611  -21.0971   23.0611 C   0  0  0  0  0  0  0  0  0  0  0  0
  -22.2435  -11.1791   21.0458 C   0  0  0  0  0  0  0  0  0  0  0  0
  -27.5071  -15.7479   20.8066 C   0  0  0  0  0  0  0  0  0  0  0  0
  -28.6550  -17.8429   19.9118 C   0  0  0  0  0  0  0  0  0  0  0  0
  -29.8435  -24.9725   19.0570 C   0  0  0  0  0  0  0  0  0  0  0  0
  -24.0689  -27.8064   20.7293 C   0  0  0  0  0  0  0  0  0  0  0  0
  -28.7413  -25.1083   19.9225 C   0  0  0  0  0  0  0  0  0  0  0  0
  -23.7492  -28.1333   22.0548 C   0  0  0  0  0  0  0  0  0  0  0  0
  -22.6971  -21.7598   24.6051 C   0  0  0  0  0  0  0  0  0  0  0  0
  -22.1617  -20.8265   23.7175 C   0  0  0  0  0  0  0  0  0  0  0  0
  -20.2959  -22.3012   23.2923 C   0  0  0  0  0  0  0  0  0  0  0  0
  -22.0318  -22.9639   24.8364 C   0  0  0  0  0  0  0  0  0  0  0  0
  -20.8312  -23.2345   24.1799 C   0  0  0  0  0  0  0  0  0  0  0  0
  -26.3468  -13.2237   20.5518 C   0  0  0  0  0  0  0  0  0  0  0  0
  -21.9019  -26.5544   21.9856 C   0  0  0  0  0  0  0  0  0  0  0  0
  -24.5875  -11.7624   21.0921 C   0  0  0  0  0  0  0  0  0  0  0  0
  -22.1865  -11.2981   22.4345 C   0  0  0  0  0  0  0  0  0  0  0  0
  -23.4440  -11.4112   20.3747 C   0  0  0  0  0  0  0  0  0  0  0  0
  -28.1057  -17.0518   20.9386 C   0  0  0  0  0  0  0  0  0  0  0  0
  -29.0889  -18.9797   20.5490 C   0  0  0  0  0  0  0  0  0  0  0  0
  -28.7633  -17.5743   18.5076 C   0  0  0  0  0  0  0  0  0  0  0  0
  -27.1239  -27.9820   21.5895 C   0  0  0  0  0  0  0  0  0  0  0  0
  -26.2764  -30.9599   22.5571 C   0  0  0  0  0  0  0  0  0  0  0  0
  -23.8038  -33.0831   23.5695 C   0  0  0  0  0  0  0  0  0  0  0  0
  -27.3781  -21.5155   25.7839 C   0  0  0  0  0  0  0  0  0  0  0  0
  -31.0888  -25.8073   19.2214 C   0  0  0  0  0  0  0  0  0  0  0  0
  -25.2102  -28.4923   20.0297 C   0  0  0  0  0  0  0  0  0  0  0  0
  -24.5439  -29.1470   22.8354 C   0  0  0  0  0  0  0  0  0  0  0  0
  -30.8778  -27.0543   20.0763 C   0  0  0  0  0  0  0  0  0  0  0  0
  -30.6864  -20.5549   24.7519 C   0  0  0  0  0  0  0  0  0  0  0  0
  -30.1067  -26.7069   21.3458 C   0  0  0  0  0  0  0  0  0  0  0  0
  -30.4548  -19.5777   23.6042 C   0  0  0  0  0  0  0  0  0  0  0  0
  -29.5927  -20.4277   25.8039 C   0  0  0  0  0  0  0  0  0  0  0  0
  -25.1909  -20.7222   24.5812 C   0  0  0  0  0  0  0  0  0  0  0  0
  -25.0759  -22.5966   25.5644 C   0  0  0  0  0  0  0  0  0  0  0  0
  -27.9580  -19.6967   24.0872 C   0  0  0  0  0  0  0  0  0  0  0  0
  -24.0615  -21.4496   25.3502 C   0  0  0  0  0  0  0  0  0  0  0  0
  -28.7143  -26.1575   21.0127 C   0  0  1  0  0  0  0  0  0  0  0  0
  -26.2526  -29.0511   20.9933 C   0  0  1  0  0  0  0  0  0  0  0  0
  -29.0543  -19.7741   23.0062 C   0  0  2  0  0  0  0  0  0  0  0  0
  -22.8564  -19.5312   23.4550 C   0  0  0  0  0  0  0  0  0  0  0  0
  -19.0116  -22.5665   22.5765 C   0  0  0  0  0  0  0  0  0  0  0  0
  -22.3782  -23.5688   27.2448 C   0  0  0  0  0  0  0  0  0  0  0  0
  -19.6731  -24.6653   25.8955 C   0  0  0  0  0  0  0  0  0  0  0  0
  -23.4234  -35.4448   24.3277 C   0  0  0  0  0  0  0  0  0  0  0  0
  -27.4395  -30.2667   25.2914 C   0  0  0  0  0  0  0  0  0  0  0  0
  -26.2072  -32.2307   26.2360 C   0  0  0  0  0  0  0  0  0  0  0  0
  -27.9575  -32.5795   24.4932 C   0  0  0  0  0  0  0  0  0  0  0  0
  -22.0013  -33.6472   21.2909 C   0  0  0  0  0  0  0  0  0  0  0  0
  -22.6080  -23.9621   25.7896 C   0  0  0  0  0  0  0  0  0  0  0  0
  -20.9459  -25.7592   24.0128 C   0  0  0  0  0  0  0  0  0  1  0  0
  -20.1156  -24.5248   24.4269 C   0  0  1  0  0  0  0  0  0  0  0  0
  -25.7409  -31.5564   23.8363 C   0  0  1  0  0  0  0  0  0  0  0  0
  -23.4505  -34.4956   23.1399 C   0  0  2  0  0  0  0  0  0  0  0  0
  -26.8223  -31.6378   24.9504 C   0  0  0  0  0  0  0  0  0  0  0  0
  -28.1826  -17.6364   22.1371 N   0  0  0  0  0  0  0  0  0  0  0  0
  -28.7853  -18.8069   21.8674 N   0  0  0  0  0  0  0  0  0  0  0  0
  -25.6540  -29.7859   22.1095 N   0  0  0  0  0  0  0  0  0  0  0  0
  -28.2527  -20.5754   25.2275 N   0  0  0  0  0  0  0  0  0  0  0  0
  -26.1132  -21.6201   25.2553 N   0  0  0  0  0  0  0  0  0  0  0  0
  -29.6968  -20.1001   20.1046 N   0  0  0  0  0  0  0  0  0  0  0  0
  -28.2663  -16.3580   18.0198 N   0  0  0  0  0  0  0  0  0  0  0  0
  -27.8176  -27.2359   20.6559 N   0  0  0  0  0  0  0  0  0  0  0  0
  -25.1583  -32.8439   23.4738 N   0  0  0  0  0  0  0  0  0  0  0  0
  -22.1102  -34.5191   22.4888 N   0  3  0  0  0  0  0  0  0  0  0  0
  -29.3001  -18.3817   17.7116 O   0  0  0  0  0  0  0  0  0  0  0  0
  -27.1651  -27.8451   22.8066 O   0  0  0  0  0  0  0  0  0  0  0  0
  -27.2077  -31.5190   21.9725 O   0  0  0  0  0  0  0  0  0  0  0  0
  -22.9627  -32.2742   23.9551 O   0  0  0  0  0  0  0  0  0  0  0  0
  -27.7053  -22.2226   26.7462 O   0  0  0  0  0  0  0  0  0  0  0  0
  -25.7803  -11.9924   20.4273 O   0  0  0  0  0  0  0  0  0  0  0  0
  -20.8454  -25.9406   22.6048 O   0  0  0  0  0  0  0  0  0  1  0  0
  -21.0341  -11.0738   23.0793 F   0  0  0  0  0  0  0  0  0  0  0  0
  -23.4929  -11.2942   19.0406 F   0  0  0  0  0  0  0  0  0  0  0  0
  1  2  1  0  0  0  0
  1  5  2  0  0  0  0
  2  6  2  0  0  0  0
  3  8  2  0  0  0  0
  3 16  1  0  0  0  0
  4  9  1  0  0  0  0
  4 16  2  0  0  0  0
  5 18  1  0  0  0  0
  6 20  1  0  0  0  0
  7 10  2  0  0  0  0
  7 19  1  0  0  0  0
  8 27  1  0  0  0  0
  9 27  2  0  0  0  0
 10 28  1  0  0  0  0
 11 12  2  0  0  0  0
 11 29  1  0  0  0  0
 12 30  1  0  0  0  0
 13 21  1  0  0  0  0
 13 28  2  0  0  0  0
 14 23  1  0  0  0  0
 14 24  2  0  0  0  0
 15 30  2  0  0  0  0
 15 31  1  0  0  0  0
 16 32  1  0  0  0  0
 17 32  1  0  0  0  0
 17 33  2  0  0  0  0
 17 34  1  0  0  0  0
 18 20  2  0  0  0  0
 18 39  1  0  0  0  0
 19 21  2  0  0  0  0
 19 40  1  0  0  0  0
 20 51  1  0  0  0  0
 21 41  1  0  0  0  0
 22 23  2  0  0  0  0
 22 25  1  0  0  0  0
 22 50  1  0  0  0  0
 23 54  1  0  0  0  0
 24 26  1  0  0  0  0
 24 55  1  0  0  0  0
 25 26  2  0  0  0  0
 25 63  1  0  0  0  0
 26 65  1  0  0  0  0
 27 84  1  0  0  0  0
 28 85  1  0  0  0  0
 29 31  2  0  0  0  0
 29 84  1  0  0  0  0
 30 86  1  0  0  0  0
 31 87  1  0  0  0  0
 32 69  2  0  0  0  0
 33 70  1  0  0  0  0
 33 74  1  0  0  0  0
 34 75  1  0  0  0  0
 34 79  2  0  0  0  0
 35 52  1  0  0  0  0
 35 76  1  0  0  0  0
 35 80  2  0  0  0  0
 36 66  1  0  0  0  0
 36 71  1  0  0  0  0
 36 81  2  0  0  0  0
 37 67  1  0  0  0  0
 37 77  1  0  0  0  0
 37 82  2  0  0  0  0
 38 72  1  0  0  0  0
 38 73  1  0  0  0  0
 38 83  2  0  0  0  0
 39 42  1  0  0  0  0
 40 52  1  0  0  0  0
 41 71  1  0  0  0  0
 42 44  1  0  0  0  0
 43 45  1  0  0  0  0
 43 46  1  0  0  0  0
 44 51  1  0  0  0  0
 45 53  1  0  0  0  0
 46 72  1  0  0  0  0
 47 50  1  0  0  0  0
 47 73  1  0  0  0  0
 48 50  1  0  0  0  0
 48 73  1  0  0  0  0
 49 53  1  0  0  0  0
 49 72  1  0  0  0  0
 51 76  1  0  0  0  0
 52 71  1  0  0  0  0
 53 70  1  0  0  0  0
 56 63  1  0  0  0  0
 57 65  1  0  0  0  0
 58 67  1  0  0  0  0
 59 68  1  0  0  0  0
 60 68  1  0  0  0  0
 61 68  1  0  0  0  0
 62 78  1  0  0  0  0
 64 65  1  0  0  0  0
 64 85  1  0  0  0  0
 66 68  1  0  0  0  0
 66 77  1  0  0  0  0
 67 78  1  0  0  0  0
 69 70  1  0  0  0  0
M  CHG  1  78   1
M  ISO  4  38 100  64 101  73 100  85 101
M  END
> <Batch ID>
0167

> <Smiles>
CCc1c(C2C[100N:0]([100C:0](=O)N3CCCC(n4nc(-c5ccc(Oc6ccc(F)cc6F)cc5)c(C(N)=O)c4N)C3)C2)c(C)cc(C)c1C(C)[101CH2:1][101O:1]c1ccc2c(c1)CN(C(=O)C(NC(=O)C(C)NC)C(C)(C)C)C(C(=O)NC1CCCc3ccccc31)C2

> <Shape>
0.257

> <Color>
0.064

> <Negative vol penalty>
0.000

$$$$

  -OEChem-04052322273D

 91101  0     1  0  0  0  0  0999 V2000
  -14.9046  -29.2119   14.9539 C   0  0  0  0  0  0  0  0  0  0  0  0
  -15.7798  -28.1356   14.8484 C   0  0  0  0  0  0  0  0  0  0  0  0
  -23.1954   -9.8151   19.9283 C   0  0  0  0  0  0  0  0  0  0  0  0
  -23.5398  -10.0052   22.3121 C   0  0  0  0  0  0  0  0  0  0  0  0
  -14.9529  -30.0410   16.0738 C   0  0  0  0  0  0  0  0  0  0  0  0
  -16.7046  -27.8885   15.8623 C   0  0  0  0  0  0  0  0  0  0  0  0
  -18.6908  -22.4225   17.7816 C   0  0  0  0  0  0  0  0  0  0  0  0
  -22.4231   -8.6714   20.1311 C   0  0  0  0  0  0  0  0  0  0  0  0
  -22.7675   -8.8615   22.5148 C   0  0  0  0  0  0  0  0  0  0  0  0
  -19.8426  -21.6903   17.4973 C   0  0  0  0  0  0  0  0  0  0  0  0
  -23.1634   -5.5126   22.2715 C   0  0  0  0  0  0  0  0  0  0  0  0
  -23.6465   -4.5539   23.1621 C   0  0  0  0  0  0  0  0  0  0  0  0
  -24.9631  -17.9527   17.6788 C   0  0  0  0  0  0  0  0  0  0  0  0
  -20.8833  -22.5652   19.4899 C   0  0  0  0  0  0  0  0  0  0  0  0
  -21.6707   -4.8253   24.5258 C   0  0  0  0  0  0  0  0  0  0  0  0
  -23.7538  -10.4820   21.0188 C   0  0  0  0  0  0  0  0  0  0  0  0
  -24.1026  -12.9966   20.7688 C   0  0  0  0  0  0  0  0  0  0  0  0
  -15.8723  -29.7982   17.1065 C   0  0  0  0  0  0  0  0  0  0  0  0
  -18.6304  -23.2414   18.9183 C   0  0  0  0  0  0  0  0  0  0  0  0
  -16.7662  -28.7160   16.9965 C   0  0  0  0  0  0  0  0  0  0  0  0
  -25.7784  -18.1492   16.5642 C   0  0  0  0  0  0  0  0  0  0  0  0
  -19.7286  -23.3048   19.7878 C   0  0  0  0  0  0  0  0  0  0  0  0
  -23.7517  -18.6359   17.7860 C   0  0  0  0  0  0  0  0  0  0  0  0
  -25.3823  -19.0291   15.5569 C   0  0  0  0  0  0  0  0  0  0  0  0
  -23.3557  -19.5157   16.7787 C   0  0  0  0  0  0  0  0  0  0  0  0
  -24.1710  -19.7123   15.6642 C   0  0  0  0  0  0  0  0  0  0  0  0
  -22.2091   -8.1946   21.4243 C   0  0  0  0  0  0  0  0  0  0  0  0
  -20.9402  -21.7638   18.3499 C   0  0  0  0  0  0  0  0  0  0  0  0
  -21.9340   -6.1277   22.5081 C   0  0  0  0  0  0  0  0  0  0  0  0
  -22.9002   -4.2102   24.2892 C   0  0  0  0  0  0  0  0  0  0  0  0
  -21.1877   -5.7840   23.6352 C   0  0  0  0  0  0  0  0  0  0  0  0
  -24.5521  -11.6632   20.8100 C   0  0  0  0  0  0  0  0  0  0  0  0
  -25.2391  -13.7353   20.5466 C   0  0  0  0  0  0  0  0  0  0  0  0
  -22.7765  -13.5207   20.9181 C   0  0  0  0  0  0  0  0  0  0  0  0
  -18.2539  -26.3574   19.4207 C   0  0  0  0  0  0  0  0  0  0  0  0
  -18.1441  -25.4465   22.5320 C   0  0  0  0  0  0  0  0  0  0  0  0
  -18.9715  -23.1387   24.9061 C   0  0  0  0  0  0  0  0  0  0  0  0
  -30.0188  -14.6636   18.0552 C   0  0  0  0  0  0  0  0  0  0  0  0
  -15.9189  -30.7499   18.2756 C   0  0  0  0  0  0  0  0  0  0  0  0
  -17.3708  -24.0041   19.2252 C   0  0  0  0  0  0  0  0  0  0  0  0
  -19.7071  -24.1533   21.0320 C   0  0  0  0  0  0  0  0  0  0  0  0
  -16.6762  -30.1979   19.4806 C   0  0  0  0  0  0  0  0  0  0  0  0
  -30.1156  -12.4254   20.6883 C   0  0  0  0  0  0  0  0  0  0  0  0
  -17.9991  -29.5782   19.0415 C   0  0  0  0  0  0  0  0  0  0  0  0
  -22.5394  -19.2383   21.4553 C   0  0  0  0  0  0  0  0  0  0  0  0
  -23.9996  -18.9075   21.3196 C   0  0  0  0  0  0  0  0  0  0  0  0
  -28.6418  -12.1269   20.9635 C   0  0  0  0  0  0  0  0  0  0  0  0
  -28.0520  -17.7673   17.6147 C   0  0  0  0  0  0  0  0  0  0  0  0
  -26.8768  -15.8710   16.4216 C   0  0  0  0  0  0  0  0  0  0  0  0
  -30.3890  -12.4931   19.1899 C   0  0  0  0  0  0  0  0  0  0  0  0
  -29.3587  -16.9824   17.5265 C   0  0  0  0  0  0  0  0  0  0  0  0
  -28.2093  -15.1301   16.3587 C   0  0  0  0  0  0  0  0  0  0  0  0
  -28.0640  -13.1996   18.7320 C   0  0  0  0  0  0  0  0  0  0  0  0
  -27.0911  -17.3940   16.4727 C   0  0  0  0  0  0  0  0  0  0  0  0
  -17.7669  -28.4007   18.0870 C   0  0  1  0  0  0  0  0  0  0  0  0
  -17.6066  -25.2053   20.1357 C   0  0  1  0  0  0  0  0  0  0  0  0
  -23.2206  -19.3762   20.1220 C   0  0  0  0  0  0  0  0  0  0  0  0
  -27.7300  -13.1304   20.2356 C   0  0  1  0  0  0  0  0  0  0  0  0
  -26.2586  -19.2379   14.3625 C   0  0  0  0  0  0  0  0  0  0  0  0
  -23.6107  -22.1020   15.0905 C   0  0  0  0  0  0  0  0  0  0  0  0
  -22.4398  -20.2125   13.9015 C   0  0  0  0  0  0  0  0  0  0  0  0
  -18.7779  -22.6880   27.3672 C   0  0  0  0  0  0  0  0  0  0  0  0
  -20.3515  -27.4816   23.0758 C   0  0  0  0  0  0  0  0  0  0  0  0
  -20.7667  -26.3420   25.2660 C   0  0  0  0  0  0  0  0  0  0  0  0
  -18.5545  -27.4023   24.8134 C   0  0  0  0  0  0  0  0  0  0  0  0
  -17.4195  -20.6606   24.4481 C   0  0  0  0  0  0  0  0  0  0  0  0
  -22.8967  -18.4068   18.9893 C   0  0  0  0  0  0  0  0  0  0  0  0
  -22.0563  -20.2477   16.8968 C   0  0  0  0  0  0  0  0  0  1  0  0
  -23.7459  -20.6557   14.5833 C   0  0  0  0  0  0  0  0  0  0  0  0
  -19.1659  -25.2552   23.6267 C   0  0  1  0  0  0  0  0  0  0  0  0
  -18.1497  -22.4780   25.9982 C   0  0  2  0  0  0  0  0  0  0  0  0
  -19.7111  -26.6057   24.1711 C   0  0  0  0  0  0  0  0  0  0  0  0
  -25.8711  -11.5578   20.6283 N   0  0  0  0  0  0  0  0  0  0  0  0
  -26.2603  -12.8344   20.4708 N   0  0  0  0  0  0  0  0  0  0  0  0
  -18.4551  -24.8852   21.2854 N   0  0  0  0  0  0  0  0  0  0  0  0
  -29.4992  -13.4516   18.5347 N   0  0  0  0  0  0  0  0  0  0  0  0
  -29.1119  -15.5435   17.4418 N   0  0  0  0  0  0  0  0  0  0  0  0
  -25.4544  -15.0610   20.4105 N   0  0  0  0  0  0  0  0  0  0  0  0
  -21.7241  -12.6223   21.1411 N   0  0  0  0  0  0  0  0  0  0  0  0
  -17.3582  -27.2248   18.8251 N   0  0  0  0  0  0  0  0  0  0  0  0
  -18.5297  -24.4168   24.6370 N   0  0  0  0  0  0  0  0  0  0  0  0
  -18.0418  -21.0124   25.7504 N   0  3  0  0  0  0  0  0  0  0  0  0
  -22.5295  -14.7481   20.8394 O   0  0  0  0  0  0  0  0  0  0  0  0
  -19.4756  -26.4532   19.4114 O   0  0  0  0  0  0  0  0  0  0  0  0
  -17.1050  -26.0648   22.7761 O   0  0  0  0  0  0  0  0  0  0  0  0
  -19.9135  -22.5784   24.3501 O   0  0  0  0  0  0  0  0  0  0  0  0
  -31.2175  -14.9472   18.1717 O   0  0  0  0  0  0  0  0  0  0  0  0
  -21.4554   -7.0787   21.6225 O   0  0  0  0  0  0  0  0  0  0  0  0
  -22.0743  -21.0454   18.0724 O   0  0  0  0  0  0  0  0  0  1  0  0
  -23.3635   -3.2885   25.1436 F   0  0  0  0  0  0  0  0  0  0  0  0
  -20.0053   -6.3706   23.8672 F   0  0  0  0  0  0  0  0  0  0  0  0
  1  2  1  0  0  0  0
  1  5  2  0  0  0  0
  2  6  2  0  0  0  0
  3  8  2  0  0  0  0
  3 16  1  0  0  0  0
  4  9  1  0  0  0  0
  4 16  2  0  0  0  0
  5 18  1  0  0  0  0
  6 20  1  0  0  0  0
  7 10  2  0  0  0  0
  7 19  1  0  0  0  0
  8 27  1  0  0  0  0
  9 27  2  0  0  0  0
 10 28  1  0  0  0  0
 11 12  2  0  0  0  0
 11 29  1  0  0  0  0
 12 30  1  0  0  0  0
 13 21  1  0  0  0  0
 13 23  2  0  0  0  0
 14 22  1  0  0  0  0
 14 28  2  0  0  0  0
 15 30  2  0  0  0  0
 15 31  1  0  0  0  0
 16 32  1  0  0  0  0
 17 32  1  0  0  0  0
 17 33  2  0  0  0  0
 17 34  1  0  0  0  0
 18 20  2  0  0  0  0
 18 39  1  0  0  0  0
 19 22  2  0  0  0  0
 19 40  1  0  0  0  0
 20 55  1  0  0  0  0
 21 24  2  0  0  0  0
 21 54  1  0  0  0  0
 22 41  1  0  0  0  0
 23 25  1  0  0  0  0
 23 67  1  0  0  0  0
 24 26  1  0  0  0  0
 24 59  1  0  0  0  0
 25 26  2  0  0  0  0
 25 68  1  0  0  0  0
 26 69  1  0  0  0  0
 27 88  1  0  0  0  0
 28 89  1  0  0  0  0
 29 31  2  0  0  0  0
 29 88  1  0  0  0  0
 30 90  1  0  0  0  0
 31 91  1  0  0  0  0
 32 73  2  0  0  0  0
 33 74  1  0  0  0  0
 33 78  1  0  0  0  0
 34 79  1  0  0  0  0
 34 83  2  0  0  0  0
 35 56  1  0  0  0  0
 35 80  1  0  0  0  0
 35 84  2  0  0  0  0
 36 70  1  0  0  0  0
 36 75  1  0  0  0  0
 36 85  2  0  0  0  0
 37 71  1  0  0  0  0
 37 81  1  0  0  0  0
 37 86  2  0  0  0  0
 38 76  1  0  0  0  0
 38 77  1  0  0  0  0
 38 87  2  0  0  0  0
 39 42  1  0  0  0  0
 40 56  1  0  0  0  0
 41 75  1  0  0  0  0
 42 44  1  0  0  0  0
 43 47  1  0  0  0  0
 43 50  1  0  0  0  0
 44 55  1  0  0  0  0
 45 46  1  0  0  0  0
 45 57  1  0  0  0  0
 46 57  1  0  0  0  0
 47 58  1  0  0  0  0
 48 51  1  0  0  0  0
 48 54  1  0  0  0  0
 49 52  1  0  0  0  0
 49 54  1  0  0  0  0
 50 76  1  0  0  0  0
 51 77  1  0  0  0  0
 52 77  1  0  0  0  0
 53 58  1  0  0  0  0
 53 76  1  0  0  0  0
 55 80  1  0  0  0  0
 56 75  1  0  0  0  0
 57 67  1  0  0  0  0
 58 74  1  0  0  0  0
 60 69  1  0  0  0  0
 61 69  1  0  0  0  0
 62 71  1  0  0  0  0
 63 72  1  0  0  0  0
 64 72  1  0  0  0  0
 65 72  1  0  0  0  0
 66 82  1  0  0  0  0
 68 89  1  0  0  0  0
 70 72  1  0  0  0  0
 70 81  1  0  0  0  0
 71 82  1  0  0  0  0
 73 74  1  0  0  0  0
M  CHG  1  82   1
M  ISO  4  38 100  68 101  77 100  89 101
M  END
> <Batch ID>
0167

> <Smiles>
CNC(C)C(=O)NC(C(=O)N1Cc2cc([101O:1][101CH2:1]c3c(CC4CC4)cc(C4CC[100N:0]([100C:0](=O)N5CCCC(n6nc(-c7ccc(Oc8ccc(F)cc8F)cc7)c(C(N)=O)c6N)C5)CC4)c(C)c3C(C)C)ccc2CC1C(=O)NC1CCCc2ccccc21)C(C)(C)C

> <Shape>
0.170

> <Color>
0.186

> <Negative vol penalty>
0.000

$$$$

  -OEChem-04052322273D

 87 97  0     1  0  0  0  0  0999 V2000
  -24.4720  -37.9119   19.5983 C   0  0  0  0  0  0  0  0  0  0  0  0
  -24.8344  -36.8238   18.8109 C   0  0  0  0  0  0  0  0  0  0  0  0
  -24.5270  -10.5511   18.5311 C   0  0  0  0  0  0  0  0  0  0  0  0
  -24.6094  -10.0152   20.8854 C   0  0  0  0  0  0  0  0  0  0  0  0
  -24.6869  -37.8768   20.9754 C   0  0  0  0  0  0  0  0  0  0  0  0
  -25.4132  -35.7002   19.4001 C   0  0  0  0  0  0  0  0  0  0  0  0
  -25.7444  -28.5781   18.7059 C   0  0  0  0  0  0  0  0  0  0  0  0
  -24.1204   -9.2472   18.2484 C   0  0  0  0  0  0  0  0  0  0  0  0
  -24.2028   -8.7112   20.6028 C   0  0  0  0  0  0  0  0  0  0  0  0
  -26.6785  -27.5473   18.6131 C   0  0  0  0  0  0  0  0  0  0  0  0
  -22.8382   -5.3419   20.5368 C   0  0  0  0  0  0  0  0  0  0  0  0
  -21.8451   -4.7828   21.3409 C   0  0  0  0  0  0  0  0  0  0  0  0
  -31.6356  -23.4935   17.9415 C   0  0  0  0  0  0  0  0  0  0  0  0
  -26.9294  -27.5668   21.0122 C   0  0  0  0  0  0  0  0  0  0  0  0
  -20.3244   -6.5423   20.6861 C   0  0  0  0  0  0  0  0  0  0  0  0
  -24.7715  -10.9352   19.8496 C   0  0  0  0  0  0  0  0  0  0  0  0
  -24.3676  -13.3879   20.4229 C   0  0  0  0  0  0  0  0  0  0  0  0
  -25.2597  -36.7484   21.5831 C   0  0  0  0  0  0  0  0  0  0  0  0
  -25.4033  -29.1193   19.9538 C   0  0  0  0  0  0  0  0  0  0  0  0
  -25.6372  -35.6505   20.7865 C   0  0  0  0  0  0  0  0  0  0  0  0
  -31.3311  -22.3294   18.6640 C   0  0  0  0  0  0  0  0  0  0  0  0
  -25.9888  -28.6027   21.1184 C   0  0  0  0  0  0  0  0  0  0  0  0
  -30.0905  -22.2293   19.3196 C   0  0  0  0  0  0  0  0  0  0  0  0
  -30.7127  -24.5346   17.8480 C   0  0  0  0  0  0  0  0  0  0  0  0
  -29.1670  -23.2805   19.2100 C   0  0  0  0  0  0  0  0  0  0  0  0
  -29.4778  -24.4272   18.4802 C   0  0  0  0  0  0  0  0  0  0  0  0
  -23.9583   -8.3272   19.2843 C   0  0  0  0  0  0  0  0  0  0  0  0
  -27.2733  -27.0434   19.7661 C   0  0  0  0  0  0  0  0  0  0  0  0
  -22.5745   -6.5013   19.8074 C   0  0  0  0  0  0  0  0  0  0  0  0
  -20.5882   -5.3830   21.4156 C   0  0  0  0  0  0  0  0  0  0  0  0
  -21.3176   -7.1014   19.8820 C   0  0  0  0  0  0  0  0  0  0  0  0
  -25.1921  -12.2819   20.1421 C   0  0  0  0  0  0  0  0  0  0  0  0
  -25.2436  -14.4255   20.6294 C   0  0  0  0  0  0  0  0  0  0  0  0
  -22.9378  -13.4700   20.4912 C   0  0  0  0  0  0  0  0  0  0  0  0
  -25.6457  -31.9908   21.2954 C   0  0  0  0  0  0  0  0  0  0  0  0
  -23.9642  -30.5855   23.6870 C   0  0  0  0  0  0  0  0  0  0  0  0
  -23.0611  -27.7134   25.2940 C   0  0  0  0  0  0  0  0  0  0  0  0
  -29.6118  -17.3018   18.9909 C   0  0  0  0  0  0  0  0  0  0  0  0
  -25.5160  -36.7756   23.0691 C   0  0  0  0  0  0  0  0  0  0  0  0
  -24.3741  -30.2128   20.0392 C   0  0  0  0  0  0  0  0  0  0  0  0
  -32.3728  -21.2419   18.7685 C   0  0  0  0  0  0  0  0  0  0  0  0
  -29.6994  -20.9932   20.0893 C   0  0  0  0  0  0  0  0  0  0  0  0
  -25.6419  -29.1353   22.4839 C   0  0  0  0  0  0  0  0  0  0  0  0
  -25.7904  -35.3973   23.6652 C   0  0  0  0  0  0  0  0  0  0  0  0
  -30.8833  -20.0877   20.4263 C   0  0  0  0  0  0  0  0  0  0  0  0
  -30.2446  -14.4648   21.2248 C   0  0  0  0  0  0  0  0  0  0  0  0
  -26.7928  -34.6338   22.8056 C   0  0  0  0  0  0  0  0  0  0  0  0
  -28.9280  -13.7038   21.1114 C   0  0  0  0  0  0  0  0  0  0  0  0
  -32.0692  -18.4948   17.0370 C   0  0  0  0  0  0  0  0  0  0  0  0
  -30.6323  -15.1544   19.9162 C   0  0  0  0  0  0  0  0  0  0  0  0
  -31.9200  -17.1584   17.7705 C   0  0  0  0  0  0  0  0  0  0  0  0
  -28.2437  -15.2631   19.2556 C   0  0  0  0  0  0  0  0  0  0  0  0
  -26.2448  -34.4038   21.3920 C   0  0  1  0  0  0  0  0  0  0  0  0
  -24.4839  -31.0382   21.3176 C   0  0  1  0  0  0  0  0  0  0  0  0
  -31.8220  -19.8848   19.2325 C   0  0  1  0  0  0  0  0  0  0  0  0
  -27.8177  -14.6254   20.5855 C   0  0  1  0  0  0  0  0  0  0  0  0
  -31.1575  -19.1305   18.0978 C   0  0  2  0  0  0  0  0  0  0  0  0
  -31.0753  -25.7527   17.0631 C   0  0  0  0  0  0  0  0  0  0  0  0
  -27.8319  -23.1927   19.8859 C   0  0  0  0  0  0  0  0  0  0  0  0
  -21.7070  -26.8862   27.2381 C   0  0  0  0  0  0  0  0  0  0  0  0
  -26.1476  -31.5205   25.6024 C   0  0  0  0  0  0  0  0  0  0  0  0
  -25.2635  -29.8978   27.2917 C   0  0  0  0  0  0  0  0  0  0  0  0
  -23.8177  -31.7611   26.4790 C   0  0  0  0  0  0  0  0  0  0  0  0
  -21.2946  -26.1188   23.5345 C   0  0  0  0  0  0  0  0  0  0  0  0
  -28.4884  -25.5447   18.3756 C   0  0  0  0  0  0  0  0  0  1  0  0
  -24.3212  -29.8205   24.9386 C   0  0  1  0  0  0  0  0  0  0  0  0
  -21.7083  -27.1967   25.7494 C   0  0  2  0  0  0  0  0  0  0  0  0
  -24.8957  -30.7411   26.0522 C   0  0  0  0  0  0  0  0  0  0  0  0
  -26.4919  -12.5882   20.1669 N   0  0  0  0  0  0  0  0  0  0  0  0
  -26.4908  -13.8985   20.4656 N   0  0  0  0  0  0  0  0  0  0  0  0
  -24.6347  -30.2086   22.5148 N   0  0  0  0  0  0  0  0  0  0  0  0
  -29.5309  -15.9583   19.3731 N   0  0  0  0  0  0  0  0  0  0  0  0
  -30.8093  -17.7633   18.4912 N   0  0  0  0  0  0  0  0  0  0  0  0
  -25.0609  -15.7281   20.9330 N   0  0  0  0  0  0  0  0  0  0  0  0
  -22.1898  -12.3090   20.2523 N   0  0  0  0  0  0  0  0  0  0  0  0
  -25.2845  -33.3210   21.3922 N   0  0  0  0  0  0  0  0  0  0  0  0
  -23.1195  -29.0906   25.3277 N   0  0  0  0  0  0  0  0  0  0  0  0
  -21.3531  -25.9527   25.0096 N   0  3  0  0  0  0  0  0  0  0  0  0
  -22.3407  -14.5447   20.7400 O   0  0  0  0  0  0  0  0  0  0  0  0
  -26.7856  -31.5513   21.1992 O   0  0  0  0  0  0  0  0  0  0  0  0
  -23.1163  -31.4795   23.7459 O   0  0  0  0  0  0  0  0  0  0  0  0
  -23.9758  -26.9695   24.9469 O   0  0  0  0  0  0  0  0  0  0  0  0
  -28.6372  -18.0619   19.0631 O   0  0  0  0  0  0  0  0  0  0  0  0
  -23.5613   -7.0547   19.0089 O   0  0  0  0  0  0  0  0  0  0  0  0
  -28.1926  -26.0302   19.6776 O   0  0  0  0  0  0  0  0  0  1  0  0
  -19.6340   -4.8451   22.1866 F   0  0  0  0  0  0  0  0  0  0  0  0
  -21.0579   -8.2147   19.1826 F   0  0  0  0  0  0  0  0  0  0  0  0
  1  2  1  0  0  0  0
  1  5  2  0  0  0  0
  2  6  2  0  0  0  0
  3  8  2  0  0  0  0
  3 16  1  0  0  0  0
  4  9  1  0  0  0  0
  4 16  2  0  0  0  0
  5 18  1  0  0  0  0
  6 20  1  0  0  0  0
  7 10  2  0  0  0  0
  7 19  1  0  0  0  0
  8 27  1  0  0  0  0
  9 27  2  0  0  0  0
 10 28  1  0  0  0  0
 11 12  2  0  0  0  0
 11 29  1  0  0  0  0
 12 30  1  0  0  0  0
 13 21  1  0  0  0  0
 13 24  2  0  0  0  0
 14 22  1  0  0  0  0
 14 28  2  0  0  0  0
 15 30  2  0  0  0  0
 15 31  1  0  0  0  0
 16 32  1  0  0  0  0
 17 32  1  0  0  0  0
 17 33  2  0  0  0  0
 17 34  1  0  0  0  0
 18 20  2  0  0  0  0
 18 39  1  0  0  0  0
 19 22  2  0  0  0  0
 19 40  1  0  0  0  0
 20 53  1  0  0  0  0
 21 23  2  0  0  0  0
 21 41  1  0  0  0  0
 22 43  1  0  0  0  0
 23 25  1  0  0  0  0
 23 42  1  0  0  0  0
 24 26  1  0  0  0  0
 24 58  1  0  0  0  0
 25 26  2  0  0  0  0
 25 59  1  0  0  0  0
 26 65  1  0  0  0  0
 27 84  1  0  0  0  0
 28 85  1  0  0  0  0
 29 31  2  0  0  0  0
 29 84  1  0  0  0  0
 30 86  1  0  0  0  0
 31 87  1  0  0  0  0
 32 69  2  0  0  0  0
 33 70  1  0  0  0  0
 33 74  1  0  0  0  0
 34 75  1  0  0  0  0
 34 79  2  0  0  0  0
 35 54  1  0  0  0  0
 35 76  1  0  0  0  0
 35 80  2  0  0  0  0
 36 66  1  0  0  0  0
 36 71  1  0  0  0  0
 36 81  2  0  0  0  0
 37 67  1  0  0  0  0
 37 77  1  0  0  0  0
 37 82  2  0  0  0  0
 38 72  1  0  0  0  0
 38 73  1  0  0  0  0
 38 83  2  0  0  0  0
 39 44  1  0  0  0  0
 40 54  1  0  0  0  0
 41 55  1  0  0  0  0
 42 45  1  0  0  0  0
 43 71  1  0  0  0  0
 44 47  1  0  0  0  0
 45 55  1  0  0  0  0
 46 48  1  0  0  0  0
 46 50  1  0  0  0  0
 47 53  1  0  0  0  0
 48 56  1  0  0  0  0
 49 51  1  0  0  0  0
 49 57  1  0  0  0  0
 50 72  1  0  0  0  0
 51 73  1  0  0  0  0
 52 56  1  0  0  0  0
 52 72  1  0  0  0  0
 53 76  1  0  0  0  0
 54 71  1  0  0  0  0
 55 57  1  0  0  0  0
 56 70  1  0  0  0  0
 57 73  1  0  0  0  0
 60 67  1  0  0  0  0
 61 68  1  0  0  0  0
 62 68  1  0  0  0  0
 63 68  1  0  0  0  0
 64 78  1  0  0  0  0
 65 85  1  0  0  0  0
 66 68  1  0  0  0  0
 66 77  1  0  0  0  0
 67 78  1  0  0  0  0
 69 70  1  0  0  0  0
M  CHG  1  78   1
M  ISO  4  38 100  65 101  73 100  85 101
M  END
> <Batch ID>
0167

> <Smiles>
CNC(C)C(=O)NC(C(=O)N1Cc2cc([101O:1][101CH2:1]c3c(C)cc4c(c3C)CCC(C3CC[100N:0]3[100C:0](=O)N3CCCC(n5nc(-c6ccc(Oc7ccc(F)cc7F)cc6)c(C(N)=O)c5N)C3)C4)ccc2CC1C(=O)NC1CCCc2ccccc21)C(C)(C)C

> <Shape>
0.287

> <Color>
0.111

> <Negative vol penalty>
0.000

$$$$

  -OEChem-04052322273D

 86 95  0     1  0  0  0  0  0999 V2000
  -32.6119  -31.3369   22.3022 C   0  0  0  0  0  0  0  0  0  0  0  0
  -31.7908  -30.2870   22.7009 C   0  0  0  0  0  0  0  0  0  0  0  0
  -22.9698  -10.0486   19.8569 C   0  0  0  0  0  0  0  0  0  0  0  0
  -23.8174   -9.7763   22.1029 C   0  0  0  0  0  0  0  0  0  0  0  0
  -33.0203  -31.4348   20.9727 C   0  0  0  0  0  0  0  0  0  0  0  0
  -31.3768  -29.3349   21.7700 C   0  0  0  0  0  0  0  0  0  0  0  0
  -31.7606  -24.6020   23.5299 C   0  0  0  0  0  0  0  0  0  0  0  0
  -22.1825   -8.9082   20.0157 C   0  0  0  0  0  0  0  0  0  0  0  0
  -23.0301   -8.6359   22.2618 C   0  0  0  0  0  0  0  0  0  0  0  0
  -30.7679  -24.1661   24.4065 C   0  0  0  0  0  0  0  0  0  0  0  0
  -22.6082   -5.5562   19.9291 C   0  0  0  0  0  0  0  0  0  0  0  0
  -22.5899   -4.6316   18.8849 C   0  0  0  0  0  0  0  0  0  0  0  0
  -29.6811  -23.0085   22.5904 C   0  0  0  0  0  0  0  0  0  0  0  0
  -30.8019  -17.4629   24.4815 C   0  0  0  0  0  0  0  0  0  0  0  0
  -20.2041   -4.9363   18.6568 C   0  0  0  0  0  0  0  0  0  0  0  0
  -23.7874  -10.4826   20.9005 C   0  0  0  0  0  0  0  0  0  0  0  0
  -24.2432  -12.9890   21.0333 C   0  0  0  0  0  0  0  0  0  0  0  0
  -32.6190  -30.4780   20.0271 C   0  0  0  0  0  0  0  0  0  0  0  0
  -31.7150  -24.2528   22.1726 C   0  0  0  0  0  0  0  0  0  0  0  0
  -31.7791  -29.4208   20.4264 C   0  0  0  0  0  0  0  0  0  0  0  0
  -30.6758  -23.4391   21.6993 C   0  0  0  0  0  0  0  0  0  0  0  0
  -28.8625  -18.7877   25.0476 C   0  0  0  0  0  0  0  0  0  0  0  0
  -30.0801  -18.2121   25.4106 C   0  0  0  0  0  0  0  0  0  0  0  0
  -30.3063  -17.2895   23.1892 C   0  0  0  0  0  0  0  0  0  0  0  0
  -28.3668  -18.6143   23.7553 C   0  0  0  0  0  0  0  0  0  0  0  0
  -29.0887  -17.8652   22.8261 C   0  0  0  0  0  0  0  0  0  0  0  0
  -22.2126   -8.2018   21.2181 C   0  0  0  0  0  0  0  0  0  0  0  0
  -29.7264  -23.3717   23.9362 C   0  0  0  0  0  0  0  0  0  0  0  0
  -21.4244   -6.1708   20.3372 C   0  0  0  0  0  0  0  0  0  0  0  0
  -21.3879   -4.3217   18.2487 C   0  0  0  0  0  0  0  0  0  0  0  0
  -20.2224   -5.8609   19.7011 C   0  0  0  0  0  0  0  0  0  0  0  0
  -24.6013  -11.6602   20.7368 C   0  0  0  0  0  0  0  0  0  0  0  0
  -25.3547  -13.7257   20.7040 C   0  0  0  0  0  0  0  0  0  0  0  0
  -23.0157  -13.5108   21.5593 C   0  0  0  0  0  0  0  0  0  0  0  0
  -31.4770  -25.8708   19.4469 C   0  0  0  0  0  0  0  0  0  0  0  0
  -31.9388  -22.9458   18.1230 C   0  0  0  0  0  0  0  0  0  0  0  0
  -31.7283  -19.5546   18.4433 C   0  0  0  0  0  0  0  0  0  0  0  0
  -30.8837  -14.4826   20.7602 C   0  0  0  0  0  0  0  0  0  0  0  0
  -33.0473  -30.6521   18.5915 C   0  0  0  0  0  0  0  0  0  0  0  0
  -32.8080  -24.7089   21.2453 C   0  0  0  0  0  0  0  0  0  0  0  0
  -30.5921  -23.0195   20.2552 C   0  0  0  0  0  0  0  0  0  0  0  0
  -32.8704  -29.3933   17.7462 C   0  0  0  0  0  0  0  0  0  0  0  0
  -29.5431  -12.4196   18.1865 C   0  0  0  0  0  0  0  0  0  0  0  0
  -31.4956  -28.7777   17.9868 C   0  0  0  0  0  0  0  0  0  0  0  0
  -28.1112  -12.1429   18.6481 C   0  0  0  0  0  0  0  0  0  0  0  0
  -28.7851  -20.7111   26.7726 C   0  0  0  0  0  0  0  0  0  0  0  0
  -30.5154  -12.4705   19.3630 C   0  0  0  0  0  0  0  0  0  0  0  0
  -28.7055  -13.1290   20.9005 C   0  0  0  0  0  0  0  0  0  0  0  0
  -28.0967  -19.5840   26.0378 C   0  0  1  0  0  0  0  0  0  0  0  0
  -31.3292  -28.3546   19.4513 C   0  0  1  0  0  0  0  0  0  0  0  0
  -32.3830  -24.7194   19.7802 C   0  0  1  0  0  0  0  0  0  0  0  0
  -27.6793  -13.1240   19.7546 C   0  0  2  0  0  0  0  0  0  0  0  0
  -27.7142  -21.0364   25.7636 C   0  0  1  0  0  0  0  0  0  0  0  0
  -30.6348  -18.3814   26.7874 C   0  0  0  0  0  0  0  0  0  0  0  0
  -27.0607  -19.2311   23.3639 C   0  0  0  0  0  0  0  0  0  0  0  0
  -28.5596  -17.6774   21.4394 C   0  0  0  0  0  0  0  0  0  0  0  0
  -26.3798  -21.5087   26.2805 C   0  0  0  0  0  0  0  0  0  0  0  0
  -32.0215  -17.1362   17.8410 C   0  0  0  0  0  0  0  0  0  0  0  0
  -29.3968  -23.4162   16.5022 C   0  0  0  0  0  0  0  0  0  0  0  0
  -29.3417  -20.9627   16.0071 C   0  0  0  0  0  0  0  0  0  0  0  0
  -31.2641  -22.3478   15.2272 C   0  0  0  0  0  0  0  0  0  0  0  0
  -34.4087  -19.4484   19.6934 C   0  0  0  0  0  0  0  0  0  0  0  0
  -31.0989  -16.4829   22.2134 C   0  0  0  0  0  0  0  0  0  0  0  0
  -28.1356  -21.6945   24.4949 C   0  0  0  0  0  0  0  0  0  1  0  0
  -31.0383  -21.8148   17.6883 C   0  0  1  0  0  0  0  0  0  0  0  0
  -32.7253  -18.4505   18.1413 C   0  0  2  0  0  0  0  0  0  0  0  0
  -30.2605  -22.1447   16.3831 C   0  0  0  0  0  0  0  0  0  0  0  0
  -25.8431  -11.5558   20.2561 N   0  0  0  0  0  0  0  0  0  0  0  0
  -26.2750  -12.8284   20.2479 N   0  0  0  0  0  0  0  0  0  0  0  0
  -31.6811  -23.4960   19.3865 N   0  0  0  0  0  0  0  0  0  0  0  0
  -30.0488  -13.4204   20.3758 N   0  0  0  0  0  0  0  0  0  0  0  0
  -25.6248  -15.0471   20.7631 N   0  0  0  0  0  0  0  0  0  0  0  0
  -21.9758  -12.6148   21.8423 N   0  0  0  0  0  0  0  0  0  0  0  0
  -32.0282  -27.1122   19.7010 N   0  0  0  0  0  0  0  0  0  0  0  0
  -31.8857  -20.6308   17.5958 N   0  0  0  0  0  0  0  0  0  0  0  0
  -30.3621  -15.3403   21.7209 N   0  0  0  0  0  0  0  0  0  0  0  0
  -33.6349  -18.2418   19.3033 N   0  3  0  0  0  0  0  0  0  0  0  0
  -22.8403  -14.7371   21.7566 O   0  0  0  0  0  0  0  0  0  0  0  0
  -30.3611  -25.6495   18.9916 O   0  0  0  0  0  0  0  0  0  0  0  0
  -32.8423  -23.3222   17.3721 O   0  0  0  0  0  0  0  0  0  0  0  0
  -30.8909  -19.4693   19.3389 O   0  0  0  0  0  0  0  0  0  0  0  0
  -32.0082  -14.6570   20.2786 O   0  0  0  0  0  0  0  0  0  0  0  0
  -21.4443   -7.0891   21.3736 O   0  0  0  0  0  0  0  0  0  0  0  0
  -28.7558  -22.9454   24.7895 O   0  0  0  0  0  0  0  0  0  1  0  0
  -21.3708   -3.4350   17.2449 F   0  0  0  0  0  0  0  0  0  0  0  0
  -19.0821   -6.4490   20.0880 F   0  0  0  0  0  0  0  0  0  0  0  0
  1  2  1  0  0  0  0
  1  5  2  0  0  0  0
  2  6  2  0  0  0  0
  3  8  2  0  0  0  0
  3 16  1  0  0  0  0
  4  9  1  0  0  0  0
  4 16  2  0  0  0  0
  5 18  1  0  0  0  0
  6 20  1  0  0  0  0
  7 10  2  0  0  0  0
  7 19  1  0  0  0  0
  8 27  1  0  0  0  0
  9 27  2  0  0  0  0
 10 28  1  0  0  0  0
 11 12  2  0  0  0  0
 11 29  1  0  0  0  0
 12 30  1  0  0  0  0
 13 21  1  0  0  0  0
 13 28  2  0  0  0  0
 14 23  2  0  0  0  0
 14 24  1  0  0  0  0
 15 30  2  0  0  0  0
 15 31  1  0  0  0  0
 16 32  1  0  0  0  0
 17 32  1  0  0  0  0
 17 33  2  0  0  0  0
 17 34  1  0  0  0  0
 18 20  2  0  0  0  0
 18 39  1  0  0  0  0
 19 21  2  0  0  0  0
 19 40  1  0  0  0  0
 20 50  1  0  0  0  0
 21 41  1  0  0  0  0
 22 23  1  0  0  0  0
 22 25  2  0  0  0  0
 22 49  1  0  0  0  0
 23 54  1  0  0  0  0
 24 26  2  0  0  0  0
 24 63  1  0  0  0  0
 25 26  1  0  0  0  0
 25 55  1  0  0  0  0
 26 56  1  0  0  0  0
 27 83  1  0  0  0  0
 28 84  1  0  0  0  0
 29 31  2  0  0  0  0
 29 83  1  0  0  0  0
 30 85  1  0  0  0  0
 31 86  1  0  0  0  0
 32 68  2  0  0  0  0
 33 69  1  0  0  0  0
 33 72  1  0  0  0  0
 34 73  1  0  0  0  0
 34 78  2  0  0  0  0
 35 51  1  0  0  0  0
 35 74  1  0  0  0  0
 35 79  2  0  0  0  0
 36 65  1  0  0  0  0
 36 70  1  0  0  0  0
 36 80  2  0  0  0  0
 37 66  1  0  0  0  0
 37 75  1  0  0  0  0
 37 81  2  0  0  0  0
 38 71  1  0  0  0  0
 38 76  1  0  0  0  0
 38 82  2  0  0  0  0
 39 42  1  0  0  0  0
 40 51  1  0  0  0  0
 41 70  1  0  0  0  0
 42 44  1  0  0  0  0
 43 45  1  0  0  0  0
 43 47  1  0  0  0  0
 44 50  1  0  0  0  0
 45 52  1  0  0  0  0
 46 49  1  0  0  0  0
 46 53  1  0  0  0  0
 47 71  1  0  0  0  0
 48 52  1  0  0  0  0
 48 71  1  0  0  0  0
 49 53  1  0  0  0  0
 50 74  1  0  0  0  0
 51 70  1  0  0  0  0
 52 69  1  0  0  0  0
 53 57  1  0  0  0  0
 53 64  1  0  0  0  0
 58 66  1  0  0  0  0
 59 67  1  0  0  0  0
 60 67  1  0  0  0  0
 61 67  1  0  0  0  0
 62 77  1  0  0  0  0
 63 76  1  0  0  0  0
 64 84  1  0  0  0  0
 65 67  1  0  0  0  0
 65 75  1  0  0  0  0
 66 77  1  0  0  0  0
 68 69  1  0  0  0  0
M  CHG  1  77   1
M  ISO  4  38 100  64 101  76 100  84 101
M  END
> <Batch ID>
0167

> <Smiles>
CNC(C)C(=O)NC(C(=O)N1Cc2cc([101O:1][101CH2:1]C3(C)CC3c3c(C)cc(C[100NH:0][100C:0](=O)N4CCCC(n5nc(-c6ccc(Oc7ccc(F)cc7F)cc6)c(C(N)=O)c5N)C4)c(C)c3C)ccc2CC1C(=O)NC1CCCc2ccccc21)C(C)(C)C

> <Shape>
0.198

> <Color>
0.203

> <Negative vol penalty>
0.000

$$$$

  -OEChem-04052322273D

 88 98  0     1  0  0  0  0  0999 V2000
  -17.9892  -34.0308   18.7597 C   0  0  0  0  0  0  0  0  0  0  0  0
  -18.1379  -32.7834   18.1619 C   0  0  0  0  0  0  0  0  0  0  0  0
  -23.2062   -9.8157   19.9051 C   0  0  0  0  0  0  0  0  0  0  0  0
  -23.6045   -9.9385   22.2849 C   0  0  0  0  0  0  0  0  0  0  0  0
  -19.0383  -34.5790   19.4964 C   0  0  0  0  0  0  0  0  0  0  0  0
  -19.3364  -32.0840   18.2994 C   0  0  0  0  0  0  0  0  0  0  0  0
  -20.0286  -26.0141   18.7270 C   0  0  0  0  0  0  0  0  0  0  0  0
  -22.4488   -8.6593   20.0916 C   0  0  0  0  0  0  0  0  0  0  0  0
  -22.8471   -8.7822   22.4714 C   0  0  0  0  0  0  0  0  0  0  0  0
  -20.3673  -25.0403   17.7885 C   0  0  0  0  0  0  0  0  0  0  0  0
  -23.2662   -5.4458   22.1195 C   0  0  0  0  0  0  0  0  0  0  0  0
  -23.7782   -4.4658   22.9698 C   0  0  0  0  0  0  0  0  0  0  0  0
  -24.5805  -17.6786   17.4146 C   0  0  0  0  0  0  0  0  0  0  0  0
  -22.6704  -25.1698   18.4943 C   0  0  0  0  0  0  0  0  0  0  0  0
  -21.8326   -4.6784   24.3863 C   0  0  0  0  0  0  0  0  0  0  0  0
  -23.7841  -10.4553   21.0018 C   0  0  0  0  0  0  0  0  0  0  0  0
  -24.1053  -12.9793   20.8186 C   0  0  0  0  0  0  0  0  0  0  0  0
  -20.2469  -33.8817   19.6511 C   0  0  0  0  0  0  0  0  0  0  0  0
  -21.0117  -26.5820   19.5500 C   0  0  0  0  0  0  0  0  0  0  0  0
  -20.4032  -32.6240   19.0377 C   0  0  0  0  0  0  0  0  0  0  0  0
  -25.6377  -18.2691   16.7314 C   0  0  0  0  0  0  0  0  0  0  0  0
  -22.3411  -26.1489   19.4441 C   0  0  0  0  0  0  0  0  0  0  0  0
  -23.3760  -18.3611   17.5441 C   0  0  0  0  0  0  0  0  0  0  0  0
  -22.2692   -8.1426   21.3747 C   0  0  0  0  0  0  0  0  0  0  0  0
  -21.6888  -24.6201   17.6701 C   0  0  0  0  0  0  0  0  0  0  0  0
  -22.0374   -6.0421   22.4026 C   0  0  0  0  0  0  0  0  0  0  0  0
  -23.0614   -4.0821   24.1032 C   0  0  0  0  0  0  0  0  0  0  0  0
  -21.3206   -5.6584   23.5360 C   0  0  0  0  0  0  0  0  0  0  0  0
  -24.5671  -11.6495   20.8098 C   0  0  0  0  0  0  0  0  0  0  0  0
  -23.2806  -19.6216   16.9768 C   0  0  0  0  0  0  0  0  0  0  0  0
  -25.4410  -19.5337   16.2003 C   0  0  0  0  0  0  0  0  0  0  0  0
  -25.2298  -13.7348   20.5922 C   0  0  0  0  0  0  0  0  0  0  0  0
  -22.7785  -13.4864   21.0141 C   0  0  0  0  0  0  0  0  0  0  0  0
  -22.1663  -29.5135   19.9700 C   0  0  0  0  0  0  0  0  0  0  0  0
  -23.8001  -28.1022   22.3910 C   0  0  0  0  0  0  0  0  0  0  0  0
  -25.1022  -25.2453   23.7287 C   0  0  0  0  0  0  0  0  0  0  0  0
  -29.9418  -14.7807   18.0197 C   0  0  0  0  0  0  0  0  0  0  0  0
  -21.3694  -34.5358   20.4171 C   0  0  0  0  0  0  0  0  0  0  0  0
  -20.6256  -27.6121   20.5757 C   0  0  0  0  0  0  0  0  0  0  0  0
  -23.4307  -26.7124   20.3180 C   0  0  0  0  0  0  0  0  0  0  0  0
  -22.4732  -33.5647   20.8280 C   0  0  0  0  0  0  0  0  0  0  0  0
  -30.1195  -12.4669   20.5822 C   0  0  0  0  0  0  0  0  0  0  0  0
  -22.8658  -32.6746   19.6531 C   0  0  0  0  0  0  0  0  0  0  0  0
  -28.6552  -12.1466   20.8824 C   0  0  0  0  0  0  0  0  0  0  0  0
  -27.9386  -17.8776   17.7172 C   0  0  0  0  0  0  0  0  0  0  0  0
  -26.7522  -16.0064   16.4958 C   0  0  0  0  0  0  0  0  0  0  0  0
  -20.9061  -20.1362   16.0926 C   0  0  0  0  0  0  0  0  0  0  0  0
  -30.3571  -12.5813   19.0806 C   0  0  0  0  0  0  0  0  0  0  0  0
  -29.2495  -17.1079   17.5755 C   0  0  0  0  0  0  0  0  0  0  0  0
  -28.0892  -15.2802   16.3801 C   0  0  0  0  0  0  0  0  0  0  0  0
  -28.0161  -13.2792   18.6977 C   0  0  0  0  0  0  0  0  0  0  0  0
  -26.9545  -17.5292   16.5871 C   0  0  0  0  0  0  0  0  0  0  0  0
  -21.6791  -31.8237   19.1848 C   0  0  1  0  0  0  0  0  0  0  0  0
  -22.0053  -20.3921   17.0923 C   0  0  2  0  0  0  0  0  0  0  0  0
  -21.7943  -28.4925   21.0077 C   0  0  1  0  0  0  0  0  0  0  0  0
  -21.6787  -21.4203   16.0374 C   0  0  2  0  0  0  0  0  0  0  0  0
  -27.7180  -13.1626   20.2059 C   0  0  1  0  0  0  0  0  0  0  0  0
  -22.2412  -17.7315   18.2761 C   0  0  0  0  0  0  0  0  0  0  0  0
  -26.5428  -20.2183   15.4598 C   0  0  0  0  0  0  0  0  0  0  0  0
  -26.4162  -24.4132   25.6981 C   0  0  0  0  0  0  0  0  0  0  0  0
  -26.3514  -29.2455   21.1687 C   0  0  0  0  0  0  0  0  0  0  0  0
  -27.6611  -27.6391   22.5731 C   0  0  0  0  0  0  0  0  0  0  0  0
  -26.2408  -29.3757   23.6637 C   0  0  0  0  0  0  0  0  0  0  0  0
  -22.8957  -23.4762   24.6008 C   0  0  0  0  0  0  0  0  0  0  0  0
  -21.0280  -22.7026   16.4281 C   0  0  0  0  0  0  0  0  0  1  0  0
  -25.1360  -27.4108   22.5188 C   0  0  1  0  0  0  0  0  0  0  0  0
  -25.0284  -24.6642   25.1292 C   0  0  2  0  0  0  0  0  0  0  0  0
  -26.3274  -28.4084   22.4631 C   0  0  0  0  0  0  0  0  0  0  0  0
  -25.8824  -11.5618   20.5946 N   0  0  0  0  0  0  0  0  0  0  0  0
  -24.2857  -20.2277   16.3058 N   0  0  0  0  0  0  0  0  0  0  0  0
  -26.2567  -12.8461   20.4661 N   0  0  0  0  0  0  0  0  0  0  0  0
  -23.0042  -27.7217   21.3013 N   0  0  0  0  0  0  0  0  0  0  0  0
  -29.4440  -13.5503   18.4749 N   0  0  0  0  0  0  0  0  0  0  0  0
  -29.0133  -15.6699   17.4539 N   0  0  0  0  0  0  0  0  0  0  0  0
  -25.4305  -15.0659   20.4906 N   0  0  0  0  0  0  0  0  0  0  0  0
  -21.7395  -12.5720   21.2344 N   0  0  0  0  0  0  0  0  0  0  0  0
  -21.4750  -30.7050   20.0799 N   0  0  0  0  0  0  0  0  0  0  0  0
  -25.0726  -26.6238   23.7456 N   0  0  0  0  0  0  0  0  0  0  0  0
  -24.2854  -23.3724   25.1154 N   0  3  0  0  0  0  0  0  0  0  0  0
  -22.5193  -14.7132   20.9775 O   0  0  0  0  0  0  0  0  0  0  0  0
  -23.0185  -29.2412   19.1327 O   0  0  0  0  0  0  0  0  0  0  0  0
  -23.4718  -28.9436   23.2312 O   0  0  0  0  0  0  0  0  0  0  0  0
  -25.1822  -24.5465   22.7209 O   0  0  0  0  0  0  0  0  0  0  0  0
  -31.1404  -15.0720   18.1168 O   0  0  0  0  0  0  0  0  0  0  0  0
  -21.5300   -7.0144   21.5570 O   0  0  0  0  0  0  0  0  0  0  0  0
  -22.0247  -23.6631   16.7476 O   0  0  0  0  0  0  0  0  0  1  0  0
  -23.5525   -3.1399   24.9189 F   0  0  0  0  0  0  0  0  0  0  0  0
  -20.1390   -6.2268   23.8126 F   0  0  0  0  0  0  0  0  0  0  0  0
  1  2  1  0  0  0  0
  1  5  2  0  0  0  0
  2  6  2  0  0  0  0
  3  8  2  0  0  0  0
  3 16  1  0  0  0  0
  4  9  1  0  0  0  0
  4 16  2  0  0  0  0
  5 18  1  0  0  0  0
  6 20  1  0  0  0  0
  7 10  2  0  0  0  0
  7 19  1  0  0  0  0
  8 24  1  0  0  0  0
  9 24  2  0  0  0  0
 10 25  1  0  0  0  0
 11 12  2  0  0  0  0
 11 26  1  0  0  0  0
 12 27  1  0  0  0  0
 13 21  2  0  0  0  0
 13 23  1  0  0  0  0
 14 22  1  0  0  0  0
 14 25  2  0  0  0  0
 15 27  2  0  0  0  0
 15 28  1  0  0  0  0
 16 29  1  0  0  0  0
 17 29  1  0  0  0  0
 17 32  2  0  0  0  0
 17 33  1  0  0  0  0
 18 20  2  0  0  0  0
 18 38  1  0  0  0  0
 19 22  2  0  0  0  0
 19 39  1  0  0  0  0
 20 53  1  0  0  0  0
 21 31  1  0  0  0  0
 21 52  1  0  0  0  0
 22 40  1  0  0  0  0
 23 30  2  0  0  0  0
 23 58  1  0  0  0  0
 24 85  1  0  0  0  0
 25 86  1  0  0  0  0
 26 28  2  0  0  0  0
 26 85  1  0  0  0  0
 27 87  1  0  0  0  0
 28 88  1  0  0  0  0
 29 69  2  0  0  0  0
 30 54  1  0  0  0  0
 30 70  1  0  0  0  0
 31 59  1  0  0  0  0
 31 70  2  0  0  0  0
 32 71  1  0  0  0  0
 32 75  1  0  0  0  0
 33 76  1  0  0  0  0
 33 80  2  0  0  0  0
 34 55  1  0  0  0  0
 34 77  1  0  0  0  0
 34 81  2  0  0  0  0
 35 66  1  0  0  0  0
 35 72  1  0  0  0  0
 35 82  2  0  0  0  0
 36 67  1  0  0  0  0
 36 78  1  0  0  0  0
 36 83  2  0  0  0  0
 37 73  1  0  0  0  0
 37 74  1  0  0  0  0
 37 84  2  0  0  0  0
 38 41  1  0  0  0  0
 39 55  1  0  0  0  0
 40 72  1  0  0  0  0
 41 43  1  0  0  0  0
 42 44  1  0  0  0  0
 42 48  1  0  0  0  0
 43 53  1  0  0  0  0
 44 57  1  0  0  0  0
 45 49  1  0  0  0  0
 45 52  1  0  0  0  0
 46 50  1  0  0  0  0
 46 52  1  0  0  0  0
 47 54  1  0  0  0  0
 47 56  1  0  0  0  0
 48 73  1  0  0  0  0
 49 74  1  0  0  0  0
 50 74  1  0  0  0  0
 51 57  1  0  0  0  0
 51 73  1  0  0  0  0
 53 77  1  0  0  0  0
 54 56  1  0  0  0  0
 55 72  1  0  0  0  0
 56 65  1  0  0  0  0
 57 71  1  0  0  0  0
 60 67  1  0  0  0  0
 61 68  1  0  0  0  0
 62 68  1  0  0  0  0
 63 68  1  0  0  0  0
 64 79  1  0  0  0  0
 65 86  1  0  0  0  0
 66 68  1  0  0  0  0
 66 78  1  0  0  0  0
 67 79  1  0  0  0  0
 69 71  1  0  0  0  0
M  CHG  1  79   1
M  ISO  4  37 100  65 101  74 100  86 101
M  END
> <Batch ID>
0167

> <Smiles>
CNC(C)C(=O)NC(C(=O)N1Cc2cc([101O:1][101CH2:1]C3CC3c3nc(C)c(C4CC[100N:0]([100C:0](=O)N5CCCC(n6nc(-c7ccc(Oc8ccc(F)cc8F)cc7)c(C(N)=O)c6N)C5)CC4)cc3C)ccc2CC1C(=O)NC1CCCc2ccccc21)C(C)(C)C

> <Shape>
0.190

> <Color>
0.210

> <Negative vol penalty>
0.000

$$$$

  -OEChem-04052322273D

 86 95  0     1  0  0  0  0  0999 V2000
  -14.9512  -30.1675   20.5282 C   0  0  0  0  0  0  0  0  0  0  0  0
  -15.7247  -29.1155   20.0482 C   0  0  0  0  0  0  0  0  0  0  0  0
  -23.0669  -10.0081   19.9222 C   0  0  0  0  0  0  0  0  0  0  0  0
  -23.9389   -9.7133   22.1560 C   0  0  0  0  0  0  0  0  0  0  0  0
  -15.2727  -30.7696   21.7439 C   0  0  0  0  0  0  0  0  0  0  0  0
  -16.8209  -28.6656   20.7833 C   0  0  0  0  0  0  0  0  0  0  0  0
  -18.8449  -22.9022   21.2215 C   0  0  0  0  0  0  0  0  0  0  0  0
  -22.3003   -8.8521   20.0688 C   0  0  0  0  0  0  0  0  0  0  0  0
  -23.1722   -8.5573   22.3027 C   0  0  0  0  0  0  0  0  0  0  0  0
  -19.8719  -22.2169   20.5738 C   0  0  0  0  0  0  0  0  0  0  0  0
  -19.9542   -7.7730   22.9733 C   0  0  0  0  0  0  0  0  0  0  0  0
  -19.2550   -7.6083   24.1689 C   0  0  0  0  0  0  0  0  0  0  0  0
  -24.7076  -18.4257   18.9533 C   0  0  0  0  0  0  0  0  0  0  0  0
  -21.3434  -22.6821   22.4278 C   0  0  0  0  0  0  0  0  0  0  0  0
  -23.5951  -20.5590   17.5412 C   0  0  0  0  0  0  0  0  0  0  0  0
  -20.4696   -5.5641   24.5974 C   0  0  0  0  0  0  0  0  0  0  0  0
  -23.8862  -10.4387   20.9657 C   0  0  0  0  0  0  0  0  0  0  0  0
  -24.3011  -12.9500   21.1361 C   0  0  0  0  0  0  0  0  0  0  0  0
  -16.3677  -30.3205   22.4989 C   0  0  0  0  0  0  0  0  0  0  0  0
  -19.0630  -23.4929   22.4744 C   0  0  0  0  0  0  0  0  0  0  0  0
  -17.1582  -29.2632   22.0097 C   0  0  0  0  0  0  0  0  0  0  0  0
  -25.2713  -18.8308   17.7434 C   0  0  0  0  0  0  0  0  0  0  0  0
  -20.3168  -23.3722   23.0905 C   0  0  0  0  0  0  0  0  0  0  0  0
  -23.5876  -19.0872   19.4571 C   0  0  0  0  0  0  0  0  0  0  0  0
  -23.0314  -20.1539   18.7510 C   0  0  0  0  0  0  0  0  0  0  0  0
  -22.3529   -8.1267   21.2591 C   0  0  0  0  0  0  0  0  0  0  0  0
  -21.1222  -22.1093   21.1757 C   0  0  0  0  0  0  0  0  0  0  0  0
  -20.9110   -6.8333   22.5896 C   0  0  0  0  0  0  0  0  0  0  0  0
  -24.7151  -19.8975   17.0374 C   0  0  0  0  0  0  0  0  0  0  0  0
  -19.5128   -6.5038   24.9810 C   0  0  0  0  0  0  0  0  0  0  0  0
  -21.1687   -5.7289   23.4017 C   0  0  0  0  0  0  0  0  0  0  0  0
  -24.6788  -11.6325   20.8146 C   0  0  0  0  0  0  0  0  0  0  0  0
  -25.3971  -13.7107   20.8096 C   0  0  0  0  0  0  0  0  0  0  0  0
  -23.0698  -13.4421   21.6813 C   0  0  0  0  0  0  0  0  0  0  0  0
  -18.9725  -26.4644   23.5997 C   0  0  0  0  0  0  0  0  0  0  0  0
  -19.4463  -24.9851   26.4474 C   0  0  0  0  0  0  0  0  0  0  0  0
  -20.6077  -22.2570   28.1372 C   0  0  0  0  0  0  0  0  0  0  0  0
  -29.5497  -15.0889   17.5277 C   0  0  0  0  0  0  0  0  0  0  0  0
  -16.7044  -31.0338   23.7845 C   0  0  0  0  0  0  0  0  0  0  0  0
  -17.9371  -24.2058   23.1720 C   0  0  0  0  0  0  0  0  0  0  0  0
  -20.5964  -23.9711   24.4438 C   0  0  0  0  0  0  0  0  0  0  0  0
  -17.6585  -30.2514   24.6832 C   0  0  0  0  0  0  0  0  0  0  0  0
  -30.1098  -12.3670   19.5842 C   0  0  0  0  0  0  0  0  0  0  0  0
  -18.8276  -29.7028   23.8713 C   0  0  0  0  0  0  0  0  0  0  0  0
  -28.7198  -12.0290   20.1233 C   0  0  0  0  0  0  0  0  0  0  0  0
  -27.6979  -18.2308   18.1560 C   0  0  0  0  0  0  0  0  0  0  0  0
  -26.1914  -16.6204   16.9159 C   0  0  0  0  0  0  0  0  0  0  0  0
  -30.0484  -12.7324   18.1054 C   0  0  0  0  0  0  0  0  0  0  0  0
  -28.9103  -17.4710   17.6230 C   0  0  0  0  0  0  0  0  0  0  0  0
  -27.4368  -15.8985   16.4097 C   0  0  0  0  0  0  0  0  0  0  0  0
  -27.7196  -13.5317   18.3329 C   0  0  0  0  0  0  0  0  0  0  0  0
  -26.4904  -18.1007   17.2117 C   0  0  0  0  0  0  0  0  0  0  0  0
  -18.3403  -28.7306   22.7901 C   0  0  1  0  0  0  0  0  0  0  0  0
  -18.4202  -25.2095   24.2144 C   0  0  1  0  0  0  0  0  0  0  0  0
  -27.7230  -13.1642   19.8303 C   0  0  1  0  0  0  0  0  0  0  0  0
  -23.0004  -18.6338   20.7533 C   0  0  0  0  0  0  0  0  0  0  0  0
  -20.8934  -21.3538   30.4610 C   0  0  0  0  0  0  0  0  0  0  0  0
  -21.8290  -26.8427   26.8739 C   0  0  0  0  0  0  0  0  0  0  0  0
  -22.6160  -25.3034   28.6849 C   0  0  0  0  0  0  0  0  0  0  0  0
  -20.4213  -26.4682   28.9067 C   0  0  0  0  0  0  0  0  0  0  0  0
  -18.8581  -19.9371   27.5753 C   0  0  0  0  0  0  0  0  0  0  0  0
  -24.6209  -21.4035   15.1993 C   0  0  0  0  0  0  0  0  0  0  0  0
  -21.8313  -20.8754   19.2702 C   0  0  0  0  0  0  0  0  0  1  0  0
  -20.6568  -24.5732   27.2498 C   0  0  1  0  0  0  0  0  0  0  0  0
  -19.9892  -21.4166   29.2398 C   0  0  2  0  0  0  0  0  0  0  0  0
  -21.3764  -25.7871   27.9024 C   0  0  0  0  0  0  0  0  0  0  0  0
  -25.9178  -11.5570   20.3215 N   0  0  0  0  0  0  0  0  0  0  0  0
  -26.3282  -12.8367   20.3307 N   0  0  0  0  0  0  0  0  0  0  0  0
  -19.4653  -24.6637   25.0828 N   0  0  0  0  0  0  0  0  0  0  0  0
  -29.0868  -13.8087   17.8679 N   0  0  0  0  0  0  0  0  0  0  0  0
  -28.5766  -16.0800   17.3189 N   0  0  0  0  0  0  0  0  0  0  0  0
  -25.6455  -15.0353   20.8882 N   0  0  0  0  0  0  0  0  0  0  0  0
  -22.0476  -12.5242   21.9583 N   0  0  0  0  0  0  0  0  0  0  0  0
  -18.0246  -27.4439   23.3725 N   0  0  0  0  0  0  0  0  0  0  0  0
  -20.1931  -23.5704   28.2026 N   0  0  0  0  0  0  0  0  0  0  0  0
  -19.7509  -20.0261   28.7594 N   0  3  0  0  0  0  0  0  0  0  0  0
  -22.8755  -14.6619   21.9004 O   0  0  0  0  0  0  0  0  0  0  0  0
  -20.1701  -26.5390   23.3512 O   0  0  0  0  0  0  0  0  0  0  0  0
  -18.5149  -25.5642   27.0121 O   0  0  0  0  0  0  0  0  0  0  0  0
  -21.3841  -21.7954   27.3037 O   0  0  0  0  0  0  0  0  0  0  0  0
  -30.7576  -15.3354   17.4220 O   0  0  0  0  0  0  0  0  0  0  0  0
  -21.6048   -6.9987   21.4026 O   0  0  0  0  0  0  0  0  0  0  0  0
  -25.2529  -20.3054   15.8539 O   0  0  0  0  0  0  0  0  0  0  0  0
  -22.1337  -21.4367   20.5409 O   0  0  0  0  0  0  0  0  0  1  0  0
  -18.8424   -6.3465   26.1300 F   0  0  0  0  0  0  0  0  0  0  0  0
  -22.0876   -4.8234   23.0389 F   0  0  0  0  0  0  0  0  0  0  0  0
  1  2  1  0  0  0  0
  1  5  2  0  0  0  0
  2  6  2  0  0  0  0
  3  8  2  0  0  0  0
  3 17  1  0  0  0  0
  4  9  1  0  0  0  0
  4 17  2  0  0  0  0
  5 19  1  0  0  0  0
  6 21  1  0  0  0  0
  7 10  2  0  0  0  0
  7 20  1  0  0  0  0
  8 26  1  0  0  0  0
  9 26  2  0  0  0  0
 10 27  1  0  0  0  0
 11 12  2  0  0  0  0
 11 28  1  0  0  0  0
 12 30  1  0  0  0  0
 13 22  2  0  0  0  0
 13 24  1  0  0  0  0
 14 23  1  0  0  0  0
 14 27  2  0  0  0  0
 15 25  1  0  0  0  0
 15 29  2  0  0  0  0
 16 30  2  0  0  0  0
 16 31  1  0  0  0  0
 17 32  1  0  0  0  0
 18 32  1  0  0  0  0
 18 33  2  0  0  0  0
 18 34  1  0  0  0  0
 19 21  2  0  0  0  0
 19 39  1  0  0  0  0
 20 23  2  0  0  0  0
 20 40  1  0  0  0  0
 21 53  1  0  0  0  0
 22 29  1  0  0  0  0
 22 52  1  0  0  0  0
 23 41  1  0  0  0  0
 24 25  2  0  0  0  0
 24 56  1  0  0  0  0
 25 63  1  0  0  0  0
 26 82  1  0  0  0  0
 27 84  1  0  0  0  0
 28 31  2  0  0  0  0
 28 82  1  0  0  0  0
 29 83  1  0  0  0  0
 30 85  1  0  0  0  0
 31 86  1  0  0  0  0
 32 67  2  0  0  0  0
 33 68  1  0  0  0  0
 33 72  1  0  0  0  0
 34 73  1  0  0  0  0
 34 77  2  0  0  0  0
 35 54  1  0  0  0  0
 35 74  1  0  0  0  0
 35 78  2  0  0  0  0
 36 64  1  0  0  0  0
 36 69  1  0  0  0  0
 36 79  2  0  0  0  0
 37 65  1  0  0  0  0
 37 75  1  0  0  0  0
 37 80  2  0  0  0  0
 38 70  1  0  0  0  0
 38 71  1  0  0  0  0
 38 81  2  0  0  0  0
 39 42  1  0  0  0  0
 40 54  1  0  0  0  0
 41 69  1  0  0  0  0
 42 44  1  0  0  0  0
 43 45  1  0  0  0  0
 43 48  1  0  0  0  0
 44 53  1  0  0  0  0
 45 55  1  0  0  0  0
 46 49  1  0  0  0  0
 46 52  1  0  0  0  0
 47 50  1  0  0  0  0
 47 52  1  0  0  0  0
 48 70  1  0  0  0  0
 49 71  1  0  0  0  0
 50 71  1  0  0  0  0
 51 55  1  0  0  0  0
 51 70  1  0  0  0  0
 53 74  1  0  0  0  0
 54 69  1  0  0  0  0
 55 68  1  0  0  0  0
 57 65  1  0  0  0  0
 58 66  1  0  0  0  0
 59 66  1  0  0  0  0
 60 66  1  0  0  0  0
 61 76  1  0  0  0  0
 62 83  1  0  0  0  0
 63 84  1  0  0  0  0
 64 66  1  0  0  0  0
 64 75  1  0  0  0  0
 65 76  1  0  0  0  0
 67 68  1  0  0  0  0
M  CHG  1  76   1
M  ISO  4  38 100  63 101  71 100  84 101
M  END
> <Batch ID>
0167

> <Smiles>
CNC(C)C(=O)NC(C(=O)N1Cc2cc([101O:1][101CH2:1]c3cc(OC)c(C4CC[100N:0]([100C:0](=O)N5CCCC(n6nc(-c7ccc(Oc8ccc(F)cc8F)cc7)c(C(N)=O)c6N)C5)CC4)cc3C)ccc2CC1C(=O)NC1CCCc2ccccc21)C(C)(C)C

> <Shape>
0.188

> <Color>
0.165

> <Negative vol penalty>
0.000

$$$$

  -OEChem-04052322273D

 89 98  0     1  0  0  0  0  0999 V2000
  -38.8246  -29.1288   19.3705 C   0  0  0  0  0  0  0  0  0  0  0  0
  -39.0161  -28.3105   20.4792 C   0  0  0  0  0  0  0  0  0  0  0  0
  -23.0112   -9.8950   19.9724 C   0  0  0  0  0  0  0  0  0  0  0  0
  -23.6612   -9.9620   22.2983 C   0  0  0  0  0  0  0  0  0  0  0  0
  -37.9271  -28.7503   18.3729 C   0  0  0  0  0  0  0  0  0  0  0  0
  -38.3092  -27.1138   20.5915 C   0  0  0  0  0  0  0  0  0  0  0  0
  -38.9720  -20.4579   23.1561 C   0  0  0  0  0  0  0  0  0  0  0  0
  -22.2198   -8.7747   20.2257 C   0  0  0  0  0  0  0  0  0  0  0  0
  -22.8698   -8.8417   22.5517 C   0  0  0  0  0  0  0  0  0  0  0  0
  -38.3112  -19.5522   23.9847 C   0  0  0  0  0  0  0  0  0  0  0  0
  -23.0804   -5.4944   22.1248 C   0  0  0  0  0  0  0  0  0  0  0  0
  -23.6281   -4.4776   22.9069 C   0  0  0  0  0  0  0  0  0  0  0  0
  -33.1275  -17.2308   25.1343 C   0  0  0  0  0  0  0  0  0  0  0  0
  -36.8460  -18.9623   22.1614 C   0  0  0  0  0  0  0  0  0  0  0  0
  -21.8540   -4.7642   24.5217 C   0  0  0  0  0  0  0  0  0  0  0  0
  -23.7319  -10.4886   21.0086 C   0  0  0  0  0  0  0  0  0  0  0  0
  -24.1597  -12.9963   20.8178 C   0  0  0  0  0  0  0  0  0  0  0  0
  -37.2161  -27.5437   18.4683 C   0  0  0  0  0  0  0  0  0  0  0  0
  -38.5672  -20.6309   21.8247 C   0  0  0  0  0  0  0  0  0  0  0  0
  -37.4004  -26.7195   19.5949 C   0  0  0  0  0  0  0  0  0  0  0  0
  -31.9534  -17.7006   24.5459 C   0  0  0  0  0  0  0  0  0  0  0  0
  -37.5050  -19.8690   21.3172 C   0  0  0  0  0  0  0  0  0  0  0  0
  -34.0232  -18.1277   25.7167 C   0  0  0  0  0  0  0  0  0  0  0  0
  -31.6750  -19.0674   24.5397 C   0  0  0  0  0  0  0  0  0  0  0  0
  -32.5706  -19.9643   25.1220 C   0  0  0  0  0  0  0  0  0  0  0  0
  -22.1491   -8.2480   21.5154 C   0  0  0  0  0  0  0  0  0  0  0  0
  -37.2461  -18.8063   23.4883 C   0  0  0  0  0  0  0  0  0  0  0  0
  -21.9196   -6.1462   22.5411 C   0  0  0  0  0  0  0  0  0  0  0  0
  -33.7447  -19.4944   25.7105 C   0  0  0  0  0  0  0  0  0  0  0  0
  -23.0148   -4.1125   24.1053 C   0  0  0  0  0  0  0  0  0  0  0  0
  -21.3064   -5.7811   23.7395 C   0  0  0  0  0  0  0  0  0  0  0  0
  -24.5501  -11.6456   20.7474 C   0  0  0  0  0  0  0  0  0  0  0  0
  -25.2912  -13.6987   20.4823 C   0  0  0  0  0  0  0  0  0  0  0  0
  -22.8879  -13.5651   21.1564 C   0  0  0  0  0  0  0  0  0  0  0  0
  -37.4272  -23.0628   20.1246 C   0  0  0  0  0  0  0  0  0  0  0  0
  -37.7241  -20.9727   17.6617 C   0  0  0  0  0  0  0  0  0  0  0  0
  -37.8886  -17.7270   16.6201 C   0  0  0  0  0  0  0  0  0  0  0  0
  -30.7900  -14.5140   20.9256 C   0  0  0  0  0  0  0  0  0  0  0  0
  -36.2217  -27.1997   17.3878 C   0  0  0  0  0  0  0  0  0  0  0  0
  -39.3076  -21.5925   20.9361 C   0  0  0  0  0  0  0  0  0  0  0  0
  -37.0445  -20.0026   19.8894 C   0  0  0  0  0  0  0  0  0  0  0  0
  -35.7906  -25.7353   17.4006 C   0  0  0  0  0  0  0  0  0  0  0  0
  -29.6782  -12.1676   18.5294 C   0  0  0  0  0  0  0  0  0  0  0  0
  -35.4495  -25.2916   18.8196 C   0  0  0  0  0  0  0  0  0  0  0  0
  -28.2244  -11.9012   18.9100 C   0  0  0  0  0  0  0  0  0  0  0  0
  -30.9986  -15.2848   24.5056 C   0  0  0  0  0  0  0  0  0  0  0  0
  -30.5393  -12.3440   19.7730 C   0  0  0  0  0  0  0  0  0  0  0  0
  -30.2784  -14.4750   23.4358 C   0  0  0  0  0  0  0  0  0  0  0  0
  -31.2596  -16.4192   22.4360 C   0  0  0  0  0  0  0  0  0  0  0  0
  -28.6065  -13.2185   21.0575 C   0  0  0  0  0  0  0  0  0  0  0  0
  -30.9992  -16.7068   23.9214 C   0  0  2  0  0  0  0  0  0  0  0  0
  -36.6706  -25.4018   19.7406 C   0  0  1  0  0  0  0  0  0  0  0  0
  -38.4805  -22.0615   19.7431 C   0  0  1  0  0  0  0  0  0  0  0  0
  -27.6937  -13.0105   19.8314 C   0  0  2  0  0  0  0  0  0  0  0  0
  -30.4148  -19.5694   23.9090 C   0  0  0  0  0  0  0  0  0  0  0  0
  -32.2774  -21.4309   25.1192 C   0  0  0  0  0  0  0  0  0  0  0  0
  -38.0933  -16.3324   14.5439 C   0  0  0  0  0  0  0  0  0  0  0  0
  -35.4552  -16.0501   26.2754 C   0  0  0  0  0  0  0  0  0  0  0  0
  -35.3206  -17.9576   27.8632 C   0  0  0  0  0  0  0  0  0  0  0  0
  -34.7945  -21.5207   17.0078 C   0  0  0  0  0  0  0  0  0  0  0  0
  -34.7978  -19.4580   15.5887 C   0  0  0  0  0  0  0  0  0  0  0  0
  -36.2973  -21.3671   15.0147 C   0  0  0  0  0  0  0  0  0  0  0  0
  -40.4367  -16.5313   17.5347 C   0  0  0  0  0  0  0  0  0  0  0  0
  -34.1350  -21.1668   27.3557 C   0  0  0  0  0  0  0  0  0  0  0  0
  -36.5573  -18.2262   25.6894 C   0  0  0  0  0  0  0  0  0  1  0  0
  -36.8310  -19.9337   17.0277 C   0  0  1  0  0  0  0  0  0  0  0  0
  -38.8428  -17.0196   15.6747 C   0  0  2  0  0  0  0  0  0  0  0  0
  -35.2744  -17.6054   26.3420 C   0  0  0  0  0  0  0  0  0  0  0  0
  -35.6873  -20.5685   16.1872 C   0  0  0  0  0  0  0  0  0  0  0  0
  -25.8297  -11.4964   20.3946 N   0  0  0  0  0  0  0  0  0  0  0  0
  -26.2531  -12.7625   20.2403 N   0  0  0  0  0  0  0  0  0  0  0  0
  -37.7963  -20.9605   19.0619 N   0  0  0  0  0  0  0  0  0  0  0  0
  -30.0102  -13.3834   20.6580 N   0  0  0  0  0  0  0  0  0  0  0  0
  -30.6620  -15.1129   22.1782 N   0  0  0  0  0  0  0  0  0  0  0  0
  -25.5473  -15.0197   20.3734 N   0  0  0  0  0  0  0  0  0  0  0  0
  -21.8325  -12.6998   21.4755 N   0  0  0  0  0  0  0  0  0  0  0  0
  -37.5748  -24.2944   19.5157 N   0  0  0  0  0  0  0  0  0  0  0  0
  -37.7088  -19.0485   16.2700 N   0  0  0  0  0  0  0  0  0  0  0  0
  -39.6318  -15.9906   16.4092 N   0  3  0  0  0  0  0  0  0  0  0  0
  -22.6886  -14.8036   21.1595 O   0  0  0  0  0  0  0  0  0  0  0  0
  -36.5449  -22.7413   20.9120 O   0  0  0  0  0  0  0  0  0  0  0  0
  -38.3406  -21.7613   16.9409 O   0  0  0  0  0  0  0  0  0  0  0  0
  -37.3533  -17.1626   17.5716 O   0  0  0  0  0  0  0  0  0  0  0  0
  -31.5994  -14.9479   20.0947 O   0  0  0  0  0  0  0  0  0  0  0  0
  -21.3767   -7.1550   21.7631 O   0  0  0  0  0  0  0  0  0  0  0  0
  -34.6226  -20.3704   26.2788 O   0  0  0  0  0  0  0  0  0  0  0  0
  -36.5948  -17.9163   24.3004 O   0  0  0  0  0  0  0  0  0  1  0  0
  -23.5400   -3.1349   24.8556 F   0  0  0  0  0  0  0  0  0  0  0  0
  -20.1904   -6.4029   24.1441 F   0  0  0  0  0  0  0  0  0  0  0  0
  1  2  1  0  0  0  0
  1  5  2  0  0  0  0
  2  6  2  0  0  0  0
  3  8  2  0  0  0  0
  3 16  1  0  0  0  0
  4  9  1  0  0  0  0
  4 16  2  0  0  0  0
  5 18  1  0  0  0  0
  6 20  1  0  0  0  0
  7 10  2  0  0  0  0
  7 19  1  0  0  0  0
  8 26  1  0  0  0  0
  9 26  2  0  0  0  0
 10 27  1  0  0  0  0
 11 12  2  0  0  0  0
 11 28  1  0  0  0  0
 12 30  1  0  0  0  0
 13 21  2  0  0  0  0
 13 23  1  0  0  0  0
 14 22  1  0  0  0  0
 14 27  2  0  0  0  0
 15 30  2  0  0  0  0
 15 31  1  0  0  0  0
 16 32  1  0  0  0  0
 17 32  1  0  0  0  0
 17 33  2  0  0  0  0
 17 34  1  0  0  0  0
 18 20  2  0  0  0  0
 18 39  1  0  0  0  0
 19 22  2  0  0  0  0
 19 40  1  0  0  0  0
 20 52  1  0  0  0  0
 21 24  1  0  0  0  0
 21 51  1  0  0  0  0
 22 41  1  0  0  0  0
 23 29  2  0  0  0  0
 23 68  1  0  0  0  0
 24 25  2  0  0  0  0
 24 55  1  0  0  0  0
 25 29  1  0  0  0  0
 25 56  1  0  0  0  0
 26 85  1  0  0  0  0
 27 87  1  0  0  0  0
 28 31  2  0  0  0  0
 28 85  1  0  0  0  0
 29 86  1  0  0  0  0
 30 88  1  0  0  0  0
 31 89  1  0  0  0  0
 32 70  2  0  0  0  0
 33 71  1  0  0  0  0
 33 75  1  0  0  0  0
 34 76  1  0  0  0  0
 34 80  2  0  0  0  0
 35 53  1  0  0  0  0
 35 77  1  0  0  0  0
 35 81  2  0  0  0  0
 36 66  1  0  0  0  0
 36 72  1  0  0  0  0
 36 82  2  0  0  0  0
 37 67  1  0  0  0  0
 37 78  1  0  0  0  0
 37 83  2  0  0  0  0
 38 73  1  0  0  0  0
 38 74  1  0  0  0  0
 38 84  2  0  0  0  0
 39 42  1  0  0  0  0
 40 53  1  0  0  0  0
 41 72  1  0  0  0  0
 42 44  1  0  0  0  0
 43 45  1  0  0  0  0
 43 47  1  0  0  0  0
 44 52  1  0  0  0  0
 45 54  1  0  0  0  0
 46 48  1  0  0  0  0
 46 51  1  0  0  0  0
 47 73  1  0  0  0  0
 48 74  1  0  0  0  0
 49 51  1  0  0  0  0
 49 74  1  0  0  0  0
 50 54  1  0  0  0  0
 50 73  1  0  0  0  0
 52 77  1  0  0  0  0
 53 72  1  0  0  0  0
 54 71  1  0  0  0  0
 57 67  1  0  0  0  0
 58 68  1  0  0  0  0
 59 68  1  0  0  0  0
 60 69  1  0  0  0  0
 61 69  1  0  0  0  0
 62 69  1  0  0  0  0
 63 79  1  0  0  0  0
 64 86  1  0  0  0  0
 65 68  1  0  0  0  0
 65 87  1  0  0  0  0
 66 69  1  0  0  0  0
 66 78  1  0  0  0  0
 67 79  1  0  0  0  0
 70 71  1  0  0  0  0
M  CHG  1  79   1
M  ISO  4  38 100  65 101  74 100  87 101
M  END
> <Batch ID>
0167

> <Smiles>
CNC(C)C(=O)NC(C(=O)N1Cc2cc([101O:1][101CH2:1]C(C)(C)c3cc(C4CC[100N:0]([100C:0](=O)N5CCCC(n6nc(-c7ccc(Oc8ccc(F)cc8F)cc7)c(C(N)=O)c6N)C5)C4)c(C)c(C)c3OC)ccc2CC1C(=O)NC1CCCc2ccccc21)C(C)(C)C

> <Shape>
0.162

> <Color>
0.196

> <Negative vol penalty>
0.000

$$$$

  -OEChem-04052322273D

 90 99  0     1  0  0  0  0  0999 V2000
  -28.1463  -37.6145   23.0811 C   0  0  0  0  0  0  0  0  0  0  0  0
  -28.5856  -36.4476   22.4641 C   0  0  0  0  0  0  0  0  0  0  0  0
  -22.4064  -12.2447   22.3442 C   0  0  0  0  0  0  0  0  0  0  0  0
  -23.1479  -14.5423   22.2539 C   0  0  0  0  0  0  0  0  0  0  0  0
  -27.2154  -37.5462   24.1168 C   0  0  0  0  0  0  0  0  0  0  0  0
  -28.0950  -35.2114   22.8832 C   0  0  0  0  0  0  0  0  0  0  0  0
  -27.0224  -30.2989   19.3872 C   0  0  0  0  0  0  0  0  0  0  0  0
  -21.3843  -12.6090   23.2206 C   0  0  0  0  0  0  0  0  0  0  0  0
  -22.1257  -14.9067   23.1303 C   0  0  0  0  0  0  0  0  0  0  0  0
  -27.7642  -29.1450   19.1379 C   0  0  0  0  0  0  0  0  0  0  0  0
  -18.3348  -14.0567   23.0268 C   0  0  0  0  0  0  0  0  0  0  0  0
  -17.0609  -13.5416   22.7869 C   0  0  0  0  0  0  0  0  0  0  0  0
  -26.5136  -27.9805   20.8406 C   0  0  0  0  0  0  0  0  0  0  0  0
  -17.0816  -12.4797   24.9570 C   0  0  0  0  0  0  0  0  0  0  0  0
  -23.2883  -13.2114   21.8608 C   0  0  0  0  0  0  0  0  0  0  0  0
  -24.2060  -12.2407   19.6876 C   0  0  0  0  0  0  0  0  0  0  0  0
  -26.7059  -36.3093   24.5424 C   0  0  0  0  0  0  0  0  0  0  0  0
  -26.0264  -30.3054   20.3743 C   0  0  0  0  0  0  0  0  0  0  0  0
  -27.1574  -35.1264   23.9265 C   0  0  0  0  0  0  0  0  0  0  0  0
  -25.7589  -29.1350   21.0987 C   0  0  0  0  0  0  0  0  0  0  0  0
  -29.4913  -22.8656   18.4529 C   0  0  0  0  0  0  0  0  0  0  0  0
  -30.7523  -23.1862   20.4886 C   0  0  0  0  0  0  0  0  0  0  0  0
  -28.6371  -23.9060   18.8180 C   0  0  0  0  0  0  0  0  0  0  0  0
  -29.8981  -24.2268   20.8538 C   0  0  0  0  0  0  0  0  0  0  0  0
  -30.5489  -22.5056   19.2882 C   0  0  0  0  0  0  0  0  0  0  0  0
  -28.8405  -24.5866   20.0184 C   0  0  0  0  0  0  0  0  0  0  0  0
  -21.2439  -13.9400   23.6137 C   0  0  0  0  0  0  0  0  0  0  0  0
  -27.5118  -27.9864   19.8666 C   0  0  0  0  0  0  0  0  0  0  0  0
  -18.9822  -13.7832   24.2317 C   0  0  0  0  0  0  0  0  0  0  0  0
  -16.4343  -12.7532   23.7520 C   0  0  0  0  0  0  0  0  0  0  0  0
  -18.3556  -12.9947   25.1968 C   0  0  0  0  0  0  0  0  0  0  0  0
  -24.3447  -12.8356   20.9559 C   0  0  0  0  0  0  0  0  0  0  0  0
  -25.4947  -12.0863   19.2380 C   0  0  0  0  0  0  0  0  0  0  0  0
  -23.0186  -11.8617   18.9790 C   0  0  0  0  0  0  0  0  0  0  0  0
  -25.5650  -31.9001   23.0850 C   0  0  0  0  0  0  0  0  0  0  0  0
  -22.7056  -30.3690   23.0437 C   0  0  0  0  0  0  0  0  0  0  0  0
  -20.8587  -27.7091   21.9664 C   0  0  0  0  0  0  0  0  0  0  0  0
  -30.5901  -14.8249   20.3393 C   0  0  0  0  0  0  0  0  0  0  0  0
  -25.7367  -36.2821   25.6976 C   0  0  0  0  0  0  0  0  0  0  0  0
  -25.2169  -31.5505   20.6126 C   0  0  0  0  0  0  0  0  0  0  0  0
  -24.6867  -29.0840   22.1552 C   0  0  0  0  0  0  0  0  0  0  0  0
  -24.9845  -34.9604   25.8307 C   0  0  0  0  0  0  0  0  0  0  0  0
  -29.9631  -11.4451   20.7969 C   0  0  0  0  0  0  0  0  0  0  0  0
  -25.9475  -33.7836   25.7095 C   0  0  0  0  0  0  0  0  0  0  0  0
  -28.4384  -11.3474   20.7716 C   0  0  0  0  0  0  0  0  0  0  0  0
  -30.7754  -17.6756   18.2985 C   0  0  0  0  0  0  0  0  0  0  0  0
  -30.0872  -18.2812   20.6478 C   0  0  0  0  0  0  0  0  0  0  0  0
  -30.4167  -12.6812   21.5644 C   0  0  0  0  0  0  0  0  0  0  0  0
  -28.3278  -13.8799   20.9982 C   0  0  0  0  0  0  0  0  0  0  0  0
  -31.5128  -19.0029   18.1792 C   0  0  0  0  0  0  0  0  0  0  0  0
  -30.8270  -19.6061   20.5160 C   0  0  0  0  0  0  0  0  0  0  0  0
  -26.6300  -33.7684   24.3363 C   0  0  1  0  0  0  0  0  0  0  0  0
  -24.5763  -31.5910   21.9966 C   0  0  1  0  0  0  0  0  0  0  0  0
  -27.8119  -12.6449   20.2313 C   0  0  2  0  0  0  0  0  0  0  0  0
  -30.6985  -17.2045   19.7512 C   0  0  0  0  0  0  0  0  0  0  0  0
  -29.2735  -22.1354   17.1650 C   0  0  0  0  0  0  0  0  0  0  0  0
  -31.8868  -22.8008   21.3849 C   0  0  0  0  0  0  0  0  0  0  0  0
  -27.5027  -24.2918   17.9217 C   0  0  0  0  0  0  0  0  0  0  0  0
  -30.1167  -24.9584   22.1407 C   0  0  0  0  0  0  0  0  0  0  0  0
  -18.5617  -26.7113   22.1273 C   0  0  0  0  0  0  0  0  0  0  0  0
  -23.3331  -29.3852   25.8630 C   0  0  0  0  0  0  0  0  0  0  0  0
  -21.5201  -27.6793   25.5961 C   0  0  0  0  0  0  0  0  0  0  0  0
  -20.9651  -30.1099   25.5139 C   0  0  0  0  0  0  0  0  0  0  0  0
  -28.5030  -16.1056   19.6999 C   0  0  0  0  0  0  0  0  0  0  0  0
  -20.4320  -27.9296   19.0461 C   0  0  0  0  0  0  0  0  0  0  0  0
  -31.4660  -21.3900   18.8962 C   0  0  0  0  0  0  0  0  0  0  0  0
  -27.9232  -25.7078   20.4094 C   0  0  0  0  0  0  0  0  0  1  0  0
  -22.1904  -29.0520   23.5719 C   0  0  1  0  0  0  0  0  0  0  0  0
  -19.4802  -27.6293   21.3357 C   0  0  2  0  0  0  0  0  0  0  0  0
  -22.0238  -29.0578   25.1178 C   0  0  0  0  0  0  0  0  0  0  0  0
  -25.6207  -13.0447   21.2907 N   0  0  0  0  0  0  0  0  0  0  0  0
  -26.2956  -12.5786   20.2261 N   0  0  0  0  0  0  0  0  0  0  0  0
  -23.9266  -30.3288   22.3558 N   0  0  0  0  0  0  0  0  0  0  0  0
  -29.7984  -13.8940   21.0280 N   0  0  0  0  0  0  0  0  0  0  0  0
  -26.0094  -11.5788   18.0979 N   0  0  0  0  0  0  0  0  0  0  0  0
  -21.7764  -12.0912   19.5861 N   0  0  0  0  0  0  0  0  0  0  0  0
  -25.7286  -33.2502   23.3296 N   0  0  0  0  0  0  0  0  0  0  0  0
  -20.9603  -28.7715   22.8394 N   0  0  0  0  0  0  0  0  0  0  0  0
  -29.9509  -15.9751   19.8524 N   0  0  0  0  0  0  0  0  0  0  0  0
  -30.8499  -20.0286   19.0668 N   0  3  0  0  0  0  0  0  0  0  0  0
  -19.5772  -27.1094   19.9425 N   0  3  0  0  0  0  0  0  0  0  0  0
  -23.0586  -11.3199   17.8484 O   0  0  0  0  0  0  0  0  0  0  0  0
  -26.1361  -30.9816   23.6612 O   0  0  0  0  0  0  0  0  0  0  0  0
  -22.0454  -31.3945   23.2284 O   0  0  0  0  0  0  0  0  0  0  0  0
  -21.7546  -26.9068   21.7129 O   0  0  0  0  0  0  0  0  0  0  0  0
  -31.8034  -14.6434   20.1745 O   0  0  0  0  0  0  0  0  0  0  0  0
  -20.2465  -14.2959   24.4687 O   0  0  0  0  0  0  0  0  0  0  0  0
  -28.2348  -26.8590   19.6258 O   0  0  0  0  0  0  0  0  0  1  0  0
  -15.2104  -12.2599   23.5222 F   0  0  0  0  0  0  0  0  0  0  0  0
  -18.9720  -12.7295   26.3568 F   0  0  0  0  0  0  0  0  0  0  0  0
  1  2  1  0  0  0  0
  1  5  2  0  0  0  0
  2  6  2  0  0  0  0
  3  8  2  0  0  0  0
  3 15  1  0  0  0  0
  4  9  1  0  0  0  0
  4 15  2  0  0  0  0
  5 17  1  0  0  0  0
  6 19  1  0  0  0  0
  7 10  2  0  0  0  0
  7 18  1  0  0  0  0
  8 27  1  0  0  0  0
  9 27  2  0  0  0  0
 10 28  1  0  0  0  0
 11 12  2  0  0  0  0
 11 29  1  0  0  0  0
 12 30  1  0  0  0  0
 13 20  1  0  0  0  0
 13 28  2  0  0  0  0
 14 30  2  0  0  0  0
 14 31  1  0  0  0  0
 15 32  1  0  0  0  0
 16 32  1  0  0  0  0
 16 33  2  0  0  0  0
 16 34  1  0  0  0  0
 17 19  2  0  0  0  0
 17 39  1  0  0  0  0
 18 20  2  0  0  0  0
 18 40  1  0  0  0  0
 19 52  1  0  0  0  0
 20 41  1  0  0  0  0
 21 23  2  0  0  0  0
 21 25  1  0  0  0  0
 21 56  1  0  0  0  0
 22 24  1  0  0  0  0
 22 25  2  0  0  0  0
 22 57  1  0  0  0  0
 23 26  1  0  0  0  0
 23 58  1  0  0  0  0
 24 26  2  0  0  0  0
 24 59  1  0  0  0  0
 25 66  1  0  0  0  0
 26 67  1  0  0  0  0
 27 87  1  0  0  0  0
 28 88  1  0  0  0  0
 29 31  2  0  0  0  0
 29 87  1  0  0  0  0
 30 89  1  0  0  0  0
 31 90  1  0  0  0  0
 32 71  2  0  0  0  0
 33 72  1  0  0  0  0
 33 75  1  0  0  0  0
 34 76  1  0  0  0  0
 34 82  2  0  0  0  0
 35 53  1  0  0  0  0
 35 77  1  0  0  0  0
 35 83  2  0  0  0  0
 36 68  1  0  0  0  0
 36 73  1  0  0  0  0
 36 84  2  0  0  0  0
 37 69  1  0  0  0  0
 37 78  1  0  0  0  0
 37 85  2  0  0  0  0
 38 74  1  0  0  0  0
 38 79  1  0  0  0  0
 38 86  2  0  0  0  0
 39 42  1  0  0  0  0
 40 53  1  0  0  0  0
 41 73  1  0  0  0  0
 42 44  1  0  0  0  0
 43 45  1  0  0  0  0
 43 48  1  0  0  0  0
 44 52  1  0  0  0  0
 45 54  1  0  0  0  0
 46 50  1  0  0  0  0
 46 55  1  0  0  0  0
 47 51  1  0  0  0  0
 47 55  1  0  0  0  0
 48 74  1  0  0  0  0
 49 54  1  0  0  0  0
 49 74  1  0  0  0  0
 50 80  1  0  0  0  0
 51 80  1  0  0  0  0
 52 77  1  0  0  0  0
 53 73  1  0  0  0  0
 54 72  1  0  0  0  0
 55 79  1  0  0  0  0
 60 69  1  0  0  0  0
 61 70  1  0  0  0  0
 62 70  1  0  0  0  0
 63 70  1  0  0  0  0
 64 79  1  0  0  0  0
 65 81  1  0  0  0  0
 66 80  1  0  0  0  0
 67 88  1  0  0  0  0
 68 70  1  0  0  0  0
 68 78  1  0  0  0  0
 69 81  1  0  0  0  0
 71 72  1  0  0  0  0
M  CHG  2  80   1  81   1
M  ISO  4  38 100  67 101  79 100  88 101
M  END
> <Batch ID>
0167

> <Smiles>
CNC(C)C(=O)NC(C(=O)N1Cc2cc([101O:1][101CH2:1]c3c(C)c(C)c(CN4CCC([100N:0](C)[100C:0](=O)N5CCCC(n6nc(-c7ccc(Oc8ccc(F)cc8F)cc7)c(C(N)=O)c6N)C5)CC4)c(C)c3C)ccc2CC1C(=O)NC1CCCc2ccccc21)C(C)(C)C

> <Shape>
0.307

> <Color>
0.093

> <Negative vol penalty>
0.000

$$$$

  -OEChem-04052322273D

 89 99  0     1  0  0  0  0  0999 V2000
  -23.7689  -11.1275   18.0270 C   0  0  0  0  0  0  0  0  0  0  0  0
  -24.3756  -12.1895   17.3640 C   0  0  0  0  0  0  0  0  0  0  0  0
  -20.9208  -32.1808   23.8484 C   0  0  0  0  0  0  0  0  0  0  0  0
  -21.5892  -31.6224   26.1019 C   0  0  0  0  0  0  0  0  0  0  0  0
  -23.2937  -11.2985   19.3265 C   0  0  0  0  0  0  0  0  0  0  0  0
  -24.5065  -13.4235   18.0000 C   0  0  0  0  0  0  0  0  0  0  0  0
  -28.8930  -19.0748   18.3719 C   0  0  0  0  0  0  0  0  0  0  0  0
  -20.0963  -31.0562   23.8143 C   0  0  0  0  0  0  0  0  0  0  0  0
  -20.7647  -30.4978   26.0678 C   0  0  0  0  0  0  0  0  0  0  0  0
  -28.8703  -20.4647   18.2648 C   0  0  0  0  0  0  0  0  0  0  0  0
  -18.0904  -28.1333   23.0041 C   0  0  0  0  0  0  0  0  0  0  0  0
  -18.1251  -27.3363   21.8600 C   0  0  0  0  0  0  0  0  0  0  0  0
  -28.0834  -20.6212   20.5397 C   0  0  0  0  0  0  0  0  0  0  0  0
  -25.9432  -27.9816   18.6378 C   0  0  0  0  0  0  0  0  0  0  0  0
  -27.5015  -28.1231   20.4785 C   0  0  0  0  0  0  0  0  0  0  0  0
  -20.4789  -26.9255   22.2175 C   0  0  0  0  0  0  0  0  0  0  0  0
  -21.6673  -32.4639   24.9922 C   0  0  0  0  0  0  0  0  0  0  0  0
  -22.1724  -34.9217   25.4523 C   0  0  0  0  0  0  0  0  0  0  0  0
  -23.4276  -12.5325   19.9823 C   0  0  0  0  0  0  0  0  0  0  0  0
  -28.4999  -18.4462   19.5622 C   0  0  0  0  0  0  0  0  0  0  0  0
  -24.0315  -13.6116   19.3091 C   0  0  0  0  0  0  0  0  0  0  0  0
  -28.1044  -19.2233   20.6603 C   0  0  0  0  0  0  0  0  0  0  0  0
  -25.4064  -29.3224   20.5746 C   0  0  0  0  0  0  0  0  0  0  0  0
  -27.1610  -27.6290   19.2193 C   0  0  0  0  0  0  0  0  0  0  0  0
  -25.0659  -28.8284   19.3154 C   0  0  0  0  0  0  0  0  0  0  0  0
  -26.6243  -28.9698   21.1562 C   0  0  0  0  0  0  0  0  0  0  0  0
  -20.0183  -30.2147   24.9240 C   0  0  0  0  0  0  0  0  0  0  0  0
  -28.4628  -21.2380   19.3478 C   0  0  0  0  0  0  0  0  0  0  0  0
  -19.2499  -28.3265   23.7550 C   0  0  0  0  0  0  0  0  0  0  0  0
  -19.3193  -26.7324   21.4667 C   0  0  0  0  0  0  0  0  0  0  0  0
  -20.4442  -27.7226   23.3617 C   0  0  0  0  0  0  0  0  0  0  0  0
  -22.5196  -33.6251   25.0279 C   0  0  0  0  0  0  0  0  0  0  0  0
  -23.3231  -35.6546   25.2935 C   0  0  0  0  0  0  0  0  0  0  0  0
  -20.9216  -35.4191   25.9461 C   0  0  0  0  0  0  0  0  0  0  0  0
  -26.1926  -16.4146   20.3700 C   0  0  0  0  0  0  0  0  0  0  0  0
  -27.7297  -16.4123   23.2266 C   0  0  0  0  0  0  0  0  0  0  0  0
  -29.8023  -18.0296   25.4026 C   0  0  0  0  0  0  0  0  0  0  0  0
  -26.7494  -31.6505   23.6883 C   0  0  0  0  0  0  0  0  0  0  0  0
  -22.8561  -12.6830   21.3699 C   0  0  0  0  0  0  0  0  0  0  0  0
  -28.5555  -16.9470   19.6705 C   0  0  0  0  0  0  0  0  0  0  0  0
  -27.6922  -18.5980   21.9670 C   0  0  0  0  0  0  0  0  0  0  0  0
  -23.3700  -13.9152   22.1100 C   0  0  0  0  0  0  0  0  0  0  0  0
  -27.1527  -35.2427   22.3808 C   0  0  0  0  0  0  0  0  0  0  0  0
  -24.0213  -29.8570   22.6887 C   0  0  0  0  0  0  0  0  0  0  0  0
  -23.0552  -29.7707   21.5488 C   0  0  0  0  0  0  0  0  0  0  0  0
  -23.3177  -15.1419   21.2049 C   0  0  0  0  0  0  0  0  0  0  0  0
  -30.3387  -26.8821   17.1013 C   0  0  0  0  0  0  0  0  0  0  0  0
  -29.6901  -28.2370   17.0420 C   0  0  0  0  0  0  0  0  0  0  0  0
  -25.8258  -35.6408   23.0149 C   0  0  0  0  0  0  0  0  0  0  0  0
  -27.2736  -33.7227   22.3183 C   0  0  0  0  0  0  0  0  0  0  0  0
  -26.6393  -33.8999   24.7275 C   0  0  0  0  0  0  0  0  0  0  0  0
  -24.4658  -30.2303   21.3012 C   0  0  0  0  0  0  0  0  0  0  0  0
  -24.2143  -14.9584   19.9745 C   0  0  1  0  0  0  0  0  0  0  0  0
  -27.6434  -16.3925   20.7605 C   0  0  1  0  0  0  0  0  0  0  0  0
  -29.4750  -27.3525   18.2386 C   0  0  0  0  0  0  0  0  0  0  0  0
  -25.6992  -35.0911   24.4497 C   0  0  2  0  0  0  0  0  0  0  0  0
  -23.7685  -29.1896   18.6689 C   0  0  0  0  0  0  0  0  0  0  0  0
  -30.8449  -17.7952   27.6732 C   0  0  0  0  0  0  0  0  0  0  0  0
  -25.0584  -17.1147   24.5230 C   0  0  0  0  0  0  0  0  0  0  0  0
  -26.3140  -17.7903   26.5809 C   0  0  0  0  0  0  0  0  0  0  0  0
  -26.4162  -15.4307   25.7779 C   0  0  0  0  0  0  0  0  0  0  0  0
  -32.5400  -18.1007   24.2806 C   0  0  0  0  0  0  0  0  0  0  0  0
  -27.0146  -29.4842   22.5034 C   0  0  0  0  0  0  0  0  0  0  0  0
  -27.1057  -24.5935   19.3456 C   0  0  0  0  0  0  0  0  0  0  0  0
  -27.4666  -23.2881   20.0267 C   0  0  0  0  0  0  0  0  0  1  0  0
  -28.1115  -26.7117   18.4852 C   0  0  1  0  0  0  0  0  0  0  0  0
  -27.6374  -17.2319   24.4909 C   0  0  1  0  0  0  0  0  0  0  0  0
  -31.0150  -17.5530   26.1815 C   0  0  2  0  0  0  0  0  0  0  0  0
  -26.3624  -16.9039   25.3181 C   0  0  0  0  0  0  0  0  0  0  0  0
  -23.7912  -33.5363   24.6292 N   0  0  0  0  0  0  0  0  0  0  0  0
  -24.2532  -34.7863   24.8023 N   0  0  0  0  0  0  0  0  0  0  0  0
  -27.7575  -17.1282   22.0214 N   0  0  0  0  0  0  0  0  0  0  0  0
  -26.8558  -33.0492   23.5555 N   0  0  0  0  0  0  0  0  0  0  0  0
  -23.6199  -36.9506   25.5273 N   0  0  0  0  0  0  0  0  0  0  0  0
  -19.8419  -34.5311   26.0455 N   0  0  0  0  0  0  0  0  0  0  0  0
  -25.6029  -15.1657   20.3256 N   0  0  0  0  0  0  0  0  0  0  0  0
  -28.8882  -17.0154   25.2100 N   0  0  0  0  0  0  0  0  0  0  0  0
  -27.0717  -30.9276   22.5426 N   0  0  0  0  0  0  0  0  0  0  0  0
  -32.2386  -18.2711   25.7253 N   0  3  0  0  0  0  0  0  0  0  0  0
  -28.3283  -25.4222   19.1952 N   0  3  0  0  0  0  0  0  0  0  0  0
  -20.7615  -36.6194   26.2735 O   0  0  0  0  0  0  0  0  0  0  0  0
  -25.6482  -17.4856   20.1285 O   0  0  0  0  0  0  0  0  0  0  0  0
  -27.7826  -15.1824   23.3057 O   0  0  0  0  0  0  0  0  0  0  0  0
  -29.6767  -19.1868   25.0081 O   0  0  0  0  0  0  0  0  0  0  0  0
  -26.3970  -31.0967   24.7340 O   0  0  0  0  0  0  0  0  0  0  0  0
  -19.2137  -29.1174   24.8911 O   0  0  0  0  0  0  0  0  0  0  0  0
  -28.4391  -22.5948   19.2457 O   0  0  0  0  0  0  0  0  0  1  0  0
  -19.3522  -25.9658   20.3687 F   0  0  0  0  0  0  0  0  0  0  0  0
  -21.5611  -27.9035   24.0797 F   0  0  0  0  0  0  0  0  0  0  0  0
  1  2  1  0  0  0  0
  1  5  2  0  0  0  0
  2  6  2  0  0  0  0
  3  8  2  0  0  0  0
  3 17  1  0  0  0  0
  4  9  1  0  0  0  0
  4 17  2  0  0  0  0
  5 19  1  0  0  0  0
  6 21  1  0  0  0  0
  7 10  2  0  0  0  0
  7 20  1  0  0  0  0
  8 27  1  0  0  0  0
  9 27  2  0  0  0  0
 10 28  1  0  0  0  0
 11 12  2  0  0  0  0
 11 29  1  0  0  0  0
 12 30  1  0  0  0  0
 13 22  1  0  0  0  0
 13 28  2  0  0  0  0
 14 24  1  0  0  0  0
 14 25  2  0  0  0  0
 15 24  2  0  0  0  0
 15 26  1  0  0  0  0
 16 30  2  0  0  0  0
 16 31  1  0  0  0  0
 17 32  1  0  0  0  0
 18 32  1  0  0  0  0
 18 33  2  0  0  0  0
 18 34  1  0  0  0  0
 19 21  2  0  0  0  0
 19 39  1  0  0  0  0
 20 22  2  0  0  0  0
 20 40  1  0  0  0  0
 21 53  1  0  0  0  0
 22 41  1  0  0  0  0
 23 25  1  0  0  0  0
 23 26  2  0  0  0  0
 23 52  1  0  0  0  0
 24 66  1  0  0  0  0
 25 57  1  0  0  0  0
 26 63  1  0  0  0  0
 27 86  1  0  0  0  0
 28 87  1  0  0  0  0
 29 31  2  0  0  0  0
 29 86  1  0  0  0  0
 30 88  1  0  0  0  0
 31 89  1  0  0  0  0
 32 70  2  0  0  0  0
 33 71  1  0  0  0  0
 33 74  1  0  0  0  0
 34 75  1  0  0  0  0
 34 81  2  0  0  0  0
 35 54  1  0  0  0  0
 35 76  1  0  0  0  0
 35 82  2  0  0  0  0
 36 67  1  0  0  0  0
 36 72  1  0  0  0  0
 36 83  2  0  0  0  0
 37 68  1  0  0  0  0
 37 77  1  0  0  0  0
 37 84  2  0  0  0  0
 38 73  1  0  0  0  0
 38 78  1  0  0  0  0
 38 85  2  0  0  0  0
 39 42  1  0  0  0  0
 40 54  1  0  0  0  0
 41 72  1  0  0  0  0
 42 46  1  0  0  0  0
 43 49  1  0  0  0  0
 43 50  1  0  0  0  0
 44 45  1  0  0  0  0
 44 52  1  0  0  0  0
 45 52  1  0  0  0  0
 46 53  1  0  0  0  0
 47 48  1  0  0  0  0
 47 55  1  0  0  0  0
 48 55  1  0  0  0  0
 49 56  1  0  0  0  0
 50 73  1  0  0  0  0
 51 56  1  0  0  0  0
 51 73  1  0  0  0  0
 53 76  1  0  0  0  0
 54 72  1  0  0  0  0
 55 66  1  0  0  0  0
 56 71  1  0  0  0  0
 58 68  1  0  0  0  0
 59 69  1  0  0  0  0
 60 69  1  0  0  0  0
 61 69  1  0  0  0  0
 62 79  1  0  0  0  0
 63 78  1  0  0  0  0
 64 65  1  0  0  0  0
 64 80  1  0  0  0  0
 65 87  1  0  0  0  0
 66 80  1  0  0  0  0
 67 69  1  0  0  0  0
 67 77  1  0  0  0  0
 68 79  1  0  0  0  0
 70 71  1  0  0  0  0
M  CHG  2  79   1  80   1
M  ISO  4  38 100  65 101  78 100  87 101
M  END
> <Batch ID>
0167

> <Smiles>
CNC(C)C(=O)NC(C(=O)N1Cc2cc([101O:1][101CH2:1]CNC(c3cc(C)c(C4CC4)c(C[100NH:0][100C:0](=O)N4CCCC(n5nc(-c6ccc(Oc7ccc(F)cc7F)cc6)c(C(N)=O)c5N)C4)c3)C3CC3)ccc2CC1C(=O)NC1CCCc2ccccc21)C(C)(C)C

> <Shape>
0.266

> <Color>
0.065

> <Negative vol penalty>
0.000

$$$$

  -OEChem-04052322273D

 86 96  0     1  0  0  0  0  0999 V2000
  -21.7987  -12.2406   19.4810 C   0  0  0  0  0  0  0  0  0  0  0  0
  -21.6644  -13.5084   20.0378 C   0  0  0  0  0  0  0  0  0  0  0  0
  -24.4914  -26.6138   15.3770 C   0  0  0  0  0  0  0  0  0  0  0  0
  -26.8630  -26.3473   15.7537 C   0  0  0  0  0  0  0  0  0  0  0  0
  -23.0346  -11.5959   19.5080 C   0  0  0  0  0  0  0  0  0  0  0  0
  -22.7659  -14.1318   20.6230 C   0  0  0  0  0  0  0  0  0  0  0  0
  -23.1905  -18.9941   19.2729 C   0  0  0  0  0  0  0  0  0  0  0  0
  -24.6936  -26.4728   14.0041 C   0  0  0  0  0  0  0  0  0  0  0  0
  -27.0652  -26.2063   14.3807 C   0  0  0  0  0  0  0  0  0  0  0  0
  -22.3472  -19.9065   19.9053 C   0  0  0  0  0  0  0  0  0  0  0  0
  -28.2524  -26.1355   10.9463 C   0  0  0  0  0  0  0  0  0  0  0  0
  -29.3133  -26.8355   10.3719 C   0  0  0  0  0  0  0  0  0  0  0  0
  -21.6716  -24.5979   23.2656 C   0  0  0  0  0  0  0  0  0  0  0  0
  -24.1490  -20.5419   21.3781 C   0  0  0  0  0  0  0  0  0  0  0  0
  -28.3304  -28.9201   11.0971 C   0  0  0  0  0  0  0  0  0  0  0  0
  -25.5761  -26.5511   16.2518 C   0  0  0  0  0  0  0  0  0  0  0  0
  -25.1054  -25.6740   18.6006 C   0  0  0  0  0  0  0  0  0  0  0  0
  -24.1541  -12.2158   20.0852 C   0  0  0  0  0  0  0  0  0  0  0  0
  -24.5186  -18.8407   19.6961 C   0  0  0  0  0  0  0  0  0  0  0  0
  -24.0177  -13.4943   20.6590 C   0  0  0  0  0  0  0  0  0  0  0  0
  -20.6761  -25.4187   23.8304 C   0  0  0  0  0  0  0  0  0  0  0  0
  -25.0079  -19.6287   20.7477 C   0  0  0  0  0  0  0  0  0  0  0  0
  -20.3745  -22.6905   23.7942 C   0  0  0  0  0  0  0  0  0  0  0  0
  -19.4034  -23.4913   24.3452 C   0  0  0  0  0  0  0  0  0  0  0  0
  -21.5234  -23.2087   23.2445 C   0  0  0  0  0  0  0  0  0  0  0  0
  -19.5196  -24.8609   24.3815 C   0  0  0  0  0  0  0  0  0  0  0  0
  -25.9805  -26.2690   13.5060 C   0  0  0  0  0  0  0  0  0  0  0  0
  -22.8255  -20.6785   20.9600 C   0  0  0  0  0  0  0  0  0  0  0  0
  -27.2304  -26.8277   11.5960 C   0  0  0  0  0  0  0  0  0  0  0  0
  -29.3524  -28.2278   10.4474 C   0  0  0  0  0  0  0  0  0  0  0  0
  -27.2694  -28.2200   11.6714 C   0  0  0  0  0  0  0  0  0  0  0  0
  -25.3680  -26.6972   17.6700 C   0  0  0  0  0  0  0  0  0  0  0  0
  -24.9884  -26.3259   19.8038 C   0  0  0  0  0  0  0  0  0  0  0  0
  -24.9787  -24.2606   18.3956 C   0  0  0  0  0  0  0  0  0  0  0  0
  -26.2250  -16.4472   20.9056 C   0  0  0  0  0  0  0  0  0  0  0  0
  -28.6743  -18.5509   20.5926 C   0  0  0  0  0  0  0  0  0  0  0  0
  -29.6916  -21.8010   20.3718 C   0  0  0  0  0  0  0  0  0  0  0  0
  -23.2142  -30.4325   22.9507 C   0  0  0  0  0  0  0  0  0  0  0  0
  -25.4583  -11.4599   20.1329 C   0  0  0  0  0  0  0  0  0  0  0  0
  -25.4231  -17.8712   18.9860 C   0  0  0  0  0  0  0  0  0  0  0  0
  -19.6296  -21.4220   24.0861 C   0  0  0  0  0  0  0  0  0  0  0  0
  -18.5229  -22.3342   24.7132 C   0  0  0  0  0  0  0  0  0  0  0  0
  -26.4313  -19.5165   21.2268 C   0  0  0  0  0  0  0  0  0  0  0  0
  -26.6643  -12.3447   20.4382 C   0  0  0  0  0  0  0  0  0  0  0  0
  -26.0624  -31.0875   21.1040 C   0  0  0  0  0  0  0  0  0  0  0  0
  -26.3616  -13.2741   21.6093 C   0  0  0  0  0  0  0  0  0  0  0  0
  -26.1275  -29.9239   20.1147 C   0  0  0  0  0  0  0  0  0  0  0  0
  -22.1163  -27.3346   24.6515 C   0  0  0  0  0  0  0  0  0  0  0  0
  -20.9693  -27.4901   22.4019 C   0  0  0  0  0  0  0  0  0  0  0  0
  -24.6300  -31.5810   21.2738 C   0  0  0  0  0  0  0  0  0  0  0  0
  -22.3291  -28.8462   24.6218 C   0  0  0  0  0  0  0  0  0  0  0  0
  -21.2060  -28.9974   22.4236 C   0  0  0  0  0  0  0  0  0  0  0  0
  -23.7260  -29.3475   20.7183 C   0  0  0  0  0  0  0  0  0  0  0  0
  -20.8832  -26.9218   23.8294 C   0  0  0  0  0  0  0  0  0  0  0  0
  -25.1950  -14.2136   21.2808 C   0  0  1  0  0  0  0  0  0  0  0  0
  -26.6105  -17.4294   19.8359 C   0  0  1  0  0  0  0  0  0  0  0  0
  -25.1540  -28.8021   20.5171 C   0  0  1  0  0  0  0  0  0  0  0  0
  -18.4451  -25.6919   24.9868 C   0  0  0  0  0  0  0  0  0  0  0  0
  -31.7587  -23.2081   20.1612 C   0  0  0  0  0  0  0  0  0  0  0  0
  -29.2993  -18.0695   23.5401 C   0  0  0  0  0  0  0  0  0  0  0  0
  -30.7018  -20.1433   23.5095 C   0  0  0  0  0  0  0  0  0  0  0  0
  -31.3081  -18.2082   22.0568 C   0  0  0  0  0  0  0  0  0  0  0  0
  -28.7964  -22.9357   17.7892 C   0  0  0  0  0  0  0  0  0  0  0  0
  -22.5625  -22.3273   22.6535 C   0  0  0  0  0  0  0  0  0  1  0  0
  -29.2898  -19.6135   21.4707 C   0  0  1  0  0  0  0  0  0  0  0  0
  -30.6420  -22.4961   19.4137 C   0  0  2  0  0  0  0  0  0  0  0  0
  -30.1223  -19.0096   22.6368 C   0  0  0  0  0  0  0  0  0  0  0  0
  -25.4149  -27.9072   18.2337 N   0  0  0  0  0  0  0  0  0  0  0  0
  -25.1802  -27.6485   19.5314 N   0  0  0  0  0  0  0  0  0  0  0  0
  -27.2750  -18.5500   20.5045 N   0  0  0  0  0  0  0  0  0  0  0  0
  -23.7362  -30.4856   21.6493 N   0  0  0  0  0  0  0  0  0  0  0  0
  -22.3675  -29.3526   23.2504 N   0  0  0  0  0  0  0  0  0  0  0  0
  -24.7411  -25.8912   21.0577 N   0  0  0  0  0  0  0  0  0  0  0  0
  -25.1279  -23.7579   17.0959 N   0  0  0  0  0  0  0  0  0  0  0  0
  -25.6400  -15.2916   20.4240 N   0  0  0  0  0  0  0  0  0  0  0  0
  -30.0503  -20.4865   20.5831 N   0  0  0  0  0  0  0  0  0  0  0  0
  -29.9083  -23.5024   18.5951 N   0  3  0  0  0  0  0  0  0  0  0  0
  -24.7240  -23.4689   19.3346 O   0  0  0  0  0  0  0  0  0  0  0  0
  -26.4436  -16.7170   22.0808 O   0  0  0  0  0  0  0  0  0  0  0  0
  -29.4084  -17.7556   20.0008 O   0  0  0  0  0  0  0  0  0  0  0  0
  -28.7296  -22.3685   20.8846 O   0  0  0  0  0  0  0  0  0  0  0  0
  -23.4903  -31.2924   23.7964 O   0  0  0  0  0  0  0  0  0  0  0  0
  -26.1781  -26.1312   12.1664 O   0  0  0  0  0  0  0  0  0  0  0  0
  -21.9992  -21.5749   21.5833 O   0  0  0  0  0  0  0  0  0  1  0  0
  -30.3721  -28.8999    9.8971 F   0  0  0  0  0  0  0  0  0  0  0  0
  -26.2911  -28.8904   12.2953 F   0  0  0  0  0  0  0  0  0  0  0  0
  1  2  1  0  0  0  0
  1  5  2  0  0  0  0
  2  6  2  0  0  0  0
  3  8  2  0  0  0  0
  3 16  1  0  0  0  0
  4  9  1  0  0  0  0
  4 16  2  0  0  0  0
  5 18  1  0  0  0  0
  6 20  1  0  0  0  0
  7 10  2  0  0  0  0
  7 19  1  0  0  0  0
  8 27  1  0  0  0  0
  9 27  2  0  0  0  0
 10 28  1  0  0  0  0
 11 12  2  0  0  0  0
 11 29  1  0  0  0  0
 12 30  1  0  0  0  0
 13 21  2  0  0  0  0
 13 25  1  0  0  0  0
 14 22  1  0  0  0  0
 14 28  2  0  0  0  0
 15 30  2  0  0  0  0
 15 31  1  0  0  0  0
 16 32  1  0  0  0  0
 17 32  1  0  0  0  0
 17 33  2  0  0  0  0
 17 34  1  0  0  0  0
 18 20  2  0  0  0  0
 18 39  1  0  0  0  0
 19 22  2  0  0  0  0
 19 40  1  0  0  0  0
 20 55  1  0  0  0  0
 21 26  1  0  0  0  0
 21 54  1  0  0  0  0
 22 43  1  0  0  0  0
 23 24  1  0  0  0  0
 23 25  2  0  0  0  0
 23 41  1  0  0  0  0
 24 26  2  0  0  0  0
 24 42  1  0  0  0  0
 25 64  1  0  0  0  0
 26 58  1  0  0  0  0
 27 83  1  0  0  0  0
 28 84  1  0  0  0  0
 29 31  2  0  0  0  0
 29 83  1  0  0  0  0
 30 85  1  0  0  0  0
 31 86  1  0  0  0  0
 32 68  2  0  0  0  0
 33 69  1  0  0  0  0
 33 73  1  0  0  0  0
 34 74  1  0  0  0  0
 34 78  2  0  0  0  0
 35 56  1  0  0  0  0
 35 75  1  0  0  0  0
 35 79  2  0  0  0  0
 36 65  1  0  0  0  0
 36 70  1  0  0  0  0
 36 80  2  0  0  0  0
 37 66  1  0  0  0  0
 37 76  1  0  0  0  0
 37 81  2  0  0  0  0
 38 71  1  0  0  0  0
 38 72  1  0  0  0  0
 38 82  2  0  0  0  0
 39 44  1  0  0  0  0
 40 56  1  0  0  0  0
 41 42  1  0  0  0  0
 43 70  1  0  0  0  0
 44 46  1  0  0  0  0
 45 47  1  0  0  0  0
 45 50  1  0  0  0  0
 46 55  1  0  0  0  0
 47 57  1  0  0  0  0
 48 51  1  0  0  0  0
 48 54  1  0  0  0  0
 49 52  1  0  0  0  0
 49 54  1  0  0  0  0
 50 71  1  0  0  0  0
 51 72  1  0  0  0  0
 52 72  1  0  0  0  0
 53 57  1  0  0  0  0
 53 71  1  0  0  0  0
 55 75  1  0  0  0  0
 56 70  1  0  0  0  0
 57 69  1  0  0  0  0
 59 66  1  0  0  0  0
 60 67  1  0  0  0  0
 61 67  1  0  0  0  0
 62 67  1  0  0  0  0
 63 77  1  0  0  0  0
 64 84  1  0  0  0  0
 65 67  1  0  0  0  0
 65 76  1  0  0  0  0
 66 77  1  0  0  0  0
 68 69  1  0  0  0  0
M  CHG  1  77   1
M  ISO  4  38 100  64 101  72 100  84 101
M  END
> <Batch ID>
0167

> <Smiles>
CNC(C)C(=O)NC(C(=O)N1Cc2cc([101O:1][101CH2:1]c3cc(C4CC[100N:0]([100C:0](=O)N5CCCC(n6nc(-c7ccc(Oc8ccc(F)cc8F)cc7)c(C(N)=O)c6N)C5)CC4)c(C)c4c3CC4)ccc2CC1C(=O)NC1CCCc2ccccc21)C(C)(C)C

> <Shape>
0.195

> <Color>
0.074

> <Negative vol penalty>
0.000

$$$$

  -OEChem-04052322273D

 88 98  0     1  0  0  0  0  0999 V2000
  -18.6815  -25.4733   25.1579 C   0  0  0  0  0  0  0  0  0  0  0  0
  -20.0627  -25.6399   25.1566 C   0  0  0  0  0  0  0  0  0  0  0  0
  -24.1725  -10.2644   22.1494 C   0  0  0  0  0  0  0  0  0  0  0  0
  -24.4854   -9.3330   19.9423 C   0  0  0  0  0  0  0  0  0  0  0  0
  -17.8996  -26.1364   24.2129 C   0  0  0  0  0  0  0  0  0  0  0  0
  -20.6629  -26.4688   24.2095 C   0  0  0  0  0  0  0  0  0  0  0  0
  -24.1763  -29.5036   26.2323 C   0  0  0  0  0  0  0  0  0  0  0  0
  -23.1043   -9.3939   22.3654 C   0  0  0  0  0  0  0  0  0  0  0  0
  -23.4171   -8.4624   20.1582 C   0  0  0  0  0  0  0  0  0  0  0  0
  -25.4192  -28.9387   26.5150 C   0  0  0  0  0  0  0  0  0  0  0  0
  -22.6667   -6.1428   23.1850 C   0  0  0  0  0  0  0  0  0  0  0  0
  -22.6084   -5.4799   24.4108 C   0  0  0  0  0  0  0  0  0  0  0  0
  -26.7870  -25.8555   22.8389 C   0  0  0  0  0  0  0  0  0  0  0  0
  -28.2959  -24.1729   23.6925 C   0  0  0  0  0  0  0  0  0  0  0  0
  -26.3051  -29.8841   24.4802 C   0  0  0  0  0  0  0  0  0  0  0  0
  -27.2864  -23.8973   21.5149 C   0  0  0  0  0  0  0  0  0  0  0  0
  -20.4671   -6.5036   24.8626 C   0  0  0  0  0  0  0  0  0  0  0  0
  -24.8631  -10.2340   20.9378 C   0  0  0  0  0  0  0  0  0  0  0  0
  -27.3243  -10.9017   21.0039 C   0  0  0  0  0  0  0  0  0  0  0  0
  -18.4897  -26.9814   23.2598 C   0  0  0  0  0  0  0  0  0  0  0  0
  -23.9853  -30.2551   25.0639 C   0  0  0  0  0  0  0  0  0  0  0  0
  -19.8884  -27.1428   23.2501 C   0  0  0  0  0  0  0  0  0  0  0  0
  -27.6264  -25.3865   23.8493 C   0  0  0  0  0  0  0  0  0  0  0  0
  -25.0595  -30.4596   24.1862 C   0  0  0  0  0  0  0  0  0  0  0  0
  -26.6169  -25.1109   21.6717 C   0  0  0  0  0  0  0  0  0  0  0  0
  -28.1259  -23.4283   22.5253 C   0  0  0  0  0  0  0  0  0  0  0  0
  -22.7266   -8.4929   21.3698 C   0  0  0  0  0  0  0  0  0  0  0  0
  -26.4831  -29.1265   25.6375 C   0  0  0  0  0  0  0  0  0  0  0  0
  -21.6253   -6.9863   22.7980 C   0  0  0  0  0  0  0  0  0  0  0  0
  -21.5086   -5.6602   25.2496 C   0  0  0  0  0  0  0  0  0  0  0  0
  -20.5255   -7.1667   23.6367 C   0  0  0  0  0  0  0  0  0  0  0  0
  -25.9663  -11.1333   20.7139 C   0  0  0  0  0  0  0  0  0  0  0  0
  -27.9611  -12.0523   20.6077 C   0  0  0  0  0  0  0  0  0  0  0  0
  -27.9537   -9.7494   21.5799 C   0  0  0  0  0  0  0  0  0  0  0  0
  -22.1420  -29.9706   22.4900 C   0  0  0  0  0  0  0  0  0  0  0  0
  -23.3556  -32.8932   21.7772 C   0  0  0  0  0  0  0  0  0  0  0  0
  -25.8783  -35.1575   22.1718 C   0  0  0  0  0  0  0  0  0  0  0  0
  -28.4433  -17.3897   20.3158 C   0  0  0  0  0  0  0  0  0  0  0  0
  -17.6080  -27.6399   22.2285 C   0  0  0  0  0  0  0  0  0  0  0  0
  -22.6456  -30.8802   24.7867 C   0  0  0  0  0  0  0  0  0  0  0  0
  -24.9118  -31.2752   22.9286 C   0  0  0  0  0  0  0  0  0  0  0  0
  -18.2861  -28.7942   21.4950 C   0  0  0  0  0  0  0  0  0  0  0  0
  -26.2985  -15.9893   17.9143 C   0  0  0  0  0  0  0  0  0  0  0  0
  -19.6887  -28.3931   21.0495 C   0  0  0  0  0  0  0  0  0  0  0  0
  -26.1255  -14.5695   18.4531 C   0  0  0  0  0  0  0  0  0  0  0  0
  -27.3576  -20.6028   21.2568 C   0  0  0  0  0  0  0  0  0  0  0  0
  -29.8714  -20.4476   21.1000 C   0  0  0  0  0  0  0  0  0  0  0  0
  -29.2106  -26.6523   25.4423 C   0  0  0  0  0  0  0  0  0  0  0  0
  -26.2869  -17.0324   19.0332 C   0  0  0  0  0  0  0  0  0  0  0  0
  -27.2412  -19.6107   20.0958 C   0  0  0  0  0  0  0  0  0  0  0  0
  -29.7060  -19.4842   19.9281 C   0  0  0  0  0  0  0  0  0  0  0  0
  -27.0886  -15.3437   20.6531 C   0  0  0  0  0  0  0  0  0  0  0  0
  -20.5742  -28.0530   22.2544 C   0  0  1  0  0  0  0  0  0  0  0  0
  -22.4278  -31.1966   23.3103 C   0  0  1  0  0  0  0  0  0  0  0  0
  -27.1545  -14.2686   19.5573 C   0  0  1  0  0  0  0  0  0  0  0  0
  -28.6686  -21.3900   21.1945 C   0  0  0  0  0  0  0  0  0  0  0  0
  -28.2079  -27.6454   24.9395 C   0  0  1  0  0  0  0  0  0  1  0  0
  -27.8083  -26.1824   25.0956 C   0  0  1  0  0  0  0  0  0  0  0  0
  -25.7199  -25.6124   20.5908 C   0  0  0  0  0  0  0  0  0  0  0  0
  -26.9035  -25.7850   26.2319 C   0  0  0  0  0  0  0  0  0  0  0  0
  -26.6078  -37.4423   21.4338 C   0  0  0  0  0  0  0  0  0  0  0  0
  -24.1762  -31.7534   19.0685 C   0  0  0  0  0  0  0  0  0  0  0  0
  -25.6932  -33.7237   18.7772 C   0  0  0  0  0  0  0  0  0  0  0  0
  -23.2311  -34.0673   18.9836 C   0  0  0  0  0  0  0  0  0  0  0  0
  -25.8436  -36.1913   24.9447 C   0  0  0  0  0  0  0  0  0  0  0  0
  -24.5640  -33.3942   21.0238 C   0  0  1  0  0  0  0  0  0  0  0  0
  -25.8589  -36.6421   22.4881 C   0  0  2  0  0  0  0  0  0  0  0  0
  -24.4187  -33.2176   19.4859 C   0  0  0  0  0  0  0  0  0  0  0  0
  -25.7521  -12.3366   20.1752 N   0  0  0  0  0  0  0  0  0  0  0  0
  -26.9839  -12.8714   20.1236 N   0  0  0  0  0  0  0  0  0  0  0  0
  -23.5807  -31.8605   22.6985 N   0  0  0  0  0  0  0  0  0  0  0  0
  -27.2551  -16.6817   20.0816 N   0  0  0  0  0  0  0  0  0  0  0  0
  -28.4374  -18.7601   20.0160 N   0  0  0  0  0  0  0  0  0  0  0  0
  -29.2560  -12.4332   20.6297 N   0  0  0  0  0  0  0  0  0  0  0  0
  -27.1516   -8.6544   21.9291 N   0  0  0  0  0  0  0  0  0  0  0  0
  -28.7896  -22.2243   22.3698 N   0  0  0  0  0  0  0  0  0  0  0  0
  -21.0297  -29.2631   22.9044 N   0  0  0  0  0  0  0  0  0  0  0  0
  -24.7675  -34.7745   21.4502 N   0  0  0  0  0  0  0  0  0  0  0  0
  -26.4942  -36.8981   23.8116 N   0  3  0  0  0  0  0  0  0  0  0  0
  -29.1887   -9.6989   21.7941 O   0  0  0  0  0  0  0  0  0  0  0  0
  -22.8754  -29.6883   21.5497 O   0  0  0  0  0  0  0  0  0  0  0  0
  -22.2538  -33.4042   21.5617 O   0  0  0  0  0  0  0  0  0  0  0  0
  -26.7896  -34.4128   22.5261 O   0  0  0  0  0  0  0  0  0  0  0  0
  -29.4508  -16.8304   20.7667 O   0  0  0  0  0  0  0  0  0  0  0  0
  -21.6844   -7.6432   21.5803 O   0  0  0  0  0  0  0  0  0  0  0  0
  -27.6994  -28.5746   25.9113 O   0  0  0  0  0  0  0  0  0  1  0  0
  -21.4520   -5.0223   26.4260 F   0  0  0  0  0  0  0  0  0  0  0  0
  -19.5215   -7.9748   23.2698 F   0  0  0  0  0  0  0  0  0  0  0  0
  1  2  1  0  0  0  0
  1  5  2  0  0  0  0
  2  6  2  0  0  0  0
  3  8  2  0  0  0  0
  3 18  1  0  0  0  0
  4  9  1  0  0  0  0
  4 18  2  0  0  0  0
  5 20  1  0  0  0  0
  6 22  1  0  0  0  0
  7 10  2  0  0  0  0
  7 21  1  0  0  0  0
  8 27  1  0  0  0  0
  9 27  2  0  0  0  0
 10 28  1  0  0  0  0
 11 12  2  0  0  0  0
 11 29  1  0  0  0  0
 12 30  1  0  0  0  0
 13 23  1  0  0  0  0
 13 25  2  0  0  0  0
 14 23  2  0  0  0  0
 14 26  1  0  0  0  0
 15 24  1  0  0  0  0
 15 28  2  0  0  0  0
 16 25  1  0  0  0  0
 16 26  2  0  0  0  0
 17 30  2  0  0  0  0
 17 31  1  0  0  0  0
 18 32  1  0  0  0  0
 19 32  1  0  0  0  0
 19 33  2  0  0  0  0
 19 34  1  0  0  0  0
 20 22  2  0  0  0  0
 20 39  1  0  0  0  0
 21 24  2  0  0  0  0
 21 40  1  0  0  0  0
 22 53  1  0  0  0  0
 23 58  1  0  0  0  0
 24 41  1  0  0  0  0
 25 59  1  0  0  0  0
 26 76  1  0  0  0  0
 27 85  1  0  0  0  0
 28 86  1  0  0  0  0
 29 31  2  0  0  0  0
 29 85  1  0  0  0  0
 30 87  1  0  0  0  0
 31 88  1  0  0  0  0
 32 69  2  0  0  0  0
 33 70  1  0  0  0  0
 33 74  1  0  0  0  0
 34 75  1  0  0  0  0
 34 80  2  0  0  0  0
 35 54  1  0  0  0  0
 35 77  1  0  0  0  0
 35 81  2  0  0  0  0
 36 66  1  0  0  0  0
 36 71  1  0  0  0  0
 36 82  2  0  0  0  0
 37 67  1  0  0  0  0
 37 78  1  0  0  0  0
 37 83  2  0  0  0  0
 38 72  1  0  0  0  0
 38 73  1  0  0  0  0
 38 84  2  0  0  0  0
 39 42  1  0  0  0  0
 40 54  1  0  0  0  0
 41 71  1  0  0  0  0
 42 44  1  0  0  0  0
 43 45  1  0  0  0  0
 43 49  1  0  0  0  0
 44 53  1  0  0  0  0
 45 55  1  0  0  0  0
 46 50  1  0  0  0  0
 46 56  1  0  0  0  0
 47 51  1  0  0  0  0
 47 56  1  0  0  0  0
 48 57  1  0  0  0  0
 48 58  1  0  0  0  0
 49 72  1  0  0  0  0
 50 73  1  0  0  0  0
 51 73  1  0  0  0  0
 52 55  1  0  0  0  0
 52 72  1  0  0  0  0
 53 77  1  0  0  0  0
 54 71  1  0  0  0  0
 55 70  1  0  0  0  0
 56 76  1  0  0  0  0
 57 58  1  0  0  0  0
 57 86  1  0  0  0  0
 58 60  1  0  0  0  0
 61 67  1  0  0  0  0
 62 68  1  0  0  0  0
 63 68  1  0  0  0  0
 64 68  1  0  0  0  0
 65 79  1  0  0  0  0
 66 68  1  0  0  0  0
 66 78  1  0  0  0  0
 67 79  1  0  0  0  0
 69 70  1  0  0  0  0
M  CHG  1  79   1
M  ISO  4  38 100  57 101  73 100  86 101
M  END
> <Batch ID>
0167

> <Smiles>
CNC(C)C(=O)NC(C(=O)N1Cc2cc([101O:1][101CH:1]3CC3(C)c3cc(C)cc(NC4CC[100N:0]([100C:0](=O)N5CCCC(n6nc(-c7ccc(Oc8ccc(F)cc8F)cc7)c(C(N)=O)c6N)C5)CC4)c3)ccc2CC1C(=O)NC1CCCc2ccccc21)C(C)(C)C

> <Shape>
0.274

> <Color>
0.123

> <Negative vol penalty>
0.000

$$$$

  -OEChem-04052322273D

 88 98  0     1  0  0  0  0  0999 V2000
  -25.3260  -37.4089   27.5118 C   0  0  0  0  0  0  0  0  0  0  0  0
  -25.0408  -36.0796   27.8070 C   0  0  0  0  0  0  0  0  0  0  0  0
  -26.5540  -12.4472   21.7907 C   0  0  0  0  0  0  0  0  0  0  0  0
  -25.8022  -13.9189   20.0283 C   0  0  0  0  0  0  0  0  0  0  0  0
  -25.3270  -37.8428   26.1868 C   0  0  0  0  0  0  0  0  0  0  0  0
  -24.7554  -35.1837   26.7773 C   0  0  0  0  0  0  0  0  0  0  0  0
  -26.2168  -29.2405   26.5580 C   0  0  0  0  0  0  0  0  0  0  0  0
  -25.3158  -11.8049   21.7826 C   0  0  0  0  0  0  0  0  0  0  0  0
  -24.5640  -13.2766   20.0201 C   0  0  0  0  0  0  0  0  0  0  0  0
  -25.4883  -28.0846   26.8354 C   0  0  0  0  0  0  0  0  0  0  0  0
  -23.7263   -9.4831   19.9076 C   0  0  0  0  0  0  0  0  0  0  0  0
  -23.7192   -8.0887   19.9414 C   0  0  0  0  0  0  0  0  0  0  0  0
  -26.7508  -22.7763   24.4658 C   0  0  0  0  0  0  0  0  0  0  0  0
  -24.9686  -27.8566   24.4908 C   0  0  0  0  0  0  0  0  0  0  0  0
  -22.4698   -8.1452   22.0085 C   0  0  0  0  0  0  0  0  0  0  0  0
  -26.7971  -13.5042   20.9136 C   0  0  0  0  0  0  0  0  0  0  0  0
  -29.2115  -13.8358   20.1594 C   0  0  0  0  0  0  0  0  0  0  0  0
  -25.0509  -36.9495   25.1396 C   0  0  0  0  0  0  0  0  0  0  0  0
  -26.3178  -29.7200   25.2441 C   0  0  0  0  0  0  0  0  0  0  0  0
  -24.7514  -35.6063   25.4371 C   0  0  0  0  0  0  0  0  0  0  0  0
  -25.9584  -22.3477   23.4009 C   0  0  0  0  0  0  0  0  0  0  0  0
  -25.7011  -29.0174   24.1990 C   0  0  0  0  0  0  0  0  0  0  0  0
  -24.5695  -22.4491   23.4801 C   0  0  0  0  0  0  0  0  0  0  0  0
  -26.1543  -23.3061   25.6100 C   0  0  0  0  0  0  0  0  0  0  0  0
  -23.9729  -22.9789   24.6243 C   0  0  0  0  0  0  0  0  0  0  0  0
  -24.7653  -23.4074   25.6892 C   0  0  0  0  0  0  0  0  0  0  0  0
  -24.3208  -12.2196   20.8973 C   0  0  0  0  0  0  0  0  0  0  0  0
  -24.8617  -27.3941   25.8021 C   0  0  0  0  0  0  0  0  0  0  0  0
  -23.1053  -10.2086   20.9243 C   0  0  0  0  0  0  0  0  0  0  0  0
  -23.0909   -7.4197   20.9918 C   0  0  0  0  0  0  0  0  0  0  0  0
  -22.4770   -9.5397   21.9747 C   0  0  0  0  0  0  0  0  0  0  0  0
  -28.0757  -14.1684   20.9219 C   0  0  0  0  0  0  0  0  0  0  0  0
  -30.1562  -14.7620   20.5287 C   0  0  0  0  0  0  0  0  0  0  0  0
  -29.3960  -12.7838   19.2029 C   0  0  0  0  0  0  0  0  0  0  0  0
  -25.4403  -32.3886   23.7566 C   0  0  0  0  0  0  0  0  0  0  0  0
  -27.0557  -31.0717   21.2709 C   0  0  0  0  0  0  0  0  0  0  0  0
  -28.2473  -28.2549   19.7568 C   0  0  0  0  0  0  0  0  0  0  0  0
  -29.6036  -20.3074   22.9033 C   0  0  0  0  0  0  0  0  0  0  0  0
  -25.0173  -37.4756   23.7265 C   0  0  0  0  0  0  0  0  0  0  0  0
  -27.1295  -30.9535   24.9579 C   0  0  0  0  0  0  0  0  0  0  0  0
  -25.7960  -29.4793   22.7686 C   0  0  0  0  0  0  0  0  0  0  0  0
  -25.0726  -36.3784   22.6667 C   0  0  0  0  0  0  0  0  0  0  0  0
  -31.4874  -17.5251   24.1720 C   0  0  0  0  0  0  0  0  0  0  0  0
  -22.6494  -20.9679   22.5895 C   0  0  0  0  0  0  0  0  0  0  0  0
  -23.8819  -20.5788   21.8346 C   0  0  0  0  0  0  0  0  0  0  0  0
  -24.0981  -35.2559   23.0089 C   0  0  0  0  0  0  0  0  0  0  0  0
  -30.8960  -16.3132   23.4594 C   0  0  0  0  0  0  0  0  0  0  0  0
  -30.4137  -18.5674   24.4544 C   0  0  0  0  0  0  0  0  0  0  0  0
  -28.1474  -22.0993   21.8234 C   0  0  0  0  0  0  0  0  0  0  0  0
  -27.1134  -20.2624   22.1114 C   0  0  0  0  0  0  0  0  0  0  0  0
  -29.1142  -17.8392   22.4708 C   0  0  0  0  0  0  0  0  0  0  0  0
  -26.6671  -21.7459   22.1019 C   0  0  0  0  0  0  0  0  0  0  0  0
  -23.7247  -21.9885   22.3353 C   0  0  0  0  0  0  0  0  0  0  0  0
  -24.4611  -34.5987   24.3460 C   0  0  1  0  0  0  0  0  0  0  0  0
  -26.7373  -31.6372   23.6517 C   0  0  1  0  0  0  0  0  0  0  0  0
  -30.1623  -16.7460   22.1820 C   0  0  2  0  0  0  0  0  0  0  0  0
  -27.0257  -23.7574   26.7361 C   0  0  0  0  0  0  0  0  0  0  0  0
  -22.4828  -23.0881   24.7108 C   0  0  0  0  0  0  0  0  0  0  0  0
  -24.4240  -23.1226   28.1659 C   0  0  0  0  0  0  0  0  0  0  0  0
  -29.4943  -27.4922   17.7170 C   0  0  0  0  0  0  0  0  0  0  0  0
  -24.5430  -31.4744   19.5873 C   0  0  0  0  0  0  0  0  0  0  0  0
  -25.4940  -29.8759   17.9115 C   0  0  0  0  0  0  0  0  0  0  0  0
  -26.6839  -32.0106   18.4111 C   0  0  0  0  0  0  0  0  0  0  0  0
  -30.4465  -27.1231   21.3821 C   0  0  0  0  0  0  0  0  0  0  0  0
  -24.5356  -25.4417   27.1806 C   0  0  0  0  0  0  0  0  0  1  0  0
  -24.1283  -23.9755   26.9180 C   0  0  1  0  0  0  0  0  0  0  0  0
  -26.6951  -30.1543   20.1275 C   0  0  1  0  0  0  0  0  0  0  0  0
  -29.6082  -27.9255   19.1703 C   0  0  2  0  0  0  0  0  0  0  0  0
  -25.8504  -30.8709   19.0365 C   0  0  0  0  0  0  0  0  0  0  0  0
  -28.2784  -15.2233   21.7157 N   0  0  0  0  0  0  0  0  0  0  0  0
  -29.5525  -15.5616   21.4540 N   0  0  0  0  0  0  0  0  0  0  0  0
  -26.5957  -30.6942   22.5405 N   0  0  0  0  0  0  0  0  0  0  0  0
  -29.6868  -18.9520   23.2410 N   0  0  0  0  0  0  0  0  0  0  0  0
  -28.4763  -20.7450   22.2459 N   0  0  0  0  0  0  0  0  0  0  0  0
  -31.4360  -14.9621   20.1489 N   0  0  0  0  0  0  0  0  0  0  0  0
  -28.3220  -11.9219   18.9423 N   0  0  0  0  0  0  0  0  0  0  0  0
  -25.5806  -33.6969   24.1785 N   0  0  0  0  0  0  0  0  0  0  0  0
  -27.9519  -29.5966   19.6397 N   0  0  0  0  0  0  0  0  0  0  0  0
  -30.2511  -26.8233   19.9403 N   0  3  0  0  0  0  0  0  0  0  0  0
  -30.4862  -12.6032   18.6094 O   0  0  0  0  0  0  0  0  0  0  0  0
  -24.3902  -31.8236   23.4742 O   0  0  0  0  0  0  0  0  0  0  0  0
  -27.7269  -32.0821   21.0470 O   0  0  0  0  0  0  0  0  0  0  0  0
  -27.5176  -27.4061   20.2645 O   0  0  0  0  0  0  0  0  0  0  0  0
  -30.4946  -21.1119   23.2065 O   0  0  0  0  0  0  0  0  0  0  0  0
  -23.1126  -11.5929   20.8889 O   0  0  0  0  0  0  0  0  0  0  0  0
  -24.1358  -26.2442   26.0754 O   0  0  0  0  0  0  0  0  0  1  0  0
  -23.0827   -6.0807   21.0233 F   0  0  0  0  0  0  0  0  0  0  0  0
  -21.8777  -10.2312   22.9537 F   0  0  0  0  0  0  0  0  0  0  0  0
  1  2  1  0  0  0  0
  1  5  2  0  0  0  0
  2  6  2  0  0  0  0
  3  8  2  0  0  0  0
  3 16  1  0  0  0  0
  4  9  1  0  0  0  0
  4 16  2  0  0  0  0
  5 18  1  0  0  0  0
  6 20  1  0  0  0  0
  7 10  2  0  0  0  0
  7 19  1  0  0  0  0
  8 27  1  0  0  0  0
  9 27  2  0  0  0  0
 10 28  1  0  0  0  0
 11 12  2  0  0  0  0
 11 29  1  0  0  0  0
 12 30  1  0  0  0  0
 13 21  1  0  0  0  0
 13 24  2  0  0  0  0
 14 22  1  0  0  0  0
 14 28  2  0  0  0  0
 15 30  2  0  0  0  0
 15 31  1  0  0  0  0
 16 32  1  0  0  0  0
 17 32  1  0  0  0  0
 17 33  2  0  0  0  0
 17 34  1  0  0  0  0
 18 20  2  0  0  0  0
 18 39  1  0  0  0  0
 19 22  2  0  0  0  0
 19 40  1  0  0  0  0
 20 54  1  0  0  0  0
 21 23  2  0  0  0  0
 21 52  1  0  0  0  0
 22 41  1  0  0  0  0
 23 25  1  0  0  0  0
 23 53  1  0  0  0  0
 24 26  1  0  0  0  0
 24 57  1  0  0  0  0
 25 26  2  0  0  0  0
 25 58  1  0  0  0  0
 26 66  1  0  0  0  0
 27 85  1  0  0  0  0
 28 86  1  0  0  0  0
 29 31  2  0  0  0  0
 29 85  1  0  0  0  0
 30 87  1  0  0  0  0
 31 88  1  0  0  0  0
 32 70  2  0  0  0  0
 33 71  1  0  0  0  0
 33 75  1  0  0  0  0
 34 76  1  0  0  0  0
 34 80  2  0  0  0  0
 35 55  1  0  0  0  0
 35 77  1  0  0  0  0
 35 81  2  0  0  0  0
 36 67  1  0  0  0  0
 36 72  1  0  0  0  0
 36 82  2  0  0  0  0
 37 68  1  0  0  0  0
 37 78  1  0  0  0  0
 37 83  2  0  0  0  0
 38 73  1  0  0  0  0
 38 74  1  0  0  0  0
 38 84  2  0  0  0  0
 39 42  1  0  0  0  0
 40 55  1  0  0  0  0
 41 72  1  0  0  0  0
 42 46  1  0  0  0  0
 43 47  1  0  0  0  0
 43 48  1  0  0  0  0
 44 45  1  0  0  0  0
 44 53  1  0  0  0  0
 45 53  1  0  0  0  0
 46 54  1  0  0  0  0
 47 56  1  0  0  0  0
 48 73  1  0  0  0  0
 49 52  1  0  0  0  0
 49 74  1  0  0  0  0
 50 52  1  0  0  0  0
 50 74  1  0  0  0  0
 51 56  1  0  0  0  0
 51 73  1  0  0  0  0
 54 77  1  0  0  0  0
 55 72  1  0  0  0  0
 56 71  1  0  0  0  0
 59 66  1  0  0  0  0
 60 68  1  0  0  0  0
 61 69  1  0  0  0  0
 62 69  1  0  0  0  0
 63 69  1  0  0  0  0
 64 79  1  0  0  0  0
 65 66  1  0  0  0  0
 65 86  1  0  0  0  0
 67 69  1  0  0  0  0
 67 78  1  0  0  0  0
 68 79  1  0  0  0  0
 70 71  1  0  0  0  0
M  CHG  1  79   1
M  ISO  4  38 100  65 101  74 100  86 101
M  END
> <Batch ID>
0167

> <Smiles>
CNC(C)C(=O)NC(C(=O)N1Cc2cc([101O:1][101CH2:1]C(C)c3c(C)cc(C4C[100N:0]([100C:0](=O)N5CCCC(n6nc(-c7ccc(Oc8ccc(F)cc8F)cc7)c(C(N)=O)c6N)C5)C4)c(C4CC4)c3C)ccc2CC1C(=O)NC1CCCc2ccccc21)C(C)(C)C

> <Shape>
0.263

> <Color>
0.080

> <Negative vol penalty>
0.000

$$$$

  -OEChem-04052322273D

 86 95  0     1  0  0  0  0  0999 V2000
  -16.7497  -30.4165   23.9629 C   0  0  0  0  0  0  0  0  0  0  0  0
  -17.9477  -30.9408   24.4375 C   0  0  0  0  0  0  0  0  0  0  0  0
  -28.4482  -20.6750   20.8688 C   0  0  0  0  0  0  0  0  0  0  0  0
  -26.5903  -21.5138   19.5719 C   0  0  0  0  0  0  0  0  0  0  0  0
  -16.7507  -29.2290   23.2323 C   0  0  0  0  0  0  0  0  0  0  0  0
  -19.1474  -30.2772   24.1827 C   0  0  0  0  0  0  0  0  0  0  0  0
  -26.0900  -31.5620   22.9720 C   0  0  0  0  0  0  0  0  0  0  0  0
  -27.5591  -20.1831   21.8244 C   0  0  0  0  0  0  0  0  0  0  0  0
  -25.7012  -21.0219   20.5275 C   0  0  0  0  0  0  0  0  0  0  0  0
  -27.3511  -31.1872   23.4334 C   0  0  0  0  0  0  0  0  0  0  0  0
  -22.9242  -19.6706   22.4460 C   0  0  0  0  0  0  0  0  0  0  0  0
  -21.7961  -18.9872   21.9923 C   0  0  0  0  0  0  0  0  0  0  0  0
  -33.5946  -28.9755   25.4061 C   0  0  0  0  0  0  0  0  0  0  0  0
  -32.0845  -29.7702   23.7113 C   0  0  0  0  0  0  0  0  0  0  0  0
  -27.2400  -29.1850   22.0926 C   0  0  0  0  0  0  0  0  0  0  0  0
  -23.2170  -17.3570   20.9149 C   0  0  0  0  0  0  0  0  0  0  0  0
  -27.9638  -21.3403   19.7425 C   0  0  0  0  0  0  0  0  0  0  0  0
  -33.3285  -29.2647   24.0724 C   0  0  0  0  0  0  0  0  0  0  0  0
  -29.3693  -21.1743   17.6201 C   0  0  0  0  0  0  0  0  0  0  0  0
  -17.9520  -28.5556   22.9602 C   0  0  0  0  0  0  0  0  0  0  0  0
  -25.3885  -30.7443   22.0744 C   0  0  0  0  0  0  0  0  0  0  0  0
  -19.1643  -29.0789   23.4490 C   0  0  0  0  0  0  0  0  0  0  0  0
  -25.9712  -29.5529   21.6194 C   0  0  0  0  0  0  0  0  0  0  0  0
  -26.1856  -20.3566   21.6537 C   0  0  0  0  0  0  0  0  0  0  0  0
  -27.9251  -29.9972   22.9959 C   0  0  0  0  0  0  0  0  0  0  0  0
  -24.1987  -19.1973   22.1341 C   0  0  0  0  0  0  0  0  0  0  0  0
  -21.9424  -17.8304   21.2268 C   0  0  0  0  0  0  0  0  0  0  0  0
  -24.3451  -18.0405   21.3686 C   0  0  0  0  0  0  0  0  0  0  0  0
  -28.8818  -21.8492   18.7553 C   0  0  0  0  0  0  0  0  0  0  0  0
  -32.5912  -29.2077   26.3328 C   0  0  0  0  0  0  0  0  0  0  0  0
  -31.1486  -29.9667   24.7139 C   0  0  0  0  0  0  0  0  0  0  0  0
  -30.2021  -22.0819   17.0125 C   0  0  0  0  0  0  0  0  0  0  0  0
  -34.3581  -29.0369   23.0491 C   0  0  0  0  0  0  0  0  0  0  0  0
  -29.0939  -19.8459   17.1563 C   0  0  0  0  0  0  0  0  0  0  0  0
  -22.6253  -29.1755   22.1586 C   0  0  0  0  0  0  0  0  0  0  0  0
  -23.3147  -28.5808   19.0452 C   0  0  0  0  0  0  0  0  0  0  0  0
  -25.6839  -28.2989   16.6051 C   0  0  0  0  0  0  0  0  0  0  0  0
  -33.2960  -26.7463   19.0015 C   0  0  0  0  0  0  0  0  0  0  0  0
  -17.8979  -27.2502   22.2067 C   0  0  0  0  0  0  0  0  0  0  0  0
  -24.0405  -31.1759   21.5655 C   0  0  0  0  0  0  0  0  0  0  0  0
  -25.2682  -28.6497   20.6404 C   0  0  0  0  0  0  0  0  0  0  0  0
  -19.2520  -26.8062   21.6596 C   0  0  0  0  0  0  0  0  0  0  0  0
  -30.8825  -26.7724   16.4599 C   0  0  0  0  0  0  0  0  0  0  0  0
  -20.3306  -26.9416   22.7297 C   0  0  0  0  0  0  0  0  0  0  0  0
  -30.1226  -25.4621   16.6546 C   0  0  0  0  0  0  0  0  0  0  0  0
  -31.2331  -27.4007   17.8026 C   0  0  0  0  0  0  0  0  0  0  0  0
  -33.5185  -26.6550   22.7105 C   0  0  0  0  0  0  0  0  0  0  0  0
  -35.4866  -27.5222   21.4709 C   0  0  0  0  0  0  0  0  0  0  0  0
  -32.8749  -26.1179   21.4276 C   0  0  0  0  0  0  0  0  0  0  0  0
  -35.1768  -26.3390   20.5561 C   0  0  0  0  0  0  0  0  0  0  0  0
  -31.3011  -25.1773   18.8941 C   0  0  0  0  0  0  0  0  0  0  0  0
  -20.4888  -28.4013   23.1719 C   0  0  1  0  0  0  0  0  0  0  0  0
  -23.1964  -30.0142   21.0504 C   0  0  1  0  0  0  0  0  0  0  0  0
  -30.9105  -24.5035   17.5627 C   0  0  1  0  0  0  0  0  0  0  0  0
  -32.8423  -28.9095   27.7733 C   0  0  0  0  0  0  0  0  0  0  0  0
  -25.9472  -27.7650   14.1673 C   0  0  0  0  0  0  0  0  0  0  0  0
  -22.9229  -25.6168   19.6545 C   0  0  0  0  0  0  0  0  0  0  0  0
  -24.0993  -25.0914   17.5078 C   0  0  0  0  0  0  0  0  0  0  0  0
  -21.9576  -26.3700   17.4739 C   0  0  0  0  0  0  0  0  0  0  0  0
  -26.8154  -30.9710   16.0231 C   0  0  0  0  0  0  0  0  0  0  0  0
  -29.8028  -30.5078   24.3632 C   0  0  0  0  0  0  0  0  0  1  0  0
  -24.0621  -27.4990   18.3035 C   0  0  1  0  0  0  0  0  0  0  0  0
  -25.7537  -28.8657   15.1986 C   0  0  2  0  0  0  0  0  0  0  0  0
  -23.2732  -26.1602   18.2549 C   0  0  0  0  0  0  0  0  0  0  0  0
  -29.3648  -23.0896   18.8648 N   0  0  0  0  0  0  0  0  0  0  0  0
  -31.3706  -29.6976   26.0200 N   0  0  0  0  0  0  0  0  0  0  0  0
  -30.1645  -23.2014   17.7906 N   0  0  0  0  0  0  0  0  0  0  0  0
  -34.4047  -27.7892   22.4229 N   0  0  0  0  0  0  0  0  0  0  0  0
  -23.9495  -29.1120   20.1768 N   0  0  0  0  0  0  0  0  0  0  0  0
  -31.9662  -26.4663   18.6575 N   0  0  0  0  0  0  0  0  0  0  0  0
  -33.7467  -26.2960   20.2535 N   0  0  0  0  0  0  0  0  0  0  0  0
  -30.9556  -22.0235   15.8939 N   0  0  0  0  0  0  0  0  0  0  0  0
  -28.2149  -19.0472   17.9004 N   0  0  0  0  0  0  0  0  0  0  0  0
  -21.2441  -29.1482   22.1890 N   0  0  0  0  0  0  0  0  0  0  0  0
  -24.3838  -28.0510   16.9919 N   0  0  0  0  0  0  0  0  0  0  0  0
  -26.8893  -29.8238   15.0820 N   0  3  0  0  0  0  0  0  0  0  0  0
  -35.1058  -29.9821   22.8009 O   0  0  0  0  0  0  0  0  0  0  0  0
  -29.6248  -19.3752   16.1218 O   0  0  0  0  0  0  0  0  0  0  0  0
  -23.3818  -28.5949   22.9282 O   0  0  0  0  0  0  0  0  0  0  0  0
  -22.2115  -28.9461   18.6315 O   0  0  0  0  0  0  0  0  0  0  0  0
  -26.6830  -28.0928   17.2906 O   0  0  0  0  0  0  0  0  0  0  0  0
  -34.0347  -27.3876   18.2430 O   0  0  0  0  0  0  0  0  0  0  0  0
  -25.3178  -19.8765   22.5859 O   0  0  0  0  0  0  0  0  0  0  0  0
  -29.1642  -29.6261   23.4483 O   0  0  0  0  0  0  0  0  0  1  0  0
  -20.8590  -17.1734   20.7925 F   0  0  0  0  0  0  0  0  0  0  0  0
  -25.5669  -17.5803   21.0668 F   0  0  0  0  0  0  0  0  0  0  0  0
  1  2  1  0  0  0  0
  1  5  2  0  0  0  0
  2  6  2  0  0  0  0
  3  8  2  0  0  0  0
  3 17  1  0  0  0  0
  4  9  1  0  0  0  0
  4 17  2  0  0  0  0
  5 20  1  0  0  0  0
  6 22  1  0  0  0  0
  7 10  2  0  0  0  0
  7 21  1  0  0  0  0
  8 24  1  0  0  0  0
  9 24  2  0  0  0  0
 10 25  1  0  0  0  0
 11 12  2  0  0  0  0
 11 26  1  0  0  0  0
 12 27  1  0  0  0  0
 13 18  1  0  0  0  0
 13 30  2  0  0  0  0
 14 18  2  0  0  0  0
 14 31  1  0  0  0  0
 15 23  1  0  0  0  0
 15 25  2  0  0  0  0
 16 27  2  0  0  0  0
 16 28  1  0  0  0  0
 17 29  1  0  0  0  0
 18 33  1  0  0  0  0
 19 29  1  0  0  0  0
 19 32  2  0  0  0  0
 19 34  1  0  0  0  0
 20 22  2  0  0  0  0
 20 39  1  0  0  0  0
 21 23  2  0  0  0  0
 21 40  1  0  0  0  0
 22 52  1  0  0  0  0
 23 41  1  0  0  0  0
 24 83  1  0  0  0  0
 25 84  1  0  0  0  0
 26 28  2  0  0  0  0
 26 83  1  0  0  0  0
 27 85  1  0  0  0  0
 28 86  1  0  0  0  0
 29 65  2  0  0  0  0
 30 55  1  0  0  0  0
 30 66  1  0  0  0  0
 31 61  1  0  0  0  0
 31 66  2  0  0  0  0
 32 67  1  0  0  0  0
 32 72  1  0  0  0  0
 33 68  1  0  0  0  0
 33 77  2  0  0  0  0
 34 73  1  0  0  0  0
 34 78  2  0  0  0  0
 35 53  1  0  0  0  0
 35 74  1  0  0  0  0
 35 79  2  0  0  0  0
 36 62  1  0  0  0  0
 36 69  1  0  0  0  0
 36 80  2  0  0  0  0
 37 63  1  0  0  0  0
 37 75  1  0  0  0  0
 37 81  2  0  0  0  0
 38 70  1  0  0  0  0
 38 71  1  0  0  0  0
 38 82  2  0  0  0  0
 39 42  1  0  0  0  0
 40 53  1  0  0  0  0
 41 69  1  0  0  0  0
 42 44  1  0  0  0  0
 43 45  1  0  0  0  0
 43 46  1  0  0  0  0
 44 52  1  0  0  0  0
 45 54  1  0  0  0  0
 46 70  1  0  0  0  0
 47 49  1  0  0  0  0
 47 68  1  0  0  0  0
 48 50  1  0  0  0  0
 48 68  1  0  0  0  0
 49 71  1  0  0  0  0
 50 71  1  0  0  0  0
 51 54  1  0  0  0  0
 51 70  1  0  0  0  0
 52 74  1  0  0  0  0
 53 69  1  0  0  0  0
 54 67  1  0  0  0  0
 56 63  1  0  0  0  0
 57 64  1  0  0  0  0
 58 64  1  0  0  0  0
 59 64  1  0  0  0  0
 60 76  1  0  0  0  0
 61 84  1  0  0  0  0
 62 64  1  0  0  0  0
 62 75  1  0  0  0  0
 63 76  1  0  0  0  0
 65 67  1  0  0  0  0
M  CHG  1  76   1
M  ISO  4  38 100  61 101  71 100  84 101
M  END
> <Batch ID>
0167

> <Smiles>
CNC(C)C(=O)NC(C(=O)N1Cc2cc([101O:1][101CH2:1]c3cc(C(=O)N4CC[100N:0]([100C:0](=O)N5CCCC(n6nc(-c7ccc(Oc8ccc(F)cc8F)cc7)c(C(N)=O)c6N)C5)CC4)cc(C)n3)ccc2CC1C(=O)NC1CCCc2ccccc21)C(C)(C)C

> <Shape>
0.201

> <Color>
0.103

> <Negative vol penalty>
0.000

$$$$

  -OEChem-04052322273D

 87 96  0     1  0  0  0  0  0999 V2000
  -13.1422  -20.1106    5.3602 C   0  0  0  0  0  0  0  0  0  0  0  0
  -14.1943  -19.4202    5.9533 C   0  0  0  0  0  0  0  0  0  0  0  0
  -23.1682   -9.9086   19.8901 C   0  0  0  0  0  0  0  0  0  0  0  0
  -23.7907   -9.9121   22.2246 C   0  0  0  0  0  0  0  0  0  0  0  0
  -12.7412  -21.3431    5.8740 C   0  0  0  0  0  0  0  0  0  0  0  0
  -14.8467  -19.9623    7.0600 C   0  0  0  0  0  0  0  0  0  0  0  0
  -17.2113  -16.8979   11.8059 C   0  0  0  0  0  0  0  0  0  0  0  0
  -22.4259   -8.7447   20.0898 C   0  0  0  0  0  0  0  0  0  0  0  0
  -23.0484   -8.7482   22.4242 C   0  0  0  0  0  0  0  0  0  0  0  0
  -18.5103  -16.4899   12.1057 C   0  0  0  0  0  0  0  0  0  0  0  0
  -19.8009   -7.9058   22.8302 C   0  0  0  0  0  0  0  0  0  0  0  0
  -18.9765   -7.8495   23.9539 C   0  0  0  0  0  0  0  0  0  0  0  0
  -18.8098  -18.4614   13.4632 C   0  0  0  0  0  0  0  0  0  0  0  0
  -20.1973   -5.9238   24.7530 C   0  0  0  0  0  0  0  0  0  0  0  0
  -23.8506  -10.4923   20.9575 C   0  0  0  0  0  0  0  0  0  0  0  0
  -24.1659  -13.0223   20.8706 C   0  0  0  0  0  0  0  0  0  0  0  0
  -13.3826  -21.8962    6.9935 C   0  0  0  0  0  0  0  0  0  0  0  0
  -16.7046  -18.0982   12.3247 C   0  0  0  0  0  0  0  0  0  0  0  0
  -14.4547  -21.2040    7.5885 C   0  0  0  0  0  0  0  0  0  0  0  0
  -17.5031  -18.8811   13.1706 C   0  0  0  0  0  0  0  0  0  0  0  0
  -25.2683  -16.0780   14.5938 C   0  0  0  0  0  0  0  0  0  0  0  0
  -24.8150  -16.4138   13.3181 C   0  0  0  0  0  0  0  0  0  0  0  0
  -24.4446  -16.2776   15.7017 C   0  0  0  0  0  0  0  0  0  0  0  0
  -23.5381  -16.9495   13.1503 C   0  0  0  0  0  0  0  0  0  0  0  0
  -23.1677  -16.8133   15.5338 C   0  0  0  0  0  0  0  0  0  0  0  0
  -22.7144  -17.1493   14.2582 C   0  0  0  0  0  0  0  0  0  0  0  0
  -22.3660   -8.1644   21.3568 C   0  0  0  0  0  0  0  0  0  0  0  0
  -19.3108  -17.2731   12.9321 C   0  0  0  0  0  0  0  0  0  0  0  0
  -20.8235   -6.9711   22.6678 C   0  0  0  0  0  0  0  0  0  0  0  0
  -19.1747   -6.8585   24.9153 C   0  0  0  0  0  0  0  0  0  0  0  0
  -21.0217   -5.9801   23.6293 C   0  0  0  0  0  0  0  0  0  0  0  0
  -24.6180  -11.6944   20.7518 C   0  0  0  0  0  0  0  0  0  0  0  0
  -25.2678  -13.7877   20.5765 C   0  0  0  0  0  0  0  0  0  0  0  0
  -22.8662  -13.5195   21.2160 C   0  0  0  0  0  0  0  0  0  0  0  0
  -15.6499  -20.8186   11.0636 C   0  0  0  0  0  0  0  0  0  0  0  0
  -14.8875  -21.4967   14.1427 C   0  0  0  0  0  0  0  0  0  0  0  0
  -15.4613  -20.9375   17.4601 C   0  0  0  0  0  0  0  0  0  0  0  0
  -29.8436  -13.9776   17.2412 C   0  0  0  0  0  0  0  0  0  0  0  0
  -12.9446  -23.2534    7.4843 C   0  0  0  0  0  0  0  0  0  0  0  0
  -15.2921  -18.5108   12.0134 C   0  0  0  0  0  0  0  0  0  0  0  0
  -16.9995  -20.1680   13.7694 C   0  0  0  0  0  0  0  0  0  0  0  0
  -13.4431  -23.5832    8.8889 C   0  0  0  0  0  0  0  0  0  0  0  0
  -30.1469  -13.0340   20.5532 C   0  0  0  0  0  0  0  0  0  0  0  0
  -14.9247  -23.2457    9.0226 C   0  0  0  0  0  0  0  0  0  0  0  0
  -28.7109  -12.7191   20.9725 C   0  0  0  0  0  0  0  0  0  0  0  0
  -27.5544  -16.4024   15.6365 C   0  0  0  0  0  0  0  0  0  0  0  0
  -26.6124  -14.0710   15.3573 C   0  0  0  0  0  0  0  0  0  0  0  0
  -30.4332  -12.5126   19.1495 C   0  0  0  0  0  0  0  0  0  0  0  0
  -28.9405  -15.7937   15.8347 C   0  0  0  0  0  0  0  0  0  0  0  0
  -28.0191  -13.5153   15.5597 C   0  0  0  0  0  0  0  0  0  0  0  0
  -28.0517  -12.7188   18.5170 C   0  0  0  0  0  0  0  0  0  0  0  0
  -26.6573  -15.4955   14.7766 C   0  0  0  0  0  0  0  0  0  0  0  0
  -15.1710  -21.7477    8.8057 C   0  0  1  0  0  0  0  0  0  0  0  0
  -15.0564  -20.0087   12.1814 C   0  0  1  0  0  0  0  0  0  0  0  0
  -27.7052  -13.2346   19.9280 C   0  0  1  0  0  0  0  0  0  0  0  0
  -25.6989  -16.1994   12.1299 C   0  0  0  0  0  0  0  0  0  0  0  0
  -24.9310  -15.9182   17.0704 C   0  0  0  0  0  0  0  0  0  0  0  0
  -23.0534  -17.3125   11.7820 C   0  0  0  0  0  0  0  0  0  0  0  0
  -22.2837  -17.0281   16.7220 C   0  0  0  0  0  0  0  0  0  0  0  0
  -14.7083  -21.6675   19.7399 C   0  0  0  0  0  0  0  0  0  0  0  0
  -16.4650  -24.0899   13.8309 C   0  0  0  0  0  0  0  0  0  0  0  0
  -16.4852  -24.2959   16.3260 C   0  0  0  0  0  0  0  0  0  0  0  0
  -14.3175  -24.3204   15.0918 C   0  0  0  0  0  0  0  0  0  0  0  0
  -14.5622  -18.2073   18.1645 C   0  0  0  0  0  0  0  0  0  0  0  0
  -21.3452  -17.7255   14.0776 C   0  0  0  0  0  0  0  0  0  1  0  0
  -15.6002  -22.1517   15.3012 C   0  0  1  0  0  0  0  0  0  0  0  0
  -14.5138  -20.6637   18.6141 C   0  0  2  0  0  0  0  0  0  0  0  0
  -15.7274  -23.6913   15.1248 C   0  0  0  0  0  0  0  0  0  0  0  0
  -25.9065  -11.6171   20.4088 N   0  0  0  0  0  0  0  0  0  0  0  0
  -26.2736  -12.9061   20.3095 N   0  0  0  0  0  0  0  0  0  0  0  0
  -15.6138  -20.5320   13.4303 N   0  0  0  0  0  0  0  0  0  0  0  0
  -29.4533  -13.0193   18.1890 N   0  0  0  0  0  0  0  0  0  0  0  0
  -28.8546  -14.4284   16.3514 N   0  0  0  0  0  0  0  0  0  0  0  0
  -25.4647  -15.1222   20.5227 N   0  0  0  0  0  0  0  0  0  0  0  0
  -21.8481  -12.5955   21.4881 N   0  0  0  0  0  0  0  0  0  0  0  0
  -14.8018  -20.9985    9.9875 N   0  0  0  0  0  0  0  0  0  0  0  0
  -14.8823  -21.7455   16.5045 N   0  0  0  0  0  0  0  0  0  0  0  0
  -14.7430  -19.2958   19.1592 N   0  3  0  0  0  0  0  0  0  0  0  0
  -22.6109  -14.7466   21.2653 O   0  0  0  0  0  0  0  0  0  0  0  0
  -16.7920  -21.2497   11.1701 O   0  0  0  0  0  0  0  0  0  0  0  0
  -13.7266  -21.8238   13.8840 O   0  0  0  0  0  0  0  0  0  0  0  0
  -16.6024  -20.4833   17.4130 O   0  0  0  0  0  0  0  0  0  0  0  0
  -31.0020  -14.4097   17.1942 O   0  0  0  0  0  0  0  0  0  0  0  0
  -21.6416   -7.0288   21.5520 O   0  0  0  0  0  0  0  0  0  0  0  0
  -20.5887  -16.8746   13.2279 O   0  0  0  0  0  0  0  0  0  1  0  0
  -18.3839   -6.8055   25.9952 F   0  0  0  0  0  0  0  0  0  0  0  0
  -22.0032   -5.0801   23.4794 F   0  0  0  0  0  0  0  0  0  0  0  0
  1  2  1  0  0  0  0
  1  5  2  0  0  0  0
  2  6  2  0  0  0  0
  3  8  2  0  0  0  0
  3 15  1  0  0  0  0
  4  9  1  0  0  0  0
  4 15  2  0  0  0  0
  5 17  1  0  0  0  0
  6 19  1  0  0  0  0
  7 10  2  0  0  0  0
  7 18  1  0  0  0  0
  8 27  1  0  0  0  0
  9 27  2  0  0  0  0
 10 28  1  0  0  0  0
 11 12  2  0  0  0  0
 11 29  1  0  0  0  0
 12 30  1  0  0  0  0
 13 20  1  0  0  0  0
 13 28  2  0  0  0  0
 14 30  2  0  0  0  0
 14 31  1  0  0  0  0
 15 32  1  0  0  0  0
 16 32  1  0  0  0  0
 16 33  2  0  0  0  0
 16 34  1  0  0  0  0
 17 19  2  0  0  0  0
 17 39  1  0  0  0  0
 18 20  2  0  0  0  0
 18 40  1  0  0  0  0
 19 53  1  0  0  0  0
 20 41  1  0  0  0  0
 21 22  1  0  0  0  0
 21 23  2  0  0  0  0
 21 52  1  0  0  0  0
 22 24  2  0  0  0  0
 22 56  1  0  0  0  0
 23 25  1  0  0  0  0
 23 57  1  0  0  0  0
 24 26  1  0  0  0  0
 24 58  1  0  0  0  0
 25 26  2  0  0  0  0
 25 59  1  0  0  0  0
 26 65  1  0  0  0  0
 27 84  1  0  0  0  0
 28 85  1  0  0  0  0
 29 31  2  0  0  0  0
 29 84  1  0  0  0  0
 30 86  1  0  0  0  0
 31 87  1  0  0  0  0
 32 69  2  0  0  0  0
 33 70  1  0  0  0  0
 33 74  1  0  0  0  0
 34 75  1  0  0  0  0
 34 79  2  0  0  0  0
 35 54  1  0  0  0  0
 35 76  1  0  0  0  0
 35 80  2  0  0  0  0
 36 66  1  0  0  0  0
 36 71  1  0  0  0  0
 36 81  2  0  0  0  0
 37 67  1  0  0  0  0
 37 77  1  0  0  0  0
 37 82  2  0  0  0  0
 38 72  1  0  0  0  0
 38 73  1  0  0  0  0
 38 83  2  0  0  0  0
 39 42  1  0  0  0  0
 40 54  1  0  0  0  0
 41 71  1  0  0  0  0
 42 44  1  0  0  0  0
 43 45  1  0  0  0  0
 43 48  1  0  0  0  0
 44 53  1  0  0  0  0
 45 55  1  0  0  0  0
 46 49  1  0  0  0  0
 46 52  1  0  0  0  0
 47 50  1  0  0  0  0
 47 52  1  0  0  0  0
 48 72  1  0  0  0  0
 49 73  1  0  0  0  0
 50 73  1  0  0  0  0
 51 55  1  0  0  0  0
 51 72  1  0  0  0  0
 53 76  1  0  0  0  0
 54 71  1  0  0  0  0
 55 70  1  0  0  0  0
 60 67  1  0  0  0  0
 61 68  1  0  0  0  0
 62 68  1  0  0  0  0
 63 68  1  0  0  0  0
 64 78  1  0  0  0  0
 65 85  1  0  0  0  0
 66 68  1  0  0  0  0
 66 77  1  0  0  0  0
 67 78  1  0  0  0  0
 69 70  1  0  0  0  0
M  CHG  1  78   1
M  ISO  4  38 100  65 101  73 100  85 101
M  END
> <Batch ID>
0167

> <Smiles>
CNC(C)C(=O)NC(C(=O)N1Cc2cc([101O:1][101CH2:1]c3c(C)c(C)c(C4CC[100N:0]([100C:0](=O)N5CCCC(n6nc(-c7ccc(Oc8ccc(F)cc8F)cc7)c(C(N)=O)c6N)C5)CC4)c(C)c3C)ccc2CC1C(=O)NC1CCCc2ccccc21)C(C)(C)C

> <Shape>
0.136

> <Color>
0.179

> <Negative vol penalty>
0.000

$$$$

  -OEChem-04052322273D

 85 94  0     1  0  0  0  0  0999 V2000
  -25.0816  -33.7825   14.4311 C   0  0  0  0  0  0  0  0  0  0  0  0
  -25.3867  -32.4800   14.8129 C   0  0  0  0  0  0  0  0  0  0  0  0
  -23.1904   -9.7869   19.9014 C   0  0  0  0  0  0  0  0  0  0  0  0
  -23.8963   -9.8562   22.2109 C   0  0  0  0  0  0  0  0  0  0  0  0
  -25.2845  -34.8348   15.3230 C   0  0  0  0  0  0  0  0  0  0  0  0
  -25.8959  -32.2292   16.0866 C   0  0  0  0  0  0  0  0  0  0  0  0
  -24.8344  -27.3067   19.5721 C   0  0  0  0  0  0  0  0  0  0  0  0
  -22.5000   -8.6002   20.1480 C   0  0  0  0  0  0  0  0  0  0  0  0
  -23.2059   -8.6695   22.4575 C   0  0  0  0  0  0  0  0  0  0  0  0
  -25.5686  -26.1440   19.8016 C   0  0  0  0  0  0  0  0  0  0  0  0
  -20.0091   -7.7157   22.9970 C   0  0  0  0  0  0  0  0  0  0  0  0
  -19.2285   -7.6497   24.1511 C   0  0  0  0  0  0  0  0  0  0  0  0
  -28.3702  -21.0174   22.2755 C   0  0  0  0  0  0  0  0  0  0  0  0
  -29.6094  -21.1396   20.2052 C   0  0  0  0  0  0  0  0  0  0  0  0
  -26.4971  -27.1314   21.7972 C   0  0  0  0  0  0  0  0  0  0  0  0
  -20.5487   -5.7854   24.9374 C   0  0  0  0  0  0  0  0  0  0  0  0
  -23.8886  -10.4149   20.9328 C   0  0  0  0  0  0  0  0  0  0  0  0
  -24.1055  -12.9527   20.7913 C   0  0  0  0  0  0  0  0  0  0  0  0
  -25.7875  -34.5956   16.6116 C   0  0  0  0  0  0  0  0  0  0  0  0
  -24.9346  -28.3965   20.4489 C   0  0  0  0  0  0  0  0  0  0  0  0
  -26.1071  -33.2794   16.9960 C   0  0  0  0  0  0  0  0  0  0  0  0
  -29.3814  -20.5381   21.4429 C   0  0  0  0  0  0  0  0  0  0  0  0
  -25.7612  -28.3059   21.5779 C   0  0  0  0  0  0  0  0  0  0  0  0
  -27.5868  -22.0981   21.8704 C   0  0  0  0  0  0  0  0  0  0  0  0
  -28.8261  -22.2203   19.8001 C   0  0  0  0  0  0  0  0  0  0  0  0
  -27.8148  -22.6996   20.6327 C   0  0  0  0  0  0  0  0  0  0  0  0
  -22.5077   -8.0416   21.4260 C   0  0  0  0  0  0  0  0  0  0  0  0
  -26.4023  -26.0572   20.9127 C   0  0  0  0  0  0  0  0  0  0  0  0
  -21.0594   -6.8165   22.8131 C   0  0  0  0  0  0  0  0  0  0  0  0
  -19.4983   -6.6846   25.1213 C   0  0  0  0  0  0  0  0  0  0  0  0
  -21.3293   -5.8513   23.7833 C   0  0  0  0  0  0  0  0  0  0  0  0
  -24.6024  -11.6404   20.6786 C   0  0  0  0  0  0  0  0  0  0  0  0
  -25.1666  -13.7526   20.4438 C   0  0  0  0  0  0  0  0  0  0  0  0
  -22.8014  -13.4079   21.1757 C   0  0  0  0  0  0  0  0  0  0  0  0
  -25.9024  -31.4120   20.1779 C   0  0  0  0  0  0  0  0  0  0  0  0
  -24.8176  -31.6250   23.2275 C   0  0  0  0  0  0  0  0  0  0  0  0
  -24.0670  -30.0364   26.1532 C   0  0  0  0  0  0  0  0  0  0  0  0
  -30.5863  -15.0498   20.7427 C   0  0  0  0  0  0  0  0  0  0  0  0
  -26.0345  -35.7707   17.5242 C   0  0  0  0  0  0  0  0  0  0  0  0
  -24.1156  -29.6337   20.2018 C   0  0  0  0  0  0  0  0  0  0  0  0
  -25.8884  -29.4401   22.5607 C   0  0  0  0  0  0  0  0  0  0  0  0
  -26.2253  -35.3767   18.9866 C   0  0  0  0  0  0  0  0  0  0  0  0
  -29.6251  -12.5860   18.3589 C   0  0  0  0  0  0  0  0  0  0  0  0
  -27.1883  -34.1993   19.1009 C   0  0  0  0  0  0  0  0  0  0  0  0
  -28.1948  -12.2245   18.7630 C   0  0  0  0  0  0  0  0  0  0  0  0
  -29.5449  -18.1855   22.6625 C   0  0  0  0  0  0  0  0  0  0  0  0
  -30.5022  -12.8655   19.5774 C   0  0  0  0  0  0  0  0  0  0  0  0
  -28.5349  -13.5138   20.9126 C   0  0  0  0  0  0  0  0  0  0  0  0
  -30.2509  -19.3351   21.8928 C   0  0  1  0  0  0  0  0  0  0  0  0
  -26.6380  -32.9641   18.3777 C   0  0  1  0  0  0  0  0  0  0  0  0
  -24.6878  -30.8744   20.8803 C   0  0  1  0  0  0  0  0  0  0  0  0
  -27.5979  -13.2779   19.7156 C   0  0  2  0  0  0  0  0  0  0  0  0
  -30.5154  -17.2138   21.9558 C   0  0  2  0  0  0  0  0  0  0  0  0
  -30.6089  -18.2647   20.8238 C   0  0  2  0  0  0  0  0  0  0  0  0
  -26.5085  -22.5903   22.7794 C   0  0  0  0  0  0  0  0  0  0  0  0
  -29.0920  -22.8477   18.4707 C   0  0  0  0  0  0  0  0  0  0  0  0
  -23.2361  -30.4805   28.4790 C   0  0  0  0  0  0  0  0  0  0  0  0
  -27.5560  -32.7328   23.9917 C   0  0  0  0  0  0  0  0  0  0  0  0
  -27.0008  -32.2617   26.3871 C   0  0  0  0  0  0  0  0  0  0  0  0
  -25.6231  -33.8832   25.0849 C   0  0  0  0  0  0  0  0  0  0  0  0
  -21.6883  -28.3209   25.7557 C   0  0  0  0  0  0  0  0  0  0  0  0
  -26.9720  -23.8620   20.1969 C   0  0  0  0  0  0  0  0  0  1  0  0
  -25.4215  -31.4112   24.5944 C   0  0  1  0  0  0  0  0  0  0  0  0
  -22.8487  -30.1103   27.0558 C   0  0  2  0  0  0  0  0  0  0  0  0
  -26.3997  -32.5514   24.9951 C   0  0  0  0  0  0  0  0  0  0  0  0
  -25.8798  -11.6043   20.2898 N   0  0  0  0  0  0  0  0  0  0  0  0
  -26.1944  -12.9039   20.1550 N   0  0  0  0  0  0  0  0  0  0  0  0
  -25.0723  -30.6310   22.2721 N   0  0  0  0  0  0  0  0  0  0  0  0
  -29.8805  -13.8740   20.4389 N   0  0  0  0  0  0  0  0  0  0  0  0
  -25.3113  -15.0922   20.3601 N   0  0  0  0  0  0  0  0  0  0  0  0
  -21.8291  -12.4522   21.5008 N   0  0  0  0  0  0  0  0  0  0  0  0
  -25.6173  -32.3226   19.1784 N   0  0  0  0  0  0  0  0  0  0  0  0
  -24.3015  -31.2346   25.5124 N   0  0  0  0  0  0  0  0  0  0  0  0
  -29.9220  -15.9559   21.5604 N   0  0  0  0  0  0  0  0  0  0  0  0
  -31.9665  -18.4194   20.2851 N   0  3  0  0  0  0  0  0  0  0  0  0
  -22.1463  -28.7963   27.0866 N   0  3  0  0  0  0  0  0  0  0  0  0
  -22.5022  -14.6255   21.2136 O   0  0  0  0  0  0  0  0  0  0  0  0
  -27.0159  -31.0302   20.5185 O   0  0  0  0  0  0  0  0  0  0  0  0
  -24.1387  -32.6333   23.0173 O   0  0  0  0  0  0  0  0  0  0  0  0
  -24.7453  -29.0186   26.0317 O   0  0  0  0  0  0  0  0  0  0  0  0
  -31.7220  -15.2778   20.3126 O   0  0  0  0  0  0  0  0  0  0  0  0
  -21.8340   -6.8838   21.6671 O   0  0  0  0  0  0  0  0  0  0  0  0
  -27.1206  -24.9237   21.1388 O   0  0  0  0  0  0  0  0  0  1  0  0
  -18.7497   -6.6223   26.2303 F   0  0  0  0  0  0  0  0  0  0  0  0
  -22.3378   -4.9855   23.6127 F   0  0  0  0  0  0  0  0  0  0  0  0
  1  2  1  0  0  0  0
  1  5  2  0  0  0  0
  2  6  2  0  0  0  0
  3  8  2  0  0  0  0
  3 17  1  0  0  0  0
  4  9  1  0  0  0  0
  4 17  2  0  0  0  0
  5 19  1  0  0  0  0
  6 21  1  0  0  0  0
  7 10  2  0  0  0  0
  7 20  1  0  0  0  0
  8 27  1  0  0  0  0
  9 27  2  0  0  0  0
 10 28  1  0  0  0  0
 11 12  2  0  0  0  0
 11 29  1  0  0  0  0
 12 30  1  0  0  0  0
 13 22  1  0  0  0  0
 13 24  2  0  0  0  0
 14 22  2  0  0  0  0
 14 25  1  0  0  0  0
 15 23  1  0  0  0  0
 15 28  2  0  0  0  0
 16 30  2  0  0  0  0
 16 31  1  0  0  0  0
 17 32  1  0  0  0  0
 18 32  1  0  0  0  0
 18 33  2  0  0  0  0
 18 34  1  0  0  0  0
 19 21  2  0  0  0  0
 19 39  1  0  0  0  0
 20 23  2  0  0  0  0
 20 40  1  0  0  0  0
 21 50  1  0  0  0  0
 22 49  1  0  0  0  0
 23 41  1  0  0  0  0
 24 26  1  0  0  0  0
 24 55  1  0  0  0  0
 25 26  2  0  0  0  0
 25 56  1  0  0  0  0
 26 62  1  0  0  0  0
 27 82  1  0  0  0  0
 28 83  1  0  0  0  0
 29 31  2  0  0  0  0
 29 82  1  0  0  0  0
 30 84  1  0  0  0  0
 31 85  1  0  0  0  0
 32 66  2  0  0  0  0
 33 67  1  0  0  0  0
 33 70  1  0  0  0  0
 34 71  1  0  0  0  0
 34 77  2  0  0  0  0
 35 51  1  0  0  0  0
 35 72  1  0  0  0  0
 35 78  2  0  0  0  0
 36 63  1  0  0  0  0
 36 68  1  0  0  0  0
 36 79  2  0  0  0  0
 37 64  1  0  0  0  0
 37 73  1  0  0  0  0
 37 80  2  0  0  0  0
 38 69  1  0  0  0  0
 38 74  1  0  0  0  0
 38 81  2  0  0  0  0
 39 42  1  0  0  0  0
 40 51  1  0  0  0  0
 41 68  1  0  0  0  0
 42 44  1  0  0  0  0
 43 45  1  0  0  0  0
 43 47  1  0  0  0  0
 44 50  1  0  0  0  0
 45 52  1  0  0  0  0
 46 49  1  0  0  0  0
 46 53  1  0  0  0  0
 47 69  1  0  0  0  0
 48 52  1  0  0  0  0
 48 69  1  0  0  0  0
 49 54  1  0  0  0  0
 50 72  1  0  0  0  0
 51 68  1  0  0  0  0
 52 67  1  0  0  0  0
 53 54  1  0  0  0  0
 53 74  1  0  0  0  0
 54 75  1  0  0  0  0
 57 64  1  0  0  0  0
 58 65  1  0  0  0  0
 59 65  1  0  0  0  0
 60 65  1  0  0  0  0
 61 76  1  0  0  0  0
 62 83  1  0  0  0  0
 63 65  1  0  0  0  0
 63 73  1  0  0  0  0
 64 76  1  0  0  0  0
 66 67  1  0  0  0  0
M  CHG  2  75   1  76   1
M  ISO  4  38 100  62 101  74 100  83 101
M  END
> <Batch ID>
0167

> <Smiles>
CNC(C)C(=O)NC(C(=O)N1Cc2cc([101O:1][101CH2:1]c3c(C)cc(C4CC([100NH:0][100C:0](=O)N5CCCC(n6nc(-c7ccc(Oc8ccc(F)cc8F)cc7)c(C(N)=O)c6N)C5)C4N)cc3C)ccc2CC1C(=O)NC1CCCc2ccccc21)C(C)(C)C

> <Shape>
0.341

> <Color>
0.211

> <Negative vol penalty>
0.000

$$$$

  -OEChem-04052322273D

 86 95  0     1  0  0  0  0  0999 V2000
  -22.7175  -31.8089   15.1811 C   0  0  0  0  0  0  0  0  0  0  0  0
  -23.5101  -30.6882   15.4076 C   0  0  0  0  0  0  0  0  0  0  0  0
  -22.8998   -9.9079   20.1048 C   0  0  0  0  0  0  0  0  0  0  0  0
  -23.6341  -10.0733   22.4005 C   0  0  0  0  0  0  0  0  0  0  0  0
  -22.7052  -32.8513   16.1070 C   0  0  0  0  0  0  0  0  0  0  0  0
  -24.2917  -30.6097   16.5597 C   0  0  0  0  0  0  0  0  0  0  0  0
  -25.6045  -25.5697   19.7817 C   0  0  0  0  0  0  0  0  0  0  0  0
  -22.1044   -8.8116   20.4382 C   0  0  0  0  0  0  0  0  0  0  0  0
  -22.8387   -8.9771   22.7340 C   0  0  0  0  0  0  0  0  0  0  0  0
  -26.7188  -24.7320   19.8001 C   0  0  0  0  0  0  0  0  0  0  0  0
  -22.9927   -5.6111   22.4568 C   0  0  0  0  0  0  0  0  0  0  0  0
  -23.5556   -4.6240   23.2657 C   0  0  0  0  0  0  0  0  0  0  0  0
  -27.5944  -25.9484   21.6903 C   0  0  0  0  0  0  0  0  0  0  0  0
  -21.8447   -5.0099   24.9273 C   0  0  0  0  0  0  0  0  0  0  0  0
  -23.6647  -10.5387   21.0859 C   0  0  0  0  0  0  0  0  0  0  0  0
  -24.1160  -13.0286   20.7630 C   0  0  0  0  0  0  0  0  0  0  0  0
  -23.4797  -32.7813   17.2757 C   0  0  0  0  0  0  0  0  0  0  0  0
  -25.4819  -26.6117   20.7121 C   0  0  0  0  0  0  0  0  0  0  0  0
  -24.2908  -31.6527   17.5014 C   0  0  0  0  0  0  0  0  0  0  0  0
  -26.4764  -26.7963   21.6832 C   0  0  0  0  0  0  0  0  0  0  0  0
  -32.4690  -21.9988   19.8272 C   0  0  0  0  0  0  0  0  0  0  0  0
  -31.3427  -22.7860   19.6148 C   0  0  0  0  0  0  0  0  0  0  0  0
  -32.3322  -20.7402   20.4022 C   0  0  0  0  0  0  0  0  0  0  0  0
  -22.0738   -8.3463   21.7528 C   0  0  0  0  0  0  0  0  0  0  0  0
  -27.7154  -24.9230   20.7527 C   0  0  0  0  0  0  0  0  0  0  0  0
  -21.8557   -6.2976   22.8832 C   0  0  0  0  0  0  0  0  0  0  0  0
  -22.9817   -4.3234   24.5009 C   0  0  0  0  0  0  0  0  0  0  0  0
  -21.2818   -5.9970   24.1184 C   0  0  0  0  0  0  0  0  0  0  0  0
  -24.4870  -11.6708   20.7420 C   0  0  0  0  0  0  0  0  0  0  0  0
  -30.1122  -22.2728   19.9919 C   0  0  0  0  0  0  0  0  0  0  0  0
  -31.0574  -20.3187   20.7443 C   0  0  0  0  0  0  0  0  0  0  0  0
  -25.2433  -13.6989   20.3549 C   0  0  0  0  0  0  0  0  0  0  0  0
  -22.8644  -13.6302   21.1195 C   0  0  0  0  0  0  0  0  0  0  0  0
  -25.3017  -29.7795   20.5217 C   0  0  0  0  0  0  0  0  0  0  0  0
  -24.7686  -29.5514   23.7133 C   0  0  0  0  0  0  0  0  0  0  0  0
  -25.1352  -27.7533   26.5906 C   0  0  0  0  0  0  0  0  0  0  0  0
  -30.7634  -14.4993   20.5378 C   0  0  0  0  0  0  0  0  0  0  0  0
  -23.4700  -33.9537   18.2243 C   0  0  0  0  0  0  0  0  0  0  0  0
  -24.2608  -27.4898   20.6957 C   0  0  0  0  0  0  0  0  0  0  0  0
  -26.3825  -27.8876   22.7169 C   0  0  0  0  0  0  0  0  0  0  0  0
  -24.0398  -33.6271   19.6023 C   0  0  0  0  0  0  0  0  0  0  0  0
  -29.5505  -11.9747   18.3397 C   0  0  0  0  0  0  0  0  0  0  0  0
  -25.3499  -32.8572   19.4695 C   0  0  0  0  0  0  0  0  0  0  0  0
  -28.0971  -11.7784   18.7745 C   0  0  0  0  0  0  0  0  0  0  0  0
  -30.4664  -17.3853   22.9006 C   0  0  0  0  0  0  0  0  0  0  0  0
  -30.4631  -12.2558   19.5314 C   0  0  0  0  0  0  0  0  0  0  0  0
  -30.9623  -18.8239   22.7566 C   0  0  0  0  0  0  0  0  0  0  0  0
  -28.5795  -13.1785   20.8253 C   0  0  0  0  0  0  0  0  0  0  0  0
  -30.6718  -17.8448   20.5623 C   0  0  0  0  0  0  0  0  0  0  0  0
  -25.1335  -31.5197   18.7514 C   0  0  1  0  0  0  0  0  0  0  0  0
  -24.4876  -28.8410   21.3668 C   0  0  1  0  0  0  0  0  0  0  0  0
  -27.6117  -12.9477   19.6521 C   0  0  2  0  0  0  0  0  0  0  0  0
  -30.9081  -16.7405   21.5939 C   0  0  2  0  0  0  0  0  0  0  0  0
  -33.8214  -22.5045   19.4374 C   0  0  0  0  0  0  0  0  0  0  0  0
  -31.4571  -24.1404   18.9993 C   0  0  0  0  0  0  0  0  0  0  0  0
  -33.5286  -19.8789   20.6399 C   0  0  0  0  0  0  0  0  0  0  0  0
  -24.6295  -27.8422   29.0470 C   0  0  0  0  0  0  0  0  0  0  0  0
  -27.0562  -31.5312   24.1101 C   0  0  0  0  0  0  0  0  0  0  0  0
  -27.1288  -30.8572   26.5202 C   0  0  0  0  0  0  0  0  0  0  0  0
  -25.0740  -31.9181   25.5851 C   0  0  0  0  0  0  0  0  0  0  0  0
  -23.4516  -25.3234   26.4501 C   0  0  0  0  0  0  0  0  0  0  0  0
  -28.8612  -23.0757   19.7880 C   0  0  0  0  0  0  0  0  0  1  0  0
  -25.6417  -29.5391   24.9448 C   0  0  1  0  0  0  0  0  0  0  0  0
  -24.1451  -27.3835   27.6804 C   0  0  2  0  0  0  0  0  0  0  0  0
  -26.2282  -30.9420   25.2695 C   0  0  0  0  0  0  0  0  0  0  0  0
  -25.7511  -11.4876   20.3513 N   0  0  0  0  0  0  0  0  0  0  0  0
  -29.9399  -21.0551   20.5532 N   0  0  0  0  0  0  0  0  0  0  0  0
  -26.1842  -12.7392   20.1230 N   0  0  0  0  0  0  0  0  0  0  0  0
  -30.9144  -19.0730   21.3173 N   0  0  3  0  0  0  0  0  0  0  0  0
  -25.1725  -28.7241   22.6558 N   0  0  0  0  0  0  0  0  0  0  0  0
  -29.9476  -13.3765   20.3215 N   0  0  0  0  0  0  0  0  0  0  0  0
  -25.5115  -15.0097   20.1754 N   0  0  0  0  0  0  0  0  0  0  0  0
  -21.8107  -12.7954   21.5160 N   0  0  0  0  0  0  0  0  0  0  0  0
  -24.5513  -30.5498   19.6540 N   0  0  0  0  0  0  0  0  0  0  0  0
  -24.8303  -28.9684   26.0146 N   0  0  0  0  0  0  0  0  0  0  0  0
  -30.1955  -15.5191   21.2916 N   0  0  0  0  0  0  0  0  0  0  0  0
  -23.9489  -25.9068   27.7226 N   0  3  0  0  0  0  0  0  0  0  0  0
  -22.6806  -14.8702   21.0717 O   0  0  0  0  0  0  0  0  0  0  0  0
  -26.5203  -29.8039   20.6485 O   0  0  0  0  0  0  0  0  0  0  0  0
  -23.7614  -30.2633   23.6931 O   0  0  0  0  0  0  0  0  0  0  0  0
  -26.0861  -27.0377   26.2839 O   0  0  0  0  0  0  0  0  0  0  0  0
  -31.9107  -14.5887   20.0877 O   0  0  0  0  0  0  0  0  0  0  0  0
  -21.2975   -7.2768   22.0786 O   0  0  0  0  0  0  0  0  0  0  0  0
  -28.8044  -24.1072   20.7725 O   0  0  0  0  0  0  0  0  0  1  0  0
  -23.5215   -3.3744   25.2769 F   0  0  0  0  0  0  0  0  0  0  0  0
  -20.1888   -6.6523   24.5329 F   0  0  0  0  0  0  0  0  0  0  0  0
  1  2  1  0  0  0  0
  1  5  2  0  0  0  0
  2  6  2  0  0  0  0
  3  8  2  0  0  0  0
  3 15  1  0  0  0  0
  4  9  1  0  0  0  0
  4 15  2  0  0  0  0
  5 17  1  0  0  0  0
  6 19  1  0  0  0  0
  7 10  2  0  0  0  0
  7 18  1  0  0  0  0
  8 24  1  0  0  0  0
  9 24  2  0  0  0  0
 10 25  1  0  0  0  0
 11 12  2  0  0  0  0
 11 26  1  0  0  0  0
 12 27  1  0  0  0  0
 13 20  1  0  0  0  0
 13 25  2  0  0  0  0
 14 27  2  0  0  0  0
 14 28  1  0  0  0  0
 15 29  1  0  0  0  0
 16 29  1  0  0  0  0
 16 32  2  0  0  0  0
 16 33  1  0  0  0  0
 17 19  2  0  0  0  0
 17 38  1  0  0  0  0
 18 20  2  0  0  0  0
 18 39  1  0  0  0  0
 19 50  1  0  0  0  0
 20 40  1  0  0  0  0
 21 22  1  0  0  0  0
 21 23  2  0  0  0  0
 21 54  1  0  0  0  0
 22 30  2  0  0  0  0
 22 55  1  0  0  0  0
 23 31  1  0  0  0  0
 23 56  1  0  0  0  0
 24 83  1  0  0  0  0
 25 84  1  0  0  0  0
 26 28  2  0  0  0  0
 26 83  1  0  0  0  0
 27 85  1  0  0  0  0
 28 86  1  0  0  0  0
 29 66  2  0  0  0  0
 30 62  1  0  0  0  0
 30 67  1  0  0  0  0
 31 67  2  0  0  0  0
 31 69  1  0  0  0  0
 32 68  1  0  0  0  0
 32 72  1  0  0  0  0
 33 73  1  0  0  0  0
 33 78  2  0  0  0  0
 34 51  1  0  0  0  0
 34 74  1  0  0  0  0
 34 79  2  0  0  0  0
 35 63  1  0  0  0  0
 35 70  1  0  0  0  0
 35 80  2  0  0  0  0
 36 64  1  0  0  0  0
 36 75  1  0  0  0  0
 36 81  2  0  0  0  0
 37 71  1  0  0  0  0
 37 76  1  0  0  0  0
 37 82  2  0  0  0  0
 38 41  1  0  0  0  0
 39 51  1  0  0  0  0
 40 70  1  0  0  0  0
 41 43  1  0  0  0  0
 42 44  1  0  0  0  0
 42 46  1  0  0  0  0
 43 50  1  0  0  0  0
 44 52  1  0  0  0  0
 45 47  1  0  0  0  0
 45 53  1  0  0  0  0
 46 71  1  0  0  0  0
 47 69  1  0  0  0  0
 48 52  1  0  0  0  0
 48 71  1  0  0  0  0
 49 53  1  0  0  0  0
 49 69  1  0  0  0  0
 50 74  1  0  0  0  0
 51 70  1  0  0  0  0
 52 68  1  0  0  0  0
 53 76  1  0  0  0  0
 57 64  1  0  0  0  0
 58 65  1  0  0  0  0
 59 65  1  0  0  0  0
 60 65  1  0  0  0  0
 61 77  1  0  0  0  0
 62 84  1  0  0  0  0
 63 65  1  0  0  0  0
 63 75  1  0  0  0  0
 64 77  1  0  0  0  0
 66 68  1  0  0  0  0
M  CHG  1  77   1
M  ISO  4  37 100  62 101  76 100  84 101
M  END
> <Batch ID>
0167

> <Smiles>
CNC(C)C(=O)NC(C(=O)N1Cc2cc([101O:1][101CH2:1]c3nc(N4CCC([100NH:0][100C:0](=O)N5CCCC(n6nc(-c7ccc(Oc8ccc(F)cc8F)cc7)c(C(N)=O)c6N)C5)C4)c(C)c(C)c3C)ccc2CC1C(=O)NC1CCCc2ccccc21)C(C)(C)C

> <Shape>
0.304

> <Color>
0.227

> <Negative vol penalty>
0.000

$$$$

  -OEChem-04052322273D

 87 96  0     1  0  0  0  0  0999 V2000
  -29.6329  -30.1524   20.7395 C   0  0  0  0  0  0  0  0  0  0  0  0
  -28.4425  -30.4714   20.0961 C   0  0  0  0  0  0  0  0  0  0  0  0
  -26.9700  -15.8707   19.4745 C   0  0  0  0  0  0  0  0  0  0  0  0
  -28.3190  -14.8308   21.1878 C   0  0  0  0  0  0  0  0  0  0  0  0
  -30.2875  -28.9606   20.4354 C   0  0  0  0  0  0  0  0  0  0  0  0
  -27.9000  -29.5933   19.1572 C   0  0  0  0  0  0  0  0  0  0  0  0
  -23.9702  -22.9841   18.7971 C   0  0  0  0  0  0  0  0  0  0  0  0
  -27.8985  -16.9065   19.3721 C   0  0  0  0  0  0  0  0  0  0  0  0
  -29.2476  -15.8666   21.0854 C   0  0  0  0  0  0  0  0  0  0  0  0
  -24.0269  -21.8855   19.6536 C   0  0  0  0  0  0  0  0  0  0  0  0
  -28.6962  -19.7136   21.0775 C   0  0  0  0  0  0  0  0  0  0  0  0
  -28.2068  -21.0187   21.0241 C   0  0  0  0  0  0  0  0  0  0  0  0
  -24.1256  -18.9544   27.3957 C   0  0  0  0  0  0  0  0  0  0  0  0
  -24.0544  -23.3743   21.5515 C   0  0  0  0  0  0  0  0  0  0  0  0
  -29.2433  -21.3188   18.8624 C   0  0  0  0  0  0  0  0  0  0  0  0
  -27.1802  -14.8328   20.3824 C   0  0  0  0  0  0  0  0  0  0  0  0
  -26.2103  -12.5556   19.7650 C   0  0  0  0  0  0  0  0  0  0  0  0
  -29.7585  -28.0739   19.4831 C   0  0  0  0  0  0  0  0  0  0  0  0
  -23.9662  -24.2885   19.3118 C   0  0  0  0  0  0  0  0  0  0  0  0
  -28.5332  -28.3744   18.8540 C   0  0  0  0  0  0  0  0  0  0  0  0
  -23.3549  -17.9613   26.7701 C   0  0  0  0  0  0  0  0  0  0  0  0
  -23.9950  -24.4876   20.6995 C   0  0  0  0  0  0  0  0  0  0  0  0
  -25.3417  -19.3607   26.8502 C   0  0  0  0  0  0  0  0  0  0  0  0
  -25.7995  -18.7826   25.6712 C   0  0  0  0  0  0  0  0  0  0  0  0
  -25.0398  -17.8019   25.0324 C   0  0  0  0  0  0  0  0  0  0  0  0
  -23.8091  -17.3844   25.5675 C   0  0  0  0  0  0  0  0  0  0  0  0
  -29.0373  -16.9045   20.1775 C   0  0  0  0  0  0  0  0  0  0  0  0
  -24.0719  -22.0805   21.0310 C   0  0  0  0  0  0  0  0  0  0  0  0
  -29.4592  -19.2111   20.0235 C   0  0  0  0  0  0  0  0  0  0  0  0
  -28.4804  -21.8213   19.9165 C   0  0  0  0  0  0  0  0  0  0  0  0
  -29.7328  -20.0137   18.9159 C   0  0  0  0  0  0  0  0  0  0  0  0
  -26.2211  -13.7628   20.4891 C   0  0  0  0  0  0  0  0  0  0  0  0
  -25.1049  -11.8861   20.2302 C   0  0  0  0  0  0  0  0  0  0  0  0
  -27.1184  -12.0817   18.7618 C   0  0  0  0  0  0  0  0  0  0  0  0
  -25.8977  -26.8013   19.0701 C   0  0  0  0  0  0  0  0  0  0  0  0
  -23.5364  -28.2847   20.7272 C   0  0  0  0  0  0  0  0  0  0  0  0
  -20.8837  -28.0175   22.8577 C   0  0  0  0  0  0  0  0  0  0  0  0
  -23.6951  -15.3127   24.2535 C   0  0  0  0  0  0  0  0  0  0  0  0
  -30.5043  -26.7942   19.1980 C   0  0  0  0  0  0  0  0  0  0  0  0
  -23.8777  -25.4623   18.3755 C   0  0  0  0  0  0  0  0  0  0  0  0
  -22.0637  -17.5378   27.4219 C   0  0  0  0  0  0  0  0  0  0  0  0
  -23.9723  -25.8673   21.3032 C   0  0  0  0  0  0  0  0  0  0  0  0
  -30.0910  -26.1461   17.8806 C   0  0  0  0  0  0  0  0  0  0  0  0
  -21.5163  -16.2475   26.8205 C   0  0  0  0  0  0  0  0  0  0  0  0
  -21.7003  -14.3096   21.3343 C   0  0  0  0  0  0  0  0  0  0  0  0
  -28.5746  -26.0525   17.8007 C   0  0  0  0  0  0  0  0  0  0  0  0
  -22.0059  -12.8199   21.2443 C   0  0  0  0  0  0  0  0  0  0  0  0
  -21.7012  -14.8106   22.7757 C   0  0  0  0  0  0  0  0  0  0  0  0
  -23.3099  -13.0164   23.4135 C   0  0  0  0  0  0  0  0  0  0  0  0
  -27.9402  -27.4491   17.8069 C   0  0  1  0  0  0  0  0  0  0  0  0
  -24.3979  -26.7578   18.9906 C   0  0  1  0  0  0  0  0  0  0  0  0
  -23.2908  -12.4319   21.9908 C   0  0  2  0  0  0  0  0  0  0  0  0
  -21.5992  -16.2724   25.2882 C   0  0  1  0  0  0  0  0  0  0  0  0
  -26.1215  -20.4310   27.5421 C   0  0  0  0  0  0  0  0  0  0  0  0
  -27.0955  -19.2506   25.0842 C   0  0  0  0  0  0  0  0  0  0  0  0
  -20.7124  -17.3844   24.7084 C   0  0  0  0  0  0  0  0  0  0  0  0
  -19.1766  -29.4078   24.0619 C   0  0  0  0  0  0  0  0  0  0  0  0
  -25.6615  -29.1464   22.7400 C   0  0  0  0  0  0  0  0  0  0  0  0
  -23.8203  -29.6791   24.3507 C   0  0  0  0  0  0  0  0  0  0  0  0
  -23.9749  -30.9077   22.1853 C   0  0  0  0  0  0  0  0  0  0  0  0
  -18.6412  -26.6758   21.4685 C   0  0  0  0  0  0  0  0  0  0  0  0
  -25.5139  -17.4540   23.6536 C   0  0  0  0  0  0  0  0  0  0  0  0
  -23.7182  -18.7094   22.4543 C   0  0  0  0  0  0  0  0  0  0  0  0
  -23.5061  -19.8050   21.4283 C   0  0  0  0  0  0  0  0  0  1  0  0
  -23.2251  -28.4932   22.1896 C   0  0  1  0  0  0  0  0  0  0  0  0
  -19.4865  -28.6087   22.8056 C   0  0  2  0  0  0  0  0  0  0  0  0
  -24.1729  -29.5305   22.8553 C   0  0  0  0  0  0  0  0  0  0  0  0
  -25.2032  -13.8576   21.3487 N   0  0  0  0  0  0  0  0  0  0  0  0
  -24.5425  -12.7014   21.1678 N   0  0  0  0  0  0  0  0  0  0  0  0
  -23.0250  -16.3891   24.8818 N   0  0  0  0  0  0  0  0  0  0  0  0
  -23.8918  -26.9830   20.3461 N   0  0  0  0  0  0  0  0  0  0  0  0
  -22.9082  -14.4223   23.5051 N   0  0  0  0  0  0  0  0  0  0  0  0
  -24.5688  -10.6854   19.9245 N   0  0  0  0  0  0  0  0  0  0  0  0
  -28.2011  -12.8958   18.4024 N   0  0  0  0  0  0  0  0  0  0  0  0
  -26.5063  -27.3156   17.9411 N   0  0  0  0  0  0  0  0  0  0  0  0
  -21.8109  -28.8447   22.2598 N   0  0  0  0  0  0  0  0  0  0  0  0
  -18.4706  -27.5263   22.6746 N   0  3  0  0  0  0  0  0  0  0  0  0
  -25.1774  -18.4903   22.6442 N   0  3  0  0  0  0  0  0  0  0  0  0
  -26.9646  -10.9763   18.1889 O   0  0  0  0  0  0  0  0  0  0  0  0
  -26.4610  -26.3994   20.0815 O   0  0  0  0  0  0  0  0  0  0  0  0
  -23.4600  -29.2399   19.9505 O   0  0  0  0  0  0  0  0  0  0  0  0
  -21.1288  -26.9323   23.3800 O   0  0  0  0  0  0  0  0  0  0  0  0
  -24.9134  -15.1386   24.3899 O   0  0  0  0  0  0  0  0  0  0  0  0
  -29.9437  -17.9150   20.0777 O   0  0  0  0  0  0  0  0  0  0  0  0
  -24.1284  -21.0023   21.8753 O   0  0  0  0  0  0  0  0  0  1  0  0
  -28.0090  -23.0740   19.8646 F   0  0  0  0  0  0  0  0  0  0  0  0
  -30.4642  -19.5361   17.8997 F   0  0  0  0  0  0  0  0  0  0  0  0
  1  2  1  0  0  0  0
  1  5  2  0  0  0  0
  2  6  2  0  0  0  0
  3  8  2  0  0  0  0
  3 16  1  0  0  0  0
  4  9  1  0  0  0  0
  4 16  2  0  0  0  0
  5 18  1  0  0  0  0
  6 20  1  0  0  0  0
  7 10  2  0  0  0  0
  7 19  1  0  0  0  0
  8 27  1  0  0  0  0
  9 27  2  0  0  0  0
 10 28  1  0  0  0  0
 11 12  2  0  0  0  0
 11 29  1  0  0  0  0
 12 30  1  0  0  0  0
 13 21  2  0  0  0  0
 13 23  1  0  0  0  0
 14 22  1  0  0  0  0
 14 28  2  0  0  0  0
 15 30  2  0  0  0  0
 15 31  1  0  0  0  0
 16 32  1  0  0  0  0
 17 32  1  0  0  0  0
 17 33  2  0  0  0  0
 17 34  1  0  0  0  0
 18 20  2  0  0  0  0
 18 39  1  0  0  0  0
 19 22  2  0  0  0  0
 19 40  1  0  0  0  0
 20 50  1  0  0  0  0
 21 26  1  0  0  0  0
 21 41  1  0  0  0  0
 22 42  1  0  0  0  0
 23 24  2  0  0  0  0
 23 54  1  0  0  0  0
 24 25  1  0  0  0  0
 24 55  1  0  0  0  0
 25 26  2  0  0  0  0
 25 62  1  0  0  0  0
 26 70  1  0  0  0  0
 27 84  1  0  0  0  0
 28 85  1  0  0  0  0
 29 31  2  0  0  0  0
 29 84  1  0  0  0  0
 30 86  1  0  0  0  0
 31 87  1  0  0  0  0
 32 68  2  0  0  0  0
 33 69  1  0  0  0  0
 33 73  1  0  0  0  0
 34 74  1  0  0  0  0
 34 79  2  0  0  0  0
 35 51  1  0  0  0  0
 35 75  1  0  0  0  0
 35 80  2  0  0  0  0
 36 65  1  0  0  0  0
 36 71  1  0  0  0  0
 36 81  2  0  0  0  0
 37 66  1  0  0  0  0
 37 76  1  0  0  0  0
 37 82  2  0  0  0  0
 38 70  1  0  0  0  0
 38 72  1  0  0  0  0
 38 83  2  0  0  0  0
 39 43  1  0  0  0  0
 40 51  1  0  0  0  0
 41 44  1  0  0  0  0
 42 71  1  0  0  0  0
 43 46  1  0  0  0  0
 44 53  1  0  0  0  0
 45 47  1  0  0  0  0
 45 48  1  0  0  0  0
 46 50  1  0  0  0  0
 47 52  1  0  0  0  0
 48 72  1  0  0  0  0
 49 52  1  0  0  0  0
 49 72  1  0  0  0  0
 50 75  1  0  0  0  0
 51 71  1  0  0  0  0
 52 69  1  0  0  0  0
 53 56  1  0  0  0  0
 53 70  1  0  0  0  0
 57 66  1  0  0  0  0
 58 67  1  0  0  0  0
 59 67  1  0  0  0  0
 60 67  1  0  0  0  0
 61 77  1  0  0  0  0
 62 78  1  0  0  0  0
 63 64  1  0  0  0  0
 63 78  1  0  0  0  0
 64 85  1  0  0  0  0
 65 67  1  0  0  0  0
 65 76  1  0  0  0  0
 66 77  1  0  0  0  0
 68 69  1  0  0  0  0
M  CHG  2  77   1  78   1
M  ISO  4  38 100  64 101  70 100  85 101
M  END
> <Batch ID>
0167

> <Smiles>
CNC(C)C(=O)NC(C(=O)N1Cc2cc([101O:1][101CH2:1]CNCc3c(C)c(C)cc4c3[100N:0]([100C:0](=O)N3CCCC(n5nc(-c6ccc(Oc7ccc(F)cc7F)cc6)c(C(N)=O)c5N)C3)C(C)CC4)ccc2CC1C(=O)NC1CCCc2ccccc21)C(C)(C)C

> <Shape>
0.241

> <Color>
0.046

> <Negative vol penalty>
0.000

$$$$

  -OEChem-04052322273D

 88 98  0     1  0  0  0  0  0999 V2000
  -19.0116  -26.0362   22.6866 C   0  0  0  0  0  0  0  0  0  0  0  0
  -20.2231  -26.0182   22.0030 C   0  0  0  0  0  0  0  0  0  0  0  0
  -28.9733  -10.2555   21.6959 C   0  0  0  0  0  0  0  0  0  0  0  0
  -29.0636  -12.3296   22.9317 C   0  0  0  0  0  0  0  0  0  0  0  0
  -18.4807  -27.2466   23.1303 C   0  0  0  0  0  0  0  0  0  0  0  0
  -20.9040  -27.2110   21.7618 C   0  0  0  0  0  0  0  0  0  0  0  0
  -25.9388  -26.8523   22.7684 C   0  0  0  0  0  0  0  0  0  0  0  0
  -29.0199   -9.5405   22.8926 C   0  0  0  0  0  0  0  0  0  0  0  0
  -29.1101  -11.6145   24.1284 C   0  0  0  0  0  0  0  0  0  0  0  0
  -26.7579  -26.2203   21.8338 C   0  0  0  0  0  0  0  0  0  0  0  0
  -26.8803   -8.6818   25.3660 C   0  0  0  0  0  0  0  0  0  0  0  0
  -25.9956   -7.6142   25.5180 C   0  0  0  0  0  0  0  0  0  0  0  0
  -27.3980  -28.3711   20.9493 C   0  0  0  0  0  0  0  0  0  0  0  0
  -27.8629   -6.1059   25.7924 C   0  0  0  0  0  0  0  0  0  0  0  0
  -28.9953  -11.6501   21.7154 C   0  0  0  0  0  0  0  0  0  0  0  0
  -29.8695  -12.3293   19.4171 C   0  0  0  0  0  0  0  0  0  0  0  0
  -19.1601  -28.4538   22.9028 C   0  0  0  0  0  0  0  0  0  0  0  0
  -25.8347  -28.2506   22.7942 C   0  0  0  0  0  0  0  0  0  0  0  0
  -20.3810  -28.4389   22.2016 C   0  0  0  0  0  0  0  0  0  0  0  0
  -26.5806  -29.0185   21.8883 C   0  0  0  0  0  0  0  0  0  0  0  0
  -29.0882  -10.2199   24.1088 C   0  0  0  0  0  0  0  0  0  0  0  0
  -27.4858  -26.9796   20.9226 C   0  0  0  0  0  0  0  0  0  0  0  0
  -28.2563   -8.4614   25.4271 C   0  0  0  0  0  0  0  0  0  0  0  0
  -26.4869   -6.3262   25.7313 C   0  0  0  0  0  0  0  0  0  0  0  0
  -28.7476   -7.1735   25.6404 C   0  0  0  0  0  0  0  0  0  0  0  0
  -28.9478  -12.3894   20.4795 C   0  0  0  0  0  0  0  0  0  0  0  0
  -29.3797  -13.2135   18.4872 C   0  0  0  0  0  0  0  0  0  0  0  0
  -31.0618  -11.5445   19.2829 C   0  0  0  0  0  0  0  0  0  0  0  0
  -23.4987  -30.4087   22.4315 C   0  0  0  0  0  0  0  0  0  0  0  0
  -25.9710  -32.4600   23.2875 C   0  0  0  0  0  0  0  0  0  0  0  0
  -23.6792  -34.9420   23.7642 C   0  0  0  0  0  0  0  0  0  0  0  0
  -27.2716  -17.9325   17.0261 C   0  0  0  0  0  0  0  0  0  0  0  0
  -18.5236  -29.7424   23.3599 C   0  0  0  0  0  0  0  0  0  0  0  0
  -24.9685  -28.9141   23.8305 C   0  0  0  0  0  0  0  0  0  0  0  0
  -26.5063  -30.5215   21.8777 C   0  0  0  0  0  0  0  0  0  0  0  0
  -19.4918  -30.9222   23.3921 C   0  0  0  0  0  0  0  0  0  0  0  0
  -25.5831  -24.6863   16.2515 C   0  0  0  0  0  0  0  0  0  0  0  0
  -24.9329  -15.5943   18.2142 C   0  0  0  0  0  0  0  0  0  0  0  0
  -20.3118  -30.9750   22.1070 C   0  0  0  0  0  0  0  0  0  0  0  0
  -25.8475  -14.5365   18.8309 C   0  0  0  0  0  0  0  0  0  0  0  0
  -26.8178  -24.1557   15.4958 C   0  0  0  0  0  0  0  0  0  0  0  0
  -26.2026  -24.1399   17.5532 C   0  0  0  0  0  0  0  0  0  0  0  0
  -30.4889  -24.3136   18.0506 C   0  0  0  0  0  0  0  0  0  0  0  0
  -30.3853  -25.2514   20.3975 C   0  0  0  0  0  0  0  0  0  0  0  0
  -28.3986  -24.0107   19.4411 C   0  0  0  0  0  0  0  0  0  0  0  0
  -25.4248  -17.0143   18.4999 C   0  0  0  0  0  0  0  0  0  0  0  0
  -25.7001  -19.8235   17.6455 C   0  0  0  0  0  0  0  0  0  0  0  0
  -26.6945  -19.6955   15.3848 C   0  0  0  0  0  0  0  0  0  0  0  0
  -27.7476  -16.1935   18.7247 C   0  0  0  0  0  0  0  0  0  0  0  0
  -26.2864  -21.2204   17.8344 C   0  0  0  0  0  0  0  0  0  0  0  0
  -27.3136  -21.0756   15.5481 C   0  0  0  0  0  0  0  0  0  0  0  0
  -21.1615  -29.7092   21.9423 C   0  0  1  0  0  0  0  0  0  0  0  0
  -24.5793  -30.3472   23.4736 C   0  0  1  0  0  0  0  0  0  0  0  0
  -30.9560  -25.4402   18.9830 C   0  0  1  0  0  0  0  0  0  0  0  0
  -28.9584  -24.1955   18.0221 C   0  0  2  0  0  0  0  0  0  0  0  0
  -27.3104  -14.7554   18.4058 C   0  0  1  0  0  0  0  0  0  0  0  0
  -28.8629  -25.1144   20.3928 C   0  0  2  0  0  0  0  0  0  1  0  0
  -27.0797  -23.1979   16.6875 C   0  0  0  0  0  0  0  0  0  0  0  0
  -32.4822  -25.5068   19.0239 C   0  0  0  0  0  0  0  0  0  0  0  0
  -23.4585  -37.2720   24.6695 C   0  0  0  0  0  0  0  0  0  0  0  0
  -26.0631  -31.3602   26.1313 C   0  0  0  0  0  0  0  0  0  0  0  0
  -24.9238  -33.4522   26.9019 C   0  0  0  0  0  0  0  0  0  0  0  0
  -27.1749  -33.5806   25.8348 C   0  0  0  0  0  0  0  0  0  0  0  0
  -22.8238  -36.0058   21.1382 C   0  0  0  0  0  0  0  0  0  0  0  0
  -28.5249  -23.0411   17.1194 C   0  0  0  0  0  0  0  0  0  0  0  0
  -25.1551  -33.0548   24.4080 C   0  0  1  0  0  0  0  0  0  0  0  0
  -23.7149  -36.4233   23.4339 C   0  0  2  0  0  0  0  0  0  0  0  0
  -25.8174  -32.8455   25.7990 C   0  0  0  0  0  0  0  0  0  0  0  0
  -27.9482  -13.2442   20.2472 N   0  0  0  0  0  0  0  0  0  0  0  0
  -28.2390  -13.7295   19.0282 N   0  0  0  0  0  0  0  0  0  0  0  0
  -25.7157  -31.1223   22.9598 N   0  0  0  0  0  0  0  0  0  0  0  0
  -26.8353  -17.1638   18.1156 N   0  0  0  0  0  0  0  0  0  0  0  0
  -26.4930  -19.0474   16.6811 N   0  0  0  0  0  0  0  0  0  0  0  0
  -29.8178  -13.5922   17.2678 N   0  0  0  0  0  0  0  0  0  0  0  0
  -32.2724  -12.0852   19.7373 N   0  0  0  0  0  0  0  0  0  0  0  0
  -22.3289  -29.7695   22.7956 N   0  0  0  0  0  0  0  0  0  0  0  0
  -24.9353  -34.4532   24.0551 N   0  0  0  0  0  0  0  0  0  0  0  0
  -26.4500  -21.8708   16.4890 N   0  3  0  0  0  0  0  0  0  0  0  0
  -22.6786  -36.7519   22.4147 N   0  3  0  0  0  0  0  0  0  0  0  0
  -31.0566  -10.4043   18.7600 O   0  0  0  0  0  0  0  0  0  0  0  0
  -23.7100  -30.9940   21.3759 O   0  0  0  0  0  0  0  0  0  0  0  0
  -26.8175  -33.1578   22.7219 O   0  0  0  0  0  0  0  0  0  0  0  0
  -22.6404  -34.2852   23.7676 O   0  0  0  0  0  0  0  0  0  0  0  0
  -28.2975  -17.6404   16.3988 O   0  0  0  0  0  0  0  0  0  0  0  0
  -29.1334   -9.5225   25.2768 O   0  0  0  0  0  0  0  0  0  0  0  0
  -28.2910  -26.3619   20.0046 O   0  0  0  0  0  0  0  0  0  1  0  0
  -25.6372   -5.3014   25.8788 F   0  0  0  0  0  0  0  0  0  0  0  0
  -30.0685   -6.9558   25.7012 F   0  0  0  0  0  0  0  0  0  0  0  0
  1  2  1  0  0  0  0
  1  5  2  0  0  0  0
  2  6  2  0  0  0  0
  3  8  2  0  0  0  0
  3 15  1  0  0  0  0
  4  9  1  0  0  0  0
  4 15  2  0  0  0  0
  5 17  1  0  0  0  0
  6 19  1  0  0  0  0
  7 10  2  0  0  0  0
  7 18  1  0  0  0  0
  8 21  1  0  0  0  0
  9 21  2  0  0  0  0
 10 22  1  0  0  0  0
 11 12  2  0  0  0  0
 11 23  1  0  0  0  0
 12 24  1  0  0  0  0
 13 20  1  0  0  0  0
 13 22  2  0  0  0  0
 14 24  2  0  0  0  0
 14 25  1  0  0  0  0
 15 26  1  0  0  0  0
 16 26  1  0  0  0  0
 16 27  2  0  0  0  0
 16 28  1  0  0  0  0
 17 19  2  0  0  0  0
 17 33  1  0  0  0  0
 18 20  2  0  0  0  0
 18 34  1  0  0  0  0
 19 52  1  0  0  0  0
 20 35  1  0  0  0  0
 21 85  1  0  0  0  0
 22 86  1  0  0  0  0
 23 25  2  0  0  0  0
 23 85  1  0  0  0  0
 24 87  1  0  0  0  0
 25 88  1  0  0  0  0
 26 69  2  0  0  0  0
 27 70  1  0  0  0  0
 27 74  1  0  0  0  0
 28 75  1  0  0  0  0
 28 80  2  0  0  0  0
 29 53  1  0  0  0  0
 29 76  1  0  0  0  0
 29 81  2  0  0  0  0
 30 66  1  0  0  0  0
 30 71  1  0  0  0  0
 30 82  2  0  0  0  0
 31 67  1  0  0  0  0
 31 77  1  0  0  0  0
 31 83  2  0  0  0  0
 32 72  1  0  0  0  0
 32 73  1  0  0  0  0
 32 84  2  0  0  0  0
 33 36  1  0  0  0  0
 34 53  1  0  0  0  0
 35 71  1  0  0  0  0
 36 39  1  0  0  0  0
 37 41  1  0  0  0  0
 37 42  1  0  0  0  0
 38 40  1  0  0  0  0
 38 46  1  0  0  0  0
 39 52  1  0  0  0  0
 40 56  1  0  0  0  0
 41 58  1  0  0  0  0
 42 58  1  0  0  0  0
 43 54  1  0  0  0  0
 43 55  1  0  0  0  0
 44 54  1  0  0  0  0
 44 57  1  0  0  0  0
 45 55  1  0  0  0  0
 45 57  1  0  0  0  0
 46 72  1  0  0  0  0
 47 50  1  0  0  0  0
 47 73  1  0  0  0  0
 48 51  1  0  0  0  0
 48 73  1  0  0  0  0
 49 56  1  0  0  0  0
 49 72  1  0  0  0  0
 50 78  1  0  0  0  0
 51 78  1  0  0  0  0
 52 76  1  0  0  0  0
 53 71  1  0  0  0  0
 54 59  1  0  0  0  0
 55 65  1  0  0  0  0
 56 70  1  0  0  0  0
 57 86  1  0  0  0  0
 58 65  1  0  0  0  0
 58 78  1  0  0  0  0
 60 67  1  0  0  0  0
 61 68  1  0  0  0  0
 62 68  1  0  0  0  0
 63 68  1  0  0  0  0
 64 79  1  0  0  0  0
 66 68  1  0  0  0  0
 66 77  1  0  0  0  0
 67 79  1  0  0  0  0
 69 70  1  0  0  0  0
M  CHG  2  78   1  79   1
M  ISO  4  32 100  57 101  73 100  86 101
M  END
> <Batch ID>
0167

> <Smiles>
CNC(C)C(=O)NC(C(=O)N1Cc2cc([101O:1][101CH:1]3CC(C)CC(CC4(N5CC[100N:0]([100C:0](=O)N6CCCC(n7nc(-c8ccc(Oc9ccc(F)cc9F)cc8)c(C(N)=O)c7N)C6)CC5)CCC4)C3)ccc2CC1C(=O)NC1CCCc2ccccc21)C(C)(C)C

> <Shape>
0.263

> <Color>
0.065

> <Negative vol penalty>
0.000

$$$$

  -OEChem-04052322273D

 87 97  0     1  0  0  0  0  0999 V2000
  -27.2221  -30.5975   28.5453 C   0  0  0  0  0  0  0  0  0  0  0  0
  -27.4242  -29.7772   27.4400 C   0  0  0  0  0  0  0  0  0  0  0  0
  -24.2019   -9.5026   21.9342 C   0  0  0  0  0  0  0  0  0  0  0  0
  -22.8068   -9.8098   19.9858 C   0  0  0  0  0  0  0  0  0  0  0  0
  -25.9624  -31.1451   28.7846 C   0  0  0  0  0  0  0  0  0  0  0  0
  -26.3663  -29.5033   26.5738 C   0  0  0  0  0  0  0  0  0  0  0  0
  -27.7002  -29.8676   21.7021 C   0  0  0  0  0  0  0  0  0  0  0  0
  -23.6374   -8.2439   22.1400 C   0  0  0  0  0  0  0  0  0  0  0  0
  -22.2423   -8.5510   20.1916 C   0  0  0  0  0  0  0  0  0  0  0  0
  -28.4139  -28.8018   21.1559 C   0  0  0  0  0  0  0  0  0  0  0  0
  -20.7825   -6.9757   23.4306 C   0  0  0  0  0  0  0  0  0  0  0  0
  -20.4046   -6.6404   24.7307 C   0  0  0  0  0  0  0  0  0  0  0  0
  -28.0335  -20.5802   22.2561 C   0  0  0  0  0  0  0  0  0  0  0  0
  -26.2895  -22.5793   21.2874 C   0  0  0  0  0  0  0  0  0  0  0  0
  -26.3853  -27.9641   20.1549 C   0  0  0  0  0  0  0  0  0  0  0  0
  -21.9259   -4.7639   24.6890 C   0  0  0  0  0  0  0  0  0  0  0  0
  -23.7866  -10.2856   20.8571 C   0  0  0  0  0  0  0  0  0  0  0  0
  -25.5085  -11.8922   19.8764 C   0  0  0  0  0  0  0  0  0  0  0  0
  -24.8910  -30.8855   27.9155 C   0  0  0  0  0  0  0  0  0  0  0  0
  -26.3193  -29.9839   21.4874 C   0  0  0  0  0  0  0  0  0  0  0  0
  -25.0908  -30.0468   26.8023 C   0  0  0  0  0  0  0  0  0  0  0  0
  -28.3771  -21.3566   21.1608 C   0  0  0  0  0  0  0  0  0  0  0  0
  -27.5167  -22.3525   20.6842 C   0  0  0  0  0  0  0  0  0  0  0  0
  -25.6568  -29.0337   20.6973 C   0  0  0  0  0  0  0  0  0  0  0  0
  -25.9317  -21.7950   22.3860 C   0  0  0  0  0  0  0  0  0  0  0  0
  -26.7981  -20.8024   22.8675 C   0  0  0  0  0  0  0  0  0  0  0  0
  -22.6576   -7.7680   21.2687 C   0  0  0  0  0  0  0  0  0  0  0  0
  -27.7560  -27.8482   20.3846 C   0  0  0  0  0  0  0  0  0  0  0  0
  -21.7320   -6.2050   22.7595 C   0  0  0  0  0  0  0  0  0  0  0  0
  -20.9763   -5.5346   25.3599 C   0  0  0  0  0  0  0  0  0  0  0  0
  -22.3037   -5.0992   23.3888 C   0  0  0  0  0  0  0  0  0  0  0  0
  -24.3690  -11.5863   20.6443 C   0  0  0  0  0  0  0  0  0  0  0  0
  -25.6451  -13.2539   19.9921 C   0  0  0  0  0  0  0  0  0  0  0  0
  -26.3666  -11.0231   19.1254 C   0  0  0  0  0  0  0  0  0  0  0  0
  -23.7505  -29.9858   23.3596 C   0  0  0  0  0  0  0  0  0  0  0  0
  -22.2148  -30.6981   20.5925 C   0  0  0  0  0  0  0  0  0  0  0  0
  -22.1855  -30.5799   17.1819 C   0  0  0  0  0  0  0  0  0  0  0  0
  -25.8105  -17.7094   23.2283 C   0  0  0  0  0  0  0  0  0  0  0  0
  -23.5358  -31.4617   28.2415 C   0  0  0  0  0  0  0  0  0  0  0  0
  -25.5686  -31.1542   22.0613 C   0  0  0  0  0  0  0  0  0  0  0  0
  -29.6583  -21.3168   20.3874 C   0  0  0  0  0  0  0  0  0  0  0  0
  -24.1791  -29.1242   20.4201 C   0  0  0  0  0  0  0  0  0  0  0  0
  -22.5601  -31.4252   27.0680 C   0  0  0  0  0  0  0  0  0  0  0  0
  -22.5231  -16.7424   21.8607 C   0  0  0  0  0  0  0  0  0  0  0  0
  -22.5847  -30.0562   26.3957 C   0  0  0  0  0  0  0  0  0  0  0  0
  -22.8027  -15.3123   21.4082 C   0  0  0  0  0  0  0  0  0  0  0  0
  -23.3172  -17.1135   23.1124 C   0  0  0  0  0  0  0  0  0  0  0  0
  -25.0650  -15.4586   22.5200 C   0  0  0  0  0  0  0  0  0  0  0  0
  -29.8368  -24.4916   18.7461 C   0  0  0  0  0  0  0  0  0  0  0  0
  -28.1001  -23.0613   19.5039 C   0  0  1  0  0  0  0  0  0  0  0  0
  -23.9743  -29.7463   25.8260 C   0  0  1  0  0  0  0  0  0  0  0  0
  -24.0726  -30.8920   22.2051 C   0  0  1  0  0  0  0  0  0  0  0  0
  -28.7283  -24.4250   19.7874 C   0  0  2  0  0  0  0  0  0  0  0  0
  -24.3120  -15.0837   21.2343 C   0  0  1  0  0  0  0  0  0  0  0  0
  -29.2979  -22.1532   19.1484 C   0  0  1  0  0  0  0  0  0  0  0  0
  -24.6093  -22.0341   23.0400 C   0  0  0  0  0  0  0  0  0  0  0  0
  -20.7794  -31.2093   15.2010 C   0  0  0  0  0  0  0  0  0  0  0  0
  -20.3703  -28.3331   21.1534 C   0  0  0  0  0  0  0  0  0  0  0  0
  -19.6411  -28.4237   18.7601 C   0  0  0  0  0  0  0  0  0  0  0  0
  -19.2178  -30.3673   20.2655 C   0  0  0  0  0  0  0  0  0  0  0  0
  -31.1575  -22.7227   17.5313 C   0  0  0  0  0  0  0  0  0  0  0  0
  -24.2810  -32.3800   16.1200 C   0  0  0  0  0  0  0  0  0  0  0  0
  -26.4180  -19.9663   24.0465 C   0  0  0  0  0  0  0  0  0  0  0  0
  -27.7500  -25.5827   19.6612 C   0  0  0  0  0  0  0  0  0  1  0  0
  -21.5760  -29.8933   19.4866 C   0  0  1  0  0  0  0  0  0  0  0  0
  -21.8941  -31.6443   16.1396 C   0  0  2  0  0  0  0  0  0  0  0  0
  -20.2288  -29.2513   19.9230 C   0  0  0  0  0  0  0  0  0  0  0  0
  -23.8208  -12.6668   21.2065 N   0  0  0  0  0  0  0  0  0  0  0  0
  -24.6194  -13.6649   20.7915 N   0  0  0  0  0  0  0  0  0  0  0  0
  -23.4879  -30.2833   21.0085 N   0  0  0  0  0  0  0  0  0  0  0  0
  -24.7512  -16.8274   22.9482 N   0  0  0  0  0  0  0  0  0  0  0  0
  -26.5416  -14.1279   19.4872 N   0  0  0  0  0  0  0  0  0  0  0  0
  -26.0826   -9.6507   19.1134 N   0  0  0  0  0  0  0  0  0  0  0  0
  -24.1819  -30.4594   24.5839 N   0  0  0  0  0  0  0  0  0  0  0  0
  -21.4673  -30.7891   18.3402 N   0  0  0  0  0  0  0  0  0  0  0  0
  -25.4452  -18.9613   23.7101 N   0  0  0  0  0  0  0  0  0  0  0  0
  -30.4245  -23.0977   18.7794 N   0  3  1  0  0  0  0  0  0  0  0  0
  -23.1121  -31.9204   15.3265 N   0  3  0  0  0  0  0  0  0  0  0  0
  -27.3656  -11.4487   18.4974 O   0  0  0  0  0  0  0  0  0  0  0  0
  -23.1534  -28.9355   23.1549 O   0  0  0  0  0  0  0  0  0  0  0  0
  -21.6097  -31.6638   21.0648 O   0  0  0  0  0  0  0  0  0  0  0  0
  -22.9690  -29.6532   16.9867 O   0  0  0  0  0  0  0  0  0  0  0  0
  -26.9972  -17.4036   23.0670 O   0  0  0  0  0  0  0  0  0  0  0  0
  -22.1067   -6.5396   21.4691 O   0  0  0  0  0  0  0  0  0  0  0  0
  -28.4561  -26.7976   19.8463 O   0  0  0  0  0  0  0  0  0  1  0  0
  -20.6145   -5.2136   26.6090 F   0  0  0  0  0  0  0  0  0  0  0  0
  -23.2173   -4.3557   22.7496 F   0  0  0  0  0  0  0  0  0  0  0  0
  1  2  1  0  0  0  0
  1  5  2  0  0  0  0
  2  6  2  0  0  0  0
  3  8  2  0  0  0  0
  3 17  1  0  0  0  0
  4  9  1  0  0  0  0
  4 17  2  0  0  0  0
  5 19  1  0  0  0  0
  6 21  1  0  0  0  0
  7 10  2  0  0  0  0
  7 20  1  0  0  0  0
  8 27  1  0  0  0  0
  9 27  2  0  0  0  0
 10 28  1  0  0  0  0
 11 12  2  0  0  0  0
 11 29  1  0  0  0  0
 12 30  1  0  0  0  0
 13 22  1  0  0  0  0
 13 26  2  0  0  0  0
 14 23  1  0  0  0  0
 14 25  2  0  0  0  0
 15 24  1  0  0  0  0
 15 28  2  0  0  0  0
 16 30  2  0  0  0  0
 16 31  1  0  0  0  0
 17 32  1  0  0  0  0
 18 32  1  0  0  0  0
 18 33  2  0  0  0  0
 18 34  1  0  0  0  0
 19 21  2  0  0  0  0
 19 39  1  0  0  0  0
 20 24  2  0  0  0  0
 20 40  1  0  0  0  0
 21 51  1  0  0  0  0
 22 23  2  0  0  0  0
 22 41  1  0  0  0  0
 23 50  1  0  0  0  0
 24 42  1  0  0  0  0
 25 26  1  0  0  0  0
 25 56  1  0  0  0  0
 26 63  1  0  0  0  0
 27 84  1  0  0  0  0
 28 85  1  0  0  0  0
 29 31  2  0  0  0  0
 29 84  1  0  0  0  0
 30 86  1  0  0  0  0
 31 87  1  0  0  0  0
 32 68  2  0  0  0  0
 33 69  1  0  0  0  0
 33 72  1  0  0  0  0
 34 73  1  0  0  0  0
 34 79  2  0  0  0  0
 35 52  1  0  0  0  0
 35 74  1  0  0  0  0
 35 80  2  0  0  0  0
 36 65  1  0  0  0  0
 36 70  1  0  0  0  0
 36 81  2  0  0  0  0
 37 66  1  0  0  0  0
 37 75  1  0  0  0  0
 37 82  2  0  0  0  0
 38 71  1  0  0  0  0
 38 76  1  0  0  0  0
 38 83  2  0  0  0  0
 39 43  1  0  0  0  0
 40 52  1  0  0  0  0
 41 55  1  0  0  0  0
 42 70  1  0  0  0  0
 43 45  1  0  0  0  0
 44 46  1  0  0  0  0
 44 47  1  0  0  0  0
 45 51  1  0  0  0  0
 46 54  1  0  0  0  0
 47 71  1  0  0  0  0
 48 54  1  0  0  0  0
 48 71  1  0  0  0  0
 49 53  1  0  0  0  0
 49 77  1  0  0  0  0
 50 53  1  0  0  0  0
 50 55  1  0  0  0  0
 51 74  1  0  0  0  0
 52 70  1  0  0  0  0
 53 64  1  0  0  0  0
 54 69  1  0  0  0  0
 55 77  1  0  0  0  0
 57 66  1  0  0  0  0
 58 67  1  0  0  0  0
 59 67  1  0  0  0  0
 60 67  1  0  0  0  0
 61 77  1  0  0  0  0
 62 78  1  0  0  0  0
 63 76  1  0  0  0  0
 64 85  1  0  0  0  0
 65 67  1  0  0  0  0
 65 75  1  0  0  0  0
 66 78  1  0  0  0  0
 68 69  1  0  0  0  0
M  CHG  2  77   1  78   1
M  ISO  4  38 100  64 101  76 100  85 101
M  END
> <Batch ID>
0167

> <Smiles>
CNC(C)C(=O)NC(C(=O)N1Cc2cc([101O:1][101CH2:1]C3CN(C)C4Cc5cc(C[100NH:0][100C:0](=O)N6CCCC(n7nc(-c8ccc(Oc9ccc(F)cc9F)cc8)c(C(N)=O)c7N)C6)c(C)cc5C43)ccc2CC1C(=O)NC1CCCc2ccccc21)C(C)(C)C

> <Shape>
0.276

> <Color>
0.113

> <Negative vol penalty>
0.000

$$$$

  -OEChem-04052322273D

 99109  0     1  0  0  0  0  0999 V2000
  -28.8237  -33.8178   28.0441 C   0  0  0  0  0  0  0  0  0  0  0  0
  -28.5837  -32.7158   27.2296 C   0  0  0  0  0  0  0  0  0  0  0  0
  -26.5032   -5.3724   20.7561 C   0  0  0  0  0  0  0  0  0  0  0  0
  -25.1718   -7.3124   21.3045 C   0  0  0  0  0  0  0  0  0  0  0  0
  -27.8681  -34.8277   28.1481 C   0  0  0  0  0  0  0  0  0  0  0  0
  -27.3873  -32.6227   26.5193 C   0  0  0  0  0  0  0  0  0  0  0  0
  -28.0848  -31.1563   21.7226 C   0  0  0  0  0  0  0  0  0  0  0  0
  -25.8740   -4.6533   21.7722 C   0  0  0  0  0  0  0  0  0  0  0  0
  -24.5425   -6.5933   22.3207 C   0  0  0  0  0  0  0  0  0  0  0  0
  -28.3151  -29.7996   21.4987 C   0  0  0  0  0  0  0  0  0  0  0  0
  -22.0914   -4.2817   22.5837 C   0  0  0  0  0  0  0  0  0  0  0  0
  -20.7045   -4.3881   22.6876 C   0  0  0  0  0  0  0  0  0  0  0  0
  -28.3689  -23.4073   21.3046 C   0  0  0  0  0  0  0  0  0  0  0  0
  -26.0059  -29.5194   20.8595 C   0  0  0  0  0  0  0  0  0  0  0  0
  -29.4798  -25.2939   19.5756 C   0  0  0  0  0  0  0  0  0  0  0  0
  -28.2020  -14.9401   20.4436 C   0  0  0  0  0  0  0  0  0  0  0  0
  -20.9396   -5.2666   24.9260 C   0  0  0  0  0  0  0  0  0  0  0  0
  -26.1522   -6.7020   20.5223 C   0  0  0  0  0  0  0  0  0  0  0  0
  -28.9807  -22.9938   20.1213 C   0  0  0  0  0  0  0  0  0  0  0  0
  -26.3984   -7.5488   18.1285 C   0  0  0  0  0  0  0  0  0  0  0  0
  -26.6636  -34.7515   27.4313 C   0  0  0  0  0  0  0  0  0  0  0  0
  -26.8086  -31.7035   21.5269 C   0  0  0  0  0  0  0  0  0  0  0  0
  -26.4141  -33.6319   26.6149 C   0  0  0  0  0  0  0  0  0  0  0  0
  -25.7627  -30.8839   21.0793 C   0  0  0  0  0  0  0  0  0  0  0  0
  -28.3124  -24.7641   21.6234 C   0  0  0  0  0  0  0  0  0  0  0  0
  -29.5362  -23.9370   19.2568 C   0  0  0  0  0  0  0  0  0  0  0  0
  -28.8679  -25.7074   20.7589 C   0  0  0  0  0  0  0  0  0  0  0  0
  -27.9392  -16.2956   20.6075 C   0  0  0  0  0  0  0  0  0  0  0  0
  -28.9723  -17.2181   20.4848 C   0  0  0  0  0  0  0  0  0  0  0  0
  -24.8936   -5.2637   22.5545 C   0  0  0  0  0  0  0  0  0  0  0  0
  -27.2749  -28.9804   21.0698 C   0  0  0  0  0  0  0  0  0  0  0  0
  -22.9025   -4.6677   23.6509 C   0  0  0  0  0  0  0  0  0  0  0  0
  -20.1286   -4.8805   23.8587 C   0  0  0  0  0  0  0  0  0  0  0  0
  -22.3266   -5.1601   24.8221 C   0  0  0  0  0  0  0  0  0  0  0  0
  -26.8022   -7.4456   19.4731 C   0  0  0  0  0  0  0  0  0  0  0  0
  -30.2403  -16.7377   20.1998 C   0  0  0  0  0  0  0  0  0  0  0  0
  -29.5044  -14.5617   20.1602 C   0  0  0  0  0  0  0  0  0  0  0  0
  -27.3415   -8.3612   17.5481 C   0  0  0  0  0  0  0  0  0  0  0  0
  -29.0259  -21.5709   19.8126 C   0  0  0  0  0  0  0  0  0  0  0  0
  -25.2713   -6.9627   17.4636 C   0  0  0  0  0  0  0  0  0  0  0  0
  -24.6735  -33.1397   23.3930 C   0  0  0  0  0  0  0  0  0  0  0  0
  -23.1044  -33.5898   20.5898 C   0  0  0  0  0  0  0  0  0  0  0  0
  -22.5698  -32.5795   17.3742 C   0  0  0  0  0  0  0  0  0  0  0  0
  -30.9860  -12.5750   19.7084 C   0  0  0  0  0  0  0  0  0  0  0  0
  -25.6406  -35.8449   27.6124 C   0  0  0  0  0  0  0  0  0  0  0  0
  -26.5830  -33.1742   21.7472 C   0  0  0  0  0  0  0  0  0  0  0  0
  -24.3791  -31.4264   20.8348 C   0  0  0  0  0  0  0  0  0  0  0  0
  -24.5588  -35.8514   26.5355 C   0  0  0  0  0  0  0  0  0  0  0  0
  -31.9413   -9.6342   17.9430 C   0  0  0  0  0  0  0  0  0  0  0  0
  -24.0276  -34.4403   26.3039 C   0  0  0  0  0  0  0  0  0  0  0  0
  -30.6930   -8.7511   18.0074 C   0  0  0  0  0  0  0  0  0  0  0  0
  -24.5608  -21.2366   19.6918 C   0  0  0  0  0  0  0  0  0  0  0  0
  -32.1421  -10.4273   19.2331 C   0  0  0  0  0  0  0  0  0  0  0  0
  -29.7313  -10.3298   19.7308 C   0  0  0  0  0  0  0  0  0  0  0  0
  -25.1391  -33.5067   25.8094 C   0  0  1  0  0  0  0  0  0  0  0  0
  -25.1210  -33.5216   22.0104 C   0  0  1  0  0  0  0  0  0  0  0  0
  -29.4512   -9.5606   18.4294 C   0  0  2  0  0  0  0  0  0  0  0  0
  -24.2860  -21.7523   18.3092 C   0  0  2  0  0  0  0  0  0  0  0  0
  -25.4096  -20.7641   18.5323 C   0  0  2  0  0  0  0  0  0  0  0  0
  -27.6521  -25.1833   22.8957 C   0  0  0  0  0  0  0  0  0  0  0  0
  -30.1967  -23.5215   17.9828 C   0  0  0  0  0  0  0  0  0  0  0  0
  -26.5454  -16.7342   20.9141 C   0  0  0  0  0  0  0  0  0  0  0  0
  -31.3895  -17.6818   20.0578 C   0  0  0  0  0  0  0  0  0  0  0  0
  -25.1967  -19.3600   18.0294 C   0  0  0  0  0  0  0  0  0  0  0  0
  -21.2011  -33.1197   15.3414 C   0  0  0  0  0  0  0  0  0  0  0  0
  -20.6654  -32.2991   21.8920 C   0  0  0  0  0  0  0  0  0  0  0  0
  -19.6888  -32.0022   19.6059 C   0  0  0  0  0  0  0  0  0  0  0  0
  -20.1568  -34.2941   20.4723 C   0  0  0  0  0  0  0  0  0  0  0  0
  -24.9831  -33.1406   15.7556 C   0  0  0  0  0  0  0  0  0  0  0  0
  -28.7190  -18.6870   20.6552 C   0  0  0  0  0  0  0  0  0  0  0  0
  -28.8195  -27.1721   21.0808 C   0  0  0  0  0  0  0  0  0  1  0  0
  -26.8626  -21.2232   18.4850 C   0  0  0  0  0  0  0  0  0  0  0  0
  -27.7276  -20.7523   19.6598 C   0  0  1  0  0  0  0  0  0  0  0  0
  -22.0862  -32.8066   19.7968 C   0  0  1  0  0  0  0  0  0  0  0  0
  -22.5147  -33.3554   16.0705 C   0  0  2  0  0  0  0  0  0  0  0  0
  -20.6748  -32.8396   20.4481 C   0  0  0  0  0  0  0  0  0  0  0  0
  -27.9154   -8.1370   19.7317 N   0  0  0  0  0  0  0  0  0  0  0  0
  -30.5340  -15.4286   20.0338 N   0  0  0  0  0  0  0  0  0  0  0  0
  -28.2190   -8.6824   18.5416 N   0  0  0  0  0  0  0  0  0  0  0  0
  -24.2071  -32.8694   21.0704 N   0  0  0  0  0  0  0  0  0  0  0  0
  -30.9265  -11.1723   19.5680 N   0  0  0  0  0  0  0  0  0  0  0  0
  -27.4976   -8.8249   16.2899 N   0  0  0  0  0  0  0  0  0  0  0  0
  -24.4020   -6.1545   18.2088 N   0  0  0  0  0  0  0  0  0  0  0  0
  -29.7619  -13.1781   19.9953 N   0  0  0  0  0  0  0  0  0  0  0  0
  -25.4028  -33.7344   24.4048 N   0  0  0  0  0  0  0  0  0  0  0  0
  -22.1302  -33.3377   18.4387 N   0  0  0  0  0  0  0  0  0  0  0  0
  -23.6307  -32.9416   15.1739 N   0  3  0  0  0  0  0  0  0  0  0  0
  -28.0304  -19.2968   19.4916 N   0  3  0  0  0  0  0  0  0  0  0  0
  -30.1241  -20.9988   19.6600 O   0  0  0  0  0  0  0  0  0  0  0  0
  -25.0512   -7.1369   16.2410 O   0  0  0  0  0  0  0  0  0  0  0  0
  -23.7349  -32.3641   23.5315 O   0  0  0  0  0  0  0  0  0  0  0  0
  -22.9314  -34.7978   20.7700 O   0  0  0  0  0  0  0  0  0  0  0  0
  -22.9600  -31.4160   17.4408 O   0  0  0  0  0  0  0  0  0  0  0  0
  -32.0397  -13.1983   19.5564 O   0  0  0  0  0  0  0  0  0  0  0  0
  -24.2792   -4.5622   23.5459 O   0  0  0  0  0  0  0  0  0  0  0  0
  -27.4967  -27.6557   20.8511 O   0  0  0  0  0  0  0  0  0  1  0  0
  -18.7969   -4.9841   23.9578 F   0  0  0  0  0  0  0  0  0  0  0  0
  -23.1006   -5.5336   25.8503 F   0  0  0  0  0  0  0  0  0  0  0  0
  -24.5832  -23.4305   17.9414 Cl  0  0  0  0  0  0  0  0  0  0  0  0
  1  2  1  0  0  0  0
  1  5  2  0  0  0  0
  2  6  2  0  0  0  0
  3  8  2  0  0  0  0
  3 18  1  0  0  0  0
  4  9  1  0  0  0  0
  4 18  2  0  0  0  0
  5 21  1  0  0  0  0
  6 23  1  0  0  0  0
  7 10  2  0  0  0  0
  7 22  1  0  0  0  0
  8 30  1  0  0  0  0
  9 30  2  0  0  0  0
 10 31  1  0  0  0  0
 11 12  2  0  0  0  0
 11 32  1  0  0  0  0
 12 33  1  0  0  0  0
 13 19  2  0  0  0  0
 13 25  1  0  0  0  0
 14 24  1  0  0  0  0
 14 31  2  0  0  0  0
 15 26  2  0  0  0  0
 15 27  1  0  0  0  0
 16 28  2  0  0  0  0
 16 37  1  0  0  0  0
 17 33  2  0  0  0  0
 17 34  1  0  0  0  0
 18 35  1  0  0  0  0
 19 26  1  0  0  0  0
 19 39  1  0  0  0  0
 20 35  1  0  0  0  0
 20 38  2  0  0  0  0
 20 40  1  0  0  0  0
 21 23  2  0  0  0  0
 21 45  1  0  0  0  0
 22 24  2  0  0  0  0
 22 46  1  0  0  0  0
 23 55  1  0  0  0  0
 24 47  1  0  0  0  0
 25 27  2  0  0  0  0
 25 60  1  0  0  0  0
 26 61  1  0  0  0  0
 27 71  1  0  0  0  0
 28 29  1  0  0  0  0
 28 62  1  0  0  0  0
 29 36  2  0  0  0  0
 29 70  1  0  0  0  0
 30 95  1  0  0  0  0
 31 96  1  0  0  0  0
 32 34  2  0  0  0  0
 32 95  1  0  0  0  0
 33 97  1  0  0  0  0
 34 98  1  0  0  0  0
 35 77  2  0  0  0  0
 36 63  1  0  0  0  0
 36 78  1  0  0  0  0
 37 78  2  0  0  0  0
 37 84  1  0  0  0  0
 38 79  1  0  0  0  0
 38 82  1  0  0  0  0
 39 73  1  0  0  0  0
 39 89  2  0  0  0  0
 40 83  1  0  0  0  0
 40 90  2  0  0  0  0
 41 56  1  0  0  0  0
 41 85  1  0  0  0  0
 41 91  2  0  0  0  0
 42 74  1  0  0  0  0
 42 80  1  0  0  0  0
 42 92  2  0  0  0  0
 43 75  1  0  0  0  0
 43 86  1  0  0  0  0
 43 93  2  0  0  0  0
 44 81  1  0  0  0  0
 44 84  1  0  0  0  0
 44 94  2  0  0  0  0
 45 48  1  0  0  0  0
 46 56  1  0  0  0  0
 47 80  1  0  0  0  0
 48 50  1  0  0  0  0
 49 51  1  0  0  0  0
 49 53  1  0  0  0  0
 50 55  1  0  0  0  0
 51 57  1  0  0  0  0
 52 58  1  0  0  0  0
 52 59  1  0  0  0  0
 53 81  1  0  0  0  0
 54 57  1  0  0  0  0
 54 81  1  0  0  0  0
 55 85  1  0  0  0  0
 56 80  1  0  0  0  0
 57 79  1  0  0  0  0
 58 59  1  0  0  0  0
 58 99  1  0  0  0  0
 59 64  1  0  0  0  0
 59 72  1  0  0  0  0
 65 75  1  0  0  0  0
 66 76  1  0  0  0  0
 67 76  1  0  0  0  0
 68 76  1  0  0  0  0
 69 87  1  0  0  0  0
 70 88  1  0  0  0  0
 71 96  1  0  0  0  0
 72 73  1  0  0  0  0
 73 88  1  0  0  0  0
 74 76  1  0  0  0  0
 74 86  1  0  0  0  0
 75 87  1  0  0  0  0
 77 79  1  0  0  0  0
M  CHG  2  87   1  88   1
M  ISO  4  44 100  71 101  84 100  96 101
M  END
> <Batch ID>
0167

> <Smiles>
CNC(C)C(=O)NC(C(=O)N1Cc2cc([101O:1][101CH2:1]c3cc(C)c(C(=O)C(CC4(C)CC4Cl)NCc4c(C)cc([100NH:0][100C:0](=O)N5CCCC(n6nc(-c7ccc(Oc8ccc(F)cc8F)cc7)c(C(N)=O)c6N)C5)nc4C)cc3C)ccc2CC1C(=O)NC1CCCc2ccccc21)C(C)(C)C

> <Shape>
0.215

> <Color>
0.059

> <Negative vol penalty>
0.000

$$$$

  -OEChem-04052322273D

102114  0     1  0  0  0  0  0999 V2000
  -21.4222  -31.2698   23.0658 C   0  0  0  0  0  0  0  0  0  0  0  0
  -22.3250  -30.2308   23.2679 C   0  0  0  0  0  0  0  0  0  0  0  0
  -27.3480  -23.3798   18.3200 C   0  0  0  0  0  0  0  0  0  0  0  0
  -27.8880  -22.5911   20.5388 C   0  0  0  0  0  0  0  0  0  0  0  0
  -20.0605  -30.9952   22.9459 C   0  0  0  0  0  0  0  0  0  0  0  0
  -21.8665  -28.9166   23.3514 C   0  0  0  0  0  0  0  0  0  0  0  0
  -23.8243  -22.2096   21.7704 C   0  0  0  0  0  0  0  0  0  0  0  0
  -27.5104  -24.6972   18.7487 C   0  0  0  0  0  0  0  0  0  0  0  0
  -28.0505  -23.9084   20.9676 C   0  0  0  0  0  0  0  0  0  0  0  0
  -23.9450  -20.9543   22.3649 C   0  0  0  0  0  0  0  0  0  0  0  0
  -25.7315  -26.9891   20.4827 C   0  0  0  0  0  0  0  0  0  0  0  0
  -24.7656  -27.9189   20.0979 C   0  0  0  0  0  0  0  0  0  0  0  0
  -21.5792  -20.5912   22.0642 C   0  0  0  0  0  0  0  0  0  0  0  0
  -26.4627  -29.2129   18.9652 C   0  0  0  0  0  0  0  0  0  0  0  0
  -27.5367  -22.3267   19.2151 C   0  0  0  0  0  0  0  0  0  0  0  0
  -26.2033  -20.3832   18.2392 C   0  0  0  0  0  0  0  0  0  0  0  0
  -19.5861  -29.6760   23.0183 C   0  0  0  0  0  0  0  0  0  0  0  0
  -22.5762  -22.6704   21.3275 C   0  0  0  0  0  0  0  0  0  0  0  0
  -20.4970  -28.6242   23.2337 C   0  0  0  0  0  0  0  0  0  0  0  0
  -21.4458  -21.8517   21.4621 C   0  0  0  0  0  0  0  0  0  0  0  0
  -27.8617  -24.9615   20.0725 C   0  0  0  0  0  0  0  0  0  0  0  0
  -22.8218  -20.1461   22.5145 C   0  0  0  0  0  0  0  0  0  0  0  0
  -27.0630  -27.1712   20.1089 C   0  0  0  0  0  0  0  0  0  0  0  0
  -25.1312  -29.0308   19.3391 C   0  0  0  0  0  0  0  0  0  0  0  0
  -27.4285  -28.2831   19.3501 C   0  0  0  0  0  0  0  0  0  0  0  0
  -27.3684  -20.9658   18.7730 C   0  0  0  0  0  0  0  0  0  0  0  0
  -26.5582  -19.0821   17.9789 C   0  0  0  0  0  0  0  0  0  0  0  0
  -25.7838  -14.7150   21.3217 C   0  0  0  0  0  0  0  0  0  0  0  0
  -24.9154  -20.9661   17.9999 C   0  0  0  0  0  0  0  0  0  0  0  0
  -20.6951  -25.1209   22.0760 C   0  0  0  0  0  0  0  0  0  0  0  0
  -18.9443  -24.0392   19.5685 C   0  0  0  0  0  0  0  0  0  0  0  0
  -18.0924  -21.4295   17.5411 C   0  0  0  0  0  0  0  0  0  0  0  0
  -30.8299  -15.5708   20.3667 C   0  0  0  0  0  0  0  0  0  0  0  0
  -18.1002  -29.4330   22.9303 C   0  0  0  0  0  0  0  0  0  0  0  0
  -22.4675  -24.0159   20.6640 C   0  0  0  0  0  0  0  0  0  0  0  0
  -20.0867  -22.2915   20.9848 C   0  0  0  0  0  0  0  0  0  0  0  0
  -17.7365  -27.9761   22.6557 C   0  0  0  0  0  0  0  0  0  0  0  0
  -30.3557  -16.3767   16.8784 C   0  0  0  0  0  0  0  0  0  0  0  0
  -18.5356  -27.0462   23.5632 C   0  0  0  0  0  0  0  0  0  0  0  0
  -29.4476  -17.6072   16.9185 C   0  0  0  0  0  0  0  0  0  0  0  0
  -25.9599  -10.5928   22.9535 C   0  0  0  0  0  0  0  0  0  0  0  0
  -25.8060   -9.0827   23.0141 C   0  0  0  0  0  0  0  0  0  0  0  0
  -23.1379   -8.1546   20.2442 C   0  0  0  0  0  0  0  0  0  0  0  0
  -31.3140  -16.3350   18.0677 C   0  0  0  0  0  0  0  0  0  0  0  0
  -28.7749  -16.2095   21.8479 C   0  0  0  0  0  0  0  0  0  0  0  0
  -29.7664  -17.6889   19.4192 C   0  0  0  0  0  0  0  0  0  0  0  0
  -20.0410  -27.1830   23.3051 C   0  0  1  0  0  0  0  0  0  0  0  0
  -24.5001  -14.9921   22.1412 C   0  0  1  0  0  0  0  0  0  0  0  0
  -21.0572  -24.5954   20.7157 C   0  0  1  0  0  0  0  0  0  0  0  0
  -24.0774   -9.0261   21.0802 C   0  0  1  0  0  0  0  0  0  0  0  0
  -23.2973  -10.3269   21.3825 C   0  0  1  0  0  0  0  0  0  0  0  0
  -22.1990   -9.1681   19.5852 C   0  0  2  0  0  0  0  0  0  0  0  0
  -28.7054  -15.1419   22.9537 C   0  0  2  0  0  0  0  0  0  0  0  0
  -21.9124  -10.1333   20.7443 C   0  0  2  0  0  0  0  0  0  0  0  0
  -28.7376  -17.7316   18.2800 C   0  0  1  0  0  0  0  0  0  0  0  0
  -24.6374  -11.0887   23.5153 C   0  0  2  0  0  0  0  0  0  0  0  0
  -30.2182  -14.9070   22.7547 C   0  0  2  0  0  0  0  0  0  0  0  0
  -24.3382   -8.8127   22.6104 C   0  0  2  0  0  0  0  0  0  0  0  0
  -23.5641  -10.1468   22.9213 C   0  0  2  0  0  0  0  0  0  0  0  0
  -25.3768  -14.6182   23.3949 C   0  0  1  0  0  0  0  0  0  0  0  0
  -20.9537   -8.5154   19.0059 C   0  0  0  0  0  0  0  0  0  0  0  0
  -21.3220  -11.4641   20.3040 C   0  0  0  0  0  0  0  0  0  0  0  0
  -31.1594  -15.5580   23.7503 C   0  0  0  0  0  0  0  0  0  0  0  0
  -23.8400   -7.5070   23.2153 C   0  0  0  0  0  0  0  0  0  0  0  0
  -22.3391  -10.0856   23.8278 C   0  0  0  0  0  0  0  0  0  0  0  0
  -25.7539  -15.7287   24.3659 C   0  0  0  0  0  0  0  0  0  0  0  0
  -16.6075  -20.8421   15.6053 C   0  0  0  0  0  0  0  0  0  0  0  0
  -23.8849  -13.6210   25.1646 C   0  0  0  0  0  0  0  0  0  0  0  0
  -16.5343  -23.9781   21.4388 C   0  0  0  0  0  0  0  0  0  0  0  0
  -15.3635  -22.5253   19.7695 C   0  0  0  0  0  0  0  0  0  0  0  0
  -16.0503  -24.8397   19.1415 C   0  0  0  0  0  0  0  0  0  0  0  0
  -20.4033  -20.7183   15.8344 C   0  0  0  0  0  0  0  0  0  0  0  0
  -23.9294  -16.3911   21.9999 C   0  0  0  0  0  0  0  0  0  0  0  0
  -27.8129  -13.9463   22.6544 C   0  0  0  0  0  0  0  0  0  0  0  0
  -22.6538  -16.5338   22.8281 C   0  0  0  0  0  0  0  0  0  0  0  0
  -22.0243  -17.9110   22.6695 C   0  0  0  0  0  0  0  0  0  1  0  0
  -17.8169  -23.0495   19.3996 C   0  0  1  0  0  0  0  0  0  0  0  0
  -17.9871  -21.3201   16.0307 C   0  0  2  0  0  0  0  0  0  0  0  0
  -24.9368  -13.3448   24.1011 C   0  0  1  0  0  0  0  0  0  0  0  0
  -16.4664  -23.5904   19.9482 C   0  0  0  0  0  0  0  0  0  0  0  0
  -28.3872  -20.1053   18.8481 N   0  0  0  0  0  0  0  0  0  0  0  0
  -27.8634  -18.9688   18.3582 N   0  0  0  0  0  0  0  0  0  0  0  0
  -26.4562  -14.3547   22.4401 N   0  0  0  0  0  0  0  0  0  0  0  0
  -20.0307  -23.6179   20.3484 N   0  0  0  0  0  0  0  0  0  0  0  0
  -30.5815  -16.4725   19.3288 N   0  0  0  0  0  0  0  0  0  0  0  0
  -30.1012  -15.7006   21.5287 N   0  0  0  0  0  0  0  0  0  0  0  0
  -25.8780  -18.0354   17.4650 N   0  0  0  0  0  0  0  0  0  0  0  0
  -24.6725  -21.5618   16.7548 N   0  0  0  0  0  0  0  0  0  0  0  0
  -20.4136  -26.4735   22.1000 N   0  0  0  0  0  0  0  0  0  0  0  0
  -17.7895  -22.6999   17.9835 N   0  0  0  0  0  0  0  0  0  0  0  0
  -18.9992  -20.3584   15.5092 N   0  3  0  0  0  0  0  0  0  0  0  0
  -26.1037  -14.7808   20.1566 O   0  0  0  0  0  0  0  0  0  0  0  0
  -24.0124  -20.9733   18.8705 O   0  0  0  0  0  0  0  0  0  0  0  0
  -20.6712  -24.3555   23.0327 O   0  0  0  0  0  0  0  0  0  0  0  0
  -18.8672  -25.1427   19.0226 O   0  0  0  0  0  0  0  0  0  0  0  0
  -18.4079  -20.4818   18.2572 O   0  0  0  0  0  0  0  0  0  0  0  0
  -31.6548  -14.6546   20.2515 O   0  0  0  0  0  0  0  0  0  0  0  0
  -28.0206  -26.2468   20.4911 O   0  0  0  0  0  0  0  0  0  0  0  0
  -22.9375  -18.9119   23.0992 O   0  0  0  0  0  0  0  0  0  1  0  0
  -24.4069  -12.4371   23.1427 O   0  0  0  0  0  0  0  0  0  0  0  0
  -24.2033  -29.9228   18.9682 F   0  0  0  0  0  0  0  0  0  0  0  0
  -28.7059  -28.4627   18.9869 F   0  0  0  0  0  0  0  0  0  0  0  0
  1  2  1  0  0  0  0
  1  5  2  0  0  0  0
  2  6  2  0  0  0  0
  3  8  2  0  0  0  0
  3 15  1  0  0  0  0
  4  9  1  0  0  0  0
  4 15  2  0  0  0  0
  5 17  1  0  0  0  0
  6 19  1  0  0  0  0
  7 10  2  0  0  0  0
  7 18  1  0  0  0  0
  8 21  1  0  0  0  0
  9 21  2  0  0  0  0
 10 22  1  0  0  0  0
 11 12  2  0  0  0  0
 11 23  1  0  0  0  0
 12 24  1  0  0  0  0
 13 20  1  0  0  0  0
 13 22  2  0  0  0  0
 14 24  2  0  0  0  0
 14 25  1  0  0  0  0
 15 26  1  0  0  0  0
 16 26  1  0  0  0  0
 16 27  2  0  0  0  0
 16 29  1  0  0  0  0
 17 19  2  0  0  0  0
 17 34  1  0  0  0  0
 18 20  2  0  0  0  0
 18 35  1  0  0  0  0
 19 47  1  0  0  0  0
 20 36  1  0  0  0  0
 21 98  1  0  0  0  0
 22 99  1  0  0  0  0
 23 25  2  0  0  0  0
 23 98  1  0  0  0  0
 24101  1  0  0  0  0
 25102  1  0  0  0  0
 26 81  2  0  0  0  0
 27 82  1  0  0  0  0
 27 87  1  0  0  0  0
 28 48  1  0  0  0  0
 28 83  1  0  0  0  0
 28 92  2  0  0  0  0
 29 88  1  0  0  0  0
 29 93  2  0  0  0  0
 30 49  1  0  0  0  0
 30 89  1  0  0  0  0
 30 94  2  0  0  0  0
 31 77  1  0  0  0  0
 31 84  1  0  0  0  0
 31 95  2  0  0  0  0
 32 78  1  0  0  0  0
 32 90  1  0  0  0  0
 32 96  2  0  0  0  0
 33 85  1  0  0  0  0
 33 86  1  0  0  0  0
 33 97  2  0  0  0  0
 34 37  1  0  0  0  0
 35 49  1  0  0  0  0
 36 84  1  0  0  0  0
 37 39  1  0  0  0  0
 38 40  1  0  0  0  0
 38 44  1  0  0  0  0
 39 47  1  0  0  0  0
 40 55  1  0  0  0  0
 41 42  1  0  0  0  0
 41 56  1  0  0  0  0
 42 58  1  0  0  0  0
 43 50  1  0  0  0  0
 43 52  1  0  0  0  0
 44 85  1  0  0  0  0
 45 53  1  0  0  0  0
 45 86  1  0  0  0  0
 46 55  1  0  0  0  0
 46 85  1  0  0  0  0
 47 89  1  0  0  0  0
 48 60  1  0  0  0  0
 48 73  1  0  0  0  0
 49 84  1  0  0  0  0
 50 51  1  0  0  0  0
 50 58  1  0  0  0  0
 51 54  1  0  0  0  0
 51 59  1  0  0  0  0
 52 54  1  0  0  0  0
 52 61  1  0  0  0  0
 53 57  1  0  0  0  0
 53 74  1  0  0  0  0
 54 62  1  0  0  0  0
 55 82  1  0  0  0  0
 56 59  1  0  0  0  0
 56100  1  0  0  0  0
 57 63  1  0  0  0  0
 57 86  1  0  0  0  0
 58 59  1  0  0  0  0
 58 64  1  0  0  0  0
 59 65  1  0  0  0  0
 60 66  1  0  0  0  0
 60 79  1  0  0  0  0
 60 83  1  0  0  0  0
 67 78  1  0  0  0  0
 68 79  1  0  0  0  0
 69 80  1  0  0  0  0
 70 80  1  0  0  0  0
 71 80  1  0  0  0  0
 72 91  1  0  0  0  0
 73 75  1  0  0  0  0
 74 83  1  0  0  0  0
 75 76  1  0  0  0  0
 76 99  1  0  0  0  0
 77 80  1  0  0  0  0
 77 90  1  0  0  0  0
 78 91  1  0  0  0  0
 79100  1  0  0  0  0
 81 82  1  0  0  0  0
M  CHG  1  91   1
M  ISO  4  33 100  76 101  86 100  99 101
M  END
> <Batch ID>
0167

> <Smiles>
CNC(C)C(=O)NC(C(=O)N1Cc2cc([101O:1][101CH2:1]CCC3C(=O)N(CC4C[100N:0]([100C:0](=O)N5CCCC(n6nc(-c7ccc(Oc8ccc(F)cc8F)cc7)c(C(N)=O)c6N)C5)C4C)C3(C)C(C)OC3CCC4(C)C5CC(C)C(C)C5C34C)ccc2CC1C(=O)NC1CCCc2ccccc21)C(C)(C)C

> <Shape>
0.205

> <Color>
0.089

> <Negative vol penalty>
0.000

$$$$

  -OEChem-04052322273D

 91101  0     1  0  0  0  0  0999 V2000
  -18.4840  -24.2224   22.9762 C   0  0  0  0  0  0  0  0  0  0  0  0
  -19.8166  -24.1651   22.5810 C   0  0  0  0  0  0  0  0  0  0  0  0
  -23.1401   -9.7599   20.0513 C   0  0  0  0  0  0  0  0  0  0  0  0
  -23.7430  -10.0281   22.3755 C   0  0  0  0  0  0  0  0  0  0  0  0
  -17.8245  -25.4499   23.0241 C   0  0  0  0  0  0  0  0  0  0  0  0
  -20.4902  -25.3351   22.2323 C   0  0  0  0  0  0  0  0  0  0  0  0
  -25.1224  -25.5887   24.2630 C   0  0  0  0  0  0  0  0  0  0  0  0
  -22.4144   -8.6126   20.3719 C   0  0  0  0  0  0  0  0  0  0  0  0
  -23.0173   -8.8808   22.6961 C   0  0  0  0  0  0  0  0  0  0  0  0
  -26.1266  -24.8376   23.6539 C   0  0  0  0  0  0  0  0  0  0  0  0
  -23.4402   -5.5317   22.5081 C   0  0  0  0  0  0  0  0  0  0  0  0
  -24.0350   -4.6076   23.3670 C   0  0  0  0  0  0  0  0  0  0  0  0
  -26.9156  -26.8184   22.5257 C   0  0  0  0  0  0  0  0  0  0  0  0
  -22.2180   -4.8942   24.9334 C   0  0  0  0  0  0  0  0  0  0  0  0
  -23.8045  -10.4676   21.0531 C   0  0  0  0  0  0  0  0  0  0  0  0
  -24.0811  -12.9778   20.6926 C   0  0  0  0  0  0  0  0  0  0  0  0
  -18.4932  -26.6368   22.6851 C   0  0  0  0  0  0  0  0  0  0  0  0
  -25.0002  -26.9605   23.9992 C   0  0  0  0  0  0  0  0  0  0  0  0
  -19.8387  -26.5795   22.2744 C   0  0  0  0  0  0  0  0  0  0  0  0
  -25.9105  -27.5852   23.1347 C   0  0  0  0  0  0  0  0  0  0  0  0
  -29.9549  -21.8730   21.0432 C   0  0  0  0  0  0  0  0  0  0  0  0
  -29.5322  -20.5616   20.8580 C   0  0  0  0  0  0  0  0  0  0  0  0
  -29.2546  -22.9380   20.4583 C   0  0  0  0  0  0  0  0  0  0  0  0
  -28.3940  -20.3224   20.0864 C   0  0  0  0  0  0  0  0  0  0  0  0
  -28.1251  -22.7012   19.6831 C   0  0  0  0  0  0  0  0  0  0  0  0
  -27.6947  -21.3858   19.5023 C   0  0  0  0  0  0  0  0  0  0  0  0
  -22.3530   -8.1731   21.6943 C   0  0  0  0  0  0  0  0  0  0  0  0
  -27.0216  -25.4518   22.7829 C   0  0  0  0  0  0  0  0  0  0  0  0
  -22.2344   -6.1372   22.8618 C   0  0  0  0  0  0  0  0  0  0  0  0
  -23.4239   -4.2888   24.5797 C   0  0  0  0  0  0  0  0  0  0  0  0
  -21.6233   -5.8184   24.0744 C   0  0  0  0  0  0  0  0  0  0  0  0
  -24.5548  -11.6524   20.7224 C   0  0  0  0  0  0  0  0  0  0  0  0
  -25.1734  -13.7245   20.3239 C   0  0  0  0  0  0  0  0  0  0  0  0
  -22.7710  -13.4883   20.9730 C   0  0  0  0  0  0  0  0  0  0  0  0
  -22.7546  -28.8061   22.7129 C   0  0  0  0  0  0  0  0  0  0  0  0
  -24.7503  -31.1974   23.6193 C   0  0  0  0  0  0  0  0  0  0  0  0
  -27.9223  -32.1835   24.4022 C   0  0  0  0  0  0  0  0  0  0  0  0
  -30.6004  -14.9514   20.7564 C   0  0  0  0  0  0  0  0  0  0  0  0
  -17.7249  -27.9344   22.7067 C   0  0  0  0  0  0  0  0  0  0  0  0
  -23.9280  -27.7620   24.6849 C   0  0  0  0  0  0  0  0  0  0  0  0
  -25.8348  -29.0591   22.8339 C   0  0  0  0  0  0  0  0  0  0  0  0
  -18.6185  -29.1718   22.6815 C   0  0  0  0  0  0  0  0  0  0  0  0
  -29.6953  -12.2966   18.5634 C   0  0  0  0  0  0  0  0  0  0  0  0
  -19.7002  -29.0275   21.6157 C   0  0  0  0  0  0  0  0  0  0  0  0
  -28.2409  -11.9979   18.9314 C   0  0  0  0  0  0  0  0  0  0  0  0
  -29.5408  -18.2778   22.3115 C   0  0  0  0  0  0  0  0  0  0  0  0
  -30.7173  -18.1474   20.5468 C   0  0  0  0  0  0  0  0  0  0  0  0
  -30.8784  -23.8773   21.9058 C   0  0  0  0  0  0  0  0  0  0  0  0
  -30.5226  -12.6714   19.7910 C   0  0  0  0  0  0  0  0  0  0  0  0
  -28.5114  -13.4724   20.9689 C   0  0  0  0  0  0  0  0  0  0  0  0
  -30.3224  -19.3353   21.4750 C   0  0  0  0  0  0  0  0  0  0  0  0
  -20.6107  -27.8297   21.9123 C   0  0  1  0  0  0  0  0  0  0  0  0
  -23.5793  -29.0498   23.9451 C   0  0  1  0  0  0  0  0  0  0  0  0
  -27.6244  -13.1439   19.7558 C   0  0  2  0  0  0  0  0  0  0  0  0
  -30.5210  -17.2181   21.7639 C   0  0  0  0  0  0  0  0  0  0  0  0
  -31.1600  -22.3511   21.8158 C   0  0  0  0  0  0  0  0  0  0  0  0
  -29.8995  -24.2680   20.7629 C   0  0  1  0  0  0  0  0  0  0  0  0
  -27.9229  -18.9173   19.8750 C   0  0  0  0  0  0  0  0  0  0  0  0
  -27.3813  -23.8110   19.0171 C   0  0  0  0  0  0  0  0  0  0  0  0
  -26.4810  -21.1058   18.6710 C   0  0  0  0  0  0  0  0  0  0  0  0
  -32.4631  -22.0620   21.0580 C   0  0  0  0  0  0  0  0  0  0  0  0
  -31.2616  -21.7849   23.2416 C   0  0  0  0  0  0  0  0  0  0  0  0
  -30.6489  -24.8204   19.5424 C   0  0  0  0  0  0  0  0  0  0  0  0
  -29.2486  -34.2080   25.0654 C   0  0  0  0  0  0  0  0  0  0  0  0
  -24.6503  -32.2030   20.7403 C   0  0  0  0  0  0  0  0  0  0  0  0
  -26.6741  -33.5935   21.2293 C   0  0  0  0  0  0  0  0  0  0  0  0
  -24.5526  -33.9999   22.4770 C   0  0  0  0  0  0  0  0  0  0  0  0
  -28.7233  -30.9592   26.9749 C   0  0  0  0  0  0  0  0  0  0  0  0
  -28.9272  -25.3354   21.2916 C   0  0  0  0  0  0  0  0  0  1  0  0
  -25.9073  -31.9250   22.9783 C   0  0  1  0  0  0  0  0  0  0  0  0
  -28.4660  -33.0013   25.5598 C   0  0  2  0  0  0  0  0  0  0  0  0
  -25.4466  -32.9022   21.8602 C   0  0  0  0  0  0  0  0  0  0  0  0
  -25.8472  -11.5593   20.3985 N   0  0  0  0  0  0  0  0  0  0  0  0
  -26.1950  -12.8356   20.1614 N   0  0  0  0  0  0  0  0  0  0  0  0
  -24.7651  -29.7986   23.5240 N   0  0  0  0  0  0  0  0  0  0  0  0
  -29.8843  -13.7649   20.5277 N   0  0  0  0  0  0  0  0  0  0  0  0
  -25.3500  -15.0482   20.1261 N   0  0  0  0  0  0  0  0  0  0  0  0
  -21.7651  -12.5830   21.3377 N   0  0  0  0  0  0  0  0  0  0  0  0
  -21.5572  -28.1606   22.9559 N   0  0  0  0  0  0  0  0  0  0  0  0
  -26.6404  -32.5641   24.0657 N   0  0  0  0  0  0  0  0  0  0  0  0
  -29.9194  -15.9396   21.4568 N   0  0  0  0  0  0  0  0  0  0  0  0
  -29.3695  -32.1685   26.4030 N   0  3  0  0  0  0  0  0  0  0  0  0
  -22.4963  -14.7092   20.8864 O   0  0  0  0  0  0  0  0  0  0  0  0
  -23.1730  -29.1777   21.6227 O   0  0  0  0  0  0  0  0  0  0  0  0
  -23.8696  -31.8458   24.1899 O   0  0  0  0  0  0  0  0  0  0  0  0
  -28.5712  -31.2983   23.8493 O   0  0  0  0  0  0  0  0  0  0  0  0
  -31.7589  -15.1198   20.3608 O   0  0  0  0  0  0  0  0  0  0  0  0
  -21.6447   -7.0538   22.0076 O   0  0  0  0  0  0  0  0  0  0  0  0
  -28.0225  -24.7058   22.1742 O   0  0  0  0  0  0  0  0  0  1  0  0
  -23.9944   -3.4002   25.4038 F   0  0  0  0  0  0  0  0  0  0  0  0
  -20.4642   -6.3958   24.4192 F   0  0  0  0  0  0  0  0  0  0  0  0
  1  2  1  0  0  0  0
  1  5  2  0  0  0  0
  2  6  2  0  0  0  0
  3  8  2  0  0  0  0
  3 15  1  0  0  0  0
  4  9  1  0  0  0  0
  4 15  2  0  0  0  0
  5 17  1  0  0  0  0
  6 19  1  0  0  0  0
  7 10  2  0  0  0  0
  7 18  1  0  0  0  0
  8 27  1  0  0  0  0
  9 27  2  0  0  0  0
 10 28  1  0  0  0  0
 11 12  2  0  0  0  0
 11 29  1  0  0  0  0
 12 30  1  0  0  0  0
 13 20  1  0  0  0  0
 13 28  2  0  0  0  0
 14 30  2  0  0  0  0
 14 31  1  0  0  0  0
 15 32  1  0  0  0  0
 16 32  1  0  0  0  0
 16 33  2  0  0  0  0
 16 34  1  0  0  0  0
 17 19  2  0  0  0  0
 17 39  1  0  0  0  0
 18 20  2  0  0  0  0
 18 40  1  0  0  0  0
 19 52  1  0  0  0  0
 20 41  1  0  0  0  0
 21 22  1  0  0  0  0
 21 23  2  0  0  0  0
 21 56  1  0  0  0  0
 22 24  2  0  0  0  0
 22 51  1  0  0  0  0
 23 25  1  0  0  0  0
 23 57  1  0  0  0  0
 24 26  1  0  0  0  0
 24 58  1  0  0  0  0
 25 26  2  0  0  0  0
 25 59  1  0  0  0  0
 26 60  1  0  0  0  0
 27 88  1  0  0  0  0
 28 89  1  0  0  0  0
 29 31  2  0  0  0  0
 29 88  1  0  0  0  0
 30 90  1  0  0  0  0
 31 91  1  0  0  0  0
 32 73  2  0  0  0  0
 33 74  1  0  0  0  0
 33 77  1  0  0  0  0
 34 78  1  0  0  0  0
 34 83  2  0  0  0  0
 35 53  1  0  0  0  0
 35 79  1  0  0  0  0
 35 84  2  0  0  0  0
 36 70  1  0  0  0  0
 36 75  1  0  0  0  0
 36 85  2  0  0  0  0
 37 71  1  0  0  0  0
 37 80  1  0  0  0  0
 37 86  2  0  0  0  0
 38 76  1  0  0  0  0
 38 81  1  0  0  0  0
 38 87  2  0  0  0  0
 39 42  1  0  0  0  0
 40 53  1  0  0  0  0
 41 75  1  0  0  0  0
 42 44  1  0  0  0  0
 43 45  1  0  0  0  0
 43 49  1  0  0  0  0
 44 52  1  0  0  0  0
 45 54  1  0  0  0  0
 46 51  1  0  0  0  0
 46 55  1  0  0  0  0
 47 51  1  0  0  0  0
 47 55  1  0  0  0  0
 48 56  1  0  0  0  0
 48 57  1  0  0  0  0
 49 76  1  0  0  0  0
 50 54  1  0  0  0  0
 50 76  1  0  0  0  0
 52 79  1  0  0  0  0
 53 75  1  0  0  0  0
 54 74  1  0  0  0  0
 55 81  1  0  0  0  0
 56 61  1  0  0  0  0
 56 62  1  0  0  0  0
 57 63  1  0  0  0  0
 57 69  1  0  0  0  0
 64 71  1  0  0  0  0
 65 72  1  0  0  0  0
 66 72  1  0  0  0  0
 67 72  1  0  0  0  0
 68 82  1  0  0  0  0
 69 89  1  0  0  0  0
 70 72  1  0  0  0  0
 70 80  1  0  0  0  0
 71 82  1  0  0  0  0
 73 74  1  0  0  0  0
M  CHG  1  82   1
M  ISO  4  38 100  69 101  81 100  89 101
M  END
> <Batch ID>
0167

> <Smiles>
CNC(C)C(=O)NC(C(=O)N1Cc2cc([101O:1][101CH2:1]C3(C)CC(C)(C)c4c(C5CC([100NH:0][100C:0](=O)N6CCCC(n7nc(-c8ccc(Oc9ccc(F)cc9F)cc8)c(C(N)=O)c7N)C6)C5)c(C)c(C)c(C)c43)ccc2CC1C(=O)NC1CCCc2ccccc21)C(C)(C)C

> <Shape>
0.388

> <Color>
0.229

> <Negative vol penalty>
0.000

$$$$

  -OEChem-04052322273D

 88 97  0     1  0  0  0  0  0999 V2000
  -17.4119  -27.3793   20.1403 C   0  0  0  0  0  0  0  0  0  0  0  0
  -18.7231  -27.3179   19.6793 C   0  0  0  0  0  0  0  0  0  0  0  0
  -22.5882  -15.5508   24.1107 C   0  0  0  0  0  0  0  0  0  0  0  0
  -22.3055  -17.4197   22.6059 C   0  0  0  0  0  0  0  0  0  0  0  0
  -17.0946  -28.1892   21.2300 C   0  0  0  0  0  0  0  0  0  0  0  0
  -19.7175  -28.0673   20.3070 C   0  0  0  0  0  0  0  0  0  0  0  0
  -23.9532  -25.4048   21.0912 C   0  0  0  0  0  0  0  0  0  0  0  0
  -22.6436  -14.6818   23.0211 C   0  0  0  0  0  0  0  0  0  0  0  0
  -22.3609  -16.5506   21.5162 C   0  0  0  0  0  0  0  0  0  0  0  0
  -24.7971  -25.2143   19.9978 C   0  0  0  0  0  0  0  0  0  0  0  0
  -24.9150  -13.7368   20.7015 C   0  0  0  0  0  0  0  0  0  0  0  0
  -25.9109  -12.7602   20.7012 C   0  0  0  0  0  0  0  0  0  0  0  0
  -26.2137  -26.9999   20.7877 C   0  0  0  0  0  0  0  0  0  0  0  0
  -30.5574  -23.8557   20.5336 C   0  0  0  0  0  0  0  0  0  0  0  0
  -24.2202  -11.0362   20.6193 C   0  0  0  0  0  0  0  0  0  0  0  0
  -22.4191  -16.9198   23.9032 C   0  0  0  0  0  0  0  0  0  0  0  0
  -21.4283  -17.8010   26.0825 C   0  0  0  0  0  0  0  0  0  0  0  0
  -18.0873  -28.9414   21.8774 C   0  0  0  0  0  0  0  0  0  0  0  0
  -24.2278  -26.4033   22.0367 C   0  0  0  0  0  0  0  0  0  0  0  0
  -19.4128  -28.8891   21.4055 C   0  0  0  0  0  0  0  0  0  0  0  0
  -25.3732  -27.1994   21.8935 C   0  0  0  0  0  0  0  0  0  0  0  0
  -29.3550  -24.4912   18.5500 C   0  0  0  0  0  0  0  0  0  0  0  0
  -29.4951  -23.6624   19.6576 C   0  0  0  0  0  0  0  0  0  0  0  0
  -22.5300  -15.1817   21.7239 C   0  0  0  0  0  0  0  0  0  0  0  0
  -25.9259  -26.0137   19.8444 C   0  0  0  0  0  0  0  0  0  0  0  0
  -23.5717  -13.3632   20.6608 C   0  0  0  0  0  0  0  0  0  0  0  0
  -25.5635  -11.4099   20.6601 C   0  0  0  0  0  0  0  0  0  0  0  0
  -23.2243  -12.0129   20.6196 C   0  0  0  0  0  0  0  0  0  0  0  0
  -22.3613  -17.8179   25.0284 C   0  0  0  0  0  0  0  0  0  0  0  0
  -31.4452  -24.8836   20.2596 C   0  0  0  0  0  0  0  0  0  0  0  0
  -30.2965  -25.4907   18.3649 C   0  0  0  0  0  0  0  0  0  0  0  0
  -21.8016  -18.8489   26.8882 C   0  0  0  0  0  0  0  0  0  0  0  0
  -20.3232  -16.9170   26.3128 C   0  0  0  0  0  0  0  0  0  0  0  0
  -22.7262  -29.0207   23.0356 C   0  0  0  0  0  0  0  0  0  0  0  0
  -25.1415  -29.1092   25.1991 C   0  0  0  0  0  0  0  0  0  0  0  0
  -28.3322  -28.2167   26.0175 C   0  0  0  0  0  0  0  0  0  0  0  0
  -26.3029  -20.1683   24.2753 C   0  0  0  0  0  0  0  0  0  0  0  0
  -17.6875  -29.8389   23.0217 C   0  0  0  0  0  0  0  0  0  0  0  0
  -23.3221  -26.5784   23.2248 C   0  0  0  0  0  0  0  0  0  0  0  0
  -25.7236  -28.2715   22.8916 C   0  0  0  0  0  0  0  0  0  0  0  0
  -18.8682  -30.3124   23.8656 C   0  0  0  0  0  0  0  0  0  0  0  0
  -23.4991  -22.3716   24.9340 C   0  0  0  0  0  0  0  0  0  0  0  0
  -20.0032  -30.7992   22.9703 C   0  0  0  0  0  0  0  0  0  0  0  0
  -23.0861  -21.9476   26.3397 C   0  0  0  0  0  0  0  0  0  0  0  0
  -25.0118  -22.3130   24.7409 C   0  0  0  0  0  0  0  0  0  0  0  0
  -27.6418  -22.1237   23.4214 C   0  0  0  0  0  0  0  0  0  0  0  0
  -27.7227  -19.9506   22.2717 C   0  0  0  0  0  0  0  0  0  0  0  0
  -27.7765  -22.8273   22.0722 C   0  0  0  0  0  0  0  0  0  0  0  0
  -27.8726  -20.6880   20.9406 C   0  0  0  0  0  0  0  0  0  0  0  0
  -25.2011  -20.5331   26.4631 C   0  0  0  0  0  0  0  0  0  0  0  0
  -20.5239  -29.6680   22.0755 C   0  0  1  0  0  0  0  0  0  0  0  0
  -23.4195  -27.9661   23.8510 C   0  0  1  0  0  0  0  0  0  0  0  0
  -23.6961  -20.6056   26.7773 C   0  0  2  0  0  0  0  0  0  0  0  0
  -32.5969  -25.1205   21.1785 C   0  0  0  0  0  0  0  0  0  0  0  0
  -30.1984  -26.4123   17.1933 C   0  0  0  0  0  0  0  0  0  0  0  0
  -28.2748  -22.9375   16.8914 C   0  0  0  0  0  0  0  0  0  0  0  0
  -30.0429  -28.4677   27.8362 C   0  0  0  0  0  0  0  0  0  0  0  0
  -25.6797  -31.9731   24.2942 C   0  0  0  0  0  0  0  0  0  0  0  0
  -27.9151  -31.8325   25.4129 C   0  0  0  0  0  0  0  0  0  0  0  0
  -25.8300  -31.6140   26.7646 C   0  0  0  0  0  0  0  0  0  0  0  0
  -28.4473  -25.2945   26.4721 C   0  0  0  0  0  0  0  0  0  0  0  0
  -26.8405  -24.5088   18.2461 C   0  0  0  0  0  0  0  0  0  1  0  0
  -28.2259  -24.3105   17.5905 C   0  0  1  0  0  0  0  0  0  0  0  0
  -26.5209  -29.7215   25.2371 C   0  0  1  0  0  0  0  0  0  0  0  0
  -28.9160  -27.6107   27.2810 C   0  0  2  0  0  0  0  0  0  0  0  0
  -26.4791  -31.2664   25.4072 C   0  0  0  0  0  0  0  0  0  0  0  0
  -23.2595  -18.7989   25.1505 N   0  0  0  0  0  0  0  0  0  0  0  0
  -31.3417  -25.7090   19.1940 N   0  0  0  0  0  0  0  0  0  0  0  0
  -22.8927  -19.4081   26.2908 N   0  0  0  0  0  0  0  0  0  0  0  0
  -24.8036  -28.4083   24.0328 N   0  0  0  0  0  0  0  0  0  0  0  0
  -25.5594  -21.0055   25.1238 N   0  0  0  0  0  0  0  0  0  0  0  0
  -27.0563  -20.7870   23.2674 N   0  0  0  0  0  0  0  0  0  0  0  0
  -28.5289  -21.9860   21.1337 N   0  0  0  0  0  0  0  0  0  0  0  0
  -21.2995  -19.3372   28.0422 N   0  0  0  0  0  0  0  0  0  0  0  0
  -19.0723  -17.2586   25.7809 N   0  0  0  0  0  0  0  0  0  0  0  0
  -28.5818  -22.6335   19.9055 N   0  0  0  0  0  0  0  0  0  0  0  0
  -21.3810  -28.7798   22.8311 N   0  0  0  0  0  0  0  0  0  0  0  0
  -27.2483  -29.0237   26.2917 N   0  0  0  0  0  0  0  0  0  0  0  0
  -29.4546  -26.2495   27.0016 N   0  3  0  0  0  0  0  0  0  0  0  0
  -20.4378  -15.8640   26.9847 O   0  0  0  0  0  0  0  0  0  0  0  0
  -23.3641  -29.9826   22.6239 O   0  0  0  0  0  0  0  0  0  0  0  0
  -24.3941  -29.2418   26.1715 O   0  0  0  0  0  0  0  0  0  0  0  0
  -28.7939  -27.9990   24.8995 O   0  0  0  0  0  0  0  0  0  0  0  0
  -26.2830  -18.9364   24.3932 O   0  0  0  0  0  0  0  0  0  0  0  0
  -22.5842  -14.3340   20.6603 O   0  0  0  0  0  0  0  0  0  0  0  0
  -26.7564  -25.8291   18.7708 O   0  0  0  0  0  0  0  0  0  1  0  0
  -26.5200  -10.4722   20.6582 F   0  0  0  0  0  0  0  0  0  0  0  0
  -21.9356  -11.6479   20.5792 F   0  0  0  0  0  0  0  0  0  0  0  0
  1  2  1  0  0  0  0
  1  5  2  0  0  0  0
  2  6  2  0  0  0  0
  3  8  2  0  0  0  0
  3 16  1  0  0  0  0
  4  9  1  0  0  0  0
  4 16  2  0  0  0  0
  5 18  1  0  0  0  0
  6 20  1  0  0  0  0
  7 10  2  0  0  0  0
  7 19  1  0  0  0  0
  8 24  1  0  0  0  0
  9 24  2  0  0  0  0
 10 25  1  0  0  0  0
 11 12  2  0  0  0  0
 11 26  1  0  0  0  0
 12 27  1  0  0  0  0
 13 21  1  0  0  0  0
 13 25  2  0  0  0  0
 14 23  2  0  0  0  0
 14 30  1  0  0  0  0
 15 27  2  0  0  0  0
 15 28  1  0  0  0  0
 16 29  1  0  0  0  0
 17 29  1  0  0  0  0
 17 32  2  0  0  0  0
 17 33  1  0  0  0  0
 18 20  2  0  0  0  0
 18 38  1  0  0  0  0
 19 21  2  0  0  0  0
 19 39  1  0  0  0  0
 20 51  1  0  0  0  0
 21 40  1  0  0  0  0
 22 23  1  0  0  0  0
 22 31  2  0  0  0  0
 22 63  1  0  0  0  0
 23 76  1  0  0  0  0
 24 85  1  0  0  0  0
 25 86  1  0  0  0  0
 26 28  2  0  0  0  0
 26 85  1  0  0  0  0
 27 87  1  0  0  0  0
 28 88  1  0  0  0  0
 29 67  2  0  0  0  0
 30 54  1  0  0  0  0
 30 68  2  0  0  0  0
 31 55  1  0  0  0  0
 31 68  1  0  0  0  0
 32 69  1  0  0  0  0
 32 74  1  0  0  0  0
 33 75  1  0  0  0  0
 33 80  2  0  0  0  0
 34 52  1  0  0  0  0
 34 77  1  0  0  0  0
 34 81  2  0  0  0  0
 35 64  1  0  0  0  0
 35 70  1  0  0  0  0
 35 82  2  0  0  0  0
 36 65  1  0  0  0  0
 36 78  1  0  0  0  0
 36 83  2  0  0  0  0
 37 71  1  0  0  0  0
 37 72  1  0  0  0  0
 37 84  2  0  0  0  0
 38 41  1  0  0  0  0
 39 52  1  0  0  0  0
 40 70  1  0  0  0  0
 41 43  1  0  0  0  0
 42 44  1  0  0  0  0
 42 45  1  0  0  0  0
 43 51  1  0  0  0  0
 44 53  1  0  0  0  0
 45 71  1  0  0  0  0
 46 48  1  0  0  0  0
 46 72  1  0  0  0  0
 47 49  1  0  0  0  0
 47 72  1  0  0  0  0
 48 73  1  0  0  0  0
 49 73  1  0  0  0  0
 50 53  1  0  0  0  0
 50 71  1  0  0  0  0
 51 77  1  0  0  0  0
 52 70  1  0  0  0  0
 53 69  1  0  0  0  0
 56 63  1  0  0  0  0
 57 65  1  0  0  0  0
 58 66  1  0  0  0  0
 59 66  1  0  0  0  0
 60 66  1  0  0  0  0
 61 79  1  0  0  0  0
 62 63  1  0  0  0  0
 62 86  1  0  0  0  0
 64 66  1  0  0  0  0
 64 78  1  0  0  0  0
 65 79  1  0  0  0  0
 67 69  1  0  0  0  0
 73 76  1  0  0  0  0
M  CHG  1  79   1
M  ISO  4  37 100  62 101  72 100  86 101
M  END
> <Batch ID>
0167

> <Smiles>
CNC(C)C(=O)NC(C(=O)N1Cc2cc([101O:1][101CH2:1]C(C)c3c(NN4CC[100N:0]([100C:0](=O)N5CCCC(n6nc(-c7ccc(Oc8ccc(F)cc8F)cc7)c(C(N)=O)c6N)C5)CC4)cc(C)nc3C)ccc2CC1C(=O)NC1CCCc2ccccc21)C(C)(C)C

> <Shape>
0.204

> <Color>
0.073

> <Negative vol penalty>
0.000

$$$$
