
  -OEChem-04052322303D

 90100  0     1  0  0  0  0  0999 V2000
  -18.8225  -23.7056   23.4469 C   0  0  0  0  0  0  0  0  0  0  0  0
  -20.1653  -23.6900   23.0835 C   0  0  0  0  0  0  0  0  0  0  0  0
  -27.0469  -13.3767   18.6547 C   0  0  0  0  0  0  0  0  0  0  0  0
  -28.0185  -13.7260   20.8390 C   0  0  0  0  0  0  0  0  0  0  0  0
  -18.0866  -24.8851   23.3411 C   0  0  0  0  0  0  0  0  0  0  0  0
  -20.7728  -24.8536   22.6130 C   0  0  0  0  0  0  0  0  0  0  0  0
  -25.3293  -25.6383   24.6788 C   0  0  0  0  0  0  0  0  0  0  0  0
  -28.1572  -12.6194   18.2818 C   0  0  0  0  0  0  0  0  0  0  0  0
  -29.1289  -12.9686   20.4661 C   0  0  0  0  0  0  0  0  0  0  0  0
  -26.3931  -24.8891   24.1778 C   0  0  0  0  0  0  0  0  0  0  0  0
  -31.9460  -13.4056   18.6484 C   0  0  0  0  0  0  0  0  0  0  0  0
  -33.2082  -13.9033   18.9721 C   0  0  0  0  0  0  0  0  0  0  0  0
  -27.0838  -26.7747   22.8412 C   0  0  0  0  0  0  0  0  0  0  0  0
  -33.6484  -11.9284   20.2924 C   0  0  0  0  0  0  0  0  0  0  0  0
  -26.9775  -13.9300   19.9333 C   0  0  0  0  0  0  0  0  0  0  0  0
  -24.8907  -21.0483   19.0048 C   0  0  0  0  0  0  0  0  0  0  0  0
  -24.4889  -14.2902   20.3632 C   0  0  0  0  0  0  0  0  0  0  0  0
  -18.6879  -26.0662   22.8782 C   0  0  0  0  0  0  0  0  0  0  0  0
  -25.1281  -26.9600   24.2557 C   0  0  0  0  0  0  0  0  0  0  0  0
  -20.0439  -26.0497   22.4997 C   0  0  0  0  0  0  0  0  0  0  0  0
  -26.0182  -27.5394   23.3402 C   0  0  0  0  0  0  0  0  0  0  0  0
  -26.0448  -21.1664   18.2304 C   0  0  0  0  0  0  0  0  0  0  0  0
  -25.9823  -20.9684   16.8510 C   0  0  0  0  0  0  0  0  0  0  0  0
  -23.6742  -20.7322   18.4000 C   0  0  0  0  0  0  0  0  0  0  0  0
  -24.7658  -20.6523   16.2462 C   0  0  0  0  0  0  0  0  0  0  0  0
  -23.6117  -20.5342   17.0207 C   0  0  0  0  0  0  0  0  0  0  0  0
  -29.1983  -12.4153   19.1875 C   0  0  0  0  0  0  0  0  0  0  0  0
  -27.2688  -25.4563   23.2567 C   0  0  0  0  0  0  0  0  0  0  0  0
  -31.5350  -12.1693   19.1469 C   0  0  0  0  0  0  0  0  0  0  0  0
  -34.0594  -13.1647   19.7940 C   0  0  0  0  0  0  0  0  0  0  0  0
  -32.3862  -11.4307   19.9688 C   0  0  0  0  0  0  0  0  0  0  0  0
  -25.8310  -14.7129   20.3189 C   0  0  0  0  0  0  0  0  0  0  0  0
  -23.7945  -15.3961   20.7890 C   0  0  0  0  0  0  0  0  0  0  0  0
  -24.9564  -21.2563   20.4572 C   0  0  0  0  0  0  0  0  0  0  0  0
  -23.9208  -13.0122   20.0478 C   0  0  0  0  0  0  0  0  0  0  0  0
  -22.8033  -28.4965   22.7265 C   0  0  0  0  0  0  0  0  0  0  0  0
  -24.6230  -31.1003   23.3834 C   0  0  0  0  0  0  0  0  0  0  0  0
  -28.1329  -31.9353   23.3542 C   0  0  0  0  0  0  0  0  0  0  0  0
  -17.8396  -27.3052   22.7364 C   0  0  0  0  0  0  0  0  0  0  0  0
  -23.9915  -27.7635   24.8258 C   0  0  0  0  0  0  0  0  0  0  0  0
  -25.8579  -28.9610   22.8694 C   0  0  0  0  0  0  0  0  0  0  0  0
  -18.6545  -28.5869   22.5831 C   0  0  0  0  0  0  0  0  0  0  0  0
  -24.3007  -19.3663   23.4135 C   0  0  0  0  0  0  0  0  0  0  0  0
  -28.0135  -22.3719   16.0905 C   0  0  0  0  0  0  0  0  0  0  0  0
  -27.2231  -22.0526   14.8602 C   0  0  0  0  0  0  0  0  0  0  0  0
  -19.7686  -28.3920   21.5596 C   0  0  0  0  0  0  0  0  0  0  0  0
  -24.5116  -17.9187   22.9661 C   0  0  0  0  0  0  0  0  0  0  0  0
  -25.2740  -20.3174   22.7216 C   0  0  0  0  0  0  0  0  0  0  0  0
  -25.4792  -18.7845   20.7947 C   0  0  0  0  0  0  0  0  0  0  0  0
  -27.3515  -22.8665   19.5961 C   0  0  0  0  0  0  0  0  0  0  0  0
  -28.9208  -21.3250   20.6668 C   0  0  0  0  0  0  0  0  0  0  0  0
  -27.3635  -21.5100   18.8833 C   0  0  1  0  0  0  0  0  0  0  0  0
  -27.2207  -21.0961   16.0205 C   0  0  0  0  0  0  0  0  0  0  0  0
  -20.7447  -27.2977   22.0083 C   0  0  1  0  0  0  0  0  0  0  0  0
  -23.5810  -28.9327   23.9359 C   0  0  1  0  0  0  0  0  0  0  0  0
  -27.8269  -20.5293   19.9706 C   0  0  1  0  0  0  0  0  0  0  0  0
  -24.4842  -17.7998   21.4307 C   0  0  1  0  0  0  0  0  0  0  0  0
  -22.4333  -20.6047   19.2277 C   0  0  0  0  0  0  0  0  0  0  0  0
  -24.6967  -20.4396   14.7664 C   0  0  0  0  0  0  0  0  0  0  0  0
  -22.3066  -20.1954   16.3721 C   0  0  0  0  0  0  0  0  0  0  0  0
  -28.3383  -19.2047   19.4226 C   0  0  0  0  0  0  0  0  0  0  0  0
  -29.4157  -33.6387   24.6772 C   0  0  0  0  0  0  0  0  0  0  0  0
  -24.1459  -32.9075   20.9717 C   0  0  0  0  0  0  0  0  0  0  0  0
  -26.4596  -33.8130   21.2803 C   0  0  0  0  0  0  0  0  0  0  0  0
  -24.7543  -34.1146   23.0758 C   0  0  0  0  0  0  0  0  0  0  0  0
  -30.0230  -29.8956   24.3670 C   0  0  0  0  0  0  0  0  0  0  0  0
  -29.3660  -23.8000   20.8156 C   0  0  0  0  0  0  0  0  0  0  0  0
  -28.7491  -25.0341   21.4439 C   0  0  0  0  0  0  0  0  0  1  0  0
  -25.7475  -31.8232   22.6821 C   0  0  1  0  0  0  0  0  0  0  0  0
  -29.0201  -32.1748   24.5625 C   0  0  2  0  0  0  0  0  0  0  0  0
  -25.2726  -33.1367   21.9989 C   0  0  0  0  0  0  0  0  0  0  0  0
  -25.9824  -15.9879   20.6870 N   0  0  0  0  0  0  0  0  0  0  0  0
  -24.7265  -16.3759   20.9666 N   0  0  0  0  0  0  0  0  0  0  0  0
  -25.2168  -20.1503   21.2698 N   0  0  0  0  0  0  0  0  0  0  0  0
  -24.7276  -29.7037   23.4511 N   0  0  0  0  0  0  0  0  0  0  0  0
  -22.4837  -15.6163   21.0249 N   0  0  0  0  0  0  0  0  0  0  0  0
  -23.8066  -12.0609   21.0707 N   0  0  0  0  0  0  0  0  0  0  0  0
  -21.6431  -27.8067   23.0224 N   0  0  0  0  0  0  0  0  0  0  0  0
  -26.7952  -32.0135   23.6794 N   0  0  0  0  0  0  0  0  0  0  0  0
  -28.3379  -22.7176   20.7419 N   0  3  1  0  0  0  0  0  0  0  0  0
  -30.2630  -31.3586   24.4623 N   0  3  0  0  0  0  0  0  0  0  0  0
  -24.7618  -22.4053   20.8510 O   0  0  0  0  0  0  0  0  0  0  0  0
  -23.5411  -12.7165   18.8893 O   0  0  0  0  0  0  0  0  0  0  0  0
  -23.2240  -28.7671   21.6078 O   0  0  0  0  0  0  0  0  0  0  0  0
  -23.6899  -31.7512   23.8601 O   0  0  0  0  0  0  0  0  0  0  0  0
  -28.5816  -31.7059   22.2333 O   0  0  0  0  0  0  0  0  0  0  0  0
  -30.2819  -11.6762   18.8240 O   0  0  0  0  0  0  0  0  0  0  0  0
  -28.3075  -24.7271   22.7657 O   0  0  0  0  0  0  0  0  0  1  0  0
  -35.2721  -13.6421   20.1034 F   0  0  0  0  0  0  0  0  0  0  0  0
  -31.9973  -10.2419   20.4497 F   0  0  0  0  0  0  0  0  0  0  0  0
  1  2  1  0  0  0  0
  1  5  2  0  0  0  0
  2  6  2  0  0  0  0
  3  8  2  0  0  0  0
  3 15  1  0  0  0  0
  4  9  1  0  0  0  0
  4 15  2  0  0  0  0
  5 18  1  0  0  0  0
  6 20  1  0  0  0  0
  7 10  2  0  0  0  0
  7 19  1  0  0  0  0
  8 27  1  0  0  0  0
  9 27  2  0  0  0  0
 10 28  1  0  0  0  0
 11 12  2  0  0  0  0
 11 29  1  0  0  0  0
 12 30  1  0  0  0  0
 13 21  1  0  0  0  0
 13 28  2  0  0  0  0
 14 30  2  0  0  0  0
 14 31  1  0  0  0  0
 15 32  1  0  0  0  0
 16 22  2  0  0  0  0
 16 24  1  0  0  0  0
 16 34  1  0  0  0  0
 17 32  1  0  0  0  0
 17 33  2  0  0  0  0
 17 35  1  0  0  0  0
 18 20  2  0  0  0  0
 18 39  1  0  0  0  0
 19 21  2  0  0  0  0
 19 40  1  0  0  0  0
 20 54  1  0  0  0  0
 21 41  1  0  0  0  0
 22 23  1  0  0  0  0
 22 52  1  0  0  0  0
 23 25  2  0  0  0  0
 23 53  1  0  0  0  0
 24 26  2  0  0  0  0
 24 58  1  0  0  0  0
 25 26  1  0  0  0  0
 25 59  1  0  0  0  0
 26 60  1  0  0  0  0
 27 87  1  0  0  0  0
 28 88  1  0  0  0  0
 29 31  2  0  0  0  0
 29 87  1  0  0  0  0
 30 89  1  0  0  0  0
 31 90  1  0  0  0  0
 32 72  2  0  0  0  0
 33 73  1  0  0  0  0
 33 76  1  0  0  0  0
 34 74  1  0  0  0  0
 34 82  2  0  0  0  0
 35 77  1  0  0  0  0
 35 83  2  0  0  0  0
 36 55  1  0  0  0  0
 36 78  1  0  0  0  0
 36 84  2  0  0  0  0
 37 69  1  0  0  0  0
 37 75  1  0  0  0  0
 37 85  2  0  0  0  0
 38 70  1  0  0  0  0
 38 79  1  0  0  0  0
 38 86  2  0  0  0  0
 39 42  1  0  0  0  0
 40 55  1  0  0  0  0
 41 75  1  0  0  0  0
 42 46  1  0  0  0  0
 43 47  1  0  0  0  0
 43 48  1  0  0  0  0
 44 45  1  0  0  0  0
 44 53  1  0  0  0  0
 45 53  1  0  0  0  0
 46 54  1  0  0  0  0
 47 57  1  0  0  0  0
 48 74  1  0  0  0  0
 49 57  1  0  0  0  0
 49 74  1  0  0  0  0
 50 52  1  0  0  0  0
 50 80  1  0  0  0  0
 51 56  1  0  0  0  0
 51 80  1  0  0  0  0
 52 56  1  0  0  0  0
 54 78  1  0  0  0  0
 55 75  1  0  0  0  0
 56 61  1  0  0  0  0
 57 73  1  0  0  0  0
 62 70  1  0  0  0  0
 63 71  1  0  0  0  0
 64 71  1  0  0  0  0
 65 71  1  0  0  0  0
 66 81  1  0  0  0  0
 67 68  1  0  0  0  0
 67 80  1  0  0  0  0
 68 88  1  0  0  0  0
 69 71  1  0  0  0  0
 69 79  1  0  0  0  0
 70 81  1  0  0  0  0
 72 73  1  0  0  0  0
M  CHG  2  80   1  81   1
M  ISO  4  16 100  34 100  68 101  88 101
M  END
> <Batch ID>
0168

> <Smiles>
CNC(C)C(=O)NC(C(=O)N1Cc2cc([101O:1][101CH2:1]CN3CC(C)C(c4c(C5CC5)c(C)c(C)c(C)[100c:0]4[100C:0](=O)N4CCCC(n5nc(-c6ccc(Oc7ccc(F)cc7F)cc6)c(C(N)=O)c5N)C4)C3)ccc2CC1C(=O)NC1CCCc2ccccc21)C(C)(C)C

> <Shape>
0.220

> <Color>
0.052

> <Negative vol penalty>
0.000

$$$$

  -OEChem-04052322303D

 91102  0     1  0  0  0  0  0999 V2000
  -27.5310  -36.5759   18.8081 C   0  0  0  0  0  0  0  0  0  0  0  0
  -27.9233  -35.2939   19.1797 C   0  0  0  0  0  0  0  0  0  0  0  0
  -23.1882  -15.9586   22.2314 C   0  0  0  0  0  0  0  0  0  0  0  0
  -22.3657  -15.5251   20.0014 C   0  0  0  0  0  0  0  0  0  0  0  0
  -26.4310  -37.1727   19.4228 C   0  0  0  0  0  0  0  0  0  0  0  0
  -27.2165  -34.6085   20.1671 C   0  0  0  0  0  0  0  0  0  0  0  0
  -26.3049  -29.7879   18.9116 C   0  0  0  0  0  0  0  0  0  0  0  0
  -22.1890  -16.9145   22.4142 C   0  0  0  0  0  0  0  0  0  0  0  0
  -21.3664  -16.4810   20.1842 C   0  0  0  0  0  0  0  0  0  0  0  0
  -27.3578  -28.8843   19.0481 C   0  0  0  0  0  0  0  0  0  0  0  0
  -21.6178  -20.1229   21.5174 C   0  0  0  0  0  0  0  0  0  0  0  0
  -21.9837  -21.3402   22.0916 C   0  0  0  0  0  0  0  0  0  0  0  0
  -26.4289  -28.1276   21.1419 C   0  0  0  0  0  0  0  0  0  0  0  0
  -30.2954  -20.8975   22.0367 C   0  0  0  0  0  0  0  0  0  0  0  0
  -20.4431  -20.9456   23.9103 C   0  0  0  0  0  0  0  0  0  0  0  0
  -23.2766  -15.2640   21.0250 C   0  0  0  0  0  0  0  0  0  0  0  0
  -24.2351  -12.9022   21.1296 C   0  0  0  0  0  0  0  0  0  0  0  0
  -25.7045  -36.4905   20.4114 C   0  0  0  0  0  0  0  0  0  0  0  0
  -25.3102  -29.8759   19.8961 C   0  0  0  0  0  0  0  0  0  0  0  0
  -26.1066  -35.1972   20.7966 C   0  0  0  0  0  0  0  0  0  0  0  0
  -25.3630  -29.0313   21.0142 C   0  0  0  0  0  0  0  0  0  0  0  0
  -29.4477  -21.3645   19.4044 C   0  0  0  0  0  0  0  0  0  0  0  0
  -29.1597  -22.2855   20.4229 C   0  0  0  0  0  0  0  0  0  0  0  0
  -30.1899  -20.2081   19.7085 C   0  0  0  0  0  0  0  0  0  0  0  0
  -29.5791  -22.0512   21.7321 C   0  0  0  0  0  0  0  0  0  0  0  0
  -21.2781  -17.1757   21.3906 C   0  0  0  0  0  0  0  0  0  0  0  0
  -27.4215  -28.0561   20.1648 C   0  0  0  0  0  0  0  0  0  0  0  0
  -20.6644  -19.3168   22.1396 C   0  0  0  0  0  0  0  0  0  0  0  0
  -30.5971  -19.9792   21.0315 C   0  0  0  0  0  0  0  0  0  0  0  0
  -21.3964  -21.7516   23.2880 C   0  0  0  0  0  0  0  0  0  0  0  0
  -20.0771  -19.7282   23.3361 C   0  0  0  0  0  0  0  0  0  0  0  0
  -24.3090  -14.2768   20.8353 C   0  0  0  0  0  0  0  0  0  0  0  0
  -25.4653  -12.4077   20.7710 C   0  0  0  0  0  0  0  0  0  0  0  0
  -23.1513  -12.1403   21.6779 C   0  0  0  0  0  0  0  0  0  0  0  0
  -24.2982  -32.1572   21.8646 C   0  0  0  0  0  0  0  0  0  0  0  0
  -22.0071  -29.9772   22.5862 C   0  0  0  0  0  0  0  0  0  0  0  0
  -21.0526  -26.7021   22.6854 C   0  0  0  0  0  0  0  0  0  0  0  0
  -30.8589  -14.9475   20.2598 C   0  0  0  0  0  0  0  0  0  0  0  0
  -24.5513  -37.1950   21.0810 C   0  0  0  0  0  0  0  0  0  0  0  0
  -24.1666  -30.8371   19.7208 C   0  0  0  0  0  0  0  0  0  0  0  0
  -29.0058  -21.6695   17.9949 C   0  0  0  0  0  0  0  0  0  0  0  0
  -30.5062  -19.1751   18.6559 C   0  0  0  0  0  0  0  0  0  0  0  0
  -24.3093  -29.0725   22.0895 C   0  0  0  0  0  0  0  0  0  0  0  0
  -23.6288  -36.2552   21.8530 C   0  0  0  0  0  0  0  0  0  0  0  0
  -29.0374  -20.4499   17.0757 C   0  0  0  0  0  0  0  0  0  0  0  0
  -30.3548  -19.7010   17.2298 C   0  0  0  0  0  0  0  0  0  0  0  0
  -29.0925  -13.1706   17.7717 C   0  0  0  0  0  0  0  0  0  0  0  0
  -24.4439  -35.2943   22.7128 C   0  0  0  0  0  0  0  0  0  0  0  0
  -27.6523  -13.1461   18.2762 C   0  0  0  0  0  0  0  0  0  0  0  0
  -31.7616  -17.1868   23.0669 C   0  0  0  0  0  0  0  0  0  0  0  0
  -28.9206  -24.4579   19.0415 C   0  0  0  0  0  0  0  0  0  0  0  0
  -29.7558  -14.5024   18.0956 C   0  0  0  0  0  0  0  0  0  0  0  0
  -32.0900  -16.0657   22.0914 C   0  0  0  0  0  0  0  0  0  0  0  0
  -28.3264  -14.7928   20.1010 C   0  0  0  0  0  0  0  0  0  0  0  0
  -29.8939  -16.9112   21.6034 C   0  0  0  0  0  0  0  0  0  0  0  0
  -28.4048  -23.5446   20.1218 C   0  0  2  0  0  0  0  0  0  0  0  0
  -25.3503  -34.4119   21.8460 C   0  0  1  0  0  0  0  0  0  0  0  0
  -23.4860  -31.2022   21.0364 C   0  0  1  0  0  0  0  0  0  0  0  0
  -29.0322  -24.8670   20.4801 C   0  0  2  0  0  0  0  0  0  0  0  0
  -27.5979  -13.4721   19.7768 C   0  0  1  0  0  0  0  0  0  0  0  0
  -30.6954  -17.9869   22.3265 C   0  0  2  0  0  0  0  0  0  0  0  0
  -29.2771  -23.0204   22.8285 C   0  0  0  0  0  0  0  0  0  0  0  0
  -19.1373  -25.2281   23.3606 C   0  0  0  0  0  0  0  0  0  0  0  0
  -22.7770  -30.3240   25.5182 C   0  0  0  0  0  0  0  0  0  0  0  0
  -21.5464  -28.2021   26.0201 C   0  0  0  0  0  0  0  0  0  0  0  0
  -20.3168  -30.1666   25.0972 C   0  0  0  0  0  0  0  0  0  0  0  0
  -20.6994  -25.6992   19.9235 C   0  0  0  0  0  0  0  0  0  0  0  0
  -28.1816  -25.9683   21.0130 C   0  0  0  0  0  0  0  0  0  1  0  0
  -21.8732  -28.8603   23.5929 C   0  0  1  0  0  0  0  0  0  0  0  0
  -19.7827  -26.0087   22.2263 C   0  0  2  0  0  0  0  0  0  0  0  0
  -21.6494  -29.3886   25.0380 C   0  0  0  0  0  0  0  0  0  0  0  0
  -25.4926  -14.6329   20.3290 N   0  0  0  0  0  0  0  0  0  0  0  0
  -26.1738  -13.4747   20.3024 N   0  0  0  0  0  0  0  0  0  0  0  0
  -23.2145  -30.0334   21.8758 N   0  0  0  0  0  0  0  0  0  0  0  0
  -29.6765  -14.8160   19.5234 N   0  0  0  0  0  0  0  0  0  0  0  0
  -30.8697  -15.8525   21.3210 N   0  0  0  0  0  0  0  0  0  0  0  0
  -25.9993  -11.1685   20.8141 N   0  0  0  0  0  0  0  0  0  0  0  0
  -21.9576  -12.8054   21.9897 N   0  0  0  0  0  0  0  0  0  0  0  0
  -24.5829  -33.3510   21.2295 N   0  0  0  0  0  0  0  0  0  0  0  0
  -20.8074  -27.9936   23.1018 N   0  0  0  0  0  0  0  0  0  0  0  0
  -20.0823  -25.0618   21.1151 N   0  3  0  0  0  0  0  0  0  0  0  0
  -23.2444  -10.9093   21.9005 O   0  0  0  0  0  0  0  0  0  0  0  0
  -24.6399  -31.8355   22.9966 O   0  0  0  0  0  0  0  0  0  0  0  0
  -21.0718  -30.7663   22.4306 O   0  0  0  0  0  0  0  0  0  0  0  0
  -22.1516  -26.1519   22.6792 O   0  0  0  0  0  0  0  0  0  0  0  0
  -31.8789  -14.3140   19.9560 O   0  0  0  0  0  0  0  0  0  0  0  0
  -20.3027  -18.1082   21.5688 O   0  0  0  0  0  0  0  0  0  0  0  0
  -31.2953  -18.8491   21.3680 O   0  0  0  0  0  0  0  0  0  0  0  0
  -28.4562  -27.1671   20.3020 O   0  0  0  0  0  0  0  0  0  1  0  0
  -21.7491  -22.9199   23.8401 F   0  0  0  0  0  0  0  0  0  0  0  0
  -19.1615  -18.9576   23.9391 F   0  0  0  0  0  0  0  0  0  0  0  0
  1  2  1  0  0  0  0
  1  5  2  0  0  0  0
  2  6  2  0  0  0  0
  3  8  2  0  0  0  0
  3 16  1  0  0  0  0
  4  9  1  0  0  0  0
  4 16  2  0  0  0  0
  5 18  1  0  0  0  0
  6 20  1  0  0  0  0
  7 10  2  0  0  0  0
  7 19  1  0  0  0  0
  8 26  1  0  0  0  0
  9 26  2  0  0  0  0
 10 27  1  0  0  0  0
 11 12  2  0  0  0  0
 11 28  1  0  0  0  0
 12 30  1  0  0  0  0
 13 21  1  0  0  0  0
 13 27  2  0  0  0  0
 14 25  2  0  0  0  0
 14 29  1  0  0  0  0
 15 30  2  0  0  0  0
 15 31  1  0  0  0  0
 16 32  1  0  0  0  0
 17 32  1  0  0  0  0
 17 33  2  0  0  0  0
 17 34  1  0  0  0  0
 18 20  2  0  0  0  0
 18 39  1  0  0  0  0
 19 21  2  0  0  0  0
 19 40  1  0  0  0  0
 20 57  1  0  0  0  0
 21 43  1  0  0  0  0
 22 23  2  0  0  0  0
 22 24  1  0  0  0  0
 22 41  1  0  0  0  0
 23 25  1  0  0  0  0
 23 56  1  0  0  0  0
 24 29  2  0  0  0  0
 24 42  1  0  0  0  0
 25 62  1  0  0  0  0
 26 87  1  0  0  0  0
 27 89  1  0  0  0  0
 28 31  2  0  0  0  0
 28 87  1  0  0  0  0
 29 88  1  0  0  0  0
 30 90  1  0  0  0  0
 31 91  1  0  0  0  0
 32 72  2  0  0  0  0
 33 73  1  0  0  0  0
 33 77  1  0  0  0  0
 34 78  1  0  0  0  0
 34 82  2  0  0  0  0
 35 58  1  0  0  0  0
 35 79  1  0  0  0  0
 35 83  2  0  0  0  0
 36 69  1  0  0  0  0
 36 74  1  0  0  0  0
 36 84  2  0  0  0  0
 37 70  1  0  0  0  0
 37 80  1  0  0  0  0
 37 85  2  0  0  0  0
 38 75  1  0  0  0  0
 38 76  1  0  0  0  0
 38 86  2  0  0  0  0
 39 44  1  0  0  0  0
 40 58  1  0  0  0  0
 41 45  1  0  0  0  0
 42 46  1  0  0  0  0
 43 74  1  0  0  0  0
 44 48  1  0  0  0  0
 45 46  1  0  0  0  0
 47 49  1  0  0  0  0
 47 52  1  0  0  0  0
 48 57  1  0  0  0  0
 49 60  1  0  0  0  0
 50 53  1  0  0  0  0
 50 61  1  0  0  0  0
 51 56  1  0  0  0  0
 51 59  1  0  0  0  0
 52 75  1  0  0  0  0
 53 76  1  0  0  0  0
 54 60  1  0  0  0  0
 54 75  1  0  0  0  0
 55 61  1  0  0  0  0
 55 76  1  0  0  0  0
 56 59  1  0  0  0  0
 57 79  1  0  0  0  0
 58 74  1  0  0  0  0
 59 68  1  0  0  0  0
 60 73  1  0  0  0  0
 61 88  1  0  0  0  0
 63 70  1  0  0  0  0
 64 71  1  0  0  0  0
 65 71  1  0  0  0  0
 66 71  1  0  0  0  0
 67 81  1  0  0  0  0
 68 89  1  0  0  0  0
 69 71  1  0  0  0  0
 69 80  1  0  0  0  0
 70 81  1  0  0  0  0
 72 73  1  0  0  0  0
M  CHG  1  81   1
M  ISO  4  38 100  68 101  76 100  89 101
M  END
> <Batch ID>
0168

> <Smiles>
CNC(C)C(=O)NC(C(=O)N1Cc2cc([101O:1][101CH2:1]C3CC3c3c(C)cc(OC4CC[100N:0]([100C:0](=O)N5CCCC(n6nc(-c7ccc(Oc8ccc(F)cc8F)cc7)c(C(N)=O)c6N)C5)C4)c4c3CCCC4)ccc2CC1C(=O)NC1CCCc2ccccc21)C(C)(C)C

> <Shape>
0.287

> <Color>
0.125

> <Negative vol penalty>
0.000

$$$$

  -OEChem-04052322303D

 88 98  0     1  0  0  0  0  0999 V2000
  -25.2827  -30.8066   22.1256 C   0  0  0  0  0  0  0  0  0  0  0  0
  -25.0778  -29.6369   22.8504 C   0  0  0  0  0  0  0  0  0  0  0  0
  -19.9959  -22.7142   20.3339 C   0  0  0  0  0  0  0  0  0  0  0  0
  -20.1176  -21.4164   22.3681 C   0  0  0  0  0  0  0  0  0  0  0  0
  -25.6621  -30.7376   20.7858 C   0  0  0  0  0  0  0  0  0  0  0  0
  -25.2512  -28.3975   22.2354 C   0  0  0  0  0  0  0  0  0  0  0  0
  -27.3867  -21.7093   23.6578 C   0  0  0  0  0  0  0  0  0  0  0  0
  -19.4058  -23.7634   21.0386 C   0  0  0  0  0  0  0  0  0  0  0  0
  -19.5276  -22.4656   23.0728 C   0  0  0  0  0  0  0  0  0  0  0  0
  -26.9572  -20.3898   23.5226 C   0  0  0  0  0  0  0  0  0  0  0  0
  -20.4031  -26.2521   23.0989 C   0  0  0  0  0  0  0  0  0  0  0  0
  -20.8764  -27.5419   22.8580 C   0  0  0  0  0  0  0  0  0  0  0  0
  -25.0049  -13.7100   19.2041 C   0  0  0  0  0  0  0  0  0  0  0  0
  -27.6913  -20.3927   21.2247 C   0  0  0  0  0  0  0  0  0  0  0  0
  -18.6728  -28.2147   22.1308 C   0  0  0  0  0  0  0  0  0  0  0  0
  -24.4469  -11.8354   20.5594 C   0  0  0  0  0  0  0  0  0  0  0  0
  -20.3518  -21.5407   20.9987 C   0  0  0  0  0  0  0  0  0  0  0  0
  -22.3355  -20.2445   20.0540 C   0  0  0  0  0  0  0  0  0  0  0  0
  -25.8497  -29.4968   20.1567 C   0  0  0  0  0  0  0  0  0  0  0  0
  -27.9627  -22.3851   22.5725 C   0  0  0  0  0  0  0  0  0  0  0  0
  -25.6322  -28.3119   20.8855 C   0  0  0  0  0  0  0  0  0  0  0  0
  -26.2109  -13.8218   19.8961 C   0  0  0  0  0  0  0  0  0  0  0  0
  -28.1296  -21.7199   21.3495 C   0  0  0  0  0  0  0  0  0  0  0  0
  -24.1011  -12.7074   19.5405 C   0  0  0  0  0  0  0  0  0  0  0  0
  -19.1717  -23.6391   22.4081 C   0  0  0  0  0  0  0  0  0  0  0  0
  -27.1069  -19.7323   22.3051 C   0  0  0  0  0  0  0  0  0  0  0  0
  -19.0646  -25.9436   22.8557 C   0  0  0  0  0  0  0  0  0  0  0  0
  -20.0112  -28.5232   22.3740 C   0  0  0  0  0  0  0  0  0  0  0  0
  -18.1995  -26.9249   22.3717 C   0  0  0  0  0  0  0  0  0  0  0  0
  -20.9608  -20.4563   20.2712 C   0  0  0  0  0  0  0  0  0  0  0  0
  -26.4606  -12.8898   20.8970 C   0  0  0  0  0  0  0  0  0  0  0  0
  -22.3923  -19.0887   19.3142 C   0  0  0  0  0  0  0  0  0  0  0  0
  -27.7348  -12.9131   21.6467 C   0  0  0  0  0  0  0  0  0  0  0  0
  -23.4606  -21.0230   20.4828 C   0  0  0  0  0  0  0  0  0  0  0  0
  -27.2081  -24.9698   20.8833 C   0  0  0  0  0  0  0  0  0  0  0  0
  -30.0941  -24.4328   19.5030 C   0  0  0  0  0  0  0  0  0  0  0  0
  -32.5711  -22.2138   18.7366 C   0  0  0  0  0  0  0  0  0  0  0  0
  -20.7345  -13.8504   18.3357 C   0  0  0  0  0  0  0  0  0  0  0  0
  -26.2142  -29.4725   18.6934 C   0  0  0  0  0  0  0  0  0  0  0  0
  -28.4452  -23.7996   22.7424 C   0  0  0  0  0  0  0  0  0  0  0  0
  -27.2302  -14.8586   19.5404 C   0  0  0  0  0  0  0  0  0  0  0  0
  -28.7603  -22.3943   20.1596 C   0  0  0  0  0  0  0  0  0  0  0  0
  -26.7412  -28.1205   18.2193 C   0  0  0  0  0  0  0  0  0  0  0  0
  -18.7286  -16.4742   17.0058 C   0  0  0  0  0  0  0  0  0  0  0  0
  -25.8496  -26.9920   18.7276 C   0  0  0  0  0  0  0  0  0  0  0  0
  -19.2396  -17.7249   17.7232 C   0  0  0  0  0  0  0  0  0  0  0  0
  -30.8402  -13.0324   22.0395 C   0  0  0  0  0  0  0  0  0  0  0  0
  -31.0919  -14.3778   21.4268 C   0  0  0  0  0  0  0  0  0  0  0  0
  -18.7354  -15.2543   17.9243 C   0  0  0  0  0  0  0  0  0  0  0  0
  -20.5407  -16.2263   19.2918 C   0  0  0  0  0  0  0  0  0  0  0  0
  -25.8344  -26.9486   20.2604 C   0  0  1  0  0  0  0  0  0  0  0  0
  -28.5487  -24.5581   21.4228 C   0  0  1  0  0  0  0  0  0  0  0  0
  -20.6051  -17.4706   18.3895 C   0  0  2  0  0  0  0  0  0  0  0  0
  -29.8105  -14.1209   22.1715 C   0  0  0  0  0  0  0  0  0  0  0  0
  -28.0803  -15.2400   20.7573 C   0  0  1  0  0  0  0  0  0  0  0  0
  -34.7873  -22.0612   17.5695 C   0  0  0  0  0  0  0  0  0  0  0  0
  -28.6736  -24.4914   16.8032 C   0  0  0  0  0  0  0  0  0  0  0  0
  -30.6957  -23.4137   15.7944 C   0  0  0  0  0  0  0  0  0  0  0  0
  -30.8801  -25.6678   16.8468 C   0  0  0  0  0  0  0  0  0  0  0  0
  -33.9534  -21.3903   21.2206 C   0  0  0  0  0  0  0  0  0  0  0  0
  -22.8053  -12.5723   18.8228 C   0  0  0  0  0  0  0  0  0  0  0  0
  -27.3272  -16.1800   21.7049 C   0  0  0  0  0  0  0  0  0  0  0  0
  -27.3937  -17.6262   21.2382 C   0  0  0  0  0  0  0  0  0  1  0  0
  -30.5803  -23.6337   18.3181 C   0  0  1  0  0  0  0  0  0  0  0  0
  -34.0788  -22.2929   18.8950 C   0  0  2  0  0  0  0  0  0  0  0  0
  -30.1937  -24.2893   16.9623 C   0  0  0  0  0  0  0  0  0  0  0  0
  -25.6090  -11.8973   21.2455 N   0  0  0  0  0  0  0  0  0  0  0  0
  -20.1992  -19.5109   19.7142 N   0  0  0  0  0  0  0  0  0  0  0  0
  -21.0985  -18.6940   19.1397 N   0  0  0  0  0  0  0  0  0  0  0  0
  -28.5401  -14.0422   21.4776 N   0  0  0  0  0  0  0  0  0  0  0  0
  -29.2103  -23.7797   20.3738 N   0  0  0  0  0  0  0  0  0  0  0  0
  -20.0594  -15.0679   18.5229 N   0  0  0  0  0  0  0  0  0  0  0  0
  -23.4221  -18.3817   18.8024 N   0  0  0  0  0  0  0  0  0  0  0  0
  -23.2238  -22.1815   21.2352 N   0  0  0  0  0  0  0  0  0  0  0  0
  -27.0467  -26.3367   20.7607 N   0  0  0  0  0  0  0  0  0  0  0  0
  -32.0158  -23.4549   18.5076 N   0  0  0  0  0  0  0  0  0  0  0  0
  -21.9866  -13.7592   18.9313 N   0  0  0  0  0  0  0  0  0  0  0  0
  -34.5521  -21.2668   19.8666 N   0  3  0  0  0  0  0  0  0  0  0  0
  -28.0179  -11.9500   22.3557 O   0  0  0  0  0  0  0  0  0  0  0  0
  -24.6402  -20.7097   20.1929 O   0  0  0  0  0  0  0  0  0  0  0  0
  -26.3820  -24.1109   20.5980 O   0  0  0  0  0  0  0  0  0  0  0  0
  -30.4896  -25.5914   19.6544 O   0  0  0  0  0  0  0  0  0  0  0  0
  -31.9487  -21.1562   18.8052 O   0  0  0  0  0  0  0  0  0  0  0  0
  -20.2591  -12.9161   17.6816 O   0  0  0  0  0  0  0  0  0  0  0  0
  -18.5961  -24.6628   23.0961 O   0  0  0  0  0  0  0  0  0  0  0  0
  -26.6879  -18.4445   22.1702 O   0  0  0  0  0  0  0  0  0  1  0  0
  -20.4655  -29.7621   22.1442 F   0  0  0  0  0  0  0  0  0  0  0  0
  -16.9124  -26.6347   22.1373 F   0  0  0  0  0  0  0  0  0  0  0  0
  1  2  1  0  0  0  0
  1  5  2  0  0  0  0
  2  6  2  0  0  0  0
  3  8  2  0  0  0  0
  3 17  1  0  0  0  0
  4  9  1  0  0  0  0
  4 17  2  0  0  0  0
  5 19  1  0  0  0  0
  6 21  1  0  0  0  0
  7 10  2  0  0  0  0
  7 20  1  0  0  0  0
  8 25  1  0  0  0  0
  9 25  2  0  0  0  0
 10 26  1  0  0  0  0
 11 12  2  0  0  0  0
 11 27  1  0  0  0  0
 12 28  1  0  0  0  0
 13 22  1  0  0  0  0
 13 24  2  0  0  0  0
 14 23  1  0  0  0  0
 14 26  2  0  0  0  0
 15 28  2  0  0  0  0
 15 29  1  0  0  0  0
 16 24  1  0  0  0  0
 16 67  2  0  0  0  0
 17 30  1  0  0  0  0
 18 30  1  0  0  0  0
 18 32  2  0  0  0  0
 18 34  1  0  0  0  0
 19 21  2  0  0  0  0
 19 39  1  0  0  0  0
 20 23  2  0  0  0  0
 20 40  1  0  0  0  0
 21 51  1  0  0  0  0
 22 31  2  0  0  0  0
 22 41  1  0  0  0  0
 23 42  1  0  0  0  0
 24 61  1  0  0  0  0
 25 85  1  0  0  0  0
 26 86  1  0  0  0  0
 27 29  2  0  0  0  0
 27 85  1  0  0  0  0
 28 87  1  0  0  0  0
 29 88  1  0  0  0  0
 30 68  2  0  0  0  0
 31 33  1  0  0  0  0
 31 67  1  0  0  0  0
 32 69  1  0  0  0  0
 32 73  1  0  0  0  0
 33 70  1  0  0  0  0
 33 79  2  0  0  0  0
 34 74  1  0  0  0  0
 34 80  2  0  0  0  0
 35 52  1  0  0  0  0
 35 75  1  0  0  0  0
 35 81  2  0  0  0  0
 36 64  1  0  0  0  0
 36 71  1  0  0  0  0
 36 82  2  0  0  0  0
 37 65  1  0  0  0  0
 37 76  1  0  0  0  0
 37 83  2  0  0  0  0
 38 72  1  0  0  0  0
 38 77  1  0  0  0  0
 38 84  2  0  0  0  0
 39 43  1  0  0  0  0
 40 52  1  0  0  0  0
 41 55  1  0  0  0  0
 42 71  1  0  0  0  0
 43 45  1  0  0  0  0
 44 46  1  0  0  0  0
 44 49  1  0  0  0  0
 45 51  1  0  0  0  0
 46 53  1  0  0  0  0
 47 48  1  0  0  0  0
 47 54  1  0  0  0  0
 48 54  1  0  0  0  0
 49 72  1  0  0  0  0
 50 53  1  0  0  0  0
 50 72  1  0  0  0  0
 51 75  1  0  0  0  0
 52 71  1  0  0  0  0
 53 69  1  0  0  0  0
 54 70  1  0  0  0  0
 55 62  1  0  0  0  0
 55 70  1  0  0  0  0
 56 65  1  0  0  0  0
 57 66  1  0  0  0  0
 58 66  1  0  0  0  0
 59 66  1  0  0  0  0
 60 78  1  0  0  0  0
 61 77  1  0  0  0  0
 62 63  1  0  0  0  0
 63 86  1  0  0  0  0
 64 66  1  0  0  0  0
 64 76  1  0  0  0  0
 65 78  1  0  0  0  0
 68 69  1  0  0  0  0
M  CHG  1  78   1
M  ISO  4  38 100  63 101  77 100  86 101
M  END
> <Batch ID>
0168

> <Smiles>
CNC(C)C(=O)NC(C(=O)N1Cc2cc([101O:1][101CH2:1]CC3Cc4cc(C[100NH:0][100C:0](=O)N5CCCC(n6nc(-c7ccc(Oc8ccc(F)cc8F)cc7)c(C(N)=O)c6N)C5)cnc4C(=O)N3C3CC3)ccc2CC1C(=O)NC1CCCc2ccccc21)C(C)(C)C

> <Shape>
0.204

> <Color>
0.076

> <Negative vol penalty>
0.000

$$$$

  -OEChem-04052322303D

 89 98  0     1  0  0  0  0  0999 V2000
  -19.3908  -28.8411   23.0029 C   0  0  0  0  0  0  0  0  0  0  0  0
  -19.8766  -27.8605   23.8618 C   0  0  0  0  0  0  0  0  0  0  0  0
  -29.3608  -23.4673   21.3407 C   0  0  0  0  0  0  0  0  0  0  0  0
  -27.3037  -23.2772   20.0880 C   0  0  0  0  0  0  0  0  0  0  0  0
  -18.6700  -28.4761   21.8666 C   0  0  0  0  0  0  0  0  0  0  0  0
  -19.6408  -26.5142   23.5855 C   0  0  0  0  0  0  0  0  0  0  0  0
  -22.6557  -20.0560   24.3058 C   0  0  0  0  0  0  0  0  0  0  0  0
  -29.4573  -24.8108   20.9784 C   0  0  0  0  0  0  0  0  0  0  0  0
  -27.4002  -24.6207   19.7258 C   0  0  0  0  0  0  0  0  0  0  0  0
  -22.3710  -18.7834   24.7990 C   0  0  0  0  0  0  0  0  0  0  0  0
  -26.9150  -28.0942   18.7676 C   0  0  0  0  0  0  0  0  0  0  0  0
  -25.7626  -28.8749   18.8563 C   0  0  0  0  0  0  0  0  0  0  0  0
  -21.1814  -18.2677   22.7648 C   0  0  0  0  0  0  0  0  0  0  0  0
  -24.2656  -11.5043   21.2114 C   0  0  0  0  0  0  0  0  0  0  0  0
  -24.7043  -13.8685   21.2602 C   0  0  0  0  0  0  0  0  0  0  0  0
  -25.6321  -28.4130   21.2242 C   0  0  0  0  0  0  0  0  0  0  0  0
  -28.2841  -22.7005   20.8955 C   0  0  0  0  0  0  0  0  0  0  0  0
  -27.5420  -20.7815   22.4037 C   0  0  0  0  0  0  0  0  0  0  0  0
  -18.4336  -27.1243   21.5711 C   0  0  0  0  0  0  0  0  0  0  0  0
  -22.1953  -20.4484   23.0407 C   0  0  0  0  0  0  0  0  0  0  0  0
  -18.9150  -26.1308   22.4449 C   0  0  0  0  0  0  0  0  0  0  0  0
  -21.4637  -19.5449   22.2568 C   0  0  0  0  0  0  0  0  0  0  0  0
  -23.9192  -12.7832   21.6331 C   0  0  0  0  0  0  0  0  0  0  0  0
  -28.4770  -25.3875   20.1710 C   0  0  0  0  0  0  0  0  0  0  0  0
  -21.6313  -17.8900   24.0297 C   0  0  0  0  0  0  0  0  0  0  0  0
  -27.4260  -27.4727   19.9071 C   0  0  0  0  0  0  0  0  0  0  0  0
  -25.1212  -29.0344   20.0847 C   0  0  0  0  0  0  0  0  0  0  0  0
  -26.7846  -27.6322   21.1354 C   0  0  0  0  0  0  0  0  0  0  0  0
  -28.1841  -21.3124   21.2689 C   0  0  0  0  0  0  0  0  0  0  0  0
  -25.3975  -11.3652   20.4245 C   0  0  0  0  0  0  0  0  0  0  0  0
  -25.8167  -13.6235   20.4713 C   0  0  0  0  0  0  0  0  0  0  0  0
  -27.7291  -19.4247   22.3007 C   0  0  0  0  0  0  0  0  0  0  0  0
  -26.8392  -21.4546   23.4566 C   0  0  0  0  0  0  0  0  0  0  0  0
  -20.2423  -22.7155   21.9684 C   0  0  0  0  0  0  0  0  0  0  0  0
  -21.2214  -21.6427   19.0679 C   0  0  0  0  0  0  0  0  0  0  0  0
  -22.5078  -19.0874   17.2072 C   0  0  0  0  0  0  0  0  0  0  0  0
  -27.7644  -14.7254   19.3144 C   0  0  0  0  0  0  0  0  0  0  0  0
  -17.6087  -26.7803   20.3563 C   0  0  0  0  0  0  0  0  0  0  0  0
  -22.5336  -21.8153   22.5120 C   0  0  0  0  0  0  0  0  0  0  0  0
  -20.9637  -19.9102   20.8838 C   0  0  0  0  0  0  0  0  0  0  0  0
  -17.7239  -25.3173   19.9361 C   0  0  0  0  0  0  0  0  0  0  0  0
  -30.7019  -16.7347   19.2107 C   0  0  0  0  0  0  0  0  0  0  0  0
  -17.5839  -24.4013   21.1477 C   0  0  0  0  0  0  0  0  0  0  0  0
  -30.2559  -18.0611   19.8303 C   0  0  0  0  0  0  0  0  0  0  0  0
  -22.3599  -11.7790   23.4103 C   0  0  0  0  0  0  0  0  0  0  0  0
  -29.5983  -16.1056   18.3622 C   0  0  0  0  0  0  0  0  0  0  0  0
  -27.8609  -17.2720   19.6622 C   0  0  0  0  0  0  0  0  0  0  0  0
  -22.8461  -14.1106   23.5466 C   0  0  0  0  0  0  0  0  0  0  0  0
  -18.7011  -24.6589   22.1661 C   0  0  1  0  0  0  0  0  0  0  0  0
  -21.5758  -22.2887   21.4230 C   0  0  1  0  0  0  0  0  0  0  0  0
  -28.9168  -17.9115   20.5786 C   0  0  2  0  0  0  0  0  0  0  0  0
  -22.6789  -12.9954   22.5042 C   0  0  1  0  0  0  0  0  0  0  0  0
  -21.6781  -12.3109   24.6953 C   0  0  0  0  0  0  0  0  0  0  0  0
  -25.7999  -10.0071   19.9543 C   0  0  0  0  0  0  0  0  0  0  0  0
  -21.4966  -13.2997   21.5592 C   0  0  0  0  0  0  0  0  0  0  0  0
  -22.4316  -11.8167   25.9371 C   0  0  0  0  0  0  0  0  0  0  0  0
  -20.2030  -11.9091   24.7755 C   0  0  0  0  0  0  0  0  0  0  0  0
  -23.4475  -17.9137   15.1979 C   0  0  0  0  0  0  0  0  0  0  0  0
  -20.5197  -14.6453   26.4979 C   0  0  0  0  0  0  0  0  0  0  0  0
  -18.2778  -21.3119   18.3360 C   0  0  0  0  0  0  0  0  0  0  0  0
  -18.9888  -19.8675   16.4186 C   0  0  0  0  0  0  0  0  0  0  0  0
  -19.7066  -22.2547   16.5127 C   0  0  0  0  0  0  0  0  0  0  0  0
  -25.2699  -19.9194   17.8686 C   0  0  0  0  0  0  0  0  0  0  0  0
  -22.2990  -16.0685   25.4054 C   0  0  0  0  0  0  0  0  0  1  0  0
  -20.7442  -20.5848   18.1024 C   0  0  1  0  0  0  0  0  0  0  0  0
  -23.6358  -19.0492   16.1919 C   0  0  2  0  0  0  0  0  0  0  0  0
  -21.8692  -14.6596   25.7984 C   0  0  2  0  0  0  0  0  0  0  0  0
  -19.4370  -20.9982   17.3691 C   0  0  0  0  0  0  0  0  0  0  0  0
  -28.7379  -20.3698   20.5016 N   0  0  0  0  0  0  0  0  0  0  0  0
  -26.1848  -12.3955   20.0422 N   0  0  0  0  0  0  0  0  0  0  0  0
  -28.4444  -19.2329   21.1553 N   0  0  0  0  0  0  0  0  0  0  0  0
  -21.3149  -21.2604   20.4136 N   0  0  0  0  0  0  0  0  0  0  0  0
  -28.3614  -15.9916   19.1379 N   0  0  0  0  0  0  0  0  0  0  0  0
  -27.3500  -18.3890   23.0791 N   0  0  0  0  0  0  0  0  0  0  0  0
  -26.7408  -22.8518   23.4075 N   0  0  0  0  0  0  0  0  0  0  0  0
  -26.6104  -14.7361   20.0971 N   0  0  0  0  0  0  0  0  0  0  0  0
  -19.9351  -24.0415   21.7295 N   0  0  0  0  0  0  0  0  0  0  0  0
  -21.8666  -20.3081   17.2126 N   0  0  0  0  0  0  0  0  0  0  0  0
  -21.7594  -13.8320   24.5549 N   0  3  1  0  0  0  0  0  0  0  0  0
  -24.9448  -18.8603   16.8788 N   0  3  0  0  0  0  0  0  0  0  0  0
  -26.3281  -20.8366   24.4212 O   0  0  0  0  0  0  0  0  0  0  0  0
  -19.5432  -21.9018   22.5606 O   0  0  0  0  0  0  0  0  0  0  0  0
  -21.5078  -22.7646   18.6426 O   0  0  0  0  0  0  0  0  0  0  0  0
  -22.2216  -18.1288   17.9212 O   0  0  0  0  0  0  0  0  0  0  0  0
  -28.2569  -13.7027   18.8311 O   0  0  0  0  0  0  0  0  0  0  0  0
  -28.5707  -26.6986   19.8174 O   0  0  0  0  0  0  0  0  0  0  0  0
  -21.3515  -16.6475   24.5091 O   0  0  0  0  0  0  0  0  0  1  0  0
  -24.0154  -29.7854   20.1701 F   0  0  0  0  0  0  0  0  0  0  0  0
  -27.2714  -27.0387   22.2338 F   0  0  0  0  0  0  0  0  0  0  0  0
  1  2  1  0  0  0  0
  1  5  2  0  0  0  0
  2  6  2  0  0  0  0
  3  8  2  0  0  0  0
  3 17  1  0  0  0  0
  4  9  1  0  0  0  0
  4 17  2  0  0  0  0
  5 19  1  0  0  0  0
  6 21  1  0  0  0  0
  7 10  2  0  0  0  0
  7 20  1  0  0  0  0
  8 24  1  0  0  0  0
  9 24  2  0  0  0  0
 10 25  1  0  0  0  0
 11 12  2  0  0  0  0
 11 26  1  0  0  0  0
 12 27  1  0  0  0  0
 13 22  1  0  0  0  0
 13 25  2  0  0  0  0
 14 23  1  0  0  0  0
 14 30  2  0  0  0  0
 15 23  2  0  0  0  0
 15 31  1  0  0  0  0
 16 27  2  0  0  0  0
 16 28  1  0  0  0  0
 17 29  1  0  0  0  0
 18 29  1  0  0  0  0
 18 32  2  0  0  0  0
 18 33  1  0  0  0  0
 19 21  2  0  0  0  0
 19 38  1  0  0  0  0
 20 22  2  0  0  0  0
 20 39  1  0  0  0  0
 21 49  1  0  0  0  0
 22 40  1  0  0  0  0
 23 52  1  0  0  0  0
 24 86  1  0  0  0  0
 25 87  1  0  0  0  0
 26 28  2  0  0  0  0
 26 86  1  0  0  0  0
 27 88  1  0  0  0  0
 28 89  1  0  0  0  0
 29 69  2  0  0  0  0
 30 54  1  0  0  0  0
 30 70  1  0  0  0  0
 31 70  2  0  0  0  0
 31 76  1  0  0  0  0
 32 71  1  0  0  0  0
 32 74  1  0  0  0  0
 33 75  1  0  0  0  0
 33 81  2  0  0  0  0
 34 50  1  0  0  0  0
 34 77  1  0  0  0  0
 34 82  2  0  0  0  0
 35 65  1  0  0  0  0
 35 72  1  0  0  0  0
 35 83  2  0  0  0  0
 36 66  1  0  0  0  0
 36 78  1  0  0  0  0
 36 84  2  0  0  0  0
 37 73  1  0  0  0  0
 37 76  1  0  0  0  0
 37 85  2  0  0  0  0
 38 41  1  0  0  0  0
 39 50  1  0  0  0  0
 40 72  1  0  0  0  0
 41 43  1  0  0  0  0
 42 44  1  0  0  0  0
 42 46  1  0  0  0  0
 43 49  1  0  0  0  0
 44 51  1  0  0  0  0
 45 52  1  0  0  0  0
 45 53  1  0  0  0  0
 46 73  1  0  0  0  0
 47 51  1  0  0  0  0
 47 73  1  0  0  0  0
 48 52  1  0  0  0  0
 48 79  1  0  0  0  0
 49 77  1  0  0  0  0
 50 72  1  0  0  0  0
 51 71  1  0  0  0  0
 52 55  1  0  0  0  0
 53 56  1  0  0  0  0
 53 57  1  0  0  0  0
 53 79  1  0  0  0  0
 58 66  1  0  0  0  0
 59 67  1  0  0  0  0
 60 68  1  0  0  0  0
 61 68  1  0  0  0  0
 62 68  1  0  0  0  0
 63 80  1  0  0  0  0
 64 67  1  0  0  0  0
 64 87  1  0  0  0  0
 65 68  1  0  0  0  0
 65 78  1  0  0  0  0
 66 80  1  0  0  0  0
 67 79  1  0  0  0  0
 69 71  1  0  0  0  0
M  CHG  2  79   1  80   1
M  ISO  4  37 100  64 101  76 100  87 101
M  END
> <Batch ID>
0168

> <Smiles>
CNC(C)C(=O)NC(C(=O)N1Cc2cc([101O:1][101CH2:1]C(C)N3CC(C)(c4cc(C)nc([100NH:0][100C:0](=O)N5CCCC(n6nc(-c7ccc(Oc8ccc(F)cc8F)cc7)c(C(N)=O)c6N)C5)c4)CC3(C)C)ccc2CC1C(=O)NC1CCCc2ccccc21)C(C)(C)C

> <Shape>
0.186

> <Color>
0.089

> <Negative vol penalty>
0.000

$$$$

  -OEChem-04052322303D

 89 99  0     1  0  0  0  0  0999 V2000
  -25.2378  -38.1446   19.4945 C   0  0  0  0  0  0  0  0  0  0  0  0
  -25.5363  -37.0136   18.7414 C   0  0  0  0  0  0  0  0  0  0  0  0
  -23.2610  -10.6805   22.1228 C   0  0  0  0  0  0  0  0  0  0  0  0
  -23.8289   -9.0524   20.4304 C   0  0  0  0  0  0  0  0  0  0  0  0
  -25.3992  -38.1212   20.8792 C   0  0  0  0  0  0  0  0  0  0  0  0
  -25.9975  -35.8588   19.3726 C   0  0  0  0  0  0  0  0  0  0  0  0
  -25.7578  -28.7205   18.8221 C   0  0  0  0  0  0  0  0  0  0  0  0
  -21.9088  -10.3811   21.9570 C   0  0  0  0  0  0  0  0  0  0  0  0
  -22.4767   -8.7530   20.2647 C   0  0  0  0  0  0  0  0  0  0  0  0
  -26.6053  -27.6141   18.7835 C   0  0  0  0  0  0  0  0  0  0  0  0
  -20.1164   -6.9341   21.8587 C   0  0  0  0  0  0  0  0  0  0  0  0
  -19.7563   -5.5885   21.7856 C   0  0  0  0  0  0  0  0  0  0  0  0
  -30.7425  -22.0129   19.0862 C   0  0  0  0  0  0  0  0  0  0  0  0
  -26.7702  -27.6641   21.1897 C   0  0  0  0  0  0  0  0  0  0  0  0
  -28.5856  -23.0013   18.6397 C   0  0  0  0  0  0  0  0  0  0  0  0
  -18.8405   -5.9534   19.5798 C   0  0  0  0  0  0  0  0  0  0  0  0
  -24.2211  -10.0162   21.3594 C   0  0  0  0  0  0  0  0  0  0  0  0
  -26.5214   -9.7147   22.4202 C   0  0  0  0  0  0  0  0  0  0  0  0
  -25.8534  -36.9626   21.5286 C   0  0  0  0  0  0  0  0  0  0  0  0
  -25.4183  -29.3147   20.0460 C   0  0  0  0  0  0  0  0  0  0  0  0
  -26.1665  -35.8204   20.7671 C   0  0  0  0  0  0  0  0  0  0  0  0
  -31.3082  -23.2851   19.2631 C   0  0  0  0  0  0  0  0  0  0  0  0
  -25.9161  -28.7764   21.2412 C   0  0  0  0  0  0  0  0  0  0  0  0
  -29.1345  -24.2710   18.8111 C   0  0  0  0  0  0  0  0  0  0  0  0
  -29.3888  -21.8724   18.7786 C   0  0  0  0  0  0  0  0  0  0  0  0
  -30.4882  -24.4149   19.1305 C   0  0  0  0  0  0  0  0  0  0  0  0
  -21.5166   -9.4174   21.0280 C   0  0  0  0  0  0  0  0  0  0  0  0
  -27.1139  -27.0876   19.9672 C   0  0  0  0  0  0  0  0  0  0  0  0
  -19.8384   -7.7894   20.7923 C   0  0  0  0  0  0  0  0  0  0  0  0
  -19.1184   -5.0981   20.6462 C   0  0  0  0  0  0  0  0  0  0  0  0
  -19.2006   -7.2990   19.6529 C   0  0  0  0  0  0  0  0  0  0  0  0
  -25.6180  -10.3254   21.5298 C   0  0  0  0  0  0  0  0  0  0  0  0
  -27.7128  -10.3608   22.1974 C   0  0  0  0  0  0  0  0  0  0  0  0
  -26.3032   -8.6579   23.3643 C   0  0  0  0  0  0  0  0  0  0  0  0
  -25.8510  -32.1842   21.3430 C   0  0  0  0  0  0  0  0  0  0  0  0
  -23.9727  -30.9745   23.6948 C   0  0  0  0  0  0  0  0  0  0  0  0
  -22.7754  -28.2221   25.3188 C   0  0  0  0  0  0  0  0  0  0  0  0
  -29.1214  -15.6451   20.3314 C   0  0  0  0  0  0  0  0  0  0  0  0
  -26.0572  -37.0003   23.0225 C   0  0  0  0  0  0  0  0  0  0  0  0
  -24.4815  -30.4912   20.0725 C   0  0  0  0  0  0  0  0  0  0  0  0
  -25.5658  -29.3650   22.5826 C   0  0  0  0  0  0  0  0  0  0  0  0
  -26.1939  -35.6171   23.6537 C   0  0  0  0  0  0  0  0  0  0  0  0
  -30.1543  -12.6624   18.7933 C   0  0  0  0  0  0  0  0  0  0  0  0
  -27.1594  -34.7550   22.8467 C   0  0  0  0  0  0  0  0  0  0  0  0
  -29.1882  -11.6520   19.4114 C   0  0  0  0  0  0  0  0  0  0  0  0
  -28.8896  -18.2595   17.9864 C   0  0  0  0  0  0  0  0  0  0  0  0
  -29.8028  -19.0399   20.2056 C   0  0  0  0  0  0  0  0  0  0  0  0
  -33.2341  -24.8562   19.3079 C   0  0  0  0  0  0  0  0  0  0  0  0
  -29.4610  -13.9819   18.4494 C   0  0  0  0  0  0  0  0  0  0  0  0
  -29.5942  -16.9148   18.1888 C   0  0  0  0  0  0  0  0  0  0  0  0
  -30.5099  -17.6952   20.3503 C   0  0  0  0  0  0  0  0  0  0  0  0
  -27.7628  -13.5781   20.2021 C   0  0  0  0  0  0  0  0  0  0  0  0
  -32.2230  -25.8460   19.8659 C   0  0  0  0  0  0  0  0  0  0  0  0
  -32.7788  -23.4197   19.5814 C   0  0  1  0  0  0  0  0  0  0  0  0
  -26.6455  -34.5409   21.4178 C   0  0  1  0  0  0  0  0  0  0  0  0
  -24.6136  -31.3318   21.3387 C   0  0  1  0  0  0  0  0  0  0  0  0
  -28.4434  -12.2629   20.6118 C   0  0  1  0  0  0  0  0  0  0  0  0
  -29.6093  -19.3887   18.7276 C   0  0  0  0  0  0  0  0  0  0  0  0
  -33.0693  -22.9995   21.0257 C   0  0  0  0  0  0  0  0  0  0  0  0
  -21.2877  -27.5516   27.2252 C   0  0  0  0  0  0  0  0  0  0  0  0
  -26.1559  -31.7664   25.6738 C   0  0  0  0  0  0  0  0  0  0  0  0
  -25.0790  -30.2590   27.3579 C   0  0  0  0  0  0  0  0  0  0  0  0
  -23.8241  -32.2177   26.4571 C   0  0  0  0  0  0  0  0  0  0  0  0
  -20.9467  -26.7419   23.5233 C   0  0  0  0  0  0  0  0  0  0  0  0
  -28.2488  -25.4643   18.6507 C   0  0  0  0  0  0  0  0  0  1  0  0
  -24.2192  -30.2096   24.9727 C   0  0  1  0  0  0  0  0  0  0  0  0
  -21.3687  -27.8290   25.7322 C   0  0  2  0  0  0  0  0  0  0  0  0
  -24.8279  -31.1030   26.0901 C   0  0  0  0  0  0  0  0  0  0  0  0
  -26.1868  -11.2857   20.7962 N   0  0  0  0  0  0  0  0  0  0  0  0
  -27.4604  -11.2834   21.2252 N   0  0  0  0  0  0  0  0  0  0  0  0
  -24.6513  -30.5184   22.5557 N   0  0  0  0  0  0  0  0  0  0  0  0
  -28.7314  -14.5050   19.6129 N   0  0  0  0  0  0  0  0  0  0  0  0
  -29.8001  -16.6451   19.6191 N   0  0  0  0  0  0  0  0  0  0  0  0
  -28.9413  -10.2240   22.7402 N   0  0  0  0  0  0  0  0  0  0  0  0
  -25.0186   -8.1065   23.4647 N   0  0  0  0  0  0  0  0  0  0  0  0
  -28.8460  -20.6113   18.6075 N   0  0  0  0  0  0  0  0  0  0  0  0
  -25.5988  -33.5416   21.4016 N   0  0  0  0  0  0  0  0  0  0  0  0
  -22.9474  -29.5901   25.3294 N   0  0  0  0  0  0  0  0  0  0  0  0
  -20.9378  -26.6031   25.0024 N   0  3  0  0  0  0  0  0  0  0  0  0
  -27.2162   -8.2269   24.1086 O   0  0  0  0  0  0  0  0  0  0  0  0
  -26.9529  -31.6500   21.2979 O   0  0  0  0  0  0  0  0  0  0  0  0
  -23.2008  -31.9366   23.7051 O   0  0  0  0  0  0  0  0  0  0  0  0
  -23.6368  -27.3978   25.0202 O   0  0  0  0  0  0  0  0  0  0  0  0
  -28.8776  -15.7629   21.5388 O   0  0  0  0  0  0  0  0  0  0  0  0
  -30.9365  -25.7042   19.2585 O   0  0  0  0  0  0  0  0  0  0  0  0
  -20.1972   -9.1248   20.8661 O   0  0  0  0  0  0  0  0  0  0  0  0
  -27.9479  -26.0003   19.9321 O   0  0  0  0  0  0  0  0  0  1  0  0
  -18.7741   -3.8056   20.5755 F   0  0  0  0  0  0  0  0  0  0  0  0
  -18.9320   -8.1155   18.6249 F   0  0  0  0  0  0  0  0  0  0  0  0
  1  2  1  0  0  0  0
  1  5  2  0  0  0  0
  2  6  2  0  0  0  0
  3  8  2  0  0  0  0
  3 17  1  0  0  0  0
  4  9  1  0  0  0  0
  4 17  2  0  0  0  0
  5 19  1  0  0  0  0
  6 21  1  0  0  0  0
  7 10  2  0  0  0  0
  7 20  1  0  0  0  0
  8 27  1  0  0  0  0
  9 27  2  0  0  0  0
 10 28  1  0  0  0  0
 11 12  2  0  0  0  0
 11 29  1  0  0  0  0
 12 30  1  0  0  0  0
 13 22  2  0  0  0  0
 13 25  1  0  0  0  0
 14 23  1  0  0  0  0
 14 28  2  0  0  0  0
 15 24  1  0  0  0  0
 15 25  2  0  0  0  0
 16 30  2  0  0  0  0
 16 31  1  0  0  0  0
 17 32  1  0  0  0  0
 18 32  1  0  0  0  0
 18 33  2  0  0  0  0
 18 34  1  0  0  0  0
 19 21  2  0  0  0  0
 19 39  1  0  0  0  0
 20 23  2  0  0  0  0
 20 40  1  0  0  0  0
 21 55  1  0  0  0  0
 22 26  1  0  0  0  0
 22 54  1  0  0  0  0
 23 41  1  0  0  0  0
 24 26  2  0  0  0  0
 24 65  1  0  0  0  0
 25 76  1  0  0  0  0
 26 85  1  0  0  0  0
 27 86  1  0  0  0  0
 28 87  1  0  0  0  0
 29 31  2  0  0  0  0
 29 86  1  0  0  0  0
 30 88  1  0  0  0  0
 31 89  1  0  0  0  0
 32 69  2  0  0  0  0
 33 70  1  0  0  0  0
 33 74  1  0  0  0  0
 34 75  1  0  0  0  0
 34 80  2  0  0  0  0
 35 56  1  0  0  0  0
 35 77  1  0  0  0  0
 35 81  2  0  0  0  0
 36 66  1  0  0  0  0
 36 71  1  0  0  0  0
 36 82  2  0  0  0  0
 37 67  1  0  0  0  0
 37 78  1  0  0  0  0
 37 83  2  0  0  0  0
 38 72  1  0  0  0  0
 38 73  1  0  0  0  0
 38 84  2  0  0  0  0
 39 42  1  0  0  0  0
 40 56  1  0  0  0  0
 41 71  1  0  0  0  0
 42 44  1  0  0  0  0
 43 45  1  0  0  0  0
 43 49  1  0  0  0  0
 44 55  1  0  0  0  0
 45 57  1  0  0  0  0
 46 50  1  0  0  0  0
 46 58  1  0  0  0  0
 47 51  1  0  0  0  0
 47 58  1  0  0  0  0
 48 53  1  0  0  0  0
 48 54  1  0  0  0  0
 49 72  1  0  0  0  0
 50 73  1  0  0  0  0
 51 73  1  0  0  0  0
 52 57  1  0  0  0  0
 52 72  1  0  0  0  0
 53 85  1  0  0  0  0
 54 59  1  0  0  0  0
 55 77  1  0  0  0  0
 56 71  1  0  0  0  0
 57 70  1  0  0  0  0
 58 76  1  0  0  0  0
 60 67  1  0  0  0  0
 61 68  1  0  0  0  0
 62 68  1  0  0  0  0
 63 68  1  0  0  0  0
 64 79  1  0  0  0  0
 65 87  1  0  0  0  0
 66 68  1  0  0  0  0
 66 78  1  0  0  0  0
 67 79  1  0  0  0  0
 69 70  1  0  0  0  0
M  CHG  1  79   1
M  ISO  4  38 100  65 101  73 100  87 101
M  END
> <Batch ID>
0168

> <Smiles>
CNC(C)C(=O)NC(C(=O)N1Cc2cc([101O:1][101CH2:1]c3cc(NC4CC[100N:0]([100C:0](=O)N5CCCC(n6nc(-c7ccc(Oc8ccc(F)cc8F)cc7)c(C(N)=O)c6N)C5)CC4)cc4c3OCCC4C)ccc2CC1C(=O)NC1CCCc2ccccc21)C(C)(C)C

> <Shape>
0.281

> <Color>
0.123

> <Negative vol penalty>
0.000

$$$$

  -OEChem-04052322303D

 86 96  0     1  0  0  0  0  0999 V2000
  -22.5055  -25.1017   18.8527 C   0  0  0  0  0  0  0  0  0  0  0  0
  -23.1893  -24.6252   19.9667 C   0  0  0  0  0  0  0  0  0  0  0  0
  -23.1221   -9.7372   20.0630 C   0  0  0  0  0  0  0  0  0  0  0  0
  -23.8683   -9.9284   22.3529 C   0  0  0  0  0  0  0  0  0  0  0  0
  -23.1555  -25.1901   17.6224 C   0  0  0  0  0  0  0  0  0  0  0  0
  -24.5232  -24.2357   19.8507 C   0  0  0  0  0  0  0  0  0  0  0  0
  -27.3923  -25.9778   23.6425 C   0  0  0  0  0  0  0  0  0  0  0  0
  -22.4144   -8.5806   20.3901 C   0  0  0  0  0  0  0  0  0  0  0  0
  -23.1605   -8.7718   22.6800 C   0  0  0  0  0  0  0  0  0  0  0  0
  -27.3104  -25.3081   24.8626 C   0  0  0  0  0  0  0  0  0  0  0  0
  -19.9565   -7.9129   23.3256 C   0  0  0  0  0  0  0  0  0  0  0  0
  -19.1945   -7.9299   24.4938 C   0  0  0  0  0  0  0  0  0  0  0  0
  -29.3537  -24.1335   24.3482 C   0  0  0  0  0  0  0  0  0  0  0  0
  -20.4936   -6.0898   25.3677 C   0  0  0  0  0  0  0  0  0  0  0  0
  -23.8491  -10.4111   21.0444 C   0  0  0  0  0  0  0  0  0  0  0  0
  -24.1099  -12.9316   20.7499 C   0  0  0  0  0  0  0  0  0  0  0  0
  -24.5009  -24.8106   17.4935 C   0  0  0  0  0  0  0  0  0  0  0  0
  -28.4515  -25.7220   22.7599 C   0  0  0  0  0  0  0  0  0  0  0  0
  -25.1914  -24.3179   18.6172 C   0  0  0  0  0  0  0  0  0  0  0  0
  -29.4481  -24.8032   23.1187 C   0  0  0  0  0  0  0  0  0  0  0  0
  -29.4763  -17.9535   24.0788 C   0  0  0  0  0  0  0  0  0  0  0  0
  -28.3139  -17.7787   24.8216 C   0  0  0  0  0  0  0  0  0  0  0  0
  -27.7575  -18.8596   25.4964 C   0  0  0  0  0  0  0  0  0  0  0  0
  -22.4336   -8.0979   21.6986 C   0  0  0  0  0  0  0  0  0  0  0  0
  -28.2896  -24.3836   25.2143 C   0  0  0  0  0  0  0  0  0  0  0  0
  -20.9869   -6.9844   23.1784 C   0  0  0  0  0  0  0  0  0  0  0  0
  -19.4631   -7.0183   25.5149 C   0  0  0  0  0  0  0  0  0  0  0  0
  -21.2555   -6.0729   24.1994 C   0  0  0  0  0  0  0  0  0  0  0  0
  -24.5807  -11.6056   20.7069 C   0  0  0  0  0  0  0  0  0  0  0  0
  -28.3969  -20.0848   25.3973 C   0  0  0  0  0  0  0  0  0  0  0  0
  -30.0386  -19.2194   24.0431 C   0  0  0  0  0  0  0  0  0  0  0  0
  -25.1793  -13.6892   20.3390 C   0  0  0  0  0  0  0  0  0  0  0  0
  -22.8210  -13.4336   21.1275 C   0  0  0  0  0  0  0  0  0  0  0  0
  -28.6811  -24.5763   19.8038 C   0  0  0  0  0  0  0  0  0  0  0  0
  -31.8089  -25.3583   20.1611 C   0  0  0  0  0  0  0  0  0  0  0  0
  -34.4258  -25.9446   22.2717 C   0  0  0  0  0  0  0  0  0  0  0  0
  -30.7096  -14.7730   20.6547 C   0  0  0  0  0  0  0  0  0  0  0  0
  -25.1473  -24.8795   16.1326 C   0  0  0  0  0  0  0  0  0  0  0  0
  -28.5398  -26.4724   21.4593 C   0  0  0  0  0  0  0  0  0  0  0  0
  -30.6165  -24.5076   22.2154 C   0  0  0  0  0  0  0  0  0  0  0  0
  -26.6711  -24.7993   16.1773 C   0  0  0  0  0  0  0  0  0  0  0  0
  -29.5627  -12.3662   18.2413 C   0  0  0  0  0  0  0  0  0  0  0  0
  -27.1194  -23.6690   17.0982 C   0  0  0  0  0  0  0  0  0  0  0  0
  -28.1496  -12.0185   18.6974 C   0  0  0  0  0  0  0  0  0  0  0  0
  -28.1941  -21.4996   27.5498 C   0  0  0  0  0  0  0  0  0  0  0  0
  -30.4673  -12.6419   19.4349 C   0  0  0  0  0  0  0  0  0  0  0  0
  -29.2209  -15.7110   22.5948 C   0  0  0  0  0  0  0  0  0  0  0  0
  -30.7575  -16.9981   21.9052 C   0  0  0  0  0  0  0  0  0  0  0  0
  -28.5375  -13.4349   20.7770 C   0  0  0  0  0  0  0  0  0  0  0  0
  -30.1366  -16.7423   23.2978 C   0  0  0  0  0  0  0  0  0  0  0  0
  -26.6462  -23.9091   18.5370 C   0  0  1  0  0  0  0  0  0  0  0  0
  -27.8360  -21.2757   26.1055 C   0  0  1  0  0  0  0  0  0  0  0  0
  -29.3863  -25.7554   20.4121 C   0  0  1  0  0  0  0  0  0  0  0  0
  -27.5894  -13.1259   19.6014 C   0  0  2  0  0  0  0  0  0  0  0  0
  -28.7665  -22.3956   26.4944 C   0  0  1  0  0  0  0  0  0  1  0  0
  -27.6679  -16.4324   24.8921 C   0  0  0  0  0  0  0  0  0  0  0  0
  -26.5107  -18.7003   26.3009 C   0  0  0  0  0  0  0  0  0  0  0  0
  -31.2870  -19.4651   23.2611 C   0  0  0  0  0  0  0  0  0  0  0  0
  -36.8672  -26.5250   22.2686 C   0  0  0  0  0  0  0  0  0  0  0  0
  -32.4870  -22.4909   19.3685 C   0  0  0  0  0  0  0  0  0  0  0  0
  -34.7871  -22.8545   20.2882 C   0  0  0  0  0  0  0  0  0  0  0  0
  -33.9809  -24.2303   18.3699 C   0  0  0  0  0  0  0  0  0  0  0  0
  -33.9478  -28.4631   23.7508 C   0  0  0  0  0  0  0  0  0  0  0  0
  -33.0364  -24.6473   20.6777 C   0  0  1  0  0  0  0  0  0  0  0  0
  -35.4472  -27.0666   22.3224 C   0  0  2  0  0  0  0  0  0  0  0  0
  -33.5499  -23.5597   19.6925 C   0  0  0  0  0  0  0  0  0  0  0  0
  -25.8504  -11.5222   20.3007 N   0  0  0  0  0  0  0  0  0  0  0  0
  -29.5272  -20.2933   24.6855 N   0  0  0  0  0  0  0  0  0  0  0  0
  -26.1864  -12.8054   20.0845 N   0  0  0  0  0  0  0  0  0  0  0  0
  -30.6550  -25.2622   20.9518 N   0  0  0  0  0  0  0  0  0  0  0  0
  -29.9142  -13.6713   20.3204 N   0  0  0  0  0  0  0  0  0  0  0  0
  -30.1906  -15.7137   21.5127 N   0  0  0  0  0  0  0  0  0  0  0  0
  -25.3470  -15.0185   20.1742 N   0  0  0  0  0  0  0  0  0  0  0  0
  -21.8371  -12.5176   21.5238 N   0  0  0  0  0  0  0  0  0  0  0  0
  -27.4854  -24.8924   19.1876 N   0  0  0  0  0  0  0  0  0  0  0  0
  -34.0131  -25.6876   20.9814 N   0  0  0  0  0  0  0  0  0  0  0  0
  -35.2913  -27.8526   23.5789 N   0  3  0  0  0  0  0  0  0  0  0  0
  -22.5449  -14.6569   21.0982 O   0  0  0  0  0  0  0  0  0  0  0  0
  -29.1852  -23.4624   19.8861 O   0  0  0  0  0  0  0  0  0  0  0  0
  -31.8735  -25.9820   19.0989 O   0  0  0  0  0  0  0  0  0  0  0  0
  -34.0361  -25.3528   23.2759 O   0  0  0  0  0  0  0  0  0  0  0  0
  -31.8634  -14.9003   20.2239 O   0  0  0  0  0  0  0  0  0  0  0  0
  -21.7430   -6.9694   22.0183 O   0  0  0  0  0  0  0  0  0  0  0  0
  -28.2105  -23.7186   26.4215 O   0  0  0  0  0  0  0  0  0  1  0  0
  -18.7324   -7.0357   26.6373 F   0  0  0  0  0  0  0  0  0  0  0  0
  -22.2450   -5.1793   24.0642 F   0  0  0  0  0  0  0  0  0  0  0  0
  1  2  1  0  0  0  0
  1  5  2  0  0  0  0
  2  6  2  0  0  0  0
  3  8  2  0  0  0  0
  3 15  1  0  0  0  0
  4  9  1  0  0  0  0
  4 15  2  0  0  0  0
  5 17  1  0  0  0  0
  6 19  1  0  0  0  0
  7 10  2  0  0  0  0
  7 18  1  0  0  0  0
  8 24  1  0  0  0  0
  9 24  2  0  0  0  0
 10 25  1  0  0  0  0
 11 12  2  0  0  0  0
 11 26  1  0  0  0  0
 12 27  1  0  0  0  0
 13 20  1  0  0  0  0
 13 25  2  0  0  0  0
 14 27  2  0  0  0  0
 14 28  1  0  0  0  0
 15 29  1  0  0  0  0
 16 29  1  0  0  0  0
 16 32  2  0  0  0  0
 16 33  1  0  0  0  0
 17 19  2  0  0  0  0
 17 38  1  0  0  0  0
 18 20  2  0  0  0  0
 18 39  1  0  0  0  0
 19 51  1  0  0  0  0
 20 40  1  0  0  0  0
 21 22  2  0  0  0  0
 21 31  1  0  0  0  0
 21 50  1  0  0  0  0
 22 23  1  0  0  0  0
 22 56  1  0  0  0  0
 23 30  2  0  0  0  0
 23 57  1  0  0  0  0
 24 83  1  0  0  0  0
 25 84  1  0  0  0  0
 26 28  2  0  0  0  0
 26 83  1  0  0  0  0
 27 85  1  0  0  0  0
 28 86  1  0  0  0  0
 29 67  2  0  0  0  0
 30 52  1  0  0  0  0
 30 68  1  0  0  0  0
 31 58  1  0  0  0  0
 31 68  2  0  0  0  0
 32 69  1  0  0  0  0
 32 73  1  0  0  0  0
 33 74  1  0  0  0  0
 33 78  2  0  0  0  0
 34 53  1  0  0  0  0
 34 75  1  0  0  0  0
 34 79  2  0  0  0  0
 35 64  1  0  0  0  0
 35 70  1  0  0  0  0
 35 80  2  0  0  0  0
 36 65  1  0  0  0  0
 36 76  1  0  0  0  0
 36 81  2  0  0  0  0
 37 71  1  0  0  0  0
 37 72  1  0  0  0  0
 37 82  2  0  0  0  0
 38 41  1  0  0  0  0
 39 53  1  0  0  0  0
 40 70  1  0  0  0  0
 41 43  1  0  0  0  0
 42 44  1  0  0  0  0
 42 46  1  0  0  0  0
 43 51  1  0  0  0  0
 44 54  1  0  0  0  0
 45 52  1  0  0  0  0
 45 55  1  0  0  0  0
 46 71  1  0  0  0  0
 47 50  1  0  0  0  0
 47 72  1  0  0  0  0
 48 50  1  0  0  0  0
 48 72  1  0  0  0  0
 49 54  1  0  0  0  0
 49 71  1  0  0  0  0
 51 75  1  0  0  0  0
 52 55  1  0  0  0  0
 53 70  1  0  0  0  0
 54 69  1  0  0  0  0
 55 84  1  0  0  0  0
 59 65  1  0  0  0  0
 60 66  1  0  0  0  0
 61 66  1  0  0  0  0
 62 66  1  0  0  0  0
 63 77  1  0  0  0  0
 64 66  1  0  0  0  0
 64 76  1  0  0  0  0
 65 77  1  0  0  0  0
 67 69  1  0  0  0  0
M  CHG  1  77   1
M  ISO  4  37 100  55 101  72 100  84 101
M  END
> <Batch ID>
0168

> <Smiles>
CNC(C)C(=O)NC(C(=O)N1Cc2cc([101O:1][101CH:1]3CC3c3nc(C)c(C4C[100N:0]([100C:0](=O)N5CCCC(n6nc(-c7ccc(Oc8ccc(F)cc8F)cc7)c(C(N)=O)c6N)C5)C4)c(C)c3C)ccc2CC1C(=O)NC1CCCc2ccccc21)C(C)(C)C

> <Shape>
0.203

> <Color>
0.200

> <Negative vol penalty>
0.000

$$$$

  -OEChem-04052322303D

 86 95  0     1  0  0  0  0  0999 V2000
  -28.7596  -24.8729   16.5515 C   0  0  0  0  0  0  0  0  0  0  0  0
  -27.6122  -24.8898   17.3380 C   0  0  0  0  0  0  0  0  0  0  0  0
  -24.8364  -13.2597   19.2030 C   0  0  0  0  0  0  0  0  0  0  0  0
  -24.5784  -13.8027   21.5430 C   0  0  0  0  0  0  0  0  0  0  0  0
  -29.8936  -25.5739   16.9596 C   0  0  0  0  0  0  0  0  0  0  0  0
  -27.5985  -25.6070   18.5338 C   0  0  0  0  0  0  0  0  0  0  0  0
  -23.3703  -28.3324   19.1162 C   0  0  0  0  0  0  0  0  0  0  0  0
  -25.6236  -12.1602   19.5449 C   0  0  0  0  0  0  0  0  0  0  0  0
  -25.3656  -12.7031   21.8849 C   0  0  0  0  0  0  0  0  0  0  0  0
  -22.2236  -27.6502   19.5206 C   0  0  0  0  0  0  0  0  0  0  0  0
  -28.8160  -11.5811   20.4923 C   0  0  0  0  0  0  0  0  0  0  0  0
  -29.9903  -11.3755   19.7682 C   0  0  0  0  0  0  0  0  0  0  0  0
  -20.1411  -23.3980   23.4499 C   0  0  0  0  0  0  0  0  0  0  0  0
  -22.5804  -28.4045   21.7840 C   0  0  0  0  0  0  0  0  0  0  0  0
  -29.1760   -9.2134   19.0616 C   0  0  0  0  0  0  0  0  0  0  0  0
  -18.0314  -22.4815   24.0545 C   0  0  0  0  0  0  0  0  0  0  0  0
  -19.8539  -21.0877   23.9360 C   0  0  0  0  0  0  0  0  0  0  0  0
  -24.3138  -14.0810   20.2020 C   0  0  0  0  0  0  0  0  0  0  0  0
  -22.1028  -15.2453   19.6890 C   0  0  0  0  0  0  0  0  0  0  0  0
  -29.8906  -26.3079   18.1562 C   0  0  0  0  0  0  0  0  0  0  0  0
  -24.1379  -29.0481   20.0463 C   0  0  0  0  0  0  0  0  0  0  0  0
  -28.7339  -26.3174   18.9590 C   0  0  0  0  0  0  0  0  0  0  0  0
  -18.7855  -23.5868   23.6948 C   0  0  0  0  0  0  0  0  0  0  0  0
  -23.7349  -29.0971   21.3884 C   0  0  0  0  0  0  0  0  0  0  0  0
  -20.6934  -22.1277   23.5705 C   0  0  0  0  0  0  0  0  0  0  0  0
  -25.8882  -11.8818   20.8858 C   0  0  0  0  0  0  0  0  0  0  0  0
  -21.8301  -27.6838   20.8552 C   0  0  0  0  0  0  0  0  0  0  0  0
  -27.8217  -10.6029   20.5011 C   0  0  0  0  0  0  0  0  0  0  0  0
  -30.1703  -10.1917   19.0528 C   0  0  0  0  0  0  0  0  0  0  0  0
  -28.0017   -9.4190   19.7857 C   0  0  0  0  0  0  0  0  0  0  0  0
  -23.5011  -15.2173   19.8495 C   0  0  0  0  0  0  0  0  0  0  0  0
  -21.8213  -16.5479   19.3566 C   0  0  0  0  0  0  0  0  0  0  0  0
  -21.1440  -14.1884   19.8281 C   0  0  0  0  0  0  0  0  0  0  0  0
  -27.1250  -28.8504   21.1150 C   0  0  0  0  0  0  0  0  0  0  0  0
  -26.3398  -31.5914   22.6618 C   0  0  0  0  0  0  0  0  0  0  0  0
  -23.8946  -33.5866   23.9607 C   0  0  0  0  0  0  0  0  0  0  0  0
  -24.6575  -21.7210   20.3792 C   0  0  0  0  0  0  0  0  0  0  0  0
  -31.1558  -27.0114   18.5795 C   0  0  0  0  0  0  0  0  0  0  0  0
  -25.3573  -29.8007   19.5891 C   0  0  0  0  0  0  0  0  0  0  0  0
  -24.5131  -29.8677   22.4224 C   0  0  0  0  0  0  0  0  0  0  0  0
  -30.9367  -28.0527   19.6740 C   0  0  0  0  0  0  0  0  0  0  0  0
  -23.7503  -20.3662   17.2140 C   0  0  0  0  0  0  0  0  0  0  0  0
  -30.0585  -27.4839   20.7840 C   0  0  0  0  0  0  0  0  0  0  0  0
  -23.4574  -18.8955   17.5161 C   0  0  0  0  0  0  0  0  0  0  0  0
  -16.9638  -25.1110   22.6734 C   0  0  0  0  0  0  0  0  0  0  0  0
  -24.9083  -20.8957   18.0570 C   0  0  0  0  0  0  0  0  0  0  0  0
  -24.4663  -19.2233   19.8125 C   0  0  0  0  0  0  0  0  0  0  0  0
  -18.1661  -24.9286   23.5744 C   0  0  2  0  0  0  0  0  0  0  0  0
  -28.6720  -27.1039   20.2504 C   0  0  1  0  0  0  0  0  0  0  0  0
  -26.3486  -30.0734   20.7163 C   0  0  1  0  0  0  0  0  0  0  0  0
  -18.2888  -25.6845   22.2677 C   0  0  2  0  0  0  0  0  0  0  0  0
  -23.2697  -18.6599   19.0269 C   0  0  2  0  0  0  0  0  0  0  0  0
  -23.5633  -35.7450   25.1971 C   0  0  0  0  0  0  0  0  0  0  0  0
  -17.8565  -27.8321   21.0680 C   0  0  0  0  0  0  0  0  0  0  0  0
  -27.2639  -30.2520   25.2429 C   0  0  0  0  0  0  0  0  0  0  0  0
  -26.0524  -32.0331   26.5189 C   0  0  0  0  0  0  0  0  0  0  0  0
  -27.9416  -32.6481   25.0104 C   0  0  0  0  0  0  0  0  0  0  0  0
  -22.2939  -34.7391   21.7543 C   0  0  0  0  0  0  0  0  0  0  0  0
  -22.9662  -22.9498   22.9508 C   0  0  0  0  0  0  0  0  0  0  0  0
  -24.3683  -22.3953   22.7500 C   0  0  0  0  0  0  0  0  0  0  0  0
  -19.9922  -27.5603   22.3594 C   0  0  0  0  0  0  0  0  0  1  0  0
  -25.7371  -31.9260   24.0049 C   0  0  1  0  0  0  0  0  0  0  0  0
  -23.6371  -35.0771   23.8329 C   0  0  2  0  0  0  0  0  0  0  0  0
  -18.5046  -27.1987   22.2735 C   0  0  2  0  0  0  0  0  0  0  0  0
  -26.7350  -31.6986   25.1754 C   0  0  0  0  0  0  0  0  0  0  0  0
  -18.5324  -21.2324   24.1819 N   0  0  0  0  0  0  0  0  0  0  0  0
  -24.0684  -16.4076   19.6363 N   0  0  0  0  0  0  0  0  0  0  0  0
  -23.0214  -17.1957   19.3385 N   0  0  0  0  0  0  0  0  0  0  0  0
  -25.7014  -30.5820   21.9273 N   0  0  0  0  0  0  0  0  0  0  0  0
  -24.6675  -20.6423   19.4796 N   0  0  0  0  0  0  0  0  0  0  0  0
  -20.6668  -17.1909   19.0808 N   0  0  0  0  0  0  0  0  0  0  0  0
  -21.6038  -12.9105   20.1745 N   0  0  0  0  0  0  0  0  0  0  0  0
  -22.0591  -21.9066   23.3300 N   0  0  0  0  0  0  0  0  0  0  0  0
  -27.8528  -28.2855   20.0851 N   0  0  0  0  0  0  0  0  0  0  0  0
  -25.2407  -33.2938   23.9002 N   0  0  0  0  0  0  0  0  0  0  0  0
  -24.4156  -21.3941   21.7078 N   0  0  0  0  0  0  0  0  0  0  0  0
  -22.3514  -35.3213   23.1199 N   0  3  0  0  0  0  0  0  0  0  0  0
  -19.9177  -14.3679   19.6343 O   0  0  0  0  0  0  0  0  0  0  0  0
  -27.0691  -28.4498   22.2717 O   0  0  0  0  0  0  0  0  0  0  0  0
  -27.3358  -32.2079   22.2754 O   0  0  0  0  0  0  0  0  0  0  0  0
  -22.9922  -32.7646   24.1041 O   0  0  0  0  0  0  0  0  0  0  0  0
  -24.8447  -22.8896   20.0237 O   0  0  0  0  0  0  0  0  0  0  0  0
  -26.6561  -10.8088   21.2198 O   0  0  0  0  0  0  0  0  0  0  0  0
  -20.7117  -27.0182   21.2527 O   0  0  0  0  0  0  0  0  0  1  0  0
  -31.2974   -9.9950   18.3563 F   0  0  0  0  0  0  0  0  0  0  0  0
  -27.0495   -8.4761   19.7894 F   0  0  0  0  0  0  0  0  0  0  0  0
  1  2  1  0  0  0  0
  1  5  2  0  0  0  0
  2  6  2  0  0  0  0
  3  8  2  0  0  0  0
  3 18  1  0  0  0  0
  4  9  1  0  0  0  0
  4 18  2  0  0  0  0
  5 20  1  0  0  0  0
  6 22  1  0  0  0  0
  7 10  2  0  0  0  0
  7 21  1  0  0  0  0
  8 26  1  0  0  0  0
  9 26  2  0  0  0  0
 10 27  1  0  0  0  0
 11 12  2  0  0  0  0
 11 28  1  0  0  0  0
 12 29  1  0  0  0  0
 13 23  2  0  0  0  0
 13 25  1  0  0  0  0
 14 24  1  0  0  0  0
 14 27  2  0  0  0  0
 15 29  2  0  0  0  0
 15 30  1  0  0  0  0
 16 23  1  0  0  0  0
 16 66  2  0  0  0  0
 17 25  2  0  0  0  0
 17 66  1  0  0  0  0
 18 31  1  0  0  0  0
 19 31  1  0  0  0  0
 19 32  2  0  0  0  0
 19 33  1  0  0  0  0
 20 22  2  0  0  0  0
 20 38  1  0  0  0  0
 21 24  2  0  0  0  0
 21 39  1  0  0  0  0
 22 49  1  0  0  0  0
 23 48  1  0  0  0  0
 24 40  1  0  0  0  0
 25 73  1  0  0  0  0
 26 83  1  0  0  0  0
 27 84  1  0  0  0  0
 28 30  2  0  0  0  0
 28 83  1  0  0  0  0
 29 85  1  0  0  0  0
 30 86  1  0  0  0  0
 31 67  2  0  0  0  0
 32 68  1  0  0  0  0
 32 71  1  0  0  0  0
 33 72  1  0  0  0  0
 33 78  2  0  0  0  0
 34 50  1  0  0  0  0
 34 74  1  0  0  0  0
 34 79  2  0  0  0  0
 35 62  1  0  0  0  0
 35 69  1  0  0  0  0
 35 80  2  0  0  0  0
 36 63  1  0  0  0  0
 36 75  1  0  0  0  0
 36 81  2  0  0  0  0
 37 70  1  0  0  0  0
 37 76  1  0  0  0  0
 37 82  2  0  0  0  0
 38 41  1  0  0  0  0
 39 50  1  0  0  0  0
 40 69  1  0  0  0  0
 41 43  1  0  0  0  0
 42 44  1  0  0  0  0
 42 46  1  0  0  0  0
 43 49  1  0  0  0  0
 44 52  1  0  0  0  0
 45 48  1  0  0  0  0
 45 51  1  0  0  0  0
 46 70  1  0  0  0  0
 47 52  1  0  0  0  0
 47 70  1  0  0  0  0
 48 51  1  0  0  0  0
 49 74  1  0  0  0  0
 50 69  1  0  0  0  0
 51 64  1  0  0  0  0
 52 68  1  0  0  0  0
 53 63  1  0  0  0  0
 54 64  1  0  0  0  0
 55 65  1  0  0  0  0
 56 65  1  0  0  0  0
 57 65  1  0  0  0  0
 58 77  1  0  0  0  0
 59 60  1  0  0  0  0
 59 73  1  0  0  0  0
 60 76  1  0  0  0  0
 61 64  1  0  0  0  0
 61 84  1  0  0  0  0
 62 65  1  0  0  0  0
 62 75  1  0  0  0  0
 63 77  1  0  0  0  0
 67 68  1  0  0  0  0
M  CHG  1  77   1
M  ISO  4  37 100  61 101  76 100  84 101
M  END
> <Batch ID>
0168

> <Smiles>
CNC(C)C(=O)NC(C(=O)N1Cc2cc([101O:1][101CH2:1]C(C)C3CC3c3cncc(NCC[100NH:0][100C:0](=O)N4CCCC(n5nc(-c6ccc(Oc7ccc(F)cc7F)cc6)c(C(N)=O)c5N)C4)c3)ccc2CC1C(=O)NC1CCCc2ccccc21)C(C)(C)C

> <Shape>
0.239

> <Color>
0.071

> <Negative vol penalty>
0.000

$$$$

  -OEChem-04052322303D

 88 97  0     1  0  0  0  0  0999 V2000
  -22.1819  -37.0057   17.4859 C   0  0  0  0  0  0  0  0  0  0  0  0
  -22.4739  -35.7305   17.0126 C   0  0  0  0  0  0  0  0  0  0  0  0
  -22.5354  -15.4876   19.7563 C   0  0  0  0  0  0  0  0  0  0  0  0
  -22.8488  -13.3535   18.6681 C   0  0  0  0  0  0  0  0  0  0  0  0
  -22.8403  -37.4976   18.6122 C   0  0  0  0  0  0  0  0  0  0  0  0
  -23.4252  -34.9469   17.6647 C   0  0  0  0  0  0  0  0  0  0  0  0
  -24.9180  -28.1138   19.2129 C   0  0  0  0  0  0  0  0  0  0  0  0
  -21.4036  -15.7199   18.9749 C   0  0  0  0  0  0  0  0  0  0  0  0
  -21.7170  -13.5857   17.8866 C   0  0  0  0  0  0  0  0  0  0  0  0
  -25.9547  -27.1875   19.1085 C   0  0  0  0  0  0  0  0  0  0  0  0
  -18.2242  -16.7151   17.5201 C   0  0  0  0  0  0  0  0  0  0  0  0
  -17.0876  -17.2132   18.1569 C   0  0  0  0  0  0  0  0  0  0  0  0
  -26.9715  -28.1108   21.0916 C   0  0  0  0  0  0  0  0  0  0  0  0
  -17.0244  -15.2575   19.5740 C   0  0  0  0  0  0  0  0  0  0  0  0
  -23.2581  -14.3044   19.6029 C   0  0  0  0  0  0  0  0  0  0  0  0
  -24.4786  -13.4308   21.6656 C   0  0  0  0  0  0  0  0  0  0  0  0
  -23.7932  -36.7159   19.2842 C   0  0  0  0  0  0  0  0  0  0  0  0
  -24.9060  -29.0542   20.2531 C   0  0  0  0  0  0  0  0  0  0  0  0
  -24.0979  -35.4293   18.8003 C   0  0  0  0  0  0  0  0  0  0  0  0
  -25.9322  -29.0463   21.2085 C   0  0  0  0  0  0  0  0  0  0  0  0
  -30.3862  -24.8851   18.5704 C   0  0  0  0  0  0  0  0  0  0  0  0
  -31.4773  -24.0189   18.6395 C   0  0  0  0  0  0  0  0  0  0  0  0
  -29.1157  -24.4367   18.9316 C   0  0  0  0  0  0  0  0  0  0  0  0
  -31.2979  -22.7042   19.0697 C   0  0  0  0  0  0  0  0  0  0  0  0
  -28.9363  -23.1220   19.3618 C   0  0  0  0  0  0  0  0  0  0  0  0
  -30.0274  -22.2558   19.4309 C   0  0  0  0  0  0  0  0  0  0  0  0
  -20.9944  -14.7690   18.0401 C   0  0  0  0  0  0  0  0  0  0  0  0
  -26.9832  -27.1877   20.0462 C   0  0  0  0  0  0  0  0  0  0  0  0
  -18.7609  -15.4880   17.9102 C   0  0  0  0  0  0  0  0  0  0  0  0
  -16.4877  -16.4845   19.1839 C   0  0  0  0  0  0  0  0  0  0  0  0
  -18.1610  -14.7593   18.9372 C   0  0  0  0  0  0  0  0  0  0  0  0
  -24.4277  -14.0641   20.4094 C   0  0  0  0  0  0  0  0  0  0  0  0
  -25.8089  -13.4513   22.0068 C   0  0  0  0  0  0  0  0  0  0  0  0
  -23.4182  -12.8738   22.4536 C   0  0  0  0  0  0  0  0  0  0  0  0
  -25.0004  -32.2276   20.4090 C   0  0  0  0  0  0  0  0  0  0  0  0
  -24.5137  -31.6978   23.5720 C   0  0  0  0  0  0  0  0  0  0  0  0
  -24.7791  -29.5709   26.2278 C   0  0  0  0  0  0  0  0  0  0  0  0
  -30.3613  -16.8973   20.6144 C   0  0  0  0  0  0  0  0  0  0  0  0
  -24.5131  -37.3086   20.4695 C   0  0  0  0  0  0  0  0  0  0  0  0
  -23.7665  -30.0295   20.3671 C   0  0  0  0  0  0  0  0  0  0  0  0
  -25.9551  -30.0219   22.3557 C   0  0  0  0  0  0  0  0  0  0  0  0
  -25.2363  -36.2710   21.3242 C   0  0  0  0  0  0  0  0  0  0  0  0
  -30.1793  -13.4807   20.0791 C   0  0  0  0  0  0  0  0  0  0  0  0
  -26.0308  -35.3130   20.4423 C   0  0  0  0  0  0  0  0  0  0  0  0
  -28.6901  -13.1679   20.2217 C   0  0  0  0  0  0  0  0  0  0  0  0
  -30.3922  -14.7859   19.3213 C   0  0  0  0  0  0  0  0  0  0  0  0
  -29.5422  -19.8963   18.8819 C   0  0  0  0  0  0  0  0  0  0  0  0
  -28.9216  -18.6712   19.5481 C   0  0  0  0  0  0  0  0  0  0  0  0
  -28.2087  -15.6622   20.0855 C   0  0  0  0  0  0  0  0  0  0  0  0
  -29.7659  -20.6091   21.2840 C   0  0  0  0  0  0  0  0  0  0  0  0
  -25.1057  -34.5394   19.4950 C   0  0  1  0  0  0  0  0  0  0  0  0
  -24.1243  -31.2749   21.1722 C   0  0  1  0  0  0  0  0  0  0  0  0
  -27.9353  -14.3519   20.8515 C   0  0  1  0  0  0  0  0  0  0  0  0
  -30.2963  -19.1901   21.5638 C   0  0  1  0  0  0  0  0  0  0  0  0
  -30.5787  -26.2955   18.1090 C   0  0  0  0  0  0  0  0  0  0  0  0
  -32.8401  -24.5003   18.2519 C   0  0  0  0  0  0  0  0  0  0  0  0
  -32.4713  -21.7774   19.1425 C   0  0  0  0  0  0  0  0  0  0  0  0
  -27.5713  -22.6443   19.7487 C   0  0  0  0  0  0  0  0  0  0  0  0
  -29.9724  -18.8044   23.0113 C   0  0  0  0  0  0  0  0  0  0  0  0
  -24.3327  -29.4330   28.6934 C   0  0  0  0  0  0  0  0  0  0  0  0
  -26.9736  -33.4207   24.1113 C   0  0  0  0  0  0  0  0  0  0  0  0
  -27.0354  -32.4832   26.4319 C   0  0  0  0  0  0  0  0  0  0  0  0
  -25.0630  -33.8108   25.6772 C   0  0  0  0  0  0  0  0  0  0  0  0
  -22.8865  -27.3228   25.8771 C   0  0  0  0  0  0  0  0  0  0  0  0
  -27.9456  -25.3664   18.8577 C   0  0  0  0  0  0  0  0  0  1  0  0
  -25.4070  -31.4766   24.7688 C   0  0  1  0  0  0  0  0  0  0  0  0
  -23.7826  -29.1695   27.3003 C   0  0  2  0  0  0  0  0  0  0  0  0
  -26.1206  -32.7806   25.2247 C   0  0  0  0  0  0  0  0  0  0  0  0
  -25.6300  -14.4583   19.9815 N   0  0  0  0  0  0  0  0  0  0  0  0
  -26.4489  -14.0717   20.9745 N   0  0  0  0  0  0  0  0  0  0  0  0
  -29.8480  -20.9406   19.8612 N   0  0  3  0  0  0  0  0  0  0  0  0
  -24.8221  -30.9598   22.4205 N   0  0  0  0  0  0  0  0  0  0  0  0
  -29.6560  -15.8850   19.9459 N   0  0  0  0  0  0  0  0  0  0  0  0
  -29.7777  -18.1780   20.6295 N   0  0  0  0  0  0  0  0  0  0  0  0
  -26.4818  -12.9989   23.0861 N   0  0  0  0  0  0  0  0  0  0  0  0
  -22.1102  -12.9372   21.9541 N   0  0  0  0  0  0  0  0  0  0  0  0
  -24.4343  -33.4715   20.2045 N   0  0  0  0  0  0  0  0  0  0  0  0
  -24.5704  -30.8633   25.7947 N   0  0  0  0  0  0  0  0  0  0  0  0
  -23.4586  -27.7191   27.1896 N   0  3  0  0  0  0  0  0  0  0  0  0
  -23.6223  -12.3503   23.5752 O   0  0  0  0  0  0  0  0  0  0  0  0
  -26.1084  -31.8618   20.0347 O   0  0  0  0  0  0  0  0  0  0  0  0
  -23.5726  -32.4906   23.6581 O   0  0  0  0  0  0  0  0  0  0  0  0
  -25.6573  -28.8150   25.8180 O   0  0  0  0  0  0  0  0  0  0  0  0
  -31.4442  -16.6732   21.1696 O   0  0  0  0  0  0  0  0  0  0  0  0
  -19.8898  -14.9952   17.2776 O   0  0  0  0  0  0  0  0  0  0  0  0
  -28.0042  -26.2784   19.9455 O   0  0  0  0  0  0  0  0  0  1  0  0
  -15.3971  -16.9637   19.7963 F   0  0  0  0  0  0  0  0  0  0  0  0
  -18.6727  -13.5805   19.3171 F   0  0  0  0  0  0  0  0  0  0  0  0
  1  2  1  0  0  0  0
  1  5  2  0  0  0  0
  2  6  2  0  0  0  0
  3  8  2  0  0  0  0
  3 15  1  0  0  0  0
  4  9  1  0  0  0  0
  4 15  2  0  0  0  0
  5 17  1  0  0  0  0
  6 19  1  0  0  0  0
  7 10  2  0  0  0  0
  7 18  1  0  0  0  0
  8 27  1  0  0  0  0
  9 27  2  0  0  0  0
 10 28  1  0  0  0  0
 11 12  2  0  0  0  0
 11 29  1  0  0  0  0
 12 30  1  0  0  0  0
 13 20  1  0  0  0  0
 13 28  2  0  0  0  0
 14 30  2  0  0  0  0
 14 31  1  0  0  0  0
 15 32  1  0  0  0  0
 16 32  1  0  0  0  0
 16 33  2  0  0  0  0
 16 34  1  0  0  0  0
 17 19  2  0  0  0  0
 17 39  1  0  0  0  0
 18 20  2  0  0  0  0
 18 40  1  0  0  0  0
 19 51  1  0  0  0  0
 20 41  1  0  0  0  0
 21 22  2  0  0  0  0
 21 23  1  0  0  0  0
 21 55  1  0  0  0  0
 22 24  1  0  0  0  0
 22 56  1  0  0  0  0
 23 25  2  0  0  0  0
 23 65  1  0  0  0  0
 24 26  2  0  0  0  0
 24 57  1  0  0  0  0
 25 26  1  0  0  0  0
 25 58  1  0  0  0  0
 26 71  1  0  0  0  0
 27 85  1  0  0  0  0
 28 86  1  0  0  0  0
 29 31  2  0  0  0  0
 29 85  1  0  0  0  0
 30 87  1  0  0  0  0
 31 88  1  0  0  0  0
 32 69  2  0  0  0  0
 33 70  1  0  0  0  0
 33 75  1  0  0  0  0
 34 76  1  0  0  0  0
 34 80  2  0  0  0  0
 35 52  1  0  0  0  0
 35 77  1  0  0  0  0
 35 81  2  0  0  0  0
 36 66  1  0  0  0  0
 36 72  1  0  0  0  0
 36 82  2  0  0  0  0
 37 67  1  0  0  0  0
 37 78  1  0  0  0  0
 37 83  2  0  0  0  0
 38 73  1  0  0  0  0
 38 74  1  0  0  0  0
 38 84  2  0  0  0  0
 39 42  1  0  0  0  0
 40 52  1  0  0  0  0
 41 72  1  0  0  0  0
 42 44  1  0  0  0  0
 43 45  1  0  0  0  0
 43 46  1  0  0  0  0
 44 51  1  0  0  0  0
 45 53  1  0  0  0  0
 46 73  1  0  0  0  0
 47 48  1  0  0  0  0
 47 71  1  0  0  0  0
 48 74  1  0  0  0  0
 49 53  1  0  0  0  0
 49 73  1  0  0  0  0
 50 54  1  0  0  0  0
 50 71  1  0  0  0  0
 51 77  1  0  0  0  0
 52 72  1  0  0  0  0
 53 70  1  0  0  0  0
 54 59  1  0  0  0  0
 54 74  1  0  0  0  0
 60 67  1  0  0  0  0
 61 68  1  0  0  0  0
 62 68  1  0  0  0  0
 63 68  1  0  0  0  0
 64 79  1  0  0  0  0
 65 86  1  0  0  0  0
 66 68  1  0  0  0  0
 66 78  1  0  0  0  0
 67 79  1  0  0  0  0
 69 70  1  0  0  0  0
M  CHG  1  79   1
M  ISO  4  38 100  65 101  74 100  86 101
M  END
> <Batch ID>
0168

> <Smiles>
CNC(C)C(=O)NC(C(=O)N1Cc2cc([101O:1][101CH2:1]c3c(C)c(C)c(C)c(N4CC[100N:0]([100C:0](=O)N5CCCC(n6nc(-c7ccc(Oc8ccc(F)cc8F)cc7)c(C(N)=O)c6N)C5)C(C)C4)c3C)ccc2CC1C(=O)NC1CCCc2ccccc21)C(C)(C)C

> <Shape>
0.269

> <Color>
0.106

> <Negative vol penalty>
0.000

$$$$

  -OEChem-04052322303D

 86 95  0     1  0  0  0  0  0999 V2000
  -23.2787  -37.6230   18.6597 C   0  0  0  0  0  0  0  0  0  0  0  0
  -23.1471  -36.4249   17.9650 C   0  0  0  0  0  0  0  0  0  0  0  0
  -23.1082  -10.6857   21.2726 C   0  0  0  0  0  0  0  0  0  0  0  0
  -24.7317   -9.1442   22.1811 C   0  0  0  0  0  0  0  0  0  0  0  0
  -24.1363  -37.7012   19.7561 C   0  0  0  0  0  0  0  0  0  0  0  0
  -23.8740  -35.3044   18.3658 C   0  0  0  0  0  0  0  0  0  0  0  0
  -23.4131  -28.1616   18.6569 C   0  0  0  0  0  0  0  0  0  0  0  0
  -22.2283   -9.6269   21.0485 C   0  0  0  0  0  0  0  0  0  0  0  0
  -23.8518   -8.0854   21.9570 C   0  0  0  0  0  0  0  0  0  0  0  0
  -24.1218  -27.0205   18.2836 C   0  0  0  0  0  0  0  0  0  0  0  0
  -21.1123   -6.7700   23.4353 C   0  0  0  0  0  0  0  0  0  0  0  0
  -20.9520   -5.8350   24.4580 C   0  0  0  0  0  0  0  0  0  0  0  0
  -25.5130  -27.2515   20.2408 C   0  0  0  0  0  0  0  0  0  0  0  0
  -21.7315   -4.0877   22.9827 C   0  0  0  0  0  0  0  0  0  0  0  0
  -24.3600  -10.4444   21.8389 C   0  0  0  0  0  0  0  0  0  0  0  0
  -25.3710  -12.3281   23.2306 C   0  0  0  0  0  0  0  0  0  0  0  0
  -24.8668  -36.5785   20.1765 C   0  0  0  0  0  0  0  0  0  0  0  0
  -23.7567  -28.8637   19.8212 C   0  0  0  0  0  0  0  0  0  0  0  0
  -24.7432  -35.3680   19.4681 C   0  0  0  0  0  0  0  0  0  0  0  0
  -24.8055  -28.3997   20.6280 C   0  0  0  0  0  0  0  0  0  0  0  0
  -27.1305  -21.4620   17.9830 C   0  0  0  0  0  0  0  0  0  0  0  0
  -26.3260  -22.5677   18.2347 C   0  0  0  0  0  0  0  0  0  0  0  0
  -27.8827  -21.4080   16.8148 C   0  0  0  0  0  0  0  0  0  0  0  0
  -22.6001   -8.3267   21.3907 C   0  0  0  0  0  0  0  0  0  0  0  0
  -25.1738  -26.5669   19.0740 C   0  0  0  0  0  0  0  0  0  0  0  0
  -21.5822   -6.3638   22.1863 C   0  0  0  0  0  0  0  0  0  0  0  0
  -21.2616   -4.4939   24.2317 C   0  0  0  0  0  0  0  0  0  0  0  0
  -21.8918   -5.0227   21.9601 C   0  0  0  0  0  0  0  0  0  0  0  0
  -25.2696  -11.5376   22.0702 C   0  0  0  0  0  0  0  0  0  0  0  0
  -26.3088  -23.5849   17.2940 C   0  0  0  0  0  0  0  0  0  0  0  0
  -27.7957  -22.4770   15.9376 C   0  0  0  0  0  0  0  0  0  0  0  0
  -26.3765  -13.2210   22.9510 C   0  0  0  0  0  0  0  0  0  0  0  0
  -24.6233  -12.2612   24.4521 C   0  0  0  0  0  0  0  0  0  0  0  0
  -24.7883  -31.8048   20.4451 C   0  0  0  0  0  0  0  0  0  0  0  0
  -24.4111  -30.8639   23.5264 C   0  0  0  0  0  0  0  0  0  0  0  0
  -24.2439  -28.3006   25.7732 C   0  0  0  0  0  0  0  0  0  0  0  0
  -29.0038  -16.7022   19.6343 C   0  0  0  0  0  0  0  0  0  0  0  0
  -25.8171  -36.7243   21.3385 C   0  0  0  0  0  0  0  0  0  0  0  0
  -22.9652  -30.0776   20.2243 C   0  0  0  0  0  0  0  0  0  0  0  0
  -25.2008  -29.1059   21.8983 C   0  0  0  0  0  0  0  0  0  0  0  0
  -26.2678  -35.3901   21.9278 C   0  0  0  0  0  0  0  0  0  0  0  0
  -29.7174  -13.3527   19.1651 C   0  0  0  0  0  0  0  0  0  0  0  0
  -26.6768  -34.4271   20.8178 C   0  0  0  0  0  0  0  0  0  0  0  0
  -28.6368  -12.6343   19.9730 C   0  0  0  0  0  0  0  0  0  0  0  0
  -26.6688  -19.0019   18.3788 C   0  0  0  0  0  0  0  0  0  0  0  0
  -28.5975  -20.1335   19.5660 C   0  0  0  0  0  0  0  0  0  0  0  0
  -29.1367  -14.5487   18.4196 C   0  0  0  0  0  0  0  0  0  0  0  0
  -26.7578  -17.8476   19.3812 C   0  0  0  0  0  0  0  0  0  0  0  0
  -28.6238  -18.9696   20.5525 C   0  0  0  0  0  0  0  0  0  0  0  0
  -27.3625  -14.8310   20.1197 C   0  0  0  0  0  0  0  0  0  0  0  0
  -27.1859  -20.3208   18.9811 C   0  0  0  0  0  0  0  0  0  0  0  0
  -25.4961  -34.1241   19.8875 C   0  0  1  0  0  0  0  0  0  0  0  0
  -23.7326  -31.0082   21.1582 C   0  0  1  0  0  0  0  0  0  0  0  0
  -27.8975  -13.6140   20.9015 C   0  0  1  0  0  0  0  0  0  0  0  0
  -25.5079  -22.6563   19.4794 C   0  0  0  0  0  0  0  0  0  0  0  0
  -28.5789  -22.4786   14.6648 C   0  0  0  0  0  0  0  0  0  0  0  0
  -23.9665  -27.8454   28.2254 C   0  0  0  0  0  0  0  0  0  0  0  0
  -27.3014  -31.7143   24.0087 C   0  0  0  0  0  0  0  0  0  0  0  0
  -27.2631  -30.3906   26.1335 C   0  0  0  0  0  0  0  0  0  0  0  0
  -25.7146  -32.3246   25.8428 C   0  0  0  0  0  0  0  0  0  0  0  0
  -21.7546  -26.7639   25.3247 C   0  0  0  0  0  0  0  0  0  0  0  0
  -25.4655  -24.7989   17.5104 C   0  0  0  0  0  0  0  0  0  1  0  0
  -25.2890  -30.1915   24.5540 C   0  0  1  0  0  0  0  0  0  0  0  0
  -23.2585  -28.0014   26.8885 C   0  0  2  0  0  0  0  0  0  0  0  0
  -26.3861  -31.1429   25.1099 C   0  0  0  0  0  0  0  0  0  0  0  0
  -26.1410  -11.8968   21.1238 N   0  0  0  0  0  0  0  0  0  0  0  0
  -27.0255  -23.5680   16.1479 N   0  0  0  0  0  0  0  0  0  0  0  0
  -26.7995  -12.9229   21.6891 N   0  0  0  0  0  0  0  0  0  0  0  0
  -24.4007  -30.2917   22.2465 N   0  0  0  0  0  0  0  0  0  0  0  0
  -28.4403  -15.4528   19.3346 N   0  0  0  0  0  0  0  0  0  0  0  0
  -28.1149  -17.7449   19.9356 N   0  0  0  0  0  0  0  0  0  0  0  0
  -28.7050  -20.2999   16.5319 N   0  0  0  0  0  0  0  0  0  0  0  0
  -26.9312  -14.2243   23.6639 N   0  0  0  0  0  0  0  0  0  0  0  0
  -23.6264  -11.2834   24.5726 N   0  0  0  0  0  0  0  0  0  0  0  0
  -24.5977  -33.1721   20.5048 N   0  0  0  0  0  0  0  0  0  0  0  0
  -24.3905  -29.6567   25.5714 N   0  0  0  0  0  0  0  0  0  0  0  0
  -22.5163  -26.7417   26.6000 N   0  3  0  0  0  0  0  0  0  0  0  0
  -24.8218  -13.0559   25.4022 O   0  0  0  0  0  0  0  0  0  0  0  0
  -25.7086  -31.2221   19.8835 O   0  0  0  0  0  0  0  0  0  0  0  0
  -23.7530  -31.8560   23.8494 O   0  0  0  0  0  0  0  0  0  0  0  0
  -24.8281  -27.4195   25.1464 O   0  0  0  0  0  0  0  0  0  0  0  0
  -30.2289  -16.8763   19.6339 O   0  0  0  0  0  0  0  0  0  0  0  0
  -21.7416   -7.2933   21.1723 O   0  0  0  0  0  0  0  0  0  0  0  0
  -25.8725  -25.4457   18.7090 O   0  0  0  0  0  0  0  0  0  1  0  0
  -21.1090   -3.5965   25.2143 F   0  0  0  0  0  0  0  0  0  0  0  0
  -22.3448   -4.6267   20.7627 F   0  0  0  0  0  0  0  0  0  0  0  0
  1  2  1  0  0  0  0
  1  5  2  0  0  0  0
  2  6  2  0  0  0  0
  3  8  2  0  0  0  0
  3 15  1  0  0  0  0
  4  9  1  0  0  0  0
  4 15  2  0  0  0  0
  5 17  1  0  0  0  0
  6 19  1  0  0  0  0
  7 10  2  0  0  0  0
  7 18  1  0  0  0  0
  8 24  1  0  0  0  0
  9 24  2  0  0  0  0
 10 25  1  0  0  0  0
 11 12  2  0  0  0  0
 11 26  1  0  0  0  0
 12 27  1  0  0  0  0
 13 20  1  0  0  0  0
 13 25  2  0  0  0  0
 14 27  2  0  0  0  0
 14 28  1  0  0  0  0
 15 29  1  0  0  0  0
 16 29  1  0  0  0  0
 16 32  2  0  0  0  0
 16 33  1  0  0  0  0
 17 19  2  0  0  0  0
 17 38  1  0  0  0  0
 18 20  2  0  0  0  0
 18 39  1  0  0  0  0
 19 52  1  0  0  0  0
 20 40  1  0  0  0  0
 21 22  1  0  0  0  0
 21 23  2  0  0  0  0
 21 51  1  0  0  0  0
 22 30  2  0  0  0  0
 22 55  1  0  0  0  0
 23 31  1  0  0  0  0
 23 72  1  0  0  0  0
 24 83  1  0  0  0  0
 25 84  1  0  0  0  0
 26 28  2  0  0  0  0
 26 83  1  0  0  0  0
 27 85  1  0  0  0  0
 28 86  1  0  0  0  0
 29 66  2  0  0  0  0
 30 62  1  0  0  0  0
 30 67  1  0  0  0  0
 31 56  1  0  0  0  0
 31 67  2  0  0  0  0
 32 68  1  0  0  0  0
 32 73  1  0  0  0  0
 33 74  1  0  0  0  0
 33 78  2  0  0  0  0
 34 53  1  0  0  0  0
 34 75  1  0  0  0  0
 34 79  2  0  0  0  0
 35 63  1  0  0  0  0
 35 69  1  0  0  0  0
 35 80  2  0  0  0  0
 36 64  1  0  0  0  0
 36 76  1  0  0  0  0
 36 81  2  0  0  0  0
 37 70  1  0  0  0  0
 37 71  1  0  0  0  0
 37 82  2  0  0  0  0
 38 41  1  0  0  0  0
 39 53  1  0  0  0  0
 40 69  1  0  0  0  0
 41 43  1  0  0  0  0
 42 44  1  0  0  0  0
 42 47  1  0  0  0  0
 43 52  1  0  0  0  0
 44 54  1  0  0  0  0
 45 48  1  0  0  0  0
 45 51  1  0  0  0  0
 46 49  1  0  0  0  0
 46 51  1  0  0  0  0
 47 70  1  0  0  0  0
 48 71  1  0  0  0  0
 49 71  1  0  0  0  0
 50 54  1  0  0  0  0
 50 70  1  0  0  0  0
 52 75  1  0  0  0  0
 53 69  1  0  0  0  0
 54 68  1  0  0  0  0
 57 64  1  0  0  0  0
 58 65  1  0  0  0  0
 59 65  1  0  0  0  0
 60 65  1  0  0  0  0
 61 77  1  0  0  0  0
 62 84  1  0  0  0  0
 63 65  1  0  0  0  0
 63 76  1  0  0  0  0
 64 77  1  0  0  0  0
 66 68  1  0  0  0  0
M  CHG  1  77   1
M  ISO  4  37 100  62 101  71 100  84 101
M  END
> <Batch ID>
0168

> <Smiles>
CNC(C)C(=O)NC(C(=O)N1Cc2cc([101O:1][101CH2:1]c3nc(C)c(N)c(C4CC[100N:0]([100C:0](=O)N5CCCC(n6nc(-c7ccc(Oc8ccc(F)cc8F)cc7)c(C(N)=O)c6N)C5)CC4)c3C)ccc2CC1C(=O)NC1CCCc2ccccc21)C(C)(C)C

> <Shape>
0.258

> <Color>
0.120

> <Negative vol penalty>
0.000

$$$$

  -OEChem-04052322303D

 86 95  0     1  0  0  0  0  0999 V2000
  -21.2302  -23.4037   12.0392 C   0  0  0  0  0  0  0  0  0  0  0  0
  -22.0907  -23.1470   13.1017 C   0  0  0  0  0  0  0  0  0  0  0  0
  -23.0772   -9.8838   20.0395 C   0  0  0  0  0  0  0  0  0  0  0  0
  -23.7684  -10.0445   22.3489 C   0  0  0  0  0  0  0  0  0  0  0  0
  -20.6803  -24.6751   11.8805 C   0  0  0  0  0  0  0  0  0  0  0  0
  -22.4027  -24.1619   14.0057 C   0  0  0  0  0  0  0  0  0  0  0  0
  -22.2165  -22.6008   18.8195 C   0  0  0  0  0  0  0  0  0  0  0  0
  -22.3217   -8.7515   20.3444 C   0  0  0  0  0  0  0  0  0  0  0  0
  -23.0129   -8.9123   22.6538 C   0  0  0  0  0  0  0  0  0  0  0  0
  -23.2987  -21.8586   19.2905 C   0  0  0  0  0  0  0  0  0  0  0  0
  -19.7652   -8.1630   23.2118 C   0  0  0  0  0  0  0  0  0  0  0  0
  -18.9735   -8.2037   24.3595 C   0  0  0  0  0  0  0  0  0  0  0  0
  -28.9435  -19.3762   20.8664 C   0  0  0  0  0  0  0  0  0  0  0  0
  -24.1840  -23.8349   20.3532 C   0  0  0  0  0  0  0  0  0  0  0  0
  -20.1849   -6.3183   25.2621 C   0  0  0  0  0  0  0  0  0  0  0  0
  -23.8006  -10.5302   21.0418 C   0  0  0  0  0  0  0  0  0  0  0  0
  -24.1556  -13.0408   20.7617 C   0  0  0  0  0  0  0  0  0  0  0  0
  -20.9781  -25.7035   12.7884 C   0  0  0  0  0  0  0  0  0  0  0  0
  -22.1155  -23.9704   19.1032 C   0  0  0  0  0  0  0  0  0  0  0  0
  -21.8573  -25.4486   13.8582 C   0  0  0  0  0  0  0  0  0  0  0  0
  -28.7535  -18.5757   21.9873 C   0  0  0  0  0  0  0  0  0  0  0  0
  -23.0983  -24.5917   19.8868 C   0  0  0  0  0  0  0  0  0  0  0  0
  -27.8489  -19.9761   20.2537 C   0  0  0  0  0  0  0  0  0  0  0  0
  -22.2896   -8.2658   21.6515 C   0  0  0  0  0  0  0  0  0  0  0  0
  -24.2841  -22.4762   20.0550 C   0  0  0  0  0  0  0  0  0  0  0  0
  -20.7667   -7.1998   23.0892 C   0  0  0  0  0  0  0  0  0  0  0  0
  -19.1834   -7.2814   25.3846 C   0  0  0  0  0  0  0  0  0  0  0  0
  -20.9766   -6.2775   24.1143 C   0  0  0  0  0  0  0  0  0  0  0  0
  -24.5816  -11.6995   20.7273 C   0  0  0  0  0  0  0  0  0  0  0  0
  -27.4592  -18.4080   22.4526 C   0  0  0  0  0  0  0  0  0  0  0  0
  -26.5951  -19.7455   20.7965 C   0  0  0  0  0  0  0  0  0  0  0  0
  -25.2609  -13.7620   20.3815 C   0  0  0  0  0  0  0  0  0  0  0  0
  -22.8752  -13.5861   21.1065 C   0  0  0  0  0  0  0  0  0  0  0  0
  -22.0557  -26.6247   17.3554 C   0  0  0  0  0  0  0  0  0  0  0  0
  -21.4566  -28.0304   20.2168 C   0  0  0  0  0  0  0  0  0  0  0  0
  -21.7043  -27.8983   23.6179 C   0  0  0  0  0  0  0  0  0  0  0  0
  -30.7405  -14.7814   20.6650 C   0  0  0  0  0  0  0  0  0  0  0  0
  -20.3968  -27.0743   12.5488 C   0  0  0  0  0  0  0  0  0  0  0  0
  -20.9282  -24.7512   18.6103 C   0  0  0  0  0  0  0  0  0  0  0  0
  -23.0259  -26.0550   20.2364 C   0  0  0  0  0  0  0  0  0  0  0  0
  -20.4828  -27.9935   13.7645 C   0  0  0  0  0  0  0  0  0  0  0  0
  -29.6654  -12.2429   18.4117 C   0  0  0  0  0  0  0  0  0  0  0  0
  -21.8761  -27.9326   14.3823 C   0  0  0  0  0  0  0  0  0  0  0  0
  -28.2145  -11.9818   18.8202 C   0  0  0  0  0  0  0  0  0  0  0  0
  -30.5471  -12.5428   19.6219 C   0  0  0  0  0  0  0  0  0  0  0  0
  -28.6078  -13.3695   20.8983 C   0  0  0  0  0  0  0  0  0  0  0  0
  -30.9765  -18.9159   23.1763 C   0  0  0  0  0  0  0  0  0  0  0  0
  -32.0370  -16.7944   22.5762 C   0  0  0  0  0  0  0  0  0  0  0  0
  -29.9381  -17.9215   22.6574 C   0  0  2  0  0  0  0  0  0  0  0  0
  -22.2004  -26.5167   14.8738 C   0  0  1  0  0  0  0  0  0  0  0  0
  -21.1923  -26.2514   18.5271 C   0  0  1  0  0  0  0  0  0  0  0  0
  -27.6684  -13.1175   19.7065 C   0  0  2  0  0  0  0  0  0  0  0  0
  -30.7778  -17.0106   21.7551 C   0  0  2  0  0  0  0  0  0  0  0  0
  -28.0456  -20.8347   19.0523 C   0  0  0  0  0  0  0  0  0  0  0  0
  -25.7115  -17.2392   23.8185 C   0  0  0  0  0  0  0  0  0  0  0  0
  -21.1576  -29.2115   25.6853 C   0  0  0  0  0  0  0  0  0  0  0  0
  -23.8080  -29.8915   19.6534 C   0  0  0  0  0  0  0  0  0  0  0  0
  -23.8119  -30.5072   22.0802 C   0  0  0  0  0  0  0  0  0  0  0  0
  -21.8149  -31.0075   20.6715 C   0  0  0  0  0  0  0  0  0  0  0  0
  -19.9351  -25.7611   24.6480 C   0  0  0  0  0  0  0  0  0  0  0  0
  -27.1941  -17.5583   23.6520 C   0  0  0  0  0  0  0  0  0  0  0  0
  -25.3784  -20.3682   20.1775 C   0  0  0  0  0  0  0  0  0  1  0  0
  -22.3061  -28.6137   21.3200 C   0  0  1  0  0  0  0  0  0  0  0  0
  -20.6816  -28.1438   24.7126 C   0  0  2  0  0  0  0  0  0  0  0  0
  -22.9379  -29.9778   20.9232 C   0  0  0  0  0  0  0  0  0  0  0  0
  -25.8579  -11.5733   20.3546 N   0  0  0  0  0  0  0  0  0  0  0  0
  -26.3712  -18.9743   21.8840 N   0  0  0  0  0  0  0  0  0  0  0  0
  -26.2435  -12.8445   20.1512 N   0  0  0  0  0  0  0  0  0  0  0  0
  -21.8489  -26.7770   19.7258 N   0  0  0  0  0  0  0  0  0  0  0  0
  -29.9744  -13.6299   20.4195 N   0  0  0  0  0  0  0  0  0  0  0  0
  -25.4786  -15.0851   20.2251 N   0  0  0  0  0  0  0  0  0  0  0  0
  -21.8501  -12.7037   21.4739 N   0  0  0  0  0  0  0  0  0  0  0  0
  -21.5338  -26.2531   16.1310 N   0  0  0  0  0  0  0  0  0  0  0  0
  -21.4550  -28.6711   22.5035 N   0  0  0  0  0  0  0  0  0  0  0  0
  -30.1201  -15.7661   21.4240 N   0  0  0  0  0  0  0  0  0  0  0  0
  -32.2469  -18.1141   23.2641 N   0  3  0  0  0  0  0  0  0  0  0  0
  -20.4304  -26.8896   25.4775 N   0  3  0  0  0  0  0  0  0  0  0  0
  -22.6421  -14.8183   21.0734 O   0  0  0  0  0  0  0  0  0  0  0  0
  -23.1161  -27.2080   17.5478 O   0  0  0  0  0  0  0  0  0  0  0  0
  -20.4769  -28.6603   19.8106 O   0  0  0  0  0  0  0  0  0  0  0  0
  -22.6336  -27.1035   23.7407 O   0  0  0  0  0  0  0  0  0  0  0  0
  -31.8902  -14.9237   20.2348 O   0  0  0  0  0  0  0  0  0  0  0  0
  -21.5523   -7.1611   21.9495 O   0  0  0  0  0  0  0  0  0  0  0  0
  -25.3418  -21.7542   20.5154 O   0  0  0  0  0  0  0  0  0  1  0  0
  -18.4241   -7.3217   26.4874 F   0  0  0  0  0  0  0  0  0  0  0  0
  -21.9380   -5.3506   24.0027 F   0  0  0  0  0  0  0  0  0  0  0  0
  1  2  1  0  0  0  0
  1  5  2  0  0  0  0
  2  6  2  0  0  0  0
  3  8  2  0  0  0  0
  3 16  1  0  0  0  0
  4  9  1  0  0  0  0
  4 16  2  0  0  0  0
  5 18  1  0  0  0  0
  6 20  1  0  0  0  0
  7 10  2  0  0  0  0
  7 19  1  0  0  0  0
  8 24  1  0  0  0  0
  9 24  2  0  0  0  0
 10 25  1  0  0  0  0
 11 12  2  0  0  0  0
 11 26  1  0  0  0  0
 12 27  1  0  0  0  0
 13 21  1  0  0  0  0
 13 23  2  0  0  0  0
 14 22  1  0  0  0  0
 14 25  2  0  0  0  0
 15 27  2  0  0  0  0
 15 28  1  0  0  0  0
 16 29  1  0  0  0  0
 17 29  1  0  0  0  0
 17 32  2  0  0  0  0
 17 33  1  0  0  0  0
 18 20  2  0  0  0  0
 18 38  1  0  0  0  0
 19 22  2  0  0  0  0
 19 39  1  0  0  0  0
 20 50  1  0  0  0  0
 21 30  2  0  0  0  0
 21 49  1  0  0  0  0
 22 40  1  0  0  0  0
 23 31  1  0  0  0  0
 23 54  1  0  0  0  0
 24 83  1  0  0  0  0
 25 84  1  0  0  0  0
 26 28  2  0  0  0  0
 26 83  1  0  0  0  0
 27 85  1  0  0  0  0
 28 86  1  0  0  0  0
 29 66  2  0  0  0  0
 30 61  1  0  0  0  0
 30 67  1  0  0  0  0
 31 62  1  0  0  0  0
 31 67  2  0  0  0  0
 32 68  1  0  0  0  0
 32 71  1  0  0  0  0
 33 72  1  0  0  0  0
 33 78  2  0  0  0  0
 34 51  1  0  0  0  0
 34 73  1  0  0  0  0
 34 79  2  0  0  0  0
 35 63  1  0  0  0  0
 35 69  1  0  0  0  0
 35 80  2  0  0  0  0
 36 64  1  0  0  0  0
 36 74  1  0  0  0  0
 36 81  2  0  0  0  0
 37 70  1  0  0  0  0
 37 75  1  0  0  0  0
 37 82  2  0  0  0  0
 38 41  1  0  0  0  0
 39 51  1  0  0  0  0
 40 69  1  0  0  0  0
 41 43  1  0  0  0  0
 42 44  1  0  0  0  0
 42 45  1  0  0  0  0
 43 50  1  0  0  0  0
 44 52  1  0  0  0  0
 45 70  1  0  0  0  0
 46 52  1  0  0  0  0
 46 70  1  0  0  0  0
 47 49  1  0  0  0  0
 47 76  1  0  0  0  0
 48 53  1  0  0  0  0
 48 76  1  0  0  0  0
 49 53  1  0  0  0  0
 50 73  1  0  0  0  0
 51 69  1  0  0  0  0
 52 68  1  0  0  0  0
 53 75  1  0  0  0  0
 55 61  1  0  0  0  0
 56 64  1  0  0  0  0
 57 65  1  0  0  0  0
 58 65  1  0  0  0  0
 59 65  1  0  0  0  0
 60 77  1  0  0  0  0
 62 84  1  0  0  0  0
 63 65  1  0  0  0  0
 63 74  1  0  0  0  0
 64 77  1  0  0  0  0
 66 68  1  0  0  0  0
M  CHG  2  76   1  77   1
M  ISO  4  37 100  62 101  75 100  84 101
M  END
> <Batch ID>
0168

> <Smiles>
CCc1nc([101CH2:1][101O:1]c2ccc3c(c2)CN(C(=O)C(NC(=O)C(C)NC)C(C)(C)C)C(C(=O)NC2CCCc4ccccc42)C3)c(C)cc1C1CNCC1[100NH:0][100C:0](=O)N1CCCC(n2nc(-c3ccc(Oc4ccc(F)cc4F)cc3)c(C(N)=O)c2N)C1

> <Shape>
0.247

> <Color>
0.191

> <Negative vol penalty>
0.000

$$$$

  -OEChem-04052322303D

 86 95  0     1  0  0  0  0  0999 V2000
  -18.7330  -32.4463   20.1235 C   0  0  0  0  0  0  0  0  0  0  0  0
  -19.9737  -31.9986   19.6814 C   0  0  0  0  0  0  0  0  0  0  0  0
  -26.8472  -12.8405   21.1831 C   0  0  0  0  0  0  0  0  0  0  0  0
  -25.6216  -14.7090   20.2646 C   0  0  0  0  0  0  0  0  0  0  0  0
  -18.3413  -32.2210   21.4425 C   0  0  0  0  0  0  0  0  0  0  0  0
  -20.8241  -31.3263   20.5585 C   0  0  0  0  0  0  0  0  0  0  0  0
  -24.6658  -26.7588   19.1856 C   0  0  0  0  0  0  0  0  0  0  0  0
  -25.6467  -12.2379   21.5591 C   0  0  0  0  0  0  0  0  0  0  0  0
  -24.4211  -14.1064   20.6406 C   0  0  0  0  0  0  0  0  0  0  0  0
  -26.0357  -26.7307   18.9281 C   0  0  0  0  0  0  0  0  0  0  0  0
  -22.8890  -10.0386   22.4383 C   0  0  0  0  0  0  0  0  0  0  0  0
  -22.7359   -8.6776   22.1739 C   0  0  0  0  0  0  0  0  0  0  0  0
  -26.4505  -26.1445   21.2310 C   0  0  0  0  0  0  0  0  0  0  0  0
  -31.2332  -22.6594   20.7593 C   0  0  0  0  0  0  0  0  0  0  0  0
  -23.0237   -9.1038   19.8133 C   0  0  0  0  0  0  0  0  0  0  0  0
  -26.8346  -14.0761   20.5359 C   0  0  0  0  0  0  0  0  0  0  0  0
  -28.7567  -14.5465   18.9259 C   0  0  0  0  0  0  0  0  0  0  0  0
  -19.1833  -31.5371   22.3336 C   0  0  0  0  0  0  0  0  0  0  0  0
  -24.1778  -26.4901   20.4725 C   0  0  0  0  0  0  0  0  0  0  0  0
  -20.4440  -31.0928   21.8911 C   0  0  0  0  0  0  0  0  0  0  0  0
  -25.0738  -26.1672   21.5016 C   0  0  0  0  0  0  0  0  0  0  0  0
  -31.2558  -23.8200   19.9939 C   0  0  0  0  0  0  0  0  0  0  0  0
  -30.0827  -21.8795   20.7955 C   0  0  0  0  0  0  0  0  0  0  0  0
  -24.4337  -12.8708   21.2878 C   0  0  0  0  0  0  0  0  0  0  0  0
  -26.9285  -26.4264   19.9515 C   0  0  0  0  0  0  0  0  0  0  0  0
  -23.1095  -10.9322   21.3902 C   0  0  0  0  0  0  0  0  0  0  0  0
  -22.8032   -8.2102   20.8614 C   0  0  0  0  0  0  0  0  0  0  0  0
  -23.1768  -10.4648   20.0777 C   0  0  0  0  0  0  0  0  0  0  0  0
  -28.0744  -14.6994   20.1477 C   0  0  0  0  0  0  0  0  0  0  0  0
  -28.9902  -22.3005   20.0546 C   0  0  0  0  0  0  0  0  0  0  0  0
  -30.1108  -24.1541   19.2887 C   0  0  0  0  0  0  0  0  0  0  0  0
  -29.8702  -15.3404   19.0528 C   0  0  0  0  0  0  0  0  0  0  0  0
  -28.4144  -13.7575   17.7787 C   0  0  0  0  0  0  0  0  0  0  0  0
  -22.5320  -28.1369   22.6365 C   0  0  0  0  0  0  0  0  0  0  0  0
  -22.5193  -25.3024   24.2136 C   0  0  0  0  0  0  0  0  0  0  0  0
  -23.9901  -22.2660   24.7271 C   0  0  0  0  0  0  0  0  0  0  0  0
  -31.0847  -20.1716   22.3528 C   0  0  0  0  0  0  0  0  0  0  0  0
  -18.7362  -31.3588   23.7629 C   0  0  0  0  0  0  0  0  0  0  0  0
  -22.6955  -26.4982   20.7276 C   0  0  0  0  0  0  0  0  0  0  0  0
  -24.5995  -25.8512   22.8958 C   0  0  0  0  0  0  0  0  0  0  0  0
  -19.5399  -30.3092   24.5261 C   0  0  0  0  0  0  0  0  0  0  0  0
  -32.8662  -17.0888   22.3546 C   0  0  0  0  0  0  0  0  0  0  0  0
  -21.0341  -30.5047   24.2893 C   0  0  0  0  0  0  0  0  0  0  0  0
  -26.4249  -22.1861   19.7710 C   0  0  0  0  0  0  0  0  0  0  0  0
  -26.7277  -21.7227   21.1616 C   0  0  0  0  0  0  0  0  0  0  0  0
  -31.9041  -16.1137   21.6722 C   0  0  0  0  0  0  0  0  0  0  0  0
  -32.1253  -18.0943   23.2343 C   0  0  0  0  0  0  0  0  0  0  0  0
  -30.0806  -17.8509   21.8819 C   0  0  0  0  0  0  0  0  0  0  0  0
  -21.3840  -30.3379   22.8057 C   0  0  1  0  0  0  0  0  0  0  0  0
  -27.7295  -21.4963   20.0625 C   0  0  0  0  0  0  0  0  0  0  0  0
  -22.3432  -26.7127   22.1964 C   0  0  1  0  0  0  0  0  0  0  0  0
  -30.7752  -16.8596   20.9341 C   0  0  2  0  0  0  0  0  0  0  0  0
  -33.6914  -23.9090   19.3508 C   0  0  0  0  0  0  0  0  0  0  0  0
  -32.8613  -25.2309   21.3303 C   0  0  0  0  0  0  0  0  0  0  0  0
  -30.5952  -25.1326   17.0217 C   0  0  0  0  0  0  0  0  0  0  0  0
  -24.2849  -19.9453   25.6355 C   0  0  0  0  0  0  0  0  0  0  0  0
  -23.6585  -26.7824   26.6264 C   0  0  0  0  0  0  0  0  0  0  0  0
  -24.2991  -24.5650   27.5964 C   0  0  0  0  0  0  0  0  0  0  0  0
  -21.8979  -25.0930   27.1748 C   0  0  0  0  0  0  0  0  0  0  0  0
  -22.4395  -21.0745   22.5057 C   0  0  0  0  0  0  0  0  0  0  0  0
  -28.6747  -26.0346   18.3852 C   0  0  0  0  0  0  0  0  0  1  0  0
  -32.4855  -24.6592   19.9493 C   0  0  0  0  0  0  0  0  0  0  0  0
  -30.0767  -25.4120   18.4351 C   0  0  1  0  0  0  0  0  0  0  0  0
  -23.4281  -24.6324   25.2157 C   0  0  1  0  0  0  0  0  0  0  0  0
  -23.4102  -20.8648   24.7975 C   0  0  2  0  0  0  0  0  0  0  0  0
  -23.3303  -25.2760   26.6276 C   0  0  0  0  0  0  0  0  0  0  0  0
  -28.7021  -15.5253   20.9890 N   0  0  0  0  0  0  0  0  0  0  0  0
  -28.9745  -23.4217   19.2994 N   0  0  0  0  0  0  0  0  0  0  0  0
  -29.7905  -15.8985   20.2947 N   0  0  0  0  0  0  0  0  0  0  0  0
  -23.1413  -25.8782   23.0968 N   0  0  0  0  0  0  0  0  0  0  0  0
  -31.0738  -18.7653   22.4669 N   0  0  0  0  0  0  0  0  0  0  0  0
  -30.9001  -15.6085   18.2222 N   0  0  0  0  0  0  0  0  0  0  0  0
  -27.2350  -13.0012   17.8157 N   0  0  0  0  0  0  0  0  0  0  0  0
  -30.0544  -20.6947   21.5723 N   0  0  0  0  0  0  0  0  0  0  0  0
  -21.4200  -28.9357   22.4494 N   0  0  0  0  0  0  0  0  0  0  0  0
  -23.0962  -23.2121   25.1821 N   0  0  0  0  0  0  0  0  0  0  0  0
  -23.2921  -20.2838   23.4302 N   0  3  0  0  0  0  0  0  0  0  0  0
  -29.1415  -13.7114   16.7576 O   0  0  0  0  0  0  0  0  0  0  0  0
  -23.6065  -28.4850   23.1119 O   0  0  0  0  0  0  0  0  0  0  0  0
  -21.3016  -25.3082   24.4109 O   0  0  0  0  0  0  0  0  0  0  0  0
  -25.1241  -22.4975   24.3137 O   0  0  0  0  0  0  0  0  0  0  0  0
  -31.9605  -20.8590   22.8843 O   0  0  0  0  0  0  0  0  0  0  0  0
  -23.2621  -12.2830   21.6544 O   0  0  0  0  0  0  0  0  0  0  0  0
  -28.2662  -26.3990   19.7031 O   0  0  0  0  0  0  0  0  0  1  0  0
  -22.6577   -6.9031   20.6078 F   0  0  0  0  0  0  0  0  0  0  0  0
  -23.3896  -11.3184   19.0667 F   0  0  0  0  0  0  0  0  0  0  0  0
  1  2  1  0  0  0  0
  1  5  2  0  0  0  0
  2  6  2  0  0  0  0
  3  8  2  0  0  0  0
  3 16  1  0  0  0  0
  4  9  1  0  0  0  0
  4 16  2  0  0  0  0
  5 18  1  0  0  0  0
  6 20  1  0  0  0  0
  7 10  2  0  0  0  0
  7 19  1  0  0  0  0
  8 24  1  0  0  0  0
  9 24  2  0  0  0  0
 10 25  1  0  0  0  0
 11 12  2  0  0  0  0
 11 26  1  0  0  0  0
 12 27  1  0  0  0  0
 13 21  1  0  0  0  0
 13 25  2  0  0  0  0
 14 22  1  0  0  0  0
 14 23  2  0  0  0  0
 15 27  2  0  0  0  0
 15 28  1  0  0  0  0
 16 29  1  0  0  0  0
 17 29  1  0  0  0  0
 17 32  2  0  0  0  0
 17 33  1  0  0  0  0
 18 20  2  0  0  0  0
 18 38  1  0  0  0  0
 19 21  2  0  0  0  0
 19 39  1  0  0  0  0
 20 49  1  0  0  0  0
 21 40  1  0  0  0  0
 22 31  2  0  0  0  0
 22 62  1  0  0  0  0
 23 30  1  0  0  0  0
 23 74  1  0  0  0  0
 24 83  1  0  0  0  0
 25 84  1  0  0  0  0
 26 28  2  0  0  0  0
 26 83  1  0  0  0  0
 27 85  1  0  0  0  0
 28 86  1  0  0  0  0
 29 67  2  0  0  0  0
 30 50  1  0  0  0  0
 30 68  2  0  0  0  0
 31 63  1  0  0  0  0
 31 68  1  0  0  0  0
 32 69  1  0  0  0  0
 32 72  1  0  0  0  0
 33 73  1  0  0  0  0
 33 78  2  0  0  0  0
 34 51  1  0  0  0  0
 34 75  1  0  0  0  0
 34 79  2  0  0  0  0
 35 64  1  0  0  0  0
 35 70  1  0  0  0  0
 35 80  2  0  0  0  0
 36 65  1  0  0  0  0
 36 76  1  0  0  0  0
 36 81  2  0  0  0  0
 37 71  1  0  0  0  0
 37 74  1  0  0  0  0
 37 82  2  0  0  0  0
 38 41  1  0  0  0  0
 39 51  1  0  0  0  0
 40 70  1  0  0  0  0
 41 43  1  0  0  0  0
 42 46  1  0  0  0  0
 42 47  1  0  0  0  0
 43 49  1  0  0  0  0
 44 45  1  0  0  0  0
 44 50  1  0  0  0  0
 45 50  1  0  0  0  0
 46 52  1  0  0  0  0
 47 71  1  0  0  0  0
 48 52  1  0  0  0  0
 48 71  1  0  0  0  0
 49 75  1  0  0  0  0
 51 70  1  0  0  0  0
 52 69  1  0  0  0  0
 53 62  1  0  0  0  0
 54 62  1  0  0  0  0
 55 63  1  0  0  0  0
 56 65  1  0  0  0  0
 57 66  1  0  0  0  0
 58 66  1  0  0  0  0
 59 66  1  0  0  0  0
 60 77  1  0  0  0  0
 61 63  1  0  0  0  0
 61 84  1  0  0  0  0
 64 66  1  0  0  0  0
 64 76  1  0  0  0  0
 65 77  1  0  0  0  0
 67 69  1  0  0  0  0
M  CHG  1  77   1
M  ISO  4  37 100  61 101  74 100  84 101
M  END
> <Batch ID>
0168

> <Smiles>
CNC(C)C(=O)NC(C(=O)N1Cc2cc([101O:1][101CH2:1]C(C)c3nc(C4CC4)c([100NH:0][100C:0](=O)N4CCCC(n5nc(-c6ccc(Oc7ccc(F)cc7F)cc6)c(C(N)=O)c5N)C4)cc3C(C)C)ccc2CC1C(=O)NC1CCCc2ccccc21)C(C)(C)C

> <Shape>
0.232

> <Color>
0.085

> <Negative vol penalty>
0.000

$$$$

  -OEChem-04052322303D

 89 99  0     1  0  0  0  0  0999 V2000
  -20.9956  -31.0956   16.2463 C   0  0  0  0  0  0  0  0  0  0  0  0
  -21.4041  -29.8900   15.6850 C   0  0  0  0  0  0  0  0  0  0  0  0
  -23.0718   -9.8724   19.9405 C   0  0  0  0  0  0  0  0  0  0  0  0
  -23.8391   -9.8726   22.2314 C   0  0  0  0  0  0  0  0  0  0  0  0
  -21.8009  -31.7324   17.1896 C   0  0  0  0  0  0  0  0  0  0  0  0
  -22.6190  -29.3211   16.0658 C   0  0  0  0  0  0  0  0  0  0  0  0
  -23.8852  -23.3523   16.5907 C   0  0  0  0  0  0  0  0  0  0  0  0
  -22.3287   -8.7186   20.1894 C   0  0  0  0  0  0  0  0  0  0  0  0
  -23.0959   -8.7188   22.4804 C   0  0  0  0  0  0  0  0  0  0  0  0
  -24.5182  -22.4492   15.7378 C   0  0  0  0  0  0  0  0  0  0  0  0
  -19.8696   -7.9194   23.0909 C   0  0  0  0  0  0  0  0  0  0  0  0
  -19.1164   -7.8760   24.2641 C   0  0  0  0  0  0  0  0  0  0  0  0
  -26.5957  -22.8072   16.9105 C   0  0  0  0  0  0  0  0  0  0  0  0
  -30.3739  -19.6455   16.5596 C   0  0  0  0  0  0  0  0  0  0  0  0
  -20.3600   -5.9364   24.9909 C   0  0  0  0  0  0  0  0  0  0  0  0
  -29.8362  -17.8523   17.8107 C   0  0  0  0  0  0  0  0  0  0  0  0
  -23.8271  -10.4494   20.9615 C   0  0  0  0  0  0  0  0  0  0  0  0
  -24.1687  -12.9749   20.8478 C   0  0  0  0  0  0  0  0  0  0  0  0
  -23.0217  -31.1663   17.5893 C   0  0  0  0  0  0  0  0  0  0  0  0
  -24.6063  -23.9989   17.6047 C   0  0  0  0  0  0  0  0  0  0  0  0
  -23.4421  -29.9517   17.0143 C   0  0  0  0  0  0  0  0  0  0  0  0
  -25.9689  -23.7161   17.7765 C   0  0  0  0  0  0  0  0  0  0  0  0
  -29.5437  -18.4997   16.6306 C   0  0  0  0  0  0  0  0  0  0  0  0
  -22.3407   -8.1418   21.4594 C   0  0  0  0  0  0  0  0  0  0  0  0
  -25.8743  -22.1787   15.8957 C   0  0  0  0  0  0  0  0  0  0  0  0
  -20.8680   -6.9712   22.8676 C   0  0  0  0  0  0  0  0  0  0  0  0
  -19.3616   -6.8846   25.2141 C   0  0  0  0  0  0  0  0  0  0  0  0
  -21.1132   -5.9797   23.8176 C   0  0  0  0  0  0  0  0  0  0  0  0
  -24.5954  -11.6410   20.7048 C   0  0  0  0  0  0  0  0  0  0  0  0
  -31.1486  -19.6633   17.6984 C   0  0  0  0  0  0  0  0  0  0  0  0
  -25.2597  -13.7254   20.4832 C   0  0  0  0  0  0  0  0  0  0  0  0
  -22.8996  -13.4896   21.2723 C   0  0  0  0  0  0  0  0  0  0  0  0
  -25.3119  -27.0249   18.2753 C   0  0  0  0  0  0  0  0  0  0  0  0
  -26.5568  -25.7283   20.9756 C   0  0  0  0  0  0  0  0  0  0  0  0
  -27.8661  -22.9914   22.5382 C   0  0  0  0  0  0  0  0  0  0  0  0
  -30.7441  -14.7435   20.6570 C   0  0  0  0  0  0  0  0  0  0  0  0
  -23.8805  -31.9154   18.5772 C   0  0  0  0  0  0  0  0  0  0  0  0
  -23.9028  -24.9503   18.5334 C   0  0  0  0  0  0  0  0  0  0  0  0
  -26.7834  -24.3685   18.8625 C   0  0  0  0  0  0  0  0  0  0  0  0
  -24.9772  -31.0582   19.2038 C   0  0  0  0  0  0  0  0  0  0  0  0
  -29.5987  -12.3661   18.2669 C   0  0  0  0  0  0  0  0  0  0  0  0
  -25.7022  -30.2512   18.1315 C   0  0  0  0  0  0  0  0  0  0  0  0
  -28.1626  -12.0712   18.7036 C   0  0  0  0  0  0  0  0  0  0  0  0
  -31.4219  -19.1932   20.8785 C   0  0  0  0  0  0  0  0  0  0  0  0
  -26.3936  -18.3401   15.1164 C   0  0  0  0  0  0  0  0  0  0  0  0
  -30.5197  -12.5834   19.4655 C   0  0  0  0  0  0  0  0  0  0  0  0
  -28.6224  -13.3105   20.8603 C   0  0  0  0  0  0  0  0  0  0  0  0
  -28.5029  -18.0571   15.5813 C   0  0  1  0  0  0  0  0  0  0  0  0
  -24.7415  -29.2907   17.4200 C   0  0  1  0  0  0  0  0  0  0  0  0
  -24.8501  -25.9392   19.2057 C   0  0  1  0  0  0  0  0  0  0  0  0
  -30.5182  -17.9985   20.9494 C   0  0  1  0  0  0  0  0  0  0  0  0
  -27.6445  -13.1394   19.6853 C   0  0  2  0  0  0  0  0  0  0  0  0
  -31.3923  -18.2078   19.7303 C   0  0  1  0  0  0  0  0  0  0  0  0
  -27.1533  -17.4687   16.1550 C   0  0  0  0  0  0  0  0  0  0  0  0
  -27.6614  -19.2159   14.9139 C   0  0  1  0  0  0  0  0  0  0  0  0
  -32.1780  -20.6325   18.1278 C   0  0  0  0  0  0  0  0  0  0  0  0
  -26.7768  -17.7575   17.6092 C   0  0  0  0  0  0  0  0  0  0  0  0
  -27.0172  -15.9685   15.8681 C   0  0  0  0  0  0  0  0  0  0  0  0
  -28.0148  -19.3962   13.4326 C   0  0  0  0  0  0  0  0  0  0  0  0
  -28.8286  -22.2489   24.7335 C   0  0  0  0  0  0  0  0  0  0  0  0
  -29.1609  -27.1775   20.3211 C   0  0  0  0  0  0  0  0  0  0  0  0
  -30.3233  -25.6820   21.9583 C   0  0  0  0  0  0  0  0  0  0  0  0
  -28.5219  -27.2211   22.7386 C   0  0  0  0  0  0  0  0  0  0  0  0
  -25.7399  -20.9681   22.9183 C   0  0  0  0  0  0  0  0  0  0  0  0
  -30.8141  -16.8904   21.9000 C   0  0  0  0  0  0  0  0  0  0  0  0
  -27.5982  -20.5676   15.5982 C   0  0  0  0  0  0  0  0  0  1  0  0
  -27.9063  -25.1826   21.3757 C   0  0  1  0  0  0  0  0  0  0  0  0
  -27.5695  -22.3644   23.8885 C   0  0  2  0  0  0  0  0  0  0  0  0
  -28.9635  -26.3048   21.5767 C   0  0  0  0  0  0  0  0  0  0  0  0
  -25.8589  -11.5463   20.2822 N   0  0  0  0  0  0  0  0  0  0  0  0
  -30.8134  -18.5684   18.4514 N   0  0  0  0  0  0  0  0  0  0  0  0
  -26.2355  -12.8303   20.1564 N   0  0  0  0  0  0  0  0  0  0  0  0
  -26.0517  -25.2960   19.7411 N   0  0  0  0  0  0  0  0  0  0  0  0
  -29.9720  -13.6093   20.3562 N   0  0  0  0  0  0  0  0  0  0  0  0
  -25.4700  -15.0570   20.4135 N   0  0  0  0  0  0  0  0  0  0  0  0
  -21.8887  -12.5795   21.6101 N   0  0  0  0  0  0  0  0  0  0  0  0
  -24.4834  -28.1304   18.2456 N   0  0  0  0  0  0  0  0  0  0  0  0
  -27.6789  -24.3573   22.5571 N   0  0  0  0  0  0  0  0  0  0  0  0
  -30.1477  -15.6699   21.5037 N   0  0  0  0  0  0  0  0  0  0  0  0
  -26.9955  -21.0006   23.7116 N   0  3  0  0  0  0  0  0  0  0  0  0
  -22.6636  -14.7200   21.3340 O   0  0  0  0  0  0  0  0  0  0  0  0
  -26.3442  -26.8715   17.6330 O   0  0  0  0  0  0  0  0  0  0  0  0
  -25.9691  -26.5038   21.7337 O   0  0  0  0  0  0  0  0  0  0  0  0
  -28.2312  -22.3354   21.5650 O   0  0  0  0  0  0  0  0  0  0  0  0
  -31.8786  -14.9203   20.2003 O   0  0  0  0  0  0  0  0  0  0  0  0
  -21.6154   -7.0160   21.7027 O   0  0  0  0  0  0  0  0  0  0  0  0
  -26.4948  -21.2981   15.0642 O   0  0  0  0  0  0  0  0  0  1  0  0
  -18.6393   -6.8440   26.3414 F   0  0  0  0  0  0  0  0  0  0  0  0
  -22.0718   -5.0667   23.6092 F   0  0  0  0  0  0  0  0  0  0  0  0
  1  2  1  0  0  0  0
  1  5  2  0  0  0  0
  2  6  2  0  0  0  0
  3  8  2  0  0  0  0
  3 17  1  0  0  0  0
  4  9  1  0  0  0  0
  4 17  2  0  0  0  0
  5 19  1  0  0  0  0
  6 21  1  0  0  0  0
  7 10  2  0  0  0  0
  7 20  1  0  0  0  0
  8 24  1  0  0  0  0
  9 24  2  0  0  0  0
 10 25  1  0  0  0  0
 11 12  2  0  0  0  0
 11 26  1  0  0  0  0
 12 27  1  0  0  0  0
 13 22  1  0  0  0  0
 13 25  2  0  0  0  0
 14 23  1  0  0  0  0
 14 30  2  0  0  0  0
 15 27  2  0  0  0  0
 15 28  1  0  0  0  0
 16 23  2  0  0  0  0
 16 71  1  0  0  0  0
 17 29  1  0  0  0  0
 18 29  1  0  0  0  0
 18 31  2  0  0  0  0
 18 32  1  0  0  0  0
 19 21  2  0  0  0  0
 19 37  1  0  0  0  0
 20 22  2  0  0  0  0
 20 38  1  0  0  0  0
 21 49  1  0  0  0  0
 22 39  1  0  0  0  0
 23 48  1  0  0  0  0
 24 86  1  0  0  0  0
 25 87  1  0  0  0  0
 26 28  2  0  0  0  0
 26 86  1  0  0  0  0
 27 88  1  0  0  0  0
 28 89  1  0  0  0  0
 29 70  2  0  0  0  0
 30 56  1  0  0  0  0
 30 71  1  0  0  0  0
 31 72  1  0  0  0  0
 31 75  1  0  0  0  0
 32 76  1  0  0  0  0
 32 81  2  0  0  0  0
 33 50  1  0  0  0  0
 33 77  1  0  0  0  0
 33 82  2  0  0  0  0
 34 67  1  0  0  0  0
 34 73  1  0  0  0  0
 34 83  2  0  0  0  0
 35 68  1  0  0  0  0
 35 78  1  0  0  0  0
 35 84  2  0  0  0  0
 36 74  1  0  0  0  0
 36 79  1  0  0  0  0
 36 85  2  0  0  0  0
 37 40  1  0  0  0  0
 38 50  1  0  0  0  0
 39 73  1  0  0  0  0
 40 42  1  0  0  0  0
 41 43  1  0  0  0  0
 41 46  1  0  0  0  0
 42 49  1  0  0  0  0
 43 52  1  0  0  0  0
 44 51  1  0  0  0  0
 44 53  1  0  0  0  0
 45 54  1  0  0  0  0
 45 55  1  0  0  0  0
 46 74  1  0  0  0  0
 47 52  1  0  0  0  0
 47 74  1  0  0  0  0
 48 54  1  0  0  0  0
 48 55  1  0  0  0  0
 49 77  1  0  0  0  0
 50 73  1  0  0  0  0
 51 53  1  0  0  0  0
 51 65  1  0  0  0  0
 52 72  1  0  0  0  0
 53 71  1  0  0  0  0
 54 57  1  0  0  0  0
 54 58  1  0  0  0  0
 55 59  1  0  0  0  0
 55 66  1  0  0  0  0
 60 68  1  0  0  0  0
 61 69  1  0  0  0  0
 62 69  1  0  0  0  0
 63 69  1  0  0  0  0
 64 80  1  0  0  0  0
 65 79  1  0  0  0  0
 66 87  1  0  0  0  0
 67 69  1  0  0  0  0
 67 78  1  0  0  0  0
 68 80  1  0  0  0  0
 70 72  1  0  0  0  0
M  CHG  1  80   1
M  ISO  4  36 100  66 101  79 100  87 101
M  END
> <Batch ID>
0168

> <Smiles>
CNC(C)C(=O)NC(C(=O)N1Cc2cc([101O:1][101CH2:1]C3(C)CC(C)(C)C3c3cc(C)n(C4CC4C[100NH:0][100C:0](=O)N4CCCC(n5nc(-c6ccc(Oc7ccc(F)cc7F)cc6)c(C(N)=O)c5N)C4)c3)ccc2CC1C(=O)NC1CCCc2ccccc21)C(C)(C)C

> <Shape>
0.223

> <Color>
0.191

> <Negative vol penalty>
0.000

$$$$

  -OEChem-04052322303D

 82 90  0     1  0  0  0  0  0999 V2000
  -17.8010  -26.1017   25.7986 C   0  0  0  0  0  0  0  0  0  0  0  0
  -19.1839  -25.9618   25.8568 C   0  0  0  0  0  0  0  0  0  0  0  0
  -22.8266  -10.1341   20.0564 C   0  0  0  0  0  0  0  0  0  0  0  0
  -24.1388   -9.6370   22.0231 C   0  0  0  0  0  0  0  0  0  0  0  0
  -16.9938  -24.9762   25.6385 C   0  0  0  0  0  0  0  0  0  0  0  0
  -19.7604  -24.6962   25.7561 C   0  0  0  0  0  0  0  0  0  0  0  0
  -25.6192  -21.4122   23.2649 C   0  0  0  0  0  0  0  0  0  0  0  0
  -22.0892   -8.9666   20.2533 C   0  0  0  0  0  0  0  0  0  0  0  0
  -23.4014   -8.4695   22.2201 C   0  0  0  0  0  0  0  0  0  0  0  0
  -26.6220  -20.5371   23.6799 C   0  0  0  0  0  0  0  0  0  0  0  0
  -23.3037   -5.3397   20.9449 C   0  0  0  0  0  0  0  0  0  0  0  0
  -24.0053   -4.1744   21.2536 C   0  0  0  0  0  0  0  0  0  0  0  0
  -25.1328  -18.6726   23.3261 C   0  0  0  0  0  0  0  0  0  0  0  0
  -22.8063   -4.0064   23.3444 C   0  0  0  0  0  0  0  0  0  0  0  0
  -23.8514  -10.4693   20.9413 C   0  0  0  0  0  0  0  0  0  0  0  0
  -24.1254  -12.9949   20.7087 C   0  0  0  0  0  0  0  0  0  0  0  0
  -17.5612  -23.6971   25.5262 C   0  0  0  0  0  0  0  0  0  0  0  0
  -24.3600  -20.9242   22.8872 C   0  0  0  0  0  0  0  0  0  0  0  0
  -18.9600  -23.5523   25.5958 C   0  0  0  0  0  0  0  0  0  0  0  0
  -24.1166  -19.5434   22.9043 C   0  0  0  0  0  0  0  0  0  0  0  0
  -28.3636  -15.5608   25.9097 C   0  0  0  0  0  0  0  0  0  0  0  0
  -28.2225  -16.1494   24.6288 C   0  0  0  0  0  0  0  0  0  0  0  0
  -22.3766   -8.1343   21.3351 C   0  0  0  0  0  0  0  0  0  0  0  0
  -26.3780  -19.1672   23.7133 C   0  0  0  0  0  0  0  0  0  0  0  0
  -22.3534   -5.8385   21.8360 C   0  0  0  0  0  0  0  0  0  0  0  0
  -23.7566   -3.5077   22.4533 C   0  0  0  0  0  0  0  0  0  0  0  0
  -22.1047   -5.1717   23.0357 C   0  0  0  0  0  0  0  0  0  0  0  0
  -24.6139  -11.6749   20.7381 C   0  0  0  0  0  0  0  0  0  0  0  0
  -29.5982  -14.9514   25.9485 C   0  0  0  0  0  0  0  0  0  0  0  0
  -29.3751  -15.8816   23.9238 C   0  0  0  0  0  0  0  0  0  0  0  0
  -25.2387  -13.7682   20.4875 C   0  0  0  0  0  0  0  0  0  0  0  0
  -22.7851  -13.4787   20.8673 C   0  0  0  0  0  0  0  0  0  0  0  0
  -21.3931  -21.3008   23.9639 C   0  0  0  0  0  0  0  0  0  0  0  0
  -20.6326  -19.5721   21.3265 C   0  0  0  0  0  0  0  0  0  0  0  0
  -21.6132  -17.3227   18.9548 C   0  0  0  0  0  0  0  0  0  0  0  0
  -31.0669  -12.9301   21.5741 C   0  0  0  0  0  0  0  0  0  0  0  0
  -16.6455  -22.5051   25.4018 C   0  0  0  0  0  0  0  0  0  0  0  0
  -23.2976  -21.8792   22.4165 C   0  0  0  0  0  0  0  0  0  0  0  0
  -22.7883  -18.9672   22.4894 C   0  0  0  0  0  0  0  0  0  0  0  0
  -17.3545  -21.2393   24.9270 C   0  0  0  0  0  0  0  0  0  0  0  0
  -29.5534  -13.6169   18.4254 C   0  0  0  0  0  0  0  0  0  0  0  0
  -18.6542  -21.0341   25.6987 C   0  0  0  0  0  0  0  0  0  0  0  0
  -28.0717  -13.3162   18.6584 C   0  0  0  0  0  0  0  0  0  0  0  0
  -30.4529  -12.6489   19.1907 C   0  0  0  0  0  0  0  0  0  0  0  0
  -28.6917  -12.2539   20.8688 C   0  0  0  0  0  0  0  0  0  0  0  0
  -19.6241  -22.1988   25.4655 C   0  0  1  0  0  0  0  0  0  0  0  0
  -21.8865  -21.3137   22.5447 C   0  0  1  0  0  0  0  0  0  0  0  0
  -27.7450  -13.2389   20.1619 C   0  0  2  0  0  0  0  0  0  0  0  0
  -27.3718  -15.5941   27.0043 C   0  0  0  0  0  0  0  0  0  0  0  0
  -30.2534  -14.1948   27.0368 C   0  0  0  0  0  0  0  0  0  0  0  0
  -29.7578  -16.2551   22.5451 C   0  0  0  0  0  0  0  0  0  0  0  0
  -20.7602  -16.0731   16.9527 C   0  0  0  0  0  0  0  0  0  0  0  0
  -19.1090  -17.6720   23.1646 C   0  0  0  0  0  0  0  0  0  0  0  0
  -19.1007  -15.9933   21.3072 C   0  0  0  0  0  0  0  0  0  0  0  0
  -17.9530  -18.1878   21.0078 C   0  0  0  0  0  0  0  0  0  0  0  0
  -23.6095  -18.5850   17.1714 C   0  0  0  0  0  0  0  0  0  0  0  0
  -27.0361  -16.9199   24.1284 C   0  0  0  0  0  0  0  0  0  1  0  0
  -31.5178  -14.6676   24.3678 C   0  0  0  0  0  0  0  0  0  0  0  0
  -31.5252  -13.1862   23.9997 C   0  0  0  0  0  0  0  0  0  0  0  0
  -20.4797  -18.1020   21.0193 C   0  0  1  0  0  0  0  0  0  0  0  0
  -21.4698  -17.3254   17.4435 C   0  0  2  0  0  0  0  0  0  0  0  0
  -19.1851  -17.4995   21.6344 C   0  0  0  0  0  0  0  0  0  0  0  0
  -25.9347  -11.6096   20.5504 N   0  0  0  0  0  0  0  0  0  0  0  0
  -30.2041  -15.1526   24.7358 N   0  0  0  0  0  0  0  0  0  0  0  0
  -26.2856  -12.8983   20.4008 N   0  0  0  0  0  0  0  0  0  0  0  0
  -21.7796  -19.9422   22.0430 N   0  0  0  0  0  0  0  0  0  0  0  0
  -30.0921  -12.6238   20.6103 N   0  0  0  0  0  0  0  0  0  0  0  0
  -25.4146  -15.1006   20.3605 N   0  0  0  0  0  0  0  0  0  0  0  0
  -21.9832  -13.6115   19.7256 N   0  0  0  0  0  0  0  0  0  0  0  0
  -20.2657  -22.0715   24.1746 N   0  0  0  0  0  0  0  0  0  0  0  0
  -20.5660  -17.9771   19.5683 N   0  0  0  0  0  0  0  0  0  0  0  0
  -30.6399  -12.8893   22.8957 N   0  0  0  0  0  0  0  0  0  0  0  0
  -22.8106  -17.3901   16.7961 N   0  3  0  0  0  0  0  0  0  0  0  0
  -22.3180  -13.7998   21.9864 O   0  0  0  0  0  0  0  0  0  0  0  0
  -21.9901  -20.6393   24.8051 O   0  0  0  0  0  0  0  0  0  0  0  0
  -19.7698  -20.3638   20.9387 O   0  0  0  0  0  0  0  0  0  0  0  0
  -22.5576  -16.7898   19.5333 O   0  0  0  0  0  0  0  0  0  0  0  0
  -32.2302  -13.2238   21.2784 O   0  0  0  0  0  0  0  0  0  0  0  0
  -21.6571   -6.9951   21.5277 O   0  0  0  0  0  0  0  0  0  0  0  0
  -27.3548  -18.3108   24.1186 O   0  0  0  0  0  0  0  0  0  1  0  0
  -24.4294   -2.3878   22.7489 F   0  0  0  0  0  0  0  0  0  0  0  0
  -21.1921   -5.6454   23.8951 F   0  0  0  0  0  0  0  0  0  0  0  0
  1  2  1  0  0  0  0
  1  5  2  0  0  0  0
  2  6  2  0  0  0  0
  3  8  2  0  0  0  0
  3 15  1  0  0  0  0
  4  9  1  0  0  0  0
  4 15  2  0  0  0  0
  5 17  1  0  0  0  0
  6 19  1  0  0  0  0
  7 10  2  0  0  0  0
  7 18  1  0  0  0  0
  8 23  1  0  0  0  0
  9 23  2  0  0  0  0
 10 24  1  0  0  0  0
 11 12  2  0  0  0  0
 11 25  1  0  0  0  0
 12 26  1  0  0  0  0
 13 20  1  0  0  0  0
 13 24  2  0  0  0  0
 14 26  2  0  0  0  0
 14 27  1  0  0  0  0
 15 28  1  0  0  0  0
 16 28  1  0  0  0  0
 16 31  2  0  0  0  0
 16 32  1  0  0  0  0
 17 19  2  0  0  0  0
 17 37  1  0  0  0  0
 18 20  2  0  0  0  0
 18 38  1  0  0  0  0
 19 46  1  0  0  0  0
 20 39  1  0  0  0  0
 21 22  1  0  0  0  0
 21 29  2  0  0  0  0
 21 49  1  0  0  0  0
 22 30  2  0  0  0  0
 22 57  1  0  0  0  0
 23 79  1  0  0  0  0
 24 80  1  0  0  0  0
 25 27  2  0  0  0  0
 25 79  1  0  0  0  0
 26 81  1  0  0  0  0
 27 82  1  0  0  0  0
 28 63  2  0  0  0  0
 29 50  1  0  0  0  0
 29 64  1  0  0  0  0
 30 51  1  0  0  0  0
 30 64  1  0  0  0  0
 31 65  1  0  0  0  0
 31 68  1  0  0  0  0
 32 69  1  0  0  0  0
 32 74  2  0  0  0  0
 33 47  1  0  0  0  0
 33 70  1  0  0  0  0
 33 75  2  0  0  0  0
 34 60  1  0  0  0  0
 34 66  1  0  0  0  0
 34 76  2  0  0  0  0
 35 61  1  0  0  0  0
 35 71  1  0  0  0  0
 35 77  2  0  0  0  0
 36 67  1  0  0  0  0
 36 72  1  0  0  0  0
 36 78  2  0  0  0  0
 37 40  1  0  0  0  0
 38 47  1  0  0  0  0
 39 66  1  0  0  0  0
 40 42  1  0  0  0  0
 41 43  1  0  0  0  0
 41 44  1  0  0  0  0
 42 46  1  0  0  0  0
 43 48  1  0  0  0  0
 44 67  1  0  0  0  0
 45 48  1  0  0  0  0
 45 67  1  0  0  0  0
 46 70  1  0  0  0  0
 47 66  1  0  0  0  0
 48 65  1  0  0  0  0
 52 61  1  0  0  0  0
 53 62  1  0  0  0  0
 54 62  1  0  0  0  0
 55 62  1  0  0  0  0
 56 73  1  0  0  0  0
 57 80  1  0  0  0  0
 58 59  1  0  0  0  0
 58 64  1  0  0  0  0
 59 72  1  0  0  0  0
 60 62  1  0  0  0  0
 60 71  1  0  0  0  0
 61 73  1  0  0  0  0
 63 65  1  0  0  0  0
M  CHG  1  73   1
M  ISO  4  36 100  57 101  72 100  80 101
M  END
> <Batch ID>
0168

> <Smiles>
CNC(C)C(=O)NC(C(=O)N1Cc2cc([101O:1][101CH2:1]c3c(C)c(C)n(CC[100NH:0][100C:0](=O)N4CCCC(n5nc(-c6ccc(Oc7ccc(F)cc7F)cc6)c(C(N)=O)c5N)C4)c3C)ccc2CC1C(=O)NC1CCCc2ccccc21)C(C)(C)C

> <Shape>
0.147

> <Color>
0.150

> <Negative vol penalty>
0.000

$$$$

  -OEChem-04052322303D

 88 98  0     1  0  0  0  0  0999 V2000
  -28.7467  -34.4346   25.2389 C   0  0  0  0  0  0  0  0  0  0  0  0
  -28.5293  -33.0674   25.1016 C   0  0  0  0  0  0  0  0  0  0  0  0
  -23.9053   -9.8541   22.3479 C   0  0  0  0  0  0  0  0  0  0  0  0
  -22.4834  -10.3239   20.4520 C   0  0  0  0  0  0  0  0  0  0  0  0
  -27.6912  -35.3284   25.0623 C   0  0  0  0  0  0  0  0  0  0  0  0
  -27.2559  -32.5930   24.7886 C   0  0  0  0  0  0  0  0  0  0  0  0
  -27.3410  -29.0231   21.1979 C   0  0  0  0  0  0  0  0  0  0  0  0
  -22.9628   -8.9459   22.8298 C   0  0  0  0  0  0  0  0  0  0  0  0
  -21.5408   -9.4156   20.9339 C   0  0  0  0  0  0  0  0  0  0  0  0
  -27.7164  -27.7379   21.5866 C   0  0  0  0  0  0  0  0  0  0  0  0
  -22.0108   -5.7661   22.1850 C   0  0  0  0  0  0  0  0  0  0  0  0
  -22.4740   -4.5328   22.6429 C   0  0  0  0  0  0  0  0  0  0  0  0
  -29.1810  -22.9218   21.7745 C   0  0  0  0  0  0  0  0  0  0  0  0
  -25.3944  -27.0878   21.6583 C   0  0  0  0  0  0  0  0  0  0  0  0
  -28.4512  -23.4089   24.0173 C   0  0  0  0  0  0  0  0  0  0  0  0
  -21.5569   -4.9998   24.8288 C   0  0  0  0  0  0  0  0  0  0  0  0
  -23.6656  -10.5432   21.1590 C   0  0  0  0  0  0  0  0  0  0  0  0
  -29.3791  -21.5820   22.1338 C   0  0  0  0  0  0  0  0  0  0  0  0
  -25.7111  -11.2128   19.7896 C   0  0  0  0  0  0  0  0  0  0  0  0
  -26.4064  -34.8653   24.7375 C   0  0  0  0  0  0  0  0  0  0  0  0
  -25.9867  -29.3539   21.0468 C   0  0  0  0  0  0  0  0  0  0  0  0
  -26.1820  -33.4813   24.6088 C   0  0  0  0  0  0  0  0  0  0  0  0
  -25.0046  -28.3772   21.2651 C   0  0  0  0  0  0  0  0  0  0  0  0
  -29.1245  -21.1217   23.4434 C   0  0  0  0  0  0  0  0  0  0  0  0
  -28.7155  -23.8318   22.7199 C   0  0  0  0  0  0  0  0  0  0  0  0
  -28.6546  -22.0734   24.3696 C   0  0  0  0  0  0  0  0  0  0  0  0
  -21.7805   -8.7266   22.1228 C   0  0  0  0  0  0  0  0  0  0  0  0
  -26.7429  -26.7708   21.8197 C   0  0  0  0  0  0  0  0  0  0  0  0
  -21.3206   -6.6164   23.0490 C   0  0  0  0  0  0  0  0  0  0  0  0
  -22.2471   -4.1495   23.9647 C   0  0  0  0  0  0  0  0  0  0  0  0
  -21.0937   -6.2332   24.3708 C   0  0  0  0  0  0  0  0  0  0  0  0
  -24.6387  -11.4819   20.6609 C   0  0  0  0  0  0  0  0  0  0  0  0
  -26.3318  -12.4268   19.6238 C   0  0  0  0  0  0  0  0  0  0  0  0
  -29.8879  -20.6031   21.1357 C   0  0  0  0  0  0  0  0  0  0  0  0
  -26.1105   -9.9760   19.1842 C   0  0  0  0  0  0  0  0  0  0  0  0
  -24.0141  -31.4222   22.4377 C   0  0  0  0  0  0  0  0  0  0  0  0
  -21.9531  -30.3968   20.1524 C   0  0  0  0  0  0  0  0  0  0  0  0
  -21.0354  -27.9379   17.9710 C   0  0  0  0  0  0  0  0  0  0  0  0
  -28.4329  -16.9940   21.8029 C   0  0  0  0  0  0  0  0  0  0  0  0
  -25.2865  -35.8665   24.6028 C   0  0  0  0  0  0  0  0  0  0  0  0
  -25.5994  -30.7373   20.6010 C   0  0  0  0  0  0  0  0  0  0  0  0
  -23.5380  -28.6760   21.0970 C   0  0  0  0  0  0  0  0  0  0  0  0
  -24.0501  -35.3069   23.9039 C   0  0  0  0  0  0  0  0  0  0  0  0
  -24.8958  -17.0819   20.9040 C   0  0  0  0  0  0  0  0  0  0  0  0
  -23.6884  -33.9388   24.4732 C   0  0  0  0  0  0  0  0  0  0  0  0
  -24.5921  -15.5950   20.7504 C   0  0  0  0  0  0  0  0  0  0  0  0
  -25.9263  -17.3554   22.0000 C   0  0  0  0  0  0  0  0  0  0  0  0
  -28.1029  -18.6752   23.7377 C   0  0  0  0  0  0  0  0  0  0  0  0
  -26.8717  -15.0788   21.6884 C   0  0  0  0  0  0  0  0  0  0  0  0
  -29.3303  -19.6043   23.8573 C   0  0  1  0  0  0  0  0  0  0  0  0
  -24.8204  -32.9297   24.2456 C   0  0  1  0  0  0  0  0  0  0  0  0
  -30.6751  -19.3982   21.6401 C   0  0  2  0  0  0  0  0  0  0  0  0
  -24.1679  -31.1072   20.9766 C   0  0  1  0  0  0  0  0  0  0  0  0
  -25.8895  -14.7990   20.5426 C   0  0  1  0  0  0  0  0  0  0  0  0
  -30.0390  -18.6924   22.8331 C   0  0  2  0  0  0  0  0  0  0  0  0
  -28.3461  -21.6645   25.7760 C   0  0  0  0  0  0  0  0  0  0  0  0
  -32.0933  -19.8441   22.0034 C   0  0  0  0  0  0  0  0  0  0  0  0
  -19.2858  -27.3715   16.2635 C   0  0  0  0  0  0  0  0  0  0  0  0
  -19.9677  -29.7950   22.3899 C   0  0  0  0  0  0  0  0  0  0  0  0
  -18.6746  -28.3905   20.7701 C   0  0  0  0  0  0  0  0  0  0  0  0
  -18.9583  -30.8332   20.3508 C   0  0  0  0  0  0  0  0  0  0  0  0
  -23.0442  -27.7476   15.8059 C   0  0  0  0  0  0  0  0  0  0  0  0
  -30.1019  -19.7656   17.8290 C   0  0  0  0  0  0  0  0  0  0  0  0
  -28.5026  -25.2583   22.3409 C   0  0  0  0  0  0  0  0  0  1  0  0
  -20.9355  -29.2863   20.0510 C   0  0  1  0  0  0  0  0  0  0  0  0
  -20.6570  -27.9846   16.5016 C   0  0  2  0  0  0  0  0  0  0  0  0
  -19.6615  -29.5708   20.8956 C   0  0  0  0  0  0  0  0  0  0  0  0
  -24.5786  -12.7660   21.0235 N   0  0  0  0  0  0  0  0  0  0  0  0
  -29.7116  -20.7263   19.8592 N   0  0  0  0  0  0  0  0  0  0  0  0
  -25.6213  -13.3146   20.3769 N   0  0  0  0  0  0  0  0  0  0  0  0
  -23.2094  -30.0448   20.6658 N   0  0  0  0  0  0  0  0  0  0  0  0
  -27.1191  -16.5146   21.8518 N   0  0  0  0  0  0  0  0  0  0  0  0
  -28.7123  -18.1422   22.5219 N   0  0  0  0  0  0  0  0  0  0  0  0
  -27.4106  -12.8107   18.9089 N   0  0  0  0  0  0  0  0  0  0  0  0
  -25.3619   -8.8240   19.4612 N   0  0  0  0  0  0  0  0  0  0  0  0
  -24.8123  -32.4615   22.8762 N   0  0  0  0  0  0  0  0  0  0  0  0
  -20.6786  -29.0968   18.6274 N   0  0  0  0  0  0  0  0  0  0  0  0
  -21.6546  -27.2361   15.6858 N   0  3  0  0  0  0  0  0  0  0  0  0
  -27.1117   -9.8916   18.4331 O   0  0  0  0  0  0  0  0  0  0  0  0
  -23.2284  -30.7716   23.1166 O   0  0  0  0  0  0  0  0  0  0  0  0
  -21.6469  -31.5332   19.7829 O   0  0  0  0  0  0  0  0  0  0  0  0
  -21.5886  -26.9686   18.4859 O   0  0  0  0  0  0  0  0  0  0  0  0
  -29.3231  -16.4139   21.1699 O   0  0  0  0  0  0  0  0  0  0  0  0
  -20.8606   -7.8403   22.5927 O   0  0  0  0  0  0  0  0  0  0  0  0
  -27.1090  -25.5071   22.2024 O   0  0  0  0  0  0  0  0  0  1  0  0
  -30.2990  -19.6238   19.2279 O   0  0  0  0  0  0  0  0  0  0  0  0
  -22.6907   -2.9644   24.4039 F   0  0  0  0  0  0  0  0  0  0  0  0
  -20.4302   -7.0453   25.2052 F   0  0  0  0  0  0  0  0  0  0  0  0
  1  2  1  0  0  0  0
  1  5  2  0  0  0  0
  2  6  2  0  0  0  0
  3  8  2  0  0  0  0
  3 17  1  0  0  0  0
  4  9  1  0  0  0  0
  4 17  2  0  0  0  0
  5 20  1  0  0  0  0
  6 22  1  0  0  0  0
  7 10  2  0  0  0  0
  7 21  1  0  0  0  0
  8 27  1  0  0  0  0
  9 27  2  0  0  0  0
 10 28  1  0  0  0  0
 11 12  2  0  0  0  0
 11 29  1  0  0  0  0
 12 30  1  0  0  0  0
 13 18  1  0  0  0  0
 13 25  2  0  0  0  0
 14 23  1  0  0  0  0
 14 28  2  0  0  0  0
 15 25  1  0  0  0  0
 15 26  2  0  0  0  0
 16 30  2  0  0  0  0
 16 31  1  0  0  0  0
 17 32  1  0  0  0  0
 18 24  2  0  0  0  0
 18 34  1  0  0  0  0
 19 32  1  0  0  0  0
 19 33  2  0  0  0  0
 19 35  1  0  0  0  0
 20 22  2  0  0  0  0
 20 40  1  0  0  0  0
 21 23  2  0  0  0  0
 21 41  1  0  0  0  0
 22 51  1  0  0  0  0
 23 42  1  0  0  0  0
 24 26  1  0  0  0  0
 24 50  1  0  0  0  0
 25 64  1  0  0  0  0
 26 56  1  0  0  0  0
 27 84  1  0  0  0  0
 28 85  1  0  0  0  0
 29 31  2  0  0  0  0
 29 84  1  0  0  0  0
 30 87  1  0  0  0  0
 31 88  1  0  0  0  0
 32 68  2  0  0  0  0
 33 70  1  0  0  0  0
 33 74  1  0  0  0  0
 34 52  1  0  0  0  0
 34 69  2  0  0  0  0
 35 75  1  0  0  0  0
 35 79  2  0  0  0  0
 36 53  1  0  0  0  0
 36 76  1  0  0  0  0
 36 80  2  0  0  0  0
 37 65  1  0  0  0  0
 37 71  1  0  0  0  0
 37 81  2  0  0  0  0
 38 66  1  0  0  0  0
 38 77  1  0  0  0  0
 38 82  2  0  0  0  0
 39 72  1  0  0  0  0
 39 73  1  0  0  0  0
 39 83  2  0  0  0  0
 40 43  1  0  0  0  0
 41 53  1  0  0  0  0
 42 71  1  0  0  0  0
 43 45  1  0  0  0  0
 44 46  1  0  0  0  0
 44 47  1  0  0  0  0
 45 51  1  0  0  0  0
 46 54  1  0  0  0  0
 47 72  1  0  0  0  0
 48 50  1  0  0  0  0
 48 73  1  0  0  0  0
 49 54  1  0  0  0  0
 49 72  1  0  0  0  0
 50 55  1  0  0  0  0
 51 76  1  0  0  0  0
 52 55  1  0  0  0  0
 52 57  1  0  0  0  0
 53 71  1  0  0  0  0
 54 70  1  0  0  0  0
 55 73  1  0  0  0  0
 58 66  1  0  0  0  0
 59 67  1  0  0  0  0
 60 67  1  0  0  0  0
 61 67  1  0  0  0  0
 62 78  1  0  0  0  0
 63 86  1  0  0  0  0
 64 85  1  0  0  0  0
 65 67  1  0  0  0  0
 65 77  1  0  0  0  0
 66 78  1  0  0  0  0
 68 70  1  0  0  0  0
 69 86  1  0  0  0  0
M  CHG  1  78   1
M  ISO  4  39 100  64 101  73 100  85 101
M  END
> <Batch ID>
0168

> <Smiles>
CNC(C)C(=O)NC(C(=O)N1Cc2cc([101O:1][101CH2:1]c3cc(C)c4c(c3)C(=NOC)C(C)C3C4C[100N:0]3[100C:0](=O)N3CCCC(n4nc(-c5ccc(Oc6ccc(F)cc6F)cc5)c(C(N)=O)c4N)C3)ccc2CC1C(=O)NC1CCCc2ccccc21)C(C)(C)C

> <Shape>
0.283

> <Color>
0.082

> <Negative vol penalty>
0.000

$$$$

  -OEChem-04052322303D

 90 99  0     1  0  0  0  0  0999 V2000
  -32.1693  -32.4989   23.7582 C   0  0  0  0  0  0  0  0  0  0  0  0
  -31.6814  -31.4942   22.9286 C   0  0  0  0  0  0  0  0  0  0  0  0
  -26.6699  -12.4967   21.8011 C   0  0  0  0  0  0  0  0  0  0  0  0
  -25.9024  -14.0012   20.0736 C   0  0  0  0  0  0  0  0  0  0  0  0
  -31.4718  -32.8467   24.9142 C   0  0  0  0  0  0  0  0  0  0  0  0
  -30.4963  -30.8361   23.2553 C   0  0  0  0  0  0  0  0  0  0  0  0
  -27.4165  -30.2891   19.2727 C   0  0  0  0  0  0  0  0  0  0  0  0
  -25.4025  -11.9171   21.8594 C   0  0  0  0  0  0  0  0  0  0  0  0
  -24.6350  -13.4216   20.1318 C   0  0  0  0  0  0  0  0  0  0  0  0
  -27.7217  -29.2746   18.3664 C   0  0  0  0  0  0  0  0  0  0  0  0
  -23.6047   -9.6745   20.0785 C   0  0  0  0  0  0  0  0  0  0  0  0
  -23.5298   -8.2823   20.1185 C   0  0  0  0  0  0  0  0  0  0  0  0
  -27.2193  -23.3543   21.7955 C   0  0  0  0  0  0  0  0  0  0  0  0
  -26.0474  -27.8686   19.3858 C   0  0  0  0  0  0  0  0  0  0  0  0
  -24.8857  -21.8652   21.4496 C   0  0  0  0  0  0  0  0  0  0  0  0
  -22.3931   -8.4046   22.2469 C   0  0  0  0  0  0  0  0  0  0  0  0
  -26.9198  -13.5388   20.9082 C   0  0  0  0  0  0  0  0  0  0  0  0
  -29.3056  -13.7481   20.0295 C   0  0  0  0  0  0  0  0  0  0  0  0
  -30.2725  -32.1991   25.2502 C   0  0  0  0  0  0  0  0  0  0  0  0
  -26.4304  -30.0967   20.2510 C   0  0  0  0  0  0  0  0  0  0  0  0
  -29.7829  -31.1746   24.4176 C   0  0  0  0  0  0  0  0  0  0  0  0
  -27.1724  -22.3445   20.8344 C   0  0  0  0  0  0  0  0  0  0  0  0
  -25.7298  -28.8832   20.3017 C   0  0  0  0  0  0  0  0  0  0  0  0
  -26.0994  -23.6195   22.5837 C   0  0  0  0  0  0  0  0  0  0  0  0
  -26.0056  -21.6000   20.6614 C   0  0  0  0  0  0  0  0  0  0  0  0
  -24.9326  -22.8750   22.4107 C   0  0  0  0  0  0  0  0  0  0  0  0
  -24.3851  -12.3795   21.0248 C   0  0  0  0  0  0  0  0  0  0  0  0
  -27.0391  -28.0631   18.4247 C   0  0  0  0  0  0  0  0  0  0  0  0
  -23.0738  -10.4318   21.1228 C   0  0  0  0  0  0  0  0  0  0  0  0
  -22.9239   -7.6473   21.2027 C   0  0  0  0  0  0  0  0  0  0  0  0
  -22.4680   -9.7969   22.2069 C   0  0  0  0  0  0  0  0  0  0  0  0
  -28.2287  -14.1383   20.8479 C   0  0  0  0  0  0  0  0  0  0  0  0
  -30.3130  -14.6264   20.3457 C   0  0  0  0  0  0  0  0  0  0  0  0
  -29.3878  -12.6866   19.0692 C   0  0  0  0  0  0  0  0  0  0  0  0
  -26.3997  -30.0653   23.4293 C   0  0  0  0  0  0  0  0  0  0  0  0
  -23.1931  -29.8167   23.0076 C   0  0  0  0  0  0  0  0  0  0  0  0
  -20.5989  -28.9007   20.9882 C   0  0  0  0  0  0  0  0  0  0  0  0
  -30.3276  -20.1786   22.5871 C   0  0  0  0  0  0  0  0  0  0  0  0
  -29.5786  -32.5770   26.5348 C   0  0  0  0  0  0  0  0  0  0  0  0
  -26.0944  -31.2107   21.2043 C   0  0  0  0  0  0  0  0  0  0  0  0
  -24.6483  -28.6338   21.3199 C   0  0  0  0  0  0  0  0  0  0  0  0
  -28.1344  -32.0888   26.6134 C   0  0  0  0  0  0  0  0  0  0  0  0
  -31.9422  -17.3143   23.9529 C   0  0  0  0  0  0  0  0  0  0  0  0
  -28.0401  -30.6289   26.1814 C   0  0  0  0  0  0  0  0  0  0  0  0
  -31.2707  -16.1403   23.2382 C   0  0  0  0  0  0  0  0  0  0  0  0
  -30.7598  -22.0184   19.8482 C   0  0  0  0  0  0  0  0  0  0  0  0
  -30.9525  -18.4415   24.2390 C   0  0  0  0  0  0  0  0  0  0  0  0
  -29.5328  -17.7481   22.3476 C   0  0  0  0  0  0  0  0  0  0  0  0
  -28.4878  -30.4545   24.7251 C   0  0  1  0  0  0  0  0  0  0  0  0
  -28.3805  -22.0798   20.0039 C   0  0  2  0  0  0  0  0  0  0  0  0
  -25.4297  -30.7196   22.4866 C   0  0  1  0  0  0  0  0  0  0  0  0
  -30.5031  -16.6100   21.9878 C   0  0  2  0  0  0  0  0  0  0  0  0
  -29.6304  -21.8014   20.8437 C   0  0  1  0  0  0  0  0  0  0  0  0
  -30.3399  -23.2578   19.0596 C   0  0  2  0  0  0  0  0  0  0  0  0
  -26.1734  -24.7049   23.6070 C   0  0  0  0  0  0  0  0  0  0  0  0
  -25.9318  -20.5145   19.6384 C   0  0  0  0  0  0  0  0  0  0  0  0
  -23.7216  -23.1404   23.2434 C   0  0  0  0  0  0  0  0  0  0  0  0
  -30.8951  -24.5539   19.6350 C   0  0  0  0  0  0  0  0  0  0  0  0
  -18.0929  -28.7804   20.9329 C   0  0  0  0  0  0  0  0  0  0  0  0
  -27.9192  -24.8268   15.7541 C   0  0  0  0  0  0  0  0  0  0  0  0
  -23.2741  -27.3515   24.8038 C   0  0  0  0  0  0  0  0  0  0  0  0
  -20.9981  -26.7445   23.9555 C   0  0  0  0  0  0  0  0  0  0  0  0
  -21.3326  -28.8746   25.2098 C   0  0  0  0  0  0  0  0  0  0  0  0
  -20.4449  -30.7553   18.6870 C   0  0  0  0  0  0  0  0  0  0  0  0
  -28.1235  -23.3792   17.8357 C   0  0  0  0  0  0  0  0  0  0  0  0
  -27.1518  -25.7280   17.9880 C   0  0  0  0  0  0  0  0  0  1  0  0
  -22.2209  -28.6724   22.8514 C   0  0  1  0  0  0  0  0  0  0  0  0
  -19.3180  -29.6198   20.6052 C   0  0  2  0  0  0  0  0  0  0  0  0
  -28.1436  -24.8040   17.2703 C   0  0  2  0  0  0  0  0  0  0  0  0
  -21.9781  -27.9144   24.1871 C   0  0  0  0  0  0  0  0  0  0  0  0
  -28.5244  -15.1830   21.6258 N   0  0  0  0  0  0  0  0  0  0  0  0
  -29.7985  -15.4568   21.2975 N   0  0  0  0  0  0  0  0  0  0  0  0
  -24.3606  -29.7514   22.2341 N   0  0  0  0  0  0  0  0  0  0  0  0
  -30.2592  -18.8415   23.0121 N   0  0  0  0  0  0  0  0  0  0  0  0
  -31.5800  -14.7617   19.8997 N   0  0  0  0  0  0  0  0  0  0  0  0
  -28.2602  -11.8790   18.8677 N   0  0  0  0  0  0  0  0  0  0  0  0
  -27.4428  -30.8830   23.8203 N   0  0  0  0  0  0  0  0  0  0  0  0
  -21.0146  -29.2396   22.2585 N   0  0  0  0  0  0  0  0  0  0  0  0
  -29.6477  -20.4716   21.4113 N   0  0  0  0  0  0  0  0  0  0  0  0
  -28.8057  -23.2903   19.1485 N   0  3  1  0  0  0  0  0  0  0  0  0
  -19.3074  -29.9165   19.1448 N   0  3  0  0  0  0  0  0  0  0  0  0
  -30.4356  -12.4507   18.4211 O   0  0  0  0  0  0  0  0  0  0  0  0
  -26.2146  -28.9051   23.7775 O   0  0  0  0  0  0  0  0  0  0  0  0
  -22.9230  -30.7381   23.7820 O   0  0  0  0  0  0  0  0  0  0  0  0
  -21.1712  -28.1139   20.2372 O   0  0  0  0  0  0  0  0  0  0  0  0
  -30.9530  -21.0458   23.2067 O   0  0  0  0  0  0  0  0  0  0  0  0
  -23.1483  -11.8140   21.0812 O   0  0  0  0  0  0  0  0  0  0  0  0
  -27.3355  -27.0709   17.5417 O   0  0  0  0  0  0  0  0  0  1  0  0
  -22.8507   -6.3104   21.2402 F   0  0  0  0  0  0  0  0  0  0  0  0
  -21.9552  -10.5191   23.2125 F   0  0  0  0  0  0  0  0  0  0  0  0
  1  2  1  0  0  0  0
  1  5  2  0  0  0  0
  2  6  2  0  0  0  0
  3  8  2  0  0  0  0
  3 17  1  0  0  0  0
  4  9  1  0  0  0  0
  4 17  2  0  0  0  0
  5 19  1  0  0  0  0
  6 21  1  0  0  0  0
  7 10  2  0  0  0  0
  7 20  1  0  0  0  0
  8 27  1  0  0  0  0
  9 27  2  0  0  0  0
 10 28  1  0  0  0  0
 11 12  2  0  0  0  0
 11 29  1  0  0  0  0
 12 30  1  0  0  0  0
 13 22  1  0  0  0  0
 13 24  2  0  0  0  0
 14 23  1  0  0  0  0
 14 28  2  0  0  0  0
 15 25  1  0  0  0  0
 15 26  2  0  0  0  0
 16 30  2  0  0  0  0
 16 31  1  0  0  0  0
 17 32  1  0  0  0  0
 18 32  1  0  0  0  0
 18 33  2  0  0  0  0
 18 34  1  0  0  0  0
 19 21  2  0  0  0  0
 19 39  1  0  0  0  0
 20 23  2  0  0  0  0
 20 40  1  0  0  0  0
 21 49  1  0  0  0  0
 22 25  2  0  0  0  0
 22 50  1  0  0  0  0
 23 41  1  0  0  0  0
 24 26  1  0  0  0  0
 24 55  1  0  0  0  0
 25 56  1  0  0  0  0
 26 57  1  0  0  0  0
 27 87  1  0  0  0  0
 28 88  1  0  0  0  0
 29 31  2  0  0  0  0
 29 87  1  0  0  0  0
 30 89  1  0  0  0  0
 31 90  1  0  0  0  0
 32 71  2  0  0  0  0
 33 72  1  0  0  0  0
 33 75  1  0  0  0  0
 34 76  1  0  0  0  0
 34 82  2  0  0  0  0
 35 51  1  0  0  0  0
 35 77  1  0  0  0  0
 35 83  2  0  0  0  0
 36 67  1  0  0  0  0
 36 73  1  0  0  0  0
 36 84  2  0  0  0  0
 37 68  1  0  0  0  0
 37 78  1  0  0  0  0
 37 85  2  0  0  0  0
 38 74  1  0  0  0  0
 38 79  1  0  0  0  0
 38 86  2  0  0  0  0
 39 42  1  0  0  0  0
 40 51  1  0  0  0  0
 41 73  1  0  0  0  0
 42 44  1  0  0  0  0
 43 45  1  0  0  0  0
 43 47  1  0  0  0  0
 44 49  1  0  0  0  0
 45 52  1  0  0  0  0
 46 53  1  0  0  0  0
 46 54  1  0  0  0  0
 47 74  1  0  0  0  0
 48 52  1  0  0  0  0
 48 74  1  0  0  0  0
 49 77  1  0  0  0  0
 50 53  1  0  0  0  0
 50 80  1  0  0  0  0
 51 73  1  0  0  0  0
 52 72  1  0  0  0  0
 53 79  1  0  0  0  0
 54 58  1  0  0  0  0
 54 80  1  0  0  0  0
 59 68  1  0  0  0  0
 60 69  1  0  0  0  0
 61 70  1  0  0  0  0
 62 70  1  0  0  0  0
 63 70  1  0  0  0  0
 64 81  1  0  0  0  0
 65 69  1  0  0  0  0
 65 80  1  0  0  0  0
 66 69  1  0  0  0  0
 66 88  1  0  0  0  0
 67 70  1  0  0  0  0
 67 78  1  0  0  0  0
 68 81  1  0  0  0  0
 71 72  1  0  0  0  0
M  CHG  2  80   1  81   1
M  ISO  4  38 100  66 101  79 100  88 101
M  END
> <Batch ID>
0168

> <Smiles>
CNC(C)C(=O)NC(C(=O)N1Cc2cc([101O:1][101CH2:1]C(C)CN3C(C)CC([100NH:0][100C:0](=O)N4CCCC(n5nc(-c6ccc(Oc7ccc(F)cc7F)cc6)c(C(N)=O)c5N)C4)C3c3cc(C)c(C)cc3C)ccc2CC1C(=O)NC1CCCc2ccccc21)C(C)(C)C

> <Shape>
0.292

> <Color>
0.078

> <Negative vol penalty>
0.000

$$$$

  -OEChem-04052322303D

 86 95  0     1  0  0  0  0  0999 V2000
  -28.5584  -36.2818   24.2583 C   0  0  0  0  0  0  0  0  0  0  0  0
  -28.8701  -34.9953   23.8305 C   0  0  0  0  0  0  0  0  0  0  0  0
  -22.8689  -10.4118   21.7488 C   0  0  0  0  0  0  0  0  0  0  0  0
  -24.2822   -9.1807   20.2242 C   0  0  0  0  0  0  0  0  0  0  0  0
  -27.2873  -36.5599   24.7592 C   0  0  0  0  0  0  0  0  0  0  0  0
  -27.9111  -33.9857   23.9044 C   0  0  0  0  0  0  0  0  0  0  0  0
  -27.1510  -29.3365   19.9912 C   0  0  0  0  0  0  0  0  0  0  0  0
  -22.1262   -9.2567   21.9931 C   0  0  0  0  0  0  0  0  0  0  0  0
  -23.5395   -8.0256   20.4686 C   0  0  0  0  0  0  0  0  0  0  0  0
  -27.5582  -28.0036   20.0278 C   0  0  0  0  0  0  0  0  0  0  0  0
  -22.4338   -6.4419   23.8412 C   0  0  0  0  0  0  0  0  0  0  0  0
  -22.1140   -6.1451   25.1660 C   0  0  0  0  0  0  0  0  0  0  0  0
  -25.4023  -27.3755   20.9092 C   0  0  0  0  0  0  0  0  0  0  0  0
  -19.7624   -6.2487   24.6215 C   0  0  0  0  0  0  0  0  0  0  0  0
  -23.9469  -10.3738   20.8643 C   0  0  0  0  0  0  0  0  0  0  0  0
  -25.8535  -12.0091   21.3097 C   0  0  0  0  0  0  0  0  0  0  0  0
  -26.3092  -35.5554   24.8303 C   0  0  0  0  0  0  0  0  0  0  0  0
  -25.8681  -29.7010   20.4244 C   0  0  0  0  0  0  0  0  0  0  0  0
  -26.6262  -34.2502   24.4080 C   0  0  0  0  0  0  0  0  0  0  0  0
  -24.9804  -28.7134   20.8747 C   0  0  0  0  0  0  0  0  0  0  0  0
  -25.9666  -22.1132   20.3942 C   0  0  0  0  0  0  0  0  0  0  0  0
  -25.9999  -20.9247   19.6732 C   0  0  0  0  0  0  0  0  0  0  0  0
  -25.4508  -19.7705   20.2206 C   0  0  0  0  0  0  0  0  0  0  0  0
  -22.4615   -8.0636   21.3531 C   0  0  0  0  0  0  0  0  0  0  0  0
  -26.6848  -27.0232   20.4895 C   0  0  0  0  0  0  0  0  0  0  0  0
  -21.4180   -6.6423   22.9065 C   0  0  0  0  0  0  0  0  0  0  0  0
  -20.7783   -6.0484   25.5562 C   0  0  0  0  0  0  0  0  0  0  0  0
  -20.0823   -6.5456   23.2967 C   0  0  0  0  0  0  0  0  0  0  0  0
  -24.7141  -11.5668   20.6110 C   0  0  0  0  0  0  0  0  0  0  0  0
  -25.3774  -22.0948   21.6481 C   0  0  0  0  0  0  0  0  0  0  0  0
  -24.8849  -19.8569   21.4824 C   0  0  0  0  0  0  0  0  0  0  0  0
  -26.2045  -13.1818   20.6867 C   0  0  0  0  0  0  0  0  0  0  0  0
  -26.5337  -11.4132   22.4222 C   0  0  0  0  0  0  0  0  0  0  0  0
  -24.7246  -31.5593   22.7358 C   0  0  0  0  0  0  0  0  0  0  0  0
  -21.8807  -30.9098   21.3172 C   0  0  0  0  0  0  0  0  0  0  0  0
  -20.0323  -28.8151   19.3570 C   0  0  0  0  0  0  0  0  0  0  0  0
  -24.4140  -18.1587   18.6324 C   0  0  0  0  0  0  0  0  0  0  0  0
  -24.9641  -35.8927   25.4232 C   0  0  0  0  0  0  0  0  0  0  0  0
  -25.4348  -31.1396   20.3535 C   0  0  0  0  0  0  0  0  0  0  0  0
  -23.5853  -29.0499   21.3319 C   0  0  0  0  0  0  0  0  0  0  0  0
  -23.8869  -34.8546   25.1192 C   0  0  0  0  0  0  0  0  0  0  0  0
  -24.5914  -15.2488   16.3717 C   0  0  0  0  0  0  0  0  0  0  0  0
  -24.4175  -33.4463   25.3678 C   0  0  0  0  0  0  0  0  0  0  0  0
  -24.6657  -14.0694   17.3399 C   0  0  0  0  0  0  0  0  0  0  0  0
  -23.8207  -16.4233   16.9671 C   0  0  0  0  0  0  0  0  0  0  0  0
  -24.4176  -15.6963   19.2574 C   0  0  0  0  0  0  0  0  0  0  0  0
  -26.5427  -23.3623   19.8363 C   0  0  2  0  0  0  0  0  0  0  0  0
  -25.6051  -33.1341   24.4492 C   0  0  1  0  0  0  0  0  0  0  0  0
  -24.2851  -31.4648   21.3021 C   0  0  1  0  0  0  0  0  0  0  0  0
  -25.2249  -14.5129   18.7029 C   0  0  1  0  0  0  0  0  0  0  0  0
  -26.0565  -24.6982   20.3562 C   0  0  2  0  0  0  0  0  0  1  0  0
  -25.7171  -24.2849   18.9423 C   0  0  0  0  0  0  0  0  0  0  0  0
  -26.6257  -20.8899   18.3142 C   0  0  0  0  0  0  0  0  0  0  0  0
  -25.3110  -23.3400   22.4713 C   0  0  0  0  0  0  0  0  0  0  0  0
  -24.2778  -18.6524   22.1253 C   0  0  0  0  0  0  0  0  0  0  0  0
  -24.2727  -23.9610   18.6473 C   0  0  0  0  0  0  0  0  0  0  0  0
  -26.4299  -24.9461   17.7885 C   0  0  0  0  0  0  0  0  0  0  0  0
  -17.7279  -28.5297   18.4053 C   0  0  0  0  0  0  0  0  0  0  0  0
  -20.8679  -30.0018   24.0484 C   0  0  0  0  0  0  0  0  0  0  0  0
  -18.9606  -28.8696   22.8872 C   0  0  0  0  0  0  0  0  0  0  0  0
  -19.2276  -31.3442   22.7210 C   0  0  0  0  0  0  0  0  0  0  0  0
  -26.7118  -17.7417   19.4785 C   0  0  0  0  0  0  0  0  0  0  0  0
  -21.0405  -28.9290   16.5768 C   0  0  0  0  0  0  0  0  0  0  0  0
  -20.8288  -29.8381   21.4720 C   0  0  1  0  0  0  0  0  0  0  0  0
  -19.1240  -29.0853   18.1710 C   0  0  2  0  0  0  0  0  0  0  0  0
  -19.9981  -30.0070   22.7754 C   0  0  0  0  0  0  0  0  0  0  0  0
  -24.3645  -12.3915   19.6202 N   0  0  0  0  0  0  0  0  0  0  0  0
  -24.8338  -20.9934   22.2128 N   0  0  0  0  0  0  0  0  0  0  0  0
  -25.2895  -13.3638   19.6918 N   0  0  0  0  0  0  0  0  0  0  0  0
  -23.2107  -30.4713   21.2495 N   0  0  0  0  0  0  0  0  0  0  0  0
  -24.3434  -16.7953   18.2824 N   0  0  0  0  0  0  0  0  0  0  0  0
  -27.2034  -14.0649   20.8985 N   0  0  0  0  0  0  0  0  0  0  0  0
  -26.0401  -10.2077   22.9393 N   0  0  0  0  0  0  0  0  0  0  0  0
  -25.1427  -32.8209   23.1141 N   0  0  0  0  0  0  0  0  0  0  0  0
  -20.0340  -29.8666   20.2490 N   0  0  0  0  0  0  0  0  0  0  0  0
  -25.4698  -18.5214   19.4965 N   0  0  0  0  0  0  0  0  0  0  0  0
  -19.6795  -28.4565   16.9394 N   0  3  0  0  0  0  0  0  0  0  0  0
  -27.5395  -11.9427   22.9528 O   0  0  0  0  0  0  0  0  0  0  0  0
  -24.6859  -30.5619   23.4466 O   0  0  0  0  0  0  0  0  0  0  0  0
  -21.5345  -32.0920   21.2513 O   0  0  0  0  0  0  0  0  0  0  0  0
  -20.6731  -27.7738   19.4816 O   0  0  0  0  0  0  0  0  0  0  0  0
  -23.6150  -18.9895   18.1842 O   0  0  0  0  0  0  0  0  0  0  0  0
  -21.7371   -6.9362   21.5915 O   0  0  0  0  0  0  0  0  0  0  0  0
  -27.0799  -25.7216   20.5269 O   0  0  0  0  0  0  0  0  0  1  0  0
  -20.4713   -5.7618   26.8281 F   0  0  0  0  0  0  0  0  0  0  0  0
  -19.1020   -6.7359   22.4030 F   0  0  0  0  0  0  0  0  0  0  0  0
  1  2  1  0  0  0  0
  1  5  2  0  0  0  0
  2  6  2  0  0  0  0
  3  8  2  0  0  0  0
  3 15  1  0  0  0  0
  4  9  1  0  0  0  0
  4 15  2  0  0  0  0
  5 17  1  0  0  0  0
  6 19  1  0  0  0  0
  7 10  2  0  0  0  0
  7 18  1  0  0  0  0
  8 24  1  0  0  0  0
  9 24  2  0  0  0  0
 10 25  1  0  0  0  0
 11 12  2  0  0  0  0
 11 26  1  0  0  0  0
 12 27  1  0  0  0  0
 13 20  1  0  0  0  0
 13 25  2  0  0  0  0
 14 27  2  0  0  0  0
 14 28  1  0  0  0  0
 15 29  1  0  0  0  0
 16 29  1  0  0  0  0
 16 32  2  0  0  0  0
 16 33  1  0  0  0  0
 17 19  2  0  0  0  0
 17 38  1  0  0  0  0
 18 20  2  0  0  0  0
 18 39  1  0  0  0  0
 19 48  1  0  0  0  0
 20 40  1  0  0  0  0
 21 22  2  0  0  0  0
 21 30  1  0  0  0  0
 21 47  1  0  0  0  0
 22 23  1  0  0  0  0
 22 53  1  0  0  0  0
 23 31  2  0  0  0  0
 23 76  1  0  0  0  0
 24 83  1  0  0  0  0
 25 84  1  0  0  0  0
 26 28  2  0  0  0  0
 26 83  1  0  0  0  0
 27 85  1  0  0  0  0
 28 86  1  0  0  0  0
 29 67  2  0  0  0  0
 30 54  1  0  0  0  0
 30 68  2  0  0  0  0
 31 55  1  0  0  0  0
 31 68  1  0  0  0  0
 32 69  1  0  0  0  0
 32 72  1  0  0  0  0
 33 73  1  0  0  0  0
 33 78  2  0  0  0  0
 34 49  1  0  0  0  0
 34 74  1  0  0  0  0
 34 79  2  0  0  0  0
 35 64  1  0  0  0  0
 35 70  1  0  0  0  0
 35 80  2  0  0  0  0
 36 65  1  0  0  0  0
 36 75  1  0  0  0  0
 36 81  2  0  0  0  0
 37 71  1  0  0  0  0
 37 76  1  0  0  0  0
 37 82  2  0  0  0  0
 38 41  1  0  0  0  0
 39 49  1  0  0  0  0
 40 70  1  0  0  0  0
 41 43  1  0  0  0  0
 42 44  1  0  0  0  0
 42 45  1  0  0  0  0
 43 48  1  0  0  0  0
 44 50  1  0  0  0  0
 45 71  1  0  0  0  0
 46 50  1  0  0  0  0
 46 71  1  0  0  0  0
 47 51  1  0  0  0  0
 47 52  1  0  0  0  0
 48 74  1  0  0  0  0
 49 70  1  0  0  0  0
 50 69  1  0  0  0  0
 51 52  1  0  0  0  0
 51 84  1  0  0  0  0
 52 56  1  0  0  0  0
 52 57  1  0  0  0  0
 58 65  1  0  0  0  0
 59 66  1  0  0  0  0
 60 66  1  0  0  0  0
 61 66  1  0  0  0  0
 62 76  1  0  0  0  0
 63 77  1  0  0  0  0
 64 66  1  0  0  0  0
 64 75  1  0  0  0  0
 65 77  1  0  0  0  0
 67 69  1  0  0  0  0
M  CHG  1  77   1
M  ISO  4  37 100  51 101  76 100  84 101
M  END
> <Batch ID>
0168

> <Smiles>
CNC(C)C(=O)NC(C(=O)N1Cc2cc([101O:1][101CH:1]3C(c4c(C)nc(C)c([100N:0](C)[100C:0](=O)N5CCCC(n6nc(-c7ccc(Oc8ccc(F)cc8F)cc7)c(C(N)=O)c6N)C5)c4C)C3(C)C)ccc2CC1C(=O)NC1CCCc2ccccc21)C(C)(C)C

> <Shape>
0.236

> <Color>
0.100

> <Negative vol penalty>
0.000

$$$$

  -OEChem-04052322303D

 85 94  0     1  0  0  0  0  0999 V2000
  -28.6325  -37.0325   19.9843 C   0  0  0  0  0  0  0  0  0  0  0  0
  -28.9349  -35.6925   19.7647 C   0  0  0  0  0  0  0  0  0  0  0  0
  -23.1902  -10.5234   21.3834 C   0  0  0  0  0  0  0  0  0  0  0  0
  -24.8118   -8.7948   21.8523 C   0  0  0  0  0  0  0  0  0  0  0  0
  -27.7634  -37.3901   21.0143 C   0  0  0  0  0  0  0  0  0  0  0  0
  -28.3692  -34.7093   20.5757 C   0  0  0  0  0  0  0  0  0  0  0  0
  -26.6816  -29.0687   18.8898 C   0  0  0  0  0  0  0  0  0  0  0  0
  -22.1863   -9.5587   21.2992 C   0  0  0  0  0  0  0  0  0  0  0  0
  -23.8078   -7.8302   21.7681 C   0  0  0  0  0  0  0  0  0  0  0  0
  -27.3082  -27.8285   19.0046 C   0  0  0  0  0  0  0  0  0  0  0  0
  -21.3193   -6.6498   23.7263 C   0  0  0  0  0  0  0  0  0  0  0  0
  -21.2849   -5.6646   24.7130 C   0  0  0  0  0  0  0  0  0  0  0  0
  -26.0701  -27.3971   21.0295 C   0  0  0  0  0  0  0  0  0  0  0  0
  -21.5736   -3.9621   23.0233 C   0  0  0  0  0  0  0  0  0  0  0  0
  -28.0295  -21.4157   21.2093 C   0  0  0  0  0  0  0  0  0  0  0  0
  -24.5030  -10.1414   21.6599 C   0  0  0  0  0  0  0  0  0  0  0  0
  -25.9540  -11.8367   22.8963 C   0  0  0  0  0  0  0  0  0  0  0  0
  -27.1792  -36.4101   21.8321 C   0  0  0  0  0  0  0  0  0  0  0  0
  -25.7511  -29.4877   19.8516 C   0  0  0  0  0  0  0  0  0  0  0  0
  -27.4925  -35.0542   21.6184 C   0  0  0  0  0  0  0  0  0  0  0  0
  -25.4312  -28.6419   20.9233 C   0  0  0  0  0  0  0  0  0  0  0  0
  -30.1211  -22.5421   21.3222 C   0  0  0  0  0  0  0  0  0  0  0  0
  -29.4345  -23.7510   21.3427 C   0  0  0  0  0  0  0  0  0  0  0  0
  -29.4126  -21.3477   21.2543 C   0  0  0  0  0  0  0  0  0  0  0  0
  -22.4950   -8.2121   21.4915 C   0  0  0  0  0  0  0  0  0  0  0  0
  -27.0047  -26.9937   20.0761 C   0  0  0  0  0  0  0  0  0  0  0  0
  -21.4808   -6.2912   22.3880 C   0  0  0  0  0  0  0  0  0  0  0  0
  -21.4121   -4.3207   24.3616 C   0  0  0  0  0  0  0  0  0  0  0  0
  -21.6080   -4.9474   22.0365 C   0  0  0  0  0  0  0  0  0  0  0  0
  -25.5407  -11.1374   21.7466 C   0  0  0  0  0  0  0  0  0  0  0  0
  -28.0504  -23.7115   21.2936 C   0  0  0  0  0  0  0  0  0  0  0  0
  -26.9606  -12.6599   22.4542 C   0  0  0  0  0  0  0  0  0  0  0  0
  -25.4711  -11.7498   24.2436 C   0  0  0  0  0  0  0  0  0  0  0  0
  -25.5889  -31.9011   21.9138 C   0  0  0  0  0  0  0  0  0  0  0  0
  -22.6145  -30.7260   22.4566 C   0  0  0  0  0  0  0  0  0  0  0  0
  -20.4907  -28.0567   22.3537 C   0  0  0  0  0  0  0  0  0  0  0  0
  -28.6828  -16.3435   18.5373 C   0  0  0  0  0  0  0  0  0  0  0  0
  -26.2827  -36.8484   22.9630 C   0  0  0  0  0  0  0  0  0  0  0  0
  -25.0641  -30.8171   19.6990 C   0  0  0  0  0  0  0  0  0  0  0  0
  -24.4243  -29.0364   21.9716 C   0  0  0  0  0  0  0  0  0  0  0  0
  -25.4324  -35.7190   23.5390 C   0  0  0  0  0  0  0  0  0  0  0  0
  -29.4349  -12.7845   18.0464 C   0  0  0  0  0  0  0  0  0  0  0  0
  -26.2849  -34.4763   23.7755 C   0  0  0  0  0  0  0  0  0  0  0  0
  -28.4845  -12.0988   19.0289 C   0  0  0  0  0  0  0  0  0  0  0  0
  -30.2598  -17.6914   21.5725 C   0  0  0  0  0  0  0  0  0  0  0  0
  -28.8644  -14.1008   17.5234 C   0  0  0  0  0  0  0  0  0  0  0  0
  -29.5463  -16.4980   20.9459 C   0  0  0  0  0  0  0  0  0  0  0  0
  -27.4875  -14.3555   19.5513 C   0  0  0  0  0  0  0  0  0  0  0  0
  -28.9822  -18.4927   19.7342 C   0  0  0  0  0  0  0  0  0  0  0  0
  -26.8795  -33.9568   22.4610 C   0  0  1  0  0  0  0  0  0  0  0  0
  -24.5139  -31.3598   21.0144 C   0  0  1  0  0  0  0  0  0  0  0  0
  -28.0563  -13.0623   20.1516 C   0  0  1  0  0  0  0  0  0  0  0  0
  -29.3641  -18.8548   21.1616 C   0  0  2  0  0  0  0  0  0  0  0  0
  -31.6162  -22.5284   21.3726 C   0  0  0  0  0  0  0  0  0  0  0  0
  -30.1658  -25.0495   21.4149 C   0  0  0  0  0  0  0  0  0  0  0  0
  -18.1325  -27.3935   22.8982 C   0  0  0  0  0  0  0  0  0  0  0  0
  -23.3270  -30.6364   25.4221 C   0  0  0  0  0  0  0  0  0  0  0  0
  -21.3654  -29.1216   25.7763 C   0  0  0  0  0  0  0  0  0  0  0  0
  -21.0110  -31.4411   24.9296 C   0  0  0  0  0  0  0  0  0  0  0  0
  -19.9081  -27.3748   19.5333 C   0  0  0  0  0  0  0  0  0  0  0  0
  -27.2582  -24.9779   21.3122 C   0  0  0  0  0  0  0  0  0  1  0  0
  -22.0242  -29.7037   23.3976 C   0  0  1  0  0  0  0  0  0  0  0  0
  -19.0747  -27.9159   21.8249 C   0  0  2  0  0  0  0  0  0  0  0  0
  -21.9523  -30.2188   24.8629 C   0  0  0  0  0  0  0  0  0  0  0  0
  -27.3276  -22.5709   21.2273 N   0  0  0  0  0  0  0  0  0  0  0  0
  -26.2284  -11.4860   20.6560 N   0  0  0  0  0  0  0  0  0  0  0  0
  -27.0840  -12.4135   21.1185 N   0  0  0  0  0  0  0  0  0  0  0  0
  -23.7841  -30.3485   21.7819 N   0  0  0  0  0  0  0  0  0  0  0  0
  -28.4477  -14.9671   18.6264 N   0  0  0  0  0  0  0  0  0  0  0  0
  -28.9460  -17.0322   19.7207 N   0  0  0  0  0  0  0  0  0  0  0  0
  -27.7433  -13.5633   23.0816 N   0  0  0  0  0  0  0  0  0  0  0  0
  -24.4320  -10.8522   24.5244 N   0  0  0  0  0  0  0  0  0  0  0  0
  -30.0532  -20.1162   21.2312 N   0  0  0  0  0  0  0  0  0  0  0  0
  -25.8789  -33.2357   21.7038 N   0  0  0  0  0  0  0  0  0  0  0  0
  -20.7330  -29.3267   22.8328 N   0  0  0  0  0  0  0  0  0  0  0  0
  -19.0437  -26.9717   20.6722 N   0  3  0  0  0  0  0  0  0  0  0  0
  -25.9360  -12.4593   25.1677 O   0  0  0  0  0  0  0  0  0  0  0  0
  -26.1151  -31.1630   22.7384 O   0  0  0  0  0  0  0  0  0  0  0  0
  -22.0544  -31.8165   22.3198 O   0  0  0  0  0  0  0  0  0  0  0  0
  -21.2996  -27.1314   22.3461 O   0  0  0  0  0  0  0  0  0  0  0  0
  -28.7035  -16.9239   17.4438 O   0  0  0  0  0  0  0  0  0  0  0  0
  -21.5156   -7.2706   21.4096 O   0  0  0  0  0  0  0  0  0  0  0  0
  -27.6196  -25.7743   20.1916 O   0  0  0  0  0  0  0  0  0  1  0  0
  -21.3805   -3.3748   25.3094 F   0  0  0  0  0  0  0  0  0  0  0  0
  -21.7646   -4.5968   20.7526 F   0  0  0  0  0  0  0  0  0  0  0  0
  1  2  1  0  0  0  0
  1  5  2  0  0  0  0
  2  6  2  0  0  0  0
  3  8  2  0  0  0  0
  3 16  1  0  0  0  0
  4  9  1  0  0  0  0
  4 16  2  0  0  0  0
  5 18  1  0  0  0  0
  6 20  1  0  0  0  0
  7 10  2  0  0  0  0
  7 19  1  0  0  0  0
  8 25  1  0  0  0  0
  9 25  2  0  0  0  0
 10 26  1  0  0  0  0
 11 12  2  0  0  0  0
 11 27  1  0  0  0  0
 12 28  1  0  0  0  0
 13 21  1  0  0  0  0
 13 26  2  0  0  0  0
 14 28  2  0  0  0  0
 14 29  1  0  0  0  0
 15 24  1  0  0  0  0
 15 65  2  0  0  0  0
 16 30  1  0  0  0  0
 17 30  1  0  0  0  0
 17 32  2  0  0  0  0
 17 33  1  0  0  0  0
 18 20  2  0  0  0  0
 18 38  1  0  0  0  0
 19 21  2  0  0  0  0
 19 39  1  0  0  0  0
 20 50  1  0  0  0  0
 21 40  1  0  0  0  0
 22 23  1  0  0  0  0
 22 24  2  0  0  0  0
 22 54  1  0  0  0  0
 23 31  2  0  0  0  0
 23 55  1  0  0  0  0
 24 73  1  0  0  0  0
 25 82  1  0  0  0  0
 26 83  1  0  0  0  0
 27 29  2  0  0  0  0
 27 82  1  0  0  0  0
 28 84  1  0  0  0  0
 29 85  1  0  0  0  0
 30 66  2  0  0  0  0
 31 61  1  0  0  0  0
 31 65  1  0  0  0  0
 32 67  1  0  0  0  0
 32 71  1  0  0  0  0
 33 72  1  0  0  0  0
 33 77  2  0  0  0  0
 34 51  1  0  0  0  0
 34 74  1  0  0  0  0
 34 78  2  0  0  0  0
 35 62  1  0  0  0  0
 35 68  1  0  0  0  0
 35 79  2  0  0  0  0
 36 63  1  0  0  0  0
 36 75  1  0  0  0  0
 36 80  2  0  0  0  0
 37 69  1  0  0  0  0
 37 70  1  0  0  0  0
 37 81  2  0  0  0  0
 38 41  1  0  0  0  0
 39 51  1  0  0  0  0
 40 68  1  0  0  0  0
 41 43  1  0  0  0  0
 42 44  1  0  0  0  0
 42 46  1  0  0  0  0
 43 50  1  0  0  0  0
 44 52  1  0  0  0  0
 45 47  1  0  0  0  0
 45 53  1  0  0  0  0
 46 69  1  0  0  0  0
 47 70  1  0  0  0  0
 48 52  1  0  0  0  0
 48 69  1  0  0  0  0
 49 53  1  0  0  0  0
 49 70  1  0  0  0  0
 50 74  1  0  0  0  0
 51 68  1  0  0  0  0
 52 67  1  0  0  0  0
 53 73  1  0  0  0  0
 56 63  1  0  0  0  0
 57 64  1  0  0  0  0
 58 64  1  0  0  0  0
 59 64  1  0  0  0  0
 60 76  1  0  0  0  0
 61 83  1  0  0  0  0
 62 64  1  0  0  0  0
 62 75  1  0  0  0  0
 63 76  1  0  0  0  0
 66 67  1  0  0  0  0
M  CHG  1  76   1
M  ISO  4  37 100  61 101  70 100  83 101
M  END
> <Batch ID>
0168

> <Smiles>
CNC(C)C(=O)NC(C(=O)N1Cc2cc([101O:1][101CH2:1]c3ncc(NC4CC[100N:0]([100C:0](=O)N5CCCC(n6nc(-c7ccc(Oc8ccc(F)cc8F)cc7)c(C(N)=O)c6N)C5)C4)c(C)c3C)ccc2CC1C(=O)NC1CCCc2ccccc21)C(C)(C)C

> <Shape>
0.352

> <Color>
0.125

> <Negative vol penalty>
0.000

$$$$

  -OEChem-04052322303D

 87 96  0     1  0  0  0  0  0999 V2000
  -17.4588  -28.3876   21.1147 C   0  0  0  0  0  0  0  0  0  0  0  0
  -18.5466  -27.5377   20.9428 C   0  0  0  0  0  0  0  0  0  0  0  0
  -23.6277   -9.4365   21.5200 C   0  0  0  0  0  0  0  0  0  0  0  0
  -24.1359  -10.6091   23.5704 C   0  0  0  0  0  0  0  0  0  0  0  0
  -17.6590  -29.6920   21.5646 C   0  0  0  0  0  0  0  0  0  0  0  0
  -19.8356  -27.9920   21.2195 C   0  0  0  0  0  0  0  0  0  0  0  0
  -24.4714  -24.7286   23.5358 C   0  0  0  0  0  0  0  0  0  0  0  0
  -23.0683   -8.3920   22.2560 C   0  0  0  0  0  0  0  0  0  0  0  0
  -23.5764   -9.5646   24.3064 C   0  0  0  0  0  0  0  0  0  0  0  0
  -25.5641  -24.0989   22.9415 C   0  0  0  0  0  0  0  0  0  0  0  0
  -20.1645   -7.7561   23.8673 C   0  0  0  0  0  0  0  0  0  0  0  0
  -18.9412   -7.2424   23.4370 C   0  0  0  0  0  0  0  0  0  0  0  0
  -26.9276  -26.0318   23.4149 C   0  0  0  0  0  0  0  0  0  0  0  0
  -28.7958  -20.2197   20.3453 C   0  0  0  0  0  0  0  0  0  0  0  0
  -19.9548   -5.0680   23.1511 C   0  0  0  0  0  0  0  0  0  0  0  0
  -24.1615  -10.5451   22.1772 C   0  0  0  0  0  0  0  0  0  0  0  0
  -24.0810  -12.7674   20.9273 C   0  0  0  0  0  0  0  0  0  0  0  0
  -18.9501  -30.1595   21.8562 C   0  0  0  0  0  0  0  0  0  0  0  0
  -24.5959  -26.0211   24.0652 C   0  0  0  0  0  0  0  0  0  0  0  0
  -20.0534  -29.3043   21.6724 C   0  0  0  0  0  0  0  0  0  0  0  0
  -25.8356  -26.6746   24.0176 C   0  0  0  0  0  0  0  0  0  0  0  0
  -30.0069  -20.6526   19.8171 C   0  0  0  0  0  0  0  0  0  0  0  0
  -23.0426   -8.4560   23.6492 C   0  0  0  0  0  0  0  0  0  0  0  0
  -26.7918  -24.7516   22.8784 C   0  0  0  0  0  0  0  0  0  0  0  0
  -21.2830   -6.9258   23.9395 C   0  0  0  0  0  0  0  0  0  0  0  0
  -28.5678  -18.8597   20.5232 C   0  0  0  0  0  0  0  0  0  0  0  0
  -18.8363   -5.8984   23.0790 C   0  0  0  0  0  0  0  0  0  0  0  0
  -21.1782   -5.5817   23.5814 C   0  0  0  0  0  0  0  0  0  0  0  0
  -24.7400  -11.6241   21.4175 C   0  0  0  0  0  0  0  0  0  0  0  0
  -30.9498  -19.6930   19.4854 C   0  0  0  0  0  0  0  0  0  0  0  0
  -29.5750  -17.9804   20.1598 C   0  0  0  0  0  0  0  0  0  0  0  0
  -25.0618  -13.4776   20.2791 C   0  0  0  0  0  0  0  0  0  0  0  0
  -22.7053  -13.1531   21.0472 C   0  0  0  0  0  0  0  0  0  0  0  0
  -23.2644  -28.8390   23.4404 C   0  0  0  0  0  0  0  0  0  0  0  0
  -24.9157  -29.7653   26.0743 C   0  0  0  0  0  0  0  0  0  0  0  0
  -27.5543  -29.2382   28.1735 C   0  0  0  0  0  0  0  0  0  0  0  0
  -30.2245  -15.5493   20.0395 C   0  0  0  0  0  0  0  0  0  0  0  0
  -19.1215  -31.5924   22.2948 C   0  0  0  0  0  0  0  0  0  0  0  0
  -23.4145  -26.6759   24.7268 C   0  0  0  0  0  0  0  0  0  0  0  0
  -26.0269  -28.0548   24.5894 C   0  0  0  0  0  0  0  0  0  0  0  0
  -20.4828  -31.8782   22.9236 C   0  0  0  0  0  0  0  0  0  0  0  0
  -29.7844  -12.1690   19.0115 C   0  0  0  0  0  0  0  0  0  0  0  0
  -29.2269  -22.7408   18.6614 C   0  0  0  0  0  0  0  0  0  0  0  0
  -21.5993  -31.2775   22.0754 C   0  0  0  0  0  0  0  0  0  0  0  0
  -28.4673  -23.7790   19.4801 C   0  0  0  0  0  0  0  0  0  0  0  0
  -28.3786  -11.8199   19.5055 C   0  0  0  0  0  0  0  0  0  0  0  0
  -30.5192  -13.0824   19.9910 C   0  0  0  0  0  0  0  0  0  0  0  0
  -28.3855  -13.9512   20.8638 C   0  0  0  0  0  0  0  0  0  0  0  0
  -30.2578  -22.1117   19.6237 C   0  0  1  0  0  0  0  0  0  0  0  0
  -21.4644  -29.7526   21.9857 C   0  0  1  0  0  0  0  0  0  0  0  0
  -23.5233  -28.1969   24.7739 C   0  0  1  0  0  0  0  0  0  0  0  0
  -29.4778  -24.2222   20.5348 C   0  0  2  0  0  0  0  0  0  0  0  0
  -30.1139  -22.8891   20.9565 C   0  0  2  0  0  0  0  0  0  0  0  0
  -27.5822  -13.0855   19.8793 C   0  0  2  0  0  0  0  0  0  0  0  0
  -32.2686  -20.1001   18.9142 C   0  0  0  0  0  0  0  0  0  0  0  0
  -31.4452  -23.0588   21.6793 C   0  0  0  0  0  0  0  0  0  0  0  0
  -28.6664  -30.1827   30.2152 C   0  0  0  0  0  0  0  0  0  0  0  0
  -26.1098  -32.0072   24.3838 C   0  0  0  0  0  0  0  0  0  0  0  0
  -27.8675  -32.3024   26.1421 C   0  0  0  0  0  0  0  0  0  0  0  0
  -25.4669  -32.6802   26.7050 C   0  0  0  0  0  0  0  0  0  0  0  0
  -27.1018  -26.7512   29.7126 C   0  0  0  0  0  0  0  0  0  0  0  0
  -26.4235  -19.4340   21.3765 C   0  0  0  0  0  0  0  0  0  0  0  0
  -28.8296  -24.9797   21.6739 C   0  0  0  0  0  0  0  0  0  1  0  0
  -26.2957  -30.3212   26.3303 C   0  0  1  0  0  0  0  0  0  0  0  0
  -27.6423  -29.1896   29.6882 C   0  0  2  0  0  0  0  0  0  0  0  0
  -26.4312  -31.8025   25.8777 C   0  0  0  0  0  0  0  0  0  0  0  0
  -26.0390  -11.6049   21.1072 N   0  0  0  0  0  0  0  0  0  0  0  0
  -30.7644  -18.3633   19.6437 N   0  0  0  0  0  0  0  0  0  0  0  0
  -26.2041  -12.7448   20.4149 N   0  0  0  0  0  0  0  0  0  0  0  0
  -24.8402  -28.6558   25.2204 N   0  0  0  0  0  0  0  0  0  0  0  0
  -29.7065  -14.2621   20.2955 N   0  0  0  0  0  0  0  0  0  0  0  0
  -25.0499  -14.6510   19.6118 N   0  0  0  0  0  0  0  0  0  0  0  0
  -21.8329  -12.3076   21.7460 N   0  0  0  0  0  0  0  0  0  0  0  0
  -29.3492  -16.5929   20.3382 N   0  0  0  0  0  0  0  0  0  0  0  0
  -21.9345  -29.1310   23.2052 N   0  0  0  0  0  0  0  0  0  0  0  0
  -26.5678  -30.1019   27.7467 N   0  0  0  0  0  0  0  0  0  0  0  0
  -28.0348  -27.8250   30.1408 N   0  3  0  0  0  0  0  0  0  0  0  0
  -22.2593  -14.2079   20.5353 O   0  0  0  0  0  0  0  0  0  0  0  0
  -24.2022  -29.0548   22.6816 O   0  0  0  0  0  0  0  0  0  0  0  0
  -23.9413  -30.2915   26.6178 O   0  0  0  0  0  0  0  0  0  0  0  0
  -28.2898  -28.5790   27.4421 O   0  0  0  0  0  0  0  0  0  0  0  0
  -31.3506  -15.7127   19.5629 O   0  0  0  0  0  0  0  0  0  0  0  0
  -22.4967   -7.4371   24.3676 O   0  0  0  0  0  0  0  0  0  0  0  0
  -27.3854  -18.4340   21.0391 O   0  0  0  0  0  0  0  0  0  0  0  0
  -27.8598  -24.1396   22.2984 O   0  0  0  0  0  0  0  0  0  1  0  0
  -17.6611   -5.4048   22.6672 F   0  0  0  0  0  0  0  0  0  0  0  0
  -22.2489   -4.7789   23.6498 F   0  0  0  0  0  0  0  0  0  0  0  0
  1  2  1  0  0  0  0
  1  5  2  0  0  0  0
  2  6  2  0  0  0  0
  3  8  2  0  0  0  0
  3 16  1  0  0  0  0
  4  9  1  0  0  0  0
  4 16  2  0  0  0  0
  5 18  1  0  0  0  0
  6 20  1  0  0  0  0
  7 10  2  0  0  0  0
  7 19  1  0  0  0  0
  8 23  1  0  0  0  0
  9 23  2  0  0  0  0
 10 24  1  0  0  0  0
 11 12  2  0  0  0  0
 11 25  1  0  0  0  0
 12 27  1  0  0  0  0
 13 21  1  0  0  0  0
 13 24  2  0  0  0  0
 14 22  1  0  0  0  0
 14 26  2  0  0  0  0
 15 27  2  0  0  0  0
 15 28  1  0  0  0  0
 16 29  1  0  0  0  0
 17 29  1  0  0  0  0
 17 32  2  0  0  0  0
 17 33  1  0  0  0  0
 18 20  2  0  0  0  0
 18 38  1  0  0  0  0
 19 21  2  0  0  0  0
 19 39  1  0  0  0  0
 20 50  1  0  0  0  0
 21 40  1  0  0  0  0
 22 30  2  0  0  0  0
 22 49  1  0  0  0  0
 23 83  1  0  0  0  0
 24 85  1  0  0  0  0
 25 28  2  0  0  0  0
 25 83  1  0  0  0  0
 26 31  1  0  0  0  0
 26 84  1  0  0  0  0
 27 86  1  0  0  0  0
 28 87  1  0  0  0  0
 29 67  2  0  0  0  0
 30 55  1  0  0  0  0
 30 68  1  0  0  0  0
 31 68  2  0  0  0  0
 31 74  1  0  0  0  0
 32 69  1  0  0  0  0
 32 72  1  0  0  0  0
 33 73  1  0  0  0  0
 33 78  2  0  0  0  0
 34 51  1  0  0  0  0
 34 75  1  0  0  0  0
 34 79  2  0  0  0  0
 35 64  1  0  0  0  0
 35 70  1  0  0  0  0
 35 80  2  0  0  0  0
 36 65  1  0  0  0  0
 36 76  1  0  0  0  0
 36 81  2  0  0  0  0
 37 71  1  0  0  0  0
 37 74  1  0  0  0  0
 37 82  2  0  0  0  0
 38 41  1  0  0  0  0
 39 51  1  0  0  0  0
 40 70  1  0  0  0  0
 41 44  1  0  0  0  0
 42 46  1  0  0  0  0
 42 47  1  0  0  0  0
 43 45  1  0  0  0  0
 43 49  1  0  0  0  0
 44 50  1  0  0  0  0
 45 52  1  0  0  0  0
 46 54  1  0  0  0  0
 47 71  1  0  0  0  0
 48 54  1  0  0  0  0
 48 71  1  0  0  0  0
 49 53  1  0  0  0  0
 50 75  1  0  0  0  0
 51 70  1  0  0  0  0
 52 53  1  0  0  0  0
 52 63  1  0  0  0  0
 53 56  1  0  0  0  0
 54 69  1  0  0  0  0
 57 65  1  0  0  0  0
 58 66  1  0  0  0  0
 59 66  1  0  0  0  0
 60 66  1  0  0  0  0
 61 77  1  0  0  0  0
 62 84  1  0  0  0  0
 63 85  1  0  0  0  0
 64 66  1  0  0  0  0
 64 76  1  0  0  0  0
 65 77  1  0  0  0  0
 67 69  1  0  0  0  0
M  CHG  1  77   1
M  ISO  4  37 100  63 101  74 100  85 101
M  END
> <Batch ID>
0168

> <Smiles>
CNC(C)C(=O)NC(C(=O)N1Cc2cc([101O:1][101CH2:1]C3CCC(c4cc(OC)c([100NH:0][100C:0](=O)N5CCCC(n6nc(-c7ccc(Oc8ccc(F)cc8F)cc7)c(C(N)=O)c6N)C5)nc4C)C3C)ccc2CC1C(=O)NC1CCCc2ccccc21)C(C)(C)C

> <Shape>
0.287

> <Color>
0.134

> <Negative vol penalty>
0.000

$$$$

  -OEChem-04052322303D

 86 95  0     1  0  0  0  0  0999 V2000
  -27.4619  -37.3761   27.0611 C   0  0  0  0  0  0  0  0  0  0  0  0
  -28.2776  -36.3544   26.5855 C   0  0  0  0  0  0  0  0  0  0  0  0
  -24.6423   -8.8798   21.9421 C   0  0  0  0  0  0  0  0  0  0  0  0
  -23.6220   -9.4697   19.8330 C   0  0  0  0  0  0  0  0  0  0  0  0
  -26.0755  -37.2572   26.9745 C   0  0  0  0  0  0  0  0  0  0  0  0
  -27.7073  -35.2126   26.0240 C   0  0  0  0  0  0  0  0  0  0  0  0
  -28.9038  -30.2859   20.9631 C   0  0  0  0  0  0  0  0  0  0  0  0
  -23.5581   -8.0527   22.2352 C   0  0  0  0  0  0  0  0  0  0  0  0
  -22.5378   -8.6425   20.1261 C   0  0  0  0  0  0  0  0  0  0  0  0
  -28.9541  -28.9025   20.7971 C   0  0  0  0  0  0  0  0  0  0  0  0
  -22.4782   -4.9646   21.3807 C   0  0  0  0  0  0  0  0  0  0  0  0
  -22.7505   -3.6961   21.8929 C   0  0  0  0  0  0  0  0  0  0  0  0
  -26.5485  -28.8414   20.6279 C   0  0  0  0  0  0  0  0  0  0  0  0
  -21.5020   -4.2345   23.8900 C   0  0  0  0  0  0  0  0  0  0  0  0
  -24.6743   -9.5884   20.7409 C   0  0  0  0  0  0  0  0  0  0  0  0
  -26.9779  -10.0870   19.7650 C   0  0  0  0  0  0  0  0  0  0  0  0
  -25.4880  -36.1176   26.4028 C   0  0  0  0  0  0  0  0  0  0  0  0
  -27.6727  -30.9572   20.9737 C   0  0  0  0  0  0  0  0  0  0  0  0
  -26.3116  -35.0777   25.9309 C   0  0  0  0  0  0  0  0  0  0  0  0
  -26.4855  -30.2337   20.7917 C   0  0  0  0  0  0  0  0  0  0  0  0
  -28.3992  -22.5625   21.0024 C   0  0  0  0  0  0  0  0  0  0  0  0
  -28.5094  -23.9229   21.2681 C   0  0  0  0  0  0  0  0  0  0  0  0
  -28.7460  -22.0747   19.7474 C   0  0  0  0  0  0  0  0  0  0  0  0
  -22.5059   -7.9340   21.3273 C   0  0  0  0  0  0  0  0  0  0  0  0
  -27.7762  -28.1797   20.6324 C   0  0  0  0  0  0  0  0  0  0  0  0
  -21.7179   -5.8681   22.1232 C   0  0  0  0  0  0  0  0  0  0  0  0
  -22.2624   -3.3310   23.1475 C   0  0  0  0  0  0  0  0  0  0  0  0
  -21.2298   -5.5031   23.3778 C   0  0  0  0  0  0  0  0  0  0  0  0
  -25.7937  -10.4434   20.4377 C   0  0  0  0  0  0  0  0  0  0  0  0
  -28.9682  -24.7469   20.2531 C   0  0  0  0  0  0  0  0  0  0  0  0
  -29.1940  -22.9815   18.8003 C   0  0  0  0  0  0  0  0  0  0  0  0
  -27.7154  -11.2452   19.7312 C   0  0  0  0  0  0  0  0  0  0  0  0
  -27.3756   -8.8222   19.2194 C   0  0  0  0  0  0  0  0  0  0  0  0
  -26.0919  -32.7104   23.1024 C   0  0  0  0  0  0  0  0  0  0  0  0
  -24.0559  -33.1827   20.6217 C   0  0  0  0  0  0  0  0  0  0  0  0
  -22.8083  -32.0719   17.6457 C   0  0  0  0  0  0  0  0  0  0  0  0
  -28.2879  -16.5267   18.9427 C   0  0  0  0  0  0  0  0  0  0  0  0
  -23.9837  -36.0133   26.3741 C   0  0  0  0  0  0  0  0  0  0  0  0
  -27.6372  -32.4531   21.1271 C   0  0  0  0  0  0  0  0  0  0  0  0
  -25.1395  -30.9095   20.7751 C   0  0  0  0  0  0  0  0  0  0  0  0
  -23.4659  -34.9361   25.4244 C   0  0  0  0  0  0  0  0  0  0  0  0
  -27.0588  -15.6500   22.1145 C   0  0  0  0  0  0  0  0  0  0  0  0
  -24.2445  -33.6381   25.6140 C   0  0  0  0  0  0  0  0  0  0  0  0
  -26.7102  -14.1763   21.9085 C   0  0  0  0  0  0  0  0  0  0  0  0
  -26.6816  -16.5030   20.9023 C   0  0  0  0  0  0  0  0  0  0  0  0
  -29.7914  -19.8313   19.6986 C   0  0  0  0  0  0  0  0  0  0  0  0
  -27.3118  -20.0929   19.5275 C   0  0  0  0  0  0  0  0  0  0  0  0
  -29.6950  -18.5513   18.8727 C   0  0  0  0  0  0  0  0  0  0  0  0
  -27.2609  -18.8167   18.6948 C   0  0  0  0  0  0  0  0  0  0  0  0
  -26.8920  -14.5359   19.4175 C   0  0  0  0  0  0  0  0  0  0  0  0
  -25.7309  -33.8345   25.2925 C   0  0  1  0  0  0  0  0  0  0  0  0
  -26.2952  -32.9698   21.6364 C   0  0  1  0  0  0  0  0  0  0  0  0
  -27.3130  -13.6443   20.5961 C   0  0  2  0  0  0  0  0  0  0  0  0
  -27.9093  -21.6296   22.0648 C   0  0  0  0  0  0  0  0  0  0  0  0
  -28.1464  -24.4772   22.6050 C   0  0  0  0  0  0  0  0  0  0  0  0
  -29.5815  -22.5199   17.4328 C   0  0  0  0  0  0  0  0  0  0  0  0
  -21.1271  -32.6516   15.8751 C   0  0  0  0  0  0  0  0  0  0  0  0
  -21.8059  -32.2324   22.4504 C   0  0  0  0  0  0  0  0  0  0  0  0
  -20.3772  -31.9256   20.4174 C   0  0  0  0  0  0  0  0  0  0  0  0
  -21.2239  -34.1950   21.0136 C   0  0  0  0  0  0  0  0  0  0  0  0
  -24.9013  -32.2842   15.5641 C   0  0  0  0  0  0  0  0  0  0  0  0
  -29.1099  -26.2166   20.4800 C   0  0  0  0  0  0  0  0  0  1  0  0
  -22.8318  -32.4744   20.0935 C   0  0  1  0  0  0  0  0  0  0  0  0
  -22.5743  -32.7809   16.3240 C   0  0  2  0  0  0  0  0  0  0  0  0
  -21.5848  -32.6936   20.9960 C   0  0  0  0  0  0  0  0  0  0  0  0
  -25.7757  -11.7274   20.8050 N   0  0  0  0  0  0  0  0  0  0  0  0
  -29.3145  -24.3097   19.0216 N   0  0  0  0  0  0  0  0  0  0  0  0
  -26.9578  -12.1881   20.3615 N   0  0  0  0  0  0  0  0  0  0  0  0
  -28.6432  -20.7097   19.4501 N   0  0  0  0  0  0  0  0  0  0  0  0
  -25.1567  -32.3729   20.9352 N   0  0  0  0  0  0  0  0  0  0  0  0
  -27.2447  -15.9346   19.6702 N   0  0  0  0  0  0  0  0  0  0  0  0
  -28.3837  -17.9262   18.9960 N   0  0  0  0  0  0  0  0  0  0  0  0
  -28.9316  -11.5389   19.2242 N   0  0  0  0  0  0  0  0  0  0  0  0
  -26.4979   -7.7363   19.3411 N   0  0  0  0  0  0  0  0  0  0  0  0
  -25.9399  -33.8555   23.8606 N   0  0  0  0  0  0  0  0  0  0  0  0
  -22.6603  -32.9270   18.7172 N   0  0  0  0  0  0  0  0  0  0  0  0
  -23.4485  -32.2030   15.2643 N   0  3  0  0  0  0  0  0  0  0  0  0
  -28.4836   -8.6557   18.6555 O   0  0  0  0  0  0  0  0  0  0  0  0
  -26.0728  -31.5566   23.5148 O   0  0  0  0  0  0  0  0  0  0  0  0
  -24.0386  -34.4100   20.7445 O   0  0  0  0  0  0  0  0  0  0  0  0
  -23.0901  -30.8779   17.7204 O   0  0  0  0  0  0  0  0  0  0  0  0
  -29.0883  -15.8481   18.2873 O   0  0  0  0  0  0  0  0  0  0  0  0
  -21.4478   -7.1269   21.6130 O   0  0  0  0  0  0  0  0  0  0  0  0
  -27.8227  -26.8196   20.4697 O   0  0  0  0  0  0  0  0  0  1  0  0
  -22.5226   -2.1123   23.6386 F   0  0  0  0  0  0  0  0  0  0  0  0
  -20.4978   -6.3664   24.0952 F   0  0  0  0  0  0  0  0  0  0  0  0
  1  2  1  0  0  0  0
  1  5  2  0  0  0  0
  2  6  2  0  0  0  0
  3  8  2  0  0  0  0
  3 15  1  0  0  0  0
  4  9  1  0  0  0  0
  4 15  2  0  0  0  0
  5 17  1  0  0  0  0
  6 19  1  0  0  0  0
  7 10  2  0  0  0  0
  7 18  1  0  0  0  0
  8 24  1  0  0  0  0
  9 24  2  0  0  0  0
 10 25  1  0  0  0  0
 11 12  2  0  0  0  0
 11 26  1  0  0  0  0
 12 27  1  0  0  0  0
 13 20  1  0  0  0  0
 13 25  2  0  0  0  0
 14 27  2  0  0  0  0
 14 28  1  0  0  0  0
 15 29  1  0  0  0  0
 16 29  1  0  0  0  0
 16 32  2  0  0  0  0
 16 33  1  0  0  0  0
 17 19  2  0  0  0  0
 17 38  1  0  0  0  0
 18 20  2  0  0  0  0
 18 39  1  0  0  0  0
 19 51  1  0  0  0  0
 20 40  1  0  0  0  0
 21 22  1  0  0  0  0
 21 23  2  0  0  0  0
 21 54  1  0  0  0  0
 22 30  2  0  0  0  0
 22 55  1  0  0  0  0
 23 31  1  0  0  0  0
 23 69  1  0  0  0  0
 24 83  1  0  0  0  0
 25 84  1  0  0  0  0
 26 28  2  0  0  0  0
 26 83  1  0  0  0  0
 27 85  1  0  0  0  0
 28 86  1  0  0  0  0
 29 66  2  0  0  0  0
 30 62  1  0  0  0  0
 30 67  1  0  0  0  0
 31 56  1  0  0  0  0
 31 67  2  0  0  0  0
 32 68  1  0  0  0  0
 32 73  1  0  0  0  0
 33 74  1  0  0  0  0
 33 78  2  0  0  0  0
 34 52  1  0  0  0  0
 34 75  1  0  0  0  0
 34 79  2  0  0  0  0
 35 63  1  0  0  0  0
 35 70  1  0  0  0  0
 35 80  2  0  0  0  0
 36 64  1  0  0  0  0
 36 76  1  0  0  0  0
 36 81  2  0  0  0  0
 37 71  1  0  0  0  0
 37 72  1  0  0  0  0
 37 82  2  0  0  0  0
 38 41  1  0  0  0  0
 39 52  1  0  0  0  0
 40 70  1  0  0  0  0
 41 43  1  0  0  0  0
 42 44  1  0  0  0  0
 42 45  1  0  0  0  0
 43 51  1  0  0  0  0
 44 53  1  0  0  0  0
 45 71  1  0  0  0  0
 46 48  1  0  0  0  0
 46 69  1  0  0  0  0
 47 49  1  0  0  0  0
 47 69  1  0  0  0  0
 48 72  1  0  0  0  0
 49 72  1  0  0  0  0
 50 53  1  0  0  0  0
 50 71  1  0  0  0  0
 51 75  1  0  0  0  0
 52 70  1  0  0  0  0
 53 68  1  0  0  0  0
 57 64  1  0  0  0  0
 58 65  1  0  0  0  0
 59 65  1  0  0  0  0
 60 65  1  0  0  0  0
 61 77  1  0  0  0  0
 62 84  1  0  0  0  0
 63 65  1  0  0  0  0
 63 76  1  0  0  0  0
 64 77  1  0  0  0  0
 66 68  1  0  0  0  0
M  CHG  1  77   1
M  ISO  4  37 100  62 101  72 100  84 101
M  END
> <Batch ID>
0168

> <Smiles>
CNC(C)C(=O)NC(C(=O)N1Cc2cc([101O:1][101CH2:1]c3nc(C)c(N4CC[100N:0]([100C:0](=O)N5CCCC(n6nc(-c7ccc(Oc8ccc(F)cc8F)cc7)c(C(N)=O)c6N)C5)CC4)c(C)c3C)ccc2CC1C(=O)NC1CCCc2ccccc21)C(C)(C)C

> <Shape>
0.282

> <Color>
0.084

> <Negative vol penalty>
0.000

$$$$

  -OEChem-04052322303D

 84 93  0     1  0  0  0  0  0999 V2000
  -16.7803  -27.3865   19.4783 C   0  0  0  0  0  0  0  0  0  0  0  0
  -17.9853  -26.7002   19.3669 C   0  0  0  0  0  0  0  0  0  0  0  0
  -22.9461   -9.9866   19.9887 C   0  0  0  0  0  0  0  0  0  0  0  0
  -23.7739   -9.8982   22.2567 C   0  0  0  0  0  0  0  0  0  0  0  0
  -16.5246  -28.1651   20.6063 C   0  0  0  0  0  0  0  0  0  0  0  0
  -18.9358  -26.7931   20.3830 C   0  0  0  0  0  0  0  0  0  0  0  0
  -22.7600  -22.3933   22.2600 C   0  0  0  0  0  0  0  0  0  0  0  0
  -22.1670   -8.8548   20.2290 C   0  0  0  0  0  0  0  0  0  0  0  0
  -22.9948   -8.7665   22.4970 C   0  0  0  0  0  0  0  0  0  0  0  0
  -24.0989  -22.1296   21.9744 C   0  0  0  0  0  0  0  0  0  0  0  0
  -23.1434   -5.4538   21.8375 C   0  0  0  0  0  0  0  0  0  0  0  0
  -23.7409   -4.3859   22.5068 C   0  0  0  0  0  0  0  0  0  0  0  0
  -24.7510  -23.3001   23.9804 C   0  0  0  0  0  0  0  0  0  0  0  0
  -28.7208  -20.1448   21.5391 C   0  0  0  0  0  0  0  0  0  0  0  0
  -22.0991   -4.5719   24.2694 C   0  0  0  0  0  0  0  0  0  0  0  0
  -23.7496  -10.5083   21.0026 C   0  0  0  0  0  0  0  0  0  0  0  0
  -24.1827  -13.0216   20.9433 C   0  0  0  0  0  0  0  0  0  0  0  0
  -17.4684  -28.2598   21.6411 C   0  0  0  0  0  0  0  0  0  0  0  0
  -22.4066  -23.1230   23.4041 C   0  0  0  0  0  0  0  0  0  0  0  0
  -18.6930  -27.5748   21.5252 C   0  0  0  0  0  0  0  0  0  0  0  0
  -23.4067  -23.5695   24.2796 C   0  0  0  0  0  0  0  0  0  0  0  0
  -28.1650  -21.3876   21.2565 C   0  0  0  0  0  0  0  0  0  0  0  0
  -30.0954  -19.9638   21.4329 C   0  0  0  0  0  0  0  0  0  0  0  0
  -22.1914   -8.2448   21.4831 C   0  0  0  0  0  0  0  0  0  0  0  0
  -25.0948  -22.5855   22.8331 C   0  0  0  0  0  0  0  0  0  0  0  0
  -22.0237   -6.0809   22.3841 C   0  0  0  0  0  0  0  0  0  0  0  0
  -23.2188   -3.9449   23.7228 C   0  0  0  0  0  0  0  0  0  0  0  0
  -21.5015   -5.6399   23.6001 C   0  0  0  0  0  0  0  0  0  0  0  0
  -24.5550  -11.6771   20.7548 C   0  0  0  0  0  0  0  0  0  0  0  0
  -29.0201  -22.4088   20.8748 C   0  0  0  0  0  0  0  0  0  0  0  0
  -30.8640  -21.0487   21.0432 C   0  0  0  0  0  0  0  0  0  0  0  0
  -25.2911  -13.7406   20.5676 C   0  0  0  0  0  0  0  0  0  0  0  0
  -22.9457  -13.5713   21.4157 C   0  0  0  0  0  0  0  0  0  0  0  0
  -20.9294  -25.8871   23.9342 C   0  0  0  0  0  0  0  0  0  0  0  0
  -21.1524  -24.9650   27.0362 C   0  0  0  0  0  0  0  0  0  0  0  0
  -22.7547  -23.0867   29.3923 C   0  0  0  0  0  0  0  0  0  0  0  0
  -30.8052  -14.5619   20.5977 C   0  0  0  0  0  0  0  0  0  0  0  0
  -17.1667  -29.1516   22.8194 C   0  0  0  0  0  0  0  0  0  0  0  0
  -20.9562  -23.3760   23.7120 C   0  0  0  0  0  0  0  0  0  0  0  0
  -23.0787  -24.3396   25.5317 C   0  0  0  0  0  0  0  0  0  0  0  0
  -18.0709  -28.8976   24.0228 C   0  0  0  0  0  0  0  0  0  0  0  0
  -29.5171  -12.2802   18.2005 C   0  0  0  0  0  0  0  0  0  0  0  0
  -19.5288  -28.8023   23.5844 C   0  0  0  0  0  0  0  0  0  0  0  0
  -28.0821  -12.0283   18.6665 C   0  0  0  0  0  0  0  0  0  0  0  0
  -30.4750  -12.4323   19.3802 C   0  0  0  0  0  0  0  0  0  0  0  0
  -28.6437  -13.1921   20.8416 C   0  0  0  0  0  0  0  0  0  0  0  0
  -30.1738  -17.7546   22.6347 C   0  0  0  0  0  0  0  0  0  0  0  0
  -31.1415  -17.7741   20.7685 C   0  0  0  0  0  0  0  0  0  0  0  0
  -19.7387  -27.6306   22.6176 C   0  0  1  0  0  0  0  0  0  0  0  0
  -20.7411  -24.5715   24.6351 C   0  0  1  0  0  0  0  0  0  0  0  0
  -27.6298  -13.0882   19.6892 C   0  0  2  0  0  0  0  0  0  0  0  0
  -31.0093  -16.7160   21.8730 C   0  0  0  0  0  0  0  0  0  0  0  0
  -28.4788  -23.7647   20.5592 C   0  0  0  0  0  0  0  0  0  0  0  0
  -32.3466  -20.9165   20.9109 C   0  0  0  0  0  0  0  0  0  0  0  0
  -22.7342  -22.5703   31.8480 C   0  0  0  0  0  0  0  0  0  0  0  0
  -22.4750  -27.6541   27.6102 C   0  0  0  0  0  0  0  0  0  0  0  0
  -23.2713  -26.7181   29.7915 C   0  0  0  0  0  0  0  0  0  0  0  0
  -20.8260  -26.9126   29.3381 C   0  0  0  0  0  0  0  0  0  0  0  0
  -22.2032  -20.2204   28.9031 C   0  0  0  0  0  0  0  0  0  0  0  0
  -26.6825  -21.5894   21.3692 C   0  0  0  0  0  0  0  0  0  1  0  0
  -22.1731  -25.1440   28.1340 C   0  0  1  0  0  0  0  0  0  0  0  0
  -22.2259  -22.1622   30.4740 C   0  0  2  0  0  0  0  0  0  0  0  0
  -22.1930  -26.5944   28.6939 C   0  0  0  0  0  0  0  0  0  0  0  0
  -25.8023  -11.5470   20.2950 N   0  0  0  0  0  0  0  0  0  0  0  0
  -30.3601  -22.2709   20.7605 N   0  0  0  0  0  0  0  0  0  0  0  0
  -26.2234  -12.8190   20.1913 N   0  0  0  0  0  0  0  0  0  0  0  0
  -30.6676  -18.7108   21.7165 N   0  0  0  0  0  0  0  0  0  0  0  0
  -21.6466  -24.5672   25.7858 N   0  0  0  0  0  0  0  0  0  0  0  0
  -29.9891  -13.4571   20.3078 N   0  0  0  0  0  0  0  0  0  0  0  0
  -25.5493  -15.0650   20.5257 N   0  0  0  0  0  0  0  0  0  0  0  0
  -21.9108  -12.6906   21.7584 N   0  0  0  0  0  0  0  0  0  0  0  0
  -19.7815  -26.3788   23.3425 N   0  0  0  0  0  0  0  0  0  0  0  0
  -21.8814  -24.1218   29.1332 N   0  0  0  0  0  0  0  0  0  0  0  0
  -30.2732  -15.4971   21.4793 N   0  0  0  0  0  0  0  0  0  0  0  0
  -22.6549  -20.7593   30.2118 N   0  3  0  0  0  0  0  0  0  0  0  0
  -22.7579  -14.8076   21.5151 O   0  0  0  0  0  0  0  0  0  0  0  0
  -22.0340  -26.4178   23.9318 O   0  0  0  0  0  0  0  0  0  0  0  0
  -19.9598  -25.1636   27.2810 O   0  0  0  0  0  0  0  0  0  0  0  0
  -23.8363  -22.9104   28.8357 O   0  0  0  0  0  0  0  0  0  0  0  0
  -31.9273  -14.7150   20.1031 O   0  0  0  0  0  0  0  0  0  0  0  0
  -21.4311   -7.1405   21.7180 O   0  0  0  0  0  0  0  0  0  0  0  0
  -26.4025  -22.3301   22.5564 O   0  0  0  0  0  0  0  0  0  1  0  0
  -23.7918   -2.9184   24.3647 F   0  0  0  0  0  0  0  0  0  0  0  0
  -20.4254   -6.2376   24.1296 F   0  0  0  0  0  0  0  0  0  0  0  0
  1  2  1  0  0  0  0
  1  5  2  0  0  0  0
  2  6  2  0  0  0  0
  3  8  2  0  0  0  0
  3 16  1  0  0  0  0
  4  9  1  0  0  0  0
  4 16  2  0  0  0  0
  5 18  1  0  0  0  0
  6 20  1  0  0  0  0
  7 10  2  0  0  0  0
  7 19  1  0  0  0  0
  8 24  1  0  0  0  0
  9 24  2  0  0  0  0
 10 25  1  0  0  0  0
 11 12  2  0  0  0  0
 11 26  1  0  0  0  0
 12 27  1  0  0  0  0
 13 21  1  0  0  0  0
 13 25  2  0  0  0  0
 14 22  1  0  0  0  0
 14 23  2  0  0  0  0
 15 27  2  0  0  0  0
 15 28  1  0  0  0  0
 16 29  1  0  0  0  0
 17 29  1  0  0  0  0
 17 32  2  0  0  0  0
 17 33  1  0  0  0  0
 18 20  2  0  0  0  0
 18 38  1  0  0  0  0
 19 21  2  0  0  0  0
 19 39  1  0  0  0  0
 20 49  1  0  0  0  0
 21 40  1  0  0  0  0
 22 30  2  0  0  0  0
 22 60  1  0  0  0  0
 23 31  1  0  0  0  0
 23 67  1  0  0  0  0
 24 81  1  0  0  0  0
 25 82  1  0  0  0  0
 26 28  2  0  0  0  0
 26 81  1  0  0  0  0
 27 83  1  0  0  0  0
 28 84  1  0  0  0  0
 29 64  2  0  0  0  0
 30 53  1  0  0  0  0
 30 65  1  0  0  0  0
 31 54  1  0  0  0  0
 31 65  2  0  0  0  0
 32 66  1  0  0  0  0
 32 70  1  0  0  0  0
 33 71  1  0  0  0  0
 33 76  2  0  0  0  0
 34 50  1  0  0  0  0
 34 72  1  0  0  0  0
 34 77  2  0  0  0  0
 35 61  1  0  0  0  0
 35 68  1  0  0  0  0
 35 78  2  0  0  0  0
 36 62  1  0  0  0  0
 36 73  1  0  0  0  0
 36 79  2  0  0  0  0
 37 69  1  0  0  0  0
 37 74  1  0  0  0  0
 37 80  2  0  0  0  0
 38 41  1  0  0  0  0
 39 50  1  0  0  0  0
 40 68  1  0  0  0  0
 41 43  1  0  0  0  0
 42 44  1  0  0  0  0
 42 45  1  0  0  0  0
 43 49  1  0  0  0  0
 44 51  1  0  0  0  0
 45 69  1  0  0  0  0
 46 51  1  0  0  0  0
 46 69  1  0  0  0  0
 47 52  1  0  0  0  0
 47 67  1  0  0  0  0
 48 52  1  0  0  0  0
 48 67  1  0  0  0  0
 49 72  1  0  0  0  0
 50 68  1  0  0  0  0
 51 66  1  0  0  0  0
 52 74  1  0  0  0  0
 55 62  1  0  0  0  0
 56 63  1  0  0  0  0
 57 63  1  0  0  0  0
 58 63  1  0  0  0  0
 59 75  1  0  0  0  0
 60 82  1  0  0  0  0
 61 63  1  0  0  0  0
 61 73  1  0  0  0  0
 62 75  1  0  0  0  0
 64 66  1  0  0  0  0
M  CHG  1  75   1
M  ISO  4  37 100  60 101  74 100  82 101
M  END
> <Batch ID>
0168

> <Smiles>
CNC(C)C(=O)NC(C(=O)N1Cc2cc([101O:1][101CH2:1]c3cc(N4CC([100NH:0][100C:0](=O)N5CCCC(n6nc(-c7ccc(Oc8ccc(F)cc8F)cc7)c(C(N)=O)c6N)C5)C4)c(C)nc3C)ccc2CC1C(=O)NC1CCCc2ccccc21)C(C)(C)C

> <Shape>
0.273

> <Color>
0.204

> <Negative vol penalty>
0.000

$$$$

  -OEChem-04052322303D

 85 94  0     1  0  0  0  0  0999 V2000
  -26.7994  -37.8473   22.9501 C   0  0  0  0  0  0  0  0  0  0  0  0
  -27.4295  -36.8976   22.1523 C   0  0  0  0  0  0  0  0  0  0  0  0
  -22.9918  -11.0391   20.9156 C   0  0  0  0  0  0  0  0  0  0  0  0
  -24.1814   -9.1693   21.8776 C   0  0  0  0  0  0  0  0  0  0  0  0
  -26.0120  -37.4403   24.0263 C   0  0  0  0  0  0  0  0  0  0  0  0
  -27.2735  -35.5403   22.4311 C   0  0  0  0  0  0  0  0  0  0  0  0
  -26.9016  -29.1765   19.1629 C   0  0  0  0  0  0  0  0  0  0  0  0
  -21.8762  -10.2262   20.7151 C   0  0  0  0  0  0  0  0  0  0  0  0
  -23.0658   -8.3564   21.6772 C   0  0  0  0  0  0  0  0  0  0  0  0
  -27.4783  -27.9079   19.2066 C   0  0  0  0  0  0  0  0  0  0  0  0
  -20.0858   -7.8060   23.1730 C   0  0  0  0  0  0  0  0  0  0  0  0
  -19.6984   -6.9700   24.2202 C   0  0  0  0  0  0  0  0  0  0  0  0
  -26.0301  -27.3195   21.0439 C   0  0  0  0  0  0  0  0  0  0  0  0
  -29.8987  -22.2771   21.2371 C   0  0  0  0  0  0  0  0  0  0  0  0
  -20.0186   -5.0422   22.7996 C   0  0  0  0  0  0  0  0  0  0  0  0
  -27.1973  -22.3712   20.8634 C   0  0  0  0  0  0  0  0  0  0  0  0
  -24.1445  -10.5106   21.4968 C   0  0  0  0  0  0  0  0  0  0  0  0
  -25.5927  -12.1231   22.8422 C   0  0  0  0  0  0  0  0  0  0  0  0
  -25.8384  -36.0770   24.3125 C   0  0  0  0  0  0  0  0  0  0  0  0
  -25.8906  -29.5304   20.0680 C   0  0  0  0  0  0  0  0  0  0  0  0
  -26.4841  -35.1147   23.5130 C   0  0  0  0  0  0  0  0  0  0  0  0
  -25.4404  -28.5923   21.0080 C   0  0  0  0  0  0  0  0  0  0  0  0
  -29.2424  -23.5008   21.3088 C   0  0  0  0  0  0  0  0  0  0  0  0
  -27.8660  -23.5574   21.1196 C   0  0  0  0  0  0  0  0  0  0  0  0
  -21.9131   -8.8849   21.0959 C   0  0  0  0  0  0  0  0  0  0  0  0
  -27.0446  -26.9802   20.1491 C   0  0  0  0  0  0  0  0  0  0  0  0
  -20.4395   -7.2601   21.9390 C   0  0  0  0  0  0  0  0  0  0  0  0
  -19.6648   -5.5881   24.0335 C   0  0  0  0  0  0  0  0  0  0  0  0
  -20.4059   -5.8782   21.7523 C   0  0  0  0  0  0  0  0  0  0  0  0
  -25.2974  -11.3497   21.7036 C   0  0  0  0  0  0  0  0  0  0  0  0
  -29.1389  -21.1483   20.9759 C   0  0  0  0  0  0  0  0  0  0  0  0
  -26.7885  -12.7297   22.5446 C   0  0  0  0  0  0  0  0  0  0  0  0
  -24.8522  -12.2792   24.0600 C   0  0  0  0  0  0  0  0  0  0  0  0
  -25.5884  -31.7245   22.3480 C   0  0  0  0  0  0  0  0  0  0  0  0
  -22.5426  -30.6153   22.4704 C   0  0  0  0  0  0  0  0  0  0  0  0
  -20.3660  -28.0542   21.8790 C   0  0  0  0  0  0  0  0  0  0  0  0
  -29.8215  -15.5970   18.7425 C   0  0  0  0  0  0  0  0  0  0  0  0
  -25.0160  -35.6868   25.5150 C   0  0  0  0  0  0  0  0  0  0  0  0
  -25.2602  -30.8938   19.9904 C   0  0  0  0  0  0  0  0  0  0  0  0
  -24.3440  -28.9158   21.9887 C   0  0  0  0  0  0  0  0  0  0  0  0
  -24.5982  -34.2185   25.5168 C   0  0  0  0  0  0  0  0  0  0  0  0
  -30.0495  -11.9336   18.7634 C   0  0  0  0  0  0  0  0  0  0  0  0
  -25.7859  -33.3252   25.1731 C   0  0  0  0  0  0  0  0  0  0  0  0
  -28.8271  -11.5228   19.5854 C   0  0  0  0  0  0  0  0  0  0  0  0
  -29.3334  -17.6610   21.7455 C   0  0  0  0  0  0  0  0  0  0  0  0
  -29.8180  -13.2407   18.0087 C   0  0  0  0  0  0  0  0  0  0  0  0
  -28.9812  -16.3539   21.0428 C   0  0  0  0  0  0  0  0  0  0  0  0
  -28.1390  -13.9475   19.6684 C   0  0  0  0  0  0  0  0  0  0  0  0
  -29.6675  -17.9778   19.4127 C   0  0  0  0  0  0  0  0  0  0  0  0
  -26.3190  -33.6323   23.7684 C   0  0  1  0  0  0  0  0  0  0  0  0
  -24.5952  -31.3198   21.2957 C   0  0  1  0  0  0  0  0  0  0  0  0
  -28.3580  -12.6732   20.4956 C   0  0  1  0  0  0  0  0  0  0  0  0
  -29.1186  -18.6892   20.6403 C   0  0  2  0  0  0  0  0  0  0  0  0
  -30.0318  -24.7365   21.5891 C   0  0  0  0  0  0  0  0  0  0  0  0
  -17.9471  -27.4299   22.1174 C   0  0  0  0  0  0  0  0  0  0  0  0
  -22.9487  -30.1953   25.4652 C   0  0  0  0  0  0  0  0  0  0  0  0
  -20.9195  -28.7288   25.4640 C   0  0  0  0  0  0  0  0  0  0  0  0
  -20.7178  -31.1347   24.8366 C   0  0  0  0  0  0  0  0  0  0  0  0
  -31.2691  -19.8799   21.0942 C   0  0  0  0  0  0  0  0  0  0  0  0
  -20.0529  -27.6875   18.9590 C   0  0  0  0  0  0  0  0  0  0  0  0
  -27.1134  -24.8408   21.1856 C   0  0  0  0  0  0  0  0  0  1  0  0
  -21.8316  -29.5255   23.2359 C   0  0  1  0  0  0  0  0  0  0  0  0
  -19.0074  -28.0228   21.2025 C   0  0  2  0  0  0  0  0  0  0  0  0
  -21.6264  -29.8903   24.7333 C   0  0  0  0  0  0  0  0  0  0  0  0
  -27.8005  -21.1638   20.7864 N   0  0  0  0  0  0  0  0  0  0  0  0
  -26.2304  -11.4537   20.7535 N   0  0  0  0  0  0  0  0  0  0  0  0
  -27.1236  -12.2997   21.2944 N   0  0  0  0  0  0  0  0  0  0  0  0
  -23.7634  -30.2641   21.8771 N   0  0  0  0  0  0  0  0  0  0  0  0
  -29.3475  -14.2915   18.9116 N   0  0  0  0  0  0  0  0  0  0  0  0
  -29.3939  -16.5629   19.6525 N   0  0  0  0  0  0  0  0  0  0  0  0
  -27.5755  -13.5836   23.2330 N   0  0  0  0  0  0  0  0  0  0  0  0
  -23.6436  -11.5837   24.2010 N   0  0  0  0  0  0  0  0  0  0  0  0
  -25.4655  -33.0369   22.7626 N   0  0  0  0  0  0  0  0  0  0  0  0
  -20.5941  -29.2582   22.5110 N   0  0  0  0  0  0  0  0  0  0  0  0
  -29.8156  -19.9198   20.9064 N   0  0  3  0  0  0  0  0  0  0  0  0
  -19.0667  -27.2034   19.9590 N   0  3  0  0  0  0  0  0  0  0  0  0
  -25.2425  -13.0265   24.9889 O   0  0  0  0  0  0  0  0  0  0  0  0
  -26.4049  -30.9062   22.7548 O   0  0  0  0  0  0  0  0  0  0  0  0
  -22.0301  -31.7348   22.3955 O   0  0  0  0  0  0  0  0  0  0  0  0
  -21.1452  -27.1041   21.8528 O   0  0  0  0  0  0  0  0  0  0  0  0
  -30.6286  -15.8782   17.8465 O   0  0  0  0  0  0  0  0  0  0  0  0
  -20.8246   -8.0914   20.9006 O   0  0  0  0  0  0  0  0  0  0  0  0
  -27.6100  -25.7332   20.1946 O   0  0  0  0  0  0  0  0  0  1  0  0
  -19.2943   -4.7853   25.0397 F   0  0  0  0  0  0  0  0  0  0  0  0
  -20.7457   -5.3479   20.5695 F   0  0  0  0  0  0  0  0  0  0  0  0
  1  2  1  0  0  0  0
  1  5  2  0  0  0  0
  2  6  2  0  0  0  0
  3  8  2  0  0  0  0
  3 17  1  0  0  0  0
  4  9  1  0  0  0  0
  4 17  2  0  0  0  0
  5 19  1  0  0  0  0
  6 21  1  0  0  0  0
  7 10  2  0  0  0  0
  7 20  1  0  0  0  0
  8 25  1  0  0  0  0
  9 25  2  0  0  0  0
 10 26  1  0  0  0  0
 11 12  2  0  0  0  0
 11 27  1  0  0  0  0
 12 28  1  0  0  0  0
 13 22  1  0  0  0  0
 13 26  2  0  0  0  0
 14 23  1  0  0  0  0
 14 31  2  0  0  0  0
 15 28  2  0  0  0  0
 15 29  1  0  0  0  0
 16 24  1  0  0  0  0
 16 65  2  0  0  0  0
 17 30  1  0  0  0  0
 18 30  1  0  0  0  0
 18 32  2  0  0  0  0
 18 33  1  0  0  0  0
 19 21  2  0  0  0  0
 19 38  1  0  0  0  0
 20 22  2  0  0  0  0
 20 39  1  0  0  0  0
 21 50  1  0  0  0  0
 22 40  1  0  0  0  0
 23 24  2  0  0  0  0
 23 54  1  0  0  0  0
 24 61  1  0  0  0  0
 25 82  1  0  0  0  0
 26 83  1  0  0  0  0
 27 29  2  0  0  0  0
 27 82  1  0  0  0  0
 28 84  1  0  0  0  0
 29 85  1  0  0  0  0
 30 66  2  0  0  0  0
 31 65  1  0  0  0  0
 31 75  1  0  0  0  0
 32 67  1  0  0  0  0
 32 71  1  0  0  0  0
 33 72  1  0  0  0  0
 33 77  2  0  0  0  0
 34 51  1  0  0  0  0
 34 73  1  0  0  0  0
 34 78  2  0  0  0  0
 35 62  1  0  0  0  0
 35 68  1  0  0  0  0
 35 79  2  0  0  0  0
 36 63  1  0  0  0  0
 36 74  1  0  0  0  0
 36 80  2  0  0  0  0
 37 69  1  0  0  0  0
 37 70  1  0  0  0  0
 37 81  2  0  0  0  0
 38 41  1  0  0  0  0
 39 51  1  0  0  0  0
 40 68  1  0  0  0  0
 41 43  1  0  0  0  0
 42 44  1  0  0  0  0
 42 46  1  0  0  0  0
 43 50  1  0  0  0  0
 44 52  1  0  0  0  0
 45 47  1  0  0  0  0
 45 53  1  0  0  0  0
 46 69  1  0  0  0  0
 47 70  1  0  0  0  0
 48 52  1  0  0  0  0
 48 69  1  0  0  0  0
 49 53  1  0  0  0  0
 49 70  1  0  0  0  0
 50 73  1  0  0  0  0
 51 68  1  0  0  0  0
 52 67  1  0  0  0  0
 53 75  1  0  0  0  0
 55 63  1  0  0  0  0
 56 64  1  0  0  0  0
 57 64  1  0  0  0  0
 58 64  1  0  0  0  0
 59 75  1  0  0  0  0
 60 76  1  0  0  0  0
 61 83  1  0  0  0  0
 62 64  1  0  0  0  0
 62 74  1  0  0  0  0
 63 76  1  0  0  0  0
 66 67  1  0  0  0  0
M  CHG  1  76   1
M  ISO  4  37 100  61 101  70 100  83 101
M  END
> <Batch ID>
0168

> <Smiles>
CNC(C)C(=O)NC(C(=O)N1Cc2cc([101O:1][101CH2:1]c3cnc(N(C)C4CC[100N:0]([100C:0](=O)N5CCCC(n6nc(-c7ccc(Oc8ccc(F)cc8F)cc7)c(C(N)=O)c6N)C5)C4)cc3C)ccc2CC1C(=O)NC1CCCc2ccccc21)C(C)(C)C

> <Shape>
0.348

> <Color>
0.105

> <Negative vol penalty>
0.000

$$$$

  -OEChem-04052322303D

 84 94  0     1  0  0  0  0  0999 V2000
  -26.2055  -29.8153   29.2123 C   0  0  0  0  0  0  0  0  0  0  0  0
  -26.8060  -29.3977   28.0290 C   0  0  0  0  0  0  0  0  0  0  0  0
  -26.6367  -12.5853   21.7364 C   0  0  0  0  0  0  0  0  0  0  0  0
  -26.0832  -13.8637   19.7625 C   0  0  0  0  0  0  0  0  0  0  0  0
  -24.8157  -29.8837   29.3011 C   0  0  0  0  0  0  0  0  0  0  0  0
  -26.0171  -29.0472   26.9339 C   0  0  0  0  0  0  0  0  0  0  0  0
  -27.3283  -29.9331   21.0177 C   0  0  0  0  0  0  0  0  0  0  0  0
  -25.3519  -12.0423   21.7450 C   0  0  0  0  0  0  0  0  0  0  0  0
  -24.7984  -13.3207   19.7711 C   0  0  0  0  0  0  0  0  0  0  0  0
  -27.8500  -29.0914   20.0363 C   0  0  0  0  0  0  0  0  0  0  0  0
  -23.6606   -9.6193   20.1016 C   0  0  0  0  0  0  0  0  0  0  0  0
  -23.5386   -8.2460   20.3135 C   0  0  0  0  0  0  0  0  0  0  0  0
  -25.6135  -28.5976   19.2792 C   0  0  0  0  0  0  0  0  0  0  0  0
  -28.2030  -25.4021   17.5790 C   0  0  0  0  0  0  0  0  0  0  0  0
  -22.2106   -8.6685   22.2871 C   0  0  0  0  0  0  0  0  0  0  0  0
  -27.5322  -24.6002   20.0993 C   0  0  0  0  0  0  0  0  0  0  0  0
  -27.0024  -13.4960   20.7451 C   0  0  0  0  0  0  0  0  0  0  0  0
  -29.4657  -13.5431   20.0838 C   0  0  0  0  0  0  0  0  0  0  0  0
  -24.0096  -29.5431   28.2034 C   0  0  0  0  0  0  0  0  0  0  0  0
  -25.9423  -30.1051   21.1444 C   0  0  0  0  0  0  0  0  0  0  0  0
  -24.6152  -29.1098   27.0085 C   0  0  0  0  0  0  0  0  0  0  0  0
  -25.0768  -29.4440   20.2613 C   0  0  0  0  0  0  0  0  0  0  0  0
  -28.3797  -24.0713   17.9410 C   0  0  0  0  0  0  0  0  0  0  0  0
  -28.0409  -23.6547   19.2236 C   0  0  0  0  0  0  0  0  0  0  0  0
  -24.4328  -12.4100   20.7624 C   0  0  0  0  0  0  0  0  0  0  0  0
  -26.9925  -28.4212   19.1688 C   0  0  0  0  0  0  0  0  0  0  0  0
  -23.0577  -10.5172   20.9825 C   0  0  0  0  0  0  0  0  0  0  0  0
  -22.8136   -7.7706   21.4062 C   0  0  0  0  0  0  0  0  0  0  0  0
  -22.3327  -10.0418   22.0753 C   0  0  0  0  0  0  0  0  0  0  0  0
  -28.3292  -14.0577   20.7360 C   0  0  0  0  0  0  0  0  0  0  0  0
  -27.6880  -26.2697   18.5285 C   0  0  0  0  0  0  0  0  0  1  0  0
  -30.4659  -14.4363   20.3808 C   0  0  0  0  0  0  0  0  0  0  0  0
  -29.6048  -12.3632   19.2811 C   0  0  0  0  0  0  0  0  0  0  0  0
  -23.8084  -29.5179   23.4258 C   0  0  0  0  0  0  0  0  0  0  0  0
  -21.7939  -31.0465   21.3942 C   0  0  0  0  0  0  0  0  0  0  0  0
  -21.0711  -31.9903   18.1952 C   0  0  0  0  0  0  0  0  0  0  0  0
  -30.4082  -20.2205   21.9101 C   0  0  0  0  0  0  0  0  0  0  0  0
  -22.5104  -29.5877   28.3622 C   0  0  0  0  0  0  0  0  0  0  0  0
  -25.3965  -31.0374   22.1910 C   0  0  0  0  0  0  0  0  0  0  0  0
  -23.5821  -29.6105   20.3426 C   0  0  0  0  0  0  0  0  0  0  0  0
  -21.7562  -29.5575   27.0354 C   0  0  0  0  0  0  0  0  0  0  0  0
  -31.8576  -17.5491   23.7117 C   0  0  0  0  0  0  0  0  0  0  0  0
  -28.7531  -23.3993   15.4746 C   0  0  0  0  0  0  0  0  0  0  0  0
  -27.9803  -22.2881   16.1136 C   0  0  0  0  0  0  0  0  0  0  0  0
  -22.3221  -28.4729   26.1242 C   0  0  0  0  0  0  0  0  0  0  0  0
  -31.2050  -16.3010   23.1239 C   0  0  0  0  0  0  0  0  0  0  0  0
  -27.2602  -21.7189   20.7705 C   0  0  0  0  0  0  0  0  0  0  0  0
  -30.8563  -18.6931   23.7986 C   0  0  0  0  0  0  0  0  0  0  0  0
  -27.9404  -20.4474   21.2598 C   0  0  0  0  0  0  0  0  0  0  0  0
  -29.5794  -21.9066   20.2970 C   0  0  0  0  0  0  0  0  0  0  0  0
  -29.5944  -17.8126   21.8537 C   0  0  0  0  0  0  0  0  0  0  0  0
  -28.9319  -23.1105   16.9415 C   0  0  0  0  0  0  0  0  0  0  0  0
  -28.2124  -22.2203   19.6727 C   0  0  2  0  0  0  0  0  0  0  0  0
  -23.7940  -28.7450   25.7909 C   0  0  1  0  0  0  0  0  0  0  0  0
  -23.9468  -30.7382   22.5602 C   0  0  1  0  0  0  0  0  0  0  0  0
  -30.5626  -16.6150   21.7639 C   0  0  2  0  0  0  0  0  0  0  0  0
  -19.3365  -33.1971   16.8417 C   0  0  0  0  0  0  0  0  0  0  0  0
  -19.9575  -28.6174   21.5863 C   0  0  0  0  0  0  0  0  0  0  0  0
  -18.7682  -29.4422   19.5434 C   0  0  0  0  0  0  0  0  0  0  0  0
  -18.7779  -30.8224   21.6213 C   0  0  0  0  0  0  0  0  0  0  0  0
  -23.0170  -34.0383   17.3132 C   0  0  0  0  0  0  0  0  0  0  0  0
  -20.8969  -30.6215   20.2569 C   0  0  1  0  0  0  0  0  0  0  0  0
  -20.6421  -33.3241   17.6110 C   0  0  2  0  0  0  0  0  0  0  0  0
  -19.6282  -29.8710   20.7514 C   0  0  0  0  0  0  0  0  0  0  0  0
  -27.3465  -25.9017   19.7838 N   0  0  0  0  0  0  0  0  0  0  0  0
  -28.5829  -15.1899   21.3976 N   0  0  0  0  0  0  0  0  0  0  0  0
  -29.8903  -15.3941   21.1627 N   0  0  0  0  0  0  0  0  0  0  0  0
  -23.0966  -30.5279   21.3867 N   0  0  0  0  0  0  0  0  0  0  0  0
  -30.2290  -18.9664   22.5043 N   0  0  0  0  0  0  0  0  0  0  0  0
  -29.3689  -20.7276   21.1310 N   0  0  0  0  0  0  0  0  0  0  0  0
  -31.7729  -14.4879   20.0468 N   0  0  0  0  0  0  0  0  0  0  0  0
  -28.4764  -11.5574   19.0766 N   0  0  0  0  0  0  0  0  0  0  0  0
  -23.9012  -29.7754   24.7803 N   0  0  0  0  0  0  0  0  0  0  0  0
  -20.6152  -31.8278   19.4863 N   0  0  0  0  0  0  0  0  0  0  0  0
  -21.6861  -33.8428   16.6826 N   0  3  0  0  0  0  0  0  0  0  0  0
  -30.7011  -12.0244   18.7743 O   0  0  0  0  0  0  0  0  0  0  0  0
  -23.6291  -28.4238   22.9036 O   0  0  0  0  0  0  0  0  0  0  0  0
  -21.3573  -31.8162   22.2536 O   0  0  0  0  0  0  0  0  0  0  0  0
  -21.7403  -31.1725   17.5675 O   0  0  0  0  0  0  0  0  0  0  0  0
  -31.4386  -20.8807   22.1006 O   0  0  0  0  0  0  0  0  0  0  0  0
  -23.1791  -11.8802   20.7704 O   0  0  0  0  0  0  0  0  0  0  0  0
  -27.5065  -27.5866   18.1965 O   0  0  0  0  0  0  0  0  0  1  0  0
  -22.6952   -6.4519   21.6087 F   0  0  0  0  0  0  0  0  0  0  0  0
  -21.7503  -10.8995   22.9243 F   0  0  0  0  0  0  0  0  0  0  0  0
  1  2  1  0  0  0  0
  1  5  2  0  0  0  0
  2  6  2  0  0  0  0
  3  8  2  0  0  0  0
  3 17  1  0  0  0  0
  4  9  1  0  0  0  0
  4 17  2  0  0  0  0
  5 19  1  0  0  0  0
  6 21  1  0  0  0  0
  7 10  2  0  0  0  0
  7 20  1  0  0  0  0
  8 25  1  0  0  0  0
  9 25  2  0  0  0  0
 10 26  1  0  0  0  0
 11 12  2  0  0  0  0
 11 27  1  0  0  0  0
 12 28  1  0  0  0  0
 13 22  1  0  0  0  0
 13 26  2  0  0  0  0
 14 23  2  0  0  0  0
 14 31  1  0  0  0  0
 15 28  2  0  0  0  0
 15 29  1  0  0  0  0
 16 24  2  0  0  0  0
 16 65  1  0  0  0  0
 17 30  1  0  0  0  0
 18 30  1  0  0  0  0
 18 32  2  0  0  0  0
 18 33  1  0  0  0  0
 19 21  2  0  0  0  0
 19 38  1  0  0  0  0
 20 22  2  0  0  0  0
 20 39  1  0  0  0  0
 21 54  1  0  0  0  0
 22 40  1  0  0  0  0
 23 24  1  0  0  0  0
 23 52  1  0  0  0  0
 24 53  1  0  0  0  0
 25 81  1  0  0  0  0
 26 82  1  0  0  0  0
 27 29  2  0  0  0  0
 27 81  1  0  0  0  0
 28 83  1  0  0  0  0
 29 84  1  0  0  0  0
 30 66  2  0  0  0  0
 31 65  2  0  0  0  0
 31 82  1  0  0  0  0
 32 67  1  0  0  0  0
 32 71  1  0  0  0  0
 33 72  1  0  0  0  0
 33 76  2  0  0  0  0
 34 55  1  0  0  0  0
 34 73  1  0  0  0  0
 34 77  2  0  0  0  0
 35 62  1  0  0  0  0
 35 68  1  0  0  0  0
 35 78  2  0  0  0  0
 36 63  1  0  0  0  0
 36 74  1  0  0  0  0
 36 79  2  0  0  0  0
 37 69  1  0  0  0  0
 37 70  1  0  0  0  0
 37 80  2  0  0  0  0
 38 41  1  0  0  0  0
 39 55  1  0  0  0  0
 40 68  1  0  0  0  0
 41 45  1  0  0  0  0
 42 46  1  0  0  0  0
 42 48  1  0  0  0  0
 43 44  1  0  0  0  0
 43 52  1  0  0  0  0
 44 52  1  0  0  0  0
 45 54  1  0  0  0  0
 46 56  1  0  0  0  0
 47 49  1  0  0  0  0
 47 53  1  0  0  0  0
 48 69  1  0  0  0  0
 49 70  1  0  0  0  0
 50 53  1  0  0  0  0
 50 70  1  0  0  0  0
 51 56  1  0  0  0  0
 51 69  1  0  0  0  0
 54 73  1  0  0  0  0
 55 68  1  0  0  0  0
 56 67  1  0  0  0  0
 57 63  1  0  0  0  0
 58 64  1  0  0  0  0
 59 64  1  0  0  0  0
 60 64  1  0  0  0  0
 61 75  1  0  0  0  0
 62 64  1  0  0  0  0
 62 74  1  0  0  0  0
 63 75  1  0  0  0  0
 66 67  1  0  0  0  0
M  CHG  1  75   1
M  ISO  4  31 101  37 100  70 100  82 101
M  END
> <Batch ID>
0168

> <Smiles>
CNC(C)C(=O)NC(C(=O)N1Cc2cc([101O:1][101c:1]3cc(C4CC4)c(C4CC[100N:0]([100C:0](=O)N5CCCC(n6nc(-c7ccc(Oc8ccc(F)cc8F)cc7)c(C(N)=O)c6N)C5)C4)cn3)ccc2CC1C(=O)NC1CCCc2ccccc21)C(C)(C)C

> <Shape>
0.270

> <Color>
0.093

> <Negative vol penalty>
0.000

$$$$

  -OEChem-04052322303D

 88 98  0     1  0  0  0  0  0999 V2000
  -26.4985  -36.4982   22.6477 C   0  0  0  0  0  0  0  0  0  0  0  0
  -27.4834  -35.5985   22.2530 C   0  0  0  0  0  0  0  0  0  0  0  0
  -24.0241   -9.9676   22.7117 C   0  0  0  0  0  0  0  0  0  0  0  0
  -24.3655  -11.8179   24.2273 C   0  0  0  0  0  0  0  0  0  0  0  0
  -25.3148  -36.0292   23.2160 C   0  0  0  0  0  0  0  0  0  0  0  0
  -27.2857  -34.2292   22.4272 C   0  0  0  0  0  0  0  0  0  0  0  0
  -28.8648  -27.9309   19.4018 C   0  0  0  0  0  0  0  0  0  0  0  0
  -23.5846   -9.1782   23.7744 C   0  0  0  0  0  0  0  0  0  0  0  0
  -23.9260  -11.0285   25.2900 C   0  0  0  0  0  0  0  0  0  0  0  0
  -29.4169  -26.6910   19.7208 C   0  0  0  0  0  0  0  0  0  0  0  0
  -20.7589   -8.7962   25.5916 C   0  0  0  0  0  0  0  0  0  0  0  0
  -19.6105   -8.0287   25.3974 C   0  0  0  0  0  0  0  0  0  0  0  0
  -27.2994  -25.9915   20.6407 C   0  0  0  0  0  0  0  0  0  0  0  0
  -20.8790   -6.0197   25.8353 C   0  0  0  0  0  0  0  0  0  0  0  0
  -24.4146  -11.2874   22.9381 C   0  0  0  0  0  0  0  0  0  0  0  0
  -24.0844  -12.9272   21.0120 C   0  0  0  0  0  0  0  0  0  0  0  0
  -25.0984  -34.6530   23.3884 C   0  0  0  0  0  0  0  0  0  0  0  0
  -27.5266  -28.2147   19.7102 C   0  0  0  0  0  0  0  0  0  0  0  0
  -26.0985  -33.7415   22.9995 C   0  0  0  0  0  0  0  0  0  0  0  0
  -26.7320  -27.2348   20.3222 C   0  0  0  0  0  0  0  0  0  0  0  0
  -29.5116  -22.0124   22.8705 C   0  0  0  0  0  0  0  0  0  0  0  0
  -30.2309  -20.8460   23.1057 C   0  0  0  0  0  0  0  0  0  0  0  0
  -29.0910  -22.3151   21.5803 C   0  0  0  0  0  0  0  0  0  0  0  0
  -23.5356   -9.7086   25.0635 C   0  0  0  0  0  0  0  0  0  0  0  0
  -28.6351  -25.7222   20.3430 C   0  0  0  0  0  0  0  0  0  0  0  0
  -21.9674   -8.1754   25.9075 C   0  0  0  0  0  0  0  0  0  0  0  0
  -19.6705   -6.6405   25.5193 C   0  0  0  0  0  0  0  0  0  0  0  0
  -22.0274   -6.7871   26.0294 C   0  0  0  0  0  0  0  0  0  0  0  0
  -24.8692  -12.1032   21.8409 C   0  0  0  0  0  0  0  0  0  0  0  0
  -30.5017  -20.0221   22.0251 C   0  0  0  0  0  0  0  0  0  0  0  0
  -29.4130  -21.4255   20.5679 C   0  0  0  0  0  0  0  0  0  0  0  0
  -24.9810  -13.4832   20.1326 C   0  0  0  0  0  0  0  0  0  0  0  0
  -22.6713  -13.1685   21.0351 C   0  0  0  0  0  0  0  0  0  0  0  0
  -26.0527  -30.3392   21.5589 C   0  0  0  0  0  0  0  0  0  0  0  0
  -23.3845  -29.0813   20.2096 C   0  0  0  0  0  0  0  0  0  0  0  0
  -21.8973  -26.4319   18.6553 C   0  0  0  0  0  0  0  0  0  0  0  0
  -30.8537  -14.5731   20.4278 C   0  0  0  0  0  0  0  0  0  0  0  0
  -23.8227  -34.1961   24.0507 C   0  0  0  0  0  0  0  0  0  0  0  0
  -26.9386  -29.5474   19.3354 C   0  0  0  0  0  0  0  0  0  0  0  0
  -25.2844  -27.4824   20.6561 C   0  0  0  0  0  0  0  0  0  0  0  0
  -23.5342  -32.7097   23.8567 C   0  0  0  0  0  0  0  0  0  0  0  0
  -29.1735  -12.5991   18.0003 C   0  0  0  0  0  0  0  0  0  0  0  0
  -28.4671  -22.3939   25.2024 C   0  0  0  0  0  0  0  0  0  0  0  0
  -27.7574  -23.3101   24.2552 C   0  0  0  0  0  0  0  0  0  0  0  0
  -24.7872  -31.8830   24.1275 C   0  0  0  0  0  0  0  0  0  0  0  0
  -27.8070  -12.3254   18.6308 C   0  0  0  0  0  0  0  0  0  0  0  0
  -30.6165  -17.5157   22.8935 C   0  0  0  0  0  0  0  0  0  0  0  0
  -30.2871  -12.5996   19.0454 C   0  0  0  0  0  0  0  0  0  0  0  0
  -28.6986  -13.2279   20.8197 C   0  0  0  0  0  0  0  0  0  0  0  0
  -29.1924  -22.9371   24.0018 C   0  0  0  0  0  0  0  0  0  0  0  0
  -25.9106  -32.2473   23.1494 C   0  0  1  0  0  0  0  0  0  0  0  0
  -31.2851  -18.7008   22.1338 C   0  0  1  0  0  0  0  0  0  0  0  0
  -25.7080  -29.9109   20.1605 C   0  0  1  0  0  0  0  0  0  0  0  0
  -27.5349  -13.2734   19.8145 C   0  0  2  0  0  0  0  0  0  0  0  0
  -31.3040  -16.5670   21.8871 C   0  0  2  0  0  0  0  0  0  0  0  0
  -31.2990  -17.7540   20.8944 C   0  0  2  0  0  0  0  0  0  0  0  0
  -30.7011  -20.4825   24.4731 C   0  0  0  0  0  0  0  0  0  0  0  0
  -28.9889  -21.6971   19.1615 C   0  0  0  0  0  0  0  0  0  0  0  0
  -19.6970  -25.6860   17.7068 C   0  0  0  0  0  0  0  0  0  0  0  0
  -22.3284  -28.6135   23.0337 C   0  0  0  0  0  0  0  0  0  0  0  0
  -20.6293  -27.0509   22.0645 C   0  0  0  0  0  0  0  0  0  0  0  0
  -20.6246  -29.4578   21.4093 C   0  0  0  0  0  0  0  0  0  0  0  0
  -23.0410  -26.1169   15.9439 C   0  0  0  0  0  0  0  0  0  0  0  0
  -28.3134  -23.5656   21.2925 C   0  0  0  0  0  0  0  0  0  1  0  0
  -22.4531  -27.9413   20.5440 C   0  0  1  0  0  0  0  0  0  0  0  0
  -21.0325  -26.3502   17.4103 C   0  0  2  0  0  0  0  0  0  0  0  0
  -21.5366  -28.2616   21.7585 C   0  0  0  0  0  0  0  0  0  0  0  0
  -26.1647  -12.1302   21.5169 N   0  0  0  0  0  0  0  0  0  0  0  0
  -30.1098  -20.2827   20.7578 N   0  0  0  0  0  0  0  0  0  0  0  0
  -26.2008  -12.9778   20.4746 N   0  0  0  0  0  0  0  0  0  0  0  0
  -24.7571  -28.8033   20.2754 N   0  0  0  0  0  0  0  0  0  0  0  0
  -29.9676  -13.5239   20.1363 N   0  0  0  0  0  0  0  0  0  0  0  0
  -24.8372  -14.3501   19.1078 N   0  0  0  0  0  0  0  0  0  0  0  0
  -21.8978  -12.5160   22.0047 N   0  0  0  0  0  0  0  0  0  0  0  0
  -25.6763  -31.6344   21.8595 N   0  0  0  0  0  0  0  0  0  0  0  0
  -21.7302  -27.6309   19.3154 N   0  0  0  0  0  0  0  0  0  0  0  0
  -30.4791  -15.4145   21.4701 N   0  0  0  0  0  0  0  0  0  0  0  0
  -32.5324  -17.8553   20.1034 N   0  3  0  0  0  0  0  0  0  0  0  0
  -21.7238  -25.5631   16.3503 N   0  3  0  0  0  0  0  0  0  0  0  0
  -22.1088  -13.9272   20.2095 O   0  0  0  0  0  0  0  0  0  0  0  0
  -26.6169  -29.5523   22.3100 O   0  0  0  0  0  0  0  0  0  0  0  0
  -22.9115  -30.1761   19.8944 O   0  0  0  0  0  0  0  0  0  0  0  0
  -22.6434  -25.5216   19.0091 O   0  0  0  0  0  0  0  0  0  0  0  0
  -31.9031  -14.7581   19.8019 O   0  0  0  0  0  0  0  0  0  0  0  0
  -23.1066   -8.9387   26.1007 O   0  0  0  0  0  0  0  0  0  0  0  0
  -29.1716  -24.5114   20.6560 O   0  0  0  0  0  0  0  0  0  1  0  0
  -18.5672   -5.9038   25.3344 F   0  0  0  0  0  0  0  0  0  0  0  0
  -23.1853   -6.1852   26.3339 F   0  0  0  0  0  0  0  0  0  0  0  0
  1  2  1  0  0  0  0
  1  5  2  0  0  0  0
  2  6  2  0  0  0  0
  3  8  2  0  0  0  0
  3 15  1  0  0  0  0
  4  9  1  0  0  0  0
  4 15  2  0  0  0  0
  5 17  1  0  0  0  0
  6 19  1  0  0  0  0
  7 10  2  0  0  0  0
  7 18  1  0  0  0  0
  8 24  1  0  0  0  0
  9 24  2  0  0  0  0
 10 25  1  0  0  0  0
 11 12  2  0  0  0  0
 11 26  1  0  0  0  0
 12 27  1  0  0  0  0
 13 20  1  0  0  0  0
 13 25  2  0  0  0  0
 14 27  2  0  0  0  0
 14 28  1  0  0  0  0
 15 29  1  0  0  0  0
 16 29  1  0  0  0  0
 16 32  2  0  0  0  0
 16 33  1  0  0  0  0
 17 19  2  0  0  0  0
 17 38  1  0  0  0  0
 18 20  2  0  0  0  0
 18 39  1  0  0  0  0
 19 51  1  0  0  0  0
 20 40  1  0  0  0  0
 21 22  1  0  0  0  0
 21 23  2  0  0  0  0
 21 50  1  0  0  0  0
 22 30  2  0  0  0  0
 22 57  1  0  0  0  0
 23 31  1  0  0  0  0
 23 64  1  0  0  0  0
 24 85  1  0  0  0  0
 25 86  1  0  0  0  0
 26 28  2  0  0  0  0
 26 85  1  0  0  0  0
 27 87  1  0  0  0  0
 28 88  1  0  0  0  0
 29 68  2  0  0  0  0
 30 52  1  0  0  0  0
 30 69  1  0  0  0  0
 31 58  1  0  0  0  0
 31 69  2  0  0  0  0
 32 70  1  0  0  0  0
 32 73  1  0  0  0  0
 33 74  1  0  0  0  0
 33 80  2  0  0  0  0
 34 53  1  0  0  0  0
 34 75  1  0  0  0  0
 34 81  2  0  0  0  0
 35 65  1  0  0  0  0
 35 71  1  0  0  0  0
 35 82  2  0  0  0  0
 36 66  1  0  0  0  0
 36 76  1  0  0  0  0
 36 83  2  0  0  0  0
 37 72  1  0  0  0  0
 37 77  1  0  0  0  0
 37 84  2  0  0  0  0
 38 41  1  0  0  0  0
 39 53  1  0  0  0  0
 40 71  1  0  0  0  0
 41 45  1  0  0  0  0
 42 46  1  0  0  0  0
 42 48  1  0  0  0  0
 43 44  1  0  0  0  0
 43 50  1  0  0  0  0
 44 50  1  0  0  0  0
 45 51  1  0  0  0  0
 46 54  1  0  0  0  0
 47 52  1  0  0  0  0
 47 55  1  0  0  0  0
 48 72  1  0  0  0  0
 49 54  1  0  0  0  0
 49 72  1  0  0  0  0
 51 75  1  0  0  0  0
 52 56  1  0  0  0  0
 53 71  1  0  0  0  0
 54 70  1  0  0  0  0
 55 56  1  0  0  0  0
 55 77  1  0  0  0  0
 56 78  1  0  0  0  0
 59 66  1  0  0  0  0
 60 67  1  0  0  0  0
 61 67  1  0  0  0  0
 62 67  1  0  0  0  0
 63 79  1  0  0  0  0
 64 86  1  0  0  0  0
 65 67  1  0  0  0  0
 65 76  1  0  0  0  0
 66 79  1  0  0  0  0
 68 70  1  0  0  0  0
M  CHG  2  78   1  79   1
M  ISO  4  37 100  64 101  77 100  86 101
M  END
> <Batch ID>
0168

> <Smiles>
CNC(C)C(=O)NC(C(=O)N1Cc2cc([101O:1][101CH2:1]c3c(C)nc(C4CC([100NH:0][100C:0](=O)N5CCCC(n6nc(-c7ccc(Oc8ccc(F)cc8F)cc7)c(C(N)=O)c6N)C5)C4N)c(C)c3C3CC3)ccc2CC1C(=O)NC1CCCc2ccccc21)C(C)(C)C

> <Shape>
0.318

> <Color>
0.111

> <Negative vol penalty>
0.000

$$$$

  -OEChem-04052322303D

 86 95  0     1  0  0  0  0  0999 V2000
  -16.6584  -25.1774   24.2654 C   0  0  0  0  0  0  0  0  0  0  0  0
  -17.3299  -24.3996   23.3275 C   0  0  0  0  0  0  0  0  0  0  0  0
  -26.7588  -17.5977   19.8999 C   0  0  0  0  0  0  0  0  0  0  0  0
  -28.6436  -17.5011   21.4083 C   0  0  0  0  0  0  0  0  0  0  0  0
  -16.9561  -26.5342   24.3857 C   0  0  0  0  0  0  0  0  0  0  0  0
  -18.2987  -24.9785   22.5085 C   0  0  0  0  0  0  0  0  0  0  0  0
  -23.4347  -22.3483   20.4569 C   0  0  0  0  0  0  0  0  0  0  0  0
  -26.1938  -16.4919   20.5351 C   0  0  0  0  0  0  0  0  0  0  0  0
  -28.0785  -16.3954   22.0436 C   0  0  0  0  0  0  0  0  0  0  0  0
  -23.7587  -21.7438   19.2431 C   0  0  0  0  0  0  0  0  0  0  0  0
  -26.6018  -13.1367   20.5258 C   0  0  0  0  0  0  0  0  0  0  0  0
  -26.0754  -12.1266   19.7207 C   0  0  0  0  0  0  0  0  0  0  0  0
  -24.7296  -23.8151   18.4775 C   0  0  0  0  0  0  0  0  0  0  0  0
  -23.9023  -12.4607   20.7222 C   0  0  0  0  0  0  0  0  0  0  0  0
  -27.9838  -18.1023   20.3364 C   0  0  0  0  0  0  0  0  0  0  0  0
  -28.3782  -20.6007   20.0049 C   0  0  0  0  0  0  0  0  0  0  0  0
  -17.9359  -27.1279   23.5745 C   0  0  0  0  0  0  0  0  0  0  0  0
  -23.7465  -23.6961   20.6864 C   0  0  0  0  0  0  0  0  0  0  0  0
  -18.6088  -26.3448   22.6172 C   0  0  0  0  0  0  0  0  0  0  0  0
  -24.4108  -24.4337   19.6960 C   0  0  0  0  0  0  0  0  0  0  0  0
  -26.8536  -15.8908   21.6070 C   0  0  0  0  0  0  0  0  0  0  0  0
  -24.4036  -22.4779   18.2521 C   0  0  0  0  0  0  0  0  0  0  0  0
  -25.7784  -13.8088   21.4292 C   0  0  0  0  0  0  0  0  0  0  0  0
  -24.7257  -11.7886   19.8189 C   0  0  0  0  0  0  0  0  0  0  0  0
  -24.4287  -13.4708   21.5274 C   0  0  0  0  0  0  0  0  0  0  0  0
  -28.5683  -19.2442   19.6802 C   0  0  0  0  0  0  0  0  0  0  0  0
  -29.1448  -21.2829   19.0920 C   0  0  0  0  0  0  0  0  0  0  0  0
  -27.5801  -21.1913   21.0392 C   0  0  0  0  0  0  0  0  0  0  0  0
  -22.0542  -26.3199   21.2825 C   0  0  0  0  0  0  0  0  0  0  0  0
  -24.9858  -27.6485   21.6868 C   0  0  0  0  0  0  0  0  0  0  0  0
  -28.3283  -27.5544   21.0046 C   0  0  0  0  0  0  0  0  0  0  0  0
  -31.0763  -20.1483   13.6760 C   0  0  0  0  0  0  0  0  0  0  0  0
  -18.1897  -28.6085   23.7085 C   0  0  0  0  0  0  0  0  0  0  0  0
  -23.4142  -24.3261   22.0112 C   0  0  0  0  0  0  0  0  0  0  0  0
  -24.7857  -25.8780   19.9004 C   0  0  0  0  0  0  0  0  0  0  0  0
  -19.4948  -29.0639   23.0606 C   0  0  0  0  0  0  0  0  0  0  0  0
  -33.0740  -20.8372   16.4088 C   0  0  0  0  0  0  0  0  0  0  0  0
  -19.6367  -28.4625   21.6660 C   0  0  0  0  0  0  0  0  0  0  0  0
  -32.1359  -20.6450   17.6003 C   0  0  0  0  0  0  0  0  0  0  0  0
  -25.3759  -20.6008   14.6065 C   0  0  0  0  0  0  0  0  0  0  0  0
  -32.8509  -19.7556   15.3579 C   0  0  0  0  0  0  0  0  0  0  0  0
  -29.1492  -21.0538   12.4273 C   0  0  0  0  0  0  0  0  0  0  0  0
  -28.9222  -18.8456   13.4847 C   0  0  0  0  0  0  0  0  0  0  0  0
  -27.6800  -21.3307   12.7464 C   0  0  0  0  0  0  0  0  0  0  0  0
  -27.4611  -19.1603   13.7986 C   0  0  0  0  0  0  0  0  0  0  0  0
  -30.4927  -19.4787   16.0490 C   0  0  0  0  0  0  0  0  0  0  0  0
  -23.0401  -19.6816   14.5606 C   0  0  0  0  0  0  0  0  0  0  0  0
  -19.6838  -26.9310   21.7278 C   0  0  1  0  0  0  0  0  0  0  0  0
  -23.3186  -25.8471   21.9423 C   0  0  1  0  0  0  0  0  0  0  0  0
  -30.6701  -20.5533   17.1405 C   0  0  1  0  0  0  0  0  0  0  0  0
  -25.4974  -20.3686   13.0951 C   0  0  2  0  0  0  0  0  0  0  0  0
  -24.5840  -19.2240   12.6052 C   0  0  2  0  0  0  0  0  0  0  0  0
  -23.9238  -20.8331   15.0630 C   0  0  2  0  0  0  0  0  0  0  0  0
  -24.6225  -19.0811   11.0788 C   0  0  0  0  0  0  0  0  0  0  0  0
  -23.4009  -22.1963   14.5689 C   0  0  0  0  0  0  0  0  0  0  0  0
  -30.4643  -28.7958   21.4447 C   0  0  0  0  0  0  0  0  0  0  0  0
  -24.1607  -29.7799   19.6653 C   0  0  0  0  0  0  0  0  0  0  0  0
  -26.5762  -30.3966   19.4344 C   0  0  0  0  0  0  0  0  0  0  0  0
  -25.4316  -30.6480   21.6365 C   0  0  0  0  0  0  0  0  0  0  0  0
  -22.1452  -18.4738   12.5997 C   0  0  0  0  0  0  0  0  0  0  0  0
  -29.5410  -25.2204   22.3614 C   0  0  0  0  0  0  0  0  0  0  0  0
  -23.8823  -20.8448   16.6037 C   0  0  0  0  0  0  0  0  0  1  0  0
  -25.9832  -28.3328   20.7835 C   0  0  1  0  0  0  0  0  0  0  0  0
  -29.5440  -27.6762   21.9055 C   0  0  2  0  0  0  0  0  0  0  0  0
  -25.5293  -29.7626   20.3750 C   0  0  0  0  0  0  0  0  0  0  0  0
  -29.3910  -19.0728   18.6420 N   0  0  0  0  0  0  0  0  0  0  0  0
  -29.7246  -20.3306   18.3064 N   0  0  0  0  0  0  0  0  0  0  0  0
  -24.4339  -26.4509   21.2102 N   0  0  0  0  0  0  0  0  0  0  0  0
  -31.4471  -19.6975   14.9517 N   0  0  0  0  0  0  0  0  0  0  0  0
  -29.7139  -20.0728   13.3494 N   0  0  0  0  0  0  0  0  0  0  0  0
  -26.9018  -20.0857   12.8029 N   0  0  0  0  0  0  0  0  0  0  0  0
  -29.3727  -22.5985   18.8926 N   0  0  0  0  0  0  0  0  0  0  0  0
  -26.8554  -20.3450   21.8894 N   0  0  0  0  0  0  0  0  0  0  0  0
  -20.9926  -26.4823   22.1520 N   0  0  0  0  0  0  0  0  0  0  0  0
  -27.2634  -28.2889   21.4817 N   0  0  0  0  0  0  0  0  0  0  0  0
  -23.1475  -19.5103   13.0574 N   0  3  1  0  0  0  0  0  0  0  0  0
  -30.3176  -26.4024   21.9067 N   0  3  0  0  0  0  0  0  0  0  0  0
  -27.4987  -22.4334   21.1943 O   0  0  0  0  0  0  0  0  0  0  0  0
  -22.0430  -26.5239   20.0742 O   0  0  0  0  0  0  0  0  0  0  0  0
  -24.7120  -28.1540   22.7781 O   0  0  0  0  0  0  0  0  0  0  0  0
  -28.3249  -26.8784   19.9782 O   0  0  0  0  0  0  0  0  0  0  0  0
  -31.9084  -20.5971   12.8779 O   0  0  0  0  0  0  0  0  0  0  0  0
  -26.3024  -14.8119   22.2273 O   0  0  0  0  0  0  0  0  0  0  0  0
  -24.7238  -21.8842   17.0535 O   0  0  0  0  0  0  0  0  0  1  0  0
  -24.2200  -10.8196   19.0446 F   0  0  0  0  0  0  0  0  0  0  0  0
  -23.6325  -14.1138   22.3926 F   0  0  0  0  0  0  0  0  0  0  0  0
  1  2  1  0  0  0  0
  1  5  2  0  0  0  0
  2  6  2  0  0  0  0
  3  8  2  0  0  0  0
  3 15  1  0  0  0  0
  4  9  1  0  0  0  0
  4 15  2  0  0  0  0
  5 17  1  0  0  0  0
  6 19  1  0  0  0  0
  7 10  2  0  0  0  0
  7 18  1  0  0  0  0
  8 21  1  0  0  0  0
  9 21  2  0  0  0  0
 10 22  1  0  0  0  0
 11 12  2  0  0  0  0
 11 23  1  0  0  0  0
 12 24  1  0  0  0  0
 13 20  1  0  0  0  0
 13 22  2  0  0  0  0
 14 24  2  0  0  0  0
 14 25  1  0  0  0  0
 15 26  1  0  0  0  0
 16 26  1  0  0  0  0
 16 27  2  0  0  0  0
 16 28  1  0  0  0  0
 17 19  2  0  0  0  0
 17 33  1  0  0  0  0
 18 20  2  0  0  0  0
 18 34  1  0  0  0  0
 19 48  1  0  0  0  0
 20 35  1  0  0  0  0
 21 83  1  0  0  0  0
 22 84  1  0  0  0  0
 23 25  2  0  0  0  0
 23 83  1  0  0  0  0
 24 85  1  0  0  0  0
 25 86  1  0  0  0  0
 26 66  2  0  0  0  0
 27 67  1  0  0  0  0
 27 72  1  0  0  0  0
 28 73  1  0  0  0  0
 28 78  2  0  0  0  0
 29 49  1  0  0  0  0
 29 74  1  0  0  0  0
 29 79  2  0  0  0  0
 30 63  1  0  0  0  0
 30 68  1  0  0  0  0
 30 80  2  0  0  0  0
 31 64  1  0  0  0  0
 31 75  1  0  0  0  0
 31 81  2  0  0  0  0
 32 69  1  0  0  0  0
 32 70  1  0  0  0  0
 32 82  2  0  0  0  0
 33 36  1  0  0  0  0
 34 49  1  0  0  0  0
 35 68  1  0  0  0  0
 36 38  1  0  0  0  0
 37 39  1  0  0  0  0
 37 41  1  0  0  0  0
 38 48  1  0  0  0  0
 39 50  1  0  0  0  0
 40 51  1  0  0  0  0
 40 53  1  0  0  0  0
 41 69  1  0  0  0  0
 42 44  1  0  0  0  0
 42 70  1  0  0  0  0
 43 45  1  0  0  0  0
 43 70  1  0  0  0  0
 44 71  1  0  0  0  0
 45 71  1  0  0  0  0
 46 50  1  0  0  0  0
 46 69  1  0  0  0  0
 47 53  1  0  0  0  0
 47 76  1  0  0  0  0
 48 74  1  0  0  0  0
 49 68  1  0  0  0  0
 50 67  1  0  0  0  0
 51 52  1  0  0  0  0
 51 71  1  0  0  0  0
 52 54  1  0  0  0  0
 52 76  1  0  0  0  0
 53 55  1  0  0  0  0
 53 62  1  0  0  0  0
 56 64  1  0  0  0  0
 57 65  1  0  0  0  0
 58 65  1  0  0  0  0
 59 65  1  0  0  0  0
 60 76  1  0  0  0  0
 61 77  1  0  0  0  0
 62 84  1  0  0  0  0
 63 65  1  0  0  0  0
 63 75  1  0  0  0  0
 64 77  1  0  0  0  0
 66 67  1  0  0  0  0
M  CHG  2  76   1  77   1
M  ISO  4  32 100  62 101  70 100  84 101
M  END
> <Batch ID>
0168

> <Smiles>
CNC(C)C(=O)NC(C(=O)N1Cc2cc([101O:1][101CH2:1]C3(C)CC(N4CC[100N:0]([100C:0](=O)N5CCCC(n6nc(-c7ccc(Oc8ccc(F)cc8F)cc7)c(C(N)=O)c6N)C5)CC4)C(C)N(C)C3)ccc2CC1C(=O)NC1CCCc2ccccc21)C(C)(C)C

> <Shape>
0.190

> <Color>
0.068

> <Negative vol penalty>
0.000

$$$$

  -OEChem-04052322303D

 84 94  0     1  0  0  0  0  0999 V2000
  -28.4754  -35.3944   24.5808 C   0  0  0  0  0  0  0  0  0  0  0  0
  -29.2259  -34.5319   23.7882 C   0  0  0  0  0  0  0  0  0  0  0  0
  -24.0119  -10.1460   23.1043 C   0  0  0  0  0  0  0  0  0  0  0  0
  -24.5849  -12.2612   24.1216 C   0  0  0  0  0  0  0  0  0  0  0  0
  -27.3142  -34.9361   25.2016 C   0  0  0  0  0  0  0  0  0  0  0  0
  -28.8160  -33.2102   23.6166 C   0  0  0  0  0  0  0  0  0  0  0  0
  -28.8492  -27.9396   18.7651 C   0  0  0  0  0  0  0  0  0  0  0  0
  -28.9086  -20.1124   17.8736 C   0  0  0  0  0  0  0  0  0  0  0  0
  -23.6156   -9.6551   24.3483 C   0  0  0  0  0  0  0  0  0  0  0  0
  -24.1884  -11.7703   25.3656 C   0  0  0  0  0  0  0  0  0  0  0  0
  -29.2128  -26.6003   18.6323 C   0  0  0  0  0  0  0  0  0  0  0  0
  -20.9310   -9.9131   26.3878 C   0  0  0  0  0  0  0  0  0  0  0  0
  -19.7274   -9.2114   26.4542 C   0  0  0  0  0  0  0  0  0  0  0  0
  -28.3739  -21.3883   18.0135 C   0  0  0  0  0  0  0  0  0  0  0  0
  -27.1470  -25.9410   19.6892 C   0  0  0  0  0  0  0  0  0  0  0  0
  -20.9072   -7.2641   27.2624 C   0  0  0  0  0  0  0  0  0  0  0  0
  -24.4966  -11.4491   22.9910 C   0  0  0  0  0  0  0  0  0  0  0  0
  -24.1064  -12.6276   20.7624 C   0  0  0  0  0  0  0  0  0  0  0  0
  -26.8846  -33.6107   25.0298 C   0  0  0  0  0  0  0  0  0  0  0  0
  -27.6347  -28.2907   19.3718 C   0  0  0  0  0  0  0  0  0  0  0  0
  -27.6486  -32.7333   24.2367 C   0  0  0  0  0  0  0  0  0  0  0  0
  -29.4109  -19.4493   18.9877 C   0  0  0  0  0  0  0  0  0  0  0  0
  -26.7691  -27.2854   19.8262 C   0  0  0  0  0  0  0  0  0  0  0  0
  -23.7038  -10.4672   25.4789 C   0  0  0  0  0  0  0  0  0  0  0  0
  -28.3630  -25.6008   19.0970 C   0  0  0  0  0  0  0  0  0  0  0  0
  -22.1228   -9.2903   26.7586 C   0  0  0  0  0  0  0  0  0  0  0  0
  -19.7154   -7.8869   26.8915 C   0  0  0  0  0  0  0  0  0  0  0  0
  -22.1109   -7.9658   27.1960 C   0  0  0  0  0  0  0  0  0  0  0  0
  -24.9068  -11.9566   21.7064 C   0  0  0  0  0  0  0  0  0  0  0  0
  -29.3556  -20.1002   20.2096 C   0  0  0  0  0  0  0  0  0  0  0  0
  -28.3649  -21.9524   19.2790 C   0  0  0  0  0  0  0  0  0  0  0  0
  -24.9590  -12.8989   19.7203 C   0  0  0  0  0  0  0  0  0  0  0  0
  -22.7166  -12.9748   20.8224 C   0  0  0  0  0  0  0  0  0  0  0  0
  -26.8155  -29.9456   21.9591 C   0  0  0  0  0  0  0  0  0  0  0  0
  -23.8126  -29.5007   20.8159 C   0  0  0  0  0  0  0  0  0  0  0  0
  -21.6904  -27.6463   18.8913 C   0  0  0  0  0  0  0  0  0  0  0  0
  -29.9996  -14.7570   17.9890 C   0  0  0  0  0  0  0  0  0  0  0  0
  -25.6483  -33.1480   25.7591 C   0  0  0  0  0  0  0  0  0  0  0  0
  -27.2449  -29.7392   19.4834 C   0  0  0  0  0  0  0  0  0  0  0  0
  -25.4449  -27.6089   20.4666 C   0  0  0  0  0  0  0  0  0  0  0  0
  -25.0804  -31.8361   25.2236 C   0  0  0  0  0  0  0  0  0  0  0  0
  -29.6206  -11.2614   18.7442 C   0  0  0  0  0  0  0  0  0  0  0  0
  -26.1936  -30.8110   25.0326 C   0  0  0  0  0  0  0  0  0  0  0  0
  -30.3558  -20.2646   22.5858 C   0  0  0  0  0  0  0  0  0  0  0  0
  -31.3510  -19.5249   21.7476 C   0  0  0  0  0  0  0  0  0  0  0  0
  -28.3282  -11.1876   19.5504 C   0  0  0  0  0  0  0  0  0  0  0  0
  -30.3710  -12.5540   19.0363 C   0  0  0  0  0  0  0  0  0  0  0  0
  -29.2712  -16.7943   19.4651 C   0  0  0  0  0  0  0  0  0  0  0  0
  -29.8694  -17.2561   17.4846 C   0  0  0  0  0  0  0  0  0  0  0  0
  -28.2463  -13.7321   19.5378 C   0  0  0  0  0  0  0  0  0  0  0  0
  -30.0200  -17.9937   18.8351 C   0  0  0  0  0  0  0  0  0  0  0  0
  -27.2232  -31.2994   24.0065 C   0  0  1  0  0  0  0  0  0  0  0  0
  -29.8832  -19.4221   21.4319 C   0  0  0  0  0  0  0  0  0  0  0  0
  -26.2181  -29.9988   20.5814 C   0  0  1  0  0  0  0  0  0  0  0  0
  -27.4617  -12.4283   19.2907 C   0  0  2  0  0  0  0  0  0  0  0  0
  -19.2870  -27.5065   18.1830 C   0  0  0  0  0  0  0  0  0  0  0  0
  -23.0762  -28.3596   23.5482 C   0  0  0  0  0  0  0  0  0  0  0  0
  -21.0157  -27.3880   22.5096 C   0  0  0  0  0  0  0  0  0  0  0  0
  -21.3461  -29.8603   22.5437 C   0  0  0  0  0  0  0  0  0  0  0  0
  -22.3900  -28.0019   16.0377 C   0  0  0  0  0  0  0  0  0  0  0  0
  -27.7985  -23.3203   19.4667 C   0  0  0  0  0  0  0  0  0  1  0  0
  -22.7486  -28.4438   20.9886 C   0  0  1  0  0  0  0  0  0  0  0  0
  -20.6669  -28.0495   17.8452 C   0  0  2  0  0  0  0  0  0  0  0  0
  -22.0724  -28.5066   22.3872 C   0  0  0  0  0  0  0  0  0  0  0  0
  -26.1706  -11.8104   21.2998 N   0  0  0  0  0  0  0  0  0  0  0  0
  -28.8437  -21.3392   20.3845 N   0  0  0  0  0  0  0  0  0  0  0  0
  -26.1708  -12.3933   20.0888 N   0  0  0  0  0  0  0  0  0  0  0  0
  -25.1116  -29.0400   20.5586 N   0  0  0  0  0  0  0  0  0  0  0  0
  -29.5325  -13.7383   18.8271 N   0  0  0  0  0  0  0  0  0  0  0  0
  -29.6287  -16.0511   18.2688 N   0  0  0  0  0  0  0  0  0  0  0  0
  -24.7827  -13.5182   18.5338 N   0  0  0  0  0  0  0  0  0  0  0  0
  -21.9883  -12.6210   21.9663 N   0  0  0  0  0  0  0  0  0  0  0  0
  -26.7155  -31.1313   22.6617 N   0  0  0  0  0  0  0  0  0  0  0  0
  -21.8255  -28.6074   19.8707 N   0  0  0  0  0  0  0  0  0  0  0  0
  -21.0621  -27.5285   16.5061 N   0  3  0  0  0  0  0  0  0  0  0  0
  -22.1338  -13.5662   19.8821 O   0  0  0  0  0  0  0  0  0  0  0  0
  -27.3278  -28.9055   22.3558 O   0  0  0  0  0  0  0  0  0  0  0  0
  -23.5013  -30.6914   20.8989 O   0  0  0  0  0  0  0  0  0  0  0  0
  -22.3056  -26.5832   18.8462 O   0  0  0  0  0  0  0  0  0  0  0  0
  -30.7520  -14.5233   17.0338 O   0  0  0  0  0  0  0  0  0  0  0  0
  -23.3169   -9.9885   26.6929 O   0  0  0  0  0  0  0  0  0  0  0  0
  -28.7182  -24.2835   18.9683 O   0  0  0  0  0  0  0  0  0  1  0  0
  -18.5593   -7.2136   26.9567 F   0  0  0  0  0  0  0  0  0  0  0  0
  -23.2525   -7.3625   27.5547 F   0  0  0  0  0  0  0  0  0  0  0  0
  1  2  1  0  0  0  0
  1  5  2  0  0  0  0
  2  6  2  0  0  0  0
  3  9  2  0  0  0  0
  3 17  1  0  0  0  0
  4 10  1  0  0  0  0
  4 17  2  0  0  0  0
  5 19  1  0  0  0  0
  6 21  1  0  0  0  0
  7 11  2  0  0  0  0
  7 20  1  0  0  0  0
  8 14  2  0  0  0  0
  8 22  1  0  0  0  0
  9 24  1  0  0  0  0
 10 24  2  0  0  0  0
 11 25  1  0  0  0  0
 12 13  2  0  0  0  0
 12 26  1  0  0  0  0
 13 27  1  0  0  0  0
 14 31  1  0  0  0  0
 15 23  1  0  0  0  0
 15 25  2  0  0  0  0
 16 27  2  0  0  0  0
 16 28  1  0  0  0  0
 17 29  1  0  0  0  0
 18 29  1  0  0  0  0
 18 32  2  0  0  0  0
 18 33  1  0  0  0  0
 19 21  2  0  0  0  0
 19 38  1  0  0  0  0
 20 23  2  0  0  0  0
 20 39  1  0  0  0  0
 21 52  1  0  0  0  0
 22 30  2  0  0  0  0
 22 51  1  0  0  0  0
 23 40  1  0  0  0  0
 24 81  1  0  0  0  0
 25 82  1  0  0  0  0
 26 28  2  0  0  0  0
 26 81  1  0  0  0  0
 27 83  1  0  0  0  0
 28 84  1  0  0  0  0
 29 65  2  0  0  0  0
 30 53  1  0  0  0  0
 30 66  1  0  0  0  0
 31 61  1  0  0  0  0
 31 66  2  0  0  0  0
 32 67  1  0  0  0  0
 32 71  1  0  0  0  0
 33 72  1  0  0  0  0
 33 76  2  0  0  0  0
 34 54  1  0  0  0  0
 34 73  1  0  0  0  0
 34 77  2  0  0  0  0
 35 62  1  0  0  0  0
 35 68  1  0  0  0  0
 35 78  2  0  0  0  0
 36 63  1  0  0  0  0
 36 74  1  0  0  0  0
 36 79  2  0  0  0  0
 37 69  1  0  0  0  0
 37 70  1  0  0  0  0
 37 80  2  0  0  0  0
 38 41  1  0  0  0  0
 39 54  1  0  0  0  0
 40 68  1  0  0  0  0
 41 43  1  0  0  0  0
 42 46  1  0  0  0  0
 42 47  1  0  0  0  0
 43 52  1  0  0  0  0
 44 45  1  0  0  0  0
 44 53  1  0  0  0  0
 45 53  1  0  0  0  0
 46 55  1  0  0  0  0
 47 69  1  0  0  0  0
 48 51  1  0  0  0  0
 48 70  1  0  0  0  0
 49 51  1  0  0  0  0
 49 70  1  0  0  0  0
 50 55  1  0  0  0  0
 50 69  1  0  0  0  0
 52 73  1  0  0  0  0
 54 68  1  0  0  0  0
 55 67  1  0  0  0  0
 56 63  1  0  0  0  0
 57 64  1  0  0  0  0
 58 64  1  0  0  0  0
 59 64  1  0  0  0  0
 60 75  1  0  0  0  0
 61 82  1  0  0  0  0
 62 64  1  0  0  0  0
 62 74  1  0  0  0  0
 63 75  1  0  0  0  0
 65 67  1  0  0  0  0
M  CHG  1  75   1
M  ISO  4  37 100  61 101  70 100  82 101
M  END
> <Batch ID>
0168

> <Smiles>
CNC(C)C(=O)NC(C(=O)N1Cc2cc([101O:1][101CH2:1]c3ccc(C4C[100N:0]([100C:0](=O)N5CCCC(n6nc(-c7ccc(Oc8ccc(F)cc8F)cc7)c(C(N)=O)c6N)C5)C4)c(C4CC4)n3)ccc2CC1C(=O)NC1CCCc2ccccc21)C(C)(C)C

> <Shape>
0.282

> <Color>
0.091

> <Negative vol penalty>
0.000

$$$$

  -OEChem-04052322303D

 86 95  0     1  0  0  0  0  0999 V2000
  -30.0357  -31.6073   25.7084 C   0  0  0  0  0  0  0  0  0  0  0  0
  -29.5836  -30.4616   25.0615 C   0  0  0  0  0  0  0  0  0  0  0  0
  -23.1080   -9.9121   21.3582 C   0  0  0  0  0  0  0  0  0  0  0  0
  -23.8663  -10.7324   23.5005 C   0  0  0  0  0  0  0  0  0  0  0  0
  -29.1213  -32.5574   26.1613 C   0  0  0  0  0  0  0  0  0  0  0  0
  -28.2167  -30.2649   24.8681 C   0  0  0  0  0  0  0  0  0  0  0  0
  -27.1275  -28.6618   20.1896 C   0  0  0  0  0  0  0  0  0  0  0  0
  -22.3862   -8.9053   21.9993 C   0  0  0  0  0  0  0  0  0  0  0  0
  -23.1444   -9.7257   24.1415 C   0  0  0  0  0  0  0  0  0  0  0  0
  -27.3537  -27.3150   19.9092 C   0  0  0  0  0  0  0  0  0  0  0  0
  -23.0217   -5.9077   23.4259 C   0  0  0  0  0  0  0  0  0  0  0  0
  -23.1088   -4.6168   22.9050 C   0  0  0  0  0  0  0  0  0  0  0  0
  -28.7561  -19.6039   23.0051 C   0  0  0  0  0  0  0  0  0  0  0  0
  -29.2178  -19.2709   20.2827 C   0  0  0  0  0  0  0  0  0  0  0  0
  -25.0035  -26.8634   20.2123 C   0  0  0  0  0  0  0  0  0  0  0  0
  -20.7217   -4.6062   22.5321 C   0  0  0  0  0  0  0  0  0  0  0  0
  -23.8481  -10.8256   22.1088 C   0  0  0  0  0  0  0  0  0  0  0  0
  -24.1417  -13.1560   21.1135 C   0  0  0  0  0  0  0  0  0  0  0  0
  -27.7431  -32.3769   25.9648 C   0  0  0  0  0  0  0  0  0  0  0  0
  -25.8372  -29.1184   20.4946 C   0  0  0  0  0  0  0  0  0  0  0  0
  -27.2830  -31.2128   25.3200 C   0  0  0  0  0  0  0  0  0  0  0  0
  -28.1309  -20.4602   22.0862 C   0  0  0  0  0  0  0  0  0  0  0  0
  -28.3849  -20.3187   20.7111 C   0  0  0  0  0  0  0  0  0  0  0  0
  -24.7631  -28.2170   20.4937 C   0  0  0  0  0  0  0  0  0  0  0  0
  -29.5973  -18.5846   22.5640 C   0  0  0  0  0  0  0  0  0  0  0  0
  -29.8217  -18.4129   21.2023 C   0  0  0  0  0  0  0  0  0  0  0  0
  -22.4043   -8.8121   23.3909 C   0  0  0  0  0  0  0  0  0  0  0  0
  -26.2921  -26.4150   19.9234 C   0  0  0  0  0  0  0  0  0  0  0  0
  -21.7846   -6.5480   23.5000 C   0  0  0  0  0  0  0  0  0  0  0  0
  -21.9588   -3.9660   22.4580 C   0  0  0  0  0  0  0  0  0  0  0  0
  -20.6346   -5.8972   23.0531 C   0  0  0  0  0  0  0  0  0  0  0  0
  -24.5945  -11.8655   21.4472 C   0  0  0  0  0  0  0  0  0  0  0  0
  -25.2196  -13.7513   20.5049 C   0  0  0  0  0  0  0  0  0  0  0  0
  -22.8613  -13.7625   21.3339 C   0  0  0  0  0  0  0  0  0  0  0  0
  -24.4813  -30.4864   23.0232 C   0  0  0  0  0  0  0  0  0  0  0  0
  -21.9285  -30.7268   21.0362 C   0  0  0  0  0  0  0  0  0  0  0  0
  -20.2777  -29.5610   18.2862 C   0  0  0  0  0  0  0  0  0  0  0  0
  -30.6827  -14.8713   20.2925 C   0  0  0  0  0  0  0  0  0  0  0  0
  -26.7902  -33.4089   26.5140 C   0  0  0  0  0  0  0  0  0  0  0  0
  -25.6055  -30.5791   20.7685 C   0  0  0  0  0  0  0  0  0  0  0  0
  -27.2127  -21.5406   22.5849 C   0  0  0  0  0  0  0  0  0  0  0  0
  -23.3556  -28.6602   20.7951 C   0  0  0  0  0  0  0  0  0  0  0  0
  -25.3808  -33.3047   25.9370 C   0  0  0  0  0  0  0  0  0  0  0  0
  -29.5923  -11.7837   18.8944 C   0  0  0  0  0  0  0  0  0  0  0  0
  -24.9071  -31.8547   25.9436 C   0  0  0  0  0  0  0  0  0  0  0  0
  -28.1605  -11.6335   19.4114 C   0  0  0  0  0  0  0  0  0  0  0  0
  -30.5043  -12.4262   19.9372 C   0  0  0  0  0  0  0  0  0  0  0  0
  -28.5881  -13.5605   20.9933 C   0  0  0  0  0  0  0  0  0  0  0  0
  -26.1430  -21.8669   21.5567 C   0  0  0  0  0  0  0  0  0  0  0  0
  -25.8096  -30.9755   25.0695 C   0  0  1  0  0  0  0  0  0  0  0  0
  -27.7497  -21.2498   19.6898 C   0  0  2  0  0  0  0  0  0  0  0  0
  -24.3349  -30.8424   21.5708 C   0  0  1  0  0  0  0  0  0  0  0  0
  -27.6182  -12.9684   19.9565 C   0  0  2  0  0  0  0  0  0  0  0  0
  -30.2389  -17.6860   23.5695 C   0  0  0  0  0  0  0  0  0  0  0  0
  -28.8258  -21.9817   18.8747 C   0  0  0  0  0  0  0  0  0  0  0  0
  -18.1983  -29.9337   16.9319 C   0  0  0  0  0  0  0  0  0  0  0  0
  -20.2779  -29.3344   23.1918 C   0  0  0  0  0  0  0  0  0  0  0  0
  -18.5241  -28.8876   21.4619 C   0  0  0  0  0  0  0  0  0  0  0  0
  -19.1180  -31.2365   22.0556 C   0  0  0  0  0  0  0  0  0  0  0  0
  -21.8373  -30.2120   15.8567 C   0  0  0  0  0  0  0  0  0  0  0  0
  -30.7067  -17.3191   20.7012 C   0  0  0  0  0  0  0  0  0  0  0  0
  -25.7954  -22.8266   19.2972 C   0  0  0  0  0  0  0  0  0  0  0  0
  -25.3788  -24.2324   19.6823 C   0  0  0  0  0  0  0  0  0  1  0  0
  -20.7449  -29.8501   20.7054 C   0  0  1  0  0  0  0  0  0  0  0  0
  -19.6698  -30.2808   17.0960 C   0  0  2  0  0  0  0  0  0  0  0  0
  -19.6929  -29.8181   21.8499 C   0  0  0  0  0  0  0  0  0  0  0  0
  -25.8612  -11.6527   21.0809 N   0  0  0  0  0  0  0  0  0  0  0  0
  -26.2136  -12.8175   20.5106 N   0  0  0  0  0  0  0  0  0  0  0  0
  -23.1811  -30.0974   21.0628 N   0  0  0  0  0  0  0  0  0  0  0  0
  -29.9337  -13.6890   20.4121 N   0  0  0  0  0  0  0  0  0  0  0  0
  -25.4045  -14.9773   19.9708 N   0  0  0  0  0  0  0  0  0  0  0  0
  -21.8668  -13.0099   21.9733 N   0  0  0  0  0  0  0  0  0  0  0  0
  -25.4969  -31.1651   23.6692 N   0  0  0  0  0  0  0  0  0  0  0  0
  -20.2254  -30.3301   19.4295 N   0  0  0  0  0  0  0  0  0  0  0  0
  -30.0654  -16.0245   20.7614 N   0  0  0  0  0  0  0  0  0  0  0  0
  -26.8185  -22.3218   20.2854 N   0  3  1  0  0  0  0  0  0  0  0  0
  -20.3839  -29.9047   15.8432 N   0  3  0  0  0  0  0  0  0  0  0  0
  -22.6016  -14.9313   20.9598 O   0  0  0  0  0  0  0  0  0  0  0  0
  -23.7276  -29.6584   23.5213 O   0  0  0  0  0  0  0  0  0  0  0  0
  -21.7493  -31.9274   21.2557 O   0  0  0  0  0  0  0  0  0  0  0  0
  -20.7484  -28.4282   18.2103 O   0  0  0  0  0  0  0  0  0  0  0  0
  -31.8154  -14.8980   19.7993 O   0  0  0  0  0  0  0  0  0  0  0  0
  -21.6999   -7.8299   24.0167 O   0  0  0  0  0  0  0  0  0  0  0  0
  -26.5117  -25.0903   19.6488 O   0  0  0  0  0  0  0  0  0  1  0  0
  -22.0428   -2.7269   21.9564 F   0  0  0  0  0  0  0  0  0  0  0  0
  -19.4435   -6.5076   23.1206 F   0  0  0  0  0  0  0  0  0  0  0  0
  1  2  1  0  0  0  0
  1  5  2  0  0  0  0
  2  6  2  0  0  0  0
  3  8  2  0  0  0  0
  3 17  1  0  0  0  0
  4  9  1  0  0  0  0
  4 17  2  0  0  0  0
  5 19  1  0  0  0  0
  6 21  1  0  0  0  0
  7 10  2  0  0  0  0
  7 20  1  0  0  0  0
  8 27  1  0  0  0  0
  9 27  2  0  0  0  0
 10 28  1  0  0  0  0
 11 12  2  0  0  0  0
 11 29  1  0  0  0  0
 12 30  1  0  0  0  0
 13 22  1  0  0  0  0
 13 25  2  0  0  0  0
 14 23  1  0  0  0  0
 14 26  2  0  0  0  0
 15 24  1  0  0  0  0
 15 28  2  0  0  0  0
 16 30  2  0  0  0  0
 16 31  1  0  0  0  0
 17 32  1  0  0  0  0
 18 32  1  0  0  0  0
 18 33  2  0  0  0  0
 18 34  1  0  0  0  0
 19 21  2  0  0  0  0
 19 39  1  0  0  0  0
 20 24  2  0  0  0  0
 20 40  1  0  0  0  0
 21 50  1  0  0  0  0
 22 23  2  0  0  0  0
 22 41  1  0  0  0  0
 23 51  1  0  0  0  0
 24 42  1  0  0  0  0
 25 26  1  0  0  0  0
 25 54  1  0  0  0  0
 26 61  1  0  0  0  0
 27 83  1  0  0  0  0
 28 84  1  0  0  0  0
 29 31  2  0  0  0  0
 29 83  1  0  0  0  0
 30 85  1  0  0  0  0
 31 86  1  0  0  0  0
 32 67  2  0  0  0  0
 33 68  1  0  0  0  0
 33 71  1  0  0  0  0
 34 72  1  0  0  0  0
 34 78  2  0  0  0  0
 35 52  1  0  0  0  0
 35 73  1  0  0  0  0
 35 79  2  0  0  0  0
 36 64  1  0  0  0  0
 36 69  1  0  0  0  0
 36 80  2  0  0  0  0
 37 65  1  0  0  0  0
 37 74  1  0  0  0  0
 37 81  2  0  0  0  0
 38 70  1  0  0  0  0
 38 75  1  0  0  0  0
 38 82  2  0  0  0  0
 39 43  1  0  0  0  0
 40 52  1  0  0  0  0
 41 49  1  0  0  0  0
 42 69  1  0  0  0  0
 43 45  1  0  0  0  0
 44 46  1  0  0  0  0
 44 47  1  0  0  0  0
 45 50  1  0  0  0  0
 46 53  1  0  0  0  0
 47 70  1  0  0  0  0
 48 53  1  0  0  0  0
 48 70  1  0  0  0  0
 49 76  1  0  0  0  0
 50 73  1  0  0  0  0
 51 55  1  0  0  0  0
 51 76  1  0  0  0  0
 52 69  1  0  0  0  0
 53 68  1  0  0  0  0
 56 65  1  0  0  0  0
 57 66  1  0  0  0  0
 58 66  1  0  0  0  0
 59 66  1  0  0  0  0
 60 77  1  0  0  0  0
 61 75  1  0  0  0  0
 62 63  1  0  0  0  0
 62 76  1  0  0  0  0
 63 84  1  0  0  0  0
 64 66  1  0  0  0  0
 64 74  1  0  0  0  0
 65 77  1  0  0  0  0
 67 68  1  0  0  0  0
M  CHG  2  76   1  77   1
M  ISO  4  38 100  63 101  75 100  84 101
M  END
> <Batch ID>
0168

> <Smiles>
CNC(C)C(=O)NC(C(=O)N1Cc2cc([101O:1][101CH2:1]CN3CCc4cc(C)c(C[100NH:0][100C:0](=O)N5CCCC(n6nc(-c7ccc(Oc8ccc(F)cc8F)cc7)c(C(N)=O)c6N)C5)cc4C3C)ccc2CC1C(=O)NC1CCCc2ccccc21)C(C)(C)C

> <Shape>
0.360

> <Color>
0.196

> <Negative vol penalty>
0.000

$$$$

  -OEChem-04052322303D

 89 98  0     1  0  0  0  0  0999 V2000
  -22.9701   -8.3509   20.6964 C   0  0  0  0  0  0  0  0  0  0  0  0
  -22.5716   -9.4256   19.9079 C   0  0  0  0  0  0  0  0  0  0  0  0
  -25.8051  -27.8696   21.2303 C   0  0  0  0  0  0  0  0  0  0  0  0
  -26.0815  -27.1559   18.9387 C   0  0  0  0  0  0  0  0  0  0  0  0
  -23.7959   -8.5653   21.7991 C   0  0  0  0  0  0  0  0  0  0  0  0
  -22.9979  -10.7155   20.2223 C   0  0  0  0  0  0  0  0  0  0  0  0
  -24.7659  -16.9236   17.1160 C   0  0  0  0  0  0  0  0  0  0  0  0
  -24.4243  -27.7102   21.1134 C   0  0  0  0  0  0  0  0  0  0  0  0
  -24.7007  -26.9964   18.8219 C   0  0  0  0  0  0  0  0  0  0  0  0
  -24.4634  -18.2832   17.1773 C   0  0  0  0  0  0  0  0  0  0  0  0
  -20.7952  -27.8351   21.3065 C   0  0  0  0  0  0  0  0  0  0  0  0
  -19.9789  -28.8458   21.8141 C   0  0  0  0  0  0  0  0  0  0  0  0
  -25.9528  -18.5237   19.0596 C   0  0  0  0  0  0  0  0  0  0  0  0
  -21.0032  -30.4308   20.3056 C   0  0  0  0  0  0  0  0  0  0  0  0
  -26.6337  -27.5925   20.1429 C   0  0  0  0  0  0  0  0  0  0  0  0
  -28.7559  -28.9425   20.5685 C   0  0  0  0  0  0  0  0  0  0  0  0
  -24.2404   -9.8572   22.1216 C   0  0  0  0  0  0  0  0  0  0  0  0
  -25.6573  -16.3507   18.0345 C   0  0  0  0  0  0  0  0  0  0  0  0
  -23.8293  -10.9475   21.3312 C   0  0  0  0  0  0  0  0  0  0  0  0
  -26.2669  -17.1571   19.0062 C   0  0  0  0  0  0  0  0  0  0  0  0
  -23.4788  -22.6320   20.9314 C   0  0  0  0  0  0  0  0  0  0  0  0
  -22.2218  -23.1652   21.1938 C   0  0  0  0  0  0  0  0  0  0  0  0
  -24.3927  -22.4777   21.9679 C   0  0  0  0  0  0  0  0  0  0  0  0
  -23.8721  -27.2735   19.9093 C   0  0  0  0  0  0  0  0  0  0  0  0
  -25.0546  -19.0829   18.1509 C   0  0  0  0  0  0  0  0  0  0  0  0
  -21.7156  -28.1222   20.2985 C   0  0  0  0  0  0  0  0  0  0  0  0
  -20.0828  -30.1436   21.3136 C   0  0  0  0  0  0  0  0  0  0  0  0
  -21.8196  -29.4201   19.7980 C   0  0  0  0  0  0  0  0  0  0  0  0
  -28.0600  -27.7576   20.2628 C   0  0  0  0  0  0  0  0  0  0  0  0
  -21.9299  -23.5257   22.4994 C   0  0  0  0  0  0  0  0  0  0  0  0
  -24.0037  -22.8692   23.2388 C   0  0  0  0  0  0  0  0  0  0  0  0
  -30.0792  -28.5746   20.5632 C   0  0  0  0  0  0  0  0  0  0  0  0
  -28.2513  -30.2581   20.8337 C   0  0  0  0  0  0  0  0  0  0  0  0
  -25.4381  -14.0992   20.2675 C   0  0  0  0  0  0  0  0  0  0  0  0
  -28.6432  -14.5495   20.4835 C   0  0  0  0  0  0  0  0  0  0  0  0
  -31.3179  -16.6137   20.0015 C   0  0  0  0  0  0  0  0  0  0  0  0
  -29.4411  -23.1616   19.6962 C   0  0  0  0  0  0  0  0  0  0  0  0
  -25.0936  -10.0456   23.3509 C   0  0  0  0  0  0  0  0  0  0  0  0
  -25.9936  -14.8878   17.9383 C   0  0  0  0  0  0  0  0  0  0  0  0
  -27.2462  -16.5947   20.0028 C   0  0  0  0  0  0  0  0  0  0  0  0
  -25.8061  -11.3949   23.3969 C   0  0  0  0  0  0  0  0  0  0  0  0
  -31.2310  -25.5401   17.7199 C   0  0  0  0  0  0  0  0  0  0  0  0
  -29.8492  -20.9036   22.5042 C   0  0  0  0  0  0  0  0  0  0  0  0
  -24.8386  -12.5216   23.0485 C   0  0  0  0  0  0  0  0  0  0  0  0
  -31.9362  -26.4368   18.7314 C   0  0  0  0  0  0  0  0  0  0  0  0
  -28.3368  -21.0702   22.5506 C   0  0  0  0  0  0  0  0  0  0  0  0
  -31.1804  -24.1047   18.2199 C   0  0  0  0  0  0  0  0  0  0  0  0
  -30.3098  -22.2189   21.8952 C   0  0  0  0  0  0  0  0  0  0  0  0
  -31.1030  -24.8779   20.5826 C   0  0  0  0  0  0  0  0  0  0  0  0
  -24.2910  -12.3583   21.6255 C   0  0  1  0  0  0  0  0  0  0  0  0
  -26.5211  -14.3086   19.2473 C   0  0  1  0  0  0  0  0  0  0  0  0
  -31.3171  -26.3423   20.1351 C   0  0  2  0  0  0  0  0  0  0  0  0
  -28.0258  -21.8198   21.2522 C   0  0  1  0  0  0  0  0  0  0  0  0
  -21.2185  -23.3422   20.1036 C   0  0  0  0  0  0  0  0  0  0  0  0
  -20.5951  -24.1017   22.8429 C   0  0  0  0  0  0  0  0  0  0  0  0
  -24.9405  -22.7296   24.3948 C   0  0  0  0  0  0  0  0  0  0  0  0
  -24.4318  -23.3997   18.7327 C   0  0  0  0  0  0  0  0  0  0  0  0
  -33.8064  -16.7177   20.3079 C   0  0  0  0  0  0  0  0  0  0  0  0
  -28.2537  -14.9883   23.4778 C   0  0  0  0  0  0  0  0  0  0  0  0
  -30.5418  -16.0014   23.5563 C   0  0  0  0  0  0  0  0  0  0  0  0
  -30.2576  -13.6183   22.8762 C   0  0  0  0  0  0  0  0  0  0  0  0
  -31.7774  -16.9622   17.0986 C   0  0  0  0  0  0  0  0  0  0  0  0
  -26.8085  -22.7244   21.3949 C   0  0  0  0  0  0  0  0  0  0  0  0
  -24.8166  -21.0277   19.4989 C   0  0  0  0  0  0  0  0  0  1  0  0
  -23.8437  -22.2261   19.5381 C   0  0  1  0  0  0  0  0  0  0  0  0
  -29.5439  -15.4534   21.2903 C   0  0  1  0  0  0  0  0  0  0  0  0
  -32.6710  -16.3751   19.3560 C   0  0  2  0  0  0  0  0  0  0  0  0
  -29.6293  -15.0259   22.7827 C   0  0  0  0  0  0  0  0  0  0  0  0
  -28.8739  -26.7150   20.0766 N   0  0  0  0  0  0  0  0  0  0  0  0
  -22.7916  -23.3910   23.5324 N   0  0  0  0  0  0  0  0  0  0  0  0
  -30.0949  -27.2436   20.2658 N   0  0  0  0  0  0  0  0  0  0  0  0
  -27.5377  -15.1575   19.8719 N   0  0  0  0  0  0  0  0  0  0  0  0
  -30.5500  -24.0057   19.5365 N   0  0  0  0  0  0  0  0  0  0  0  0
  -29.2515  -22.5672   20.9459 N   0  0  0  0  0  0  0  0  0  0  0  0
  -31.2193  -29.2630   20.7839 N   0  0  0  0  0  0  0  0  0  0  0  0
  -28.0860  -31.1399   19.7570 N   0  0  0  0  0  0  0  0  0  0  0  0
  -25.6626  -21.9474   21.7340 N   0  0  0  0  0  0  0  0  0  0  0  0
  -25.2756  -12.7823   20.6533 N   0  0  0  0  0  0  0  0  0  0  0  0
  -30.8287  -15.4716   20.5994 N   0  0  0  0  0  0  0  0  0  0  0  0
  -32.8156  -17.2121   18.1315 N   0  3  0  0  0  0  0  0  0  0  0  0
  -27.9713  -30.6458   21.9934 O   0  0  0  0  0  0  0  0  0  0  0  0
  -24.7983  -15.0614   20.6757 O   0  0  0  0  0  0  0  0  0  0  0  0
  -28.9147  -13.3496   20.3932 O   0  0  0  0  0  0  0  0  0  0  0  0
  -30.7532  -17.7051   19.9808 O   0  0  0  0  0  0  0  0  0  0  0  0
  -28.6602  -22.9403   18.7611 O   0  0  0  0  0  0  0  0  0  0  0  0
  -22.5248  -27.1176   19.7950 O   0  0  0  0  0  0  0  0  0  0  0  0
  -24.7587  -20.4189   18.2138 O   0  0  0  0  0  0  0  0  0  1  0  0
  -19.2977  -31.1137   21.8001 F   0  0  0  0  0  0  0  0  0  0  0  0
  -22.7011  -29.7018   18.8288 F   0  0  0  0  0  0  0  0  0  0  0  0
  1  2  1  0  0  0  0
  1  5  2  0  0  0  0
  2  6  2  0  0  0  0
  3  8  2  0  0  0  0
  3 15  1  0  0  0  0
  4  9  1  0  0  0  0
  4 15  2  0  0  0  0
  5 17  1  0  0  0  0
  6 19  1  0  0  0  0
  7 10  2  0  0  0  0
  7 18  1  0  0  0  0
  8 24  1  0  0  0  0
  9 24  2  0  0  0  0
 10 25  1  0  0  0  0
 11 12  2  0  0  0  0
 11 26  1  0  0  0  0
 12 27  1  0  0  0  0
 13 20  1  0  0  0  0
 13 25  2  0  0  0  0
 14 27  2  0  0  0  0
 14 28  1  0  0  0  0
 15 29  1  0  0  0  0
 16 29  1  0  0  0  0
 16 32  2  0  0  0  0
 16 33  1  0  0  0  0
 17 19  2  0  0  0  0
 17 38  1  0  0  0  0
 18 20  2  0  0  0  0
 18 39  1  0  0  0  0
 19 50  1  0  0  0  0
 20 40  1  0  0  0  0
 21 22  1  0  0  0  0
 21 23  2  0  0  0  0
 21 65  1  0  0  0  0
 22 30  2  0  0  0  0
 22 54  1  0  0  0  0
 23 31  1  0  0  0  0
 23 77  1  0  0  0  0
 24 86  1  0  0  0  0
 25 87  1  0  0  0  0
 26 28  2  0  0  0  0
 26 86  1  0  0  0  0
 27 88  1  0  0  0  0
 28 89  1  0  0  0  0
 29 69  2  0  0  0  0
 30 55  1  0  0  0  0
 30 70  1  0  0  0  0
 31 56  1  0  0  0  0
 31 70  2  0  0  0  0
 32 71  1  0  0  0  0
 32 75  1  0  0  0  0
 33 76  1  0  0  0  0
 33 81  2  0  0  0  0
 34 51  1  0  0  0  0
 34 78  1  0  0  0  0
 34 82  2  0  0  0  0
 35 66  1  0  0  0  0
 35 72  1  0  0  0  0
 35 83  2  0  0  0  0
 36 67  1  0  0  0  0
 36 79  1  0  0  0  0
 36 84  2  0  0  0  0
 37 73  1  0  0  0  0
 37 74  1  0  0  0  0
 37 85  2  0  0  0  0
 38 41  1  0  0  0  0
 39 51  1  0  0  0  0
 40 72  1  0  0  0  0
 41 44  1  0  0  0  0
 42 45  1  0  0  0  0
 42 47  1  0  0  0  0
 43 46  1  0  0  0  0
 43 48  1  0  0  0  0
 44 50  1  0  0  0  0
 45 52  1  0  0  0  0
 46 53  1  0  0  0  0
 47 73  1  0  0  0  0
 48 74  1  0  0  0  0
 49 52  1  0  0  0  0
 49 73  1  0  0  0  0
 50 78  1  0  0  0  0
 51 72  1  0  0  0  0
 52 71  1  0  0  0  0
 53 63  1  0  0  0  0
 53 74  1  0  0  0  0
 57 65  1  0  0  0  0
 58 67  1  0  0  0  0
 59 68  1  0  0  0  0
 60 68  1  0  0  0  0
 61 68  1  0  0  0  0
 62 80  1  0  0  0  0
 63 77  1  0  0  0  0
 64 65  1  0  0  0  0
 64 87  1  0  0  0  0
 66 68  1  0  0  0  0
 66 79  1  0  0  0  0
 67 80  1  0  0  0  0
 69 71  1  0  0  0  0
M  CHG  1  80   1
M  ISO  4  37 100  64 101  74 100  87 101
M  END
> <Batch ID>
0168

> <Smiles>
CNC(C)C(=O)NC(C(=O)N1Cc2cc([101O:1][101CH2:1]C(C)c3c(C)c(C)nc(C)c3NCC3CCC[100N:0]3[100C:0](=O)N3CCCC(n4nc(-c5ccc(Oc6ccc(F)cc6F)cc5)c(C(N)=O)c4N)C3)ccc2CC1C(=O)NC1CCCc2ccccc21)C(C)(C)C

> <Shape>
0.241

> <Color>
0.080

> <Negative vol penalty>
0.000

$$$$

  -OEChem-04052322303D

 85 94  0     1  0  0  0  0  0999 V2000
  -27.2654  -37.8130   25.5362 C   0  0  0  0  0  0  0  0  0  0  0  0
  -27.9547  -37.0692   24.5839 C   0  0  0  0  0  0  0  0  0  0  0  0
  -31.0071   -9.0445   22.5643 C   0  0  0  0  0  0  0  0  0  0  0  0
  -30.1894  -10.2543   24.4891 C   0  0  0  0  0  0  0  0  0  0  0  0
  -26.3824  -37.1788   26.4091 C   0  0  0  0  0  0  0  0  0  0  0  0
  -27.7621  -35.6904   24.5045 C   0  0  0  0  0  0  0  0  0  0  0  0
  -27.6210  -30.3377   19.7458 C   0  0  0  0  0  0  0  0  0  0  0  0
  -31.9667   -8.4225   23.3629 C   0  0  0  0  0  0  0  0  0  0  0  0
  -31.1490   -9.6322   25.2877 C   0  0  0  0  0  0  0  0  0  0  0  0
  -28.1799  -29.0801   19.5225 C   0  0  0  0  0  0  0  0  0  0  0  0
  -32.0893   -5.8725   25.5800 C   0  0  0  0  0  0  0  0  0  0  0  0
  -32.2687   -4.4979   25.4259 C   0  0  0  0  0  0  0  0  0  0  0  0
  -26.5698  -28.1036   21.0302 C   0  0  0  0  0  0  0  0  0  0  0  0
  -29.2276  -23.8417   21.2663 C   0  0  0  0  0  0  0  0  0  0  0  0
  -28.9073  -22.5843   18.7967 C   0  0  0  0  0  0  0  0  0  0  0  0
  -34.5760   -4.8677   24.8121 C   0  0  0  0  0  0  0  0  0  0  0  0
  -30.1185   -9.9605   23.1274 C   0  0  0  0  0  0  0  0  0  0  0  0
  -27.8220  -10.1510   22.0331 C   0  0  0  0  0  0  0  0  0  0  0  0
  -26.1716  -35.7930   26.3341 C   0  0  0  0  0  0  0  0  0  0  0  0
  -26.5375  -30.4896   20.6229 C   0  0  0  0  0  0  0  0  0  0  0  0
  -26.8764  -35.0369   25.3781 C   0  0  0  0  0  0  0  0  0  0  0  0
  -25.9974  -29.3639   21.2610 C   0  0  0  0  0  0  0  0  0  0  0  0
  -28.3608  -24.3814   20.3161 C   0  0  0  0  0  0  0  0  0  0  0  0
  -29.9344  -22.6733   20.9817 C   0  0  0  0  0  0  0  0  0  0  0  0
  -28.2006  -23.7528   19.0813 C   0  0  0  0  0  0  0  0  0  0  0  0
  -29.7742  -22.0446   19.7469 C   0  0  0  0  0  0  0  0  0  0  0  0
  -32.0377   -8.7162   24.7246 C   0  0  0  0  0  0  0  0  0  0  0  0
  -27.6561  -27.9632   20.1670 C   0  0  0  0  0  0  0  0  0  0  0  0
  -33.1532   -6.7448   25.3501 C   0  0  0  0  0  0  0  0  0  0  0  0
  -33.5120   -3.9955   25.0420 C   0  0  0  0  0  0  0  0  0  0  0  0
  -34.3966   -6.2424   24.9662 C   0  0  0  0  0  0  0  0  0  0  0  0
  -29.1274  -10.6038   22.3028 C   0  0  0  0  0  0  0  0  0  0  0  0
  -27.2901  -11.1097   21.2057 C   0  0  0  0  0  0  0  0  0  0  0  0
  -27.1502   -8.9696   22.4897 C   0  0  0  0  0  0  0  0  0  0  0  0
  -26.0556  -32.0654   23.3411 C   0  0  0  0  0  0  0  0  0  0  0  0
  -23.0008  -31.0542   22.9317 C   0  0  0  0  0  0  0  0  0  0  0  0
  -20.8612  -28.7848   21.5466 C   0  0  0  0  0  0  0  0  0  0  0  0
  -28.5956  -16.8593   20.6205 C   0  0  0  0  0  0  0  0  0  0  0  0
  -25.2427  -35.1450   27.3301 C   0  0  0  0  0  0  0  0  0  0  0  0
  -25.9290  -31.8491   20.8325 C   0  0  0  0  0  0  0  0  0  0  0  0
  -24.8218  -29.4704   22.1965 C   0  0  0  0  0  0  0  0  0  0  0  0
  -24.8129  -33.7348   26.9342 C   0  0  0  0  0  0  0  0  0  0  0  0
  -28.5178  -14.3574   17.9432 C   0  0  0  0  0  0  0  0  0  0  0  0
  -26.0179  -32.9170   26.4804 C   0  0  0  0  0  0  0  0  0  0  0  0
  -28.6056  -13.0649   18.7481 C   0  0  0  0  0  0  0  0  0  0  0  0
  -29.3106  -15.4970   18.5846 C   0  0  0  0  0  0  0  0  0  0  0  0
  -29.0471  -14.4391   20.8123 C   0  0  0  0  0  0  0  0  0  0  0  0
  -28.8911  -19.3967   20.6155 C   0  0  0  0  0  0  0  0  0  0  0  0
  -30.2794  -18.4067   19.3429 C   0  0  0  0  0  0  0  0  0  0  0  0
  -26.6757  -33.5429   25.2446 C   0  0  1  0  0  0  0  0  0  0  0  0
  -25.1554  -31.9620   22.1425 C   0  0  1  0  0  0  0  0  0  0  0  0
  -28.1982  -13.3116   20.2083 C   0  0  2  0  0  0  0  0  0  0  0  0
  -30.3425  -19.6729   20.2076 C   0  0  0  0  0  0  0  0  0  0  0  0
  -30.8581  -22.1184   22.0168 C   0  0  0  0  0  0  0  0  0  0  0  0
  -27.2789  -24.3129   18.0484 C   0  0  0  0  0  0  0  0  0  0  0  0
  -18.4250  -28.1958   21.4212 C   0  0  0  0  0  0  0  0  0  0  0  0
  -23.1371  -29.8999   25.7528 C   0  0  0  0  0  0  0  0  0  0  0  0
  -21.1024  -28.5417   25.2204 C   0  0  0  0  0  0  0  0  0  0  0  0
  -20.9792  -31.0330   25.1924 C   0  0  0  0  0  0  0  0  0  0  0  0
  -31.3874  -20.8650   18.2749 C   0  0  0  0  0  0  0  0  0  0  0  0
  -20.8035  -29.1556   18.6110 C   0  0  0  0  0  0  0  0  0  0  0  0
  -27.6151  -25.6336   20.6433 C   0  0  0  0  0  0  0  0  0  1  0  0
  -22.2150  -29.8324   23.3422 C   0  0  1  0  0  0  0  0  0  0  0  0
  -19.5673  -28.9622   20.7727 C   0  0  2  0  0  0  0  0  0  0  0  0
  -21.8818  -29.8247   24.8609 C   0  0  0  0  0  0  0  0  0  0  0  0
  -29.4078  -11.7601   21.6958 N   0  0  0  0  0  0  0  0  0  0  0  0
  -28.2712  -12.0419   21.0364 N   0  0  0  0  0  0  0  0  0  0  0  0
  -24.2659  -30.8221   22.3736 N   0  0  0  0  0  0  0  0  0  0  0  0
  -28.9794  -15.6630   20.0049 N   0  0  0  0  0  0  0  0  0  0  0  0
  -29.1109  -18.0365   20.1295 N   0  0  0  0  0  0  0  0  0  0  0  0
  -26.0837  -11.2377   20.6136 N   0  0  0  0  0  0  0  0  0  0  0  0
  -27.8427   -8.0916   23.3347 N   0  0  0  0  0  0  0  0  0  0  0  0
  -25.9088  -33.2391   24.0555 N   0  0  0  0  0  0  0  0  0  0  0  0
  -21.0438  -29.7893   22.4733 N   0  0  0  0  0  0  0  0  0  0  0  0
  -30.4834  -20.8599   19.4408 N   0  0  3  0  0  0  0  0  0  0  0  0
  -19.7285  -28.4715   19.3747 N   0  3  0  0  0  0  0  0  0  0  0  0
  -25.9765   -8.6921   22.1450 O   0  0  0  0  0  0  0  0  0  0  0  0
  -26.8254  -31.1475   23.5995 O   0  0  0  0  0  0  0  0  0  0  0  0
  -22.5072  -32.1731   23.0934 O   0  0  0  0  0  0  0  0  0  0  0  0
  -21.6309  -27.8467   21.3514 O   0  0  0  0  0  0  0  0  0  0  0  0
  -27.8391  -16.8765   21.6005 O   0  0  0  0  0  0  0  0  0  0  0  0
  -32.9738   -8.1092   25.5043 O   0  0  0  0  0  0  0  0  0  0  0  0
  -28.2040  -26.7259   19.9497 O   0  0  0  0  0  0  0  0  0  1  0  0
  -33.6845   -2.6753   24.8955 F   0  0  0  0  0  0  0  0  0  0  0  0
  -35.4227   -7.0754   24.7450 F   0  0  0  0  0  0  0  0  0  0  0  0
  1  2  1  0  0  0  0
  1  5  2  0  0  0  0
  2  6  2  0  0  0  0
  3  8  2  0  0  0  0
  3 17  1  0  0  0  0
  4  9  1  0  0  0  0
  4 17  2  0  0  0  0
  5 19  1  0  0  0  0
  6 21  1  0  0  0  0
  7 10  2  0  0  0  0
  7 20  1  0  0  0  0
  8 27  1  0  0  0  0
  9 27  2  0  0  0  0
 10 28  1  0  0  0  0
 11 12  2  0  0  0  0
 11 29  1  0  0  0  0
 12 30  1  0  0  0  0
 13 22  1  0  0  0  0
 13 28  2  0  0  0  0
 14 23  1  0  0  0  0
 14 24  2  0  0  0  0
 15 25  1  0  0  0  0
 15 26  2  0  0  0  0
 16 30  2  0  0  0  0
 16 31  1  0  0  0  0
 17 32  1  0  0  0  0
 18 32  1  0  0  0  0
 18 33  2  0  0  0  0
 18 34  1  0  0  0  0
 19 21  2  0  0  0  0
 19 39  1  0  0  0  0
 20 22  2  0  0  0  0
 20 40  1  0  0  0  0
 21 50  1  0  0  0  0
 22 41  1  0  0  0  0
 23 25  2  0  0  0  0
 23 62  1  0  0  0  0
 24 26  1  0  0  0  0
 24 54  1  0  0  0  0
 25 55  1  0  0  0  0
 26 75  1  0  0  0  0
 27 82  1  0  0  0  0
 28 83  1  0  0  0  0
 29 31  2  0  0  0  0
 29 82  1  0  0  0  0
 30 84  1  0  0  0  0
 31 85  1  0  0  0  0
 32 66  2  0  0  0  0
 33 67  1  0  0  0  0
 33 71  1  0  0  0  0
 34 72  1  0  0  0  0
 34 77  2  0  0  0  0
 35 51  1  0  0  0  0
 35 73  1  0  0  0  0
 35 78  2  0  0  0  0
 36 63  1  0  0  0  0
 36 68  1  0  0  0  0
 36 79  2  0  0  0  0
 37 64  1  0  0  0  0
 37 74  1  0  0  0  0
 37 80  2  0  0  0  0
 38 69  1  0  0  0  0
 38 70  1  0  0  0  0
 38 81  2  0  0  0  0
 39 42  1  0  0  0  0
 40 51  1  0  0  0  0
 41 68  1  0  0  0  0
 42 44  1  0  0  0  0
 43 45  1  0  0  0  0
 43 46  1  0  0  0  0
 44 50  1  0  0  0  0
 45 52  1  0  0  0  0
 46 69  1  0  0  0  0
 47 52  1  0  0  0  0
 47 69  1  0  0  0  0
 48 53  1  0  0  0  0
 48 70  1  0  0  0  0
 49 53  1  0  0  0  0
 49 70  1  0  0  0  0
 50 73  1  0  0  0  0
 51 68  1  0  0  0  0
 52 67  1  0  0  0  0
 53 75  1  0  0  0  0
 56 64  1  0  0  0  0
 57 65  1  0  0  0  0
 58 65  1  0  0  0  0
 59 65  1  0  0  0  0
 60 75  1  0  0  0  0
 61 76  1  0  0  0  0
 62 83  1  0  0  0  0
 63 65  1  0  0  0  0
 63 74  1  0  0  0  0
 64 76  1  0  0  0  0
 66 67  1  0  0  0  0
M  CHG  1  76   1
M  ISO  4  38 100  62 101  70 100  83 101
M  END
> <Batch ID>
0168

> <Smiles>
CNC(C)C(=O)NC(C(=O)N1Cc2cc([101O:1][101CH2:1]c3cc(C)c(N(C)C4C[100N:0]([100C:0](=O)N5CCCC(n6nc(-c7ccc(Oc8ccc(F)cc8F)cc7)c(C(N)=O)c6N)C5)C4)cc3C)ccc2CC1C(=O)NC1CCCc2ccccc21)C(C)(C)C

> <Shape>
0.248

> <Color>
0.075

> <Negative vol penalty>
0.000

$$$$

  -OEChem-04052322303D

 88 97  0     1  0  0  0  0  0999 V2000
  -26.0172  -33.8993   24.1836 C   0  0  0  0  0  0  0  0  0  0  0  0
  -26.5733  -32.9804   23.2994 C   0  0  0  0  0  0  0  0  0  0  0  0
  -23.2483  -10.0105   22.1491 C   0  0  0  0  0  0  0  0  0  0  0  0
  -23.7601   -9.3355   19.8865 C   0  0  0  0  0  0  0  0  0  0  0  0
  -24.9854  -33.5083   25.0360 C   0  0  0  0  0  0  0  0  0  0  0  0
  -26.0986  -31.6696   23.2678 C   0  0  0  0  0  0  0  0  0  0  0  0
  -25.6334  -28.0399   18.3572 C   0  0  0  0  0  0  0  0  0  0  0  0
  -22.4462   -8.8800   22.3050 C   0  0  0  0  0  0  0  0  0  0  0  0
  -22.9581   -8.2049   20.0424 C   0  0  0  0  0  0  0  0  0  0  0  0
  -26.4502  -27.0252   17.8600 C   0  0  0  0  0  0  0  0  0  0  0  0
  -22.8805   -5.5816   22.9089 C   0  0  0  0  0  0  0  0  0  0  0  0
  -23.0144   -4.8494   24.0885 C   0  0  0  0  0  0  0  0  0  0  0  0
  -25.0807  -25.3835   18.9774 C   0  0  0  0  0  0  0  0  0  0  0  0
  -20.6875   -5.2496   24.6009 C   0  0  0  0  0  0  0  0  0  0  0  0
  -23.9052  -10.2382   20.9399 C   0  0  0  0  0  0  0  0  0  0  0  0
  -26.1090  -11.5179   21.0558 C   0  0  0  0  0  0  0  0  0  0  0  0
  -24.4914  -32.1947   25.0081 C   0  0  0  0  0  0  0  0  0  0  0  0
  -24.5387  -27.7342   19.1786 C   0  0  0  0  0  0  0  0  0  0  0  0
  -25.0602  -31.2604   24.1216 C   0  0  0  0  0  0  0  0  0  0  0  0
  -24.2501  -26.3959   19.4816 C   0  0  0  0  0  0  0  0  0  0  0  0
  -22.3011   -7.9772   21.2516 C   0  0  0  0  0  0  0  0  0  0  0  0
  -26.1756  -25.6971   18.1724 C   0  0  0  0  0  0  0  0  0  0  0  0
  -21.6502   -6.1479   22.5753 C   0  0  0  0  0  0  0  0  0  0  0  0
  -21.9179   -4.6833   24.9345 C   0  0  0  0  0  0  0  0  0  0  0  0
  -20.5537   -5.9818   23.4213 C   0  0  0  0  0  0  0  0  0  0  0  0
  -24.7334  -11.4061   20.7781 C   0  0  0  0  0  0  0  0  0  0  0  0
  -26.4191  -12.8174   20.7373 C   0  0  0  0  0  0  0  0  0  0  0  0
  -27.0246  -10.5348   21.5567 C   0  0  0  0  0  0  0  0  0  0  0  0
  -23.7178  -28.4239   22.1709 C   0  0  0  0  0  0  0  0  0  0  0  0
  -20.9531  -26.9440   21.3412 C   0  0  0  0  0  0  0  0  0  0  0  0
  -19.3567  -24.7157   19.3082 C   0  0  0  0  0  0  0  0  0  0  0  0
  -25.2698  -18.1635   21.1096 C   0  0  0  0  0  0  0  0  0  0  0  0
  -23.4069  -31.8061   25.9816 C   0  0  0  0  0  0  0  0  0  0  0  0
  -23.6516  -28.8383   19.6850 C   0  0  0  0  0  0  0  0  0  0  0  0
  -23.0749  -26.0134   20.3426 C   0  0  0  0  0  0  0  0  0  0  0  0
  -22.7070  -30.4977   25.6233 C   0  0  0  0  0  0  0  0  0  0  0  0
  -23.7812  -16.3453   18.2956 C   0  0  0  0  0  0  0  0  0  0  0  0
  -23.7309  -29.4250   25.2661 C   0  0  0  0  0  0  0  0  0  0  0  0
  -23.9604  -14.9015   18.7526 C   0  0  0  0  0  0  0  0  0  0  0  0
  -23.9095  -21.0459   22.1681 C   0  0  0  0  0  0  0  0  0  0  0  0
  -23.5230  -17.2974   19.4641 C   0  0  0  0  0  0  0  0  0  0  0  0
  -23.3406  -19.9182   21.3015 C   0  0  0  0  0  0  0  0  0  0  0  0
  -24.7232  -15.7580   20.9950 C   0  0  0  0  0  0  0  0  0  0  0  0
  -28.3467  -21.4768   21.2087 C   0  0  0  0  0  0  0  0  0  0  0  0
  -24.5557  -29.8360   24.0404 C   0  0  1  0  0  0  0  0  0  0  0  0
  -22.8661  -28.4485   20.9334 C   0  0  1  0  0  0  0  0  0  0  0  0
  -29.6209  -21.3853   20.3849 C   0  0  1  0  0  0  0  0  0  0  0  0
  -25.0490  -14.8103   19.8321 C   0  0  1  0  0  0  0  0  0  0  0  0
  -29.1580  -21.8554   19.0051 C   0  0  1  0  0  0  0  0  0  0  0  0
  -25.3133  -20.6535   21.6828 C   0  0  2  0  0  0  0  0  0  0  0  0
  -27.7726  -21.2230   18.8301 C   0  0  1  0  0  0  0  0  0  0  0  0
  -27.8116  -19.8967   18.0818 C   0  0  0  0  0  0  0  0  0  0  0  0
  -17.1045  -23.6891   18.8951 C   0  0  0  0  0  0  0  0  0  0  0  0
  -30.7509  -22.0701   22.5198 C   0  0  0  0  0  0  0  0  0  0  0  0
  -32.1077  -21.7254   20.4356 C   0  0  0  0  0  0  0  0  0  0  0  0
  -30.6665  -24.0574   17.4478 C   0  0  0  0  0  0  0  0  0  0  0  0
  -21.3217  -25.1573   23.7870 C   0  0  0  0  0  0  0  0  0  0  0  0
  -19.6285  -23.5918   22.8120 C   0  0  0  0  0  0  0  0  0  0  0  0
  -18.9733  -25.9257   23.4008 C   0  0  0  0  0  0  0  0  0  0  0  0
  -19.2337  -25.8084   16.5605 C   0  0  0  0  0  0  0  0  0  0  0  0
  -25.9158  -21.4629   20.5514 C   0  0  0  0  0  0  0  0  0  0  0  0
  -28.3438  -25.0260   17.4622 C   0  0  0  0  0  0  0  0  0  1  0  0
  -20.4462  -25.5227   21.3857 C   0  0  1  0  0  0  0  0  0  0  0  0
  -18.0584  -24.8150   18.5278 C   0  0  2  0  0  0  0  0  0  0  0  0
  -30.7609  -22.1856   20.9948 C   0  0  0  0  0  0  0  0  0  0  0  0
  -29.1869  -23.7697   17.6422 C   0  0  2  0  0  0  0  0  0  0  0  0
  -20.1158  -25.0564   22.8317 C   0  0  0  0  0  0  0  0  0  0  0  0
  -24.2060  -12.5440   20.3188 N   0  0  0  0  0  0  0  0  0  0  0  0
  -25.2557  -13.3832   20.3054 N   0  0  0  0  0  0  0  0  0  0  0  0
  -22.2410  -27.1293   20.8189 N   0  0  0  0  0  0  0  0  0  0  0  0
  -24.5161  -17.1355   20.5327 N   0  0  0  0  0  0  0  0  0  0  0  0
  -24.7024  -19.4156   21.1934 N   0  0  0  0  0  0  0  0  0  0  0  0
  -27.5708  -13.5200   20.7875 N   0  0  0  0  0  0  0  0  0  0  0  0
  -26.5398   -9.2488   21.8315 N   0  0  0  0  0  0  0  0  0  0  0  0
  -23.7916  -29.6376   22.8274 N   0  0  0  0  0  0  0  0  0  0  0  0
  -19.3154  -25.4636   20.4658 N   0  0  0  0  0  0  0  0  0  0  0  0
  -27.2912  -20.9504   20.2606 N   0  3  2  0  0  0  0  0  0  0  0  0
  -18.3273  -24.7444   17.0637 N   0  3  0  0  0  0  0  0  0  0  0  0
  -28.2333  -10.7939   21.7703 O   0  0  0  0  0  0  0  0  0  0  0  0
  -24.2662  -27.3805   22.5063 O   0  0  0  0  0  0  0  0  0  0  0  0
  -20.2301  -27.8569   21.7480 O   0  0  0  0  0  0  0  0  0  0  0  0
  -20.3108  -24.0391   18.9305 O   0  0  0  0  0  0  0  0  0  0  0  0
  -26.4038  -17.9660   21.5655 O   0  0  0  0  0  0  0  0  0  0  0  0
  -21.5187   -6.8739   21.4034 O   0  0  0  0  0  0  0  0  0  0  0  0
  -26.9768  -24.6984   17.6858 O   0  0  0  0  0  0  0  0  0  1  0  0
  -29.0086  -23.2718   18.9598 O   0  0  0  0  0  0  0  0  0  0  0  0
  -22.0462   -3.9789   26.0665 F   0  0  0  0  0  0  0  0  0  0  0  0
  -19.3689   -6.5225   23.1055 F   0  0  0  0  0  0  0  0  0  0  0  0
  1  2  1  0  0  0  0
  1  5  2  0  0  0  0
  2  6  2  0  0  0  0
  3  8  2  0  0  0  0
  3 15  1  0  0  0  0
  4  9  1  0  0  0  0
  4 15  2  0  0  0  0
  5 17  1  0  0  0  0
  6 19  1  0  0  0  0
  7 10  2  0  0  0  0
  7 18  1  0  0  0  0
  8 21  1  0  0  0  0
  9 21  2  0  0  0  0
 10 22  1  0  0  0  0
 11 12  2  0  0  0  0
 11 23  1  0  0  0  0
 12 24  1  0  0  0  0
 13 20  1  0  0  0  0
 13 22  2  0  0  0  0
 14 24  2  0  0  0  0
 14 25  1  0  0  0  0
 15 26  1  0  0  0  0
 16 26  1  0  0  0  0
 16 27  2  0  0  0  0
 16 28  1  0  0  0  0
 17 19  2  0  0  0  0
 17 33  1  0  0  0  0
 18 20  2  0  0  0  0
 18 34  1  0  0  0  0
 19 45  1  0  0  0  0
 20 35  1  0  0  0  0
 21 84  1  0  0  0  0
 22 85  1  0  0  0  0
 23 25  2  0  0  0  0
 23 84  1  0  0  0  0
 24 87  1  0  0  0  0
 25 88  1  0  0  0  0
 26 68  2  0  0  0  0
 27 69  1  0  0  0  0
 27 73  1  0  0  0  0
 28 74  1  0  0  0  0
 28 79  2  0  0  0  0
 29 46  1  0  0  0  0
 29 75  1  0  0  0  0
 29 80  2  0  0  0  0
 30 63  1  0  0  0  0
 30 70  1  0  0  0  0
 30 81  2  0  0  0  0
 31 64  1  0  0  0  0
 31 76  1  0  0  0  0
 31 82  2  0  0  0  0
 32 71  1  0  0  0  0
 32 72  1  0  0  0  0
 32 83  2  0  0  0  0
 33 36  1  0  0  0  0
 34 46  1  0  0  0  0
 35 70  1  0  0  0  0
 36 38  1  0  0  0  0
 37 39  1  0  0  0  0
 37 41  1  0  0  0  0
 38 45  1  0  0  0  0
 39 48  1  0  0  0  0
 40 42  1  0  0  0  0
 40 50  1  0  0  0  0
 41 71  1  0  0  0  0
 42 72  1  0  0  0  0
 43 48  1  0  0  0  0
 43 71  1  0  0  0  0
 44 47  1  0  0  0  0
 44 77  1  0  0  0  0
 45 75  1  0  0  0  0
 46 70  1  0  0  0  0
 47 49  1  0  0  0  0
 47 65  1  0  0  0  0
 48 69  1  0  0  0  0
 49 51  1  0  0  0  0
 49 86  1  0  0  0  0
 50 61  1  0  0  0  0
 50 72  1  0  0  0  0
 51 52  1  0  0  0  0
 51 77  1  0  0  0  0
 53 64  1  0  0  0  0
 54 65  1  0  0  0  0
 55 65  1  0  0  0  0
 56 66  1  0  0  0  0
 57 67  1  0  0  0  0
 58 67  1  0  0  0  0
 59 67  1  0  0  0  0
 60 78  1  0  0  0  0
 61 77  1  0  0  0  0
 62 66  1  0  0  0  0
 62 85  1  0  0  0  0
 63 67  1  0  0  0  0
 63 76  1  0  0  0  0
 64 78  1  0  0  0  0
 66 86  1  0  0  0  0
 68 69  1  0  0  0  0
M  CHG  2  77   1  78   1
M  ISO  4  32 100  62 101  72 100  85 101
M  END
> <Batch ID>
0168

> <Smiles>
CNC(C)C(=O)NC(C(=O)N1Cc2cc([101O:1][101CH2:1]C(C)OC3C(C(C)C)CN(CC4CC[100N:0]4[100C:0](=O)N4CCCC(n5nc(-c6ccc(Oc7ccc(F)cc7F)cc6)c(C(N)=O)c5N)C4)C3C)ccc2CC1C(=O)NC1CCCc2ccccc21)C(C)(C)C

> <Shape>
0.269

> <Color>
0.089

> <Negative vol penalty>
0.000

$$$$

  -OEChem-04052322303D

 87 98  0     1  0  0  0  0  0999 V2000
  -18.3519  -29.3835   26.1061 C   0  0  0  0  0  0  0  0  0  0  0  0
  -19.7350  -29.2836   26.2184 C   0  0  0  0  0  0  0  0  0  0  0  0
  -23.9695  -12.9227   25.3349 C   0  0  0  0  0  0  0  0  0  0  0  0
  -23.0051  -15.1352   25.4437 C   0  0  0  0  0  0  0  0  0  0  0  0
  -17.7239  -29.0376   24.9103 C   0  0  0  0  0  0  0  0  0  0  0  0
  -20.4908  -28.8366   25.1351 C   0  0  0  0  0  0  0  0  0  0  0  0
  -26.1155  -30.6778   23.5608 C   0  0  0  0  0  0  0  0  0  0  0  0
  -23.2643  -12.5588   26.4819 C   0  0  0  0  0  0  0  0  0  0  0  0
  -22.2998  -14.7713   26.5908 C   0  0  0  0  0  0  0  0  0  0  0  0
  -27.3782  -30.1304   23.7834 C   0  0  0  0  0  0  0  0  0  0  0  0
  -20.1110  -11.6345   27.2790 C   0  0  0  0  0  0  0  0  0  0  0  0
  -19.4621  -10.3998   27.2766 C   0  0  0  0  0  0  0  0  0  0  0  0
  -28.3401  -22.7521   22.2561 C   0  0  0  0  0  0  0  0  0  0  0  0
  -27.3057  -29.0933   21.6066 C   0  0  0  0  0  0  0  0  0  0  0  0
  -20.7873   -9.6997   29.1716 C   0  0  0  0  0  0  0  0  0  0  0  0
  -23.8400  -14.2109   24.8157 C   0  0  0  0  0  0  0  0  0  0  0  0
  -24.1407  -14.4668   22.2955 C   0  0  0  0  0  0  0  0  0  0  0  0
  -18.4733  -28.5954   23.8088 C   0  0  0  0  0  0  0  0  0  0  0  0
  -25.4325  -30.4277   22.3619 C   0  0  0  0  0  0  0  0  0  0  0  0
  -19.8721  -28.4832   23.9239 C   0  0  0  0  0  0  0  0  0  0  0  0
  -27.7602  -22.9496   21.0079 C   0  0  0  0  0  0  0  0  0  0  0  0
  -26.0355  -29.6408   21.3702 C   0  0  0  0  0  0  0  0  0  0  0  0
  -28.7986  -23.8444   22.9842 C   0  0  0  0  0  0  0  0  0  0  0  0
  -22.4294  -13.4831   27.1099 C   0  0  0  0  0  0  0  0  0  0  0  0
  -27.9723  -29.3357   22.8074 C   0  0  0  0  0  0  0  0  0  0  0  0
  -21.0981  -11.9018   28.2276 C   0  0  0  0  0  0  0  0  0  0  0  0
  -19.8002   -9.4324   28.2229 C   0  0  0  0  0  0  0  0  0  0  0  0
  -21.4362  -10.9344   29.1739 C   0  0  0  0  0  0  0  0  0  0  0  0
  -24.5687  -14.5875   23.6311 C   0  0  0  0  0  0  0  0  0  0  0  0
  -27.6630  -24.2488   20.5362 C   0  0  0  0  0  0  0  0  0  0  0  0
  -28.6551  -25.1035   22.4239 C   0  0  0  0  0  0  0  0  0  0  0  0
  -25.1863  -14.9600   21.5539 C   0  0  0  0  0  0  0  0  0  0  0  0
  -22.9080  -13.9548   21.7719 C   0  0  0  0  0  0  0  0  0  0  0  0
  -22.6912  -29.0133   21.5949 C   0  0  0  0  0  0  0  0  0  0  0  0
  -23.4127  -30.0983   18.6243 C   0  0  0  0  0  0  0  0  0  0  0  0
  -25.8042  -31.1223   16.4155 C   0  0  0  0  0  0  0  0  0  0  0  0
  -29.0881  -18.9633   20.7991 C   0  0  0  0  0  0  0  0  0  0  0  0
  -17.7455  -28.1878   22.5522 C   0  0  0  0  0  0  0  0  0  0  0  0
  -24.0824  -31.0475   22.1263 C   0  0  0  0  0  0  0  0  0  0  0  0
  -25.3528  -29.3588   20.0577 C   0  0  0  0  0  0  0  0  0  0  0  0
  -18.6538  -28.0800   21.3301 C   0  0  0  0  0  0  0  0  0  0  0  0
  -29.9043  -16.1389   22.8622 C   0  0  0  0  0  0  0  0  0  0  0  0
  -19.9228  -27.3069   21.6746 C   0  0  0  0  0  0  0  0  0  0  0  0
  -27.9079  -24.4092   17.9694 C   0  0  0  0  0  0  0  0  0  0  0  0
  -27.4349  -25.7478   18.4435 C   0  0  0  0  0  0  0  0  0  0  0  0
  -28.5551  -15.5041   23.1832 C   0  0  0  0  0  0  0  0  0  0  0  0
  -30.5802  -26.7056   23.0589 C   0  0  0  0  0  0  0  0  0  0  0  0
  -29.7846  -17.6542   22.7718 C   0  0  0  0  0  0  0  0  0  0  0  0
  -28.2430  -20.8722   19.3366 C   0  0  0  0  0  0  0  0  0  0  0  0
  -26.8964  -20.3826   20.9091 C   0  0  0  0  0  0  0  0  0  0  0  0
  -27.4228  -17.4740   22.0350 C   0  0  0  0  0  0  0  0  0  0  0  0
  -27.2318  -21.6995   20.1653 C   0  0  0  0  0  0  0  0  0  0  0  0
  -20.7286  -28.0261   22.7631 C   0  0  1  0  0  0  0  0  0  0  0  0
  -27.0468  -24.5059   19.1999 C   0  0  0  0  0  0  0  0  0  0  0  0
  -29.1336  -26.3060   23.1712 C   0  0  1  0  0  0  0  0  0  0  0  0
  -23.2588  -30.3051   21.0785 C   0  0  1  0  0  0  0  0  0  0  0  0
  -27.4989  -15.9390   22.1570 C   0  0  2  0  0  0  0  0  0  0  0  0
  -29.5255  -27.5368   22.3948 C   0  0  1  0  0  0  0  0  0  1  0  0
  -29.4201  -23.6342   24.3219 C   0  0  0  0  0  0  0  0  0  0  0  0
  -26.0936  -31.9110   14.0508 C   0  0  0  0  0  0  0  0  0  0  0  0
  -23.0583  -27.2359   17.6288 C   0  0  0  0  0  0  0  0  0  0  0  0
  -24.2584  -27.8908   15.5313 C   0  0  0  0  0  0  0  0  0  0  0  0
  -22.0991  -28.9895   16.1256 C   0  0  0  0  0  0  0  0  0  0  0  0
  -26.9021  -33.7259   17.2956 C   0  0  0  0  0  0  0  0  0  0  0  0
  -24.1810  -29.5536   17.4445 C   0  0  1  0  0  0  0  0  0  0  0  0
  -25.8767  -32.3287   15.4969 C   0  0  2  0  0  0  0  0  0  0  0  0
  -23.4115  -28.4210   16.7080 C   0  0  0  0  0  0  0  0  0  0  0  0
  -25.7911  -15.1157   23.7352 N   0  0  0  0  0  0  0  0  0  0  0  0
  -28.0971  -25.3347   21.2145 N   0  0  0  0  0  0  0  0  0  0  0  0
  -26.1401  -15.3313   22.4554 N   0  0  0  0  0  0  0  0  0  0  0  0
  -24.0313  -29.9821   19.8772 N   0  0  0  0  0  0  0  0  0  0  0  0
  -28.7492  -18.0692   21.8208 N   0  0  0  0  0  0  0  0  0  0  0  0
  -28.1227  -19.8377   20.3544 N   0  0  0  0  0  0  0  0  0  0  0  0
  -25.3738  -15.1078   20.2253 N   0  0  0  0  0  0  0  0  0  0  0  0
  -21.9416  -13.4885   22.6734 N   0  0  0  0  0  0  0  0  0  0  0  0
  -21.4552  -29.1434   22.1989 N   0  0  0  0  0  0  0  0  0  0  0  0
  -24.5049  -30.7008   16.6034 N   0  0  0  0  0  0  0  0  0  0  0  0
  -26.9995  -33.2212   15.9017 N   0  3  0  0  0  0  0  0  0  0  0  0
  -22.6773  -13.8970   20.5402 O   0  0  0  0  0  0  0  0  0  0  0  0
  -23.3269  -27.9751   21.4543 O   0  0  0  0  0  0  0  0  0  0  0  0
  -22.3076  -30.6146   18.4401 O   0  0  0  0  0  0  0  0  0  0  0  0
  -26.8009  -30.6032   16.9133 O   0  0  0  0  0  0  0  0  0  0  0  0
  -30.2282  -19.0031   20.3178 O   0  0  0  0  0  0  0  0  0  0  0  0
  -21.7409  -13.1284   28.2291 O   0  0  0  0  0  0  0  0  0  0  0  0
  -29.2223  -28.7919   23.0255 O   0  0  0  0  0  0  0  0  0  1  0  0
  -19.1759   -8.2473   28.2215 F   0  0  0  0  0  0  0  0  0  0  0  0
  -22.3829  -11.1859   30.0885 F   0  0  0  0  0  0  0  0  0  0  0  0
  1  2  1  0  0  0  0
  1  5  2  0  0  0  0
  2  6  2  0  0  0  0
  3  8  2  0  0  0  0
  3 16  1  0  0  0  0
  4  9  1  0  0  0  0
  4 16  2  0  0  0  0
  5 18  1  0  0  0  0
  6 20  1  0  0  0  0
  7 10  2  0  0  0  0
  7 19  1  0  0  0  0
  8 24  1  0  0  0  0
  9 24  2  0  0  0  0
 10 25  1  0  0  0  0
 11 12  2  0  0  0  0
 11 26  1  0  0  0  0
 12 27  1  0  0  0  0
 13 21  2  0  0  0  0
 13 23  1  0  0  0  0
 14 22  1  0  0  0  0
 14 25  2  0  0  0  0
 15 27  2  0  0  0  0
 15 28  1  0  0  0  0
 16 29  1  0  0  0  0
 17 29  1  0  0  0  0
 17 32  2  0  0  0  0
 17 33  1  0  0  0  0
 18 20  2  0  0  0  0
 18 38  1  0  0  0  0
 19 22  2  0  0  0  0
 19 39  1  0  0  0  0
 20 53  1  0  0  0  0
 21 30  1  0  0  0  0
 21 52  1  0  0  0  0
 22 40  1  0  0  0  0
 23 31  2  0  0  0  0
 23 59  1  0  0  0  0
 24 84  1  0  0  0  0
 25 85  1  0  0  0  0
 26 28  2  0  0  0  0
 26 84  1  0  0  0  0
 27 86  1  0  0  0  0
 28 87  1  0  0  0  0
 29 68  2  0  0  0  0
 30 54  1  0  0  0  0
 30 69  2  0  0  0  0
 31 55  1  0  0  0  0
 31 69  1  0  0  0  0
 32 70  1  0  0  0  0
 32 74  1  0  0  0  0
 33 75  1  0  0  0  0
 33 79  2  0  0  0  0
 34 56  1  0  0  0  0
 34 76  1  0  0  0  0
 34 80  2  0  0  0  0
 35 65  1  0  0  0  0
 35 71  1  0  0  0  0
 35 81  2  0  0  0  0
 36 66  1  0  0  0  0
 36 77  1  0  0  0  0
 36 82  2  0  0  0  0
 37 72  1  0  0  0  0
 37 73  1  0  0  0  0
 37 83  2  0  0  0  0
 38 41  1  0  0  0  0
 39 56  1  0  0  0  0
 40 71  1  0  0  0  0
 41 43  1  0  0  0  0
 42 46  1  0  0  0  0
 42 48  1  0  0  0  0
 43 53  1  0  0  0  0
 44 45  1  0  0  0  0
 44 54  1  0  0  0  0
 45 54  1  0  0  0  0
 46 57  1  0  0  0  0
 47 55  1  0  0  0  0
 47 58  1  0  0  0  0
 48 72  1  0  0  0  0
 49 52  1  0  0  0  0
 49 73  1  0  0  0  0
 50 52  1  0  0  0  0
 50 73  1  0  0  0  0
 51 57  1  0  0  0  0
 51 72  1  0  0  0  0
 53 76  1  0  0  0  0
 55 58  1  0  0  0  0
 56 71  1  0  0  0  0
 57 70  1  0  0  0  0
 58 85  1  0  0  0  0
 60 66  1  0  0  0  0
 61 67  1  0  0  0  0
 62 67  1  0  0  0  0
 63 67  1  0  0  0  0
 64 78  1  0  0  0  0
 65 67  1  0  0  0  0
 65 77  1  0  0  0  0
 66 78  1  0  0  0  0
 68 70  1  0  0  0  0
M  CHG  1  78   1
M  ISO  4  37 100  58 101  73 100  85 101
M  END
> <Batch ID>
0168

> <Smiles>
CNC(C)C(=O)NC(C(=O)N1Cc2cc([101O:1][101CH:1]3CC3c3nc(C4CC4)c(C4C[100N:0]([100C:0](=O)N5CCCC(n6nc(-c7ccc(Oc8ccc(F)cc8F)cc7)c(C(N)=O)c6N)C5)C4)cc3C)ccc2CC1C(=O)NC1CCCc2ccccc21)C(C)(C)C

> <Shape>
0.194

> <Color>
0.119

> <Negative vol penalty>
0.000

$$$$

  -OEChem-04052322303D

 88 98  0     1  0  0  0  0  0999 V2000
  -23.3307  -30.2799   21.5308 C   0  0  0  0  0  0  0  0  0  0  0  0
  -23.4954  -28.9652   21.9549 C   0  0  0  0  0  0  0  0  0  0  0  0
  -23.0824   -9.8740   20.0533 C   0  0  0  0  0  0  0  0  0  0  0  0
  -23.8063  -10.0232   22.3535 C   0  0  0  0  0  0  0  0  0  0  0  0
  -24.2711  -30.8598   20.6803 C   0  0  0  0  0  0  0  0  0  0  0  0
  -24.6001  -28.2292   21.5279 C   0  0  0  0  0  0  0  0  0  0  0  0
  -26.7862  -25.6445   25.2942 C   0  0  0  0  0  0  0  0  0  0  0  0
  -22.3328   -8.7392   20.3628 C   0  0  0  0  0  0  0  0  0  0  0  0
  -23.0566   -8.8884   22.6630 C   0  0  0  0  0  0  0  0  0  0  0  0
  -26.1657  -24.4639   25.7003 C   0  0  0  0  0  0  0  0  0  0  0  0
  -19.8180   -8.1319   23.2631 C   0  0  0  0  0  0  0  0  0  0  0  0
  -19.0427   -8.1655   24.4221 C   0  0  0  0  0  0  0  0  0  0  0  0
  -27.7511  -23.1911   24.4019 C   0  0  0  0  0  0  0  0  0  0  0  0
  -20.2692   -6.2768   25.2972 C   0  0  0  0  0  0  0  0  0  0  0  0
  -23.8192  -10.5160   21.0486 C   0  0  0  0  0  0  0  0  0  0  0  0
  -24.1671  -13.0285   20.7771 C   0  0  0  0  0  0  0  0  0  0  0  0
  -25.3930  -30.1337   20.2504 C   0  0  0  0  0  0  0  0  0  0  0  0
  -27.8890  -25.6078   24.4288 C   0  0  0  0  0  0  0  0  0  0  0  0
  -25.5557  -28.7995   20.6698 C   0  0  0  0  0  0  0  0  0  0  0  0
  -28.3854  -24.3726   23.9884 C   0  0  0  0  0  0  0  0  0  0  0  0
  -22.3198   -8.2464   21.6677 C   0  0  0  0  0  0  0  0  0  0  0  0
  -26.6463  -23.2371   25.2518 C   0  0  0  0  0  0  0  0  0  0  0  0
  -20.8189   -7.1707   23.1211 C   0  0  0  0  0  0  0  0  0  0  0  0
  -19.2683   -7.2380   25.4392 C   0  0  0  0  0  0  0  0  0  0  0  0
  -21.0444   -6.2432   24.1381 C   0  0  0  0  0  0  0  0  0  0  0  0
  -24.5942  -11.6880   20.7294 C   0  0  0  0  0  0  0  0  0  0  0  0
  -25.2661  -13.7532   20.3851 C   0  0  0  0  0  0  0  0  0  0  0  0
  -30.1010  -17.9651   23.8640 C   0  0  0  0  0  0  0  0  0  0  0  0
  -27.9697  -19.9643   26.1516 C   0  0  0  0  0  0  0  0  0  0  0  0
  -27.8895  -19.2698   22.6738 C   0  0  0  0  0  0  0  0  0  0  0  0
  -29.1857  -18.7785   24.6250 C   0  0  0  0  0  0  0  0  0  0  0  0
  -28.0521  -19.4409   23.9932 C   0  0  0  0  0  0  0  0  0  0  0  0
  -29.1352  -19.0986   25.9317 C   0  0  0  0  0  0  0  0  0  0  0  0
  -27.3162  -20.1748   24.9924 C   0  0  0  0  0  0  0  0  0  0  0  0
  -29.8684  -17.8410   22.5330 C   0  0  0  0  0  0  0  0  0  0  0  0
  -22.8911  -13.5703   21.1430 C   0  0  0  0  0  0  0  0  0  0  0  0
  -28.4858  -26.7103   21.5079 C   0  0  0  0  0  0  0  0  0  0  0  0
  -31.4833  -25.6438   22.1403 C   0  0  0  0  0  0  0  0  0  0  0  0
  -33.4927  -23.5308   23.9136 C   0  0  0  0  0  0  0  0  0  0  0  0
  -30.7479  -14.7781   20.5961 C   0  0  0  0  0  0  0  0  0  0  0  0
  -26.3579  -30.7877   19.2933 C   0  0  0  0  0  0  0  0  0  0  0  0
  -28.5637  -26.8889   24.0214 C   0  0  0  0  0  0  0  0  0  0  0  0
  -29.5789  -24.2778   23.0746 C   0  0  0  0  0  0  0  0  0  0  0  0
  -27.6964  -30.0616   19.1868 C   0  0  0  0  0  0  0  0  0  0  0  0
  -29.6439  -12.2504   18.3447 C   0  0  0  0  0  0  0  0  0  0  0  0
  -27.4783  -28.5602   19.0290 C   0  0  0  0  0  0  0  0  0  0  0  0
  -31.4778  -19.0010   26.9351 C   0  0  0  0  0  0  0  0  0  0  0  0
  -30.6258  -19.7965   27.8793 C   0  0  0  0  0  0  0  0  0  0  0  0
  -28.1994  -11.9852   18.7724 C   0  0  0  0  0  0  0  0  0  0  0  0
  -30.5425  -12.5449   19.5438 C   0  0  0  0  0  0  0  0  0  0  0  0
  -28.6204  -13.3623   20.8521 C   0  0  0  0  0  0  0  0  0  0  0  0
  -26.7538  -27.9768   20.2481 C   0  0  1  0  0  0  0  0  0  0  0  0
  -30.0089  -18.7151   27.0418 C   0  0  0  0  0  0  0  0  0  0  0  0
  -29.3617  -26.7588   22.7278 C   0  0  1  0  0  0  0  0  0  0  0  0
  -27.6646  -13.1154   19.6724 C   0  0  2  0  0  0  0  0  0  0  0  0
  -28.9092  -19.5812   19.7252 C   0  0  0  0  0  0  0  0  0  0  0  0
  -24.8223  -20.1609   24.9282 C   0  0  0  0  0  0  0  0  0  0  0  0
  -35.8963  -22.8628   24.1852 C   0  0  0  0  0  0  0  0  0  0  0  0
  -31.3363  -24.0641   19.5340 C   0  0  0  0  0  0  0  0  0  0  0  0
  -33.2967  -22.7195   20.3196 C   0  0  0  0  0  0  0  0  0  0  0  0
  -33.5361  -25.1759   19.9573 C   0  0  0  0  0  0  0  0  0  0  0  0
  -33.5225  -24.3592   26.7547 C   0  0  0  0  0  0  0  0  0  0  0  0
  -30.7980  -17.0015   21.6976 C   0  0  0  0  0  0  0  0  0  0  0  0
  -28.5204  -18.3439   20.4606 C   0  0  0  0  0  0  0  0  0  0  0  0
  -26.0874  -20.9833   24.7382 C   0  0  1  0  0  0  0  0  0  1  0  0
  -32.2172  -24.3390   21.9453 C   0  0  1  0  0  0  0  0  0  0  0  0
  -34.7814  -23.7717   24.6789 C   0  0  2  0  0  0  0  0  0  0  0  0
  -32.5729  -24.0762   20.4547 C   0  0  0  0  0  0  0  0  0  0  0  0
  -25.8654  -11.5654   20.3379 N   0  0  0  0  0  0  0  0  0  0  0  0
  -26.2464  -12.8382   20.1359 N   0  0  0  0  0  0  0  0  0  0  0  0
  -28.7624  -18.4855   21.8977 N   0  0  0  0  0  0  0  0  0  0  0  0
  -30.2003  -25.5587   22.6993 N   0  0  0  0  0  0  0  0  0  0  0  0
  -29.9798  -13.6270   20.3553 N   0  0  0  0  0  0  0  0  0  0  0  0
  -25.4799  -15.0773   20.2327 N   0  0  0  0  0  0  0  0  0  0  0  0
  -21.8725  -12.6846   21.5202 N   0  0  0  0  0  0  0  0  0  0  0  0
  -27.6735  -27.8175   21.3541 N   0  0  0  0  0  0  0  0  0  0  0  0
  -33.3716  -24.3828   22.8363 N   0  0  0  0  0  0  0  0  0  0  0  0
  -30.1372  -15.7580   21.3691 N   0  0  0  0  0  0  0  0  0  0  0  0
  -34.5759  -23.5163   26.1327 N   0  3  0  0  0  0  0  0  0  0  0  0
  -22.6561  -14.8023   21.1199 O   0  0  0  0  0  0  0  0  0  0  0  0
  -28.5439  -25.7408   20.7605 O   0  0  0  0  0  0  0  0  0  0  0  0
  -32.0312  -26.7002   21.8155 O   0  0  0  0  0  0  0  0  0  0  0  0
  -32.6769  -22.6702   24.2368 O   0  0  0  0  0  0  0  0  0  0  0  0
  -31.8912  -14.9242   20.1504 O   0  0  0  0  0  0  0  0  0  0  0  0
  -21.5882   -7.1392   21.9701 O   0  0  0  0  0  0  0  0  0  0  0  0
  -26.0421  -22.0833   25.6461 O   0  0  0  0  0  0  0  0  0  1  0  0
  -18.5248   -7.2713   26.5529 F   0  0  0  0  0  0  0  0  0  0  0  0
  -22.0053   -5.3182   24.0079 F   0  0  0  0  0  0  0  0  0  0  0  0
  1  2  1  0  0  0  0
  1  5  2  0  0  0  0
  2  6  2  0  0  0  0
  3  8  2  0  0  0  0
  3 15  1  0  0  0  0
  4  9  1  0  0  0  0
  4 15  2  0  0  0  0
  5 17  1  0  0  0  0
  6 19  1  0  0  0  0
  7 10  2  0  0  0  0
  7 18  1  0  0  0  0
  8 21  1  0  0  0  0
  9 21  2  0  0  0  0
 10 22  1  0  0  0  0
 11 12  2  0  0  0  0
 11 23  1  0  0  0  0
 12 24  1  0  0  0  0
 13 20  1  0  0  0  0
 13 22  2  0  0  0  0
 14 24  2  0  0  0  0
 14 25  1  0  0  0  0
 15 26  1  0  0  0  0
 16 26  1  0  0  0  0
 16 27  2  0  0  0  0
 16 36  1  0  0  0  0
 17 19  2  0  0  0  0
 17 41  1  0  0  0  0
 18 20  2  0  0  0  0
 18 42  1  0  0  0  0
 19 52  1  0  0  0  0
 20 43  1  0  0  0  0
 21 85  1  0  0  0  0
 22 86  1  0  0  0  0
 23 25  2  0  0  0  0
 23 85  1  0  0  0  0
 24 87  1  0  0  0  0
 25 88  1  0  0  0  0
 26 69  2  0  0  0  0
 27 70  1  0  0  0  0
 27 74  1  0  0  0  0
 28 31  1  0  0  0  0
 28 35  2  0  0  0  0
 29 33  1  0  0  0  0
 29 34  2  0  0  0  0
 30 32  2  0  0  0  0
 30 71  1  0  0  0  0
 31 32  1  0  0  0  0
 31 33  2  0  0  0  0
 32 34  1  0  0  0  0
 33 53  1  0  0  0  0
 34 65  1  0  0  0  0
 35 63  1  0  0  0  0
 35 71  1  0  0  0  0
 36 75  1  0  0  0  0
 36 80  2  0  0  0  0
 37 54  1  0  0  0  0
 37 76  1  0  0  0  0
 37 81  2  0  0  0  0
 38 66  1  0  0  0  0
 38 72  1  0  0  0  0
 38 82  2  0  0  0  0
 39 67  1  0  0  0  0
 39 77  1  0  0  0  0
 39 83  2  0  0  0  0
 40 73  1  0  0  0  0
 40 78  1  0  0  0  0
 40 84  2  0  0  0  0
 41 44  1  0  0  0  0
 42 54  1  0  0  0  0
 43 72  1  0  0  0  0
 44 46  1  0  0  0  0
 45 49  1  0  0  0  0
 45 50  1  0  0  0  0
 46 52  1  0  0  0  0
 47 48  1  0  0  0  0
 47 53  1  0  0  0  0
 48 53  1  0  0  0  0
 49 55  1  0  0  0  0
 50 73  1  0  0  0  0
 51 55  1  0  0  0  0
 51 73  1  0  0  0  0
 52 76  1  0  0  0  0
 54 72  1  0  0  0  0
 55 70  1  0  0  0  0
 56 64  1  0  0  0  0
 57 65  1  0  0  0  0
 58 67  1  0  0  0  0
 59 68  1  0  0  0  0
 60 68  1  0  0  0  0
 61 68  1  0  0  0  0
 62 79  1  0  0  0  0
 63 78  1  0  0  0  0
 64 71  1  0  0  0  0
 65 86  1  0  0  0  0
 66 68  1  0  0  0  0
 66 77  1  0  0  0  0
 67 79  1  0  0  0  0
 69 70  1  0  0  0  0
M  CHG  1  79   1
M  ISO  4  40 100  65 101  78 100  86 101
M  END
> <Batch ID>
0168

> <Smiles>
CCn1cc2c([101CH:1](C)[101O:1]c3ccc4c(c3)CN(C(=O)C(NC(=O)C(C)NC)C(C)(C)C)C(C(=O)NC3CCCc5ccccc53)C4)cc(C3CC3)c-2cc1C[100NH:0][100C:0](=O)N1CCCC(n2nc(-c3ccc(Oc4ccc(F)cc4F)cc3)c(C(N)=O)c2N)C1

> <Shape>
0.251

> <Color>
0.219

> <Negative vol penalty>
0.000

$$$$

  -OEChem-04052322303D

 88 98  0     1  0  0  0  0  0999 V2000
  -14.6760  -29.5130   21.6726 C   0  0  0  0  0  0  0  0  0  0  0  0
  -15.4641  -30.1588   20.7254 C   0  0  0  0  0  0  0  0  0  0  0  0
  -26.4874  -12.6456   21.6079 C   0  0  0  0  0  0  0  0  0  0  0  0
  -25.8471  -13.7069   19.5341 C   0  0  0  0  0  0  0  0  0  0  0  0
  -15.2093  -29.1931   22.9205 C   0  0  0  0  0  0  0  0  0  0  0  0
  -16.7859  -30.4861   21.0260 C   0  0  0  0  0  0  0  0  0  0  0  0
  -22.2286  -27.9736   17.0315 C   0  0  0  0  0  0  0  0  0  0  0  0
  -28.4351  -22.3155   16.6982 C   0  0  0  0  0  0  0  0  0  0  0  0
  -25.2530  -11.9980   21.6576 C   0  0  0  0  0  0  0  0  0  0  0  0
  -24.6127  -13.0594   19.5838 C   0  0  0  0  0  0  0  0  0  0  0  0
  -23.3093  -27.7049   16.1912 C   0  0  0  0  0  0  0  0  0  0  0  0
  -22.4101   -9.7853   22.1440 C   0  0  0  0  0  0  0  0  0  0  0  0
  -22.4017   -8.4294   22.4713 C   0  0  0  0  0  0  0  0  0  0  0  0
  -28.4887  -21.2920   17.6378 C   0  0  0  0  0  0  0  0  0  0  0  0
  -24.8025  -28.8071   17.7415 C   0  0  0  0  0  0  0  0  0  0  0  0
  -23.7796   -7.9558   20.5441 C   0  0  0  0  0  0  0  0  0  0  0  0
  -26.7845  -13.5001   20.5461 C   0  0  0  0  0  0  0  0  0  0  0  0
  -29.2413  -13.7020   19.8899 C   0  0  0  0  0  0  0  0  0  0  0  0
  -16.5411  -29.5079   23.2330 C   0  0  0  0  0  0  0  0  0  0  0  0
  -22.4333  -28.6474   18.2388 C   0  0  0  0  0  0  0  0  0  0  0  0
  -17.3371  -30.1712   22.2797 C   0  0  0  0  0  0  0  0  0  0  0  0
  -23.7257  -29.0681   18.5932 C   0  0  0  0  0  0  0  0  0  0  0  0
  -28.9568  -23.5661   17.0101 C   0  0  0  0  0  0  0  0  0  0  0  0
  -24.3156  -12.2049   20.6455 C   0  0  0  0  0  0  0  0  0  0  0  0
  -24.5930  -28.1209   16.5453 C   0  0  0  0  0  0  0  0  0  0  0  0
  -23.1031  -10.2264   21.0167 C   0  0  0  0  0  0  0  0  0  0  0  0
  -23.0865   -7.5146   21.6713 C   0  0  0  0  0  0  0  0  0  0  0  0
  -23.7879   -9.3117   20.2168 C   0  0  0  0  0  0  0  0  0  0  0  0
  -28.0592  -14.1698   20.4945 C   0  0  0  0  0  0  0  0  0  0  0  0
  -29.5169  -23.7405   18.2653 C   0  0  0  0  0  0  0  0  0  0  0  0
  -29.0699  -21.5681   18.8649 C   0  0  0  0  0  0  0  0  0  0  0  0
  -30.1597  -14.6981   20.1152 C   0  0  0  0  0  0  0  0  0  0  0  0
  -29.4873  -12.4766   19.1874 C   0  0  0  0  0  0  0  0  0  0  0  0
  -20.9181  -30.0314   21.3795 C   0  0  0  0  0  0  0  0  0  0  0  0
  -23.5901  -28.7483   22.1697 C   0  0  0  0  0  0  0  0  0  0  0  0
  -25.8460  -26.5981   22.6061 C   0  0  0  0  0  0  0  0  0  0  0  0
  -29.6537  -20.5696   21.1028 C   0  0  0  0  0  0  0  0  0  0  0  0
  -17.0591  -29.1844   24.6120 C   0  0  0  0  0  0  0  0  0  0  0  0
  -21.2896  -29.0124   19.1456 C   0  0  0  0  0  0  0  0  0  0  0  0
  -23.8934  -29.8203   19.8851 C   0  0  0  0  0  0  0  0  0  0  0  0
  -18.5813  -29.2303   24.7172 C   0  0  0  0  0  0  0  0  0  0  0  0
  -31.2197  -18.1800   23.2276 C   0  0  0  0  0  0  0  0  0  0  0  0
  -19.1245  -30.4920   24.0540 C   0  0  0  0  0  0  0  0  0  0  0  0
  -31.5103  -25.3837   18.2621 C   0  0  0  0  0  0  0  0  0  0  0  0
  -31.1640  -25.1263   19.6953 C   0  0  0  0  0  0  0  0  0  0  0  0
  -30.6993  -16.8376   22.7090 C   0  0  0  0  0  0  0  0  0  0  0  0
  -27.2947  -26.2517   14.6672 C   0  0  0  0  0  0  0  0  0  0  0  0
  -26.5490  -25.6426   16.5714 C   0  0  0  0  0  0  0  0  0  0  0  0
  -30.1490  -19.2676   23.1606 C   0  0  0  0  0  0  0  0  0  0  0  0
  -28.9958  -18.0932   21.3275 C   0  0  0  0  0  0  0  0  0  0  0  0
  -18.7828  -30.5205   22.5594 C   0  0  1  0  0  0  0  0  0  0  0  0
  -30.0894  -25.0681   18.6436 C   0  0  0  0  0  0  0  0  0  0  0  0
  -21.6624  -28.9601   20.6381 C   0  0  1  0  0  0  0  0  0  0  0  0
  -27.4875  -24.9825   15.5323 C   0  0  0  0  0  0  0  0  0  0  0  0
  -30.0585  -16.9822   21.3147 C   0  0  2  0  0  0  0  0  0  0  0  0
  -25.9606  -26.4837   15.4142 C   0  0  0  0  0  0  0  0  0  1  0  0
  -27.6752  -25.0464   23.3434 C   0  0  0  0  0  0  0  0  0  0  0  0
  -24.8779  -31.5129   22.2211 C   0  0  0  0  0  0  0  0  0  0  0  0
  -26.9057  -30.4711   23.2559 C   0  0  0  0  0  0  0  0  0  0  0  0
  -24.7181  -30.3944   24.4522 C   0  0  0  0  0  0  0  0  0  0  0  0
  -23.9258  -24.7775   23.9318 C   0  0  0  0  0  0  0  0  0  0  0  0
  -31.8556  -23.7659   14.3788 C   0  0  0  0  0  0  0  0  0  0  0  0
  -28.8998  -24.6814   15.9893 C   0  0  2  0  0  0  0  0  0  0  0  0
  -25.0655  -28.9448   22.4102 C   0  0  1  0  0  0  0  0  0  0  0  0
  -26.2766  -25.5678   23.6345 C   0  0  2  0  0  0  0  0  0  0  0  0
  -25.3819  -30.3215   23.0599 C   0  0  0  0  0  0  0  0  0  0  0  0
  -28.2100  -15.3697   21.0615 N   0  0  0  0  0  0  0  0  0  0  0  0
  -29.5871  -22.7703   19.2042 N   0  0  0  0  0  0  0  0  0  0  0  0
  -29.4977  -15.6643   20.8142 N   0  0  0  0  0  0  0  0  0  0  0  0
  -23.0850  -29.1912   20.9412 N   0  0  0  0  0  0  0  0  0  0  0  0
  -29.5900  -19.3500   21.8095 N   0  0  0  0  0  0  0  0  0  0  0  0
  -31.4608  -14.8331   19.7818 N   0  0  0  0  0  0  0  0  0  0  0  0
  -28.4330  -11.5639   19.0466 N   0  0  0  0  0  0  0  0  0  0  0  0
  -29.1197  -20.5187   19.8156 N   0  0  0  0  0  0  0  0  0  0  0  0
  -19.6675  -29.6443   21.8219 N   0  0  0  0  0  0  0  0  0  0  0  0
  -25.5074  -27.7976   23.1958 N   0  0  0  0  0  0  0  0  0  0  0  0
  -25.3351  -24.4125   23.6358 N   0  3  0  0  0  0  0  0  0  0  0  0
  -30.6131  -12.1919   18.7131 O   0  0  0  0  0  0  0  0  0  0  0  0
  -21.4396  -31.1285   21.5405 O   0  0  0  0  0  0  0  0  0  0  0  0
  -22.9007  -28.2218   23.0477 O   0  0  0  0  0  0  0  0  0  0  0  0
  -25.8168  -26.3636   21.4000 O   0  0  0  0  0  0  0  0  0  0  0  0
  -30.1702  -21.5772   21.5927 O   0  0  0  0  0  0  0  0  0  0  0  0
  -23.1111  -11.5730   20.6936 O   0  0  0  0  0  0  0  0  0  0  0  0
  -25.6442  -27.8513   15.7225 O   0  0  0  0  0  0  0  0  0  1  0  0
  -31.0621  -24.5594   15.2493 O   0  0  0  0  0  0  0  0  0  0  0  0
  -29.6851  -24.2903   14.8615 O   0  0  0  0  0  0  0  0  0  0  0  0
  -23.0797   -6.2128   21.9866 F   0  0  0  0  0  0  0  0  0  0  0  0
  -24.4565   -9.7297   19.1332 F   0  0  0  0  0  0  0  0  0  0  0  0
  1  2  1  0  0  0  0
  1  5  2  0  0  0  0
  2  6  2  0  0  0  0
  3  9  2  0  0  0  0
  3 17  1  0  0  0  0
  4 10  1  0  0  0  0
  4 17  2  0  0  0  0
  5 19  1  0  0  0  0
  6 21  1  0  0  0  0
  7 11  2  0  0  0  0
  7 20  1  0  0  0  0
  8 14  2  0  0  0  0
  8 23  1  0  0  0  0
  9 24  1  0  0  0  0
 10 24  2  0  0  0  0
 11 25  1  0  0  0  0
 12 13  2  0  0  0  0
 12 26  1  0  0  0  0
 13 27  1  0  0  0  0
 14 31  1  0  0  0  0
 15 22  1  0  0  0  0
 15 25  2  0  0  0  0
 16 27  2  0  0  0  0
 16 28  1  0  0  0  0
 17 29  1  0  0  0  0
 18 29  1  0  0  0  0
 18 32  2  0  0  0  0
 18 33  1  0  0  0  0
 19 21  2  0  0  0  0
 19 38  1  0  0  0  0
 20 22  2  0  0  0  0
 20 39  1  0  0  0  0
 21 51  1  0  0  0  0
 22 40  1  0  0  0  0
 23 30  2  0  0  0  0
 23 63  1  0  0  0  0
 24 83  1  0  0  0  0
 25 84  1  0  0  0  0
 26 28  2  0  0  0  0
 26 83  1  0  0  0  0
 27 87  1  0  0  0  0
 28 88  1  0  0  0  0
 29 67  2  0  0  0  0
 30 52  1  0  0  0  0
 30 68  1  0  0  0  0
 31 68  2  0  0  0  0
 31 74  1  0  0  0  0
 32 69  1  0  0  0  0
 32 72  1  0  0  0  0
 33 73  1  0  0  0  0
 33 78  2  0  0  0  0
 34 53  1  0  0  0  0
 34 75  1  0  0  0  0
 34 79  2  0  0  0  0
 35 64  1  0  0  0  0
 35 70  1  0  0  0  0
 35 80  2  0  0  0  0
 36 65  1  0  0  0  0
 36 76  1  0  0  0  0
 36 81  2  0  0  0  0
 37 71  1  0  0  0  0
 37 74  1  0  0  0  0
 37 82  2  0  0  0  0
 38 41  1  0  0  0  0
 39 53  1  0  0  0  0
 40 70  1  0  0  0  0
 41 43  1  0  0  0  0
 42 46  1  0  0  0  0
 42 49  1  0  0  0  0
 43 51  1  0  0  0  0
 44 45  1  0  0  0  0
 44 52  1  0  0  0  0
 45 52  1  0  0  0  0
 46 55  1  0  0  0  0
 47 54  1  0  0  0  0
 47 56  1  0  0  0  0
 48 54  1  0  0  0  0
 48 56  1  0  0  0  0
 49 71  1  0  0  0  0
 50 55  1  0  0  0  0
 50 71  1  0  0  0  0
 51 75  1  0  0  0  0
 53 70  1  0  0  0  0
 54 63  1  0  0  0  0
 55 69  1  0  0  0  0
 56 84  1  0  0  0  0
 57 65  1  0  0  0  0
 58 66  1  0  0  0  0
 59 66  1  0  0  0  0
 60 66  1  0  0  0  0
 61 77  1  0  0  0  0
 62 85  1  0  0  0  0
 63 86  1  0  0  0  0
 64 66  1  0  0  0  0
 64 76  1  0  0  0  0
 65 77  1  0  0  0  0
 67 69  1  0  0  0  0
 85 86  1  0  0  0  0
M  CHG  1  77   1
M  ISO  4  37 100  56 101  74 100  84 101
M  END
> <Batch ID>
0168

> <Smiles>
CNC(C)C(=O)NC(C(=O)N1Cc2cc([101O:1][101CH:1]3CC(C(OOC)c4ccc([100NH:0][100C:0](=O)N5CCCC(n6nc(-c7ccc(Oc8ccc(F)cc8F)cc7)c(C(N)=O)c6N)C5)nc4C4CC4)C3)ccc2CC1C(=O)NC1CCCc2ccccc21)C(C)(C)C

> <Shape>
0.285

> <Color>
0.087

> <Negative vol penalty>
0.000

$$$$

  -OEChem-04052322303D

 90 99  0     1  0  0  0  0  0999 V2000
  -22.5012  -11.2593   20.5291 C   0  0  0  0  0  0  0  0  0  0  0  0
  -22.1024  -12.4859   21.0503 C   0  0  0  0  0  0  0  0  0  0  0  0
  -29.5469  -30.5244   22.2526 C   0  0  0  0  0  0  0  0  0  0  0  0
  -27.9784  -30.3140   20.4271 C   0  0  0  0  0  0  0  0  0  0  0  0
  -23.8498  -11.0187   20.2695 C   0  0  0  0  0  0  0  0  0  0  0  0
  -23.0522  -13.4724   21.3133 C   0  0  0  0  0  0  0  0  0  0  0  0
  -22.3267  -19.5267   20.7428 C   0  0  0  0  0  0  0  0  0  0  0  0
  -30.5663  -30.0409   21.4325 C   0  0  0  0  0  0  0  0  0  0  0  0
  -28.9978  -29.8305   19.6069 C   0  0  0  0  0  0  0  0  0  0  0  0
  -22.0387  -20.5283   21.6690 C   0  0  0  0  0  0  0  0  0  0  0  0
  -31.2638  -28.8809   16.9270 C   0  0  0  0  0  0  0  0  0  0  0  0
  -31.3548  -29.3943   15.6333 C   0  0  0  0  0  0  0  0  0  0  0  0
  -24.3934  -21.0125   21.8687 C   0  0  0  0  0  0  0  0  0  0  0  0
  -31.6706  -31.6130   16.5358 C   0  0  0  0  0  0  0  0  0  0  0  0
  -28.2529  -30.6609   21.7499 C   0  0  0  0  0  0  0  0  0  0  0  0
  -26.8139  -32.5023   22.7728 C   0  0  0  0  0  0  0  0  0  0  0  0
  -24.8154  -12.0062   20.5204 C   0  0  0  0  0  0  0  0  0  0  0  0
  -23.6534  -19.2527   20.3803 C   0  0  0  0  0  0  0  0  0  0  0  0
  -24.4151  -13.2444   21.0580 C   0  0  0  0  0  0  0  0  0  0  0  0
  -24.6955  -20.0086   20.9358 C   0  0  0  0  0  0  0  0  0  0  0  0
  -19.5751  -27.8008   22.3342 C   0  0  0  0  0  0  0  0  0  0  0  0
  -18.3018  -28.0778   21.8364 C   0  0  0  0  0  0  0  0  0  0  0  0
  -17.6251  -29.2247   22.2514 C   0  0  0  0  0  0  0  0  0  0  0  0
  -18.2215  -30.0946   23.1642 C   0  0  0  0  0  0  0  0  0  0  0  0
  -19.4948  -29.8176   23.6620 C   0  0  0  0  0  0  0  0  0  0  0  0
  -20.1715  -28.6707   23.2470 C   0  0  0  0  0  0  0  0  0  0  0  0
  -30.2918  -29.6940   20.1097 C   0  0  0  0  0  0  0  0  0  0  0  0
  -23.0723  -21.2694   22.2342 C   0  0  0  0  0  0  0  0  0  0  0  0
  -31.3761  -29.7337   18.0252 C   0  0  0  0  0  0  0  0  0  0  0  0
  -31.5583  -30.7603   15.4377 C   0  0  0  0  0  0  0  0  0  0  0  0
  -31.5796  -31.0997   17.8296 C   0  0  0  0  0  0  0  0  0  0  0  0
  -27.1993  -31.1598   22.5968 C   0  0  0  0  0  0  0  0  0  0  0  0
  -25.7756  -32.4465   23.6702 C   0  0  0  0  0  0  0  0  0  0  0  0
  -27.3467  -33.6932   22.1783 C   0  0  0  0  0  0  0  0  0  0  0  0
  -25.5687  -16.7274   20.6210 C   0  0  0  0  0  0  0  0  0  0  0  0
  -27.5823  -18.5769   18.8755 C   0  0  0  0  0  0  0  0  0  0  0  0
  -28.5375  -21.7081   17.9112 C   0  0  0  0  0  0  0  0  0  0  0  0
  -21.8265  -28.1911   25.0848 C   0  0  0  0  0  0  0  0  0  0  0  0
  -26.2668  -11.6830   20.2679 C   0  0  0  0  0  0  0  0  0  0  0  0
  -23.9455  -18.1870   19.3598 C   0  0  0  0  0  0  0  0  0  0  0  0
  -26.1352  -19.7675   20.5648 C   0  0  0  0  0  0  0  0  0  0  0  0
  -27.1665  -12.9155   20.2234 C   0  0  0  0  0  0  0  0  0  0  0  0
  -24.0990  -29.8079   27.2981 C   0  0  0  0  0  0  0  0  0  0  0  0
  -26.8593  -13.8433   21.3946 C   0  0  0  0  0  0  0  0  0  0  0  0
  -25.1134  -30.4653   26.3595 C   0  0  0  0  0  0  0  0  0  0  0  0
  -23.6338  -28.4519   26.7702 C   0  0  0  0  0  0  0  0  0  0  0  0
  -24.1403  -29.1205   24.4538 C   0  0  0  0  0  0  0  0  0  0  0  0
  -22.3627  -25.5396   21.2835 C   0  0  0  0  0  0  0  0  0  0  0  0
  -20.2961  -26.5744   21.8861 C   0  0  1  0  0  0  0  0  0  0  0  0
  -25.4127  -14.3485   21.3334 C   0  0  1  0  0  0  0  0  0  0  0  0
  -25.3697  -17.6477   19.4500 C   0  0  1  0  0  0  0  0  0  0  0  0
  -21.6637  -26.8936   21.2657 C   0  0  2  0  0  0  0  0  0  0  0  0
  -24.5893  -30.5180   24.9110 C   0  0  2  0  0  0  0  0  0  0  0  0
  -20.6805  -25.6783   23.0741 C   0  0  1  0  0  0  0  0  0  0  0  0
  -17.6627  -27.1461   20.8554 C   0  0  0  0  0  0  0  0  0  0  0  0
  -16.2588  -29.5215   21.7182 C   0  0  0  0  0  0  0  0  0  0  0  0
  -17.4953  -31.3250   23.6090 C   0  0  0  0  0  0  0  0  0  0  0  0
  -20.1311  -30.7545   24.6410 C   0  0  0  0  0  0  0  0  0  0  0  0
  -21.5830  -27.4772   19.8622 C   0  0  0  0  0  0  0  0  0  0  0  0
  -19.5676  -24.7454   23.5263 C   0  0  0  0  0  0  0  0  0  0  0  0
  -30.2403  -22.9036   16.5081 C   0  0  0  0  0  0  0  0  0  0  0  0
  -29.6916  -18.0914   21.0261 C   0  0  0  0  0  0  0  0  0  0  0  0
  -30.9883  -20.0182   20.0909 C   0  0  0  0  0  0  0  0  0  0  0  0
  -30.5547  -18.0069   18.6804 C   0  0  0  0  0  0  0  0  0  0  0  0
  -26.4509  -22.8768   16.1678 C   0  0  0  0  0  0  0  0  0  0  0  0
  -22.9226  -24.6107   23.5627 C   0  0  0  0  0  0  0  0  0  0  0  0
  -23.6897  -23.3567   23.1923 C   0  0  0  0  0  0  0  0  0  1  0  0
  -28.6534  -19.5906   19.1985 C   0  0  1  0  0  0  0  0  0  0  0  0
  -28.8494  -22.2898   16.5441 C   0  0  2  0  0  0  0  0  0  0  0  0
  -29.9451  -18.9303   19.7577 C   0  0  0  0  0  0  0  0  0  0  0  0
  -26.4657  -30.3131   23.3240 N   0  0  0  0  0  0  0  0  0  0  0  0
  -25.6089  -31.1256   23.9659 N   0  0  0  0  0  0  0  0  0  0  0  0
  -26.3702  -18.7104   19.5674 N   0  0  0  0  0  0  0  0  0  0  0  0
  -23.1468  -28.5801   25.3950 N   0  0  0  0  0  0  0  0  0  0  0  0
  -24.9981  -33.3991   24.2275 N   0  0  0  0  0  0  0  0  0  0  0  0
  -28.4132  -33.5705   21.2772 N   0  0  0  0  0  0  0  0  0  0  0  0
  -21.4649  -28.3893   23.7526 N   0  0  0  0  0  0  0  0  0  0  0  0
  -25.2866  -15.4022   20.3494 N   0  0  0  0  0  0  0  0  0  0  0  0
  -28.8588  -20.3691   17.9818 N   0  0  0  0  0  0  0  0  0  0  0  0
  -21.8638  -24.8543   22.5508 N   0  3  2  0  0  0  0  0  0  0  0  0
  -27.8598  -23.3474   16.1932 N   0  3  0  0  0  0  0  0  0  0  0  0
  -26.9015  -34.8337   22.4510 O   0  0  0  0  0  0  0  0  0  0  0  0
  -25.9513  -17.1854   21.6913 O   0  0  0  0  0  0  0  0  0  0  0  0
  -27.8103  -17.7033   18.0350 O   0  0  0  0  0  0  0  0  0  0  0  0
  -28.0603  -22.3758   18.8261 O   0  0  0  0  0  0  0  0  0  0  0  0
  -21.0633  -27.7424   25.9440 O   0  0  0  0  0  0  0  0  0  0  0  0
  -31.2864  -29.2224   19.3091 O   0  0  0  0  0  0  0  0  0  0  0  0
  -22.7939  -22.2471   23.1389 O   0  0  0  0  0  0  0  0  0  1  0  0
  -31.6472  -31.2529   14.1952 F   0  0  0  0  0  0  0  0  0  0  0  0
  -31.6895  -31.9236   18.8807 F   0  0  0  0  0  0  0  0  0  0  0  0
  1  2  1  0  0  0  0
  1  5  2  0  0  0  0
  2  6  2  0  0  0  0
  3  8  2  0  0  0  0
  3 15  1  0  0  0  0
  4  9  1  0  0  0  0
  4 15  2  0  0  0  0
  5 17  1  0  0  0  0
  6 19  1  0  0  0  0
  7 10  2  0  0  0  0
  7 18  1  0  0  0  0
  8 27  1  0  0  0  0
  9 27  2  0  0  0  0
 10 28  1  0  0  0  0
 11 12  2  0  0  0  0
 11 29  1  0  0  0  0
 12 30  1  0  0  0  0
 13 20  1  0  0  0  0
 13 28  2  0  0  0  0
 14 30  2  0  0  0  0
 14 31  1  0  0  0  0
 15 32  1  0  0  0  0
 16 32  1  0  0  0  0
 16 33  2  0  0  0  0
 16 34  1  0  0  0  0
 17 19  2  0  0  0  0
 17 39  1  0  0  0  0
 18 20  2  0  0  0  0
 18 40  1  0  0  0  0
 19 50  1  0  0  0  0
 20 41  1  0  0  0  0
 21 22  1  0  0  0  0
 21 26  2  0  0  0  0
 21 49  1  0  0  0  0
 22 23  2  0  0  0  0
 22 55  1  0  0  0  0
 23 24  1  0  0  0  0
 23 56  1  0  0  0  0
 24 25  2  0  0  0  0
 24 57  1  0  0  0  0
 25 26  1  0  0  0  0
 25 58  1  0  0  0  0
 26 77  1  0  0  0  0
 27 87  1  0  0  0  0
 28 88  1  0  0  0  0
 29 31  2  0  0  0  0
 29 87  1  0  0  0  0
 30 89  1  0  0  0  0
 31 90  1  0  0  0  0
 32 71  2  0  0  0  0
 33 72  1  0  0  0  0
 33 75  1  0  0  0  0
 34 76  1  0  0  0  0
 34 82  2  0  0  0  0
 35 51  1  0  0  0  0
 35 78  1  0  0  0  0
 35 83  2  0  0  0  0
 36 68  1  0  0  0  0
 36 73  1  0  0  0  0
 36 84  2  0  0  0  0
 37 69  1  0  0  0  0
 37 79  1  0  0  0  0
 37 85  2  0  0  0  0
 38 74  1  0  0  0  0
 38 77  1  0  0  0  0
 38 86  2  0  0  0  0
 39 42  1  0  0  0  0
 40 51  1  0  0  0  0
 41 73  1  0  0  0  0
 42 44  1  0  0  0  0
 43 45  1  0  0  0  0
 43 46  1  0  0  0  0
 44 50  1  0  0  0  0
 45 53  1  0  0  0  0
 46 74  1  0  0  0  0
 47 53  1  0  0  0  0
 47 74  1  0  0  0  0
 48 52  1  0  0  0  0
 48 80  1  0  0  0  0
 49 52  1  0  0  0  0
 49 54  1  0  0  0  0
 50 78  1  0  0  0  0
 51 73  1  0  0  0  0
 52 59  1  0  0  0  0
 53 72  1  0  0  0  0
 54 60  1  0  0  0  0
 54 80  1  0  0  0  0
 61 69  1  0  0  0  0
 62 70  1  0  0  0  0
 63 70  1  0  0  0  0
 64 70  1  0  0  0  0
 65 81  1  0  0  0  0
 66 67  1  0  0  0  0
 66 80  1  0  0  0  0
 67 88  1  0  0  0  0
 68 70  1  0  0  0  0
 68 79  1  0  0  0  0
 69 81  1  0  0  0  0
 71 72  1  0  0  0  0
M  CHG  2  80   1  81   1
M  ISO  4  38 100  67 101  77 100  88 101
M  END
> <Batch ID>
0168

> <Smiles>
CNC(C)C(=O)NC(C(=O)N1Cc2cc([101O:1][101CH2:1]CN3CC(C)C(c4c(C)c(C)c(C)c(C)c4[100NH:0][100C:0](=O)N4CCCC(n5nc(-c6ccc(Oc7ccc(F)cc7F)cc6)c(C(N)=O)c5N)C4)C3C)ccc2CC1C(=O)NC1CCCc2ccccc21)C(C)(C)C

> <Shape>
0.235

> <Color>
0.070

> <Negative vol penalty>
0.000

$$$$

  -OEChem-04052322303D

 88 99  0     1  0  0  0  0  0999 V2000
  -16.6725  -25.7878   24.1716 C   0  0  0  0  0  0  0  0  0  0  0  0
  -17.8285  -25.4711   23.4653 C   0  0  0  0  0  0  0  0  0  0  0  0
  -24.3790  -14.0366   19.9406 C   0  0  0  0  0  0  0  0  0  0  0  0
  -26.5135  -14.0858   21.0712 C   0  0  0  0  0  0  0  0  0  0  0  0
  -16.3088  -27.1221   24.3489 C   0  0  0  0  0  0  0  0  0  0  0  0
  -18.6210  -26.4886   22.9350 C   0  0  0  0  0  0  0  0  0  0  0  0
  -23.5593  -25.7403   23.7706 C   0  0  0  0  0  0  0  0  0  0  0  0
  -24.3971  -12.6421   19.9669 C   0  0  0  0  0  0  0  0  0  0  0  0
  -26.5317  -12.6913   21.0976 C   0  0  0  0  0  0  0  0  0  0  0  0
  -24.2106  -24.8171   22.9537 C   0  0  0  0  0  0  0  0  0  0  0  0
  -23.7756  -10.1847   22.2047 C   0  0  0  0  0  0  0  0  0  0  0  0
  -22.6042   -9.5282   22.5819 C   0  0  0  0  0  0  0  0  0  0  0  0
  -25.0881  -26.6255   21.6199 C   0  0  0  0  0  0  0  0  0  0  0  0
  -22.5375   -8.4156   20.4384 C   0  0  0  0  0  0  0  0  0  0  0  0
  -25.4372  -14.7585   20.4927 C   0  0  0  0  0  0  0  0  0  0  0  0
  -24.8831  -17.0612   21.4404 C   0  0  0  0  0  0  0  0  0  0  0  0
  -17.1024  -28.1567   23.8287 C   0  0  0  0  0  0  0  0  0  0  0  0
  -23.6588  -27.1148   23.5113 C   0  0  0  0  0  0  0  0  0  0  0  0
  -18.2669  -27.8379   23.1044 C   0  0  0  0  0  0  0  0  0  0  0  0
  -24.4392  -27.5642   22.4365 C   0  0  0  0  0  0  0  0  0  0  0  0
  -30.0924  -23.0037   20.9717 C   0  0  0  0  0  0  0  0  0  0  0  0
  -31.0013  -23.9016   21.5204 C   0  0  0  0  0  0  0  0  0  0  0  0
  -30.4588  -22.2379   19.8705 C   0  0  0  0  0  0  0  0  0  0  0  0
  -25.4735  -11.9695   20.5454 C   0  0  0  0  0  0  0  0  0  0  0  0
  -24.9727  -25.2595   21.8764 C   0  0  0  0  0  0  0  0  0  0  0  0
  -24.3279   -9.9568   20.9443 C   0  0  0  0  0  0  0  0  0  0  0  0
  -21.9851   -8.6436   21.6988 C   0  0  0  0  0  0  0  0  0  0  0  0
  -23.7089   -9.0722   20.0611 C   0  0  0  0  0  0  0  0  0  0  0  0
  -25.4193  -16.1990   20.4653 C   0  0  0  0  0  0  0  0  0  0  0  0
  -32.2539  -23.9953   20.9357 C   0  0  0  0  0  0  0  0  0  0  0  0
  -31.7357  -22.4062   19.3595 C   0  0  0  0  0  0  0  0  0  0  0  0
  -25.1155  -18.3224   20.9487 C   0  0  0  0  0  0  0  0  0  0  0  0
  -24.2333  -16.7498   22.6800 C   0  0  0  0  0  0  0  0  0  0  0  0
  -21.5925  -29.4123   22.7661 C   0  0  0  0  0  0  0  0  0  0  0  0
  -24.1926  -31.3225   23.1015 C   0  0  0  0  0  0  0  0  0  0  0  0
  -27.5921  -31.6216   23.0648 C   0  0  0  0  0  0  0  0  0  0  0  0
  -29.0694  -21.3120   17.9841 C   0  0  0  0  0  0  0  0  0  0  0  0
  -16.6434  -29.5825   24.0053 C   0  0  0  0  0  0  0  0  0  0  0  0
  -22.9720  -28.0991   24.4179 C   0  0  0  0  0  0  0  0  0  0  0  0
  -24.5946  -29.0301   22.1276 C   0  0  0  0  0  0  0  0  0  0  0  0
  -17.7369  -30.6124   23.7335 C   0  0  0  0  0  0  0  0  0  0  0  0
  -26.0477  -20.1979   16.4657 C   0  0  0  0  0  0  0  0  0  0  0  0
  -31.4987  -24.6799   23.9330 C   0  0  0  0  0  0  0  0  0  0  0  0
  -30.1396  -24.0532   23.9521 C   0  0  0  0  0  0  0  0  0  0  0  0
  -18.4742  -30.2796   22.4403 C   0  0  0  0  0  0  0  0  0  0  0  0
  -32.9016  -26.4002   21.6221 C   0  0  0  0  0  0  0  0  0  0  0  0
  -33.8814  -25.9702   20.5755 C   0  0  0  0  0  0  0  0  0  0  0  0
  -25.5237  -19.1373   17.4366 C   0  0  0  0  0  0  0  0  0  0  0  0
  -27.9102  -24.1294   22.1070 C   0  0  0  0  0  0  0  0  0  0  0  0
  -27.4285  -22.6589   20.6502 C   0  0  0  0  0  0  0  0  0  0  0  0
  -27.5716  -20.1697   16.3633 C   0  0  0  0  0  0  0  0  0  0  0  0
  -27.7578  -19.1919   18.6169 C   0  0  0  0  0  0  0  0  0  0  0  0
  -28.6454  -22.8560   21.5991 C   0  0  0  0  0  0  0  0  0  0  0  0
  -30.6322  -24.7343   22.7031 C   0  0  0  0  0  0  0  0  0  0  0  0
  -19.1657  -28.9142   22.5352 C   0  0  1  0  0  0  0  0  0  0  0  0
  -33.2656  -24.9465   21.4899 C   0  0  0  0  0  0  0  0  0  0  0  0
  -22.7237  -29.4502   23.7543 C   0  0  1  0  0  0  0  0  0  0  0  0
  -26.2320  -19.2247   18.8027 C   0  0  2  0  0  0  0  0  0  0  0  0
  -26.5857  -23.4773   21.6525 C   0  0  0  0  0  0  0  0  0  1  0  0
  -32.1911  -21.6123   18.1780 C   0  0  0  0  0  0  0  0  0  0  0  0
  -29.4236  -33.3154   23.3362 C   0  0  0  0  0  0  0  0  0  0  0  0
  -23.6028  -32.4040   20.3100 C   0  0  0  0  0  0  0  0  0  0  0  0
  -25.9242  -33.3402   20.2580 C   0  0  0  0  0  0  0  0  0  0  0  0
  -24.2984  -34.1362   21.9743 C   0  0  0  0  0  0  0  0  0  0  0  0
  -28.7277  -30.1918   25.3940 C   0  0  0  0  0  0  0  0  0  0  0  0
  -25.2823  -31.8164   22.1808 C   0  0  1  0  0  0  0  0  0  0  0  0
  -28.5558  -32.2805   24.0351 C   0  0  2  0  0  0  0  0  0  0  0  0
  -24.7726  -32.8964   21.1852 C   0  0  0  0  0  0  0  0  0  0  0  0
  -25.9519  -16.8568   19.4321 N   0  0  0  0  0  0  0  0  0  0  0  0
  -32.6459  -23.2682   19.8656 N   0  0  0  0  0  0  0  0  0  0  0  0
  -25.7515  -18.1458   19.7552 N   0  0  0  0  0  0  0  0  0  0  0  0
  -23.8985  -29.9531   23.0393 N   0  0  0  0  0  0  0  0  0  0  0  0
  -28.1738  -20.2607   17.6952 N   0  0  0  0  0  0  0  0  0  0  0  0
  -24.8356  -19.5541   21.4251 N   0  0  0  0  0  0  0  0  0  0  0  0
  -24.0768  -15.4024   23.0323 N   0  0  0  0  0  0  0  0  0  0  0  0
  -29.5528  -21.3146   19.2921 N   0  0  0  0  0  0  0  0  0  0  0  0
  -20.3845  -29.0176   23.3087 N   0  0  0  0  0  0  0  0  0  0  0  0
  -26.3721  -32.2638   23.0413 N   0  0  0  0  0  0  0  0  0  0  0  0
  -29.4480  -31.2591   24.6530 N   0  3  0  0  0  0  0  0  0  0  0  0
  -23.7894  -17.6398   23.4444 O   0  0  0  0  0  0  0  0  0  0  0  0
  -21.7999  -29.7200   21.5982 O   0  0  0  0  0  0  0  0  0  0  0  0
  -23.6283  -32.1211   23.8535 O   0  0  0  0  0  0  0  0  0  0  0  0
  -27.8927  -30.6379   22.3921 O   0  0  0  0  0  0  0  0  0  0  0  0
  -29.3632  -22.1641   17.1417 O   0  0  0  0  0  0  0  0  0  0  0  0
  -25.4914  -10.6088   20.5715 O   0  0  0  0  0  0  0  0  0  0  0  0
  -25.6089  -24.3605   21.0771 O   0  0  0  0  0  0  0  0  0  1  0  0
  -20.8611   -8.0120   22.0618 F   0  0  0  0  0  0  0  0  0  0  0  0
  -24.2355   -8.8482   18.8494 F   0  0  0  0  0  0  0  0  0  0  0  0
  1  2  1  0  0  0  0
  1  5  2  0  0  0  0
  2  6  2  0  0  0  0
  3  8  2  0  0  0  0
  3 15  1  0  0  0  0
  4  9  1  0  0  0  0
  4 15  2  0  0  0  0
  5 17  1  0  0  0  0
  6 19  1  0  0  0  0
  7 10  2  0  0  0  0
  7 18  1  0  0  0  0
  8 24  1  0  0  0  0
  9 24  2  0  0  0  0
 10 25  1  0  0  0  0
 11 12  2  0  0  0  0
 11 26  1  0  0  0  0
 12 27  1  0  0  0  0
 13 20  1  0  0  0  0
 13 25  2  0  0  0  0
 14 27  2  0  0  0  0
 14 28  1  0  0  0  0
 15 29  1  0  0  0  0
 16 29  1  0  0  0  0
 16 32  2  0  0  0  0
 16 33  1  0  0  0  0
 17 19  2  0  0  0  0
 17 38  1  0  0  0  0
 18 20  2  0  0  0  0
 18 39  1  0  0  0  0
 19 55  1  0  0  0  0
 20 40  1  0  0  0  0
 21 22  2  0  0  0  0
 21 23  1  0  0  0  0
 21 53  1  0  0  0  0
 22 30  1  0  0  0  0
 22 54  1  0  0  0  0
 23 31  2  0  0  0  0
 23 76  1  0  0  0  0
 24 85  1  0  0  0  0
 25 86  1  0  0  0  0
 26 28  2  0  0  0  0
 26 85  1  0  0  0  0
 27 87  1  0  0  0  0
 28 88  1  0  0  0  0
 29 69  2  0  0  0  0
 30 56  1  0  0  0  0
 30 70  2  0  0  0  0
 31 60  1  0  0  0  0
 31 70  1  0  0  0  0
 32 71  1  0  0  0  0
 32 74  1  0  0  0  0
 33 75  1  0  0  0  0
 33 80  2  0  0  0  0
 34 57  1  0  0  0  0
 34 77  1  0  0  0  0
 34 81  2  0  0  0  0
 35 66  1  0  0  0  0
 35 72  1  0  0  0  0
 35 82  2  0  0  0  0
 36 67  1  0  0  0  0
 36 78  1  0  0  0  0
 36 83  2  0  0  0  0
 37 73  1  0  0  0  0
 37 76  1  0  0  0  0
 37 84  2  0  0  0  0
 38 41  1  0  0  0  0
 39 57  1  0  0  0  0
 40 72  1  0  0  0  0
 41 45  1  0  0  0  0
 42 48  1  0  0  0  0
 42 51  1  0  0  0  0
 43 44  1  0  0  0  0
 43 54  1  0  0  0  0
 44 54  1  0  0  0  0
 45 55  1  0  0  0  0
 46 47  1  0  0  0  0
 46 56  1  0  0  0  0
 47 56  1  0  0  0  0
 48 58  1  0  0  0  0
 49 53  1  0  0  0  0
 49 59  1  0  0  0  0
 50 53  1  0  0  0  0
 50 59  1  0  0  0  0
 51 73  1  0  0  0  0
 52 58  1  0  0  0  0
 52 73  1  0  0  0  0
 55 77  1  0  0  0  0
 57 72  1  0  0  0  0
 58 71  1  0  0  0  0
 59 86  1  0  0  0  0
 61 67  1  0  0  0  0
 62 68  1  0  0  0  0
 63 68  1  0  0  0  0
 64 68  1  0  0  0  0
 65 79  1  0  0  0  0
 66 68  1  0  0  0  0
 66 78  1  0  0  0  0
 67 79  1  0  0  0  0
 69 71  1  0  0  0  0
M  CHG  1  79   1
M  ISO  4  37 100  59 101  76 100  86 101
M  END
> <Batch ID>
0168

> <Smiles>
CNC(C)C(=O)NC(C(=O)N1Cc2cc([101O:1][101CH:1]3CC(c4c([100NH:0][100C:0](=O)N5CCCC(n6nc(-c7ccc(Oc8ccc(F)cc8F)cc7)c(C(N)=O)c6N)C5)c(C)nc(C5CC5)c4C4CC4)C3)ccc2CC1C(=O)NC1CCCc2ccccc21)C(C)(C)C

> <Shape>
0.221

> <Color>
0.075

> <Negative vol penalty>
0.000

$$$$

  -OEChem-04052322303D

 92102  0     1  0  0  0  0  0999 V2000
  -25.9181  -21.6436   29.9170 C   0  0  0  0  0  0  0  0  0  0  0  0
  -26.6526  -22.0535   28.8088 C   0  0  0  0  0  0  0  0  0  0  0  0
  -26.2974  -13.9272   19.6473 C   0  0  0  0  0  0  0  0  0  0  0  0
  -25.6298  -13.6477   21.9524 C   0  0  0  0  0  0  0  0  0  0  0  0
  -24.5268  -21.5853   29.8469 C   0  0  0  0  0  0  0  0  0  0  0  0
  -25.9963  -22.4042   27.6296 C   0  0  0  0  0  0  0  0  0  0  0  0
  -27.6588  -26.7452   23.6423 C   0  0  0  0  0  0  0  0  0  0  0  0
  -25.2725  -13.0702   19.2465 C   0  0  0  0  0  0  0  0  0  0  0  0
  -24.6048  -12.7907   21.5516 C   0  0  0  0  0  0  0  0  0  0  0  0
  -28.3472  -26.6923   22.4311 C   0  0  0  0  0  0  0  0  0  0  0  0
  -24.2862   -9.5623   20.5991 C   0  0  0  0  0  0  0  0  0  0  0  0
  -24.1108   -8.3807   21.3191 C   0  0  0  0  0  0  0  0  0  0  0  0
  -27.3783  -23.2988   18.3003 C   0  0  0  0  0  0  0  0  0  0  0  0
  -26.2466  -26.6632   21.2454 C   0  0  0  0  0  0  0  0  0  0  0  0
  -21.8635   -9.0611   21.8883 C   0  0  0  0  0  0  0  0  0  0  0  0
  -26.4761  -14.2159   21.0003 C   0  0  0  0  0  0  0  0  0  0  0  0
  -28.9167  -14.9290   21.2068 C   0  0  0  0  0  0  0  0  0  0  0  0
  -23.8526  -21.9448   28.6692 C   0  0  0  0  0  0  0  0  0  0  0  0
  -26.2567  -26.7465   23.6646 C   0  0  0  0  0  0  0  0  0  0  0  0
  -24.5948  -22.3494   27.5433 C   0  0  0  0  0  0  0  0  0  0  0  0
  -26.7472  -22.7271   19.4255 C   0  0  0  0  0  0  0  0  0  0  0  0
  -25.5428  -26.7187   22.4581 C   0  0  0  0  0  0  0  0  0  0  0  0
  -28.7530  -23.5251   18.2719 C   0  0  0  0  0  0  0  0  0  0  0  0
  -29.5316  -23.1673   19.3618 C   0  0  0  0  0  0  0  0  0  0  0  0
  -28.9355  -22.5893   20.4820 C   0  0  0  0  0  0  0  0  0  0  0  0
  -27.5448  -22.3754   20.5420 C   0  0  0  0  0  0  0  0  0  0  0  0
  -24.4261  -12.5020   20.1986 C   0  0  0  0  0  0  0  0  0  0  0  0
  -27.6411  -26.6484   21.2325 C   0  0  0  0  0  0  0  0  0  0  0  0
  -23.2503  -10.4935   20.5237 C   0  0  0  0  0  0  0  0  0  0  0  0
  -22.8994   -8.1300   21.9637 C   0  0  0  0  0  0  0  0  0  0  0  0
  -22.0390  -10.2428   21.1683 C   0  0  0  0  0  0  0  0  0  0  0  0
  -27.5350  -15.1007   21.4150 C   0  0  0  0  0  0  0  0  0  0  0  0
  -29.4910  -16.0346   21.7851 C   0  0  0  0  0  0  0  0  0  0  0  0
  -29.6182  -13.8653   20.5495 C   0  0  0  0  0  0  0  0  0  0  0  0
  -24.0302  -24.8081   24.8435 C   0  0  0  0  0  0  0  0  0  0  0  0
  -22.0219  -27.1675   23.8831 C   0  0  0  0  0  0  0  0  0  0  0  0
  -21.6860  -29.3363   21.0194 C   0  0  0  0  0  0  0  0  0  0  0  0
  -27.6226  -21.5177   22.9054 C   0  0  0  0  0  0  0  0  0  0  0  0
  -22.3502  -21.8204   28.6262 C   0  0  0  0  0  0  0  0  0  0  0  0
  -25.5291  -26.8308   24.9784 C   0  0  0  0  0  0  0  0  0  0  0  0
  -24.0371  -26.7385   22.4269 C   0  0  0  0  0  0  0  0  0  0  0  0
  -21.7104  -22.5676   27.4588 C   0  0  0  0  0  0  0  0  0  0  0  0
  -28.7996  -19.2372   25.2680 C   0  0  0  0  0  0  0  0  0  0  0  0
  -22.4643  -22.2811   26.1641 C   0  0  0  0  0  0  0  0  0  0  0  0
  -28.7447  -17.8946   24.5384 C   0  0  0  0  0  0  0  0  0  0  0  0
  -24.7074  -22.0994   20.7939 C   0  0  0  0  0  0  0  0  0  0  0  0
  -30.3193  -26.8093   16.0462 C   0  0  0  0  0  0  0  0  0  0  0  0
  -27.5824  -20.0934   24.9355 C   0  0  0  0  0  0  0  0  0  0  0  0
  -25.6407  -21.1450   21.5129 C   0  0  0  0  0  0  0  0  0  0  0  0
  -27.3299  -18.9918   22.7357 C   0  0  0  0  0  0  0  0  0  0  0  0
  -29.2479  -25.9305   15.3956 C   0  0  0  0  0  0  0  0  0  0  0  0
  -23.9178  -22.7616   26.2542 C   0  0  1  0  0  0  0  0  0  0  0  0
  -24.0979  -26.3079   24.9034 C   0  0  1  0  0  0  0  0  0  0  0  0
  -28.5489  -18.0943   23.0248 C   0  0  2  0  0  0  0  0  0  0  0  0
  -29.6053  -26.5517   17.3838 C   0  0  1  0  0  0  0  0  0  0  0  0
  -25.2359  -22.4672   19.3910 C   0  0  0  0  0  0  0  0  0  0  0  0
  -31.0137  -23.3759   19.3022 C   0  0  0  0  0  0  0  0  0  0  0  0
  -29.9175  -22.0007   21.4534 C   0  0  0  0  0  0  0  0  0  0  0  0
  -24.4489  -23.7122   18.9240 C   0  0  0  0  0  0  0  0  0  0  0  0
  -24.9501  -21.3084   18.4109 C   0  0  0  0  0  0  0  0  0  0  0  0
  -20.6624  -31.6181   20.8120 C   0  0  0  0  0  0  0  0  0  0  0  0
  -29.5828  -28.7766   18.5269 C   0  0  0  0  0  0  0  0  0  0  0  0
  -19.5077  -25.6473   23.0598 C   0  0  0  0  0  0  0  0  0  0  0  0
  -19.0542  -27.4468   21.3793 C   0  0  0  0  0  0  0  0  0  0  0  0
  -19.1060  -27.9985   23.8115 C   0  0  0  0  0  0  0  0  0  0  0  0
  -24.1685  -30.4734   19.8779 C   0  0  0  0  0  0  0  0  0  0  0  0
  -29.3601  -24.1346   17.0509 C   0  0  0  0  0  0  0  0  0  0  0  0
  -27.6781  -27.1894   18.9169 C   0  0  0  0  0  0  0  0  0  1  0  0
  -21.2702  -27.4800   22.6117 C   0  0  1  0  0  0  0  0  0  0  0  0
  -21.9529  -30.8300   20.9744 C   0  0  2  0  0  0  0  0  0  0  0  0
  -28.7184  -27.6756   17.8973 C   0  0  2  0  0  0  0  0  0  0  0  0
  -19.7591  -27.1288   22.7152 C   0  0  0  0  0  0  0  0  0  0  0  0
  -27.2488  -16.2266   22.0741 N   0  0  0  0  0  0  0  0  0  0  0  0
  -28.4587  -16.7723   22.2852 N   0  0  0  0  0  0  0  0  0  0  0  0
  -26.9483  -21.7629   21.6981 N   0  0  0  0  0  0  0  0  0  0  0  0
  -23.3712  -26.8151   23.7377 N   0  0  0  0  0  0  0  0  0  0  0  0
  -27.4334  -20.2522   23.4888 N   0  0  0  0  0  0  0  0  0  0  0  0
  -30.7733  -16.4378   21.9095 N   0  0  0  0  0  0  0  0  0  0  0  0
  -30.0312  -12.7651   21.3133 N   0  0  0  0  0  0  0  0  0  0  0  0
  -23.9871  -24.1969   26.0820 N   0  0  0  0  0  0  0  0  0  0  0  0
  -21.5387  -28.8825   22.3131 N   0  0  0  0  0  0  0  0  0  0  0  0
  -28.8152  -25.4803   16.7324 N   0  3  2  0  0  0  0  0  0  0  0  0
  -22.8526  -31.1614   19.8335 N   0  3  0  0  0  0  0  0  0  0  0  0
  -29.8858  -13.8973   19.3244 O   0  0  0  0  0  0  0  0  0  0  0  0
  -24.0166  -24.2470   23.7541 O   0  0  0  0  0  0  0  0  0  0  0  0
  -21.4355  -27.2405   24.9659 O   0  0  0  0  0  0  0  0  0  0  0  0
  -21.6118  -28.6422   20.0079 O   0  0  0  0  0  0  0  0  0  0  0  0
  -28.3961  -22.3546   23.3871 O   0  0  0  0  0  0  0  0  0  0  0  0
  -23.4258  -11.6658   19.8079 O   0  0  0  0  0  0  0  0  0  0  0  0
  -28.3154  -26.5957   20.0405 O   0  0  0  0  0  0  0  0  0  1  0  0
  -22.7305   -6.9945   22.6538 F   0  0  0  0  0  0  0  0  0  0  0  0
  -21.0397  -11.1331   21.0985 F   0  0  0  0  0  0  0  0  0  0  0  0
  1  2  1  0  0  0  0
  1  5  2  0  0  0  0
  2  6  2  0  0  0  0
  3  8  2  0  0  0  0
  3 16  1  0  0  0  0
  4  9  1  0  0  0  0
  4 16  2  0  0  0  0
  5 18  1  0  0  0  0
  6 20  1  0  0  0  0
  7 10  2  0  0  0  0
  7 19  1  0  0  0  0
  8 27  1  0  0  0  0
  9 27  2  0  0  0  0
 10 28  1  0  0  0  0
 11 12  2  0  0  0  0
 11 29  1  0  0  0  0
 12 30  1  0  0  0  0
 13 21  2  0  0  0  0
 13 23  1  0  0  0  0
 14 22  1  0  0  0  0
 14 28  2  0  0  0  0
 15 30  2  0  0  0  0
 15 31  1  0  0  0  0
 16 32  1  0  0  0  0
 17 32  1  0  0  0  0
 17 33  2  0  0  0  0
 17 34  1  0  0  0  0
 18 20  2  0  0  0  0
 18 39  1  0  0  0  0
 19 22  2  0  0  0  0
 19 40  1  0  0  0  0
 20 52  1  0  0  0  0
 21 26  1  0  0  0  0
 21 56  1  0  0  0  0
 22 41  1  0  0  0  0
 23 24  2  0  0  0  0
 23 67  1  0  0  0  0
 24 25  1  0  0  0  0
 24 57  1  0  0  0  0
 25 26  2  0  0  0  0
 25 58  1  0  0  0  0
 26 75  1  0  0  0  0
 27 89  1  0  0  0  0
 28 90  1  0  0  0  0
 29 31  2  0  0  0  0
 29 89  1  0  0  0  0
 30 91  1  0  0  0  0
 31 92  1  0  0  0  0
 32 73  2  0  0  0  0
 33 74  1  0  0  0  0
 33 78  1  0  0  0  0
 34 79  1  0  0  0  0
 34 84  2  0  0  0  0
 35 53  1  0  0  0  0
 35 80  1  0  0  0  0
 35 85  2  0  0  0  0
 36 69  1  0  0  0  0
 36 76  1  0  0  0  0
 36 86  2  0  0  0  0
 37 70  1  0  0  0  0
 37 81  1  0  0  0  0
 37 87  2  0  0  0  0
 38 75  1  0  0  0  0
 38 77  1  0  0  0  0
 38 88  2  0  0  0  0
 39 42  1  0  0  0  0
 40 53  1  0  0  0  0
 41 76  1  0  0  0  0
 42 44  1  0  0  0  0
 43 45  1  0  0  0  0
 43 48  1  0  0  0  0
 44 52  1  0  0  0  0
 45 54  1  0  0  0  0
 46 49  1  0  0  0  0
 46 56  1  0  0  0  0
 47 51  1  0  0  0  0
 47 55  1  0  0  0  0
 48 77  1  0  0  0  0
 49 75  1  0  0  0  0
 50 54  1  0  0  0  0
 50 77  1  0  0  0  0
 51 82  1  0  0  0  0
 52 80  1  0  0  0  0
 53 76  1  0  0  0  0
 54 74  1  0  0  0  0
 55 71  1  0  0  0  0
 55 82  1  0  0  0  0
 56 59  1  0  0  0  0
 56 60  1  0  0  0  0
 61 70  1  0  0  0  0
 62 71  1  0  0  0  0
 63 72  1  0  0  0  0
 64 72  1  0  0  0  0
 65 72  1  0  0  0  0
 66 83  1  0  0  0  0
 67 82  1  0  0  0  0
 68 71  1  0  0  0  0
 68 90  1  0  0  0  0
 69 72  1  0  0  0  0
 69 81  1  0  0  0  0
 70 83  1  0  0  0  0
 73 74  1  0  0  0  0
M  CHG  2  82   1  83   1
M  ISO  4  38 100  68 101  75 100  90 101
M  END
> <Batch ID>
0168

> <Smiles>
CNC(C)C(=O)NC(C(=O)N1Cc2cc([101O:1][101CH2:1]C(C)C3CCN3Cc3cc4c(c(C)c3C)[100N:0]([100C:0](=O)N3CCCC(n5nc(-c6ccc(Oc7ccc(F)cc7F)cc6)c(C(N)=O)c5N)C3)CCC4(C)C)ccc2CC1C(=O)NC1CCCc2ccccc21)C(C)(C)C

> <Shape>
0.218

> <Color>
0.060

> <Negative vol penalty>
0.000

$$$$

  -OEChem-04052322303D

 86 95  0     1  0  0  0  0  0999 V2000
  -28.8972  -23.9980   16.3603 C   0  0  0  0  0  0  0  0  0  0  0  0
  -27.7335  -24.6118   16.8126 C   0  0  0  0  0  0  0  0  0  0  0  0
  -27.1099  -14.7251   21.8719 C   0  0  0  0  0  0  0  0  0  0  0  0
  -26.2490  -14.9138   19.6225 C   0  0  0  0  0  0  0  0  0  0  0  0
  -30.0145  -23.9268   17.1912 C   0  0  0  0  0  0  0  0  0  0  0  0
  -27.6861  -25.1538   18.0965 C   0  0  0  0  0  0  0  0  0  0  0  0
  -24.6420  -30.1640   19.8675 C   0  0  0  0  0  0  0  0  0  0  0  0
  -26.8610  -13.3528   21.8521 C   0  0  0  0  0  0  0  0  0  0  0  0
  -26.0001  -13.5415   19.6025 C   0  0  0  0  0  0  0  0  0  0  0  0
  -23.4089  -30.3400   20.4939 C   0  0  0  0  0  0  0  0  0  0  0  0
  -26.1186   -9.8571   22.5250 C   0  0  0  0  0  0  0  0  0  0  0  0
  -25.5143   -9.2897   23.6467 C   0  0  0  0  0  0  0  0  0  0  0  0
  -24.5210  -30.4820   22.6299 C   0  0  0  0  0  0  0  0  0  0  0  0
  -20.8976  -27.7694   22.7045 C   0  0  0  0  0  0  0  0  0  0  0  0
  -23.5973  -10.7282   23.3415 C   0  0  0  0  0  0  0  0  0  0  0  0
  -19.0682  -26.8222   21.5159 C   0  0  0  0  0  0  0  0  0  0  0  0
  -26.8038  -15.5056   20.7572 C   0  0  0  0  0  0  0  0  0  0  0  0
  -28.2407  -17.5796   20.3803 C   0  0  0  0  0  0  0  0  0  0  0  0
  -29.9840  -24.4767   18.4825 C   0  0  0  0  0  0  0  0  0  0  0  0
  -25.8249  -30.1348   20.6201 C   0  0  0  0  0  0  0  0  0  0  0  0
  -28.8037  -25.0887   18.9459 C   0  0  0  0  0  0  0  0  0  0  0  0
  -25.7681  -30.3081   22.0104 C   0  0  0  0  0  0  0  0  0  0  0  0
  -20.0366  -28.7474   23.1898 C   0  0  0  0  0  0  0  0  0  0  0  0
  -20.4121  -26.7849   21.8511 C   0  0  0  0  0  0  0  0  0  0  0  0
  -26.3062  -12.7610   20.7174 C   0  0  0  0  0  0  0  0  0  0  0  0
  -23.3480  -30.4961   21.8756 C   0  0  0  0  0  0  0  0  0  0  0  0
  -25.4624  -10.8601   21.8115 C   0  0  0  0  0  0  0  0  0  0  0  0
  -24.2536   -9.7252   24.0550 C   0  0  0  0  0  0  0  0  0  0  0  0
  -24.2017  -11.2956   22.2197 C   0  0  0  0  0  0  0  0  0  0  0  0
  -27.0602  -16.9234   20.7773 C   0  0  0  0  0  0  0  0  0  0  0  0
  -18.7095  -28.6970   22.7946 C   0  0  0  0  0  0  0  0  0  0  0  0
  -27.9805  -18.9117   20.5908 C   0  0  0  0  0  0  0  0  0  0  0  0
  -29.4631  -17.0338   19.8671 C   0  0  0  0  0  0  0  0  0  0  0  0
  -28.0994  -27.9763   21.1410 C   0  0  0  0  0  0  0  0  0  0  0  0
  -29.5261  -30.4303   22.7110 C   0  0  0  0  0  0  0  0  0  0  0  0
  -29.1916  -33.3992   24.3603 C   0  0  0  0  0  0  0  0  0  0  0  0
  -23.9351  -22.7268   20.1905 C   0  0  0  0  0  0  0  0  0  0  0  0
  -31.2012  -24.3336   19.3614 C   0  0  0  0  0  0  0  0  0  0  0  0
  -27.1494  -29.9709   19.9264 C   0  0  0  0  0  0  0  0  0  0  0  0
  -27.0107  -30.3047   22.8614 C   0  0  0  0  0  0  0  0  0  0  0  0
  -31.1913  -25.2638   20.5717 C   0  0  0  0  0  0  0  0  0  0  0  0
  -24.7741  -21.4520   23.3544 C   0  0  0  0  0  0  0  0  0  0  0  0
  -29.8321  -25.2259   21.2631 C   0  0  0  0  0  0  0  0  0  0  0  0
  -25.5729  -20.2047   22.9773 C   0  0  0  0  0  0  0  0  0  0  0  0
  -23.5554  -21.6469   22.4509 C   0  0  0  0  0  0  0  0  0  0  0  0
  -22.6760  -26.0845   21.1353 C   0  0  0  0  0  0  0  0  0  0  0  0
  -20.9103  -24.3891   21.6395 C   0  0  0  0  0  0  0  0  0  0  0  0
  -23.3018  -25.1102   20.1409 C   0  0  0  0  0  0  0  0  0  0  0  0
  -21.5593  -23.4508   20.6280 C   0  0  0  0  0  0  0  0  0  0  0  0
  -24.6726  -20.4027   20.6283 C   0  0  0  0  0  0  0  0  0  0  0  0
  -28.7214  -25.7102   20.3232 C   0  0  1  0  0  0  0  0  0  0  0  0
  -28.2449  -29.4427   20.8474 C   0  0  1  0  0  0  0  0  0  0  0  0
  -25.9362  -20.2128   21.4817 C   0  0  2  0  0  0  0  0  0  0  0  0
  -17.7393  -29.7216   23.2846 C   0  0  0  0  0  0  0  0  0  0  0  0
  -20.3907  -29.4175   25.5892 C   0  0  0  0  0  0  0  0  0  0  0  0
  -30.5325  -35.1465   25.5631 C   0  0  0  0  0  0  0  0  0  0  0  0
  -29.7618  -28.5824   25.1275 C   0  0  0  0  0  0  0  0  0  0  0  0
  -30.2077  -30.6009   26.5400 C   0  0  0  0  0  0  0  0  0  0  0  0
  -31.7773  -29.9990   24.6970 C   0  0  0  0  0  0  0  0  0  0  0  0
  -28.3889  -35.5032   22.4399 C   0  0  0  0  0  0  0  0  0  0  0  0
  -22.0244  -30.1821   23.8263 C   0  0  0  0  0  0  0  0  0  1  0  0
  -20.5505  -29.8047   24.1045 C   0  0  1  0  0  0  0  0  0  0  0  0
  -29.5044  -30.9492   24.1285 C   0  0  1  0  0  0  0  0  0  0  0  0
  -29.9405  -34.7133   24.2309 C   0  0  2  0  0  0  0  0  0  0  0  0
  -30.2890  -30.0310   25.1077 C   0  0  0  0  0  0  0  0  0  0  0  0
  -18.2013  -27.7562   21.9673 N   0  0  0  0  0  0  0  0  0  0  0  0
  -26.1200  -17.7689   21.2076 N   0  0  0  0  0  0  0  0  0  0  0  0
  -26.7096  -18.9701   21.0822 N   0  0  0  0  0  0  0  0  0  0  0  0
  -21.2551  -25.7869   21.3457 N   0  0  0  0  0  0  0  0  0  0  0  0
  -28.2813  -30.1348   22.1373 N   0  0  0  0  0  0  0  0  0  0  0  0
  -23.9451  -21.6068   21.0351 N   0  0  0  0  0  0  0  0  0  0  0  0
  -22.9893  -23.7251   20.4719 N   0  0  0  0  0  0  0  0  0  0  0  0
  -28.7172  -20.0270   20.4017 N   0  0  0  0  0  0  0  0  0  0  0  0
  -29.5619  -15.6442   19.7135 N   0  0  0  0  0  0  0  0  0  0  0  0
  -28.7332  -27.1543   20.2288 N   0  0  0  0  0  0  0  0  0  0  0  0
  -29.9992  -32.3203   24.0688 N   0  0  0  0  0  0  0  0  0  0  0  0
  -29.0240  -35.7868   23.7526 N   0  3  0  0  0  0  0  0  0  0  0  0
  -30.4449  -17.7556   19.5695 O   0  0  0  0  0  0  0  0  0  0  0  0
  -27.4606  -27.6173   22.1232 O   0  0  0  0  0  0  0  0  0  0  0  0
  -30.6071  -30.2989   22.1315 O   0  0  0  0  0  0  0  0  0  0  0  0
  -28.0095  -33.3359   24.6908 O   0  0  0  0  0  0  0  0  0  0  0  0
  -24.7246  -22.8322   19.2436 O   0  0  0  0  0  0  0  0  0  0  0  0
  -26.0634  -11.4218   20.6975 O   0  0  0  0  0  0  0  0  0  0  0  0
  -22.1378  -30.6685   22.4936 O   0  0  0  0  0  0  0  0  0  1  0  0
  -23.6727   -9.1792   25.1314 F   0  0  0  0  0  0  0  0  0  0  0  0
  -23.5659  -12.2580   21.5376 F   0  0  0  0  0  0  0  0  0  0  0  0
  1  2  1  0  0  0  0
  1  5  2  0  0  0  0
  2  6  2  0  0  0  0
  3  8  2  0  0  0  0
  3 17  1  0  0  0  0
  4  9  1  0  0  0  0
  4 17  2  0  0  0  0
  5 19  1  0  0  0  0
  6 21  1  0  0  0  0
  7 10  2  0  0  0  0
  7 20  1  0  0  0  0
  8 25  1  0  0  0  0
  9 25  2  0  0  0  0
 10 26  1  0  0  0  0
 11 12  2  0  0  0  0
 11 27  1  0  0  0  0
 12 28  1  0  0  0  0
 13 22  1  0  0  0  0
 13 26  2  0  0  0  0
 14 23  1  0  0  0  0
 14 24  2  0  0  0  0
 15 28  2  0  0  0  0
 15 29  1  0  0  0  0
 16 24  1  0  0  0  0
 16 66  2  0  0  0  0
 17 30  1  0  0  0  0
 18 30  1  0  0  0  0
 18 32  2  0  0  0  0
 18 33  1  0  0  0  0
 19 21  2  0  0  0  0
 19 38  1  0  0  0  0
 20 22  2  0  0  0  0
 20 39  1  0  0  0  0
 21 51  1  0  0  0  0
 22 40  1  0  0  0  0
 23 31  2  0  0  0  0
 23 62  1  0  0  0  0
 24 69  1  0  0  0  0
 25 83  1  0  0  0  0
 26 84  1  0  0  0  0
 27 29  2  0  0  0  0
 27 83  1  0  0  0  0
 28 85  1  0  0  0  0
 29 86  1  0  0  0  0
 30 67  2  0  0  0  0
 31 54  1  0  0  0  0
 31 66  1  0  0  0  0
 32 68  1  0  0  0  0
 32 73  1  0  0  0  0
 33 74  1  0  0  0  0
 33 78  2  0  0  0  0
 34 52  1  0  0  0  0
 34 75  1  0  0  0  0
 34 79  2  0  0  0  0
 35 63  1  0  0  0  0
 35 70  1  0  0  0  0
 35 80  2  0  0  0  0
 36 64  1  0  0  0  0
 36 76  1  0  0  0  0
 36 81  2  0  0  0  0
 37 71  1  0  0  0  0
 37 72  1  0  0  0  0
 37 82  2  0  0  0  0
 38 41  1  0  0  0  0
 39 52  1  0  0  0  0
 40 70  1  0  0  0  0
 41 43  1  0  0  0  0
 42 44  1  0  0  0  0
 42 45  1  0  0  0  0
 43 51  1  0  0  0  0
 44 53  1  0  0  0  0
 45 71  1  0  0  0  0
 46 48  1  0  0  0  0
 46 69  1  0  0  0  0
 47 49  1  0  0  0  0
 47 69  1  0  0  0  0
 48 72  1  0  0  0  0
 49 72  1  0  0  0  0
 50 53  1  0  0  0  0
 50 71  1  0  0  0  0
 51 75  1  0  0  0  0
 52 70  1  0  0  0  0
 53 68  1  0  0  0  0
 55 62  1  0  0  0  0
 56 64  1  0  0  0  0
 57 65  1  0  0  0  0
 58 65  1  0  0  0  0
 59 65  1  0  0  0  0
 60 77  1  0  0  0  0
 61 62  1  0  0  0  0
 61 84  1  0  0  0  0
 63 65  1  0  0  0  0
 63 76  1  0  0  0  0
 64 77  1  0  0  0  0
 67 68  1  0  0  0  0
M  CHG  1  77   1
M  ISO  4  37 100  61 101  72 100  84 101
M  END
> <Batch ID>
0168

> <Smiles>
CNC(C)C(=O)NC(C(=O)N1Cc2cc([101O:1][101CH2:1]C(C)c3cc(N4CC[100N:0]([100C:0](=O)N5CCCC(n6nc(-c7ccc(Oc8ccc(F)cc8F)cc7)c(C(N)=O)c6N)C5)CC4)cnc3C)ccc2CC1C(=O)NC1CCCc2ccccc21)C(C)(C)C

> <Shape>
0.255

> <Color>
0.078

> <Negative vol penalty>
0.000

$$$$

  -OEChem-04052322303D

 88 97  0     1  0  0  0  0  0999 V2000
  -27.1213  -36.3967   17.3275 C   0  0  0  0  0  0  0  0  0  0  0  0
  -26.9860  -35.0792   16.9018 C   0  0  0  0  0  0  0  0  0  0  0  0
  -23.1631   -9.8736   21.5141 C   0  0  0  0  0  0  0  0  0  0  0  0
  -24.0171  -10.8732   23.5411 C   0  0  0  0  0  0  0  0  0  0  0  0
  -27.4800  -36.6683   18.6472 C   0  0  0  0  0  0  0  0  0  0  0  0
  -27.2103  -34.0324   17.7953 C   0  0  0  0  0  0  0  0  0  0  0  0
  -24.9782  -27.3912   19.2881 C   0  0  0  0  0  0  0  0  0  0  0  0
  -22.5046   -8.9036   22.2699 C   0  0  0  0  0  0  0  0  0  0  0  0
  -23.3586   -9.9032   24.2969 C   0  0  0  0  0  0  0  0  0  0  0  0
  -25.4806  -26.1078   19.4984 C   0  0  0  0  0  0  0  0  0  0  0  0
  -23.2969   -6.0397   23.8807 C   0  0  0  0  0  0  0  0  0  0  0  0
  -23.3889   -4.7146   23.4549 C   0  0  0  0  0  0  0  0  0  0  0  0
  -26.0183  -26.6979   21.7748 C   0  0  0  0  0  0  0  0  0  0  0  0
  -20.9859   -4.6229   23.2212 C   0  0  0  0  0  0  0  0  0  0  0  0
  -28.5706  -20.6403   19.9504 C   0  0  0  0  0  0  0  0  0  0  0  0
  -23.9194  -10.8584   22.1497 C   0  0  0  0  0  0  0  0  0  0  0  0
  -24.0959  -13.1110   20.9656 C   0  0  0  0  0  0  0  0  0  0  0  0
  -27.6994  -35.6245   19.5598 C   0  0  0  0  0  0  0  0  0  0  0  0
  -25.0020  -28.3426   20.3180 C   0  0  0  0  0  0  0  0  0  0  0  0
  -27.5736  -34.2903   19.1280 C   0  0  0  0  0  0  0  0  0  0  0  0
  -25.5132  -27.9919   21.5758 C   0  0  0  0  0  0  0  0  0  0  0  0
  -28.0529  -19.8621   20.9732 C   0  0  0  0  0  0  0  0  0  0  0  0
  -26.9451  -20.3446   21.6612 C   0  0  0  0  0  0  0  0  0  0  0  0
  -26.3967  -21.5732   21.3105 C   0  0  0  0  0  0  0  0  0  0  0  0
  -22.6024   -8.9184   23.6612 C   0  0  0  0  0  0  0  0  0  0  0  0
  -26.0034  -25.7619   20.7410 C   0  0  0  0  0  0  0  0  0  0  0  0
  -22.0494   -6.6564   23.9768 C   0  0  0  0  0  0  0  0  0  0  0  0
  -22.2334   -4.0062   23.1251 C   0  0  0  0  0  0  0  0  0  0  0  0
  -20.8939   -5.9479   23.6471 C   0  0  0  0  0  0  0  0  0  0  0  0
  -24.6002  -11.8603   21.3696 C   0  0  0  0  0  0  0  0  0  0  0  0
  -26.9888  -22.2750   20.2727 C   0  0  0  0  0  0  0  0  0  0  0  0
  -25.1223  -13.6812   20.2529 C   0  0  0  0  0  0  0  0  0  0  0  0
  -22.8142  -13.7043   21.2125 C   0  0  0  0  0  0  0  0  0  0  0  0
  -26.3834  -31.1766   20.7223 C   0  0  0  0  0  0  0  0  0  0  0  0
  -24.6311  -31.2060   23.4519 C   0  0  0  0  0  0  0  0  0  0  0  0
  -23.0002  -29.4299   25.8670 C   0  0  0  0  0  0  0  0  0  0  0  0
  -30.6763  -14.8189   20.2302 C   0  0  0  0  0  0  0  0  0  0  0  0
  -28.1315  -35.9666   20.9637 C   0  0  0  0  0  0  0  0  0  0  0  0
  -24.4317  -29.7144   20.0831 C   0  0  0  0  0  0  0  0  0  0  0  0
  -25.5432  -28.9703   22.7204 C   0  0  0  0  0  0  0  0  0  0  0  0
  -27.9858  -34.8068   21.9455 C   0  0  0  0  0  0  0  0  0  0  0  0
  -29.4576  -11.7445   18.5323 C   0  0  0  0  0  0  0  0  0  0  0  0
  -28.5489  -33.5234   21.3431 C   0  0  0  0  0  0  0  0  0  0  0  0
  -28.0742  -11.5618   19.1562 C   0  0  0  0  0  0  0  0  0  0  0  0
  -27.9938  -17.3893   20.5450 C   0  0  0  0  0  0  0  0  0  0  0  0
  -30.4081  -12.4868   19.4669 C   0  0  0  0  0  0  0  0  0  0  0  0
  -28.4995  -13.6103   20.5679 C   0  0  0  0  0  0  0  0  0  0  0  0
  -28.6956  -18.5248   21.3128 C   0  0  1  0  0  0  0  0  0  0  0  0
  -27.7844  -33.1280   20.0740 C   0  0  1  0  0  0  0  0  0  0  0  0
  -24.9768  -30.7616   21.0493 C   0  0  1  0  0  0  0  0  0  0  0  0
  -27.5060  -12.9112   19.6291 C   0  0  2  0  0  0  0  0  0  0  0  0
  -30.2091  -18.4708   21.0251 C   0  0  2  0  0  0  0  0  0  0  0  0
  -28.5904  -16.0044   20.8301 C   0  0  2  0  0  0  0  0  0  0  0  0
  -30.8307  -17.0982   21.3465 C   0  0  1  0  0  0  0  0  0  0  0  0
  -26.3478  -19.5436   22.7736 C   0  0  0  0  0  0  0  0  0  0  0  0
  -25.2074  -22.1172   22.0283 C   0  0  0  0  0  0  0  0  0  0  0  0
  -28.0977  -15.4235   22.1583 C   0  0  0  0  0  0  0  0  0  0  0  0
  -31.0396  -16.8115   22.8413 C   0  0  0  0  0  0  0  0  0  0  0  0
  -21.6962  -29.7291   27.9901 C   0  0  0  0  0  0  0  0  0  0  0  0
  -27.2224  -31.7683   24.9614 C   0  0  0  0  0  0  0  0  0  0  0  0
  -26.0501  -31.1182   27.0759 C   0  0  0  0  0  0  0  0  0  0  0  0
  -25.2460  -33.0775   25.7578 C   0  0  0  0  0  0  0  0  0  0  0  0
  -20.5888  -28.1722   24.6998 C   0  0  0  0  0  0  0  0  0  0  0  0
  -26.4447  -23.6009   19.8515 C   0  0  0  0  0  0  0  0  0  1  0  0
  -24.8548  -30.7424   24.8710 C   0  0  1  0  0  0  0  0  0  0  0  0
  -21.6197  -29.5921   26.4774 C   0  0  2  0  0  0  0  0  0  0  0  0
  -25.8447  -31.6586   25.6446 C   0  0  0  0  0  0  0  0  0  0  0  0
  -28.0653  -21.8386   19.5811 N   0  0  0  0  0  0  0  0  0  0  0  0
  -25.8498  -11.6478   20.9485 N   0  0  0  0  0  0  0  0  0  0  0  0
  -26.1393  -12.7726   20.2724 N   0  0  0  0  0  0  0  0  0  0  0  0
  -24.9797  -30.3011   22.4393 N   0  0  0  0  0  0  0  0  0  0  0  0
  -29.8240  -13.7397   19.9432 N   0  0  0  0  0  0  0  0  0  0  0  0
  -30.0606  -16.0020   20.6966 N   0  0  0  0  0  0  0  0  0  0  0  0
  -25.2450  -14.8660   19.6178 N   0  0  0  0  0  0  0  0  0  0  0  0
  -21.8768  -12.9816   21.9629 N   0  0  0  0  0  0  0  0  0  0  0  0
  -26.5177  -32.5175   20.4165 N   0  0  0  0  0  0  0  0  0  0  0  0
  -23.5333  -30.6415   25.4807 N   0  0  0  0  0  0  0  0  0  0  0  0
  -30.9101  -19.5373   21.7985 N   0  3  0  0  0  0  0  0  0  0  0  0
  -20.7689  -28.4119   26.1548 N   0  3  0  0  0  0  0  0  0  0  0  0
  -22.5034  -14.8348   20.7665 O   0  0  0  0  0  0  0  0  0  0  0  0
  -27.2807  -30.3424   20.7471 O   0  0  0  0  0  0  0  0  0  0  0  0
  -24.1574  -32.3268   23.2494 O   0  0  0  0  0  0  0  0  0  0  0  0
  -23.5520  -28.3382   25.7483 O   0  0  0  0  0  0  0  0  0  0  0  0
  -31.9018  -14.7294   20.0885 O   0  0  0  0  0  0  0  0  0  0  0  0
  -21.9598   -7.9722   24.3990 O   0  0  0  0  0  0  0  0  0  0  0  0
  -26.4986  -24.5012   20.9503 O   0  0  0  0  0  0  0  0  0  1  0  0
  -22.3221   -2.7342   22.7148 F   0  0  0  0  0  0  0  0  0  0  0  0
  -19.6928   -6.5354   23.7364 F   0  0  0  0  0  0  0  0  0  0  0  0
  1  2  1  0  0  0  0
  1  5  2  0  0  0  0
  2  6  2  0  0  0  0
  3  8  2  0  0  0  0
  3 16  1  0  0  0  0
  4  9  1  0  0  0  0
  4 16  2  0  0  0  0
  5 18  1  0  0  0  0
  6 20  1  0  0  0  0
  7 10  2  0  0  0  0
  7 19  1  0  0  0  0
  8 25  1  0  0  0  0
  9 25  2  0  0  0  0
 10 26  1  0  0  0  0
 11 12  2  0  0  0  0
 11 27  1  0  0  0  0
 12 28  1  0  0  0  0
 13 21  1  0  0  0  0
 13 26  2  0  0  0  0
 14 28  2  0  0  0  0
 14 29  1  0  0  0  0
 15 22  1  0  0  0  0
 15 68  2  0  0  0  0
 16 30  1  0  0  0  0
 17 30  1  0  0  0  0
 17 32  2  0  0  0  0
 17 33  1  0  0  0  0
 18 20  2  0  0  0  0
 18 38  1  0  0  0  0
 19 21  2  0  0  0  0
 19 39  1  0  0  0  0
 20 49  1  0  0  0  0
 21 40  1  0  0  0  0
 22 23  2  0  0  0  0
 22 48  1  0  0  0  0
 23 24  1  0  0  0  0
 23 55  1  0  0  0  0
 24 31  2  0  0  0  0
 24 56  1  0  0  0  0
 25 85  1  0  0  0  0
 26 86  1  0  0  0  0
 27 29  2  0  0  0  0
 27 85  1  0  0  0  0
 28 87  1  0  0  0  0
 29 88  1  0  0  0  0
 30 69  2  0  0  0  0
 31 64  1  0  0  0  0
 31 68  1  0  0  0  0
 32 70  1  0  0  0  0
 32 74  1  0  0  0  0
 33 75  1  0  0  0  0
 33 80  2  0  0  0  0
 34 50  1  0  0  0  0
 34 76  1  0  0  0  0
 34 81  2  0  0  0  0
 35 65  1  0  0  0  0
 35 71  1  0  0  0  0
 35 82  2  0  0  0  0
 36 66  1  0  0  0  0
 36 77  1  0  0  0  0
 36 83  2  0  0  0  0
 37 72  1  0  0  0  0
 37 73  1  0  0  0  0
 37 84  2  0  0  0  0
 38 41  1  0  0  0  0
 39 50  1  0  0  0  0
 40 71  1  0  0  0  0
 41 43  1  0  0  0  0
 42 44  1  0  0  0  0
 42 46  1  0  0  0  0
 43 49  1  0  0  0  0
 44 51  1  0  0  0  0
 45 48  1  0  0  0  0
 45 53  1  0  0  0  0
 46 72  1  0  0  0  0
 47 51  1  0  0  0  0
 47 72  1  0  0  0  0
 48 52  1  0  0  0  0
 49 76  1  0  0  0  0
 50 71  1  0  0  0  0
 51 70  1  0  0  0  0
 52 54  1  0  0  0  0
 52 78  1  0  0  0  0
 53 57  1  0  0  0  0
 53 73  1  0  0  0  0
 54 58  1  0  0  0  0
 54 73  1  0  0  0  0
 59 66  1  0  0  0  0
 60 67  1  0  0  0  0
 61 67  1  0  0  0  0
 62 67  1  0  0  0  0
 63 79  1  0  0  0  0
 64 86  1  0  0  0  0
 65 67  1  0  0  0  0
 65 77  1  0  0  0  0
 66 79  1  0  0  0  0
 69 70  1  0  0  0  0
M  CHG  2  78   1  79   1
M  ISO  4  37 100  64 101  73 100  86 101
M  END
> <Batch ID>
0168

> <Smiles>
CNC(C)C(=O)NC(C(=O)N1Cc2cc([101O:1][101CH2:1]c3ncc(C4CC(C)[100N:0]([100C:0](=O)N5CCCC(n6nc(-c7ccc(Oc8ccc(F)cc8F)cc7)c(C(N)=O)c6N)C5)C(C)C4N)c(C)c3C)ccc2CC1C(=O)NC1CCCc2ccccc21)C(C)(C)C

> <Shape>
0.313

> <Color>
0.189

> <Negative vol penalty>
0.000

$$$$

  -OEChem-04052322303D

 90101  0     1  0  0  0  0  0999 V2000
  -25.2025  -18.0792   19.2640 C   0  0  0  0  0  0  0  0  0  0  0  0
  -24.7291  -19.2784   19.7867 C   0  0  0  0  0  0  0  0  0  0  0  0
  -27.2557  -13.4312   18.8342 C   0  0  0  0  0  0  0  0  0  0  0  0
  -27.7689  -11.7289   20.4700 C   0  0  0  0  0  0  0  0  0  0  0  0
  -26.5692  -17.8039   19.2808 C   0  0  0  0  0  0  0  0  0  0  0  0
  -25.6222  -20.2027   20.3276 C   0  0  0  0  0  0  0  0  0  0  0  0
  -24.6590  -24.9424   18.8269 C   0  0  0  0  0  0  0  0  0  0  0  0
  -28.4129  -13.1020   18.1284 C   0  0  0  0  0  0  0  0  0  0  0  0
  -28.9261  -11.3996   19.7642 C   0  0  0  0  0  0  0  0  0  0  0  0
  -23.6045  -25.6064   19.4521 C   0  0  0  0  0  0  0  0  0  0  0  0
  -32.2024  -10.3532   18.5891 C   0  0  0  0  0  0  0  0  0  0  0  0
  -33.3763  -10.1673   19.3192 C   0  0  0  0  0  0  0  0  0  0  0  0
  -25.1797  -26.7669   20.8633 C   0  0  0  0  0  0  0  0  0  0  0  0
  -33.2312  -12.4384   20.1306 C   0  0  0  0  0  0  0  0  0  0  0  0
  -26.9337  -12.7447   20.0050 C   0  0  0  0  0  0  0  0  0  0  0  0
  -24.4540  -12.5348   20.5658 C   0  0  0  0  0  0  0  0  0  0  0  0
  -27.4804  -18.7295   19.8134 C   0  0  0  0  0  0  0  0  0  0  0  0
  -25.9834  -25.1780   19.2233 C   0  0  0  0  0  0  0  0  0  0  0  0
  -27.0022  -19.9390   20.3528 C   0  0  0  0  0  0  0  0  0  0  0  0
  -26.2494  -26.1065   20.2398 C   0  0  0  0  0  0  0  0  0  0  0  0
  -29.2481  -12.0861   18.5934 C   0  0  0  0  0  0  0  0  0  0  0  0
  -23.8645  -26.5166   20.4724 C   0  0  0  0  0  0  0  0  0  0  0  0
  -31.5430  -11.5817   18.6297 C   0  0  0  0  0  0  0  0  0  0  0  0
  -33.8907  -11.2098   20.0900 C   0  0  0  0  0  0  0  0  0  0  0  0
  -32.0574  -12.6242   19.4004 C   0  0  0  0  0  0  0  0  0  0  0  0
  -25.7388  -13.0848   20.7348 C   0  0  0  0  0  0  0  0  0  0  0  0
  -23.6765  -13.1879   21.4907 C   0  0  0  0  0  0  0  0  0  0  0  0
  -24.0036  -11.5238   19.6544 C   0  0  0  0  0  0  0  0  0  0  0  0
  -28.3051  -23.3949   20.4617 C   0  0  0  0  0  0  0  0  0  0  0  0
  -30.0683  -26.0833   20.0304 C   0  0  0  0  0  0  0  0  0  0  0  0
  -30.1388  -29.4784   19.6914 C   0  0  0  0  0  0  0  0  0  0  0  0
  -23.1676  -18.4803   23.6608 C   0  0  0  0  0  0  0  0  0  0  0  0
  -28.9439  -18.3671   19.8526 C   0  0  0  0  0  0  0  0  0  0  0  0
  -27.1115  -24.4736   18.5207 C   0  0  0  0  0  0  0  0  0  0  0  0
  -27.6547  -26.4102   20.6885 C   0  0  0  0  0  0  0  0  0  0  0  0
  -29.8606  -19.5616   20.1037 C   0  0  0  0  0  0  0  0  0  0  0  0
  -24.5401  -15.6890   25.6451 C   0  0  0  0  0  0  0  0  0  0  0  0
  -29.3285  -20.4104   21.2540 C   0  0  0  0  0  0  0  0  0  0  0  0
  -18.1418  -28.1128   21.7619 C   0  0  0  0  0  0  0  0  0  0  0  0
  -24.9144  -14.7021   24.5433 C   0  0  0  0  0  0  0  0  0  0  0  0
  -18.4735  -26.6361   21.5110 C   0  0  0  0  0  0  0  0  0  0  0  0
  -18.9143  -27.1847   23.7830 C   0  0  0  0  0  0  0  0  0  0  0  0
  -24.7217  -17.1400   25.2013 C   0  0  0  0  0  0  0  0  0  0  0  0
  -24.3731  -16.4825   22.8368 C   0  0  0  0  0  0  0  0  0  0  0  0
  -21.7013  -22.8129   23.3951 C   0  0  0  0  0  0  0  0  0  0  0  0
  -21.1698  -22.6719   25.7487 C   0  0  0  0  0  0  0  0  0  0  0  0
  -27.9421  -20.9775   20.9257 C   0  0  1  0  0  0  0  0  0  0  0  0
  -28.3869  -24.4081   19.3551 C   0  0  1  0  0  0  0  0  0  0  0  0
  -19.0440  -28.4721   22.9564 C   0  0  1  0  0  0  0  0  0  0  0  0
  -22.6211  -21.8099   24.0187 C   0  0  1  0  0  0  0  0  0  0  0  0
  -22.2935  -21.7228   25.4696 C   0  0  2  0  0  0  0  0  0  0  0  0
  -20.8569  -26.9454   22.4212 C   0  0  2  0  0  0  0  0  0  0  0  0
  -24.1506  -15.0192   23.2485 C   0  0  1  0  0  0  0  0  0  0  0  0
  -22.1006  -20.5133   24.5884 C   0  0  0  0  0  0  0  0  0  0  0  0
  -19.4565  -26.2959   22.6546 C   0  0  2  0  0  0  0  0  0  0  0  0
  -20.5567  -28.4798   22.5524 C   0  0  0  0  0  0  0  0  0  0  0  0
  -21.4014  -29.0861   23.6951 C   0  0  0  0  0  0  0  0  0  0  0  0
  -20.8429  -29.3161   21.2958 C   0  0  0  0  0  0  0  0  0  0  0  0
  -31.7301  -31.3956   19.3917 C   0  0  0  0  0  0  0  0  0  0  0  0
  -19.0415  -24.6527   25.4724 C   0  0  0  0  0  0  0  0  0  0  0  0
  -30.8449  -25.8960   22.9752 C   0  0  0  0  0  0  0  0  0  0  0  0
  -31.6150  -28.2751   22.8516 C   0  0  0  0  0  0  0  0  0  0  0  0
  -32.7144  -26.5352   21.4420 C   0  0  0  0  0  0  0  0  0  0  0  0
  -28.9264  -30.2307   17.0986 C   0  0  0  0  0  0  0  0  0  0  0  0
  -21.5890  -26.4892   21.1634 C   0  0  0  0  0  0  0  0  0  1  0  0
  -19.5022  -24.8169   22.9881 C   0  0  0  0  0  0  0  0  0  0  0  0
  -30.3767  -27.3045   20.8626 C   0  0  1  0  0  0  0  0  0  0  0  0
  -30.8447  -30.3765   18.6915 C   0  0  2  0  0  0  0  0  0  0  0  0
  -20.0864  -24.5131   24.3733 C   0  0  2  0  0  0  0  0  0  0  0  0
  -31.3610  -26.9957   22.0260 C   0  0  0  0  0  0  0  0  0  0  0  0
  -25.7793  -14.0158   21.6917 N   0  0  0  0  0  0  0  0  0  0  0  0
  -24.5103  -14.0559   22.1322 N   0  0  0  0  0  0  0  0  0  0  0  0
  -28.7233  -25.6913   19.9752 N   0  0  0  0  0  0  0  0  0  0  0  0
  -24.0356  -17.4060   23.9271 N   0  0  0  0  0  0  0  0  0  0  0  0
  -22.3678  -13.0988   21.8095 N   0  0  0  0  0  0  0  0  0  0  0  0
  -24.9337  -10.9574   18.7720 N   0  0  0  0  0  0  0  0  0  0  0  0
  -28.0575  -22.1066   20.0277 N   0  0  0  0  0  0  0  0  0  0  0  0
  -30.8517  -28.3231   19.9324 N   0  0  0  0  0  0  0  0  0  0  0  0
  -22.9573  -19.3644   24.7129 N   0  0  0  0  0  0  0  0  0  0  0  0
  -20.6037  -23.1165   24.4064 N   0  3  0  0  0  0  0  0  0  0  0  0
  -29.8484  -31.1109   17.8615 N   0  3  0  0  0  0  0  0  0  0  0  0
  -22.8082  -11.1459   19.6120 O   0  0  0  0  0  0  0  0  0  0  0  0
  -28.4570  -23.7551   21.6231 O   0  0  0  0  0  0  0  0  0  0  0  0
  -30.9860  -25.5029   19.4450 O   0  0  0  0  0  0  0  0  0  0  0  0
  -29.0644  -29.7742   20.2098 O   0  0  0  0  0  0  0  0  0  0  0  0
  -22.6226  -18.6450   22.5637 O   0  0  0  0  0  0  0  0  0  0  0  0
  -30.3772  -11.7644   17.9049 O   0  0  0  0  0  0  0  0  0  0  0  0
  -22.8278  -27.1713   21.0903 O   0  0  0  0  0  0  0  0  0  1  0  0
  -35.0171  -11.0307   20.7923 F   0  0  0  0  0  0  0  0  0  0  0  0
  -31.4277  -13.8063   19.4443 F   0  0  0  0  0  0  0  0  0  0  0  0
  1  2  1  0  0  0  0
  1  5  2  0  0  0  0
  2  6  2  0  0  0  0
  3  8  2  0  0  0  0
  3 15  1  0  0  0  0
  4  9  1  0  0  0  0
  4 15  2  0  0  0  0
  5 17  1  0  0  0  0
  6 19  1  0  0  0  0
  7 10  2  0  0  0  0
  7 18  1  0  0  0  0
  8 21  1  0  0  0  0
  9 21  2  0  0  0  0
 10 22  1  0  0  0  0
 11 12  2  0  0  0  0
 11 23  1  0  0  0  0
 12 24  1  0  0  0  0
 13 20  1  0  0  0  0
 13 22  2  0  0  0  0
 14 24  2  0  0  0  0
 14 25  1  0  0  0  0
 15 26  1  0  0  0  0
 16 26  1  0  0  0  0
 16 27  2  0  0  0  0
 16 28  1  0  0  0  0
 17 19  2  0  0  0  0
 17 33  1  0  0  0  0
 18 20  2  0  0  0  0
 18 34  1  0  0  0  0
 19 47  1  0  0  0  0
 20 35  1  0  0  0  0
 21 87  1  0  0  0  0
 22 88  1  0  0  0  0
 23 25  2  0  0  0  0
 23 87  1  0  0  0  0
 24 89  1  0  0  0  0
 25 90  1  0  0  0  0
 26 71  2  0  0  0  0
 27 72  1  0  0  0  0
 27 75  1  0  0  0  0
 28 76  1  0  0  0  0
 28 82  2  0  0  0  0
 29 48  1  0  0  0  0
 29 77  1  0  0  0  0
 29 83  2  0  0  0  0
 30 67  1  0  0  0  0
 30 73  1  0  0  0  0
 30 84  2  0  0  0  0
 31 68  1  0  0  0  0
 31 78  1  0  0  0  0
 31 85  2  0  0  0  0
 32 74  1  0  0  0  0
 32 79  1  0  0  0  0
 32 86  2  0  0  0  0
 33 36  1  0  0  0  0
 34 48  1  0  0  0  0
 35 73  1  0  0  0  0
 36 38  1  0  0  0  0
 37 40  1  0  0  0  0
 37 43  1  0  0  0  0
 38 47  1  0  0  0  0
 39 41  1  0  0  0  0
 39 49  1  0  0  0  0
 40 53  1  0  0  0  0
 41 55  1  0  0  0  0
 42 49  1  0  0  0  0
 42 55  1  0  0  0  0
 43 74  1  0  0  0  0
 44 53  1  0  0  0  0
 44 74  1  0  0  0  0
 45 50  1  0  0  0  0
 45 80  1  0  0  0  0
 46 51  1  0  0  0  0
 46 80  1  0  0  0  0
 47 77  1  0  0  0  0
 48 73  1  0  0  0  0
 49 56  1  0  0  0  0
 50 51  1  0  0  0  0
 50 54  1  0  0  0  0
 51 54  1  0  0  0  0
 52 55  1  0  0  0  0
 52 56  1  0  0  0  0
 52 65  1  0  0  0  0
 53 72  1  0  0  0  0
 54 79  1  0  0  0  0
 55 66  1  0  0  0  0
 56 57  1  0  0  0  0
 56 58  1  0  0  0  0
 59 68  1  0  0  0  0
 60 69  1  0  0  0  0
 61 70  1  0  0  0  0
 62 70  1  0  0  0  0
 63 70  1  0  0  0  0
 64 81  1  0  0  0  0
 65 88  1  0  0  0  0
 66 69  1  0  0  0  0
 67 70  1  0  0  0  0
 67 78  1  0  0  0  0
 68 81  1  0  0  0  0
 69 80  1  0  0  0  0
 71 72  1  0  0  0  0
M  CHG  2  80   1  81   1
M  ISO  4  32 100  65 101  79 100  88 101
M  END
> <Batch ID>
0168

> <Smiles>
CNC(C)C(=O)NC(C(=O)N1Cc2cc([101O:1][101CH2:1]C3C4(CC(C)N5CC6C(C5)C6[100NH:0][100C:0](=O)N5CCCC(n6nc(-c7ccc(Oc8ccc(F)cc8F)cc7)c(C(N)=O)c6N)C5)CCC(C4)C3(C)C)ccc2CC1C(=O)NC1CCCc2ccccc21)C(C)(C)C

> <Shape>
0.235

> <Color>
0.078

> <Negative vol penalty>
0.000

$$$$

  -OEChem-04052322303D

 82 91  0     1  0  0  0  0  0999 V2000
  -28.6765  -30.5745   28.3434 C   0  0  0  0  0  0  0  0  0  0  0  0
  -28.3935  -29.4755   27.5387 C   0  0  0  0  0  0  0  0  0  0  0  0
  -23.3503   -9.5870   20.7860 C   0  0  0  0  0  0  0  0  0  0  0  0
  -23.9832  -10.2813   23.0119 C   0  0  0  0  0  0  0  0  0  0  0  0
  -27.8396  -31.6893   28.3183 C   0  0  0  0  0  0  0  0  0  0  0  0
  -27.2727  -29.4903   26.7092 C   0  0  0  0  0  0  0  0  0  0  0  0
  -28.2778  -27.7662   22.0549 C   0  0  0  0  0  0  0  0  0  0  0  0
  -27.7699  -21.3917   22.1523 C   0  0  0  0  0  0  0  0  0  0  0  0
  -22.6889   -8.4807   21.3191 C   0  0  0  0  0  0  0  0  0  0  0  0
  -23.3218   -9.1750   23.5450 C   0  0  0  0  0  0  0  0  0  0  0  0
  -28.3698  -26.3844   21.8939 C   0  0  0  0  0  0  0  0  0  0  0  0
  -23.5087   -5.4303   22.5222 C   0  0  0  0  0  0  0  0  0  0  0  0
  -23.7080   -4.1965   21.9029 C   0  0  0  0  0  0  0  0  0  0  0  0
  -27.7049  -20.0312   21.8731 C   0  0  0  0  0  0  0  0  0  0  0  0
  -26.1206  -26.3423   21.0229 C   0  0  0  0  0  0  0  0  0  0  0  0
  -21.3401   -4.0422   21.4484 C   0  0  0  0  0  0  0  0  0  0  0  0
  -29.1691  -21.6627   20.2483 C   0  0  0  0  0  0  0  0  0  0  0  0
  -23.9976  -10.4873   21.6324 C   0  0  0  0  0  0  0  0  0  0  0  0
  -24.1420  -12.9070   20.8375 C   0  0  0  0  0  0  0  0  0  0  0  0
  -26.7134  -31.7217   27.4809 C   0  0  0  0  0  0  0  0  0  0  0  0
  -27.1006  -28.4461   21.7108 C   0  0  0  0  0  0  0  0  0  0  0  0
  -26.4193  -30.6061   26.6739 C   0  0  0  0  0  0  0  0  0  0  0  0
  -26.0171  -27.7330   21.1782 C   0  0  0  0  0  0  0  0  0  0  0  0
  -28.5138  -22.2299   21.3293 C   0  0  0  0  0  0  0  0  0  0  0  0
  -22.6746   -8.2747   22.6986 C   0  0  0  0  0  0  0  0  0  0  0  0
  -27.2901  -25.6718   21.3805 C   0  0  0  0  0  0  0  0  0  0  0  0
  -22.2251   -5.9700   22.6047 C   0  0  0  0  0  0  0  0  0  0  0  0
  -22.6238   -3.5024   21.3659 C   0  0  0  0  0  0  0  0  0  0  0  0
  -21.1409   -5.2760   22.0678 C   0  0  0  0  0  0  0  0  0  0  0  0
  -24.6815  -11.6299   21.0822 C   0  0  0  0  0  0  0  0  0  0  0  0
  -28.3963  -19.5624   20.7676 C   0  0  0  0  0  0  0  0  0  0  0  0
  -25.1885  -13.6276   20.3161 C   0  0  0  0  0  0  0  0  0  0  0  0
  -22.8137  -13.3979   21.0616 C   0  0  0  0  0  0  0  0  0  0  0  0
  -24.9692  -30.1872   23.3012 C   0  0  0  0  0  0  0  0  0  0  0  0
  -23.7560  -30.7009   20.3370 C   0  0  0  0  0  0  0  0  0  0  0  0
  -23.4364  -29.6314   17.1120 C   0  0  0  0  0  0  0  0  0  0  0  0
  -30.5580  -15.1480   20.4799 C   0  0  0  0  0  0  0  0  0  0  0  0
  -25.8119  -32.9301   27.5231 C   0  0  0  0  0  0  0  0  0  0  0  0
  -27.0268  -29.9404   21.8656 C   0  0  0  0  0  0  0  0  0  0  0  0
  -24.7382  -28.4185   20.7744 C   0  0  0  0  0  0  0  0  0  0  0  0
  -24.8531  -33.0164   26.3383 C   0  0  0  0  0  0  0  0  0  0  0  0
  -29.7367  -12.1454   18.6904 C   0  0  0  0  0  0  0  0  0  0  0  0
  -24.1873  -31.6665   26.0909 C   0  0  0  0  0  0  0  0  0  0  0  0
  -28.3147  -11.8323   19.1564 C   0  0  0  0  0  0  0  0  0  0  0  0
  -30.5731  -12.7513   19.8133 C   0  0  0  0  0  0  0  0  0  0  0  0
  -28.5392  -13.6515   20.9055 C   0  0  0  0  0  0  0  0  0  0  0  0
  -30.3693  -17.2437   21.7975 C   0  0  0  0  0  0  0  0  0  0  0  0
  -25.2267  -30.5943   25.7423 C   0  0  1  0  0  0  0  0  0  0  0  0
  -25.5962  -30.4611   21.9635 C   0  0  1  0  0  0  0  0  0  0  0  0
  -27.6540  -13.0701   19.7896 C   0  0  2  0  0  0  0  0  0  0  0  0
  -29.6890  -17.4667   20.5013 C   0  0  2  0  0  0  0  0  0  0  0  0
  -27.7035  -17.8367   19.0658 C   0  0  0  0  0  0  0  0  0  0  0  0
  -22.3535  -30.2423   14.9322 C   0  0  0  0  0  0  0  0  0  0  0  0
  -21.0637  -29.7468   21.4099 C   0  0  0  0  0  0  0  0  0  0  0  0
  -20.2962  -29.4723   19.0427 C   0  0  0  0  0  0  0  0  0  0  0  0
  -20.9379  -31.7290   19.8902 C   0  0  0  0  0  0  0  0  0  0  0  0
  -26.0505  -29.8516   15.7419 C   0  0  0  0  0  0  0  0  0  0  0  0
  -28.6041  -23.7022   21.6039 C   0  0  0  0  0  0  0  0  0  1  0  0
  -28.3484  -18.1078   20.4378 C   0  0  2  0  0  0  0  0  0  0  0  0
  -22.7392  -30.0072   19.4630 C   0  0  1  0  0  0  0  0  0  0  0  0
  -23.6048  -30.3565   15.7889 C   0  0  2  0  0  0  0  0  0  0  0  0
  -21.2825  -30.2253   19.9608 C   0  0  0  0  0  0  0  0  0  0  0  0
  -29.1294  -20.3459   19.9451 N   0  0  0  0  0  0  0  0  0  0  0  0
  -25.9705  -11.5412   20.7439 N   0  0  0  0  0  0  0  0  0  0  0  0
  -26.2498  -12.7717   20.2812 N   0  0  0  0  0  0  0  0  0  0  0  0
  -24.7126  -29.8799   20.9507 N   0  0  0  0  0  0  0  0  0  0  0  0
  -29.8979  -13.9064   20.4049 N   0  0  0  0  0  0  0  0  0  0  0  0
  -29.7898  -16.1542   21.0635 N   0  0  0  0  0  0  0  0  0  0  0  0
  -25.2952  -14.9037   19.8885 N   0  0  0  0  0  0  0  0  0  0  0  0
  -21.8612  -12.5245   21.6041 N   0  0  0  0  0  0  0  0  0  0  0  0
  -25.6564  -30.7350   24.3675 N   0  0  0  0  0  0  0  0  0  0  0  0
  -22.9825  -30.4759   18.1030 N   0  0  0  0  0  0  0  0  0  0  0  0
  -24.7502  -29.7840   15.0266 N   0  3  0  0  0  0  0  0  0  0  0  0
  -22.4769  -14.5714   20.7736 O   0  0  0  0  0  0  0  0  0  0  0  0
  -23.9374  -29.5288   23.3614 O   0  0  0  0  0  0  0  0  0  0  0  0
  -23.7077  -31.9269   20.4646 O   0  0  0  0  0  0  0  0  0  0  0  0
  -23.6795  -28.4348   17.2514 O   0  0  0  0  0  0  0  0  0  0  0  0
  -31.7060  -15.3314   20.0659 O   0  0  0  0  0  0  0  0  0  0  0  0
  -22.0290   -7.1954   23.2192 O   0  0  0  0  0  0  0  0  0  0  0  0
  -27.3770  -24.3230   21.2229 O   0  0  0  0  0  0  0  0  0  1  0  0
  -22.8155   -2.3184   20.7699 F   0  0  0  0  0  0  0  0  0  0  0  0
  -19.9056   -5.7900   22.1430 F   0  0  0  0  0  0  0  0  0  0  0  0
  1  2  1  0  0  0  0
  1  5  2  0  0  0  0
  2  6  2  0  0  0  0
  3  9  2  0  0  0  0
  3 18  1  0  0  0  0
  4 10  1  0  0  0  0
  4 18  2  0  0  0  0
  5 20  1  0  0  0  0
  6 22  1  0  0  0  0
  7 11  2  0  0  0  0
  7 21  1  0  0  0  0
  8 14  2  0  0  0  0
  8 24  1  0  0  0  0
  9 25  1  0  0  0  0
 10 25  2  0  0  0  0
 11 26  1  0  0  0  0
 12 13  2  0  0  0  0
 12 27  1  0  0  0  0
 13 28  1  0  0  0  0
 14 31  1  0  0  0  0
 15 23  1  0  0  0  0
 15 26  2  0  0  0  0
 16 28  2  0  0  0  0
 16 29  1  0  0  0  0
 17 24  2  0  0  0  0
 17 63  1  0  0  0  0
 18 30  1  0  0  0  0
 19 30  1  0  0  0  0
 19 32  2  0  0  0  0
 19 33  1  0  0  0  0
 20 22  2  0  0  0  0
 20 38  1  0  0  0  0
 21 23  2  0  0  0  0
 21 39  1  0  0  0  0
 22 48  1  0  0  0  0
 23 40  1  0  0  0  0
 24 58  1  0  0  0  0
 25 79  1  0  0  0  0
 26 80  1  0  0  0  0
 27 29  2  0  0  0  0
 27 79  1  0  0  0  0
 28 81  1  0  0  0  0
 29 82  1  0  0  0  0
 30 64  2  0  0  0  0
 31 59  1  0  0  0  0
 31 63  2  0  0  0  0
 32 65  1  0  0  0  0
 32 69  1  0  0  0  0
 33 70  1  0  0  0  0
 33 74  2  0  0  0  0
 34 49  1  0  0  0  0
 34 71  1  0  0  0  0
 34 75  2  0  0  0  0
 35 60  1  0  0  0  0
 35 66  1  0  0  0  0
 35 76  2  0  0  0  0
 36 61  1  0  0  0  0
 36 72  1  0  0  0  0
 36 77  2  0  0  0  0
 37 67  1  0  0  0  0
 37 68  1  0  0  0  0
 37 78  2  0  0  0  0
 38 41  1  0  0  0  0
 39 49  1  0  0  0  0
 40 66  1  0  0  0  0
 41 43  1  0  0  0  0
 42 44  1  0  0  0  0
 42 45  1  0  0  0  0
 43 48  1  0  0  0  0
 44 50  1  0  0  0  0
 45 67  1  0  0  0  0
 46 50  1  0  0  0  0
 46 67  1  0  0  0  0
 47 51  1  0  0  0  0
 47 68  1  0  0  0  0
 48 71  1  0  0  0  0
 49 66  1  0  0  0  0
 50 65  1  0  0  0  0
 51 59  1  0  0  0  0
 51 68  1  0  0  0  0
 52 59  1  0  0  0  0
 53 61  1  0  0  0  0
 54 62  1  0  0  0  0
 55 62  1  0  0  0  0
 56 62  1  0  0  0  0
 57 73  1  0  0  0  0
 58 80  1  0  0  0  0
 60 62  1  0  0  0  0
 60 72  1  0  0  0  0
 61 73  1  0  0  0  0
 64 65  1  0  0  0  0
M  CHG  1  73   1
M  ISO  4  37 100  58 101  68 100  80 101
M  END
> <Batch ID>
0168

> <Smiles>
CNC(C)C(=O)NC(C(=O)N1Cc2cc([101O:1][101CH2:1]c3ccc(C(C)C4C[100N:0]4[100C:0](=O)N4CCCC(n5nc(-c6ccc(Oc7ccc(F)cc7F)cc6)c(C(N)=O)c5N)C4)nc3)ccc2CC1C(=O)NC1CCCc2ccccc21)C(C)(C)C

> <Shape>
0.333

> <Color>
0.187

> <Negative vol penalty>
0.000

$$$$

  -OEChem-04052322303D

 83 92  0     1  0  0  0  0  0999 V2000
  -30.9684  -23.5653   23.2439 C   0  0  0  0  0  0  0  0  0  0  0  0
  -29.5923  -23.7325   23.1256 C   0  0  0  0  0  0  0  0  0  0  0  0
  -25.9766  -27.7881   21.3912 C   0  0  0  0  0  0  0  0  0  0  0  0
  -25.3452  -29.1590   19.5046 C   0  0  0  0  0  0  0  0  0  0  0  0
  -31.6186  -22.5910   22.4877 C   0  0  0  0  0  0  0  0  0  0  0  0
  -28.8658  -22.9262   22.2501 C   0  0  0  0  0  0  0  0  0  0  0  0
  -23.1557  -20.8554   23.0320 C   0  0  0  0  0  0  0  0  0  0  0  0
  -27.2581  -27.6461   20.8591 C   0  0  0  0  0  0  0  0  0  0  0  0
  -26.6268  -29.0171   18.9726 C   0  0  0  0  0  0  0  0  0  0  0  0
  -21.9235  -21.2979   22.5526 C   0  0  0  0  0  0  0  0  0  0  0  0
  -28.7663  -25.8148   18.4516 C   0  0  0  0  0  0  0  0  0  0  0  0
  -29.3304  -24.5391   18.4537 C   0  0  0  0  0  0  0  0  0  0  0  0
  -22.0602  -19.7038   20.7472 C   0  0  0  0  0  0  0  0  0  0  0  0
  -31.1529  -25.3473   19.8185 C   0  0  0  0  0  0  0  0  0  0  0  0
  -25.0201  -28.5445   20.7139 C   0  0  0  0  0  0  0  0  0  0  0  0
  -23.2463  -29.6943   22.1420 C   0  0  0  0  0  0  0  0  0  0  0  0
  -30.8983  -21.7658   21.6096 C   0  0  0  0  0  0  0  0  0  0  0  0
  -23.8556  -19.8395   22.3652 C   0  0  0  0  0  0  0  0  0  0  0  0
  -29.5072  -21.9408   21.4804 C   0  0  0  0  0  0  0  0  0  0  0  0
  -23.2998  -19.2484   21.2216 C   0  0  0  0  0  0  0  0  0  0  0  0
  -17.3407  -21.6360   22.6555 C   0  0  0  0  0  0  0  0  0  0  0  0
  -27.5832  -28.2606   19.6499 C   0  0  0  0  0  0  0  0  0  0  0  0
  -21.3769  -20.7242   21.4084 C   0  0  0  0  0  0  0  0  0  0  0  0
  -29.3955  -26.8568   19.1329 C   0  0  0  0  0  0  0  0  0  0  0  0
  -30.5237  -24.3054   19.1372 C   0  0  0  0  0  0  0  0  0  0  0  0
  -30.5887  -26.6230   19.8164 C   0  0  0  0  0  0  0  0  0  0  0  0
  -23.6959  -28.6910   21.2627 C   0  0  0  0  0  0  0  0  0  0  0  0
  -16.9854  -21.4757   23.9921 C   0  0  0  0  0  0  0  0  0  0  0  0
  -17.5163  -20.4644   21.9372 C   0  0  0  0  0  0  0  0  0  0  0  0
  -21.9251  -29.3908   22.3625 C   0  0  0  0  0  0  0  0  0  0  0  0
  -17.0493  -19.2034   23.7666 C   0  0  0  0  0  0  0  0  0  0  0  0
  -23.9593  -30.8017   22.7087 C   0  0  0  0  0  0  0  0  0  0  0  0
  -26.6722  -19.6420   20.9053 C   0  0  0  0  0  0  0  0  0  0  0  0
  -25.9041  -16.4975   20.6943 C   0  0  0  0  0  0  0  0  0  0  0  0
  -23.4689  -14.1071   20.6417 C   0  0  0  0  0  0  0  0  0  0  0  0
  -18.4829  -25.0486   23.1032 C   0  0  0  0  0  0  0  0  0  0  0  0
  -31.6517  -20.7582   20.7779 C   0  0  0  0  0  0  0  0  0  0  0  0
  -25.1710  -19.3549   22.9103 C   0  0  0  0  0  0  0  0  0  0  0  0
  -24.0016  -18.1407   20.4808 C   0  0  0  0  0  0  0  0  0  0  0  0
  -17.4815  -22.9847   22.0068 C   0  0  0  0  0  0  0  0  0  0  0  0
  -16.7867  -22.6792   24.8758 C   0  0  0  0  0  0  0  0  0  0  0  0
  -30.7551  -19.6935   20.1511 C   0  0  0  0  0  0  0  0  0  0  0  0
  -18.5066  -26.7329   19.9959 C   0  0  0  0  0  0  0  0  0  0  0  0
  -29.5285  -20.3371   19.5123 C   0  0  0  0  0  0  0  0  0  0  0  0
  -19.8187  -27.5107   20.0836 C   0  0  0  0  0  0  0  0  0  0  0  0
  -16.4907  -23.9355   24.0624 C   0  0  0  0  0  0  0  0  0  0  0  0
  -18.6310  -25.3266   20.5851 C   0  0  0  0  0  0  0  0  0  0  0  0
  -20.4746  -26.0797   22.0540 C   0  0  0  0  0  0  0  0  0  0  0  0
  -28.6810  -21.0690   20.5599 C   0  0  1  0  0  0  0  0  0  0  0  0
  -26.0375  -18.6692   21.8585 C   0  0  1  0  0  0  0  0  0  0  0  0
  -20.3593  -27.5169   21.5240 C   0  0  1  0  0  0  0  0  0  0  0  0
  -16.8939  -17.8560   24.3861 C   0  0  0  0  0  0  0  0  0  0  0  0
  -23.1461  -11.6285   20.4194 C   0  0  0  0  0  0  0  0  0  0  0  0
  -26.4165  -16.7023   17.6934 C   0  0  0  0  0  0  0  0  0  0  0  0
  -25.1906  -14.5382   17.4069 C   0  0  0  0  0  0  0  0  0  0  0  0
  -27.2850  -14.6136   18.7598 C   0  0  0  0  0  0  0  0  0  0  0  0
  -22.2285  -13.9113   23.3216 C   0  0  0  0  0  0  0  0  0  0  0  0
  -17.8868  -20.5023   20.4902 C   0  0  0  0  0  0  0  0  0  0  0  0
  -19.3681  -20.2028   20.2472 C   0  0  0  0  0  0  0  0  0  1  0  0
  -25.1708  -15.6411   19.6904 C   0  0  1  0  0  0  0  0  0  0  0  0
  -23.3347  -12.7895   21.3834 C   0  0  2  0  0  0  0  0  0  0  0  0
  -26.0032  -15.3960   18.4002 C   0  0  0  0  0  0  0  0  0  0  0  0
  -22.7380  -27.8155   20.9464 N   0  0  0  0  0  0  0  0  0  0  0  0
  -16.8435  -20.2620   24.5728 N   0  0  0  0  0  0  0  0  0  0  0  0
  -17.3803  -19.2303   22.4634 N   0  0  0  0  0  0  0  0  0  0  0  0
  -21.6735  -28.2677   21.6307 N   0  0  0  0  0  0  0  0  0  0  0  0
  -25.2881  -17.7059   21.0494 N   0  0  0  0  0  0  0  0  0  0  0  0
  -17.4709  -24.0835   22.9864 N   0  0  0  0  0  0  0  0  0  0  0  0
  -19.1960  -25.3741   21.9403 N   0  0  0  0  0  0  0  0  0  0  0  0
  -20.9656  -29.9776   23.1092 N   0  0  0  0  0  0  0  0  0  0  0  0
  -25.3110  -30.9663   22.3769 N   0  0  0  0  0  0  0  0  0  0  0  0
  -27.8971  -20.1239   21.3259 N   0  0  0  0  0  0  0  0  0  0  0  0
  -24.7884  -14.4224   20.3954 N   0  0  0  0  0  0  0  0  0  0  0  0
  -22.1638  -12.8305   22.3045 N   0  3  0  0  0  0  0  0  0  0  0  0
  -23.4182  -31.6115   23.4992 O   0  0  0  0  0  0  0  0  0  0  0  0
  -26.0942  -19.9326   19.8646 O   0  0  0  0  0  0  0  0  0  0  0  0
  -26.9803  -16.1052   21.1521 O   0  0  0  0  0  0  0  0  0  0  0  0
  -22.5000  -14.7867   20.3104 O   0  0  0  0  0  0  0  0  0  0  0  0
  -18.7428  -25.5822   24.1893 O   0  0  0  0  0  0  0  0  0  0  0  0
  -28.8337  -28.1225   19.1305 O   0  0  0  0  0  0  0  0  0  0  0  0
  -20.1663  -21.1577   20.9347 O   0  0  0  0  0  0  0  0  0  1  0  0
  -31.0645  -23.0799   19.1404 F   0  0  0  0  0  0  0  0  0  0  0  0
  -31.1972  -27.6198   20.4737 F   0  0  0  0  0  0  0  0  0  0  0  0
  1  2  1  0  0  0  0
  1  5  2  0  0  0  0
  2  6  2  0  0  0  0
  3  8  2  0  0  0  0
  3 15  1  0  0  0  0
  4  9  1  0  0  0  0
  4 15  2  0  0  0  0
  5 17  1  0  0  0  0
  6 19  1  0  0  0  0
  7 10  2  0  0  0  0
  7 18  1  0  0  0  0
  8 22  1  0  0  0  0
  9 22  2  0  0  0  0
 10 23  1  0  0  0  0
 11 12  2  0  0  0  0
 11 24  1  0  0  0  0
 12 25  1  0  0  0  0
 13 20  1  0  0  0  0
 13 23  2  0  0  0  0
 14 25  2  0  0  0  0
 14 26  1  0  0  0  0
 15 27  1  0  0  0  0
 16 27  1  0  0  0  0
 16 30  2  0  0  0  0
 16 32  1  0  0  0  0
 17 19  2  0  0  0  0
 17 37  1  0  0  0  0
 18 20  2  0  0  0  0
 18 38  1  0  0  0  0
 19 49  1  0  0  0  0
 20 39  1  0  0  0  0
 21 28  1  0  0  0  0
 21 29  2  0  0  0  0
 21 40  1  0  0  0  0
 22 80  1  0  0  0  0
 23 81  1  0  0  0  0
 24 26  2  0  0  0  0
 24 80  1  0  0  0  0
 25 82  1  0  0  0  0
 26 83  1  0  0  0  0
 27 63  2  0  0  0  0
 28 41  1  0  0  0  0
 28 64  2  0  0  0  0
 29 58  1  0  0  0  0
 29 65  1  0  0  0  0
 30 66  1  0  0  0  0
 30 70  1  0  0  0  0
 31 52  1  0  0  0  0
 31 64  1  0  0  0  0
 31 65  2  0  0  0  0
 32 71  1  0  0  0  0
 32 75  2  0  0  0  0
 33 50  1  0  0  0  0
 33 72  1  0  0  0  0
 33 76  2  0  0  0  0
 34 60  1  0  0  0  0
 34 67  1  0  0  0  0
 34 77  2  0  0  0  0
 35 61  1  0  0  0  0
 35 73  1  0  0  0  0
 35 78  2  0  0  0  0
 36 68  1  0  0  0  0
 36 69  1  0  0  0  0
 36 79  2  0  0  0  0
 37 42  1  0  0  0  0
 38 50  1  0  0  0  0
 39 67  1  0  0  0  0
 40 68  1  0  0  0  0
 41 46  1  0  0  0  0
 42 44  1  0  0  0  0
 43 45  1  0  0  0  0
 43 47  1  0  0  0  0
 44 49  1  0  0  0  0
 45 51  1  0  0  0  0
 46 68  1  0  0  0  0
 47 69  1  0  0  0  0
 48 51  1  0  0  0  0
 48 69  1  0  0  0  0
 49 72  1  0  0  0  0
 50 67  1  0  0  0  0
 51 66  1  0  0  0  0
 53 61  1  0  0  0  0
 54 62  1  0  0  0  0
 55 62  1  0  0  0  0
 56 62  1  0  0  0  0
 57 74  1  0  0  0  0
 58 59  1  0  0  0  0
 59 81  1  0  0  0  0
 60 62  1  0  0  0  0
 60 73  1  0  0  0  0
 61 74  1  0  0  0  0
 63 66  1  0  0  0  0
M  CHG  1  74   1
M  ISO  4  36 100  59 101  68 100  81 101
M  END
> <Batch ID>
0168

> <Smiles>
CNC(C)C(=O)NC(C(=O)N1Cc2cc([101O:1][101CH2:1]Cc3nc(C)nc4c3C[100N:0]([100C:0](=O)N3CCCC(n5nc(-c6ccc(Oc7ccc(F)cc7F)cc6)c(C(N)=O)c5N)C3)CC4)ccc2CC1C(=O)NC1CCCc2ccccc21)C(C)(C)C

> <Shape>
0.214

> <Color>
0.080

> <Negative vol penalty>
0.000

$$$$

  -OEChem-04052322303D

 84 93  0     1  0  0  0  0  0999 V2000
  -25.6821  -38.0007   23.5257 C   0  0  0  0  0  0  0  0  0  0  0  0
  -26.4219  -37.2094   22.6528 C   0  0  0  0  0  0  0  0  0  0  0  0
  -28.4450  -10.7863   21.7345 C   0  0  0  0  0  0  0  0  0  0  0  0
  -27.4247  -11.3398   23.8534 C   0  0  0  0  0  0  0  0  0  0  0  0
  -24.9946  -37.4118   24.5861 C   0  0  0  0  0  0  0  0  0  0  0  0
  -26.4754  -35.8287   22.8404 C   0  0  0  0  0  0  0  0  0  0  0  0
  -26.9499  -29.7072   19.1501 C   0  0  0  0  0  0  0  0  0  0  0  0
  -28.8369   -9.5493   22.2463 C   0  0  0  0  0  0  0  0  0  0  0  0
  -27.8165  -10.1028   24.3652 C   0  0  0  0  0  0  0  0  0  0  0  0
  -27.7081  -28.5385   19.0955 C   0  0  0  0  0  0  0  0  0  0  0  0
  -28.2339   -6.9445   26.1171 C   0  0  0  0  0  0  0  0  0  0  0  0
  -27.2957   -6.2189   26.8511 C   0  0  0  0  0  0  0  0  0  0  0  0
  -26.4160  -27.6225   20.9151 C   0  0  0  0  0  0  0  0  0  0  0  0
  -25.8330   -6.1657   24.9289 C   0  0  0  0  0  0  0  0  0  0  0  0
  -27.7390  -11.6816   22.5381 C   0  0  0  0  0  0  0  0  0  0  0  0
  -26.1287  -13.2639   21.3503 C   0  0  0  0  0  0  0  0  0  0  0  0
  -25.0320  -36.0221   24.7812 C   0  0  0  0  0  0  0  0  0  0  0  0
  -25.9245  -29.8469   20.0963 C   0  0  0  0  0  0  0  0  0  0  0  0
  -25.7889  -35.2208   23.9052 C   0  0  0  0  0  0  0  0  0  0  0  0
  -25.6446  -28.7930   20.9779 C   0  0  0  0  0  0  0  0  0  0  0  0
  -31.1589  -22.4621   19.1355 C   0  0  0  0  0  0  0  0  0  0  0  0
  -29.7774  -22.5343   18.8832 C   0  0  0  0  0  0  0  0  0  0  0  0
  -31.8856  -23.6420   19.3492 C   0  0  0  0  0  0  0  0  0  0  0  0
  -29.1546  -23.7890   18.8162 C   0  0  0  0  0  0  0  0  0  0  0  0
  -31.2533  -24.8833   19.2883 C   0  0  0  0  0  0  0  0  0  0  0  0
  -29.8892  -24.9569   19.0194 C   0  0  0  0  0  0  0  0  0  0  0  0
  -28.5226   -9.2075   23.5616 C   0  0  0  0  0  0  0  0  0  0  0  0
  -27.4431  -27.4970   19.9800 C   0  0  0  0  0  0  0  0  0  0  0  0
  -27.9717   -7.2807   24.7890 C   0  0  0  0  0  0  0  0  0  0  0  0
  -26.0953   -5.8295   26.2570 C   0  0  0  0  0  0  0  0  0  0  0  0
  -26.7713   -6.8913   24.1949 C   0  0  0  0  0  0  0  0  0  0  0  0
  -27.3345  -12.9598   22.0102 C   0  0  0  0  0  0  0  0  0  0  0  0
  -26.2291  -14.6005   21.0504 C   0  0  0  0  0  0  0  0  0  0  0  0
  -25.0173  -12.4142   21.0365 C   0  0  0  0  0  0  0  0  0  0  0  0
  -25.3687  -31.8183   22.5271 C   0  0  0  0  0  0  0  0  0  0  0  0
  -22.5242  -30.2626   22.6306 C   0  0  0  0  0  0  0  0  0  0  0  0
  -20.7320  -27.4501   21.9058 C   0  0  0  0  0  0  0  0  0  0  0  0
  -28.8833  -18.8992   19.2154 C   0  0  0  0  0  0  0  0  0  0  0  0
  -24.3111  -35.4362   25.9694 C   0  0  0  0  0  0  0  0  0  0  0  0
  -25.0983  -31.1035   20.1246 C   0  0  0  0  0  0  0  0  0  0  0  0
  -31.8589  -21.1310   19.2336 C   0  0  0  0  0  0  0  0  0  0  0  0
  -24.5414  -28.8851   21.9991 C   0  0  0  0  0  0  0  0  0  0  0  0
  -28.9571  -21.2936   18.6422 C   0  0  0  0  0  0  0  0  0  0  0  0
  -24.1143  -33.9252   25.8780 C   0  0  0  0  0  0  0  0  0  0  0  0
  -29.5503  -18.0870   22.5726 C   0  0  0  0  0  0  0  0  0  0  0  0
  -25.4101  -33.2429   25.4513 C   0  0  0  0  0  0  0  0  0  0  0  0
  -28.9353  -16.6919   22.6759 C   0  0  0  0  0  0  0  0  0  0  0  0
  -31.0643  -20.0055   18.5797 C   0  0  0  0  0  0  0  0  0  0  0  0
  -30.2773  -18.2962   21.2431 C   0  0  0  0  0  0  0  0  0  0  0  0
  -28.8315  -16.6090   20.1563 C   0  0  0  0  0  0  0  0  0  0  0  0
  -25.8513  -33.7168   24.0612 C   0  0  1  0  0  0  0  0  0  0  0  0
  -24.4159  -31.3397   21.4684 C   0  0  1  0  0  0  0  0  0  0  0  0
  -28.0445  -16.3906   21.4578 C   0  0  1  0  0  0  0  0  0  0  0  0
  -33.3549  -23.5880   19.6378 C   0  0  0  0  0  0  0  0  0  0  0  0
  -27.6868  -23.8925   18.5313 C   0  0  0  0  0  0  0  0  0  0  0  0
  -32.0394  -26.1374   19.5094 C   0  0  0  0  0  0  0  0  0  0  0  0
  -18.4394  -26.4587   22.1465 C   0  0  0  0  0  0  0  0  0  0  0  0
  -23.0741  -29.7133   25.5812 C   0  0  0  0  0  0  0  0  0  0  0  0
  -21.2837  -27.9644   25.5176 C   0  0  0  0  0  0  0  0  0  0  0  0
  -20.7120  -30.3493   25.0610 C   0  0  0  0  0  0  0  0  0  0  0  0
  -20.3920  -27.2321   18.9740 C   0  0  0  0  0  0  0  0  0  0  0  0
  -29.2127  -26.2897   18.9471 C   0  0  0  0  0  0  0  0  0  1  0  0
  -22.0038  -29.0316   23.3327 C   0  0  1  0  0  0  0  0  0  0  0  0
  -19.3739  -27.2611   21.2546 C   0  0  2  0  0  0  0  0  0  0  0  0
  -21.7905  -29.2634   24.8553 C   0  0  0  0  0  0  0  0  0  0  0  0
  -28.1416  -14.0179   22.1230 N   0  0  0  0  0  0  0  0  0  0  0  0
  -27.4418  -15.0000   21.5299 N   0  0  0  0  0  0  0  0  0  0  0  0
  -23.7657  -30.1364   21.9915 N   0  0  0  0  0  0  0  0  0  0  0  0
  -29.6533  -20.0510   18.9790 N   0  0  0  0  0  0  0  0  0  0  0  0
  -29.4052  -17.9558   20.1119 N   0  0  0  0  0  0  0  0  0  0  0  0
  -25.3975  -15.4612   20.4259 N   0  0  0  0  0  0  0  0  0  0  0  0
  -25.0781  -11.0667   21.4170 N   0  0  0  0  0  0  0  0  0  0  0  0
  -25.0660  -33.0679   23.0332 N   0  0  0  0  0  0  0  0  0  0  0  0
  -20.7987  -28.6309   22.6147 N   0  0  0  0  0  0  0  0  0  0  0  0
  -19.5171  -26.5426   19.9569 N   0  3  0  0  0  0  0  0  0  0  0  0
  -24.0073  -12.8336   20.4220 O   0  0  0  0  0  0  0  0  0  0  0  0
  -26.3081  -31.1058   22.8611 O   0  0  0  0  0  0  0  0  0  0  0  0
  -21.8505  -31.2958   22.6426 O   0  0  0  0  0  0  0  0  0  0  0  0
  -21.6416  -26.6304   21.7996 O   0  0  0  0  0  0  0  0  0  0  0  0
  -27.7937  -18.7263   18.6545 O   0  0  0  0  0  0  0  0  0  0  0  0
  -28.9045   -8.0005   24.0613 O   0  0  0  0  0  0  0  0  0  0  0  0
  -28.1875  -26.3469   19.9289 O   0  0  0  0  0  0  0  0  0  1  0  0
  -25.1950   -5.1314   26.9616 F   0  0  0  0  0  0  0  0  0  0  0  0
  -26.5143   -7.2104   22.9190 F   0  0  0  0  0  0  0  0  0  0  0  0
  1  2  1  0  0  0  0
  1  5  2  0  0  0  0
  2  6  2  0  0  0  0
  3  8  2  0  0  0  0
  3 15  1  0  0  0  0
  4  9  1  0  0  0  0
  4 15  2  0  0  0  0
  5 17  1  0  0  0  0
  6 19  1  0  0  0  0
  7 10  2  0  0  0  0
  7 18  1  0  0  0  0
  8 27  1  0  0  0  0
  9 27  2  0  0  0  0
 10 28  1  0  0  0  0
 11 12  2  0  0  0  0
 11 29  1  0  0  0  0
 12 30  1  0  0  0  0
 13 20  1  0  0  0  0
 13 28  2  0  0  0  0
 14 30  2  0  0  0  0
 14 31  1  0  0  0  0
 15 32  1  0  0  0  0
 16 32  1  0  0  0  0
 16 33  2  0  0  0  0
 16 34  1  0  0  0  0
 17 19  2  0  0  0  0
 17 39  1  0  0  0  0
 18 20  2  0  0  0  0
 18 40  1  0  0  0  0
 19 51  1  0  0  0  0
 20 42  1  0  0  0  0
 21 22  2  0  0  0  0
 21 23  1  0  0  0  0
 21 41  1  0  0  0  0
 22 24  1  0  0  0  0
 22 43  1  0  0  0  0
 23 25  2  0  0  0  0
 23 54  1  0  0  0  0
 24 26  2  0  0  0  0
 24 55  1  0  0  0  0
 25 26  1  0  0  0  0
 25 56  1  0  0  0  0
 26 62  1  0  0  0  0
 27 81  1  0  0  0  0
 28 82  1  0  0  0  0
 29 31  2  0  0  0  0
 29 81  1  0  0  0  0
 30 83  1  0  0  0  0
 31 84  1  0  0  0  0
 32 66  2  0  0  0  0
 33 67  1  0  0  0  0
 33 71  1  0  0  0  0
 34 72  1  0  0  0  0
 34 76  2  0  0  0  0
 35 52  1  0  0  0  0
 35 73  1  0  0  0  0
 35 77  2  0  0  0  0
 36 63  1  0  0  0  0
 36 68  1  0  0  0  0
 36 78  2  0  0  0  0
 37 64  1  0  0  0  0
 37 74  1  0  0  0  0
 37 79  2  0  0  0  0
 38 69  1  0  0  0  0
 38 70  1  0  0  0  0
 38 80  2  0  0  0  0
 39 44  1  0  0  0  0
 40 52  1  0  0  0  0
 41 48  1  0  0  0  0
 42 68  1  0  0  0  0
 43 69  1  0  0  0  0
 44 46  1  0  0  0  0
 45 47  1  0  0  0  0
 45 49  1  0  0  0  0
 46 51  1  0  0  0  0
 47 53  1  0  0  0  0
 48 69  1  0  0  0  0
 49 70  1  0  0  0  0
 50 53  1  0  0  0  0
 50 70  1  0  0  0  0
 51 73  1  0  0  0  0
 52 68  1  0  0  0  0
 53 67  1  0  0  0  0
 57 64  1  0  0  0  0
 58 65  1  0  0  0  0
 59 65  1  0  0  0  0
 60 65  1  0  0  0  0
 61 75  1  0  0  0  0
 62 82  1  0  0  0  0
 63 65  1  0  0  0  0
 63 74  1  0  0  0  0
 64 75  1  0  0  0  0
 66 67  1  0  0  0  0
M  CHG  1  75   1
M  ISO  4  38 100  62 101  69 100  82 101
M  END
> <Batch ID>
0168

> <Smiles>
CNC(C)C(=O)NC(C(=O)N1Cc2cc([101O:1][101CH2:1]c3c(C)c(C)c4c(c3C)C[100N:0]([100C:0](=O)N3CCCC(n5nc(-c6ccc(Oc7ccc(F)cc7F)cc6)c(C(N)=O)c5N)C3)CC4)ccc2CC1C(=O)NC1CCCc2ccccc21)C(C)(C)C

> <Shape>
0.306

> <Color>
0.095

> <Negative vol penalty>
0.000

$$$$

  -OEChem-04052322303D

 90101  0     1  0  0  0  0  0999 V2000
  -29.2644  -31.1414   27.6806 C   0  0  0  0  0  0  0  0  0  0  0  0
  -29.2303  -30.2977   26.5749 C   0  0  0  0  0  0  0  0  0  0  0  0
  -26.5099  -12.5675   21.5758 C   0  0  0  0  0  0  0  0  0  0  0  0
  -26.2099  -13.4703   19.3550 C   0  0  0  0  0  0  0  0  0  0  0  0
  -28.0760  -31.6405   28.2120 C   0  0  0  0  0  0  0  0  0  0  0  0
  -28.0076  -29.9517   26.0007 C   0  0  0  0  0  0  0  0  0  0  0  0
  -26.8710  -28.9893   20.0604 C   0  0  0  0  0  0  0  0  0  0  0  0
  -25.2358  -12.0028   21.5184 C   0  0  0  0  0  0  0  0  0  0  0  0
  -24.9357  -12.9056   19.2976 C   0  0  0  0  0  0  0  0  0  0  0  0
  -26.7739  -27.8243   19.3007 C   0  0  0  0  0  0  0  0  0  0  0  0
  -23.7736   -9.2906   20.1260 C   0  0  0  0  0  0  0  0  0  0  0  0
  -23.6288   -7.9723   20.5581 C   0  0  0  0  0  0  0  0  0  0  0  0
  -31.3859  -22.5012   17.1126 C   0  0  0  0  0  0  0  0  0  0  0  0
  -24.3766  -27.8575   19.5673 C   0  0  0  0  0  0  0  0  0  0  0  0
  -22.0589   -8.6978   22.2451 C   0  0  0  0  0  0  0  0  0  0  0  0
  -26.9970  -13.3013   20.4941 C   0  0  0  0  0  0  0  0  0  0  0  0
  -29.5245  -13.2936   20.1486 C   0  0  0  0  0  0  0  0  0  0  0  0
  -26.8387  -31.3083   27.6381 C   0  0  0  0  0  0  0  0  0  0  0  0
  -25.7206  -29.5921   20.5893 C   0  0  0  0  0  0  0  0  0  0  0  0
  -26.8014  -30.4458   26.5258 C   0  0  0  0  0  0  0  0  0  0  0  0
  -31.2707  -21.5470   18.1233 C   0  0  0  0  0  0  0  0  0  0  0  0
  -24.4616  -29.0315   20.3312 C   0  0  0  0  0  0  0  0  0  0  0  0
  -30.2473  -22.9476   16.4417 C   0  0  0  0  0  0  0  0  0  0  0  0
  -28.9935  -22.4395   16.7817 C   0  0  0  0  0  0  0  0  0  0  0  0
  -28.8783  -21.4852   17.7924 C   0  0  0  0  0  0  0  0  0  0  0  0
  -30.0170  -21.0389   18.4633 C   0  0  0  0  0  0  0  0  0  0  0  0
  -24.4487  -12.1718   20.3793 C   0  0  0  0  0  0  0  0  0  0  0  0
  -25.5268  -27.2566   19.0565 C   0  0  0  0  0  0  0  0  0  0  0  0
  -23.0612  -10.3125   20.7535 C   0  0  0  0  0  0  0  0  0  0  0  0
  -22.7714   -7.6759   21.6176 C   0  0  0  0  0  0  0  0  0  0  0  0
  -22.2038  -10.0161   21.8131 C   0  0  0  0  0  0  0  0  0  0  0  0
  -28.3128  -13.8854   20.5530 C   0  0  0  0  0  0  0  0  0  0  0  0
  -30.4765  -14.2491   20.4075 C   0  0  0  0  0  0  0  0  0  0  0  0
  -29.7676  -11.9962   19.5888 C   0  0  0  0  0  0  0  0  0  0  0  0
  -24.6639  -30.2222   23.5202 C   0  0  0  0  0  0  0  0  0  0  0  0
  -22.3008  -31.7604   21.9164 C   0  0  0  0  0  0  0  0  0  0  0  0
  -20.4953  -32.0974   19.0400 C   0  0  0  0  0  0  0  0  0  0  0  0
  -30.2727  -20.2063   20.8271 C   0  0  0  0  0  0  0  0  0  0  0  0
  -25.5776  -31.8344   28.2766 C   0  0  0  0  0  0  0  0  0  0  0  0
  -25.8399  -30.8634   21.3843 C   0  0  0  0  0  0  0  0  0  0  0  0
  -23.1943  -29.6510   20.8593 C   0  0  0  0  0  0  0  0  0  0  0  0
  -24.3475  -31.7199   27.3800 C   0  0  0  0  0  0  0  0  0  0  0  0
  -31.3877  -17.9322   23.3296 C   0  0  0  0  0  0  0  0  0  0  0  0
  -33.6438  -20.5323   18.0090 C   0  0  0  0  0  0  0  0  0  0  0  0
  -32.8222  -19.6166   18.8615 C   0  0  0  0  0  0  0  0  0  0  0  0
  -24.2748  -30.3336   26.7479 C   0  0  0  0  0  0  0  0  0  0  0  0
  -27.7889  -21.1033   14.1457 C   0  0  0  0  0  0  0  0  0  0  0  0
  -26.5962  -21.9782   13.8775 C   0  0  0  0  0  0  0  0  0  0  0  0
  -30.8412  -16.5816   22.8616 C   0  0  0  0  0  0  0  0  0  0  0  0
  -27.5811  -24.9515   17.6814 C   0  0  0  0  0  0  0  0  0  0  0  0
  -26.0630  -24.9085   16.1826 C   0  0  0  0  0  0  0  0  0  0  0  0
  -30.4141  -19.0715   23.0333 C   0  0  0  0  0  0  0  0  0  0  0  0
  -29.4167  -17.8052   21.1702 C   0  0  0  0  0  0  0  0  0  0  0  0
  -32.5077  -21.0877   18.8246 C   0  0  0  0  0  0  0  0  0  0  0  0
  -25.4963  -30.0674   25.8598 C   0  0  1  0  0  0  0  0  0  0  0  0
  -24.6482  -31.1063   22.3053 C   0  0  1  0  0  0  0  0  0  0  0  0
  -27.8087  -22.5487   14.5595 C   0  0  0  0  0  0  0  0  0  0  0  0
  -27.5298  -24.4162   16.2297 C   0  0  0  0  0  0  0  0  0  0  0  0
  -30.3906  -16.6358   21.3886 C   0  0  2  0  0  0  0  0  0  0  0  0
  -26.4279  -25.9100   17.3036 C   0  0  0  0  0  0  0  0  0  1  0  0
  -30.3981  -23.9701   15.3633 C   0  0  0  0  0  0  0  0  0  0  0  0
  -27.5304  -20.9429   18.1538 C   0  0  0  0  0  0  0  0  0  0  0  0
  -18.6055  -33.4136   18.0432 C   0  0  0  0  0  0  0  0  0  0  0  0
  -20.3038  -30.1070   23.5253 C   0  0  0  0  0  0  0  0  0  0  0  0
  -18.5430  -30.7449   21.8637 C   0  0  0  0  0  0  0  0  0  0  0  0
  -19.6683  -32.5070   23.2244 C   0  0  0  0  0  0  0  0  0  0  0  0
  -22.2330  -33.2035   16.9150 C   0  0  0  0  0  0  0  0  0  0  0  0
  -27.7520  -22.9291   16.0470 C   0  0  2  0  0  0  0  0  0  0  0  0
  -20.9506  -31.3678   21.3670 C   0  0  1  0  0  0  0  0  0  0  0  0
  -20.1121  -33.3220   18.2289 C   0  0  2  0  0  0  0  0  0  0  0  0
  -19.8903  -31.1687   22.4866 C   0  0  0  0  0  0  0  0  0  0  0  0
  -28.4774  -15.1211   21.0326 N   0  0  0  0  0  0  0  0  0  0  0  0
  -29.8035  -15.3136   20.9312 N   0  0  0  0  0  0  0  0  0  0  0  0
  -23.3637  -30.8899   21.6364 N   0  0  0  0  0  0  0  0  0  0  0  0
  -30.0347  -19.0629   21.6188 N   0  0  0  0  0  0  0  0  0  0  0  0
  -31.8153  -14.2743   20.2360 N   0  0  0  0  0  0  0  0  0  0  0  0
  -28.6764  -11.1397   19.3888 N   0  0  0  0  0  0  0  0  0  0  0  0
  -29.9006  -20.0695   19.4901 N   0  0  0  0  0  0  0  0  0  0  0  0
  -25.3578  -30.7511   24.5918 N   0  0  0  0  0  0  0  0  0  0  0  0
  -20.5978  -32.3867   20.3843 N   0  0  0  0  0  0  0  0  0  0  0  0
  -20.7494  -33.2719   16.8827 N   0  3  0  0  0  0  0  0  0  0  0  0
  -30.9204  -11.6018   19.2905 O   0  0  0  0  0  0  0  0  0  0  0  0
  -24.0879  -29.1411   23.4882 O   0  0  0  0  0  0  0  0  0  0  0  0
  -22.4098  -32.8047   22.5639 O   0  0  0  0  0  0  0  0  0  0  0  0
  -20.6812  -30.9937   18.5324 O   0  0  0  0  0  0  0  0  0  0  0  0
  -30.7950  -21.2217   21.2941 O   0  0  0  0  0  0  0  0  0  0  0  0
  -23.2055  -11.6207   20.3229 O   0  0  0  0  0  0  0  0  0  0  0  0
  -25.4293  -26.1192   18.3158 O   0  0  0  0  0  0  0  0  0  1  0  0
  -22.6312   -6.4097   22.0314 F   0  0  0  0  0  0  0  0  0  0  0  0
  -21.5158  -10.9935   22.4191 F   0  0  0  0  0  0  0  0  0  0  0  0
  1  2  1  0  0  0  0
  1  5  2  0  0  0  0
  2  6  2  0  0  0  0
  3  8  2  0  0  0  0
  3 16  1  0  0  0  0
  4  9  1  0  0  0  0
  4 16  2  0  0  0  0
  5 18  1  0  0  0  0
  6 20  1  0  0  0  0
  7 10  2  0  0  0  0
  7 19  1  0  0  0  0
  8 27  1  0  0  0  0
  9 27  2  0  0  0  0
 10 28  1  0  0  0  0
 11 12  2  0  0  0  0
 11 29  1  0  0  0  0
 12 30  1  0  0  0  0
 13 21  1  0  0  0  0
 13 23  2  0  0  0  0
 14 22  1  0  0  0  0
 14 28  2  0  0  0  0
 15 30  2  0  0  0  0
 15 31  1  0  0  0  0
 16 32  1  0  0  0  0
 17 32  1  0  0  0  0
 17 33  2  0  0  0  0
 17 34  1  0  0  0  0
 18 20  2  0  0  0  0
 18 39  1  0  0  0  0
 19 22  2  0  0  0  0
 19 40  1  0  0  0  0
 20 55  1  0  0  0  0
 21 26  2  0  0  0  0
 21 54  1  0  0  0  0
 22 41  1  0  0  0  0
 23 24  1  0  0  0  0
 23 61  1  0  0  0  0
 24 25  2  0  0  0  0
 24 68  1  0  0  0  0
 25 26  1  0  0  0  0
 25 62  1  0  0  0  0
 26 78  1  0  0  0  0
 27 87  1  0  0  0  0
 28 88  1  0  0  0  0
 29 31  2  0  0  0  0
 29 87  1  0  0  0  0
 30 89  1  0  0  0  0
 31 90  1  0  0  0  0
 32 72  2  0  0  0  0
 33 73  1  0  0  0  0
 33 76  1  0  0  0  0
 34 77  1  0  0  0  0
 34 82  2  0  0  0  0
 35 56  1  0  0  0  0
 35 79  1  0  0  0  0
 35 83  2  0  0  0  0
 36 69  1  0  0  0  0
 36 74  1  0  0  0  0
 36 84  2  0  0  0  0
 37 70  1  0  0  0  0
 37 80  1  0  0  0  0
 37 85  2  0  0  0  0
 38 75  1  0  0  0  0
 38 78  1  0  0  0  0
 38 86  2  0  0  0  0
 39 42  1  0  0  0  0
 40 56  1  0  0  0  0
 41 74  1  0  0  0  0
 42 46  1  0  0  0  0
 43 49  1  0  0  0  0
 43 52  1  0  0  0  0
 44 45  1  0  0  0  0
 44 54  1  0  0  0  0
 45 54  1  0  0  0  0
 46 55  1  0  0  0  0
 47 48  1  0  0  0  0
 47 57  1  0  0  0  0
 48 57  1  0  0  0  0
 49 59  1  0  0  0  0
 50 58  1  0  0  0  0
 50 60  1  0  0  0  0
 51 58  1  0  0  0  0
 51 60  1  0  0  0  0
 52 75  1  0  0  0  0
 53 59  1  0  0  0  0
 53 75  1  0  0  0  0
 55 79  1  0  0  0  0
 56 74  1  0  0  0  0
 57 68  1  0  0  0  0
 58 68  1  0  0  0  0
 59 73  1  0  0  0  0
 60 88  1  0  0  0  0
 63 70  1  0  0  0  0
 64 71  1  0  0  0  0
 65 71  1  0  0  0  0
 66 71  1  0  0  0  0
 67 81  1  0  0  0  0
 69 71  1  0  0  0  0
 69 80  1  0  0  0  0
 70 81  1  0  0  0  0
 72 73  1  0  0  0  0
M  CHG  1  81   1
M  ISO  4  38 100  60 101  78 100  88 101
M  END
> <Batch ID>
0168

> <Smiles>
CNC(C)C(=O)NC(C(=O)N1Cc2cc([101O:1][101CH:1]3CC(C(c4c(C)cc(C5CC5)c([100NH:0][100C:0](=O)N5CCCC(n6nc(-c7ccc(Oc8ccc(F)cc8F)cc7)c(C(N)=O)c6N)C5)c4C)C4CC4)C3)ccc2CC1C(=O)NC1CCCc2ccccc21)C(C)(C)C

> <Shape>
0.278

> <Color>
0.095

> <Negative vol penalty>
0.000

$$$$

  -OEChem-04052322303D

 90100  0     1  0  0  0  0  0999 V2000
  -29.1657  -31.9905   13.6998 C   0  0  0  0  0  0  0  0  0  0  0  0
  -28.9594  -31.0685   14.7209 C   0  0  0  0  0  0  0  0  0  0  0  0
  -26.4530  -12.4030   21.6042 C   0  0  0  0  0  0  0  0  0  0  0  0
  -25.9892  -13.4006   19.4532 C   0  0  0  0  0  0  0  0  0  0  0  0
  -29.5106  -33.3056   14.0087 C   0  0  0  0  0  0  0  0  0  0  0  0
  -29.0990  -31.4608   16.0517 C   0  0  0  0  0  0  0  0  0  0  0  0
  -25.3471  -29.7430   18.9873 C   0  0  0  0  0  0  0  0  0  0  0  0
  -25.2006  -11.7890   21.5895 C   0  0  0  0  0  0  0  0  0  0  0  0
  -24.7368  -12.7865   19.4385 C   0  0  0  0  0  0  0  0  0  0  0  0
  -25.4083  -28.4073   19.3822 C   0  0  0  0  0  0  0  0  0  0  0  0
  -23.7666   -9.0897   20.1436 C   0  0  0  0  0  0  0  0  0  0  0  0
  -23.6986   -7.7469   20.5147 C   0  0  0  0  0  0  0  0  0  0  0  0
  -30.8822  -22.2545   16.3939 C   0  0  0  0  0  0  0  0  0  0  0  0
  -26.2778  -29.0875   21.5271 C   0  0  0  0  0  0  0  0  0  0  0  0
  -22.2025   -8.3222   22.3224 C   0  0  0  0  0  0  0  0  0  0  0  0
  -26.8473  -13.2088   20.5361 C   0  0  0  0  0  0  0  0  0  0  0  0
  -29.3487  -13.3239   20.0491 C   0  0  0  0  0  0  0  0  0  0  0  0
  -29.6450  -33.7167   15.3442 C   0  0  0  0  0  0  0  0  0  0  0  0
  -25.7618  -30.7620   19.8568 C   0  0  0  0  0  0  0  0  0  0  0  0
  -29.4473  -32.7823   16.3788 C   0  0  0  0  0  0  0  0  0  0  0  0
  -29.5470  -22.3871   16.7752 C   0  0  0  0  0  0  0  0  0  0  0  0
  -26.2185  -30.4355   21.1417 C   0  0  0  0  0  0  0  0  0  0  0  0
  -29.0635  -21.6838   17.8784 C   0  0  0  0  0  0  0  0  0  0  0  0
  -31.7338  -21.4183   17.1158 C   0  0  0  0  0  0  0  0  0  0  0  0
  -31.2504  -20.7149   18.2191 C   0  0  0  0  0  0  0  0  0  0  0  0
  -29.9152  -20.8476   18.6004 C   0  0  0  0  0  0  0  0  0  0  0  0
  -24.3426  -11.9807   20.5066 C   0  0  0  0  0  0  0  0  0  0  0  0
  -25.8764  -28.0792   20.6512 C   0  0  0  0  0  0  0  0  0  0  0  0
  -23.0526  -10.0489   20.8620 C   0  0  0  0  0  0  0  0  0  0  0  0
  -22.9166   -7.3631   21.6040 C   0  0  0  0  0  0  0  0  0  0  0  0
  -22.2706   -9.6651   21.9513 C   0  0  0  0  0  0  0  0  0  0  0  0
  -28.1406  -13.8438   20.5510 C   0  0  0  0  0  0  0  0  0  0  0  0
  -30.2763  -14.3045   20.3030 C   0  0  0  0  0  0  0  0  0  0  0  0
  -29.6092  -12.0669   19.4105 C   0  0  0  0  0  0  0  0  0  0  0  0
  -28.0328  -32.9849   19.7863 C   0  0  0  0  0  0  0  0  0  0  0  0
  -26.5960  -33.9842   22.5175 C   0  0  0  0  0  0  0  0  0  0  0  0
  -24.6500  -33.2193   25.2146 C   0  0  0  0  0  0  0  0  0  0  0  0
  -29.8654  -20.2200   21.0396 C   0  0  0  0  0  0  0  0  0  0  0  0
  -30.0656  -35.1370   15.6277 C   0  0  0  0  0  0  0  0  0  0  0  0
  -25.6644  -32.1996   19.4254 C   0  0  0  0  0  0  0  0  0  0  0  0
  -26.6564  -31.4934   22.1203 C   0  0  0  0  0  0  0  0  0  0  0  0
  -29.8270  -35.5659   17.0732 C   0  0  0  0  0  0  0  0  0  0  0  0
  -31.2120  -17.8743   23.3551 C   0  0  0  0  0  0  0  0  0  0  0  0
  -27.8126  -22.7018   14.8865 C   0  0  0  0  0  0  0  0  0  0  0  0
  -28.9843  -23.5691   14.5470 C   0  0  0  0  0  0  0  0  0  0  0  0
  -30.3236  -34.4932   18.0373 C   0  0  0  0  0  0  0  0  0  0  0  0
  -30.6921  -16.5266   22.8496 C   0  0  0  0  0  0  0  0  0  0  0  0
  -27.1922  -21.8876   19.8252 C   0  0  0  0  0  0  0  0  0  0  0  0
  -26.8752  -23.2425   18.2159 C   0  0  0  0  0  0  0  0  0  0  0  0
  -30.1791  -18.9850   23.1730 C   0  0  0  0  0  0  0  0  0  0  0  0
  -29.1250  -17.7713   21.3062 C   0  0  0  0  0  0  0  0  0  0  0  0
  -28.6541  -23.2881   15.9889 C   0  0  0  0  0  0  0  0  0  0  0  0
  -27.5466  -21.8381   18.3074 C   0  0  0  0  0  0  0  0  0  0  0  0
  -29.5651  -33.1759   17.8353 C   0  0  1  0  0  0  0  0  0  0  0  0
  -26.5964  -33.1219   20.2053 C   0  0  1  0  0  0  0  0  0  0  0  0
  -30.1547  -16.6343   21.4090 C   0  0  2  0  0  0  0  0  0  0  0  0
  -26.0432  -22.8475   19.4536 C   0  0  0  0  0  0  0  0  0  0  0  0
  -33.1593  -21.2943   16.6869 C   0  0  0  0  0  0  0  0  0  0  0  0
  -32.1691  -19.8182   18.9890 C   0  0  0  0  0  0  0  0  0  0  0  0
  -23.6799  -34.2336   27.2949 C   0  0  0  0  0  0  0  0  0  0  0  0
  -24.4115  -25.5860   22.4762 C   0  0  0  0  0  0  0  0  0  0  0  0
  -29.3307  -33.8350   23.8626 C   0  0  0  0  0  0  0  0  0  0  0  0
  -28.1680  -33.9202   26.0783 C   0  0  0  0  0  0  0  0  0  0  0  0
  -27.9664  -35.8344   24.4915 C   0  0  0  0  0  0  0  0  0  0  0  0
  -21.8786  -32.7077   24.3111 C   0  0  0  0  0  0  0  0  0  0  0  0
  -24.7998  -24.9108   20.0395 C   0  0  0  0  0  0  0  0  0  0  0  0
  -26.7569  -33.6727   23.9858 C   0  0  1  0  0  0  0  0  0  0  0  0
  -23.4510  -33.9234   25.8237 C   0  0  2  0  0  0  0  0  0  0  0  0
  -24.7123  -26.0451   21.0554 C   0  0  2  0  0  0  0  0  0  1  0  0
  -28.0491  -34.2953   24.5857 C   0  0  0  0  0  0  0  0  0  0  0  0
  -28.2845  -15.0602   21.0836 N   0  0  0  0  0  0  0  0  0  0  0  0
  -29.5940  -15.3128   20.9179 N   0  0  0  0  0  0  0  0  0  0  0  0
  -26.5484  -32.8842   21.6494 N   0  0  0  0  0  0  0  0  0  0  0  0
  -29.7186  -19.0301   21.7835 N   0  0  0  0  0  0  0  0  0  0  0  0
  -31.6008  -14.3940   20.0581 N   0  0  0  0  0  0  0  0  0  0  0  0
  -28.5424  -11.1763   19.2283 N   0  0  0  0  0  0  0  0  0  0  0  0
  -29.4217  -20.1338   19.7204 N   0  0  0  0  0  0  0  0  0  0  0  0
  -28.2560  -33.2475   18.4481 N   0  0  0  0  0  0  0  0  0  0  0  0
  -25.5256  -34.1119   24.6335 N   0  0  0  0  0  0  0  0  0  0  0  0
  -25.8612  -23.9423   20.4114 N   0  3  0  0  0  0  0  0  0  0  0  0
  -22.2348  -33.0701   25.7071 N   0  3  0  0  0  0  0  0  0  0  0  0
  -30.7571  -11.7362   19.0280 O   0  0  0  0  0  0  0  0  0  0  0  0
  -28.8764  -32.6660   20.6159 O   0  0  0  0  0  0  0  0  0  0  0  0
  -26.5085  -35.1600   22.1548 O   0  0  0  0  0  0  0  0  0  0  0  0
  -24.7970  -31.9997   25.2539 O   0  0  0  0  0  0  0  0  0  0  0  0
  -30.3741  -21.2322   21.5282 O   0  0  0  0  0  0  0  0  0  0  0  0
  -23.1205  -11.3816   20.4918 O   0  0  0  0  0  0  0  0  0  0  0  0
  -25.9377  -26.7762   21.0390 O   0  0  0  0  0  0  0  0  0  1  0  0
  -22.8501   -6.0733   21.9593 F   0  0  0  0  0  0  0  0  0  0  0  0
  -21.5815  -10.5818   22.6446 F   0  0  0  0  0  0  0  0  0  0  0  0
  1  2  1  0  0  0  0
  1  5  2  0  0  0  0
  2  6  2  0  0  0  0
  3  8  2  0  0  0  0
  3 16  1  0  0  0  0
  4  9  1  0  0  0  0
  4 16  2  0  0  0  0
  5 18  1  0  0  0  0
  6 20  1  0  0  0  0
  7 10  2  0  0  0  0
  7 19  1  0  0  0  0
  8 27  1  0  0  0  0
  9 27  2  0  0  0  0
 10 28  1  0  0  0  0
 11 12  2  0  0  0  0
 11 29  1  0  0  0  0
 12 30  1  0  0  0  0
 13 21  2  0  0  0  0
 13 24  1  0  0  0  0
 14 22  1  0  0  0  0
 14 28  2  0  0  0  0
 15 30  2  0  0  0  0
 15 31  1  0  0  0  0
 16 32  1  0  0  0  0
 17 32  1  0  0  0  0
 17 33  2  0  0  0  0
 17 34  1  0  0  0  0
 18 20  2  0  0  0  0
 18 39  1  0  0  0  0
 19 22  2  0  0  0  0
 19 40  1  0  0  0  0
 20 54  1  0  0  0  0
 21 23  1  0  0  0  0
 21 52  1  0  0  0  0
 22 41  1  0  0  0  0
 23 26  2  0  0  0  0
 23 53  1  0  0  0  0
 24 25  2  0  0  0  0
 24 58  1  0  0  0  0
 25 26  1  0  0  0  0
 25 59  1  0  0  0  0
 26 77  1  0  0  0  0
 27 87  1  0  0  0  0
 28 88  1  0  0  0  0
 29 31  2  0  0  0  0
 29 87  1  0  0  0  0
 30 89  1  0  0  0  0
 31 90  1  0  0  0  0
 32 71  2  0  0  0  0
 33 72  1  0  0  0  0
 33 75  1  0  0  0  0
 34 76  1  0  0  0  0
 34 82  2  0  0  0  0
 35 55  1  0  0  0  0
 35 78  1  0  0  0  0
 35 83  2  0  0  0  0
 36 67  1  0  0  0  0
 36 73  1  0  0  0  0
 36 84  2  0  0  0  0
 37 68  1  0  0  0  0
 37 79  1  0  0  0  0
 37 85  2  0  0  0  0
 38 74  1  0  0  0  0
 38 77  1  0  0  0  0
 38 86  2  0  0  0  0
 39 42  1  0  0  0  0
 40 55  1  0  0  0  0
 41 73  1  0  0  0  0
 42 46  1  0  0  0  0
 43 47  1  0  0  0  0
 43 50  1  0  0  0  0
 44 45  1  0  0  0  0
 44 52  1  0  0  0  0
 45 52  1  0  0  0  0
 46 54  1  0  0  0  0
 47 56  1  0  0  0  0
 48 53  1  0  0  0  0
 48 57  1  0  0  0  0
 49 53  1  0  0  0  0
 49 57  1  0  0  0  0
 50 74  1  0  0  0  0
 51 56  1  0  0  0  0
 51 74  1  0  0  0  0
 54 78  1  0  0  0  0
 55 73  1  0  0  0  0
 56 72  1  0  0  0  0
 57 80  1  0  0  0  0
 60 68  1  0  0  0  0
 61 69  1  0  0  0  0
 62 70  1  0  0  0  0
 63 70  1  0  0  0  0
 64 70  1  0  0  0  0
 65 81  1  0  0  0  0
 66 69  1  0  0  0  0
 66 80  1  0  0  0  0
 67 70  1  0  0  0  0
 67 79  1  0  0  0  0
 68 81  1  0  0  0  0
 69 88  1  0  0  0  0
 71 72  1  0  0  0  0
M  CHG  2  80   1  81   1
M  ISO  4  38 100  69 101  77 100  88 101
M  END
> <Batch ID>
0168

> <Smiles>
CNC(C)C(=O)NC(C(=O)N1Cc2cc([101O:1][101CH:1](C)CNC3CC(c4c(C5CC5)cc(C)c(C)c4[100NH:0][100C:0](=O)N4CCCC(n5nc(-c6ccc(Oc7ccc(F)cc7F)cc6)c(C(N)=O)c5N)C4)C3)ccc2CC1C(=O)NC1CCCc2ccccc21)C(C)(C)C

> <Shape>
0.243

> <Color>
0.087

> <Negative vol penalty>
0.000

$$$$

  -OEChem-04052322303D

 88 97  0     1  0  0  0  0  0999 V2000
  -20.9029  -27.1953   22.8580 C   0  0  0  0  0  0  0  0  0  0  0  0
  -21.6186  -26.0222   22.6417 C   0  0  0  0  0  0  0  0  0  0  0  0
  -21.1849  -19.5783   24.3487 C   0  0  0  0  0  0  0  0  0  0  0  0
  -23.5766  -19.9162   24.4019 C   0  0  0  0  0  0  0  0  0  0  0  0
  -21.2683  -28.3659   22.1946 C   0  0  0  0  0  0  0  0  0  0  0  0
  -22.6997  -26.0187   21.7609 C   0  0  0  0  0  0  0  0  0  0  0  0
  -27.8502  -22.7442   22.2670 C   0  0  0  0  0  0  0  0  0  0  0  0
  -21.0490  -20.3594   25.4962 C   0  0  0  0  0  0  0  0  0  0  0  0
  -23.4407  -20.6975   25.5494 C   0  0  0  0  0  0  0  0  0  0  0  0
  -28.2597  -21.5445   21.6868 C   0  0  0  0  0  0  0  0  0  0  0  0
  -20.0348  -22.5622   28.2044 C   0  0  0  0  0  0  0  0  0  0  0  0
  -19.0164  -23.5152   28.2233 C   0  0  0  0  0  0  0  0  0  0  0  0
  -29.1108  -15.2411   19.6290 C   0  0  0  0  0  0  0  0  0  0  0  0
  -29.4278  -22.7783   19.9744 C   0  0  0  0  0  0  0  0  0  0  0  0
  -31.6149  -14.0158   19.7329 C   0  0  0  0  0  0  0  0  0  0  0  0
  -19.9977  -24.6018   26.3013 C   0  0  0  0  0  0  0  0  0  0  0  0
  -22.4488  -19.3566   23.8016 C   0  0  0  0  0  0  0  0  0  0  0  0
  -22.5577  -18.9888   21.2796 C   0  0  0  0  0  0  0  0  0  0  0  0
  -22.3603  -28.3791   21.3126 C   0  0  0  0  0  0  0  0  0  0  0  0
  -28.2179  -23.9720   21.6980 C   0  0  0  0  0  0  0  0  0  0  0  0
  -23.0792  -27.1902   21.0840 C   0  0  0  0  0  0  0  0  0  0  0  0
  -30.2686  -16.0189   19.6221 C   0  0  0  0  0  0  0  0  0  0  0  0
  -29.0238  -23.9923   20.5507 C   0  0  0  0  0  0  0  0  0  0  0  0
  -29.2050  -13.8507   19.6878 C   0  0  0  0  0  0  0  0  0  0  0  0
  -30.4571  -13.2380   19.7398 C   0  0  0  0  0  0  0  0  0  0  0  0
  -22.1768  -20.9191   26.0966 C   0  0  0  0  0  0  0  0  0  0  0  0
  -29.0463  -21.5614   20.5387 C   0  0  0  0  0  0  0  0  0  0  0  0
  -21.0346  -22.6290   27.2341 C   0  0  0  0  0  0  0  0  0  0  0  0
  -31.5207  -15.4063   19.6741 C   0  0  0  0  0  0  0  0  0  0  0  0
  -18.9979  -24.5350   27.2717 C   0  0  0  0  0  0  0  0  0  0  0  0
  -21.0161  -23.6488   26.2825 C   0  0  0  0  0  0  0  0  0  0  0  0
  -22.5899  -18.5492   22.6165 C   0  0  0  0  0  0  0  0  0  0  0  0
  -22.7365  -17.8466   20.5381 C   0  0  0  0  0  0  0  0  0  0  0  0
  -22.3820  -20.3115   20.7548 C   0  0  0  0  0  0  0  0  0  0  0  0
  -26.6355  -26.4237   20.4374 C   0  0  0  0  0  0  0  0  0  0  0  0
  -25.6826  -12.8459   20.7846 C   0  0  0  0  0  0  0  0  0  0  0  0
  -29.5852  -27.7691   20.3305 C   0  0  0  0  0  0  0  0  0  0  0  0
  -32.9682  -27.3299   20.2353 C   0  0  0  0  0  0  0  0  0  0  0  0
  -22.6883  -29.6573   20.5824 C   0  0  0  0  0  0  0  0  0  0  0  0
  -27.7902  -25.2576   22.3513 C   0  0  0  0  0  0  0  0  0  0  0  0
  -29.4626  -25.2840   19.9126 C   0  0  0  0  0  0  0  0  0  0  0  0
  -24.0781  -29.6586   19.9510 C   0  0  0  0  0  0  0  0  0  0  0  0
  -22.1510  -13.0164   21.3665 C   0  0  0  0  0  0  0  0  0  0  0  0
  -29.4165  -17.9615   18.2753 C   0  0  0  0  0  0  0  0  0  0  0  0
  -24.3257  -28.3528   19.2024 C   0  0  0  0  0  0  0  0  0  0  0  0
  -21.9049  -14.4977   21.6498 C   0  0  0  0  0  0  0  0  0  0  0  0
  -28.1945  -18.7540   18.7418 C   0  0  0  0  0  0  0  0  0  0  0  0
  -23.5005  -12.5602   21.9121 C   0  0  0  0  0  0  0  0  0  0  0  0
  -24.4145  -14.8500   21.7048 C   0  0  0  0  0  0  0  0  0  0  0  0
  -30.1490  -17.5052   19.5571 C   0  0  1  0  0  0  0  0  0  0  0  0
  -24.2733  -27.1523   20.1551 C   0  0  1  0  0  0  0  0  0  0  0  0
  -27.7946  -26.4449   21.3933 C   0  0  1  0  0  0  0  0  0  0  0  0
  -29.3060  -18.0614   20.7315 C   0  0  2  0  0  0  0  0  0  0  0  0
  -23.0752  -15.3592   21.1432 C   0  0  2  0  0  0  0  0  0  0  0  0
  -28.5830  -19.2662   20.1221 C   0  0  1  0  0  0  0  0  0  1  0  0
  -30.5819  -11.7513   19.8052 C   0  0  0  0  0  0  0  0  0  0  0  0
  -30.1485  -18.3820   21.9597 C   0  0  0  0  0  0  0  0  0  0  0  0
  -35.1191  -28.6168   20.1138 C   0  0  0  0  0  0  0  0  0  0  0  0
  -29.1026  -28.2910   17.3632 C   0  0  0  0  0  0  0  0  0  0  0  0
  -31.5619  -28.6811   17.1032 C   0  0  0  0  0  0  0  0  0  0  0  0
  -30.2148  -30.1683   18.5852 C   0  0  0  0  0  0  0  0  0  0  0  0
  -33.8916  -26.2573   22.8345 C   0  0  0  0  0  0  0  0  0  0  0  0
  -33.8981  -15.4432   19.7244 C   0  0  0  0  0  0  0  0  0  0  0  0
  -26.7552  -13.7928   20.3083 C   0  0  0  0  0  0  0  0  0  0  0  0
  -27.9512  -13.0392   19.6963 C   0  0  1  0  0  0  0  0  0  0  0  0
  -30.7097  -27.8015   19.3237 C   0  0  1  0  0  0  0  0  0  0  0  0
  -34.0902  -27.9731   21.0302 C   0  0  2  0  0  0  0  0  0  0  0  0
  -30.3875  -28.7109   18.1045 C   0  0  0  0  0  0  0  0  0  0  0  0
  -22.7744  -17.2305   22.7214 N   0  0  0  0  0  0  0  0  0  0  0  0
  -22.8597  -16.8317   21.4409 N   0  0  0  0  0  0  0  0  0  0  0  0
  -29.0135  -26.5144   20.5849 N   0  0  0  0  0  0  0  0  0  0  0  0
  -24.5832  -13.4172   21.4257 N   0  0  0  0  0  0  0  0  0  0  0  0
  -22.7986  -17.6213   19.2085 N   0  0  0  0  0  0  0  0  0  0  0  0
  -22.2115  -21.3709   21.6565 N   0  0  0  0  0  0  0  0  0  0  0  0
  -25.5021  -27.0548   20.9133 N   0  0  0  0  0  0  0  0  0  0  0  0
  -31.9065  -28.1922   20.0609 N   0  0  0  0  0  0  0  0  0  0  0  0
  -27.5533  -12.5720   18.3209 N   0  3  0  0  0  0  0  0  0  0  0  0
  -34.7810  -26.9535   21.8694 N   0  3  0  0  0  0  0  0  0  0  0  0
  -22.3599  -20.5447   19.5224 O   0  0  0  0  0  0  0  0  0  0  0  0
  -26.7607  -25.8765   19.3480 O   0  0  0  0  0  0  0  0  0  0  0  0
  -25.8181  -11.6353   20.5892 O   0  0  0  0  0  0  0  0  0  0  0  0
  -29.2320  -28.8174   20.8765 O   0  0  0  0  0  0  0  0  0  0  0  0
  -33.0292  -26.1790   19.8083 O   0  0  0  0  0  0  0  0  0  0  0  0
  -22.0445  -21.6817   27.2162 O   0  0  0  0  0  0  0  0  0  0  0  0
  -29.4469  -20.3918   19.9700 O   0  0  0  0  0  0  0  0  0  1  0  0
  -32.6614  -16.1513   19.6689 O   0  0  0  0  0  0  0  0  0  0  0  0
  -18.0190  -25.4492   27.2890 F   0  0  0  0  0  0  0  0  0  0  0  0
  -21.9732  -23.7174   25.3472 F   0  0  0  0  0  0  0  0  0  0  0  0
  1  2  1  0  0  0  0
  1  5  2  0  0  0  0
  2  6  2  0  0  0  0
  3  8  2  0  0  0  0
  3 17  1  0  0  0  0
  4  9  1  0  0  0  0
  4 17  2  0  0  0  0
  5 19  1  0  0  0  0
  6 21  1  0  0  0  0
  7 10  2  0  0  0  0
  7 20  1  0  0  0  0
  8 26  1  0  0  0  0
  9 26  2  0  0  0  0
 10 27  1  0  0  0  0
 11 12  2  0  0  0  0
 11 28  1  0  0  0  0
 12 30  1  0  0  0  0
 13 22  1  0  0  0  0
 13 24  2  0  0  0  0
 14 23  1  0  0  0  0
 14 27  2  0  0  0  0
 15 25  2  0  0  0  0
 15 29  1  0  0  0  0
 16 30  2  0  0  0  0
 16 31  1  0  0  0  0
 17 32  1  0  0  0  0
 18 32  1  0  0  0  0
 18 33  2  0  0  0  0
 18 34  1  0  0  0  0
 19 21  2  0  0  0  0
 19 39  1  0  0  0  0
 20 23  2  0  0  0  0
 20 40  1  0  0  0  0
 21 51  1  0  0  0  0
 22 29  2  0  0  0  0
 22 50  1  0  0  0  0
 23 41  1  0  0  0  0
 24 25  1  0  0  0  0
 24 65  1  0  0  0  0
 25 56  1  0  0  0  0
 26 84  1  0  0  0  0
 27 85  1  0  0  0  0
 28 31  2  0  0  0  0
 28 84  1  0  0  0  0
 29 86  1  0  0  0  0
 30 87  1  0  0  0  0
 31 88  1  0  0  0  0
 32 69  2  0  0  0  0
 33 70  1  0  0  0  0
 33 73  1  0  0  0  0
 34 74  1  0  0  0  0
 34 79  2  0  0  0  0
 35 52  1  0  0  0  0
 35 75  1  0  0  0  0
 35 80  2  0  0  0  0
 36 64  1  0  0  0  0
 36 72  1  0  0  0  0
 36 81  2  0  0  0  0
 37 66  1  0  0  0  0
 37 71  1  0  0  0  0
 37 82  2  0  0  0  0
 38 67  1  0  0  0  0
 38 76  1  0  0  0  0
 38 83  2  0  0  0  0
 39 42  1  0  0  0  0
 40 52  1  0  0  0  0
 41 71  1  0  0  0  0
 42 45  1  0  0  0  0
 43 46  1  0  0  0  0
 43 48  1  0  0  0  0
 44 47  1  0  0  0  0
 44 50  1  0  0  0  0
 45 51  1  0  0  0  0
 46 54  1  0  0  0  0
 47 55  1  0  0  0  0
 48 72  1  0  0  0  0
 49 54  1  0  0  0  0
 49 72  1  0  0  0  0
 50 53  1  0  0  0  0
 51 75  1  0  0  0  0
 52 71  1  0  0  0  0
 53 55  1  0  0  0  0
 53 57  1  0  0  0  0
 54 70  1  0  0  0  0
 55 85  1  0  0  0  0
 58 67  1  0  0  0  0
 59 68  1  0  0  0  0
 60 68  1  0  0  0  0
 61 68  1  0  0  0  0
 62 78  1  0  0  0  0
 63 86  1  0  0  0  0
 64 65  1  0  0  0  0
 65 77  1  0  0  0  0
 66 68  1  0  0  0  0
 66 76  1  0  0  0  0
 67 78  1  0  0  0  0
 69 70  1  0  0  0  0
M  CHG  2  77   1  78   1
M  ISO  4  36 100  55 101  64 100  85 101
M  END
> <Batch ID>
0168

> <Smiles>
CNC(C)C(=O)NC(C(=O)N1Cc2cc([101O:1][101CH:1]3CCC(c4cc(C(N)[100CH2:0][100C:0](=O)N5CCCC(n6nc(-c7ccc(Oc8ccc(F)cc8F)cc7)c(C(N)=O)c6N)C5)c(C)cc4OC)C3C)ccc2CC1C(=O)NC1CCCc2ccccc21)C(C)(C)C

> <Shape>
0.236

> <Color>
0.038

> <Negative vol penalty>
0.000

$$$$

  -OEChem-04052322303D

 86 94  0     1  0  0  0  0  0999 V2000
  -25.7284  -20.5178   14.1684 C   0  0  0  0  0  0  0  0  0  0  0  0
  -25.1820  -21.5823   14.8782 C   0  0  0  0  0  0  0  0  0  0  0  0
  -25.4946  -17.7326   22.7340 C   0  0  0  0  0  0  0  0  0  0  0  0
  -24.5670  -18.8035   20.7769 C   0  0  0  0  0  0  0  0  0  0  0  0
  -26.8132  -19.8159   14.6922 C   0  0  0  0  0  0  0  0  0  0  0  0
  -25.7195  -21.9448   16.1127 C   0  0  0  0  0  0  0  0  0  0  0  0
  -26.1579  -27.6010   18.4194 C   0  0  0  0  0  0  0  0  0  0  0  0
  -25.7556  -16.5865   21.9831 C   0  0  0  0  0  0  0  0  0  0  0  0
  -24.8281  -17.6573   20.0260 C   0  0  0  0  0  0  0  0  0  0  0  0
  -25.3725  -28.3060   19.3303 C   0  0  0  0  0  0  0  0  0  0  0  0
  -26.3377  -13.2479   20.6645 C   0  0  0  0  0  0  0  0  0  0  0  0
  -26.0064  -12.0143   21.2248 C   0  0  0  0  0  0  0  0  0  0  0  0
  -26.8676  -27.6605   21.1099 C   0  0  0  0  0  0  0  0  0  0  0  0
  -23.6932  -12.6981   21.3624 C   0  0  0  0  0  0  0  0  0  0  0  0
  -24.9002  -18.8411   22.1309 C   0  0  0  0  0  0  0  0  0  0  0  0
  -25.4848  -21.1260   23.1030 C   0  0  0  0  0  0  0  0  0  0  0  0
  -27.3704  -20.1760   15.9294 C   0  0  0  0  0  0  0  0  0  0  0  0
  -27.3000  -26.9103   18.8494 C   0  0  0  0  0  0  0  0  0  0  0  0
  -26.8119  -21.2461   16.6542 C   0  0  0  0  0  0  0  0  0  0  0  0
  -27.6673  -26.9496   20.2021 C   0  0  0  0  0  0  0  0  0  0  0  0
  -25.4224  -16.5488   20.6292 C   0  0  0  0  0  0  0  0  0  0  0  0
  -25.7256  -28.3335   20.6763 C   0  0  0  0  0  0  0  0  0  0  0  0
  -25.3468  -14.2067   20.4532 C   0  0  0  0  0  0  0  0  0  0  0  0
  -24.6841  -11.7393   21.5737 C   0  0  0  0  0  0  0  0  0  0  0  0
  -24.0246  -13.9317   20.8021 C   0  0  0  0  0  0  0  0  0  0  0  0
  -24.6297  -20.0251   22.9061 C   0  0  0  0  0  0  0  0  0  0  0  0
  -24.7682  -21.9778   23.9077 C   0  0  0  0  0  0  0  0  0  0  0  0
  -26.8084  -21.3580   22.6031 C   0  0  0  0  0  0  0  0  0  0  0  0
  -28.2106  -23.8648   18.8540 C   0  0  0  0  0  0  0  0  0  0  0  0
  -31.0082  -25.1081   19.9264 C   0  0  0  0  0  0  0  0  0  0  0  0
  -22.7746  -29.2541   22.5772 C   0  0  0  0  0  0  0  0  0  0  0  0
  -32.6265  -27.6663   21.5023 C   0  0  0  0  0  0  0  0  0  0  0  0
  -19.3389  -23.7823   24.7913 C   0  0  0  0  0  0  0  0  0  0  0  0
  -28.5127  -19.3575   16.4769 C   0  0  0  0  0  0  0  0  0  0  0  0
  -28.1516  -26.1766   17.8499 C   0  0  0  0  0  0  0  0  0  0  0  0
  -28.8951  -26.2414   20.7113 C   0  0  0  0  0  0  0  0  0  0  0  0
  -29.2612  -20.0427   17.6173 C   0  0  0  0  0  0  0  0  0  0  0  0
  -20.9272  -21.4642   26.9778 C   0  0  0  0  0  0  0  0  0  0  0  0
  -28.2778  -20.6202   18.6304 C   0  0  0  0  0  0  0  0  0  0  0  0
  -22.1234  -20.9592   26.1690 C   0  0  0  0  0  0  0  0  0  0  0  0
  -18.7316  -28.3654   21.9362 C   0  0  0  0  0  0  0  0  0  0  0  0
  -19.7078  -21.7058   26.0908 C   0  0  0  0  0  0  0  0  0  0  0  0
  -21.1450  -22.0823   24.1245 C   0  0  0  0  0  0  0  0  0  0  0  0
  -27.3828  -21.6852   17.9852 C   0  0  1  0  0  0  0  0  0  0  0  0
  -29.0073  -25.0833   18.4823 C   0  0  1  0  0  0  0  0  0  0  0  0
  -19.4388  -28.3464   23.2984 C   0  0  1  0  0  0  0  0  0  0  0  0
  -17.7208  -27.2134   21.7800 C   0  0  2  0  0  0  0  0  0  0  0  0
  -22.4156  -21.8775   24.9672 C   0  0  2  0  0  0  0  0  0  0  0  0
  -19.0990  -25.8223   23.3986 C   0  0  1  0  0  0  0  0  0  0  0  0
  -20.1039  -26.9813   23.5338 C   0  0  2  0  0  0  0  0  0  0  0  0
  -18.3759  -25.8061   22.0089 C   0  0  0  0  0  0  0  0  0  0  0  0
  -16.9929  -27.3744   20.4382 C   0  0  0  0  0  0  0  0  0  0  0  0
  -19.3561  -25.4447   20.8688 C   0  0  0  0  0  0  0  0  0  0  0  0
  -17.2732  -24.7191   22.0364 C   0  0  0  0  0  0  0  0  0  0  0  0
  -34.9077  -28.3808   22.2658 C   0  0  0  0  0  0  0  0  0  0  0  0
  -30.8319  -23.1598   22.2679 C   0  0  0  0  0  0  0  0  0  0  0  0
  -32.5584  -24.5339   23.4508 C   0  0  0  0  0  0  0  0  0  0  0  0
  -33.1209  -23.4151   21.2933 C   0  0  0  0  0  0  0  0  0  0  0  0
  -32.5795  -30.0689   19.7747 C   0  0  0  0  0  0  0  0  0  0  0  0
  -23.5725  -29.1303   21.2967 C   0  0  0  0  0  0  0  0  0  1  0  0
  -20.4325  -29.5103   23.3737 C   0  0  0  0  0  0  0  0  0  0  0  0
  -31.5866  -25.4246   21.2844 C   0  0  1  0  0  0  0  0  0  0  0  0
  -33.8844  -28.4361   21.1422 C   0  0  2  0  0  0  0  0  0  0  0  0
  -32.0002  -24.1452   22.0652 C   0  0  0  0  0  0  0  0  0  0  0  0
  -23.4595  -20.1622   23.5352 N   0  0  0  0  0  0  0  0  0  0  0  0
  -23.5741  -21.3592   24.1353 N   0  0  0  0  0  0  0  0  0  0  0  0
  -29.6918  -25.5326   19.6963 N   0  0  0  0  0  0  0  0  0  0  0  0
  -20.0518  -22.5854   24.9711 N   0  0  0  0  0  0  0  0  0  0  0  0
  -25.0493  -23.1879   24.4358 N   0  0  0  0  0  0  0  0  0  0  0  0
  -27.3965  -20.3797   21.7899 N   0  0  0  0  0  0  0  0  0  0  0  0
  -28.1041  -22.9315   17.8406 N   0  0  0  0  0  0  0  0  0  0  0  0
  -21.4019  -29.3775   22.3413 N   0  0  0  0  0  0  0  0  0  0  0  0
  -32.6792  -26.3634   21.0541 N   0  0  0  0  0  0  0  0  0  0  0  0
  -19.7329  -24.5605   23.7098 N   0  0  0  0  0  0  0  0  0  0  0  0
  -20.6918  -26.9465   24.9083 N   0  3  0  0  0  0  0  0  0  0  0  0
  -33.5581  -29.8653   20.8737 N   0  3  0  0  0  0  0  0  0  0  0  0
  -27.4569  -22.3946   22.8831 O   0  0  0  0  0  0  0  0  0  0  0  0
  -27.7293  -23.7772   19.9776 O   0  0  0  0  0  0  0  0  0  0  0  0
  -31.7013  -24.5128   19.0977 O   0  0  0  0  0  0  0  0  0  0  0  0
  -23.2966  -29.2461   23.6886 O   0  0  0  0  0  0  0  0  0  0  0  0
  -31.6923  -28.1694   22.1225 O   0  0  0  0  0  0  0  0  0  0  0  0
  -18.4228  -24.1339   25.5424 O   0  0  0  0  0  0  0  0  0  0  0  0
  -25.6772  -15.4307   19.8961 O   0  0  0  0  0  0  0  0  0  0  0  0
  -24.9524  -29.0274   21.5768 O   0  0  0  0  0  0  0  0  0  1  0  0
  -24.3659  -10.5540   22.1103 F   0  0  0  0  0  0  0  0  0  0  0  0
  -23.0681  -14.8484   20.6004 F   0  0  0  0  0  0  0  0  0  0  0  0
  1  2  1  0  0  0  0
  1  5  2  0  0  0  0
  2  6  2  0  0  0  0
  3  8  2  0  0  0  0
  3 15  1  0  0  0  0
  4  9  1  0  0  0  0
  4 15  2  0  0  0  0
  5 17  1  0  0  0  0
  6 19  1  0  0  0  0
  7 10  2  0  0  0  0
  7 18  1  0  0  0  0
  8 21  1  0  0  0  0
  9 21  2  0  0  0  0
 10 22  1  0  0  0  0
 11 12  2  0  0  0  0
 11 23  1  0  0  0  0
 12 24  1  0  0  0  0
 13 20  1  0  0  0  0
 13 22  2  0  0  0  0
 14 24  2  0  0  0  0
 14 25  1  0  0  0  0
 15 26  1  0  0  0  0
 16 26  1  0  0  0  0
 16 27  2  0  0  0  0
 16 28  1  0  0  0  0
 17 19  2  0  0  0  0
 17 34  1  0  0  0  0
 18 20  2  0  0  0  0
 18 35  1  0  0  0  0
 19 44  1  0  0  0  0
 20 36  1  0  0  0  0
 21 83  1  0  0  0  0
 22 84  1  0  0  0  0
 23 25  2  0  0  0  0
 23 83  1  0  0  0  0
 24 85  1  0  0  0  0
 25 86  1  0  0  0  0
 26 65  2  0  0  0  0
 27 66  1  0  0  0  0
 27 69  1  0  0  0  0
 28 70  1  0  0  0  0
 28 77  2  0  0  0  0
 29 45  1  0  0  0  0
 29 71  1  0  0  0  0
 29 78  2  0  0  0  0
 30 62  1  0  0  0  0
 30 67  1  0  0  0  0
 30 79  2  0  0  0  0
 31 60  1  0  0  0  0
 31 72  1  0  0  0  0
 31 80  2  0  0  0  0
 32 63  1  0  0  0  0
 32 73  1  0  0  0  0
 32 81  2  0  0  0  0
 33 68  1  0  0  0  0
 33 74  1  0  0  0  0
 33 82  2  0  0  0  0
 34 37  1  0  0  0  0
 35 45  1  0  0  0  0
 36 67  1  0  0  0  0
 37 39  1  0  0  0  0
 38 40  1  0  0  0  0
 38 42  1  0  0  0  0
 39 44  1  0  0  0  0
 40 48  1  0  0  0  0
 41 46  1  0  0  0  0
 41 47  1  0  0  0  0
 42 68  1  0  0  0  0
 43 48  1  0  0  0  0
 43 68  1  0  0  0  0
 44 71  1  0  0  0  0
 45 67  1  0  0  0  0
 46 50  1  0  0  0  0
 46 61  1  0  0  0  0
 47 51  1  0  0  0  0
 47 52  1  0  0  0  0
 48 66  1  0  0  0  0
 49 50  1  0  0  0  0
 49 51  1  0  0  0  0
 49 74  1  0  0  0  0
 50 75  1  0  0  0  0
 51 53  1  0  0  0  0
 51 54  1  0  0  0  0
 55 63  1  0  0  0  0
 56 64  1  0  0  0  0
 57 64  1  0  0  0  0
 58 64  1  0  0  0  0
 59 76  1  0  0  0  0
 60 84  1  0  0  0  0
 61 72  1  0  0  0  0
 62 64  1  0  0  0  0
 62 73  1  0  0  0  0
 63 76  1  0  0  0  0
 65 66  1  0  0  0  0
M  CHG  2  75   1  76   1
M  ISO  4  33 100  60 101  74 100  84 101
M  END
> <Batch ID>
0168

> <Smiles>
CNC(C)C(=O)NC(C(=O)N1Cc2cc([101O:1][101CH2:1]C(=O)NCC3CC(C)C(C)(C)C([100NH:0][100C:0](=O)N4CCCC(n5nc(-c6ccc(Oc7ccc(F)cc7F)cc6)c(C(N)=O)c5N)C4)C3N)ccc2CC1C(=O)NC1CCCc2ccccc21)C(C)(C)C

> <Shape>
0.187

> <Color>
0.082

> <Negative vol penalty>
0.000

$$$$

  -OEChem-04052322303D

 89 98  0     1  0  0  0  0  0999 V2000
  -32.8214  -27.5835   15.2559 C   0  0  0  0  0  0  0  0  0  0  0  0
  -31.6063  -26.9137   15.3573 C   0  0  0  0  0  0  0  0  0  0  0  0
  -23.8481   -9.7362   22.1224 C   0  0  0  0  0  0  0  0  0  0  0  0
  -22.3856  -10.0327   20.2224 C   0  0  0  0  0  0  0  0  0  0  0  0
  -33.4003  -28.1505   16.3905 C   0  0  0  0  0  0  0  0  0  0  0  0
  -30.9699  -26.8095   16.5936 C   0  0  0  0  0  0  0  0  0  0  0  0
  -24.9363  -26.8382   17.6424 C   0  0  0  0  0  0  0  0  0  0  0  0
  -23.5185   -8.3815   22.1647 C   0  0  0  0  0  0  0  0  0  0  0  0
  -22.0560   -8.6780   20.2646 C   0  0  0  0  0  0  0  0  0  0  0  0
  -24.0167  -25.8126   17.8575 C   0  0  0  0  0  0  0  0  0  0  0  0
  -22.7850   -4.9182   22.9963 C   0  0  0  0  0  0  0  0  0  0  0  0
  -22.4974   -4.3578   24.2408 C   0  0  0  0  0  0  0  0  0  0  0  0
  -24.5408  -21.3080   18.1965 C   0  0  0  0  0  0  0  0  0  0  0  0
  -24.2484  -26.1125   20.2398 C   0  0  0  0  0  0  0  0  0  0  0  0
  -24.3545  -22.2535   15.5785 C   0  0  0  0  0  0  0  0  0  0  0  0
  -20.6686   -5.9120   24.5181 C   0  0  0  0  0  0  0  0  0  0  0  0
  -23.2816  -10.5618   21.1513 C   0  0  0  0  0  0  0  0  0  0  0  0
  -24.6748  -12.5584   20.3894 C   0  0  0  0  0  0  0  0  0  0  0  0
  -32.7659  -28.0615   17.6396 C   0  0  0  0  0  0  0  0  0  0  0  0
  -25.5280  -27.5025   18.7264 C   0  0  0  0  0  0  0  0  0  0  0  0
  -31.5415  -27.3746   17.7462 C   0  0  0  0  0  0  0  0  0  0  0  0
  -23.4797  -20.9080   17.3844 C   0  0  0  0  0  0  0  0  0  0  0  0
  -25.1732  -27.1480   20.0358 C   0  0  0  0  0  0  0  0  0  0  0  0
  -25.5088  -22.1808   17.6997 C   0  0  0  0  0  0  0  0  0  0  0  0
  -23.3865  -21.3807   16.0754 C   0  0  0  0  0  0  0  0  0  0  0  0
  -25.4157  -22.6536   16.3907 C   0  0  0  0  0  0  0  0  0  0  0  0
  -22.6224   -7.8524   21.2358 C   0  0  0  0  0  0  0  0  0  0  0  0
  -23.6748  -25.4476   19.1564 C   0  0  0  0  0  0  0  0  0  0  0  0
  -22.0144   -5.9757   22.5127 C   0  0  0  0  0  0  0  0  0  0  0  0
  -21.4392   -4.8546   25.0017 C   0  0  0  0  0  0  0  0  0  0  0  0
  -20.9562   -6.4725   23.2736 C   0  0  0  0  0  0  0  0  0  0  0  0
  -23.6213  -11.9614   21.1074 C   0  0  0  0  0  0  0  0  0  0  0  0
  -24.5710  -13.8974   20.6773 C   0  0  0  0  0  0  0  0  0  0  0  0
  -25.6592  -11.9564   19.5384 C   0  0  0  0  0  0  0  0  0  0  0  0
  -28.5022  -27.8463   19.7939 C   0  0  0  0  0  0  0  0  0  0  0  0
  -20.9946  -21.9754   18.6848 C   0  0  0  0  0  0  0  0  0  0  0  0
  -27.0982  -29.8810   21.8942 C   0  0  0  0  0  0  0  0  0  0  0  0
  -24.2719  -30.8430   23.5476 C   0  0  0  0  0  0  0  0  0  0  0  0
  -21.4990  -18.5095   21.3376 C   0  0  0  0  0  0  0  0  0  0  0  0
  -33.4535  -28.6493   18.8465 C   0  0  0  0  0  0  0  0  0  0  0  0
  -26.4980  -28.6247   18.4773 C   0  0  0  0  0  0  0  0  0  0  0  0
  -25.7647  -27.8436   21.2336 C   0  0  0  0  0  0  0  0  0  0  0  0
  -32.5309  -28.8184   20.0509 C   0  0  0  0  0  0  0  0  0  0  0  0
  -21.7733  -16.3157   24.1285 C   0  0  0  0  0  0  0  0  0  0  0  0
  -31.7064  -27.5545   20.2733 C   0  0  0  0  0  0  0  0  0  0  0  0
  -22.3593  -15.0353   23.5310 C   0  0  0  0  0  0  0  0  0  0  0  0
  -20.7992  -16.9928   23.1669 C   0  0  0  0  0  0  0  0  0  0  0  0
  -21.9278  -15.9797   21.2244 C   0  0  0  0  0  0  0  0  0  0  0  0
  -22.4594  -19.9788   17.9341 C   0  0  1  0  0  0  0  0  0  0  0  0
  -30.8084  -27.2619   19.0653 C   0  0  1  0  0  0  0  0  0  0  0  0
  -27.4258  -28.8861   19.6599 C   0  0  1  0  0  0  0  0  0  0  0  0
  -22.9587  -15.2910   22.1351 C   0  0  2  0  0  0  0  0  0  0  0  0
  -22.2715  -19.9007   19.4332 C   0  0  1  0  0  0  0  0  0  0  0  0
  -21.1777  -20.4983   18.5715 C   0  0  1  0  0  0  0  0  0  0  0  0
  -26.6362  -22.5952   18.5874 C   0  0  0  0  0  0  0  0  0  0  0  0
  -22.2606  -20.9665   15.1855 C   0  0  0  0  0  0  0  0  0  0  0  0
  -26.4404  -23.5881   15.8362 C   0  0  0  0  0  0  0  0  0  0  0  0
  -19.9178  -19.7073   18.3321 C   0  0  0  0  0  0  0  0  0  0  0  0
  -23.4442  -32.5148   25.2261 C   0  0  0  0  0  0  0  0  0  0  0  0
  -28.4238  -28.2865   24.1325 C   0  0  0  0  0  0  0  0  0  0  0  0
  -26.8434  -29.3687   25.7448 C   0  0  0  0  0  0  0  0  0  0  0  0
  -28.4587  -30.7661   24.4562 C   0  0  0  0  0  0  0  0  0  0  0  0
  -22.3535  -32.0051   21.6168 C   0  0  0  0  0  0  0  0  0  0  0  0
  -20.6602  -23.8193   20.3190 C   0  0  0  0  0  0  0  0  0  0  0  0
  -21.9833  -24.5267   20.5516 C   0  0  0  0  0  0  0  0  0  1  0  0
  -26.4777  -29.7437   23.2636 C   0  0  1  0  0  0  0  0  0  0  0  0
  -23.6381  -32.2075   23.7493 C   0  0  2  0  0  0  0  0  0  0  0  0
  -27.5410  -29.5266   24.3769 C   0  0  0  0  0  0  0  0  0  0  0  0
  -22.9013  -12.8484   21.7994 N   0  0  0  0  0  0  0  0  0  0  0  0
  -23.5035  -14.0163   21.5177 N   0  0  0  0  0  0  0  0  0  0  0  0
  -26.7132  -28.9302   20.9383 N   0  0  0  0  0  0  0  0  0  0  0  0
  -21.4297  -17.2084   21.8624 N   0  0  0  0  0  0  0  0  0  0  0  0
  -25.2898  -14.9728   20.2910 N   0  0  0  0  0  0  0  0  0  0  0  0
  -25.6216  -10.5679   19.3515 N   0  0  0  0  0  0  0  0  0  0  0  0
  -29.6489  -28.1279   19.0760 N   0  0  0  0  0  0  0  0  0  0  0  0
  -20.8468  -22.4324   19.9842 N   0  0  0  0  0  0  0  0  0  0  0  0
  -25.6451  -30.9264   23.4549 N   0  0  0  0  0  0  0  0  0  0  0  0
  -22.1182  -18.6264   20.0992 N   0  0  0  0  0  0  0  0  0  0  0  0
  -22.3084  -32.2653   23.0788 N   0  3  0  0  0  0  0  0  0  0  0  0
  -26.5558  -12.6278   18.9738 O   0  0  0  0  0  0  0  0  0  0  0  0
  -28.3074  -26.8623   20.4978 O   0  0  0  0  0  0  0  0  0  0  0  0
  -20.9877  -22.6629   17.6704 O   0  0  0  0  0  0  0  0  0  0  0  0
  -27.8896  -30.8023   21.6785 O   0  0  0  0  0  0  0  0  0  0  0  0
  -23.6149  -29.8063   23.4828 O   0  0  0  0  0  0  0  0  0  0  0  0
  -21.0477  -19.4947   21.9314 O   0  0  0  0  0  0  0  0  0  0  0  0
  -22.3007   -6.5305   21.2767 O   0  0  0  0  0  0  0  0  0  0  0  0
  -22.7780  -24.4464   19.3691 O   0  0  0  0  0  0  0  0  0  1  0  0
  -21.1622   -4.3153   26.1961 F   0  0  0  0  0  0  0  0  0  0  0  0
  -20.2117   -7.4874   22.8138 F   0  0  0  0  0  0  0  0  0  0  0  0
  1  2  1  0  0  0  0
  1  5  2  0  0  0  0
  2  6  2  0  0  0  0
  3  8  2  0  0  0  0
  3 17  1  0  0  0  0
  4  9  1  0  0  0  0
  4 17  2  0  0  0  0
  5 19  1  0  0  0  0
  6 21  1  0  0  0  0
  7 10  2  0  0  0  0
  7 20  1  0  0  0  0
  8 27  1  0  0  0  0
  9 27  2  0  0  0  0
 10 28  1  0  0  0  0
 11 12  2  0  0  0  0
 11 29  1  0  0  0  0
 12 30  1  0  0  0  0
 13 22  1  0  0  0  0
 13 24  2  0  0  0  0
 14 23  1  0  0  0  0
 14 28  2  0  0  0  0
 15 25  1  0  0  0  0
 15 26  2  0  0  0  0
 16 30  2  0  0  0  0
 16 31  1  0  0  0  0
 17 32  1  0  0  0  0
 18 32  1  0  0  0  0
 18 33  2  0  0  0  0
 18 34  1  0  0  0  0
 19 21  2  0  0  0  0
 19 40  1  0  0  0  0
 20 23  2  0  0  0  0
 20 41  1  0  0  0  0
 21 50  1  0  0  0  0
 22 25  2  0  0  0  0
 22 49  1  0  0  0  0
 23 42  1  0  0  0  0
 24 26  1  0  0  0  0
 24 55  1  0  0  0  0
 25 56  1  0  0  0  0
 26 57  1  0  0  0  0
 27 86  1  0  0  0  0
 28 87  1  0  0  0  0
 29 31  2  0  0  0  0
 29 86  1  0  0  0  0
 30 88  1  0  0  0  0
 31 89  1  0  0  0  0
 32 69  2  0  0  0  0
 33 70  1  0  0  0  0
 33 73  1  0  0  0  0
 34 74  1  0  0  0  0
 34 80  2  0  0  0  0
 35 51  1  0  0  0  0
 35 75  1  0  0  0  0
 35 81  2  0  0  0  0
 36 54  1  0  0  0  0
 36 76  1  0  0  0  0
 36 82  2  0  0  0  0
 37 66  1  0  0  0  0
 37 71  1  0  0  0  0
 37 83  2  0  0  0  0
 38 67  1  0  0  0  0
 38 77  1  0  0  0  0
 38 84  2  0  0  0  0
 39 72  1  0  0  0  0
 39 78  1  0  0  0  0
 39 85  2  0  0  0  0
 40 43  1  0  0  0  0
 41 51  1  0  0  0  0
 42 71  1  0  0  0  0
 43 45  1  0  0  0  0
 44 46  1  0  0  0  0
 44 47  1  0  0  0  0
 45 50  1  0  0  0  0
 46 52  1  0  0  0  0
 47 72  1  0  0  0  0
 48 52  1  0  0  0  0
 48 72  1  0  0  0  0
 49 53  1  0  0  0  0
 49 54  1  0  0  0  0
 50 75  1  0  0  0  0
 51 71  1  0  0  0  0
 52 70  1  0  0  0  0
 53 54  1  0  0  0  0
 53 78  1  0  0  0  0
 54 58  1  0  0  0  0
 59 67  1  0  0  0  0
 60 68  1  0  0  0  0
 61 68  1  0  0  0  0
 62 68  1  0  0  0  0
 63 79  1  0  0  0  0
 64 65  1  0  0  0  0
 64 76  1  0  0  0  0
 65 87  1  0  0  0  0
 66 68  1  0  0  0  0
 66 77  1  0  0  0  0
 67 79  1  0  0  0  0
 69 70  1  0  0  0  0
M  CHG  1  79   1
M  ISO  4  39 100  65 101  78 100  87 101
M  END
> <Batch ID>
0168

> <Smiles>
CNC(C)C(=O)NC(C(=O)N1Cc2cc([101O:1][101CH2:1]CNC(=O)C3(C)C([100NH:0][100C:0](=O)N4CCCC(n5nc(-c6ccc(Oc7ccc(F)cc7F)cc6)c(C(N)=O)c5N)C4)C3c3cc(C)c(C)cc3C)ccc2CC1C(=O)NC1CCCc2ccccc21)C(C)(C)C

> <Shape>
0.216

> <Color>
0.130

> <Negative vol penalty>
0.000

$$$$

  -OEChem-04052322303D

 84 93  0     1  0  0  0  0  0999 V2000
  -27.4786  -34.5970   24.1277 C   0  0  0  0  0  0  0  0  0  0  0  0
  -27.9560  -33.2920   24.1932 C   0  0  0  0  0  0  0  0  0  0  0  0
  -22.8987  -10.9286   22.0007 C   0  0  0  0  0  0  0  0  0  0  0  0
  -24.4974   -9.1518   21.6481 C   0  0  0  0  0  0  0  0  0  0  0  0
  -26.1533  -34.8360   23.7664 C   0  0  0  0  0  0  0  0  0  0  0  0
  -27.1080  -32.2250   23.8985 C   0  0  0  0  0  0  0  0  0  0  0  0
  -30.1453  -20.2824   24.9141 C   0  0  0  0  0  0  0  0  0  0  0  0
  -28.6293  -26.9598   21.1654 C   0  0  0  0  0  0  0  0  0  0  0  0
  -30.0372  -21.5915   24.4459 C   0  0  0  0  0  0  0  0  0  0  0  0
  -22.2379  -10.1461   22.9476 C   0  0  0  0  0  0  0  0  0  0  0  0
  -23.8366   -8.3693   22.5951 C   0  0  0  0  0  0  0  0  0  0  0  0
  -28.9202  -25.6922   21.6676 C   0  0  0  0  0  0  0  0  0  0  0  0
  -22.3609   -5.7653   24.6570 C   0  0  0  0  0  0  0  0  0  0  0  0
  -22.1258   -4.4270   24.3421 C   0  0  0  0  0  0  0  0  0  0  0  0
  -26.6353  -25.0216   21.2817 C   0  0  0  0  0  0  0  0  0  0  0  0
  -20.8239   -5.1071   22.4238 C   0  0  0  0  0  0  0  0  0  0  0  0
  -24.0284  -10.4314   21.3509 C   0  0  0  0  0  0  0  0  0  0  0  0
  -24.1780  -11.7585   19.1774 C   0  0  0  0  0  0  0  0  0  0  0  0
  -25.2913  -33.7719   23.4577 C   0  0  0  0  0  0  0  0  0  0  0  0
  -29.8687  -19.1959   24.0702 C   0  0  0  0  0  0  0  0  0  0  0  0
  -27.3344  -27.2718   20.7270 C   0  0  0  0  0  0  0  0  0  0  0  0
  -25.7696  -32.4498   23.5340 C   0  0  0  0  0  0  0  0  0  0  0  0
  -26.3312  -26.2932   20.7720 C   0  0  0  0  0  0  0  0  0  0  0  0
  -29.5051  -19.4358   22.7325 C   0  0  0  0  0  0  0  0  0  0  0  0
  -29.6571  -21.8292   23.1284 C   0  0  0  0  0  0  0  0  0  0  0  0
  -29.3897  -20.7580   22.2767 C   0  0  0  0  0  0  0  0  0  0  0  0
  -22.7068   -8.8665   23.2448 C   0  0  0  0  0  0  0  0  0  0  0  0
  -27.9224  -24.7237   21.7285 C   0  0  0  0  0  0  0  0  0  0  0  0
  -21.8274   -6.7746   23.8554 C   0  0  0  0  0  0  0  0  0  0  0  0
  -21.3574   -4.0979   23.2255 C   0  0  0  0  0  0  0  0  0  0  0  0
  -21.0590   -6.4455   22.7388 C   0  0  0  0  0  0  0  0  0  0  0  0
  -24.7112  -11.2390   20.3722 C   0  0  0  0  0  0  0  0  0  0  0  0
  -25.2200  -12.4487   18.6079 C   0  0  0  0  0  0  0  0  0  0  0  0
  -22.8587  -11.6289   18.6312 C   0  0  0  0  0  0  0  0  0  0  0  0
  -25.1112  -29.3656   21.6087 C   0  0  0  0  0  0  0  0  0  0  0  0
  -23.5690  -28.2436   18.9848 C   0  0  0  0  0  0  0  0  0  0  0  0
  -23.1284  -25.7041   16.7480 C   0  0  0  0  0  0  0  0  0  0  0  0
  -30.0558  -15.0682   20.7128 C   0  0  0  0  0  0  0  0  0  0  0  0
  -23.8539  -34.0771   23.1182 C   0  0  0  0  0  0  0  0  0  0  0  0
  -30.0295  -17.7952   24.6050 C   0  0  0  0  0  0  0  0  0  0  0  0
  -27.0433  -28.6355   20.1631 C   0  0  0  0  0  0  0  0  0  0  0  0
  -29.1738  -18.3049   21.7887 C   0  0  0  0  0  0  0  0  0  0  0  0
  -24.9299  -26.5713   20.2950 C   0  0  0  0  0  0  0  0  0  0  0  0
  -23.1233  -32.9109   22.4575 C   0  0  0  0  0  0  0  0  0  0  0  0
  -29.3516  -16.7338   23.7383 C   0  0  0  0  0  0  0  0  0  0  0  0
  -29.9891  -12.5178   18.3639 C   0  0  0  0  0  0  0  0  0  0  0  0
  -23.3937  -31.6141   23.2138 C   0  0  0  0  0  0  0  0  0  0  0  0
  -28.5801  -11.9398   18.4889 C   0  0  0  0  0  0  0  0  0  0  0  0
  -30.5641  -12.8518   19.7352 C   0  0  0  0  0  0  0  0  0  0  0  0
  -28.3026  -13.2326   20.6634 C   0  0  0  0  0  0  0  0  0  0  0  0
  -24.8873  -31.2672   23.1976 C   0  0  1  0  0  0  0  0  0  0  0  0
  -25.5640  -29.0035   20.2225 C   0  0  1  0  0  0  0  0  0  0  0  0
  -27.6701  -12.8769   19.3022 C   0  0  2  0  0  0  0  0  0  0  0  0
  -29.7021  -16.9490   22.2669 C   0  0  1  0  0  0  0  0  0  0  0  0
  -28.9660  -21.0457   20.8684 C   0  0  0  0  0  0  0  0  0  0  0  0
  -21.7703  -25.0634   14.7373 C   0  0  0  0  0  0  0  0  0  0  0  0
  -21.1665  -27.6971   20.7846 C   0  0  0  0  0  0  0  0  0  0  0  0
  -20.2395  -26.2263   18.9830 C   0  0  0  0  0  0  0  0  0  0  0  0
  -20.5964  -28.6563   18.5464 C   0  0  0  0  0  0  0  0  0  0  0  0
  -27.7607  -15.5512   21.6636 C   0  0  0  0  0  0  0  0  0  0  0  0
  -25.5411  -25.4617   15.0512 C   0  0  0  0  0  0  0  0  0  0  0  0
  -29.5417  -23.2478   22.6534 C   0  0  0  0  0  0  0  0  0  1  0  0
  -22.5975  -27.1202   18.7145 C   0  0  1  0  0  0  0  0  0  0  0  0
  -23.0611  -25.6979   15.2314 C   0  0  2  0  0  0  0  0  0  0  0  0
  -21.1758  -27.4200   19.2680 C   0  0  0  0  0  0  0  0  0  0  0  0
  -25.9925  -11.5706   20.5522 N   0  0  0  0  0  0  0  0  0  0  0  0
  -26.2731  -12.3058   19.4628 N   0  0  0  0  0  0  0  0  0  0  0  0
  -24.6934  -27.9216   19.7579 N   0  0  0  0  0  0  0  0  0  0  0  0
  -29.6718  -13.7389   20.4819 N   0  0  0  0  0  0  0  0  0  0  0  0
  -25.3291  -13.1576   17.4643 N   0  0  0  0  0  0  0  0  0  0  0  0
  -22.5918  -10.5493   17.7782 N   0  0  0  0  0  0  0  0  0  0  0  0
  -25.2615  -30.7039   21.9180 N   0  0  0  0  0  0  0  0  0  0  0  0
  -22.6404  -26.8806   17.2760 N   0  0  0  0  0  0  0  0  0  0  0  0
  -29.1686  -15.8750   21.4411 N   0  0  0  0  0  0  0  0  0  0  0  0
  -24.2077  -24.9326   14.6652 N   0  3  0  0  0  0  0  0  0  0  0  0
  -21.9482  -12.4555   18.8787 O   0  0  0  0  0  0  0  0  0  0  0  0
  -24.6576  -28.4954   22.3428 O   0  0  0  0  0  0  0  0  0  0  0  0
  -23.3423  -29.3639   18.5208 O   0  0  0  0  0  0  0  0  0  0  0  0
  -23.5663  -24.7582   17.3992 O   0  0  0  0  0  0  0  0  0  0  0  0
  -31.1355  -15.5092   20.2981 O   0  0  0  0  0  0  0  0  0  0  0  0
  -22.0624   -8.1028   24.1689 O   0  0  0  0  0  0  0  0  0  0  0  0
  -28.2035  -23.4858   22.2188 O   0  0  0  0  0  0  0  0  0  1  0  0
  -21.1330   -2.8126   22.9223 F   0  0  0  0  0  0  0  0  0  0  0  0
  -20.5448   -7.4106   21.9643 F   0  0  0  0  0  0  0  0  0  0  0  0
  1  2  1  0  0  0  0
  1  5  2  0  0  0  0
  2  6  2  0  0  0  0
  3 10  2  0  0  0  0
  3 17  1  0  0  0  0
  4 11  1  0  0  0  0
  4 17  2  0  0  0  0
  5 19  1  0  0  0  0
  6 22  1  0  0  0  0
  7  9  2  0  0  0  0
  7 20  1  0  0  0  0
  8 12  2  0  0  0  0
  8 21  1  0  0  0  0
  9 25  1  0  0  0  0
 10 27  1  0  0  0  0
 11 27  2  0  0  0  0
 12 28  1  0  0  0  0
 13 14  2  0  0  0  0
 13 29  1  0  0  0  0
 14 30  1  0  0  0  0
 15 23  1  0  0  0  0
 15 28  2  0  0  0  0
 16 30  2  0  0  0  0
 16 31  1  0  0  0  0
 17 32  1  0  0  0  0
 18 32  1  0  0  0  0
 18 33  2  0  0  0  0
 18 34  1  0  0  0  0
 19 22  2  0  0  0  0
 19 39  1  0  0  0  0
 20 24  2  0  0  0  0
 20 40  1  0  0  0  0
 21 23  2  0  0  0  0
 21 41  1  0  0  0  0
 22 51  1  0  0  0  0
 23 43  1  0  0  0  0
 24 26  1  0  0  0  0
 24 42  1  0  0  0  0
 25 26  2  0  0  0  0
 25 62  1  0  0  0  0
 26 55  1  0  0  0  0
 27 81  1  0  0  0  0
 28 82  1  0  0  0  0
 29 31  2  0  0  0  0
 29 81  1  0  0  0  0
 30 83  1  0  0  0  0
 31 84  1  0  0  0  0
 32 66  2  0  0  0  0
 33 67  1  0  0  0  0
 33 70  1  0  0  0  0
 34 71  1  0  0  0  0
 34 76  2  0  0  0  0
 35 52  1  0  0  0  0
 35 72  1  0  0  0  0
 35 77  2  0  0  0  0
 36 63  1  0  0  0  0
 36 68  1  0  0  0  0
 36 78  2  0  0  0  0
 37 64  1  0  0  0  0
 37 73  1  0  0  0  0
 37 79  2  0  0  0  0
 38 69  1  0  0  0  0
 38 74  1  0  0  0  0
 38 80  2  0  0  0  0
 39 44  1  0  0  0  0
 40 45  1  0  0  0  0
 41 52  1  0  0  0  0
 42 54  1  0  0  0  0
 43 68  1  0  0  0  0
 44 47  1  0  0  0  0
 45 54  1  0  0  0  0
 46 48  1  0  0  0  0
 46 49  1  0  0  0  0
 47 51  1  0  0  0  0
 48 53  1  0  0  0  0
 49 69  1  0  0  0  0
 50 53  1  0  0  0  0
 50 69  1  0  0  0  0
 51 72  1  0  0  0  0
 52 68  1  0  0  0  0
 53 67  1  0  0  0  0
 54 74  1  0  0  0  0
 56 64  1  0  0  0  0
 57 65  1  0  0  0  0
 58 65  1  0  0  0  0
 59 65  1  0  0  0  0
 60 74  1  0  0  0  0
 61 75  1  0  0  0  0
 62 82  1  0  0  0  0
 63 65  1  0  0  0  0
 63 73  1  0  0  0  0
 64 75  1  0  0  0  0
 66 67  1  0  0  0  0
M  CHG  1  75   1
M  ISO  4  38 100  62 101  74 100  82 101
M  END
> <Batch ID>
0168

> <Smiles>
CNC(C)C(=O)NC(C(=O)N1Cc2cc([101O:1][101CH2:1]c3ccc4c(c3C)CC([100N:0](C)[100C:0](=O)N3CCCC(n5nc(-c6ccc(Oc7ccc(F)cc7F)cc6)c(C(N)=O)c5N)C3)CC4)ccc2CC1C(=O)NC1CCCc2ccccc21)C(C)(C)C

> <Shape>
0.280

> <Color>
0.088

> <Negative vol penalty>
0.000

$$$$

  -OEChem-04052322303D

 92102  0     1  0  0  0  0  0999 V2000
  -29.5539  -34.8737   25.2579 C   0  0  0  0  0  0  0  0  0  0  0  0
  -29.2316  -33.5273   25.1209 C   0  0  0  0  0  0  0  0  0  0  0  0
  -23.2149  -10.1330   20.2680 C   0  0  0  0  0  0  0  0  0  0  0  0
  -24.7739   -8.6488   21.3652 C   0  0  0  0  0  0  0  0  0  0  0  0
  -28.5480  -35.8381   25.2130 C   0  0  0  0  0  0  0  0  0  0  0  0
  -27.9030  -33.1445   24.9399 C   0  0  0  0  0  0  0  0  0  0  0  0
  -27.3620  -29.6669   21.2987 C   0  0  0  0  0  0  0  0  0  0  0  0
  -22.2234   -9.7633   21.1768 C   0  0  0  0  0  0  0  0  0  0  0  0
  -23.7824   -8.2792   22.2740 C   0  0  0  0  0  0  0  0  0  0  0  0
  -27.6897  -28.3507   21.6215 C   0  0  0  0  0  0  0  0  0  0  0  0
  -21.5619   -6.6740   24.6620 C   0  0  0  0  0  0  0  0  0  0  0  0
  -21.4214   -5.3168   24.9518 C   0  0  0  0  0  0  0  0  0  0  0  0
  -25.3504  -27.8512   21.9338 C   0  0  0  0  0  0  0  0  0  0  0  0
  -20.9561   -4.8679   22.6239 C   0  0  0  0  0  0  0  0  0  0  0  0
  -24.4902   -9.5757   20.3621 C   0  0  0  0  0  0  0  0  0  0  0  0
  -25.4850   -9.8037   18.0242 C   0  0  0  0  0  0  0  0  0  0  0  0
  -27.2076  -35.4677   25.0217 C   0  0  0  0  0  0  0  0  0  0  0  0
  -26.0246  -30.0886   21.3017 C   0  0  0  0  0  0  0  0  0  0  0  0
  -26.8781  -34.1048   24.8938 C   0  0  0  0  0  0  0  0  0  0  0  0
  -25.0082  -29.1726   21.6082 C   0  0  0  0  0  0  0  0  0  0  0  0
  -27.6194  -21.8158   22.2969 C   0  0  0  0  0  0  0  0  0  0  0  0
  -27.0668  -23.0556   21.9530 C   0  0  0  0  0  0  0  0  0  0  0  0
  -26.5648  -23.8985   22.9348 C   0  0  0  0  0  0  0  0  0  0  0  0
  -22.5071   -8.8365   22.1798 C   0  0  0  0  0  0  0  0  0  0  0  0
  -26.6841  -27.4434   21.9419 C   0  0  0  0  0  0  0  0  0  0  0  0
  -21.3994   -7.1281   23.3531 C   0  0  0  0  0  0  0  0  0  0  0  0
  -21.1185   -4.4138   23.9328 C   0  0  0  0  0  0  0  0  0  0  0  0
  -21.0965   -6.2251   22.3341 C   0  0  0  0  0  0  0  0  0  0  0  0
  -25.5146   -9.9567   19.4233 C   0  0  0  0  0  0  0  0  0  0  0  0
  -27.6706  -21.4742   23.6545 C   0  0  0  0  0  0  0  0  0  0  0  0
  -26.6392  -23.4709   24.2448 C   0  0  0  0  0  0  0  0  0  0  0  0
  -26.6852  -10.3172   17.5972 C   0  0  0  0  0  0  0  0  0  0  0  0
  -24.4639   -9.2472   17.1856 C   0  0  0  0  0  0  0  0  0  0  0  0
  -24.3563  -32.2454   22.9353 C   0  0  0  0  0  0  0  0  0  0  0  0
  -21.9975  -31.4129   20.8699 C   0  0  0  0  0  0  0  0  0  0  0  0
  -20.6879  -29.0737   18.7581 C   0  0  0  0  0  0  0  0  0  0  0  0
  -30.4581  -14.3414   19.9256 C   0  0  0  0  0  0  0  0  0  0  0  0
  -26.1495  -36.5424   25.0274 C   0  0  0  0  0  0  0  0  0  0  0  0
  -25.6856  -31.5048   20.9252 C   0  0  0  0  0  0  0  0  0  0  0  0
  -28.1834  -20.9388   21.2113 C   0  0  0  0  0  0  0  0  0  0  0  0
  -23.5554  -29.5699   21.6059 C   0  0  0  0  0  0  0  0  0  0  0  0
  -24.8104  -36.0819   24.4573 C   0  0  0  0  0  0  0  0  0  0  0  0
  -31.2007  -10.9750   19.0355 C   0  0  0  0  0  0  0  0  0  0  0  0
  -24.4208  -34.7263   25.0383 C   0  0  0  0  0  0  0  0  0  0  0  0
  -29.8249  -10.3185   18.9077 C   0  0  0  0  0  0  0  0  0  0  0  0
  -29.0625  -19.4350   23.0110 C   0  0  0  0  0  0  0  0  0  0  0  0
  -31.2335  -12.0010   20.1661 C   0  0  0  0  0  0  0  0  0  0  0  0
  -28.8056  -12.3758   19.9694 C   0  0  0  0  0  0  0  0  0  0  0  0
  -28.5871  -18.7790   19.2447 C   0  0  0  0  0  0  0  0  0  0  0  0
  -29.4526  -17.3193   21.0134 C   0  0  0  0  0  0  0  0  0  0  0  0
  -25.4514  -33.6519   24.6711 C   0  0  1  0  0  0  0  0  0  0  0  0
  -24.3307  -31.9574   21.4608 C   0  0  1  0  0  0  0  0  0  0  0  0
  -28.4083  -17.3072   18.8835 C   0  0  2  0  0  0  0  0  0  0  0  0
  -28.7072  -11.3738   18.8064 C   0  0  2  0  0  0  0  0  0  0  0  0
  -29.5298  -16.6282   19.6646 C   0  0  2  0  0  0  0  0  0  0  0  0
  -28.3514  -19.4927   21.6637 C   0  0  2  0  0  0  0  0  0  0  0  0
  -28.2359  -20.1335   24.1214 C   0  0  0  0  0  0  0  0  0  0  0  0
  -27.0165  -23.5002   20.5230 C   0  0  0  0  0  0  0  0  0  0  0  0
  -26.1145  -24.3257   25.3516 C   0  0  0  0  0  0  0  0  0  0  0  0
  -28.4662  -17.0627   17.3839 C   0  0  0  0  0  0  0  0  0  0  0  0
  -27.0583  -19.2337   24.5499 C   0  0  0  0  0  0  0  0  0  0  0  0
  -29.1631  -20.3365   25.3383 C   0  0  0  0  0  0  0  0  0  0  0  0
  -18.7310  -28.6648   17.2413 C   0  0  0  0  0  0  0  0  0  0  0  0
  -20.2279  -30.8859   23.2990 C   0  0  0  0  0  0  0  0  0  0  0  0
  -18.6770  -29.6090   21.8050 C   0  0  0  0  0  0  0  0  0  0  0  0
  -19.0775  -32.0377   21.4005 C   0  0  0  0  0  0  0  0  0  0  0  0
  -22.4352  -28.8074   16.3843 C   0  0  0  0  0  0  0  0  0  0  0  0
  -25.9680  -25.2213   22.5885 C   0  0  0  0  0  0  0  0  0  1  0  0
  -20.9026  -30.3737   20.8601 C   0  0  1  0  0  0  0  0  0  0  0  0
  -20.1579  -29.1814   17.3396 C   0  0  2  0  0  0  0  0  0  0  0  0
  -19.7487  -30.7192   21.8432 C   0  0  0  0  0  0  0  0  0  0  0  0
  -26.6442  -10.5229   19.8563 N   0  0  0  0  0  0  0  0  0  0  0  0
  -27.1723  -22.2891   24.6234 N   0  0  0  0  0  0  0  0  0  0  0  0
  -27.3355  -10.7301   18.7227 N   0  0  0  0  0  0  0  0  0  0  0  0
  -23.2752  -30.9675   21.2372 N   0  0  0  0  0  0  0  0  0  0  0  0
  -30.1493  -12.9737   20.0101 N   0  0  0  0  0  0  0  0  0  0  0  0
  -27.2372  -10.4512   16.3725 N   0  0  0  0  0  0  0  0  0  0  0  0
  -24.5038   -7.8745   16.9056 N   0  0  0  0  0  0  0  0  0  0  0  0
  -25.2650  -33.2194   23.3026 N   0  0  0  0  0  0  0  0  0  0  0  0
  -20.4823  -30.2367   19.4698 N   0  0  0  0  0  0  0  0  0  0  0  0
  -29.3723  -15.1949   19.7724 N   0  0  0  0  0  0  0  0  0  0  0  0
  -29.1682  -18.7682   20.6529 N   0  3  2  0  0  0  0  0  0  0  0  0
  -21.0095  -28.3903   16.4070 N   0  3  0  0  0  0  0  0  0  0  0  0
  -23.5527   -9.9495   16.6855 O   0  0  0  0  0  0  0  0  0  0  0  0
  -23.6060  -31.6304   23.6840 O   0  0  0  0  0  0  0  0  0  0  0  0
  -21.7305  -32.5756   20.5560 O   0  0  0  0  0  0  0  0  0  0  0  0
  -21.2268  -28.0581   19.1925 O   0  0  0  0  0  0  0  0  0  0  0  0
  -31.6160  -14.7698   19.9772 O   0  0  0  0  0  0  0  0  0  0  0  0
  -21.5399   -8.4757   23.0669 O   0  0  0  0  0  0  0  0  0  0  0  0
  -27.0066  -26.1366   22.2633 O   0  0  0  0  0  0  0  0  0  1  0  0
  -20.9852   -3.1103   24.2109 F   0  0  0  0  0  0  0  0  0  0  0  0
  -20.9404   -6.6553   21.0746 F   0  0  0  0  0  0  0  0  0  0  0  0
  1  2  1  0  0  0  0
  1  5  2  0  0  0  0
  2  6  2  0  0  0  0
  3  8  2  0  0  0  0
  3 15  1  0  0  0  0
  4  9  1  0  0  0  0
  4 15  2  0  0  0  0
  5 17  1  0  0  0  0
  6 19  1  0  0  0  0
  7 10  2  0  0  0  0
  7 18  1  0  0  0  0
  8 24  1  0  0  0  0
  9 24  2  0  0  0  0
 10 25  1  0  0  0  0
 11 12  2  0  0  0  0
 11 26  1  0  0  0  0
 12 27  1  0  0  0  0
 13 20  1  0  0  0  0
 13 25  2  0  0  0  0
 14 27  2  0  0  0  0
 14 28  1  0  0  0  0
 15 29  1  0  0  0  0
 16 29  1  0  0  0  0
 16 32  2  0  0  0  0
 16 33  1  0  0  0  0
 17 19  2  0  0  0  0
 17 38  1  0  0  0  0
 18 20  2  0  0  0  0
 18 39  1  0  0  0  0
 19 51  1  0  0  0  0
 20 41  1  0  0  0  0
 21 22  1  0  0  0  0
 21 30  2  0  0  0  0
 21 40  1  0  0  0  0
 22 23  2  0  0  0  0
 22 58  1  0  0  0  0
 23 31  1  0  0  0  0
 23 68  1  0  0  0  0
 24 89  1  0  0  0  0
 25 90  1  0  0  0  0
 26 28  2  0  0  0  0
 26 89  1  0  0  0  0
 27 91  1  0  0  0  0
 28 92  1  0  0  0  0
 29 72  2  0  0  0  0
 30 57  1  0  0  0  0
 30 73  1  0  0  0  0
 31 59  1  0  0  0  0
 31 73  2  0  0  0  0
 32 74  1  0  0  0  0
 32 77  1  0  0  0  0
 33 78  1  0  0  0  0
 33 84  2  0  0  0  0
 34 52  1  0  0  0  0
 34 79  1  0  0  0  0
 34 85  2  0  0  0  0
 35 69  1  0  0  0  0
 35 75  1  0  0  0  0
 35 86  2  0  0  0  0
 36 70  1  0  0  0  0
 36 80  1  0  0  0  0
 36 87  2  0  0  0  0
 37 76  1  0  0  0  0
 37 81  1  0  0  0  0
 37 88  2  0  0  0  0
 38 42  1  0  0  0  0
 39 52  1  0  0  0  0
 40 56  1  0  0  0  0
 41 75  1  0  0  0  0
 42 44  1  0  0  0  0
 43 45  1  0  0  0  0
 43 47  1  0  0  0  0
 44 51  1  0  0  0  0
 45 54  1  0  0  0  0
 46 56  1  0  0  0  0
 46 57  1  0  0  0  0
 47 76  1  0  0  0  0
 48 54  1  0  0  0  0
 48 76  1  0  0  0  0
 49 53  1  0  0  0  0
 49 82  1  0  0  0  0
 50 55  1  0  0  0  0
 50 82  1  0  0  0  0
 51 79  1  0  0  0  0
 52 75  1  0  0  0  0
 53 55  1  0  0  0  0
 53 60  1  0  0  0  0
 54 74  1  0  0  0  0
 55 81  1  0  0  0  0
 56 82  1  0  0  0  0
 57 61  1  0  0  0  0
 57 62  1  0  0  0  0
 63 70  1  0  0  0  0
 64 71  1  0  0  0  0
 65 71  1  0  0  0  0
 66 71  1  0  0  0  0
 67 83  1  0  0  0  0
 68 90  1  0  0  0  0
 69 71  1  0  0  0  0
 69 80  1  0  0  0  0
 70 83  1  0  0  0  0
 72 74  1  0  0  0  0
M  CHG  2  82   1  83   1
M  ISO  4  37 100  68 101  81 100  90 101
M  END
> <Batch ID>
0168

> <Smiles>
CNC(C)C(=O)NC(C(=O)N1Cc2cc([101O:1][101CH2:1]c3c(C)nc4c(c3C)CC(N3CC(C)C([100NH:0][100C:0](=O)N5CCCC(n6nc(-c7ccc(Oc8ccc(F)cc8F)cc7)c(C(N)=O)c6N)C5)C3)CC4(C)C)ccc2CC1C(=O)NC1CCCc2ccccc21)C(C)(C)C

> <Shape>
0.272

> <Color>
0.082

> <Negative vol penalty>
0.000

$$$$

  -OEChem-04052322303D

 91101  0     1  0  0  0  0  0999 V2000
  -28.3988  -37.4466   24.0241 C   0  0  0  0  0  0  0  0  0  0  0  0
  -28.8507  -36.3038   23.3721 C   0  0  0  0  0  0  0  0  0  0  0  0
  -27.4278  -11.5742   20.1674 C   0  0  0  0  0  0  0  0  0  0  0  0
  -27.2726  -10.4254   22.2871 C   0  0  0  0  0  0  0  0  0  0  0  0
  -27.3637  -37.3541   24.9537 C   0  0  0  0  0  0  0  0  0  0  0  0
  -28.2686  -35.0676   23.6500 C   0  0  0  0  0  0  0  0  0  0  0  0
  -28.9998  -24.5659   21.3790 C   0  0  0  0  0  0  0  0  0  0  0  0
  -27.3605  -30.4590   19.7203 C   0  0  0  0  0  0  0  0  0  0  0  0
  -28.2671  -24.0506   22.4481 C   0  0  0  0  0  0  0  0  0  0  0  0
  -28.6061  -10.8852   19.8802 C   0  0  0  0  0  0  0  0  0  0  0  0
  -28.4510   -9.7364   22.0000 C   0  0  0  0  0  0  0  0  0  0  0  0
  -28.0756  -29.2898   19.4645 C   0  0  0  0  0  0  0  0  0  0  0  0
  -31.8490   -9.6921   18.7472 C   0  0  0  0  0  0  0  0  0  0  0  0
  -32.9174  -10.4210   18.2249 C   0  0  0  0  0  0  0  0  0  0  0  0
  -26.6085  -28.0756   20.9452 C   0  0  0  0  0  0  0  0  0  0  0  0
  -32.9432  -11.8030   20.2064 C   0  0  0  0  0  0  0  0  0  0  0  0
  -26.7611  -11.3444   21.3709 C   0  0  0  0  0  0  0  0  0  0  0  0
  -24.2297  -11.6597   21.3574 C   0  0  0  0  0  0  0  0  0  0  0  0
  -26.7621  -36.1176   25.2360 C   0  0  0  0  0  0  0  0  0  0  0  0
  -26.2689  -30.4475   20.6005 C   0  0  0  0  0  0  0  0  0  0  0  0
  -27.2254  -34.9582   24.5852 C   0  0  0  0  0  0  0  0  0  0  0  0
  -29.0094  -23.8988   20.1540 C   0  0  0  0  0  0  0  0  0  0  0  0
  -25.8796  -29.2455   21.2085 C   0  0  0  0  0  0  0  0  0  0  0  0
  -27.5536  -22.2008   21.0674 C   0  0  0  0  0  0  0  0  0  0  0  0
  -28.2863  -22.7162   19.9983 C   0  0  0  0  0  0  0  0  0  0  0  0
  -27.5440  -22.8680   22.2924 C   0  0  0  0  0  0  0  0  0  0  0  0
  -29.1177   -9.9663   20.7965 C   0  0  0  0  0  0  0  0  0  0  0  0
  -27.7014  -28.0985   20.0791 C   0  0  0  0  0  0  0  0  0  0  0  0
  -31.3276  -10.0187   19.9990 C   0  0  0  0  0  0  0  0  0  0  0  0
  -33.4646  -11.4764   18.9545 C   0  0  0  0  0  0  0  0  0  0  0  0
  -31.8747  -11.0741   20.7287 C   0  0  0  0  0  0  0  0  0  0  0  0
  -25.5442  -12.0562   21.6684 C   0  0  0  0  0  0  0  0  0  0  0  0
  -23.4407  -12.6709   21.8487 C   0  0  0  0  0  0  0  0  0  0  0  0
  -23.7635  -10.4824   20.6848 C   0  0  0  0  0  0  0  0  0  0  0  0
  -25.5962  -31.8769   23.3587 C   0  0  0  0  0  0  0  0  0  0  0  0
  -22.6954  -30.4928   22.9212 C   0  0  0  0  0  0  0  0  0  0  0  0
  -20.8611  -28.0041   21.4758 C   0  0  0  0  0  0  0  0  0  0  0  0
  -24.2604  -18.3814   22.9276 C   0  0  0  0  0  0  0  0  0  0  0  0
  -25.6783  -36.0599   26.2833 C   0  0  0  0  0  0  0  0  0  0  0  0
  -25.4915  -31.7116   20.8452 C   0  0  0  0  0  0  0  0  0  0  0  0
  -24.7027  -29.1757   22.1458 C   0  0  0  0  0  0  0  0  0  0  0  0
  -24.8623  -34.7704   26.2451 C   0  0  0  0  0  0  0  0  0  0  0  0
  -23.3134  -16.0126   25.2600 C   0  0  0  0  0  0  0  0  0  0  0  0
  -25.7830  -33.5590   26.1368 C   0  0  0  0  0  0  0  0  0  0  0  0
  -23.6439  -14.6830   24.5823 C   0  0  0  0  0  0  0  0  0  0  0  0
  -30.9120  -23.6208   18.4379 C   0  0  0  0  0  0  0  0  0  0  0  0
  -31.2577  -24.8075   19.2819 C   0  0  0  0  0  0  0  0  0  0  0  0
  -27.2767  -19.7994   21.8280 C   0  0  0  0  0  0  0  0  0  0  0  0
  -25.2556  -21.1321   21.0872 C   0  0  0  0  0  0  0  0  0  0  0  0
  -24.4082  -17.0420   25.0048 C   0  0  0  0  0  0  0  0  0  0  0  0
  -26.4584  -18.5142   21.6738 C   0  0  0  0  0  0  0  0  0  0  0  0
  -24.4958  -19.8186   20.9257 C   0  0  0  0  0  0  0  0  0  0  0  0
  -25.0168  -15.9618   22.8646 C   0  0  0  0  0  0  0  0  0  0  0  0
  -26.7677  -20.9144   20.8968 C   0  0  0  0  0  0  0  0  0  0  0  0
  -26.6026  -33.6030   24.8415 C   0  0  1  0  0  0  0  0  0  0  0  0
  -24.7134  -31.6901   22.1573 C   0  0  1  0  0  0  0  0  0  0  0  0
  -23.9366  -14.8833   23.0847 C   0  0  1  0  0  0  0  0  0  0  0  0
  -29.8014  -24.4707   19.0248 C   0  0  0  0  0  0  0  0  0  0  0  0
  -28.2976  -22.0008   18.6840 C   0  0  0  0  0  0  0  0  0  0  0  0
  -18.5205  -27.1106   21.3336 C   0  0  0  0  0  0  0  0  0  0  0  0
  -29.5395  -25.2571   16.6687 C   0  0  0  0  0  0  0  0  0  0  0  0
  -22.9867  -29.2924   25.7112 C   0  0  0  0  0  0  0  0  0  0  0  0
  -21.1418  -27.6984   25.1421 C   0  0  0  0  0  0  0  0  0  0  0  0
  -20.6996  -30.1531   25.1794 C   0  0  0  0  0  0  0  0  0  0  0  0
  -25.7573  -23.0975   24.0189 C   0  0  0  0  0  0  0  0  0  0  0  0
  -20.7482  -28.4409   18.5509 C   0  0  0  0  0  0  0  0  0  0  0  0
  -29.0119  -26.8330   18.5504 C   0  0  0  0  0  0  0  0  0  1  0  0
  -22.0741  -29.1698   23.2991 C   0  0  1  0  0  0  0  0  0  0  0  0
  -19.5531  -28.0340   20.7060 C   0  0  2  0  0  0  0  0  0  0  0  0
  -29.0261  -25.3586   18.0936 C   0  0  2  0  0  0  0  0  0  0  0  0
  -21.7490  -29.0798   24.8168 C   0  0  0  0  0  0  0  0  0  0  0  0
  -25.5917  -13.2281   22.3075 N   0  0  0  0  0  0  0  0  0  0  0  0
  -24.2973  -13.5766   22.4021 N   0  0  0  0  0  0  0  0  0  0  0  0
  -23.9783  -30.4397   22.3580 N   0  0  0  0  0  0  0  0  0  0  0  0
  -24.6589  -17.2009   23.5725 N   0  0  0  0  0  0  0  0  0  0  0  0
  -25.0231  -18.7916   21.8237 N   0  0  0  0  0  0  0  0  0  0  0  0
  -22.1048  -12.8650   21.8568 N   0  0  0  0  0  0  0  0  0  0  0  0
  -24.7087   -9.5455   20.2453 N   0  0  0  0  0  0  0  0  0  0  0  0
  -26.8077  -22.3630   23.3870 N   0  0  0  0  0  0  0  0  0  0  0  0
  -25.7895  -33.1980   23.7149 N   0  0  0  0  0  0  0  0  0  0  0  0
  -20.9158  -28.9993   22.4287 N   0  0  0  0  0  0  0  0  0  0  0  0
  -19.7720  -27.6048   19.2958 N   0  3  0  0  0  0  0  0  0  0  0  0
  -22.5460  -10.2756   20.4649 O   0  0  0  0  0  0  0  0  0  0  0  0
  -26.0660  -30.8951   23.9218 O   0  0  0  0  0  0  0  0  0  0  0  0
  -22.0627  -31.5344   23.1118 O   0  0  0  0  0  0  0  0  0  0  0  0
  -21.7444  -27.1781   21.2565 O   0  0  0  0  0  0  0  0  0  0  0  0
  -23.2806  -19.0309   23.3141 O   0  0  0  0  0  0  0  0  0  0  0  0
  -30.2673   -9.2936   20.5165 O   0  0  0  0  0  0  0  0  0  0  0  0
  -28.4030  -26.9479   19.8299 O   0  0  0  0  0  0  0  0  0  1  0  0
  -34.4916  -12.1753   18.4536 F   0  0  0  0  0  0  0  0  0  0  0  0
  -31.3788  -11.3918   21.9324 F   0  0  0  0  0  0  0  0  0  0  0  0
  1  2  1  0  0  0  0
  1  5  2  0  0  0  0
  2  6  2  0  0  0  0
  3 10  2  0  0  0  0
  3 17  1  0  0  0  0
  4 11  1  0  0  0  0
  4 17  2  0  0  0  0
  5 19  1  0  0  0  0
  6 21  1  0  0  0  0
  7  9  2  0  0  0  0
  7 22  1  0  0  0  0
  8 12  2  0  0  0  0
  8 20  1  0  0  0  0
  9 26  1  0  0  0  0
 10 27  1  0  0  0  0
 11 27  2  0  0  0  0
 12 28  1  0  0  0  0
 13 14  2  0  0  0  0
 13 29  1  0  0  0  0
 14 30  1  0  0  0  0
 15 23  1  0  0  0  0
 15 28  2  0  0  0  0
 16 30  2  0  0  0  0
 16 31  1  0  0  0  0
 17 32  1  0  0  0  0
 18 32  1  0  0  0  0
 18 33  2  0  0  0  0
 18 34  1  0  0  0  0
 19 21  2  0  0  0  0
 19 39  1  0  0  0  0
 20 23  2  0  0  0  0
 20 40  1  0  0  0  0
 21 55  1  0  0  0  0
 22 25  2  0  0  0  0
 22 58  1  0  0  0  0
 23 41  1  0  0  0  0
 24 25  1  0  0  0  0
 24 26  2  0  0  0  0
 24 54  1  0  0  0  0
 25 59  1  0  0  0  0
 26 79  1  0  0  0  0
 27 88  1  0  0  0  0
 28 89  1  0  0  0  0
 29 31  2  0  0  0  0
 29 88  1  0  0  0  0
 30 90  1  0  0  0  0
 31 91  1  0  0  0  0
 32 72  2  0  0  0  0
 33 73  1  0  0  0  0
 33 77  1  0  0  0  0
 34 78  1  0  0  0  0
 34 83  2  0  0  0  0
 35 56  1  0  0  0  0
 35 80  1  0  0  0  0
 35 84  2  0  0  0  0
 36 68  1  0  0  0  0
 36 74  1  0  0  0  0
 36 85  2  0  0  0  0
 37 69  1  0  0  0  0
 37 81  1  0  0  0  0
 37 86  2  0  0  0  0
 38 75  1  0  0  0  0
 38 76  1  0  0  0  0
 38 87  2  0  0  0  0
 39 42  1  0  0  0  0
 40 56  1  0  0  0  0
 41 74  1  0  0  0  0
 42 44  1  0  0  0  0
 43 45  1  0  0  0  0
 43 50  1  0  0  0  0
 44 55  1  0  0  0  0
 45 57  1  0  0  0  0
 46 47  1  0  0  0  0
 46 58  1  0  0  0  0
 47 58  1  0  0  0  0
 48 51  1  0  0  0  0
 48 54  1  0  0  0  0
 49 52  1  0  0  0  0
 49 54  1  0  0  0  0
 50 75  1  0  0  0  0
 51 76  1  0  0  0  0
 52 76  1  0  0  0  0
 53 57  1  0  0  0  0
 53 75  1  0  0  0  0
 55 80  1  0  0  0  0
 56 74  1  0  0  0  0
 57 73  1  0  0  0  0
 58 70  1  0  0  0  0
 60 69  1  0  0  0  0
 61 70  1  0  0  0  0
 62 71  1  0  0  0  0
 63 71  1  0  0  0  0
 64 71  1  0  0  0  0
 65 79  1  0  0  0  0
 66 82  1  0  0  0  0
 67 70  1  0  0  0  0
 67 89  1  0  0  0  0
 68 71  1  0  0  0  0
 68 81  1  0  0  0  0
 69 82  1  0  0  0  0
 72 73  1  0  0  0  0
M  CHG  1  82   1
M  ISO  4  38 100  67 101  76 100  89 101
M  END
> <Batch ID>
0168

> <Smiles>
CNc1ccc(C2(C(C)[101CH2:1][101O:1]c3ccc4c(c3)CN(C(=O)C(NC(=O)C(C)NC)C(C)(C)C)C(C(=O)NC3CCCc5ccccc53)C4)CC2)c(C)c1C1CC[100N:0]([100C:0](=O)N2CCCC(n3nc(-c4ccc(Oc5ccc(F)cc5F)cc4)c(C(N)=O)c3N)C2)CC1

> <Shape>
0.257

> <Color>
0.076

> <Negative vol penalty>
0.000

$$$$

  -OEChem-04052322303D

 84 93  0     1  0  0  0  0  0999 V2000
  -16.7062  -28.1589   23.9986 C   0  0  0  0  0  0  0  0  0  0  0  0
  -17.6550  -27.1463   24.0982 C   0  0  0  0  0  0  0  0  0  0  0  0
  -23.1174  -10.0834   21.7398 C   0  0  0  0  0  0  0  0  0  0  0  0
  -23.8451  -11.2195   23.7440 C   0  0  0  0  0  0  0  0  0  0  0  0
  -16.9527  -29.2663   23.1882 C   0  0  0  0  0  0  0  0  0  0  0  0
  -18.8505  -27.2401   23.3865 C   0  0  0  0  0  0  0  0  0  0  0  0
  -24.3622  -25.2537   25.1697 C   0  0  0  0  0  0  0  0  0  0  0  0
  -22.3983   -9.1746   22.5160 C   0  0  0  0  0  0  0  0  0  0  0  0
  -23.1260  -10.3106   24.5203 C   0  0  0  0  0  0  0  0  0  0  0  0
  -25.0811  -24.0951   24.8785 C   0  0  0  0  0  0  0  0  0  0  0  0
  -19.4505   -9.0970   24.1704 C   0  0  0  0  0  0  0  0  0  0  0  0
  -18.1519   -8.7855   23.7676 C   0  0  0  0  0  0  0  0  0  0  0  0
  -26.2695  -25.2761   23.1429 C   0  0  0  0  0  0  0  0  0  0  0  0
  -27.7432  -20.5958   22.9002 C   0  0  0  0  0  0  0  0  0  0  0  0
  -18.7768   -6.4618   23.5502 C   0  0  0  0  0  0  0  0  0  0  0  0
  -23.8409  -11.1058   22.3538 C   0  0  0  0  0  0  0  0  0  0  0  0
  -24.1231  -13.2667   21.0276 C   0  0  0  0  0  0  0  0  0  0  0  0
  -18.1559  -29.3784   22.4738 C   0  0  0  0  0  0  0  0  0  0  0  0
  -24.5843  -26.4311   24.4412 C   0  0  0  0  0  0  0  0  0  0  0  0
  -19.1127  -28.3495   22.5647 C   0  0  0  0  0  0  0  0  0  0  0  0
  -25.5540  -26.4489   23.4286 C   0  0  0  0  0  0  0  0  0  0  0  0
  -29.4977  -19.2070   21.9894 C   0  0  0  0  0  0  0  0  0  0  0  0
  -28.3236  -19.3389   22.7309 C   0  0  0  0  0  0  0  0  0  0  0  0
  -28.3368  -21.7210   22.3281 C   0  0  0  0  0  0  0  0  0  0  0  0
  -30.0914  -20.3322   21.4173 C   0  0  0  0  0  0  0  0  0  0  0  0
  -29.5109  -21.5892   21.5866 C   0  0  0  0  0  0  0  0  0  0  0  0
  -22.4026   -9.2882   23.9062 C   0  0  0  0  0  0  0  0  0  0  0  0
  -26.0329  -24.1054   23.8631 C   0  0  0  0  0  0  0  0  0  0  0  0
  -20.4122   -8.0910   24.2631 C   0  0  0  0  0  0  0  0  0  0  0  0
  -17.8150   -7.4680   23.4575 C   0  0  0  0  0  0  0  0  0  0  0  0
  -20.0754   -6.7734   23.9531 C   0  0  0  0  0  0  0  0  0  0  0  0
  -24.5844  -12.0446   21.5526 C   0  0  0  0  0  0  0  0  0  0  0  0
  -25.2016  -13.7773   20.3476 C   0  0  0  0  0  0  0  0  0  0  0  0
  -22.8348  -13.8851   21.1443 C   0  0  0  0  0  0  0  0  0  0  0  0
  -22.8068  -28.2697   22.5534 C   0  0  0  0  0  0  0  0  0  0  0  0
  -25.4274  -30.1809   22.6010 C   0  0  0  0  0  0  0  0  0  0  0  0
  -28.7995  -30.4634   23.0438 C   0  0  0  0  0  0  0  0  0  0  0  0
  -30.7369  -14.8759   20.2381 C   0  0  0  0  0  0  0  0  0  0  0  0
  -18.3572  -30.5717   21.5737 C   0  0  0  0  0  0  0  0  0  0  0  0
  -23.8194  -27.6797   24.7855 C   0  0  0  0  0  0  0  0  0  0  0  0
  -25.8445  -27.6928   22.6306 C   0  0  0  0  0  0  0  0  0  0  0  0
  -19.8085  -30.7737   21.1455 C   0  0  0  0  0  0  0  0  0  0  0  0
  -29.5931  -11.6798   19.0510 C   0  0  0  0  0  0  0  0  0  0  0  0
  -20.4188  -29.4527   20.6879 C   0  0  0  0  0  0  0  0  0  0  0  0
  -28.1735  -11.5611   19.5956 C   0  0  0  0  0  0  0  0  0  0  0  0
  -30.4893  -12.4301   20.0272 C   0  0  0  0  0  0  0  0  0  0  0  0
  -29.2385  -16.5488   21.5858 C   0  0  0  0  0  0  0  0  0  0  0  0
  -30.7906  -17.4206   20.4350 C   0  0  0  0  0  0  0  0  0  0  0  0
  -28.5539  -13.7207   20.8889 C   0  0  0  0  0  0  0  0  0  0  0  0
  -30.1557  -17.7774   21.7988 C   0  0  0  0  0  0  0  0  0  0  0  0
  -20.4321  -28.4269   21.8276 C   0  0  1  0  0  0  0  0  0  0  0  0
  -23.7631  -28.6818   23.6366 C   0  0  1  0  0  0  0  0  0  0  0  0
  -27.6138  -12.9481   19.9426 C   0  0  2  0  0  0  0  0  0  0  0  0
  -27.6711  -18.1484   23.3524 C   0  0  0  0  0  0  0  0  0  0  0  0
  -31.3509  -20.1876   20.6237 C   0  0  0  0  0  0  0  0  0  0  0  0
  -30.1461  -22.7973   20.9746 C   0  0  0  0  0  0  0  0  0  0  0  0
  -30.6604  -32.1457   22.9803 C   0  0  0  0  0  0  0  0  0  0  0  0
  -25.3635  -30.1329   19.5509 C   0  0  0  0  0  0  0  0  0  0  0  0
  -27.7142  -30.9943   19.5575 C   0  0  0  0  0  0  0  0  0  0  0  0
  -25.8821  -32.3668   20.5485 C   0  0  0  0  0  0  0  0  0  0  0  0
  -29.4552  -30.0180   25.8952 C   0  0  0  0  0  0  0  0  0  0  0  0
  -27.6949  -23.0557   22.5245 C   0  0  0  0  0  0  0  0  0  1  0  0
  -26.6794  -30.2995   21.7659 C   0  0  1  0  0  0  0  0  0  0  0  0
  -29.6307  -31.4436   23.8517 C   0  0  2  0  0  0  0  0  0  0  0  0
  -26.4032  -30.9243   20.3692 C   0  0  0  0  0  0  0  0  0  0  0  0
  -25.8568  -11.7938   21.2333 N   0  0  0  0  0  0  0  0  0  0  0  0
  -26.2043  -12.8654   20.5003 N   0  0  0  0  0  0  0  0  0  0  0  0
  -25.0661  -28.8864   23.0007 N   0  0  0  0  0  0  0  0  0  0  0  0
  -29.9362  -13.7384   20.3904 N   0  0  0  0  0  0  0  0  0  0  0  0
  -30.2175  -16.0922   20.6140 N   0  0  0  0  0  0  0  0  0  0  0  0
  -25.3807  -14.9128   19.6398 N   0  0  0  0  0  0  0  0  0  0  0  0
  -21.8406  -13.2244   21.8789 N   0  0  0  0  0  0  0  0  0  0  0  0
  -21.5115  -28.7093   22.7493 N   0  0  0  0  0  0  0  0  0  0  0  0
  -27.6400  -31.0431   22.5738 N   0  0  0  0  0  0  0  0  0  0  0  0
  -30.3483  -30.7336   24.9480 N   0  3  0  0  0  0  0  0  0  0  0  0
  -22.5680  -14.9829   20.5992 O   0  0  0  0  0  0  0  0  0  0  0  0
  -23.2143  -27.6035   21.6090 O   0  0  0  0  0  0  0  0  0  0  0  0
  -24.7972  -31.2000   22.8942 O   0  0  0  0  0  0  0  0  0  0  0  0
  -29.1460  -29.3010   22.8460 O   0  0  0  0  0  0  0  0  0  0  0  0
  -31.8953  -14.8062   19.8065 O   0  0  0  0  0  0  0  0  0  0  0  0
  -21.7008   -8.4017   24.6640 O   0  0  0  0  0  0  0  0  0  0  0  0
  -26.7406  -22.9677   23.5743 O   0  0  0  0  0  0  0  0  0  1  0  0
  -16.5676   -7.1687   23.0721 F   0  0  0  0  0  0  0  0  0  0  0  0
  -20.9947   -5.8024   24.0414 F   0  0  0  0  0  0  0  0  0  0  0  0
  1  2  1  0  0  0  0
  1  5  2  0  0  0  0
  2  6  2  0  0  0  0
  3  8  2  0  0  0  0
  3 16  1  0  0  0  0
  4  9  1  0  0  0  0
  4 16  2  0  0  0  0
  5 18  1  0  0  0  0
  6 20  1  0  0  0  0
  7 10  2  0  0  0  0
  7 19  1  0  0  0  0
  8 27  1  0  0  0  0
  9 27  2  0  0  0  0
 10 28  1  0  0  0  0
 11 12  2  0  0  0  0
 11 29  1  0  0  0  0
 12 30  1  0  0  0  0
 13 21  1  0  0  0  0
 13 28  2  0  0  0  0
 14 23  2  0  0  0  0
 14 24  1  0  0  0  0
 15 30  2  0  0  0  0
 15 31  1  0  0  0  0
 16 32  1  0  0  0  0
 17 32  1  0  0  0  0
 17 33  2  0  0  0  0
 17 34  1  0  0  0  0
 18 20  2  0  0  0  0
 18 39  1  0  0  0  0
 19 21  2  0  0  0  0
 19 40  1  0  0  0  0
 20 51  1  0  0  0  0
 21 41  1  0  0  0  0
 22 23  1  0  0  0  0
 22 25  2  0  0  0  0
 22 50  1  0  0  0  0
 23 54  1  0  0  0  0
 24 26  2  0  0  0  0
 24 62  1  0  0  0  0
 25 26  1  0  0  0  0
 25 55  1  0  0  0  0
 26 56  1  0  0  0  0
 27 81  1  0  0  0  0
 28 82  1  0  0  0  0
 29 31  2  0  0  0  0
 29 81  1  0  0  0  0
 30 83  1  0  0  0  0
 31 84  1  0  0  0  0
 32 66  2  0  0  0  0
 33 67  1  0  0  0  0
 33 71  1  0  0  0  0
 34 72  1  0  0  0  0
 34 76  2  0  0  0  0
 35 52  1  0  0  0  0
 35 73  1  0  0  0  0
 35 77  2  0  0  0  0
 36 63  1  0  0  0  0
 36 68  1  0  0  0  0
 36 78  2  0  0  0  0
 37 64  1  0  0  0  0
 37 74  1  0  0  0  0
 37 79  2  0  0  0  0
 38 69  1  0  0  0  0
 38 70  1  0  0  0  0
 38 80  2  0  0  0  0
 39 42  1  0  0  0  0
 40 52  1  0  0  0  0
 41 68  1  0  0  0  0
 42 44  1  0  0  0  0
 43 45  1  0  0  0  0
 43 46  1  0  0  0  0
 44 51  1  0  0  0  0
 45 53  1  0  0  0  0
 46 69  1  0  0  0  0
 47 50  1  0  0  0  0
 47 70  1  0  0  0  0
 48 50  1  0  0  0  0
 48 70  1  0  0  0  0
 49 53  1  0  0  0  0
 49 69  1  0  0  0  0
 51 73  1  0  0  0  0
 52 68  1  0  0  0  0
 53 67  1  0  0  0  0
 57 64  1  0  0  0  0
 58 65  1  0  0  0  0
 59 65  1  0  0  0  0
 60 65  1  0  0  0  0
 61 75  1  0  0  0  0
 62 82  1  0  0  0  0
 63 65  1  0  0  0  0
 63 74  1  0  0  0  0
 64 75  1  0  0  0  0
 66 67  1  0  0  0  0
M  CHG  1  75   1
M  ISO  4  38 100  62 101  70 100  82 101
M  END
> <Batch ID>
0168

> <Smiles>
CNC(C)C(=O)NC(C(=O)N1Cc2cc([101O:1][101CH2:1]c3cc(C)c(C4C[100N:0]([100C:0](=O)N5CCCC(n6nc(-c7ccc(Oc8ccc(F)cc8F)cc7)c(C(N)=O)c6N)C5)C4)c(C)c3C)ccc2CC1C(=O)NC1CCCc2ccccc21)C(C)(C)C

> <Shape>
0.257

> <Color>
0.147

> <Negative vol penalty>
0.000

$$$$

  -OEChem-04052322303D

 93103  0     1  0  0  0  0  0999 V2000
  -29.6318  -20.2437   22.4950 C   0  0  0  0  0  0  0  0  0  0  0  0
  -28.5433  -21.0684   22.2298 C   0  0  0  0  0  0  0  0  0  0  0  0
  -26.7251  -12.9089   20.9271 C   0  0  0  0  0  0  0  0  0  0  0  0
  -27.1709  -12.7408   18.5586 C   0  0  0  0  0  0  0  0  0  0  0  0
  -30.7896  -20.7790   23.0578 C   0  0  0  0  0  0  0  0  0  0  0  0
  -28.6115  -22.4288   22.5283 C   0  0  0  0  0  0  0  0  0  0  0  0
  -26.0369  -27.0189   19.3965 C   0  0  0  0  0  0  0  0  0  0  0  0
  -18.3998  -24.0748   24.9563 C   0  0  0  0  0  0  0  0  0  0  0  0
  -18.7908  -23.1779   23.9622 C   0  0  0  0  0  0  0  0  0  0  0  0
  -26.2780  -11.5877   20.9367 C   0  0  0  0  0  0  0  0  0  0  0  0
  -26.7238  -11.4196   18.5682 C   0  0  0  0  0  0  0  0  0  0  0  0
  -24.8592  -27.7402   19.5877 C   0  0  0  0  0  0  0  0  0  0  0  0
  -23.4798   -9.8991   20.0744 C   0  0  0  0  0  0  0  0  0  0  0  0
  -22.2989   -9.6204   20.7623 C   0  0  0  0  0  0  0  0  0  0  0  0
  -20.0708  -24.9241   22.8901 C   0  0  0  0  0  0  0  0  0  0  0  0
  -26.1056  -29.4607   20.7304 C   0  0  0  0  0  0  0  0  0  0  0  0
  -23.4975   -8.0939   22.2013 C   0  0  0  0  0  0  0  0  0  0  0  0
  -27.1715  -13.4855   19.7380 C   0  0  0  0  0  0  0  0  0  0  0  0
  -28.9478  -15.3049   19.9424 C   0  0  0  0  0  0  0  0  0  0  0  0
  -30.8756  -22.1484   23.3545 C   0  0  0  0  0  0  0  0  0  0  0  0
  -27.2582  -27.5087   19.8813 C   0  0  0  0  0  0  0  0  0  0  0  0
  -29.7711  -22.9827   23.0969 C   0  0  0  0  0  0  0  0  0  0  0  0
  -19.6798  -25.8211   23.8843 C   0  0  0  0  0  0  0  0  0  0  0  0
  -27.2977  -28.7449   20.5419 C   0  0  0  0  0  0  0  0  0  0  0  0
  -18.8443  -25.3964   24.9173 C   0  0  0  0  0  0  0  0  0  0  0  0
  -19.6263  -23.6025   22.9291 C   0  0  0  0  0  0  0  0  0  0  0  0
  -26.2773  -10.8430   19.7573 C   0  0  0  0  0  0  0  0  0  0  0  0
  -24.8930  -28.9599   20.2572 C   0  0  0  0  0  0  0  0  0  0  0  0
  -24.6696   -9.2752   20.4498 C   0  0  0  0  0  0  0  0  0  0  0  0
  -22.3077   -8.7178   21.8258 C   0  0  0  0  0  0  0  0  0  0  0  0
  -24.6784   -8.3727   21.5133 C   0  0  0  0  0  0  0  0  0  0  0  0
  -27.6329  -14.8504   19.7273 C   0  0  0  0  0  0  0  0  0  0  0  0
  -28.8619  -16.6710   19.8284 C   0  0  0  0  0  0  0  0  0  0  0  0
  -30.1404  -14.5590   20.2202 C   0  0  0  0  0  0  0  0  0  0  0  0
  -29.4039  -26.4899   21.9936 C   0  0  0  0  0  0  0  0  0  0  0  0
  -31.0906  -29.0485   20.9300 C   0  0  0  0  0  0  0  0  0  0  0  0
  -31.0643  -32.1250   19.4533 C   0  0  0  0  0  0  0  0  0  0  0  0
  -24.6381  -20.5117   20.7222 C   0  0  0  0  0  0  0  0  0  0  0  0
  -32.1308  -22.6726   24.0060 C   0  0  0  0  0  0  0  0  0  0  0  0
  -28.5237  -26.7313   19.6435 C   0  0  0  0  0  0  0  0  0  0  0  0
  -28.5863  -29.3242   21.0639 C   0  0  0  0  0  0  0  0  0  0  0  0
  -32.2590  -24.1926   23.9461 C   0  0  0  0  0  0  0  0  0  0  0  0
  -26.3307  -20.1050   17.6728 C   0  0  0  0  0  0  0  0  0  0  0  0
  -30.9448  -24.8553   24.3465 C   0  0  0  0  0  0  0  0  0  0  0  0
  -26.9932  -18.7422   17.8729 C   0  0  0  0  0  0  0  0  0  0  0  0
  -21.3589  -21.6785   20.1994 C   0  0  0  0  0  0  0  0  0  0  0  0
  -22.4346  -22.7192   22.2310 C   0  0  0  0  0  0  0  0  0  0  0  0
  -19.6312  -27.8816   22.5303 C   0  0  0  0  0  0  0  0  0  0  0  0
  -24.9064  -20.1373   18.2300 C   0  0  0  0  0  0  0  0  0  0  0  0
  -22.7263  -21.6527   19.5099 C   0  0  0  0  0  0  0  0  0  0  0  0
  -23.7705  -22.6989   21.4934 C   0  0  0  0  0  0  0  0  0  0  0  0
  -25.4681  -18.3493   19.8444 C   0  0  0  0  0  0  0  0  0  0  0  0
  -20.1464  -29.3009   22.3481 C   0  0  0  0  0  0  0  0  0  0  0  0
  -22.2043  -28.7450   23.6556 C   0  0  0  0  0  0  0  0  0  0  0  0
  -20.1670  -27.2315   23.8209 C   0  0  2  0  0  0  0  0  0  0  0  0
  -29.8158  -24.4679   23.3838 C   0  0  1  0  0  0  0  0  0  0  0  0
  -29.6334  -27.0796   20.6308 C   0  0  1  0  0  0  0  0  0  0  0  0
  -21.7171  -27.3060   23.8698 C   0  0  2  0  0  0  0  0  0  0  0  0
  -26.9210  -18.3041   19.3466 C   0  0  1  0  0  0  0  0  0  0  0  0
  -21.2733  -22.8005   21.2368 C   0  0  0  0  0  0  0  0  0  0  0  0
  -18.4113  -26.3385   25.9922 C   0  0  0  0  0  0  0  0  0  0  0  0
  -22.2700  -26.7857   25.2017 C   0  0  0  0  0  0  0  0  0  0  0  0
  -32.5940  -33.9868   18.7522 C   0  0  0  0  0  0  0  0  0  0  0  0
  -31.3425  -29.9336   23.8392 C   0  0  0  0  0  0  0  0  0  0  0  0
  -32.0126  -32.2019   23.0182 C   0  0  0  0  0  0  0  0  0  0  0  0
  -33.4222  -30.2157   22.4791 C   0  0  0  0  0  0  0  0  0  0  0  0
  -30.2957  -31.8415   16.6094 C   0  0  0  0  0  0  0  0  0  0  0  0
  -22.2229  -30.6405   22.0375 C   0  0  0  0  0  0  0  0  0  0  0  0
  -23.6690  -30.4860   21.6095 C   0  0  0  0  0  0  0  0  0  1  0  0
  -31.1909  -30.5020   21.3252 C   0  0  1  0  0  0  0  0  0  0  0  0
  -31.8938  -32.7069   18.3228 C   0  0  2  0  0  0  0  0  0  0  0  0
  -31.9673  -30.7018   22.6574 C   0  0  0  0  0  0  0  0  0  0  0  0
  -26.7745  -15.8469   19.4946 N   0  0  0  0  0  0  0  0  0  0  0  0
  -27.5517  -16.9411   19.5627 N   0  0  0  0  0  0  0  0  0  0  0  0
  -29.7958  -28.5235   20.8122 N   0  0  0  0  0  0  0  0  0  0  0  0
  -24.8824  -19.6734   19.6242 N   0  0  0  0  0  0  0  0  0  0  0  0
  -23.8095  -21.6223   20.5031 N   0  0  0  0  0  0  0  0  0  0  0  0
  -29.7799  -17.6554   19.9306 N   0  0  0  0  0  0  0  0  0  0  0  0
  -30.0510  -13.1628   20.3032 N   0  0  0  0  0  0  0  0  0  0  0  0
  -20.0146  -22.7122   21.9438 N   0  0  0  0  0  0  0  0  0  0  0  0
  -29.9226  -25.2188   22.1513 N   0  0  0  0  0  0  0  0  0  0  0  0
  -31.7756  -31.1961   20.1830 N   0  0  0  0  0  0  0  0  0  0  0  0
  -21.6532  -29.2862   22.3600 N   0  3  2  0  0  0  0  0  0  0  0  0
  -31.0273  -33.0159   17.1504 N   0  3  0  0  0  0  0  0  0  0  0  0
  -31.2492  -15.1154   20.4061 O   0  0  0  0  0  0  0  0  0  0  0  0
  -28.8022  -27.1405   22.8400 O   0  0  0  0  0  0  0  0  0  0  0  0
  -32.1228  -28.4046   20.7263 O   0  0  0  0  0  0  0  0  0  0  0  0
  -29.9028  -32.4637   19.6698 O   0  0  0  0  0  0  0  0  0  0  0  0
  -25.1313  -20.2816   21.8335 O   0  0  0  0  0  0  0  0  0  0  0  0
  -25.8414   -9.5537   19.7664 O   0  0  0  0  0  0  0  0  0  0  0  0
  -23.7366  -29.6708   20.4471 O   0  0  0  0  0  0  0  0  0  1  0  0
  -21.1739   -8.4514   22.4873 F   0  0  0  0  0  0  0  0  0  0  0  0
  -25.8186   -7.7711   21.8793 F   0  0  0  0  0  0  0  0  0  0  0  0
  1  2  1  0  0  0  0
  1  5  2  0  0  0  0
  2  6  2  0  0  0  0
  3 10  2  0  0  0  0
  3 18  1  0  0  0  0
  4 11  1  0  0  0  0
  4 18  2  0  0  0  0
  5 20  1  0  0  0  0
  6 22  1  0  0  0  0
  7 12  2  0  0  0  0
  7 21  1  0  0  0  0
  8  9  2  0  0  0  0
  8 25  1  0  0  0  0
  9 26  1  0  0  0  0
 10 27  1  0  0  0  0
 11 27  2  0  0  0  0
 12 28  1  0  0  0  0
 13 14  2  0  0  0  0
 13 29  1  0  0  0  0
 14 30  1  0  0  0  0
 15 23  1  0  0  0  0
 15 26  2  0  0  0  0
 16 24  1  0  0  0  0
 16 28  2  0  0  0  0
 17 30  2  0  0  0  0
 17 31  1  0  0  0  0
 18 32  1  0  0  0  0
 19 32  1  0  0  0  0
 19 33  2  0  0  0  0
 19 34  1  0  0  0  0
 20 22  2  0  0  0  0
 20 39  1  0  0  0  0
 21 24  2  0  0  0  0
 21 40  1  0  0  0  0
 22 56  1  0  0  0  0
 23 25  2  0  0  0  0
 23 55  1  0  0  0  0
 24 41  1  0  0  0  0
 25 61  1  0  0  0  0
 26 80  1  0  0  0  0
 27 90  1  0  0  0  0
 28 91  1  0  0  0  0
 29 31  2  0  0  0  0
 29 90  1  0  0  0  0
 30 92  1  0  0  0  0
 31 93  1  0  0  0  0
 32 73  2  0  0  0  0
 33 74  1  0  0  0  0
 33 78  1  0  0  0  0
 34 79  1  0  0  0  0
 34 85  2  0  0  0  0
 35 57  1  0  0  0  0
 35 81  1  0  0  0  0
 35 86  2  0  0  0  0
 36 70  1  0  0  0  0
 36 75  1  0  0  0  0
 36 87  2  0  0  0  0
 37 71  1  0  0  0  0
 37 82  1  0  0  0  0
 37 88  2  0  0  0  0
 38 76  1  0  0  0  0
 38 77  1  0  0  0  0
 38 89  2  0  0  0  0
 39 42  1  0  0  0  0
 40 57  1  0  0  0  0
 41 75  1  0  0  0  0
 42 44  1  0  0  0  0
 43 45  1  0  0  0  0
 43 49  1  0  0  0  0
 44 56  1  0  0  0  0
 45 59  1  0  0  0  0
 46 50  1  0  0  0  0
 46 60  1  0  0  0  0
 47 51  1  0  0  0  0
 47 60  1  0  0  0  0
 48 53  1  0  0  0  0
 48 55  1  0  0  0  0
 49 76  1  0  0  0  0
 50 77  1  0  0  0  0
 51 77  1  0  0  0  0
 52 59  1  0  0  0  0
 52 76  1  0  0  0  0
 53 83  1  0  0  0  0
 54 58  1  0  0  0  0
 54 83  1  0  0  0  0
 55 58  1  0  0  0  0
 56 81  1  0  0  0  0
 57 75  1  0  0  0  0
 58 62  1  0  0  0  0
 59 74  1  0  0  0  0
 60 80  1  0  0  0  0
 63 71  1  0  0  0  0
 64 72  1  0  0  0  0
 65 72  1  0  0  0  0
 66 72  1  0  0  0  0
 67 84  1  0  0  0  0
 68 69  1  0  0  0  0
 68 83  1  0  0  0  0
 69 91  1  0  0  0  0
 70 72  1  0  0  0  0
 70 82  1  0  0  0  0
 71 84  1  0  0  0  0
 73 74  1  0  0  0  0
M  CHG  2  83   1  84   1
M  ISO  4  38 100  69 101  77 100  91 101
M  END
> <Batch ID>
0168

> <Smiles>
CNC(C)C(=O)NC(C(=O)N1Cc2cc([101O:1][101CH2:1]CN3CCC(c4cc(NC5CC[100N:0]([100C:0](=O)N6CCCC(n7nc(-c8ccc(Oc9ccc(F)cc9F)cc8)c(C(N)=O)c7N)C6)CC5)ccc4C)C(C)C3)ccc2CC1C(=O)NC1CCCc2ccccc21)C(C)(C)C

> <Shape>
0.219

> <Color>
0.078

> <Negative vol penalty>
0.000

$$$$

  -OEChem-04052322303D

 88 98  0     1  0  0  0  0  0999 V2000
  -26.4241  -32.1969   28.0484 C   0  0  0  0  0  0  0  0  0  0  0  0
  -26.1396  -30.8359   28.0016 C   0  0  0  0  0  0  0  0  0  0  0  0
  -23.0195   -9.8774   19.9237 C   0  0  0  0  0  0  0  0  0  0  0  0
  -23.7746   -9.8398   22.2184 C   0  0  0  0  0  0  0  0  0  0  0  0
  -26.6543  -32.9008   26.8671 C   0  0  0  0  0  0  0  0  0  0  0  0
  -26.0840  -30.1782   26.7732 C   0  0  0  0  0  0  0  0  0  0  0  0
  -27.4441  -23.8128   23.7820 C   0  0  0  0  0  0  0  0  0  0  0  0
  -22.2704   -8.7231   20.1513 C   0  0  0  0  0  0  0  0  0  0  0  0
  -23.0254   -8.6854   22.4460 C   0  0  0  0  0  0  0  0  0  0  0  0
  -26.8317  -22.8414   22.9914 C   0  0  0  0  0  0  0  0  0  0  0  0
  -23.3038   -5.3729   21.8293 C   0  0  0  0  0  0  0  0  0  0  0  0
  -23.9135   -4.3322   22.5299 C   0  0  0  0  0  0  0  0  0  0  0  0
  -27.3247  -24.1429   21.0211 C   0  0  0  0  0  0  0  0  0  0  0  0
  -22.2093   -4.4821   24.2358 C   0  0  0  0  0  0  0  0  0  0  0  0
  -23.7717  -10.4358   20.9573 C   0  0  0  0  0  0  0  0  0  0  0  0
  -24.1243  -12.9612   20.8836 C   0  0  0  0  0  0  0  0  0  0  0  0
  -26.6110  -32.2495   25.6243 C   0  0  0  0  0  0  0  0  0  0  0  0
  -27.9927  -24.9637   23.1982 C   0  0  0  0  0  0  0  0  0  0  0  0
  -26.3125  -30.8744   25.5741 C   0  0  0  0  0  0  0  0  0  0  0  0
  -27.9457  -25.1262   21.8062 C   0  0  0  0  0  0  0  0  0  0  0  0
  -27.2586  -19.5235   19.9981 C   0  0  0  0  0  0  0  0  0  0  0  0
  -26.4115  -18.9512   20.9499 C   0  0  0  0  0  0  0  0  0  0  0  0
  -28.6115  -19.2373   20.0082 C   0  0  0  0  0  0  0  0  0  0  0  0
  -22.2733   -8.1271   21.4124 C   0  0  0  0  0  0  0  0  0  0  0  0
  -26.7694  -23.0077   21.6110 C   0  0  0  0  0  0  0  0  0  0  0  0
  -22.1468   -5.9682   22.3320 C   0  0  0  0  0  0  0  0  0  0  0  0
  -23.3663   -3.8868   23.7331 C   0  0  0  0  0  0  0  0  0  0  0  0
  -21.5996   -5.5228   23.5352 C   0  0  0  0  0  0  0  0  0  0  0  0
  -24.5463  -11.6279   20.7226 C   0  0  0  0  0  0  0  0  0  0  0  0
  -26.9414  -18.1087   21.8997 C   0  0  0  0  0  0  0  0  0  0  0  0
  -29.0532  -18.3680   20.9957 C   0  0  0  0  0  0  0  0  0  0  0  0
  -25.2203  -13.7126   20.5361 C   0  0  0  0  0  0  0  0  0  0  0  0
  -22.8550  -13.4747   21.3092 C   0  0  0  0  0  0  0  0  0  0  0  0
  -27.4221  -28.0826   23.4229 C   0  0  0  0  0  0  0  0  0  0  0  0
  -30.0574  -28.3044   21.5446 C   0  0  0  0  0  0  0  0  0  0  0  0
  -32.1278  -26.8237   19.2712 C   0  0  0  0  0  0  0  0  0  0  0  0
  -30.7078  -14.7052   20.7539 C   0  0  0  0  0  0  0  0  0  0  0  0
  -26.8200  -33.0622   24.3712 C   0  0  0  0  0  0  0  0  0  0  0  0
  -28.6734  -25.9895   24.0623 C   0  0  0  0  0  0  0  0  0  0  0  0
  -25.0048  -19.4191   20.7901 C   0  0  0  0  0  0  0  0  0  0  0  0
  -28.5376  -26.3340   21.1285 C   0  0  0  0  0  0  0  0  0  0  0  0
  -27.1122  -32.2134   23.1364 C   0  0  0  0  0  0  0  0  0  0  0  0
  -25.0378  -19.9487   19.3474 C   0  0  0  0  0  0  0  0  0  0  0  0
  -29.5653  -12.3689   18.3222 C   0  0  0  0  0  0  0  0  0  0  0  0
  -30.7709  -20.5838   19.5633 C   0  0  0  0  0  0  0  0  0  0  0  0
  -29.6492  -21.3413   18.9243 C   0  0  0  0  0  0  0  0  0  0  0  0
  -26.1343  -31.0462   23.0473 C   0  0  0  0  0  0  0  0  0  0  0  0
  -28.1258  -12.0734   18.7468 C   0  0  0  0  0  0  0  0  0  0  0  0
  -30.4808  -12.5642   19.5287 C   0  0  0  0  0  0  0  0  0  0  0  0
  -28.5792  -13.2780   20.9244 C   0  0  0  0  0  0  0  0  0  0  0  0
  -29.5684  -19.8405   19.0401 C   0  0  0  0  0  0  0  0  0  0  0  0
  -26.2678  -30.1206   24.2627 C   0  0  1  0  0  0  0  0  0  0  0  0
  -28.7435  -27.3675   23.4114 C   0  0  1  0  0  0  0  0  0  0  0  0
  -27.6068  -13.1288   19.7419 C   0  0  2  0  0  0  0  0  0  0  0  0
  -26.4869  -20.4407   19.0789 C   0  0  2  0  0  0  0  0  0  0  0  0
  -26.0757  -17.4951   22.9459 C   0  0  0  0  0  0  0  0  0  0  0  0
  -26.8558  -20.2725   17.6029 C   0  0  0  0  0  0  0  0  0  0  0  0
  -34.1754  -27.2673   17.8899 C   0  0  0  0  0  0  0  0  0  0  0  0
  -28.3929  -29.9927   19.6239 C   0  0  0  0  0  0  0  0  0  0  0  0
  -30.1420  -29.6027   17.8755 C   0  0  0  0  0  0  0  0  0  0  0  0
  -30.7293  -30.8121   19.9767 C   0  0  0  0  0  0  0  0  0  0  0  0
  -33.6313  -24.6417   20.5891 C   0  0  0  0  0  0  0  0  0  0  0  0
  -30.5008  -18.0041   21.0826 C   0  0  0  0  0  0  0  0  0  0  0  0
  -26.6651  -21.9032   19.5074 C   0  0  0  0  0  0  0  0  0  1  0  0
  -30.7799  -16.8327   22.0296 C   0  0  0  0  0  0  0  0  0  0  0  0
  -30.3114  -28.3199   20.0565 C   0  0  1  0  0  0  0  0  0  0  0  0
  -33.6409  -26.7204   19.2044 C   0  0  2  0  0  0  0  0  0  0  0  0
  -29.8810  -29.6599   19.3958 C   0  0  0  0  0  0  0  0  0  0  0  0
  -25.8116  -11.5344   20.3052 N   0  0  0  0  0  0  0  0  0  0  0  0
  -28.2568  -17.7976   21.9388 N   0  0  0  0  0  0  0  0  0  0  0  0
  -26.1941  -12.8185   20.2009 N   0  0  0  0  0  0  0  0  0  0  0  0
  -29.1869  -27.3120   22.0170 N   0  0  0  0  0  0  0  0  0  0  0  0
  -29.9327  -13.5788   20.4320 N   0  0  0  0  0  0  0  0  0  0  0  0
  -25.4363  -15.0443   20.4876 N   0  0  0  0  0  0  0  0  0  0  0  0
  -21.8387  -12.5638   21.6279 N   0  0  0  0  0  0  0  0  0  0  0  0
  -27.4322  -29.2721   24.1262 N   0  0  0  0  0  0  0  0  0  0  0  0
  -31.7221  -27.9926   19.8798 N   0  0  0  0  0  0  0  0  0  0  0  0
  -30.1107  -15.6211   21.6114 N   0  0  0  0  0  0  0  0  0  0  0  0
  -34.0690  -25.2985   19.3305 N   0  3  0  0  0  0  0  0  0  0  0  0
  -22.6238  -14.7051   21.3883 O   0  0  0  0  0  0  0  0  0  0  0  0
  -26.4647  -27.5924   22.8359 O   0  0  0  0  0  0  0  0  0  0  0  0
  -30.6166  -29.1374   22.2622 O   0  0  0  0  0  0  0  0  0  0  0  0
  -31.3805  -25.9562   18.8246 O   0  0  0  0  0  0  0  0  0  0  0  0
  -31.8454  -14.8840   20.3058 O   0  0  0  0  0  0  0  0  0  0  0  0
  -21.5422   -7.0008   21.6349 O   0  0  0  0  0  0  0  0  0  0  0  0
  -26.1717  -22.0614   20.8370 O   0  0  0  0  0  0  0  0  0  1  0  0
  -23.9510   -2.8864   24.4049 F   0  0  0  0  0  0  0  0  0  0  0  0
  -20.4876   -6.0900   24.0226 F   0  0  0  0  0  0  0  0  0  0  0  0
  1  2  1  0  0  0  0
  1  5  2  0  0  0  0
  2  6  2  0  0  0  0
  3  8  2  0  0  0  0
  3 15  1  0  0  0  0
  4  9  1  0  0  0  0
  4 15  2  0  0  0  0
  5 17  1  0  0  0  0
  6 19  1  0  0  0  0
  7 10  2  0  0  0  0
  7 18  1  0  0  0  0
  8 24  1  0  0  0  0
  9 24  2  0  0  0  0
 10 25  1  0  0  0  0
 11 12  2  0  0  0  0
 11 26  1  0  0  0  0
 12 27  1  0  0  0  0
 13 20  1  0  0  0  0
 13 25  2  0  0  0  0
 14 27  2  0  0  0  0
 14 28  1  0  0  0  0
 15 29  1  0  0  0  0
 16 29  1  0  0  0  0
 16 32  2  0  0  0  0
 16 33  1  0  0  0  0
 17 19  2  0  0  0  0
 17 38  1  0  0  0  0
 18 20  2  0  0  0  0
 18 39  1  0  0  0  0
 19 52  1  0  0  0  0
 20 41  1  0  0  0  0
 21 22  2  0  0  0  0
 21 23  1  0  0  0  0
 21 55  1  0  0  0  0
 22 30  1  0  0  0  0
 22 40  1  0  0  0  0
 23 31  2  0  0  0  0
 23 51  1  0  0  0  0
 24 85  1  0  0  0  0
 25 86  1  0  0  0  0
 26 28  2  0  0  0  0
 26 85  1  0  0  0  0
 27 87  1  0  0  0  0
 28 88  1  0  0  0  0
 29 69  2  0  0  0  0
 30 56  1  0  0  0  0
 30 70  2  0  0  0  0
 31 63  1  0  0  0  0
 31 70  1  0  0  0  0
 32 71  1  0  0  0  0
 32 74  1  0  0  0  0
 33 75  1  0  0  0  0
 33 80  2  0  0  0  0
 34 53  1  0  0  0  0
 34 76  1  0  0  0  0
 34 81  2  0  0  0  0
 35 66  1  0  0  0  0
 35 72  1  0  0  0  0
 35 82  2  0  0  0  0
 36 67  1  0  0  0  0
 36 77  1  0  0  0  0
 36 83  2  0  0  0  0
 37 73  1  0  0  0  0
 37 78  1  0  0  0  0
 37 84  2  0  0  0  0
 38 42  1  0  0  0  0
 39 53  1  0  0  0  0
 40 43  1  0  0  0  0
 41 72  1  0  0  0  0
 42 47  1  0  0  0  0
 43 55  1  0  0  0  0
 44 48  1  0  0  0  0
 44 49  1  0  0  0  0
 45 46  1  0  0  0  0
 45 51  1  0  0  0  0
 46 51  1  0  0  0  0
 47 52  1  0  0  0  0
 48 54  1  0  0  0  0
 49 73  1  0  0  0  0
 50 54  1  0  0  0  0
 50 73  1  0  0  0  0
 52 76  1  0  0  0  0
 53 72  1  0  0  0  0
 54 71  1  0  0  0  0
 55 57  1  0  0  0  0
 55 64  1  0  0  0  0
 58 67  1  0  0  0  0
 59 68  1  0  0  0  0
 60 68  1  0  0  0  0
 61 68  1  0  0  0  0
 62 79  1  0  0  0  0
 63 65  1  0  0  0  0
 64 86  1  0  0  0  0
 65 78  1  0  0  0  0
 66 68  1  0  0  0  0
 66 77  1  0  0  0  0
 67 79  1  0  0  0  0
 69 71  1  0  0  0  0
M  CHG  1  79   1
M  ISO  4  37 100  64 101  78 100  86 101
M  END
> <Batch ID>
0168

> <Smiles>
CNC(C)C(=O)NC(C(=O)N1Cc2cc([101O:1][101CH2:1]C3(C)CCc4c(C)nc(CC[100NH:0][100C:0](=O)N5CCCC(n6nc(-c7ccc(Oc8ccc(F)cc8F)cc7)c(C(N)=O)c6N)C5)c(C5CC5)c43)ccc2CC1C(=O)NC1CCCc2ccccc21)C(C)(C)C

> <Shape>
0.320

> <Color>
0.203

> <Negative vol penalty>
0.000

$$$$

  -OEChem-04052322303D

 89 97  0     1  0  0  0  0  0999 V2000
  -26.0321  -30.1417   19.9181 C   0  0  0  0  0  0  0  0  0  0  0  0
  -25.6859  -28.8426   19.5640 C   0  0  0  0  0  0  0  0  0  0  0  0
  -30.1191  -23.6684   20.5637 C   0  0  0  0  0  0  0  0  0  0  0  0
  -27.7530  -23.1838   20.6227 C   0  0  0  0  0  0  0  0  0  0  0  0
  -25.4221  -30.7472   21.0147 C   0  0  0  0  0  0  0  0  0  0  0  0
  -24.7211  -28.1528   20.2991 C   0  0  0  0  0  0  0  0  0  0  0  0
  -23.2829  -23.7836   18.5541 C   0  0  0  0  0  0  0  0  0  0  0  0
  -29.8374  -25.0271   20.4226 C   0  0  0  0  0  0  0  0  0  0  0  0
  -27.4712  -24.5427   20.4817 C   0  0  0  0  0  0  0  0  0  0  0  0
  -24.0948  -22.6511   18.5958 C   0  0  0  0  0  0  0  0  0  0  0  0
  -28.9033  -27.5970   22.4116 C   0  0  0  0  0  0  0  0  0  0  0  0
  -29.6293  -28.4943   23.1948 C   0  0  0  0  0  0  0  0  0  0  0  0
  -22.8110  -21.8064   20.4552 C   0  0  0  0  0  0  0  0  0  0  0  0
  -30.4687  -29.5602   21.1957 C   0  0  0  0  0  0  0  0  0  0  0  0
  -29.0769  -22.7467   20.6637 C   0  0  0  0  0  0  0  0  0  0  0  0
  -29.5428  -20.6309   22.0106 C   0  0  0  0  0  0  0  0  0  0  0  0
  -24.4585  -30.0593   21.7705 C   0  0  0  0  0  0  0  0  0  0  0  0
  -22.2339  -23.9415   19.4713 C   0  0  0  0  0  0  0  0  0  0  0  0
  -24.0767  -28.7554   21.3947 C   0  0  0  0  0  0  0  0  0  0  0  0
  -21.9856  -22.9407   20.4215 C   0  0  0  0  0  0  0  0  0  0  0  0
  -24.3596  -11.8642   20.3249 C   0  0  0  0  0  0  0  0  0  0  0  0
  -25.7163  -11.9542   20.0342 C   0  0  0  0  0  0  0  0  0  0  0  0
  -23.7009  -12.9522   20.8867 C   0  0  0  0  0  0  0  0  0  0  0  0
  -28.5135  -25.4643   20.3816 C   0  0  0  0  0  0  0  0  0  0  0  0
  -23.8608  -21.6636   19.5482 C   0  0  0  0  0  0  0  0  0  0  0  0
  -28.9601  -27.6812   21.0204 C   0  0  0  0  0  0  0  0  0  0  0  0
  -30.4120  -29.4759   22.5869 C   0  0  0  0  0  0  0  0  0  0  0  0
  -29.7428  -28.6628   20.4125 C   0  0  0  0  0  0  0  0  0  0  0  0
  -29.3673  -21.3429   20.8089 C   0  0  0  0  0  0  0  0  0  0  0  0
  -26.3636  -13.1450   20.3221 C   0  0  0  0  0  0  0  0  0  0  0  0
  -24.4385  -14.0982   21.1366 C   0  0  0  0  0  0  0  0  0  0  0  0
  -29.7961  -19.3413   21.6118 C   0  0  0  0  0  0  0  0  0  0  0  0
  -29.4823  -21.0940   23.3662 C   0  0  0  0  0  0  0  0  0  0  0  0
  -21.5409  -26.0517   21.7451 C   0  0  0  0  0  0  0  0  0  0  0  0
  -18.7694  -24.3747   21.9141 C   0  0  0  0  0  0  0  0  0  0  0  0
  -17.1228  -21.4365   21.3640 C   0  0  0  0  0  0  0  0  0  0  0  0
  -28.6701  -14.9391   18.3718 C   0  0  0  0  0  0  0  0  0  0  0  0
  -23.8243  -30.7653   22.9430 C   0  0  0  0  0  0  0  0  0  0  0  0
  -21.3504  -25.1565   19.3961 C   0  0  0  0  0  0  0  0  0  0  0  0
  -20.8597  -23.0528   21.4156 C   0  0  0  0  0  0  0  0  0  0  0  0
  -23.1479  -29.8076   23.9186 C   0  0  0  0  0  0  0  0  0  0  0  0
  -30.8081  -17.4504   17.0306 C   0  0  0  0  0  0  0  0  0  0  0  0
  -22.2403  -28.8497   23.1615 C   0  0  0  0  0  0  0  0  0  0  0  0
  -30.6334  -18.6296   17.9893 C   0  0  0  0  0  0  0  0  0  0  0  0
  -29.4997  -16.6895   16.8277 C   0  0  0  0  0  0  0  0  0  0  0  0
  -28.6693  -17.4218   19.0296 C   0  0  0  0  0  0  0  0  0  0  0  0
  -23.0522  -27.9747   22.1980 C   0  0  1  0  0  0  0  0  0  0  0  0
  -20.6318  -25.4549   20.7083 C   0  0  1  0  0  0  0  0  0  0  0  0
  -29.9745  -18.1863   19.3093 C   0  0  2  0  0  0  0  0  0  0  0  0
  -23.6119  -10.6014   20.0368 C   0  0  0  0  0  0  0  0  0  0  0  0
  -26.4502  -10.8042   19.4301 C   0  0  0  0  0  0  0  0  0  0  0  0
  -22.2457  -12.8870   21.2101 C   0  0  0  0  0  0  0  0  0  0  0  0
  -28.4246  -13.6557   22.4988 C   0  0  0  0  0  0  0  0  0  0  0  0
  -23.8577  -15.3197   23.2729 C   0  0  0  0  0  0  0  0  0  0  0  0
  -14.8738  -20.3575   21.6381 C   0  0  0  0  0  0  0  0  0  0  0  0
  -19.2864  -24.0626   24.9049 C   0  0  0  0  0  0  0  0  0  0  0  0
  -17.5798  -22.2310   24.9380 C   0  0  0  0  0  0  0  0  0  0  0  0
  -16.9082  -24.5478   24.3024 C   0  0  0  0  0  0  0  0  0  0  0  0
  -16.8502  -20.9954   18.4502 C   0  0  0  0  0  0  0  0  0  0  0  0
  -28.7079  -12.8719   21.2231 C   0  0  0  0  0  0  0  0  0  0  0  0
  -24.7504  -18.1692   19.3910 C   0  0  0  0  0  0  0  0  0  0  0  0
  -24.1847  -16.8161   19.7951 C   0  0  0  0  0  0  0  0  0  0  0  0
  -24.0544  -19.3489   20.0587 C   0  0  0  0  0  0  0  0  0  1  0  0
  -27.8204  -13.3017   20.0320 C   0  0  2  0  0  0  0  0  0  0  0  0
  -23.7794  -15.3129   21.7483 C   0  0  1  0  0  0  0  0  0  0  0  0
  -18.2925  -23.1734   22.6941 C   0  0  1  0  0  0  0  0  0  0  0  0
  -15.7876  -21.1379   20.7061 C   0  0  2  0  0  0  0  0  0  0  0  0
  -18.0392  -23.5022   24.1925 C   0  0  0  0  0  0  0  0  0  0  0  0
  -29.4981  -20.5697   19.7277 N   0  0  0  0  0  0  0  0  0  0  0  0
  -25.7575  -14.2232   20.8678 N   0  0  0  0  0  0  0  0  0  0  0  0
  -29.7587  -19.3585   20.2486 N   0  0  0  0  0  0  0  0  0  0  0  0
  -20.0276  -24.2624   21.3057 N   0  0  0  0  0  0  0  0  0  0  0  0
  -28.9275  -16.2963   18.1176 N   0  0  0  0  0  0  0  0  0  0  0  0
  -30.0451  -18.2055   22.2978 N   0  0  0  0  0  0  0  0  0  0  0  0
  -29.2113  -22.4494   23.5978 N   0  0  0  0  0  0  0  0  0  0  0  0
  -22.1422  -27.2326   21.3535 N   0  0  0  0  0  0  0  0  0  0  0  0
  -17.1213  -22.6664   21.9873 N   0  0  0  0  0  0  0  0  0  0  0  0
  -28.1335  -14.6522   19.6210 N   0  0  0  0  0  0  0  0  0  0  0  0
  -15.9890  -20.3368   19.4658 N   0  3  0  0  0  0  0  0  0  0  0  0
  -24.3563  -16.5920   21.2497 N   0  3  0  0  0  0  0  0  0  0  0  0
  -29.6794  -20.3318   24.3428 O   0  0  0  0  0  0  0  0  0  0  0  0
  -21.6850  -25.4837   22.8214 O   0  0  0  0  0  0  0  0  0  0  0  0
  -18.0488  -25.3733   21.8410 O   0  0  0  0  0  0  0  0  0  0  0  0
  -18.0709  -20.6552   21.3315 O   0  0  0  0  0  0  0  0  0  0  0  0
  -28.9063  -14.0483   17.5485 O   0  0  0  0  0  0  0  0  0  0  0  0
  -28.2382  -26.7902   20.2442 O   0  0  0  0  0  0  0  0  0  0  0  0
  -24.6523  -20.5574   19.5915 O   0  0  0  0  0  0  0  0  0  1  0  0
  -31.1078  -30.3385   23.3391 F   0  0  0  0  0  0  0  0  0  0  0  0
  -29.8003  -28.7494   19.0764 F   0  0  0  0  0  0  0  0  0  0  0  0
  1  2  1  0  0  0  0
  1  5  2  0  0  0  0
  2  6  2  0  0  0  0
  3  8  2  0  0  0  0
  3 15  1  0  0  0  0
  4  9  1  0  0  0  0
  4 15  2  0  0  0  0
  5 17  1  0  0  0  0
  6 19  1  0  0  0  0
  7 10  2  0  0  0  0
  7 18  1  0  0  0  0
  8 24  1  0  0  0  0
  9 24  2  0  0  0  0
 10 25  1  0  0  0  0
 11 12  2  0  0  0  0
 11 26  1  0  0  0  0
 12 27  1  0  0  0  0
 13 20  1  0  0  0  0
 13 25  2  0  0  0  0
 14 27  2  0  0  0  0
 14 28  1  0  0  0  0
 15 29  1  0  0  0  0
 16 29  1  0  0  0  0
 16 32  2  0  0  0  0
 16 33  1  0  0  0  0
 17 19  2  0  0  0  0
 17 38  1  0  0  0  0
 18 20  2  0  0  0  0
 18 39  1  0  0  0  0
 19 47  1  0  0  0  0
 20 40  1  0  0  0  0
 21 22  1  0  0  0  0
 21 23  2  0  0  0  0
 21 50  1  0  0  0  0
 22 30  2  0  0  0  0
 22 51  1  0  0  0  0
 23 31  1  0  0  0  0
 23 52  1  0  0  0  0
 24 86  1  0  0  0  0
 25 87  1  0  0  0  0
 26 28  2  0  0  0  0
 26 86  1  0  0  0  0
 27 88  1  0  0  0  0
 28 89  1  0  0  0  0
 29 69  2  0  0  0  0
 30 64  1  0  0  0  0
 30 70  1  0  0  0  0
 31 65  1  0  0  0  0
 31 70  2  0  0  0  0
 32 71  1  0  0  0  0
 32 74  1  0  0  0  0
 33 75  1  0  0  0  0
 33 81  2  0  0  0  0
 34 48  1  0  0  0  0
 34 76  1  0  0  0  0
 34 82  2  0  0  0  0
 35 66  1  0  0  0  0
 35 72  1  0  0  0  0
 35 83  2  0  0  0  0
 36 67  1  0  0  0  0
 36 77  1  0  0  0  0
 36 84  2  0  0  0  0
 37 73  1  0  0  0  0
 37 78  1  0  0  0  0
 37 85  2  0  0  0  0
 38 41  1  0  0  0  0
 39 48  1  0  0  0  0
 40 72  1  0  0  0  0
 41 43  1  0  0  0  0
 42 44  1  0  0  0  0
 42 45  1  0  0  0  0
 43 47  1  0  0  0  0
 44 49  1  0  0  0  0
 45 73  1  0  0  0  0
 46 49  1  0  0  0  0
 46 73  1  0  0  0  0
 47 76  1  0  0  0  0
 48 72  1  0  0  0  0
 49 71  1  0  0  0  0
 53 60  1  0  0  0  0
 54 65  1  0  0  0  0
 55 67  1  0  0  0  0
 56 68  1  0  0  0  0
 57 68  1  0  0  0  0
 58 68  1  0  0  0  0
 59 79  1  0  0  0  0
 60 64  1  0  0  0  0
 61 62  1  0  0  0  0
 61 63  1  0  0  0  0
 62 80  1  0  0  0  0
 63 87  1  0  0  0  0
 64 78  1  0  0  0  0
 65 80  1  0  0  0  0
 66 68  1  0  0  0  0
 66 77  1  0  0  0  0
 67 79  1  0  0  0  0
 69 71  1  0  0  0  0
M  CHG  2  79   1  80   1
M  ISO  4  37 100  63 101  78 100  87 101
M  END
> <Batch ID>
0168

> <Smiles>
CCC([100NH:0][100C:0](=O)N1CCCC(n2nc(-c3ccc(Oc4ccc(F)cc4F)cc3)c(C(N)=O)c2N)C1)c1nc(C(C)NCC[101CH2:1][101O:1]c2ccc3c(c2)CN(C(=O)C(NC(=O)C(C)NC)C(C)(C)C)C(C(=O)NC2CCCc4ccccc42)C3)c(C)c(C)c1C

> <Shape>
0.226

> <Color>
0.065

> <Negative vol penalty>
0.000

$$$$

  -OEChem-04052322303D

 85 94  0     1  0  0  0  0  0999 V2000
  -26.6663  -38.0610   22.1384 C   0  0  0  0  0  0  0  0  0  0  0  0
  -27.2805  -37.1020   21.3394 C   0  0  0  0  0  0  0  0  0  0  0  0
  -27.6432   -8.2529   23.7990 C   0  0  0  0  0  0  0  0  0  0  0  0
  -27.6723   -6.9077   21.7924 C   0  0  0  0  0  0  0  0  0  0  0  0
  -26.0049  -37.6759   23.3039 C   0  0  0  0  0  0  0  0  0  0  0  0
  -27.2345  -35.7574   21.7059 C   0  0  0  0  0  0  0  0  0  0  0  0
  -26.9680  -29.1964   18.8425 C   0  0  0  0  0  0  0  0  0  0  0  0
  -29.5060  -23.5889   21.8946 C   0  0  0  0  0  0  0  0  0  0  0  0
  -26.7463   -7.3597   24.3849 C   0  0  0  0  0  0  0  0  0  0  0  0
  -26.7754   -6.0144   22.3782 C   0  0  0  0  0  0  0  0  0  0  0  0
  -27.6240  -27.9676   18.9024 C   0  0  0  0  0  0  0  0  0  0  0  0
  -24.2158   -3.5720   23.2108 C   0  0  0  0  0  0  0  0  0  0  0  0
  -23.1418   -3.1310   22.4377 C   0  0  0  0  0  0  0  0  0  0  0  0
  -30.2704  -22.4292   21.8294 C   0  0  0  0  0  0  0  0  0  0  0  0
  -26.3849  -27.4103   20.8958 C   0  0  0  0  0  0  0  0  0  0  0  0
  -22.3764   -5.4104   22.2009 C   0  0  0  0  0  0  0  0  0  0  0  0
  -28.1062   -8.0270   22.5027 C   0  0  0  0  0  0  0  0  0  0  0  0
  -30.4382   -8.9008   21.9497 C   0  0  0  0  0  0  0  0  0  0  0  0
  -25.9426  -36.3249   23.6798 C   0  0  0  0  0  0  0  0  0  0  0  0
  -26.0220  -29.5465   19.8165 C   0  0  0  0  0  0  0  0  0  0  0  0
  -26.5728  -35.3540   22.8781 C   0  0  0  0  0  0  0  0  0  0  0  0
  -25.7165  -28.6431   20.8445 C   0  0  0  0  0  0  0  0  0  0  0  0
  -28.4504  -23.7699   21.0079 C   0  0  0  0  0  0  0  0  0  0  0  0
  -26.3124   -6.2404   23.6745 C   0  0  0  0  0  0  0  0  0  0  0  0
  -27.3346  -27.0755   19.9308 C   0  0  0  0  0  0  0  0  0  0  0  0
  -24.3701   -4.9322   23.4790 C   0  0  0  0  0  0  0  0  0  0  0  0
  -22.2221   -4.0502   21.9328 C   0  0  0  0  0  0  0  0  0  0  0  0
  -23.4504   -5.8513   22.9740 C   0  0  0  0  0  0  0  0  0  0  0  0
  -29.0323   -8.9496   21.8968 C   0  0  0  0  0  0  0  0  0  0  0  0
  -28.2023  -22.7693   20.0821 C   0  0  0  0  0  0  0  0  0  0  0  0
  -29.9406  -21.4886   20.8670 C   0  0  0  0  0  0  0  0  0  0  0  0
  -30.8472   -9.9921   21.2230 C   0  0  0  0  0  0  0  0  0  0  0  0
  -31.2975   -7.9535   22.5977 C   0  0  0  0  0  0  0  0  0  0  0  0
  -25.7889  -31.8540   21.9901 C   0  0  0  0  0  0  0  0  0  0  0  0
  -22.8409  -30.5831   22.4555 C   0  0  0  0  0  0  0  0  0  0  0  0
  -20.7834  -27.8714   22.2108 C   0  0  0  0  0  0  0  0  0  0  0  0
  -30.6058  -15.1697   19.8299 C   0  0  0  0  0  0  0  0  0  0  0  0
  -25.2567  -35.9621   24.9731 C   0  0  0  0  0  0  0  0  0  0  0  0
  -25.3037  -30.8647   19.7226 C   0  0  0  0  0  0  0  0  0  0  0  0
  -24.6942  -28.9626   21.9033 C   0  0  0  0  0  0  0  0  0  0  0  0
  -24.9327  -34.4753   25.0946 C   0  0  0  0  0  0  0  0  0  0  0  0
  -28.2588  -13.1176   18.2144 C   0  0  0  0  0  0  0  0  0  0  0  0
  -26.1381  -33.6317   24.6920 C   0  0  0  0  0  0  0  0  0  0  0  0
  -28.3612  -11.8336   19.0373 C   0  0  0  0  0  0  0  0  0  0  0  0
  -29.3151  -18.4044   20.3385 C   0  0  0  0  0  0  0  0  0  0  0  0
  -31.7607  -18.4344   19.7174 C   0  0  0  0  0  0  0  0  0  0  0  0
  -28.3170  -14.3680   19.0938 C   0  0  0  0  0  0  0  0  0  0  0  0
  -29.1182  -17.1839   19.4345 C   0  0  0  0  0  0  0  0  0  0  0  0
  -31.5105  -17.2353   18.8072 C   0  0  0  0  0  0  0  0  0  0  0  0
  -29.5961  -13.1328   20.8133 C   0  0  0  0  0  0  0  0  0  0  0  0
  -26.5235  -33.8828   23.2292 C   0  0  1  0  0  0  0  0  0  0  0  0
  -24.7327  -31.3306   21.0584 C   0  0  1  0  0  0  0  0  0  0  0  0
  -29.5991  -11.8607   19.9515 C   0  0  1  0  0  0  0  0  0  0  0  0
  -30.4866  -19.2696   19.8679 C   0  0  0  0  0  0  0  0  0  0  0  0
  -27.0817  -22.9097   19.1044 C   0  0  0  0  0  0  0  0  0  0  0  0
  -18.4389  -27.1264   22.7066 C   0  0  0  0  0  0  0  0  0  0  0  0
  -23.5381  -30.3692   25.4183 C   0  0  0  0  0  0  0  0  0  0  0  0
  -21.6119  -28.7924   25.6862 C   0  0  0  0  0  0  0  0  0  0  0  0
  -21.2060  -31.1405   24.9484 C   0  0  0  0  0  0  0  0  0  0  0  0
  -20.2342  -27.3112   19.3571 C   0  0  0  0  0  0  0  0  0  0  0  0
  -27.6284  -25.0103   21.0729 C   0  0  0  0  0  0  0  0  0  1  0  0
  -22.2702  -29.5032   23.3426 C   0  0  1  0  0  0  0  0  0  0  0  0
  -19.3744  -27.7220   21.6659 C   0  0  2  0  0  0  0  0  0  0  0  0
  -22.1773  -29.9458   24.8302 C   0  0  0  0  0  0  0  0  0  0  0  0
  -28.5786   -9.9898   21.1923 N   0  0  0  0  0  0  0  0  0  0  0  0
  -28.9228  -21.6292   19.9885 N   0  0  0  0  0  0  0  0  0  0  0  0
  -29.7059  -10.6047   20.7959 N   0  0  0  0  0  0  0  0  0  0  0  0
  -24.0233  -30.2666   21.7718 N   0  0  0  0  0  0  0  0  0  0  0  0
  -29.4917  -14.3296   19.9759 N   0  0  0  0  0  0  0  0  0  0  0  0
  -30.3771  -16.4406   19.2819 N   0  0  0  0  0  0  0  0  0  0  0  0
  -32.0683  -10.4780   20.9141 N   0  0  0  0  0  0  0  0  0  0  0  0
  -30.7119   -6.8924   23.3015 N   0  0  0  0  0  0  0  0  0  0  0  0
  -30.7101  -20.3398   20.8148 N   0  0  0  0  0  0  0  0  0  0  0  0
  -25.6223  -33.1801   22.3413 N   0  0  0  0  0  0  0  0  0  0  0  0
  -20.9919  -29.1226   22.7515 N   0  0  0  0  0  0  0  0  0  0  0  0
  -19.3732  -26.8335   20.4695 N   0  3  0  0  0  0  0  0  0  0  0  0
  -32.5475   -8.0546   22.5676 O   0  0  0  0  0  0  0  0  0  0  0  0
  -26.6876  -31.1096   22.3640 O   0  0  0  0  0  0  0  0  0  0  0  0
  -22.2552  -31.6651   22.3668 O   0  0  0  0  0  0  0  0  0  0  0  0
  -21.6147  -26.9673   22.1649 O   0  0  0  0  0  0  0  0  0  0  0  0
  -31.7386  -14.8057   20.1695 O   0  0  0  0  0  0  0  0  0  0  0  0
  -25.4374   -5.3685   24.2460 O   0  0  0  0  0  0  0  0  0  0  0  0
  -27.9781  -25.8678   19.9925 O   0  0  0  0  0  0  0  0  0  1  0  0
  -21.1916   -3.6267   21.1892 F   0  0  0  0  0  0  0  0  0  0  0  0
  -23.5941   -7.1594   23.2273 F   0  0  0  0  0  0  0  0  0  0  0  0
  1  2  1  0  0  0  0
  1  5  2  0  0  0  0
  2  6  2  0  0  0  0
  3  9  2  0  0  0  0
  3 17  1  0  0  0  0
  4 10  1  0  0  0  0
  4 17  2  0  0  0  0
  5 19  1  0  0  0  0
  6 21  1  0  0  0  0
  7 11  2  0  0  0  0
  7 20  1  0  0  0  0
  8 14  2  0  0  0  0
  8 23  1  0  0  0  0
  9 24  1  0  0  0  0
 10 24  2  0  0  0  0
 11 25  1  0  0  0  0
 12 13  2  0  0  0  0
 12 26  1  0  0  0  0
 13 27  1  0  0  0  0
 14 31  1  0  0  0  0
 15 22  1  0  0  0  0
 15 25  2  0  0  0  0
 16 27  2  0  0  0  0
 16 28  1  0  0  0  0
 17 29  1  0  0  0  0
 18 29  1  0  0  0  0
 18 32  2  0  0  0  0
 18 33  1  0  0  0  0
 19 21  2  0  0  0  0
 19 38  1  0  0  0  0
 20 22  2  0  0  0  0
 20 39  1  0  0  0  0
 21 51  1  0  0  0  0
 22 40  1  0  0  0  0
 23 30  2  0  0  0  0
 23 61  1  0  0  0  0
 24 82  1  0  0  0  0
 25 83  1  0  0  0  0
 26 28  2  0  0  0  0
 26 82  1  0  0  0  0
 27 84  1  0  0  0  0
 28 85  1  0  0  0  0
 29 65  2  0  0  0  0
 30 55  1  0  0  0  0
 30 66  1  0  0  0  0
 31 66  2  0  0  0  0
 31 73  1  0  0  0  0
 32 67  1  0  0  0  0
 32 71  1  0  0  0  0
 33 72  1  0  0  0  0
 33 77  2  0  0  0  0
 34 52  1  0  0  0  0
 34 74  1  0  0  0  0
 34 78  2  0  0  0  0
 35 62  1  0  0  0  0
 35 68  1  0  0  0  0
 35 79  2  0  0  0  0
 36 63  1  0  0  0  0
 36 75  1  0  0  0  0
 36 80  2  0  0  0  0
 37 69  1  0  0  0  0
 37 70  1  0  0  0  0
 37 81  2  0  0  0  0
 38 41  1  0  0  0  0
 39 52  1  0  0  0  0
 40 68  1  0  0  0  0
 41 43  1  0  0  0  0
 42 44  1  0  0  0  0
 42 47  1  0  0  0  0
 43 51  1  0  0  0  0
 44 53  1  0  0  0  0
 45 48  1  0  0  0  0
 45 54  1  0  0  0  0
 46 49  1  0  0  0  0
 46 54  1  0  0  0  0
 47 69  1  0  0  0  0
 48 70  1  0  0  0  0
 49 70  1  0  0  0  0
 50 53  1  0  0  0  0
 50 69  1  0  0  0  0
 51 74  1  0  0  0  0
 52 68  1  0  0  0  0
 53 67  1  0  0  0  0
 54 73  1  0  0  0  0
 56 63  1  0  0  0  0
 57 64  1  0  0  0  0
 58 64  1  0  0  0  0
 59 64  1  0  0  0  0
 60 76  1  0  0  0  0
 61 83  1  0  0  0  0
 62 64  1  0  0  0  0
 62 75  1  0  0  0  0
 63 76  1  0  0  0  0
 65 67  1  0  0  0  0
M  CHG  1  76   1
M  ISO  4  37 100  61 101  70 100  83 101
M  END
> <Batch ID>
0168

> <Smiles>
CNC(C)C(=O)NC(C(=O)N1Cc2cc([101O:1][101CH2:1]c3ccc(NC4CC[100N:0]([100C:0](=O)N5CCCC(n6nc(-c7ccc(Oc8ccc(F)cc8F)cc7)c(C(N)=O)c6N)C5)CC4)nc3C)ccc2CC1C(=O)NC1CCCc2ccccc21)C(C)(C)C

> <Shape>
0.282

> <Color>
0.092

> <Negative vol penalty>
0.000

$$$$

  -OEChem-04052322303D

 92101  0     1  0  0  0  0  0999 V2000
  -27.4408  -37.3569   23.8208 C   0  0  0  0  0  0  0  0  0  0  0  0
  -27.9906  -36.0791   23.8432 C   0  0  0  0  0  0  0  0  0  0  0  0
  -22.7554  -10.4317   20.6543 C   0  0  0  0  0  0  0  0  0  0  0  0
  -24.5219   -8.9887   21.4507 C   0  0  0  0  0  0  0  0  0  0  0  0
  -26.0776  -37.5321   24.0552 C   0  0  0  0  0  0  0  0  0  0  0  0
  -27.1777  -34.9759   24.1011 C   0  0  0  0  0  0  0  0  0  0  0  0
  -29.1633  -19.7017   20.4798 C   0  0  0  0  0  0  0  0  0  0  0  0
  -26.7007  -29.5538   19.4339 C   0  0  0  0  0  0  0  0  0  0  0  0
  -29.3111  -18.3153   20.4422 C   0  0  0  0  0  0  0  0  0  0  0  0
  -21.8739   -9.8583   21.5706 C   0  0  0  0  0  0  0  0  0  0  0  0
  -23.6404   -8.4152   22.3670 C   0  0  0  0  0  0  0  0  0  0  0  0
  -26.7535  -28.3580   18.7172 C   0  0  0  0  0  0  0  0  0  0  0  0
  -21.1632   -6.1145   22.3362 C   0  0  0  0  0  0  0  0  0  0  0  0
  -21.1667   -4.7248   22.4564 C   0  0  0  0  0  0  0  0  0  0  0  0
  -25.1243  -27.3787   20.2118 C   0  0  0  0  0  0  0  0  0  0  0  0
  -26.9097  -18.0613   20.3658 C   0  0  0  0  0  0  0  0  0  0  0  0
  -21.7657   -4.9279   24.7881 C   0  0  0  0  0  0  0  0  0  0  0  0
  -24.0795   -9.9969   20.5943 C   0  0  0  0  0  0  0  0  0  0  0  0
  -24.8682  -10.6033   18.2453 C   0  0  0  0  0  0  0  0  0  0  0  0
  -25.2458  -36.4296   24.3066 C   0  0  0  0  0  0  0  0  0  0  0  0
  -25.8471  -29.6722   20.5346 C   0  0  0  0  0  0  0  0  0  0  0  0
  -25.8023  -35.1368   24.3405 C   0  0  0  0  0  0  0  0  0  0  0  0
  -27.8887  -20.2680   20.4604 C   0  0  0  0  0  0  0  0  0  0  0  0
  -25.0578  -28.5782   20.9254 C   0  0  0  0  0  0  0  0  0  0  0  0
  -26.7619  -19.4478   20.4034 C   0  0  0  0  0  0  0  0  0  0  0  0
  -28.1843  -17.4950   20.3852 C   0  0  0  0  0  0  0  0  0  0  0  0
  -22.3163   -8.8500   22.4269 C   0  0  0  0  0  0  0  0  0  0  0  0
  -25.9674  -27.2730   19.1055 C   0  0  0  0  0  0  0  0  0  0  0  0
  -21.4610   -6.9109   23.4420 C   0  0  0  0  0  0  0  0  0  0  0  0
  -21.4679   -4.1315   23.6823 C   0  0  0  0  0  0  0  0  0  0  0  0
  -21.7622   -6.3176   24.6680 C   0  0  0  0  0  0  0  0  0  0  0  0
  -24.9905  -10.5885   19.6477 C   0  0  0  0  0  0  0  0  0  0  0  0
  -25.9807  -11.2815   17.8107 C   0  0  0  0  0  0  0  0  0  0  0  0
  -23.8408  -10.0531   17.4101 C   0  0  0  0  0  0  0  0  0  0  0  0
  -24.5906  -31.7923   23.3407 C   0  0  0  0  0  0  0  0  0  0  0  0
  -22.1346  -30.1269   22.1803 C   0  0  0  0  0  0  0  0  0  0  0  0
  -19.9694  -32.5254   23.7856 C   0  0  0  0  0  0  0  0  0  0  0  0
  -29.5262  -15.3632   20.3552 C   0  0  0  0  0  0  0  0  0  0  0  0
  -23.7868  -36.6732   24.6011 C   0  0  0  0  0  0  0  0  0  0  0  0
  -25.8086  -30.9220   21.3725 C   0  0  0  0  0  0  0  0  0  0  0  0
  -24.1795  -28.7389   22.1344 C   0  0  0  0  0  0  0  0  0  0  0  0
  -22.9262  -35.4168   24.4960 C   0  0  0  0  0  0  0  0  0  0  0  0
  -30.5169  -12.2086   19.0346 C   0  0  0  0  0  0  0  0  0  0  0  0
  -23.5918  -34.2516   25.2213 C   0  0  0  0  0  0  0  0  0  0  0  0
  -29.2003  -11.4386   18.9086 C   0  0  0  0  0  0  0  0  0  0  0  0
  -30.5386  -13.0951   20.2785 C   0  0  0  0  0  0  0  0  0  0  0  0
  -28.0792  -13.2379   20.2845 C   0  0  0  0  0  0  0  0  0  0  0  0
  -28.7756  -23.9247   19.8542 C   0  0  0  0  0  0  0  0  0  0  0  0
  -27.0201  -22.3222   19.2475 C   0  0  0  0  0  0  0  0  0  0  0  0
  -24.9486  -33.9128   24.5921 C   0  0  1  0  0  0  0  0  0  0  0  0
  -24.4168  -31.2261   21.9620 C   0  0  1  0  0  0  0  0  0  0  0  0
  -29.1220  -22.5191   20.3470 C   0  0  2  0  0  0  0  0  0  0  0  0
  -27.9846  -12.3804   19.0118 C   0  0  2  0  0  0  0  0  0  0  0  0
  -27.7515  -21.8004   20.5035 C   0  0  2  0  0  0  0  0  0  0  0  0
  -25.3875  -20.0318   20.3796 C   0  0  0  0  0  0  0  0  0  0  0  0
  -30.0048  -22.5471   21.5897 C   0  0  0  0  0  0  0  0  0  0  0  0
  -17.4655  -32.6822   23.8411 C   0  0  0  0  0  0  0  0  0  0  0  0
  -26.9219  -19.5414   25.1871 C   0  0  0  0  0  0  0  0  0  0  0  0
  -28.7487  -21.2002   25.6560 C   0  0  0  0  0  0  0  0  0  0  0  0
  -22.4885  -32.0011   19.7985 C   0  0  0  0  0  0  0  0  0  0  0  0
  -20.6325  -33.4074   20.7182 C   0  0  0  0  0  0  0  0  0  0  0  0
  -20.1896  -31.0472   20.0428 C   0  0  0  0  0  0  0  0  0  0  0  0
  -19.9202  -32.5439   26.7447 C   0  0  0  0  0  0  0  0  0  0  0  0
  -26.9888  -22.3070   21.7567 C   0  0  0  0  0  0  0  0  0  0  0  0
  -27.4483  -24.2937   17.7320 C   0  0  0  0  0  0  0  0  0  0  0  0
  -26.7695  -21.8874   24.2092 C   0  0  0  0  0  0  0  0  0  0  0  0
  -27.2555  -25.7971   17.7564 C   0  0  0  0  0  0  0  0  0  1  0  0
  -21.5227  -31.5065   22.1414 C   0  0  1  0  0  0  0  0  0  0  0  0
  -18.7124  -32.2248   24.5818 C   0  0  2  0  0  0  0  0  0  0  0  0
  -27.2553  -21.0220   25.3774 C   0  0  0  0  0  0  0  0  0  0  0  0
  -21.2313  -31.9849   20.6909 C   0  0  0  0  0  0  0  0  0  0  0  0
  -26.0937  -11.2080   20.0756 N   0  0  0  0  0  0  0  0  0  0  0  0
  -26.6748  -11.6183   18.9354 N   0  0  0  0  0  0  0  0  0  0  0  0
  -23.5314  -30.0552   22.1115 N   0  0  0  0  0  0  0  0  0  0  0  0
  -29.3593  -13.9630   20.3065 N   0  0  0  0  0  0  0  0  0  0  0  0
  -26.4231  -11.6165   16.5801 N   0  0  0  0  0  0  0  0  0  0  0  0
  -22.7686   -9.3878   18.0203 N   0  0  0  0  0  0  0  0  0  0  0  0
  -28.3340  -16.0866   20.3450 N   0  0  0  0  0  0  0  0  0  0  0  0
  -24.7650  -33.1629   23.3681 N   0  0  0  0  0  0  0  0  0  0  0  0
  -20.3455  -31.4554   23.0015 N   0  0  0  0  0  0  0  0  0  0  0  0
  -27.4493  -23.7733   19.1343 N   0  3  2  0  0  0  0  0  0  0  0  0
  -18.7564  -32.9177   25.9005 N   0  3  0  0  0  0  0  0  0  0  0  0
  -27.3837  -21.4792   22.9125 N   0  3  0  0  0  0  0  0  0  0  0  0
  -23.8809  -10.1344   16.1590 O   0  0  0  0  0  0  0  0  0  0  0  0
  -24.5669  -31.0422   24.3094 O   0  0  0  0  0  0  0  0  0  0  0  0
  -21.3934  -29.1438   22.2604 O   0  0  0  0  0  0  0  0  0  0  0  0
  -20.5568  -33.6031   23.8498 O   0  0  0  0  0  0  0  0  0  0  0  0
  -30.6448  -15.8831   20.3751 O   0  0  0  0  0  0  0  0  0  0  0  0
  -21.4564   -8.2904   23.3213 O   0  0  0  0  0  0  0  0  0  0  0  0
  -26.0204  -26.1099   18.3991 O   0  0  0  0  0  0  0  0  0  1  0  0
  -21.4696   -2.7971   23.7979 F   0  0  0  0  0  0  0  0  0  0  0  0
  -22.0480   -7.0775   25.7341 F   0  0  0  0  0  0  0  0  0  0  0  0
  1  2  1  0  0  0  0
  1  5  2  0  0  0  0
  2  6  2  0  0  0  0
  3 10  2  0  0  0  0
  3 18  1  0  0  0  0
  4 11  1  0  0  0  0
  4 18  2  0  0  0  0
  5 20  1  0  0  0  0
  6 22  1  0  0  0  0
  7  9  2  0  0  0  0
  7 23  1  0  0  0  0
  8 12  2  0  0  0  0
  8 21  1  0  0  0  0
  9 26  1  0  0  0  0
 10 27  1  0  0  0  0
 11 27  2  0  0  0  0
 12 28  1  0  0  0  0
 13 14  2  0  0  0  0
 13 29  1  0  0  0  0
 14 30  1  0  0  0  0
 15 24  1  0  0  0  0
 15 28  2  0  0  0  0
 16 25  1  0  0  0  0
 16 26  2  0  0  0  0
 17 30  2  0  0  0  0
 17 31  1  0  0  0  0
 18 32  1  0  0  0  0
 19 32  1  0  0  0  0
 19 33  2  0  0  0  0
 19 34  1  0  0  0  0
 20 22  2  0  0  0  0
 20 39  1  0  0  0  0
 21 24  2  0  0  0  0
 21 40  1  0  0  0  0
 22 50  1  0  0  0  0
 23 25  2  0  0  0  0
 23 54  1  0  0  0  0
 24 41  1  0  0  0  0
 25 55  1  0  0  0  0
 26 78  1  0  0  0  0
 27 89  1  0  0  0  0
 28 90  1  0  0  0  0
 29 31  2  0  0  0  0
 29 89  1  0  0  0  0
 30 91  1  0  0  0  0
 31 92  1  0  0  0  0
 32 72  2  0  0  0  0
 33 73  1  0  0  0  0
 33 76  1  0  0  0  0
 34 77  1  0  0  0  0
 34 84  2  0  0  0  0
 35 51  1  0  0  0  0
 35 79  1  0  0  0  0
 35 85  2  0  0  0  0
 36 68  1  0  0  0  0
 36 74  1  0  0  0  0
 36 86  2  0  0  0  0
 37 69  1  0  0  0  0
 37 80  1  0  0  0  0
 37 87  2  0  0  0  0
 38 75  1  0  0  0  0
 38 78  1  0  0  0  0
 38 88  2  0  0  0  0
 39 42  1  0  0  0  0
 40 51  1  0  0  0  0
 41 74  1  0  0  0  0
 42 44  1  0  0  0  0
 43 45  1  0  0  0  0
 43 46  1  0  0  0  0
 44 50  1  0  0  0  0
 45 53  1  0  0  0  0
 46 75  1  0  0  0  0
 47 53  1  0  0  0  0
 47 75  1  0  0  0  0
 48 52  1  0  0  0  0
 48 81  1  0  0  0  0
 49 54  1  0  0  0  0
 49 81  1  0  0  0  0
 50 79  1  0  0  0  0
 51 74  1  0  0  0  0
 52 54  1  0  0  0  0
 52 56  1  0  0  0  0
 53 73  1  0  0  0  0
 54 64  1  0  0  0  0
 57 69  1  0  0  0  0
 58 70  1  0  0  0  0
 59 70  1  0  0  0  0
 60 71  1  0  0  0  0
 61 71  1  0  0  0  0
 62 71  1  0  0  0  0
 63 82  1  0  0  0  0
 64 83  1  0  0  0  0
 65 67  1  0  0  0  0
 65 81  1  0  0  0  0
 66 70  1  0  0  0  0
 66 83  1  0  0  0  0
 67 90  1  0  0  0  0
 68 71  1  0  0  0  0
 68 80  1  0  0  0  0
 69 82  1  0  0  0  0
 72 73  1  0  0  0  0
M  CHG  3  81   1  82   1  83   1
M  ISO  4  38 100  67 101  78 100  90 101
M  END
> <Batch ID>
0168

> <Smiles>
CNC(C)C(=O)NC(C(=O)N1Cc2cc([101O:1][101CH2:1]CN3CC(C)C(CNCC(C)C)(c4ccc([100NH:0][100C:0](=O)N5CCCC(n6nc(-c7ccc(Oc8ccc(F)cc8F)cc7)c(C(N)=O)c6N)C5)cc4C)C3)ccc2CC1C(=O)NC1CCCc2ccccc21)C(C)(C)C

> <Shape>
0.336

> <Color>
0.095

> <Negative vol penalty>
0.000

$$$$

  -OEChem-04052322303D

 86 95  0     1  0  0  0  0  0999 V2000
  -28.2930  -31.9054   27.3583 C   0  0  0  0  0  0  0  0  0  0  0  0
  -28.3721  -30.8923   26.4082 C   0  0  0  0  0  0  0  0  0  0  0  0
  -24.9153  -16.0089   20.1030 C   0  0  0  0  0  0  0  0  0  0  0  0
  -25.3031  -14.5946   22.0230 C   0  0  0  0  0  0  0  0  0  0  0  0
  -27.0488  -32.4050   27.7410 C   0  0  0  0  0  0  0  0  0  0  0  0
  -27.2070  -30.3774   25.8409 C   0  0  0  0  0  0  0  0  0  0  0  0
  -27.5692  -29.8285   20.8197 C   0  0  0  0  0  0  0  0  0  0  0  0
  -23.6899  -15.3788   19.8863 C   0  0  0  0  0  0  0  0  0  0  0  0
  -24.0776  -13.9645   21.8063 C   0  0  0  0  0  0  0  0  0  0  0  0
  -28.2778  -28.7237   20.3495 C   0  0  0  0  0  0  0  0  0  0  0  0
  -22.8257  -11.5918   19.7487 C   0  0  0  0  0  0  0  0  0  0  0  0
  -22.7898  -10.1997   19.8279 C   0  0  0  0  0  0  0  0  0  0  0  0
  -26.1986  -27.5660   19.9545 C   0  0  0  0  0  0  0  0  0  0  0  0
  -21.1807  -10.3434   21.6244 C   0  0  0  0  0  0  0  0  0  0  0  0
  -25.7219  -15.6168   21.1713 C   0  0  0  0  0  0  0  0  0  0  0  0
  -27.2307  -17.4062   22.1858 C   0  0  0  0  0  0  0  0  0  0  0  0
  -25.8684  -31.9027   27.1710 C   0  0  0  0  0  0  0  0  0  0  0  0
  -26.1680  -29.8062   20.8712 C   0  0  0  0  0  0  0  0  0  0  0  0
  -25.9458  -30.8699   26.2173 C   0  0  0  0  0  0  0  0  0  0  0  0
  -25.4746  -28.6727   20.4234 C   0  0  0  0  0  0  0  0  0  0  0  0
  -30.0959  -22.2401   17.8993 C   0  0  0  0  0  0  0  0  0  0  0  0
  -29.9406  -23.3194   17.0366 C   0  0  0  0  0  0  0  0  0  0  0  0
  -29.0971  -24.3675   17.3881 C   0  0  0  0  0  0  0  0  0  0  0  0
  -23.2710  -14.3566   20.7379 C   0  0  0  0  0  0  0  0  0  0  0  0
  -27.5926  -27.5911   19.9195 C   0  0  0  0  0  0  0  0  0  0  0  0
  -22.0391  -12.3598   20.6074 C   0  0  0  0  0  0  0  0  0  0  0  0
  -21.9673   -9.5755   20.7657 C   0  0  0  0  0  0  0  0  0  0  0  0
  -21.2166  -11.7355   21.5452 C   0  0  0  0  0  0  0  0  0  0  0  0
  -26.9881  -16.2669   21.3953 C   0  0  0  0  0  0  0  0  0  0  0  0
  -28.4369  -24.2889   18.6037 C   0  0  0  0  0  0  0  0  0  0  0  0
  -29.3911  -22.2569   19.0922 C   0  0  0  0  0  0  0  0  0  0  0  0
  -28.5824  -17.6214   22.0724 C   0  0  0  0  0  0  0  0  0  0  0  0
  -26.3159  -18.1991   22.9541 C   0  0  0  0  0  0  0  0  0  0  0  0
  -24.0049  -30.0185   23.1906 C   0  0  0  0  0  0  0  0  0  0  0  0
  -21.9168  -30.0473   20.7084 C   0  0  0  0  0  0  0  0  0  0  0  0
  -21.2688  -29.2341   17.4579 C   0  0  0  0  0  0  0  0  0  0  0  0
  -32.8871  -17.3096   18.4022 C   0  0  0  0  0  0  0  0  0  0  0  0
  -24.5440  -32.4416   27.6510 C   0  0  0  0  0  0  0  0  0  0  0  0
  -25.4175  -31.0161   21.3561 C   0  0  0  0  0  0  0  0  0  0  0  0
  -23.9700  -28.6060   20.4392 C   0  0  0  0  0  0  0  0  0  0  0  0
  -23.3772  -32.1015   26.7274 C   0  0  0  0  0  0  0  0  0  0  0  0
  -32.4713  -14.8573   20.8033 C   0  0  0  0  0  0  0  0  0  0  0  0
  -23.4210  -30.6289   26.3320 C   0  0  0  0  0  0  0  0  0  0  0  0
  -31.0386  -15.0693   21.2924 C   0  0  0  0  0  0  0  0  0  0  0  0
  -32.1763  -20.9391   18.5305 C   0  0  0  0  0  0  0  0  0  0  0  0
  -30.2422  -19.7602   17.4034 C   0  0  0  0  0  0  0  0  0  0  0  0
  -32.5620  -15.0202   19.2901 C   0  0  0  0  0  0  0  0  0  0  0  0
  -33.0758  -19.7596   18.1691 C   0  0  0  0  0  0  0  0  0  0  0  0
  -31.1851  -18.6088   17.0661 C   0  0  0  0  0  0  0  0  0  0  0  0
  -30.6286  -16.5616   19.2751 C   0  0  0  0  0  0  0  0  0  0  0  0
  -31.0117  -21.0863   17.5360 C   0  0  0  0  0  0  0  0  0  0  0  0
  -24.7058  -30.3027   25.5610 C   0  0  1  0  0  0  0  0  0  0  0  0
  -24.0102  -30.6896   21.8462 C   0  0  1  0  0  0  0  0  0  0  0  0
  -30.4822  -16.4182   20.8032 C   0  0  1  0  0  0  0  0  0  0  0  0
  -30.6764  -23.3537   15.7351 C   0  0  0  0  0  0  0  0  0  0  0  0
  -28.9092  -25.5389   16.4833 C   0  0  0  0  0  0  0  0  0  0  0  0
  -19.4616  -29.3510   15.7207 C   0  0  0  0  0  0  0  0  0  0  0  0
  -20.4680  -27.7288   22.0632 C   0  0  0  0  0  0  0  0  0  0  0  0
  -19.3026  -27.2804   19.8932 C   0  0  0  0  0  0  0  0  0  0  0  0
  -18.9630  -29.4575   21.0626 C   0  0  0  0  0  0  0  0  0  0  0  0
  -22.9295  -30.9155   15.6763 C   0  0  0  0  0  0  0  0  0  0  0  0
  -27.5180  -25.3844   19.0358 C   0  0  0  0  0  0  0  0  0  1  0  0
  -21.1726  -28.9930   19.9251 C   0  0  1  0  0  0  0  0  0  0  0  0
  -20.6787  -30.0417   16.3159 C   0  0  2  0  0  0  0  0  0  0  0  0
  -20.0050  -28.3652   20.7374 C   0  0  0  0  0  0  0  0  0  0  0  0
  -28.0969  -15.7916   20.8219 N   0  0  0  0  0  0  0  0  0  0  0  0
  -28.5626  -23.2569   19.4679 N   0  0  0  0  0  0  0  0  0  0  0  0
  -29.0492  -16.6365   21.2525 N   0  0  0  0  0  0  0  0  0  0  0  0
  -23.2814  -29.8120   20.9281 N   0  0  0  0  0  0  0  0  0  0  0  0
  -32.0182  -16.3100   18.8654 N   0  0  0  0  0  0  0  0  0  0  0  0
  -32.3036  -18.5273   18.0154 N   0  0  0  0  0  0  0  0  0  0  0  0
  -29.5465  -21.1614   19.9780 N   0  0  0  0  0  0  0  0  0  0  0  0
  -29.4055  -18.5552   22.5949 N   0  0  0  0  0  0  0  0  0  0  0  0
  -24.9616  -17.8382   22.9608 N   0  0  0  0  0  0  0  0  0  0  0  0
  -24.6033  -30.7597   24.1916 N   0  0  0  0  0  0  0  0  0  0  0  0
  -20.7596  -29.6268   18.6776 N   0  0  0  0  0  0  0  0  0  0  0  0
  -21.6890  -30.2267   15.2361 N   0  3  0  0  0  0  0  0  0  0  0  0
  -26.6857  -19.2076   23.6018 O   0  0  0  0  0  0  0  0  0  0  0  0
  -23.4944  -28.9111   23.3110 O   0  0  0  0  0  0  0  0  0  0  0  0
  -21.3113  -31.0464   21.1044 O   0  0  0  0  0  0  0  0  0  0  0  0
  -22.0957  -28.3416   17.2848 O   0  0  0  0  0  0  0  0  0  0  0  0
  -34.1098  -17.1300   18.3422 O   0  0  0  0  0  0  0  0  0  0  0  0
  -22.0752  -13.7418   20.5269 O   0  0  0  0  0  0  0  0  0  0  0  0
  -28.2867  -26.5034   19.4573 O   0  0  0  0  0  0  0  0  0  1  0  0
  -21.9318   -8.2386   20.8407 F   0  0  0  0  0  0  0  0  0  0  0  0
  -20.4578  -12.4680   22.3720 F   0  0  0  0  0  0  0  0  0  0  0  0
  1  2  1  0  0  0  0
  1  5  2  0  0  0  0
  2  6  2  0  0  0  0
  3  8  2  0  0  0  0
  3 15  1  0  0  0  0
  4  9  1  0  0  0  0
  4 15  2  0  0  0  0
  5 17  1  0  0  0  0
  6 19  1  0  0  0  0
  7 10  2  0  0  0  0
  7 18  1  0  0  0  0
  8 24  1  0  0  0  0
  9 24  2  0  0  0  0
 10 25  1  0  0  0  0
 11 12  2  0  0  0  0
 11 26  1  0  0  0  0
 12 27  1  0  0  0  0
 13 20  1  0  0  0  0
 13 25  2  0  0  0  0
 14 27  2  0  0  0  0
 14 28  1  0  0  0  0
 15 29  1  0  0  0  0
 16 29  1  0  0  0  0
 16 32  2  0  0  0  0
 16 33  1  0  0  0  0
 17 19  2  0  0  0  0
 17 38  1  0  0  0  0
 18 20  2  0  0  0  0
 18 39  1  0  0  0  0
 19 52  1  0  0  0  0
 20 40  1  0  0  0  0
 21 22  2  0  0  0  0
 21 31  1  0  0  0  0
 21 51  1  0  0  0  0
 22 23  1  0  0  0  0
 22 55  1  0  0  0  0
 23 30  2  0  0  0  0
 23 56  1  0  0  0  0
 24 83  1  0  0  0  0
 25 84  1  0  0  0  0
 26 28  2  0  0  0  0
 26 83  1  0  0  0  0
 27 85  1  0  0  0  0
 28 86  1  0  0  0  0
 29 66  2  0  0  0  0
 30 62  1  0  0  0  0
 30 67  1  0  0  0  0
 31 67  2  0  0  0  0
 31 72  1  0  0  0  0
 32 68  1  0  0  0  0
 32 73  1  0  0  0  0
 33 74  1  0  0  0  0
 33 78  2  0  0  0  0
 34 53  1  0  0  0  0
 34 75  1  0  0  0  0
 34 79  2  0  0  0  0
 35 63  1  0  0  0  0
 35 69  1  0  0  0  0
 35 80  2  0  0  0  0
 36 64  1  0  0  0  0
 36 76  1  0  0  0  0
 36 81  2  0  0  0  0
 37 70  1  0  0  0  0
 37 71  1  0  0  0  0
 37 82  2  0  0  0  0
 38 41  1  0  0  0  0
 39 53  1  0  0  0  0
 40 69  1  0  0  0  0
 41 43  1  0  0  0  0
 42 44  1  0  0  0  0
 42 47  1  0  0  0  0
 43 52  1  0  0  0  0
 44 54  1  0  0  0  0
 45 48  1  0  0  0  0
 45 51  1  0  0  0  0
 46 49  1  0  0  0  0
 46 51  1  0  0  0  0
 47 70  1  0  0  0  0
 48 71  1  0  0  0  0
 49 71  1  0  0  0  0
 50 54  1  0  0  0  0
 50 70  1  0  0  0  0
 52 75  1  0  0  0  0
 53 69  1  0  0  0  0
 54 68  1  0  0  0  0
 57 64  1  0  0  0  0
 58 65  1  0  0  0  0
 59 65  1  0  0  0  0
 60 65  1  0  0  0  0
 61 77  1  0  0  0  0
 62 84  1  0  0  0  0
 63 65  1  0  0  0  0
 63 76  1  0  0  0  0
 64 77  1  0  0  0  0
 66 68  1  0  0  0  0
M  CHG  1  77   1
M  ISO  4  37 100  62 101  71 100  84 101
M  END
> <Batch ID>
0168

> <Smiles>
CNC(C)C(=O)NC(C(=O)N1Cc2cc([101O:1][101CH2:1]c3nc(N)c(C4CC[100N:0]([100C:0](=O)N5CCCC(n6nc(-c7ccc(Oc8ccc(F)cc8F)cc7)c(C(N)=O)c6N)C5)CC4)c(C)c3C)ccc2CC1C(=O)NC1CCCc2ccccc21)C(C)(C)C

> <Shape>
0.267

> <Color>
0.086

> <Negative vol penalty>
0.000

$$$$

  -OEChem-04052322303D

 88 97  0     1  0  0  0  0  0999 V2000
  -28.7903  -37.4596   24.3328 C   0  0  0  0  0  0  0  0  0  0  0  0
  -29.1604  -36.3105   23.6414 C   0  0  0  0  0  0  0  0  0  0  0  0
  -27.0906  -13.5622   21.6417 C   0  0  0  0  0  0  0  0  0  0  0  0
  -26.8747  -13.6880   19.2387 C   0  0  0  0  0  0  0  0  0  0  0  0
  -27.7559  -37.4074   25.2662 C   0  0  0  0  0  0  0  0  0  0  0  0
  -28.4969  -35.1082   23.8837 C   0  0  0  0  0  0  0  0  0  0  0  0
  -27.2586  -30.7017   19.8149 C   0  0  0  0  0  0  0  0  0  0  0  0
  -26.2387  -12.4579   21.6605 C   0  0  0  0  0  0  0  0  0  0  0  0
  -26.0227  -12.5837   19.2574 C   0  0  0  0  0  0  0  0  0  0  0  0
  -27.8913  -29.4957   19.5167 C   0  0  0  0  0  0  0  0  0  0  0  0
  -23.5056  -10.0200   18.7083 C   0  0  0  0  0  0  0  0  0  0  0  0
  -22.3455  -10.0830   17.9364 C   0  0  0  0  0  0  0  0  0  0  0  0
  -26.3521  -28.3364   20.9680 C   0  0  0  0  0  0  0  0  0  0  0  0
  -21.6160  -12.0148   19.1906 C   0  0  0  0  0  0  0  0  0  0  0  0
  -27.4086  -14.1773   20.4308 C   0  0  0  0  0  0  0  0  0  0  0  0
  -29.6902  -15.3089   20.2842 C   0  0  0  0  0  0  0  0  0  0  0  0
  -27.0729  -36.2060   25.5130 C   0  0  0  0  0  0  0  0  0  0  0  0
  -26.1730  -30.7357   20.7018 C   0  0  0  0  0  0  0  0  0  0  0  0
  -27.4532  -35.0396   24.8222 C   0  0  0  0  0  0  0  0  0  0  0  0
  -25.7058  -29.5438   21.2738 C   0  0  0  0  0  0  0  0  0  0  0  0
  -30.4054  -24.9666   17.7981 C   0  0  0  0  0  0  0  0  0  0  0  0
  -28.1057  -24.3266   17.4741 C   0  0  0  0  0  0  0  0  0  0  0  0
  -29.1962  -24.5148   18.3179 C   0  0  0  0  0  0  0  0  0  0  0  0
  -25.7047  -11.9687   20.4684 C   0  0  0  0  0  0  0  0  0  0  0  0
  -27.4399  -28.3132   20.0954 C   0  0  0  0  0  0  0  0  0  0  0  0
  -23.7209  -10.9544   19.7214 C   0  0  0  0  0  0  0  0  0  0  0  0
  -21.4007  -11.0804   18.1776 C   0  0  0  0  0  0  0  0  0  0  0  0
  -22.7761  -11.9518   19.9625 C   0  0  0  0  0  0  0  0  0  0  0  0
  -28.2881  -15.3184   20.4109 C   0  0  0  0  0  0  0  0  0  0  0  0
  -30.4943  -25.2210   16.4369 C   0  0  0  0  0  0  0  0  0  0  0  0
  -28.2528  -24.5974   16.1211 C   0  0  0  0  0  0  0  0  0  0  0  0
  -30.0472  -16.6347   20.3207 C   0  0  0  0  0  0  0  0  0  0  0  0
  -30.5894  -14.2008   20.1458 C   0  0  0  0  0  0  0  0  0  0  0  0
  -25.6124  -32.1173   23.5091 C   0  0  0  0  0  0  0  0  0  0  0  0
  -22.6220  -30.9479   23.0478 C   0  0  0  0  0  0  0  0  0  0  0  0
  -20.6158  -28.6376   21.5364 C   0  0  0  0  0  0  0  0  0  0  0  0
  -27.0949  -21.5439   18.8927 C   0  0  0  0  0  0  0  0  0  0  0  0
  -25.9928  -36.1880   26.5655 C   0  0  0  0  0  0  0  0  0  0  0  0
  -25.4845  -32.0411   20.9924 C   0  0  0  0  0  0  0  0  0  0  0  0
  -24.5314  -29.5236   22.2166 C   0  0  0  0  0  0  0  0  0  0  0  0
  -25.0908  -34.9587   26.4917 C   0  0  0  0  0  0  0  0  0  0  0  0
  -28.6290  -20.8473   22.0956 C   0  0  0  0  0  0  0  0  0  0  0  0
  -32.8812  -24.4771   18.3503 C   0  0  0  0  0  0  0  0  0  0  0  0
  -32.0786  -24.0382   19.5350 C   0  0  0  0  0  0  0  0  0  0  0  0
  -25.9265  -33.6919   26.3383 C   0  0  0  0  0  0  0  0  0  0  0  0
  -28.8476  -19.3359   22.0059 C   0  0  0  0  0  0  0  0  0  0  0  0
  -27.3160  -21.2562   21.4345 C   0  0  0  0  0  0  0  0  0  0  0  0
  -27.3966  -19.3106   19.9240 C   0  0  0  0  0  0  0  0  0  0  0  0
  -31.5917  -25.1781   18.6819 C   0  0  0  0  0  0  0  0  0  0  0  0
  -26.7409  -33.7222   25.0393 C   0  0  1  0  0  0  0  0  0  0  0  0
  -24.7131  -32.0298   22.3085 C   0  0  1  0  0  0  0  0  0  0  0  0
  -28.7185  -18.8362   20.5547 C   0  0  2  0  0  0  0  0  0  0  0  0
  -31.7389  -25.7059   15.7838 C   0  0  0  0  0  0  0  0  0  0  0  0
  -27.1498  -24.4284   15.1388 C   0  0  0  0  0  0  0  0  0  0  0  0
  -25.8671  -24.9868   18.4304 C   0  0  0  0  0  0  0  0  0  0  0  0
  -18.2192  -27.9099   21.3820 C   0  0  0  0  0  0  0  0  0  0  0  0
  -29.5929  -24.5429   22.0144 C   0  0  0  0  0  0  0  0  0  0  0  0
  -22.8445  -29.6407   25.7958 C   0  0  0  0  0  0  0  0  0  0  0  0
  -20.8928  -28.1948   25.1889 C   0  0  0  0  0  0  0  0  0  0  0  0
  -20.6187  -30.6713   25.3079 C   0  0  0  0  0  0  0  0  0  0  0  0
  -20.5188  -29.1757   18.6278 C   0  0  0  0  0  0  0  0  0  0  0  0
  -28.0464  -26.1310   20.8209 C   0  0  0  0  0  0  0  0  0  1  0  0
  -26.7963  -23.8418   18.0054 C   0  0  2  0  0  0  0  0  0  0  0  0
  -21.9141  -29.6586   23.3875 C   0  0  1  0  0  0  0  0  0  0  0  0
  -19.3091  -28.7810   20.7772 C   0  0  2  0  0  0  0  0  0  0  0  0
  -29.2880  -25.2501   20.7004 C   0  0  2  0  0  0  0  0  0  0  0  0
  -21.5909  -29.5416   24.9038 C   0  0  0  0  0  0  0  0  0  0  0  0
  -27.7886  -16.5523   20.5199 N   0  0  0  0  0  0  0  0  0  0  0  0
  -28.8827  -17.3305   20.4619 N   0  0  0  0  0  0  0  0  0  0  0  0
  -29.4286  -25.0314   15.6471 N   0  3  0  0  0  0  0  0  0  0  0  0
  -23.8956  -30.8262   22.4742 N   0  0  0  0  0  0  0  0  0  0  0  0
  -27.2646  -20.7659   20.0500 N   0  0  0  0  0  0  0  0  0  0  0  0
  -31.2405  -17.2614   20.2456 N   0  0  0  0  0  0  0  0  0  0  0  0
  -30.0552  -12.9052   20.1267 N   0  0  0  0  0  0  0  0  0  0  0  0
  -29.0771  -24.2528   19.6703 N   0  0  0  0  0  0  0  0  0  0  0  0
  -25.8967  -33.4100   23.9060 N   0  0  0  0  0  0  0  0  0  0  0  0
  -20.7427  -29.5953   22.5202 N   0  0  0  0  0  0  0  0  0  0  0  0
  -26.9706  -22.9123   19.0993 N   0  0  0  0  0  0  0  0  0  0  0  0
  -19.4916  -28.3839   19.3524 N   0  3  0  0  0  0  0  0  0  0  0  0
  -31.8313  -14.3541   20.0586 O   0  0  0  0  0  0  0  0  0  0  0  0
  -26.0171  -31.0881   24.0372 O   0  0  0  0  0  0  0  0  0  0  0  0
  -22.0626  -32.0233   23.2762 O   0  0  0  0  0  0  0  0  0  0  0  0
  -21.4398  -27.7611   21.2845 O   0  0  0  0  0  0  0  0  0  0  0  0
  -27.0620  -21.0556   17.7580 O   0  0  0  0  0  0  0  0  0  0  0  0
  -24.8736  -10.8910   20.4863 O   0  0  0  0  0  0  0  0  0  0  0  0
  -28.0560  -27.1347   19.8066 O   0  0  0  0  0  0  0  0  0  1  0  0
  -20.2874  -11.1417   17.4353 F   0  0  0  0  0  0  0  0  0  0  0  0
  -22.9780  -12.8530   20.9336 F   0  0  0  0  0  0  0  0  0  0  0  0
  1  2  1  0  0  0  0
  1  5  2  0  0  0  0
  2  6  2  0  0  0  0
  3  8  2  0  0  0  0
  3 15  1  0  0  0  0
  4  9  1  0  0  0  0
  4 15  2  0  0  0  0
  5 17  1  0  0  0  0
  6 19  1  0  0  0  0
  7 10  2  0  0  0  0
  7 18  1  0  0  0  0
  8 24  1  0  0  0  0
  9 24  2  0  0  0  0
 10 25  1  0  0  0  0
 11 12  2  0  0  0  0
 11 26  1  0  0  0  0
 12 27  1  0  0  0  0
 13 20  1  0  0  0  0
 13 25  2  0  0  0  0
 14 27  2  0  0  0  0
 14 28  1  0  0  0  0
 15 29  1  0  0  0  0
 16 29  1  0  0  0  0
 16 32  2  0  0  0  0
 16 33  1  0  0  0  0
 17 19  2  0  0  0  0
 17 38  1  0  0  0  0
 18 20  2  0  0  0  0
 18 39  1  0  0  0  0
 19 50  1  0  0  0  0
 20 40  1  0  0  0  0
 21 23  1  0  0  0  0
 21 30  2  0  0  0  0
 21 49  1  0  0  0  0
 22 23  2  0  0  0  0
 22 31  1  0  0  0  0
 22 63  1  0  0  0  0
 23 75  1  0  0  0  0
 24 85  1  0  0  0  0
 25 86  1  0  0  0  0
 26 28  2  0  0  0  0
 26 85  1  0  0  0  0
 27 87  1  0  0  0  0
 28 88  1  0  0  0  0
 29 68  2  0  0  0  0
 30 53  1  0  0  0  0
 30 70  1  0  0  0  0
 31 54  1  0  0  0  0
 31 70  2  0  0  0  0
 32 69  1  0  0  0  0
 32 73  1  0  0  0  0
 33 74  1  0  0  0  0
 33 80  2  0  0  0  0
 34 51  1  0  0  0  0
 34 76  1  0  0  0  0
 34 81  2  0  0  0  0
 35 64  1  0  0  0  0
 35 71  1  0  0  0  0
 35 82  2  0  0  0  0
 36 65  1  0  0  0  0
 36 77  1  0  0  0  0
 36 83  2  0  0  0  0
 37 72  1  0  0  0  0
 37 78  1  0  0  0  0
 37 84  2  0  0  0  0
 38 41  1  0  0  0  0
 39 51  1  0  0  0  0
 40 71  1  0  0  0  0
 41 45  1  0  0  0  0
 42 46  1  0  0  0  0
 42 47  1  0  0  0  0
 43 44  1  0  0  0  0
 43 49  1  0  0  0  0
 44 49  1  0  0  0  0
 45 50  1  0  0  0  0
 46 52  1  0  0  0  0
 47 72  1  0  0  0  0
 48 52  1  0  0  0  0
 48 72  1  0  0  0  0
 50 76  1  0  0  0  0
 51 71  1  0  0  0  0
 52 69  1  0  0  0  0
 55 63  1  0  0  0  0
 56 65  1  0  0  0  0
 57 66  1  0  0  0  0
 58 67  1  0  0  0  0
 59 67  1  0  0  0  0
 60 67  1  0  0  0  0
 61 79  1  0  0  0  0
 62 66  1  0  0  0  0
 62 86  1  0  0  0  0
 63 78  1  0  0  0  0
 64 67  1  0  0  0  0
 64 77  1  0  0  0  0
 65 79  1  0  0  0  0
 66 75  1  0  0  0  0
 68 69  1  0  0  0  0
M  CHG  2  70   1  79   1
M  ISO  4  37 100  62 101  78 100  86 101
M  END
> <Batch ID>
0168

> <Smiles>
CNC(C)C(=O)NC(C(=O)N1Cc2cc([101O:1][101CH2:1]C(C)Nc3c(C4CC4)c(C)nc(C)c3C(C)[100NH:0][100C:0](=O)N3CCCC(n4nc(-c5ccc(Oc6ccc(F)cc6F)cc5)c(C(N)=O)c4N)C3)ccc2CC1C(=O)NC1CCCc2ccccc21)C(C)(C)C

> <Shape>
0.307

> <Color>
0.079

> <Negative vol penalty>
0.000

$$$$

  -OEChem-04052322303D

 86 95  0     1  0  0  0  0  0999 V2000
  -18.9027  -30.7274   20.0771 C   0  0  0  0  0  0  0  0  0  0  0  0
  -20.0668  -30.0632   19.7041 C   0  0  0  0  0  0  0  0  0  0  0  0
  -23.1917   -9.7412   19.9399 C   0  0  0  0  0  0  0  0  0  0  0  0
  -23.7520   -9.9117   22.2838 C   0  0  0  0  0  0  0  0  0  0  0  0
  -18.2164  -30.3369   21.2263 C   0  0  0  0  0  0  0  0  0  0  0  0
  -20.5460  -29.0089   20.4807 C   0  0  0  0  0  0  0  0  0  0  0  0
  -23.4083  -23.9742   18.4893 C   0  0  0  0  0  0  0  0  0  0  0  0
  -22.4297   -8.6034   20.2048 C   0  0  0  0  0  0  0  0  0  0  0  0
  -22.9899   -8.7738   22.5488 C   0  0  0  0  0  0  0  0  0  0  0  0
  -24.7568  -23.6274   18.4198 C   0  0  0  0  0  0  0  0  0  0  0  0
  -19.3681   -7.8901   21.4504 C   0  0  0  0  0  0  0  0  0  0  0  0
  -18.1077   -7.8021   20.8595 C   0  0  0  0  0  0  0  0  0  0  0  0
  -24.5595  -22.4629   20.5232 C   0  0  0  0  0  0  0  0  0  0  0  0
  -31.0144  -18.9398   21.0582 C   0  0  0  0  0  0  0  0  0  0  0  0
  -18.7797   -5.7758   19.7281 C   0  0  0  0  0  0  0  0  0  0  0  0
  -23.8529  -10.3954   20.9794 C   0  0  0  0  0  0  0  0  0  0  0  0
  -24.2026  -12.9083   20.7139 C   0  0  0  0  0  0  0  0  0  0  0  0
  -18.6822  -29.2709   22.0120 C   0  0  0  0  0  0  0  0  0  0  0  0
  -22.6265  -23.5766   19.5835 C   0  0  0  0  0  0  0  0  0  0  0  0
  -19.8661  -28.6046   21.6421 C   0  0  0  0  0  0  0  0  0  0  0  0
  -23.2006  -22.8038   20.6030 C   0  0  0  0  0  0  0  0  0  0  0  0
  -30.3250  -19.8857   20.3077 C   0  0  0  0  0  0  0  0  0  0  0  0
  -28.9805  -19.6869   20.0145 C   0  0  0  0  0  0  0  0  0  0  0  0
  -22.3287   -8.1197   21.5092 C   0  0  0  0  0  0  0  0  0  0  0  0
  -25.3334  -22.8741   19.4383 C   0  0  0  0  0  0  0  0  0  0  0  0
  -20.3344   -6.9211   21.1801 C   0  0  0  0  0  0  0  0  0  0  0  0
  -17.8135   -6.7449   19.9984 C   0  0  0  0  0  0  0  0  0  0  0  0
  -20.0402   -5.8639   20.3190 C   0  0  0  0  0  0  0  0  0  0  0  0
  -24.6407  -11.5705   20.7063 C   0  0  0  0  0  0  0  0  0  0  0  0
  -30.3192  -17.8212   21.4885 C   0  0  0  0  0  0  0  0  0  0  0  0
  -28.3764  -18.5347   20.4914 C   0  0  0  0  0  0  0  0  0  0  0  0
  -25.3216  -13.6379   20.3942 C   0  0  0  0  0  0  0  0  0  0  0  0
  -22.9006  -13.4437   20.9858 C   0  0  0  0  0  0  0  0  0  0  0  0
  -21.0164  -25.1001   21.8616 C   0  0  0  0  0  0  0  0  0  0  0  0
  -20.0305  -22.1057   22.6257 C   0  0  0  0  0  0  0  0  0  0  0  0
  -20.6203  -18.7460   22.5196 C   0  0  0  0  0  0  0  0  0  0  0  0
  -30.7109  -14.7270   20.9073 C   0  0  0  0  0  0  0  0  0  0  0  0
  -17.9323  -28.9157   23.2715 C   0  0  0  0  0  0  0  0  0  0  0  0
  -21.1667  -23.9361   19.6304 C   0  0  0  0  0  0  0  0  0  0  0  0
  -22.3997  -22.3347   21.7891 C   0  0  0  0  0  0  0  0  0  0  0  0
  -18.3015  -27.5456   23.8342 C   0  0  0  0  0  0  0  0  0  0  0  0
  -30.9690  -15.6224   24.4118 C   0  0  0  0  0  0  0  0  0  0  0  0
  -29.8350  -12.1915   18.6638 C   0  0  0  0  0  0  0  0  0  0  0  0
  -19.8165  -27.3695   23.8597 C   0  0  0  0  0  0  0  0  0  0  0  0
  -30.9165  -17.0239   23.8169 C   0  0  0  0  0  0  0  0  0  0  0  0
  -28.3753  -11.8897   18.9973 C   0  0  0  0  0  0  0  0  0  0  0  0
  -30.6379  -12.4554   19.9315 C   0  0  0  0  0  0  0  0  0  0  0  0
  -30.1905  -14.7968   23.3993 C   0  0  0  0  0  0  0  0  0  0  0  0
  -28.6256  -13.2941   21.1063 C   0  0  0  0  0  0  0  0  0  0  0  0
  -20.4040  -27.4401   22.4450 C   0  0  1  0  0  0  0  0  0  0  0  0
  -31.0359  -16.7721   22.3080 C   0  0  1  0  0  0  0  0  0  0  0  0
  -20.5911  -23.9141   21.0430 C   0  0  1  0  0  0  0  0  0  0  0  0
  -27.7682  -13.0119   19.8556 C   0  0  2  0  0  0  0  0  0  0  0  0
  -31.0494  -21.0999   19.8281 C   0  0  0  0  0  0  0  0  0  0  0  0
  -26.9339  -18.2665   20.2101 C   0  0  0  0  0  0  0  0  0  0  0  0
  -27.6985  -20.0919   17.8876 C   0  0  0  0  0  0  0  0  0  0  0  0
  -19.6549  -16.5521   23.2628 C   0  0  0  0  0  0  0  0  0  0  0  0
  -20.9837  -22.6532   25.4720 C   0  0  0  0  0  0  0  0  0  0  0  0
  -20.8841  -20.1893   25.9050 C   0  0  0  0  0  0  0  0  0  0  0  0
  -18.8047  -21.4358   25.3177 C   0  0  0  0  0  0  0  0  0  0  0  0
  -20.3472  -17.7897   19.7321 C   0  0  0  0  0  0  0  0  0  0  0  0
  -27.0356  -21.3093   19.9947 C   0  0  0  0  0  0  0  0  0  1  0  0
  -28.2148  -20.6856   19.2136 C   0  0  1  0  0  0  0  0  0  0  0  0
  -20.5413  -21.0102   23.5302 C   0  0  1  0  0  0  0  0  0  0  0  0
  -19.7270  -17.5779   22.1424 C   0  0  2  0  0  0  0  0  0  0  0  0
  -20.3193  -21.3325   25.0350 C   0  0  0  0  0  0  0  0  0  0  0  0
  -25.9369  -11.4541   20.4054 N   0  0  0  0  0  0  0  0  0  0  0  0
  -29.0133  -17.5934   21.2235 N   0  0  0  0  0  0  0  0  0  0  0  0
  -26.3228  -12.7281   20.2210 N   0  0  0  0  0  0  0  0  0  0  0  0
  -20.9780  -22.7171   21.7925 N   0  0  0  0  0  0  0  0  0  0  0  0
  -30.0310  -13.5141   20.7392 N   0  0  0  0  0  0  0  0  0  0  0  0
  -30.5130  -15.4114   22.1101 N   0  0  0  0  0  0  0  0  0  0  0  0
  -25.5368  -14.9624   20.2472 N   0  0  0  0  0  0  0  0  0  0  0  0
  -21.8639  -12.5535   21.2976 N   0  0  0  0  0  0  0  0  0  0  0  0
  -20.1812  -26.1946   21.7425 N   0  0  0  0  0  0  0  0  0  0  0  0
  -19.9003  -19.7788   23.0819 N   0  0  0  0  0  0  0  0  0  0  0  0
  -20.2462  -16.9026   20.9195 N   0  3  0  0  0  0  0  0  0  0  0  0
  -22.6598  -14.6738   20.9371 O   0  0  0  0  0  0  0  0  0  0  0  0
  -22.0266  -25.0272   22.5514 O   0  0  0  0  0  0  0  0  0  0  0  0
  -18.8336  -22.4029   22.6522 O   0  0  0  0  0  0  0  0  0  0  0  0
  -21.8357  -18.7411   22.3373 O   0  0  0  0  0  0  0  0  0  0  0  0
  -31.4733  -15.1668   20.0372 O   0  0  0  0  0  0  0  0  0  0  0  0
  -21.5850   -7.0095   21.7681 O   0  0  0  0  0  0  0  0  0  0  0  0
  -26.6583  -22.5326   19.3728 O   0  0  0  0  0  0  0  0  0  1  0  0
  -16.6026   -6.6596   19.4322 F   0  0  0  0  0  0  0  0  0  0  0  0
  -20.9640   -4.9293   20.0565 F   0  0  0  0  0  0  0  0  0  0  0  0
  1  2  1  0  0  0  0
  1  5  2  0  0  0  0
  2  6  2  0  0  0  0
  3  8  2  0  0  0  0
  3 16  1  0  0  0  0
  4  9  1  0  0  0  0
  4 16  2  0  0  0  0
  5 18  1  0  0  0  0
  6 20  1  0  0  0  0
  7 10  2  0  0  0  0
  7 19  1  0  0  0  0
  8 24  1  0  0  0  0
  9 24  2  0  0  0  0
 10 25  1  0  0  0  0
 11 12  2  0  0  0  0
 11 26  1  0  0  0  0
 12 27  1  0  0  0  0
 13 21  1  0  0  0  0
 13 25  2  0  0  0  0
 14 22  2  0  0  0  0
 14 30  1  0  0  0  0
 15 27  2  0  0  0  0
 15 28  1  0  0  0  0
 16 29  1  0  0  0  0
 17 29  1  0  0  0  0
 17 32  2  0  0  0  0
 17 33  1  0  0  0  0
 18 20  2  0  0  0  0
 18 38  1  0  0  0  0
 19 21  2  0  0  0  0
 19 39  1  0  0  0  0
 20 50  1  0  0  0  0
 21 40  1  0  0  0  0
 22 23  1  0  0  0  0
 22 54  1  0  0  0  0
 23 31  2  0  0  0  0
 23 63  1  0  0  0  0
 24 83  1  0  0  0  0
 25 84  1  0  0  0  0
 26 28  2  0  0  0  0
 26 83  1  0  0  0  0
 27 85  1  0  0  0  0
 28 86  1  0  0  0  0
 29 67  2  0  0  0  0
 30 51  1  0  0  0  0
 30 68  2  0  0  0  0
 31 55  1  0  0  0  0
 31 68  1  0  0  0  0
 32 69  1  0  0  0  0
 32 73  1  0  0  0  0
 33 74  1  0  0  0  0
 33 78  2  0  0  0  0
 34 52  1  0  0  0  0
 34 75  1  0  0  0  0
 34 79  2  0  0  0  0
 35 64  1  0  0  0  0
 35 70  1  0  0  0  0
 35 80  2  0  0  0  0
 36 65  1  0  0  0  0
 36 76  1  0  0  0  0
 36 81  2  0  0  0  0
 37 71  1  0  0  0  0
 37 72  1  0  0  0  0
 37 82  2  0  0  0  0
 38 41  1  0  0  0  0
 39 52  1  0  0  0  0
 40 70  1  0  0  0  0
 41 44  1  0  0  0  0
 42 45  1  0  0  0  0
 42 48  1  0  0  0  0
 43 46  1  0  0  0  0
 43 47  1  0  0  0  0
 44 50  1  0  0  0  0
 45 51  1  0  0  0  0
 46 53  1  0  0  0  0
 47 71  1  0  0  0  0
 48 72  1  0  0  0  0
 49 53  1  0  0  0  0
 49 71  1  0  0  0  0
 50 75  1  0  0  0  0
 51 72  1  0  0  0  0
 52 70  1  0  0  0  0
 53 69  1  0  0  0  0
 56 63  1  0  0  0  0
 57 65  1  0  0  0  0
 58 66  1  0  0  0  0
 59 66  1  0  0  0  0
 60 66  1  0  0  0  0
 61 77  1  0  0  0  0
 62 63  1  0  0  0  0
 62 84  1  0  0  0  0
 64 66  1  0  0  0  0
 64 76  1  0  0  0  0
 65 77  1  0  0  0  0
 67 69  1  0  0  0  0
M  CHG  1  77   1
M  ISO  4  37 100  62 101  72 100  84 101
M  END
> <Batch ID>
0168

> <Smiles>
CNC(C)C(=O)NC(C(=O)N1Cc2cc([101O:1][101CH2:1]C(C)c3c(C)cc(C4CCC[100N:0]4[100C:0](=O)N4CCCC(n5nc(-c6ccc(Oc7ccc(F)cc7F)cc6)c(C(N)=O)c5N)C4)nc3C)ccc2CC1C(=O)NC1CCCc2ccccc21)C(C)(C)C

> <Shape>
0.238

> <Color>
0.199

> <Negative vol penalty>
0.000

$$$$

  -OEChem-04052322303D

 85 94  0     1  0  0  0  0  0999 V2000
  -27.7175  -33.8508   26.4020 C   0  0  0  0  0  0  0  0  0  0  0  0
  -27.7539  -32.5446   25.9245 C   0  0  0  0  0  0  0  0  0  0  0  0
  -24.3132   -9.7231   21.4498 C   0  0  0  0  0  0  0  0  0  0  0  0
  -24.8208  -10.8149   23.5445 C   0  0  0  0  0  0  0  0  0  0  0  0
  -26.5195  -34.5638   26.3881 C   0  0  0  0  0  0  0  0  0  0  0  0
  -26.5918  -31.9503   25.4337 C   0  0  0  0  0  0  0  0  0  0  0  0
  -27.3679  -29.4582   21.0941 C   0  0  0  0  0  0  0  0  0  0  0  0
  -23.9508   -8.5666   22.1404 C   0  0  0  0  0  0  0  0  0  0  0  0
  -24.4583   -9.6584   24.2351 C   0  0  0  0  0  0  0  0  0  0  0  0
  -27.9658  -28.2017   21.1796 C   0  0  0  0  0  0  0  0  0  0  0  0
  -22.5486   -5.4472   23.3723 C   0  0  0  0  0  0  0  0  0  0  0  0
  -21.3744   -4.8016   22.9848 C   0  0  0  0  0  0  0  0  0  0  0  0
  -25.7999  -27.1627   20.9590 C   0  0  0  0  0  0  0  0  0  0  0  0
  -27.8954  -19.7480   20.8478 C   0  0  0  0  0  0  0  0  0  0  0  0
  -20.1089   -6.7941   23.4998 C   0  0  0  0  0  0  0  0  0  0  0  0
  -24.7483  -10.8472   22.1519 C   0  0  0  0  0  0  0  0  0  0  0  0
  -24.2870  -13.1165   21.0818 C   0  0  0  0  0  0  0  0  0  0  0  0
  -25.3442  -33.9813   25.8880 C   0  0  0  0  0  0  0  0  0  0  0  0
  -25.9780  -29.5769   20.9511 C   0  0  0  0  0  0  0  0  0  0  0  0
  -25.3766  -32.6557   25.4143 C   0  0  0  0  0  0  0  0  0  0  0  0
  -25.1871  -28.4219   20.8693 C   0  0  0  0  0  0  0  0  0  0  0  0
  -27.9408  -21.1275   20.7614 C   0  0  0  0  0  0  0  0  0  0  0  0
  -29.0378  -21.7649   20.1744 C   0  0  0  0  0  0  0  0  0  0  0  0
  -24.0233   -8.5343   23.5330 C   0  0  0  0  0  0  0  0  0  0  0  0
  -27.1815  -27.0537   21.1150 C   0  0  0  0  0  0  0  0  0  0  0  0
  -22.5029   -6.7663   23.8236 C   0  0  0  0  0  0  0  0  0  0  0  0
  -20.1546   -5.4750   23.0486 C   0  0  0  0  0  0  0  0  0  0  0  0
  -21.2830   -7.4397   23.8873 C   0  0  0  0  0  0  0  0  0  0  0  0
  -25.1233  -12.0419   21.4391 C   0  0  0  0  0  0  0  0  0  0  0  0
  -30.0746  -20.9909   19.6968 C   0  0  0  0  0  0  0  0  0  0  0  0
  -28.9888  -19.0578   20.3455 C   0  0  0  0  0  0  0  0  0  0  0  0
  -25.1159  -13.9930   20.4251 C   0  0  0  0  0  0  0  0  0  0  0  0
  -22.8862  -13.3056   21.3221 C   0  0  0  0  0  0  0  0  0  0  0  0
  -23.6456  -30.8598   22.6884 C   0  0  0  0  0  0  0  0  0  0  0  0
  -21.8332  -30.0956   20.1089 C   0  0  0  0  0  0  0  0  0  0  0  0
  -21.4043  -28.1376   17.3469 C   0  0  0  0  0  0  0  0  0  0  0  0
  -29.9352  -16.7490   19.9986 C   0  0  0  0  0  0  0  0  0  0  0  0
  -24.0628  -34.7750   25.9371 C   0  0  0  0  0  0  0  0  0  0  0  0
  -25.3512  -30.9391   20.8335 C   0  0  0  0  0  0  0  0  0  0  0  0
  -23.6927  -28.4947   20.6957 C   0  0  0  0  0  0  0  0  0  0  0  0
  -22.9572  -34.2021   25.0540 C   0  0  0  0  0  0  0  0  0  0  0  0
  -29.8573  -13.4157   18.7496 C   0  0  0  0  0  0  0  0  0  0  0  0
  -22.8432  -32.6940   25.2523 C   0  0  0  0  0  0  0  0  0  0  0  0
  -28.5500  -12.8495   19.3086 C   0  0  0  0  0  0  0  0  0  0  0  0
  -30.5408  -14.3525   19.7441 C   0  0  0  0  0  0  0  0  0  0  0  0
  -28.3856  -14.8679   20.8206 C   0  0  0  0  0  0  0  0  0  0  0  0
  -26.9019  -22.1296   21.1856 C   0  0  2  0  0  0  0  0  0  0  0  0
  -24.1425  -31.9851   24.8511 C   0  0  1  0  0  0  0  0  0  0  0  0
  -23.8718  -30.9504   21.2057 C   0  0  1  0  0  0  0  0  0  0  0  0
  -27.7583  -23.4269   21.2439 C   0  0  1  0  0  0  0  0  0  0  0  0
  -27.6280  -13.9694   19.8294 C   0  0  2  0  0  0  0  0  0  0  0  0
  -28.8636  -23.2641   20.1440 C   0  0  0  0  0  0  0  0  0  0  0  0
  -31.2611  -21.5834   19.0191 C   0  0  0  0  0  0  0  0  0  0  0  0
  -26.2232  -21.8133   22.5129 C   0  0  0  0  0  0  0  0  0  0  0  0
  -28.4140  -23.6983   18.7403 C   0  0  0  0  0  0  0  0  0  0  0  0
  -30.1399  -24.0184   20.5364 C   0  0  0  0  0  0  0  0  0  0  0  0
  -19.8076  -27.7208   15.4563 C   0  0  0  0  0  0  0  0  0  0  0  0
  -19.9631  -28.6211   22.0165 C   0  0  0  0  0  0  0  0  0  0  0  0
  -18.9666  -27.4628   20.0332 C   0  0  0  0  0  0  0  0  0  0  0  0
  -18.8068  -29.9439   20.2367 C   0  0  0  0  0  0  0  0  0  0  0  0
  -23.4403  -28.8434   15.3183 C   0  0  0  0  0  0  0  0  0  0  0  0
  -26.9105  -24.6910   21.1267 C   0  0  0  0  0  0  0  0  0  1  0  0
  -21.0356  -28.8867   19.6830 C   0  0  1  0  0  0  0  0  0  0  0  0
  -21.0416  -28.4828   15.9138 C   0  0  2  0  0  0  0  0  0  0  0  0
  -19.7210  -28.7269   20.4976 C   0  0  0  0  0  0  0  0  0  0  0  0
  -26.3865  -12.2175   21.0421 N   0  0  0  0  0  0  0  0  0  0  0  0
  -30.0753  -19.6407   19.7757 N   0  0  0  0  0  0  0  0  0  0  0  0
  -26.3501  -13.4125   20.4284 N   0  0  0  0  0  0  0  0  0  0  0  0
  -23.1262  -29.8496   20.5920 N   0  0  0  0  0  0  0  0  0  0  0  0
  -29.6084  -15.3899   20.1906 N   0  0  0  0  0  0  0  0  0  0  0  0
  -24.9021  -15.1958   19.8507 N   0  0  0  0  0  0  0  0  0  0  0  0
  -22.1859  -12.3065   22.0117 N   0  0  0  0  0  0  0  0  0  0  0  0
  -28.9580  -17.6439   20.4332 N   0  0  0  0  0  0  0  0  0  0  0  0
  -24.2363  -31.8789   23.4109 N   0  0  0  0  0  0  0  0  0  0  0  0
  -20.8348  -29.0165   18.2438 N   0  0  0  0  0  0  0  0  0  0  0  0
  -22.1684  -28.1456   14.9987 N   0  3  0  0  0  0  0  0  0  0  0  0
  -22.2704  -14.3226   20.9224 O   0  0  0  0  0  0  0  0  0  0  0  0
  -22.9829  -29.9347   23.1430 O   0  0  0  0  0  0  0  0  0  0  0  0
  -21.3301  -31.2176   20.0098 O   0  0  0  0  0  0  0  0  0  0  0  0
  -22.1181  -27.1814   17.6415 O   0  0  0  0  0  0  0  0  0  0  0  0
  -30.9912  -17.0930   19.4616 O   0  0  0  0  0  0  0  0  0  0  0  0
  -23.6696   -7.4061   24.2072 O   0  0  0  0  0  0  0  0  0  0  0  0
  -27.7678  -25.8147   21.1996 O   0  0  0  0  0  0  0  0  0  1  0  0
  -19.0273   -4.8554   22.6750 F   0  0  0  0  0  0  0  0  0  0  0  0
  -21.2330   -8.7074   24.3189 F   0  0  0  0  0  0  0  0  0  0  0  0
  1  2  1  0  0  0  0
  1  5  2  0  0  0  0
  2  6  2  0  0  0  0
  3  8  2  0  0  0  0
  3 16  1  0  0  0  0
  4  9  1  0  0  0  0
  4 16  2  0  0  0  0
  5 18  1  0  0  0  0
  6 20  1  0  0  0  0
  7 10  2  0  0  0  0
  7 19  1  0  0  0  0
  8 24  1  0  0  0  0
  9 24  2  0  0  0  0
 10 25  1  0  0  0  0
 11 12  2  0  0  0  0
 11 26  1  0  0  0  0
 12 27  1  0  0  0  0
 13 21  1  0  0  0  0
 13 25  2  0  0  0  0
 14 22  1  0  0  0  0
 14 31  2  0  0  0  0
 15 27  2  0  0  0  0
 15 28  1  0  0  0  0
 16 29  1  0  0  0  0
 17 29  1  0  0  0  0
 17 32  2  0  0  0  0
 17 33  1  0  0  0  0
 18 20  2  0  0  0  0
 18 38  1  0  0  0  0
 19 21  2  0  0  0  0
 19 39  1  0  0  0  0
 20 48  1  0  0  0  0
 21 40  1  0  0  0  0
 22 23  2  0  0  0  0
 22 47  1  0  0  0  0
 23 30  1  0  0  0  0
 23 52  1  0  0  0  0
 24 82  1  0  0  0  0
 25 83  1  0  0  0  0
 26 28  2  0  0  0  0
 26 82  1  0  0  0  0
 27 84  1  0  0  0  0
 28 85  1  0  0  0  0
 29 66  2  0  0  0  0
 30 53  1  0  0  0  0
 30 67  2  0  0  0  0
 31 67  1  0  0  0  0
 31 73  1  0  0  0  0
 32 68  1  0  0  0  0
 32 71  1  0  0  0  0
 33 72  1  0  0  0  0
 33 77  2  0  0  0  0
 34 49  1  0  0  0  0
 34 74  1  0  0  0  0
 34 78  2  0  0  0  0
 35 63  1  0  0  0  0
 35 69  1  0  0  0  0
 35 79  2  0  0  0  0
 36 64  1  0  0  0  0
 36 75  1  0  0  0  0
 36 80  2  0  0  0  0
 37 70  1  0  0  0  0
 37 73  1  0  0  0  0
 37 81  2  0  0  0  0
 38 41  1  0  0  0  0
 39 49  1  0  0  0  0
 40 69  1  0  0  0  0
 41 43  1  0  0  0  0
 42 44  1  0  0  0  0
 42 45  1  0  0  0  0
 43 48  1  0  0  0  0
 44 51  1  0  0  0  0
 45 70  1  0  0  0  0
 46 51  1  0  0  0  0
 46 70  1  0  0  0  0
 47 50  1  0  0  0  0
 47 54  1  0  0  0  0
 48 74  1  0  0  0  0
 49 69  1  0  0  0  0
 50 52  1  0  0  0  0
 50 62  1  0  0  0  0
 51 68  1  0  0  0  0
 52 55  1  0  0  0  0
 52 56  1  0  0  0  0
 57 64  1  0  0  0  0
 58 65  1  0  0  0  0
 59 65  1  0  0  0  0
 60 65  1  0  0  0  0
 61 76  1  0  0  0  0
 62 83  1  0  0  0  0
 63 65  1  0  0  0  0
 63 75  1  0  0  0  0
 64 76  1  0  0  0  0
 66 68  1  0  0  0  0
M  CHG  1  76   1
M  ISO  4  37 100  62 101  73 100  83 101
M  END
> <Batch ID>
0168

> <Smiles>
CNC(C)C(=O)NC(C(=O)N1Cc2cc([101O:1][101CH2:1]C3C(C)c4cc([100NH:0][100C:0](=O)N5CCCC(n6nc(-c7ccc(Oc8ccc(F)cc8F)cc7)c(C(N)=O)c6N)C5)nc(C)c4C3(C)C)ccc2CC1C(=O)NC1CCCc2ccccc21)C(C)(C)C

> <Shape>
0.335

> <Color>
0.134

> <Negative vol penalty>
0.000

$$$$

  -OEChem-04052322303D

 90 99  0     1  0  0  0  0  0999 V2000
  -32.5213  -13.9493   21.2185 C   0  0  0  0  0  0  0  0  0  0  0  0
  -31.7750  -15.1234   21.2175 C   0  0  0  0  0  0  0  0  0  0  0  0
  -26.0237  -29.7189   20.7601 C   0  0  0  0  0  0  0  0  0  0  0  0
  -25.6012  -27.7969   22.1618 C   0  0  0  0  0  0  0  0  0  0  0  0
  -31.9501  -12.7612   20.7647 C   0  0  0  0  0  0  0  0  0  0  0  0
  -30.4573  -15.1101   20.7617 C   0  0  0  0  0  0  0  0  0  0  0  0
  -25.7944  -18.4665   22.8825 C   0  0  0  0  0  0  0  0  0  0  0  0
  -24.6517  -29.9512   20.6651 C   0  0  0  0  0  0  0  0  0  0  0  0
  -24.2291  -28.0294   22.0669 C   0  0  0  0  0  0  0  0  0  0  0  0
  -25.2107  -19.6505   22.4339 C   0  0  0  0  0  0  0  0  0  0  0  0
  -20.6305  -28.3285   22.4894 C   0  0  0  0  0  0  0  0  0  0  0  0
  -19.8761  -28.2497   23.6600 C   0  0  0  0  0  0  0  0  0  0  0  0
  -23.5254  -18.3730   21.2734 C   0  0  0  0  0  0  0  0  0  0  0  0
  -21.1963  -30.0252   24.6304 C   0  0  0  0  0  0  0  0  0  0  0  0
  -26.4985  -28.6416   21.5084 C   0  0  0  0  0  0  0  0  0  0  0  0
  -28.8000  -28.9124   22.5750 C   0  0  0  0  0  0  0  0  0  0  0  0
  -30.6216  -12.7314   20.3121 C   0  0  0  0  0  0  0  0  0  0  0  0
  -25.2534  -17.2245   22.5203 C   0  0  0  0  0  0  0  0  0  0  0  0
  -29.8681  -13.9208   20.3002 C   0  0  0  0  0  0  0  0  0  0  0  0
  -24.1026  -17.1748   21.7208 C   0  0  0  0  0  0  0  0  0  0  0  0
  -26.1879  -23.5334   19.1609 C   0  0  0  0  0  0  0  0  0  0  0  0
  -27.1655  -23.3618   20.1347 C   0  0  0  0  0  0  0  0  0  0  0  0
  -26.5038  -23.3271   17.8227 C   0  0  0  0  0  0  0  0  0  0  0  0
  -23.7543  -29.1065   21.3185 C   0  0  0  0  0  0  0  0  0  0  0  0
  -24.0777  -19.6039   21.6269 C   0  0  0  0  0  0  0  0  0  0  0  0
  -21.6679  -29.2556   22.3894 C   0  0  0  0  0  0  0  0  0  0  0  0
  -20.1589  -29.0980   24.7305 C   0  0  0  0  0  0  0  0  0  0  0  0
  -21.9508  -30.1040   23.4598 C   0  0  0  0  0  0  0  0  0  0  0  0
  -27.9157  -28.4007   21.6065 C   0  0  0  0  0  0  0  0  0  0  0  0
  -28.4336  -22.9861   19.7215 C   0  0  0  0  0  0  0  0  0  0  0  0
  -27.8015  -22.9531   17.5129 C   0  0  0  0  0  0  0  0  0  0  0  0
  -30.0238  -28.3919   22.2317 C   0  0  0  0  0  0  0  0  0  0  0  0
  -28.5385  -29.7805   23.6857 C   0  0  0  0  0  0  0  0  0  0  0  0
  -26.3062  -14.7102   20.8851 C   0  0  0  0  0  0  0  0  0  0  0  0
  -23.4989  -13.4001   21.8470 C   0  0  0  0  0  0  0  0  0  0  0  0
  -20.2890  -13.8794   22.9022 C   0  0  0  0  0  0  0  0  0  0  0  0
  -31.6720  -23.5263   19.2122 C   0  0  0  0  0  0  0  0  0  0  0  0
  -30.0626  -11.4329   19.7868 C   0  0  0  0  0  0  0  0  0  0  0  0
  -25.8792  -15.9570   23.0343 C   0  0  0  0  0  0  0  0  0  0  0  0
  -23.4710  -15.8673   21.3204 C   0  0  0  0  0  0  0  0  0  0  0  0
  -28.5404  -11.4275   19.6712 C   0  0  0  0  0  0  0  0  0  0  0  0
  -32.5247  -26.8555   18.4662 C   0  0  0  0  0  0  0  0  0  0  0  0
  -28.0511  -12.7096   19.0051 C   0  0  0  0  0  0  0  0  0  0  0  0
  -31.5187  -27.6869   19.2594 C   0  0  0  0  0  0  0  0  0  0  0  0
  -29.9467  -21.2949   21.1262 C   0  0  0  0  0  0  0  0  0  0  0  0
  -31.8674  -25.6055   17.8944 C   0  0  0  0  0  0  0  0  0  0  0  0
  -30.2228  -25.5505   19.7397 C   0  0  0  0  0  0  0  0  0  0  0  0
  -28.4277  -13.9417   19.8366 C   0  0  1  0  0  0  0  0  0  0  0  0
  -29.6499  -22.7533   20.7145 C   0  0  1  0  0  0  0  0  0  0  0  0
  -25.5459  -14.7373   22.1808 C   0  0  1  0  0  0  0  0  0  0  0  0
  -30.8347  -26.8327   20.3394 C   0  0  2  0  0  0  0  0  0  0  0  0
  -31.4154  -21.5047   20.7460 C   0  0  2  0  0  0  0  0  0  0  0  0
  -26.8683  -23.5711   21.5805 C   0  0  0  0  0  0  0  0  0  0  0  0
  -25.4766  -23.5025   16.7548 C   0  0  0  0  0  0  0  0  0  0  0  0
  -28.1992  -22.7167   16.0925 C   0  0  0  0  0  0  0  0  0  0  0  0
  -18.2270  -12.6169   23.5740 C   0  0  0  0  0  0  0  0  0  0  0  0
  -32.3811  -20.4603   22.8148 C   0  0  0  0  0  0  0  0  0  0  0  0
  -33.8173  -21.9107   21.3529 C   0  0  0  0  0  0  0  0  0  0  0  0
  -22.4433  -23.2791   20.1619 C   0  0  0  0  0  0  0  0  0  0  0  0
  -22.9332  -12.7691   18.9158 C   0  0  0  0  0  0  0  0  0  0  0  0
  -20.5340  -12.4019   19.5301 C   0  0  0  0  0  0  0  0  0  0  0  0
  -22.3079  -10.9500   20.5140 C   0  0  0  0  0  0  0  0  0  0  0  0
  -20.3145  -15.0537   25.6187 C   0  0  0  0  0  0  0  0  0  0  0  0
  -24.8027  -23.9379   19.5529 C   0  0  0  0  0  0  0  0  0  0  0  0
  -24.3696  -21.8770   20.9916 C   0  0  0  0  0  0  0  0  0  1  0  0
  -22.0971  -13.3472   21.2891 C   0  0  1  0  0  0  0  0  0  0  0  0
  -19.5081  -13.2789   24.0571 C   0  0  2  0  0  0  0  0  0  0  0  0
  -32.4011  -21.6763   21.8848 C   0  0  0  0  0  0  0  0  0  0  0  0
  -23.8493  -22.7542   19.8440 C   0  0  1  0  0  0  0  0  0  0  0  0
  -21.9808  -12.3918   20.0680 C   0  0  0  0  0  0  0  0  0  0  0  0
  -28.5258  -27.6156   20.7147 N   0  0  0  0  0  0  0  0  0  0  0  0
  -28.7780  -22.7766   18.4311 N   0  0  0  0  0  0  0  0  0  0  0  0
  -29.8066  -27.6301   21.1214 N   0  0  0  0  0  0  0  0  0  0  0  0
  -24.1234  -14.6554   21.8430 N   0  0  0  0  0  0  0  0  0  0  0  0
  -31.2132  -24.8179   18.9412 N   0  0  0  0  0  0  0  0  0  0  0  0
  -31.0192  -22.7946   20.1814 N   0  0  0  0  0  0  0  0  0  0  0  0
  -31.2537  -28.5163   22.7741 N   0  0  0  0  0  0  0  0  0  0  0  0
  -27.2247  -30.2221   23.8938 N   0  0  0  0  0  0  0  0  0  0  0  0
  -27.5340  -14.0815   20.9663 N   0  0  0  0  0  0  0  0  0  0  0  0
  -21.2262  -12.9980   22.4062 N   0  0  0  0  0  0  0  0  0  0  0  0
  -19.1477  -14.3359   25.0439 N   0  3  0  0  0  0  0  0  0  0  0  0
  -29.4460  -30.1668   24.4608 O   0  0  0  0  0  0  0  0  0  0  0  0
  -25.8146  -15.2207   19.8854 O   0  0  0  0  0  0  0  0  0  0  0  0
  -24.0179  -12.3670   22.2771 O   0  0  0  0  0  0  0  0  0  0  0  0
  -20.0853  -15.0155   22.4796 O   0  0  0  0  0  0  0  0  0  0  0  0
  -32.6191  -23.0272   18.5903 O   0  0  0  0  0  0  0  0  0  0  0  0
  -22.4154  -29.3332   21.2263 O   0  0  0  0  0  0  0  0  0  0  0  0
  -23.5025  -20.7659   21.1842 O   0  0  0  0  0  0  0  0  0  1  0  0
  -19.4334  -29.0233   25.8539 F   0  0  0  0  0  0  0  0  0  0  0  0
  -22.9454  -30.9974   23.3691 F   0  0  0  0  0  0  0  0  0  0  0  0
  1  2  1  0  0  0  0
  1  5  2  0  0  0  0
  2  6  2  0  0  0  0
  3  8  2  0  0  0  0
  3 15  1  0  0  0  0
  4  9  1  0  0  0  0
  4 15  2  0  0  0  0
  5 17  1  0  0  0  0
  6 19  1  0  0  0  0
  7 10  2  0  0  0  0
  7 18  1  0  0  0  0
  8 24  1  0  0  0  0
  9 24  2  0  0  0  0
 10 25  1  0  0  0  0
 11 12  2  0  0  0  0
 11 26  1  0  0  0  0
 12 27  1  0  0  0  0
 13 20  1  0  0  0  0
 13 25  2  0  0  0  0
 14 27  2  0  0  0  0
 14 28  1  0  0  0  0
 15 29  1  0  0  0  0
 16 29  1  0  0  0  0
 16 32  2  0  0  0  0
 16 33  1  0  0  0  0
 17 19  2  0  0  0  0
 17 38  1  0  0  0  0
 18 20  2  0  0  0  0
 18 39  1  0  0  0  0
 19 48  1  0  0  0  0
 20 40  1  0  0  0  0
 21 22  2  0  0  0  0
 21 23  1  0  0  0  0
 21 64  1  0  0  0  0
 22 30  1  0  0  0  0
 22 53  1  0  0  0  0
 23 31  2  0  0  0  0
 23 54  1  0  0  0  0
 24 87  1  0  0  0  0
 25 88  1  0  0  0  0
 26 28  2  0  0  0  0
 26 87  1  0  0  0  0
 27 89  1  0  0  0  0
 28 90  1  0  0  0  0
 29 71  2  0  0  0  0
 30 49  1  0  0  0  0
 30 72  2  0  0  0  0
 31 55  1  0  0  0  0
 31 72  1  0  0  0  0
 32 73  1  0  0  0  0
 32 77  1  0  0  0  0
 33 78  1  0  0  0  0
 33 82  2  0  0  0  0
 34 50  1  0  0  0  0
 34 79  1  0  0  0  0
 34 83  2  0  0  0  0
 35 66  1  0  0  0  0
 35 74  1  0  0  0  0
 35 84  2  0  0  0  0
 36 67  1  0  0  0  0
 36 80  1  0  0  0  0
 36 85  2  0  0  0  0
 37 75  1  0  0  0  0
 37 76  1  0  0  0  0
 37 86  2  0  0  0  0
 38 41  1  0  0  0  0
 39 50  1  0  0  0  0
 40 74  1  0  0  0  0
 41 43  1  0  0  0  0
 42 44  1  0  0  0  0
 42 46  1  0  0  0  0
 43 48  1  0  0  0  0
 44 51  1  0  0  0  0
 45 49  1  0  0  0  0
 45 52  1  0  0  0  0
 46 75  1  0  0  0  0
 47 51  1  0  0  0  0
 47 75  1  0  0  0  0
 48 79  1  0  0  0  0
 49 76  1  0  0  0  0
 50 74  1  0  0  0  0
 51 73  1  0  0  0  0
 52 68  1  0  0  0  0
 52 76  1  0  0  0  0
 56 67  1  0  0  0  0
 57 68  1  0  0  0  0
 58 68  1  0  0  0  0
 59 69  1  0  0  0  0
 60 70  1  0  0  0  0
 61 70  1  0  0  0  0
 62 70  1  0  0  0  0
 63 81  1  0  0  0  0
 64 69  1  0  0  0  0
 65 69  1  0  0  0  0
 65 88  1  0  0  0  0
 66 70  1  0  0  0  0
 66 80  1  0  0  0  0
 67 81  1  0  0  0  0
 71 73  1  0  0  0  0
M  CHG  1  81   1
M  ISO  4  37 100  65 101  76 100  88 101
M  END
> <Batch ID>
0168

> <Smiles>
CNC(C)C(=O)NC(C(=O)N1Cc2cc([101O:1][101CH2:1]C(C)Cc3c(C)c(C)nc(C4CC(C(C)C)[100N:0]4[100C:0](=O)N4CCCC(n5nc(-c6ccc(Oc7ccc(F)cc7F)cc6)c(C(N)=O)c5N)C4)c3C)ccc2CC1C(=O)NC1CCCc2ccccc21)C(C)(C)C

> <Shape>
0.247

> <Color>
0.060

> <Negative vol penalty>
0.000

$$$$

  -OEChem-04052322303D

 91101  0     1  0  0  0  0  0999 V2000
  -32.2524  -14.2698   20.2747 C   0  0  0  0  0  0  0  0  0  0  0  0
  -31.4725  -15.4195   20.3488 C   0  0  0  0  0  0  0  0  0  0  0  0
  -28.8636  -26.2954   19.6815 C   0  0  0  0  0  0  0  0  0  0  0  0
  -26.8456  -25.1699   18.9761 C   0  0  0  0  0  0  0  0  0  0  0  0
  -31.6526  -13.0372   20.0202 C   0  0  0  0  0  0  0  0  0  0  0  0
  -30.0924  -15.3374   20.1673 C   0  0  0  0  0  0  0  0  0  0  0  0
  -27.4723  -18.0470   23.6723 C   0  0  0  0  0  0  0  0  0  0  0  0
  -29.5790  -25.1075   19.5305 C   0  0  0  0  0  0  0  0  0  0  0  0
  -27.5609  -23.9820   18.8250 C   0  0  0  0  0  0  0  0  0  0  0  0
  -27.3895  -19.4298   23.5143 C   0  0  0  0  0  0  0  0  0  0  0  0
  -31.8642  -22.2825   19.6755 C   0  0  0  0  0  0  0  0  0  0  0  0
  -32.7543  -21.9265   20.6886 C   0  0  0  0  0  0  0  0  0  0  0  0
  -25.2059  -19.1794   22.5208 C   0  0  0  0  0  0  0  0  0  0  0  0
  -30.9319  -21.8826   22.2742 C   0  0  0  0  0  0  0  0  0  0  0  0
  -27.4969  -26.3266   19.4043 C   0  0  0  0  0  0  0  0  0  0  0  0
  -26.5433  -28.5469   18.5867 C   0  0  0  0  0  0  0  0  0  0  0  0
  -30.2633  -12.9385   19.8451 C   0  0  0  0  0  0  0  0  0  0  0  0
  -26.4253  -17.2173   23.2456 C   0  0  0  0  0  0  0  0  0  0  0  0
  -29.4736  -14.1025   19.9089 C   0  0  0  0  0  0  0  0  0  0  0  0
  -25.2759  -17.7869   22.6789 C   0  0  0  0  0  0  0  0  0  0  0  0
  -22.8852  -24.0617   24.7208 C   0  0  0  0  0  0  0  0  0  0  0  0
  -21.6233  -24.6603   24.7466 C   0  0  0  0  0  0  0  0  0  0  0  0
  -23.5922  -23.9782   23.5354 C   0  0  0  0  0  0  0  0  0  0  0  0
  -28.9276  -23.9508   19.1022 C   0  0  0  0  0  0  0  0  0  0  0  0
  -26.2572  -19.9959   22.9364 C   0  0  0  0  0  0  0  0  0  0  0  0
  -30.5079  -22.4387   19.9617 C   0  0  0  0  0  0  0  0  0  0  0  0
  -32.2882  -21.7265   21.9880 C   0  0  0  0  0  0  0  0  0  0  0  0
  -30.0418  -22.2387   21.2610 C   0  0  0  0  0  0  0  0  0  0  0  0
  -26.7573  -27.5532   19.5607 C   0  0  0  0  0  0  0  0  0  0  0  0
  -22.9792  -24.5106   22.4099 C   0  0  0  0  0  0  0  0  0  0  0  0
  -21.0995  -25.1719   23.5818 C   0  0  0  0  0  0  0  0  0  0  0  0
  -25.7878  -29.4984   19.2272 C   0  0  0  0  0  0  0  0  0  0  0  0
  -26.9877  -28.6046   17.2248 C   0  0  0  0  0  0  0  0  0  0  0  0
  -26.0678  -14.8306   21.1429 C   0  0  0  0  0  0  0  0  0  0  0  0
  -23.0469  -14.7566   22.5295 C   0  0  0  0  0  0  0  0  0  0  0  0
  -22.4916  -11.7387   21.0382 C   0  0  0  0  0  0  0  0  0  0  0  0
  -22.0616  -29.2740   23.9087 C   0  0  0  0  0  0  0  0  0  0  0  0
  -29.6658  -11.5911   19.5251 C   0  0  0  0  0  0  0  0  0  0  0  0
  -26.5215  -15.7300   23.4530 C   0  0  0  0  0  0  0  0  0  0  0  0
  -21.0515  -24.6847   26.1234 C   0  0  0  0  0  0  0  0  0  0  0  0
  -24.1240  -16.9404   22.2086 C   0  0  0  0  0  0  0  0  0  0  0  0
  -28.1524  -11.5349   19.7166 C   0  0  0  0  0  0  0  0  0  0  0  0
  -21.9050  -23.6067   26.8110 C   0  0  0  0  0  0  0  0  0  0  0  0
  -17.7394  -28.4678   22.2151 C   0  0  0  0  0  0  0  0  0  0  0  0
  -24.9572  -31.3184   23.5733 C   0  0  0  0  0  0  0  0  0  0  0  0
  -27.4884  -12.7529   19.0821 C   0  0  0  0  0  0  0  0  0  0  0  0
  -25.7276  -30.6749   22.4190 C   0  0  0  0  0  0  0  0  0  0  0  0
  -17.9394  -27.0228   22.6778 C   0  0  0  0  0  0  0  0  0  0  0  0
  -19.0790  -29.1795   22.4268 C   0  0  0  0  0  0  0  0  0  0  0  0
  -24.2653  -30.2713   24.4432 C   0  0  0  0  0  0  0  0  0  0  0  0
  -24.1649  -28.6905   22.5551 C   0  0  0  0  0  0  0  0  0  0  0  0
  -27.9704  -14.0504   19.7422 C   0  0  1  0  0  0  0  0  0  0  0  0
  -25.5779  -14.9270   22.5600 C   0  0  1  0  0  0  0  0  0  0  0  0
  -24.8336  -29.7100   21.6172 C   0  0  2  0  0  0  0  0  0  0  0  0
  -19.4521  -26.8453   22.7385 C   0  0  1  0  0  0  0  0  0  0  0  0
  -19.9233  -28.2044   23.2432 C   0  0  1  0  0  0  0  0  0  0  0  0
  -23.2881  -23.6050   26.1032 C   0  0  0  0  0  0  0  0  0  0  0  0
  -23.6649  -24.4467   21.0831 C   0  0  0  0  0  0  0  0  0  0  0  0
  -24.2421  -24.6202   26.7464 C   0  0  0  0  0  0  0  0  0  0  0  0
  -23.9105  -22.2068   26.1238 C   0  0  0  0  0  0  0  0  0  0  0  0
  -20.8635   -9.8294   21.0017 C   0  0  0  0  0  0  0  0  0  0  0  0
  -24.1584  -13.7623   25.1906 C   0  0  0  0  0  0  0  0  0  0  0  0
  -23.2547  -11.4934   24.6397 C   0  0  0  0  0  0  0  0  0  0  0  0
  -21.6979  -13.4255   24.8963 C   0  0  0  0  0  0  0  0  0  0  0  0
  -21.8874  -12.1568   18.1713 C   0  0  0  0  0  0  0  0  0  0  0  0
  -24.9466  -23.3190   23.4384 C   0  0  0  0  0  0  0  0  0  0  0  0
  -24.8702  -21.9246   22.8259 C   0  0  0  0  0  0  0  0  0  1  0  0
  -23.1766  -13.2885   22.8502 C   0  0  1  0  0  0  0  0  0  0  0  0
  -21.2585  -11.1560   20.3717 C   0  0  2  0  0  0  0  0  0  0  0  0
  -23.0900  -13.0054   24.3766 C   0  0  0  0  0  0  0  0  0  0  0  0
  -26.1842  -27.8464   20.7310 N   0  0  0  0  0  0  0  0  0  0  0  0
  -21.7554  -25.1035   22.4013 N   0  0  0  0  0  0  0  0  0  0  0  0
  -25.6026  -29.0351   20.4965 N   0  0  0  0  0  0  0  0  0  0  0  0
  -24.2297  -15.5067   22.5096 N   0  0  0  0  0  0  0  0  0  0  0  0
  -23.4319  -29.3894   23.6224 N   0  0  0  0  0  0  0  0  0  0  0  0
  -25.2704  -30.6779   18.8229 N   0  0  0  0  0  0  0  0  0  0  0  0
  -27.7550  -27.5427   16.7268 N   0  0  0  0  0  0  0  0  0  0  0  0
  -19.8275  -25.7867   23.6212 N   0  0  0  0  0  0  0  0  0  0  0  0
  -27.3124  -14.2438   21.0166 N   0  0  0  0  0  0  0  0  0  0  0  0
  -22.1597  -12.6061   22.0573 N   0  0  0  0  0  0  0  0  0  0  0  0
  -21.3433  -28.4223   23.0785 N   0  0  0  0  0  0  0  0  0  0  0  0
  -21.5118  -10.9302   18.9205 N   0  3  0  0  0  0  0  0  0  0  0  0
  -26.7265  -29.5770   16.4766 O   0  0  0  0  0  0  0  0  0  0  0  0
  -25.3677  -15.2557   20.2314 O   0  0  0  0  0  0  0  0  0  0  0  0
  -21.9282  -15.2292   22.3098 O   0  0  0  0  0  0  0  0  0  0  0  0
  -23.6351  -11.4502   20.6920 O   0  0  0  0  0  0  0  0  0  0  0  0
  -21.5175  -29.8890   24.8322 O   0  0  0  0  0  0  0  0  0  0  0  0
  -29.6254  -22.7915   18.9545 O   0  0  0  0  0  0  0  0  0  0  0  0
  -26.1735  -21.3453   22.7814 O   0  0  0  0  0  0  0  0  0  1  0  0
  -33.1428  -21.3830   22.9605 F   0  0  0  0  0  0  0  0  0  0  0  0
  -28.7398  -22.3861   21.5418 F   0  0  0  0  0  0  0  0  0  0  0  0
  1  2  1  0  0  0  0
  1  5  2  0  0  0  0
  2  6  2  0  0  0  0
  3  8  2  0  0  0  0
  3 15  1  0  0  0  0
  4  9  1  0  0  0  0
  4 15  2  0  0  0  0
  5 17  1  0  0  0  0
  6 19  1  0  0  0  0
  7 10  2  0  0  0  0
  7 18  1  0  0  0  0
  8 24  1  0  0  0  0
  9 24  2  0  0  0  0
 10 25  1  0  0  0  0
 11 12  2  0  0  0  0
 11 26  1  0  0  0  0
 12 27  1  0  0  0  0
 13 20  1  0  0  0  0
 13 25  2  0  0  0  0
 14 27  2  0  0  0  0
 14 28  1  0  0  0  0
 15 29  1  0  0  0  0
 16 29  1  0  0  0  0
 16 32  2  0  0  0  0
 16 33  1  0  0  0  0
 17 19  2  0  0  0  0
 17 38  1  0  0  0  0
 18 20  2  0  0  0  0
 18 39  1  0  0  0  0
 19 52  1  0  0  0  0
 20 41  1  0  0  0  0
 21 22  1  0  0  0  0
 21 23  2  0  0  0  0
 21 57  1  0  0  0  0
 22 31  2  0  0  0  0
 22 40  1  0  0  0  0
 23 30  1  0  0  0  0
 23 66  1  0  0  0  0
 24 88  1  0  0  0  0
 25 89  1  0  0  0  0
 26 28  2  0  0  0  0
 26 88  1  0  0  0  0
 27 90  1  0  0  0  0
 28 91  1  0  0  0  0
 29 71  2  0  0  0  0
 30 58  1  0  0  0  0
 30 72  2  0  0  0  0
 31 72  1  0  0  0  0
 31 78  1  0  0  0  0
 32 73  1  0  0  0  0
 32 76  1  0  0  0  0
 33 77  1  0  0  0  0
 33 83  2  0  0  0  0
 34 53  1  0  0  0  0
 34 79  1  0  0  0  0
 34 84  2  0  0  0  0
 35 68  1  0  0  0  0
 35 74  1  0  0  0  0
 35 85  2  0  0  0  0
 36 69  1  0  0  0  0
 36 80  1  0  0  0  0
 36 86  2  0  0  0  0
 37 75  1  0  0  0  0
 37 81  1  0  0  0  0
 37 87  2  0  0  0  0
 38 42  1  0  0  0  0
 39 53  1  0  0  0  0
 40 43  1  0  0  0  0
 41 74  1  0  0  0  0
 42 46  1  0  0  0  0
 43 57  1  0  0  0  0
 44 48  1  0  0  0  0
 44 49  1  0  0  0  0
 45 47  1  0  0  0  0
 45 50  1  0  0  0  0
 46 52  1  0  0  0  0
 47 54  1  0  0  0  0
 48 55  1  0  0  0  0
 49 56  1  0  0  0  0
 50 75  1  0  0  0  0
 51 54  1  0  0  0  0
 51 75  1  0  0  0  0
 52 79  1  0  0  0  0
 53 74  1  0  0  0  0
 54 73  1  0  0  0  0
 55 56  1  0  0  0  0
 55 78  1  0  0  0  0
 56 81  1  0  0  0  0
 57 59  1  0  0  0  0
 57 60  1  0  0  0  0
 61 69  1  0  0  0  0
 62 70  1  0  0  0  0
 63 70  1  0  0  0  0
 64 70  1  0  0  0  0
 65 82  1  0  0  0  0
 66 67  1  0  0  0  0
 67 89  1  0  0  0  0
 68 70  1  0  0  0  0
 68 80  1  0  0  0  0
 69 82  1  0  0  0  0
 71 73  1  0  0  0  0
M  CHG  1  82   1
M  ISO  4  37 100  67 101  81 100  89 101
M  END
> <Batch ID>
0168

> <Smiles>
CNC(C)C(=O)NC(C(=O)N1Cc2cc([101O:1][101CH2:1]Cc3c(C)nc(NC4CCCC4[100NH:0][100C:0](=O)N4CCCC(n5nc(-c6ccc(Oc7ccc(F)cc7F)cc6)c(C(N)=O)c5N)C4)c4c3C(C)(C)CC4)ccc2CC1C(=O)NC1CCCc2ccccc21)C(C)(C)C

> <Shape>
0.234

> <Color>
0.099

> <Negative vol penalty>
0.000

$$$$

  -OEChem-04052322303D

 86 95  0     1  0  0  0  0  0999 V2000
  -20.4830  -25.6412   25.4802 C   0  0  0  0  0  0  0  0  0  0  0  0
  -21.5551  -25.5351   24.6000 C   0  0  0  0  0  0  0  0  0  0  0  0
  -23.3788  -12.2342   21.3642 C   0  0  0  0  0  0  0  0  0  0  0  0
  -24.0577  -12.0666   19.0516 C   0  0  0  0  0  0  0  0  0  0  0  0
  -19.4193  -26.4918   25.1820 C   0  0  0  0  0  0  0  0  0  0  0  0
  -21.5636  -26.2788   23.4205 C   0  0  0  0  0  0  0  0  0  0  0  0
  -26.0460  -28.4617   22.5326 C   0  0  0  0  0  0  0  0  0  0  0  0
  -22.2528  -11.4581   21.0900 C   0  0  0  0  0  0  0  0  0  0  0  0
  -22.9317  -11.2904   18.7774 C   0  0  0  0  0  0  0  0  0  0  0  0
  -27.0585  -27.6516   22.0205 C   0  0  0  0  0  0  0  0  0  0  0  0
  -21.9605   -8.0800   19.1906 C   0  0  0  0  0  0  0  0  0  0  0  0
  -22.1378   -6.9355   18.4133 C   0  0  0  0  0  0  0  0  0  0  0  0
  -26.6187  -28.5099   19.8094 C   0  0  0  0  0  0  0  0  0  0  0  0
  -20.6044   -7.8161   16.7669 C   0  0  0  0  0  0  0  0  0  0  0  0
  -24.2813  -12.5385   20.3451 C   0  0  0  0  0  0  0  0  0  0  0  0
  -26.7132  -12.8851   21.0329 C   0  0  0  0  0  0  0  0  0  0  0  0
  -19.4193  -27.2536   24.0029 C   0  0  0  0  0  0  0  0  0  0  0  0
  -25.3037  -29.2954   21.6838 C   0  0  0  0  0  0  0  0  0  0  0  0
  -20.4983  -27.1394   23.1056 C   0  0  0  0  0  0  0  0  0  0  0  0
  -25.5991  -29.3316   20.3136 C   0  0  0  0  0  0  0  0  0  0  0  0
  -30.7646  -23.5132   18.8684 C   0  0  0  0  0  0  0  0  0  0  0  0
  -29.7627  -24.2041   19.5409 C   0  0  0  0  0  0  0  0  0  0  0  0
  -30.0935  -25.2892   20.3449 C   0  0  0  0  0  0  0  0  0  0  0  0
  -22.0292  -10.9862   19.7966 C   0  0  0  0  0  0  0  0  0  0  0  0
  -27.3431  -27.6734   20.6583 C   0  0  0  0  0  0  0  0  0  0  0  0
  -21.1050   -9.0926   18.7561 C   0  0  0  0  0  0  0  0  0  0  0  0
  -21.4598   -6.8036   17.2014 C   0  0  0  0  0  0  0  0  0  0  0  0
  -20.4270   -8.9606   17.5443 C   0  0  0  0  0  0  0  0  0  0  0  0
  -25.4444  -13.3407   20.6276 C   0  0  0  0  0  0  0  0  0  0  0  0
  -32.0713  -23.9440   19.0318 C   0  0  0  0  0  0  0  0  0  0  0  0
  -31.4303  -25.6403   20.4424 C   0  0  0  0  0  0  0  0  0  0  0  0
  -27.4614  -14.0289   21.1688 C   0  0  0  0  0  0  0  0  0  0  0  0
  -27.1743  -11.5476   21.2657 C   0  0  0  0  0  0  0  0  0  0  0  0
  -22.2391  -29.5089   20.8677 C   0  0  0  0  0  0  0  0  0  0  0  0
  -23.2421  -32.1716   19.3100 C   0  0  0  0  0  0  0  0  0  0  0  0
  -25.8098  -33.8772   17.8456 C   0  0  0  0  0  0  0  0  0  0  0  0
  -29.1150  -18.8414   19.0404 C   0  0  0  0  0  0  0  0  0  0  0  0
  -18.2250  -28.1237   23.7008 C   0  0  0  0  0  0  0  0  0  0  0  0
  -24.2327  -30.1831   22.2559 C   0  0  0  0  0  0  0  0  0  0  0  0
  -24.8450  -30.2240   19.3631 C   0  0  0  0  0  0  0  0  0  0  0  0
  -18.4865  -29.1599   22.6108 C   0  0  0  0  0  0  0  0  0  0  0  0
  -26.1077  -18.8821   21.1928 C   0  0  0  0  0  0  0  0  0  0  0  0
  -31.4068  -21.8395   16.8169 C   0  0  0  0  0  0  0  0  0  0  0  0
  -19.1908  -28.5166   21.4205 C   0  0  0  0  0  0  0  0  0  0  0  0
  -25.7445  -17.4007   21.2139 C   0  0  0  0  0  0  0  0  0  0  0  0
  -30.9693  -20.3839   17.0648 C   0  0  0  0  0  0  0  0  0  0  0  0
  -26.7293  -19.3034   19.8618 C   0  0  0  0  0  0  0  0  0  0  0  0
  -27.5395  -16.9884   19.4885 C   0  0  0  0  0  0  0  0  0  0  0  0
  -30.4203  -22.2694   17.9417 C   0  0  1  0  0  0  0  0  0  0  0  0
  -20.5557  -27.9486   21.8281 C   0  0  1  0  0  0  0  0  0  0  0  0
  -23.1964  -30.6117   21.2216 C   0  0  1  0  0  0  0  0  0  0  0  0
  -26.9606  -16.5407   20.8391 C   0  0  2  0  0  0  0  0  0  0  0  0
  -30.5849  -20.8082   18.5100 C   0  0  2  0  0  0  0  0  0  0  0  0
  -28.3365  -23.7782   19.3999 C   0  0  0  0  0  0  0  0  0  0  0  0
  -33.1879  -23.2380   18.3353 C   0  0  0  0  0  0  0  0  0  0  0  0
  -31.8456  -26.7992   21.2890 C   0  0  0  0  0  0  0  0  0  0  0  0
  -31.6586  -20.5441   19.5563 C   0  0  0  0  0  0  0  0  0  0  0  0
  -26.3146  -36.0109   16.6250 C   0  0  0  0  0  0  0  0  0  0  0  0
  -21.9461  -31.0351   16.7924 C   0  0  0  0  0  0  0  0  0  0  0  0
  -23.2689  -32.6842   15.4511 C   0  0  0  0  0  0  0  0  0  0  0  0
  -21.6038  -33.4901   17.1246 C   0  0  0  0  0  0  0  0  0  0  0  0
  -27.7200  -34.7534   19.9295 C   0  0  0  0  0  0  0  0  0  0  0  0
  -29.0347  -26.0561   21.0812 C   0  0  0  0  0  0  0  0  0  1  0  0
  -23.7714  -32.4656   17.9271 C   0  0  1  0  0  0  0  0  0  0  0  0
  -26.2667  -35.3188   17.9783 C   0  0  2  0  0  0  0  0  0  0  0  0
  -22.6606  -32.4004   16.8412 C   0  0  0  0  0  0  0  0  0  0  0  0
  -25.3861  -14.6702   20.5136 N   0  0  0  0  0  0  0  0  0  0  0  0
  -32.4313  -24.9934   19.8042 N   0  0  0  0  0  0  0  0  0  0  0  0
  -26.6276  -15.0599   20.8494 N   0  0  0  0  0  0  0  0  0  0  0  0
  -23.8028  -31.0687   19.9696 N   0  0  0  0  0  0  0  0  0  0  0  0
  -27.8456  -18.4242   19.4791 N   0  0  0  0  0  0  0  0  0  0  0  0
  -28.7446  -14.2432   21.5292 N   0  0  0  0  0  0  0  0  0  0  0  0
  -26.2751  -10.4889   21.0792 N   0  0  0  0  0  0  0  0  0  0  0  0
  -21.5309  -29.0115   21.9450 N   0  0  0  0  0  0  0  0  0  0  0  0
  -24.4467  -33.7559   18.0144 N   0  0  0  0  0  0  0  0  0  0  0  0
  -29.3086  -20.2171   18.9613 N   0  0  0  0  0  0  0  0  0  0  0  0
  -27.6269  -35.3773   18.5845 N   0  3  0  0  0  0  0  0  0  0  0  0
  -28.3443  -11.2999   21.6442 O   0  0  0  0  0  0  0  0  0  0  0  0
  -22.1485  -29.1380   19.7033 O   0  0  0  0  0  0  0  0  0  0  0  0
  -22.3685  -32.8981   19.7903 O   0  0  0  0  0  0  0  0  0  0  0  0
  -26.5842  -32.9519   17.6118 O   0  0  0  0  0  0  0  0  0  0  0  0
  -30.0133  -18.0505   18.7327 O   0  0  0  0  0  0  0  0  0  0  0  0
  -20.9306  -10.2286   19.5286 O   0  0  0  0  0  0  0  0  0  0  0  0
  -28.3304  -26.8831   20.1558 O   0  0  0  0  0  0  0  0  0  1  0  0
  -21.6314   -5.7051   16.4543 F   0  0  0  0  0  0  0  0  0  0  0  0
  -19.6048   -9.9305   17.1211 F   0  0  0  0  0  0  0  0  0  0  0  0
  1  2  1  0  0  0  0
  1  5  2  0  0  0  0
  2  6  2  0  0  0  0
  3  8  2  0  0  0  0
  3 15  1  0  0  0  0
  4  9  1  0  0  0  0
  4 15  2  0  0  0  0
  5 17  1  0  0  0  0
  6 19  1  0  0  0  0
  7 10  2  0  0  0  0
  7 18  1  0  0  0  0
  8 24  1  0  0  0  0
  9 24  2  0  0  0  0
 10 25  1  0  0  0  0
 11 12  2  0  0  0  0
 11 26  1  0  0  0  0
 12 27  1  0  0  0  0
 13 20  1  0  0  0  0
 13 25  2  0  0  0  0
 14 27  2  0  0  0  0
 14 28  1  0  0  0  0
 15 29  1  0  0  0  0
 16 29  1  0  0  0  0
 16 32  2  0  0  0  0
 16 33  1  0  0  0  0
 17 19  2  0  0  0  0
 17 38  1  0  0  0  0
 18 20  2  0  0  0  0
 18 39  1  0  0  0  0
 19 50  1  0  0  0  0
 20 40  1  0  0  0  0
 21 22  1  0  0  0  0
 21 30  2  0  0  0  0
 21 49  1  0  0  0  0
 22 23  2  0  0  0  0
 22 54  1  0  0  0  0
 23 31  1  0  0  0  0
 23 63  1  0  0  0  0
 24 83  1  0  0  0  0
 25 84  1  0  0  0  0
 26 28  2  0  0  0  0
 26 83  1  0  0  0  0
 27 85  1  0  0  0  0
 28 86  1  0  0  0  0
 29 67  2  0  0  0  0
 30 55  1  0  0  0  0
 30 68  1  0  0  0  0
 31 56  1  0  0  0  0
 31 68  2  0  0  0  0
 32 69  1  0  0  0  0
 32 72  1  0  0  0  0
 33 73  1  0  0  0  0
 33 78  2  0  0  0  0
 34 51  1  0  0  0  0
 34 74  1  0  0  0  0
 34 79  2  0  0  0  0
 35 64  1  0  0  0  0
 35 70  1  0  0  0  0
 35 80  2  0  0  0  0
 36 65  1  0  0  0  0
 36 75  1  0  0  0  0
 36 81  2  0  0  0  0
 37 71  1  0  0  0  0
 37 76  1  0  0  0  0
 37 82  2  0  0  0  0
 38 41  1  0  0  0  0
 39 51  1  0  0  0  0
 40 70  1  0  0  0  0
 41 44  1  0  0  0  0
 42 45  1  0  0  0  0
 42 47  1  0  0  0  0
 43 46  1  0  0  0  0
 43 49  1  0  0  0  0
 44 50  1  0  0  0  0
 45 52  1  0  0  0  0
 46 53  1  0  0  0  0
 47 71  1  0  0  0  0
 48 52  1  0  0  0  0
 48 71  1  0  0  0  0
 49 53  1  0  0  0  0
 50 74  1  0  0  0  0
 51 70  1  0  0  0  0
 52 69  1  0  0  0  0
 53 57  1  0  0  0  0
 53 76  1  0  0  0  0
 58 65  1  0  0  0  0
 59 66  1  0  0  0  0
 60 66  1  0  0  0  0
 61 66  1  0  0  0  0
 62 77  1  0  0  0  0
 63 84  1  0  0  0  0
 64 66  1  0  0  0  0
 64 75  1  0  0  0  0
 65 77  1  0  0  0  0
 67 69  1  0  0  0  0
M  CHG  1  77   1
M  ISO  4  37 100  63 101  76 100  84 101
M  END
> <Batch ID>
0168

> <Smiles>
CNC(C)C(=O)NC(C(=O)N1Cc2cc([101O:1][101CH2:1]c3c(C)nc(C)c(C4CCC4(C)[100NH:0][100C:0](=O)N4CCCC(n5nc(-c6ccc(Oc7ccc(F)cc7F)cc6)c(C(N)=O)c5N)C4)c3C)ccc2CC1C(=O)NC1CCCc2ccccc21)C(C)(C)C

> <Shape>
0.240

> <Color>
0.093

> <Negative vol penalty>
0.000

$$$$

  -OEChem-04052322303D

 88 97  0     1  0  0  0  0  0999 V2000
  -17.3899   -9.9356   19.6276 C   0  0  0  0  0  0  0  0  0  0  0  0
  -18.4047  -10.4029   18.7986 C   0  0  0  0  0  0  0  0  0  0  0  0
  -22.6576  -28.2121   22.0345 C   0  0  0  0  0  0  0  0  0  0  0  0
  -23.3782  -30.4978   21.7294 C   0  0  0  0  0  0  0  0  0  0  0  0
  -17.2283  -10.4763   20.9025 C   0  0  0  0  0  0  0  0  0  0  0  0
  -19.2579  -11.4120   19.2437 C   0  0  0  0  0  0  0  0  0  0  0  0
  -26.0348  -13.6574   18.6526 C   0  0  0  0  0  0  0  0  0  0  0  0
  -21.6270  -28.6481   22.8671 C   0  0  0  0  0  0  0  0  0  0  0  0
  -22.3476  -30.9339   22.5620 C   0  0  0  0  0  0  0  0  0  0  0  0
  -26.7668  -14.8034   18.3450 C   0  0  0  0  0  0  0  0  0  0  0  0
  -18.5654  -30.0408   22.5212 C   0  0  0  0  0  0  0  0  0  0  0  0
  -17.2978  -29.4928   22.3251 C   0  0  0  0  0  0  0  0  0  0  0  0
  -26.4428  -15.6072   20.5962 C   0  0  0  0  0  0  0  0  0  0  0  0
  -17.3156  -28.6425   24.5865 C   0  0  0  0  0  0  0  0  0  0  0  0
  -30.7624  -17.4208   19.0371 C   0  0  0  0  0  0  0  0  0  0  0  0
  -23.5333  -29.1369   21.4656 C   0  0  0  0  0  0  0  0  0  0  0  0
  -24.5490  -28.5165   19.2093 C   0  0  0  0  0  0  0  0  0  0  0  0
  -18.0861  -11.4858   21.3671 C   0  0  0  0  0  0  0  0  0  0  0  0
  -25.4911  -13.4825   19.9334 C   0  0  0  0  0  0  0  0  0  0  0  0
  -19.1068  -11.9677   20.5256 C   0  0  0  0  0  0  0  0  0  0  0  0
  -25.7065  -14.4569   20.9183 C   0  0  0  0  0  0  0  0  0  0  0  0
  -31.6787  -17.9055   19.9441 C   0  0  0  0  0  0  0  0  0  0  0  0
  -31.5055  -19.3100   20.0111 C   0  0  0  0  0  0  0  0  0  0  0  0
  -21.4720  -30.0090   23.1309 C   0  0  0  0  0  0  0  0  0  0  0  0
  -26.9684  -15.7799   19.3160 C   0  0  0  0  0  0  0  0  0  0  0  0
  -19.2082  -29.8896   23.7499 C   0  0  0  0  0  0  0  0  0  0  0  0
  -16.6729  -28.7936   23.3578 C   0  0  0  0  0  0  0  0  0  0  0  0
  -18.5833  -29.1904   24.7825 C   0  0  0  0  0  0  0  0  0  0  0  0
  -24.5984  -28.6871   20.6058 C   0  0  0  0  0  0  0  0  0  0  0  0
  -30.4883  -19.6408   19.1431 C   0  0  0  0  0  0  0  0  0  0  0  0
  -25.8057  -28.0762   18.8726 C   0  0  0  0  0  0  0  0  0  0  0  0
  -23.4642  -28.7364   18.2980 C   0  0  0  0  0  0  0  0  0  0  0  0
  -22.5496  -13.1804   21.0996 C   0  0  0  0  0  0  0  0  0  0  0  0
  -24.1281  -12.6175   23.8769 C   0  0  0  0  0  0  0  0  0  0  0  0
  -26.9663  -13.0189   25.7290 C   0  0  0  0  0  0  0  0  0  0  0  0
  -30.2543  -24.9832   19.6870 C   0  0  0  0  0  0  0  0  0  0  0  0
  -17.8427  -12.0725   22.7351 C   0  0  0  0  0  0  0  0  0  0  0  0
  -24.7267  -12.2282   20.2571 C   0  0  0  0  0  0  0  0  0  0  0  0
  -25.1612  -14.3075   22.3143 C   0  0  0  0  0  0  0  0  0  0  0  0
  -19.0237  -12.8773   23.2716 C   0  0  0  0  0  0  0  0  0  0  0  0
  -30.0675  -27.8721   21.5759 C   0  0  0  0  0  0  0  0  0  0  0  0
  -19.5564  -13.8228   22.1996 C   0  0  0  0  0  0  0  0  0  0  0  0
  -28.6249  -28.3393   21.3836 C   0  0  0  0  0  0  0  0  0  0  0  0
  -29.2257  -21.6463   20.0405 C   0  0  0  0  0  0  0  0  0  0  0  0
  -30.9140  -21.9451   18.1777 C   0  0  0  0  0  0  0  0  0  0  0  0
  -30.1332  -26.3584   21.7425 C   0  0  0  0  0  0  0  0  0  0  0  0
  -28.6470  -23.0244   19.7072 C   0  0  0  0  0  0  0  0  0  0  0  0
  -30.2811  -23.2996   17.8723 C   0  0  0  0  0  0  0  0  0  0  0  0
  -28.0725  -26.0558   20.4083 C   0  0  0  0  0  0  0  0  0  0  0  0
  -20.0680  -13.0438   20.9818 C   0  0  1  0  0  0  0  0  0  0  0  0
  -29.8845  -20.9927   18.8124 C   0  0  0  0  0  0  0  0  0  0  0  0
  -23.7824  -12.3934   21.4439 C   0  0  1  0  0  0  0  0  0  0  0  0
  -27.9479  -27.5823   20.2273 C   0  0  1  0  0  0  0  0  0  0  0  0
  -32.2728  -20.2490   20.8552 C   0  0  0  0  0  0  0  0  0  0  0  0
  -33.6715  -16.3696   19.7904 C   0  0  0  0  0  0  0  0  0  0  0  0
  -31.9916  -16.0730   21.6465 C   0  0  0  0  0  0  0  0  0  0  0  0
  -27.9449  -12.4799   27.9761 C   0  0  0  0  0  0  0  0  0  0  0  0
  -29.5218  -18.5739   16.1592 C   0  0  0  0  0  0  0  0  0  0  0  0
  -22.4362  -14.8205   25.1395 C   0  0  0  0  0  0  0  0  0  0  0  0
  -24.0678  -14.8899   27.0372 C   0  0  0  0  0  0  0  0  0  0  0  0
  -22.7729  -12.8066   26.5836 C   0  0  0  0  0  0  0  0  0  0  0  0
  -29.1561  -11.4338   24.5243 C   0  0  0  0  0  0  0  0  0  0  0  0
  -28.2193  -17.0563   17.6960 C   0  0  0  0  0  0  0  0  0  1  0  0
  -32.6573  -17.0995   20.7011 C   0  0  0  0  0  0  0  0  0  0  0  0
  -24.6360  -13.4751   25.0107 C   0  0  1  0  0  0  0  0  0  0  0  0
  -27.7939  -12.0308   26.5310 C   0  0  2  0  0  0  0  0  0  0  0  0
  -28.9825  -18.3828   17.5796 C   0  0  1  0  0  0  0  0  0  0  0  0
  -23.4870  -14.0020   25.9160 C   0  0  0  0  0  0  0  0  0  0  0  0
  -25.7919  -28.3801   21.1209 N   0  0  0  0  0  0  0  0  0  0  0  0
  -30.0440  -18.4845   18.5568 N   0  0  0  0  0  0  0  0  0  0  0  0
  -26.5041  -28.0120   20.0423 N   0  0  0  0  0  0  0  0  0  0  0  0
  -24.4151  -13.0665   22.5801 N   0  0  0  0  0  0  0  0  0  0  0  0
  -29.4770  -25.6763   20.6272 N   0  0  0  0  0  0  0  0  0  0  0  0
  -29.6619  -23.8727   19.0671 N   0  0  0  0  0  0  0  0  0  0  0  0
  -26.3704  -27.7415   17.6929 N   0  0  0  0  0  0  0  0  0  0  0  0
  -22.2415  -29.1896   18.8116 N   0  0  0  0  0  0  0  0  0  0  0  0
  -21.3709  -12.4764   21.2557 N   0  0  0  0  0  0  0  0  0  0  0  0
  -25.6315  -12.6737   25.7145 N   0  0  0  0  0  0  0  0  0  0  0  0
  -29.1539  -11.8922   25.9374 N   0  3  0  0  0  0  0  0  0  0  0  0
  -23.5710  -28.5211   17.0668 O   0  0  0  0  0  0  0  0  0  0  0  0
  -22.6596  -14.3409   20.7217 O   0  0  0  0  0  0  0  0  0  0  0  0
  -23.5060  -11.5834   24.1326 O   0  0  0  0  0  0  0  0  0  0  0  0
  -27.4546  -14.0009   25.1742 O   0  0  0  0  0  0  0  0  0  0  0  0
  -31.4091  -25.3356   19.4163 O   0  0  0  0  0  0  0  0  0  0  0  0
  -20.4663  -30.4349   23.9432 O   0  0  0  0  0  0  0  0  0  0  0  0
  -27.6956  -16.9212   19.0125 O   0  0  0  0  0  0  0  0  0  1  0  0
  -15.4549  -28.2688   23.1699 F   0  0  0  0  0  0  0  0  0  0  0  0
  -19.1954  -29.0429   25.9655 F   0  0  0  0  0  0  0  0  0  0  0  0
  1  2  1  0  0  0  0
  1  5  2  0  0  0  0
  2  6  2  0  0  0  0
  3  8  2  0  0  0  0
  3 16  1  0  0  0  0
  4  9  1  0  0  0  0
  4 16  2  0  0  0  0
  5 18  1  0  0  0  0
  6 20  1  0  0  0  0
  7 10  2  0  0  0  0
  7 19  1  0  0  0  0
  8 24  1  0  0  0  0
  9 24  2  0  0  0  0
 10 25  1  0  0  0  0
 11 12  2  0  0  0  0
 11 26  1  0  0  0  0
 12 27  1  0  0  0  0
 13 21  1  0  0  0  0
 13 25  2  0  0  0  0
 14 27  2  0  0  0  0
 14 28  1  0  0  0  0
 15 22  2  0  0  0  0
 15 70  1  0  0  0  0
 16 29  1  0  0  0  0
 17 29  1  0  0  0  0
 17 31  2  0  0  0  0
 17 32  1  0  0  0  0
 18 20  2  0  0  0  0
 18 37  1  0  0  0  0
 19 21  2  0  0  0  0
 19 38  1  0  0  0  0
 20 50  1  0  0  0  0
 21 39  1  0  0  0  0
 22 23  1  0  0  0  0
 22 64  1  0  0  0  0
 23 30  2  0  0  0  0
 23 54  1  0  0  0  0
 24 85  1  0  0  0  0
 25 86  1  0  0  0  0
 26 28  2  0  0  0  0
 26 85  1  0  0  0  0
 27 87  1  0  0  0  0
 28 88  1  0  0  0  0
 29 69  2  0  0  0  0
 30 51  1  0  0  0  0
 30 70  1  0  0  0  0
 31 71  1  0  0  0  0
 31 75  1  0  0  0  0
 32 76  1  0  0  0  0
 32 80  2  0  0  0  0
 33 52  1  0  0  0  0
 33 77  1  0  0  0  0
 33 81  2  0  0  0  0
 34 65  1  0  0  0  0
 34 72  1  0  0  0  0
 34 82  2  0  0  0  0
 35 66  1  0  0  0  0
 35 78  1  0  0  0  0
 35 83  2  0  0  0  0
 36 73  1  0  0  0  0
 36 74  1  0  0  0  0
 36 84  2  0  0  0  0
 37 40  1  0  0  0  0
 38 52  1  0  0  0  0
 39 72  1  0  0  0  0
 40 42  1  0  0  0  0
 41 43  1  0  0  0  0
 41 46  1  0  0  0  0
 42 50  1  0  0  0  0
 43 53  1  0  0  0  0
 44 47  1  0  0  0  0
 44 51  1  0  0  0  0
 45 48  1  0  0  0  0
 45 51  1  0  0  0  0
 46 73  1  0  0  0  0
 47 74  1  0  0  0  0
 48 74  1  0  0  0  0
 49 53  1  0  0  0  0
 49 73  1  0  0  0  0
 50 77  1  0  0  0  0
 52 72  1  0  0  0  0
 53 71  1  0  0  0  0
 55 64  1  0  0  0  0
 56 64  1  0  0  0  0
 57 66  1  0  0  0  0
 58 67  1  0  0  0  0
 59 68  1  0  0  0  0
 60 68  1  0  0  0  0
 61 68  1  0  0  0  0
 62 79  1  0  0  0  0
 63 67  1  0  0  0  0
 63 86  1  0  0  0  0
 65 68  1  0  0  0  0
 65 78  1  0  0  0  0
 66 79  1  0  0  0  0
 67 70  1  0  0  0  0
 69 71  1  0  0  0  0
M  CHG  1  79   1
M  ISO  4  36 100  63 101  74 100  86 101
M  END
> <Batch ID>
0168

> <Smiles>
CNC(C)C(=O)NC(C(=O)N1Cc2cc([101O:1][101CH2:1]C(C)n3cc(C(C)C)c(C)c3C3CC[100N:0]([100C:0](=O)N4CCCC(n5nc(-c6ccc(Oc7ccc(F)cc7F)cc6)c(C(N)=O)c5N)C4)CC3)ccc2CC1C(=O)NC1CCCc2ccccc21)C(C)(C)C

> <Shape>
0.236

> <Color>
0.077

> <Negative vol penalty>
0.000

$$$$

  -OEChem-04052322303D

 87 96  0     1  0  0  0  0  0999 V2000
  -30.0259  -20.7615   27.0684 C   0  0  0  0  0  0  0  0  0  0  0  0
  -30.1641  -21.0795   25.7211 C   0  0  0  0  0  0  0  0  0  0  0  0
  -23.2238   -9.7984   19.9239 C   0  0  0  0  0  0  0  0  0  0  0  0
  -23.5461  -10.0127   22.3087 C   0  0  0  0  0  0  0  0  0  0  0  0
  -28.7670  -20.7976   27.6665 C   0  0  0  0  0  0  0  0  0  0  0  0
  -29.0431  -21.4327   24.9708 C   0  0  0  0  0  0  0  0  0  0  0  0
  -28.8051  -25.5024   20.4006 C   0  0  0  0  0  0  0  0  0  0  0  0
  -22.4645   -8.6467   20.1299 C   0  0  0  0  0  0  0  0  0  0  0  0
  -22.7867   -8.8610   22.5147 C   0  0  0  0  0  0  0  0  0  0  0  0
  -28.8333  -25.3586   19.0141 C   0  0  0  0  0  0  0  0  0  0  0  0
  -23.2270   -5.5155   22.3028 C   0  0  0  0  0  0  0  0  0  0  0  0
  -23.7148   -4.5705   23.2053 C   0  0  0  0  0  0  0  0  0  0  0  0
  -26.4227  -25.4333   18.9635 C   0  0  0  0  0  0  0  0  0  0  0  0
  -29.6631  -21.1311   15.1073 C   0  0  0  0  0  0  0  0  0  0  0  0
  -21.7245   -4.8280   24.5506 C   0  0  0  0  0  0  0  0  0  0  0  0
  -23.7647  -10.4814   21.0132 C   0  0  0  0  0  0  0  0  0  0  0  0
  -24.0838  -12.9981   20.7449 C   0  0  0  0  0  0  0  0  0  0  0  0
  -27.6314  -21.1609   26.9254 C   0  0  0  0  0  0  0  0  0  0  0  0
  -27.5831  -25.6020   21.0812 C   0  0  0  0  0  0  0  0  0  0  0  0
  -27.7676  -21.4724   25.5591 C   0  0  0  0  0  0  0  0  0  0  0  0
  -26.3818  -25.5809   20.3583 C   0  0  0  0  0  0  0  0  0  0  0  0
  -29.0393  -22.3531   14.8816 C   0  0  0  0  0  0  0  0  0  0  0  0
  -27.7145  -22.5321   15.2636 C   0  0  0  0  0  0  0  0  0  0  0  0
  -22.2458   -8.1780   21.4253 C   0  0  0  0  0  0  0  0  0  0  0  0
  -27.6419  -25.3211   18.2956 C   0  0  0  0  0  0  0  0  0  0  0  0
  -21.9879   -6.1168   22.5242 C   0  0  0  0  0  0  0  0  0  0  0  0
  -22.9635   -4.2267   24.3292 C   0  0  0  0  0  0  0  0  0  0  0  0
  -21.2367   -5.7730   23.6481 C   0  0  0  0  0  0  0  0  0  0  0  0
  -24.5497  -11.6709   20.8010 C   0  0  0  0  0  0  0  0  0  0  0  0
  -27.0627  -21.4664   15.8630 C   0  0  0  0  0  0  0  0  0  0  0  0
  -28.9241  -20.1282   15.7138 C   0  0  0  0  0  0  0  0  0  0  0  0
  -25.2126  -13.7493   20.5257 C   0  0  0  0  0  0  0  0  0  0  0  0
  -22.7499  -13.5065   20.8790 C   0  0  0  0  0  0  0  0  0  0  0  0
  -26.0992  -23.8665   23.2924 C   0  0  0  0  0  0  0  0  0  0  0  0
  -23.9825  -26.3240   23.2427 C   0  0  0  0  0  0  0  0  0  0  0  0
  -22.6176  -28.9378   21.5245 C   0  0  0  0  0  0  0  0  0  0  0  0
  -29.9735  -14.3789   17.5568 C   0  0  0  0  0  0  0  0  0  0  0  0
  -26.2845  -21.1398   27.6039 C   0  0  0  0  0  0  0  0  0  0  0  0
  -27.5706  -25.7836   22.5743 C   0  0  0  0  0  0  0  0  0  0  0  0
  -25.0442  -25.7043   21.0395 C   0  0  0  0  0  0  0  0  0  0  0  0
  -25.2013  -21.8875   26.8307 C   0  0  0  0  0  0  0  0  0  0  0  0
  -30.1070  -12.4926   20.7027 C   0  0  0  0  0  0  0  0  0  0  0  0
  -25.2371  -21.5032   25.3549 C   0  0  0  0  0  0  0  0  0  0  0  0
  -28.6345  -12.1811   20.9736 C   0  0  0  0  0  0  0  0  0  0  0  0
  -28.9498  -17.8721   18.0734 C   0  0  0  0  0  0  0  0  0  0  0  0
  -30.4038  -12.5965   19.2085 C   0  0  0  0  0  0  0  0  0  0  0  0
  -28.7353  -16.4205   18.4894 C   0  0  0  0  0  0  0  0  0  0  0  0
  -28.0642  -13.2178   18.7467 C   0  0  0  0  0  0  0  0  0  0  0  0
  -29.6890  -16.4879   16.2869 C   0  0  0  0  0  0  0  0  0  0  0  0
  -26.5789  -21.8844   24.7180 C   0  0  1  0  0  0  0  0  0  0  0  0
  -26.2536  -25.3592   23.2168 C   0  0  1  0  0  0  0  0  0  0  0  0
  -27.7129  -13.1734   20.2402 C   0  0  1  0  0  0  0  0  0  0  0  0
  -28.9276  -17.7780   16.5517 C   0  0  2  0  0  0  0  0  0  0  0  0
  -29.8094  -23.4535   14.2296 C   0  0  0  0  0  0  0  0  0  0  0  0
  -25.6387  -21.5999   16.2941 C   0  0  0  0  0  0  0  0  0  0  0  0
  -25.8174  -23.6818   14.0758 C   0  0  0  0  0  0  0  0  0  0  0  0
  -20.8818  -30.7384   21.7299 C   0  0  0  0  0  0  0  0  0  0  0  0
  -21.7875  -24.2592   22.7647 C   0  0  0  0  0  0  0  0  0  0  0  0
  -20.2844  -26.1268   22.0427 C   0  0  0  0  0  0  0  0  0  0  0  0
  -21.1783  -26.0766   24.3711 C   0  0  0  0  0  0  0  0  0  0  0  0
  -24.6381  -31.0802   21.2301 C   0  0  0  0  0  0  0  0  0  0  0  0
  -26.5586  -24.5128   16.3388 C   0  0  0  0  0  0  0  0  0  1  0  0
  -27.0191  -23.8312   15.0301 C   0  0  1  0  0  0  0  0  0  0  0  0
  -22.7323  -26.6425   22.4588 C   0  0  1  0  0  0  0  0  0  0  0  0
  -22.3454  -30.3758   21.9276 C   0  0  2  0  0  0  0  0  0  0  0  0
  -21.5206  -25.7720   22.8964 C   0  0  0  0  0  0  0  0  0  0  0  0
  -25.8714  -11.5808   20.6310 N   0  0  0  0  0  0  0  0  0  0  0  0
  -27.6354  -20.2648   16.0987 N   0  0  0  0  0  0  0  0  0  0  0  0
  -26.2457  -12.8609   20.4658 N   0  0  0  0  0  0  0  0  0  0  0  0
  -25.0841  -25.8737   22.5014 N   0  0  0  0  0  0  0  0  0  0  0  0
  -29.4849  -13.5284   18.5546 N   0  0  0  0  0  0  0  0  0  0  0  0
  -29.3859  -15.6375   17.4356 N   0  0  0  0  0  0  0  0  0  0  0  0
  -25.4122  -15.0765   20.3802 N   0  0  0  0  0  0  0  0  0  0  0  0
  -21.7072  -12.5966   21.1009 N   0  0  0  0  0  0  0  0  0  0  0  0
  -29.5592  -18.9131   15.9324 N   0  0  0  0  0  0  0  0  0  0  0  0
  -26.6219  -23.3043   24.4415 N   0  0  0  0  0  0  0  0  0  0  0  0
  -22.5176  -28.0787   22.5984 N   0  0  0  0  0  0  0  0  0  0  0  0
  -23.1747  -31.3080   21.1126 N   0  3  0  0  0  0  0  0  0  0  0  0
  -22.4881  -14.7299   20.7879 O   0  0  0  0  0  0  0  0  0  0  0  0
  -25.5455  -23.2692   22.3769 O   0  0  0  0  0  0  0  0  0  0  0  0
  -23.9840  -26.4763   24.4668 O   0  0  0  0  0  0  0  0  0  0  0  0
  -22.8878  -28.6089   20.3716 O   0  0  0  0  0  0  0  0  0  0  0  0
  -30.9244  -14.0473   16.8366 O   0  0  0  0  0  0  0  0  0  0  0  0
  -21.5047   -7.0543   21.6268 O   0  0  0  0  0  0  0  0  0  0  0  0
  -27.6667  -25.1793   16.9334 O   0  0  0  0  0  0  0  0  0  1  0  0
  -23.4314   -3.3180   25.1950 F   0  0  0  0  0  0  0  0  0  0  0  0
  -20.0452   -6.3465   23.8655 F   0  0  0  0  0  0  0  0  0  0  0  0
  1  2  1  0  0  0  0
  1  5  2  0  0  0  0
  2  6  2  0  0  0  0
  3  8  2  0  0  0  0
  3 16  1  0  0  0  0
  4  9  1  0  0  0  0
  4 16  2  0  0  0  0
  5 18  1  0  0  0  0
  6 20  1  0  0  0  0
  7 10  2  0  0  0  0
  7 19  1  0  0  0  0
  8 24  1  0  0  0  0
  9 24  2  0  0  0  0
 10 25  1  0  0  0  0
 11 12  2  0  0  0  0
 11 26  1  0  0  0  0
 12 27  1  0  0  0  0
 13 21  1  0  0  0  0
 13 25  2  0  0  0  0
 14 22  2  0  0  0  0
 14 31  1  0  0  0  0
 15 27  2  0  0  0  0
 15 28  1  0  0  0  0
 16 29  1  0  0  0  0
 17 29  1  0  0  0  0
 17 32  2  0  0  0  0
 17 33  1  0  0  0  0
 18 20  2  0  0  0  0
 18 38  1  0  0  0  0
 19 21  2  0  0  0  0
 19 39  1  0  0  0  0
 20 50  1  0  0  0  0
 21 40  1  0  0  0  0
 22 23  1  0  0  0  0
 22 54  1  0  0  0  0
 23 30  2  0  0  0  0
 23 63  1  0  0  0  0
 24 84  1  0  0  0  0
 25 85  1  0  0  0  0
 26 28  2  0  0  0  0
 26 84  1  0  0  0  0
 27 86  1  0  0  0  0
 28 87  1  0  0  0  0
 29 67  2  0  0  0  0
 30 55  1  0  0  0  0
 30 68  1  0  0  0  0
 31 68  2  0  0  0  0
 31 75  1  0  0  0  0
 32 69  1  0  0  0  0
 32 73  1  0  0  0  0
 33 74  1  0  0  0  0
 33 79  2  0  0  0  0
 34 51  1  0  0  0  0
 34 76  1  0  0  0  0
 34 80  2  0  0  0  0
 35 64  1  0  0  0  0
 35 70  1  0  0  0  0
 35 81  2  0  0  0  0
 36 65  1  0  0  0  0
 36 77  1  0  0  0  0
 36 82  2  0  0  0  0
 37 71  1  0  0  0  0
 37 72  1  0  0  0  0
 37 83  2  0  0  0  0
 38 41  1  0  0  0  0
 39 51  1  0  0  0  0
 40 70  1  0  0  0  0
 41 43  1  0  0  0  0
 42 44  1  0  0  0  0
 42 46  1  0  0  0  0
 43 50  1  0  0  0  0
 44 52  1  0  0  0  0
 45 47  1  0  0  0  0
 45 53  1  0  0  0  0
 46 71  1  0  0  0  0
 47 72  1  0  0  0  0
 48 52  1  0  0  0  0
 48 71  1  0  0  0  0
 49 53  1  0  0  0  0
 49 72  1  0  0  0  0
 50 76  1  0  0  0  0
 51 70  1  0  0  0  0
 52 69  1  0  0  0  0
 53 75  1  0  0  0  0
 56 63  1  0  0  0  0
 57 65  1  0  0  0  0
 58 66  1  0  0  0  0
 59 66  1  0  0  0  0
 60 66  1  0  0  0  0
 61 78  1  0  0  0  0
 62 63  1  0  0  0  0
 62 85  1  0  0  0  0
 64 66  1  0  0  0  0
 64 77  1  0  0  0  0
 65 78  1  0  0  0  0
 67 69  1  0  0  0  0
M  CHG  1  78   1
M  ISO  4  37 100  62 101  72 100  85 101
M  END
> <Batch ID>
0168

> <Smiles>
CNC(C)C(=O)NC(C(=O)N1Cc2cc([101O:1][101CH2:1]C(C)c3c(C)cc(NC4CC[100N:0]([100C:0](=O)N5CCCC(n6nc(-c7ccc(Oc8ccc(F)cc8F)cc7)c(C(N)=O)c6N)C5)C4)nc3C)ccc2CC1C(=O)NC1CCCc2ccccc21)C(C)(C)C

> <Shape>
0.220

> <Color>
0.179

> <Negative vol penalty>
0.000

$$$$

  -OEChem-04052322303D

 91101  0     1  0  0  0  0  0999 V2000
  -21.5205  -18.0688   19.8467 C   0  0  0  0  0  0  0  0  0  0  0  0
  -22.6650  -18.3538   20.5844 C   0  0  0  0  0  0  0  0  0  0  0  0
  -23.1698  -10.3895   22.2075 C   0  0  0  0  0  0  0  0  0  0  0  0
  -23.6457   -9.4830   20.0192 C   0  0  0  0  0  0  0  0  0  0  0  0
  -20.4684  -18.9831   19.8133 C   0  0  0  0  0  0  0  0  0  0  0  0
  -22.7586  -19.5539   21.2882 C   0  0  0  0  0  0  0  0  0  0  0  0
  -24.5771  -18.9110   26.0602 C   0  0  0  0  0  0  0  0  0  0  0  0
  -22.4016   -9.2644   22.5066 C   0  0  0  0  0  0  0  0  0  0  0  0
  -22.8776   -8.3577   20.3183 C   0  0  0  0  0  0  0  0  0  0  0  0
  -25.9494  -18.7303   26.2274 C   0  0  0  0  0  0  0  0  0  0  0  0
  -19.3003   -8.1110   21.8168 C   0  0  0  0  0  0  0  0  0  0  0  0
  -18.0626   -8.3155   22.4266 C   0  0  0  0  0  0  0  0  0  0  0  0
  -26.1834  -21.0665   26.7801 C   0  0  0  0  0  0  0  0  0  0  0  0
  -18.7799   -7.0017   24.3231 C   0  0  0  0  0  0  0  0  0  0  0  0
  -23.7918  -10.4989   20.9637 C   0  0  0  0  0  0  0  0  0  0  0  0
  -24.1539  -13.0011   20.6239 C   0  0  0  0  0  0  0  0  0  0  0  0
  -20.5452  -20.1907   20.5249 C   0  0  0  0  0  0  0  0  0  0  0  0
  -23.9977  -20.1751   26.2417 C   0  0  0  0  0  0  0  0  0  0  0  0
  -21.7071  -20.4858   21.2632 C   0  0  0  0  0  0  0  0  0  0  0  0
  -24.8030  -21.2594   26.6192 C   0  0  0  0  0  0  0  0  0  0  0  0
  -30.6014  -17.7804   27.9589 C   0  0  0  0  0  0  0  0  0  0  0  0
  -31.9795  -17.7893   28.2198 C   0  0  0  0  0  0  0  0  0  0  0  0
  -30.0865  -18.3282   26.7952 C   0  0  0  0  0  0  0  0  0  0  0  0
  -32.8656  -18.3441   27.3074 C   0  0  0  0  0  0  0  0  0  0  0  0
  -32.3557  -18.8873   26.1258 C   0  0  0  0  0  0  0  0  0  0  0  0
  -30.9759  -18.8799   25.8718 C   0  0  0  0  0  0  0  0  0  0  0  0
  -22.2556   -8.2484   21.5620 C   0  0  0  0  0  0  0  0  0  0  0  0
  -26.7531  -19.8087   26.5852 C   0  0  0  0  0  0  0  0  0  0  0  0
  -20.2778   -7.3517   22.4601 C   0  0  0  0  0  0  0  0  0  0  0  0
  -17.8024   -7.7609   23.6798 C   0  0  0  0  0  0  0  0  0  0  0  0
  -20.0176   -6.7971   23.7132 C   0  0  0  0  0  0  0  0  0  0  0  0
  -24.5849  -11.6613   20.6539 C   0  0  0  0  0  0  0  0  0  0  0  0
  -25.2757  -13.7149   20.2795 C   0  0  0  0  0  0  0  0  0  0  0  0
  -22.8558  -13.5512   20.8842 C   0  0  0  0  0  0  0  0  0  0  0  0
  -22.3484  -22.2492   24.4463 C   0  0  0  0  0  0  0  0  0  0  0  0
  -22.1468  -23.8198   27.3697 C   0  0  0  0  0  0  0  0  0  0  0  0
  -19.7383  -25.8483   26.0568 C   0  0  0  0  0  0  0  0  0  0  0  0
  -30.7301  -14.7669   20.8163 C   0  0  0  0  0  0  0  0  0  0  0  0
  -19.4020  -21.1688   20.4203 C   0  0  0  0  0  0  0  0  0  0  0  0
  -22.5103  -20.3422   26.0860 C   0  0  0  0  0  0  0  0  0  0  0  0
  -29.8394  -17.1726   29.0936 C   0  0  0  0  0  0  0  0  0  0  0  0
  -24.2290  -22.6346   26.8296 C   0  0  0  0  0  0  0  0  0  0  0  0
  -19.4258  -22.2510   21.4967 C   0  0  0  0  0  0  0  0  0  0  0  0
  -30.9522  -16.3955   29.8131 C   0  0  0  0  0  0  0  0  0  0  0  0
  -29.7813  -12.1547   18.5909 C   0  0  0  0  0  0  0  0  0  0  0  0
  -20.8270  -22.8385   21.6320 C   0  0  0  0  0  0  0  0  0  0  0  0
  -28.3118  -11.9000   18.9311 C   0  0  0  0  0  0  0  0  0  0  0  0
  -29.9555  -18.2197   21.2750 C   0  0  0  0  0  0  0  0  0  0  0  0
  -30.5977  -12.4960   19.8354 C   0  0  0  0  0  0  0  0  0  0  0  0
  -28.5920  -13.3536   20.9823 C   0  0  0  0  0  0  0  0  0  0  0  0
  -30.5151  -19.3920   22.0656 C   0  0  0  0  0  0  0  0  0  0  0  0
  -30.7178  -17.3033   23.3225 C   0  0  0  0  0  0  0  0  0  0  0  0
  -21.8360  -21.7660   22.0599 C   0  0  1  0  0  0  0  0  0  0  0  0
  -22.0801  -21.7887   25.8511 C   0  0  1  0  0  0  0  0  0  0  0  0
  -27.7170  -13.0603   19.7515 C   0  0  2  0  0  0  0  0  0  0  0  0
  -30.6987  -17.0185   21.8337 C   0  0  1  0  0  0  0  0  0  0  0  0
  -32.2752  -17.1690   29.5659 C   0  0  0  0  0  0  0  0  0  0  0  0
  -34.3388  -18.3440   27.5428 C   0  0  0  0  0  0  0  0  0  0  0  0
  -33.2900  -19.4756   25.1139 C   0  0  0  0  0  0  0  0  0  0  0  0
  -33.4698  -16.2119   29.5461 C   0  0  0  0  0  0  0  0  0  0  0  0
  -32.4871  -18.2603   30.6235 C   0  0  0  0  0  0  0  0  0  0  0  0
  -18.0679  -27.6024   26.7126 C   0  0  0  0  0  0  0  0  0  0  0  0
  -20.3436  -21.6583   28.5454 C   0  0  0  0  0  0  0  0  0  0  0  0
  -18.4130  -23.2327   28.2964 C   0  0  0  0  0  0  0  0  0  0  0  0
  -20.3205  -23.8273   29.7900 C   0  0  0  0  0  0  0  0  0  0  0  0
  -21.0057  -27.8736   24.3102 C   0  0  0  0  0  0  0  0  0  0  0  0
  -30.4517  -19.4630   24.5964 C   0  0  0  0  0  0  0  0  0  0  0  0
  -28.6080  -18.3209   26.5396 C   0  0  0  0  0  0  0  0  0  1  0  0
  -20.6427  -23.8907   27.2832 C   0  0  1  0  0  0  0  0  0  0  0  0
  -19.4792  -27.3359   26.2126 C   0  0  2  0  0  0  0  0  0  0  0  0
  -19.9458  -23.1452   28.4562 C   0  0  0  0  0  0  0  0  0  0  0  0
  -25.8794  -11.5291   20.3525 N   0  0  0  0  0  0  0  0  0  0  0  0
  -26.2715  -12.7951   20.1297 N   0  0  0  0  0  0  0  0  0  0  0  0
  -22.7655  -22.7272   26.7487 N   0  0  0  0  0  0  0  0  0  0  0  0
  -29.9811  -13.6050   20.5675 N   0  0  0  0  0  0  0  0  0  0  0  0
  -25.4975  -15.0335   20.0932 N   0  0  0  0  0  0  0  0  0  0  0  0
  -21.9611  -13.6877   19.8140 N   0  0  0  0  0  0  0  0  0  0  0  0
  -21.7155  -21.4953   23.4765 N   0  0  0  0  0  0  0  0  0  0  0  0
  -20.3055  -25.3071   27.1911 N   0  0  0  0  0  0  0  0  0  0  0  0
  -30.0681  -15.7721   21.5107 N   0  0  0  0  0  0  0  0  0  0  0  0
  -30.9943  -18.7918   23.3758 N   0  3  2  0  0  0  0  0  0  0  0  0
  -19.6542  -28.0318   24.9065 N   0  3  0  0  0  0  0  0  0  0  0  0
  -22.5055  -13.9263   22.0288 O   0  0  0  0  0  0  0  0  0  0  0  0
  -23.0746  -23.2179   24.2563 O   0  0  0  0  0  0  0  0  0  0  0  0
  -22.7581  -24.7033   27.9771 O   0  0  0  0  0  0  0  0  0  0  0  0
  -19.4615  -25.2277   25.0327 O   0  0  0  0  0  0  0  0  0  0  0  0
  -31.9002  -14.9007   20.4425 O   0  0  0  0  0  0  0  0  0  0  0  0
  -21.5063   -7.1502   21.8537 O   0  0  0  0  0  0  0  0  0  0  0  0
  -28.0928  -19.6350   26.7497 O   0  0  0  0  0  0  0  0  0  1  0  0
  -16.6144   -7.9587   24.2659 F   0  0  0  0  0  0  0  0  0  0  0  0
  -20.9531   -6.0677   24.3366 F   0  0  0  0  0  0  0  0  0  0  0  0
  1  2  1  0  0  0  0
  1  5  2  0  0  0  0
  2  6  2  0  0  0  0
  3  8  2  0  0  0  0
  3 15  1  0  0  0  0
  4  9  1  0  0  0  0
  4 15  2  0  0  0  0
  5 17  1  0  0  0  0
  6 19  1  0  0  0  0
  7 10  2  0  0  0  0
  7 18  1  0  0  0  0
  8 27  1  0  0  0  0
  9 27  2  0  0  0  0
 10 28  1  0  0  0  0
 11 12  2  0  0  0  0
 11 29  1  0  0  0  0
 12 30  1  0  0  0  0
 13 20  1  0  0  0  0
 13 28  2  0  0  0  0
 14 30  2  0  0  0  0
 14 31  1  0  0  0  0
 15 32  1  0  0  0  0
 16 32  1  0  0  0  0
 16 33  2  0  0  0  0
 16 34  1  0  0  0  0
 17 19  2  0  0  0  0
 17 39  1  0  0  0  0
 18 20  2  0  0  0  0
 18 40  1  0  0  0  0
 19 53  1  0  0  0  0
 20 42  1  0  0  0  0
 21 22  1  0  0  0  0
 21 23  2  0  0  0  0
 21 41  1  0  0  0  0
 22 24  2  0  0  0  0
 22 57  1  0  0  0  0
 23 26  1  0  0  0  0
 23 68  1  0  0  0  0
 24 25  1  0  0  0  0
 24 58  1  0  0  0  0
 25 26  2  0  0  0  0
 25 59  1  0  0  0  0
 26 67  1  0  0  0  0
 27 88  1  0  0  0  0
 28 89  1  0  0  0  0
 29 31  2  0  0  0  0
 29 88  1  0  0  0  0
 30 90  1  0  0  0  0
 31 91  1  0  0  0  0
 32 72  2  0  0  0  0
 33 73  1  0  0  0  0
 33 76  1  0  0  0  0
 34 77  1  0  0  0  0
 34 83  2  0  0  0  0
 35 54  1  0  0  0  0
 35 78  1  0  0  0  0
 35 84  2  0  0  0  0
 36 69  1  0  0  0  0
 36 74  1  0  0  0  0
 36 85  2  0  0  0  0
 37 70  1  0  0  0  0
 37 79  1  0  0  0  0
 37 86  2  0  0  0  0
 38 75  1  0  0  0  0
 38 80  1  0  0  0  0
 38 87  2  0  0  0  0
 39 43  1  0  0  0  0
 40 54  1  0  0  0  0
 41 44  1  0  0  0  0
 42 74  1  0  0  0  0
 43 46  1  0  0  0  0
 44 57  1  0  0  0  0
 45 47  1  0  0  0  0
 45 49  1  0  0  0  0
 46 53  1  0  0  0  0
 47 55  1  0  0  0  0
 48 51  1  0  0  0  0
 48 56  1  0  0  0  0
 49 75  1  0  0  0  0
 50 55  1  0  0  0  0
 50 75  1  0  0  0  0
 51 81  1  0  0  0  0
 52 56  1  0  0  0  0
 52 81  1  0  0  0  0
 53 78  1  0  0  0  0
 54 74  1  0  0  0  0
 55 73  1  0  0  0  0
 56 80  1  0  0  0  0
 57 60  1  0  0  0  0
 57 61  1  0  0  0  0
 62 70  1  0  0  0  0
 63 71  1  0  0  0  0
 64 71  1  0  0  0  0
 65 71  1  0  0  0  0
 66 82  1  0  0  0  0
 67 81  1  0  0  0  0
 68 89  1  0  0  0  0
 69 71  1  0  0  0  0
 69 79  1  0  0  0  0
 70 82  1  0  0  0  0
 72 73  1  0  0  0  0
M  CHG  2  81   1  82   1
M  ISO  4  38 100  68 101  80 100  89 101
M  END
> <Batch ID>
0168

> <Smiles>
CNC(C)C(=O)NC(C(=O)N1Cc2cc([101O:1][101CH2:1]c3c(CN4CCC([100NH:0][100C:0](=O)N5CCCC(n6nc(-c7ccc(Oc8ccc(F)cc8F)cc7)c(C(N)=O)c6N)C5)C4)c(C)c(C)c4c3CCC4(C)C)ccc2CC1C(=O)NC1CCCc2ccccc21)C(C)(C)C

> <Shape>
0.153

> <Color>
0.139

> <Negative vol penalty>
0.000

$$$$

  -OEChem-04052322303D

 87 96  0     1  0  0  0  0  0999 V2000
  -16.9242  -28.2720   24.2570 C   0  0  0  0  0  0  0  0  0  0  0  0
  -17.6329  -27.4371   23.3990 C   0  0  0  0  0  0  0  0  0  0  0  0
  -26.0993  -14.3416   21.7603 C   0  0  0  0  0  0  0  0  0  0  0  0
  -25.9147  -14.1930   19.3559 C   0  0  0  0  0  0  0  0  0  0  0  0
  -17.2439  -29.6271   24.3308 C   0  0  0  0  0  0  0  0  0  0  0  0
  -18.6609  -27.9571   22.6134 C   0  0  0  0  0  0  0  0  0  0  0  0
  -22.7924  -25.0287   22.6334 C   0  0  0  0  0  0  0  0  0  0  0  0
  -25.1274  -13.3503   21.8962 C   0  0  0  0  0  0  0  0  0  0  0  0
  -24.9428  -13.2017   19.4918 C   0  0  0  0  0  0  0  0  0  0  0  0
  -22.7678  -23.8874   21.8329 C   0  0  0  0  0  0  0  0  0  0  0  0
  -22.4350  -11.1125   22.8794 C   0  0  0  0  0  0  0  0  0  0  0  0
  -21.4270  -11.3154   23.8219 C   0  0  0  0  0  0  0  0  0  0  0  0
  -24.0496  -25.0472   20.1504 C   0  0  0  0  0  0  0  0  0  0  0  0
  -20.7494  -13.3251   22.6647 C   0  0  0  0  0  0  0  0  0  0  0  0
  -26.4929  -14.7629   20.4901 C   0  0  0  0  0  0  0  0  0  0  0  0
  -28.8891  -15.6055   20.2532 C   0  0  0  0  0  0  0  0  0  0  0  0
  -18.2828  -30.1621   23.5529 C   0  0  0  0  0  0  0  0  0  0  0  0
  -23.4376  -26.1932   22.1929 C   0  0  0  0  0  0  0  0  0  0  0  0
  -18.9939  -29.3209   22.6759 C   0  0  0  0  0  0  0  0  0  0  0  0
  -24.0832  -26.2011   20.9482 C   0  0  0  0  0  0  0  0  0  0  0  0
  -24.5492  -12.7803   20.7620 C   0  0  0  0  0  0  0  0  0  0  0  0
  -23.3940  -23.8975   20.5900 C   0  0  0  0  0  0  0  0  0  0  0  0
  -22.6003  -12.0160   21.8295 C   0  0  0  0  0  0  0  0  0  0  0  0
  -20.5841  -12.4216   23.7146 C   0  0  0  0  0  0  0  0  0  0  0  0
  -21.7575  -13.1223   21.7222 C   0  0  0  0  0  0  0  0  0  0  0  0
  -27.4964  -15.7873   20.3491 C   0  0  0  0  0  0  0  0  0  0  0  0
  -29.3940  -16.8774   20.1350 C   0  0  0  0  0  0  0  0  0  0  0  0
  -29.6576  -14.3952   20.2695 C   0  0  0  0  0  0  0  0  0  0  0  0
  -22.5109  -29.1658   21.5537 C   0  0  0  0  0  0  0  0  0  0  0  0
  -24.6709  -20.9149   15.2128 C   0  0  0  0  0  0  0  0  0  0  0  0
  -25.6944  -29.6622   21.1778 C   0  0  0  0  0  0  0  0  0  0  0  0
  -28.7702  -28.3513   20.4940 C   0  0  0  0  0  0  0  0  0  0  0  0
  -27.0659  -22.0192   18.1369 C   0  0  0  0  0  0  0  0  0  0  0  0
  -18.5605  -31.6424   23.6319 C   0  0  0  0  0  0  0  0  0  0  0  0
  -23.4781  -27.4075   23.0797 C   0  0  0  0  0  0  0  0  0  0  0  0
  -24.8069  -27.4194   20.4379 C   0  0  0  0  0  0  0  0  0  0  0  0
  -19.9113  -32.0409   23.0429 C   0  0  0  0  0  0  0  0  0  0  0  0
  -28.4560  -21.4070   21.3570 C   0  0  0  0  0  0  0  0  0  0  0  0
  -20.1223  -31.3700   21.6893 C   0  0  0  0  0  0  0  0  0  0  0  0
  -27.1832  -22.4561   12.7584 C   0  0  0  0  0  0  0  0  0  0  0  0
  -28.0495  -20.2573   13.4736 C   0  0  0  0  0  0  0  0  0  0  0  0
  -28.4934  -19.8809   21.4552 C   0  0  0  0  0  0  0  0  0  0  0  0
  -25.8320  -22.1357   13.4074 C   0  0  0  0  0  0  0  0  0  0  0  0
  -26.7256  -19.9274   14.1735 C   0  0  0  0  0  0  0  0  0  0  0  0
  -27.2187  -21.8941   20.6062 C   0  0  0  0  0  0  0  0  0  0  0  0
  -27.0640  -19.7669   19.3713 C   0  0  0  0  0  0  0  0  0  0  0  0
  -20.1322  -29.8427   21.8261 C   0  0  1  0  0  0  0  0  0  0  0  0
  -23.7234  -28.7016   22.3100 C   0  0  1  0  0  0  0  0  0  0  0  0
  -28.3225  -21.7752   13.5446 C   0  0  0  0  0  0  0  0  0  0  0  0
  -28.3222  -19.2257   20.0715 C   0  0  2  0  0  0  0  0  0  0  0  0
  -26.9212  -21.9813   15.6596 C   0  0  2  0  0  0  0  0  0  0  0  0
  -26.0273  -21.2217   14.6382 C   0  0  0  0  0  0  0  0  0  0  0  0
  -28.3379  -22.2580   15.0382 C   0  0  0  0  0  0  0  0  0  0  0  0
  -29.4883  -21.5579   15.8016 C   0  0  0  0  0  0  0  0  0  0  0  0
  -28.6355  -23.7738   15.1137 C   0  0  0  0  0  0  0  0  0  0  0  0
  -31.1761  -29.0104   20.2205 C   0  0  0  0  0  0  0  0  0  0  0  0
  -25.0622  -30.8191   18.4261 C   0  0  0  0  0  0  0  0  0  0  0  0
  -27.4842  -30.5716   17.8425 C   0  0  0  0  0  0  0  0  0  0  0  0
  -26.8009  -32.0756   19.7117 C   0  0  0  0  0  0  0  0  0  0  0  0
  -29.6202  -26.6206   22.7393 C   0  0  0  0  0  0  0  0  0  0  0  0
  -22.6793  -21.8286   17.7129 C   0  0  0  0  0  0  0  0  0  0  0  0
  -22.6430  -21.9647   16.1967 C   0  0  0  0  0  0  0  0  0  0  0  0
  -23.4037  -22.9830   18.3946 C   0  0  0  0  0  0  0  0  0  1  0  0
  -26.6617  -29.5704   20.0225 C   0  0  1  0  0  0  0  0  0  0  0  0
  -30.1113  -28.5143   21.1864 C   0  0  2  0  0  0  0  0  0  0  0  0
  -26.4870  -30.7367   19.0092 C   0  0  0  0  0  0  0  0  0  0  0  0
  -27.1394  -17.0733   20.2965 N   0  0  0  0  0  0  0  0  0  0  0  0
  -28.3151  -17.7111   20.1664 N   0  0  0  0  0  0  0  0  0  0  0  0
  -24.8131  -28.5838   21.3390 N   0  0  0  0  0  0  0  0  0  0  0  0
  -27.1158  -21.2357   19.3016 N   0  0  0  0  0  0  0  0  0  0  0  0
  -30.6511  -17.3526   20.0084 N   0  0  0  0  0  0  0  0  0  0  0  0
  -28.9799  -13.1751   20.3977 N   0  0  0  0  0  0  0  0  0  0  0  0
  -21.4035  -29.3903   22.3491 N   0  0  0  0  0  0  0  0  0  0  0  0
  -23.9661  -22.0320   15.6187 N   0  0  0  0  0  0  0  0  0  0  0  0
  -27.9938  -29.4847   20.6111 N   0  0  0  0  0  0  0  0  0  0  0  0
  -26.9751  -21.3156   16.9421 N   0  0  0  0  0  0  0  0  0  0  0  0
  -30.5623  -27.2127   21.7550 N   0  3  0  0  0  0  0  0  0  0  0  0
  -30.9095  -14.3968   20.1897 O   0  0  0  0  0  0  0  0  0  0  0  0
  -22.5758  -29.3112   20.3386 O   0  0  0  0  0  0  0  0  0  0  0  0
  -24.2927  -19.7513   15.2807 O   0  0  0  0  0  0  0  0  0  0  0  0
  -25.7246  -30.6511   21.9147 O   0  0  0  0  0  0  0  0  0  0  0  0
  -28.4455  -27.3228   19.9047 O   0  0  0  0  0  0  0  0  0  0  0  0
  -27.1051  -23.2541   18.1597 O   0  0  0  0  0  0  0  0  0  0  0  0
  -23.6010  -11.8129   20.8942 O   0  0  0  0  0  0  0  0  0  0  0  0
  -23.3707  -22.7772   19.8008 O   0  0  0  0  0  0  0  0  0  1  0  0
  -19.6152  -12.6154   24.6189 F   0  0  0  0  0  0  0  0  0  0  0  0
  -21.9106  -13.9931   20.7152 F   0  0  0  0  0  0  0  0  0  0  0  0
  1  2  1  0  0  0  0
  1  5  2  0  0  0  0
  2  6  2  0  0  0  0
  3  8  2  0  0  0  0
  3 15  1  0  0  0  0
  4  9  1  0  0  0  0
  4 15  2  0  0  0  0
  5 17  1  0  0  0  0
  6 19  1  0  0  0  0
  7 10  2  0  0  0  0
  7 18  1  0  0  0  0
  8 21  1  0  0  0  0
  9 21  2  0  0  0  0
 10 22  1  0  0  0  0
 11 12  2  0  0  0  0
 11 23  1  0  0  0  0
 12 24  1  0  0  0  0
 13 20  1  0  0  0  0
 13 22  2  0  0  0  0
 14 24  2  0  0  0  0
 14 25  1  0  0  0  0
 15 26  1  0  0  0  0
 16 26  1  0  0  0  0
 16 27  2  0  0  0  0
 16 28  1  0  0  0  0
 17 19  2  0  0  0  0
 17 34  1  0  0  0  0
 18 20  2  0  0  0  0
 18 35  1  0  0  0  0
 19 47  1  0  0  0  0
 20 36  1  0  0  0  0
 21 84  1  0  0  0  0
 22 85  1  0  0  0  0
 23 25  2  0  0  0  0
 23 84  1  0  0  0  0
 24 86  1  0  0  0  0
 25 87  1  0  0  0  0
 26 67  2  0  0  0  0
 27 68  1  0  0  0  0
 27 71  1  0  0  0  0
 28 72  1  0  0  0  0
 28 78  2  0  0  0  0
 29 48  1  0  0  0  0
 29 73  1  0  0  0  0
 29 79  2  0  0  0  0
 30 52  1  0  0  0  0
 30 74  1  0  0  0  0
 30 80  2  0  0  0  0
 31 64  1  0  0  0  0
 31 69  1  0  0  0  0
 31 81  2  0  0  0  0
 32 65  1  0  0  0  0
 32 75  1  0  0  0  0
 32 82  2  0  0  0  0
 33 70  1  0  0  0  0
 33 76  1  0  0  0  0
 33 83  2  0  0  0  0
 34 37  1  0  0  0  0
 35 48  1  0  0  0  0
 36 69  1  0  0  0  0
 37 39  1  0  0  0  0
 38 42  1  0  0  0  0
 38 45  1  0  0  0  0
 39 47  1  0  0  0  0
 40 43  1  0  0  0  0
 40 49  1  0  0  0  0
 41 44  1  0  0  0  0
 41 49  1  0  0  0  0
 42 50  1  0  0  0  0
 43 52  1  0  0  0  0
 44 52  1  0  0  0  0
 45 70  1  0  0  0  0
 46 50  1  0  0  0  0
 46 70  1  0  0  0  0
 47 73  1  0  0  0  0
 48 69  1  0  0  0  0
 49 53  1  0  0  0  0
 50 68  1  0  0  0  0
 51 52  1  0  0  0  0
 51 53  1  0  0  0  0
 51 76  1  0  0  0  0
 53 54  1  0  0  0  0
 53 55  1  0  0  0  0
 56 65  1  0  0  0  0
 57 66  1  0  0  0  0
 58 66  1  0  0  0  0
 59 66  1  0  0  0  0
 60 77  1  0  0  0  0
 61 62  1  0  0  0  0
 61 63  1  0  0  0  0
 62 74  1  0  0  0  0
 63 85  1  0  0  0  0
 64 66  1  0  0  0  0
 64 75  1  0  0  0  0
 65 77  1  0  0  0  0
 67 68  1  0  0  0  0
M  CHG  1  77   1
M  ISO  4  33 100  63 101  76 100  85 101
M  END
> <Batch ID>
0168

> <Smiles>
CNC(C)C(=O)NC(C(=O)N1Cc2cc([101O:1][101CH2:1]CCNC(=O)C34CCC(CC3)C(C)(C)C4[100NH:0][100C:0](=O)N3CCCC(n4nc(-c5ccc(Oc6ccc(F)cc6F)cc5)c(C(N)=O)c4N)C3)ccc2CC1C(=O)NC1CCCc2ccccc21)C(C)(C)C

> <Shape>
0.232

> <Color>
0.068

> <Negative vol penalty>
0.000

$$$$

  -OEChem-04052322303D

 91100  0     1  0  0  0  0  0999 V2000
  -29.0460  -25.7474   16.2836 C   0  0  0  0  0  0  0  0  0  0  0  0
  -27.6920  -25.7597   16.6028 C   0  0  0  0  0  0  0  0  0  0  0  0
  -28.4700  -15.2856   21.8776 C   0  0  0  0  0  0  0  0  0  0  0  0
  -26.6979  -16.3344   20.6140 C   0  0  0  0  0  0  0  0  0  0  0  0
  -29.9880  -26.1467   17.2308 C   0  0  0  0  0  0  0  0  0  0  0  0
  -27.2792  -26.1703   17.8698 C   0  0  0  0  0  0  0  0  0  0  0  0
  -22.1565  -29.2236   19.2632 C   0  0  0  0  0  0  0  0  0  0  0  0
  -27.8120  -14.0594   21.7827 C   0  0  0  0  0  0  0  0  0  0  0  0
  -26.0399  -15.1081   20.5190 C   0  0  0  0  0  0  0  0  0  0  0  0
  -20.9191  -28.8061   19.7514 C   0  0  0  0  0  0  0  0  0  0  0  0
  -23.7151  -12.3271   20.2520 C   0  0  0  0  0  0  0  0  0  0  0  0
  -22.3410  -12.3085   20.4911 C   0  0  0  0  0  0  0  0  0  0  0  0
  -22.9290  -20.8902   22.6512 C   0  0  0  0  0  0  0  0  0  0  0  0
  -21.6306  -29.3397   21.9938 C   0  0  0  0  0  0  0  0  0  0  0  0
  -22.9341  -21.0751   25.0600 C   0  0  0  0  0  0  0  0  0  0  0  0
  -22.7185  -13.1467   22.7254 C   0  0  0  0  0  0  0  0  0  0  0  0
  -27.9129  -16.4231   21.2933 C   0  0  0  0  0  0  0  0  0  0  0  0
  -29.5419  -18.2172   20.4962 C   0  0  0  0  0  0  0  0  0  0  0  0
  -29.5859  -26.5715   18.5069 C   0  0  0  0  0  0  0  0  0  0  0  0
  -23.1458  -29.6928   20.1393 C   0  0  0  0  0  0  0  0  0  0  0  0
  -28.2168  -26.5743   18.8355 C   0  0  0  0  0  0  0  0  0  0  0  0
  -22.9230  -21.6780   23.8022 C   0  0  0  0  0  0  0  0  0  0  0  0
  -22.8788  -29.7650   21.5139 C   0  0  0  0  0  0  0  0  0  0  0  0
  -22.9459  -19.4995   22.7579 C   0  0  0  0  0  0  0  0  0  0  0  0
  -22.9570  -18.8966   24.0157 C   0  0  0  0  0  0  0  0  0  0  0  0
  -26.5970  -13.9706   21.1034 C   0  0  0  0  0  0  0  0  0  0  0  0
  -20.6570  -28.8614   21.1172 C   0  0  0  0  0  0  0  0  0  0  0  0
  -24.5909  -12.7555   21.2496 C   0  0  0  0  0  0  0  0  0  0  0  0
  -21.8427  -12.7183   21.7278 C   0  0  0  0  0  0  0  0  0  0  0  0
  -22.9511  -19.6844   25.1668 C   0  0  0  0  0  0  0  0  0  0  0  0
  -24.0926  -13.1653   22.4863 C   0  0  0  0  0  0  0  0  0  0  0  0
  -28.5919  -17.6902   21.3915 C   0  0  0  0  0  0  0  0  0  0  0  0
  -29.8798  -19.4358   21.0322 C   0  0  0  0  0  0  0  0  0  0  0  0
  -30.0716  -17.6554   19.2881 C   0  0  0  0  0  0  0  0  0  0  0  0
  -26.0804  -28.7529   20.9194 C   0  0  0  0  0  0  0  0  0  0  0  0
  -26.0947  -31.5180   22.6153 C   0  0  0  0  0  0  0  0  0  0  0  0
  -24.3053  -33.9566   24.1960 C   0  0  0  0  0  0  0  0  0  0  0  0
  -27.0084  -23.2280   24.6688 C   0  0  0  0  0  0  0  0  0  0  0  0
  -30.6440  -26.9489   19.5132 C   0  0  0  0  0  0  0  0  0  0  0  0
  -24.4659  -30.1645   19.5940 C   0  0  0  0  0  0  0  0  0  0  0  0
  -23.8998  -30.2798   22.4942 C   0  0  0  0  0  0  0  0  0  0  0  0
  -30.0983  -27.7265   20.7082 C   0  0  0  0  0  0  0  0  0  0  0  0
  -30.1900  -21.7281   25.2203 C   0  0  0  0  0  0  0  0  0  0  0  0
  -28.8379  -27.0589   21.2490 C   0  0  0  0  0  0  0  0  0  0  0  0
  -30.2269  -20.5707   24.2208 C   0  0  0  0  0  0  0  0  0  0  0  0
  -22.8773  -24.9408   22.4142 C   0  0  0  0  0  0  0  0  0  0  0  0
  -28.7910  -21.9304   25.7980 C   0  0  0  0  0  0  0  0  0  0  0  0
  -27.7602  -20.9334   23.7937 C   0  0  0  0  0  0  0  0  0  0  0  0
  -22.9042  -23.2104   23.6851 C   0  0  1  0  0  0  0  0  0  0  0  0
  -27.7281  -27.0366   20.1910 C   0  0  1  0  0  0  0  0  0  0  0  0
  -25.5837  -30.1415   20.6319 C   0  0  1  0  0  0  0  0  0  0  0  0
  -23.9640  -23.8890   22.7548 C   0  0  2  0  0  0  0  0  0  0  0  0
  -21.8199  -23.8624   22.7640 C   0  0  1  0  0  0  0  0  0  0  0  0
  -29.1382  -20.7264   23.1421 C   0  0  2  0  0  0  0  0  0  0  0  0
  -22.9520  -18.6770   21.5113 C   0  0  0  0  0  0  0  0  0  0  0  0
  -22.9758  -17.4093   24.1514 C   0  0  0  0  0  0  0  0  0  0  0  0
  -24.5960  -36.0665   25.5230 C   0  0  0  0  0  0  0  0  0  0  0  0
  -19.7684  -23.2279   24.0917 C   0  0  0  0  0  0  0  0  0  0  0  0
  -26.8886  -29.8699   25.0573 C   0  0  0  0  0  0  0  0  0  0  0  0
  -26.2414  -31.8155   26.4940 C   0  0  0  0  0  0  0  0  0  0  0  0
  -28.0900  -32.0521   24.8360 C   0  0  0  0  0  0  0  0  0  0  0  0
  -22.8434  -35.5608   22.1840 C   0  0  0  0  0  0  0  0  0  0  0  0
  -25.2203  -24.4134   23.4211 C   0  0  0  0  0  0  0  0  0  0  0  0
  -17.9180  -26.6246   21.8390 C   0  0  0  0  0  0  0  0  0  0  0  0
  -18.7110  -25.9742   22.9626 C   0  0  0  0  0  0  0  0  0  0  0  0
  -18.7753  -27.4284   20.8691 C   0  0  0  0  0  0  0  0  0  1  0  0
  -25.7017  -31.9138   24.0181 C   0  0  1  0  0  0  0  0  0  0  0  0
  -24.3965  -35.4708   24.1380 C   0  0  2  0  0  0  0  0  0  0  0  0
  -20.5529  -24.3571   23.4432 C   0  0  2  0  0  0  0  0  0  0  0  0
  -26.7117  -31.4013   25.0834 C   0  0  0  0  0  0  0  0  0  0  0  0
  -28.3424  -18.5071   22.4184 N   0  0  0  0  0  0  0  0  0  0  0  0
  -29.1406  -19.5597   22.1717 N   0  0  0  0  0  0  0  0  0  0  0  0
  -25.1776  -30.7234   21.9129 N   0  0  0  0  0  0  0  0  0  0  0  0
  -27.8058  -22.0730   24.7232 N   0  0  0  0  0  0  0  0  0  0  0  0
  -30.7341  -20.4027   20.6353 N   0  0  0  0  0  0  0  0  0  0  0  0
  -29.6157  -16.3939   18.8819 N   0  0  0  0  0  0  0  0  0  0  0  0
  -27.1025  -28.3375   20.0873 N   0  0  0  0  0  0  0  0  0  0  0  0
  -25.5346  -33.3630   24.0017 N   0  0  0  0  0  0  0  0  0  0  0  0
  -26.1049  -23.2861   23.6148 N   0  0  0  0  0  0  0  0  0  0  0  0
  -23.1499  -36.0429   23.5553 N   0  3  0  0  0  0  0  0  0  0  0  0
  -19.6890  -25.0038   22.4171 N   0  3  0  0  0  0  0  0  0  0  0  0
  -30.9361  -18.2472   18.5982 O   0  0  0  0  0  0  0  0  0  0  0  0
  -25.5748  -28.1067   21.8296 O   0  0  0  0  0  0  0  0  0  0  0  0
  -27.1723  -31.9057   22.1570 O   0  0  0  0  0  0  0  0  0  0  0  0
  -23.2498  -33.3601   24.3974 O   0  0  0  0  0  0  0  0  0  0  0  0
  -27.0988  -24.1424   25.4951 O   0  0  0  0  0  0  0  0  0  0  0  0
  -25.9547  -12.7742   21.0104 O   0  0  0  0  0  0  0  0  0  0  0  0
  -19.4503  -28.4540   21.5964 O   0  0  0  0  0  0  0  0  0  1  0  0
  -20.5231  -12.7018   21.9567 F   0  0  0  0  0  0  0  0  0  0  0  0
  -22.9615  -19.1151   26.3803 F   0  0  0  0  0  0  0  0  0  0  0  0
  -24.9289  -13.5790   23.4481 F   0  0  0  0  0  0  0  0  0  0  0  0
  1  2  1  0  0  0  0
  1  5  2  0  0  0  0
  2  6  2  0  0  0  0
  3  8  2  0  0  0  0
  3 17  1  0  0  0  0
  4  9  1  0  0  0  0
  4 17  2  0  0  0  0
  5 19  1  0  0  0  0
  6 21  1  0  0  0  0
  7 10  2  0  0  0  0
  7 20  1  0  0  0  0
  8 26  1  0  0  0  0
  9 26  2  0  0  0  0
 10 27  1  0  0  0  0
 11 12  2  0  0  0  0
 11 28  1  0  0  0  0
 12 29  1  0  0  0  0
 13 22  1  0  0  0  0
 13 24  2  0  0  0  0
 14 23  1  0  0  0  0
 14 27  2  0  0  0  0
 15 22  2  0  0  0  0
 15 30  1  0  0  0  0
 16 29  2  0  0  0  0
 16 31  1  0  0  0  0
 17 32  1  0  0  0  0
 18 32  1  0  0  0  0
 18 33  2  0  0  0  0
 18 34  1  0  0  0  0
 19 21  2  0  0  0  0
 19 39  1  0  0  0  0
 20 23  2  0  0  0  0
 20 40  1  0  0  0  0
 21 50  1  0  0  0  0
 22 49  1  0  0  0  0
 23 41  1  0  0  0  0
 24 25  1  0  0  0  0
 24 55  1  0  0  0  0
 25 30  2  0  0  0  0
 25 56  1  0  0  0  0
 26 87  1  0  0  0  0
 27 88  1  0  0  0  0
 28 31  2  0  0  0  0
 28 87  1  0  0  0  0
 29 89  1  0  0  0  0
 30 90  1  0  0  0  0
 31 91  1  0  0  0  0
 32 71  2  0  0  0  0
 33 72  1  0  0  0  0
 33 75  1  0  0  0  0
 34 76  1  0  0  0  0
 34 82  2  0  0  0  0
 35 51  1  0  0  0  0
 35 77  1  0  0  0  0
 35 83  2  0  0  0  0
 36 67  1  0  0  0  0
 36 73  1  0  0  0  0
 36 84  2  0  0  0  0
 37 68  1  0  0  0  0
 37 78  1  0  0  0  0
 37 85  2  0  0  0  0
 38 74  1  0  0  0  0
 38 79  1  0  0  0  0
 38 86  2  0  0  0  0
 39 42  1  0  0  0  0
 40 51  1  0  0  0  0
 41 73  1  0  0  0  0
 42 44  1  0  0  0  0
 43 45  1  0  0  0  0
 43 47  1  0  0  0  0
 44 50  1  0  0  0  0
 45 54  1  0  0  0  0
 46 52  1  0  0  0  0
 46 53  1  0  0  0  0
 47 74  1  0  0  0  0
 48 54  1  0  0  0  0
 48 74  1  0  0  0  0
 49 52  1  0  0  0  0
 49 53  1  0  0  0  0
 50 77  1  0  0  0  0
 51 73  1  0  0  0  0
 52 63  1  0  0  0  0
 53 69  1  0  0  0  0
 54 72  1  0  0  0  0
 57 68  1  0  0  0  0
 58 69  1  0  0  0  0
 59 70  1  0  0  0  0
 60 70  1  0  0  0  0
 61 70  1  0  0  0  0
 62 80  1  0  0  0  0
 63 79  1  0  0  0  0
 64 65  1  0  0  0  0
 64 66  1  0  0  0  0
 65 81  1  0  0  0  0
 66 88  1  0  0  0  0
 67 70  1  0  0  0  0
 67 78  1  0  0  0  0
 68 80  1  0  0  0  0
 69 81  1  0  0  0  0
 71 72  1  0  0  0  0
M  CHG  2  80   1  81   1
M  ISO  4  38 100  66 101  79 100  88 101
M  END
> <Batch ID>
0168

> <Smiles>
CNC(C)C(=O)NC(C(=O)N1Cc2cc([101O:1][101CH2:1]CCNC(C)C3CC(C[100NH:0][100C:0](=O)N4CCCC(n5nc(-c6ccc(Oc7ccc(F)cc7F)cc6)c(C(N)=O)c5N)C4)C3c3cc(C)c(C)c(F)c3)ccc2CC1C(=O)NC1CCCc2ccccc21)C(C)(C)C

> <Shape>
0.288

> <Color>
0.054

> <Negative vol penalty>
0.000

$$$$

  -OEChem-04052322303D

 87 96  0     1  0  0  0  0  0999 V2000
  -29.1827  -13.3082   20.0217 C   0  0  0  0  0  0  0  0  0  0  0  0
  -28.4253  -14.3689   19.5354 C   0  0  0  0  0  0  0  0  0  0  0  0
  -25.9997  -28.6800   21.7421 C   0  0  0  0  0  0  0  0  0  0  0  0
  -24.9273  -27.9649   19.6986 C   0  0  0  0  0  0  0  0  0  0  0  0
  -28.5502  -12.2114   20.6055 C   0  0  0  0  0  0  0  0  0  0  0  0
  -27.0346  -14.3329   19.6316 C   0  0  0  0  0  0  0  0  0  0  0  0
  -25.0837  -18.7231   21.2332 C   0  0  0  0  0  0  0  0  0  0  0  0
  -27.1972  -28.1069   21.3142 C   0  0  0  0  0  0  0  0  0  0  0  0
  -26.1248  -27.3918   19.2707 C   0  0  0  0  0  0  0  0  0  0  0  0
  -24.9852  -19.7542   20.3000 C   0  0  0  0  0  0  0  0  0  0  0  0
  -28.5616  -25.0188   21.1509 C   0  0  0  0  0  0  0  0  0  0  0  0
  -29.2803  -24.2573   22.0723 C   0  0  0  0  0  0  0  0  0  0  0  0
  -22.6457  -19.2496   19.9983 C   0  0  0  0  0  0  0  0  0  0  0  0
  -18.6911  -24.9751   17.5308 C   0  0  0  0  0  0  0  0  0  0  0  0
  -31.1625  -25.7543   21.8415 C   0  0  0  0  0  0  0  0  0  0  0  0
  -24.8647  -28.6090   20.9343 C   0  0  0  0  0  0  0  0  0  0  0  0
  -23.3952  -30.5535   21.6873 C   0  0  0  0  0  0  0  0  0  0  0  0
  -27.1516  -12.1663   20.7176 C   0  0  0  0  0  0  0  0  0  0  0  0
  -23.9646  -17.9391   21.5484 C   0  0  0  0  0  0  0  0  0  0  0  0
  -26.3827  -13.2338   20.2162 C   0  0  0  0  0  0  0  0  0  0  0  0
  -22.7320  -18.2108   20.9377 C   0  0  0  0  0  0  0  0  0  0  0  0
  -17.8406  -25.9194   16.9667 C   0  0  0  0  0  0  0  0  0  0  0  0
  -19.8876  -24.6588   16.8970 C   0  0  0  0  0  0  0  0  0  0  0  0
  -27.2598  -27.4628   20.0786 C   0  0  0  0  0  0  0  0  0  0  0  0
  -23.7668  -20.0158   19.6803 C   0  0  0  0  0  0  0  0  0  0  0  0
  -29.1433  -26.1481   20.5747 C   0  0  0  0  0  0  0  0  0  0  0  0
  -30.5807  -24.6250   22.4176 C   0  0  0  0  0  0  0  0  0  0  0  0
  -30.4438  -26.5159   20.9200 C   0  0  0  0  0  0  0  0  0  0  0  0
  -23.6272  -29.2004   21.3760 C   0  0  0  0  0  0  0  0  0  0  0  0
  -18.2294  -26.5140   15.7771 C   0  0  0  0  0  0  0  0  0  0  0  0
  -20.1847  -25.3096   15.7104 C   0  0  0  0  0  0  0  0  0  0  0  0
  -22.0717  -30.6000   22.0517 C   0  0  0  0  0  0  0  0  0  0  0  0
  -24.2954  -31.6688   21.6503 C   0  0  0  0  0  0  0  0  0  0  0  0
  -23.2383  -14.8561   21.2811 C   0  0  0  0  0  0  0  0  0  0  0  0
  -20.5767  -15.7422   22.9099 C   0  0  0  0  0  0  0  0  0  0  0  0
  -18.4023  -18.2261   23.7752 C   0  0  0  0  0  0  0  0  0  0  0  0
  -17.3582  -27.1480   20.7410 C   0  0  0  0  0  0  0  0  0  0  0  0
  -26.5104  -10.9382   21.3138 C   0  0  0  0  0  0  0  0  0  0  0  0
  -24.0810  -16.8478   22.5770 C   0  0  0  0  0  0  0  0  0  0  0  0
  -21.4959  -17.4114   21.2563 C   0  0  0  0  0  0  0  0  0  0  0  0
  -25.0525  -11.1464   21.7155 C   0  0  0  0  0  0  0  0  0  0  0  0
  -18.6228  -27.9039   23.9823 C   0  0  0  0  0  0  0  0  0  0  0  0
  -24.2873  -11.8529   20.6010 C   0  0  0  0  0  0  0  0  0  0  0  0
  -20.0278  -28.4440   23.7100 C   0  0  0  0  0  0  0  0  0  0  0  0
  -22.5894  -23.1484   18.9986 C   0  0  0  0  0  0  0  0  0  0  0  0
  -21.8707  -21.5234   17.2408 C   0  0  0  0  0  0  0  0  0  0  0  0
  -18.2551  -26.7766   23.0200 C   0  0  0  0  0  0  0  0  0  0  0  0
  -21.2998  -23.9396   18.7982 C   0  0  0  0  0  0  0  0  0  0  0  0
  -20.5786  -22.3096   17.0420 C   0  0  0  0  0  0  0  0  0  0  0  0
  -19.8102  -27.6488   21.3185 C   0  0  0  0  0  0  0  0  0  0  0  0
  -24.8733  -13.2428   20.3247 C   0  0  1  0  0  0  0  0  0  0  0  0
  -22.9991  -15.7808   22.4411 C   0  0  1  0  0  0  0  0  0  0  0  0
  -20.2045  -28.8252   22.2278 C   0  0  2  0  0  0  0  0  0  0  0  0
  -22.4092  -21.6744   18.6589 C   0  0  0  0  0  0  0  0  0  1  0  0
  -17.3554  -27.5353   15.1258 C   0  0  0  0  0  0  0  0  0  0  0  0
  -21.4554  -25.0123   14.9825 C   0  0  0  0  0  0  0  0  0  0  0  0
  -16.3028  -18.6379   25.0868 C   0  0  0  0  0  0  0  0  0  0  0  0
  -18.9369  -14.4451   20.6875 C   0  0  0  0  0  0  0  0  0  0  0  0
  -16.9356  -15.6889   21.5336 C   0  0  0  0  0  0  0  0  0  0  0  0
  -18.0786  -14.0246   22.9986 C   0  0  0  0  0  0  0  0  0  0  0  0
  -19.7645  -20.1388   25.5766 C   0  0  0  0  0  0  0  0  0  0  0  0
  -16.5574  -26.2628   17.6408 C   0  0  0  0  0  0  0  0  0  0  0  0
  -16.6040  -27.5850   18.4173 C   0  0  0  0  0  0  0  0  0  0  0  0
  -19.2038  -16.2387   22.5254 C   0  0  1  0  0  0  0  0  0  0  0  0
  -17.8233  -18.6356   25.1174 C   0  0  2  0  0  0  0  0  0  0  0  0
  -18.3123  -15.1133   21.9286 C   0  0  0  0  0  0  0  0  0  0  0  0
  -22.5385  -28.4420   21.5294 N   0  0  0  0  0  0  0  0  0  0  0  0
  -19.3837  -26.2325   15.1322 N   0  0  0  0  0  0  0  0  0  0  0  0
  -21.6096  -29.3215   21.9412 N   0  0  0  0  0  0  0  0  0  0  0  0
  -20.7515  -23.7089   17.4569 N   0  0  0  0  0  0  0  0  0  0  0  0
  -21.6620  -16.3509   22.2639 N   0  0  0  0  0  0  0  0  0  0  0  0
  -18.4432  -27.2033   21.6313 N   0  0  0  0  0  0  0  0  0  0  0  0
  -21.2699  -31.6092   22.4528 N   0  0  0  0  0  0  0  0  0  0  0  0
  -24.3998  -32.4040   20.4617 N   0  0  0  0  0  0  0  0  0  0  0  0
  -24.4438  -14.1829   21.3376 N   0  0  0  0  0  0  0  0  0  0  0  0
  -18.6497  -16.8709   23.7178 N   0  0  0  0  0  0  0  0  0  0  0  0
  -17.6206  -27.5768   19.4456 N   0  0  0  0  0  0  0  0  0  0  0  0
  -18.2879  -20.0026   25.4867 N   0  3  0  0  0  0  0  0  0  0  0  0
  -24.9989  -31.9935   22.6368 O   0  0  0  0  0  0  0  0  0  0  0  0
  -22.3913  -14.7594   20.4009 O   0  0  0  0  0  0  0  0  0  0  0  0
  -20.6825  -14.8522   23.7574 O   0  0  0  0  0  0  0  0  0  0  0  0
  -18.6105  -19.0277   22.8671 O   0  0  0  0  0  0  0  0  0  0  0  0
  -16.2372  -26.7514   21.0771 O   0  0  0  0  0  0  0  0  0  0  0  0
  -28.4282  -26.9036   19.6606 O   0  0  0  0  0  0  0  0  0  0  0  0
  -23.6681  -21.0212   18.7686 O   0  0  0  0  0  0  0  0  0  1  0  0
  -31.2702  -23.8944   23.3037 F   0  0  0  0  0  0  0  0  0  0  0  0
  -31.0075  -27.6004   20.3707 F   0  0  0  0  0  0  0  0  0  0  0  0
  1  2  1  0  0  0  0
  1  5  2  0  0  0  0
  2  6  2  0  0  0  0
  3  8  2  0  0  0  0
  3 16  1  0  0  0  0
  4  9  1  0  0  0  0
  4 16  2  0  0  0  0
  5 18  1  0  0  0  0
  6 20  1  0  0  0  0
  7 10  2  0  0  0  0
  7 19  1  0  0  0  0
  8 24  1  0  0  0  0
  9 24  2  0  0  0  0
 10 25  1  0  0  0  0
 11 12  2  0  0  0  0
 11 26  1  0  0  0  0
 12 27  1  0  0  0  0
 13 21  1  0  0  0  0
 13 25  2  0  0  0  0
 14 22  2  0  0  0  0
 14 23  1  0  0  0  0
 15 27  2  0  0  0  0
 15 28  1  0  0  0  0
 16 29  1  0  0  0  0
 17 29  1  0  0  0  0
 17 32  2  0  0  0  0
 17 33  1  0  0  0  0
 18 20  2  0  0  0  0
 18 38  1  0  0  0  0
 19 21  2  0  0  0  0
 19 39  1  0  0  0  0
 20 51  1  0  0  0  0
 21 40  1  0  0  0  0
 22 30  1  0  0  0  0
 22 62  1  0  0  0  0
 23 31  2  0  0  0  0
 23 70  1  0  0  0  0
 24 84  1  0  0  0  0
 25 85  1  0  0  0  0
 26 28  2  0  0  0  0
 26 84  1  0  0  0  0
 27 86  1  0  0  0  0
 28 87  1  0  0  0  0
 29 67  2  0  0  0  0
 30 55  1  0  0  0  0
 30 68  2  0  0  0  0
 31 56  1  0  0  0  0
 31 68  1  0  0  0  0
 32 69  1  0  0  0  0
 32 73  1  0  0  0  0
 33 74  1  0  0  0  0
 33 79  2  0  0  0  0
 34 52  1  0  0  0  0
 34 75  1  0  0  0  0
 34 80  2  0  0  0  0
 35 64  1  0  0  0  0
 35 71  1  0  0  0  0
 35 81  2  0  0  0  0
 36 65  1  0  0  0  0
 36 76  1  0  0  0  0
 36 82  2  0  0  0  0
 37 72  1  0  0  0  0
 37 77  1  0  0  0  0
 37 83  2  0  0  0  0
 38 41  1  0  0  0  0
 39 52  1  0  0  0  0
 40 71  1  0  0  0  0
 41 43  1  0  0  0  0
 42 44  1  0  0  0  0
 42 47  1  0  0  0  0
 43 51  1  0  0  0  0
 44 53  1  0  0  0  0
 45 48  1  0  0  0  0
 45 54  1  0  0  0  0
 46 49  1  0  0  0  0
 46 54  1  0  0  0  0
 47 72  1  0  0  0  0
 48 70  1  0  0  0  0
 49 70  1  0  0  0  0
 50 53  1  0  0  0  0
 50 72  1  0  0  0  0
 51 75  1  0  0  0  0
 52 71  1  0  0  0  0
 53 69  1  0  0  0  0
 54 85  1  0  0  0  0
 57 65  1  0  0  0  0
 58 66  1  0  0  0  0
 59 66  1  0  0  0  0
 60 66  1  0  0  0  0
 61 78  1  0  0  0  0
 62 63  1  0  0  0  0
 63 77  1  0  0  0  0
 64 66  1  0  0  0  0
 64 76  1  0  0  0  0
 65 78  1  0  0  0  0
 67 69  1  0  0  0  0
M  CHG  1  78   1
M  ISO  4  37 100  54 101  77 100  85 101
M  END
> <Batch ID>
0168

> <Smiles>
CNC(C)C(=O)NC(C(=O)N1Cc2cc([101O:1][101CH:1]3CCN(c4cc(CC[100NH:0][100C:0](=O)N5CCCC(n6nc(-c7ccc(Oc8ccc(F)cc8F)cc7)c(C(N)=O)c6N)C5)c(C)nc4C)CC3)ccc2CC1C(=O)NC1CCCc2ccccc21)C(C)(C)C

> <Shape>
0.192

> <Color>
0.085

> <Negative vol penalty>
0.000

$$$$

  -OEChem-04052322303D

 88 98  0     1  0  0  0  0  0999 V2000
  -18.6145  -30.9428   23.9298 C   0  0  0  0  0  0  0  0  0  0  0  0
  -19.9975  -30.8754   23.7956 C   0  0  0  0  0  0  0  0  0  0  0  0
  -26.0486  -11.5583   19.3677 C   0  0  0  0  0  0  0  0  0  0  0  0
  -25.7508  -11.1339   21.7275 C   0  0  0  0  0  0  0  0  0  0  0  0
  -17.8301  -29.8331   23.6180 C   0  0  0  0  0  0  0  0  0  0  0  0
  -20.5971  -29.6977   23.3506 C   0  0  0  0  0  0  0  0  0  0  0  0
  -25.5973  -29.2075   19.8487 C   0  0  0  0  0  0  0  0  0  0  0  0
  -26.1670  -10.1879   19.1362 C   0  0  0  0  0  0  0  0  0  0  0  0
  -25.8691   -9.7635   21.4960 C   0  0  0  0  0  0  0  0  0  0  0  0
  -26.9352  -28.9601   20.1532 C   0  0  0  0  0  0  0  0  0  0  0  0
  -23.9188   -7.2563   20.3426 C   0  0  0  0  0  0  0  0  0  0  0  0
  -23.0012   -6.4130   20.9692 C   0  0  0  0  0  0  0  0  0  0  0  0
  -30.8637  -25.5918   18.7577 C   0  0  0  0  0  0  0  0  0  0  0  0
  -26.6015  -26.6167   19.6880 C   0  0  0  0  0  0  0  0  0  0  0  0
  -24.8120   -5.2868   22.1050 C   0  0  0  0  0  0  0  0  0  0  0  0
  -31.0473  -25.3481   16.3990 C   0  0  0  0  0  0  0  0  0  0  0  0
  -25.8405  -12.0313   20.6634 C   0  0  0  0  0  0  0  0  0  0  0  0
  -24.5373  -14.2124   20.8920 C   0  0  0  0  0  0  0  0  0  0  0  0
  -18.4196  -28.6444   23.1598 C   0  0  0  0  0  0  0  0  0  0  0  0
  -24.7473  -28.1579   19.4714 C   0  0  0  0  0  0  0  0  0  0  0  0
  -19.8199  -28.5706   23.0337 C   0  0  0  0  0  0  0  0  0  0  0  0
  -31.0253  -26.9636   18.5980 C   0  0  0  0  0  0  0  0  0  0  0  0
  -25.2539  -26.8538   19.3767 C   0  0  0  0  0  0  0  0  0  0  0  0
  -30.8738  -24.7617   17.6423 C   0  0  0  0  0  0  0  0  0  0  0  0
  -26.0773   -9.2905   20.2003 C   0  0  0  0  0  0  0  0  0  0  0  0
  -27.4367  -27.6641   20.0757 C   0  0  0  0  0  0  0  0  0  0  0  0
  -25.2829   -7.1147   20.5971 C   0  0  0  0  0  0  0  0  0  0  0  0
  -23.4478   -5.4284   21.8505 C   0  0  0  0  0  0  0  0  0  0  0  0
  -25.7295   -6.1301   21.4783 C   0  0  0  0  0  0  0  0  0  0  0  0
  -25.7187  -13.4468   20.9033 C   0  0  0  0  0  0  0  0  0  0  0  0
  -31.1922  -27.4514   17.3119 C   0  0  0  0  0  0  0  0  0  0  0  0
  -24.9536  -15.4903   21.1752 C   0  0  0  0  0  0  0  0  0  0  0  0
  -23.1846  -13.8048   20.6475 C   0  0  0  0  0  0  0  0  0  0  0  0
  -22.0999  -26.8730   20.6731 C   0  0  0  0  0  0  0  0  0  0  0  0
  -22.1512  -25.1549   17.9221 C   0  0  0  0  0  0  0  0  0  0  0  0
  -23.9764  -23.8843   15.3334 C   0  0  0  0  0  0  0  0  0  0  0  0
  -28.2435  -19.6882   20.5755 C   0  0  0  0  0  0  0  0  0  0  0  0
  -17.5342  -27.4558   22.8804 C   0  0  0  0  0  0  0  0  0  0  0  0
  -23.3133  -28.4454   19.1203 C   0  0  0  0  0  0  0  0  0  0  0  0
  -24.3878  -25.6952   18.9571 C   0  0  0  0  0  0  0  0  0  0  0  0
  -18.2182  -26.3668   22.0578 C   0  0  0  0  0  0  0  0  0  0  0  0
  -29.4104  -17.2309   22.7956 C   0  0  0  0  0  0  0  0  0  0  0  0
  -19.6103  -26.0763   22.6094 C   0  0  0  0  0  0  0  0  0  0  0  0
  -28.4533  -16.0764   22.5006 C   0  0  0  0  0  0  0  0  0  0  0  0
  -32.2533  -28.6950   20.0597 C   0  0  0  0  0  0  0  0  0  0  0  0
  -31.9462  -27.5233   20.9389 C   0  0  0  0  0  0  0  0  0  0  0  0
  -30.9175  -21.2484   18.9012 C   0  0  0  0  0  0  0  0  0  0  0  0
  -29.0837  -22.8740   19.5032 C   0  0  0  0  0  0  0  0  0  0  0  0
  -29.8385  -17.9604   21.5209 C   0  0  0  0  0  0  0  0  0  0  0  0
  -30.6239  -20.4681   20.1859 C   0  0  0  0  0  0  0  0  0  0  0  0
  -28.8463  -22.0807   20.7851 C   0  0  0  0  0  0  0  0  0  0  0  0
  -27.7502  -17.2679   20.3905 C   0  0  0  0  0  0  0  0  0  0  0  0
  -20.5054  -27.3188   22.5304 C   0  0  1  0  0  0  0  0  0  0  0  0
  -22.4107  -27.2218   19.2450 C   0  0  1  0  0  0  0  0  0  0  0  0
  -27.2568  -16.5524   21.6576 C   0  0  1  0  0  0  0  0  0  0  0  0
  -30.5350  -22.7239   19.0396 C   0  0  0  0  0  0  0  0  0  0  0  0
  -31.0149  -27.8598   19.7881 C   0  0  0  0  0  0  0  0  0  0  0  0
  -31.3700  -28.9163   17.0779 C   0  0  0  0  0  0  0  0  0  0  0  0
  -23.7477  -22.4901   13.2595 C   0  0  0  0  0  0  0  0  0  0  0  0
  -21.9666  -22.6382   19.6373 C   0  0  0  0  0  0  0  0  0  0  0  0
  -22.6908  -21.3098   17.6426 C   0  0  0  0  0  0  0  0  0  0  0  0
  -20.5564  -22.5991   17.5723 C   0  0  0  0  0  0  0  0  0  0  0  0
  -24.8977  -26.1007   13.6020 C   0  0  0  0  0  0  0  0  0  0  0  0
  -29.6772  -28.4605   20.1207 C   0  0  0  0  0  0  0  0  0  1  0  0
  -22.7575  -23.8404   17.4937 C   0  0  1  0  0  0  0  0  0  0  0  0
  -23.7424  -23.8983   13.8336 C   0  0  2  0  0  0  0  0  0  0  0  0
  -22.0089  -22.6182   18.0963 C   0  0  0  0  0  0  0  0  0  0  0  0
  -31.2074  -26.6763   16.2044 N   0  0  0  0  0  0  0  0  0  0  0  0
  -26.8040  -14.1774   21.1721 N   0  0  0  0  0  0  0  0  0  0  0  0
  -26.3063  -15.4154   21.3324 N   0  0  0  0  0  0  0  0  0  0  0  0
  -22.9911  -26.0263   18.6300 N   0  0  0  0  0  0  0  0  0  0  0  0
  -28.6654  -18.3593   20.7308 N   0  0  0  0  0  0  0  0  0  0  0  0
  -29.2349  -20.6798   20.6176 N   0  0  0  0  0  0  0  0  0  0  0  0
  -24.2908  -16.6594   21.3025 N   0  0  0  0  0  0  0  0  0  0  0  0
  -22.9333  -12.4537   20.3720 N   0  0  0  0  0  0  0  0  0  0  0  0
  -30.7166  -23.3930   17.7703 N   0  0  0  0  0  0  0  0  0  0  0  0
  -20.9838  -27.5121   21.1783 N   0  0  0  0  0  0  0  0  0  0  0  0
  -22.7898  -23.8618   16.0353 N   0  0  0  0  0  0  0  0  0  0  0  0
  -24.8058  -24.6882   13.1508 N   0  3  0  0  0  0  0  0  0  0  0  0
  -22.2292  -14.6175   20.6563 O   0  0  0  0  0  0  0  0  0  0  0  0
  -22.8187  -26.0814   21.2719 O   0  0  0  0  0  0  0  0  0  0  0  0
  -20.9779  -25.4026   17.6328 O   0  0  0  0  0  0  0  0  0  0  0  0
  -25.0996  -23.8889   15.8324 O   0  0  0  0  0  0  0  0  0  0  0  0
  -27.0508  -19.9723   20.4086 O   0  0  0  0  0  0  0  0  0  0  0  0
  -26.1925   -7.9532   19.9747 O   0  0  0  0  0  0  0  0  0  0  0  0
  -28.7537  -27.4176   20.3757 O   0  0  0  0  0  0  0  0  0  1  0  0
  -22.5665   -4.6197   22.4533 F   0  0  0  0  0  0  0  0  0  0  0  0
  -27.0387   -5.9901   21.7277 F   0  0  0  0  0  0  0  0  0  0  0  0
  1  2  1  0  0  0  0
  1  5  2  0  0  0  0
  2  6  2  0  0  0  0
  3  8  2  0  0  0  0
  3 17  1  0  0  0  0
  4  9  1  0  0  0  0
  4 17  2  0  0  0  0
  5 19  1  0  0  0  0
  6 21  1  0  0  0  0
  7 10  2  0  0  0  0
  7 20  1  0  0  0  0
  8 25  1  0  0  0  0
  9 25  2  0  0  0  0
 10 26  1  0  0  0  0
 11 12  2  0  0  0  0
 11 27  1  0  0  0  0
 12 28  1  0  0  0  0
 13 22  1  0  0  0  0
 13 24  2  0  0  0  0
 14 23  1  0  0  0  0
 14 26  2  0  0  0  0
 15 28  2  0  0  0  0
 15 29  1  0  0  0  0
 16 24  1  0  0  0  0
 16 68  2  0  0  0  0
 17 30  1  0  0  0  0
 18 30  1  0  0  0  0
 18 32  2  0  0  0  0
 18 33  1  0  0  0  0
 19 21  2  0  0  0  0
 19 38  1  0  0  0  0
 20 23  2  0  0  0  0
 20 39  1  0  0  0  0
 21 53  1  0  0  0  0
 22 31  2  0  0  0  0
 22 57  1  0  0  0  0
 23 40  1  0  0  0  0
 24 76  1  0  0  0  0
 25 85  1  0  0  0  0
 26 86  1  0  0  0  0
 27 29  2  0  0  0  0
 27 85  1  0  0  0  0
 28 87  1  0  0  0  0
 29 88  1  0  0  0  0
 30 69  2  0  0  0  0
 31 58  1  0  0  0  0
 31 68  1  0  0  0  0
 32 70  1  0  0  0  0
 32 74  1  0  0  0  0
 33 75  1  0  0  0  0
 33 80  2  0  0  0  0
 34 54  1  0  0  0  0
 34 77  1  0  0  0  0
 34 81  2  0  0  0  0
 35 65  1  0  0  0  0
 35 71  1  0  0  0  0
 35 82  2  0  0  0  0
 36 66  1  0  0  0  0
 36 78  1  0  0  0  0
 36 83  2  0  0  0  0
 37 72  1  0  0  0  0
 37 73  1  0  0  0  0
 37 84  2  0  0  0  0
 38 41  1  0  0  0  0
 39 54  1  0  0  0  0
 40 71  1  0  0  0  0
 41 43  1  0  0  0  0
 42 44  1  0  0  0  0
 42 49  1  0  0  0  0
 43 53  1  0  0  0  0
 44 55  1  0  0  0  0
 45 46  1  0  0  0  0
 45 57  1  0  0  0  0
 46 57  1  0  0  0  0
 47 50  1  0  0  0  0
 47 56  1  0  0  0  0
 48 51  1  0  0  0  0
 48 56  1  0  0  0  0
 49 72  1  0  0  0  0
 50 73  1  0  0  0  0
 51 73  1  0  0  0  0
 52 55  1  0  0  0  0
 52 72  1  0  0  0  0
 53 77  1  0  0  0  0
 54 71  1  0  0  0  0
 55 70  1  0  0  0  0
 56 76  1  0  0  0  0
 57 64  1  0  0  0  0
 59 66  1  0  0  0  0
 60 67  1  0  0  0  0
 61 67  1  0  0  0  0
 62 67  1  0  0  0  0
 63 79  1  0  0  0  0
 64 86  1  0  0  0  0
 65 67  1  0  0  0  0
 65 78  1  0  0  0  0
 66 79  1  0  0  0  0
 69 70  1  0  0  0  0
M  CHG  1  79   1
M  ISO  4  37 100  64 101  73 100  86 101
M  END
> <Batch ID>
0168

> <Smiles>
CNC(C)C(=O)NC(C(=O)N1Cc2cc([101O:1][101CH2:1]C3(c4cc(NC5CC[100N:0]([100C:0](=O)N6CCCC(n7nc(-c8ccc(Oc9ccc(F)cc9F)cc8)c(C(N)=O)c7N)C6)CC5)cnc4C)CC3)ccc2CC1C(=O)NC1CCCc2ccccc21)C(C)(C)C

> <Shape>
0.277

> <Color>
0.063

> <Negative vol penalty>
0.000

$$$$

  -OEChem-04052322303D

 89 99  0     1  0  0  0  0  0999 V2000
  -29.0216  -25.0341   16.6756 C   0  0  0  0  0  0  0  0  0  0  0  0
  -27.7849  -25.1332   17.3051 C   0  0  0  0  0  0  0  0  0  0  0  0
  -26.7301  -12.9991   20.7929 C   0  0  0  0  0  0  0  0  0  0  0  0
  -25.6451  -14.4417   22.3988 C   0  0  0  0  0  0  0  0  0  0  0  0
  -30.1520  -25.5932   17.2702 C   0  0  0  0  0  0  0  0  0  0  0  0
  -27.6782  -25.7905   18.5303 C   0  0  0  0  0  0  0  0  0  0  0  0
  -23.6940  -28.9107   18.7201 C   0  0  0  0  0  0  0  0  0  0  0  0
  -26.0514  -11.9009   21.3208 C   0  0  0  0  0  0  0  0  0  0  0  0
  -24.9663  -13.3434   22.9267 C   0  0  0  0  0  0  0  0  0  0  0  0
  -22.4424  -28.3332   18.9291 C   0  0  0  0  0  0  0  0  0  0  0  0
  -22.9578  -10.5513   21.1170 C   0  0  0  0  0  0  0  0  0  0  0  0
  -22.3783   -9.6547   20.2193 C   0  0  0  0  0  0  0  0  0  0  0  0
  -20.9821  -24.4206   21.5098 C   0  0  0  0  0  0  0  0  0  0  0  0
  -22.5592  -28.9385   21.2613 C   0  0  0  0  0  0  0  0  0  0  0  0
  -19.8132  -24.8708   24.0025 C   0  0  0  0  0  0  0  0  0  0  0  0
  -23.7489   -7.8761   21.1111 C   0  0  0  0  0  0  0  0  0  0  0  0
  -26.5271  -14.2696   21.3319 C   0  0  0  0  0  0  0  0  0  0  0  0
  -28.6223  -15.5897   20.7195 C   0  0  0  0  0  0  0  0  0  0  0  0
  -30.0573  -26.2661   18.4985 C   0  0  0  0  0  0  0  0  0  0  0  0
  -24.3937  -29.4978   19.7842 C   0  0  0  0  0  0  0  0  0  0  0  0
  -28.8086  -26.3580   19.1425 C   0  0  0  0  0  0  0  0  0  0  0  0
  -21.5479  -23.8631   22.6563 C   0  0  0  0  0  0  0  0  0  0  0  0
  -23.8185  -29.5250   21.0626 C   0  0  0  0  0  0  0  0  0  0  0  0
  -20.9635  -24.0882   23.9027 C   0  0  0  0  0  0  0  0  0  0  0  0
  -19.8318  -25.2033   21.6096 C   0  0  0  0  0  0  0  0  0  0  0  0
  -25.1694  -12.0730   22.3876 C   0  0  0  0  0  0  0  0  0  0  0  0
  -21.8761  -28.3444   20.2004 C   0  0  0  0  0  0  0  0  0  0  0  0
  -23.9329  -10.1104   22.0117 C   0  0  0  0  0  0  0  0  0  0  0  0
  -22.7738   -8.3171   20.2164 C   0  0  0  0  0  0  0  0  0  0  0  0
  -24.3284   -8.7728   22.0088 C   0  0  0  0  0  0  0  0  0  0  0  0
  -19.2474  -25.4284   22.8559 C   0  0  0  0  0  0  0  0  0  0  0  0
  -27.2284  -15.4043   20.7874 C   0  0  0  0  0  0  0  0  0  0  0  0
  -28.7768  -16.8162   20.1209 C   0  0  0  0  0  0  0  0  0  0  0  0
  -29.6826  -14.7300   21.1581 C   0  0  0  0  0  0  0  0  0  0  0  0
  -27.1742  -28.9400   21.2198 C   0  0  0  0  0  0  0  0  0  0  0  0
  -26.4550  -31.6716   22.8145 C   0  0  0  0  0  0  0  0  0  0  0  0
  -24.0607  -33.8468   23.9018 C   0  0  0  0  0  0  0  0  0  0  0  0
  -25.4762  -21.6532   19.7276 C   0  0  0  0  0  0  0  0  0  0  0  0
  -31.3152  -26.8133   19.1253 C   0  0  0  0  0  0  0  0  0  0  0  0
  -25.7310  -30.1402   19.5367 C   0  0  0  0  0  0  0  0  0  0  0  0
  -24.5196  -30.1607   22.2343 C   0  0  0  0  0  0  0  0  0  0  0  0
  -31.0512  -27.8189   20.2431 C   0  0  0  0  0  0  0  0  0  0  0  0
  -26.6401  -19.7933   17.0565 C   0  0  0  0  0  0  0  0  0  0  0  0
  -21.1747  -22.0980   25.5362 C   0  0  0  0  0  0  0  0  0  0  0  0
  -20.6600  -23.2572   26.3308 C   0  0  0  0  0  0  0  0  0  0  0  0
  -29.9792  -27.2928   21.1922 C   0  0  0  0  0  0  0  0  0  0  0  0
  -27.0647  -18.4700   17.6928 C   0  0  0  0  0  0  0  0  0  0  0  0
  -22.5544  -21.7573   21.6691 C   0  0  0  0  0  0  0  0  0  0  0  0
  -23.9862  -23.8240   21.9661 C   0  0  0  0  0  0  0  0  0  0  0  0
  -25.3344  -20.2956   17.6618 C   0  0  0  0  0  0  0  0  0  0  0  0
  -23.8292  -20.9239   21.5097 C   0  0  0  0  0  0  0  0  0  0  0  0
  -25.2230  -22.9412   21.8265 C   0  0  0  0  0  0  0  0  0  0  0  0
  -25.8030  -19.1395   19.7977 C   0  0  0  0  0  0  0  0  0  0  0  0
  -22.7991  -23.0159   22.5209 C   0  0  0  0  0  0  0  0  0  0  0  0
  -21.5520  -23.5012   25.1429 C   0  0  0  0  0  0  0  0  0  0  0  0
  -28.6480  -27.0848   20.4601 C   0  0  1  0  0  0  0  0  0  0  0  0
  -26.5814  -30.2547   20.7981 C   0  0  1  0  0  0  0  0  0  0  0  0
  -27.1249  -18.5878   19.2261 C   0  0  1  0  0  0  0  0  0  0  0  0
  -23.7748  -35.9672   25.2132 C   0  0  0  0  0  0  0  0  0  0  0  0
  -26.8854  -30.1228   25.4080 C   0  0  0  0  0  0  0  0  0  0  0  0
  -25.6897  -31.9580   26.6207 C   0  0  0  0  0  0  0  0  0  0  0  0
  -27.8172  -32.4436   25.4120 C   0  0  0  0  0  0  0  0  0  0  0  0
  -22.8942  -35.2627   21.5794 C   0  0  0  0  0  0  0  0  0  0  0  0
  -20.2456  -26.6735   19.5939 C   0  0  0  0  0  0  0  0  0  1  0  0
  -19.2561  -25.7821   20.3575 C   0  0  1  0  0  0  0  0  0  0  0  0
  -25.7105  -32.0033   24.0852 C   0  0  1  0  0  0  0  0  0  0  0  0
  -23.9685  -35.3605   23.8322 C   0  0  2  0  0  0  0  0  0  0  0  0
  -26.5131  -31.6181   25.3600 C   0  0  0  0  0  0  0  0  0  0  0  0
  -26.5461  -16.4310   20.2733 N   0  0  0  0  0  0  0  0  0  0  0  0
  -27.5152  -17.2733   19.8766 N   0  0  0  0  0  0  0  0  0  0  0  0
  -25.8278  -30.7700   21.9430 N   0  0  0  0  0  0  0  0  0  0  0  0
  -25.4306  -20.3902   19.1183 N   0  0  0  0  0  0  0  0  0  0  0  0
  -24.9357  -21.7566   21.0181 N   0  0  0  0  0  0  0  0  0  0  0  0
  -29.8674  -17.5375   19.7851 N   0  0  0  0  0  0  0  0  0  0  0  0
  -30.1585  -14.8714   22.4688 N   0  0  0  0  0  0  0  0  0  0  0  0
  -27.9772  -28.3516   20.2613 N   0  0  0  0  0  0  0  0  0  0  0  0
  -25.3677  -33.4188   23.9999 N   0  0  0  0  0  0  0  0  0  0  0  0
  -22.8215  -35.7706   22.9736 N   0  3  0  0  0  0  0  0  0  0  0  0
  -30.2039  -13.8732   20.4048 O   0  0  0  0  0  0  0  0  0  0  0  0
  -26.9230  -28.4931   22.3329 O   0  0  0  0  0  0  0  0  0  0  0  0
  -27.5494  -32.1987   22.5997 O   0  0  0  0  0  0  0  0  0  0  0  0
  -23.0719  -33.1174   23.8759 O   0  0  0  0  0  0  0  0  0  0  0  0
  -25.9712  -22.6312   19.1533 O   0  0  0  0  0  0  0  0  0  0  0  0
  -18.8317  -24.7209   19.4948 O   0  0  0  0  0  0  0  0  0  0  0  0
  -24.5067  -11.0016   22.9029 O   0  0  0  0  0  0  0  0  0  0  0  0
  -20.6302  -27.7695   20.4114 O   0  0  0  0  0  0  0  0  0  1  0  0
  -22.2162   -7.4558   19.3553 F   0  0  0  0  0  0  0  0  0  0  0  0
  -25.2638   -8.3430   22.8668 F   0  0  0  0  0  0  0  0  0  0  0  0
  -17.8245  -26.3919   23.0175 Cl  0  0  0  0  0  0  0  0  0  0  0  0
  1  2  1  0  0  0  0
  1  5  2  0  0  0  0
  2  6  2  0  0  0  0
  3  8  2  0  0  0  0
  3 17  1  0  0  0  0
  4  9  1  0  0  0  0
  4 17  2  0  0  0  0
  5 19  1  0  0  0  0
  6 21  1  0  0  0  0
  7 10  2  0  0  0  0
  7 20  1  0  0  0  0
  8 26  1  0  0  0  0
  9 26  2  0  0  0  0
 10 27  1  0  0  0  0
 11 12  2  0  0  0  0
 11 28  1  0  0  0  0
 12 29  1  0  0  0  0
 13 22  2  0  0  0  0
 13 25  1  0  0  0  0
 14 23  1  0  0  0  0
 14 27  2  0  0  0  0
 15 24  2  0  0  0  0
 15 31  1  0  0  0  0
 16 29  2  0  0  0  0
 16 30  1  0  0  0  0
 17 32  1  0  0  0  0
 18 32  1  0  0  0  0
 18 33  2  0  0  0  0
 18 34  1  0  0  0  0
 19 21  2  0  0  0  0
 19 39  1  0  0  0  0
 20 23  2  0  0  0  0
 20 40  1  0  0  0  0
 21 56  1  0  0  0  0
 22 24  1  0  0  0  0
 22 54  1  0  0  0  0
 23 41  1  0  0  0  0
 24 55  1  0  0  0  0
 25 31  2  0  0  0  0
 25 65  1  0  0  0  0
 26 85  1  0  0  0  0
 27 86  1  0  0  0  0
 28 30  2  0  0  0  0
 28 85  1  0  0  0  0
 29 87  1  0  0  0  0
 30 88  1  0  0  0  0
 31 89  1  0  0  0  0
 32 69  2  0  0  0  0
 33 70  1  0  0  0  0
 33 74  1  0  0  0  0
 34 75  1  0  0  0  0
 34 79  2  0  0  0  0
 35 57  1  0  0  0  0
 35 76  1  0  0  0  0
 35 80  2  0  0  0  0
 36 66  1  0  0  0  0
 36 71  1  0  0  0  0
 36 81  2  0  0  0  0
 37 67  1  0  0  0  0
 37 77  1  0  0  0  0
 37 82  2  0  0  0  0
 38 72  1  0  0  0  0
 38 73  1  0  0  0  0
 38 83  2  0  0  0  0
 39 42  1  0  0  0  0
 40 57  1  0  0  0  0
 41 71  1  0  0  0  0
 42 46  1  0  0  0  0
 43 47  1  0  0  0  0
 43 50  1  0  0  0  0
 44 45  1  0  0  0  0
 44 55  1  0  0  0  0
 45 55  1  0  0  0  0
 46 56  1  0  0  0  0
 47 58  1  0  0  0  0
 48 51  1  0  0  0  0
 48 54  1  0  0  0  0
 49 52  1  0  0  0  0
 49 54  1  0  0  0  0
 50 72  1  0  0  0  0
 51 73  1  0  0  0  0
 52 73  1  0  0  0  0
 53 58  1  0  0  0  0
 53 72  1  0  0  0  0
 56 76  1  0  0  0  0
 57 71  1  0  0  0  0
 58 70  1  0  0  0  0
 59 67  1  0  0  0  0
 60 68  1  0  0  0  0
 61 68  1  0  0  0  0
 62 68  1  0  0  0  0
 63 78  1  0  0  0  0
 64 65  1  0  0  0  0
 64 86  1  0  0  0  0
 65 84  1  0  0  0  0
 66 68  1  0  0  0  0
 66 77  1  0  0  0  0
 67 78  1  0  0  0  0
 69 70  1  0  0  0  0
M  CHG  1  78   1
M  ISO  4  38 100  64 101  73 100  86 101
M  END
> <Batch ID>
0168

> <Smiles>
CNC(C)C(=O)NC(C(=O)N1Cc2cc([101O:1][101CH2:1]C(O)c3cc(C4CC[100N:0]([100C:0](=O)N5CCCC(n6nc(-c7ccc(Oc8ccc(F)cc8F)cc7)c(C(N)=O)c6N)C5)CC4)c(C4CC4)cc3Cl)ccc2CC1C(=O)NC1CCCc2ccccc21)C(C)(C)C

> <Shape>
0.295

> <Color>
0.092

> <Negative vol penalty>
0.000

$$$$

  -OEChem-04052322303D

 86 95  0     1  0  0  0  0  0999 V2000
  -22.2285  -22.2690   13.6855 C   0  0  0  0  0  0  0  0  0  0  0  0
  -22.6394  -21.8427   14.9444 C   0  0  0  0  0  0  0  0  0  0  0  0
  -23.0106   -9.9458   19.9326 C   0  0  0  0  0  0  0  0  0  0  0  0
  -23.8466   -9.8296   22.1964 C   0  0  0  0  0  0  0  0  0  0  0  0
  -22.2883  -23.6222   13.3552 C   0  0  0  0  0  0  0  0  0  0  0  0
  -23.1116  -22.7693   15.8733 C   0  0  0  0  0  0  0  0  0  0  0  0
  -22.3693  -22.5959   21.9499 C   0  0  0  0  0  0  0  0  0  0  0  0
  -22.2413   -8.8044   20.1581 C   0  0  0  0  0  0  0  0  0  0  0  0
  -23.0772   -8.6882   22.4219 C   0  0  0  0  0  0  0  0  0  0  0  0
  -23.2005  -22.1689   22.9846 C   0  0  0  0  0  0  0  0  0  0  0  0
  -19.8485   -7.9567   23.1009 C   0  0  0  0  0  0  0  0  0  0  0  0
  -19.1302   -7.8865   24.2945 C   0  0  0  0  0  0  0  0  0  0  0  0
  -29.2844  -18.0481   24.9381 C   0  0  0  0  0  0  0  0  0  0  0  0
  -23.9375  -24.4410   23.3220 C   0  0  0  0  0  0  0  0  0  0  0  0
  -20.3369   -5.8838   24.9029 C   0  0  0  0  0  0  0  0  0  0  0  0
  -23.8133  -10.4584   20.9518 C   0  0  0  0  0  0  0  0  0  0  0  0
  -24.2265  -12.9756   20.9294 C   0  0  0  0  0  0  0  0  0  0  0  0
  -22.7524  -24.5671   14.2839 C   0  0  0  0  0  0  0  0  0  0  0  0
  -22.3240  -23.9493   21.5857 C   0  0  0  0  0  0  0  0  0  0  0  0
  -23.1790  -24.1363   15.5546 C   0  0  0  0  0  0  0  0  0  0  0  0
  -28.7023  -19.2062   24.4085 C   0  0  0  0  0  0  0  0  0  0  0  0
  -23.1030  -24.8829   22.2840 C   0  0  0  0  0  0  0  0  0  0  0  0
  -30.0503  -17.2121   24.1340 C   0  0  0  0  0  0  0  0  0  0  0  0
  -22.2746   -8.1756   21.4027 C   0  0  0  0  0  0  0  0  0  0  0  0
  -23.9869  -23.0911   23.6689 C   0  0  0  0  0  0  0  0  0  0  0  0
  -20.8109   -6.9904   22.8082 C   0  0  0  0  0  0  0  0  0  0  0  0
  -19.3744   -6.8501   25.1955 C   0  0  0  0  0  0  0  0  0  0  0  0
  -21.0552   -5.9540   23.7092 C   0  0  0  0  0  0  0  0  0  0  0  0
  -24.6087  -11.6371   20.7193 C   0  0  0  0  0  0  0  0  0  0  0  0
  -28.9597  -19.4895   23.0655 C   0  0  0  0  0  0  0  0  0  0  0  0
  -30.2198  -17.5693   22.8104 C   0  0  0  0  0  0  0  0  0  0  0  0
  -25.3279  -13.7091   20.5613 C   0  0  0  0  0  0  0  0  0  0  0  0
  -22.9867  -13.5084   21.4141 C   0  0  0  0  0  0  0  0  0  0  0  0
  -23.0091  -25.5867   18.9487 C   0  0  0  0  0  0  0  0  0  0  0  0
  -21.7704  -28.0659   20.6344 C   0  0  0  0  0  0  0  0  0  0  0  0
  -21.0427  -29.4220   23.6804 C   0  0  0  0  0  0  0  0  0  0  0  0
  -30.8355  -14.5734   20.5865 C   0  0  0  0  0  0  0  0  0  0  0  0
  -22.8433  -26.0130   13.8646 C   0  0  0  0  0  0  0  0  0  0  0  0
  -21.4022  -24.3977   20.4850 C   0  0  0  0  0  0  0  0  0  0  0  0
  -23.0755  -26.3502   21.9452 C   0  0  0  0  0  0  0  0  0  0  0  0
  -28.4042  -20.7339   22.4367 C   0  0  0  0  0  0  0  0  0  0  0  0
  -23.0039  -26.9780   15.0365 C   0  0  0  0  0  0  0  0  0  0  0  0
  -29.5576  -12.3183   18.1589 C   0  0  0  0  0  0  0  0  0  0  0  0
  -24.0694  -26.4711   16.0033 C   0  0  0  0  0  0  0  0  0  0  0  0
  -28.1261  -12.0481   18.6255 C   0  0  0  0  0  0  0  0  0  0  0  0
  -30.5180  -12.4601   19.3377 C   0  0  0  0  0  0  0  0  0  0  0  0
  -28.6857  -13.1830   20.8163 C   0  0  0  0  0  0  0  0  0  0  0  0
  -28.2673  -21.8531   23.4544 C   0  0  0  0  0  0  0  0  0  0  0  0
  -23.6739  -25.1142   16.5981 C   0  0  1  0  0  0  0  0  0  0  0  0
  -27.8711  -20.1283   25.2785 C   0  0  2  0  0  0  0  0  0  0  0  0
  -21.8209  -25.7240   19.8581 C   0  0  1  0  0  0  0  0  0  0  0  0
  -27.6689  -13.0887   19.6657 C   0  0  2  0  0  0  0  0  0  0  0  0
  -30.6568  -15.9779   24.7064 C   0  0  0  0  0  0  0  0  0  0  0  0
  -26.6543  -19.3892   25.8524 C   0  0  0  0  0  0  0  0  0  0  0  0
  -20.0673  -31.4774   24.7394 C   0  0  0  0  0  0  0  0  0  0  0  0
  -24.3518  -29.5862   20.0557 C   0  0  0  0  0  0  0  0  0  0  0  0
  -23.7353  -31.1876   21.8787 C   0  0  0  0  0  0  0  0  0  0  0  0
  -22.2694  -30.9590   19.8734 C   0  0  0  0  0  0  0  0  0  0  0  0
  -18.8605  -27.8751   24.9469 C   0  0  0  0  0  0  0  0  0  0  0  0
  -31.0268  -16.7094   21.8939 C   0  0  0  0  0  0  0  0  0  0  0  0
  -27.0507  -22.5228   25.5104 C   0  0  0  0  0  0  0  0  0  0  0  0
  -25.9964  -23.4229   24.8969 C   0  0  0  0  0  0  0  0  0  1  0  0
  -22.3288  -29.0982   21.5839 C   0  0  1  0  0  0  0  0  0  0  0  0
  -19.7829  -30.0782   24.2159 C   0  0  2  0  0  0  0  0  0  0  0  0
  -23.1735  -30.1799   20.8532 C   0  0  0  0  0  0  0  0  0  0  0  0
  -25.8555  -11.5240   20.2537 N   0  0  0  0  0  0  0  0  0  0  0  0
  -29.6956  -18.6840   22.2582 N   0  0  0  0  0  0  0  0  0  0  0  0
  -26.2662  -12.8007   20.1681 N   0  0  0  0  0  0  0  0  0  0  0  0
  -22.1628  -26.7385   20.8572 N   0  0  0  0  0  0  0  0  0  0  0  0
  -30.0271  -13.4667   20.2824 N   0  0  0  0  0  0  0  0  0  0  0  0
  -25.5755  -15.0359   20.5387 N   0  0  0  0  0  0  0  0  0  0  0  0
  -21.9599  -12.6143   21.7466 N   0  0  0  0  0  0  0  0  0  0  0  0
  -22.6839  -25.2880   17.6394 N   0  0  0  0  0  0  0  0  0  0  0  0
  -21.1901  -29.6293   22.3252 N   0  0  0  0  0  0  0  0  0  0  0  0
  -30.2990  -15.4909   21.4840 N   0  0  0  0  0  0  0  0  0  0  0  0
  -27.3499  -21.3878   24.5619 N   0  3  1  0  0  0  0  0  0  0  0  0
  -19.2093  -29.2681   25.3275 N   0  3  0  0  0  0  0  0  0  0  0  0
  -22.7895  -14.7415   21.5328 O   0  0  0  0  0  0  0  0  0  0  0  0
  -24.1373  -25.7418   19.4012 O   0  0  0  0  0  0  0  0  0  0  0  0
  -21.0081  -28.4232   19.7327 O   0  0  0  0  0  0  0  0  0  0  0  0
  -21.8204  -28.7920   24.3937 O   0  0  0  0  0  0  0  0  0  0  0  0
  -31.9547  -14.7429   20.0908 O   0  0  0  0  0  0  0  0  0  0  0  0
  -21.5238   -7.0619   21.6231 O   0  0  0  0  0  0  0  0  0  0  0  0
  -24.7996  -22.6769   24.6788 O   0  0  0  0  0  0  0  0  0  1  0  0
  -18.6857   -6.7837   26.3424 F   0  0  0  0  0  0  0  0  0  0  0  0
  -21.9794   -5.0234   23.4341 F   0  0  0  0  0  0  0  0  0  0  0  0
  1  2  1  0  0  0  0
  1  5  2  0  0  0  0
  2  6  2  0  0  0  0
  3  8  2  0  0  0  0
  3 16  1  0  0  0  0
  4  9  1  0  0  0  0
  4 16  2  0  0  0  0
  5 18  1  0  0  0  0
  6 20  1  0  0  0  0
  7 10  2  0  0  0  0
  7 19  1  0  0  0  0
  8 24  1  0  0  0  0
  9 24  2  0  0  0  0
 10 25  1  0  0  0  0
 11 12  2  0  0  0  0
 11 26  1  0  0  0  0
 12 27  1  0  0  0  0
 13 21  1  0  0  0  0
 13 23  2  0  0  0  0
 14 22  1  0  0  0  0
 14 25  2  0  0  0  0
 15 27  2  0  0  0  0
 15 28  1  0  0  0  0
 16 29  1  0  0  0  0
 17 29  1  0  0  0  0
 17 32  2  0  0  0  0
 17 33  1  0  0  0  0
 18 20  2  0  0  0  0
 18 38  1  0  0  0  0
 19 22  2  0  0  0  0
 19 39  1  0  0  0  0
 20 49  1  0  0  0  0
 21 30  2  0  0  0  0
 21 50  1  0  0  0  0
 22 40  1  0  0  0  0
 23 31  1  0  0  0  0
 23 53  1  0  0  0  0
 24 83  1  0  0  0  0
 25 84  1  0  0  0  0
 26 28  2  0  0  0  0
 26 83  1  0  0  0  0
 27 85  1  0  0  0  0
 28 86  1  0  0  0  0
 29 66  2  0  0  0  0
 30 41  1  0  0  0  0
 30 67  1  0  0  0  0
 31 60  1  0  0  0  0
 31 67  2  0  0  0  0
 32 68  1  0  0  0  0
 32 71  1  0  0  0  0
 33 72  1  0  0  0  0
 33 78  2  0  0  0  0
 34 51  1  0  0  0  0
 34 73  1  0  0  0  0
 34 79  2  0  0  0  0
 35 63  1  0  0  0  0
 35 69  1  0  0  0  0
 35 80  2  0  0  0  0
 36 64  1  0  0  0  0
 36 74  1  0  0  0  0
 36 81  2  0  0  0  0
 37 70  1  0  0  0  0
 37 75  1  0  0  0  0
 37 82  2  0  0  0  0
 38 42  1  0  0  0  0
 39 51  1  0  0  0  0
 40 69  1  0  0  0  0
 41 48  1  0  0  0  0
 42 44  1  0  0  0  0
 43 45  1  0  0  0  0
 43 46  1  0  0  0  0
 44 49  1  0  0  0  0
 45 52  1  0  0  0  0
 46 70  1  0  0  0  0
 47 52  1  0  0  0  0
 47 70  1  0  0  0  0
 48 76  1  0  0  0  0
 49 73  1  0  0  0  0
 50 54  1  0  0  0  0
 50 76  1  0  0  0  0
 51 69  1  0  0  0  0
 52 68  1  0  0  0  0
 55 64  1  0  0  0  0
 56 65  1  0  0  0  0
 57 65  1  0  0  0  0
 58 65  1  0  0  0  0
 59 77  1  0  0  0  0
 60 75  1  0  0  0  0
 61 62  1  0  0  0  0
 61 76  1  0  0  0  0
 62 84  1  0  0  0  0
 63 65  1  0  0  0  0
 63 74  1  0  0  0  0
 64 77  1  0  0  0  0
 66 68  1  0  0  0  0
M  CHG  2  76   1  77   1
M  ISO  4  37 100  62 101  75 100  84 101
M  END
> <Batch ID>
0168

> <Smiles>
CNC(C)C(=O)NC(C(=O)N1Cc2cc([101O:1][101CH2:1]CN3CCc4nc(C[100NH:0][100C:0](=O)N5CCCC(n6nc(-c7ccc(Oc8ccc(F)cc8F)cc7)c(C(N)=O)c6N)C5)c(C)cc4C3C)ccc2CC1C(=O)NC1CCCc2ccccc21)C(C)(C)C

> <Shape>
0.243

> <Color>
0.202

> <Negative vol penalty>
0.000

$$$$

  -OEChem-04052322303D

 84 93  0     1  0  0  0  0  0999 V2000
  -16.6337  -30.1030   23.3113 C   0  0  0  0  0  0  0  0  0  0  0  0
  -17.6455  -30.4613   22.4263 C   0  0  0  0  0  0  0  0  0  0  0  0
  -26.4783  -15.8989   20.4021 C   0  0  0  0  0  0  0  0  0  0  0  0
  -28.5909  -14.7706   20.0843 C   0  0  0  0  0  0  0  0  0  0  0  0
  -16.9337  -29.3418   24.4402 C   0  0  0  0  0  0  0  0  0  0  0  0
  -18.9583  -30.0595   22.6704 C   0  0  0  0  0  0  0  0  0  0  0  0
  -24.9431  -28.1478   19.2289 C   0  0  0  0  0  0  0  0  0  0  0  0
  -25.8345  -14.6656   20.5016 C   0  0  0  0  0  0  0  0  0  0  0  0
  -27.9471  -13.5372   20.1839 C   0  0  0  0  0  0  0  0  0  0  0  0
  -26.3009  -28.4596   19.1750 C   0  0  0  0  0  0  0  0  0  0  0  0
  -25.4121  -12.2576   22.8374 C   0  0  0  0  0  0  0  0  0  0  0  0
  -24.4815  -12.0930   23.8633 C   0  0  0  0  0  0  0  0  0  0  0  0
  -31.3798  -24.4720   20.9287 C   0  0  0  0  0  0  0  0  0  0  0  0
  -26.6886  -27.0801   21.1156 C   0  0  0  0  0  0  0  0  0  0  0  0
  -22.7583  -11.6494   22.2290 C   0  0  0  0  0  0  0  0  0  0  0  0
  -27.8565  -15.9515   20.1934 C   0  0  0  0  0  0  0  0  0  0  0  0
  -29.0825  -17.9792   21.1382 C   0  0  0  0  0  0  0  0  0  0  0  0
  -18.2493  -28.9224   24.6932 C   0  0  0  0  0  0  0  0  0  0  0  0
  -24.4453  -27.3071   20.2348 C   0  0  0  0  0  0  0  0  0  0  0  0
  -19.2765  -29.2932   23.8045 C   0  0  0  0  0  0  0  0  0  0  0  0
  -30.5646  -24.4849   19.8107 C   0  0  0  0  0  0  0  0  0  0  0  0
  -25.3245  -26.7571   21.1785 C   0  0  0  0  0  0  0  0  0  0  0  0
  -30.3006  -25.6723   19.1211 C   0  0  0  0  0  0  0  0  0  0  0  0
  -31.9385  -25.6802   21.3510 C   0  0  0  0  0  0  0  0  0  0  0  0
  -30.8473  -26.8749   19.5323 C   0  0  0  0  0  0  0  0  0  0  0  0
  -31.6740  -26.8729   20.6580 C   0  0  0  0  0  0  0  0  0  0  0  0
  -26.5689  -13.4847   20.3926 C   0  0  0  0  0  0  0  0  0  0  0  0
  -27.1734  -27.9281   20.1201 C   0  0  0  0  0  0  0  0  0  0  0  0
  -25.0158  -12.1181   21.5073 C   0  0  0  0  0  0  0  0  0  0  0  0
  -23.1546  -11.7889   23.5592 C   0  0  0  0  0  0  0  0  0  0  0  0
  -23.6889  -11.8140   21.2031 C   0  0  0  0  0  0  0  0  0  0  0  0
  -28.5220  -17.2253   20.0898 C   0  0  0  0  0  0  0  0  0  0  0  0
  -29.5888  -19.0984   20.5238 C   0  0  0  0  0  0  0  0  0  0  0  0
  -29.1405  -17.6934   22.5420 C   0  0  0  0  0  0  0  0  0  0  0  0
  -22.3578  -27.6416   22.6084 C   0  0  0  0  0  0  0  0  0  0  0  0
  -22.8504  -24.4560   22.9707 C   0  0  0  0  0  0  0  0  0  0  0  0
  -24.8980  -21.7680   22.4919 C   0  0  0  0  0  0  0  0  0  0  0  0
  -28.7271  -23.2801   16.8602 C   0  0  0  0  0  0  0  0  0  0  0  0
  -18.5327  -28.1410   25.9517 C   0  0  0  0  0  0  0  0  0  0  0  0
  -22.9823  -26.9590   20.2632 C   0  0  0  0  0  0  0  0  0  0  0  0
  -29.8378  -23.3434   19.1771 C   0  0  0  0  0  0  0  0  0  0  0  0
  -24.8435  -25.8332   22.2664 C   0  0  0  0  0  0  0  0  0  0  0  0
  -29.4030  -25.4078   17.9596 C   0  0  0  0  0  0  0  0  0  0  0  0
  -19.8880  -27.4385   25.9402 C   0  0  0  0  0  0  0  0  0  0  0  0
  -30.2370  -20.1764   15.6217 C   0  0  0  0  0  0  0  0  0  0  0  0
  -20.9784  -28.3900   25.4579 C   0  0  0  0  0  0  0  0  0  0  0  0
  -29.9313  -19.1845   16.7463 C   0  0  0  0  0  0  0  0  0  0  0  0
  -29.1681  -21.2615   15.5075 C   0  0  0  0  0  0  0  0  0  0  0  0
  -28.5658  -20.9746   17.8783 C   0  0  0  0  0  0  0  0  0  0  0  0
  -20.7087  -28.8555   24.0219 C   0  0  1  0  0  0  0  0  0  0  0  0
  -22.5030  -26.5036   21.6381 C   0  0  1  0  0  0  0  0  0  0  0  0
  -29.6571  -19.9143   18.0756 C   0  0  1  0  0  0  0  0  0  0  0  0
  -32.8215  -25.6782   22.5572 C   0  0  0  0  0  0  0  0  0  0  0  0
  -32.2849  -28.1549   21.1317 C   0  0  0  0  0  0  0  0  0  0  0  0
  -31.0749  -28.0769   17.3335 C   0  0  0  0  0  0  0  0  0  0  0  0
  -25.0454  -19.3014   22.9292 C   0  0  0  0  0  0  0  0  0  0  0  0
  -23.4992  -25.0162   25.8990 C   0  0  0  0  0  0  0  0  0  0  0  0
  -24.5353  -22.7410   26.0325 C   0  0  0  0  0  0  0  0  0  0  0  0
  -22.1072  -22.9752   25.5110 C   0  0  0  0  0  0  0  0  0  0  0  0
  -25.0415  -21.1467   19.6019 C   0  0  0  0  0  0  0  0  0  0  0  0
  -29.0554  -28.5010   18.7838 C   0  0  0  0  0  0  0  0  0  1  0  0
  -30.5569  -28.1320   18.7850 C   0  0  1  0  0  0  0  0  0  0  0  0
  -23.8176  -23.6066   23.7595 C   0  0  1  0  0  0  0  0  0  0  0  0
  -24.6255  -20.3795   21.9422 C   0  0  2  0  0  0  0  0  0  0  0  0
  -23.4989  -23.6037   25.2813 C   0  0  0  0  0  0  0  0  0  0  0  0
  -28.6589  -17.8157   18.8996 N   0  0  0  0  0  0  0  0  0  0  0  0
  -29.3112  -18.9526   19.1964 N   0  0  0  0  0  0  0  0  0  0  0  0
  -23.4033  -25.5279   22.2559 N   0  0  0  0  0  0  0  0  0  0  0  0
  -29.1939  -23.9507   17.9935 N   0  0  0  0  0  0  0  0  0  0  0  0
  -28.9359  -21.8987   16.8026 N   0  0  0  0  0  0  0  0  0  0  0  0
  -30.2398  -20.1832   20.9948 N   0  0  0  0  0  0  0  0  0  0  0  0
  -28.5714  -16.4991   23.0048 N   0  0  0  0  0  0  0  0  0  0  0  0
  -21.0706  -27.8195   23.0783 N   0  0  0  0  0  0  0  0  0  0  0  0
  -23.7974  -22.2849   23.1422 N   0  0  0  0  0  0  0  0  0  0  0  0
  -25.3739  -20.1698   20.6706 N   0  3  0  0  0  0  0  0  0  0  0  0
  -29.6664  -18.4817   23.3639 O   0  0  0  0  0  0  0  0  0  0  0  0
  -23.3411  -28.3080   22.9097 O   0  0  0  0  0  0  0  0  0  0  0  0
  -21.6495  -24.1742   22.9825 O   0  0  0  0  0  0  0  0  0  0  0  0
  -25.9801  -22.3357   22.3611 O   0  0  0  0  0  0  0  0  0  0  0  0
  -28.2009  -23.8912   15.9213 O   0  0  0  0  0  0  0  0  0  0  0  0
  -25.9411  -12.2810   20.4899 O   0  0  0  0  0  0  0  0  0  0  0  0
  -28.5079  -28.2334   20.0699 O   0  0  0  0  0  0  0  0  0  1  0  0
  -22.2614  -11.6294   24.5445 F   0  0  0  0  0  0  0  0  0  0  0  0
  -23.3026  -11.6776   19.9272 F   0  0  0  0  0  0  0  0  0  0  0  0
  1  2  1  0  0  0  0
  1  5  2  0  0  0  0
  2  6  2  0  0  0  0
  3  8  2  0  0  0  0
  3 16  1  0  0  0  0
  4  9  1  0  0  0  0
  4 16  2  0  0  0  0
  5 18  1  0  0  0  0
  6 20  1  0  0  0  0
  7 10  2  0  0  0  0
  7 19  1  0  0  0  0
  8 27  1  0  0  0  0
  9 27  2  0  0  0  0
 10 28  1  0  0  0  0
 11 12  2  0  0  0  0
 11 29  1  0  0  0  0
 12 30  1  0  0  0  0
 13 21  2  0  0  0  0
 13 24  1  0  0  0  0
 14 22  1  0  0  0  0
 14 28  2  0  0  0  0
 15 30  2  0  0  0  0
 15 31  1  0  0  0  0
 16 32  1  0  0  0  0
 17 32  1  0  0  0  0
 17 33  2  0  0  0  0
 17 34  1  0  0  0  0
 18 20  2  0  0  0  0
 18 39  1  0  0  0  0
 19 22  2  0  0  0  0
 19 40  1  0  0  0  0
 20 50  1  0  0  0  0
 21 23  1  0  0  0  0
 21 41  1  0  0  0  0
 22 42  1  0  0  0  0
 23 25  2  0  0  0  0
 23 43  1  0  0  0  0
 24 26  2  0  0  0  0
 24 53  1  0  0  0  0
 25 26  1  0  0  0  0
 25 62  1  0  0  0  0
 26 54  1  0  0  0  0
 27 81  1  0  0  0  0
 28 82  1  0  0  0  0
 29 31  2  0  0  0  0
 29 81  1  0  0  0  0
 30 83  1  0  0  0  0
 31 84  1  0  0  0  0
 32 66  2  0  0  0  0
 33 67  1  0  0  0  0
 33 71  1  0  0  0  0
 34 72  1  0  0  0  0
 34 76  2  0  0  0  0
 35 51  1  0  0  0  0
 35 73  1  0  0  0  0
 35 77  2  0  0  0  0
 36 63  1  0  0  0  0
 36 68  1  0  0  0  0
 36 78  2  0  0  0  0
 37 64  1  0  0  0  0
 37 74  1  0  0  0  0
 37 79  2  0  0  0  0
 38 69  1  0  0  0  0
 38 70  1  0  0  0  0
 38 80  2  0  0  0  0
 39 44  1  0  0  0  0
 40 51  1  0  0  0  0
 41 69  1  0  0  0  0
 42 68  1  0  0  0  0
 43 69  1  0  0  0  0
 44 46  1  0  0  0  0
 45 47  1  0  0  0  0
 45 48  1  0  0  0  0
 46 50  1  0  0  0  0
 47 52  1  0  0  0  0
 48 70  1  0  0  0  0
 49 52  1  0  0  0  0
 49 70  1  0  0  0  0
 50 73  1  0  0  0  0
 51 68  1  0  0  0  0
 52 67  1  0  0  0  0
 55 62  1  0  0  0  0
 56 64  1  0  0  0  0
 57 65  1  0  0  0  0
 58 65  1  0  0  0  0
 59 65  1  0  0  0  0
 60 75  1  0  0  0  0
 61 62  1  0  0  0  0
 61 82  1  0  0  0  0
 63 65  1  0  0  0  0
 63 74  1  0  0  0  0
 64 75  1  0  0  0  0
 66 67  1  0  0  0  0
M  CHG  1  75   1
M  ISO  4  38 100  61 101  69 100  82 101
M  END
> <Batch ID>
0168

> <Smiles>
CNC(C)C(=O)NC(C(=O)N1Cc2cc([101O:1][101CH2:1]C(C)c3c(C)c(C)cc4c3C[100N:0]([100C:0](=O)N3CCCC(n5nc(-c6ccc(Oc7ccc(F)cc7F)cc6)c(C(N)=O)c5N)C3)C4)ccc2CC1C(=O)NC1CCCc2ccccc21)C(C)(C)C

> <Shape>
0.230

> <Color>
0.062

> <Negative vol penalty>
0.000

$$$$

  -OEChem-04052322303D

 83 92  0     1  0  0  0  0  0999 V2000
  -22.0475  -10.8183   19.8182 C   0  0  0  0  0  0  0  0  0  0  0  0
  -21.6494  -12.0166   20.4022 C   0  0  0  0  0  0  0  0  0  0  0  0
  -27.8487  -26.0746   21.5931 C   0  0  0  0  0  0  0  0  0  0  0  0
  -26.1816  -24.9931   20.2189 C   0  0  0  0  0  0  0  0  0  0  0  0
  -23.4039  -10.5161   19.7049 C   0  0  0  0  0  0  0  0  0  0  0  0
  -22.6076  -12.9130   20.8742 C   0  0  0  0  0  0  0  0  0  0  0  0
  -22.2782  -19.0280   20.8055 C   0  0  0  0  0  0  0  0  0  0  0  0
  -28.0967  -24.8659   22.2435 C   0  0  0  0  0  0  0  0  0  0  0  0
  -26.4296  -23.7844   20.8693 C   0  0  0  0  0  0  0  0  0  0  0  0
  -21.9260  -19.9593   21.7813 C   0  0  0  0  0  0  0  0  0  0  0  0
  -26.6589  -23.0024   24.6693 C   0  0  0  0  0  0  0  0  0  0  0  0
  -26.7629  -23.0251   26.0600 C   0  0  0  0  0  0  0  0  0  0  0  0
  -24.2574  -20.2723   22.3157 C   0  0  0  0  0  0  0  0  0  0  0  0
  -21.8047  -26.1610   23.2631 C   0  0  0  0  0  0  0  0  0  0  0  0
  -29.0164  -22.1677   25.9055 C   0  0  0  0  0  0  0  0  0  0  0  0
  -19.1835  -25.8397   22.4537 C   0  0  0  0  0  0  0  0  0  0  0  0
  -26.8911  -26.1383   20.5808 C   0  0  0  0  0  0  0  0  0  0  0  0
  -27.2697  -27.8762   18.7522 C   0  0  0  0  0  0  0  0  0  0  0  0
  -24.3794  -11.4136   20.1670 C   0  0  0  0  0  0  0  0  0  0  0  0
  -23.6244  -18.7031   20.5846 C   0  0  0  0  0  0  0  0  0  0  0  0
  -23.9783  -12.6220   20.7682 C   0  0  0  0  0  0  0  0  0  0  0  0
  -24.6243  -19.3384   21.3347 C   0  0  0  0  0  0  0  0  0  0  0  0
  -19.8627  -26.9845   22.0990 C   0  0  0  0  0  0  0  0  0  0  0  0
  -21.1826  -27.1392   22.5090 C   0  0  0  0  0  0  0  0  0  0  0  0
  -27.3872  -23.7208   21.8816 C   0  0  0  0  0  0  0  0  0  0  0  0
  -22.9154  -20.5796   22.5385 C   0  0  0  0  0  0  0  0  0  0  0  0
  -27.7337  -22.5623   23.8966 C   0  0  0  0  0  0  0  0  0  0  0  0
  -27.9416  -22.6078   26.6782 C   0  0  0  0  0  0  0  0  0  0  0  0
  -28.9124  -22.1450   24.5147 C   0  0  0  0  0  0  0  0  0  0  0  0
  -26.6340  -27.3867   19.9089 C   0  0  0  0  0  0  0  0  0  0  0  0
  -21.0418  -25.0421   23.5689 C   0  0  0  0  0  0  0  0  0  0  0  0
  -26.6720  -29.0908   18.5198 C   0  0  0  0  0  0  0  0  0  0  0  0
  -28.3075  -27.2857   17.9585 C   0  0  0  0  0  0  0  0  0  0  0  0
  -25.3585  -16.0492   20.8148 C   0  0  0  0  0  0  0  0  0  0  0  0
  -27.6738  -17.9144   19.5177 C   0  0  0  0  0  0  0  0  0  0  0  0
  -29.4842  -21.0154   19.1665 C   0  0  0  0  0  0  0  0  0  0  0  0
  -22.8539  -28.9727   22.5408 C   0  0  0  0  0  0  0  0  0  0  0  0
  -25.8324  -11.0221   20.0655 C   0  0  0  0  0  0  0  0  0  0  0  0
  -23.9895  -17.7162   19.5099 C   0  0  0  0  0  0  0  0  0  0  0  0
  -26.0852  -19.0398   21.1226 C   0  0  0  0  0  0  0  0  0  0  0  0
  -26.7933  -12.1936   20.2514 C   0  0  0  0  0  0  0  0  0  0  0  0
  -25.4961  -31.3428   21.9943 C   0  0  0  0  0  0  0  0  0  0  0  0
  -26.3866  -13.0310   21.4597 C   0  0  0  0  0  0  0  0  0  0  0  0
  -25.5062  -31.5683   20.4868 C   0  0  0  0  0  0  0  0  0  0  0  0
  -24.0772  -31.1180   22.4921 C   0  0  0  0  0  0  0  0  0  0  0  0
  -20.6766  -28.9732   21.1509 C   0  0  0  0  0  0  0  0  0  0  0  0
  -23.4325  -30.0780   20.3227 C   0  0  0  0  0  0  0  0  0  0  0  0
  -19.3695  -28.1747   21.3386 C   0  0  2  0  0  0  0  0  0  0  0  0
  -24.9883  -13.6311   21.2697 C   0  0  1  0  0  0  0  0  0  0  0  0
  -25.3601  -17.0810   19.7226 C   0  0  1  0  0  0  0  0  0  0  0  0
  -24.8118  -30.4319   19.7201 C   0  0  2  0  0  0  0  0  0  0  0  0
  -18.3201  -28.9629   22.1116 C   0  0  0  0  0  0  0  0  0  0  0  0
  -31.2667  -22.2934   17.9471 C   0  0  0  0  0  0  0  0  0  0  0  0
  -29.4605  -17.1054   21.8550 C   0  0  0  0  0  0  0  0  0  0  0  0
  -30.9654  -19.0210   21.2771 C   0  0  0  0  0  0  0  0  0  0  0  0
  -30.6128  -17.1752   19.6365 C   0  0  0  0  0  0  0  0  0  0  0  0
  -27.4978  -22.3566   17.4304 C   0  0  0  0  0  0  0  0  0  0  0  0
  -20.9970  -22.8315   24.7252 C   0  0  0  0  0  0  0  0  0  0  0  0
  -21.1847  -21.7598   23.6643 C   0  0  0  0  0  0  0  0  0  1  0  0
  -28.7457  -18.8248   20.0665 C   0  0  1  0  0  0  0  0  0  0  0  0
  -29.8681  -21.7016   17.8679 C   0  0  2  0  0  0  0  0  0  0  0  0
  -29.9185  -18.0360   20.7144 C   0  0  0  0  0  0  0  0  0  0  0  0
  -19.7515  -24.8551   23.1852 N   0  0  0  0  0  0  0  0  0  0  0  0
  -25.7039  -28.2222   20.3789 N   0  0  0  0  0  0  0  0  0  0  0  0
  -25.7508  -29.2490   19.5131 N   0  0  0  0  0  0  0  0  0  0  0  0
  -21.7025  -28.3653   22.0373 N   0  0  0  0  0  0  0  0  0  0  0  0
  -26.3912  -18.0629   20.0644 N   0  0  0  0  0  0  0  0  0  0  0  0
  -23.4113  -30.0207   21.7900 N   0  0  0  0  0  0  0  0  0  0  0  0
  -26.8499  -30.0283   17.5649 N   0  0  0  0  0  0  0  0  0  0  0  0
  -28.8082  -26.0329   18.3384 N   0  0  0  0  0  0  0  0  0  0  0  0
  -21.6670  -24.0303   24.3419 N   0  0  0  0  0  0  0  0  0  0  0  0
  -25.0450  -14.7742   20.3839 N   0  0  0  0  0  0  0  0  0  0  0  0
  -29.1463  -19.6939   18.9653 N   0  0  0  0  0  0  0  0  0  0  0  0
  -28.9096  -22.8004   17.5597 N   0  3  0  0  0  0  0  0  0  0  0  0
  -28.7885  -27.8596   16.9521 O   0  0  0  0  0  0  0  0  0  0  0  0
  -25.6235  -16.3846   21.9633 O   0  0  0  0  0  0  0  0  0  0  0  0
  -27.9621  -17.1064   18.6314 O   0  0  0  0  0  0  0  0  0  0  0  0
  -29.4877  -21.5930   20.2514 O   0  0  0  0  0  0  0  0  0  0  0  0
  -23.3438  -28.6492   23.6306 O   0  0  0  0  0  0  0  0  0  0  0  0
  -27.6291  -22.5411   22.5159 O   0  0  0  0  0  0  0  0  0  0  0  0
  -22.5719  -21.4949   23.4988 O   0  0  0  0  0  0  0  0  0  1  0  0
  -28.0419  -22.6311   28.0137 F   0  0  0  0  0  0  0  0  0  0  0  0
  -29.9487  -21.7223   23.7777 F   0  0  0  0  0  0  0  0  0  0  0  0
  1  2  1  0  0  0  0
  1  5  2  0  0  0  0
  2  6  2  0  0  0  0
  3  8  2  0  0  0  0
  3 17  1  0  0  0  0
  4  9  1  0  0  0  0
  4 17  2  0  0  0  0
  5 19  1  0  0  0  0
  6 21  1  0  0  0  0
  7 10  2  0  0  0  0
  7 20  1  0  0  0  0
  8 25  1  0  0  0  0
  9 25  2  0  0  0  0
 10 26  1  0  0  0  0
 11 12  2  0  0  0  0
 11 27  1  0  0  0  0
 12 28  1  0  0  0  0
 13 22  1  0  0  0  0
 13 26  2  0  0  0  0
 14 24  2  0  0  0  0
 14 31  1  0  0  0  0
 15 28  2  0  0  0  0
 15 29  1  0  0  0  0
 16 23  2  0  0  0  0
 16 63  1  0  0  0  0
 17 30  1  0  0  0  0
 18 30  1  0  0  0  0
 18 32  2  0  0  0  0
 18 33  1  0  0  0  0
 19 21  2  0  0  0  0
 19 38  1  0  0  0  0
 20 22  2  0  0  0  0
 20 39  1  0  0  0  0
 21 49  1  0  0  0  0
 22 40  1  0  0  0  0
 23 24  1  0  0  0  0
 23 48  1  0  0  0  0
 24 66  1  0  0  0  0
 25 80  1  0  0  0  0
 26 81  1  0  0  0  0
 27 29  2  0  0  0  0
 27 80  1  0  0  0  0
 28 82  1  0  0  0  0
 29 83  1  0  0  0  0
 30 64  2  0  0  0  0
 31 63  2  0  0  0  0
 31 71  1  0  0  0  0
 32 65  1  0  0  0  0
 32 69  1  0  0  0  0
 33 70  1  0  0  0  0
 33 75  2  0  0  0  0
 34 50  1  0  0  0  0
 34 72  1  0  0  0  0
 34 76  2  0  0  0  0
 35 60  1  0  0  0  0
 35 67  1  0  0  0  0
 35 77  2  0  0  0  0
 36 61  1  0  0  0  0
 36 73  1  0  0  0  0
 36 78  2  0  0  0  0
 37 66  1  0  0  0  0
 37 68  1  0  0  0  0
 37 79  2  0  0  0  0
 38 41  1  0  0  0  0
 39 50  1  0  0  0  0
 40 67  1  0  0  0  0
 41 43  1  0  0  0  0
 42 44  1  0  0  0  0
 42 45  1  0  0  0  0
 43 49  1  0  0  0  0
 44 51  1  0  0  0  0
 45 68  1  0  0  0  0
 46 48  1  0  0  0  0
 46 66  1  0  0  0  0
 47 51  1  0  0  0  0
 47 68  1  0  0  0  0
 48 52  1  0  0  0  0
 49 72  1  0  0  0  0
 50 67  1  0  0  0  0
 51 65  1  0  0  0  0
 53 61  1  0  0  0  0
 54 62  1  0  0  0  0
 55 62  1  0  0  0  0
 56 62  1  0  0  0  0
 57 74  1  0  0  0  0
 58 59  1  0  0  0  0
 58 71  1  0  0  0  0
 59 81  1  0  0  0  0
 60 62  1  0  0  0  0
 60 73  1  0  0  0  0
 61 74  1  0  0  0  0
 64 65  1  0  0  0  0
M  CHG  1  74   1
M  ISO  4  37 100  59 101  66 100  81 101
M  END
> <Batch ID>
0168

> <Smiles>
CNC(C)C(=O)NC(C(=O)N1Cc2cc([101O:1][101CH2:1]CNc3cc4c(cn3)C(C)C[100N:0]4[100C:0](=O)N3CCCC(n4nc(-c5ccc(Oc6ccc(F)cc6F)cc5)c(C(N)=O)c4N)C3)ccc2CC1C(=O)NC1CCCc2ccccc21)C(C)(C)C

> <Shape>
0.240

> <Color>
0.077

> <Negative vol penalty>
0.000

$$$$

  -OEChem-04052322303D

 87 98  0     1  0  0  0  0  0999 V2000
  -19.2240  -24.2040   22.0766 C   0  0  0  0  0  0  0  0  0  0  0  0
  -20.4386  -24.5175   21.4752 C   0  0  0  0  0  0  0  0  0  0  0  0
  -29.9635  -19.8253   23.2224 C   0  0  0  0  0  0  0  0  0  0  0  0
  -30.7973  -22.0528   22.7980 C   0  0  0  0  0  0  0  0  0  0  0  0
  -18.3883  -25.2237   22.5303 C   0  0  0  0  0  0  0  0  0  0  0  0
  -20.8178  -25.8511   21.3261 C   0  0  0  0  0  0  0  0  0  0  0  0
  -25.6527  -26.6504   22.6027 C   0  0  0  0  0  0  0  0  0  0  0  0
  -30.8261  -19.7101   24.3125 C   0  0  0  0  0  0  0  0  0  0  0  0
  -31.6598  -21.9377   23.8881 C   0  0  0  0  0  0  0  0  0  0  0  0
  -26.6258  -26.2777   21.6764 C   0  0  0  0  0  0  0  0  0  0  0  0
  -34.1026  -19.0684   24.8386 C   0  0  0  0  0  0  0  0  0  0  0  0
  -34.8191  -17.8793   24.9745 C   0  0  0  0  0  0  0  0  0  0  0  0
  -26.8198  -28.5745   20.9650 C   0  0  0  0  0  0  0  0  0  0  0  0
  -33.7841  -17.5014   27.1246 C   0  0  0  0  0  0  0  0  0  0  0  0
  -29.9491  -20.9966   22.4651 C   0  0  0  0  0  0  0  0  0  0  0  0
  -27.7408  -21.6107   21.3454 C   0  0  0  0  0  0  0  0  0  0  0  0
  -18.7618  -26.5701   22.3954 C   0  0  0  0  0  0  0  0  0  0  0  0
  -25.2474  -27.9886   22.7097 C   0  0  0  0  0  0  0  0  0  0  0  0
  -19.9858  -26.8898   21.7772 C   0  0  0  0  0  0  0  0  0  0  0  0
  -25.8433  -28.9620   21.8952 C   0  0  0  0  0  0  0  0  0  0  0  0
  -31.6742  -20.7663   24.6454 C   0  0  0  0  0  0  0  0  0  0  0  0
  -27.2075  -27.2393   20.8554 C   0  0  0  0  0  0  0  0  0  0  0  0
  -33.2270  -19.4740   25.8458 C   0  0  0  0  0  0  0  0  0  0  0  0
  -34.6598  -17.0958   26.1174 C   0  0  0  0  0  0  0  0  0  0  0  0
  -33.0677  -18.6905   26.9888 C   0  0  0  0  0  0  0  0  0  0  0  0
  -29.0587  -21.1159   21.3386 C   0  0  0  0  0  0  0  0  0  0  0  0
  -31.8341  -24.9799   18.3760 C   0  0  0  0  0  0  0  0  0  0  0  0
  -31.5602  -25.0280   17.0269 C   0  0  0  0  0  0  0  0  0  0  0  0
  -29.3488  -25.3828   17.4883 C   0  0  0  0  0  0  0  0  0  0  0  0
  -29.6224  -25.3340   18.8375 C   0  0  0  0  0  0  0  0  0  0  0  0
  -27.3316  -21.5156   20.0377 C   0  0  0  0  0  0  0  0  0  0  0  0
  -26.9566  -22.1116   22.4362 C   0  0  0  0  0  0  0  0  0  0  0  0
  -22.5063  -29.5424   22.2903 C   0  0  0  0  0  0  0  0  0  0  0  0
  -24.2063  -32.0563   23.4361 C   0  0  0  0  0  0  0  0  0  0  0  0
  -27.2553  -33.5074   23.9308 C   0  0  0  0  0  0  0  0  0  0  0  0
  -30.0707  -21.5096   14.8791 C   0  0  0  0  0  0  0  0  0  0  0  0
  -17.8039  -27.6391   22.8585 C   0  0  0  0  0  0  0  0  0  0  0  0
  -24.2157  -28.3786   23.7324 C   0  0  0  0  0  0  0  0  0  0  0  0
  -25.4578  -30.4153   21.9848 C   0  0  0  0  0  0  0  0  0  0  0  0
  -18.4493  -29.0151   23.0007 C   0  0  0  0  0  0  0  0  0  0  0  0
  -28.0189  -18.9878   16.0528 C   0  0  0  0  0  0  0  0  0  0  0  0
  -19.3009  -29.3345   21.7761 C   0  0  0  0  0  0  0  0  0  0  0  0
  -33.7307  -23.3435   19.0074 C   0  0  0  0  0  0  0  0  0  0  0  0
  -33.4268  -24.1472   20.2330 C   0  0  0  0  0  0  0  0  0  0  0  0
  -27.9288  -19.2740   17.5513 C   0  0  0  0  0  0  0  0  0  0  0  0
  -29.4365  -19.2099   15.5383 C   0  0  0  0  0  0  0  0  0  0  0  0
  -32.3535  -22.2244   15.7707 C   0  0  0  0  0  0  0  0  0  0  0  0
  -31.1804  -23.6068   14.1666 C   0  0  0  0  0  0  0  0  0  0  0  0
  -29.8805  -20.8838   17.3078 C   0  0  0  0  0  0  0  0  0  0  0  0
  -20.4434  -28.3236   21.6198 C   0  0  1  0  0  0  0  0  0  0  0  0
  -33.2238  -24.7547   18.8701 C   0  0  0  0  0  0  0  0  0  0  0  0
  -32.6585  -24.8552   16.0036 C   0  0  0  0  0  0  0  0  0  0  0  0
  -23.5097  -29.6892   23.3991 C   0  0  1  0  0  0  0  0  0  0  0  0
  -33.1392  -23.4837   15.5708 C   0  0  2  0  0  0  0  0  0  0  0  0
  -32.4071  -24.3421   14.5986 C   0  0  1  0  0  0  0  0  0  0  0  0
  -28.4590  -20.6813   17.8700 C   0  0  2  0  0  0  0  0  0  0  0  0
  -27.9650  -25.6104   16.9833 C   0  0  0  0  0  0  0  0  0  0  0  0
  -28.3231  -35.5803   24.8583 C   0  0  0  0  0  0  0  0  0  0  0  0
  -23.3547  -33.6050   20.9489 C   0  0  0  0  0  0  0  0  0  0  0  0
  -25.1679  -35.2591   21.4432 C   0  0  0  0  0  0  0  0  0  0  0  0
  -23.3058  -34.9291   23.0700 C   0  0  0  0  0  0  0  0  0  0  0  0
  -28.7581  -31.9649   25.9608 C   0  0  0  0  0  0  0  0  0  0  0  0
  -28.5466  -25.4999   19.8556 C   0  0  0  0  0  0  0  0  0  1  0  0
  -25.0678  -33.1331   22.8220 C   0  0  1  0  0  0  0  0  0  0  0  0
  -27.8747  -34.1577   25.1547 C   0  0  2  0  0  0  0  0  0  0  0  0
  -24.2301  -34.2040   22.0677 C   0  0  0  0  0  0  0  0  0  0  0  0
  -29.4601  -20.7346   20.1231 N   0  0  0  0  0  0  0  0  0  0  0  0
  -30.3127  -25.2304   16.5588 N   0  0  0  0  0  0  0  0  0  0  0  0
  -30.8700  -25.1320   19.3055 N   0  0  0  0  0  0  0  0  0  0  0  0
  -28.3880  -20.9898   19.3539 N   0  0  0  0  0  0  0  0  0  0  0  0
  -24.4400  -30.7457   22.9960 N   0  0  0  0  0  0  0  0  0  0  0  0
  -29.9291  -20.5431   15.8811 N   0  0  0  0  0  0  0  0  0  0  0  0
  -31.0941  -22.4449   15.0472 N   0  0  0  0  0  0  0  0  0  0  0  0
  -26.1748  -21.8312   19.4176 N   0  0  0  0  0  0  0  0  0  0  0  0
  -27.5308  -22.1395   23.7144 N   0  0  0  0  0  0  0  0  0  0  0  0
  -21.5112  -28.6197   22.5507 N   0  0  0  0  0  0  0  0  0  0  0  0
  -25.8861  -33.6683   23.9048 N   0  0  0  0  0  0  0  0  0  0  0  0
  -29.0590  -33.3773   25.6124 N   0  3  0  0  0  0  0  0  0  0  0  0
  -25.7758  -22.5070   22.2849 O   0  0  0  0  0  0  0  0  0  0  0  0
  -22.6253  -30.2174   21.2745 O   0  0  0  0  0  0  0  0  0  0  0  0
  -23.3621  -32.3656   24.2807 O   0  0  0  0  0  0  0  0  0  0  0  0
  -27.9200  -32.9191   23.0808 O   0  0  0  0  0  0  0  0  0  0  0  0
  -29.3417  -21.5217   13.8798 O   0  0  0  0  0  0  0  0  0  0  0  0
  -32.5159  -20.6544   25.7092 O   0  0  0  0  0  0  0  0  0  0  0  0
  -28.1754  -26.8711   19.9324 O   0  0  0  0  0  0  0  0  0  1  0  0
  -35.3467  -15.9532   26.2470 F   0  0  0  0  0  0  0  0  0  0  0  0
  -32.2271  -19.0744   27.9592 F   0  0  0  0  0  0  0  0  0  0  0  0
  1  2  1  0  0  0  0
  1  5  2  0  0  0  0
  2  6  2  0  0  0  0
  3  8  2  0  0  0  0
  3 15  1  0  0  0  0
  4  9  1  0  0  0  0
  4 15  2  0  0  0  0
  5 17  1  0  0  0  0
  6 19  1  0  0  0  0
  7 10  2  0  0  0  0
  7 18  1  0  0  0  0
  8 21  1  0  0  0  0
  9 21  2  0  0  0  0
 10 22  1  0  0  0  0
 11 12  2  0  0  0  0
 11 23  1  0  0  0  0
 12 24  1  0  0  0  0
 13 20  1  0  0  0  0
 13 22  2  0  0  0  0
 14 24  2  0  0  0  0
 14 25  1  0  0  0  0
 15 26  1  0  0  0  0
 16 26  1  0  0  0  0
 16 31  2  0  0  0  0
 16 32  1  0  0  0  0
 17 19  2  0  0  0  0
 17 37  1  0  0  0  0
 18 20  2  0  0  0  0
 18 38  1  0  0  0  0
 19 50  1  0  0  0  0
 20 39  1  0  0  0  0
 21 84  1  0  0  0  0
 22 85  1  0  0  0  0
 23 25  2  0  0  0  0
 23 84  1  0  0  0  0
 24 86  1  0  0  0  0
 25 87  1  0  0  0  0
 26 67  2  0  0  0  0
 27 28  1  0  0  0  0
 27 51  1  0  0  0  0
 27 69  2  0  0  0  0
 28 52  1  0  0  0  0
 28 68  2  0  0  0  0
 29 30  2  0  0  0  0
 29 57  1  0  0  0  0
 29 68  1  0  0  0  0
 30 63  1  0  0  0  0
 30 69  1  0  0  0  0
 31 70  1  0  0  0  0
 31 74  1  0  0  0  0
 32 75  1  0  0  0  0
 32 79  2  0  0  0  0
 33 53  1  0  0  0  0
 33 76  1  0  0  0  0
 33 80  2  0  0  0  0
 34 64  1  0  0  0  0
 34 71  1  0  0  0  0
 34 81  2  0  0  0  0
 35 65  1  0  0  0  0
 35 77  1  0  0  0  0
 35 82  2  0  0  0  0
 36 72  1  0  0  0  0
 36 73  1  0  0  0  0
 36 83  2  0  0  0  0
 37 40  1  0  0  0  0
 38 53  1  0  0  0  0
 39 71  1  0  0  0  0
 40 42  1  0  0  0  0
 41 45  1  0  0  0  0
 41 46  1  0  0  0  0
 42 50  1  0  0  0  0
 43 44  1  0  0  0  0
 43 51  1  0  0  0  0
 44 51  1  0  0  0  0
 45 56  1  0  0  0  0
 46 72  1  0  0  0  0
 47 54  1  0  0  0  0
 47 73  1  0  0  0  0
 48 55  1  0  0  0  0
 48 73  1  0  0  0  0
 49 56  1  0  0  0  0
 49 72  1  0  0  0  0
 50 76  1  0  0  0  0
 52 54  1  0  0  0  0
 52 55  1  0  0  0  0
 53 71  1  0  0  0  0
 54 55  1  0  0  0  0
 56 70  1  0  0  0  0
 58 65  1  0  0  0  0
 59 66  1  0  0  0  0
 60 66  1  0  0  0  0
 61 66  1  0  0  0  0
 62 78  1  0  0  0  0
 63 85  1  0  0  0  0
 64 66  1  0  0  0  0
 64 77  1  0  0  0  0
 65 78  1  0  0  0  0
 67 70  1  0  0  0  0
M  CHG  1  78   1
M  ISO  4  36 100  63 101  73 100  85 101
M  END
> <Batch ID>
0168

> <Smiles>
CNC(C)C(=O)NC(C(=O)N1Cc2cc([101O:1][101CH2:1]c3nc(C4CC4)c(C4C5C[100N:0]([100C:0](=O)N6CCCC(n7nc(-c8ccc(Oc9ccc(F)cc9F)cc8)c(C(N)=O)c7N)C6)CC54)nc3C)ccc2CC1C(=O)NC1CCCc2ccccc21)C(C)(C)C

> <Shape>
0.200

> <Color>
0.106

> <Negative vol penalty>
0.000

$$$$

  -OEChem-04052322303D

 87 96  0     1  0  0  0  0  0999 V2000
  -17.2849  -28.7530   23.5388 C   0  0  0  0  0  0  0  0  0  0  0  0
  -17.8573  -27.4987   23.7245 C   0  0  0  0  0  0  0  0  0  0  0  0
  -23.1134  -10.1609   22.0829 C   0  0  0  0  0  0  0  0  0  0  0  0
  -25.0555  -10.3464   23.5079 C   0  0  0  0  0  0  0  0  0  0  0  0
  -17.9266  -29.6997   22.7415 C   0  0  0  0  0  0  0  0  0  0  0  0
  -19.0714  -27.1901   23.1120 C   0  0  0  0  0  0  0  0  0  0  0  0
  -25.0315  -23.3537   24.1493 C   0  0  0  0  0  0  0  0  0  0  0  0
  -22.6281   -9.1237   22.8792 C   0  0  0  0  0  0  0  0  0  0  0  0
  -24.5702   -9.3092   24.3043 C   0  0  0  0  0  0  0  0  0  0  0  0
  -25.8213  -22.3974   23.5126 C   0  0  0  0  0  0  0  0  0  0  0  0
  -23.2020   -5.8175   23.2845 C   0  0  0  0  0  0  0  0  0  0  0  0
  -22.6969   -4.6884   22.6399 C   0  0  0  0  0  0  0  0  0  0  0  0
  -26.8785  -24.1392   22.2212 C   0  0  0  0  0  0  0  0  0  0  0  0
  -20.5487   -5.0536   23.6833 C   0  0  0  0  0  0  0  0  0  0  0  0
  -24.3271  -10.7723   22.3972 C   0  0  0  0  0  0  0  0  0  0  0  0
  -24.5840  -13.2210   21.7298 C   0  0  0  0  0  0  0  0  0  0  0  0
  -19.1539  -29.4059   22.1267 C   0  0  0  0  0  0  0  0  0  0  0  0
  -25.1518  -24.7111   23.8184 C   0  0  0  0  0  0  0  0  0  0  0  0
  -19.7295  -28.1333   22.3046 C   0  0  0  0  0  0  0  0  0  0  0  0
  -26.0909  -25.1110   22.8570 C   0  0  0  0  0  0  0  0  0  0  0  0
  -28.9899  -18.5070   19.5194 C   0  0  0  0  0  0  0  0  0  0  0  0
  -28.0816  -19.3214   20.2143 C   0  0  0  0  0  0  0  0  0  0  0  0
  -28.2803  -19.6291   21.5532 C   0  0  0  0  0  0  0  0  0  0  0  0
  -23.3564   -8.6978   23.9899 C   0  0  0  0  0  0  0  0  0  0  0  0
  -26.7430  -22.7898   22.5463 C   0  0  0  0  0  0  0  0  0  0  0  0
  -22.3804   -6.5646   24.1287 C   0  0  0  0  0  0  0  0  0  0  0  0
  -21.3703   -4.3064   22.8392 C   0  0  0  0  0  0  0  0  0  0  0  0
  -21.0538   -6.1827   24.3280 C   0  0  0  0  0  0  0  0  0  0  0  0
  -24.8292  -11.8435   21.5746 C   0  0  0  0  0  0  0  0  0  0  0  0
  -30.1013  -18.0314   20.2288 C   0  0  0  0  0  0  0  0  0  0  0  0
  -29.4013  -19.1128   22.1663 C   0  0  0  0  0  0  0  0  0  0  0  0
  -25.2812  -13.8115   20.7042 C   0  0  0  0  0  0  0  0  0  0  0  0
  -23.7966  -13.9057   22.7130 C   0  0  0  0  0  0  0  0  0  0  0  0
  -23.2015  -26.9031   22.5957 C   0  0  0  0  0  0  0  0  0  0  0  0
  -25.6831  -28.8965   23.2206 C   0  0  0  0  0  0  0  0  0  0  0  0
  -29.0379  -29.2792   23.7166 C   0  0  0  0  0  0  0  0  0  0  0  0
  -29.8902  -14.2871   17.5935 C   0  0  0  0  0  0  0  0  0  0  0  0
  -19.7866  -30.4452   21.2355 C   0  0  0  0  0  0  0  0  0  0  0  0
  -24.3113  -25.7331   24.5336 C   0  0  0  0  0  0  0  0  0  0  0  0
  -26.2730  -26.5578   22.4802 C   0  0  0  0  0  0  0  0  0  0  0  0
  -21.2556  -30.1690   20.9255 C   0  0  0  0  0  0  0  0  0  0  0  0
  -27.5416  -11.7787   16.6613 C   0  0  0  0  0  0  0  0  0  0  0  0
  -21.4526  -28.7087   20.5310 C   0  0  0  0  0  0  0  0  0  0  0  0
  -26.6108  -11.6814   17.8713 C   0  0  0  0  0  0  0  0  0  0  0  0
  -29.9294  -17.5350   17.3570 C   0  0  0  0  0  0  0  0  0  0  0  0
  -28.9869  -12.0382   17.0806 C   0  0  0  0  0  0  0  0  0  0  0  0
  -28.2449  -13.1070   19.1736 C   0  0  0  0  0  0  0  0  0  0  0  0
  -28.7305  -18.1907   18.0617 C   0  0  1  0  0  0  0  0  0  0  0  0
  -21.0576  -27.7695   21.6770 C   0  0  1  0  0  0  0  0  0  0  0  0
  -24.1551  -27.0325   23.7497 C   0  0  1  0  0  0  0  0  0  0  0  0
  -26.7672  -12.9016   18.7987 C   0  0  2  0  0  0  0  0  0  0  0  0
  -30.6962  -16.5443   18.2374 C   0  0  1  0  0  0  0  0  0  0  0  0
  -31.1995  -17.2135   19.5506 C   0  0  0  0  0  0  0  0  0  0  0  0
  -26.9127  -19.9762   19.5486 C   0  0  0  0  0  0  0  0  0  0  0  0
  -29.6842  -19.4047   23.6037 C   0  0  0  0  0  0  0  0  0  0  0  0
  -27.4502  -17.3602   17.8891 C   0  0  0  0  0  0  0  0  0  0  0  0
  -32.3627  -18.1834   19.2295 C   0  0  0  0  0  0  0  0  0  0  0  0
  -31.7575  -16.1341   20.5105 C   0  0  0  0  0  0  0  0  0  0  0  0
  -30.7750  -31.0331   24.1680 C   0  0  0  0  0  0  0  0  0  0  0  0
  -25.5423  -29.7831   20.3044 C   0  0  0  0  0  0  0  0  0  0  0  0
  -27.8268  -30.7730   20.5677 C   0  0  0  0  0  0  0  0  0  0  0  0
  -25.9303  -31.6347   21.9401 C   0  0  0  0  0  0  0  0  0  0  0  0
  -29.7979  -28.0296   26.2894 C   0  0  0  0  0  0  0  0  0  0  0  0
  -27.3288  -20.4973   22.3065 C   0  0  0  0  0  0  0  0  0  1  0  0
  -26.9014  -29.3586   22.4581 C   0  0  1  0  0  0  0  0  0  0  0  0
  -29.8199  -30.0228   24.7843 C   0  0  2  0  0  0  0  0  0  0  0  0
  -26.5457  -30.3598   21.3231 C   0  0  0  0  0  0  0  0  0  0  0  0
  -25.6202  -11.5747   20.5325 N   0  0  0  0  0  0  0  0  0  0  0  0
  -30.3097  -18.3361   21.5396 N   0  0  0  0  0  0  0  0  0  0  0  0
  -25.8781  -12.7914   20.0235 N   0  0  0  0  0  0  0  0  0  0  0  0
  -25.4235  -27.5188   23.2031 N   0  0  0  0  0  0  0  0  0  0  0  0
  -29.0663  -13.2092   17.9572 N   0  0  0  0  0  0  0  0  0  0  0  0
  -25.4358  -15.0985   20.3273 N   0  0  0  0  0  0  0  0  0  0  0  0
  -23.1470  -13.1464   23.6958 N   0  0  0  0  0  0  0  0  0  0  0  0
  -22.0990  -27.7318   22.6813 N   0  0  0  0  0  0  0  0  0  0  0  0
  -27.8289  -29.8874   23.4524 N   0  0  0  0  0  0  0  0  0  0  0  0
  -29.9027  -15.3595   18.4770 N   0  0  0  0  0  0  0  0  0  0  0  0
  -30.6139  -29.0658   25.6057 N   0  3  0  0  0  0  0  0  0  0  0  0
  -23.6593  -15.1525   22.7102 O   0  0  0  0  0  0  0  0  0  0  0  0
  -23.4485  -26.1113   21.6937 O   0  0  0  0  0  0  0  0  0  0  0  0
  -24.9915  -29.7265   23.8159 O   0  0  0  0  0  0  0  0  0  0  0  0
  -29.4591  -28.2629   23.1688 O   0  0  0  0  0  0  0  0  0  0  0  0
  -30.5605  -14.2956   16.5554 O   0  0  0  0  0  0  0  0  0  0  0  0
  -22.8831   -7.6858   24.7673 O   0  0  0  0  0  0  0  0  0  0  0  0
  -27.5201  -21.8518   21.9184 O   0  0  0  0  0  0  0  0  0  1  0  0
  -20.8850   -3.2230   22.2189 F   0  0  0  0  0  0  0  0  0  0  0  0
  -20.2593   -6.8971   25.1369 F   0  0  0  0  0  0  0  0  0  0  0  0
  1  2  1  0  0  0  0
  1  5  2  0  0  0  0
  2  6  2  0  0  0  0
  3  8  2  0  0  0  0
  3 15  1  0  0  0  0
  4  9  1  0  0  0  0
  4 15  2  0  0  0  0
  5 17  1  0  0  0  0
  6 19  1  0  0  0  0
  7 10  2  0  0  0  0
  7 18  1  0  0  0  0
  8 24  1  0  0  0  0
  9 24  2  0  0  0  0
 10 25  1  0  0  0  0
 11 12  2  0  0  0  0
 11 26  1  0  0  0  0
 12 27  1  0  0  0  0
 13 20  1  0  0  0  0
 13 25  2  0  0  0  0
 14 27  2  0  0  0  0
 14 28  1  0  0  0  0
 15 29  1  0  0  0  0
 16 29  1  0  0  0  0
 16 32  2  0  0  0  0
 16 33  1  0  0  0  0
 17 19  2  0  0  0  0
 17 38  1  0  0  0  0
 18 20  2  0  0  0  0
 18 39  1  0  0  0  0
 19 49  1  0  0  0  0
 20 40  1  0  0  0  0
 21 22  1  0  0  0  0
 21 30  2  0  0  0  0
 21 48  1  0  0  0  0
 22 23  2  0  0  0  0
 22 54  1  0  0  0  0
 23 31  1  0  0  0  0
 23 64  1  0  0  0  0
 24 84  1  0  0  0  0
 25 85  1  0  0  0  0
 26 28  2  0  0  0  0
 26 84  1  0  0  0  0
 27 86  1  0  0  0  0
 28 87  1  0  0  0  0
 29 68  2  0  0  0  0
 30 53  1  0  0  0  0
 30 69  1  0  0  0  0
 31 55  1  0  0  0  0
 31 69  2  0  0  0  0
 32 70  1  0  0  0  0
 32 73  1  0  0  0  0
 33 74  1  0  0  0  0
 33 79  2  0  0  0  0
 34 50  1  0  0  0  0
 34 75  1  0  0  0  0
 34 80  2  0  0  0  0
 35 65  1  0  0  0  0
 35 71  1  0  0  0  0
 35 81  2  0  0  0  0
 36 66  1  0  0  0  0
 36 76  1  0  0  0  0
 36 82  2  0  0  0  0
 37 72  1  0  0  0  0
 37 77  1  0  0  0  0
 37 83  2  0  0  0  0
 38 41  1  0  0  0  0
 39 50  1  0  0  0  0
 40 71  1  0  0  0  0
 41 43  1  0  0  0  0
 42 44  1  0  0  0  0
 42 46  1  0  0  0  0
 43 49  1  0  0  0  0
 44 51  1  0  0  0  0
 45 48  1  0  0  0  0
 45 52  1  0  0  0  0
 46 72  1  0  0  0  0
 47 51  1  0  0  0  0
 47 72  1  0  0  0  0
 48 56  1  0  0  0  0
 49 75  1  0  0  0  0
 50 71  1  0  0  0  0
 51 70  1  0  0  0  0
 52 53  1  0  0  0  0
 52 77  1  0  0  0  0
 53 57  1  0  0  0  0
 53 58  1  0  0  0  0
 59 66  1  0  0  0  0
 60 67  1  0  0  0  0
 61 67  1  0  0  0  0
 62 67  1  0  0  0  0
 63 78  1  0  0  0  0
 64 85  1  0  0  0  0
 65 67  1  0  0  0  0
 65 76  1  0  0  0  0
 66 78  1  0  0  0  0
 68 70  1  0  0  0  0
M  CHG  1  78   1
M  ISO  4  37 100  64 101  77 100  85 101
M  END
> <Batch ID>
0168

> <Smiles>
CNC(C)C(=O)NC(C(=O)N1Cc2cc([101O:1][101CH2:1]c3c(C)nc4c(c3C)C(C)CC([100NH:0][100C:0](=O)N3CCCC(n5nc(-c6ccc(Oc7ccc(F)cc7F)cc6)c(C(N)=O)c5N)C3)C4(C)C)ccc2CC1C(=O)NC1CCCc2ccccc21)C(C)(C)C

> <Shape>
0.255

> <Color>
0.102

> <Negative vol penalty>
0.000

$$$$

  -OEChem-04052322303D

 84 93  0     1  0  0  0  0  0999 V2000
  -29.2699  -33.3361   24.6131 C   0  0  0  0  0  0  0  0  0  0  0  0
  -29.1149  -32.0437   24.1221 C   0  0  0  0  0  0  0  0  0  0  0  0
  -24.7425   -8.8501   21.6961 C   0  0  0  0  0  0  0  0  0  0  0  0
  -23.1554  -10.3011   20.5949 C   0  0  0  0  0  0  0  0  0  0  0  0
  -28.1729  -34.0168   25.1395 C   0  0  0  0  0  0  0  0  0  0  0  0
  -27.8629  -31.4308   24.1583 C   0  0  0  0  0  0  0  0  0  0  0  0
  -26.7299  -29.0694   19.8241 C   0  0  0  0  0  0  0  0  0  0  0  0
  -23.7131   -8.3079   22.4653 C   0  0  0  0  0  0  0  0  0  0  0  0
  -22.1259   -9.7589   21.3641 C   0  0  0  0  0  0  0  0  0  0  0  0
  -27.3234  -27.8276   19.6016 C   0  0  0  0  0  0  0  0  0  0  0  0
  -21.2349   -6.0420   22.0685 C   0  0  0  0  0  0  0  0  0  0  0  0
  -21.1945   -4.6552   22.2121 C   0  0  0  0  0  0  0  0  0  0  0  0
  -25.2876  -26.7367   20.2977 C   0  0  0  0  0  0  0  0  0  0  0  0
  -28.2121  -21.4855   18.1732 C   0  0  0  0  0  0  0  0  0  0  0  0
  -21.4054   -4.8971   24.6067 C   0  0  0  0  0  0  0  0  0  0  0  0
  -24.4637   -9.8468   20.7609 C   0  0  0  0  0  0  0  0  0  0  0  0
  -25.9816   -9.9547   18.7134 C   0  0  0  0  0  0  0  0  0  0  0  0
  -26.9048  -33.4155   25.1734 C   0  0  0  0  0  0  0  0  0  0  0  0
  -25.4122  -29.1542   20.2963 C   0  0  0  0  0  0  0  0  0  0  0  0
  -26.7482  -32.1036   24.6869 C   0  0  0  0  0  0  0  0  0  0  0  0
  -24.6788  -27.9808   20.5229 C   0  0  0  0  0  0  0  0  0  0  0  0
  -28.6718  -20.7944   19.2886 C   0  0  0  0  0  0  0  0  0  0  0  0
  -22.4048   -8.7622   22.2994 C   0  0  0  0  0  0  0  0  0  0  0  0
  -26.6032  -26.6610   19.8411 C   0  0  0  0  0  0  0  0  0  0  0  0
  -21.3607   -6.8564   23.1939 C   0  0  0  0  0  0  0  0  0  0  0  0
  -21.2797   -4.0827   23.4812 C   0  0  0  0  0  0  0  0  0  0  0  0
  -21.4459   -6.2840   24.4630 C   0  0  0  0  0  0  0  0  0  0  0  0
  -27.4576  -22.6414   18.3407 C   0  0  0  0  0  0  0  0  0  0  0  0
  -25.5268  -10.4077   19.9663 C   0  0  0  0  0  0  0  0  0  0  0  0
  -28.3524  -21.2966   20.5399 C   0  0  0  0  0  0  0  0  0  0  0  0
  -27.1924  -23.0608   19.6343 C   0  0  0  0  0  0  0  0  0  0  0  0
  -26.9979  -10.8181   18.3844 C   0  0  0  0  0  0  0  0  0  0  0  0
  -25.5261   -8.8522   17.9181 C   0  0  0  0  0  0  0  0  0  0  0  0
  -24.0372  -30.3303   22.9097 C   0  0  0  0  0  0  0  0  0  0  0  0
  -21.3017  -29.5822   21.3348 C   0  0  0  0  0  0  0  0  0  0  0  0
  -19.7527  -27.6828   18.9601 C   0  0  0  0  0  0  0  0  0  0  0  0
  -29.0280  -16.0016   18.0569 C   0  0  0  0  0  0  0  0  0  0  0  0
  -25.7586  -34.1731   25.7953 C   0  0  0  0  0  0  0  0  0  0  0  0
  -24.7775  -30.5016   20.5058 C   0  0  0  0  0  0  0  0  0  0  0  0
  -23.2543  -28.0177   21.0108 C   0  0  0  0  0  0  0  0  0  0  0  0
  -24.3885  -33.5929   25.4540 C   0  0  0  0  0  0  0  0  0  0  0  0
  -29.4033  -14.2953   21.1278 C   0  0  0  0  0  0  0  0  0  0  0  0
  -24.3914  -32.0778   25.6305 C   0  0  0  0  0  0  0  0  0  0  0  0
  -28.4451  -13.1123   21.0205 C   0  0  0  0  0  0  0  0  0  0  0  0
  -30.3258  -19.4246   17.8266 C   0  0  0  0  0  0  0  0  0  0  0  0
  -28.8085  -15.5344   20.4722 C   0  0  0  0  0  0  0  0  0  0  0  0
  -30.6750  -17.9434   17.7715 C   0  0  0  0  0  0  0  0  0  0  0  0
  -28.6709  -18.2412   19.0509 C   0  0  0  0  0  0  0  0  0  0  0  0
  -27.5071  -14.1410   18.8863 C   0  0  0  0  0  0  0  0  0  0  0  0
  -29.4932  -19.5361   19.1141 C   0  0  2  0  0  0  0  0  0  0  0  0
  -25.4010  -31.4143   24.6861 C   0  0  1  0  0  0  0  0  0  0  0  0
  -23.6021  -30.4638   21.4777 C   0  0  1  0  0  0  0  0  0  0  0  0
  -28.0540  -12.8631   19.5556 C   0  0  2  0  0  0  0  0  0  0  0  0
  -28.8202  -20.5965   21.7739 C   0  0  0  0  0  0  0  0  0  0  0  0
  -17.5037  -27.2705   17.9260 C   0  0  0  0  0  0  0  0  0  0  0  0
  -20.4546  -28.0109   23.8094 C   0  0  0  0  0  0  0  0  0  0  0  0
  -18.7175  -26.8760   22.4085 C   0  0  0  0  0  0  0  0  0  0  0  0
  -18.6272  -29.3461   22.7453 C   0  0  0  0  0  0  0  0  0  0  0  0
  -20.7080  -28.4934   16.2789 C   0  0  0  0  0  0  0  0  0  0  0  0
  -26.3868  -24.2932   19.8907 C   0  0  0  0  0  0  0  0  0  1  0  0
  -20.4150  -28.3633   21.2520 C   0  0  1  0  0  0  0  0  0  0  0  0
  -18.8040  -28.0538   17.8346 C   0  0  2  0  0  0  0  0  0  0  0  0
  -19.5810  -28.1480   22.5464 C   0  0  0  0  0  0  0  0  0  0  0  0
  -26.1991  -11.4758   20.4036 N   0  0  0  0  0  0  0  0  0  0  0  0
  -27.6220  -22.4160   20.7422 N   0  0  0  0  0  0  0  0  0  0  0  0
  -27.0868  -11.7011   19.4200 N   0  0  0  0  0  0  0  0  0  0  0  0
  -22.6800  -29.3591   21.2068 N   0  0  0  0  0  0  0  0  0  0  0  0
  -28.4132  -15.2795   19.0857 N   0  0  0  0  0  0  0  0  0  0  0  0
  -29.5130  -17.2748   18.3533 N   0  0  0  0  0  0  0  0  0  0  0  0
  -27.8153  -10.9004   17.3132 N   0  0  0  0  0  0  0  0  0  0  0  0
  -24.4719   -8.0675   18.4052 N   0  0  0  0  0  0  0  0  0  0  0  0
  -24.8674  -31.3465   23.3426 N   0  0  0  0  0  0  0  0  0  0  0  0
  -19.6127  -28.5235   20.0440 N   0  0  0  0  0  0  0  0  0  0  0  0
  -19.4319  -27.7699   16.5132 N   0  3  0  0  0  0  0  0  0  0  0  0
  -26.0496   -8.5612   16.8159 O   0  0  0  0  0  0  0  0  0  0  0  0
  -23.6472  -29.3766   23.5732 O   0  0  0  0  0  0  0  0  0  0  0  0
  -20.7898  -30.6924   21.4997 O   0  0  0  0  0  0  0  0  0  0  0  0
  -20.5366  -26.7391   18.8867 O   0  0  0  0  0  0  0  0  0  0  0  0
  -29.1758  -15.5134   16.9283 O   0  0  0  0  0  0  0  0  0  0  0  0
  -21.4000   -8.2331   23.0497 O   0  0  0  0  0  0  0  0  0  0  0  0
  -27.1844  -25.4389   19.6238 O   0  0  0  0  0  0  0  0  0  1  0  0
  -21.2393   -2.7510   23.6192 F   0  0  0  0  0  0  0  0  0  0  0  0
  -21.5657   -7.0612   25.5481 F   0  0  0  0  0  0  0  0  0  0  0  0
  -26.8896  -23.4947   16.9591 Cl  0  0  0  0  0  0  0  0  0  0  0  0
  1  2  1  0  0  0  0
  1  5  2  0  0  0  0
  2  6  2  0  0  0  0
  3  8  2  0  0  0  0
  3 16  1  0  0  0  0
  4  9  1  0  0  0  0
  4 16  2  0  0  0  0
  5 18  1  0  0  0  0
  6 20  1  0  0  0  0
  7 10  2  0  0  0  0
  7 19  1  0  0  0  0
  8 23  1  0  0  0  0
  9 23  2  0  0  0  0
 10 24  1  0  0  0  0
 11 12  2  0  0  0  0
 11 25  1  0  0  0  0
 12 26  1  0  0  0  0
 13 21  1  0  0  0  0
 13 24  2  0  0  0  0
 14 22  2  0  0  0  0
 14 28  1  0  0  0  0
 15 26  2  0  0  0  0
 15 27  1  0  0  0  0
 16 29  1  0  0  0  0
 17 29  1  0  0  0  0
 17 32  2  0  0  0  0
 17 33  1  0  0  0  0
 18 20  2  0  0  0  0
 18 38  1  0  0  0  0
 19 21  2  0  0  0  0
 19 39  1  0  0  0  0
 20 51  1  0  0  0  0
 21 40  1  0  0  0  0
 22 30  1  0  0  0  0
 22 50  1  0  0  0  0
 23 80  1  0  0  0  0
 24 81  1  0  0  0  0
 25 27  2  0  0  0  0
 25 80  1  0  0  0  0
 26 82  1  0  0  0  0
 27 83  1  0  0  0  0
 28 31  2  0  0  0  0
 28 84  1  0  0  0  0
 29 64  2  0  0  0  0
 30 54  1  0  0  0  0
 30 65  2  0  0  0  0
 31 60  1  0  0  0  0
 31 65  1  0  0  0  0
 32 66  1  0  0  0  0
 32 70  1  0  0  0  0
 33 71  1  0  0  0  0
 33 75  2  0  0  0  0
 34 52  1  0  0  0  0
 34 72  1  0  0  0  0
 34 76  2  0  0  0  0
 35 61  1  0  0  0  0
 35 67  1  0  0  0  0
 35 77  2  0  0  0  0
 36 62  1  0  0  0  0
 36 73  1  0  0  0  0
 36 78  2  0  0  0  0
 37 68  1  0  0  0  0
 37 69  1  0  0  0  0
 37 79  2  0  0  0  0
 38 41  1  0  0  0  0
 39 52  1  0  0  0  0
 40 67  1  0  0  0  0
 41 43  1  0  0  0  0
 42 44  1  0  0  0  0
 42 46  1  0  0  0  0
 43 51  1  0  0  0  0
 44 53  1  0  0  0  0
 45 47  1  0  0  0  0
 45 50  1  0  0  0  0
 46 68  1  0  0  0  0
 47 69  1  0  0  0  0
 48 50  1  0  0  0  0
 48 69  1  0  0  0  0
 49 53  1  0  0  0  0
 49 68  1  0  0  0  0
 51 72  1  0  0  0  0
 52 67  1  0  0  0  0
 53 66  1  0  0  0  0
 55 62  1  0  0  0  0
 56 63  1  0  0  0  0
 57 63  1  0  0  0  0
 58 63  1  0  0  0  0
 59 74  1  0  0  0  0
 60 81  1  0  0  0  0
 61 63  1  0  0  0  0
 61 73  1  0  0  0  0
 62 74  1  0  0  0  0
 64 66  1  0  0  0  0
M  CHG  1  74   1
M  ISO  4  37 100  60 101  69 100  81 101
M  END
> <Batch ID>
0168

> <Smiles>
CNC(C)C(=O)NC(C(=O)N1Cc2cc([101O:1][101CH2:1]c3nc(C)c(C4CC[100N:0]([100C:0](=O)N5CCCC(n6nc(-c7ccc(Oc8ccc(F)cc8F)cc7)c(C(N)=O)c6N)C5)C4)cc3Cl)ccc2CC1C(=O)NC1CCCc2ccccc21)C(C)(C)C

> <Shape>
0.333

> <Color>
0.087

> <Negative vol penalty>
0.000

$$$$

  -OEChem-04052322303D

 88 97  0     1  0  0  0  0  0999 V2000
  -19.7237  -28.4396   23.7078 C   0  0  0  0  0  0  0  0  0  0  0  0
  -20.0522  -27.0889   23.6509 C   0  0  0  0  0  0  0  0  0  0  0  0
  -27.6272  -23.3717   20.7803 C   0  0  0  0  0  0  0  0  0  0  0  0
  -28.9102  -23.0399   18.7602 C   0  0  0  0  0  0  0  0  0  0  0  0
  -18.8444  -28.9820   22.7715 C   0  0  0  0  0  0  0  0  0  0  0  0
  -19.5007  -26.2796   22.6583 C   0  0  0  0  0  0  0  0  0  0  0  0
  -22.1980  -21.5620   19.8343 C   0  0  0  0  0  0  0  0  0  0  0  0
  -27.8387  -24.7473   20.6887 C   0  0  0  0  0  0  0  0  0  0  0  0
  -29.1217  -24.4156   18.6686 C   0  0  0  0  0  0  0  0  0  0  0  0
  -22.1256  -20.1840   20.0331 C   0  0  0  0  0  0  0  0  0  0  0  0
  -30.3031  -27.8054   18.0995 C   0  0  0  0  0  0  0  0  0  0  0  0
  -31.5927  -28.2446   17.8004 C   0  0  0  0  0  0  0  0  0  0  0  0
  -20.4526  -20.0284   18.3022 C   0  0  0  0  0  0  0  0  0  0  0  0
  -32.4226  -27.1681   19.7979 C   0  0  0  0  0  0  0  0  0  0  0  0
  -28.1630  -22.5179   19.8160 C   0  0  0  0  0  0  0  0  0  0  0  0
  -26.8813  -20.3610   19.3552 C   0  0  0  0  0  0  0  0  0  0  0  0
  -18.2894  -28.1810   21.7611 C   0  0  0  0  0  0  0  0  0  0  0  0
  -21.3890  -22.1862   18.8739 C   0  0  0  0  0  0  0  0  0  0  0  0
  -18.6121  -26.8115   21.7084 C   0  0  0  0  0  0  0  0  0  0  0  0
  -20.5185  -21.4142   18.0914 C   0  0  0  0  0  0  0  0  0  0  0  0
  -24.0132  -14.8555   21.0660 C   0  0  0  0  0  0  0  0  0  0  0  0
  -25.2035  -14.1056   20.8986 C   0  0  0  0  0  0  0  0  0  0  0  0
  -28.5859  -25.2693   19.6329 C   0  0  0  0  0  0  0  0  0  0  0  0
  -21.2507  -19.4173   19.2689 C   0  0  0  0  0  0  0  0  0  0  0  0
  -30.0731  -27.0476   19.2479 C   0  0  0  0  0  0  0  0  0  0  0  0
  -32.6525  -27.9259   18.6495 C   0  0  0  0  0  0  0  0  0  0  0  0
  -31.1329  -26.7290   20.0970 C   0  0  0  0  0  0  0  0  0  0  0  0
  -27.9454  -21.0967   19.9104 C   0  0  0  0  0  0  0  0  0  0  0  0
  -23.5510  -15.1796   19.8096 C   0  0  0  0  0  0  0  0  0  0  0  0
  -27.1314  -19.0624   19.7262 C   0  0  0  0  0  0  0  0  0  0  0  0
  -25.4326  -13.9945   19.5448 C   0  0  0  0  0  0  0  0  0  0  0  0
  -25.7666  -20.8111   18.5738 C   0  0  0  0  0  0  0  0  0  0  0  0
  -19.1025  -24.3926   18.9587 C   0  0  0  0  0  0  0  0  0  0  0  0
  -19.3038  -24.1659   15.7291 C   0  0  0  0  0  0  0  0  0  0  0  0
  -20.1617  -22.2998   13.0036 C   0  0  0  0  0  0  0  0  0  0  0  0
  -30.9373  -14.9095   20.1345 C   0  0  0  0  0  0  0  0  0  0  0  0
  -17.3069  -28.8020   20.8000 C   0  0  0  0  0  0  0  0  0  0  0  0
  -21.4985  -23.6700   18.6533 C   0  0  0  0  0  0  0  0  0  0  0  0
  -19.6434  -22.0331   17.0334 C   0  0  0  0  0  0  0  0  0  0  0  0
  -17.0580  -27.9575   19.5530 C   0  0  0  0  0  0  0  0  0  0  0  0
  -30.4624  -17.1431   23.0101 C   0  0  0  0  0  0  0  0  0  0  0  0
  -16.8236  -26.4991   19.9339 C   0  0  0  0  0  0  0  0  0  0  0  0
  -29.7205  -18.3317   22.3973 C   0  0  0  0  0  0  0  0  0  0  0  0
  -31.3829  -16.4618   22.0003 C   0  0  0  0  0  0  0  0  0  0  0  0
  -30.1007  -12.9814   18.8205 C   0  0  0  0  0  0  0  0  0  0  0  0
  -29.9861  -17.2562   20.1318 C   0  0  0  0  0  0  0  0  0  0  0  0
  -28.4582  -14.5665   19.5706 C   0  0  0  0  0  0  0  0  0  0  0  0
  -18.0538  -25.9066   20.6317 C   0  0  1  0  0  0  0  0  0  0  0  0
  -20.2558  -24.2707   18.0033 C   0  0  1  0  0  0  0  0  0  0  0  0
  -28.7228  -12.5661   18.3038 C   0  0  2  0  0  0  0  0  0  0  0  0
  -28.9994  -17.9256   21.0986 C   0  0  2  0  0  0  0  0  0  0  0  0
  -27.7927  -13.2151   19.3333 C   0  0  2  0  0  0  0  0  0  0  0  0
  -23.3816  -15.2234   22.3500 C   0  0  0  0  0  0  0  0  0  0  0  0
  -26.0447  -13.5457   21.9770 C   0  0  0  0  0  0  0  0  0  0  0  0
  -28.5583  -11.0592   18.1962 C   0  0  0  0  0  0  0  0  0  0  0  0
  -21.0367  -15.2703   19.8484 C   0  0  0  0  0  0  0  0  0  0  0  0
  -20.1755  -22.3673   10.4951 C   0  0  0  0  0  0  0  0  0  0  0  0
  -16.2935  -23.6687   15.7015 C   0  0  0  0  0  0  0  0  0  0  0  0
  -16.5258  -22.8178   13.3584 C   0  0  0  0  0  0  0  0  0  0  0  0
  -17.1175  -25.1823   13.8892 C   0  0  0  0  0  0  0  0  0  0  0  0
  -24.2870  -14.7731   17.4552 C   0  0  0  0  0  0  0  0  0  0  0  0
  -23.1056  -22.0156   12.8965 C   0  0  0  0  0  0  0  0  0  0  0  0
  -22.3633  -17.4146   19.9068 C   0  0  0  0  0  0  0  0  0  1  0  0
  -22.3544  -15.9475   19.4037 C   0  0  1  0  0  0  0  0  0  0  0  0
  -18.6357  -23.3189   14.6731 C   0  0  1  0  0  0  0  0  0  0  0  0
  -20.9688  -22.6397   11.7636 C   0  0  2  0  0  0  0  0  0  0  0  0
  -17.1581  -23.7352   14.4267 C   0  0  0  0  0  0  0  0  0  0  0  0
  -28.8071  -20.3294   20.5831 N   0  0  0  0  0  0  0  0  0  0  0  0
  -24.4219  -14.6513   18.8927 N   0  0  0  0  0  0  0  0  0  0  0  0
  -28.2849  -19.0980   20.4531 N   0  0  0  0  0  0  0  0  0  0  0  0
  -19.7820  -23.4885   16.8597 N   0  0  0  0  0  0  0  0  0  0  0  0
  -30.6591  -16.1223   20.7749 N   0  0  0  0  0  0  0  0  0  0  0  0
  -29.8913  -14.2764   19.4649 N   0  0  0  0  0  0  0  0  0  0  0  0
  -26.4748  -17.9051   19.4985 N   0  0  0  0  0  0  0  0  0  0  0  0
  -25.6625  -22.1784   18.2840 N   0  0  0  0  0  0  0  0  0  0  0  0
  -26.4490  -13.3684   18.8381 N   0  0  0  0  0  0  0  0  0  0  0  0
  -19.0776  -25.5820   19.6617 N   0  0  0  0  0  0  0  0  0  0  0  0
  -19.4842  -23.3983   13.4890 N   0  0  0  0  0  0  0  0  0  0  0  0
  -22.2180  -21.8281   11.7201 N   0  3  0  0  0  0  0  0  0  0  0  0
  -24.8801  -20.0264   18.1592 O   0  0  0  0  0  0  0  0  0  0  0  0
  -18.2942  -23.4761   19.0501 O   0  0  0  0  0  0  0  0  0  0  0  0
  -19.4043  -25.3828   15.5539 O   0  0  0  0  0  0  0  0  0  0  0  0
  -20.1320  -21.1717   13.4905 O   0  0  0  0  0  0  0  0  0  0  0  0
  -32.0600  -14.3910   20.1973 O   0  0  0  0  0  0  0  0  0  0  0  0
  -28.7923  -26.6117   19.5431 O   0  0  0  0  0  0  0  0  0  0  0  0
  -21.1770  -18.0633   19.4626 O   0  0  0  0  0  0  0  0  0  1  0  0
  -33.8912  -28.3464   18.3614 F   0  0  0  0  0  0  0  0  0  0  0  0
  -30.9184  -26.0003   21.2010 F   0  0  0  0  0  0  0  0  0  0  0  0
  1  2  1  0  0  0  0
  1  5  2  0  0  0  0
  2  6  2  0  0  0  0
  3  8  2  0  0  0  0
  3 15  1  0  0  0  0
  4  9  1  0  0  0  0
  4 15  2  0  0  0  0
  5 17  1  0  0  0  0
  6 19  1  0  0  0  0
  7 10  2  0  0  0  0
  7 18  1  0  0  0  0
  8 23  1  0  0  0  0
  9 23  2  0  0  0  0
 10 24  1  0  0  0  0
 11 12  2  0  0  0  0
 11 25  1  0  0  0  0
 12 26  1  0  0  0  0
 13 20  1  0  0  0  0
 13 24  2  0  0  0  0
 14 26  2  0  0  0  0
 14 27  1  0  0  0  0
 15 28  1  0  0  0  0
 16 28  1  0  0  0  0
 16 30  2  0  0  0  0
 16 32  1  0  0  0  0
 17 19  2  0  0  0  0
 17 37  1  0  0  0  0
 18 20  2  0  0  0  0
 18 38  1  0  0  0  0
 19 48  1  0  0  0  0
 20 39  1  0  0  0  0
 21 22  1  0  0  0  0
 21 29  2  0  0  0  0
 21 53  1  0  0  0  0
 22 31  2  0  0  0  0
 22 54  1  0  0  0  0
 23 85  1  0  0  0  0
 24 86  1  0  0  0  0
 25 27  2  0  0  0  0
 25 85  1  0  0  0  0
 26 87  1  0  0  0  0
 27 88  1  0  0  0  0
 28 68  2  0  0  0  0
 29 64  1  0  0  0  0
 29 69  1  0  0  0  0
 30 70  1  0  0  0  0
 30 74  1  0  0  0  0
 31 69  1  0  0  0  0
 31 76  1  0  0  0  0
 32 75  1  0  0  0  0
 32 80  2  0  0  0  0
 33 49  1  0  0  0  0
 33 77  1  0  0  0  0
 33 81  2  0  0  0  0
 34 65  1  0  0  0  0
 34 71  1  0  0  0  0
 34 82  2  0  0  0  0
 35 66  1  0  0  0  0
 35 78  1  0  0  0  0
 35 83  2  0  0  0  0
 36 72  1  0  0  0  0
 36 73  1  0  0  0  0
 36 84  2  0  0  0  0
 37 40  1  0  0  0  0
 38 49  1  0  0  0  0
 39 71  1  0  0  0  0
 40 42  1  0  0  0  0
 41 43  1  0  0  0  0
 41 44  1  0  0  0  0
 42 48  1  0  0  0  0
 43 51  1  0  0  0  0
 44 72  1  0  0  0  0
 45 50  1  0  0  0  0
 45 73  1  0  0  0  0
 46 51  1  0  0  0  0
 46 72  1  0  0  0  0
 47 52  1  0  0  0  0
 47 73  1  0  0  0  0
 48 77  1  0  0  0  0
 49 71  1  0  0  0  0
 50 52  1  0  0  0  0
 50 55  1  0  0  0  0
 51 70  1  0  0  0  0
 52 76  1  0  0  0  0
 56 64  1  0  0  0  0
 57 66  1  0  0  0  0
 58 67  1  0  0  0  0
 59 67  1  0  0  0  0
 60 67  1  0  0  0  0
 61 69  1  0  0  0  0
 62 79  1  0  0  0  0
 63 64  1  0  0  0  0
 63 86  1  0  0  0  0
 65 67  1  0  0  0  0
 65 78  1  0  0  0  0
 66 79  1  0  0  0  0
 68 70  1  0  0  0  0
M  CHG  1  79   1
M  ISO  4  36 100  63 101  73 100  86 101
M  END
> <Batch ID>
0168

> <Smiles>
CNC(C)C(=O)NC(C(=O)N1Cc2cc([101O:1][101CH2:1]C(C)c3c(C)c(C)c(NC4C[100N:0]([100C:0](=O)N5CCCC(n6nc(-c7ccc(Oc8ccc(F)cc8F)cc7)c(C(N)=O)c6N)C5)CC4C)n3C)ccc2CC1C(=O)NC1CCCc2ccccc21)C(C)(C)C

> <Shape>
0.208

> <Color>
0.065

> <Negative vol penalty>
0.000

$$$$

  -OEChem-04052322303D

 89 99  0     1  0  0  0  0  0999 V2000
  -20.9025  -26.6627   22.4981 C   0  0  0  0  0  0  0  0  0  0  0  0
  -21.9504  -26.1854   21.7174 C   0  0  0  0  0  0  0  0  0  0  0  0
  -23.0710   -9.7964   19.9806 C   0  0  0  0  0  0  0  0  0  0  0  0
  -23.8116   -9.8680   22.2792 C   0  0  0  0  0  0  0  0  0  0  0  0
  -20.8291  -28.0197   22.8099 C   0  0  0  0  0  0  0  0  0  0  0  0
  -22.9248  -27.0649   21.2470 C   0  0  0  0  0  0  0  0  0  0  0  0
  -27.6170  -25.2420   21.7995 C   0  0  0  0  0  0  0  0  0  0  0  0
  -22.3295   -8.6474   20.2553 C   0  0  0  0  0  0  0  0  0  0  0  0
  -23.0699   -8.7190   22.5539 C   0  0  0  0  0  0  0  0  0  0  0  0
  -28.0424  -24.2882   20.8759 C   0  0  0  0  0  0  0  0  0  0  0  0
  -19.8399   -7.9247   23.1508 C   0  0  0  0  0  0  0  0  0  0  0  0
  -19.0733   -7.9132   24.3160 C   0  0  0  0  0  0  0  0  0  0  0  0
  -29.2460  -25.9983   19.6734 C   0  0  0  0  0  0  0  0  0  0  0  0
  -20.3158   -6.0012   25.1146 C   0  0  0  0  0  0  0  0  0  0  0  0
  -23.8121  -10.4067   20.9925 C   0  0  0  0  0  0  0  0  0  0  0  0
  -24.1454  -12.9291   20.8075 C   0  0  0  0  0  0  0  0  0  0  0  0
  -21.8084  -28.9148   22.3512 C   0  0  0  0  0  0  0  0  0  0  0  0
  -27.9946  -26.5853   21.6607 C   0  0  0  0  0  0  0  0  0  0  0  0
  -22.8637  -28.4354   21.5519 C   0  0  0  0  0  0  0  0  0  0  0  0
  -28.8262  -26.9667   20.5981 C   0  0  0  0  0  0  0  0  0  0  0  0
  -29.8181  -19.3661   19.2163 C   0  0  0  0  0  0  0  0  0  0  0  0
  -29.5081  -18.2067   19.9696 C   0  0  0  0  0  0  0  0  0  0  0  0
  -22.3289   -8.1087   21.5419 C   0  0  0  0  0  0  0  0  0  0  0  0
  -28.8546  -24.6668   19.8110 C   0  0  0  0  0  0  0  0  0  0  0  0
  -20.8444   -6.9744   22.9674 C   0  0  0  0  0  0  0  0  0  0  0  0
  -19.3112   -6.9515   25.2979 C   0  0  0  0  0  0  0  0  0  0  0  0
  -21.0824   -6.0127   23.9493 C   0  0  0  0  0  0  0  0  0  0  0  0
  -24.5788  -11.5933   20.7093 C   0  0  0  0  0  0  0  0  0  0  0  0
  -31.0639  -19.8030   19.6251 C   0  0  0  0  0  0  0  0  0  0  0  0
  -30.5683  -17.9743   20.8186 C   0  0  0  0  0  0  0  0  0  0  0  0
  -25.2377  -13.6729   20.4333 C   0  0  0  0  0  0  0  0  0  0  0  0
  -22.8695  -13.4508   21.2018 C   0  0  0  0  0  0  0  0  0  0  0  0
  -26.4355  -29.3190   21.2140 C   0  0  0  0  0  0  0  0  0  0  0  0
  -29.3837  -30.6134   21.6078 C   0  0  0  0  0  0  0  0  0  0  0  0
  -32.7690  -30.2106   21.4523 C   0  0  0  0  0  0  0  0  0  0  0  0
  -30.7158  -14.7187   20.6398 C   0  0  0  0  0  0  0  0  0  0  0  0
  -21.6608  -30.3805   22.6746 C   0  0  0  0  0  0  0  0  0  0  0  0
  -27.5493  -27.5972   22.6806 C   0  0  0  0  0  0  0  0  0  0  0  0
  -29.0207  -20.0476   18.1594 C   0  0  0  0  0  0  0  0  0  0  0  0
  -29.2763  -28.3924   20.4156 C   0  0  0  0  0  0  0  0  0  0  0  0
  -22.9382  -31.1855   22.4497 C   0  0  0  0  0  0  0  0  0  0  0  0
  -29.6074  -12.2664   18.3086 C   0  0  0  0  0  0  0  0  0  0  0  0
  -23.5595  -30.8351   21.1014 C   0  0  0  0  0  0  0  0  0  0  0  0
  -28.1674  -11.9786   18.7373 C   0  0  0  0  0  0  0  0  0  0  0  0
  -32.8901  -18.4151   22.7139 C   0  0  0  0  0  0  0  0  0  0  0  0
  -32.8697  -19.9052   22.5761 C   0  0  0  0  0  0  0  0  0  0  0  0
  -31.0133  -21.6408   17.9313 C   0  0  0  0  0  0  0  0  0  0  0  0
  -30.5135  -12.5230   19.5107 C   0  0  0  0  0  0  0  0  0  0  0  0
  -28.5974  -13.2834   20.8613 C   0  0  0  0  0  0  0  0  0  0  0  0
  -23.9534  -29.3542   21.0437 C   0  0  1  0  0  0  0  0  0  0  0  0
  -27.5726  -29.0282   22.1522 C   0  0  1  0  0  0  0  0  0  0  0  0
  -32.7522  -19.0383   21.3445 C   0  0  0  0  0  0  0  0  0  0  0  0
  -27.6338  -13.0734   19.6807 C   0  0  2  0  0  0  0  0  0  0  0  0
  -31.8108  -21.0089   19.1236 C   0  0  0  0  0  0  0  0  0  0  0  0
  -29.4532  -21.5306   17.9787 C   0  0  1  0  0  0  0  0  0  0  0  0
  -28.2782  -17.3952   19.8658 C   0  0  0  0  0  0  0  0  0  0  0  0
  -32.0144  -22.0318   20.2560 C   0  0  0  0  0  0  0  0  0  0  0  0
  -33.2035  -20.5932   18.6042 C   0  0  0  0  0  0  0  0  0  0  0  0
  -28.8916  -22.0475   16.6376 C   0  0  0  0  0  0  0  0  0  0  0  0
  -34.9191  -31.4582   21.7959 C   0  0  0  0  0  0  0  0  0  0  0  0
  -28.9670  -32.0577   18.9525 C   0  0  0  0  0  0  0  0  0  0  0  0
  -31.4307  -32.4981   18.8852 C   0  0  0  0  0  0  0  0  0  0  0  0
  -30.0470  -33.4410   20.7342 C   0  0  0  0  0  0  0  0  0  0  0  0
  -33.6359  -28.3597   23.5928 C   0  0  0  0  0  0  0  0  0  0  0  0
  -30.7631  -16.9019   21.8189 C   0  0  0  0  0  0  0  0  0  0  0  0
  -28.8478  -22.3980   19.0979 C   0  0  0  0  0  0  0  0  0  1  0  0
  -30.5305  -30.9598   20.6892 C   0  0  1  0  0  0  0  0  0  0  0  0
  -33.8713  -30.5607   22.4356 C   0  0  2  0  0  0  0  0  0  0  0  0
  -30.2339  -32.2125   19.8174 C   0  0  0  0  0  0  0  0  0  0  0  0
  -25.8475  -11.4913   20.3042 N   0  0  0  0  0  0  0  0  0  0  0  0
  -31.5070  -18.9504   20.6036 N   0  0  0  0  0  0  0  0  0  0  0  0
  -26.2206  -12.7725   20.1446 N   0  0  0  0  0  0  0  0  0  0  0  0
  -28.8093  -29.3460   21.4355 N   0  0  0  0  0  0  0  0  0  0  0  0
  -29.9516  -13.5728   20.3641 N   0  0  0  0  0  0  0  0  0  0  0  0
  -25.4437  -15.0028   20.3263 N   0  0  0  0  0  0  0  0  0  0  0  0
  -21.8582  -12.5470   21.5550 N   0  0  0  0  0  0  0  0  0  0  0  0
  -25.1848  -29.1300   21.7703 N   0  0  0  0  0  0  0  0  0  0  0  0
  -31.7094  -31.0887   21.5389 N   0  0  0  0  0  0  0  0  0  0  0  0
  -30.1060  -15.6673   21.4515 N   0  0  0  0  0  0  0  0  0  0  0  0
  -34.5452  -29.3231   22.9205 N   0  3  0  0  0  0  0  0  0  0  0  0
  -22.6281  -14.6816   21.2241 O   0  0  0  0  0  0  0  0  0  0  0  0
  -26.6751  -29.6890   20.0706 O   0  0  0  0  0  0  0  0  0  0  0  0
  -29.0158  -31.4342   22.4519 O   0  0  0  0  0  0  0  0  0  0  0  0
  -32.8423  -29.2560   20.6817 O   0  0  0  0  0  0  0  0  0  0  0  0
  -31.8548  -14.8864   20.1911 O   0  0  0  0  0  0  0  0  0  0  0  0
  -21.6052   -6.9877   21.8104 O   0  0  0  0  0  0  0  0  0  0  0  0
  -29.2751  -23.7282   18.8981 O   0  0  0  0  0  0  0  0  0  1  0  0
  -18.5760   -6.9415   26.4175 F   0  0  0  0  0  0  0  0  0  0  0  0
  -22.0468   -5.0980   23.7793 F   0  0  0  0  0  0  0  0  0  0  0  0
  1  2  1  0  0  0  0
  1  5  2  0  0  0  0
  2  6  2  0  0  0  0
  3  8  2  0  0  0  0
  3 15  1  0  0  0  0
  4  9  1  0  0  0  0
  4 15  2  0  0  0  0
  5 17  1  0  0  0  0
  6 19  1  0  0  0  0
  7 10  2  0  0  0  0
  7 18  1  0  0  0  0
  8 23  1  0  0  0  0
  9 23  2  0  0  0  0
 10 24  1  0  0  0  0
 11 12  2  0  0  0  0
 11 25  1  0  0  0  0
 12 26  1  0  0  0  0
 13 20  1  0  0  0  0
 13 24  2  0  0  0  0
 14 26  2  0  0  0  0
 14 27  1  0  0  0  0
 15 28  1  0  0  0  0
 16 28  1  0  0  0  0
 16 31  2  0  0  0  0
 16 32  1  0  0  0  0
 17 19  2  0  0  0  0
 17 37  1  0  0  0  0
 18 20  2  0  0  0  0
 18 38  1  0  0  0  0
 19 50  1  0  0  0  0
 20 40  1  0  0  0  0
 21 22  1  0  0  0  0
 21 29  2  0  0  0  0
 21 39  1  0  0  0  0
 22 30  2  0  0  0  0
 22 56  1  0  0  0  0
 23 86  1  0  0  0  0
 24 87  1  0  0  0  0
 25 27  2  0  0  0  0
 25 86  1  0  0  0  0
 26 88  1  0  0  0  0
 27 89  1  0  0  0  0
 28 70  2  0  0  0  0
 29 54  1  0  0  0  0
 29 71  1  0  0  0  0
 30 65  1  0  0  0  0
 30 71  1  0  0  0  0
 31 72  1  0  0  0  0
 31 75  1  0  0  0  0
 32 76  1  0  0  0  0
 32 81  2  0  0  0  0
 33 51  1  0  0  0  0
 33 77  1  0  0  0  0
 33 82  2  0  0  0  0
 34 67  1  0  0  0  0
 34 73  1  0  0  0  0
 34 83  2  0  0  0  0
 35 68  1  0  0  0  0
 35 78  1  0  0  0  0
 35 84  2  0  0  0  0
 36 74  1  0  0  0  0
 36 79  1  0  0  0  0
 36 85  2  0  0  0  0
 37 41  1  0  0  0  0
 38 51  1  0  0  0  0
 39 55  1  0  0  0  0
 40 73  1  0  0  0  0
 41 43  1  0  0  0  0
 42 44  1  0  0  0  0
 42 48  1  0  0  0  0
 43 50  1  0  0  0  0
 44 53  1  0  0  0  0
 45 46  1  0  0  0  0
 45 52  1  0  0  0  0
 46 52  1  0  0  0  0
 47 54  1  0  0  0  0
 47 55  1  0  0  0  0
 48 74  1  0  0  0  0
 49 53  1  0  0  0  0
 49 74  1  0  0  0  0
 50 77  1  0  0  0  0
 51 73  1  0  0  0  0
 52 71  1  0  0  0  0
 53 72  1  0  0  0  0
 54 57  1  0  0  0  0
 54 58  1  0  0  0  0
 55 59  1  0  0  0  0
 55 66  1  0  0  0  0
 60 68  1  0  0  0  0
 61 69  1  0  0  0  0
 62 69  1  0  0  0  0
 63 69  1  0  0  0  0
 64 80  1  0  0  0  0
 65 79  1  0  0  0  0
 66 87  1  0  0  0  0
 67 69  1  0  0  0  0
 67 78  1  0  0  0  0
 68 80  1  0  0  0  0
 70 72  1  0  0  0  0
M  CHG  1  80   1
M  ISO  4  36 100  66 101  79 100  87 101
M  END
> <Batch ID>
0168

> <Smiles>
CNC(C)C(=O)NC(C(=O)N1Cc2cc([101O:1][101CH2:1]C3(C)Cc4c(C)c(C[100NH:0][100C:0](=O)N5CCCC(n6nc(-c7ccc(Oc8ccc(F)cc8F)cc7)c(C(N)=O)c6N)C5)n(C5CC5)c4C(C)(C)C3)ccc2CC1C(=O)NC1CCCc2ccccc21)C(C)(C)C

> <Shape>
0.329

> <Color>
0.204

> <Negative vol penalty>
0.000

$$$$

  -OEChem-04052322303D

 84 93  0     1  0  0  0  0  0999 V2000
  -32.1154  -31.7792   16.4126 C   0  0  0  0  0  0  0  0  0  0  0  0
  -31.7853  -30.4715   16.0714 C   0  0  0  0  0  0  0  0  0  0  0  0
  -23.2394   -9.8250   19.8615 C   0  0  0  0  0  0  0  0  0  0  0  0
  -23.6214   -9.8915   22.2462 C   0  0  0  0  0  0  0  0  0  0  0  0
  -31.8395  -32.2549   17.6938 C   0  0  0  0  0  0  0  0  0  0  0  0
  -31.1800  -29.6384   17.0116 C   0  0  0  0  0  0  0  0  0  0  0  0
  -26.9894  -25.3045   15.9334 C   0  0  0  0  0  0  0  0  0  0  0  0
  -22.4945   -8.6555   20.0134 C   0  0  0  0  0  0  0  0  0  0  0  0
  -22.8764   -8.7220   22.3981 C   0  0  0  0  0  0  0  0  0  0  0  0
  -27.0864  -23.9212   15.7891 C   0  0  0  0  0  0  0  0  0  0  0  0
  -23.3370   -5.4008   21.9640 C   0  0  0  0  0  0  0  0  0  0  0  0
  -23.8552   -4.4055   22.7924 C   0  0  0  0  0  0  0  0  0  0  0  0
  -26.2828  -17.6321   14.9447 C   0  0  0  0  0  0  0  0  0  0  0  0
  -26.5099  -23.6441   18.1150 C   0  0  0  0  0  0  0  0  0  0  0  0
  -21.8983   -4.5591   24.2011 C   0  0  0  0  0  0  0  0  0  0  0  0
  -23.8029  -10.4430   20.9779 C   0  0  0  0  0  0  0  0  0  0  0  0
  -24.0955  -12.9744   20.8612 C   0  0  0  0  0  0  0  0  0  0  0  0
  -31.2217  -31.4302   18.6472 C   0  0  0  0  0  0  0  0  0  0  0  0
  -26.6621  -25.8694   17.1745 C   0  0  0  0  0  0  0  0  0  0  0  0
  -30.8967  -30.1032   18.3071 C   0  0  0  0  0  0  0  0  0  0  0  0
  -27.3429  -16.9416   15.5521 C   0  0  0  0  0  0  0  0  0  0  0  0
  -26.4069  -25.0347   18.2719 C   0  0  0  0  0  0  0  0  0  0  0  0
  -28.3965  -17.6652   16.1404 C   0  0  0  0  0  0  0  0  0  0  0  0
  -26.2706  -19.0255   14.9080 C   0  0  0  0  0  0  0  0  0  0  0  0
  -28.3666  -19.0694   16.1006 C   0  0  0  0  0  0  0  0  0  0  0  0
  -27.3119  -19.7441   15.4865 C   0  0  0  0  0  0  0  0  0  0  0  0
  -22.3130   -8.1040   21.2817 C   0  0  0  0  0  0  0  0  0  0  0  0
  -26.8495  -23.0909   16.8806 C   0  0  0  0  0  0  0  0  0  0  0  0
  -22.0995   -5.9754   22.2542 C   0  0  0  0  0  0  0  0  0  0  0  0
  -23.1358   -3.9845   23.9109 C   0  0  0  0  0  0  0  0  0  0  0  0
  -21.3801   -5.5545   23.3727 C   0  0  0  0  0  0  0  0  0  0  0  0
  -24.5729  -11.6507   20.8215 C   0  0  0  0  0  0  0  0  0  0  0  0
  -25.2124  -13.7484   20.6616 C   0  0  0  0  0  0  0  0  0  0  0  0
  -22.7616  -13.4609   21.0608 C   0  0  0  0  0  0  0  0  0  0  0  0
  -28.1286  -27.8264   19.2051 C   0  0  0  0  0  0  0  0  0  0  0  0
  -25.2842  -27.7134   20.7604 C   0  0  0  0  0  0  0  0  0  0  0  0
  -22.3840  -26.0232   21.3763 C   0  0  0  0  0  0  0  0  0  0  0  0
  -29.9253  -14.9157   18.1666 C   0  0  0  0  0  0  0  0  0  0  0  0
  -30.9862  -31.9742   20.0340 C   0  0  0  0  0  0  0  0  0  0  0  0
  -26.5353  -27.3623   17.3072 C   0  0  0  0  0  0  0  0  0  0  0  0
  -27.2924  -15.4369   15.6151 C   0  0  0  0  0  0  0  0  0  0  0  0
  -26.0323  -25.5905   19.6207 C   0  0  0  0  0  0  0  0  0  0  0  0
  -30.0023  -31.1444   20.8548 C   0  0  0  0  0  0  0  0  0  0  0  0
  -30.1156  -12.5378   20.6516 C   0  0  0  0  0  0  0  0  0  0  0  0
  -30.3328  -29.6595   20.7425 C   0  0  0  0  0  0  0  0  0  0  0  0
  -28.6536  -12.1935   20.9346 C   0  0  0  0  0  0  0  0  0  0  0  0
  -28.6298  -14.8080   15.9875 C   0  0  0  0  0  0  0  0  0  0  0  0
  -30.3597  -12.6893   19.1546 C   0  0  0  0  0  0  0  0  0  0  0  0
  -28.0152  -13.3747   18.7740 C   0  0  0  0  0  0  0  0  0  0  0  0
  -30.2166  -29.1767   19.2916 C   0  0  1  0  0  0  0  0  0  0  0  0
  -29.5654  -16.9616   16.8065 C   0  0  2  0  0  0  0  0  0  0  0  0
  -26.6990  -27.8506   18.7432 C   0  0  1  0  0  0  0  0  0  0  0  0
  -27.7095  -13.2152   20.2771 C   0  0  1  0  0  0  0  0  0  0  0  0
  -25.1249  -19.7207   14.2484 C   0  0  0  0  0  0  0  0  0  0  0  0
  -29.4432  -19.8839   16.7527 C   0  0  0  0  0  0  0  0  0  0  0  0
  -30.8464  -17.1192   15.9743 C   0  0  0  0  0  0  0  0  0  0  0  0
  -20.2701  -26.1631   22.7213 C   0  0  0  0  0  0  0  0  0  0  0  0
  -26.8286  -26.9110   23.2666 C   0  0  0  0  0  0  0  0  0  0  0  0
  -24.6646  -26.1553   24.2737 C   0  0  0  0  0  0  0  0  0  0  0  0
  -24.9827  -28.5520   23.6594 C   0  0  0  0  0  0  0  0  0  0  0  0
  -20.6999  -26.0457   18.9427 C   0  0  0  0  0  0  0  0  0  0  0  0
  -27.2896  -21.2400   15.4536 C   0  0  0  0  0  0  0  0  0  1  0  0
  -24.6848  -26.8326   21.8300 C   0  0  1  0  0  0  0  0  0  0  0  0
  -20.9361  -26.4792   21.3912 C   0  0  2  0  0  0  0  0  0  0  0  0
  -25.2991  -27.1020   23.2326 C   0  0  0  0  0  0  0  0  0  0  0  0
  -25.8905  -11.5838   20.6128 N   0  0  0  0  0  0  0  0  0  0  0  0
  -26.2505  -12.8753   20.5195 N   0  0  0  0  0  0  0  0  0  0  0  0
  -25.9272  -27.0567   19.7016 N   0  0  0  0  0  0  0  0  0  0  0  0
  -29.4406  -13.6618   18.5638 N   0  0  0  0  0  0  0  0  0  0  0  0
  -29.2810  -15.5397   17.0815 N   0  0  0  0  0  0  0  0  0  0  0  0
  -25.3980  -15.0839   20.5953 N   0  0  0  0  0  0  0  0  0  0  0  0
  -21.7320  -12.5292   21.2510 N   0  0  0  0  0  0  0  0  0  0  0  0
  -28.8278  -28.9865   18.9319 N   0  0  0  0  0  0  0  0  0  0  0  0
  -23.2412  -27.0322   21.7615 N   0  0  0  0  0  0  0  0  0  0  0  0
  -20.1685  -25.8016   20.3084 N   0  3  0  0  0  0  0  0  0  0  0  0
  -22.4881  -14.6851   21.0539 O   0  0  0  0  0  0  0  0  0  0  0  0
  -28.5645  -26.8296   19.7690 O   0  0  0  0  0  0  0  0  0  0  0  0
  -25.1793  -28.9386   20.8571 O   0  0  0  0  0  0  0  0  0  0  0  0
  -22.7206  -24.8847   21.0585 O   0  0  0  0  0  0  0  0  0  0  0  0
  -30.8827  -15.4452   18.7451 O   0  0  0  0  0  0  0  0  0  0  0  0
  -21.5860   -6.9630   21.4304 O   0  0  0  0  0  0  0  0  0  0  0  0
  -26.9448  -21.7303   16.7416 O   0  0  0  0  0  0  0  0  0  1  0  0
  -23.6329   -3.0275   24.7054 F   0  0  0  0  0  0  0  0  0  0  0  0
  -20.1902   -6.1020   23.6559 F   0  0  0  0  0  0  0  0  0  0  0  0
  1  2  1  0  0  0  0
  1  5  2  0  0  0  0
  2  6  2  0  0  0  0
  3  8  2  0  0  0  0
  3 16  1  0  0  0  0
  4  9  1  0  0  0  0
  4 16  2  0  0  0  0
  5 18  1  0  0  0  0
  6 20  1  0  0  0  0
  7 10  2  0  0  0  0
  7 19  1  0  0  0  0
  8 27  1  0  0  0  0
  9 27  2  0  0  0  0
 10 28  1  0  0  0  0
 11 12  2  0  0  0  0
 11 29  1  0  0  0  0
 12 30  1  0  0  0  0
 13 21  1  0  0  0  0
 13 24  2  0  0  0  0
 14 22  1  0  0  0  0
 14 28  2  0  0  0  0
 15 30  2  0  0  0  0
 15 31  1  0  0  0  0
 16 32  1  0  0  0  0
 17 32  1  0  0  0  0
 17 33  2  0  0  0  0
 17 34  1  0  0  0  0
 18 20  2  0  0  0  0
 18 39  1  0  0  0  0
 19 22  2  0  0  0  0
 19 40  1  0  0  0  0
 20 50  1  0  0  0  0
 21 23  2  0  0  0  0
 21 41  1  0  0  0  0
 22 42  1  0  0  0  0
 23 25  1  0  0  0  0
 23 51  1  0  0  0  0
 24 26  1  0  0  0  0
 24 54  1  0  0  0  0
 25 26  2  0  0  0  0
 25 55  1  0  0  0  0
 26 62  1  0  0  0  0
 27 81  1  0  0  0  0
 28 82  1  0  0  0  0
 29 31  2  0  0  0  0
 29 81  1  0  0  0  0
 30 83  1  0  0  0  0
 31 84  1  0  0  0  0
 32 66  2  0  0  0  0
 33 67  1  0  0  0  0
 33 71  1  0  0  0  0
 34 72  1  0  0  0  0
 34 76  2  0  0  0  0
 35 52  1  0  0  0  0
 35 73  1  0  0  0  0
 35 77  2  0  0  0  0
 36 63  1  0  0  0  0
 36 68  1  0  0  0  0
 36 78  2  0  0  0  0
 37 64  1  0  0  0  0
 37 74  1  0  0  0  0
 37 79  2  0  0  0  0
 38 69  1  0  0  0  0
 38 70  1  0  0  0  0
 38 80  2  0  0  0  0
 39 43  1  0  0  0  0
 40 52  1  0  0  0  0
 41 47  1  0  0  0  0
 42 68  1  0  0  0  0
 43 45  1  0  0  0  0
 44 46  1  0  0  0  0
 44 48  1  0  0  0  0
 45 50  1  0  0  0  0
 46 53  1  0  0  0  0
 47 70  1  0  0  0  0
 48 69  1  0  0  0  0
 49 53  1  0  0  0  0
 49 69  1  0  0  0  0
 50 73  1  0  0  0  0
 51 56  1  0  0  0  0
 51 70  1  0  0  0  0
 52 68  1  0  0  0  0
 53 67  1  0  0  0  0
 57 64  1  0  0  0  0
 58 65  1  0  0  0  0
 59 65  1  0  0  0  0
 60 65  1  0  0  0  0
 61 75  1  0  0  0  0
 62 82  1  0  0  0  0
 63 65  1  0  0  0  0
 63 74  1  0  0  0  0
 64 75  1  0  0  0  0
 66 67  1  0  0  0  0
M  CHG  1  75   1
M  ISO  4  38 100  62 101  70 100  82 101
M  END
> <Batch ID>
0168

> <Smiles>
CNC(C)C(=O)NC(C(=O)N1Cc2cc([101O:1][101CH2:1]c3c(C)cc4c(c3C)C(C)[100N:0]([100C:0](=O)N3CCCC(n5nc(-c6ccc(Oc7ccc(F)cc7F)cc6)c(C(N)=O)c5N)C3)CC4)ccc2CC1C(=O)NC1CCCc2ccccc21)C(C)(C)C

> <Shape>
0.204

> <Color>
0.209

> <Negative vol penalty>
0.000

$$$$

  -OEChem-04052322302D

  0  0  0     0  0  0  0  0  0999 V2000
M  END
$$$$

  -OEChem-04052322303D

 92102  0     1  0  0  0  0  0999 V2000
  -19.9813  -32.9252   15.8721 C   0  0  0  0  0  0  0  0  0  0  0  0
  -21.0279  -32.0091   15.8430 C   0  0  0  0  0  0  0  0  0  0  0  0
  -22.2578  -10.9593   20.7946 C   0  0  0  0  0  0  0  0  0  0  0  0
  -23.8554  -10.2926   22.4799 C   0  0  0  0  0  0  0  0  0  0  0  0
  -19.9519  -33.9173   16.8513 C   0  0  0  0  0  0  0  0  0  0  0  0
  -22.0463  -32.0854   16.7924 C   0  0  0  0  0  0  0  0  0  0  0  0
  -29.6904  -23.2016   22.6052 C   0  0  0  0  0  0  0  0  0  0  0  0
  -25.1090  -27.4068   19.2897 C   0  0  0  0  0  0  0  0  0  0  0  0
  -29.0298  -23.0166   23.8196 C   0  0  0  0  0  0  0  0  0  0  0  0
  -21.8828   -9.6268   20.6229 C   0  0  0  0  0  0  0  0  0  0  0  0
  -23.4804   -8.9601   22.3083 C   0  0  0  0  0  0  0  0  0  0  0  0
  -26.3532  -26.8437   19.0093 C   0  0  0  0  0  0  0  0  0  0  0  0
  -22.6888   -5.4214   22.5713 C   0  0  0  0  0  0  0  0  0  0  0  0
  -22.4812   -4.6526   23.7165 C   0  0  0  0  0  0  0  0  0  0  0  0
  -27.7528  -24.3453   21.7252 C   0  0  0  0  0  0  0  0  0  0  0  0
  -27.3463  -28.1861   20.7503 C   0  0  0  0  0  0  0  0  0  0  0  0
  -20.7390   -6.1713   24.4202 C   0  0  0  0  0  0  0  0  0  0  0  0
  -23.2442  -11.2922   21.7231 C   0  0  0  0  0  0  0  0  0  0  0  0
  -22.8100  -13.7390   22.2996 C   0  0  0  0  0  0  0  0  0  0  0  0
  -29.0520  -23.8660   21.5580 C   0  0  0  0  0  0  0  0  0  0  0  0
  -20.9654  -33.9998   17.8190 C   0  0  0  0  0  0  0  0  0  0  0  0
  -24.9758  -28.3733   20.2970 C   0  0  0  0  0  0  0  0  0  0  0  0
  -22.0311  -33.0803   17.7846 C   0  0  0  0  0  0  0  0  0  0  0  0
  -26.0989  -28.7579   21.0433 C   0  0  0  0  0  0  0  0  0  0  0  0
  -27.7306  -23.4959   23.9869 C   0  0  0  0  0  0  0  0  0  0  0  0
  -27.0920  -24.1603   22.9397 C   0  0  0  0  0  0  0  0  0  0  0  0
  -22.4940   -8.6272   21.3798 C   0  0  0  0  0  0  0  0  0  0  0  0
  -27.4727  -27.2355   19.7376 C   0  0  0  0  0  0  0  0  0  0  0  0
  -21.9214   -6.5652   22.3505 C   0  0  0  0  0  0  0  0  0  0  0  0
  -21.5063   -5.0275   24.6409 C   0  0  0  0  0  0  0  0  0  0  0  0
  -20.9465   -6.9401   23.2750 C   0  0  0  0  0  0  0  0  0  0  0  0
  -23.6324  -12.6684   21.9005 C   0  0  0  0  0  0  0  0  0  0  0  0
  -23.6476  -14.8274   22.3168 C   0  0  0  0  0  0  0  0  0  0  0  0
  -21.4139  -13.7487   22.6257 C   0  0  0  0  0  0  0  0  0  0  0  0
  -24.0757  -31.4208   20.3766 C   0  0  0  0  0  0  0  0  0  0  0  0
  -24.3357  -31.0088   23.5836 C   0  0  0  0  0  0  0  0  0  0  0  0
  -25.7198  -29.2792   26.1797 C   0  0  0  0  0  0  0  0  0  0  0  0
  -27.4742  -17.8688   19.8376 C   0  0  0  0  0  0  0  0  0  0  0  0
  -20.9153  -35.1187   18.8291 C   0  0  0  0  0  0  0  0  0  0  0  0
  -23.6219  -28.9514   20.6052 C   0  0  0  0  0  0  0  0  0  0  0  0
  -26.0055  -29.7768   22.1486 C   0  0  0  0  0  0  0  0  0  0  0  0
  -21.8370  -34.9003   20.0263 C   0  0  0  0  0  0  0  0  0  0  0  0
  -28.6631  -15.1482   21.9881 C   0  0  0  0  0  0  0  0  0  0  0  0
  -23.2186  -34.4511   19.5614 C   0  0  0  0  0  0  0  0  0  0  0  0
  -27.3938  -14.3161   22.1359 C   0  0  0  0  0  0  0  0  0  0  0  0
  -29.4646  -19.1195   17.4390 C   0  0  0  0  0  0  0  0  0  0  0  0
  -28.8799  -24.1234   18.9633 C   0  0  0  0  0  0  0  0  0  0  0  0
  -28.7673  -15.8111   20.6140 C   0  0  0  0  0  0  0  0  0  0  0  0
  -29.5279  -17.8035   18.2203 C   0  0  0  0  0  0  0  0  0  0  0  0
  -26.2964  -15.7720   20.3981 C   0  0  0  0  0  0  0  0  0  0  0  0
  -28.5170  -22.6780   18.6941 C   0  0  0  0  0  0  0  0  0  0  0  0
  -23.1413  -33.1152   18.8124 C   0  0  1  0  0  0  0  0  0  0  0  0
  -23.6954  -30.3040   21.3070 C   0  0  1  0  0  0  0  0  0  0  0  0
  -26.1554  -15.1597   21.7988 C   0  0  1  0  0  0  0  0  0  0  0  0
  -28.7248  -19.7433   18.6323 C   0  0  2  0  0  0  0  0  0  0  0  0
  -30.6790  -22.8325   19.8833 C   0  0  2  0  0  0  0  0  0  0  0  0
  -29.7832  -24.0702   20.2138 C   0  0  2  0  0  0  0  0  0  0  0  0
  -27.0430  -23.2850   25.2958 C   0  0  0  0  0  0  0  0  0  0  0  0
  -25.7012  -24.6818   23.0956 C   0  0  0  0  0  0  0  0  0  0  0  0
  -31.9515  -23.1141   19.0838 C   0  0  0  0  0  0  0  0  0  0  0  0
  -26.1215  -28.5676   28.5524 C   0  0  0  0  0  0  0  0  0  0  0  0
  -31.5929  -25.3207   21.4390 C   0  0  0  0  0  0  0  0  0  0  0  0
  -26.1694  -33.4473   23.6222 C   0  0  0  0  0  0  0  0  0  0  0  0
  -26.9258  -32.7555   25.9063 C   0  0  0  0  0  0  0  0  0  0  0  0
  -24.5337  -33.3421   25.5111 C   0  0  0  0  0  0  0  0  0  0  0  0
  -23.5590  -27.2602   26.0623 C   0  0  0  0  0  0  0  0  0  0  0  0
  -29.5390  -20.5704   19.6076 C   0  0  0  0  0  0  0  0  0  0  0  0
  -29.6098  -26.5787   20.5482 C   0  0  0  0  0  0  0  0  0  1  0  0
  -25.4444  -31.1685   24.5956 C   0  0  1  0  0  0  0  0  0  0  0  0
  -25.1041  -28.6708   27.4268 C   0  0  2  0  0  0  0  0  0  0  0  0
  -30.5580  -25.3994   20.3196 C   0  0  2  0  0  0  0  0  0  0  0  0
  -25.7708  -32.6605   24.8867 C   0  0  0  0  0  0  0  0  0  0  0  0
  -24.8954  -13.0428   21.6799 N   0  0  0  0  0  0  0  0  0  0  0  0
  -24.8729  -14.3608   21.9413 N   0  0  0  0  0  0  0  0  0  0  0  0
  -24.6610  -30.3178   22.4078 N   0  0  0  0  0  0  0  0  0  0  0  0
  -27.5413  -16.5371   20.2614 N   0  0  0  0  0  0  0  0  0  0  0  0
  -28.5329  -18.3744   19.1164 N   0  0  0  0  0  0  0  0  0  0  0  0
  -23.4481  -16.1285   22.6164 N   0  0  0  0  0  0  0  0  0  0  0  0
  -21.0371  -13.5240   23.9568 N   0  0  0  0  0  0  0  0  0  0  0  0
  -23.0010  -32.0192   19.7470 N   0  0  0  0  0  0  0  0  0  0  0  0
  -25.0376  -30.4055   25.7707 N   0  0  0  0  0  0  0  0  0  0  0  0
  -29.7852  -21.9247   19.0163 N   0  3  1  0  0  0  0  0  0  0  0  0
  -24.5860  -27.3043   27.1348 N   0  3  0  0  0  0  0  0  0  0  0  0
  -20.5260  -13.9344   21.7593 O   0  0  0  0  0  0  0  0  0  0  0  0
  -25.2567  -31.7186   20.2411 O   0  0  0  0  0  0  0  0  0  0  0  0
  -23.2201  -31.4736   23.8305 O   0  0  0  0  0  0  0  0  0  0  0  0
  -26.7093  -28.8050   25.6261 O   0  0  0  0  0  0  0  0  0  0  0  0
  -26.4866  -18.5791   20.0677 O   0  0  0  0  0  0  0  0  0  0  0  0
  -22.1282   -7.3269   21.2127 O   0  0  0  0  0  0  0  0  0  0  0  0
  -28.6971  -26.6841   19.4636 O   0  0  0  0  0  0  0  0  0  1  0  0
  -21.3061   -4.2883   25.7399 F   0  0  0  0  0  0  0  0  0  0  0  0
  -20.2055   -8.0372   23.0678 F   0  0  0  0  0  0  0  0  0  0  0  0
  1  2  1  0  0  0  0
  1  5  2  0  0  0  0
  2  6  2  0  0  0  0
  3 10  2  0  0  0  0
  3 18  1  0  0  0  0
  4 11  1  0  0  0  0
  4 18  2  0  0  0  0
  5 21  1  0  0  0  0
  6 23  1  0  0  0  0
  7  9  2  0  0  0  0
  7 20  1  0  0  0  0
  8 12  2  0  0  0  0
  8 22  1  0  0  0  0
  9 25  1  0  0  0  0
 10 27  1  0  0  0  0
 11 27  2  0  0  0  0
 12 28  1  0  0  0  0
 13 14  2  0  0  0  0
 13 29  1  0  0  0  0
 14 30  1  0  0  0  0
 15 20  2  0  0  0  0
 15 26  1  0  0  0  0
 16 24  1  0  0  0  0
 16 28  2  0  0  0  0
 17 30  2  0  0  0  0
 17 31  1  0  0  0  0
 18 32  1  0  0  0  0
 19 32  1  0  0  0  0
 19 33  2  0  0  0  0
 19 34  1  0  0  0  0
 20 57  1  0  0  0  0
 21 23  2  0  0  0  0
 21 39  1  0  0  0  0
 22 24  2  0  0  0  0
 22 40  1  0  0  0  0
 23 52  1  0  0  0  0
 24 41  1  0  0  0  0
 25 26  2  0  0  0  0
 25 58  1  0  0  0  0
 26 59  1  0  0  0  0
 27 89  1  0  0  0  0
 28 90  1  0  0  0  0
 29 31  2  0  0  0  0
 29 89  1  0  0  0  0
 30 91  1  0  0  0  0
 31 92  1  0  0  0  0
 32 73  2  0  0  0  0
 33 74  1  0  0  0  0
 33 78  1  0  0  0  0
 34 79  1  0  0  0  0
 34 84  2  0  0  0  0
 35 53  1  0  0  0  0
 35 80  1  0  0  0  0
 35 85  2  0  0  0  0
 36 69  1  0  0  0  0
 36 75  1  0  0  0  0
 36 86  2  0  0  0  0
 37 70  1  0  0  0  0
 37 81  1  0  0  0  0
 37 87  2  0  0  0  0
 38 76  1  0  0  0  0
 38 77  1  0  0  0  0
 38 88  2  0  0  0  0
 39 42  1  0  0  0  0
 40 53  1  0  0  0  0
 41 75  1  0  0  0  0
 42 44  1  0  0  0  0
 43 45  1  0  0  0  0
 43 48  1  0  0  0  0
 44 52  1  0  0  0  0
 45 54  1  0  0  0  0
 46 49  1  0  0  0  0
 46 55  1  0  0  0  0
 47 51  1  0  0  0  0
 47 57  1  0  0  0  0
 48 76  1  0  0  0  0
 49 77  1  0  0  0  0
 50 54  1  0  0  0  0
 50 76  1  0  0  0  0
 51 82  1  0  0  0  0
 52 80  1  0  0  0  0
 53 75  1  0  0  0  0
 54 74  1  0  0  0  0
 55 67  1  0  0  0  0
 55 77  1  0  0  0  0
 56 57  1  0  0  0  0
 56 60  1  0  0  0  0
 56 82  1  0  0  0  0
 57 71  1  0  0  0  0
 61 70  1  0  0  0  0
 62 71  1  0  0  0  0
 63 72  1  0  0  0  0
 64 72  1  0  0  0  0
 65 72  1  0  0  0  0
 66 83  1  0  0  0  0
 67 82  1  0  0  0  0
 68 71  1  0  0  0  0
 68 90  1  0  0  0  0
 69 72  1  0  0  0  0
 69 81  1  0  0  0  0
 70 83  1  0  0  0  0
 73 74  1  0  0  0  0
M  CHG  2  82   1  83   1
M  ISO  4  38 100  68 101  77 100  90 101
M  END
> <Batch ID>
0168

> <Smiles>
CNC(C)C(=O)NC(C(=O)N1Cc2cc([101O:1][101CH2:1]C(C)C3(c4ccc(C)c(C)c4)CCN(CC4CC[100N:0]4[100C:0](=O)N4CCCC(n5nc(-c6ccc(Oc7ccc(F)cc7F)cc6)c(C(N)=O)c5N)C4)C3C)ccc2CC1C(=O)NC1CCCc2ccccc21)C(C)(C)C

> <Shape>
0.305

> <Color>
0.084

> <Negative vol penalty>
0.000

$$$$

  -OEChem-04052322303D

 86 95  0     1  0  0  0  0  0999 V2000
  -19.0855  -26.7111   25.9928 C   0  0  0  0  0  0  0  0  0  0  0  0
  -20.3620  -26.3480   25.5755 C   0  0  0  0  0  0  0  0  0  0  0  0
  -23.8196   -9.6878   21.7234 C   0  0  0  0  0  0  0  0  0  0  0  0
  -24.5221  -10.9032   23.6897 C   0  0  0  0  0  0  0  0  0  0  0  0
  -18.2484  -27.4217   25.1336 C   0  0  0  0  0  0  0  0  0  0  0  0
  -20.8017  -26.6943   24.2983 C   0  0  0  0  0  0  0  0  0  0  0  0
  -26.5040  -28.2027   22.6509 C   0  0  0  0  0  0  0  0  0  0  0  0
  -23.3514   -8.6515   22.5312 C   0  0  0  0  0  0  0  0  0  0  0  0
  -24.0539   -9.8669   24.4975 C   0  0  0  0  0  0  0  0  0  0  0  0
  -27.5329  -27.4729   22.0572 C   0  0  0  0  0  0  0  0  0  0  0  0
  -20.6367   -8.0163   24.4442 C   0  0  0  0  0  0  0  0  0  0  0  0
  -19.3818   -7.4825   24.1514 C   0  0  0  0  0  0  0  0  0  0  0  0
  -26.8787  -28.3206   19.8956 C   0  0  0  0  0  0  0  0  0  0  0  0
  -28.5087  -19.1264   20.0647 C   0  0  0  0  0  0  0  0  0  0  0  0
  -20.3865   -5.3135   23.8004 C   0  0  0  0  0  0  0  0  0  0  0  0
  -24.4050  -10.8136   22.3026 C   0  0  0  0  0  0  0  0  0  0  0  0
  -24.1697  -13.0115   21.0291 C   0  0  0  0  0  0  0  0  0  0  0  0
  -18.6815  -27.7853   23.8488 C   0  0  0  0  0  0  0  0  0  0  0  0
  -25.6465  -28.9897   21.8688 C   0  0  0  0  0  0  0  0  0  0  0  0
  -19.9690  -27.4092   23.4207 C   0  0  0  0  0  0  0  0  0  0  0  0
  -25.8413  -29.0614   20.4821 C   0  0  0  0  0  0  0  0  0  0  0  0
  -29.8254  -20.9405   19.1931 C   0  0  0  0  0  0  0  0  0  0  0  0
  -28.6857  -20.4885   19.8490 C   0  0  0  0  0  0  0  0  0  0  0  0
  -23.4686   -8.7411   23.9182 C   0  0  0  0  0  0  0  0  0  0  0  0
  -27.7186  -27.5295   20.6790 C   0  0  0  0  0  0  0  0  0  0  0  0
  -21.7666   -7.1988   24.4151 C   0  0  0  0  0  0  0  0  0  0  0  0
  -19.2567   -6.1310   23.8295 C   0  0  0  0  0  0  0  0  0  0  0  0
  -21.6414   -5.8474   24.0932 C   0  0  0  0  0  0  0  0  0  0  0  0
  -24.8893  -11.8842   21.4687 C   0  0  0  0  0  0  0  0  0  0  0  0
  -30.7507  -19.9973   18.7760 C   0  0  0  0  0  0  0  0  0  0  0  0
  -29.4929  -18.2644   19.6085 C   0  0  0  0  0  0  0  0  0  0  0  0
  -25.0700  -13.7193   20.2710 C   0  0  0  0  0  0  0  0  0  0  0  0
  -22.8091  -13.3854   21.2836 C   0  0  0  0  0  0  0  0  0  0  0  0
  -22.5246  -28.9908   21.2711 C   0  0  0  0  0  0  0  0  0  0  0  0
  -23.2237  -31.7350   19.6891 C   0  0  0  0  0  0  0  0  0  0  0  0
  -25.5543  -33.6362   18.0765 C   0  0  0  0  0  0  0  0  0  0  0  0
  -30.1555  -15.8382   19.4642 C   0  0  0  0  0  0  0  0  0  0  0  0
  -17.7237  -28.5122   22.9384 C   0  0  0  0  0  0  0  0  0  0  0  0
  -24.5580  -29.7920   22.5277 C   0  0  0  0  0  0  0  0  0  0  0  0
  -24.9607  -29.9073   19.6003 C   0  0  0  0  0  0  0  0  0  0  0  0
  -18.4022  -29.1661   21.7375 C   0  0  0  0  0  0  0  0  0  0  0  0
  -29.6523  -12.4351   18.5461 C   0  0  0  0  0  0  0  0  0  0  0  0
  -19.3765  -28.1938   21.0800 C   0  0  0  0  0  0  0  0  0  0  0  0
  -28.3091  -12.0811   19.1884 C   0  0  0  0  0  0  0  0  0  0  0  0
  -30.4731  -13.3739   19.4285 C   0  0  0  0  0  0  0  0  0  0  0  0
  -28.4303  -14.2371   20.5014 C   0  0  0  0  0  0  0  0  0  0  0  0
  -28.5278  -24.3030   18.6510 C   0  0  0  0  0  0  0  0  0  0  0  0
  -20.4911  -27.7880   22.0517 C   0  0  1  0  0  0  0  0  0  0  0  0
  -30.0415  -22.3924   18.9470 C   0  0  2  0  0  0  0  0  0  0  0  0
  -23.4236  -30.1557   21.5747 C   0  0  1  0  0  0  0  0  0  0  0  0
  -29.6000  -24.6290   19.6802 C   0  0  2  0  0  0  0  0  0  0  0  0
  -29.9670  -23.2445   20.2278 C   0  0  2  0  0  0  0  0  0  0  0  0
  -27.5404  -13.3453   19.6203 C   0  0  2  0  0  0  0  0  0  0  0  0
  -27.6426  -21.4424   20.3297 C   0  0  0  0  0  0  0  0  0  0  0  0
  -31.9948  -20.4241   18.0672 C   0  0  0  0  0  0  0  0  0  0  0  0
  -31.2707  -23.2318   21.0170 C   0  0  0  0  0  0  0  0  0  0  0  0
  -25.8191  -35.8135   16.8571 C   0  0  0  0  0  0  0  0  0  0  0  0
  -21.8376  -30.5348   17.2502 C   0  0  0  0  0  0  0  0  0  0  0  0
  -22.9422  -32.2888   15.8461 C   0  0  0  0  0  0  0  0  0  0  0  0
  -21.3461  -32.9551   17.6436 C   0  0  0  0  0  0  0  0  0  0  0  0
  -27.5394  -34.6256   20.0360 C   0  0  0  0  0  0  0  0  0  0  0  0
  -29.1071  -25.5994   20.7323 C   0  0  0  0  0  0  0  0  0  1  0  0
  -23.6321  -32.0809   18.2775 C   0  0  1  0  0  0  0  0  0  0  0  0
  -25.9159  -35.1055   18.1996 C   0  0  2  0  0  0  0  0  0  0  0  0
  -22.4551  -31.9473   17.2704 C   0  0  0  0  0  0  0  0  0  0  0  0
  -26.1495  -11.8723   21.0264 N   0  0  0  0  0  0  0  0  0  0  0  0
  -30.6133  -18.6661   18.9675 N   0  0  0  0  0  0  0  0  0  0  0  0
  -26.2289  -13.0008   20.3010 N   0  0  0  0  0  0  0  0  0  0  0  0
  -23.9065  -30.6684   20.2908 N   0  0  0  0  0  0  0  0  0  0  0  0
  -29.6821  -14.5508   19.7946 N   0  0  0  0  0  0  0  0  0  0  0  0
  -24.9755  -14.8800   19.5881 N   0  0  0  0  0  0  0  0  0  0  0  0
  -22.0234  -12.5443   22.0833 N   0  0  0  0  0  0  0  0  0  0  0  0
  -29.3032  -16.8783   19.8334 N   0  0  0  0  0  0  0  0  0  0  0  0
  -21.4765  -28.8425   22.1594 N   0  0  0  0  0  0  0  0  0  0  0  0
  -24.2186  -33.4154   18.3376 N   0  0  0  0  0  0  0  0  0  0  0  0
  -28.9765  -23.0020   18.0516 N   0  3  0  0  0  0  0  0  0  0  0  0
  -27.3078  -35.2553   18.7106 N   0  3  0  0  0  0  0  0  0  0  0  0
  -22.3003  -14.4260   20.8021 O   0  0  0  0  0  0  0  0  0  0  0  0
  -22.7631  -28.2800   20.3018 O   0  0  0  0  0  0  0  0  0  0  0  0
  -22.3367  -32.3917   20.2401 O   0  0  0  0  0  0  0  0  0  0  0  0
  -26.3740  -32.7715   17.7751 O   0  0  0  0  0  0  0  0  0  0  0  0
  -31.2246  -16.0041   18.8712 O   0  0  0  0  0  0  0  0  0  0  0  0
  -23.0116   -7.7302   24.7068 O   0  0  0  0  0  0  0  0  0  0  0  0
  -28.7217  -26.8176   20.0968 O   0  0  0  0  0  0  0  0  0  1  0  0
  -18.0513   -5.6181   23.5499 F   0  0  0  0  0  0  0  0  0  0  0  0
  -22.7231   -5.0568   24.0647 F   0  0  0  0  0  0  0  0  0  0  0  0
  1  2  1  0  0  0  0
  1  5  2  0  0  0  0
  2  6  2  0  0  0  0
  3  8  2  0  0  0  0
  3 16  1  0  0  0  0
  4  9  1  0  0  0  0
  4 16  2  0  0  0  0
  5 18  1  0  0  0  0
  6 20  1  0  0  0  0
  7 10  2  0  0  0  0
  7 19  1  0  0  0  0
  8 24  1  0  0  0  0
  9 24  2  0  0  0  0
 10 25  1  0  0  0  0
 11 12  2  0  0  0  0
 11 26  1  0  0  0  0
 12 27  1  0  0  0  0
 13 21  1  0  0  0  0
 13 25  2  0  0  0  0
 14 23  2  0  0  0  0
 14 31  1  0  0  0  0
 15 27  2  0  0  0  0
 15 28  1  0  0  0  0
 16 29  1  0  0  0  0
 17 29  1  0  0  0  0
 17 32  2  0  0  0  0
 17 33  1  0  0  0  0
 18 20  2  0  0  0  0
 18 38  1  0  0  0  0
 19 21  2  0  0  0  0
 19 39  1  0  0  0  0
 20 48  1  0  0  0  0
 21 40  1  0  0  0  0
 22 23  1  0  0  0  0
 22 30  2  0  0  0  0
 22 49  1  0  0  0  0
 23 54  1  0  0  0  0
 24 83  1  0  0  0  0
 25 84  1  0  0  0  0
 26 28  2  0  0  0  0
 26 83  1  0  0  0  0
 27 85  1  0  0  0  0
 28 86  1  0  0  0  0
 29 66  2  0  0  0  0
 30 55  1  0  0  0  0
 30 67  1  0  0  0  0
 31 67  2  0  0  0  0
 31 73  1  0  0  0  0
 32 68  1  0  0  0  0
 32 71  1  0  0  0  0
 33 72  1  0  0  0  0
 33 78  2  0  0  0  0
 34 50  1  0  0  0  0
 34 74  1  0  0  0  0
 34 79  2  0  0  0  0
 35 63  1  0  0  0  0
 35 69  1  0  0  0  0
 35 80  2  0  0  0  0
 36 64  1  0  0  0  0
 36 75  1  0  0  0  0
 36 81  2  0  0  0  0
 37 70  1  0  0  0  0
 37 73  1  0  0  0  0
 37 82  2  0  0  0  0
 38 41  1  0  0  0  0
 39 50  1  0  0  0  0
 40 69  1  0  0  0  0
 41 43  1  0  0  0  0
 42 44  1  0  0  0  0
 42 45  1  0  0  0  0
 43 48  1  0  0  0  0
 44 53  1  0  0  0  0
 45 70  1  0  0  0  0
 46 53  1  0  0  0  0
 46 70  1  0  0  0  0
 47 51  1  0  0  0  0
 47 76  1  0  0  0  0
 48 74  1  0  0  0  0
 49 52  1  0  0  0  0
 49 76  1  0  0  0  0
 50 69  1  0  0  0  0
 51 52  1  0  0  0  0
 51 62  1  0  0  0  0
 52 56  1  0  0  0  0
 53 68  1  0  0  0  0
 57 64  1  0  0  0  0
 58 65  1  0  0  0  0
 59 65  1  0  0  0  0
 60 65  1  0  0  0  0
 61 77  1  0  0  0  0
 62 84  1  0  0  0  0
 63 65  1  0  0  0  0
 63 75  1  0  0  0  0
 64 77  1  0  0  0  0
 66 68  1  0  0  0  0
M  CHG  2  76   1  77   1
M  ISO  4  37 100  62 101  73 100  84 101
M  END
> <Batch ID>
0168

> <Smiles>
CNC(C)C(=O)NC(C(=O)N1Cc2cc([101O:1][101CH2:1]C3CNC(c4c(C)cc([100NH:0][100C:0](=O)N5CCCC(n6nc(-c7ccc(Oc8ccc(F)cc8F)cc7)c(C(N)=O)c6N)C5)nc4C)C3C)ccc2CC1C(=O)NC1CCCc2ccccc21)C(C)(C)C

> <Shape>
0.314

> <Color>
0.177

> <Negative vol penalty>
0.000

$$$$

  -OEChem-04052322303D

 86 95  0     1  0  0  0  0  0999 V2000
  -16.5066  -27.1248   24.8234 C   0  0  0  0  0  0  0  0  0  0  0  0
  -17.1715  -25.9047   24.7535 C   0  0  0  0  0  0  0  0  0  0  0  0
  -23.4604  -13.8962   20.6095 C   0  0  0  0  0  0  0  0  0  0  0  0
  -25.6262  -14.4510   21.5253 C   0  0  0  0  0  0  0  0  0  0  0  0
  -16.9675  -28.2120   24.0821 C   0  0  0  0  0  0  0  0  0  0  0  0
  -18.2971  -25.7709   23.9413 C   0  0  0  0  0  0  0  0  0  0  0  0
  -25.5303  -23.4477   25.7607 C   0  0  0  0  0  0  0  0  0  0  0  0
  -23.8979  -12.5949   20.3632 C   0  0  0  0  0  0  0  0  0  0  0  0
  -26.0637  -13.1496   21.2790 C   0  0  0  0  0  0  0  0  0  0  0  0
  -26.8844  -23.2040   25.9912 C   0  0  0  0  0  0  0  0  0  0  0  0
  -24.3788   -9.7522   22.1298 C   0  0  0  0  0  0  0  0  0  0  0  0
  -23.5267   -8.7048   22.4795 C   0  0  0  0  0  0  0  0  0  0  0  0
  -27.4663  -24.5740   24.0853 C   0  0  0  0  0  0  0  0  0  0  0  0
  -28.7892  -22.0194   20.6896 C   0  0  0  0  0  0  0  0  0  0  0  0
  -23.4772   -7.9761   20.1765 C   0  0  0  0  0  0  0  0  0  0  0  0
  -24.3246  -14.8243   21.1906 C   0  0  0  0  0  0  0  0  0  0  0  0
  -23.2556  -16.6515   22.6140 C   0  0  0  0  0  0  0  0  0  0  0  0
  -18.1049  -28.0941   23.2678 C   0  0  0  0  0  0  0  0  0  0  0  0
  -25.1393  -24.2690   24.6996 C   0  0  0  0  0  0  0  0  0  0  0  0
  -18.7727  -26.8572   23.1873 C   0  0  0  0  0  0  0  0  0  0  0  0
  -26.1120  -24.8318   23.8571 C   0  0  0  0  0  0  0  0  0  0  0  0
  -29.8733  -22.8423   20.9209 C   0  0  0  0  0  0  0  0  0  0  0  0
  -29.9636  -24.0910   20.3064 C   0  0  0  0  0  0  0  0  0  0  0  0
  -25.1995  -12.2215   20.6979 C   0  0  0  0  0  0  0  0  0  0  0  0
  -27.8500  -23.7656   25.1554 C   0  0  0  0  0  0  0  0  0  0  0  0
  -24.7800   -9.9117   20.8034 C   0  0  0  0  0  0  0  0  0  0  0  0
  -23.0759   -7.8167   21.5029 C   0  0  0  0  0  0  0  0  0  0  0  0
  -24.3292   -9.0237   19.8268 C   0  0  0  0  0  0  0  0  0  0  0  0
  -23.8734  -16.1689   21.4447 C   0  0  0  0  0  0  0  0  0  0  0  0
  -28.9519  -24.4960   19.4681 C   0  0  0  0  0  0  0  0  0  0  0  0
  -27.8238  -22.5068   19.8207 C   0  0  0  0  0  0  0  0  0  0  0  0
  -23.0248  -17.9808   22.3568 C   0  0  0  0  0  0  0  0  0  0  0  0
  -22.9203  -15.9600   23.8245 C   0  0  0  0  0  0  0  0  0  0  0  0
  -22.3145  -25.8702   22.8201 C   0  0  0  0  0  0  0  0  0  0  0  0
  -24.5546  -27.9574   23.0102 C   0  0  0  0  0  0  0  0  0  0  0  0
  -27.0878  -30.1004   23.8025 C   0  0  0  0  0  0  0  0  0  0  0  0
  -25.6264  -21.9472   18.7231 C   0  0  0  0  0  0  0  0  0  0  0  0
  -18.5375  -29.2840   22.4484 C   0  0  0  0  0  0  0  0  0  0  0  0
  -23.6895  -24.5091   24.3768 C   0  0  0  0  0  0  0  0  0  0  0  0
  -31.1936  -24.8239   20.7305 C   0  0  0  0  0  0  0  0  0  0  0  0
  -25.6435  -25.6808   22.7070 C   0  0  0  0  0  0  0  0  0  0  0  0
  -19.9577  -29.1633   21.9018 C   0  0  0  0  0  0  0  0  0  0  0  0
  -22.1928  -21.0054   18.7382 C   0  0  0  0  0  0  0  0  0  0  0  0
  -20.1777  -27.7848   21.2869 C   0  0  0  0  0  0  0  0  0  0  0  0
  -22.1770  -19.7053   19.5456 C   0  0  0  0  0  0  0  0  0  0  0  0
  -23.4446  -21.1186   17.8699 C   0  0  0  0  0  0  0  0  0  0  0  0
  -24.6989  -19.6437   19.3933 C   0  0  0  0  0  0  0  0  0  0  0  0
  -20.0118  -26.6795   22.3368 C   0  0  1  0  0  0  0  0  0  0  0  0
  -31.0447  -22.6077   21.8248 C   0  0  1  0  0  0  0  0  0  0  0  0
  -23.4181  -25.9241   23.8353 C   0  0  1  0  0  0  0  0  0  0  0  0
  -32.0496  -23.6782   21.3250 C   0  0  1  0  0  0  0  0  0  0  0  0
  -23.4886  -19.5147   20.3324 C   0  0  2  0  0  0  0  0  0  0  0  0
  -28.9999  -25.8257   18.7974 C   0  0  0  0  0  0  0  0  0  0  0  0
  -32.9884  -23.0909   20.2613 C   0  0  0  0  0  0  0  0  0  0  0  0
  -27.8319  -32.4753   23.4807 C   0  0  0  0  0  0  0  0  0  0  0  0
  -30.7472  -21.9681   26.3346 C   0  0  0  0  0  0  0  0  0  0  0  0
  -25.3729  -27.3088   20.1443 C   0  0  0  0  0  0  0  0  0  0  0  0
  -26.9017  -29.2905   20.2076 C   0  0  0  0  0  0  0  0  0  0  0  0
  -24.4412  -29.6069   20.4689 C   0  0  0  0  0  0  0  0  0  0  0  0
  -27.0532  -30.6279   26.7144 C   0  0  0  0  0  0  0  0  0  0  0  0
  -29.9408  -21.7945   23.9131 C   0  0  0  0  0  0  0  0  0  0  0  0
  -25.7659  -28.5758   22.3594 C   0  0  1  0  0  0  0  0  0  0  0  0
  -27.0762  -31.5058   24.3762 C   0  0  2  0  0  0  0  0  0  0  0  0
  -29.6001  -22.1669   25.3524 C   0  0  2  0  0  0  0  0  0  1  0  0
  -25.6229  -28.6747   20.8143 C   0  0  0  0  0  0  0  0  0  0  0  0
  -24.0253  -17.1146   20.5139 N   0  0  0  0  0  0  0  0  0  0  0  0
  -27.8757  -23.7194   19.2055 N   0  0  0  0  0  0  0  0  0  0  0  0
  -23.4995  -18.2048   21.0980 N   0  0  0  0  0  0  0  0  0  0  0  0
  -24.5518  -26.5639   23.1466 N   0  0  0  0  0  0  0  0  0  0  0  0
  -24.6479  -20.9315   18.6835 N   0  0  0  0  0  0  0  0  0  0  0  0
  -22.4639  -18.9682   23.0868 N   0  0  0  0  0  0  0  0  0  0  0  0
  -23.2277  -14.5961   23.9219 N   0  0  0  0  0  0  0  0  0  0  0  0
  -26.7104  -21.6714   19.5558 N   0  0  0  0  0  0  0  0  0  0  0  0
  -21.1911  -26.5941   23.1714 N   0  0  0  0  0  0  0  0  0  0  0  0
  -25.9764  -29.8577   23.0233 N   0  0  0  0  0  0  0  0  0  0  0  0
  -30.7180  -22.8727   23.2528 N   0  3  0  0  0  0  0  0  0  0  0  0
  -27.7102  -31.5200   25.7248 N   0  3  0  0  0  0  0  0  0  0  0  0
  -22.3498  -16.5309   24.7848 O   0  0  0  0  0  0  0  0  0  0  0  0
  -22.4701  -25.2212   21.7924 O   0  0  0  0  0  0  0  0  0  0  0  0
  -23.6318  -28.6872   23.3834 O   0  0  0  0  0  0  0  0  0  0  0  0
  -27.9941  -29.2994   24.0205 O   0  0  0  0  0  0  0  0  0  0  0  0
  -25.4982  -22.9970   18.0878 O   0  0  0  0  0  0  0  0  0  0  0  0
  -25.6267  -10.9517   20.4579 O   0  0  0  0  0  0  0  0  0  0  0  0
  -29.1704  -23.5272   25.3888 O   0  0  0  0  0  0  0  0  0  1  0  0
  -22.2589   -6.8099   21.8392 F   0  0  0  0  0  0  0  0  0  0  0  0
  -24.7122   -9.1711   18.5511 F   0  0  0  0  0  0  0  0  0  0  0  0
  1  2  1  0  0  0  0
  1  5  2  0  0  0  0
  2  6  2  0  0  0  0
  3  8  2  0  0  0  0
  3 16  1  0  0  0  0
  4  9  1  0  0  0  0
  4 16  2  0  0  0  0
  5 18  1  0  0  0  0
  6 20  1  0  0  0  0
  7 10  2  0  0  0  0
  7 19  1  0  0  0  0
  8 24  1  0  0  0  0
  9 24  2  0  0  0  0
 10 25  1  0  0  0  0
 11 12  2  0  0  0  0
 11 26  1  0  0  0  0
 12 27  1  0  0  0  0
 13 21  1  0  0  0  0
 13 25  2  0  0  0  0
 14 22  1  0  0  0  0
 14 31  2  0  0  0  0
 15 27  2  0  0  0  0
 15 28  1  0  0  0  0
 16 29  1  0  0  0  0
 17 29  1  0  0  0  0
 17 32  2  0  0  0  0
 17 33  1  0  0  0  0
 18 20  2  0  0  0  0
 18 38  1  0  0  0  0
 19 21  2  0  0  0  0
 19 39  1  0  0  0  0
 20 48  1  0  0  0  0
 21 41  1  0  0  0  0
 22 23  2  0  0  0  0
 22 49  1  0  0  0  0
 23 30  1  0  0  0  0
 23 40  1  0  0  0  0
 24 83  1  0  0  0  0
 25 84  1  0  0  0  0
 26 28  2  0  0  0  0
 26 83  1  0  0  0  0
 27 85  1  0  0  0  0
 28 86  1  0  0  0  0
 29 66  2  0  0  0  0
 30 53  1  0  0  0  0
 30 67  2  0  0  0  0
 31 67  1  0  0  0  0
 31 73  1  0  0  0  0
 32 68  1  0  0  0  0
 32 71  1  0  0  0  0
 33 72  1  0  0  0  0
 33 78  2  0  0  0  0
 34 50  1  0  0  0  0
 34 74  1  0  0  0  0
 34 79  2  0  0  0  0
 35 62  1  0  0  0  0
 35 69  1  0  0  0  0
 35 80  2  0  0  0  0
 36 63  1  0  0  0  0
 36 75  1  0  0  0  0
 36 81  2  0  0  0  0
 37 70  1  0  0  0  0
 37 73  1  0  0  0  0
 37 82  2  0  0  0  0
 38 42  1  0  0  0  0
 39 50  1  0  0  0  0
 40 51  1  0  0  0  0
 41 69  1  0  0  0  0
 42 44  1  0  0  0  0
 43 45  1  0  0  0  0
 43 46  1  0  0  0  0
 44 48  1  0  0  0  0
 45 52  1  0  0  0  0
 46 70  1  0  0  0  0
 47 52  1  0  0  0  0
 47 70  1  0  0  0  0
 48 74  1  0  0  0  0
 49 51  1  0  0  0  0
 49 76  1  0  0  0  0
 50 69  1  0  0  0  0
 51 54  1  0  0  0  0
 52 68  1  0  0  0  0
 55 63  1  0  0  0  0
 56 64  1  0  0  0  0
 57 65  1  0  0  0  0
 58 65  1  0  0  0  0
 59 65  1  0  0  0  0
 60 77  1  0  0  0  0
 61 64  1  0  0  0  0
 61 76  1  0  0  0  0
 62 65  1  0  0  0  0
 62 75  1  0  0  0  0
 63 77  1  0  0  0  0
 64 84  1  0  0  0  0
 66 68  1  0  0  0  0
M  CHG  2  76   1  77   1
M  ISO  4  37 100  64 101  73 100  84 101
M  END
> <Batch ID>
0168

> <Smiles>
CNC(C)C(=O)NC(C(=O)N1Cc2cc([101O:1][101CH:1](C)CNC3c4cc([100NH:0][100C:0](=O)N5CCCC(n6nc(-c7ccc(Oc8ccc(F)cc8F)cc7)c(C(N)=O)c6N)C5)nc(C)c4CC3C)ccc2CC1C(=O)NC1CCCc2ccccc21)C(C)(C)C

> <Shape>
0.207

> <Color>
0.061

> <Negative vol penalty>
0.000

$$$$

  -OEChem-04052322303D

 88 97  0     1  0  0  0  0  0999 V2000
  -28.2505  -37.2699   24.7764 C   0  0  0  0  0  0  0  0  0  0  0  0
  -28.2654  -36.5316   23.5984 C   0  0  0  0  0  0  0  0  0  0  0  0
  -24.4562   -8.9323   20.0375 C   0  0  0  0  0  0  0  0  0  0  0  0
  -24.4131   -9.7103   22.3244 C   0  0  0  0  0  0  0  0  0  0  0  0
  -27.6958  -36.7217   25.9310 C   0  0  0  0  0  0  0  0  0  0  0  0
  -27.7150  -35.2498   23.5715 C   0  0  0  0  0  0  0  0  0  0  0  0
  -26.8857  -29.3371   19.6013 C   0  0  0  0  0  0  0  0  0  0  0  0
  -24.1759   -7.6371   20.4728 C   0  0  0  0  0  0  0  0  0  0  0  0
  -24.1328   -8.4151   22.7598 C   0  0  0  0  0  0  0  0  0  0  0  0
  -27.1237  -27.9647   19.5424 C   0  0  0  0  0  0  0  0  0  0  0  0
  -21.4447   -6.3743   22.9326 C   0  0  0  0  0  0  0  0  0  0  0  0
  -20.4426   -6.2167   23.8900 C   0  0  0  0  0  0  0  0  0  0  0  0
  -25.2685  -27.5850   21.0369 C   0  0  0  0  0  0  0  0  0  0  0  0
  -22.0439   -5.2245   25.4028 C   0  0  0  0  0  0  0  0  0  0  0  0
  -24.5749   -9.9689   20.9633 C   0  0  0  0  0  0  0  0  0  0  0  0
  -23.9372  -12.3039   20.1579 C   0  0  0  0  0  0  0  0  0  0  0  0
  -27.1498  -35.4277   25.9205 C   0  0  0  0  0  0  0  0  0  0  0  0
  -25.8424  -29.8455   20.3883 C   0  0  0  0  0  0  0  0  0  0  0  0
  -27.1290  -34.6883   24.7204 C   0  0  0  0  0  0  0  0  0  0  0  0
  -25.0178  -28.9641   21.1020 C   0  0  0  0  0  0  0  0  0  0  0  0
  -26.5578  -21.6081   19.1408 C   0  0  0  0  0  0  0  0  0  0  0  0
  -28.7967  -21.6901   20.0450 C   0  0  0  0  0  0  0  0  0  0  0  0
  -26.5350  -23.0010   19.0707 C   0  0  0  0  0  0  0  0  0  0  0  0
  -28.7740  -23.0830   19.9749 C   0  0  0  0  0  0  0  0  0  0  0  0
  -27.6886  -20.9527   19.6279 C   0  0  0  0  0  0  0  0  0  0  0  0
  -27.6431  -23.7385   19.4877 C   0  0  0  0  0  0  0  0  0  0  0  0
  -24.0142   -7.3785   21.8339 C   0  0  0  0  0  0  0  0  0  0  0  0
  -26.3169  -27.0886   20.2626 C   0  0  0  0  0  0  0  0  0  0  0  0
  -22.7465   -5.9570   23.2103 C   0  0  0  0  0  0  0  0  0  0  0  0
  -20.7422   -5.6418   25.1250 C   0  0  0  0  0  0  0  0  0  0  0  0
  -23.0460   -5.3821   24.4454 C   0  0  0  0  0  0  0  0  0  0  0  0
  -24.8650  -11.3070   20.5143 C   0  0  0  0  0  0  0  0  0  0  0  0
  -24.7108  -13.3830   19.8062 C   0  0  0  0  0  0  0  0  0  0  0  0
  -22.5042  -12.2587   20.1458 C   0  0  0  0  0  0  0  0  0  0  0  0
  -25.6672  -31.7900   22.8967 C   0  0  0  0  0  0  0  0  0  0  0  0
  -22.4740  -31.5083   22.4000 C   0  0  0  0  0  0  0  0  0  0  0  0
  -19.8911  -29.6814   21.1201 C   0  0  0  0  0  0  0  0  0  0  0  0
  -29.0323  -16.7561   20.7357 C   0  0  0  0  0  0  0  0  0  0  0  0
  -26.5553  -34.8863   27.1967 C   0  0  0  0  0  0  0  0  0  0  0  0
  -25.5820  -31.3266   20.4200 C   0  0  0  0  0  0  0  0  0  0  0  0
  -23.8720  -29.4577   21.9457 C   0  0  0  0  0  0  0  0  0  0  0  0
  -26.4012  -33.3690   27.1840 C   0  0  0  0  0  0  0  0  0  0  0  0
  -29.6716  -13.7681   18.9868 C   0  0  0  0  0  0  0  0  0  0  0  0
  -25.7125  -32.9272   25.9014 C   0  0  0  0  0  0  0  0  0  0  0  0
  -28.4189  -12.9256   19.2140 C   0  0  0  0  0  0  0  0  0  0  0  0
  -26.7706  -19.3892   22.0536 C   0  0  0  0  0  0  0  0  0  0  0  0
  -30.0340  -14.5497   20.2428 C   0  0  0  0  0  0  0  0  0  0  0  0
  -27.6601  -14.6269   20.9515 C   0  0  0  0  0  0  0  0  0  0  0  0
  -26.9794  -17.0253   22.2235 C   0  0  0  0  0  0  0  0  0  0  0  0
  -26.5636  -33.2802   24.6750 C   0  0  1  0  0  0  0  0  0  0  0  0
  -24.8135  -31.7717   21.6604 C   0  0  1  0  0  0  0  0  0  0  0  0
  -27.2576  -13.8004   19.7128 C   0  0  2  0  0  0  0  0  0  0  0  0
  -26.7350  -18.2607   23.0725 C   0  0  2  0  0  0  0  0  0  0  0  0
  -27.9181  -18.9583   21.1299 C   0  0  2  0  0  0  0  0  0  0  0  0
  -25.3693  -20.8168   18.6932 C   0  0  0  0  0  0  0  0  0  0  0  0
  -30.0102  -20.9875   20.5674 C   0  0  0  0  0  0  0  0  0  0  0  0
  -25.3218  -23.7039   18.5481 C   0  0  0  0  0  0  0  0  0  0  0  0
  -29.9630  -23.8747   20.4206 C   0  0  0  0  0  0  0  0  0  0  0  0
  -17.3912  -29.6891   20.9016 C   0  0  0  0  0  0  0  0  0  0  0  0
  -22.2181  -30.6842   25.3267 C   0  0  0  0  0  0  0  0  0  0  0  0
  -19.9314  -29.8071   24.8075 C   0  0  0  0  0  0  0  0  0  0  0  0
  -20.4295  -32.2344   24.5192 C   0  0  0  0  0  0  0  0  0  0  0  0
  -20.0335  -29.7185   18.1643 C   0  0  0  0  0  0  0  0  0  0  0  0
  -27.7137  -19.4493   19.7028 C   0  0  0  0  0  0  0  0  0  0  0  0
  -27.6195  -25.2326   19.4096 C   0  0  0  0  0  0  0  0  0  1  0  0
  -21.3960  -30.5678   22.8820 C   0  0  1  0  0  0  0  0  0  0  0  0
  -18.7103  -30.0773   20.2521 C   0  0  2  0  0  0  0  0  0  0  0  0
  -21.0165  -30.8139   24.3696 C   0  0  0  0  0  0  0  0  0  0  0  0
  -26.1312  -11.7162   20.3994 N   0  0  0  0  0  0  0  0  0  0  0  0
  -26.0045  -12.9822   19.9668 N   0  0  0  0  0  0  0  0  0  0  0  0
  -23.6617  -30.9149   21.9494 N   0  0  0  0  0  0  0  0  0  0  0  0
  -28.9111  -15.3607   20.7160 N   0  0  0  0  0  0  0  0  0  0  0  0
  -27.9493  -17.4905   21.2257 N   0  0  0  0  0  0  0  0  0  0  0  0
  -24.4038  -14.6260   19.3783 N   0  0  0  0  0  0  0  0  0  0  0  0
  -21.8698  -11.0717   20.5369 N   0  0  0  0  0  0  0  0  0  0  0  0
  -25.7895  -33.0378   23.4776 N   0  0  0  0  0  0  0  0  0  0  0  0
  -20.2829  -30.7107   21.9498 N   0  0  0  0  0  0  0  0  0  0  0  0
  -25.4329  -18.1958   23.7565 N   0  3  0  0  0  0  0  0  0  0  0  0
  -18.7957  -29.4064   18.9241 N   0  3  0  0  0  0  0  0  0  0  0  0
  -21.8072  -13.2365   19.7829 O   0  0  0  0  0  0  0  0  0  0  0  0
  -26.1760  -30.7487   23.2950 O   0  0  0  0  0  0  0  0  0  0  0  0
  -22.2671  -32.7242   22.4159 O   0  0  0  0  0  0  0  0  0  0  0  0
  -20.4113  -28.5691   21.0701 O   0  0  0  0  0  0  0  0  0  0  0  0
  -30.0695  -17.3185   20.3612 O   0  0  0  0  0  0  0  0  0  0  0  0
  -23.7404   -6.1149   22.2591 O   0  0  0  0  0  0  0  0  0  0  0  0
  -26.5514  -25.7252   20.2064 O   0  0  0  0  0  0  0  0  0  1  0  0
  -19.7801   -5.4919   26.0449 F   0  0  0  0  0  0  0  0  0  0  0  0
  -24.2950   -4.9803   24.7183 F   0  0  0  0  0  0  0  0  0  0  0  0
  1  2  1  0  0  0  0
  1  5  2  0  0  0  0
  2  6  2  0  0  0  0
  3  8  2  0  0  0  0
  3 15  1  0  0  0  0
  4  9  1  0  0  0  0
  4 15  2  0  0  0  0
  5 17  1  0  0  0  0
  6 19  1  0  0  0  0
  7 10  2  0  0  0  0
  7 18  1  0  0  0  0
  8 27  1  0  0  0  0
  9 27  2  0  0  0  0
 10 28  1  0  0  0  0
 11 12  2  0  0  0  0
 11 29  1  0  0  0  0
 12 30  1  0  0  0  0
 13 20  1  0  0  0  0
 13 28  2  0  0  0  0
 14 30  2  0  0  0  0
 14 31  1  0  0  0  0
 15 32  1  0  0  0  0
 16 32  1  0  0  0  0
 16 33  2  0  0  0  0
 16 34  1  0  0  0  0
 17 19  2  0  0  0  0
 17 39  1  0  0  0  0
 18 20  2  0  0  0  0
 18 40  1  0  0  0  0
 19 50  1  0  0  0  0
 20 41  1  0  0  0  0
 21 23  2  0  0  0  0
 21 25  1  0  0  0  0
 21 55  1  0  0  0  0
 22 24  1  0  0  0  0
 22 25  2  0  0  0  0
 22 56  1  0  0  0  0
 23 26  1  0  0  0  0
 23 57  1  0  0  0  0
 24 26  2  0  0  0  0
 24 58  1  0  0  0  0
 25 64  1  0  0  0  0
 26 65  1  0  0  0  0
 27 85  1  0  0  0  0
 28 86  1  0  0  0  0
 29 31  2  0  0  0  0
 29 85  1  0  0  0  0
 30 87  1  0  0  0  0
 31 88  1  0  0  0  0
 32 69  2  0  0  0  0
 33 70  1  0  0  0  0
 33 74  1  0  0  0  0
 34 75  1  0  0  0  0
 34 80  2  0  0  0  0
 35 51  1  0  0  0  0
 35 76  1  0  0  0  0
 35 81  2  0  0  0  0
 36 66  1  0  0  0  0
 36 71  1  0  0  0  0
 36 82  2  0  0  0  0
 37 67  1  0  0  0  0
 37 77  1  0  0  0  0
 37 83  2  0  0  0  0
 38 72  1  0  0  0  0
 38 73  1  0  0  0  0
 38 84  2  0  0  0  0
 39 42  1  0  0  0  0
 40 51  1  0  0  0  0
 41 71  1  0  0  0  0
 42 44  1  0  0  0  0
 43 45  1  0  0  0  0
 43 47  1  0  0  0  0
 44 50  1  0  0  0  0
 45 52  1  0  0  0  0
 46 53  1  0  0  0  0
 46 54  1  0  0  0  0
 47 72  1  0  0  0  0
 48 52  1  0  0  0  0
 48 72  1  0  0  0  0
 49 53  1  0  0  0  0
 49 73  1  0  0  0  0
 50 76  1  0  0  0  0
 51 71  1  0  0  0  0
 52 70  1  0  0  0  0
 53 78  1  0  0  0  0
 54 64  1  0  0  0  0
 54 73  1  0  0  0  0
 59 67  1  0  0  0  0
 60 68  1  0  0  0  0
 61 68  1  0  0  0  0
 62 68  1  0  0  0  0
 63 79  1  0  0  0  0
 65 86  1  0  0  0  0
 66 68  1  0  0  0  0
 66 77  1  0  0  0  0
 67 79  1  0  0  0  0
 69 70  1  0  0  0  0
M  CHG  2  78   1  79   1
M  ISO  4  38 100  65 101  73 100  86 101
M  END
> <Batch ID>
0168

> <Smiles>
CNC(C)C(=O)NC(C(=O)N1Cc2cc([101O:1][101CH2:1]c3c(C)c(C)c(CC4CC(N)C[100N:0]4[100C:0](=O)N4CCCC(n5nc(-c6ccc(Oc7ccc(F)cc7F)cc6)c(C(N)=O)c5N)C4)c(C)c3C)ccc2CC1C(=O)NC1CCCc2ccccc21)C(C)(C)C

> <Shape>
0.322

> <Color>
0.109

> <Negative vol penalty>
0.000

$$$$

  -OEChem-04052322303D

 87 96  0     1  0  0  0  0  0999 V2000
  -22.0608  -27.0275   20.2717 C   0  0  0  0  0  0  0  0  0  0  0  0
  -22.7438  -25.8697   19.9134 C   0  0  0  0  0  0  0  0  0  0  0  0
  -22.9635  -16.7541   19.9049 C   0  0  0  0  0  0  0  0  0  0  0  0
  -23.7362  -17.2128   22.1475 C   0  0  0  0  0  0  0  0  0  0  0  0
  -22.7643  -28.2116   20.4884 C   0  0  0  0  0  0  0  0  0  0  0  0
  -24.1307  -25.8956   19.7705 C   0  0  0  0  0  0  0  0  0  0  0  0
  -28.0544  -21.3883   21.1102 C   0  0  0  0  0  0  0  0  0  0  0  0
  -22.1677  -17.8989   19.9449 C   0  0  0  0  0  0  0  0  0  0  0  0
  -22.9405  -18.3577   22.1875 C   0  0  0  0  0  0  0  0  0  0  0  0
  -28.6819  -20.4255   20.3209 C   0  0  0  0  0  0  0  0  0  0  0  0
  -23.0738  -21.5240   21.0138 C   0  0  0  0  0  0  0  0  0  0  0  0
  -23.6458  -22.6916   21.5186 C   0  0  0  0  0  0  0  0  0  0  0  0
  -30.6346  -21.8334   20.1663 C   0  0  0  0  0  0  0  0  0  0  0  0
  -21.9631  -22.7672   23.2507 C   0  0  0  0  0  0  0  0  0  0  0  0
  -28.4167  -17.7116   15.5498 C   0  0  0  0  0  0  0  0  0  0  0  0
  -23.7477  -16.4109   21.0062 C   0  0  0  0  0  0  0  0  0  0  0  0
  -24.1397  -13.9003   20.7816 C   0  0  0  0  0  0  0  0  0  0  0  0
  -24.1614  -28.2497   20.3576 C   0  0  0  0  0  0  0  0  0  0  0  0
  -28.7093  -22.5877   21.4249 C   0  0  0  0  0  0  0  0  0  0  0  0
  -24.8533  -27.0816   19.9844 C   0  0  0  0  0  0  0  0  0  0  0  0
  -30.0143  -22.8087   20.9619 C   0  0  0  0  0  0  0  0  0  0  0  0
  -30.2712  -19.0325   16.2372 C   0  0  0  0  0  0  0  0  0  0  0  0
  -29.6825  -20.1280   15.6155 C   0  0  0  0  0  0  0  0  0  0  0  0
  -29.6327  -17.7977   16.2083 C   0  0  0  0  0  0  0  0  0  0  0  0
  -22.1562  -18.7008   21.0861 C   0  0  0  0  0  0  0  0  0  0  0  0
  -29.9710  -20.6491   19.8464 C   0  0  0  0  0  0  0  0  0  0  0  0
  -21.9463  -20.9779   21.6274 C   0  0  0  0  0  0  0  0  0  0  0  0
  -23.0905  -23.3132   22.6371 C   0  0  0  0  0  0  0  0  0  0  0  0
  -21.3910  -21.5995   22.7458 C   0  0  0  0  0  0  0  0  0  0  0  0
  -24.5695  -15.2281   20.9657 C   0  0  0  0  0  0  0  0  0  0  0  0
  -28.4643  -19.9376   14.9833 C   0  0  0  0  0  0  0  0  0  0  0  0
  -25.2941  -13.1571   20.8215 C   0  0  0  0  0  0  0  0  0  0  0  0
  -22.8155  -13.3847   20.5915 C   0  0  0  0  0  0  0  0  0  0  0  0
  -31.0232  -14.5799   19.6965 C   0  0  0  0  0  0  0  0  0  0  0  0
  -28.1538  -25.6643   20.8511 C   0  0  0  0  0  0  0  0  0  0  0  0
  -30.7105  -26.0887   22.8018 C   0  0  0  0  0  0  0  0  0  0  0  0
  -33.5718  -24.8056   24.1484 C   0  0  0  0  0  0  0  0  0  0  0  0
  -24.8735  -29.5644   20.5559 C   0  0  0  0  0  0  0  0  0  0  0  0
  -28.0290  -23.6047   22.2997 C   0  0  0  0  0  0  0  0  0  0  0  0
  -30.7684  -24.0709   21.2883 C   0  0  0  0  0  0  0  0  0  0  0  0
  -26.3806  -29.4176   20.7496 C   0  0  0  0  0  0  0  0  0  0  0  0
  -29.6874  -13.1470   22.6969 C   0  0  0  0  0  0  0  0  0  0  0  0
  -26.9627  -28.4673   19.7080 C   0  0  0  0  0  0  0  0  0  0  0  0
  -28.1882  -13.4227   22.5898 C   0  0  0  0  0  0  0  0  0  0  0  0
  -31.6122  -14.8653   17.2593 C   0  0  0  0  0  0  0  0  0  0  0  0
  -30.5085  -14.2840   22.0969 C   0  0  0  0  0  0  0  0  0  0  0  0
  -31.0759  -15.7501   16.1348 C   0  0  0  0  0  0  0  0  0  0  0  0
  -28.6545  -14.8852   20.5727 C   0  0  0  0  0  0  0  0  0  0  0  0
  -29.9306  -16.3003   18.2004 C   0  0  0  0  0  0  0  0  0  0  0  0
  -26.3600  -27.0638   19.8438 C   0  0  1  0  0  0  0  0  0  0  0  0
  -28.5941  -25.0117   22.1309 C   0  0  1  0  0  0  0  0  0  0  0  0
  -27.7879  -13.7468   21.1396 C   0  0  2  0  0  0  0  0  0  0  0  0
  -30.5087  -14.8857   18.3123 C   0  0  2  0  0  0  0  0  0  0  0  0
  -30.3425  -21.4661   15.6287 C   0  0  0  0  0  0  0  0  0  0  0  0
  -27.7837  -21.0772   14.2979 C   0  0  0  0  0  0  0  0  0  0  0  0
  -32.7086  -19.5934   15.9613 C   0  0  0  0  0  0  0  0  0  0  0  0
  -35.4688  -25.4027   25.6789 C   0  0  0  0  0  0  0  0  0  0  0  0
  -31.9582  -27.7816   20.5910 C   0  0  0  0  0  0  0  0  0  0  0  0
  -34.1634  -27.5491   21.7533 C   0  0  0  0  0  0  0  0  0  0  0  0
  -32.2652  -28.6909   22.9003 C   0  0  0  0  0  0  0  0  0  0  0  0
  -32.8791  -22.6390   26.0419 C   0  0  0  0  0  0  0  0  0  0  0  0
  -31.5296  -20.1788   18.1127 C   0  0  0  0  0  0  0  0  0  1  0  0
  -31.6083  -19.1858   16.9451 C   0  0  1  0  0  0  0  0  0  0  0  0
  -32.2040  -26.1811   22.6020 C   0  0  1  0  0  0  0  0  0  0  0  0
  -34.0876  -24.7747   25.5758 C   0  0  2  0  0  0  0  0  0  0  0  0
  -32.6330  -27.5276   21.9537 C   0  0  0  0  0  0  0  0  0  0  0  0
  -27.8139  -18.7535   14.9344 N   0  0  0  0  0  0  0  0  0  0  0  0
  -25.8936  -15.3260   21.1119 N   0  0  0  0  0  0  0  0  0  0  0  0
  -26.3057  -14.0501   21.0197 N   0  0  0  0  0  0  0  0  0  0  0  0
  -30.1772  -16.6823   16.8103 N   0  0  3  0  0  0  0  0  0  0  0  0
  -30.0829  -14.5763   20.7269 N   0  0  0  0  0  0  0  0  0  0  0  0
  -30.0581  -25.0377   22.1418 N   0  0  0  0  0  0  0  0  0  0  0  0
  -25.5324  -11.8333   20.7060 N   0  0  0  0  0  0  0  0  0  0  0  0
  -22.0734  -13.0159   21.7218 N   0  0  0  0  0  0  0  0  0  0  0  0
  -26.9641  -26.3596   20.9545 N   0  0  0  0  0  0  0  0  0  0  0  0
  -32.8068  -25.9269   23.9060 N   0  0  0  0  0  0  0  0  0  0  0  0
  -29.4560  -13.8945   17.9478 N   0  3  0  0  0  0  0  0  0  0  0  0
  -34.1723  -23.3698   26.0657 N   0  3  0  0  0  0  0  0  0  0  0  0
  -22.3114  -13.2396   19.4520 O   0  0  0  0  0  0  0  0  0  0  0  0
  -32.2247  -14.3485   19.8546 O   0  0  0  0  0  0  0  0  0  0  0  0
  -28.8431  -25.5471   19.8448 O   0  0  0  0  0  0  0  0  0  0  0  0
  -30.1447  -26.9142   23.5229 O   0  0  0  0  0  0  0  0  0  0  0  0
  -33.8255  -23.9251   23.3293 O   0  0  0  0  0  0  0  0  0  0  0  0
  -21.3800  -19.8181   21.1254 O   0  0  0  0  0  0  0  0  0  0  0  0
  -30.5855  -19.7113   19.0753 O   0  0  0  0  0  0  0  0  0  1  0  0
  -23.6409  -24.4337   23.1227 F   0  0  0  0  0  0  0  0  0  0  0  0
  -20.3087  -21.0789   23.3402 F   0  0  0  0  0  0  0  0  0  0  0  0
  1  2  1  0  0  0  0
  1  5  2  0  0  0  0
  2  6  2  0  0  0  0
  3  8  2  0  0  0  0
  3 16  1  0  0  0  0
  4  9  1  0  0  0  0
  4 16  2  0  0  0  0
  5 18  1  0  0  0  0
  6 20  1  0  0  0  0
  7 10  2  0  0  0  0
  7 19  1  0  0  0  0
  8 25  1  0  0  0  0
  9 25  2  0  0  0  0
 10 26  1  0  0  0  0
 11 12  2  0  0  0  0
 11 27  1  0  0  0  0
 12 28  1  0  0  0  0
 13 21  1  0  0  0  0
 13 26  2  0  0  0  0
 14 28  2  0  0  0  0
 14 29  1  0  0  0  0
 15 24  2  0  0  0  0
 15 67  1  0  0  0  0
 16 30  1  0  0  0  0
 17 30  1  0  0  0  0
 17 32  2  0  0  0  0
 17 33  1  0  0  0  0
 18 20  2  0  0  0  0
 18 38  1  0  0  0  0
 19 21  2  0  0  0  0
 19 39  1  0  0  0  0
 20 50  1  0  0  0  0
 21 40  1  0  0  0  0
 22 23  2  0  0  0  0
 22 24  1  0  0  0  0
 22 63  1  0  0  0  0
 23 31  1  0  0  0  0
 23 54  1  0  0  0  0
 24 70  1  0  0  0  0
 25 84  1  0  0  0  0
 26 85  1  0  0  0  0
 27 29  2  0  0  0  0
 27 84  1  0  0  0  0
 28 86  1  0  0  0  0
 29 87  1  0  0  0  0
 30 68  2  0  0  0  0
 31 55  1  0  0  0  0
 31 67  2  0  0  0  0
 32 69  1  0  0  0  0
 32 73  1  0  0  0  0
 33 74  1  0  0  0  0
 33 79  2  0  0  0  0
 34 53  1  0  0  0  0
 34 71  1  0  0  0  0
 34 80  2  0  0  0  0
 35 51  1  0  0  0  0
 35 75  1  0  0  0  0
 35 81  2  0  0  0  0
 36 64  1  0  0  0  0
 36 72  1  0  0  0  0
 36 82  2  0  0  0  0
 37 65  1  0  0  0  0
 37 76  1  0  0  0  0
 37 83  2  0  0  0  0
 38 41  1  0  0  0  0
 39 51  1  0  0  0  0
 40 72  1  0  0  0  0
 41 43  1  0  0  0  0
 42 44  1  0  0  0  0
 42 46  1  0  0  0  0
 43 50  1  0  0  0  0
 44 52  1  0  0  0  0
 45 47  1  0  0  0  0
 45 53  1  0  0  0  0
 46 71  1  0  0  0  0
 47 70  1  0  0  0  0
 48 52  1  0  0  0  0
 48 71  1  0  0  0  0
 49 53  1  0  0  0  0
 49 70  1  0  0  0  0
 50 75  1  0  0  0  0
 51 72  1  0  0  0  0
 52 69  1  0  0  0  0
 53 77  1  0  0  0  0
 56 63  1  0  0  0  0
 57 65  1  0  0  0  0
 58 66  1  0  0  0  0
 59 66  1  0  0  0  0
 60 66  1  0  0  0  0
 61 78  1  0  0  0  0
 62 63  1  0  0  0  0
 62 85  1  0  0  0  0
 64 66  1  0  0  0  0
 64 76  1  0  0  0  0
 65 78  1  0  0  0  0
 68 69  1  0  0  0  0
M  CHG  2  77   1  78   1
M  ISO  4  34 100  53 100  62 101  85 101
M  END
> <Batch ID>
0168

> <Smiles>
CNC(C)C(=O)NC(C(=O)N1Cc2cc([101O:1][101CH2:1]C(C)c3c(N4CC[100C:0](N)([100C:0](=O)N5CCCC(n6nc(-c7ccc(Oc8ccc(F)cc8F)cc7)c(C(N)=O)c6N)C5)C4)cnc(C)c3C)ccc2CC1C(=O)NC1CCCc2ccccc21)C(C)(C)C

> <Shape>
0.164

> <Color>
0.076

> <Negative vol penalty>
0.000

$$$$

  -OEChem-04052322303D

 84 93  0     1  0  0  0  0  0999 V2000
  -22.9575  -27.3627   26.9757 C   0  0  0  0  0  0  0  0  0  0  0  0
  -23.4109  -26.0694   27.2149 C   0  0  0  0  0  0  0  0  0  0  0  0
  -23.0747   -9.8679   19.9433 C   0  0  0  0  0  0  0  0  0  0  0  0
  -23.8383   -9.8765   22.2354 C   0  0  0  0  0  0  0  0  0  0  0  0
  -23.5436  -28.1309   25.9706 C   0  0  0  0  0  0  0  0  0  0  0  0
  -24.4501  -25.5432   26.4483 C   0  0  0  0  0  0  0  0  0  0  0  0
  -28.8218  -21.6868   28.3250 C   0  0  0  0  0  0  0  0  0  0  0  0
  -22.3322   -8.7143   20.1949 C   0  0  0  0  0  0  0  0  0  0  0  0
  -23.0957   -8.7229   22.4871 C   0  0  0  0  0  0  0  0  0  0  0  0
  -28.9629  -20.3040   28.2159 C   0  0  0  0  0  0  0  0  0  0  0  0
  -19.8691   -7.9228   23.0952 C   0  0  0  0  0  0  0  0  0  0  0  0
  -19.1140   -7.8828   24.2673 C   0  0  0  0  0  0  0  0  0  0  0  0
  -28.3301  -19.4116   24.3802 C   0  0  0  0  0  0  0  0  0  0  0  0
  -30.3263  -20.6046   26.2486 C   0  0  0  0  0  0  0  0  0  0  0  0
  -20.3581   -5.9467   25.0026 C   0  0  0  0  0  0  0  0  0  0  0  0
  -23.8279  -10.4490   20.9635 C   0  0  0  0  0  0  0  0  0  0  0  0
  -24.1676  -12.9743   20.8418 C   0  0  0  0  0  0  0  0  0  0  0  0
  -24.5969  -27.6173   25.1978 C   0  0  0  0  0  0  0  0  0  0  0  0
  -29.4238  -22.5398   27.3889 C   0  0  0  0  0  0  0  0  0  0  0  0
  -25.0499  -26.3048   25.4310 C   0  0  0  0  0  0  0  0  0  0  0  0
  -28.9221  -18.2654   24.8889 C   0  0  0  0  0  0  0  0  0  0  0  0
  -30.1934  -21.9979   26.3496 C   0  0  0  0  0  0  0  0  0  0  0  0
  -29.7186  -17.4510   24.0711 C   0  0  0  0  0  0  0  0  0  0  0  0
  -28.5399  -19.7309   23.0365 C   0  0  0  0  0  0  0  0  0  0  0  0
  -29.9423  -17.7670   22.7411 C   0  0  0  0  0  0  0  0  0  0  0  0
  -29.3405  -18.9148   22.2230 C   0  0  0  0  0  0  0  0  0  0  0  0
  -22.3426   -8.1418   21.4669 C   0  0  0  0  0  0  0  0  0  0  0  0
  -29.7128  -19.7626   27.1759 C   0  0  0  0  0  0  0  0  0  0  0  0
  -20.8686   -6.9747   22.8767 C   0  0  0  0  0  0  0  0  0  0  0  0
  -19.3586   -6.8948   25.2210 C   0  0  0  0  0  0  0  0  0  0  0  0
  -21.1131   -5.9867   23.8304 C   0  0  0  0  0  0  0  0  0  0  0  0
  -24.5956  -11.6403   20.7040 C   0  0  0  0  0  0  0  0  0  0  0  0
  -25.2586  -13.7245   20.4765 C   0  0  0  0  0  0  0  0  0  0  0  0
  -22.8974  -13.4893   21.2626 C   0  0  0  0  0  0  0  0  0  0  0  0
  -28.3574  -24.6645   25.2790 C   0  0  0  0  0  0  0  0  0  0  0  0
  -31.5187  -25.2680   24.8737 C   0  0  0  0  0  0  0  0  0  0  0  0
  -34.7353  -24.1539   25.1166 C   0  0  0  0  0  0  0  0  0  0  0  0
  -30.7418  -14.7478   20.6556 C   0  0  0  0  0  0  0  0  0  0  0  0
  -25.1673  -28.4684   24.0910 C   0  0  0  0  0  0  0  0  0  0  0  0
  -29.2842  -24.0302   27.5361 C   0  0  0  0  0  0  0  0  0  0  0  0
  -30.2813  -16.2997   24.8442 C   0  0  0  0  0  0  0  0  0  0  0  0
  -30.8768  -22.8711   25.3304 C   0  0  0  0  0  0  0  0  0  0  0  0
  -26.5145  -27.9714   23.5730 C   0  0  0  0  0  0  0  0  0  0  0  0
  -29.3334  -16.2647   26.0554 C   0  0  0  0  0  0  0  0  0  0  0  0
  -29.6022  -12.3613   18.2717 C   0  0  0  0  0  0  0  0  0  0  0  0
  -26.4718  -26.4655   23.3339 C   0  0  0  0  0  0  0  0  0  0  0  0
  -28.1657  -12.0667   18.7071 C   0  0  0  0  0  0  0  0  0  0  0  0
  -30.5211  -12.5834   19.4710 C   0  0  0  0  0  0  0  0  0  0  0  0
  -28.6210  -13.3136   20.8603 C   0  0  0  0  0  0  0  0  0  0  0  0
  -26.1915  -25.7076   24.6372 C   0  0  1  0  0  0  0  0  0  0  0  0
  -29.5147  -24.7838   26.2298 C   0  0  1  0  0  0  0  0  0  0  0  0
  -27.6451  -13.1378   19.6843 C   0  0  2  0  0  0  0  0  0  0  0  0
  -28.8781  -17.7223   26.2901 C   0  0  2  0  0  0  0  0  0  1  0  0
  -27.8992  -20.9641   22.4857 C   0  0  0  0  0  0  0  0  0  0  0  0
  -29.5553  -19.2832   20.7881 C   0  0  0  0  0  0  0  0  0  0  0  0
  -27.5224  -17.8062   26.9778 C   0  0  0  0  0  0  0  0  0  0  0  0
  -37.1029  -24.8590   24.6751 C   0  0  0  0  0  0  0  0  0  0  0  0
  -31.0950  -24.8112   21.8867 C   0  0  0  0  0  0  0  0  0  0  0  0
  -33.5762  -24.5848   21.6403 C   0  0  0  0  0  0  0  0  0  0  0  0
  -32.5954  -26.7324   22.4458 C   0  0  0  0  0  0  0  0  0  0  0  0
  -35.4690  -23.8899   27.9716 C   0  0  0  0  0  0  0  0  0  0  0  0
  -30.8080  -16.8989   21.8914 C   0  0  0  0  0  0  0  0  0  0  0  0
  -32.6052  -24.7221   23.9790 C   0  0  1  0  0  0  0  0  0  0  0  0
  -35.9817  -24.7943   25.7005 C   0  0  2  0  0  0  0  0  0  0  0  0
  -32.4536  -25.1958   22.5059 C   0  0  0  0  0  0  0  0  0  0  0  0
  -25.8599  -11.5453   20.2838 N   0  0  0  0  0  0  0  0  0  0  0  0
  -26.2356  -12.8291   20.1542 N   0  0  0  0  0  0  0  0  0  0  0  0
  -30.7053  -24.3219   25.5133 N   0  0  0  0  0  0  0  0  0  0  0  0
  -29.9712  -13.6119   20.3574 N   0  0  0  0  0  0  0  0  0  0  0  0
  -25.4678  -15.0561   20.4025 N   0  0  0  0  0  0  0  0  0  0  0  0
  -21.8867  -12.5796   21.6019 N   0  0  0  0  0  0  0  0  0  0  0  0
  -27.3886  -25.6354   25.4473 N   0  0  0  0  0  0  0  0  0  0  0  0
  -33.8714  -25.0961   24.5997 N   0  0  0  0  0  0  0  0  0  0  0  0
  -30.1433  -15.6765   21.4982 N   0  0  0  0  0  0  0  0  0  0  0  0
  -36.4635  -24.0136   26.8750 N   0  3  0  0  0  0  0  0  0  0  0  0
  -22.6603  -14.7198   21.3197 O   0  0  0  0  0  0  0  0  0  0  0  0
  -28.3450  -23.7596   24.4527 O   0  0  0  0  0  0  0  0  0  0  0  0
  -31.4007  -26.4887   25.0060 O   0  0  0  0  0  0  0  0  0  0  0  0
  -34.5486  -22.9391   25.1156 O   0  0  0  0  0  0  0  0  0  0  0  0
  -31.8769  -14.9239   20.2001 O   0  0  0  0  0  0  0  0  0  0  0  0
  -21.6179   -7.0162   21.7129 O   0  0  0  0  0  0  0  0  0  0  0  0
  -29.8516  -18.4133   27.0667 O   0  0  0  0  0  0  0  0  0  1  0  0
  -18.6345   -6.8574   26.3473 F   0  0  0  0  0  0  0  0  0  0  0  0
  -22.0728   -5.0738   23.6267 F   0  0  0  0  0  0  0  0  0  0  0  0
  1  2  1  0  0  0  0
  1  5  2  0  0  0  0
  2  6  2  0  0  0  0
  3  8  2  0  0  0  0
  3 16  1  0  0  0  0
  4  9  1  0  0  0  0
  4 16  2  0  0  0  0
  5 18  1  0  0  0  0
  6 20  1  0  0  0  0
  7 10  2  0  0  0  0
  7 19  1  0  0  0  0
  8 27  1  0  0  0  0
  9 27  2  0  0  0  0
 10 28  1  0  0  0  0
 11 12  2  0  0  0  0
 11 29  1  0  0  0  0
 12 30  1  0  0  0  0
 13 21  2  0  0  0  0
 13 24  1  0  0  0  0
 14 22  1  0  0  0  0
 14 28  2  0  0  0  0
 15 30  2  0  0  0  0
 15 31  1  0  0  0  0
 16 32  1  0  0  0  0
 17 32  1  0  0  0  0
 17 33  2  0  0  0  0
 17 34  1  0  0  0  0
 18 20  2  0  0  0  0
 18 39  1  0  0  0  0
 19 22  2  0  0  0  0
 19 40  1  0  0  0  0
 20 50  1  0  0  0  0
 21 23  1  0  0  0  0
 21 53  1  0  0  0  0
 22 42  1  0  0  0  0
 23 25  2  0  0  0  0
 23 41  1  0  0  0  0
 24 26  2  0  0  0  0
 24 54  1  0  0  0  0
 25 26  1  0  0  0  0
 25 62  1  0  0  0  0
 26 55  1  0  0  0  0
 27 81  1  0  0  0  0
 28 82  1  0  0  0  0
 29 31  2  0  0  0  0
 29 81  1  0  0  0  0
 30 83  1  0  0  0  0
 31 84  1  0  0  0  0
 32 66  2  0  0  0  0
 33 67  1  0  0  0  0
 33 70  1  0  0  0  0
 34 71  1  0  0  0  0
 34 76  2  0  0  0  0
 35 51  1  0  0  0  0
 35 72  1  0  0  0  0
 35 77  2  0  0  0  0
 36 63  1  0  0  0  0
 36 68  1  0  0  0  0
 36 78  2  0  0  0  0
 37 64  1  0  0  0  0
 37 73  1  0  0  0  0
 37 79  2  0  0  0  0
 38 69  1  0  0  0  0
 38 74  1  0  0  0  0
 38 80  2  0  0  0  0
 39 43  1  0  0  0  0
 40 51  1  0  0  0  0
 41 44  1  0  0  0  0
 42 68  1  0  0  0  0
 43 46  1  0  0  0  0
 44 53  1  0  0  0  0
 45 47  1  0  0  0  0
 45 48  1  0  0  0  0
 46 50  1  0  0  0  0
 47 52  1  0  0  0  0
 48 69  1  0  0  0  0
 49 52  1  0  0  0  0
 49 69  1  0  0  0  0
 50 72  1  0  0  0  0
 51 68  1  0  0  0  0
 52 67  1  0  0  0  0
 53 56  1  0  0  0  0
 53 82  1  0  0  0  0
 57 64  1  0  0  0  0
 58 65  1  0  0  0  0
 59 65  1  0  0  0  0
 60 65  1  0  0  0  0
 61 75  1  0  0  0  0
 62 74  1  0  0  0  0
 63 65  1  0  0  0  0
 63 73  1  0  0  0  0
 64 75  1  0  0  0  0
 66 67  1  0  0  0  0
M  CHG  1  75   1
M  ISO  4  38 100  53 101  74 100  82 101
M  END
> <Batch ID>
0168

> <Smiles>
CNC(C)C(=O)NC(C(=O)N1Cc2cc([101O:1][101C:1]3(C)CCc4c3cc(C)c(C)c4C[100NH:0][100C:0](=O)N3CCCC(n4nc(-c5ccc(Oc6ccc(F)cc6F)cc5)c(C(N)=O)c4N)C3)ccc2CC1C(=O)NC1CCCc2ccccc21)C(C)(C)C

> <Shape>
0.180

> <Color>
0.196

> <Negative vol penalty>
0.000

$$$$

  -OEChem-04052322303D

 84 93  0     1  0  0  0  0  0999 V2000
  -29.2176  -37.4239   23.7434 C   0  0  0  0  0  0  0  0  0  0  0  0
  -29.1968  -36.1693   23.1427 C   0  0  0  0  0  0  0  0  0  0  0  0
  -24.1212   -9.4415   22.2756 C   0  0  0  0  0  0  0  0  0  0  0  0
  -23.3635   -9.6627   19.9922 C   0  0  0  0  0  0  0  0  0  0  0  0
  -28.3520  -37.7042   24.7998 C   0  0  0  0  0  0  0  0  0  0  0  0
  -28.3109  -35.1937   23.5988 C   0  0  0  0  0  0  0  0  0  0  0  0
  -25.4683  -30.9393   20.2336 C   0  0  0  0  0  0  0  0  0  0  0  0
  -25.8642  -24.8687   18.2683 C   0  0  0  0  0  0  0  0  0  0  0  0
  -23.1240   -8.4961   22.5150 C   0  0  0  0  0  0  0  0  0  0  0  0
  -22.3663   -8.7171   20.2315 C   0  0  0  0  0  0  0  0  0  0  0  0
  -25.7448  -29.5940   19.9937 C   0  0  0  0  0  0  0  0  0  0  0  0
  -22.6040   -5.2130   21.8955 C   0  0  0  0  0  0  0  0  0  0  0  0
  -22.9608   -4.0556   22.5875 C   0  0  0  0  0  0  0  0  0  0  0  0
  -25.9967  -23.4905   18.1395 C   0  0  0  0  0  0  0  0  0  0  0  0
  -24.2096  -28.9720   21.7474 C   0  0  0  0  0  0  0  0  0  0  0  0
  -21.3639   -4.5978   24.3176 C   0  0  0  0  0  0  0  0  0  0  0  0
  -24.2409  -10.0249   21.0142 C   0  0  0  0  0  0  0  0  0  0  0  0
  -26.5794  -10.7604   20.3085 C   0  0  0  0  0  0  0  0  0  0  0  0
  -27.4483  -36.7348   25.2627 C   0  0  0  0  0  0  0  0  0  0  0  0
  -24.5670  -31.3120   21.2411 C   0  0  0  0  0  0  0  0  0  0  0  0
  -27.4333  -35.4609   24.6632 C   0  0  0  0  0  0  0  0  0  0  0  0
  -23.9214  -30.3226   21.9963 C   0  0  0  0  0  0  0  0  0  0  0  0
  -26.4599  -25.5215   19.3417 C   0  0  0  0  0  0  0  0  0  0  0  0
  -22.2466   -8.1338   21.4929 C   0  0  0  0  0  0  0  0  0  0  0  0
  -25.1176  -28.6102   20.7526 C   0  0  0  0  0  0  0  0  0  0  0  0
  -21.6273   -6.0628   22.4146 C   0  0  0  0  0  0  0  0  0  0  0  0
  -22.3407   -3.7480   23.7985 C   0  0  0  0  0  0  0  0  0  0  0  0
  -21.0072   -5.7552   23.6256 C   0  0  0  0  0  0  0  0  0  0  0  0
  -25.2704  -11.0021   20.7665 C   0  0  0  0  0  0  0  0  0  0  0  0
  -27.1717  -24.7567   20.2519 C   0  0  0  0  0  0  0  0  0  0  0  0
  -26.7294  -22.8167   19.1034 C   0  0  0  0  0  0  0  0  0  0  0  0
  -27.1539  -12.0059   20.2376 C   0  0  0  0  0  0  0  0  0  0  0  0
  -27.2189   -9.5208   19.9767 C   0  0  0  0  0  0  0  0  0  0  0  0
  -24.7766  -33.0010   23.9257 C   0  0  0  0  0  0  0  0  0  0  0  0
  -21.5599  -32.5861   23.9782 C   0  0  0  0  0  0  0  0  0  0  0  0
  -18.8600  -30.7431   22.9981 C   0  0  0  0  0  0  0  0  0  0  0  0
  -27.1360  -17.2101   18.9107 C   0  0  0  0  0  0  0  0  0  0  0  0
  -26.5648  -37.0687   26.4385 C   0  0  0  0  0  0  0  0  0  0  0  0
  -24.2593  -32.7665   21.4694 C   0  0  0  0  0  0  0  0  0  0  0  0
  -22.9303  -30.6695   23.0761 C   0  0  0  0  0  0  0  0  0  0  0  0
  -25.3963  -36.1025   26.6161 C   0  0  0  0  0  0  0  0  0  0  0  0
  -25.5672  -16.4785   21.9674 C   0  0  0  0  0  0  0  0  0  0  0  0
  -25.8749  -34.6588   26.5001 C   0  0  0  0  0  0  0  0  0  0  0  0
  -25.4518  -14.9564   21.8930 C   0  0  0  0  0  0  0  0  0  0  0  0
  -25.2687  -17.1424   20.6221 C   0  0  0  0  0  0  0  0  0  0  0  0
  -28.0574  -20.7591   19.4650 C   0  0  0  0  0  0  0  0  0  0  0  0
  -25.6198  -20.6325   18.9280 C   0  0  0  0  0  0  0  0  0  0  0  0
  -28.2573  -19.4038   18.7921 C   0  0  0  0  0  0  0  0  0  0  0  0
  -25.8649  -19.2869   18.2543 C   0  0  0  0  0  0  0  0  0  0  0  0
  -25.9599  -15.0913   19.4250 C   0  0  0  0  0  0  0  0  0  0  0  0
  -26.4695  -34.3845   25.1135 C   0  0  1  0  0  0  0  0  0  0  0  0
  -23.7131  -33.0497   22.8655 C   0  0  1  0  0  0  0  0  0  0  0  0
  -26.3114  -14.3926   20.7476 C   0  0  2  0  0  0  0  0  0  0  0  0
  -27.8323  -25.4041   21.4248 C   0  0  0  0  0  0  0  0  0  0  0  0
  -16.3638  -30.6292   23.2292 C   0  0  0  0  0  0  0  0  0  0  0  0
  -21.8744  -31.4795   26.8043 C   0  0  0  0  0  0  0  0  0  0  0  0
  -19.5672  -30.5264   26.6129 C   0  0  0  0  0  0  0  0  0  0  0  0
  -19.9094  -32.9943   26.4897 C   0  0  0  0  0  0  0  0  0  0  0  0
  -18.4593  -31.0637   20.0834 C   0  0  0  0  0  0  0  0  0  0  0  0
  -26.3210  -26.9975   19.4850 C   0  0  0  0  0  0  0  0  0  1  0  0
  -20.6253  -31.5452   24.5456 C   0  0  1  0  0  0  0  0  0  0  0  0
  -17.5262  -31.1506   22.3986 C   0  0  2  0  0  0  0  0  0  0  0  0
  -20.5142  -31.6295   26.0942 C   0  0  0  0  0  0  0  0  0  0  0  0
  -25.0274  -12.2993   20.9723 N   0  0  0  0  0  0  0  0  0  0  0  0
  -27.3224  -23.4164   20.1600 N   0  0  0  0  0  0  0  0  0  0  0  0
  -26.1916  -12.8838   20.6421 N   0  0  0  0  0  0  0  0  0  0  0  0
  -26.8542  -21.4290   18.9597 N   0  0  0  0  0  0  0  0  0  0  0  0
  -22.6677  -32.1057   23.2656 N   0  0  0  0  0  0  0  0  0  0  0  0
  -26.0821  -16.5448   19.5548 N   0  0  0  0  0  0  0  0  0  0  0  0
  -27.0368  -18.6066   18.8094 N   0  0  0  0  0  0  0  0  0  0  0  0
  -28.3832  -12.4250   19.8695 N   0  0  0  0  0  0  0  0  0  0  0  0
  -26.4842   -8.3343   20.1064 N   0  0  0  0  0  0  0  0  0  0  0  0
  -25.4156  -34.2078   24.1376 N   0  0  0  0  0  0  0  0  0  0  0  0
  -19.3561  -31.7110   23.8455 N   0  0  0  0  0  0  0  0  0  0  0  0
  -17.3940  -30.6124   21.0152 N   0  3  0  0  0  0  0  0  0  0  0  0
  -28.4118   -9.4653   19.5928 O   0  0  0  0  0  0  0  0  0  0  0  0
  -24.9999  -31.9469   24.5095 O   0  0  0  0  0  0  0  0  0  0  0  0
  -21.3121  -33.7816   24.1545 O   0  0  0  0  0  0  0  0  0  0  0  0
  -19.4053  -29.6715   22.7432 O   0  0  0  0  0  0  0  0  0  0  0  0
  -28.1091  -16.5960   18.4559 O   0  0  0  0  0  0  0  0  0  0  0  0
  -21.2736   -7.2111   21.7260 O   0  0  0  0  0  0  0  0  0  0  0  0
  -25.3880  -27.2876   20.5194 O   0  0  0  0  0  0  0  0  0  1  0  0
  -22.6823   -2.6357   24.4621 F   0  0  0  0  0  0  0  0  0  0  0  0
  -20.0673   -6.5671   24.1287 F   0  0  0  0  0  0  0  0  0  0  0  0
  1  2  1  0  0  0  0
  1  5  2  0  0  0  0
  2  6  2  0  0  0  0
  3  9  2  0  0  0  0
  3 17  1  0  0  0  0
  4 10  1  0  0  0  0
  4 17  2  0  0  0  0
  5 19  1  0  0  0  0
  6 21  1  0  0  0  0
  7 11  2  0  0  0  0
  7 20  1  0  0  0  0
  8 14  2  0  0  0  0
  8 23  1  0  0  0  0
  9 24  1  0  0  0  0
 10 24  2  0  0  0  0
 11 25  1  0  0  0  0
 12 13  2  0  0  0  0
 12 26  1  0  0  0  0
 13 27  1  0  0  0  0
 14 31  1  0  0  0  0
 15 22  1  0  0  0  0
 15 25  2  0  0  0  0
 16 27  2  0  0  0  0
 16 28  1  0  0  0  0
 17 29  1  0  0  0  0
 18 29  1  0  0  0  0
 18 32  2  0  0  0  0
 18 33  1  0  0  0  0
 19 21  2  0  0  0  0
 19 38  1  0  0  0  0
 20 22  2  0  0  0  0
 20 39  1  0  0  0  0
 21 51  1  0  0  0  0
 22 40  1  0  0  0  0
 23 30  2  0  0  0  0
 23 60  1  0  0  0  0
 24 81  1  0  0  0  0
 25 82  1  0  0  0  0
 26 28  2  0  0  0  0
 26 81  1  0  0  0  0
 27 83  1  0  0  0  0
 28 84  1  0  0  0  0
 29 64  2  0  0  0  0
 30 54  1  0  0  0  0
 30 65  1  0  0  0  0
 31 65  2  0  0  0  0
 31 67  1  0  0  0  0
 32 66  1  0  0  0  0
 32 71  1  0  0  0  0
 33 72  1  0  0  0  0
 33 76  2  0  0  0  0
 34 52  1  0  0  0  0
 34 73  1  0  0  0  0
 34 77  2  0  0  0  0
 35 61  1  0  0  0  0
 35 68  1  0  0  0  0
 35 78  2  0  0  0  0
 36 62  1  0  0  0  0
 36 74  1  0  0  0  0
 36 79  2  0  0  0  0
 37 69  1  0  0  0  0
 37 70  1  0  0  0  0
 37 80  2  0  0  0  0
 38 41  1  0  0  0  0
 39 52  1  0  0  0  0
 40 68  1  0  0  0  0
 41 43  1  0  0  0  0
 42 44  1  0  0  0  0
 42 45  1  0  0  0  0
 43 51  1  0  0  0  0
 44 53  1  0  0  0  0
 45 69  1  0  0  0  0
 46 48  1  0  0  0  0
 46 67  1  0  0  0  0
 47 49  1  0  0  0  0
 47 67  1  0  0  0  0
 48 70  1  0  0  0  0
 49 70  1  0  0  0  0
 50 53  1  0  0  0  0
 50 69  1  0  0  0  0
 51 73  1  0  0  0  0
 52 68  1  0  0  0  0
 53 66  1  0  0  0  0
 55 62  1  0  0  0  0
 56 63  1  0  0  0  0
 57 63  1  0  0  0  0
 58 63  1  0  0  0  0
 59 75  1  0  0  0  0
 60 82  1  0  0  0  0
 61 63  1  0  0  0  0
 61 74  1  0  0  0  0
 62 75  1  0  0  0  0
 64 66  1  0  0  0  0
M  CHG  1  75   1
M  ISO  4  37 100  60 101  70 100  82 101
M  END
> <Batch ID>
0168

> <Smiles>
CNC(C)C(=O)NC(C(=O)N1Cc2cc([101O:1][101CH2:1]c3ccc(N4CC[100N:0]([100C:0](=O)N5CCCC(n6nc(-c7ccc(Oc8ccc(F)cc8F)cc7)c(C(N)=O)c6N)C5)CC4)nc3C)ccc2CC1C(=O)NC1CCCc2ccccc21)C(C)(C)C

> <Shape>
0.275

> <Color>
0.095

> <Negative vol penalty>
0.000

$$$$

  -OEChem-04052322303D

 92102  0     1  0  0  0  0  0999 V2000
  -22.9680  -34.4059   23.1998 C   0  0  0  0  0  0  0  0  0  0  0  0
  -23.9164  -33.4037   23.0224 C   0  0  0  0  0  0  0  0  0  0  0  0
  -24.6552   -8.8755   21.8597 C   0  0  0  0  0  0  0  0  0  0  0  0
  -23.4990   -9.5386   19.8446 C   0  0  0  0  0  0  0  0  0  0  0  0
  -21.6551  -34.0713   23.5288 C   0  0  0  0  0  0  0  0  0  0  0  0
  -23.5527  -32.0662   23.1750 C   0  0  0  0  0  0  0  0  0  0  0  0
  -25.3965  -29.1193   19.4925 C   0  0  0  0  0  0  0  0  0  0  0  0
  -23.6001   -8.0231   22.1847 C   0  0  0  0  0  0  0  0  0  0  0  0
  -22.4438   -8.6862   20.1696 C   0  0  0  0  0  0  0  0  0  0  0  0
  -26.7398  -28.7564   19.5799 C   0  0  0  0  0  0  0  0  0  0  0  0
  -22.5008   -4.9592   21.2701 C   0  0  0  0  0  0  0  0  0  0  0  0
  -22.8176   -3.6743   21.7107 C   0  0  0  0  0  0  0  0  0  0  0  0
  -26.0955  -26.6086   20.4694 C   0  0  0  0  0  0  0  0  0  0  0  0
  -28.9513  -24.4980   19.4351 C   0  0  0  0  0  0  0  0  0  0  0  0
  -21.6910   -4.1138   23.8023 C   0  0  0  0  0  0  0  0  0  0  0  0
  -28.2023  -22.6156   21.2631 C   0  0  0  0  0  0  0  0  0  0  0  0
  -24.6047   -9.6333   20.6897 C   0  0  0  0  0  0  0  0  0  0  0  0
  -26.8374  -10.2015   19.5944 C   0  0  0  0  0  0  0  0  0  0  0  0
  -21.2728  -32.7286   23.6760 C   0  0  0  0  0  0  0  0  0  0  0  0
  -24.3914  -28.2322   19.9038 C   0  0  0  0  0  0  0  0  0  0  0  0
  -22.2337  -31.7134   23.5075 C   0  0  0  0  0  0  0  0  0  0  0  0
  -24.7401  -26.9617   20.3838 C   0  0  0  0  0  0  0  0  0  0  0  0
  -28.8584  -23.1668   19.0444 C   0  0  0  0  0  0  0  0  0  0  0  0
  -28.4774  -22.2015   19.9698 C   0  0  0  0  0  0  0  0  0  0  0  0
  -22.4944   -7.9284   21.3396 C   0  0  0  0  0  0  0  0  0  0  0  0
  -27.0896  -27.5020   20.0711 C   0  0  0  0  0  0  0  0  0  0  0  0
  -21.7791   -5.8215   22.0956 C   0  0  0  0  0  0  0  0  0  0  0  0
  -22.4127   -3.2515   22.9768 C   0  0  0  0  0  0  0  0  0  0  0  0
  -21.3742   -5.3988   23.3617 C   0  0  0  0  0  0  0  0  0  0  0  0
  -25.6941  -10.5145   20.3537 C   0  0  0  0  0  0  0  0  0  0  0  0
  -28.6547  -24.8094   20.7523 C   0  0  0  0  0  0  0  0  0  0  0  0
  -27.5594  -11.3695   19.5635 C   0  0  0  0  0  0  0  0  0  0  0  0
  -27.2132   -8.9654   18.9726 C   0  0  0  0  0  0  0  0  0  0  0  0
  -22.1320  -28.2827   22.1390 C   0  0  0  0  0  0  0  0  0  0  0  0
  -21.2185  -25.5092   20.7262 C   0  0  0  0  0  0  0  0  0  0  0  0
  -22.0759  -22.8037   18.8310 C   0  0  0  0  0  0  0  0  0  0  0  0
  -28.0270  -16.6860   18.9632 C   0  0  0  0  0  0  0  0  0  0  0  0
  -19.8529  -32.4180   24.0787 C   0  0  0  0  0  0  0  0  0  0  0  0
  -22.9459  -28.6286   19.7781 C   0  0  0  0  0  0  0  0  0  0  0  0
  -23.6982  -25.9650   20.8193 C   0  0  0  0  0  0  0  0  0  0  0  0
  -19.4612  -30.9598   23.8541 C   0  0  0  0  0  0  0  0  0  0  0  0
  -27.0079  -15.6635   22.1656 C   0  0  0  0  0  0  0  0  0  0  0  0
  -20.5478  -30.0280   24.3810 C   0  0  0  0  0  0  0  0  0  0  0  0
  -26.6623  -14.1951   21.9200 C   0  0  0  0  0  0  0  0  0  0  0  0
  -26.5468  -16.5608   21.0159 C   0  0  0  0  0  0  0  0  0  0  0  0
  -29.5407  -19.9757   19.7622 C   0  0  0  0  0  0  0  0  0  0  0  0
  -27.0527  -20.2121   19.7564 C   0  0  0  0  0  0  0  0  0  0  0  0
  -29.4060  -18.7297   18.8909 C   0  0  0  0  0  0  0  0  0  0  0  0
  -26.9630  -18.9708   18.8757 C   0  0  0  0  0  0  0  0  0  0  0  0
  -26.6842  -14.6595   19.4398 C   0  0  0  0  0  0  0  0  0  0  0  0
  -29.0553  -23.3705   15.3152 C   0  0  0  0  0  0  0  0  0  0  0  0
  -29.1703  -22.8015   17.6303 C   0  0  1  0  0  0  0  0  0  0  0  0
  -21.8719  -30.2499   23.6401 C   0  0  1  0  0  0  0  0  0  0  0  0
  -22.0273  -27.8405   20.7068 C   0  0  1  0  0  0  0  0  0  0  0  0
  -28.3016  -23.5688   16.6247 C   0  0  2  0  0  0  0  0  0  0  0  0
  -27.1872  -13.7255   20.5516 C   0  0  2  0  0  0  0  0  0  0  0  0
  -30.5890  -23.2386   17.2350 C   0  0  1  0  0  0  0  0  0  0  0  0
  -26.8668  -23.0677   16.5404 C   0  0  0  0  0  0  0  0  0  0  0  0
  -31.6715  -22.2464   17.6315 C   0  0  0  0  0  0  0  0  0  0  0  0
  -30.1403  -26.6001   21.7165 C   0  0  0  0  0  0  0  0  0  0  0  0
  -21.1251  -20.6871   17.8753 C   0  0  0  0  0  0  0  0  0  0  0  0
  -21.3556  -24.2062   23.4818 C   0  0  0  0  0  0  0  0  0  0  0  0
  -21.3398  -21.9731   22.3498 C   0  0  0  0  0  0  0  0  0  0  0  0
  -19.3929  -23.5120   22.0961 C   0  0  0  0  0  0  0  0  0  0  0  0
  -31.3137  -24.4864   15.1557 C   0  0  0  0  0  0  0  0  0  0  0  0
  -22.6101  -23.6801   16.0552 C   0  0  0  0  0  0  0  0  0  0  0  0
  -28.7456  -26.2280   21.2071 C   0  0  1  0  0  0  0  0  0  1  0  0
  -21.5612  -24.0509   20.9129 C   0  0  1  0  0  0  0  0  0  0  0  0
  -21.4049  -22.1617   17.6302 C   0  0  2  0  0  0  0  0  0  0  0  0
  -20.9323  -23.4548   22.2038 C   0  0  0  0  0  0  0  0  0  0  0  0
  -28.2814  -23.8993   21.6797 N   0  0  0  0  0  0  0  0  0  0  0  0
  -25.6859  -11.7820   20.7749 N   0  0  0  0  0  0  0  0  0  0  0  0
  -26.8331  -12.2757   20.2786 N   0  0  0  0  0  0  0  0  0  0  0  0
  -28.3702  -20.8487   19.6225 N   0  0  0  0  0  0  0  0  0  0  0  0
  -22.2989  -26.4018   20.6831 N   0  0  0  0  0  0  0  0  0  0  0  0
  -27.0375  -16.0509   19.7285 N   0  0  0  0  0  0  0  0  0  0  0  0
  -28.1115  -18.0831   19.0690 N   0  0  0  0  0  0  0  0  0  0  0  0
  -28.7384  -11.6995   18.9947 N   0  0  0  0  0  0  0  0  0  0  0  0
  -26.3561   -7.8642   19.1029 N   0  0  0  0  0  0  0  0  0  0  0  0
  -21.8352  -29.6174   22.3389 N   0  0  0  0  0  0  0  0  0  0  0  0
  -21.1564  -23.3760   19.6844 N   0  0  0  0  0  0  0  0  0  0  0  0
  -30.5213  -23.3421   15.7117 N   0  3  2  0  0  0  0  0  0  0  0  0
  -22.2744  -22.2812   16.4257 N   0  3  0  0  0  0  0  0  0  0  0  0
  -28.2855   -8.8366   18.3345 O   0  0  0  0  0  0  0  0  0  0  0  0
  -22.4565  -27.4725   22.9992 O   0  0  0  0  0  0  0  0  0  0  0  0
  -20.0362  -25.8432   20.6154 O   0  0  0  0  0  0  0  0  0  0  0  0
  -23.2936  -22.7949   18.9974 O   0  0  0  0  0  0  0  0  0  0  0  0
  -28.7917  -16.0453   18.2314 O   0  0  0  0  0  0  0  0  0  0  0  0
  -21.4647   -7.0965   21.6563 O   0  0  0  0  0  0  0  0  0  0  0  0
  -28.4040  -27.1445   20.1583 O   0  0  0  0  0  0  0  0  0  1  0  0
  -22.7157   -2.0171   23.3993 F   0  0  0  0  0  0  0  0  0  0  0  0
  -20.6797   -6.2222   24.1587 F   0  0  0  0  0  0  0  0  0  0  0  0
  1  2  1  0  0  0  0
  1  5  2  0  0  0  0
  2  6  2  0  0  0  0
  3  8  2  0  0  0  0
  3 17  1  0  0  0  0
  4  9  1  0  0  0  0
  4 17  2  0  0  0  0
  5 19  1  0  0  0  0
  6 21  1  0  0  0  0
  7 10  2  0  0  0  0
  7 20  1  0  0  0  0
  8 25  1  0  0  0  0
  9 25  2  0  0  0  0
 10 26  1  0  0  0  0
 11 12  2  0  0  0  0
 11 27  1  0  0  0  0
 12 28  1  0  0  0  0
 13 22  1  0  0  0  0
 13 26  2  0  0  0  0
 14 23  2  0  0  0  0
 14 31  1  0  0  0  0
 15 28  2  0  0  0  0
 15 29  1  0  0  0  0
 16 24  2  0  0  0  0
 16 71  1  0  0  0  0
 17 30  1  0  0  0  0
 18 30  1  0  0  0  0
 18 32  2  0  0  0  0
 18 33  1  0  0  0  0
 19 21  2  0  0  0  0
 19 38  1  0  0  0  0
 20 22  2  0  0  0  0
 20 39  1  0  0  0  0
 21 53  1  0  0  0  0
 22 40  1  0  0  0  0
 23 24  1  0  0  0  0
 23 52  1  0  0  0  0
 24 74  1  0  0  0  0
 25 89  1  0  0  0  0
 26 90  1  0  0  0  0
 27 29  2  0  0  0  0
 27 89  1  0  0  0  0
 28 91  1  0  0  0  0
 29 92  1  0  0  0  0
 30 72  2  0  0  0  0
 31 67  1  0  0  0  0
 31 71  2  0  0  0  0
 32 73  1  0  0  0  0
 32 78  1  0  0  0  0
 33 79  1  0  0  0  0
 33 84  2  0  0  0  0
 34 54  1  0  0  0  0
 34 80  1  0  0  0  0
 34 85  2  0  0  0  0
 35 68  1  0  0  0  0
 35 75  1  0  0  0  0
 35 86  2  0  0  0  0
 36 69  1  0  0  0  0
 36 81  1  0  0  0  0
 36 87  2  0  0  0  0
 37 76  1  0  0  0  0
 37 77  1  0  0  0  0
 37 88  2  0  0  0  0
 38 41  1  0  0  0  0
 39 54  1  0  0  0  0
 40 75  1  0  0  0  0
 41 43  1  0  0  0  0
 42 44  1  0  0  0  0
 42 45  1  0  0  0  0
 43 53  1  0  0  0  0
 44 56  1  0  0  0  0
 45 76  1  0  0  0  0
 46 48  1  0  0  0  0
 46 74  1  0  0  0  0
 47 49  1  0  0  0  0
 47 74  1  0  0  0  0
 48 77  1  0  0  0  0
 49 77  1  0  0  0  0
 50 56  1  0  0  0  0
 50 76  1  0  0  0  0
 51 55  1  0  0  0  0
 51 82  1  0  0  0  0
 52 55  1  0  0  0  0
 52 57  1  0  0  0  0
 53 80  1  0  0  0  0
 54 75  1  0  0  0  0
 55 58  1  0  0  0  0
 56 73  1  0  0  0  0
 57 59  1  0  0  0  0
 57 82  1  0  0  0  0
 60 67  1  0  0  0  0
 61 69  1  0  0  0  0
 62 70  1  0  0  0  0
 63 70  1  0  0  0  0
 64 70  1  0  0  0  0
 65 82  1  0  0  0  0
 66 83  1  0  0  0  0
 67 90  1  0  0  0  0
 68 70  1  0  0  0  0
 68 81  1  0  0  0  0
 69 83  1  0  0  0  0
 72 73  1  0  0  0  0
M  CHG  2  82   1  83   1
M  ISO  4  37 100  67 101  77 100  90 101
M  END
> <Batch ID>
0168

> <Smiles>
CNC(C)C(=O)NC(C(=O)N1Cc2cc([101O:1][101CH:1](C)c3cc(C4C(C)CN(C)C4C)c(N4CC[100N:0]([100C:0](=O)N5CCCC(n6nc(-c7ccc(Oc8ccc(F)cc8F)cc7)c(C(N)=O)c6N)C5)CC4)cn3)ccc2CC1C(=O)NC1CCCc2ccccc21)C(C)(C)C

> <Shape>
0.278

> <Color>
0.096

> <Negative vol penalty>
0.000

$$$$

  -OEChem-04052322303D

 90100  0     1  0  0  0  0  0999 V2000
  -23.8080  -24.3167   13.5262 C   0  0  0  0  0  0  0  0  0  0  0  0
  -23.2068  -25.1014   14.5052 C   0  0  0  0  0  0  0  0  0  0  0  0
  -24.3441   -9.4269   21.6426 C   0  0  0  0  0  0  0  0  0  0  0  0
  -22.4869  -10.2881   20.3595 C   0  0  0  0  0  0  0  0  0  0  0  0
  -24.8984  -23.5114   13.8524 C   0  0  0  0  0  0  0  0  0  0  0  0
  -23.6951  -25.0803   15.8112 C   0  0  0  0  0  0  0  0  0  0  0  0
  -23.8831  -29.7684   19.7472 C   0  0  0  0  0  0  0  0  0  0  0  0
  -23.6870   -8.2034   21.7726 C   0  0  0  0  0  0  0  0  0  0  0  0
  -21.8298   -9.0646   20.4894 C   0  0  0  0  0  0  0  0  0  0  0  0
  -23.0485  -30.1442   20.7988 C   0  0  0  0  0  0  0  0  0  0  0  0
  -21.2008   -6.8995   23.6550 C   0  0  0  0  0  0  0  0  0  0  0  0
  -21.1886   -6.3020   24.9153 C   0  0  0  0  0  0  0  0  0  0  0  0
  -24.5093  -29.0174   22.3530 C   0  0  0  0  0  0  0  0  0  0  0  0
  -19.8534  -23.7060   21.8202 C   0  0  0  0  0  0  0  0  0  0  0  0
  -22.3276   -4.3725   24.0115 C   0  0  0  0  0  0  0  0  0  0  0  0
  -23.7440  -10.4693   20.9361 C   0  0  0  0  0  0  0  0  0  0  0  0
  -25.6742  -11.9672   20.2025 C   0  0  0  0  0  0  0  0  0  0  0  0
  -25.4064  -23.4878   15.1608 C   0  0  0  0  0  0  0  0  0  0  0  0
  -25.0333  -29.0036   19.9897 C   0  0  0  0  0  0  0  0  0  0  0  0
  -24.7925  -24.2729   16.1554 C   0  0  0  0  0  0  0  0  0  0  0  0
  -25.3583  -28.6353   21.3031 C   0  0  0  0  0  0  0  0  0  0  0  0
  -20.1928  -25.4737   23.3722 C   0  0  0  0  0  0  0  0  0  0  0  0
  -19.5419  -24.9924   22.2540 C   0  0  0  0  0  0  0  0  0  0  0  0
  -22.4298   -8.0223   21.1960 C   0  0  0  0  0  0  0  0  0  0  0  0
  -23.3600  -29.7663   22.1016 C   0  0  0  0  0  0  0  0  0  0  0  0
  -21.7764   -6.2335   22.5729 C   0  0  0  0  0  0  0  0  0  0  0  0
  -21.7520   -5.0385   25.0935 C   0  0  0  0  0  0  0  0  0  0  0  0
  -22.3398   -4.9701   22.7511 C   0  0  0  0  0  0  0  0  0  0  0  0
  -24.4221  -11.7335   20.8020 C   0  0  0  0  0  0  0  0  0  0  0  0
  -21.1301  -24.6654   24.0089 C   0  0  0  0  0  0  0  0  0  0  0  0
  -20.8077  -22.9741   22.5272 C   0  0  0  0  0  0  0  0  0  0  0  0
  -25.8686  -13.3209   20.3299 C   0  0  0  0  0  0  0  0  0  0  0  0
  -26.5806  -11.0433   19.5856 C   0  0  0  0  0  0  0  0  0  0  0  0
  -26.0400  -26.1227   19.1007 C   0  0  0  0  0  0  0  0  0  0  0  0
  -28.7630  -27.0376   20.6076 C   0  0  0  0  0  0  0  0  0  0  0  0
  -30.2507  -29.0252   22.9491 C   0  0  0  0  0  0  0  0  0  0  0  0
  -22.3147  -17.8645   20.7223 C   0  0  0  0  0  0  0  0  0  0  0  0
  -26.5573  -22.5655   15.4762 C   0  0  0  0  0  0  0  0  0  0  0  0
  -25.9375  -28.6290   18.8476 C   0  0  0  0  0  0  0  0  0  0  0  0
  -26.5922  -27.8315   21.6189 C   0  0  0  0  0  0  0  0  0  0  0  0
  -21.7584  -25.3877   25.1674 C   0  0  0  0  0  0  0  0  0  0  0  0
  -27.2489  -22.8850   16.7991 C   0  0  0  0  0  0  0  0  0  0  0  0
  -20.7344  -26.5107   25.4011 C   0  0  0  0  0  0  0  0  0  0  0  0
  -24.7367  -17.0278   23.1251 C   0  0  0  0  0  0  0  0  0  0  0  0
  -26.2176  -23.1040   17.9014 C   0  0  0  0  0  0  0  0  0  0  0  0
  -25.0575  -15.5832   22.7428 C   0  0  0  0  0  0  0  0  0  0  0  0
  -23.2411  -17.3299   23.0194 C   0  0  0  0  0  0  0  0  0  0  0  0
  -21.6009  -21.5034   20.7008 C   0  0  0  0  0  0  0  0  0  0  0  0
  -21.4793  -20.6710   23.0541 C   0  0  0  0  0  0  0  0  0  0  0  0
  -21.3623  -20.0799   20.2043 C   0  0  0  0  0  0  0  0  0  0  0  0
  -21.2304  -19.2661   22.5167 C   0  0  0  0  0  0  0  0  0  0  0  0
  -22.9736  -15.5525   21.3202 C   0  0  0  0  0  0  0  0  0  0  0  0
  -25.3088  -24.2960   17.5777 C   0  0  1  0  0  0  0  0  0  0  0  0
  -20.0793  -26.8048   24.0381 C   0  0  1  0  0  0  0  0  0  0  0  0
  -26.8083  -27.4131   19.1490 C   0  0  1  0  0  0  0  0  0  0  0  0
  -24.4766  -15.2356   21.3606 C   0  0  2  0  0  0  0  0  0  0  0  0
  -18.5188  -25.7884   21.5230 C   0  0  0  0  0  0  0  0  0  0  0  0
  -32.4840  -29.5203   23.9811 C   0  0  0  0  0  0  0  0  0  0  0  0
  -20.7359  -31.7276   23.0856 C   0  0  0  0  0  0  0  0  0  0  0  0
  -28.5788  -24.4634   22.2352 C   0  0  0  0  0  0  0  0  0  0  0  0
  -30.2242  -25.4463   23.8460 C   0  0  0  0  0  0  0  0  0  0  0  0
  -30.8867  -25.0530   21.4734 C   0  0  0  0  0  0  0  0  0  0  0  0
  -30.1790  -31.8394   22.0357 C   0  0  0  0  0  0  0  0  0  0  0  0
  -20.3610  -29.2556   23.6265 C   0  0  0  0  0  0  0  0  0  0  0  0
  -29.2899  -26.9359   22.0186 C   0  0  1  0  0  0  0  0  0  0  0  0
  -31.4936  -29.8948   22.8894 C   0  0  2  0  0  0  0  0  0  0  0  0
  -21.1574  -30.2860   22.8326 C   0  0  2  0  0  0  0  0  0  1  0  0
  -29.7205  -25.4882   22.3875 C   0  0  0  0  0  0  0  0  0  0  0  0
  -23.8607  -12.8493   21.2752 N   0  0  0  0  0  0  0  0  0  0  0  0
  -21.4678  -23.4247   23.6211 N   0  0  0  0  0  0  0  0  0  0  0  0
  -24.7642  -13.7972   20.9731 N   0  0  0  0  0  0  0  0  0  0  0  0
  -21.0870  -21.6824   22.0630 N   0  0  0  0  0  0  0  0  0  0  0  0
  -27.4413  -27.4841   20.4675 N   0  0  0  0  0  0  0  0  0  0  0  0
  -22.7241  -16.9447   21.6993 N   0  0  0  0  0  0  0  0  0  0  0  0
  -21.7987  -19.0874   21.1790 N   0  0  0  0  0  0  0  0  0  0  0  0
  -26.8747  -14.1384   19.9534 N   0  0  0  0  0  0  0  0  0  0  0  0
  -26.2252   -9.6883   19.5401 N   0  0  0  0  0  0  0  0  0  0  0  0
  -25.9940  -25.5419   17.8477 N   0  0  0  0  0  0  0  0  0  0  0  0
  -30.3585  -27.9232   22.1275 N   0  0  0  0  0  0  0  0  0  0  0  0
  -20.8401  -27.8744   23.3427 N   0  3  0  0  0  0  0  0  0  0  0  0
  -31.1300  -31.3303   23.0571 N   0  3  0  0  0  0  0  0  0  0  0  0
  -27.6807  -11.4060   19.1042 O   0  0  0  0  0  0  0  0  0  0  0  0
  -25.5283  -25.6855   20.1248 O   0  0  0  0  0  0  0  0  0  0  0  0
  -29.4994  -26.7390   19.6641 O   0  0  0  0  0  0  0  0  0  0  0  0
  -29.2827  -29.2946   23.6569 O   0  0  0  0  0  0  0  0  0  0  0  0
  -22.4067  -17.6118   19.5146 O   0  0  0  0  0  0  0  0  0  0  0  0
  -21.7884   -6.8285   21.3224 O   0  0  0  0  0  0  0  0  0  0  0  0
  -22.5420  -30.1334   23.1358 O   0  0  0  0  0  0  0  0  0  1  0  0
  -21.7416   -4.4654   26.3042 F   0  0  0  0  0  0  0  0  0  0  0  0
  -22.8953   -4.3259   21.7156 F   0  0  0  0  0  0  0  0  0  0  0  0
  1  2  1  0  0  0  0
  1  5  2  0  0  0  0
  2  6  2  0  0  0  0
  3  8  2  0  0  0  0
  3 16  1  0  0  0  0
  4  9  1  0  0  0  0
  4 16  2  0  0  0  0
  5 18  1  0  0  0  0
  6 20  1  0  0  0  0
  7 10  2  0  0  0  0
  7 19  1  0  0  0  0
  8 24  1  0  0  0  0
  9 24  2  0  0  0  0
 10 25  1  0  0  0  0
 11 12  2  0  0  0  0
 11 26  1  0  0  0  0
 12 27  1  0  0  0  0
 13 21  1  0  0  0  0
 13 25  2  0  0  0  0
 14 23  2  0  0  0  0
 14 31  1  0  0  0  0
 15 27  2  0  0  0  0
 15 28  1  0  0  0  0
 16 29  1  0  0  0  0
 17 29  1  0  0  0  0
 17 32  2  0  0  0  0
 17 33  1  0  0  0  0
 18 20  2  0  0  0  0
 18 38  1  0  0  0  0
 19 21  2  0  0  0  0
 19 39  1  0  0  0  0
 20 53  1  0  0  0  0
 21 40  1  0  0  0  0
 22 23  1  0  0  0  0
 22 30  2  0  0  0  0
 22 54  1  0  0  0  0
 23 57  1  0  0  0  0
 24 87  1  0  0  0  0
 25 88  1  0  0  0  0
 26 28  2  0  0  0  0
 26 87  1  0  0  0  0
 27 89  1  0  0  0  0
 28 90  1  0  0  0  0
 29 69  2  0  0  0  0
 30 41  1  0  0  0  0
 30 70  1  0  0  0  0
 31 70  2  0  0  0  0
 31 72  1  0  0  0  0
 32 71  1  0  0  0  0
 32 76  1  0  0  0  0
 33 77  1  0  0  0  0
 33 82  2  0  0  0  0
 34 55  1  0  0  0  0
 34 78  1  0  0  0  0
 34 83  2  0  0  0  0
 35 65  1  0  0  0  0
 35 73  1  0  0  0  0
 35 84  2  0  0  0  0
 36 66  1  0  0  0  0
 36 79  1  0  0  0  0
 36 85  2  0  0  0  0
 37 74  1  0  0  0  0
 37 75  1  0  0  0  0
 37 86  2  0  0  0  0
 38 42  1  0  0  0  0
 39 55  1  0  0  0  0
 40 73  1  0  0  0  0
 41 43  1  0  0  0  0
 42 45  1  0  0  0  0
 43 54  1  0  0  0  0
 44 46  1  0  0  0  0
 44 47  1  0  0  0  0
 45 53  1  0  0  0  0
 46 56  1  0  0  0  0
 47 74  1  0  0  0  0
 48 50  1  0  0  0  0
 48 72  1  0  0  0  0
 49 51  1  0  0  0  0
 49 72  1  0  0  0  0
 50 75  1  0  0  0  0
 51 75  1  0  0  0  0
 52 56  1  0  0  0  0
 52 74  1  0  0  0  0
 53 78  1  0  0  0  0
 54 80  1  0  0  0  0
 55 73  1  0  0  0  0
 56 71  1  0  0  0  0
 58 66  1  0  0  0  0
 59 67  1  0  0  0  0
 60 68  1  0  0  0  0
 61 68  1  0  0  0  0
 62 68  1  0  0  0  0
 63 81  1  0  0  0  0
 64 67  1  0  0  0  0
 64 80  1  0  0  0  0
 65 68  1  0  0  0  0
 65 79  1  0  0  0  0
 66 81  1  0  0  0  0
 67 88  1  0  0  0  0
 69 71  1  0  0  0  0
M  CHG  2  80   1  81   1
M  ISO  4  37 100  67 101  75 100  88 101
M  END
> <Batch ID>
0168

> <Smiles>
CNC(C)C(=O)NC(C(=O)N1Cc2cc([101O:1][101CH:1](C)CNC3CCc4nc(N5CC[100N:0]([100C:0](=O)N6CCCC(n7nc(-c8ccc(Oc9ccc(F)cc9F)cc8)c(C(N)=O)c7N)C6)CC5)cc(C)c43)ccc2CC1C(=O)NC1CCCc2ccccc21)C(C)(C)C

> <Shape>
0.239

> <Color>
0.104

> <Negative vol penalty>
0.000

$$$$

  -OEChem-04052322303D

 84 93  0     1  0  0  0  0  0999 V2000
  -38.3822  -23.3583   35.5866 C   0  0  0  0  0  0  0  0  0  0  0  0
  -37.5321  -22.8318   34.6193 C   0  0  0  0  0  0  0  0  0  0  0  0
  -23.0744   -9.8683   19.9421 C   0  0  0  0  0  0  0  0  0  0  0  0
  -23.8385   -9.8755   22.2341 C   0  0  0  0  0  0  0  0  0  0  0  0
  -39.7620  -23.3342   35.3881 C   0  0  0  0  0  0  0  0  0  0  0  0
  -38.0614  -22.2819   33.4523 C   0  0  0  0  0  0  0  0  0  0  0  0
  -32.3649  -15.7859   23.6634 C   0  0  0  0  0  0  0  0  0  0  0  0
  -35.8687  -17.5043   30.3103 C   0  0  0  0  0  0  0  0  0  0  0  0
  -32.9879  -15.9444   24.9037 C   0  0  0  0  0  0  0  0  0  0  0  0
  -22.3319   -8.7146   20.1933 C   0  0  0  0  0  0  0  0  0  0  0  0
  -23.0959   -8.7217   22.4853 C   0  0  0  0  0  0  0  0  0  0  0  0
  -35.0726  -17.4179   29.1690 C   0  0  0  0  0  0  0  0  0  0  0  0
  -19.8694   -7.9215   23.0936 C   0  0  0  0  0  0  0  0  0  0  0  0
  -19.1146   -7.8808   24.2658 C   0  0  0  0  0  0  0  0  0  0  0  0
  -31.9931  -18.1466   25.1748 C   0  0  0  0  0  0  0  0  0  0  0  0
  -37.0527  -17.1680   27.8140 C   0  0  0  0  0  0  0  0  0  0  0  0
  -20.3588   -5.9441   24.9997 C   0  0  0  0  0  0  0  0  0  0  0  0
  -23.8278  -10.4487   20.9626 C   0  0  0  0  0  0  0  0  0  0  0  0
  -24.1676  -12.9742   20.8423 C   0  0  0  0  0  0  0  0  0  0  0  0
  -40.3090  -22.7750   34.2224 C   0  0  0  0  0  0  0  0  0  0  0  0
  -37.2657  -17.4340   30.2106 C   0  0  0  0  0  0  0  0  0  0  0  0
  -39.4498  -22.2515   33.2374 C   0  0  0  0  0  0  0  0  0  0  0  0
  -31.5468  -16.8046   23.1992 C   0  0  0  0  0  0  0  0  0  0  0  0
  -31.3686  -17.9763   23.9501 C   0  0  0  0  0  0  0  0  0  0  0  0
  -37.8642  -17.2512   28.9558 C   0  0  0  0  0  0  0  0  0  0  0  0
  -32.8025  -17.1154   25.6543 C   0  0  0  0  0  0  0  0  0  0  0  0
  -22.3426   -8.1413   21.4648 C   0  0  0  0  0  0  0  0  0  0  0  0
  -35.6647  -17.2526   27.9203 C   0  0  0  0  0  0  0  0  0  0  0  0
  -20.8689   -6.9734   22.8743 C   0  0  0  0  0  0  0  0  0  0  0  0
  -19.3593   -6.8922   25.2189 C   0  0  0  0  0  0  0  0  0  0  0  0
  -21.1135   -5.9848   23.8274 C   0  0  0  0  0  0  0  0  0  0  0  0
  -24.5956  -11.6402   20.7036 C   0  0  0  0  0  0  0  0  0  0  0  0
  -25.2585  -13.7245   20.4772 C   0  0  0  0  0  0  0  0  0  0  0  0
  -22.8975  -13.4890   21.2637 C   0  0  0  0  0  0  0  0  0  0  0  0
  -39.6651  -19.4044   30.8920 C   0  0  0  0  0  0  0  0  0  0  0  0
  -41.4831  -16.8312   30.1202 C   0  0  0  0  0  0  0  0  0  0  0  0
  -41.7572  -13.8801   28.4282 C   0  0  0  0  0  0  0  0  0  0  0  0
  -30.7419  -14.7475   20.6557 C   0  0  0  0  0  0  0  0  0  0  0  0
  -41.8045  -22.8143   34.0311 C   0  0  0  0  0  0  0  0  0  0  0  0
  -38.1091  -17.5021   31.4542 C   0  0  0  0  0  0  0  0  0  0  0  0
  -30.4986  -18.9568   23.2235 C   0  0  0  0  0  0  0  0  0  0  0  0
  -39.3585  -17.1496   28.7972 C   0  0  0  0  0  0  0  0  0  0  0  0
  -42.3033  -21.8751   32.9359 C   0  0  0  0  0  0  0  0  0  0  0  0
  -29.6017  -12.3625   18.2707 C   0  0  0  0  0  0  0  0  0  0  0  0
  -41.4431  -22.0110   31.6835 C   0  0  0  0  0  0  0  0  0  0  0  0
  -28.1652  -12.0677   18.7061 C   0  0  0  0  0  0  0  0  0  0  0  0
  -30.5208  -12.5838   19.4699 C   0  0  0  0  0  0  0  0  0  0  0  0
  -28.6211  -13.3133   20.8601 C   0  0  0  0  0  0  0  0  0  0  0  0
  -39.9871  -21.6239   31.9695 C   0  0  1  0  0  0  0  0  0  0  0  0
  -30.8084  -16.8979   21.8929 C   0  0  2  0  0  0  0  0  0  0  0  0
  -39.5460  -17.9343   31.1787 C   0  0  1  0  0  0  0  0  0  0  0  0
  -27.6449  -13.1382   19.6842 C   0  0  2  0  0  0  0  0  0  0  0  0
  -29.8092  -18.0231   22.2194 C   0  0  2  0  0  0  0  0  0  0  0  0
  -43.3770  -12.0220   27.9583 C   0  0  0  0  0  0  0  0  0  0  0  0
  -42.9737  -18.6302   28.1576 C   0  0  0  0  0  0  0  0  0  0  0  0
  -43.8886  -16.5686   27.0708 C   0  0  0  0  0  0  0  0  0  0  0  0
  -44.4325  -17.0662   29.4539 C   0  0  0  0  0  0  0  0  0  0  0  0
  -39.9868  -11.8646   29.6782 C   0  0  0  0  0  0  0  0  0  0  0  0
  -28.8229  -17.8635   19.9577 C   0  0  0  0  0  0  0  0  0  0  0  0
  -28.5447  -19.9404   21.3029 C   0  0  0  0  0  0  0  0  0  0  0  0
  -33.4775  -17.2575   26.9866 C   0  0  0  0  0  0  0  0  0  1  0  0
  -42.1001  -16.3009   28.8486 C   0  0  1  0  0  0  0  0  0  0  0  0
  -42.2562  -12.5134   28.8611 C   0  0  2  0  0  0  0  0  0  0  0  0
  -43.3206  -17.1453   28.3851 C   0  0  0  0  0  0  0  0  0  0  0  0
  -25.8597  -11.5454   20.2830 N   0  0  0  0  0  0  0  0  0  0  0  0
  -26.2355  -12.8292   20.1542 N   0  0  0  0  0  0  0  0  0  0  0  0
  -40.1406  -17.2281   30.0421 N   0  0  0  0  0  0  0  0  0  0  0  0
  -29.9711  -13.6118   20.3570 N   0  0  0  0  0  0  0  0  0  0  0  0
  -25.4679  -15.0561   20.4040 N   0  0  0  0  0  0  0  0  0  0  0  0
  -21.8869  -12.5790   21.6026 N   0  0  0  0  0  0  0  0  0  0  0  0
  -39.8471  -20.1843   32.0182 N   0  0  0  0  0  0  0  0  0  0  0  0
  -42.4054  -14.8962   29.0979 N   0  0  0  0  0  0  0  0  0  0  0  0
  -30.1436  -15.6757   21.4990 N   0  0  0  0  0  0  0  0  0  0  0  0
  -41.1470  -11.5191   28.8170 N   0  3  0  0  0  0  0  0  0  0  0  0
  -29.4289  -18.7634   20.9983 N   0  3  0  0  0  0  0  0  0  0  0  0
  -22.6605  -14.7194   21.3216 O   0  0  0  0  0  0  0  0  0  0  0  0
  -39.5983  -19.8016   29.7347 O   0  0  0  0  0  0  0  0  0  0  0  0
  -42.1649  -16.8845   31.1468 O   0  0  0  0  0  0  0  0  0  0  0  0
  -40.8826  -14.0314   27.5780 O   0  0  0  0  0  0  0  0  0  0  0  0
  -31.8769  -14.9238   20.2001 O   0  0  0  0  0  0  0  0  0  0  0  0
  -21.6179   -7.0156   21.7103 O   0  0  0  0  0  0  0  0  0  0  0  0
  -34.8900  -17.1686   26.8047 O   0  0  0  0  0  0  0  0  0  1  0  0
  -18.6354   -6.8542   26.3453 F   0  0  0  0  0  0  0  0  0  0  0  0
  -22.0732   -5.0721   23.6229 F   0  0  0  0  0  0  0  0  0  0  0  0
  1  2  1  0  0  0  0
  1  5  2  0  0  0  0
  2  6  2  0  0  0  0
  3 10  2  0  0  0  0
  3 18  1  0  0  0  0
  4 11  1  0  0  0  0
  4 18  2  0  0  0  0
  5 20  1  0  0  0  0
  6 22  1  0  0  0  0
  7  9  2  0  0  0  0
  7 23  1  0  0  0  0
  8 12  2  0  0  0  0
  8 21  1  0  0  0  0
  9 26  1  0  0  0  0
 10 27  1  0  0  0  0
 11 27  2  0  0  0  0
 12 28  1  0  0  0  0
 13 14  2  0  0  0  0
 13 29  1  0  0  0  0
 14 30  1  0  0  0  0
 15 24  1  0  0  0  0
 15 26  2  0  0  0  0
 16 25  1  0  0  0  0
 16 28  2  0  0  0  0
 17 30  2  0  0  0  0
 17 31  1  0  0  0  0
 18 32  1  0  0  0  0
 19 32  1  0  0  0  0
 19 33  2  0  0  0  0
 19 34  1  0  0  0  0
 20 22  2  0  0  0  0
 20 39  1  0  0  0  0
 21 25  2  0  0  0  0
 21 40  1  0  0  0  0
 22 49  1  0  0  0  0
 23 24  2  0  0  0  0
 23 50  1  0  0  0  0
 24 41  1  0  0  0  0
 25 42  1  0  0  0  0
 26 61  1  0  0  0  0
 27 81  1  0  0  0  0
 28 82  1  0  0  0  0
 29 31  2  0  0  0  0
 29 81  1  0  0  0  0
 30 83  1  0  0  0  0
 31 84  1  0  0  0  0
 32 65  2  0  0  0  0
 33 66  1  0  0  0  0
 33 69  1  0  0  0  0
 34 70  1  0  0  0  0
 34 76  2  0  0  0  0
 35 51  1  0  0  0  0
 35 71  1  0  0  0  0
 35 77  2  0  0  0  0
 36 62  1  0  0  0  0
 36 67  1  0  0  0  0
 36 78  2  0  0  0  0
 37 63  1  0  0  0  0
 37 72  1  0  0  0  0
 37 79  2  0  0  0  0
 38 68  1  0  0  0  0
 38 73  1  0  0  0  0
 38 80  2  0  0  0  0
 39 43  1  0  0  0  0
 40 51  1  0  0  0  0
 41 53  1  0  0  0  0
 42 67  1  0  0  0  0
 43 45  1  0  0  0  0
 44 46  1  0  0  0  0
 44 47  1  0  0  0  0
 45 49  1  0  0  0  0
 46 52  1  0  0  0  0
 47 68  1  0  0  0  0
 48 52  1  0  0  0  0
 48 68  1  0  0  0  0
 49 71  1  0  0  0  0
 50 53  1  0  0  0  0
 50 73  1  0  0  0  0
 51 67  1  0  0  0  0
 52 66  1  0  0  0  0
 53 75  1  0  0  0  0
 54 63  1  0  0  0  0
 55 64  1  0  0  0  0
 56 64  1  0  0  0  0
 57 64  1  0  0  0  0
 58 74  1  0  0  0  0
 59 75  1  0  0  0  0
 60 75  1  0  0  0  0
 61 82  1  0  0  0  0
 62 64  1  0  0  0  0
 62 72  1  0  0  0  0
 63 74  1  0  0  0  0
 65 66  1  0  0  0  0
M  CHG  2  74   1  75   1
M  ISO  4  38 100  61 101  73 100  82 101
M  END
> <Batch ID>
0168

> <Smiles>
CNC(C)C(=O)NC(C(=O)N1Cc2cc([101O:1][101CH2:1]c3ccc4c(c3)CC(N(C)C)C4[100NH:0][100C:0](=O)N3CCCC(n4nc(-c5ccc(Oc6ccc(F)cc6F)cc5)c(C(N)=O)c4N)C3)ccc2CC1C(=O)NC1CCCc2ccccc21)C(C)(C)C

> <Shape>
0.187

> <Color>
0.187

> <Negative vol penalty>
0.000

$$$$

  -OEChem-04052322303D

 86 96  0     1  0  0  0  0  0999 V2000
  -13.5935  -30.2229   15.1528 C   0  0  0  0  0  0  0  0  0  0  0  0
  -13.9428  -28.8763   15.1475 C   0  0  0  0  0  0  0  0  0  0  0  0
  -23.0936   -9.9665   19.9428 C   0  0  0  0  0  0  0  0  0  0  0  0
  -23.5675  -10.0291   22.3111 C   0  0  0  0  0  0  0  0  0  0  0  0
  -14.5636  -31.1925   15.4033 C   0  0  0  0  0  0  0  0  0  0  0  0
  -15.2627  -28.4985   15.3918 C   0  0  0  0  0  0  0  0  0  0  0  0
  -24.9920  -18.1665   17.9803 C   0  0  0  0  0  0  0  0  0  0  0  0
  -19.1037  -23.2331   18.3648 C   0  0  0  0  0  0  0  0  0  0  0  0
  -23.8144  -18.9042   18.1812 C   0  0  0  0  0  0  0  0  0  0  0  0
  -22.2951   -8.8386   20.1324 C   0  0  0  0  0  0  0  0  0  0  0  0
  -22.7690   -8.9012   22.5006 C   0  0  0  0  0  0  0  0  0  0  0  0
  -20.1567  -22.3687   18.0686 C   0  0  0  0  0  0  0  0  0  0  0  0
  -23.0396   -5.5576   22.0787 C   0  0  0  0  0  0  0  0  0  0  0  0
  -23.5360   -4.5421   22.8959 C   0  0  0  0  0  0  0  0  0  0  0  0
  -21.7318  -24.1263   18.5676 C   0  0  0  0  0  0  0  0  0  0  0  0
  -21.6439   -4.8073   24.3747 C   0  0  0  0  0  0  0  0  0  0  0  0
  -23.7298  -10.5617   21.0322 C   0  0  0  0  0  0  0  0  0  0  0  0
  -24.1491  -13.0736   20.8828 C   0  0  0  0  0  0  0  0  0  0  0  0
  -15.8941  -30.8259   15.6603 C   0  0  0  0  0  0  0  0  0  0  0  0
  -19.3570  -24.5561   18.7547 C   0  0  0  0  0  0  0  0  0  0  0  0
  -25.7754  -18.3714   16.8425 C   0  0  0  0  0  0  0  0  0  0  0  0
  -16.2517  -29.4642   15.6446 C   0  0  0  0  0  0  0  0  0  0  0  0
  -20.6803  -25.0048   18.8706 C   0  0  0  0  0  0  0  0  0  0  0  0
  -25.3531  -19.3096   15.9157 C   0  0  0  0  0  0  0  0  0  0  0  0
  -24.1793  -20.0455   16.1163 C   0  0  0  0  0  0  0  0  0  0  0  0
  -23.4031  -19.8578   17.2473 C   0  0  0  0  0  0  0  0  0  0  0  0
  -22.1328   -8.3060   21.4113 C   0  0  0  0  0  0  0  0  0  0  0  0
  -21.4709  -22.8161   18.1672 C   0  0  0  0  0  0  0  0  0  0  0  0
  -21.8454   -6.1981   22.4095 C   0  0  0  0  0  0  0  0  0  0  0  0
  -22.8382   -4.1669   24.0439 C   0  0  0  0  0  0  0  0  0  0  0  0
  -21.1475   -5.8229   23.5574 C   0  0  0  0  0  0  0  0  0  0  0  0
  -24.5552  -11.7265   20.8369 C   0  0  0  0  0  0  0  0  0  0  0  0
  -25.2965  -13.7868   20.6352 C   0  0  0  0  0  0  0  0  0  0  0  0
  -22.8507  -13.6305   21.1274 C   0  0  0  0  0  0  0  0  0  0  0  0
  -18.6576  -27.4188   17.5632 C   0  0  0  0  0  0  0  0  0  0  0  0
  -19.9696  -28.4638   20.3397 C   0  0  0  0  0  0  0  0  0  0  0  0
  -22.0802  -27.8630   22.9534 C   0  0  0  0  0  0  0  0  0  0  0  0
  -29.9686  -14.6877   17.9383 C   0  0  0  0  0  0  0  0  0  0  0  0
  -16.9171  -31.9123   15.8790 C   0  0  0  0  0  0  0  0  0  0  0  0
  -18.2107  -25.4681   19.0966 C   0  0  0  0  0  0  0  0  0  0  0  0
  -26.0350  -19.7282   14.6516 C   0  0  0  0  0  0  0  0  0  0  0  0
  -23.9682  -21.0253   15.0056 C   0  0  0  0  0  0  0  0  0  0  0  0
  -21.0062  -26.4098   19.3046 C   0  0  0  0  0  0  0  0  0  0  0  0
  -18.2178  -31.4082   16.4991 C   0  0  0  0  0  0  0  0  0  0  0  0
  -24.8915  -20.4489   13.9216 C   0  0  0  0  0  0  0  0  0  0  0  0
  -30.1273  -12.3216   20.4538 C   0  0  0  0  0  0  0  0  0  0  0  0
  -18.6934  -30.1449   15.7887 C   0  0  0  0  0  0  0  0  0  0  0  0
  -28.6606  -12.0556   20.7931 C   0  0  0  0  0  0  0  0  0  0  0  0
  -28.0865  -17.8685   17.7505 C   0  0  0  0  0  0  0  0  0  0  0  0
  -26.7882  -16.0700   16.5339 C   0  0  0  0  0  0  0  0  0  0  0  0
  -30.3245  -12.4540   18.9479 C   0  0  0  0  0  0  0  0  0  0  0  0
  -29.3599  -17.0489   17.5556 C   0  0  0  0  0  0  0  0  0  0  0  0
  -28.0901  -15.2923   16.3649 C   0  0  0  0  0  0  0  0  0  0  0  0
  -28.0038  -13.2534   18.6488 C   0  0  0  0  0  0  0  0  0  0  0  0
  -27.0556  -17.5814   16.6453 C   0  0  0  0  0  0  0  0  0  0  0  0
  -17.6680  -29.0135   15.9297 C   0  0  1  0  0  0  0  0  0  0  0  0
  -18.5704  -26.9466   18.9870 C   0  0  1  0  0  0  0  0  0  0  0  0
  -27.7463  -13.1211   20.1632 C   0  0  1  0  0  0  0  0  0  0  0  0
  -22.9734  -28.9194   25.0470 C   0  0  0  0  0  0  0  0  0  0  0  0
  -21.8030  -30.2337   18.6616 C   0  0  0  0  0  0  0  0  0  0  0  0
  -23.2590  -30.5180   20.6784 C   0  0  0  0  0  0  0  0  0  0  0  0
  -20.8991  -31.3253   20.7221 C   0  0  0  0  0  0  0  0  0  0  0  0
  -20.9499  -25.7214   24.6547 C   0  0  0  0  0  0  0  0  0  0  0  0
  -22.1618  -20.6467   17.4800 C   0  0  0  0  0  0  0  0  0  1  0  0
  -21.3605  -28.8404   20.7898 C   0  0  1  0  0  0  0  0  0  0  0  0
  -21.8987  -28.0230   24.4520 C   0  0  2  0  0  0  0  0  0  0  0  0
  -21.8245  -30.2034   20.2029 C   0  0  0  0  0  0  0  0  0  0  0  0
  -25.8588  -11.5894   20.5802 N   0  0  0  0  0  0  0  0  0  0  0  0
  -26.2817  -12.8596   20.4624 N   0  0  0  0  0  0  0  0  0  0  0  0
  -19.8509  -27.2654   19.6218 N   0  0  0  0  0  0  0  0  0  0  0  0
  -29.4344  -13.4703   18.3871 N   0  0  0  0  0  0  0  0  0  0  0  0
  -29.0610  -15.6242   17.4165 N   0  0  0  0  0  0  0  0  0  0  0  0
  -25.5486  -15.1103   20.5505 N   0  0  0  0  0  0  0  0  0  0  0  0
  -21.7819  -12.7551   21.3637 N   0  0  0  0  0  0  0  0  0  0  0  0
  -17.7540  -28.4144   17.2443 N   0  0  0  0  0  0  0  0  0  0  0  0
  -21.3449  -28.7919   22.2478 N   0  0  0  0  0  0  0  0  0  0  0  0
  -21.9670  -26.6959   25.1266 N   0  3  0  0  0  0  0  0  0  0  0  0
  -22.6412  -14.8672   21.1200 O   0  0  0  0  0  0  0  0  0  0  0  0
  -19.4846  -26.9180   16.8102 O   0  0  0  0  0  0  0  0  0  0  0  0
  -19.0222  -29.2020   20.6212 O   0  0  0  0  0  0  0  0  0  0  0  0
  -22.8049  -27.0027   22.4583 O   0  0  0  0  0  0  0  0  0  0  0  0
  -31.1806  -14.9281   18.0037 O   0  0  0  0  0  0  0  0  0  0  0  0
  -21.3535   -7.2056   21.5967 O   0  0  0  0  0  0  0  0  0  0  0  0
  -22.5075  -21.9691   17.8762 O   0  0  0  0  0  0  0  0  0  1  0  0
  -23.3142   -3.1906   24.8277 F   0  0  0  0  0  0  0  0  0  0  0  0
  -19.9991   -6.4336   23.8797 F   0  0  0  0  0  0  0  0  0  0  0  0
  1  2  1  0  0  0  0
  1  5  2  0  0  0  0
  2  6  2  0  0  0  0
  3 10  2  0  0  0  0
  3 17  1  0  0  0  0
  4 11  1  0  0  0  0
  4 17  2  0  0  0  0
  5 19  1  0  0  0  0
  6 22  1  0  0  0  0
  7  9  2  0  0  0  0
  7 21  1  0  0  0  0
  8 12  2  0  0  0  0
  8 20  1  0  0  0  0
  9 26  1  0  0  0  0
 10 27  1  0  0  0  0
 11 27  2  0  0  0  0
 12 28  1  0  0  0  0
 13 14  2  0  0  0  0
 13 29  1  0  0  0  0
 14 30  1  0  0  0  0
 15 23  1  0  0  0  0
 15 28  2  0  0  0  0
 16 30  2  0  0  0  0
 16 31  1  0  0  0  0
 17 32  1  0  0  0  0
 18 32  1  0  0  0  0
 18 33  2  0  0  0  0
 18 34  1  0  0  0  0
 19 22  2  0  0  0  0
 19 39  1  0  0  0  0
 20 23  2  0  0  0  0
 20 40  1  0  0  0  0
 21 24  2  0  0  0  0
 21 55  1  0  0  0  0
 22 56  1  0  0  0  0
 23 43  1  0  0  0  0
 24 25  1  0  0  0  0
 24 41  1  0  0  0  0
 25 26  2  0  0  0  0
 25 42  1  0  0  0  0
 26 64  1  0  0  0  0
 27 83  1  0  0  0  0
 28 84  1  0  0  0  0
 29 31  2  0  0  0  0
 29 83  1  0  0  0  0
 30 85  1  0  0  0  0
 31 86  1  0  0  0  0
 32 68  2  0  0  0  0
 33 69  1  0  0  0  0
 33 73  1  0  0  0  0
 34 74  1  0  0  0  0
 34 78  2  0  0  0  0
 35 57  1  0  0  0  0
 35 75  1  0  0  0  0
 35 79  2  0  0  0  0
 36 65  1  0  0  0  0
 36 70  1  0  0  0  0
 36 80  2  0  0  0  0
 37 66  1  0  0  0  0
 37 76  1  0  0  0  0
 37 81  2  0  0  0  0
 38 71  1  0  0  0  0
 38 72  1  0  0  0  0
 38 82  2  0  0  0  0
 39 44  1  0  0  0  0
 40 57  1  0  0  0  0
 41 45  1  0  0  0  0
 42 45  1  0  0  0  0
 43 70  1  0  0  0  0
 44 47  1  0  0  0  0
 46 48  1  0  0  0  0
 46 51  1  0  0  0  0
 47 56  1  0  0  0  0
 48 58  1  0  0  0  0
 49 52  1  0  0  0  0
 49 55  1  0  0  0  0
 50 53  1  0  0  0  0
 50 55  1  0  0  0  0
 51 71  1  0  0  0  0
 52 72  1  0  0  0  0
 53 72  1  0  0  0  0
 54 58  1  0  0  0  0
 54 71  1  0  0  0  0
 56 75  1  0  0  0  0
 57 70  1  0  0  0  0
 58 69  1  0  0  0  0
 59 66  1  0  0  0  0
 60 67  1  0  0  0  0
 61 67  1  0  0  0  0
 62 67  1  0  0  0  0
 63 77  1  0  0  0  0
 64 84  1  0  0  0  0
 65 67  1  0  0  0  0
 65 76  1  0  0  0  0
 66 77  1  0  0  0  0
 68 69  1  0  0  0  0
M  CHG  1  77   1
M  ISO  4  38 100  64 101  72 100  84 101
M  END
> <Batch ID>
0168

> <Smiles>
CNC(C)C(=O)NC(C(=O)N1Cc2cc([101O:1][101CH2:1]c3ccc(C4CC[100N:0]([100C:0](=O)N5CCCC(n6nc(-c7ccc(Oc8ccc(F)cc8F)cc7)c(C(N)=O)c6N)C5)CC4)c4c3CCC4)ccc2CC1C(=O)NC1CCCc2ccccc21)C(C)(C)C

> <Shape>
0.191

> <Color>
0.200

> <Negative vol penalty>
0.000

$$$$

  -OEChem-04052322303D

 84 94  0     1  0  0  0  0  0999 V2000
  -26.5499  -23.4036   14.8616 C   0  0  0  0  0  0  0  0  0  0  0  0
  -25.6301  -23.6767   15.8691 C   0  0  0  0  0  0  0  0  0  0  0  0
  -27.4657  -12.7472   20.3419 C   0  0  0  0  0  0  0  0  0  0  0  0
  -25.2510  -13.6614   20.6525 C   0  0  0  0  0  0  0  0  0  0  0  0
  -27.9142  -23.5569   15.1046 C   0  0  0  0  0  0  0  0  0  0  0  0
  -26.0743  -24.1022   17.1205 C   0  0  0  0  0  0  0  0  0  0  0  0
  -21.9564  -21.1865   22.8327 C   0  0  0  0  0  0  0  0  0  0  0  0
  -23.3774  -27.9924   18.9199 C   0  0  0  0  0  0  0  0  0  0  0  0
  -20.5737  -21.3076   22.6941 C   0  0  0  0  0  0  0  0  0  0  0  0
  -27.0438  -11.5376   20.8936 C   0  0  0  0  0  0  0  0  0  0  0  0
  -24.8291  -12.4517   21.2041 C   0  0  0  0  0  0  0  0  0  0  0  0
  -22.1295  -27.7019   19.4696 C   0  0  0  0  0  0  0  0  0  0  0  0
  -23.0733   -9.4865   22.3630 C   0  0  0  0  0  0  0  0  0  0  0  0
  -21.8482   -8.9718   21.9390 C   0  0  0  0  0  0  0  0  0  0  0  0
  -22.2318  -23.4643   22.0757 C   0  0  0  0  0  0  0  0  0  0  0  0
  -23.0835  -27.8195   21.6821 C   0  0  0  0  0  0  0  0  0  0  0  0
  -22.6713   -8.8822   19.6693 C   0  0  0  0  0  0  0  0  0  0  0  0
  -26.5693  -13.8092   20.2214 C   0  0  0  0  0  0  0  0  0  0  0  0
  -26.9689  -15.4338   18.2956 C   0  0  0  0  0  0  0  0  0  0  0  0
  -22.7854  -22.2648   22.5235 C   0  0  0  0  0  0  0  0  0  0  0  0
  -28.3748  -23.9937   16.3567 C   0  0  0  0  0  0  0  0  0  0  0  0
  -24.4919  -28.1882   19.7481 C   0  0  0  0  0  0  0  0  0  0  0  0
  -27.4462  -24.2601   17.3809 C   0  0  0  0  0  0  0  0  0  0  0  0
  -20.8491  -23.5854   21.9371 C   0  0  0  0  0  0  0  0  0  0  0  0
  -24.3438  -28.1149   21.1405 C   0  0  0  0  0  0  0  0  0  0  0  0
  -20.0201  -22.5070   22.2463 C   0  0  0  0  0  0  0  0  0  0  0  0
  -25.7255  -11.3898   21.3247 C   0  0  0  0  0  0  0  0  0  0  0  0
  -21.9830  -27.6125   20.8507 C   0  0  0  0  0  0  0  0  0  0  0  0
  -24.0974   -9.6992   21.4401 C   0  0  0  0  0  0  0  0  0  0  0  0
  -21.6472   -8.6696   20.5922 C   0  0  0  0  0  0  0  0  0  0  0  0
  -23.8965   -9.3970   20.0933 C   0  0  0  0  0  0  0  0  0  0  0  0
  -27.0047  -15.0592   19.6522 C   0  0  0  0  0  0  0  0  0  0  0  0
  -27.4898  -16.7045   18.2765 C   0  0  0  0  0  0  0  0  0  0  0  0
  -26.5060  -14.6988   17.1549 C   0  0  0  0  0  0  0  0  0  0  0  0
  -27.2893  -26.7272   20.1271 C   0  0  0  0  0  0  0  0  0  0  0  0
  -27.8717  -29.2078   22.1345 C   0  0  0  0  0  0  0  0  0  0  0  0
  -26.6180  -31.6517   24.1599 C   0  0  0  0  0  0  0  0  0  0  0  0
  -27.4776  -21.4999   21.6518 C   0  0  0  0  0  0  0  0  0  0  0  0
  -29.8616  -24.0990   16.5869 C   0  0  0  0  0  0  0  0  0  0  0  0
  -25.8255  -28.5272   19.1407 C   0  0  0  0  0  0  0  0  0  0  0  0
  -25.5047  -28.3367   22.0742 C   0  0  0  0  0  0  0  0  0  0  0  0
  -30.2302  -24.9139   17.8240 C   0  0  0  0  0  0  0  0  0  0  0  0
  -30.3466  -19.3649   21.2733 C   0  0  0  0  0  0  0  0  0  0  0  0
  -29.3753  -24.4925   19.0150 C   0  0  0  0  0  0  0  0  0  0  0  0
  -29.7744  -18.0547   20.7423 C   0  0  0  0  0  0  0  0  0  0  0  0
  -19.2297  -25.5682   22.2864 C   0  0  0  0  0  0  0  0  0  0  0  0
  -29.3736  -20.0330   22.2357 C   0  0  0  0  0  0  0  0  0  0  0  0
  -25.0386  -20.7929   22.2933 C   0  0  0  0  0  0  0  0  0  0  0  0
  -25.2762  -22.7925   21.6309 C   0  0  0  0  0  0  0  0  0  0  0  0
  -27.4385  -19.0146   21.0643 C   0  0  0  0  0  0  0  0  0  0  0  0
  -24.3568  -22.1275   22.6810 C   0  0  0  0  0  0  0  0  0  0  0  0
  -20.2788  -24.8783   21.4554 C   0  0  1  0  0  0  0  0  0  0  0  0
  -27.8877  -24.7475   18.7439 C   0  0  1  0  0  0  0  0  0  0  0  0
  -27.0001  -28.2000   20.0574 C   0  0  1  0  0  0  0  0  0  0  0  0
  -28.3994  -18.2901   20.1009 C   0  0  2  0  0  0  0  0  0  0  0  0
  -20.6098  -26.1450   22.2034 C   0  0  1  0  0  0  0  0  0  1  0  0
  -18.5368  -22.6107   22.1052 C   0  0  0  0  0  0  0  0  0  0  0  0
  -27.3403  -33.4987   25.6976 C   0  0  0  0  0  0  0  0  0  0  0  0
  -28.5740  -27.1488   24.2739 C   0  0  0  0  0  0  0  0  0  0  0  0
  -28.3551  -28.9592   25.9892 C   0  0  0  0  0  0  0  0  0  0  0  0
  -30.0879  -29.1381   24.2037 C   0  0  0  0  0  0  0  0  0  0  0  0
  -25.2836  -33.7096   22.5036 C   0  0  0  0  0  0  0  0  0  0  0  0
  -27.6535  -29.4666   23.6057 C   0  0  1  0  0  0  0  0  0  0  0  0
  -26.9449  -33.1296   24.2763 C   0  0  2  0  0  0  0  0  0  0  0  0
  -28.6460  -28.6720   24.5007 C   0  0  0  0  0  0  0  0  0  0  0  0
  -27.5087  -16.0146   20.4378 N   0  0  0  0  0  0  0  0  0  0  0  0
  -27.7944  -17.0021   19.5722 N   0  0  0  0  0  0  0  0  0  0  0  0
  -26.7895  -28.6593   21.4318 N   0  0  0  0  0  0  0  0  0  0  0  0
  -28.0484  -20.2224   21.6378 N   0  0  0  0  0  0  0  0  0  0  0  0
  -26.1086  -21.6000   21.7322 N   0  0  0  0  0  0  0  0  0  0  0  0
  -27.7125  -17.5852   17.2778 N   0  0  0  0  0  0  0  0  0  0  0  0
  -26.0011  -13.4064   17.3526 N   0  0  0  0  0  0  0  0  0  0  0  0
  -27.5782  -26.1520   18.9043 N   0  0  0  0  0  0  0  0  0  0  0  0
  -27.7189  -30.9136   23.7798 N   0  0  0  0  0  0  0  0  0  0  0  0
  -25.7652  -33.9532   23.8877 N   0  3  0  0  0  0  0  0  0  0  0  0
  -26.5544  -15.1679   15.9925 O   0  0  0  0  0  0  0  0  0  0  0  0
  -27.2544  -26.1552   21.2104 O   0  0  0  0  0  0  0  0  0  0  0  0
  -28.9598  -29.4889   21.6259 O   0  0  0  0  0  0  0  0  0  0  0  0
  -25.4991  -31.1971   24.3874 O   0  0  0  0  0  0  0  0  0  0  0  0
  -28.1709  -22.5254   21.6235 O   0  0  0  0  0  0  0  0  0  0  0  0
  -25.3134  -10.2095   21.8628 O   0  0  0  0  0  0  0  0  0  0  0  0
  -20.7521  -27.3252   21.3961 O   0  0  0  0  0  0  0  0  0  1  0  0
  -20.4712   -8.1739   20.1854 F   0  0  0  0  0  0  0  0  0  0  0  0
  -24.8770   -9.5980   19.2023 F   0  0  0  0  0  0  0  0  0  0  0  0
  1  2  1  0  0  0  0
  1  5  2  0  0  0  0
  2  6  2  0  0  0  0
  3 10  2  0  0  0  0
  3 18  1  0  0  0  0
  4 11  1  0  0  0  0
  4 18  2  0  0  0  0
  5 21  1  0  0  0  0
  6 23  1  0  0  0  0
  7  9  2  0  0  0  0
  7 20  1  0  0  0  0
  8 12  2  0  0  0  0
  8 22  1  0  0  0  0
  9 26  1  0  0  0  0
 10 27  1  0  0  0  0
 11 27  2  0  0  0  0
 12 28  1  0  0  0  0
 13 14  2  0  0  0  0
 13 29  1  0  0  0  0
 14 30  1  0  0  0  0
 15 20  2  0  0  0  0
 15 24  1  0  0  0  0
 16 25  1  0  0  0  0
 16 28  2  0  0  0  0
 17 30  2  0  0  0  0
 17 31  1  0  0  0  0
 18 32  1  0  0  0  0
 19 32  1  0  0  0  0
 19 33  2  0  0  0  0
 19 34  1  0  0  0  0
 20 51  1  0  0  0  0
 21 23  2  0  0  0  0
 21 39  1  0  0  0  0
 22 25  2  0  0  0  0
 22 40  1  0  0  0  0
 23 53  1  0  0  0  0
 24 26  2  0  0  0  0
 24 52  1  0  0  0  0
 25 41  1  0  0  0  0
 26 57  1  0  0  0  0
 27 81  1  0  0  0  0
 28 82  1  0  0  0  0
 29 31  2  0  0  0  0
 29 81  1  0  0  0  0
 30 83  1  0  0  0  0
 31 84  1  0  0  0  0
 32 66  2  0  0  0  0
 33 67  1  0  0  0  0
 33 71  1  0  0  0  0
 34 72  1  0  0  0  0
 34 76  2  0  0  0  0
 35 54  1  0  0  0  0
 35 73  1  0  0  0  0
 35 77  2  0  0  0  0
 36 63  1  0  0  0  0
 36 68  1  0  0  0  0
 36 78  2  0  0  0  0
 37 64  1  0  0  0  0
 37 74  1  0  0  0  0
 37 79  2  0  0  0  0
 38 69  1  0  0  0  0
 38 70  1  0  0  0  0
 38 80  2  0  0  0  0
 39 42  1  0  0  0  0
 40 54  1  0  0  0  0
 41 68  1  0  0  0  0
 42 44  1  0  0  0  0
 43 45  1  0  0  0  0
 43 47  1  0  0  0  0
 44 53  1  0  0  0  0
 45 55  1  0  0  0  0
 46 52  1  0  0  0  0
 46 56  1  0  0  0  0
 47 69  1  0  0  0  0
 48 51  1  0  0  0  0
 48 70  1  0  0  0  0
 49 51  1  0  0  0  0
 49 70  1  0  0  0  0
 50 55  1  0  0  0  0
 50 69  1  0  0  0  0
 52 56  1  0  0  0  0
 53 73  1  0  0  0  0
 54 68  1  0  0  0  0
 55 67  1  0  0  0  0
 56 82  1  0  0  0  0
 58 64  1  0  0  0  0
 59 65  1  0  0  0  0
 60 65  1  0  0  0  0
 61 65  1  0  0  0  0
 62 75  1  0  0  0  0
 63 65  1  0  0  0  0
 63 74  1  0  0  0  0
 64 75  1  0  0  0  0
 66 67  1  0  0  0  0
M  CHG  1  75   1
M  ISO  4  38 100  56 101  70 100  82 101
M  END
> <Batch ID>
0168

> <Smiles>
CNC(C)C(=O)NC(C(=O)N1Cc2cc([101O:1][101CH:1]3CC3c3cc(C4C[100N:0]([100C:0](=O)N5CCCC(n6nc(-c7ccc(Oc8ccc(F)cc8F)cc7)c(C(N)=O)c6N)C5)C4)ccc3C)ccc2CC1C(=O)NC1CCCc2ccccc21)C(C)(C)C

> <Shape>
0.248

> <Color>
0.058

> <Negative vol penalty>
0.000

$$$$

  -OEChem-04052322303D

 90 99  0     1  0  0  0  0  0999 V2000
  -17.1392  -30.7487   23.5825 C   0  0  0  0  0  0  0  0  0  0  0  0
  -18.4680  -31.1188   23.4021 C   0  0  0  0  0  0  0  0  0  0  0  0
  -25.5582  -13.0851   19.5503 C   0  0  0  0  0  0  0  0  0  0  0  0
  -26.4515  -13.5429   21.7480 C   0  0  0  0  0  0  0  0  0  0  0  0
  -16.7798  -29.4022   23.5400 C   0  0  0  0  0  0  0  0  0  0  0  0
  -19.4385  -30.1424   23.1801 C   0  0  0  0  0  0  0  0  0  0  0  0
  -25.5900  -29.0829   19.6653 C   0  0  0  0  0  0  0  0  0  0  0  0
  -25.2584  -11.7810   19.9438 C   0  0  0  0  0  0  0  0  0  0  0  0
  -26.1516  -12.2387   22.1415 C   0  0  0  0  0  0  0  0  0  0  0  0
  -26.8955  -28.6464   19.8866 C   0  0  0  0  0  0  0  0  0  0  0  0
  -23.9285   -8.4406   20.4806 C   0  0  0  0  0  0  0  0  0  0  0  0
  -22.6776   -7.9300   20.1342 C   0  0  0  0  0  0  0  0  0  0  0  0
  -26.1460  -26.3573   19.7545 C   0  0  0  0  0  0  0  0  0  0  0  0
  -21.6091   -9.6967   21.3890 C   0  0  0  0  0  0  0  0  0  0  0  0
  -26.1548  -13.9661   20.4524 C   0  0  0  0  0  0  0  0  0  0  0  0
  -28.7312  -21.7596   21.2727 C   0  0  0  0  0  0  0  0  0  0  0  0
  -27.3195  -15.7104   19.0003 C   0  0  0  0  0  0  0  0  0  0  0  0
  -17.7449  -28.4096   23.3077 C   0  0  0  0  0  0  0  0  0  0  0  0
  -24.5491  -28.1584   19.4976 C   0  0  0  0  0  0  0  0  0  0  0  0
  -19.0919  -28.7813   23.1357 C   0  0  0  0  0  0  0  0  0  0  0  0
  -24.8286  -26.7847   19.5287 C   0  0  0  0  0  0  0  0  0  0  0  0
  -29.8263  -21.4699   22.0866 C   0  0  0  0  0  0  0  0  0  0  0  0
  -28.9106  -21.9446   19.9019 C   0  0  0  0  0  0  0  0  0  0  0  0
  -31.1009  -21.3651   21.5296 C   0  0  0  0  0  0  0  0  0  0  0  0
  -31.2803  -21.5501   20.1588 C   0  0  0  0  0  0  0  0  0  0  0  0
  -30.1852  -21.8399   19.3449 C   0  0  0  0  0  0  0  0  0  0  0  0
  -25.5551  -11.3577   21.2393 C   0  0  0  0  0  0  0  0  0  0  0  0
  -27.1732  -27.2834   19.9340 C   0  0  0  0  0  0  0  0  0  0  0  0
  -24.0198   -9.5791   21.2813 C   0  0  0  0  0  0  0  0  0  0  0  0
  -21.5179   -8.5581   20.5884 C   0  0  0  0  0  0  0  0  0  0  0  0
  -22.8601  -10.2072   21.7355 C   0  0  0  0  0  0  0  0  0  0  0  0
  -26.4652  -15.3133   20.0464 C   0  0  0  0  0  0  0  0  0  0  0  0
  -27.2758  -17.0830   19.0235 C   0  0  0  0  0  0  0  0  0  0  0  0
  -27.3902  -21.8735   21.8604 C   0  0  0  0  0  0  0  0  0  0  0  0
  -28.0841  -14.9100   18.0889 C   0  0  0  0  0  0  0  0  0  0  0  0
  -21.8692  -27.4880   21.0701 C   0  0  0  0  0  0  0  0  0  0  0  0
  -21.3612  -25.4884   18.5669 C   0  0  0  0  0  0  0  0  0  0  0  0
  -22.6828  -23.6419   16.0192 C   0  0  0  0  0  0  0  0  0  0  0  0
  -17.3160  -26.9637   23.3174 C   0  0  0  0  0  0  0  0  0  0  0  0
  -23.1508  -28.6454   19.2332 C   0  0  0  0  0  0  0  0  0  0  0  0
  -23.7502  -25.7514   19.3344 C   0  0  0  0  0  0  0  0  0  0  0  0
  -18.3461  -26.0187   22.7042 C   0  0  0  0  0  0  0  0  0  0  0  0
  -24.2281  -20.2521   21.5226 C   0  0  0  0  0  0  0  0  0  0  0  0
  -19.7404  -26.3289   23.2395 C   0  0  0  0  0  0  0  0  0  0  0  0
  -24.5965  -18.8476   21.0410 C   0  0  0  0  0  0  0  0  0  0  0  0
  -29.5620  -22.0762   16.0975 C   0  0  0  0  0  0  0  0  0  0  0  0
  -25.2597  -20.7993   22.5060 C   0  0  0  0  0  0  0  0  0  0  0  0
  -30.3140  -21.0465   16.9460 C   0  0  0  0  0  0  0  0  0  0  0  0
  -27.0233  -19.3734   21.5255 C   0  0  0  0  0  0  0  0  0  0  0  0
  -20.1697  -27.7533   22.8679 C   0  0  1  0  0  0  0  0  0  0  0  0
  -22.0824  -27.6159   19.5882 C   0  0  1  0  0  0  0  0  0  0  0  0
  -26.0354  -18.8053   20.4933 C   0  0  1  0  0  0  0  0  0  0  0  0
  -29.9702  -23.1198   17.1524 C   0  0  2  0  0  0  0  0  0  0  0  0
  -29.6384  -21.2707   23.5581 C   0  0  0  0  0  0  0  0  0  0  0  0
  -27.7355  -22.2561   19.0271 C   0  0  0  0  0  0  0  0  0  0  0  0
  -32.2754  -21.0554   22.4036 C   0  0  0  0  0  0  0  0  0  0  0  0
  -32.6494  -21.4362   19.5639 C   0  0  0  0  0  0  0  0  0  0  0  0
  -22.0215  -22.0832   14.1671 C   0  0  0  0  0  0  0  0  0  0  0  0
  -30.8129  -24.7763   15.4628 C   0  0  0  0  0  0  0  0  0  0  0  0
  -20.9557  -23.2492   20.5995 C   0  0  0  0  0  0  0  0  0  0  0  0
  -21.2486  -21.6009   18.7379 C   0  0  0  0  0  0  0  0  0  0  0  0
  -19.3516  -23.2198   18.6811 C   0  0  0  0  0  0  0  0  0  0  0  0
  -23.7618  -25.4595   13.9477 C   0  0  0  0  0  0  0  0  0  0  0  0
  -30.7230  -26.8500   19.3760 C   0  0  0  0  0  0  0  0  0  0  0  0
  -31.5176  -24.9989   17.8993 C   0  0  0  0  0  0  0  0  0  0  0  0
  -29.5024  -27.6942   19.6852 C   0  0  0  0  0  0  0  0  0  1  0  0
  -21.7024  -24.0500   18.2613 C   0  0  1  0  0  0  0  0  0  0  0  0
  -22.3002  -23.5271   14.5547 C   0  0  2  0  0  0  0  0  0  0  0  0
  -31.1281  -24.0419   16.7670 C   0  0  1  0  0  0  0  0  0  0  0  0
  -20.8348  -23.0492   19.0755 C   0  0  0  0  0  0  0  0  0  0  0  0
  -25.9189  -16.3498   20.6876 N   0  0  0  0  0  0  0  0  0  0  0  0
  -26.4312  -17.4118   20.0427 N   0  0  0  0  0  0  0  0  0  0  0  0
  -30.3643  -22.0240   17.9798 N   0  0  1  0  0  0  0  0  0  0  0  0
  -26.6061  -20.7201   21.9408 N   0  0  0  0  0  0  0  0  0  0  0  0
  -22.3979  -26.2774   19.0851 N   0  0  0  0  0  0  0  0  0  0  0  0
  -27.8780  -18.0286   18.2715 N   0  0  0  0  0  0  0  0  0  0  0  0
  -29.3914  -14.5540   18.4473 N   0  0  0  0  0  0  0  0  0  0  0  0
  -20.5908  -27.8095   21.4844 N   0  0  0  0  0  0  0  0  0  0  0  0
  -21.5868  -23.9015   16.8146 N   0  0  0  0  0  0  0  0  0  0  0  0
  -23.3996  -24.0419   13.6902 N   0  3  0  0  0  0  0  0  0  0  0  0
  -30.3849  -25.8708   18.3124 N   0  3  0  0  0  0  0  0  0  0  0  0
  -27.0527  -22.9969   22.2308 O   0  0  0  0  0  0  0  0  0  0  0  0
  -27.6275  -14.5359   16.9821 O   0  0  0  0  0  0  0  0  0  0  0  0
  -22.7956  -27.1231   21.7844 O   0  0  0  0  0  0  0  0  0  0  0  0
  -20.2189  -25.8988   18.3470 O   0  0  0  0  0  0  0  0  0  0  0  0
  -23.8378  -23.5106   16.4182 O   0  0  0  0  0  0  0  0  0  0  0  0
  -25.2625  -10.0853   21.6237 O   0  0  0  0  0  0  0  0  0  0  0  0
  -28.4464  -26.8546   20.1504 O   0  0  0  0  0  0  0  0  0  1  0  0
  -20.3166   -8.0686   20.2544 F   0  0  0  0  0  0  0  0  0  0  0  0
  -22.9415  -11.3020   22.5040 F   0  0  0  0  0  0  0  0  0  0  0  0
  1  2  1  0  0  0  0
  1  5  2  0  0  0  0
  2  6  2  0  0  0  0
  3  8  2  0  0  0  0
  3 15  1  0  0  0  0
  4  9  1  0  0  0  0
  4 15  2  0  0  0  0
  5 18  1  0  0  0  0
  6 20  1  0  0  0  0
  7 10  2  0  0  0  0
  7 19  1  0  0  0  0
  8 27  1  0  0  0  0
  9 27  2  0  0  0  0
 10 28  1  0  0  0  0
 11 12  2  0  0  0  0
 11 29  1  0  0  0  0
 12 30  1  0  0  0  0
 13 21  1  0  0  0  0
 13 28  2  0  0  0  0
 14 30  2  0  0  0  0
 14 31  1  0  0  0  0
 15 32  1  0  0  0  0
 16 22  2  0  0  0  0
 16 23  1  0  0  0  0
 16 34  1  0  0  0  0
 17 32  1  0  0  0  0
 17 33  2  0  0  0  0
 17 35  1  0  0  0  0
 18 20  2  0  0  0  0
 18 39  1  0  0  0  0
 19 21  2  0  0  0  0
 19 40  1  0  0  0  0
 20 50  1  0  0  0  0
 21 41  1  0  0  0  0
 22 24  1  0  0  0  0
 22 54  1  0  0  0  0
 23 26  2  0  0  0  0
 23 55  1  0  0  0  0
 24 25  2  0  0  0  0
 24 56  1  0  0  0  0
 25 26  1  0  0  0  0
 25 57  1  0  0  0  0
 26 73  1  0  0  0  0
 27 87  1  0  0  0  0
 28 88  1  0  0  0  0
 29 31  2  0  0  0  0
 29 87  1  0  0  0  0
 30 89  1  0  0  0  0
 31 90  1  0  0  0  0
 32 71  2  0  0  0  0
 33 72  1  0  0  0  0
 33 76  1  0  0  0  0
 34 74  1  0  0  0  0
 34 82  2  0  0  0  0
 35 77  1  0  0  0  0
 35 83  2  0  0  0  0
 36 51  1  0  0  0  0
 36 78  1  0  0  0  0
 36 84  2  0  0  0  0
 37 67  1  0  0  0  0
 37 75  1  0  0  0  0
 37 85  2  0  0  0  0
 38 68  1  0  0  0  0
 38 79  1  0  0  0  0
 38 86  2  0  0  0  0
 39 42  1  0  0  0  0
 40 51  1  0  0  0  0
 41 75  1  0  0  0  0
 42 44  1  0  0  0  0
 43 45  1  0  0  0  0
 43 47  1  0  0  0  0
 44 50  1  0  0  0  0
 45 52  1  0  0  0  0
 46 48  1  0  0  0  0
 46 53  1  0  0  0  0
 47 74  1  0  0  0  0
 48 73  1  0  0  0  0
 49 52  1  0  0  0  0
 49 74  1  0  0  0  0
 50 78  1  0  0  0  0
 51 75  1  0  0  0  0
 52 72  1  0  0  0  0
 53 69  1  0  0  0  0
 53 73  1  0  0  0  0
 58 68  1  0  0  0  0
 59 69  1  0  0  0  0
 60 70  1  0  0  0  0
 61 70  1  0  0  0  0
 62 70  1  0  0  0  0
 63 80  1  0  0  0  0
 64 66  1  0  0  0  0
 64 81  1  0  0  0  0
 65 69  1  0  0  0  0
 65 81  1  0  0  0  0
 66 88  1  0  0  0  0
 67 70  1  0  0  0  0
 67 79  1  0  0  0  0
 68 80  1  0  0  0  0
 71 72  1  0  0  0  0
M  CHG  2  80   1  81   1
M  ISO  4  16 100  34 100  66 101  88 101
M  END
> <Batch ID>
0168

> <Smiles>
CNC(C)C(=O)NC(C(=O)N1Cc2cc([101O:1][101CH2:1]CNCC(C)C3CCN3c3c(C)c(C)c(C)[100c:0]([100C:0](=O)N4CCCC(n5nc(-c6ccc(Oc7ccc(F)cc7F)cc6)c(C(N)=O)c5N)C4)c3C)ccc2CC1C(=O)NC1CCCc2ccccc21)C(C)(C)C

> <Shape>
0.252

> <Color>
0.087

> <Negative vol penalty>
0.000

$$$$

  -OEChem-04052322303D

 88 97  0     1  0  0  0  0  0999 V2000
  -29.0168  -32.4435   25.1575 C   0  0  0  0  0  0  0  0  0  0  0  0
  -28.5407  -31.1773   25.4821 C   0  0  0  0  0  0  0  0  0  0  0  0
  -22.9991   -9.9829   19.9048 C   0  0  0  0  0  0  0  0  0  0  0  0
  -23.8939   -9.7647   22.1383 C   0  0  0  0  0  0  0  0  0  0  0  0
  -28.2334  -33.3065   24.3923 C   0  0  0  0  0  0  0  0  0  0  0  0
  -27.2804  -30.7736   25.0426 C   0  0  0  0  0  0  0  0  0  0  0  0
  -27.2885  -26.0640   23.1812 C   0  0  0  0  0  0  0  0  0  0  0  0
  -22.2446   -8.8251   20.0939 C   0  0  0  0  0  0  0  0  0  0  0  0
  -23.1394   -8.6069   22.3275 C   0  0  0  0  0  0  0  0  0  0  0  0
  -27.2955  -25.0160   24.1007 C   0  0  0  0  0  0  0  0  0  0  0  0
  -19.9350   -7.8146   23.0518 C   0  0  0  0  0  0  0  0  0  0  0  0
  -19.2483   -7.6803   24.2584 C   0  0  0  0  0  0  0  0  0  0  0  0
  -24.9193  -24.7376   23.7924 C   0  0  0  0  0  0  0  0  0  0  0  0
  -20.4857   -5.6613   24.7379 C   0  0  0  0  0  0  0  0  0  0  0  0
  -23.8238  -10.4527   20.9270 C   0  0  0  0  0  0  0  0  0  0  0  0
  -24.2169  -12.9717   21.0166 C   0  0  0  0  0  0  0  0  0  0  0  0
  -26.9669  -32.9097   23.9350 C   0  0  0  0  0  0  0  0  0  0  0  0
  -26.0929  -26.4645   22.5676 C   0  0  0  0  0  0  0  0  0  0  0  0
  -26.4788  -31.6326   24.2717 C   0  0  0  0  0  0  0  0  0  0  0  0
  -24.9002  -25.7893   22.8636 C   0  0  0  0  0  0  0  0  0  0  0  0
  -30.0326  -19.1587   24.6742 C   0  0  0  0  0  0  0  0  0  0  0  0
  -28.6638  -18.8700   24.7763 C   0  0  0  0  0  0  0  0  0  0  0  0
  -30.8164  -18.4295   23.7747 C   0  0  0  0  0  0  0  0  0  0  0  0
  -22.3148   -8.1371   21.3053 C   0  0  0  0  0  0  0  0  0  0  0  0
  -26.1103  -24.3545   24.4086 C   0  0  0  0  0  0  0  0  0  0  0  0
  -20.8970   -6.8722   22.6882 C   0  0  0  0  0  0  0  0  0  0  0  0
  -19.5236   -6.6037   25.1015 C   0  0  0  0  0  0  0  0  0  0  0  0
  -21.1724   -5.7956   23.5312 C   0  0  0  0  0  0  0  0  0  0  0  0
  -24.6038  -11.6484   20.7320 C   0  0  0  0  0  0  0  0  0  0  0  0
  -28.1555  -17.8721   23.9460 C   0  0  0  0  0  0  0  0  0  0  0  0
  -30.2041  -17.4572   23.0009 C   0  0  0  0  0  0  0  0  0  0  0  0
  -25.3027  -13.7319   20.6567 C   0  0  0  0  0  0  0  0  0  0  0  0
  -22.9859  -13.4692   21.5579 C   0  0  0  0  0  0  0  0  0  0  0  0
  -24.3811  -29.1425   22.5247 C   0  0  0  0  0  0  0  0  0  0  0  0
  -22.6304  -27.5273   20.3227 C   0  0  0  0  0  0  0  0  0  0  0  0
  -21.6451  -24.5207   19.0435 C   0  0  0  0  0  0  0  0  0  0  0  0
  -30.8103  -14.6312   20.6003 C   0  0  0  0  0  0  0  0  0  0  0  0
  -26.1368  -33.8947   23.1506 C   0  0  0  0  0  0  0  0  0  0  0  0
  -26.1067  -27.5793   21.5579 C   0  0  0  0  0  0  0  0  0  0  0  0
  -30.6925  -20.1873   25.5573 C   0  0  0  0  0  0  0  0  0  0  0  0
  -23.5934  -26.1674   22.2171 C   0  0  0  0  0  0  0  0  0  0  0  0
  -24.9683  -33.2514   22.4082 C   0  0  0  0  0  0  0  0  0  0  0  0
  -29.7050  -21.1515   26.2129 C   0  0  0  0  0  0  0  0  0  0  0  0
  -29.4773  -12.4978   18.0807 C   0  0  0  0  0  0  0  0  0  0  0  0
  -24.2170  -32.2913   23.3249 C   0  0  0  0  0  0  0  0  0  0  0  0
  -28.5187  -20.3890   26.7949 C   0  0  0  0  0  0  0  0  0  0  0  0
  -28.0617  -12.1911   18.5724 C   0  0  0  0  0  0  0  0  0  0  0  0
  -30.4691  -12.5905   19.2381 C   0  0  0  0  0  0  0  0  0  0  0  0
  -28.6708  -13.2243   20.7996 C   0  0  0  0  0  0  0  0  0  0  0  0
  -25.1272  -31.1492   23.7926 C   0  0  1  0  0  0  0  0  0  0  0  0
  -27.7518  -19.6245   25.7083 C   0  0  1  0  0  0  0  0  0  0  0  0
  -24.7435  -28.2404   21.3790 C   0  0  1  0  0  0  0  0  0  0  0  0
  -27.6246  -13.1765   19.6729 C   0  0  2  0  0  0  0  0  0  0  0  0
  -32.2820  -18.6832   23.6309 C   0  0  0  0  0  0  0  0  0  0  0  0
  -26.7333  -17.4259   24.0117 C   0  0  0  0  0  0  0  0  0  0  0  0
  -20.1794  -23.5199   17.2694 C   0  0  0  0  0  0  0  0  0  0  0  0
  -24.6305  -19.8638   25.5326 C   0  0  0  0  0  0  0  0  0  0  0  0
  -20.1670  -28.1395   22.0159 C   0  0  0  0  0  0  0  0  0  0  0  0
  -18.9407  -26.3618   20.7494 C   0  0  0  0  0  0  0  0  0  0  0  0
  -19.8197  -28.3643   19.5494 C   0  0  0  0  0  0  0  0  0  0  0  0
  -23.9462  -23.2192   17.7132 C   0  0  0  0  0  0  0  0  0  0  0  0
  -30.9998  -16.6570   22.0214 C   0  0  0  0  0  0  0  0  0  0  0  0
  -25.1398  -22.3050   25.1252 C   0  0  0  0  0  0  0  0  0  1  0  0
  -21.4369  -26.6043   20.3738 C   0  0  1  0  0  0  0  0  0  0  0  0
  -21.5778  -24.0065   17.6168 C   0  0  2  0  0  0  0  0  0  0  0  0
  -25.6442  -20.9846   25.6964 C   0  0  2  0  0  0  0  0  0  0  0  0
  -20.1152  -27.3614   20.6859 C   0  0  0  0  0  0  0  0  0  0  0  0
  -25.8390  -11.5690   20.2300 N   0  0  0  0  0  0  0  0  0  0  0  0
  -28.8897  -17.1596   23.0628 N   0  0  0  0  0  0  0  0  0  0  0  0
  -26.2375  -12.8520   20.1961 N   0  0  0  0  0  0  0  0  0  0  0  0
  -23.6575  -27.2679   21.2412 N   0  0  0  0  0  0  0  0  0  0  0  0
  -29.9964  -13.5425   20.2461 N   0  0  0  0  0  0  0  0  0  0  0  0
  -25.5395  -15.0605   20.6924 N   0  0  0  0  0  0  0  0  0  0  0  0
  -21.9749  -12.5510   21.8724 N   0  0  0  0  0  0  0  0  0  0  0  0
  -25.2840  -30.1656   22.7425 N   0  0  0  0  0  0  0  0  0  0  0  0
  -21.4261  -25.8806   19.1071 N   0  0  0  0  0  0  0  0  0  0  0  0
  -30.2841  -15.4889   21.5585 N   0  0  0  0  0  0  0  0  0  0  0  0
  -26.8871  -20.5977   24.9679 N   0  3  0  0  0  0  0  0  0  0  0  0
  -22.5293  -22.8751   17.4286 N   0  3  0  0  0  0  0  0  0  0  0  0
  -22.7824  -14.6933   21.7414 O   0  0  0  0  0  0  0  0  0  0  0  0
  -23.3573  -28.9272   23.1627 O   0  0  0  0  0  0  0  0  0  0  0  0
  -22.6538  -28.4403   19.4936 O   0  0  0  0  0  0  0  0  0  0  0  0
  -21.8659  -23.7887   20.0057 O   0  0  0  0  0  0  0  0  0  0  0  0
  -31.9210  -14.8275   20.0957 O   0  0  0  0  0  0  0  0  0  0  0  0
  -21.5785   -7.0074   21.4903 O   0  0  0  0  0  0  0  0  0  0  0  0
  -26.1142  -23.3317   25.3061 O   0  0  0  0  0  0  0  0  0  1  0  0
  -18.8652   -6.4757   26.2609 F   0  0  0  0  0  0  0  0  0  0  0  0
  -22.0963   -4.8878   23.1878 F   0  0  0  0  0  0  0  0  0  0  0  0
  1  2  1  0  0  0  0
  1  5  2  0  0  0  0
  2  6  2  0  0  0  0
  3  8  2  0  0  0  0
  3 15  1  0  0  0  0
  4  9  1  0  0  0  0
  4 15  2  0  0  0  0
  5 17  1  0  0  0  0
  6 19  1  0  0  0  0
  7 10  2  0  0  0  0
  7 18  1  0  0  0  0
  8 24  1  0  0  0  0
  9 24  2  0  0  0  0
 10 25  1  0  0  0  0
 11 12  2  0  0  0  0
 11 26  1  0  0  0  0
 12 27  1  0  0  0  0
 13 20  1  0  0  0  0
 13 25  2  0  0  0  0
 14 27  2  0  0  0  0
 14 28  1  0  0  0  0
 15 29  1  0  0  0  0
 16 29  1  0  0  0  0
 16 32  2  0  0  0  0
 16 33  1  0  0  0  0
 17 19  2  0  0  0  0
 17 38  1  0  0  0  0
 18 20  2  0  0  0  0
 18 39  1  0  0  0  0
 19 50  1  0  0  0  0
 20 41  1  0  0  0  0
 21 22  2  0  0  0  0
 21 23  1  0  0  0  0
 21 40  1  0  0  0  0
 22 30  1  0  0  0  0
 22 51  1  0  0  0  0
 23 31  2  0  0  0  0
 23 54  1  0  0  0  0
 24 85  1  0  0  0  0
 25 86  1  0  0  0  0
 26 28  2  0  0  0  0
 26 85  1  0  0  0  0
 27 87  1  0  0  0  0
 28 88  1  0  0  0  0
 29 68  2  0  0  0  0
 30 55  1  0  0  0  0
 30 69  2  0  0  0  0
 31 62  1  0  0  0  0
 31 69  1  0  0  0  0
 32 70  1  0  0  0  0
 32 73  1  0  0  0  0
 33 74  1  0  0  0  0
 33 80  2  0  0  0  0
 34 52  1  0  0  0  0
 34 75  1  0  0  0  0
 34 81  2  0  0  0  0
 35 64  1  0  0  0  0
 35 71  1  0  0  0  0
 35 82  2  0  0  0  0
 36 65  1  0  0  0  0
 36 76  1  0  0  0  0
 36 83  2  0  0  0  0
 37 72  1  0  0  0  0
 37 77  1  0  0  0  0
 37 84  2  0  0  0  0
 38 42  1  0  0  0  0
 39 52  1  0  0  0  0
 40 43  1  0  0  0  0
 41 71  1  0  0  0  0
 42 45  1  0  0  0  0
 43 46  1  0  0  0  0
 44 47  1  0  0  0  0
 44 48  1  0  0  0  0
 45 50  1  0  0  0  0
 46 51  1  0  0  0  0
 47 53  1  0  0  0  0
 48 72  1  0  0  0  0
 49 53  1  0  0  0  0
 49 72  1  0  0  0  0
 50 75  1  0  0  0  0
 51 78  1  0  0  0  0
 52 71  1  0  0  0  0
 53 70  1  0  0  0  0
 56 65  1  0  0  0  0
 57 66  1  0  0  0  0
 58 67  1  0  0  0  0
 59 67  1  0  0  0  0
 60 67  1  0  0  0  0
 61 79  1  0  0  0  0
 62 77  1  0  0  0  0
 63 66  1  0  0  0  0
 63 86  1  0  0  0  0
 64 67  1  0  0  0  0
 64 76  1  0  0  0  0
 65 79  1  0  0  0  0
 66 78  1  0  0  0  0
 68 70  1  0  0  0  0
M  CHG  2  78   1  79   1
M  ISO  4  37 100  63 101  77 100  86 101
M  END
> <Batch ID>
0168

> <Smiles>
CNC(C)C(=O)NC(C(=O)N1Cc2cc([101O:1][101CH2:1]C(C)NC3CCCc4c(C)c(C[100NH:0][100C:0](=O)N5CCCC(n6nc(-c7ccc(Oc8ccc(F)cc8F)cc7)c(C(N)=O)c6N)C5)nc(C)c43)ccc2CC1C(=O)NC1CCCc2ccccc21)C(C)(C)C

> <Shape>
0.275

> <Color>
0.200

> <Negative vol penalty>
0.000

$$$$

  -OEChem-04052322303D

 88 98  0     1  0  0  0  0  0999 V2000
  -17.8745  -25.1518   21.2862 C   0  0  0  0  0  0  0  0  0  0  0  0
  -19.2112  -25.0332   20.9196 C   0  0  0  0  0  0  0  0  0  0  0  0
  -23.1939  -12.7866   19.8855 C   0  0  0  0  0  0  0  0  0  0  0  0
  -23.8363  -12.9061   22.2114 C   0  0  0  0  0  0  0  0  0  0  0  0
  -17.4592  -26.2324   22.0633 C   0  0  0  0  0  0  0  0  0  0  0  0
  -20.1334  -25.9957   21.3289 C   0  0  0  0  0  0  0  0  0  0  0  0
  -24.4332  -23.9552   23.0589 C   0  0  0  0  0  0  0  0  0  0  0  0
  -22.6996  -11.4981   20.0881 C   0  0  0  0  0  0  0  0  0  0  0  0
  -23.3420  -11.6176   22.4141 C   0  0  0  0  0  0  0  0  0  0  0  0
  -25.3458  -23.4944   22.1109 C   0  0  0  0  0  0  0  0  0  0  0  0
  -19.9259  -10.0708   21.3929 C   0  0  0  0  0  0  0  0  0  0  0  0
  -18.6802   -9.7612   20.8473 C   0  0  0  0  0  0  0  0  0  0  0  0
  -30.5067  -21.7951   18.8186 C   0  0  0  0  0  0  0  0  0  0  0  0
  -27.8639  -21.9829   17.9663 C   0  0  0  0  0  0  0  0  0  0  0  0
  -26.6331  -25.5173   22.3759 C   0  0  0  0  0  0  0  0  0  0  0  0
  -19.6927   -8.0063   19.5311 C   0  0  0  0  0  0  0  0  0  0  0  0
  -23.7623  -13.4906   20.9471 C   0  0  0  0  0  0  0  0  0  0  0  0
  -23.5694  -16.0332   20.8706 C   0  0  0  0  0  0  0  0  0  0  0  0
  -18.3785  -27.2035   22.4905 C   0  0  0  0  0  0  0  0  0  0  0  0
  -24.6081  -25.2073   23.6655 C   0  0  0  0  0  0  0  0  0  0  0  0
  -19.7298  -27.0910   22.1113 C   0  0  0  0  0  0  0  0  0  0  0  0
  -30.1996  -21.5535   17.4704 C   0  0  0  0  0  0  0  0  0  0  0  0
  -28.8661  -21.6655   17.0362 C   0  0  0  0  0  0  0  0  0  0  0  0
  -25.7227  -25.9905   23.3331 C   0  0  0  0  0  0  0  0  0  0  0  0
  -29.5027  -22.1192   19.7304 C   0  0  0  0  0  0  0  0  0  0  0  0
  -28.1813  -22.2110   19.3047 C   0  0  0  0  0  0  0  0  0  0  0  0
  -22.7736  -10.9136   21.3525 C   0  0  0  0  0  0  0  0  0  0  0  0
  -26.4444  -24.2767   21.7672 C   0  0  0  0  0  0  0  0  0  0  0  0
  -21.0552   -9.3483   21.0075 C   0  0  0  0  0  0  0  0  0  0  0  0
  -18.5635   -8.7289   19.9165 C   0  0  0  0  0  0  0  0  0  0  0  0
  -20.9386   -8.3161   20.0767 C   0  0  0  0  0  0  0  0  0  0  0  0
  -24.2736  -14.8214   20.7382 C   0  0  0  0  0  0  0  0  0  0  0  0
  -24.4937  -17.0025   20.5664 C   0  0  0  0  0  0  0  0  0  0  0  0
  -22.2020  -16.2621   21.2360 C   0  0  0  0  0  0  0  0  0  0  0  0
  -22.9354  -27.9087   23.7571 C   0  0  0  0  0  0  0  0  0  0  0  0
  -25.2168  -28.7922   25.8871 C   0  0  0  0  0  0  0  0  0  0  0  0
  -28.3925  -28.3828   27.0676 C   0  0  0  0  0  0  0  0  0  0  0  0
  -29.3597  -16.7712   17.1907 C   0  0  0  0  0  0  0  0  0  0  0  0
  -17.8740  -28.3789   23.2895 C   0  0  0  0  0  0  0  0  0  0  0  0
  -23.6291  -25.6782   24.7058 C   0  0  0  0  0  0  0  0  0  0  0  0
  -28.4712  -21.3923   15.6068 C   0  0  0  0  0  0  0  0  0  0  0  0
  -31.3248  -21.2386   16.5134 C   0  0  0  0  0  0  0  0  0  0  0  0
  -25.9668  -27.3332   23.9703 C   0  0  0  0  0  0  0  0  0  0  0  0
  -18.9819  -29.1556   23.9963 C   0  0  0  0  0  0  0  0  0  0  0  0
  -29.6507  -21.4151   14.6343 C   0  0  0  0  0  0  0  0  0  0  0  0
  -29.1712  -17.8991   20.6738 C   0  0  0  0  0  0  0  0  0  0  0  0
  -20.1431  -29.4166   23.0421 C   0  0  0  0  0  0  0  0  0  0  0  0
  -27.8432  -17.2878   21.1079 C   0  0  0  0  0  0  0  0  0  0  0  0
  -32.3067  -15.8479   15.8708 C   0  0  0  0  0  0  0  0  0  0  0  0
  -29.9153  -17.0196   19.6683 C   0  0  0  0  0  0  0  0  0  0  0  0
  -31.8573  -16.0086   17.3263 C   0  0  0  0  0  0  0  0  0  0  0  0
  -27.7638  -16.0339   18.9249 C   0  0  0  0  0  0  0  0  0  0  0  0
  -20.7645  -28.1015   22.5566 C   0  0  1  0  0  0  0  0  0  0  0  0
  -23.6279  -27.1935   24.8826 C   0  0  1  0  0  0  0  0  0  0  0  0
  -26.9830  -16.9449   19.8825 C   0  0  1  0  0  0  0  0  0  0  0  0
  -30.8670  -20.6672   15.1708 C   0  0  2  0  0  0  0  0  0  0  0  0
  -31.2487  -16.8886   15.4735 C   0  0  2  0  0  0  0  0  0  0  0  0
  -29.8701  -22.3622   21.1574 C   0  0  0  0  0  0  0  0  0  0  0  0
  -29.9836  -29.2743   28.7913 C   0  0  0  0  0  0  0  0  0  0  0  0
  -25.6761  -31.2758   24.1750 C   0  0  0  0  0  0  0  0  0  0  0  0
  -27.8480  -31.6149   25.3733 C   0  0  0  0  0  0  0  0  0  0  0  0
  -25.7011  -31.6896   26.6413 C   0  0  0  0  0  0  0  0  0  0  0  0
  -28.6132  -25.7471   28.3955 C   0  0  0  0  0  0  0  0  0  0  0  0
  -27.0867  -22.5509   20.2623 C   0  0  0  0  0  0  0  0  0  1  0  0
  -31.7124  -18.3175   15.2700 C   0  0  0  0  0  0  0  0  0  0  0  0
  -26.5627  -29.4694   25.7927 C   0  0  1  0  0  0  0  0  0  0  0  0
  -28.9300  -28.2233   28.4783 C   0  0  2  0  0  0  0  0  0  0  0  0
  -26.4416  -30.9880   25.4819 C   0  0  0  0  0  0  0  0  0  0  0  0
  -25.5470  -15.0018   20.3778 N   0  0  0  0  0  0  0  0  0  0  0  0
  -25.6502  -16.3383   20.2810 N   0  0  0  0  0  0  0  0  0  0  0  0
  -24.9779  -27.7526   24.9771 N   0  0  0  0  0  0  0  0  0  0  0  0
  -29.0554  -16.6200   18.5480 N   0  0  0  0  0  0  0  0  0  0  0  0
  -30.6806  -16.6919   16.8091 N   0  0  0  0  0  0  0  0  0  0  0  0
  -24.4218  -18.3497   20.5178 N   0  0  0  0  0  0  0  0  0  0  0  0
  -21.3908  -15.1540   21.5162 N   0  0  0  0  0  0  0  0  0  0  0  0
  -21.6163  -27.5365   23.5812 N   0  0  0  0  0  0  0  0  0  0  0  0
  -27.2595  -29.1681   27.0385 N   0  0  0  0  0  0  0  0  0  0  0  0
  -30.5413  -19.2212   15.3344 N   0  3  0  0  0  0  0  0  0  0  0  0
  -29.5445  -26.8764   28.6493 N   0  3  0  0  0  0  0  0  0  0  0  0
  -21.7096  -17.4142   21.2959 O   0  0  0  0  0  0  0  0  0  0  0  0
  -23.5517  -28.7378   23.0981 O   0  0  0  0  0  0  0  0  0  0  0  0
  -24.4099  -29.1670   26.7415 O   0  0  0  0  0  0  0  0  0  0  0  0
  -28.9267  -27.8658   26.0889 O   0  0  0  0  0  0  0  0  0  0  0  0
  -28.4782  -16.9412   16.3381 O   0  0  0  0  0  0  0  0  0  0  0  0
  -22.2912   -9.6564   21.5507 O   0  0  0  0  0  0  0  0  0  0  0  0
  -27.3427  -23.8265   20.8351 O   0  0  0  0  0  0  0  0  0  1  0  0
  -17.3668   -8.4306   19.3938 F   0  0  0  0  0  0  0  0  0  0  0  0
  -22.0196   -7.6176   19.7035 F   0  0  0  0  0  0  0  0  0  0  0  0
  1  2  1  0  0  0  0
  1  5  2  0  0  0  0
  2  6  2  0  0  0  0
  3  8  2  0  0  0  0
  3 17  1  0  0  0  0
  4  9  1  0  0  0  0
  4 17  2  0  0  0  0
  5 19  1  0  0  0  0
  6 21  1  0  0  0  0
  7 10  2  0  0  0  0
  7 20  1  0  0  0  0
  8 27  1  0  0  0  0
  9 27  2  0  0  0  0
 10 28  1  0  0  0  0
 11 12  2  0  0  0  0
 11 29  1  0  0  0  0
 12 30  1  0  0  0  0
 13 22  2  0  0  0  0
 13 25  1  0  0  0  0
 14 23  2  0  0  0  0
 14 26  1  0  0  0  0
 15 24  1  0  0  0  0
 15 28  2  0  0  0  0
 16 30  2  0  0  0  0
 16 31  1  0  0  0  0
 17 32  1  0  0  0  0
 18 32  1  0  0  0  0
 18 33  2  0  0  0  0
 18 34  1  0  0  0  0
 19 21  2  0  0  0  0
 19 39  1  0  0  0  0
 20 24  2  0  0  0  0
 20 40  1  0  0  0  0
 21 53  1  0  0  0  0
 22 23  1  0  0  0  0
 22 42  1  0  0  0  0
 23 41  1  0  0  0  0
 24 43  1  0  0  0  0
 25 26  2  0  0  0  0
 25 58  1  0  0  0  0
 26 64  1  0  0  0  0
 27 85  1  0  0  0  0
 28 86  1  0  0  0  0
 29 31  2  0  0  0  0
 29 85  1  0  0  0  0
 30 87  1  0  0  0  0
 31 88  1  0  0  0  0
 32 69  2  0  0  0  0
 33 70  1  0  0  0  0
 33 74  1  0  0  0  0
 34 75  1  0  0  0  0
 34 80  2  0  0  0  0
 35 54  1  0  0  0  0
 35 76  1  0  0  0  0
 35 81  2  0  0  0  0
 36 66  1  0  0  0  0
 36 71  1  0  0  0  0
 36 82  2  0  0  0  0
 37 67  1  0  0  0  0
 37 77  1  0  0  0  0
 37 83  2  0  0  0  0
 38 72  1  0  0  0  0
 38 73  1  0  0  0  0
 38 84  2  0  0  0  0
 39 44  1  0  0  0  0
 40 54  1  0  0  0  0
 41 45  1  0  0  0  0
 42 56  1  0  0  0  0
 43 71  1  0  0  0  0
 44 47  1  0  0  0  0
 45 56  1  0  0  0  0
 46 48  1  0  0  0  0
 46 50  1  0  0  0  0
 47 53  1  0  0  0  0
 48 55  1  0  0  0  0
 49 51  1  0  0  0  0
 49 57  1  0  0  0  0
 50 72  1  0  0  0  0
 51 73  1  0  0  0  0
 52 55  1  0  0  0  0
 52 72  1  0  0  0  0
 53 76  1  0  0  0  0
 54 71  1  0  0  0  0
 55 70  1  0  0  0  0
 56 78  1  0  0  0  0
 57 65  1  0  0  0  0
 57 73  1  0  0  0  0
 59 67  1  0  0  0  0
 60 68  1  0  0  0  0
 61 68  1  0  0  0  0
 62 68  1  0  0  0  0
 63 79  1  0  0  0  0
 64 86  1  0  0  0  0
 65 78  1  0  0  0  0
 66 68  1  0  0  0  0
 66 77  1  0  0  0  0
 67 79  1  0  0  0  0
 69 70  1  0  0  0  0
M  CHG  2  78   1  79   1
M  ISO  4  38 100  64 101  73 100  86 101
M  END
> <Batch ID>
0168

> <Smiles>
CNC(C)C(=O)NC(C(=O)N1Cc2cc([101O:1][101CH2:1]c3cc4c(cc3C)CC(NCC3CC[100N:0]3[100C:0](=O)N3CCCC(n5nc(-c6ccc(Oc7ccc(F)cc7F)cc6)c(C(N)=O)c5N)C3)CC4)ccc2CC1C(=O)NC1CCCc2ccccc21)C(C)(C)C

> <Shape>
0.200

> <Color>
0.066

> <Negative vol penalty>
0.000

$$$$

  -OEChem-04052322303D

 88 97  0     1  0  0  0  0  0999 V2000
  -29.2947  -24.2709   17.6359 C   0  0  0  0  0  0  0  0  0  0  0  0
  -28.0349  -24.4356   18.2028 C   0  0  0  0  0  0  0  0  0  0  0  0
  -24.5533   -9.0552   20.9446 C   0  0  0  0  0  0  0  0  0  0  0  0
  -22.5451   -9.9796   19.9702 C   0  0  0  0  0  0  0  0  0  0  0  0
  -30.4029  -24.8921   18.2102 C   0  0  0  0  0  0  0  0  0  0  0  0
  -27.8829  -25.2209   19.3451 C   0  0  0  0  0  0  0  0  0  0  0  0
  -23.9037  -28.3386   19.0438 C   0  0  0  0  0  0  0  0  0  0  0  0
  -23.8139   -7.9895   21.4577 C   0  0  0  0  0  0  0  0  0  0  0  0
  -21.8056   -8.9138   20.4832 C   0  0  0  0  0  0  0  0  0  0  0  0
  -22.6433  -27.7854   19.2651 C   0  0  0  0  0  0  0  0  0  0  0  0
  -21.7472   -7.4221   24.0713 C   0  0  0  0  0  0  0  0  0  0  0  0
  -21.9832   -7.0478   25.3941 C   0  0  0  0  0  0  0  0  0  0  0  0
  -22.6718  -28.6383   21.5214 C   0  0  0  0  0  0  0  0  0  0  0  0
  -22.6297   -4.8406   24.6542 C   0  0  0  0  0  0  0  0  0  0  0  0
  -23.9189  -10.0503   20.2009 C   0  0  0  0  0  0  0  0  0  0  0  0
  -25.3206  -11.2188   18.4184 C   0  0  0  0  0  0  0  0  0  0  0  0
  -30.2629  -25.6932   19.3545 C   0  0  0  0  0  0  0  0  0  0  0  0
  -24.5635  -29.0376   20.0648 C   0  0  0  0  0  0  0  0  0  0  0  0
  -28.9905  -25.8523   19.9360 C   0  0  0  0  0  0  0  0  0  0  0  0
  -23.9394  -29.2016   21.3097 C   0  0  0  0  0  0  0  0  0  0  0  0
  -22.4401   -7.9188   21.2269 C   0  0  0  0  0  0  0  0  0  0  0  0
  -22.0283  -27.9327   20.5050 C   0  0  0  0  0  0  0  0  0  0  0  0
  -21.9523   -6.5056   23.0399 C   0  0  0  0  0  0  0  0  0  0  0  0
  -22.4245   -5.7571   25.6856 C   0  0  0  0  0  0  0  0  0  0  0  0
  -22.3936   -5.2148   23.3314 C   0  0  0  0  0  0  0  0  0  0  0  0
  -24.6820  -11.1517   19.6712 C   0  0  0  0  0  0  0  0  0  0  0  0
  -25.9029  -12.4625   18.3960 C   0  0  0  0  0  0  0  0  0  0  0  0
  -25.3818  -10.2441   17.3687 C   0  0  0  0  0  0  0  0  0  0  0  0
  -27.2849  -28.6408   21.6587 C   0  0  0  0  0  0  0  0  0  0  0  0
  -26.5128  -31.5273   22.9213 C   0  0  0  0  0  0  0  0  0  0  0  0
  -24.0847  -33.8041   23.6748 C   0  0  0  0  0  0  0  0  0  0  0  0
  -24.6709  -17.5009   20.9305 C   0  0  0  0  0  0  0  0  0  0  0  0
  -31.4973  -26.3061   19.9670 C   0  0  0  0  0  0  0  0  0  0  0  0
  -25.9113  -29.6512   19.8017 C   0  0  0  0  0  0  0  0  0  0  0  0
  -24.5967  -29.9604   22.4325 C   0  0  0  0  0  0  0  0  0  0  0  0
  -31.1933  -27.4258   20.9590 C   0  0  0  0  0  0  0  0  0  0  0  0
  -27.7269  -15.8081   21.2715 C   0  0  0  0  0  0  0  0  0  0  0  0
  -30.0840  -27.0036   21.9171 C   0  0  0  0  0  0  0  0  0  0  0  0
  -27.3534  -14.4089   20.7863 C   0  0  0  0  0  0  0  0  0  0  0  0
  -24.6285  -20.0565   23.7785 C   0  0  0  0  0  0  0  0  0  0  0  0
  -23.6495  -23.2761   21.0025 C   0  0  0  0  0  0  0  0  0  0  0  0
  -26.6243  -16.4387   22.1251 C   0  0  0  0  0  0  0  0  0  0  0  0
  -25.1575  -18.8278   23.0427 C   0  0  0  0  0  0  0  0  0  0  0  0
  -24.9239  -15.0433   20.9871 C   0  0  0  0  0  0  0  0  0  0  0  0
  -24.6928  -19.9728   20.8565 C   0  0  0  0  0  0  0  0  0  0  0  0
  -23.1752  -20.3961   23.4962 C   0  0  0  0  0  0  0  0  0  0  0  0
  -22.2708  -23.6643   20.4825 C   0  0  0  0  0  0  0  0  0  0  0  0
  -21.4292  -23.8802   22.8411 C   0  0  0  0  0  0  0  0  0  0  0  0
  -28.7814  -26.7164   21.1606 C   0  0  1  0  0  0  0  0  0  0  0  0
  -26.7127  -29.9018   21.0754 C   0  0  1  0  0  0  0  0  0  0  0  0
  -22.8102  -23.4948   23.3822 C   0  0  2  0  0  0  0  0  0  0  0  0
  -25.9909  -14.4235   20.0732 C   0  0  2  0  0  0  0  0  0  0  0  0
  -23.6065  -22.6297   22.3885 C   0  0  1  0  0  0  0  0  0  0  0  0
  -23.2910  -20.5990   20.9220 C   0  0  1  0  0  0  0  0  0  0  0  0
  -22.6747  -22.8470   24.7621 C   0  0  0  0  0  0  0  0  0  0  0  0
  -22.1403  -19.6588   20.5639 C   0  0  0  0  0  0  0  0  0  0  0  0
  -23.7547  -36.0529   24.7385 C   0  0  0  0  0  0  0  0  0  0  0  0
  -19.2760  -26.4755   19.0899 C   0  0  0  0  0  0  0  0  0  0  0  0
  -26.8381  -30.2671   25.6810 C   0  0  0  0  0  0  0  0  0  0  0  0
  -25.6020  -32.2207   26.6421 C   0  0  0  0  0  0  0  0  0  0  0  0
  -27.7759  -32.5760   25.4714 C   0  0  0  0  0  0  0  0  0  0  0  0
  -23.0130  -34.9604   21.1702 C   0  0  0  0  0  0  0  0  0  0  0  0
  -20.2661  -25.0601   20.9768 C   0  0  0  0  0  0  0  0  0  0  0  0
  -25.7208  -31.9929   24.1192 C   0  0  1  0  0  0  0  0  0  0  0  0
  -23.9998  -35.3013   23.4393 C   0  0  2  0  0  0  0  0  0  0  0  0
  -20.4721  -26.2084   19.9943 C   0  0  2  0  0  0  0  0  0  1  0  0
  -26.4724  -31.7482   25.4581 C   0  0  0  0  0  0  0  0  0  0  0  0
  -24.8435  -12.2642   20.3925 N   0  0  0  0  0  0  0  0  0  0  0  0
  -25.5902  -13.0421   19.5904 N   0  0  0  0  0  0  0  0  0  0  0  0
  -25.9170  -30.5365   22.1282 N   0  0  0  0  0  0  0  0  0  0  0  0
  -25.3254  -16.3742   21.4460 N   0  0  0  0  0  0  0  0  0  0  0  0
  -24.8605  -18.7273   21.6089 N   0  0  0  0  0  0  0  0  0  0  0  0
  -26.6469  -13.1060   17.4714 N   0  0  0  0  0  0  0  0  0  0  0  0
  -24.7279   -9.0186   17.5559 N   0  0  0  0  0  0  0  0  0  0  0  0
  -28.1225  -27.9538   20.8009 N   0  0  0  0  0  0  0  0  0  0  0  0
  -25.3857  -33.3906   23.8689 N   0  0  0  0  0  0  0  0  0  0  0  0
  -21.5829  -24.5483   21.4941 N   0  3  2  0  0  0  0  0  0  0  0  0
  -22.9995  -21.2512   22.2630 N   0  3  1  0  0  0  0  0  0  0  0  0
  -22.8880  -35.6153   22.4978 N   0  3  0  0  0  0  0  0  0  0  0  0
  -26.0120  -10.4472   16.3033 O   0  0  0  0  0  0  0  0  0  0  0  0
  -26.9895  -28.3161   22.8028 O   0  0  0  0  0  0  0  0  0  0  0  0
  -27.6162  -32.0296   22.6935 O   0  0  0  0  0  0  0  0  0  0  0  0
  -23.0955  -33.0749   23.6892 O   0  0  0  0  0  0  0  0  0  0  0  0
  -23.9300  -17.4021   19.9441 O   0  0  0  0  0  0  0  0  0  0  0  0
  -21.7183   -6.8789   21.7271 O   0  0  0  0  0  0  0  0  0  0  0  0
  -20.7912  -27.3901   20.7251 O   0  0  0  0  0  0  0  0  0  1  0  0
  -22.6526   -5.3982   26.9558 F   0  0  0  0  0  0  0  0  0  0  0  0
  -22.5935   -4.3304   22.3447 F   0  0  0  0  0  0  0  0  0  0  0  0
  1  2  1  0  0  0  0
  1  5  2  0  0  0  0
  2  6  2  0  0  0  0
  3  8  2  0  0  0  0
  3 15  1  0  0  0  0
  4  9  1  0  0  0  0
  4 15  2  0  0  0  0
  5 17  1  0  0  0  0
  6 19  1  0  0  0  0
  7 10  2  0  0  0  0
  7 18  1  0  0  0  0
  8 21  1  0  0  0  0
  9 21  2  0  0  0  0
 10 22  1  0  0  0  0
 11 12  2  0  0  0  0
 11 23  1  0  0  0  0
 12 24  1  0  0  0  0
 13 20  1  0  0  0  0
 13 22  2  0  0  0  0
 14 24  2  0  0  0  0
 14 25  1  0  0  0  0
 15 26  1  0  0  0  0
 16 26  1  0  0  0  0
 16 27  2  0  0  0  0
 16 28  1  0  0  0  0
 17 19  2  0  0  0  0
 17 33  1  0  0  0  0
 18 20  2  0  0  0  0
 18 34  1  0  0  0  0
 19 49  1  0  0  0  0
 20 35  1  0  0  0  0
 21 85  1  0  0  0  0
 22 86  1  0  0  0  0
 23 25  2  0  0  0  0
 23 85  1  0  0  0  0
 24 87  1  0  0  0  0
 25 88  1  0  0  0  0
 26 68  2  0  0  0  0
 27 69  1  0  0  0  0
 27 73  1  0  0  0  0
 28 74  1  0  0  0  0
 28 80  2  0  0  0  0
 29 50  1  0  0  0  0
 29 75  1  0  0  0  0
 29 81  2  0  0  0  0
 30 64  1  0  0  0  0
 30 70  1  0  0  0  0
 30 82  2  0  0  0  0
 31 65  1  0  0  0  0
 31 76  1  0  0  0  0
 31 83  2  0  0  0  0
 32 71  1  0  0  0  0
 32 72  1  0  0  0  0
 32 84  2  0  0  0  0
 33 36  1  0  0  0  0
 34 50  1  0  0  0  0
 35 70  1  0  0  0  0
 36 38  1  0  0  0  0
 37 39  1  0  0  0  0
 37 42  1  0  0  0  0
 38 49  1  0  0  0  0
 39 52  1  0  0  0  0
 40 43  1  0  0  0  0
 40 46  1  0  0  0  0
 41 47  1  0  0  0  0
 41 53  1  0  0  0  0
 42 71  1  0  0  0  0
 43 72  1  0  0  0  0
 44 52  1  0  0  0  0
 44 71  1  0  0  0  0
 45 54  1  0  0  0  0
 45 72  1  0  0  0  0
 46 78  1  0  0  0  0
 47 77  1  0  0  0  0
 48 51  1  0  0  0  0
 48 77  1  0  0  0  0
 49 75  1  0  0  0  0
 50 70  1  0  0  0  0
 51 53  1  0  0  0  0
 51 55  1  0  0  0  0
 52 69  1  0  0  0  0
 53 78  1  0  0  0  0
 54 56  1  0  0  0  0
 54 78  1  0  0  0  0
 57 65  1  0  0  0  0
 58 66  1  0  0  0  0
 59 67  1  0  0  0  0
 60 67  1  0  0  0  0
 61 67  1  0  0  0  0
 62 79  1  0  0  0  0
 63 66  1  0  0  0  0
 63 77  1  0  0  0  0
 64 67  1  0  0  0  0
 64 76  1  0  0  0  0
 65 79  1  0  0  0  0
 66 86  1  0  0  0  0
 68 69  1  0  0  0  0
M  CHG  3  77   1  78   1  79   1
M  ISO  4  32 100  66 101  72 100  86 101
M  END
> <Batch ID>
0168

> <Smiles>
CNC(C)C(=O)NC(C(=O)N1Cc2cc([101O:1][101CH:1](C)CN3CCC(N4CCC[100N:0]([100C:0](=O)N5CCCC(n6nc(-c7ccc(Oc8ccc(F)cc8F)cc7)c(C(N)=O)c6N)C5)CC4C)C(C)C3)ccc2CC1C(=O)NC1CCCc2ccccc21)C(C)(C)C

> <Shape>
0.291

> <Color>
0.086

> <Negative vol penalty>
0.000

$$$$

  -OEChem-04052322303D

 89 98  0     1  0  0  0  0  0999 V2000
  -31.2615  -30.4677   27.0400 C   0  0  0  0  0  0  0  0  0  0  0  0
  -31.0653  -29.7973   25.8369 C   0  0  0  0  0  0  0  0  0  0  0  0
  -24.4023   -9.3097   21.5884 C   0  0  0  0  0  0  0  0  0  0  0  0
  -24.5587  -10.6878   23.5666 C   0  0  0  0  0  0  0  0  0  0  0  0
  -30.1803  -30.7096   27.8864 C   0  0  0  0  0  0  0  0  0  0  0  0
  -29.7877  -29.3675   25.4799 C   0  0  0  0  0  0  0  0  0  0  0  0
  -27.4287  -29.1255   19.8335 C   0  0  0  0  0  0  0  0  0  0  0  0
  -31.3214  -18.3572   19.2554 C   0  0  0  0  0  0  0  0  0  0  0  0
  -24.1029   -8.2031   22.3829 C   0  0  0  0  0  0  0  0  0  0  0  0
  -24.2592   -9.5812   24.3612 C   0  0  0  0  0  0  0  0  0  0  0  0
  -27.2852  -28.0813   18.9208 C   0  0  0  0  0  0  0  0  0  0  0  0
  -30.8487  -19.6158   18.8839 C   0  0  0  0  0  0  0  0  0  0  0  0
  -21.4121   -6.9592   24.0093 C   0  0  0  0  0  0  0  0  0  0  0  0
  -20.3640   -6.1337   23.6025 C   0  0  0  0  0  0  0  0  0  0  0  0
  -25.0235  -27.7330   19.6842 C   0  0  0  0  0  0  0  0  0  0  0  0
  -31.4143  -20.4737   21.0705 C   0  0  0  0  0  0  0  0  0  0  0  0
  -21.8907   -4.2667   23.4576 C   0  0  0  0  0  0  0  0  0  0  0  0
  -24.6303  -10.5521   22.1802 C   0  0  0  0  0  0  0  0  0  0  0  0
  -24.0296  -12.6089   20.7959 C   0  0  0  0  0  0  0  0  0  0  0  0
  -28.8872  -30.2910   27.5351 C   0  0  0  0  0  0  0  0  0  0  0  0
  -26.3726  -29.4747   20.6873 C   0  0  0  0  0  0  0  0  0  0  0  0
  -28.6883  -29.6028   26.3230 C   0  0  0  0  0  0  0  0  0  0  0  0
  -25.1553  -28.7836   20.6050 C   0  0  0  0  0  0  0  0  0  0  0  0
  -31.8405  -18.1568   20.5346 C   0  0  0  0  0  0  0  0  0  0  0  0
  -31.8870  -19.2151   21.4420 C   0  0  0  0  0  0  0  0  0  0  0  0
  -24.0313   -8.3388   23.7693 C   0  0  0  0  0  0  0  0  0  0  0  0
  -26.0835  -27.3830   18.8481 C   0  0  0  0  0  0  0  0  0  0  0  0
  -30.8952  -20.6741   19.7914 C   0  0  0  0  0  0  0  0  0  0  0  0
  -22.6996   -6.4385   24.1402 C   0  0  0  0  0  0  0  0  0  0  0  0
  -20.6032   -4.7874   23.3267 C   0  0  0  0  0  0  0  0  0  0  0  0
  -22.9388   -5.0923   23.8644 C   0  0  0  0  0  0  0  0  0  0  0  0
  -24.9402  -11.6955   21.3600 C   0  0  0  0  0  0  0  0  0  0  0  0
  -24.8180  -13.5021   20.1125 C   0  0  0  0  0  0  0  0  0  0  0  0
  -22.5989  -12.6468   20.8821 C   0  0  0  0  0  0  0  0  0  0  0  0
  -25.9550  -29.5153   23.8382 C   0  0  0  0  0  0  0  0  0  0  0  0
  -23.1364  -30.9168   23.0549 C   0  0  0  0  0  0  0  0  0  0  0  0
  -20.6940  -31.4067   20.7222 C   0  0  0  0  0  0  0  0  0  0  0  0
  -30.4179  -15.1854   20.8711 C   0  0  0  0  0  0  0  0  0  0  0  0
  -27.7573  -30.5335   28.5043 C   0  0  0  0  0  0  0  0  0  0  0  0
  -26.5343  -30.6209   21.6477 C   0  0  0  0  0  0  0  0  0  0  0  0
  -23.9841  -29.1326   21.4854 C   0  0  0  0  0  0  0  0  0  0  0  0
  -26.3738  -30.3760   27.8786 C   0  0  0  0  0  0  0  0  0  0  0  0
  -29.0144  -13.8114   17.8326 C   0  0  0  0  0  0  0  0  0  0  0  0
  -26.3069  -29.1001   27.0453 C   0  0  0  0  0  0  0  0  0  0  0  0
  -27.7127  -13.1979   18.3514 C   0  0  0  0  0  0  0  0  0  0  0  0
  -28.9834  -22.4659   17.5979 C   0  0  0  0  0  0  0  0  0  0  0  0
  -28.3253  -22.9541   19.9764 C   0  0  0  0  0  0  0  0  0  0  0  0
  -30.1489  -13.6356   18.8381 C   0  0  0  0  0  0  0  0  0  0  0  0
  -28.5567  -13.5598   20.7162 C   0  0  0  0  0  0  0  0  0  0  0  0
  -27.5462  -22.6934   17.1563 C   0  0  0  0  0  0  0  0  0  0  0  0
  -26.8896  -23.1807   19.5294 C   0  0  0  0  0  0  0  0  0  0  0  0
  -27.3134  -29.1428   25.8892 C   0  0  1  0  0  0  0  0  0  0  0  0
  -25.5666  -30.5549   22.8253 C   0  0  1  0  0  0  0  0  0  0  0  0
  -27.3655  -13.7265   19.7556 C   0  0  2  0  0  0  0  0  0  0  0  0
  -29.0618  -21.9931   19.0465 C   0  0  0  0  0  0  0  0  0  0  0  0
  -32.4373  -19.0240   22.8171 C   0  0  0  0  0  0  0  0  0  0  0  0
  -33.8318  -16.6102   20.5997 C   0  0  0  0  0  0  0  0  0  0  0  0
  -18.4962  -32.5704   20.3858 C   0  0  0  0  0  0  0  0  0  0  0  0
  -21.7504  -28.7795   24.7344 C   0  0  0  0  0  0  0  0  0  0  0  0
  -19.5976  -29.3940   23.6137 C   0  0  0  0  0  0  0  0  0  0  0  0
  -20.8097  -31.0822   24.9933 C   0  0  0  0  0  0  0  0  0  0  0  0
  -21.7694  -33.0462   18.5054 C   0  0  0  0  0  0  0  0  0  0  0  0
  -25.4921  -24.0218   17.6427 C   0  0  0  0  0  0  0  0  0  0  0  0
  -25.0539  -25.3052   18.3201 C   0  0  0  0  0  0  0  0  0  1  0  0
  -32.3406  -16.8005   20.9093 C   0  0  2  0  0  0  0  0  0  0  0  0
  -21.7462  -30.4195   22.7403 C   0  0  1  0  0  0  0  0  0  0  0  0
  -20.0062  -32.6688   20.2338 C   0  0  2  0  0  0  0  0  0  0  0  0
  -20.9985  -29.9107   24.0051 C   0  0  0  0  0  0  0  0  0  0  0  0
  -26.2100  -11.9819   21.0608 N   0  0  0  0  0  0  0  0  0  0  0  0
  -26.1029  -13.0853   20.3011 N   0  0  0  0  0  0  0  0  0  0  0  0
  -24.1936  -30.2569   22.4125 N   0  0  0  0  0  0  0  0  0  0  0  0
  -29.7609  -14.1766   20.1488 N   0  0  0  0  0  0  0  0  0  0  0  0
  -24.5307  -14.5953   19.3745 N   0  0  0  0  0  0  0  0  0  0  0  0
  -21.9478  -11.6527   21.6252 N   0  0  0  0  0  0  0  0  0  0  0  0
  -26.8155  -29.9765   24.8161 N   0  0  0  0  0  0  0  0  0  0  0  0
  -21.0705  -31.5094   22.0447 N   0  0  0  0  0  0  0  0  0  0  0  0
  -31.5501  -15.7272   20.2719 N   0  0  0  0  0  0  0  0  0  0  0  0
  -26.8809  -23.6685   18.0995 N   0  3  0  0  0  0  0  0  0  0  0  0
  -20.3193  -32.9061   18.7962 N   0  3  0  0  0  0  0  0  0  0  0  0
  -21.9170  -13.5263   20.3033 O   0  0  0  0  0  0  0  0  0  0  0  0
  -25.5061  -28.3792   23.7405 O   0  0  0  0  0  0  0  0  0  0  0  0
  -23.2787  -31.8608   23.8361 O   0  0  0  0  0  0  0  0  0  0  0  0
  -20.8755  -30.4263   20.0036 O   0  0  0  0  0  0  0  0  0  0  0  0
  -30.0251  -15.5855   21.9725 O   0  0  0  0  0  0  0  0  0  0  0  0
  -23.7389   -7.2592   24.5449 O   0  0  0  0  0  0  0  0  0  0  0  0
  -30.4305  -21.9100   19.4267 O   0  0  0  0  0  0  0  0  0  0  0  0
  -25.9409  -26.3630   17.9586 O   0  0  0  0  0  0  0  0  0  1  0  0
  -19.5963   -3.9944   22.9375 F   0  0  0  0  0  0  0  0  0  0  0  0
  -24.1733   -4.5861   23.9895 F   0  0  0  0  0  0  0  0  0  0  0  0
  1  2  1  0  0  0  0
  1  5  2  0  0  0  0
  2  6  2  0  0  0  0
  3  9  2  0  0  0  0
  3 18  1  0  0  0  0
  4 10  1  0  0  0  0
  4 18  2  0  0  0  0
  5 20  1  0  0  0  0
  6 22  1  0  0  0  0
  7 11  2  0  0  0  0
  7 21  1  0  0  0  0
  8 12  2  0  0  0  0
  8 24  1  0  0  0  0
  9 26  1  0  0  0  0
 10 26  2  0  0  0  0
 11 27  1  0  0  0  0
 12 28  1  0  0  0  0
 13 14  2  0  0  0  0
 13 29  1  0  0  0  0
 14 30  1  0  0  0  0
 15 23  1  0  0  0  0
 15 27  2  0  0  0  0
 16 25  1  0  0  0  0
 16 28  2  0  0  0  0
 17 30  2  0  0  0  0
 17 31  1  0  0  0  0
 18 32  1  0  0  0  0
 19 32  1  0  0  0  0
 19 33  2  0  0  0  0
 19 34  1  0  0  0  0
 20 22  2  0  0  0  0
 20 39  1  0  0  0  0
 21 23  2  0  0  0  0
 21 40  1  0  0  0  0
 22 52  1  0  0  0  0
 23 41  1  0  0  0  0
 24 25  2  0  0  0  0
 24 65  1  0  0  0  0
 25 56  1  0  0  0  0
 26 85  1  0  0  0  0
 27 87  1  0  0  0  0
 28 86  1  0  0  0  0
 29 31  2  0  0  0  0
 29 85  1  0  0  0  0
 30 88  1  0  0  0  0
 31 89  1  0  0  0  0
 32 69  2  0  0  0  0
 33 70  1  0  0  0  0
 33 73  1  0  0  0  0
 34 74  1  0  0  0  0
 34 80  2  0  0  0  0
 35 53  1  0  0  0  0
 35 75  1  0  0  0  0
 35 81  2  0  0  0  0
 36 66  1  0  0  0  0
 36 71  1  0  0  0  0
 36 82  2  0  0  0  0
 37 67  1  0  0  0  0
 37 76  1  0  0  0  0
 37 83  2  0  0  0  0
 38 72  1  0  0  0  0
 38 77  1  0  0  0  0
 38 84  2  0  0  0  0
 39 42  1  0  0  0  0
 40 53  1  0  0  0  0
 41 71  1  0  0  0  0
 42 44  1  0  0  0  0
 43 45  1  0  0  0  0
 43 48  1  0  0  0  0
 44 52  1  0  0  0  0
 45 54  1  0  0  0  0
 46 50  1  0  0  0  0
 46 55  1  0  0  0  0
 47 51  1  0  0  0  0
 47 55  1  0  0  0  0
 48 72  1  0  0  0  0
 49 54  1  0  0  0  0
 49 72  1  0  0  0  0
 50 78  1  0  0  0  0
 51 78  1  0  0  0  0
 52 75  1  0  0  0  0
 53 71  1  0  0  0  0
 54 70  1  0  0  0  0
 55 86  1  0  0  0  0
 57 65  1  0  0  0  0
 58 67  1  0  0  0  0
 59 68  1  0  0  0  0
 60 68  1  0  0  0  0
 61 68  1  0  0  0  0
 62 79  1  0  0  0  0
 63 64  1  0  0  0  0
 63 78  1  0  0  0  0
 64 87  1  0  0  0  0
 65 77  1  0  0  0  0
 66 68  1  0  0  0  0
 66 76  1  0  0  0  0
 67 79  1  0  0  0  0
 69 70  1  0  0  0  0
M  CHG  2  78   1  79   1
M  ISO  4  38 100  64 101  77 100  87 101
M  END
> <Batch ID>
0168

> <Smiles>
CNC(C)C(=O)NC(C(=O)N1Cc2cc([101O:1][101CH2:1]CN3CCC(Oc4ccc(C(C)[100NH:0][100C:0](=O)N5CCCC(n6nc(-c7ccc(Oc8ccc(F)cc8F)cc7)c(C(N)=O)c6N)C5)c(C)c4)CC3)ccc2CC1C(=O)NC1CCCc2ccccc21)C(C)(C)C

> <Shape>
0.275

> <Color>
0.110

> <Negative vol penalty>
0.000

$$$$
