
  -OEChem-04052322323D

 88 98  0     1  0  0  0  0  0999 V2000
  -34.9669  -21.0612   26.0509 C   0  0  0  0  0  0  0  0  0  0  0  0
  -34.2076  -21.0662   24.8853 C   0  0  0  0  0  0  0  0  0  0  0  0
  -23.0932   -9.8480   19.8910 C   0  0  0  0  0  0  0  0  0  0  0  0
  -23.8498   -9.7829   22.1846 C   0  0  0  0  0  0  0  0  0  0  0  0
  -34.3641  -21.3458   27.2755 C   0  0  0  0  0  0  0  0  0  0  0  0
  -32.8446  -21.3547   24.9437 C   0  0  0  0  0  0  0  0  0  0  0  0
  -31.3823  -24.5708   21.3155 C   0  0  0  0  0  0  0  0  0  0  0  0
  -22.3698   -8.6733   20.0963 C   0  0  0  0  0  0  0  0  0  0  0  0
  -23.1263   -8.6082   22.3899 C   0  0  0  0  0  0  0  0  0  0  0  0
  -31.2096  -24.0493   20.0341 C   0  0  0  0  0  0  0  0  0  0  0  0
  -19.4343   -7.7707   21.5109 C   0  0  0  0  0  0  0  0  0  0  0  0
  -18.1291   -7.7194   21.0217 C   0  0  0  0  0  0  0  0  0  0  0  0
  -29.1471  -17.8435   19.9803 C   0  0  0  0  0  0  0  0  0  0  0  0
  -28.8269  -23.9576   20.3990 C   0  0  0  0  0  0  0  0  0  0  0  0
  -18.7252   -5.8373   19.6290 C   0  0  0  0  0  0  0  0  0  0  0  0
  -23.8333  -10.4028   20.9352 C   0  0  0  0  0  0  0  0  0  0  0  0
  -24.1302  -12.9364   20.9101 C   0  0  0  0  0  0  0  0  0  0  0  0
  -32.9950  -21.6474   27.3477 C   0  0  0  0  0  0  0  0  0  0  0  0
  -30.2776  -24.7797   22.1537 C   0  0  0  0  0  0  0  0  0  0  0  0
  -32.2225  -21.6422   26.1705 C   0  0  0  0  0  0  0  0  0  0  0  0
  -30.3038  -18.0152   20.7314 C   0  0  0  0  0  0  0  0  0  0  0  0
  -28.9248  -18.7137   18.9312 C   0  0  0  0  0  0  0  0  0  0  0  0
  -28.9879  -24.4843   21.6896 C   0  0  0  0  0  0  0  0  0  0  0  0
  -22.3862   -8.0534   21.3457 C   0  0  0  0  0  0  0  0  0  0  0  0
  -29.9321  -23.7399   19.5767 C   0  0  0  0  0  0  0  0  0  0  0  0
  -20.3850   -6.8554   21.0592 C   0  0  0  0  0  0  0  0  0  0  0  0
  -17.7745   -6.7526   20.0807 C   0  0  0  0  0  0  0  0  0  0  0  0
  -20.0304   -5.8887   20.1183 C   0  0  0  0  0  0  0  0  0  0  0  0
  -24.5814  -11.6160   20.7236 C   0  0  0  0  0  0  0  0  0  0  0  0
  -31.1664  -19.0538   20.3914 C   0  0  0  0  0  0  0  0  0  0  0  0
  -29.8332  -19.7363   18.6572 C   0  0  0  0  0  0  0  0  0  0  0  0
  -25.2092  -13.7182   20.5772 C   0  0  0  0  0  0  0  0  0  0  0  0
  -22.8501  -13.4135   21.3454 C   0  0  0  0  0  0  0  0  0  0  0  0
  -29.3534  -23.6389   24.9729 C   0  0  0  0  0  0  0  0  0  0  0  0
  -27.0007  -25.8499   24.6586 C   0  0  0  0  0  0  0  0  0  0  0  0
  -25.1093  -27.7933   22.5867 C   0  0  0  0  0  0  0  0  0  0  0  0
  -30.6098  -14.8575   20.7501 C   0  0  0  0  0  0  0  0  0  0  0  0
  -32.3781  -21.9021   28.7002 C   0  0  0  0  0  0  0  0  0  0  0  0
  -30.4782  -25.3680   23.5234 C   0  0  0  0  0  0  0  0  0  0  0  0
  -27.7732  -18.7773   17.9856 C   0  0  0  0  0  0  0  0  0  0  0  0
  -27.7673  -24.7090   22.5428 C   0  0  0  0  0  0  0  0  0  0  0  0
  -31.0051  -22.5654   28.6282 C   0  0  0  0  0  0  0  0  0  0  0  0
  -29.6918  -16.2778   23.9577 C   0  0  0  0  0  0  0  0  0  0  0  0
  -29.5747  -12.5541   18.3309 C   0  0  0  0  0  0  0  0  0  0  0  0
  -29.9720  -17.5709   23.2025 C   0  0  0  0  0  0  0  0  0  0  0  0
  -30.1300  -21.8700   27.5902 C   0  0  0  0  0  0  0  0  0  0  0  0
  -28.1524  -12.1893   18.7515 C   0  0  0  0  0  0  0  0  0  0  0  0
  -28.3211  -19.7459   16.9198 C   0  0  0  0  0  0  0  0  0  0  0  0
  -30.4798  -12.6999   19.5477 C   0  0  0  0  0  0  0  0  0  0  0  0
  -29.2527  -15.3299   22.8525 C   0  0  0  0  0  0  0  0  0  0  0  0
  -28.5658  -13.3692   20.9695 C   0  0  0  0  0  0  0  0  0  0  0  0
  -30.5935  -17.0841   21.8868 C   0  0  1  0  0  0  0  0  0  0  0  0
  -30.7463  -21.9747   26.1899 C   0  0  1  0  0  0  0  0  0  0  0  0
  -29.3312  -25.0583   24.4805 C   0  0  1  0  0  0  0  0  0  0  0  0
  -27.6079  -13.2025   19.7720 C   0  0  2  0  0  0  0  0  0  0  0  0
  -32.4201  -19.2690   21.1763 C   0  0  0  0  0  0  0  0  0  0  0  0
  -23.2417  -29.4691   22.6188 C   0  0  0  0  0  0  0  0  0  0  0  0
  -31.4035  -20.5484   16.2405 C   0  0  0  0  0  0  0  0  0  0  0  0
  -24.9953  -23.6018   25.1430 C   0  0  0  0  0  0  0  0  0  0  0  0
  -23.2044  -25.0984   24.2367 C   0  0  0  0  0  0  0  0  0  0  0  0
  -24.4500  -25.7528   26.2965 C   0  0  0  0  0  0  0  0  0  0  0  0
  -26.8147  -29.8902   21.3811 C   0  0  0  0  0  0  0  0  0  0  0  0
  -30.8261  -22.4423   17.7954 C   0  0  0  0  0  0  0  0  0  1  0  0
  -25.6166  -25.8598   24.0560 C   0  0  1  0  0  0  0  0  0  0  0  0
  -24.7488  -29.2670   22.6390 C   0  0  2  0  0  0  0  0  0  0  0  0
  -30.2793  -21.3787   16.8457 C   0  0  2  0  0  0  0  0  0  0  0  0
  -24.5896  -25.0720   24.9174 C   0  0  0  0  0  0  0  0  0  0  0  0
  -25.8483  -11.5583   20.3045 N   0  0  0  0  0  0  0  0  0  0  0  0
  -30.9609  -19.9233   19.3715 N   0  0  0  0  0  0  0  0  0  0  0  0
  -26.2024  -12.8523   20.2249 N   0  0  0  0  0  0  0  0  0  0  0  0
  -29.3895  -20.5034   17.5634 N   0  0  2  0  0  0  0  0  0  0  0  0
  -28.0157  -25.2803   23.8768 N   0  0  0  0  0  0  0  0  0  0  0  0
  -29.9320  -13.6553   20.5114 N   0  0  0  0  0  0  0  0  0  0  0  0
  -30.0600  -15.7263   21.6971 N   0  0  0  0  0  0  0  0  0  0  0  0
  -25.3959  -15.0550   20.5543 N   0  0  0  0  0  0  0  0  0  0  0  0
  -21.8541  -12.4745   21.6465 N   0  0  0  0  0  0  0  0  0  0  0  0
  -30.5161  -23.2907   25.6335 N   0  0  0  0  0  0  0  0  0  0  0  0
  -25.2717  -27.2622   23.8488 N   0  0  0  0  0  0  0  0  0  0  0  0
  -25.3350  -29.9854   21.4723 N   0  3  0  0  0  0  0  0  0  0  0  0
  -22.5918  -14.6367   21.4481 O   0  0  0  0  0  0  0  0  0  0  0  0
  -28.3866  -22.9138   24.7700 O   0  0  0  0  0  0  0  0  0  0  0  0
  -27.1762  -26.3361   25.7785 O   0  0  0  0  0  0  0  0  0  0  0  0
  -25.2308  -27.1743   21.5320 O   0  0  0  0  0  0  0  0  0  0  0  0
  -31.6645  -15.1325   20.1637 O   0  0  0  0  0  0  0  0  0  0  0  0
  -21.6802   -6.9072   21.5465 O   0  0  0  0  0  0  0  0  0  0  0  0
  -29.7597  -23.2268   18.3185 O   0  0  0  0  0  0  0  0  0  1  0  0
  -16.5207   -6.7025   19.6121 F   0  0  0  0  0  0  0  0  0  0  0  0
  -20.9391   -5.0059   19.6814 F   0  0  0  0  0  0  0  0  0  0  0  0
  1  2  1  0  0  0  0
  1  5  2  0  0  0  0
  2  6  2  0  0  0  0
  3  8  2  0  0  0  0
  3 16  1  0  0  0  0
  4  9  1  0  0  0  0
  4 16  2  0  0  0  0
  5 18  1  0  0  0  0
  6 20  1  0  0  0  0
  7 10  2  0  0  0  0
  7 19  1  0  0  0  0
  8 24  1  0  0  0  0
  9 24  2  0  0  0  0
 10 25  1  0  0  0  0
 11 12  2  0  0  0  0
 11 26  1  0  0  0  0
 12 27  1  0  0  0  0
 13 21  2  0  0  0  0
 13 22  1  0  0  0  0
 14 23  1  0  0  0  0
 14 25  2  0  0  0  0
 15 27  2  0  0  0  0
 15 28  1  0  0  0  0
 16 29  1  0  0  0  0
 17 29  1  0  0  0  0
 17 32  2  0  0  0  0
 17 33  1  0  0  0  0
 18 20  2  0  0  0  0
 18 38  1  0  0  0  0
 19 23  2  0  0  0  0
 19 39  1  0  0  0  0
 20 53  1  0  0  0  0
 21 30  1  0  0  0  0
 21 52  1  0  0  0  0
 22 31  2  0  0  0  0
 22 40  1  0  0  0  0
 23 41  1  0  0  0  0
 24 85  1  0  0  0  0
 25 86  1  0  0  0  0
 26 28  2  0  0  0  0
 26 85  1  0  0  0  0
 27 87  1  0  0  0  0
 28 88  1  0  0  0  0
 29 68  2  0  0  0  0
 30 56  1  0  0  0  0
 30 69  2  0  0  0  0
 31 69  1  0  0  0  0
 31 71  1  0  0  0  0
 32 70  1  0  0  0  0
 32 75  1  0  0  0  0
 33 76  1  0  0  0  0
 33 80  2  0  0  0  0
 34 54  1  0  0  0  0
 34 77  1  0  0  0  0
 34 81  2  0  0  0  0
 35 64  1  0  0  0  0
 35 72  1  0  0  0  0
 35 82  2  0  0  0  0
 36 65  1  0  0  0  0
 36 78  1  0  0  0  0
 36 83  2  0  0  0  0
 37 73  1  0  0  0  0
 37 74  1  0  0  0  0
 37 84  2  0  0  0  0
 38 42  1  0  0  0  0
 39 54  1  0  0  0  0
 40 48  1  0  0  0  0
 41 72  1  0  0  0  0
 42 46  1  0  0  0  0
 43 45  1  0  0  0  0
 43 50  1  0  0  0  0
 44 47  1  0  0  0  0
 44 49  1  0  0  0  0
 45 52  1  0  0  0  0
 46 53  1  0  0  0  0
 47 55  1  0  0  0  0
 48 71  1  0  0  0  0
 49 73  1  0  0  0  0
 50 74  1  0  0  0  0
 51 55  1  0  0  0  0
 51 73  1  0  0  0  0
 52 74  1  0  0  0  0
 53 77  1  0  0  0  0
 54 72  1  0  0  0  0
 55 70  1  0  0  0  0
 57 65  1  0  0  0  0
 58 66  1  0  0  0  0
 59 67  1  0  0  0  0
 60 67  1  0  0  0  0
 61 67  1  0  0  0  0
 62 79  1  0  0  0  0
 63 66  1  0  0  0  0
 63 86  1  0  0  0  0
 64 67  1  0  0  0  0
 64 78  1  0  0  0  0
 65 79  1  0  0  0  0
 66 71  1  0  0  0  0
 68 70  1  0  0  0  0
M  CHG  1  79   1
M  ISO  4  37 100  63 101  74 100  86 101
M  END
> <Batch ID>
0169

> <Smiles>
CNC(C)C(=O)NC(C(=O)N1Cc2cc([101O:1][101CH2:1]C(C)N3CCc4cc(C5CCC[100N:0]5[100C:0](=O)N5CCCC(n6nc(-c7ccc(Oc8ccc(F)cc8F)cc7)c(C(N)=O)c6N)C5)c(C)nc43)ccc2CC1C(=O)NC1CCCc2ccccc21)C(C)(C)C

> <Shape>
0.237

> <Color>
0.198

> <Negative vol penalty>
0.000

$$$$

  -OEChem-04052322323D

 93105  0     1  0  0  0  0  0999 V2000
  -28.5308  -38.5483   23.6288 C   0  0  0  0  0  0  0  0  0  0  0  0
  -28.9505  -37.4942   24.4339 C   0  0  0  0  0  0  0  0  0  0  0  0
  -26.3489  -12.4760   19.8382 C   0  0  0  0  0  0  0  0  0  0  0  0
  -26.1483  -13.5389   21.9985 C   0  0  0  0  0  0  0  0  0  0  0  0
  -27.1824  -38.6779   23.2989 C   0  0  0  0  0  0  0  0  0  0  0  0
  -28.0218  -36.5696   24.9103 C   0  0  0  0  0  0  0  0  0  0  0  0
  -28.6641  -29.5548   23.4031 C   0  0  0  0  0  0  0  0  0  0  0  0
  -25.1254  -11.8370   20.0390 C   0  0  0  0  0  0  0  0  0  0  0  0
  -24.9247  -12.8999   22.1993 C   0  0  0  0  0  0  0  0  0  0  0  0
  -28.8343  -28.1719   23.3346 C   0  0  0  0  0  0  0  0  0  0  0  0
  -23.9640   -9.1615   21.7469 C   0  0  0  0  0  0  0  0  0  0  0  0
  -23.8822   -7.8055   21.4303 C   0  0  0  0  0  0  0  0  0  0  0  0
  -25.6600  -21.9950   18.5404 C   0  0  0  0  0  0  0  0  0  0  0  0
  -26.7500  -27.8461   24.5167 C   0  0  0  0  0  0  0  0  0  0  0  0
  -22.1455   -8.2861   19.8209 C   0  0  0  0  0  0  0  0  0  0  0  0
  -26.8604  -13.3270   20.8180 C   0  0  0  0  0  0  0  0  0  0  0  0
  -29.3764  -13.3788   20.4002 C   0  0  0  0  0  0  0  0  0  0  0  0
  -26.2380  -37.7490   23.7636 C   0  0  0  0  0  0  0  0  0  0  0  0
  -27.5272  -30.0890   24.0158 C   0  0  0  0  0  0  0  0  0  0  0  0
  -26.6592  -36.6877   24.5874 C   0  0  0  0  0  0  0  0  0  0  0  0
  -25.6973  -21.7211   17.1732 C   0  0  0  0  0  0  0  0  0  0  0  0
  -26.5679  -29.2302   24.5773 C   0  0  0  0  0  0  0  0  0  0  0  0
  -24.9324  -22.4812   16.2885 C   0  0  0  0  0  0  0  0  0  0  0  0
  -24.1301  -23.5152   16.7710 C   0  0  0  0  0  0  0  0  0  0  0  0
  -24.0927  -23.7892   18.1382 C   0  0  0  0  0  0  0  0  0  0  0  0
  -24.8577  -23.0290   19.0229 C   0  0  0  0  0  0  0  0  0  0  0  0
  -24.4133  -12.0489   21.2195 C   0  0  0  0  0  0  0  0  0  0  0  0
  -27.8798  -27.3197   23.8903 C   0  0  0  0  0  0  0  0  0  0  0  0
  -23.1364  -10.0798   21.1007 C   0  0  0  0  0  0  0  0  0  0  0  0
  -22.9730   -7.3678   20.4672 C   0  0  0  0  0  0  0  0  0  0  0  0
  -22.2272   -9.6421   20.1376 C   0  0  0  0  0  0  0  0  0  0  0  0
  -28.1245  -13.9869   20.6115 C   0  0  0  0  0  0  0  0  0  0  0  0
  -30.2494  -14.4299   20.2605 C   0  0  0  0  0  0  0  0  0  0  0  0
  -29.7194  -11.9882   20.3357 C   0  0  0  0  0  0  0  0  0  0  0  0
  -25.6089  -33.1666   24.9772 C   0  0  0  0  0  0  0  0  0  0  0  0
  -23.5562  -31.1048   24.0047 C   0  0  0  0  0  0  0  0  0  0  0  0
  -21.6683  -28.7135   22.4702 C   0  0  0  0  0  0  0  0  0  0  0  0
  -29.3442  -20.1852   18.6012 C   0  0  0  0  0  0  0  0  0  0  0  0
  -24.7845  -37.9573   23.4194 C   0  0  0  0  0  0  0  0  0  0  0  0
  -27.3326  -31.5733   24.1668 C   0  0  0  0  0  0  0  0  0  0  0  0
  -25.3778  -29.8502   25.2571 C   0  0  0  0  0  0  0  0  0  0  0  0
  -23.9192  -36.7223   23.6568 C   0  0  0  0  0  0  0  0  0  0  0  0
  -30.9253  -18.9551   21.5822 C   0  0  0  0  0  0  0  0  0  0  0  0
  -26.3086  -22.1745   14.1239 C   0  0  0  0  0  0  0  0  0  0  0  0
  -25.3376  -23.2839   13.8658 C   0  0  0  0  0  0  0  0  0  0  0  0
  -21.8268  -24.4388   16.0527 C   0  0  0  0  0  0  0  0  0  0  0  0
  -22.3459  -23.6303   14.9050 C   0  0  0  0  0  0  0  0  0  0  0  0
  -24.2251  -36.1103   25.0201 C   0  0  0  0  0  0  0  0  0  0  0  0
  -30.4588  -17.5067   21.6862 C   0  0  0  0  0  0  0  0  0  0  0  0
  -26.0620  -25.1800   22.4601 C   0  0  0  0  0  0  0  0  0  0  0  0
  -27.1426  -23.6209   23.4371 C   0  0  0  0  0  0  0  0  0  0  0  0
  -29.8321  -19.8378   20.9952 C   0  0  0  0  0  0  0  0  0  0  0  0
  -28.1354  -20.7929   16.4409 C   0  0  0  0  0  0  0  0  0  0  0  0
  -27.0416  -19.4135   17.6354 C   0  0  0  0  0  0  0  0  0  0  0  0
  -28.9096  -17.9269   19.7102 C   0  0  0  0  0  0  0  0  0  0  0  0
  -26.6245  -20.5313   16.6472 C   0  0  0  0  0  0  0  0  0  0  0  0
  -24.9774  -22.1817   14.8238 C   0  0  0  0  0  0  0  0  0  0  0  0
  -23.3089  -24.3314   15.8227 C   0  0  0  0  0  0  0  0  0  0  0  0
  -25.6856  -35.6504   25.1033 C   0  0  1  0  0  0  0  0  0  0  0  0
  -25.8579  -32.0022   24.0643 C   0  0  1  0  0  0  0  0  0  0  0  0
  -25.8493  -23.6518   22.5871 C   0  0  0  0  0  0  0  0  0  0  0  0
  -29.9782  -16.9976   20.3196 C   0  0  2  0  0  0  0  0  0  0  0  0
  -26.8895  -25.1113   23.7647 C   0  0  0  0  0  0  0  0  0  1  0  0
  -23.2319  -24.8988   18.6567 C   0  0  0  0  0  0  0  0  0  0  0  0
  -19.3054  -28.1994   21.7996 C   0  0  0  0  0  0  0  0  0  0  0  0
  -22.8819  -30.4403   26.9043 C   0  0  0  0  0  0  0  0  0  0  0  0
  -20.9490  -29.0854   26.0699 C   0  0  0  0  0  0  0  0  0  0  0  0
  -21.0328  -31.5391   25.6283 C   0  0  0  0  0  0  0  0  0  0  0  0
  -22.3873  -28.5856   19.6022 C   0  0  0  0  0  0  0  0  0  0  0  0
  -25.8656  -22.8555   21.2988 C   0  0  0  0  0  0  0  0  0  0  0  0
  -22.5997  -30.0000   24.3760 C   0  0  1  0  0  0  0  0  0  0  0  0
  -20.6314  -28.8040   21.3651 C   0  0  2  0  0  0  0  0  0  0  0  0
  -21.8923  -30.2606   25.7358 C   0  0  0  0  0  0  0  0  0  0  0  0
  -28.1919  -15.3209   20.6075 N   0  0  0  0  0  0  0  0  0  0  0  0
  -29.4968  -15.5596   20.3920 N   0  0  0  0  0  0  0  0  0  0  0  0
  -24.8748  -30.9790   24.4587 N   0  0  0  0  0  0  0  0  0  0  0  0
  -29.3458  -19.3302   19.7089 N   0  0  0  0  0  0  0  0  0  0  0  0
  -28.3629  -20.0155   17.6511 N   0  0  0  0  0  0  0  0  0  0  0  0
  -31.5799  -14.4887   20.0395 N   0  0  0  0  0  0  0  0  0  0  0  0
  -28.7002  -11.0403   20.5001 N   0  0  0  0  0  0  0  0  0  0  0  0
  -24.8338  -23.2904   20.4108 N   0  0  0  0  0  0  0  0  0  0  0  0
  -25.8615  -34.3971   24.4014 N   0  0  0  0  0  0  0  0  0  0  0  0
  -21.6879  -29.8528   23.2466 N   0  0  0  0  0  0  0  0  0  0  0  0
  -21.1033  -28.0791   20.1515 N   0  3  0  0  0  0  0  0  0  0  0  0
  -30.8977  -11.5977   20.1546 O   0  0  0  0  0  0  0  0  0  0  0  0
  -25.2150  -32.9650   26.1200 O   0  0  0  0  0  0  0  0  0  0  0  0
  -23.1468  -32.0575   23.3353 O   0  0  0  0  0  0  0  0  0  0  0  0
  -22.3862  -27.7290   22.6311 O   0  0  0  0  0  0  0  0  0  0  0  0
  -30.1750  -21.0948   18.4772 O   0  0  0  0  0  0  0  0  0  0  0  0
  -23.2193  -11.4257   21.4156 O   0  0  0  0  0  0  0  0  0  0  0  0
  -28.0519  -25.9550   23.8151 O   0  0  0  0  0  0  0  0  0  1  0  0
  -22.8957   -6.0659   20.1621 F   0  0  0  0  0  0  0  0  0  0  0  0
  -21.4304  -10.5197   19.5126 F   0  0  0  0  0  0  0  0  0  0  0  0
  1  2  1  0  0  0  0
  1  5  2  0  0  0  0
  2  6  2  0  0  0  0
  3  8  2  0  0  0  0
  3 16  1  0  0  0  0
  4  9  1  0  0  0  0
  4 16  2  0  0  0  0
  5 18  1  0  0  0  0
  6 20  1  0  0  0  0
  7 10  2  0  0  0  0
  7 19  1  0  0  0  0
  8 27  1  0  0  0  0
  9 27  2  0  0  0  0
 10 28  1  0  0  0  0
 11 12  2  0  0  0  0
 11 29  1  0  0  0  0
 12 30  1  0  0  0  0
 13 21  2  0  0  0  0
 13 26  1  0  0  0  0
 14 22  1  0  0  0  0
 14 28  2  0  0  0  0
 15 30  2  0  0  0  0
 15 31  1  0  0  0  0
 16 32  1  0  0  0  0
 17 32  1  0  0  0  0
 17 33  2  0  0  0  0
 17 34  1  0  0  0  0
 18 20  2  0  0  0  0
 18 39  1  0  0  0  0
 19 22  2  0  0  0  0
 19 40  1  0  0  0  0
 20 59  1  0  0  0  0
 21 23  1  0  0  0  0
 21 56  1  0  0  0  0
 22 41  1  0  0  0  0
 23 24  2  0  0  0  0
 23 57  1  0  0  0  0
 24 25  1  0  0  0  0
 24 58  1  0  0  0  0
 25 26  2  0  0  0  0
 25 64  1  0  0  0  0
 26 81  1  0  0  0  0
 27 90  1  0  0  0  0
 28 91  1  0  0  0  0
 29 31  2  0  0  0  0
 29 90  1  0  0  0  0
 30 92  1  0  0  0  0
 31 93  1  0  0  0  0
 32 74  2  0  0  0  0
 33 75  1  0  0  0  0
 33 79  1  0  0  0  0
 34 80  1  0  0  0  0
 34 85  2  0  0  0  0
 35 60  1  0  0  0  0
 35 82  1  0  0  0  0
 35 86  2  0  0  0  0
 36 71  1  0  0  0  0
 36 76  1  0  0  0  0
 36 87  2  0  0  0  0
 37 72  1  0  0  0  0
 37 83  1  0  0  0  0
 37 88  2  0  0  0  0
 38 77  1  0  0  0  0
 38 78  1  0  0  0  0
 38 89  2  0  0  0  0
 39 42  1  0  0  0  0
 40 60  1  0  0  0  0
 41 76  1  0  0  0  0
 42 48  1  0  0  0  0
 43 49  1  0  0  0  0
 43 52  1  0  0  0  0
 44 45  1  0  0  0  0
 44 57  1  0  0  0  0
 45 57  1  0  0  0  0
 46 47  1  0  0  0  0
 46 58  1  0  0  0  0
 47 58  1  0  0  0  0
 48 59  1  0  0  0  0
 49 62  1  0  0  0  0
 50 61  1  0  0  0  0
 50 63  1  0  0  0  0
 51 61  1  0  0  0  0
 51 63  1  0  0  0  0
 52 77  1  0  0  0  0
 53 56  1  0  0  0  0
 53 78  1  0  0  0  0
 54 56  1  0  0  0  0
 54 78  1  0  0  0  0
 55 62  1  0  0  0  0
 55 77  1  0  0  0  0
 59 82  1  0  0  0  0
 60 76  1  0  0  0  0
 61 70  1  0  0  0  0
 62 75  1  0  0  0  0
 63 91  1  0  0  0  0
 65 72  1  0  0  0  0
 66 73  1  0  0  0  0
 67 73  1  0  0  0  0
 68 73  1  0  0  0  0
 69 84  1  0  0  0  0
 70 81  1  0  0  0  0
 71 73  1  0  0  0  0
 71 83  1  0  0  0  0
 72 84  1  0  0  0  0
 74 75  1  0  0  0  0
M  CHG  1  84   1
M  ISO  4  38 100  63 101  78 100  91 101
M  END
> <Batch ID>
0169

> <Smiles>
CNC(C)C(=O)NC(C(=O)N1Cc2cc([101O:1][101CH:1]3CC(CNc4cc(C5C[100N:0]([100C:0](=O)N6CCCC(n7nc(-c8ccc(Oc9ccc(F)cc9F)cc8)c(C(N)=O)c7N)C6)C5)c(C5CC5)c(C5CC5)c4C)C3)ccc2CC1C(=O)NC1CCCc2ccccc21)C(C)(C)C

> <Shape>
0.287

> <Color>
0.081

> <Negative vol penalty>
0.000

$$$$

  -OEChem-04052322323D

 87 98  0     1  0  0  0  0  0999 V2000
  -16.9124  -27.6698   21.1928 C   0  0  0  0  0  0  0  0  0  0  0  0
  -17.7196  -28.5226   20.4469 C   0  0  0  0  0  0  0  0  0  0  0  0
  -24.4900  -14.1628   20.3360 C   0  0  0  0  0  0  0  0  0  0  0  0
  -26.4549  -12.7705   20.5310 C   0  0  0  0  0  0  0  0  0  0  0  0
  -17.2049  -27.4317   22.5351 C   0  0  0  0  0  0  0  0  0  0  0  0
  -18.8193  -29.1388   21.0431 C   0  0  0  0  0  0  0  0  0  0  0  0
  -25.4729  -28.1502   18.4657 C   0  0  0  0  0  0  0  0  0  0  0  0
  -23.7048  -13.1248   20.8375 C   0  0  0  0  0  0  0  0  0  0  0  0
  -25.6696  -11.7326   21.0326 C   0  0  0  0  0  0  0  0  0  0  0  0
  -26.7499  -28.1794   17.9048 C   0  0  0  0  0  0  0  0  0  0  0  0
  -22.3361  -10.2571   19.6855 C   0  0  0  0  0  0  0  0  0  0  0  0
  -21.1331   -9.9830   19.0350 C   0  0  0  0  0  0  0  0  0  0  0  0
  -27.5388  -29.5353   19.7453 C   0  0  0  0  0  0  0  0  0  0  0  0
  -19.9247  -10.4433   21.0758 C   0  0  0  0  0  0  0  0  0  0  0  0
  -25.8651  -13.9857   20.1827 C   0  0  0  0  0  0  0  0  0  0  0  0
  -26.5564  -15.6843   18.4095 C   0  0  0  0  0  0  0  0  0  0  0  0
  -18.3143  -28.0376   23.1455 C   0  0  0  0  0  0  0  0  0  0  0  0
  -25.2275  -28.8013   19.6778 C   0  0  0  0  0  0  0  0  0  0  0  0
  -19.1261  -28.9096   22.3952 C   0  0  0  0  0  0  0  0  0  0  0  0
  -26.2648  -29.4990   20.3182 C   0  0  0  0  0  0  0  0  0  0  0  0
  -24.2945  -11.9097   21.1858 C   0  0  0  0  0  0  0  0  0  0  0  0
  -27.7802  -28.8704   18.5430 C   0  0  0  0  0  0  0  0  0  0  0  0
  -22.3334  -10.6242   21.0313 C   0  0  0  0  0  0  0  0  0  0  0  0
  -19.9274  -10.0762   19.7301 C   0  0  0  0  0  0  0  0  0  0  0  0
  -21.1277  -10.7174   21.7264 C   0  0  0  0  0  0  0  0  0  0  0  0
  -26.6768  -15.0573   19.6641 C   0  0  0  0  0  0  0  0  0  0  0  0
  -27.5529  -16.6295   18.4010 C   0  0  0  0  0  0  0  0  0  0  0  0
  -33.8030  -26.8090   18.3480 C   0  0  0  0  0  0  0  0  0  0  0  0
  -25.6269  -15.4348   17.3468 C   0  0  0  0  0  0  0  0  0  0  0  0
  -32.8255  -26.8358   19.2660 C   0  0  0  0  0  0  0  0  0  0  0  0
  -22.7449  -29.6550   22.3581 C   0  0  0  0  0  0  0  0  0  0  0  0
  -25.3905  -29.0047   23.7683 C   0  0  0  0  0  0  0  0  0  0  0  0
  -28.3581  -27.8096   24.9525 C   0  0  0  0  0  0  0  0  0  0  0  0
  -30.1239  -20.7688   20.9858 C   0  0  0  0  0  0  0  0  0  0  0  0
  -18.5630  -27.7869   24.6118 C   0  0  0  0  0  0  0  0  0  0  0  0
  -23.8527  -28.8479   20.2873 C   0  0  0  0  0  0  0  0  0  0  0  0
  -25.9462  -30.2139   21.6028 C   0  0  0  0  0  0  0  0  0  0  0  0
  -19.9639  -28.1853   25.0688 C   0  0  0  0  0  0  0  0  0  0  0  0
  -31.4475  -17.3560   21.5140 C   0  0  0  0  0  0  0  0  0  0  0  0
  -20.3276  -29.5665   24.5331 C   0  0  0  0  0  0  0  0  0  0  0  0
  -30.2756  -16.5103   21.0263 C   0  0  0  0  0  0  0  0  0  0  0  0
  -35.3636  -26.0239   22.7938 C   0  0  0  0  0  0  0  0  0  0  0  0
  -34.9856  -27.2251   21.9743 C   0  0  0  0  0  0  0  0  0  0  0  0
  -31.5489  -28.7709   18.1856 C   0  0  0  0  0  0  0  0  0  0  0  0
  -30.4796  -27.7505   19.7195 C   0  0  0  0  0  0  0  0  0  0  0  0
  -32.2183  -24.4028   19.3279 C   0  0  0  0  0  0  0  0  0  0  0  0
  -32.2396  -23.6033   22.4117 C   0  0  0  0  0  0  0  0  0  0  0  0
  -30.9855  -18.6596   22.1641 C   0  0  0  0  0  0  0  0  0  0  0  0
  -28.9106  -18.6213   20.8046 C   0  0  0  0  0  0  0  0  0  0  0  0
  -20.3422  -29.5772   22.9997 C   0  0  1  0  0  0  0  0  0  0  0  0
  -31.9817  -28.0259   19.4707 C   0  0  0  0  0  0  0  0  0  0  0  0
  -32.5307  -25.6619   20.1391 C   0  0  1  0  0  0  0  0  0  0  0  0
  -23.8736  -28.8215   21.8261 C   0  0  1  0  0  0  0  0  0  0  0  0
  -32.4582  -23.2364   20.2778 C   0  0  2  0  0  0  0  0  0  0  0  0
  -29.3633  -17.3318   20.1034 C   0  0  2  0  0  0  0  0  0  0  0  0
  -31.3788  -22.9163   21.3376 C   0  0  1  0  0  0  0  0  0  0  0  0
  -33.9948  -26.1156   22.1824 C   0  0  0  0  0  0  0  0  0  0  0  0
  -33.3675  -23.8092   21.3793 C   0  0  1  0  0  0  0  0  0  0  0  0
  -30.1715  -28.9943   18.8535 C   0  0  0  0  0  0  0  0  0  1  0  0
  -29.5866  -27.3594   27.0939 C   0  0  0  0  0  0  0  0  0  0  0  0
  -25.9334  -31.9899   24.0801 C   0  0  0  0  0  0  0  0  0  0  0  0
  -27.8572  -31.4118   25.5743 C   0  0  0  0  0  0  0  0  0  0  0  0
  -25.5365  -30.7715   26.2277 C   0  0  0  0  0  0  0  0  0  0  0  0
  -28.5551  -24.9153   24.3665 C   0  0  0  0  0  0  0  0  0  0  0  0
  -26.6802  -29.5326   24.3439 C   0  0  1  0  0  0  0  0  0  0  0  0
  -28.6748  -26.7809   26.0230 C   0  0  2  0  0  0  0  0  0  0  0  0
  -26.5005  -30.9162   25.0300 C   0  0  0  0  0  0  0  0  0  0  0  0
  -27.6714  -15.5615   20.3993 N   0  0  0  0  0  0  0  0  0  0  0  0
  -28.1852  -16.5153   19.6041 N   0  0  0  0  0  0  0  0  0  0  0  0
  -25.0907  -29.3680   22.4497 N   0  0  0  0  0  0  0  0  0  0  0  0
  -30.0532  -19.3995   21.2988 N   0  0  0  0  0  0  0  0  0  0  0  0
  -27.9413  -17.5387   17.4819 N   0  0  0  0  0  0  0  0  0  0  0  0
  -25.9705  -14.4950   16.3655 N   0  0  0  0  0  0  0  0  0  0  0  0
  -21.5558  -28.9660   22.5016 N   0  0  0  0  0  0  0  0  0  0  0  0
  -27.1903  -28.4894   25.2270 N   0  0  0  0  0  0  0  0  0  0  0  0
  -31.1765  -21.4707   21.5649 N   0  0  0  0  0  0  0  0  0  0  0  0
  -33.6915  -25.2246   21.0161 N   0  3  1  0  0  0  0  0  0  0  0  0
  -29.3501  -25.5971   25.4202 N   0  3  0  0  0  0  0  0  0  0  0  0
  -24.5313  -16.0396   17.2607 O   0  0  0  0  0  0  0  0  0  0  0  0
  -22.9379  -30.8363   22.6209 O   0  0  0  0  0  0  0  0  0  0  0  0
  -24.6638  -28.2939   24.4684 O   0  0  0  0  0  0  0  0  0  0  0  0
  -29.0768  -27.9944   23.9728 O   0  0  0  0  0  0  0  0  0  0  0  0
  -29.3071  -21.3331   20.2499 O   0  0  0  0  0  0  0  0  0  0  0  0
  -23.5286  -10.8967   21.6755 O   0  0  0  0  0  0  0  0  0  0  0  0
  -29.0256  -28.8911   17.9923 O   0  0  0  0  0  0  0  0  0  1  0  0
  -18.7721   -9.8144   19.1049 F   0  0  0  0  0  0  0  0  0  0  0  0
  -21.1187  -11.0707   23.0190 F   0  0  0  0  0  0  0  0  0  0  0  0
  1  2  1  0  0  0  0
  1  5  2  0  0  0  0
  2  6  2  0  0  0  0
  3  8  2  0  0  0  0
  3 15  1  0  0  0  0
  4  9  1  0  0  0  0
  4 15  2  0  0  0  0
  5 17  1  0  0  0  0
  6 19  1  0  0  0  0
  7 10  2  0  0  0  0
  7 18  1  0  0  0  0
  8 21  1  0  0  0  0
  9 21  2  0  0  0  0
 10 22  1  0  0  0  0
 11 12  2  0  0  0  0
 11 23  1  0  0  0  0
 12 24  1  0  0  0  0
 13 20  1  0  0  0  0
 13 22  2  0  0  0  0
 14 24  2  0  0  0  0
 14 25  1  0  0  0  0
 15 26  1  0  0  0  0
 16 26  1  0  0  0  0
 16 27  2  0  0  0  0
 16 29  1  0  0  0  0
 17 19  2  0  0  0  0
 17 35  1  0  0  0  0
 18 20  2  0  0  0  0
 18 36  1  0  0  0  0
 19 50  1  0  0  0  0
 20 37  1  0  0  0  0
 21 84  1  0  0  0  0
 22 85  1  0  0  0  0
 23 25  2  0  0  0  0
 23 84  1  0  0  0  0
 24 86  1  0  0  0  0
 25 87  1  0  0  0  0
 26 68  2  0  0  0  0
 27 69  1  0  0  0  0
 27 72  1  0  0  0  0
 28 30  2  0  0  0  0
 29 73  1  0  0  0  0
 29 79  2  0  0  0  0
 30 51  1  0  0  0  0
 30 52  1  0  0  0  0
 31 53  1  0  0  0  0
 31 74  1  0  0  0  0
 31 80  2  0  0  0  0
 32 65  1  0  0  0  0
 32 70  1  0  0  0  0
 32 81  2  0  0  0  0
 33 66  1  0  0  0  0
 33 75  1  0  0  0  0
 33 82  2  0  0  0  0
 34 71  1  0  0  0  0
 34 76  1  0  0  0  0
 34 83  2  0  0  0  0
 35 38  1  0  0  0  0
 36 53  1  0  0  0  0
 37 70  1  0  0  0  0
 38 40  1  0  0  0  0
 39 41  1  0  0  0  0
 39 48  1  0  0  0  0
 40 50  1  0  0  0  0
 41 55  1  0  0  0  0
 42 43  1  0  0  0  0
 42 57  1  0  0  0  0
 43 57  1  0  0  0  0
 44 51  1  0  0  0  0
 44 59  1  0  0  0  0
 45 51  1  0  0  0  0
 45 59  1  0  0  0  0
 46 52  1  0  0  0  0
 46 54  1  0  0  0  0
 47 56  1  0  0  0  0
 47 58  1  0  0  0  0
 48 71  1  0  0  0  0
 49 55  1  0  0  0  0
 49 71  1  0  0  0  0
 50 74  1  0  0  0  0
 52 77  1  0  0  0  0
 53 70  1  0  0  0  0
 54 56  1  0  0  0  0
 54 58  1  0  0  0  0
 55 69  1  0  0  0  0
 56 76  1  0  0  0  0
 57 77  1  0  0  0  0
 58 77  1  0  0  0  0
 59 85  1  0  0  0  0
 60 66  1  0  0  0  0
 61 67  1  0  0  0  0
 62 67  1  0  0  0  0
 63 67  1  0  0  0  0
 64 78  1  0  0  0  0
 65 67  1  0  0  0  0
 65 75  1  0  0  0  0
 66 78  1  0  0  0  0
 68 69  1  0  0  0  0
M  CHG  2  77   1  78   1
M  ISO  4  34 100  59 101  76 100  85 101
M  END
> <Batch ID>
0169

> <Smiles>
C=C(C1C[101CH:1]([101O:1]c2ccc3c(c2)CN(C(=O)C(NC(=O)C(C)NC)C(C)(C)C)C(C(=O)NC2CCCc4ccccc42)C3)C1)C1CC2C([100NH:0][100C:0](=O)N3CCCC(n4nc(-c5ccc(Oc6ccc(F)cc6F)cc5)c(C(N)=O)c4N)C3)CC2N1C1CC1

> <Shape>
0.255

> <Color>
0.069

> <Negative vol penalty>
0.000

$$$$

  -OEChem-04052322323D

 86 95  0     1  0  0  0  0  0999 V2000
  -31.1806  -26.7194   17.2842 C   0  0  0  0  0  0  0  0  0  0  0  0
  -29.9058  -26.3357   17.6880 C   0  0  0  0  0  0  0  0  0  0  0  0
  -24.0532  -11.8794   20.5341 C   0  0  0  0  0  0  0  0  0  0  0  0
  -25.1135  -14.0500   20.5756 C   0  0  0  0  0  0  0  0  0  0  0  0
  -31.9355  -27.5764   18.0840 C   0  0  0  0  0  0  0  0  0  0  0  0
  -29.3855  -26.8080   18.8924 C   0  0  0  0  0  0  0  0  0  0  0  0
  -23.5369  -28.1700   20.0941 C   0  0  0  0  0  0  0  0  0  0  0  0
  -25.1416  -11.3612   19.8323 C   0  0  0  0  0  0  0  0  0  0  0  0
  -26.2019  -13.5317   19.8739 C   0  0  0  0  0  0  0  0  0  0  0  0
  -22.5195  -27.4588   20.7288 C   0  0  0  0  0  0  0  0  0  0  0  0
  -28.9475  -11.6814   20.5510 C   0  0  0  0  0  0  0  0  0  0  0  0
  -30.2250  -12.0209   20.9965 C   0  0  0  0  0  0  0  0  0  0  0  0
  -23.0198  -28.5988   22.7950 C   0  0  0  0  0  0  0  0  0  0  0  0
  -17.5737  -24.7644   23.7816 C   0  0  0  0  0  0  0  0  0  0  0  0
  -30.7016  -13.0356   18.8563 C   0  0  0  0  0  0  0  0  0  0  0  0
  -24.0392  -13.2239   20.9057 C   0  0  0  0  0  0  0  0  0  0  0  0
  -22.7512  -13.8134   23.0273 C   0  0  0  0  0  0  0  0  0  0  0  0
  -31.4204  -28.0670   19.2942 C   0  0  0  0  0  0  0  0  0  0  0  0
  -24.3119  -29.0946   20.8089 C   0  0  0  0  0  0  0  0  0  0  0  0
  -30.1347  -27.6712   19.7098 C   0  0  0  0  0  0  0  0  0  0  0  0
  -24.0448  -29.3224   22.1664 C   0  0  0  0  0  0  0  0  0  0  0  0
  -18.1137  -25.6265   22.7956 C   0  0  0  0  0  0  0  0  0  0  0  0
  -26.2159  -12.1873   19.5022 C   0  0  0  0  0  0  0  0  0  0  0  0
  -22.2627  -27.6711   22.0801 C   0  0  0  0  0  0  0  0  0  0  0  0
  -28.5471  -12.0189   19.2582 C   0  0  0  0  0  0  0  0  0  0  0  0
  -31.1020  -12.6980   20.1491 C   0  0  0  0  0  0  0  0  0  0  0  0
  -29.4241  -12.6960   18.4108 C   0  0  0  0  0  0  0  0  0  0  0  0
  -22.9149  -13.7599   21.6301 C   0  0  0  0  0  0  0  0  0  0  0  0
  -18.6203  -24.0491   24.3204 C   0  0  0  0  0  0  0  0  0  0  0  0
  -19.4739  -25.4117   22.7617 C   0  0  0  0  0  0  0  0  0  0  0  0
  -21.5267  -14.4091   23.2070 C   0  0  0  0  0  0  0  0  0  0  0  0
  -23.6277  -13.3648   24.0696 C   0  0  0  0  0  0  0  0  0  0  0  0
  -27.3958  -29.3500   21.5355 C   0  0  0  0  0  0  0  0  0  0  0  0
  -26.4755  -32.2202   22.7343 C   0  0  0  0  0  0  0  0  0  0  0  0
  -23.9708  -34.1637   23.9976 C   0  0  0  0  0  0  0  0  0  0  0  0
  -17.8087  -18.3718   21.9345 C   0  0  0  0  0  0  0  0  0  0  0  0
  -32.2922  -28.9534   20.1480 C   0  0  0  0  0  0  0  0  0  0  0  0
  -25.3881  -29.8732   20.1032 C   0  0  0  0  0  0  0  0  0  0  0  0
  -24.8347  -30.3187   22.9738 C   0  0  0  0  0  0  0  0  0  0  0  0
  -31.5213  -29.7074   21.2285 C   0  0  0  0  0  0  0  0  0  0  0  0
  -17.8576  -15.4593   19.8872 C   0  0  0  0  0  0  0  0  0  0  0  0
  -30.5680  -28.7668   21.9588 C   0  0  0  0  0  0  0  0  0  0  0  0
  -19.1665  -14.7658   20.2689 C   0  0  0  0  0  0  0  0  0  0  0  0
  -18.1355  -19.4721   25.4807 C   0  0  0  0  0  0  0  0  0  0  0  0
  -18.0013  -16.9795   19.8947 C   0  0  0  0  0  0  0  0  0  0  0  0
  -19.8395  -16.8519   21.5313 C   0  0  0  0  0  0  0  0  0  0  0  0
  -17.7362  -20.7750   26.1557 C   0  0  0  0  0  0  0  0  0  0  0  0
  -18.1955  -21.1180   23.7777 C   0  0  0  0  0  0  0  0  0  0  0  0
  -29.5259  -28.1820   20.9977 C   0  0  1  0  0  0  0  0  0  0  0  0
  -26.4530  -30.4152   21.0517 C   0  0  1  0  0  0  0  0  0  0  0  0
  -19.7290  -15.3188   21.5921 C   0  0  2  0  0  0  0  0  0  0  0  0
  -17.7580  -19.6879   24.0253 C   0  0  1  0  0  0  0  0  0  0  0  0
  -17.3517  -26.5779   21.9623 C   0  0  0  0  0  0  0  0  0  0  0  0
  -21.6805  -24.5182   25.2469 C   0  0  0  0  0  0  0  0  0  0  0  0
  -23.5317  -36.4535   24.9258 C   0  0  0  0  0  0  0  0  0  0  0  0
  -27.7996  -31.4071   25.3602 C   0  0  0  0  0  0  0  0  0  0  0  0
  -26.5358  -33.2509   26.4878 C   0  0  0  0  0  0  0  0  0  0  0  0
  -28.1823  -33.7864   24.6919 C   0  0  0  0  0  0  0  0  0  0  0  0
  -22.0365  -34.7911   21.8473 C   0  0  0  0  0  0  0  0  0  0  0  0
  -18.6168  -23.0191   25.3796 C   0  0  0  0  0  0  0  0  0  0  0  0
  -20.5322  -26.0486   21.9099 C   0  0  0  0  0  0  0  0  0  1  0  0
  -21.0955  -23.9377   23.9709 C   0  0  0  0  0  0  0  0  0  0  0  0
  -25.9797  -32.7102   24.0734 C   0  0  1  0  0  0  0  0  0  0  0  0
  -23.5391  -35.5837   23.6784 C   0  0  2  0  0  0  0  0  0  0  0  0
  -27.1106  -32.7684   25.1389 C   0  0  0  0  0  0  0  0  0  0  0  0
  -21.8773  -14.2800   20.9691 N   0  0  0  0  0  0  0  0  0  0  0  0
  -19.7705  -24.4506   23.6926 N   0  0  0  0  0  0  0  0  0  0  0  0
  -21.0498  -14.6659   21.9553 N   0  0  0  0  0  0  0  0  0  0  0  0
  -25.8806  -31.0506   22.2404 N   0  0  0  0  0  0  0  0  0  0  0  0
  -18.5378  -17.4396   21.1778 N   0  0  0  0  0  0  0  0  0  0  0  0
  -20.8221  -14.7329   24.3120 N   0  0  0  0  0  0  0  0  0  0  0  0
  -24.8471  -12.7752   23.7095 N   0  0  0  0  0  0  0  0  0  0  0  0
  -28.4931  -29.1565   20.7182 N   0  0  0  0  0  0  0  0  0  0  0  0
  -25.3277  -33.9911   23.8235 N   0  0  0  0  0  0  0  0  0  0  0  0
  -18.3854  -18.7499   23.1409 N   0  0  0  0  0  0  0  0  0  0  0  0
  -17.7843  -21.8206   25.0553 N   0  3  2  0  0  0  0  0  0  0  0  0
  -22.1685  -35.5892   23.0934 N   0  3  0  0  0  0  0  0  0  0  0  0
  -23.3308  -13.4685   25.2839 O   0  0  0  0  0  0  0  0  0  0  0  0
  -27.1469  -28.7491   22.5741 O   0  0  0  0  0  0  0  0  0  0  0  0
  -27.3531  -32.8558   22.1449 O   0  0  0  0  0  0  0  0  0  0  0  0
  -23.1837  -33.2957   24.3683 O   0  0  0  0  0  0  0  0  0  0  0  0
  -16.7217  -18.8288   21.5652 O   0  0  0  0  0  0  0  0  0  0  0  0
  -27.2782  -11.6819   18.8177 O   0  0  0  0  0  0  0  0  0  0  0  0
  -21.2706  -26.9777   22.7022 O   0  0  0  0  0  0  0  0  0  1  0  0
  -32.3282  -13.0253   20.5775 F   0  0  0  0  0  0  0  0  0  0  0  0
  -29.0447  -13.0240   17.1681 F   0  0  0  0  0  0  0  0  0  0  0  0
  1  2  1  0  0  0  0
  1  5  2  0  0  0  0
  2  6  2  0  0  0  0
  3  8  2  0  0  0  0
  3 16  1  0  0  0  0
  4  9  1  0  0  0  0
  4 16  2  0  0  0  0
  5 18  1  0  0  0  0
  6 20  1  0  0  0  0
  7 10  2  0  0  0  0
  7 19  1  0  0  0  0
  8 23  1  0  0  0  0
  9 23  2  0  0  0  0
 10 24  1  0  0  0  0
 11 12  2  0  0  0  0
 11 25  1  0  0  0  0
 12 26  1  0  0  0  0
 13 21  1  0  0  0  0
 13 24  2  0  0  0  0
 14 22  1  0  0  0  0
 14 29  2  0  0  0  0
 15 26  2  0  0  0  0
 15 27  1  0  0  0  0
 16 28  1  0  0  0  0
 17 28  1  0  0  0  0
 17 31  2  0  0  0  0
 17 32  1  0  0  0  0
 18 20  2  0  0  0  0
 18 37  1  0  0  0  0
 19 21  2  0  0  0  0
 19 38  1  0  0  0  0
 20 49  1  0  0  0  0
 21 39  1  0  0  0  0
 22 30  2  0  0  0  0
 22 53  1  0  0  0  0
 23 83  1  0  0  0  0
 24 84  1  0  0  0  0
 25 27  2  0  0  0  0
 25 83  1  0  0  0  0
 26 85  1  0  0  0  0
 27 86  1  0  0  0  0
 28 66  2  0  0  0  0
 29 60  1  0  0  0  0
 29 67  1  0  0  0  0
 30 61  1  0  0  0  0
 30 67  1  0  0  0  0
 31 68  1  0  0  0  0
 31 71  1  0  0  0  0
 32 72  1  0  0  0  0
 32 78  2  0  0  0  0
 33 50  1  0  0  0  0
 33 73  1  0  0  0  0
 33 79  2  0  0  0  0
 34 63  1  0  0  0  0
 34 69  1  0  0  0  0
 34 80  2  0  0  0  0
 35 64  1  0  0  0  0
 35 74  1  0  0  0  0
 35 81  2  0  0  0  0
 36 70  1  0  0  0  0
 36 75  1  0  0  0  0
 36 82  2  0  0  0  0
 37 40  1  0  0  0  0
 38 50  1  0  0  0  0
 39 69  1  0  0  0  0
 40 42  1  0  0  0  0
 41 43  1  0  0  0  0
 41 45  1  0  0  0  0
 42 49  1  0  0  0  0
 43 51  1  0  0  0  0
 44 47  1  0  0  0  0
 44 52  1  0  0  0  0
 45 70  1  0  0  0  0
 46 51  1  0  0  0  0
 46 70  1  0  0  0  0
 47 76  1  0  0  0  0
 48 52  1  0  0  0  0
 48 76  1  0  0  0  0
 49 73  1  0  0  0  0
 50 69  1  0  0  0  0
 51 68  1  0  0  0  0
 52 75  1  0  0  0  0
 54 62  1  0  0  0  0
 55 64  1  0  0  0  0
 56 65  1  0  0  0  0
 57 65  1  0  0  0  0
 58 65  1  0  0  0  0
 59 77  1  0  0  0  0
 60 76  1  0  0  0  0
 61 84  1  0  0  0  0
 62 67  1  0  0  0  0
 63 65  1  0  0  0  0
 63 74  1  0  0  0  0
 64 77  1  0  0  0  0
 66 68  1  0  0  0  0
M  CHG  2  76   1  77   1
M  ISO  4  36 100  61 101  75 100  84 101
M  END
> <Batch ID>
0169

> <Smiles>
CCn1c(CN2CCC([100NH:0][100C:0](=O)N3CCCC(n4nc(-c5ccc(Oc6ccc(F)cc6F)cc5)c(C(N)=O)c4N)C3)C2)cc(C)c1[101CH2:1][101O:1]c1ccc2c(c1)CN(C(=O)C(NC(=O)C(C)NC)C(C)(C)C)C(C(=O)NC1CCCc3ccccc31)C2

> <Shape>
0.263

> <Color>
0.067

> <Negative vol penalty>
0.000

$$$$

  -OEChem-04052322323D

 91101  0     1  0  0  0  0  0999 V2000
  -28.5281  -37.8828   24.1338 C   0  0  0  0  0  0  0  0  0  0  0  0
  -28.9899  -36.7218   23.5221 C   0  0  0  0  0  0  0  0  0  0  0  0
  -23.0664   -9.3094   23.1467 C   0  0  0  0  0  0  0  0  0  0  0  0
  -21.0368  -10.0714   22.0803 C   0  0  0  0  0  0  0  0  0  0  0  0
  -27.4609  -37.8206   25.0289 C   0  0  0  0  0  0  0  0  0  0  0  0
  -28.3854  -35.4977   23.8059 C   0  0  0  0  0  0  0  0  0  0  0  0
  -27.5633  -30.8148   19.9458 C   0  0  0  0  0  0  0  0  0  0  0  0
  -22.7871   -8.0032   22.7448 C   0  0  0  0  0  0  0  0  0  0  0  0
  -20.7575   -8.7653   21.6784 C   0  0  0  0  0  0  0  0  0  0  0  0
  -28.2742  -29.6333   19.7395 C   0  0  0  0  0  0  0  0  0  0  0  0
  -20.7833   -5.4676   23.7348 C   0  0  0  0  0  0  0  0  0  0  0  0
  -20.9462   -4.4517   24.6766 C   0  0  0  0  0  0  0  0  0  0  0  0
  -30.3386  -22.6183   18.0681 C   0  0  0  0  0  0  0  0  0  0  0  0
  -26.7444  -28.4659   21.1942 C   0  0  0  0  0  0  0  0  0  0  0  0
  -28.6372  -24.8510   17.7047 C   0  0  0  0  0  0  0  0  0  0  0  0
  -22.5870   -3.3947   23.2527 C   0  0  0  0  0  0  0  0  0  0  0  0
  -31.4434  -25.6019   19.8675 C   0  0  0  0  0  0  0  0  0  0  0  0
  -30.6380  -23.8407   18.7018 C   0  0  0  0  0  0  0  0  0  0  0  0
  -22.1912  -10.3435   22.8145 C   0  0  0  0  0  0  0  0  0  0  0  0
  -22.6297  -12.1626   24.5483 C   0  0  0  0  0  0  0  0  0  0  0  0
  -26.8368  -36.5965   25.3165 C   0  0  0  0  0  0  0  0  0  0  0  0
  -26.4421  -30.8331   20.7879 C   0  0  0  0  0  0  0  0  0  0  0  0
  -27.3097  -35.4188   24.7067 C   0  0  0  0  0  0  0  0  0  0  0  0
  -26.0195  -29.6483   21.4075 C   0  0  0  0  0  0  0  0  0  0  0  0
  -29.1968  -22.5279   17.2638 C   0  0  0  0  0  0  0  0  0  0  0  0
  -31.6814  -24.2815   19.5632 C   0  0  0  0  0  0  0  0  0  0  0  0
  -29.7821  -24.9266   18.5059 C   0  0  0  0  0  0  0  0  0  0  0  0
  -21.6327   -7.7311   22.0107 C   0  0  0  0  0  0  0  0  0  0  0  0
  -27.8665  -28.4593   20.3660 C   0  0  0  0  0  0  0  0  0  0  0  0
  -21.5223   -5.4470   22.5518 C   0  0  0  0  0  0  0  0  0  0  0  0
  -28.3606  -23.6284   17.0862 C   0  0  0  0  0  0  0  0  0  0  0  0
  -21.8480   -3.4153   24.4356 C   0  0  0  0  0  0  0  0  0  0  0  0
  -22.4241   -4.4106   22.3108 C   0  0  0  0  0  0  0  0  0  0  0  0
  -22.4789  -11.6929   23.2298 C   0  0  0  0  0  0  0  0  0  0  0  0
  -22.8918  -13.5035   24.4072 C   0  0  0  0  0  0  0  0  0  0  0  0
  -22.5410  -11.4506   25.7896 C   0  0  0  0  0  0  0  0  0  0  0  0
  -25.6907  -32.3282   23.4904 C   0  0  0  0  0  0  0  0  0  0  0  0
  -22.7919  -30.9638   22.9826 C   0  0  0  0  0  0  0  0  0  0  0  0
  -20.9818  -28.4629   21.5280 C   0  0  0  0  0  0  0  0  0  0  0  0
  -25.1526  -16.5046   19.7024 C   0  0  0  0  0  0  0  0  0  0  0  0
  -25.7172  -36.5722   26.3268 C   0  0  0  0  0  0  0  0  0  0  0  0
  -25.6703  -32.1099   20.9789 C   0  0  0  0  0  0  0  0  0  0  0  0
  -24.8105  -29.6104   22.3049 C   0  0  0  0  0  0  0  0  0  0  0  0
  -24.8893  -35.2903   26.2878 C   0  0  0  0  0  0  0  0  0  0  0  0
  -21.4719  -16.1939   20.7676 C   0  0  0  0  0  0  0  0  0  0  0  0
  -25.8002  -34.0678   26.2370 C   0  0  0  0  0  0  0  0  0  0  0  0
  -21.8201  -15.9005   22.2239 C   0  0  0  0  0  0  0  0  0  0  0  0
  -25.8882  -18.8793   16.9537 C   0  0  0  0  0  0  0  0  0  0  0  0
  -26.9837  -19.1753   19.2058 C   0  0  0  0  0  0  0  0  0  0  0  0
  -22.6569  -16.8193   20.0382 C   0  0  0  0  0  0  0  0  0  0  0  0
  -23.8465  -14.8643   21.0309 C   0  0  0  0  0  0  0  0  0  0  0  0
  -27.1011  -19.5155   16.2873 C   0  0  0  0  0  0  0  0  0  0  0  0
  -28.1903  -19.8113   18.5281 C   0  0  0  0  0  0  0  0  0  0  0  0
  -26.6641  -34.0757   24.9701 C   0  0  1  0  0  0  0  0  0  0  0  0
  -24.8476  -32.1243   22.2635 C   0  0  1  0  0  0  0  0  0  0  0  0
  -23.1178  -15.0760   22.3697 C   0  0  2  0  0  0  0  0  0  0  0  0
  -26.2628  -18.2024   18.2727 C   0  0  0  0  0  0  0  0  0  0  0  0
  -32.8199  -23.4754   20.0479 C   0  0  0  0  0  0  0  0  0  0  0  0
  -18.6380  -27.5898   21.3241 C   0  0  0  0  0  0  0  0  0  0  0  0
  -22.9748  -29.8210   25.8058 C   0  0  0  0  0  0  0  0  0  0  0  0
  -21.1336  -28.2334   25.2074 C   0  0  0  0  0  0  0  0  0  0  0  0
  -20.7165  -30.6927   25.1774 C   0  0  0  0  0  0  0  0  0  0  0  0
  -20.9737  -28.8377   18.5923 C   0  0  0  0  0  0  0  0  0  0  0  0
  -26.4459  -24.7001   16.1691 C   0  0  0  0  0  0  0  0  0  0  0  0
  -28.8877  -21.2261   16.5977 C   0  0  0  0  0  0  0  0  0  0  0  0
  -29.6974  -27.3616   19.3026 C   0  0  0  0  0  0  0  0  0  1  0  0
  -22.1441  -29.6555   23.3668 C   0  0  1  0  0  0  0  0  0  0  0  0
  -19.7013  -28.4892   20.7131 C   0  0  2  0  0  0  0  0  0  0  0  0
  -21.7662  -29.6014   24.8740 C   0  0  0  0  0  0  0  0  0  0  0  0
  -22.6321  -12.6570   22.3183 N   0  0  0  0  0  0  0  0  0  0  0  0
  -30.2955  -25.9821   19.2254 N   0  0  0  0  0  0  0  0  0  0  0  0
  -22.8820  -13.7460   23.0651 N   0  0  0  0  0  0  0  0  0  0  0  0
  -24.0927  -30.8858   22.4652 N   0  0  0  0  0  0  0  0  0  0  0  0
  -23.9204  -16.1029   20.2539 N   0  0  0  0  0  0  0  0  0  0  0  0
  -23.1272  -14.4870   25.3015 N   0  0  0  0  0  0  0  0  0  0  0  0
  -21.2926  -11.3601   26.4202 N   0  0  0  0  0  0  0  0  0  0  0  0
  -25.8857  -33.6546   23.8250 N   0  0  0  0  0  0  0  0  0  0  0  0
  -21.0145  -29.4778   22.4608 N   0  0  0  0  0  0  0  0  0  0  0  0
  -25.0948  -17.6528   18.9165 N   0  0  0  0  0  0  0  0  0  0  0  0
  -27.7542  -20.4807   17.2472 N   0  3  0  0  0  0  0  0  0  0  0  0
  -19.9638  -28.0275   19.3207 N   0  3  0  0  0  0  0  0  0  0  0  0
  -23.5423  -10.9246   26.3320 O   0  0  0  0  0  0  0  0  0  0  0  0
  -26.1305  -31.3541   24.0900 O   0  0  0  0  0  0  0  0  0  0  0  0
  -22.1642  -32.0155   23.1292 O   0  0  0  0  0  0  0  0  0  0  0  0
  -21.8632  -27.6237   21.3568 O   0  0  0  0  0  0  0  0  0  0  0  0
  -26.2083  -15.8929   19.8917 O   0  0  0  0  0  0  0  0  0  0  0  0
  -21.3600   -6.4567   21.6181 O   0  0  0  0  0  0  0  0  0  0  0  0
  -27.2492  -23.5304   16.3000 O   0  0  0  0  0  0  0  0  0  0  0  0
  -28.5590  -27.3049   20.1669 O   0  0  0  0  0  0  0  0  0  1  0  0
  -22.0055   -2.4406   25.3408 F   0  0  0  0  0  0  0  0  0  0  0  0
  -23.1377   -4.3860   21.1768 F   0  0  0  0  0  0  0  0  0  0  0  0
  1  2  1  0  0  0  0
  1  5  2  0  0  0  0
  2  6  2  0  0  0  0
  3  8  2  0  0  0  0
  3 19  1  0  0  0  0
  4  9  1  0  0  0  0
  4 19  2  0  0  0  0
  5 21  1  0  0  0  0
  6 23  1  0  0  0  0
  7 10  2  0  0  0  0
  7 22  1  0  0  0  0
  8 28  1  0  0  0  0
  9 28  2  0  0  0  0
 10 29  1  0  0  0  0
 11 12  2  0  0  0  0
 11 30  1  0  0  0  0
 12 32  1  0  0  0  0
 13 18  1  0  0  0  0
 13 25  2  0  0  0  0
 14 24  1  0  0  0  0
 14 29  2  0  0  0  0
 15 27  1  0  0  0  0
 15 31  2  0  0  0  0
 16 32  2  0  0  0  0
 16 33  1  0  0  0  0
 17 26  2  0  0  0  0
 17 71  1  0  0  0  0
 18 26  1  0  0  0  0
 18 27  2  0  0  0  0
 19 34  1  0  0  0  0
 20 34  1  0  0  0  0
 20 35  2  0  0  0  0
 20 36  1  0  0  0  0
 21 23  2  0  0  0  0
 21 41  1  0  0  0  0
 22 24  2  0  0  0  0
 22 42  1  0  0  0  0
 23 54  1  0  0  0  0
 24 43  1  0  0  0  0
 25 31  1  0  0  0  0
 25 65  1  0  0  0  0
 26 58  1  0  0  0  0
 27 71  1  0  0  0  0
 28 87  1  0  0  0  0
 29 89  1  0  0  0  0
 30 33  2  0  0  0  0
 30 87  1  0  0  0  0
 31 88  1  0  0  0  0
 32 90  1  0  0  0  0
 33 91  1  0  0  0  0
 34 70  2  0  0  0  0
 35 72  1  0  0  0  0
 35 75  1  0  0  0  0
 36 76  1  0  0  0  0
 36 82  2  0  0  0  0
 37 55  1  0  0  0  0
 37 77  1  0  0  0  0
 37 83  2  0  0  0  0
 38 67  1  0  0  0  0
 38 73  1  0  0  0  0
 38 84  2  0  0  0  0
 39 68  1  0  0  0  0
 39 78  1  0  0  0  0
 39 85  2  0  0  0  0
 40 74  1  0  0  0  0
 40 79  1  0  0  0  0
 40 86  2  0  0  0  0
 41 44  1  0  0  0  0
 42 55  1  0  0  0  0
 43 73  1  0  0  0  0
 44 46  1  0  0  0  0
 45 47  1  0  0  0  0
 45 50  1  0  0  0  0
 46 54  1  0  0  0  0
 47 56  1  0  0  0  0
 48 52  1  0  0  0  0
 48 57  1  0  0  0  0
 49 53  1  0  0  0  0
 49 57  1  0  0  0  0
 50 74  1  0  0  0  0
 51 56  1  0  0  0  0
 51 74  1  0  0  0  0
 52 80  1  0  0  0  0
 53 80  1  0  0  0  0
 54 77  1  0  0  0  0
 55 73  1  0  0  0  0
 56 72  1  0  0  0  0
 57 79  1  0  0  0  0
 59 68  1  0  0  0  0
 60 69  1  0  0  0  0
 61 69  1  0  0  0  0
 62 69  1  0  0  0  0
 63 81  1  0  0  0  0
 64 88  1  0  0  0  0
 65 80  1  0  0  0  0
 66 71  1  0  0  0  0
 66 89  1  0  0  0  0
 67 69  1  0  0  0  0
 67 78  1  0  0  0  0
 68 81  1  0  0  0  0
 70 72  1  0  0  0  0
M  CHG  2  80   1  81   1
M  ISO  4  40 100  66 101  79 100  89 101
M  END
> <Batch ID>
0169

> <Smiles>
CNC(C)C(=O)NC(C(=O)N1Cc2cc([101O:1][101CH2:1]n3cc(C)c4cc(CN5CCC([100NH:0][100C:0](=O)N6CCCC(n7nc(-c8ccc(Oc9ccc(F)cc9F)cc8)c(C(N)=O)c7N)C6)CC5)c(OC)cc43)ccc2CC1C(=O)NC1CCCc2ccccc21)C(C)(C)C

> <Shape>
0.282

> <Color>
0.077

> <Negative vol penalty>
0.000

$$$$

  -OEChem-04052322323D

 88 97  0     1  0  0  0  0  0999 V2000
  -39.7063  -26.8172   15.3441 C   0  0  0  0  0  0  0  0  0  0  0  0
  -39.0460  -26.4459   16.5109 C   0  0  0  0  0  0  0  0  0  0  0  0
  -22.9389  -10.0679   19.9120 C   0  0  0  0  0  0  0  0  0  0  0  0
  -23.8075   -9.8059   22.1512 C   0  0  0  0  0  0  0  0  0  0  0  0
  -39.2563  -27.9125   14.6081 C   0  0  0  0  0  0  0  0  0  0  0  0
  -37.9358  -27.1706   16.9432 C   0  0  0  0  0  0  0  0  0  0  0  0
  -34.1238  -24.1849   18.4259 C   0  0  0  0  0  0  0  0  0  0  0  0
  -22.1480   -8.9322   20.0859 C   0  0  0  0  0  0  0  0  0  0  0  0
  -23.0166   -8.6701   22.3251 C   0  0  0  0  0  0  0  0  0  0  0  0
  -34.2256  -23.6018   19.6882 C   0  0  0  0  0  0  0  0  0  0  0  0
  -23.1044   -5.4118   21.4273 C   0  0  0  0  0  0  0  0  0  0  0  0
  -23.6986   -4.2907   22.0066 C   0  0  0  0  0  0  0  0  0  0  0  0
  -31.8558  -18.7294   21.8940 C   0  0  0  0  0  0  0  0  0  0  0  0
  -32.7578  -25.2947   20.5819 C   0  0  0  0  0  0  0  0  0  0  0  0
  -22.0928   -4.3713   23.8099 C   0  0  0  0  0  0  0  0  0  0  0  0
  -23.7687  -10.5047   20.9446 C   0  0  0  0  0  0  0  0  0  0  0  0
  -24.2374  -13.0098   21.0569 C   0  0  0  0  0  0  0  0  0  0  0  0
  -38.1342  -28.6451   15.0264 C   0  0  0  0  0  0  0  0  0  0  0  0
  -33.3456  -25.3356   18.2340 C   0  0  0  0  0  0  0  0  0  0  0  0
  -37.4712  -28.2777   16.2129 C   0  0  0  0  0  0  0  0  0  0  0  0
  -31.2740  -17.5830   21.3528 C   0  0  0  0  0  0  0  0  0  0  0  0
  -32.6457  -25.8890   19.3157 C   0  0  0  0  0  0  0  0  0  0  0  0
  -32.0618  -18.8237   23.2704 C   0  0  0  0  0  0  0  0  0  0  0  0
  -31.6859  -17.7717   24.1055 C   0  0  0  0  0  0  0  0  0  0  0  0
  -31.1041  -16.6252   23.5644 C   0  0  0  0  0  0  0  0  0  0  0  0
  -30.8982  -16.5309   22.1880 C   0  0  0  0  0  0  0  0  0  0  0  0
  -22.1868   -8.2333   21.2924 C   0  0  0  0  0  0  0  0  0  0  0  0
  -33.5449  -24.1584   20.7670 C   0  0  0  0  0  0  0  0  0  0  0  0
  -22.0044   -6.0127   22.0393 C   0  0  0  0  0  0  0  0  0  0  0  0
  -23.1929   -3.7704   23.1979 C   0  0  0  0  0  0  0  0  0  0  0  0
  -21.4986   -5.4925   23.2306 C   0  0  0  0  0  0  0  0  0  0  0  0
  -24.5864  -11.6775   20.7654 C   0  0  0  0  0  0  0  0  0  0  0  0
  -25.3489  -13.7392   20.7120 C   0  0  0  0  0  0  0  0  0  0  0  0
  -23.0175  -13.5405   21.5917 C   0  0  0  0  0  0  0  0  0  0  0  0
  -33.9394  -28.3147   17.2981 C   0  0  0  0  0  0  0  0  0  0  0  0
  -30.7082  -28.5790   17.4083 C   0  0  0  0  0  0  0  0  0  0  0  0
  -27.7509  -27.4514   18.6849 C   0  0  0  0  0  0  0  0  0  0  0  0
  -30.8647  -14.4995   20.6985 C   0  0  0  0  0  0  0  0  0  0  0  0
  -37.7135  -29.8504   14.2232 C   0  0  0  0  0  0  0  0  0  0  0  0
  -33.2247  -25.9369   16.8607 C   0  0  0  0  0  0  0  0  0  0  0  0
  -31.7808  -27.1119   19.1583 C   0  0  0  0  0  0  0  0  0  0  0  0
  -36.3039  -30.3375   14.5487 C   0  0  0  0  0  0  0  0  0  0  0  0
  -29.5117  -12.3943   18.1657 C   0  0  0  0  0  0  0  0  0  0  0  0
  -30.2816  -18.5997   19.1952 C   0  0  0  0  0  0  0  0  0  0  0  0
  -29.6842  -17.2356   19.3453 C   0  0  0  0  0  0  0  0  0  0  0  0
  -36.0989  -30.4081   16.0586 C   0  0  0  0  0  0  0  0  0  0  0  0
  -28.0810  -12.1298   18.6403 C   0  0  0  0  0  0  0  0  0  0  0  0
  -30.4944  -12.4561   19.3338 C   0  0  0  0  0  0  0  0  0  0  0  0
  -28.6970  -13.1269   20.8793 C   0  0  0  0  0  0  0  0  0  0  0  0
  -31.0657  -17.5100   19.8750 C   0  0  0  0  0  0  0  0  0  0  0  0
  -36.2484  -29.0237   16.7010 C   0  0  1  0  0  0  0  0  0  0  0  0
  -32.8157  -27.4064   16.8857 C   0  0  1  0  0  0  0  0  0  0  0  0
  -27.6609  -13.1207   19.7435 C   0  0  2  0  0  0  0  0  0  0  0  0
  -31.9082  -17.8760   25.5813 C   0  0  0  0  0  0  0  0  0  0  0  0
  -30.7024  -15.4986   24.4648 C   0  0  0  0  0  0  0  0  0  0  0  0
  -34.2181  -19.9995   23.8709 C   0  0  0  0  0  0  0  0  0  0  0  0
  -25.2811  -27.8906   18.6175 C   0  0  0  0  0  0  0  0  0  0  0  0
  -31.2805  -22.6750   24.8034 C   0  0  0  0  0  0  0  0  0  0  0  0
  -31.0937  -31.0101   19.2114 C   0  0  0  0  0  0  0  0  0  0  0  0
  -28.6843  -30.8204   19.8648 C   0  0  0  0  0  0  0  0  0  0  0  0
  -29.2991  -31.2635   17.4882 C   0  0  0  0  0  0  0  0  0  0  0  0
  -27.1831  -24.7535   17.6089 C   0  0  0  0  0  0  0  0  0  0  0  0
  -32.5194  -23.7282   22.8692 C   0  0  0  0  0  0  0  0  0  1  0  0
  -32.6940  -20.0768   23.8308 C   0  0  1  0  0  0  0  0  0  0  0  0
  -29.7027  -28.9669   18.4654 C   0  0  1  0  0  0  0  0  0  0  0  0
  -26.4337  -27.1010   18.0167 C   0  0  2  0  0  0  0  0  0  0  0  0
  -32.4600  -22.5635   23.8511 C   0  0  2  0  0  0  0  0  0  0  0  0
  -29.7127  -30.4933   18.7611 C   0  0  0  0  0  0  0  0  0  0  0  0
  -25.8228  -11.5643   20.2731 N   0  0  0  0  0  0  0  0  0  0  0  0
  -26.2604  -12.8348   20.2525 N   0  0  0  0  0  0  0  0  0  0  0  0
  -31.6996  -27.6670   17.7971 N   0  0  0  0  0  0  0  0  0  0  0  0
  -30.0335  -13.4181   20.3372 N   0  0  0  0  0  0  0  0  0  0  0  0
  -25.6256  -15.0597   20.7600 N   0  0  0  0  0  0  0  0  0  0  0  0
  -21.9764  -12.6512   21.8907 N   0  0  0  0  0  0  0  0  0  0  0  0
  -30.3073  -15.3666   21.6376 N   0  0  0  0  0  0  0  0  0  0  0  0
  -35.0543  -28.2350   16.4856 N   0  0  0  0  0  0  0  0  0  0  0  0
  -28.4145  -28.4548   18.0109 N   0  0  0  0  0  0  0  0  0  0  0  0
  -26.1420  -25.6483   18.1767 N   0  3  0  0  0  0  0  0  0  0  0  0
  -32.3136  -21.2976   23.0757 N   0  3  0  0  0  0  0  0  0  0  0  0
  -22.8497  -14.7688   21.7830 O   0  0  0  0  0  0  0  0  0  0  0  0
  -33.8043  -29.0356   18.2798 O   0  0  0  0  0  0  0  0  0  0  0  0
  -30.6132  -29.0618   16.2771 O   0  0  0  0  0  0  0  0  0  0  0  0
  -28.1495  -26.8936   19.7050 O   0  0  0  0  0  0  0  0  0  0  0  0
  -31.9774  -14.6606   20.1905 O   0  0  0  0  0  0  0  0  0  0  0  0
  -21.4150   -7.1252   21.4625 O   0  0  0  0  0  0  0  0  0  0  0  0
  -33.6431  -23.5916   22.0003 O   0  0  0  0  0  0  0  0  0  1  0  0
  -23.7627   -2.6929   23.7532 F   0  0  0  0  0  0  0  0  0  0  0  0
  -20.4413   -6.0648   23.8226 F   0  0  0  0  0  0  0  0  0  0  0  0
  1  2  1  0  0  0  0
  1  5  2  0  0  0  0
  2  6  2  0  0  0  0
  3  8  2  0  0  0  0
  3 16  1  0  0  0  0
  4  9  1  0  0  0  0
  4 16  2  0  0  0  0
  5 18  1  0  0  0  0
  6 20  1  0  0  0  0
  7 10  2  0  0  0  0
  7 19  1  0  0  0  0
  8 27  1  0  0  0  0
  9 27  2  0  0  0  0
 10 28  1  0  0  0  0
 11 12  2  0  0  0  0
 11 29  1  0  0  0  0
 12 30  1  0  0  0  0
 13 21  2  0  0  0  0
 13 23  1  0  0  0  0
 14 22  1  0  0  0  0
 14 28  2  0  0  0  0
 15 30  2  0  0  0  0
 15 31  1  0  0  0  0
 16 32  1  0  0  0  0
 17 32  1  0  0  0  0
 17 33  2  0  0  0  0
 17 34  1  0  0  0  0
 18 20  2  0  0  0  0
 18 39  1  0  0  0  0
 19 22  2  0  0  0  0
 19 40  1  0  0  0  0
 20 51  1  0  0  0  0
 21 26  1  0  0  0  0
 21 50  1  0  0  0  0
 22 41  1  0  0  0  0
 23 24  2  0  0  0  0
 23 64  1  0  0  0  0
 24 25  1  0  0  0  0
 24 54  1  0  0  0  0
 25 26  2  0  0  0  0
 25 55  1  0  0  0  0
 26 75  1  0  0  0  0
 27 85  1  0  0  0  0
 28 86  1  0  0  0  0
 29 31  2  0  0  0  0
 29 85  1  0  0  0  0
 30 87  1  0  0  0  0
 31 88  1  0  0  0  0
 32 69  2  0  0  0  0
 33 70  1  0  0  0  0
 33 73  1  0  0  0  0
 34 74  1  0  0  0  0
 34 80  2  0  0  0  0
 35 52  1  0  0  0  0
 35 76  1  0  0  0  0
 35 81  2  0  0  0  0
 36 65  1  0  0  0  0
 36 71  1  0  0  0  0
 36 82  2  0  0  0  0
 37 66  1  0  0  0  0
 37 77  1  0  0  0  0
 37 83  2  0  0  0  0
 38 72  1  0  0  0  0
 38 75  1  0  0  0  0
 38 84  2  0  0  0  0
 39 42  1  0  0  0  0
 40 52  1  0  0  0  0
 41 71  1  0  0  0  0
 42 46  1  0  0  0  0
 43 47  1  0  0  0  0
 43 48  1  0  0  0  0
 44 45  1  0  0  0  0
 44 50  1  0  0  0  0
 45 50  1  0  0  0  0
 46 51  1  0  0  0  0
 47 53  1  0  0  0  0
 48 72  1  0  0  0  0
 49 53  1  0  0  0  0
 49 72  1  0  0  0  0
 51 76  1  0  0  0  0
 52 71  1  0  0  0  0
 53 70  1  0  0  0  0
 56 64  1  0  0  0  0
 57 66  1  0  0  0  0
 58 67  1  0  0  0  0
 59 68  1  0  0  0  0
 60 68  1  0  0  0  0
 61 68  1  0  0  0  0
 62 78  1  0  0  0  0
 63 67  1  0  0  0  0
 63 86  1  0  0  0  0
 64 79  1  0  0  0  0
 65 68  1  0  0  0  0
 65 77  1  0  0  0  0
 66 78  1  0  0  0  0
 67 79  1  0  0  0  0
 69 70  1  0  0  0  0
M  CHG  2  78   1  79   1
M  ISO  4  38 100  63 101  75 100  86 101
M  END
> <Batch ID>
0169

> <Smiles>
CNC(C)C(=O)NC(C(=O)N1Cc2cc([101O:1][101CH2:1]C(C)NC(C)c3cc(C4CC4)c([100NH:0][100C:0](=O)N4CCCC(n5nc(-c6ccc(Oc7ccc(F)cc7F)cc6)c(C(N)=O)c5N)C4)c(C)c3C)ccc2CC1C(=O)NC1CCCc2ccccc21)C(C)(C)C

> <Shape>
0.220

> <Color>
0.203

> <Negative vol penalty>
0.000

$$$$

  -OEChem-04052322323D

 87 96  0     1  0  0  0  0  0999 V2000
  -23.4776  -21.0652   17.8110 C   0  0  0  0  0  0  0  0  0  0  0  0
  -24.7884  -20.7689   18.1704 C   0  0  0  0  0  0  0  0  0  0  0  0
  -23.2901   -9.7881   19.9028 C   0  0  0  0  0  0  0  0  0  0  0  0
  -23.7364   -9.9197   22.2736 C   0  0  0  0  0  0  0  0  0  0  0  0
  -23.1760  -22.2976   17.2331 C   0  0  0  0  0  0  0  0  0  0  0  0
  -25.7988  -21.7046   17.9511 C   0  0  0  0  0  0  0  0  0  0  0  0
  -28.9022  -22.1798   21.9246 C   0  0  0  0  0  0  0  0  0  0  0  0
  -22.5657   -8.6134   20.1043 C   0  0  0  0  0  0  0  0  0  0  0  0
  -23.0118   -8.7449   22.4752 C   0  0  0  0  0  0  0  0  0  0  0  0
  -29.8675  -21.1894   22.1005 C   0  0  0  0  0  0  0  0  0  0  0  0
  -20.9758   -5.9759   23.6607 C   0  0  0  0  0  0  0  0  0  0  0  0
  -20.0723   -5.9445   24.7229 C   0  0  0  0  0  0  0  0  0  0  0  0
  -32.8034  -15.3353   23.7147 C   0  0  0  0  0  0  0  0  0  0  0  0
  -31.5227  -22.6342   21.1045 C   0  0  0  0  0  0  0  0  0  0  0  0
  -30.7495  -16.5352   25.1722 C   0  0  0  0  0  0  0  0  0  0  0  0
  -18.8611   -7.7934   23.7474 C   0  0  0  0  0  0  0  0  0  0  0  0
  -23.8756  -10.4413   20.9875 C   0  0  0  0  0  0  0  0  0  0  0  0
  -24.1305  -12.9726   20.7999 C   0  0  0  0  0  0  0  0  0  0  0  0
  -24.1816  -23.2527   17.0155 C   0  0  0  0  0  0  0  0  0  0  0  0
  -29.2380  -23.4028   21.3263 C   0  0  0  0  0  0  0  0  0  0  0  0
  -25.5106  -22.9505   17.3686 C   0  0  0  0  0  0  0  0  0  0  0  0
  -32.8706  -16.6933   24.0263 C   0  0  0  0  0  0  0  0  0  0  0  0
  -30.5604  -23.6395   20.9244 C   0  0  0  0  0  0  0  0  0  0  0  0
  -31.7093  -14.5773   24.1318 C   0  0  0  0  0  0  0  0  0  0  0  0
  -31.8436  -17.2932   24.7550 C   0  0  0  0  0  0  0  0  0  0  0  0
  -30.6823  -15.1772   24.8605 C   0  0  0  0  0  0  0  0  0  0  0  0
  -22.4264   -8.0918   21.3905 C   0  0  0  0  0  0  0  0  0  0  0  0
  -31.1774  -21.4154   21.6879 C   0  0  0  0  0  0  0  0  0  0  0  0
  -20.8220   -6.9161   22.6418 C   0  0  0  0  0  0  0  0  0  0  0  0
  -19.0149   -6.8531   24.7663 C   0  0  0  0  0  0  0  0  0  0  0  0
  -19.7646   -7.8248   22.6852 C   0  0  0  0  0  0  0  0  0  0  0  0
  -24.6246  -11.6545   20.7799 C   0  0  0  0  0  0  0  0  0  0  0  0
  -25.2309  -13.7556   20.5502 C   0  0  0  0  0  0  0  0  0  0  0  0
  -22.7961  -13.4467   21.0243 C   0  0  0  0  0  0  0  0  0  0  0  0
  -28.3306  -24.9364   18.6941 C   0  0  0  0  0  0  0  0  0  0  0  0
  -30.1852  -27.3065   19.9045 C   0  0  0  0  0  0  0  0  0  0  0  0
  -32.7779  -28.2072   21.9326 C   0  0  0  0  0  0  0  0  0  0  0  0
  -31.1020  -12.9203   21.3770 C   0  0  0  0  0  0  0  0  0  0  0  0
  -23.8151  -24.5527   16.3445 C   0  0  0  0  0  0  0  0  0  0  0  0
  -28.1910  -24.4710   21.1680 C   0  0  0  0  0  0  0  0  0  0  0  0
  -30.9768  -24.9431   20.2954 C   0  0  0  0  0  0  0  0  0  0  0  0
  -24.8817  -25.6351   16.4898 C   0  0  0  0  0  0  0  0  0  0  0  0
  -29.4573  -13.6695   18.3094 C   0  0  0  0  0  0  0  0  0  0  0  0
  -26.2641  -25.0665   16.1852 C   0  0  0  0  0  0  0  0  0  0  0  0
  -27.9876  -13.3569   18.5965 C   0  0  0  0  0  0  0  0  0  0  0  0
  -34.8556  -16.9872   22.3972 C   0  0  0  0  0  0  0  0  0  0  0  0
  -30.3911  -12.6889   19.0153 C   0  0  0  0  0  0  0  0  0  0  0  0
  -28.7022  -12.2490   20.7554 C   0  0  0  0  0  0  0  0  0  0  0  0
  -34.0428  -17.4810   23.5717 C   0  0  1  0  0  0  0  0  0  0  0  0
  -26.6301  -23.9491   17.1695 C   0  0  1  0  0  0  0  0  0  0  0  0
  -28.5307  -25.4839   20.0790 C   0  0  1  0  0  0  0  0  0  0  0  0
  -27.7235  -13.2450   20.1101 C   0  0  2  0  0  0  0  0  0  0  0  0
  -34.0259  -18.2359   22.2449 C   0  0  1  0  0  0  0  0  0  0  0  0
  -31.8925  -18.7452   25.1023 C   0  0  0  0  0  0  0  0  0  0  0  0
  -29.5013  -14.3860   25.3187 C   0  0  0  0  0  0  0  0  0  0  0  0
  -34.7465  -19.5583   22.1933 C   0  0  0  0  0  0  0  0  0  0  0  0
  -34.0841  -30.2127   22.6869 C   0  0  0  0  0  0  0  0  0  0  0  0
  -33.1748  -18.4660   19.9079 C   0  0  0  0  0  0  0  0  0  0  0  0
  -31.6519  -27.3544   17.2294 C   0  0  0  0  0  0  0  0  0  0  0  0
  -33.4885  -28.6448   18.3386 C   0  0  0  0  0  0  0  0  0  0  0  0
  -31.1919  -29.6097   18.2073 C   0  0  0  0  0  0  0  0  0  0  0  0
  -32.0019  -27.7944   24.7586 C   0  0  0  0  0  0  0  0  0  0  0  0
  -31.6591  -13.1250   23.7868 C   0  0  0  0  0  0  0  0  0  0  0  0
  -31.6777  -19.0943   21.8228 C   0  0  0  0  0  0  0  0  0  1  0  0
  -31.6409  -27.6894   19.7894 C   0  0  1  0  0  0  0  0  0  0  0  0
  -32.9051  -29.2981   22.9805 C   0  0  2  0  0  0  0  0  0  0  0  0
  -32.7970  -18.1658   21.3368 C   0  0  2  0  0  0  0  0  0  0  0  0
  -31.9853  -28.2992   18.4012 C   0  0  0  0  0  0  0  0  0  0  0  0
  -25.9367  -11.5994   20.5365 N   0  0  0  0  0  0  0  0  0  0  0  0
  -26.2765  -12.8926   20.4012 N   0  0  0  0  0  0  0  0  0  0  0  0
  -29.9154  -25.9539   20.1563 N   0  0  0  0  0  0  0  0  0  0  0  0
  -30.0894  -12.6309   20.4476 N   0  0  0  0  0  0  0  0  0  0  0  0
  -25.3965  -15.0913   20.4457 N   0  0  0  0  0  0  0  0  0  0  0  0
  -21.7849  -12.5068   21.2660 N   0  0  0  0  0  0  0  0  0  0  0  0
  -27.0416  -24.5086   18.4391 N   0  0  0  0  0  0  0  0  0  0  0  0
  -31.9210  -28.5728   20.9162 N   0  0  0  0  0  0  0  0  0  0  0  0
  -30.7300  -12.8485   22.7139 N   0  0  0  0  0  0  0  0  0  0  0  0
  -33.1001  -28.6989   24.3311 N   0  3  0  0  0  0  0  0  0  0  0  0
  -22.5060  -14.6667   20.9946 O   0  0  0  0  0  0  0  0  0  0  0  0
  -29.2753  -24.9057   17.9142 O   0  0  0  0  0  0  0  0  0  0  0  0
  -29.3195  -28.1769   19.7829 O   0  0  0  0  0  0  0  0  0  0  0  0
  -33.3815  -27.1391   22.0064 O   0  0  0  0  0  0  0  0  0  0  0  0
  -32.2511  -13.2257   21.0402 O   0  0  0  0  0  0  0  0  0  0  0  0
  -21.7193   -6.9456   21.5875 O   0  0  0  0  0  0  0  0  0  0  0  0
  -32.1215  -20.4502   21.8578 O   0  0  0  0  0  0  0  0  0  1  0  0
  -18.1465   -6.8218   25.7856 F   0  0  0  0  0  0  0  0  0  0  0  0
  -19.6110   -8.7296   21.7087 F   0  0  0  0  0  0  0  0  0  0  0  0
  1  2  1  0  0  0  0
  1  5  2  0  0  0  0
  2  6  2  0  0  0  0
  3  8  2  0  0  0  0
  3 17  1  0  0  0  0
  4  9  1  0  0  0  0
  4 17  2  0  0  0  0
  5 19  1  0  0  0  0
  6 21  1  0  0  0  0
  7 10  2  0  0  0  0
  7 20  1  0  0  0  0
  8 27  1  0  0  0  0
  9 27  2  0  0  0  0
 10 28  1  0  0  0  0
 11 12  2  0  0  0  0
 11 29  1  0  0  0  0
 12 30  1  0  0  0  0
 13 22  1  0  0  0  0
 13 24  2  0  0  0  0
 14 23  1  0  0  0  0
 14 28  2  0  0  0  0
 15 25  1  0  0  0  0
 15 26  2  0  0  0  0
 16 30  2  0  0  0  0
 16 31  1  0  0  0  0
 17 32  1  0  0  0  0
 18 32  1  0  0  0  0
 18 33  2  0  0  0  0
 18 34  1  0  0  0  0
 19 21  2  0  0  0  0
 19 39  1  0  0  0  0
 20 23  2  0  0  0  0
 20 40  1  0  0  0  0
 21 50  1  0  0  0  0
 22 25  2  0  0  0  0
 22 49  1  0  0  0  0
 23 41  1  0  0  0  0
 24 26  1  0  0  0  0
 24 63  1  0  0  0  0
 25 54  1  0  0  0  0
 26 55  1  0  0  0  0
 27 84  1  0  0  0  0
 28 85  1  0  0  0  0
 29 31  2  0  0  0  0
 29 84  1  0  0  0  0
 30 86  1  0  0  0  0
 31 87  1  0  0  0  0
 32 69  2  0  0  0  0
 33 70  1  0  0  0  0
 33 73  1  0  0  0  0
 34 74  1  0  0  0  0
 34 79  2  0  0  0  0
 35 51  1  0  0  0  0
 35 75  1  0  0  0  0
 35 80  2  0  0  0  0
 36 65  1  0  0  0  0
 36 71  1  0  0  0  0
 36 81  2  0  0  0  0
 37 66  1  0  0  0  0
 37 76  1  0  0  0  0
 37 82  2  0  0  0  0
 38 72  1  0  0  0  0
 38 77  1  0  0  0  0
 38 83  2  0  0  0  0
 39 42  1  0  0  0  0
 40 51  1  0  0  0  0
 41 71  1  0  0  0  0
 42 44  1  0  0  0  0
 43 45  1  0  0  0  0
 43 47  1  0  0  0  0
 44 50  1  0  0  0  0
 45 52  1  0  0  0  0
 46 49  1  0  0  0  0
 46 53  1  0  0  0  0
 47 72  1  0  0  0  0
 48 52  1  0  0  0  0
 48 72  1  0  0  0  0
 49 53  1  0  0  0  0
 50 75  1  0  0  0  0
 51 71  1  0  0  0  0
 52 70  1  0  0  0  0
 53 56  1  0  0  0  0
 53 67  1  0  0  0  0
 57 66  1  0  0  0  0
 58 67  1  0  0  0  0
 59 68  1  0  0  0  0
 60 68  1  0  0  0  0
 61 68  1  0  0  0  0
 62 78  1  0  0  0  0
 63 77  1  0  0  0  0
 64 67  1  0  0  0  0
 64 85  1  0  0  0  0
 65 68  1  0  0  0  0
 65 76  1  0  0  0  0
 66 78  1  0  0  0  0
 69 70  1  0  0  0  0
M  CHG  1  78   1
M  ISO  4  38 100  64 101  77 100  85 101
M  END
> <Batch ID>
0169

> <Smiles>
CNC(C)C(=O)NC(C(=O)N1Cc2cc([101O:1][101CH2:1]C(C)C3(C)CC3c3cc(C[100NH:0][100C:0](=O)N4CCCC(n5nc(-c6ccc(Oc7ccc(F)cc7F)cc6)c(C(N)=O)c5N)C4)c(C)cc3C)ccc2CC1C(=O)NC1CCCc2ccccc21)C(C)(C)C

> <Shape>
0.195

> <Color>
0.179

> <Negative vol penalty>
0.000

$$$$

  -OEChem-04052322323D

 89 99  0     1  0  0  0  0  0999 V2000
  -26.3090  -28.9634   20.1691 C   0  0  0  0  0  0  0  0  0  0  0  0
  -25.6412  -27.8621   20.6951 C   0  0  0  0  0  0  0  0  0  0  0  0
  -27.6778  -17.2309   18.9892 C   0  0  0  0  0  0  0  0  0  0  0  0
  -27.3729  -17.6617   21.3468 C   0  0  0  0  0  0  0  0  0  0  0  0
  -25.9470  -30.2506   20.5640 C   0  0  0  0  0  0  0  0  0  0  0  0
  -24.6117  -28.0474   21.6172 C   0  0  0  0  0  0  0  0  0  0  0  0
  -20.5715  -25.1602   20.6246 C   0  0  0  0  0  0  0  0  0  0  0  0
  -28.3180  -18.4619   18.8470 C   0  0  0  0  0  0  0  0  0  0  0  0
  -28.0133  -18.8927   21.2047 C   0  0  0  0  0  0  0  0  0  0  0  0
  -20.6448  -23.8160   20.9874 C   0  0  0  0  0  0  0  0  0  0  0  0
  -27.2422  -21.9870   20.0813 C   0  0  0  0  0  0  0  0  0  0  0  0
  -26.6605  -23.0950   20.6974 C   0  0  0  0  0  0  0  0  0  0  0  0
  -19.3450  -18.2976   25.9619 C   0  0  0  0  0  0  0  0  0  0  0  0
  -19.6943  -16.9215   24.0071 C   0  0  0  0  0  0  0  0  0  0  0  0
  -19.3580  -24.2880   22.9726 C   0  0  0  0  0  0  0  0  0  0  0  0
  -28.6634  -23.4168   22.0097 C   0  0  0  0  0  0  0  0  0  0  0  0
  -27.2051  -16.8308   20.2391 C   0  0  0  0  0  0  0  0  0  0  0  0
  -27.1391  -14.3209   20.6901 C   0  0  0  0  0  0  0  0  0  0  0  0
  -24.9062  -30.4522   21.4841 C   0  0  0  0  0  0  0  0  0  0  0  0
  -19.8990  -26.0819   21.4399 C   0  0  0  0  0  0  0  0  0  0  0  0
  -24.2364  -29.3385   22.0258 C   0  0  0  0  0  0  0  0  0  0  0  0
  -19.5408  -18.1814   24.5858 C   0  0  0  0  0  0  0  0  0  0  0  0
  -19.2754  -25.6428   22.6165 C   0  0  0  0  0  0  0  0  0  0  0  0
  -19.4563  -15.8941   26.1808 C   0  0  0  0  0  0  0  0  0  0  0  0
  -19.3028  -17.1540   26.7595 C   0  0  0  0  0  0  0  0  0  0  0  0
  -19.6520  -15.7778   24.8047 C   0  0  0  0  0  0  0  0  0  0  0  0
  -28.4858  -19.2928   19.9547 C   0  0  0  0  0  0  0  0  0  0  0  0
  -20.0405  -23.3803   22.1630 C   0  0  0  0  0  0  0  0  0  0  0  0
  -28.5344  -21.5938   20.4295 C   0  0  0  0  0  0  0  0  0  0  0  0
  -27.3711  -23.8099   21.6615 C   0  0  0  0  0  0  0  0  0  0  0  0
  -29.2450  -22.3087   21.3936 C   0  0  0  0  0  0  0  0  0  0  0  0
  -26.5431  -15.5596   20.3865 C   0  0  0  0  0  0  0  0  0  0  0  0
  -26.0913  -13.4333   20.7176 C   0  0  0  0  0  0  0  0  0  0  0  0
  -28.5167  -14.0012   20.9261 C   0  0  0  0  0  0  0  0  0  0  0  0
  -20.7460  -28.6888   23.0493 C   0  0  0  0  0  0  0  0  0  0  0  0
  -17.5559  -28.9171   23.5914 C   0  0  0  0  0  0  0  0  0  0  0  0
  -14.5339  -27.3461   23.8058 C   0  0  0  0  0  0  0  0  0  0  0  0
  -20.2266  -14.0786   21.7374 C   0  0  0  0  0  0  0  0  0  0  0  0
  -24.5822  -31.8603   21.9166 C   0  0  0  0  0  0  0  0  0  0  0  0
  -19.8061  -27.5235   21.0209 C   0  0  0  0  0  0  0  0  0  0  0  0
  -18.5241  -26.5885   23.5163 C   0  0  0  0  0  0  0  0  0  0  0  0
  -23.2305  -31.9873   22.6145 C   0  0  0  0  0  0  0  0  0  0  0  0
  -21.7555  -12.6988   18.8330 C   0  0  0  0  0  0  0  0  0  0  0  0
  -18.4258  -13.5825   26.6989 C   0  0  0  0  0  0  0  0  0  0  0  0
  -18.2099  -14.4339   27.9108 C   0  0  0  0  0  0  0  0  0  0  0  0
  -18.2668  -20.2046   23.8176 C   0  0  0  0  0  0  0  0  0  0  0  0
  -23.0637  -30.8884   23.6592 C   0  0  0  0  0  0  0  0  0  0  0  0
  -23.2096  -13.1638   18.9291 C   0  0  0  0  0  0  0  0  0  0  0  0
  -18.6421  -21.5886   24.3488 C   0  0  0  0  0  0  0  0  0  0  0  0
  -20.7876  -13.7632   19.3452 C   0  0  0  0  0  0  0  0  0  0  0  0
  -22.5292  -14.7240   20.8004 C   0  0  0  0  0  0  0  0  0  0  0  0
  -19.5861  -19.4053   23.7322 C   0  0  1  0  0  0  0  0  0  0  0  0
  -19.4109  -14.6679   27.0360 C   0  0  0  0  0  0  0  0  0  0  0  0
  -23.0979  -29.4998   23.0096 C   0  0  1  0  0  0  0  0  0  0  0  0
  -19.5351  -28.4685   22.1874 C   0  0  1  0  0  0  0  0  0  0  0  0
  -20.6957  -20.3843   24.1989 C   0  0  2  0  0  0  0  0  0  0  0  0
  -23.5462  -13.6625   20.3473 C   0  0  2  0  0  0  0  0  0  0  0  0
  -20.0970  -21.7741   23.9160 C   0  0  2  0  0  0  0  0  0  1  0  0
  -19.0919  -17.3080   28.2304 C   0  0  0  0  0  0  0  0  0  0  0  0
  -22.0318  -20.1033   23.5176 C   0  0  0  0  0  0  0  0  0  0  0  0
  -20.7826  -22.9077   24.6679 C   0  0  0  0  0  0  0  0  0  0  0  0
  -12.1143  -27.7891   24.3024 C   0  0  0  0  0  0  0  0  0  0  0  0
  -18.2009  -29.0881   26.5688 C   0  0  0  0  0  0  0  0  0  0  0  0
  -15.7981  -28.5729   27.0477 C   0  0  0  0  0  0  0  0  0  0  0  0
  -16.4025  -30.6466   25.7998 C   0  0  0  0  0  0  0  0  0  0  0  0
  -13.6977  -26.4560   21.1100 C   0  0  0  0  0  0  0  0  0  0  0  0
  -19.8192  -14.4413   24.1584 C   0  0  0  0  0  0  0  0  0  0  0  0
  -16.6123  -28.4037   24.6520 C   0  0  1  0  0  0  0  0  0  0  0  0
  -13.1765  -27.6889   23.2188 C   0  0  2  0  0  0  0  0  0  0  0  0
  -16.7692  -29.1601   26.0013 C   0  0  0  0  0  0  0  0  0  0  0  0
  -25.2194  -15.4708   20.2320 N   0  0  0  0  0  0  0  0  0  0  0  0
  -24.9749  -14.1657   20.4394 N   0  0  0  0  0  0  0  0  0  0  0  0
  -18.4667  -27.9892   23.0666 N   0  0  0  0  0  0  0  0  0  0  0  0
  -21.1615  -14.1920   20.6951 N   0  0  0  0  0  0  0  0  0  0  0  0
  -26.0253  -12.1055   20.9524 N   0  0  0  0  0  0  0  0  0  0  0  0
  -29.4630  -15.0329   20.8592 N   0  0  0  0  0  0  0  0  0  0  0  0
  -21.8319  -29.2090   22.3714 N   0  0  0  0  0  0  0  0  0  0  0  0
  -15.2733  -28.4778   24.0776 N   0  0  0  0  0  0  0  0  0  0  0  0
  -20.6641  -14.5016   22.9865 N   0  0  0  0  0  0  0  0  0  0  0  0
  -12.7554  -26.6442   22.2430 N   0  3  0  0  0  0  0  0  0  0  0  0
  -28.8993  -12.8322   21.1725 O   0  0  0  0  0  0  0  0  0  0  0  0
  -20.6981  -28.4091   24.2414 O   0  0  0  0  0  0  0  0  0  0  0  0
  -17.4828  -30.0962   23.2364 O   0  0  0  0  0  0  0  0  0  0  0  0
  -14.9000  -26.1902   24.0068 O   0  0  0  0  0  0  0  0  0  0  0  0
  -19.0884  -13.6283   21.5683 O   0  0  0  0  0  0  0  0  0  0  0  0
  -29.1108  -20.4940   19.8164 O   0  0  0  0  0  0  0  0  0  0  0  0
  -20.1111  -22.0690   22.5199 O   0  0  0  0  0  0  0  0  0  1  0  0
  -26.8130  -24.8749   22.2519 F   0  0  0  0  0  0  0  0  0  0  0  0
  -30.4873  -21.9365   21.7314 F   0  0  0  0  0  0  0  0  0  0  0  0
  1  2  1  0  0  0  0
  1  5  2  0  0  0  0
  2  6  2  0  0  0  0
  3  8  2  0  0  0  0
  3 17  1  0  0  0  0
  4  9  1  0  0  0  0
  4 17  2  0  0  0  0
  5 19  1  0  0  0  0
  6 21  1  0  0  0  0
  7 10  2  0  0  0  0
  7 20  1  0  0  0  0
  8 27  1  0  0  0  0
  9 27  2  0  0  0  0
 10 28  1  0  0  0  0
 11 12  2  0  0  0  0
 11 29  1  0  0  0  0
 12 30  1  0  0  0  0
 13 22  1  0  0  0  0
 13 25  2  0  0  0  0
 14 22  2  0  0  0  0
 14 26  1  0  0  0  0
 15 23  1  0  0  0  0
 15 28  2  0  0  0  0
 16 30  2  0  0  0  0
 16 31  1  0  0  0  0
 17 32  1  0  0  0  0
 18 32  1  0  0  0  0
 18 33  2  0  0  0  0
 18 34  1  0  0  0  0
 19 21  2  0  0  0  0
 19 39  1  0  0  0  0
 20 23  2  0  0  0  0
 20 40  1  0  0  0  0
 21 54  1  0  0  0  0
 22 52  1  0  0  0  0
 23 41  1  0  0  0  0
 24 25  1  0  0  0  0
 24 26  2  0  0  0  0
 24 53  1  0  0  0  0
 25 59  1  0  0  0  0
 26 67  1  0  0  0  0
 27 86  1  0  0  0  0
 28 87  1  0  0  0  0
 29 31  2  0  0  0  0
 29 86  1  0  0  0  0
 30 88  1  0  0  0  0
 31 89  1  0  0  0  0
 32 71  2  0  0  0  0
 33 72  1  0  0  0  0
 33 75  1  0  0  0  0
 34 76  1  0  0  0  0
 34 81  2  0  0  0  0
 35 55  1  0  0  0  0
 35 77  1  0  0  0  0
 35 82  2  0  0  0  0
 36 68  1  0  0  0  0
 36 73  1  0  0  0  0
 36 83  2  0  0  0  0
 37 69  1  0  0  0  0
 37 78  1  0  0  0  0
 37 84  2  0  0  0  0
 38 74  1  0  0  0  0
 38 79  1  0  0  0  0
 38 85  2  0  0  0  0
 39 42  1  0  0  0  0
 40 55  1  0  0  0  0
 41 73  1  0  0  0  0
 42 47  1  0  0  0  0
 43 48  1  0  0  0  0
 43 50  1  0  0  0  0
 44 45  1  0  0  0  0
 44 53  1  0  0  0  0
 45 53  1  0  0  0  0
 46 49  1  0  0  0  0
 46 52  1  0  0  0  0
 47 54  1  0  0  0  0
 48 57  1  0  0  0  0
 49 58  1  0  0  0  0
 50 74  1  0  0  0  0
 51 57  1  0  0  0  0
 51 74  1  0  0  0  0
 52 56  1  0  0  0  0
 54 77  1  0  0  0  0
 55 73  1  0  0  0  0
 56 58  1  0  0  0  0
 56 60  1  0  0  0  0
 57 72  1  0  0  0  0
 58 61  1  0  0  0  0
 58 87  1  0  0  0  0
 62 69  1  0  0  0  0
 63 70  1  0  0  0  0
 64 70  1  0  0  0  0
 65 70  1  0  0  0  0
 66 80  1  0  0  0  0
 67 79  1  0  0  0  0
 68 70  1  0  0  0  0
 68 78  1  0  0  0  0
 69 80  1  0  0  0  0
 71 72  1  0  0  0  0
M  CHG  1  80   1
M  ISO  4  38 100  58 101  79 100  87 101
M  END
> <Batch ID>
0169

> <Smiles>
CNC(C)C(=O)NC(C(=O)N1Cc2cc([101O:1][101C:1]3(C)CCC(c4cc(C)c(C5CC5)c(C[100NH:0][100C:0](=O)N5CCCC(n6nc(-c7ccc(Oc8ccc(F)cc8F)cc7)c(C(N)=O)c6N)C5)c4)C3C)ccc2CC1C(=O)NC1CCCc2ccccc21)C(C)(C)C

> <Shape>
0.224

> <Color>
0.087

> <Negative vol penalty>
0.000

$$$$

  -OEChem-04052322323D

 88 98  0     1  0  0  0  0  0999 V2000
  -19.2215  -24.2288   23.1831 C   0  0  0  0  0  0  0  0  0  0  0  0
  -20.5775  -24.5238   23.0984 C   0  0  0  0  0  0  0  0  0  0  0  0
  -24.7907  -14.3086   18.9494 C   0  0  0  0  0  0  0  0  0  0  0  0
  -23.6212  -13.9283   21.0290 C   0  0  0  0  0  0  0  0  0  0  0  0
  -18.2789  -25.2265   22.9438 C   0  0  0  0  0  0  0  0  0  0  0  0
  -20.9914  -25.8192   22.7862 C   0  0  0  0  0  0  0  0  0  0  0  0
  -25.8144  -26.7511   23.0578 C   0  0  0  0  0  0  0  0  0  0  0  0
  -25.5704  -13.1755   19.1807 C   0  0  0  0  0  0  0  0  0  0  0  0
  -24.4009  -12.7951   21.2603 C   0  0  0  0  0  0  0  0  0  0  0  0
  -26.7309  -26.2568   22.1308 C   0  0  0  0  0  0  0  0  0  0  0  0
  -25.8380   -9.5974   22.2232 C   0  0  0  0  0  0  0  0  0  0  0  0
  -25.1909   -8.4427   22.6632 C   0  0  0  0  0  0  0  0  0  0  0  0
  -26.8445  -28.4312   21.0926 C   0  0  0  0  0  0  0  0  0  0  0  0
  -23.8519   -8.4268   20.6523 C   0  0  0  0  0  0  0  0  0  0  0  0
  -23.8161  -14.6851   19.8737 C   0  0  0  0  0  0  0  0  0  0  0  0
  -21.7800  -15.9171   18.9549 C   0  0  0  0  0  0  0  0  0  0  0  0
  -18.6821  -26.5315   22.6163 C   0  0  0  0  0  0  0  0  0  0  0  0
  -25.3970  -28.0887   23.0024 C   0  0  0  0  0  0  0  0  0  0  0  0
  -20.0555  -26.8457   22.5647 C   0  0  0  0  0  0  0  0  0  0  0  0
  -25.9245  -28.9407   22.0216 C   0  0  0  0  0  0  0  0  0  0  0  0
  -29.3950  -23.9090   18.3325 C   0  0  0  0  0  0  0  0  0  0  0  0
  -29.5205  -24.8906   19.3464 C   0  0  0  0  0  0  0  0  0  0  0  0
  -25.3755  -12.4187   20.3361 C   0  0  0  0  0  0  0  0  0  0  0  0
  -27.2440  -27.0961   21.1462 C   0  0  0  0  0  0  0  0  0  0  0  0
  -25.4921  -10.1668   20.9977 C   0  0  0  0  0  0  0  0  0  0  0  0
  -24.1979   -7.8574   21.8778 C   0  0  0  0  0  0  0  0  0  0  0  0
  -24.4991   -9.5815   20.2123 C   0  0  0  0  0  0  0  0  0  0  0  0
  -23.0107  -15.8559   19.6356 C   0  0  0  0  0  0  0  0  0  0  0  0
  -30.5675  -23.9121   17.6096 C   0  0  0  0  0  0  0  0  0  0  0  0
  -30.7658  -25.4637   19.2121 C   0  0  0  0  0  0  0  0  0  0  0  0
  -21.4279  -17.2440   19.0006 C   0  0  0  0  0  0  0  0  0  0  0  0
  -21.0226  -14.8684   18.3367 C   0  0  0  0  0  0  0  0  0  0  0  0
  -22.6119  -29.5526   22.5511 C   0  0  0  0  0  0  0  0  0  0  0  0
  -24.3450  -32.2124   23.2174 C   0  0  0  0  0  0  0  0  0  0  0  0
  -27.3978  -33.7357   23.3007 C   0  0  0  0  0  0  0  0  0  0  0  0
  -24.4021  -22.2810   19.4784 C   0  0  0  0  0  0  0  0  0  0  0  0
  -17.6196  -27.5745   22.3749 C   0  0  0  0  0  0  0  0  0  0  0  0
  -24.4280  -28.6134   24.0261 C   0  0  0  0  0  0  0  0  0  0  0  0
  -25.5242  -30.3899   21.9315 C   0  0  0  0  0  0  0  0  0  0  0  0
  -18.1429  -28.7929   21.6212 C   0  0  0  0  0  0  0  0  0  0  0  0
  -21.9562  -21.1784   21.6578 C   0  0  0  0  0  0  0  0  0  0  0  0
  -19.4209  -29.2983   22.2738 C   0  0  0  0  0  0  0  0  0  0  0  0
  -31.2993  -23.6684   15.1042 C   0  0  0  0  0  0  0  0  0  0  0  0
  -29.9516  -23.0275   15.2196 C   0  0  0  0  0  0  0  0  0  0  0  0
  -21.8184  -19.6923   21.3276 C   0  0  0  0  0  0  0  0  0  0  0  0
  -27.9015  -22.0961   19.2835 C   0  0  0  0  0  0  0  0  0  0  0  0
  -26.9371  -23.8372   17.7189 C   0  0  0  0  0  0  0  0  0  0  0  0
  -23.4192  -21.6060   21.6484 C   0  0  0  0  0  0  0  0  0  0  0  0
  -26.6645  -21.2262   19.0425 C   0  0  0  0  0  0  0  0  0  0  0  0
  -25.7397  -22.9182   17.4951 C   0  0  0  0  0  0  0  0  0  0  0  0
  -23.9944  -19.8370   20.0181 C   0  0  0  0  0  0  0  0  0  0  0  0
  -28.1894  -23.0213   18.0875 C   0  0  0  0  0  0  0  0  0  0  0  0
  -20.5289  -28.2402   22.1967 C   0  0  1  0  0  0  0  0  0  0  0  0
  -30.8889  -23.0184   16.4090 C   0  0  0  0  0  0  0  0  0  0  0  0
  -23.6826  -29.8600   23.5594 C   0  0  1  0  0  0  0  0  0  0  0  0
  -22.5308  -19.3509   20.0069 C   0  0  1  0  0  0  0  0  0  0  0  0
  -31.4122  -26.5349   20.0003 C   0  0  0  0  0  0  0  0  0  0  0  0
  -32.7536  -26.4564   16.8606 C   0  0  0  0  0  0  0  0  0  0  0  0
  -28.4926  -35.9246   23.8551 C   0  0  0  0  0  0  0  0  0  0  0  0
  -23.3115  -33.3898   20.5991 C   0  0  0  0  0  0  0  0  0  0  0  0
  -25.1282  -35.1071   20.7351 C   0  0  0  0  0  0  0  0  0  0  0  0
  -23.3803  -34.9997   22.5117 C   0  0  0  0  0  0  0  0  0  0  0  0
  -29.0514  -32.5034   25.4234 C   0  0  0  0  0  0  0  0  0  0  0  0
  -28.5044  -25.2386   20.3607 C   0  0  0  0  0  0  0  0  0  1  0  0
  -32.7224  -25.1739   17.6741 C   0  0  0  0  0  0  0  0  0  0  0  0
  -25.1490  -33.1965   22.4025 C   0  0  1  0  0  0  0  0  0  0  0  0
  -28.0854  -34.5556   24.3774 C   0  0  2  0  0  0  0  0  0  0  0  0
  -24.2485  -34.1455   21.5623 C   0  0  0  0  0  0  0  0  0  0  0  0
  -23.4135  -17.0490   20.0809 N   0  0  0  0  0  0  0  0  0  0  0  0
  -31.3932  -24.8614   18.1530 N   0  0  0  0  0  0  0  0  0  0  0  0
  -22.4303  -17.8724   19.6791 N   0  0  0  0  0  0  0  0  0  0  0  0
  -24.5691  -30.8542   22.9512 N   0  0  0  0  0  0  0  0  0  0  0  0
  -24.0609  -21.2615   20.3799 N   0  0  0  0  0  0  0  0  0  0  0  0
  -25.5147  -22.0549   18.6541 N   0  0  0  0  0  0  0  0  0  0  0  0
  -20.3619  -17.9227   18.5260 N   0  0  0  0  0  0  0  0  0  0  0  0
  -21.5293  -13.5624   18.3819 N   0  0  0  0  0  0  0  0  0  0  0  0
  -21.6494  -28.6704   23.0036 N   0  0  0  0  0  0  0  0  0  0  0  0
  -26.0275  -33.8837   23.3429 N   0  0  0  0  0  0  0  0  0  0  0  0
  -29.3082  -33.8542   24.8609 N   0  3  0  0  0  0  0  0  0  0  0  0
  -19.9370  -15.0856   17.7469 O   0  0  0  0  0  0  0  0  0  0  0  0
  -22.6549  -30.0781   21.4449 O   0  0  0  0  0  0  0  0  0  0  0  0
  -23.5527  -32.6331   24.0641 O   0  0  0  0  0  0  0  0  0  0  0  0
  -28.0148  -33.0370   22.4996 O   0  0  0  0  0  0  0  0  0  0  0  0
  -23.7511  -23.3312   19.4127 O   0  0  0  0  0  0  0  0  0  0  0  0
  -26.1360  -11.3127   20.5619 O   0  0  0  0  0  0  0  0  0  0  0  0
  -28.1430  -26.6134   20.2350 O   0  0  0  0  0  0  0  0  0  1  0  0
  -23.5776   -6.7478   22.2998 F   0  0  0  0  0  0  0  0  0  0  0  0
  -24.1632  -10.1233   19.0335 F   0  0  0  0  0  0  0  0  0  0  0  0
  1  2  1  0  0  0  0
  1  5  2  0  0  0  0
  2  6  2  0  0  0  0
  3  8  2  0  0  0  0
  3 15  1  0  0  0  0
  4  9  1  0  0  0  0
  4 15  2  0  0  0  0
  5 17  1  0  0  0  0
  6 19  1  0  0  0  0
  7 10  2  0  0  0  0
  7 18  1  0  0  0  0
  8 23  1  0  0  0  0
  9 23  2  0  0  0  0
 10 24  1  0  0  0  0
 11 12  2  0  0  0  0
 11 25  1  0  0  0  0
 12 26  1  0  0  0  0
 13 20  1  0  0  0  0
 13 24  2  0  0  0  0
 14 26  2  0  0  0  0
 14 27  1  0  0  0  0
 15 28  1  0  0  0  0
 16 28  1  0  0  0  0
 16 31  2  0  0  0  0
 16 32  1  0  0  0  0
 17 19  2  0  0  0  0
 17 37  1  0  0  0  0
 18 20  2  0  0  0  0
 18 38  1  0  0  0  0
 19 53  1  0  0  0  0
 20 39  1  0  0  0  0
 21 22  1  0  0  0  0
 21 29  2  0  0  0  0
 21 52  1  0  0  0  0
 22 30  2  0  0  0  0
 22 64  1  0  0  0  0
 23 85  1  0  0  0  0
 24 86  1  0  0  0  0
 25 27  2  0  0  0  0
 25 85  1  0  0  0  0
 26 87  1  0  0  0  0
 27 88  1  0  0  0  0
 28 69  2  0  0  0  0
 29 54  1  0  0  0  0
 29 70  1  0  0  0  0
 30 57  1  0  0  0  0
 30 70  1  0  0  0  0
 31 71  1  0  0  0  0
 31 75  1  0  0  0  0
 32 76  1  0  0  0  0
 32 80  2  0  0  0  0
 33 55  1  0  0  0  0
 33 77  1  0  0  0  0
 33 81  2  0  0  0  0
 34 66  1  0  0  0  0
 34 72  1  0  0  0  0
 34 82  2  0  0  0  0
 35 67  1  0  0  0  0
 35 78  1  0  0  0  0
 35 83  2  0  0  0  0
 36 73  1  0  0  0  0
 36 74  1  0  0  0  0
 36 84  2  0  0  0  0
 37 40  1  0  0  0  0
 38 55  1  0  0  0  0
 39 72  1  0  0  0  0
 40 42  1  0  0  0  0
 41 45  1  0  0  0  0
 41 48  1  0  0  0  0
 42 53  1  0  0  0  0
 43 44  1  0  0  0  0
 43 54  1  0  0  0  0
 44 54  1  0  0  0  0
 45 56  1  0  0  0  0
 46 49  1  0  0  0  0
 46 52  1  0  0  0  0
 47 50  1  0  0  0  0
 47 52  1  0  0  0  0
 48 73  1  0  0  0  0
 49 74  1  0  0  0  0
 50 74  1  0  0  0  0
 51 56  1  0  0  0  0
 51 73  1  0  0  0  0
 53 77  1  0  0  0  0
 55 72  1  0  0  0  0
 56 71  1  0  0  0  0
 58 65  1  0  0  0  0
 59 67  1  0  0  0  0
 60 68  1  0  0  0  0
 61 68  1  0  0  0  0
 62 68  1  0  0  0  0
 63 79  1  0  0  0  0
 64 86  1  0  0  0  0
 65 70  1  0  0  0  0
 66 68  1  0  0  0  0
 66 78  1  0  0  0  0
 67 79  1  0  0  0  0
 69 71  1  0  0  0  0
M  CHG  1  79   1
M  ISO  4  36 100  64 101  74 100  86 101
M  END
> <Batch ID>
0169

> <Smiles>
CCn1c(C)c([101CH2:1][101O:1]c2ccc3c(c2)CN(C(=O)C(NC(=O)C(C)NC)C(C)(C)C)C(C(=O)NC2CCCc4ccccc42)C3)c(C2CC[100N:0]([100C:0](=O)N3CCCC(n4nc(-c5ccc(Oc6ccc(F)cc6F)cc5)c(C(N)=O)c4N)C3)CC2)c1C1CC1

> <Shape>
0.236

> <Color>
0.087

> <Negative vol penalty>
0.000

$$$$

  -OEChem-04052322323D

 90100  0     1  0  0  0  0  0999 V2000
  -28.9830  -33.8872   25.9668 C   0  0  0  0  0  0  0  0  0  0  0  0
  -28.8917  -32.6224   25.3948 C   0  0  0  0  0  0  0  0  0  0  0  0
  -24.8605  -10.0574   23.1283 C   0  0  0  0  0  0  0  0  0  0  0  0
  -24.2113   -8.8170   21.1593 C   0  0  0  0  0  0  0  0  0  0  0  0
  -27.8250  -34.6191   26.2261 C   0  0  0  0  0  0  0  0  0  0  0  0
  -27.6420  -32.0882   25.0827 C   0  0  0  0  0  0  0  0  0  0  0  0
  -27.5396  -29.9334   20.5011 C   0  0  0  0  0  0  0  0  0  0  0  0
  -23.8364   -9.4459   23.8513 C   0  0  0  0  0  0  0  0  0  0  0  0
  -23.1871   -8.2054   21.8823 C   0  0  0  0  0  0  0  0  0  0  0  0
  -28.1039  -28.6642   20.3816 C   0  0  0  0  0  0  0  0  0  0  0  0
  -22.8770   -5.6891   24.1167 C   0  0  0  0  0  0  0  0  0  0  0  0
  -22.7129   -4.3121   23.9668 C   0  0  0  0  0  0  0  0  0  0  0  0
  -30.0779  -24.3277   18.7417 C   0  0  0  0  0  0  0  0  0  0  0  0
  -25.9029  -27.6823   20.4854 C   0  0  0  0  0  0  0  0  0  0  0  0
  -29.6577  -23.9426   21.0895 C   0  0  0  0  0  0  0  0  0  0  0  0
  -20.4661   -4.6685   23.1531 C   0  0  0  0  0  0  0  0  0  0  0  0
  -25.0480   -9.7430   21.7822 C   0  0  0  0  0  0  0  0  0  0  0  0
  -27.4291   -9.9202   20.8844 C   0  0  0  0  0  0  0  0  0  0  0  0
  -26.5610  -34.0976   25.9081 C   0  0  0  0  0  0  0  0  0  0  0  0
  -26.1511  -30.0862   20.6248 C   0  0  0  0  0  0  0  0  0  0  0  0
  -26.4659  -32.8132   25.3392 C   0  0  0  0  0  0  0  0  0  0  0  0
  -30.4690  -22.9970   18.5934 C   0  0  0  0  0  0  0  0  0  0  0  0
  -25.3232  -28.9547   20.6037 C   0  0  0  0  0  0  0  0  0  0  0  0
  -29.6723  -24.8005   19.9897 C   0  0  0  0  0  0  0  0  0  0  0  0
  -30.0486  -22.6119   20.9412 C   0  0  0  0  0  0  0  0  0  0  0  0
  -30.4543  -22.1391   19.6931 C   0  0  0  0  0  0  0  0  0  0  0  0
  -22.9997   -8.5198   23.2283 C   0  0  0  0  0  0  0  0  0  0  0  0
  -27.2859  -27.5382   20.3767 C   0  0  0  0  0  0  0  0  0  0  0  0
  -21.8357   -6.5558   23.7849 C   0  0  0  0  0  0  0  0  0  0  0  0
  -21.5075   -3.8017   23.4849 C   0  0  0  0  0  0  0  0  0  0  0  0
  -20.6302   -6.0455   23.3031 C   0  0  0  0  0  0  0  0  0  0  0  0
  -26.1053  -10.3749   21.0347 C   0  0  0  0  0  0  0  0  0  0  0  0
  -28.0290  -10.8662   20.0896 C   0  0  0  0  0  0  0  0  0  0  0  0
  -28.0602   -8.7475   21.4156 C   0  0  0  0  0  0  0  0  0  0  0  0
  -24.2139  -31.2671   22.8511 C   0  0  0  0  0  0  0  0  0  0  0  0
  -21.9403  -30.7392   20.5984 C   0  0  0  0  0  0  0  0  0  0  0  0
  -20.9566  -29.0125   17.8239 C   0  0  0  0  0  0  0  0  0  0  0  0
  -29.1030  -15.9288   18.6673 C   0  0  0  0  0  0  0  0  0  0  0  0
  -25.3350  -34.9064   26.2505 C   0  0  0  0  0  0  0  0  0  0  0  0
  -25.5559  -31.4638   20.7259 C   0  0  0  0  0  0  0  0  0  0  0  0
  -23.8252  -29.0660   20.7131 C   0  0  0  0  0  0  0  0  0  0  0  0
  -24.0702  -34.4235   25.5451 C   0  0  0  0  0  0  0  0  0  0  0  0
  -26.0562  -14.6881   17.4398 C   0  0  0  0  0  0  0  0  0  0  0  0
  -32.2518  -21.8757   17.0973 C   0  0  0  0  0  0  0  0  0  0  0  0
  -32.0100  -23.2409   16.5333 C   0  0  0  0  0  0  0  0  0  0  0  0
  -23.9476  -32.9066   25.6481 C   0  0  0  0  0  0  0  0  0  0  0  0
  -25.8983  -13.4072   18.2587 C   0  0  0  0  0  0  0  0  0  0  0  0
  -28.8924  -19.3833   19.3077 C   0  0  0  0  0  0  0  0  0  0  0  0
  -31.1267  -18.7220   18.3391 C   0  0  0  0  0  0  0  0  0  0  0  0
  -26.5995  -15.8436   18.2823 C   0  0  0  0  0  0  0  0  0  0  0  0
  -28.2230  -18.2972   18.4605 C   0  0  0  0  0  0  0  0  0  0  0  0
  -30.4121  -17.6719   17.4930 C   0  0  0  0  0  0  0  0  0  0  0  0
  -27.6973  -14.2445   19.8173 C   0  0  0  0  0  0  0  0  0  0  0  0
  -30.8987  -22.5177   17.2453 C   0  0  0  0  0  0  0  0  0  0  0  0
  -25.1298  -32.2098   24.9637 C   0  0  1  0  0  0  0  0  0  0  0  0
  -24.1697  -31.4705   21.3630 C   0  0  1  0  0  0  0  0  0  0  0  0
  -27.2081  -13.0501   18.9837 C   0  0  1  0  0  0  0  0  0  0  0  0
  -30.1847  -19.8854   18.6595 C   0  0  0  0  0  0  0  0  0  0  0  0
  -28.6044  -21.5480   22.7121 C   0  0  0  0  0  0  0  0  0  0  0  0
  -30.9843  -22.1877   23.2431 C   0  0  0  0  0  0  0  0  0  0  0  0
  -19.0310  -28.7729   16.2327 C   0  0  0  0  0  0  0  0  0  0  0  0
  -20.4032  -29.1504   22.7015 C   0  0  0  0  0  0  0  0  0  0  0  0
  -19.0277  -28.1690   20.8541 C   0  0  0  0  0  0  0  0  0  0  0  0
  -18.9843  -30.6286   21.2676 C   0  0  0  0  0  0  0  0  0  0  0  0
  -22.6112  -29.8418   15.5145 C   0  0  0  0  0  0  0  0  0  0  0  0
  -29.2543  -26.2233   20.1483 C   0  0  0  0  0  0  0  0  0  1  0  0
  -30.0225  -21.7166   22.1375 C   0  0  0  0  0  0  0  0  0  0  0  0
  -21.0417  -29.5812   20.2372 C   0  0  1  0  0  0  0  0  0  0  0  0
  -20.3505  -29.4757   16.5115 C   0  0  2  0  0  0  0  0  0  0  0  0
  -19.8926  -29.3797   21.2650 C   0  0  0  0  0  0  0  0  0  0  0  0
  -25.8771  -11.5207   20.3875 N   0  0  0  0  0  0  0  0  0  0  0  0
  -27.0656  -11.7941   19.8228 N   0  0  0  0  0  0  0  0  0  0  0  0
  -23.2914  -30.4342   20.8163 N   0  0  0  0  0  0  0  0  0  0  0  0
  -27.8260  -15.4430   18.9857 N   0  0  0  0  0  0  0  0  0  0  0  0
  -29.1770  -17.2261   18.1387 N   0  0  0  0  0  0  0  0  0  0  0  0
  -29.2812  -10.9867   19.5999 N   0  0  0  0  0  0  0  0  0  0  0  0
  -27.2988   -7.8820   22.2128 N   0  0  0  0  0  0  0  0  0  0  0  0
  -30.8418  -20.8189   19.5477 N   0  0  0  0  0  0  0  0  0  0  0  0
  -24.9572  -32.2159   23.5268 N   0  0  0  0  0  0  0  0  0  0  0  0
  -20.5870  -29.8274   18.8730 N   0  0  0  0  0  0  0  0  0  0  0  0
  -21.2814  -29.1928   15.3826 N   0  3  0  0  0  0  0  0  0  0  0  0
  -29.2681   -8.4837   21.2035 O   0  0  0  0  0  0  0  0  0  0  0  0
  -23.6166  -30.3202   23.3494 O   0  0  0  0  0  0  0  0  0  0  0  0
  -21.4625  -31.8737   20.6771 O   0  0  0  0  0  0  0  0  0  0  0  0
  -21.6821  -28.0242   17.9105 O   0  0  0  0  0  0  0  0  0  0  0  0
  -30.1180  -15.2437   18.8449 O   0  0  0  0  0  0  0  0  0  0  0  0
  -22.0004   -7.9227   23.9336 O   0  0  0  0  0  0  0  0  0  0  0  0
  -27.8380  -26.2896   20.2601 O   0  0  0  0  0  0  0  0  0  1  0  0
  -21.3506   -2.4795   23.3396 F   0  0  0  0  0  0  0  0  0  0  0  0
  -19.6266   -6.8733   22.9815 F   0  0  0  0  0  0  0  0  0  0  0  0
  1  2  1  0  0  0  0
  1  5  2  0  0  0  0
  2  6  2  0  0  0  0
  3  8  2  0  0  0  0
  3 17  1  0  0  0  0
  4  9  1  0  0  0  0
  4 17  2  0  0  0  0
  5 19  1  0  0  0  0
  6 21  1  0  0  0  0
  7 10  2  0  0  0  0
  7 20  1  0  0  0  0
  8 27  1  0  0  0  0
  9 27  2  0  0  0  0
 10 28  1  0  0  0  0
 11 12  2  0  0  0  0
 11 29  1  0  0  0  0
 12 30  1  0  0  0  0
 13 22  1  0  0  0  0
 13 24  2  0  0  0  0
 14 23  1  0  0  0  0
 14 28  2  0  0  0  0
 15 24  1  0  0  0  0
 15 25  2  0  0  0  0
 16 30  2  0  0  0  0
 16 31  1  0  0  0  0
 17 32  1  0  0  0  0
 18 32  1  0  0  0  0
 18 33  2  0  0  0  0
 18 34  1  0  0  0  0
 19 21  2  0  0  0  0
 19 39  1  0  0  0  0
 20 23  2  0  0  0  0
 20 40  1  0  0  0  0
 21 55  1  0  0  0  0
 22 26  2  0  0  0  0
 22 54  1  0  0  0  0
 23 41  1  0  0  0  0
 24 66  1  0  0  0  0
 25 26  1  0  0  0  0
 25 67  1  0  0  0  0
 26 78  1  0  0  0  0
 27 87  1  0  0  0  0
 28 88  1  0  0  0  0
 29 31  2  0  0  0  0
 29 87  1  0  0  0  0
 30 89  1  0  0  0  0
 31 90  1  0  0  0  0
 32 71  2  0  0  0  0
 33 72  1  0  0  0  0
 33 76  1  0  0  0  0
 34 77  1  0  0  0  0
 34 82  2  0  0  0  0
 35 56  1  0  0  0  0
 35 79  1  0  0  0  0
 35 83  2  0  0  0  0
 36 68  1  0  0  0  0
 36 73  1  0  0  0  0
 36 84  2  0  0  0  0
 37 69  1  0  0  0  0
 37 80  1  0  0  0  0
 37 85  2  0  0  0  0
 38 74  1  0  0  0  0
 38 75  1  0  0  0  0
 38 86  2  0  0  0  0
 39 42  1  0  0  0  0
 40 56  1  0  0  0  0
 41 73  1  0  0  0  0
 42 46  1  0  0  0  0
 43 47  1  0  0  0  0
 43 50  1  0  0  0  0
 44 45  1  0  0  0  0
 44 54  1  0  0  0  0
 45 54  1  0  0  0  0
 46 55  1  0  0  0  0
 47 57  1  0  0  0  0
 48 51  1  0  0  0  0
 48 58  1  0  0  0  0
 49 52  1  0  0  0  0
 49 58  1  0  0  0  0
 50 74  1  0  0  0  0
 51 75  1  0  0  0  0
 52 75  1  0  0  0  0
 53 57  1  0  0  0  0
 53 74  1  0  0  0  0
 55 79  1  0  0  0  0
 56 73  1  0  0  0  0
 57 72  1  0  0  0  0
 58 78  1  0  0  0  0
 59 67  1  0  0  0  0
 60 67  1  0  0  0  0
 61 69  1  0  0  0  0
 62 70  1  0  0  0  0
 63 70  1  0  0  0  0
 64 70  1  0  0  0  0
 65 81  1  0  0  0  0
 66 88  1  0  0  0  0
 68 70  1  0  0  0  0
 68 80  1  0  0  0  0
 69 81  1  0  0  0  0
 71 72  1  0  0  0  0
M  CHG  1  81   1
M  ISO  4  38 100  66 101  75 100  88 101
M  END
> <Batch ID>
0169

> <Smiles>
CNC(C)C(=O)NC(C(=O)N1Cc2cc([101O:1][101CH2:1]c3cc(C(C)C)c(NC4CC[100N:0]([100C:0](=O)N5CCCC(n6nc(-c7ccc(Oc8ccc(F)cc8F)cc7)c(C(N)=O)c6N)C5)CC4)c(C4CC4)c3)ccc2CC1C(=O)NC1CCCc2ccccc21)C(C)(C)C

> <Shape>
0.304

> <Color>
0.079

> <Negative vol penalty>
0.000

$$$$

  -OEChem-04052322323D

 87 96  0     1  0  0  0  0  0999 V2000
  -26.6726  -38.4679   22.9687 C   0  0  0  0  0  0  0  0  0  0  0  0
  -27.3060  -37.5365   22.1520 C   0  0  0  0  0  0  0  0  0  0  0  0
  -24.5185  -10.1736   23.1468 C   0  0  0  0  0  0  0  0  0  0  0  0
  -24.4827   -8.6539   21.2690 C   0  0  0  0  0  0  0  0  0  0  0  0
  -25.9344  -38.0389   24.0709 C   0  0  0  0  0  0  0  0  0  0  0  0
  -27.2024  -36.1757   22.4378 C   0  0  0  0  0  0  0  0  0  0  0  0
  -26.9253  -29.7950   19.1934 C   0  0  0  0  0  0  0  0  0  0  0  0
  -23.3704   -9.5688   23.6582 C   0  0  0  0  0  0  0  0  0  0  0  0
  -23.3346   -8.0490   21.7804 C   0  0  0  0  0  0  0  0  0  0  0  0
  -27.5431  -28.5454   19.2200 C   0  0  0  0  0  0  0  0  0  0  0  0
  -22.5649   -5.8035   24.1857 C   0  0  0  0  0  0  0  0  0  0  0  0
  -22.5162   -4.4095   24.1912 C   0  0  0  0  0  0  0  0  0  0  0  0
  -26.1757  -27.9161   21.1050 C   0  0  0  0  0  0  0  0  0  0  0  0
  -30.6305  -23.1240   20.5602 C   0  0  0  0  0  0  0  0  0  0  0  0
  -20.5540   -4.4725   22.7831 C   0  0  0  0  0  0  0  0  0  0  0  0
  -25.0747   -9.7162   21.9522 C   0  0  0  0  0  0  0  0  0  0  0  0
  -27.5973   -9.9859   21.6848 C   0  0  0  0  0  0  0  0  0  0  0  0
  -25.8137  -36.6715   24.3648 C   0  0  0  0  0  0  0  0  0  0  0  0
  -25.9340  -30.1189   20.1309 C   0  0  0  0  0  0  0  0  0  0  0  0
  -26.4630  -35.7281   23.5458 C   0  0  0  0  0  0  0  0  0  0  0  0
  -25.5450  -29.1695   21.0866 C   0  0  0  0  0  0  0  0  0  0  0  0
  -30.1581  -24.4250   20.4278 C   0  0  0  0  0  0  0  0  0  0  0  0
  -29.2950  -24.7425   19.3849 C   0  0  0  0  0  0  0  0  0  0  0  0
  -22.7784   -8.5065   22.9750 C   0  0  0  0  0  0  0  0  0  0  0  0
  -27.1704  -27.6068   20.1776 C   0  0  0  0  0  0  0  0  0  0  0  0
  -21.6080   -6.5320   23.4790 C   0  0  0  0  0  0  0  0  0  0  0  0
  -21.5108   -3.7440   23.4899 C   0  0  0  0  0  0  0  0  0  0  0  0
  -20.6026   -5.8665   22.7776 C   0  0  0  0  0  0  0  0  0  0  0  0
  -26.2604  -10.3410   21.4231 C   0  0  0  0  0  0  0  0  0  0  0  0
  -30.2131  -22.1847   19.6310 C   0  0  0  0  0  0  0  0  0  0  0  0
  -28.9375  -23.7308   18.5083 C   0  0  0  0  0  0  0  0  0  0  0  0
  -28.3395  -10.8767   20.9486 C   0  0  0  0  0  0  0  0  0  0  0  0
  -28.1213   -8.9439   22.5186 C   0  0  0  0  0  0  0  0  0  0  0  0
  -25.6376  -32.3082   22.4162 C   0  0  0  0  0  0  0  0  0  0  0  0
  -22.6342  -31.1033   22.6409 C   0  0  0  0  0  0  0  0  0  0  0  0
  -20.5217  -28.4730   22.1255 C   0  0  0  0  0  0  0  0  0  0  0  0
  -29.4992  -15.8036   19.1635 C   0  0  0  0  0  0  0  0  0  0  0  0
  -25.0442  -36.2585   25.5944 C   0  0  0  0  0  0  0  0  0  0  0  0
  -25.2584  -31.4615   20.0721 C   0  0  0  0  0  0  0  0  0  0  0  0
  -24.4718  -29.4606   22.1024 C   0  0  0  0  0  0  0  0  0  0  0  0
  -24.6736  -34.7777   25.6122 C   0  0  0  0  0  0  0  0  0  0  0  0
  -26.9581  -14.1689   17.3748 C   0  0  0  0  0  0  0  0  0  0  0  0
  -25.8771  -33.9216   25.2308 C   0  0  0  0  0  0  0  0  0  0  0  0
  -26.6514  -12.9875   18.2947 C   0  0  0  0  0  0  0  0  0  0  0  0
  -28.9517  -19.2796   19.2416 C   0  0  0  0  0  0  0  0  0  0  0  0
  -31.3940  -18.6990   18.9849 C   0  0  0  0  0  0  0  0  0  0  0  0
  -27.1974  -15.4597   18.1601 C   0  0  0  0  0  0  0  0  0  0  0  0
  -28.5887  -18.0462   18.4094 C   0  0  0  0  0  0  0  0  0  0  0  0
  -30.9854  -17.4975   18.1372 C   0  0  0  0  0  0  0  0  0  0  0  0
  -27.9235  -14.1569   20.1334 C   0  0  0  0  0  0  0  0  0  0  0  0
  -26.3535  -34.2418   23.8088 C   0  0  1  0  0  0  0  0  0  0  0  0
  -24.6236  -31.8695   21.3979 C   0  0  1  0  0  0  0  0  0  0  0  0
  -27.7358  -12.8333   19.3759 C   0  0  1  0  0  0  0  0  0  0  0  0
  -30.3434  -19.8081   18.8862 C   0  0  0  0  0  0  0  0  0  0  0  0
  -30.5911  -25.4587   21.4144 C   0  0  0  0  0  0  0  0  0  0  0  0
  -18.1331  -27.7730   22.4446 C   0  0  0  0  0  0  0  0  0  0  0  0
  -23.1519  -30.7041   25.6212 C   0  0  0  0  0  0  0  0  0  0  0  0
  -21.1714  -29.1740   25.6892 C   0  0  0  0  0  0  0  0  0  0  0  0
  -20.8728  -31.5707   25.0652 C   0  0  0  0  0  0  0  0  0  0  0  0
  -28.0934  -23.3699   16.1881 C   0  0  0  0  0  0  0  0  0  0  0  0
  -20.1244  -28.0891   19.2180 C   0  0  0  0  0  0  0  0  0  0  0  0
  -28.7773  -26.1340   19.2264 C   0  0  0  0  0  0  0  0  0  1  0  0
  -21.9838  -29.9936   23.4311 C   0  0  1  0  0  0  0  0  0  0  0  0
  -19.1432  -28.3968   21.4942 C   0  0  2  0  0  0  0  0  0  0  0  0
  -21.8166  -30.3555   24.9339 C   0  0  0  0  0  0  0  0  0  0  0  0
  -26.1563  -11.3767   20.5862 N   0  0  0  0  0  0  0  0  0  0  0  0
  -29.3758  -22.4556   18.6048 N   0  0  0  0  0  0  0  0  0  0  0  0
  -27.4372  -11.6802   20.3157 N   0  0  0  0  0  0  0  0  0  0  0  0
  -23.8454  -30.7895   22.0080 N   0  0  0  0  0  0  0  0  0  0  0  0
  -28.2096  -15.2528   19.2052 N   0  0  0  0  0  0  0  0  0  0  0  0
  -29.6466  -17.0293   18.4971 N   0  0  0  0  0  0  0  0  0  0  0  0
  -29.6694  -11.0434   20.7875 N   0  0  0  0  0  0  0  0  0  0  0  0
  -27.2189   -8.1192   23.2041 N   0  0  0  0  0  0  0  0  0  0  0  0
  -30.6912  -20.8944   19.7755 N   0  0  0  0  0  0  0  0  0  0  0  0
  -28.0581  -24.0476   17.4428 N   0  0  0  0  0  0  0  0  0  0  0  0
  -25.4867  -33.6171   22.8327 N   0  0  0  0  0  0  0  0  0  0  0  0
  -20.7322  -29.6853   22.7478 N   0  0  0  0  0  0  0  0  0  0  0  0
  -19.1875  -27.5766   20.2508 N   0  3  0  0  0  0  0  0  0  0  0  0
  -29.3535   -8.7602   22.6647 O   0  0  0  0  0  0  0  0  0  0  0  0
  -26.4925  -31.5172   22.7971 O   0  0  0  0  0  0  0  0  0  0  0  0
  -22.0842  -32.2058   22.5812 O   0  0  0  0  0  0  0  0  0  0  0  0
  -21.3295  -27.5480   22.0750 O   0  0  0  0  0  0  0  0  0  0  0  0
  -30.4627  -15.2339   19.6908 O   0  0  0  0  0  0  0  0  0  0  0  0
  -21.6582   -7.9159   23.4739 O   0  0  0  0  0  0  0  0  0  0  0  0
  -27.7766  -26.3780   20.2064 O   0  0  0  0  0  0  0  0  0  1  0  0
  -21.4651   -2.4053   23.4939 F   0  0  0  0  0  0  0  0  0  0  0  0
  -19.6813   -6.5609   22.0959 F   0  0  0  0  0  0  0  0  0  0  0  0
  1  2  1  0  0  0  0
  1  5  2  0  0  0  0
  2  6  2  0  0  0  0
  3  8  2  0  0  0  0
  3 16  1  0  0  0  0
  4  9  1  0  0  0  0
  4 16  2  0  0  0  0
  5 18  1  0  0  0  0
  6 20  1  0  0  0  0
  7 10  2  0  0  0  0
  7 19  1  0  0  0  0
  8 24  1  0  0  0  0
  9 24  2  0  0  0  0
 10 25  1  0  0  0  0
 11 12  2  0  0  0  0
 11 26  1  0  0  0  0
 12 27  1  0  0  0  0
 13 21  1  0  0  0  0
 13 25  2  0  0  0  0
 14 22  2  0  0  0  0
 14 30  1  0  0  0  0
 15 27  2  0  0  0  0
 15 28  1  0  0  0  0
 16 29  1  0  0  0  0
 17 29  1  0  0  0  0
 17 32  2  0  0  0  0
 17 33  1  0  0  0  0
 18 20  2  0  0  0  0
 18 38  1  0  0  0  0
 19 21  2  0  0  0  0
 19 39  1  0  0  0  0
 20 51  1  0  0  0  0
 21 40  1  0  0  0  0
 22 23  1  0  0  0  0
 22 55  1  0  0  0  0
 23 31  2  0  0  0  0
 23 62  1  0  0  0  0
 24 84  1  0  0  0  0
 25 85  1  0  0  0  0
 26 28  2  0  0  0  0
 26 84  1  0  0  0  0
 27 86  1  0  0  0  0
 28 87  1  0  0  0  0
 29 66  2  0  0  0  0
 30 67  2  0  0  0  0
 30 74  1  0  0  0  0
 31 67  1  0  0  0  0
 31 75  1  0  0  0  0
 32 68  1  0  0  0  0
 32 72  1  0  0  0  0
 33 73  1  0  0  0  0
 33 79  2  0  0  0  0
 34 52  1  0  0  0  0
 34 76  1  0  0  0  0
 34 80  2  0  0  0  0
 35 63  1  0  0  0  0
 35 69  1  0  0  0  0
 35 81  2  0  0  0  0
 36 64  1  0  0  0  0
 36 77  1  0  0  0  0
 36 82  2  0  0  0  0
 37 70  1  0  0  0  0
 37 71  1  0  0  0  0
 37 83  2  0  0  0  0
 38 41  1  0  0  0  0
 39 52  1  0  0  0  0
 40 69  1  0  0  0  0
 41 43  1  0  0  0  0
 42 44  1  0  0  0  0
 42 47  1  0  0  0  0
 43 51  1  0  0  0  0
 44 53  1  0  0  0  0
 45 48  1  0  0  0  0
 45 54  1  0  0  0  0
 46 49  1  0  0  0  0
 46 54  1  0  0  0  0
 47 70  1  0  0  0  0
 48 71  1  0  0  0  0
 49 71  1  0  0  0  0
 50 53  1  0  0  0  0
 50 70  1  0  0  0  0
 51 76  1  0  0  0  0
 52 69  1  0  0  0  0
 53 68  1  0  0  0  0
 54 74  1  0  0  0  0
 56 64  1  0  0  0  0
 57 65  1  0  0  0  0
 58 65  1  0  0  0  0
 59 65  1  0  0  0  0
 60 75  1  0  0  0  0
 61 78  1  0  0  0  0
 62 85  1  0  0  0  0
 63 65  1  0  0  0  0
 63 77  1  0  0  0  0
 64 78  1  0  0  0  0
 66 68  1  0  0  0  0
M  CHG  1  78   1
M  ISO  4  37 100  62 101  71 100  85 101
M  END
> <Batch ID>
0169

> <Smiles>
CNc1nc(NC2CC[100N:0]([100C:0](=O)N3CCCC(n4nc(-c5ccc(Oc6ccc(F)cc6F)cc5)c(C(N)=O)c4N)C3)CC2)cc(C)c1[101CH2:1][101O:1]c1ccc2c(c1)CN(C(=O)C(NC(=O)C(C)NC)C(C)(C)C)C(C(=O)NC1CCCc3ccccc31)C2

> <Shape>
0.331

> <Color>
0.102

> <Negative vol penalty>
0.000

$$$$

  -OEChem-04052322323D

 87 97  0     1  0  0  0  0  0999 V2000
  -32.3373  -13.3572   20.5674 C   0  0  0  0  0  0  0  0  0  0  0  0
  -31.7101  -14.5894   20.7215 C   0  0  0  0  0  0  0  0  0  0  0  0
  -28.6858  -26.4553   20.2084 C   0  0  0  0  0  0  0  0  0  0  0  0
  -27.0246  -25.3987   18.8080 C   0  0  0  0  0  0  0  0  0  0  0  0
  -31.6010  -12.2487   20.1514 C   0  0  0  0  0  0  0  0  0  0  0  0
  -30.3464  -14.7141   20.4585 C   0  0  0  0  0  0  0  0  0  0  0  0
  -26.3538  -18.3396   23.3604 C   0  0  0  0  0  0  0  0  0  0  0  0
  -29.5813  -25.4244   19.9241 C   0  0  0  0  0  0  0  0  0  0  0  0
  -27.9202  -24.3677   18.5236 C   0  0  0  0  0  0  0  0  0  0  0  0
  -25.8259  -19.5918   23.0491 C   0  0  0  0  0  0  0  0  0  0  0  0
  -29.6437  -21.2717   17.7150 C   0  0  0  0  0  0  0  0  0  0  0  0
  -29.1628  -19.9633   17.7637 C   0  0  0  0  0  0  0  0  0  0  0  0
  -19.7923  -23.8494   17.9087 C   0  0  0  0  0  0  0  0  0  0  0  0
  -23.8849  -18.5282   22.0897 C   0  0  0  0  0  0  0  0  0  0  0  0
  -28.5842  -20.2626   20.0903 C   0  0  0  0  0  0  0  0  0  0  0  0
  -27.4074  -26.4424   19.6504 C   0  0  0  0  0  0  0  0  0  0  0  0
  -26.6507  -28.8785   19.6764 C   0  0  0  0  0  0  0  0  0  0  0  0
  -30.2256  -12.3577   19.8925 C   0  0  0  0  0  0  0  0  0  0  0  0
  -25.6551  -17.1700   23.0284 C   0  0  0  0  0  0  0  0  0  0  0  0
  -29.5913  -13.6063   20.0373 C   0  0  0  0  0  0  0  0  0  0  0  0
  -19.6759  -25.1661   18.3263 C   0  0  0  0  0  0  0  0  0  0  0  0
  -24.4049  -17.2625   22.4002 C   0  0  0  0  0  0  0  0  0  0  0  0
  -20.5117  -23.2660   20.1525 C   0  0  0  0  0  0  0  0  0  0  0  0
  -20.2173  -22.8950   18.8330 C   0  0  0  0  0  0  0  0  0  0  0  0
  -20.3970  -24.5974   20.5619 C   0  0  0  0  0  0  0  0  0  0  0  0
  -20.0005  -25.5447   19.6283 C   0  0  0  0  0  0  0  0  0  0  0  0
  -29.1985  -24.3806   19.0817 C   0  0  0  0  0  0  0  0  0  0  0  0
  -24.5926  -19.6862   22.4110 C   0  0  0  0  0  0  0  0  0  0  0  0
  -29.5950  -22.0755   18.8540 C   0  0  0  0  0  0  0  0  0  0  0  0
  -28.6330  -19.4587   18.9513 C   0  0  0  0  0  0  0  0  0  0  0  0
  -29.0652  -21.5710   20.0416 C   0  0  0  0  0  0  0  0  0  0  0  0
  -26.4817  -27.5068   19.9442 C   0  0  0  0  0  0  0  0  0  0  0  0
  -25.4990  -29.4638   20.1428 C   0  0  0  0  0  0  0  0  0  0  0  0
  -27.7503  -29.5624   19.0609 C   0  0  0  0  0  0  0  0  0  0  0  0
  -26.2335  -14.6663   21.1574 C   0  0  0  0  0  0  0  0  0  0  0  0
  -23.4774  -13.5523   22.4558 C   0  0  0  0  0  0  0  0  0  0  0  0
  -20.5032  -14.2482   23.9778 C   0  0  0  0  0  0  0  0  0  0  0  0
  -20.0025  -27.6689   20.9633 C   0  0  0  0  0  0  0  0  0  0  0  0
  -29.4812  -11.1422   19.3994 C   0  0  0  0  0  0  0  0  0  0  0  0
  -26.2259  -15.8276   23.3951 C   0  0  0  0  0  0  0  0  0  0  0  0
  -19.2322  -26.3397   17.5104 C   0  0  0  0  0  0  0  0  0  0  0  0
  -23.6056  -16.0376   22.0407 C   0  0  0  0  0  0  0  0  0  0  0  0
  -27.9639  -11.2739   19.5024 C   0  0  0  0  0  0  0  0  0  0  0  0
  -22.0635  -28.9124   23.4203 C   0  0  0  0  0  0  0  0  0  0  0  0
  -27.5079  -12.6273   18.9664 C   0  0  0  0  0  0  0  0  0  0  0  0
  -23.4548  -28.8448   22.7890 C   0  0  0  0  0  0  0  0  0  0  0  0
  -21.9843  -21.0570   20.6720 C   0  0  0  0  0  0  0  0  0  0  0  0
  -22.1219  -22.5298   22.1979 C   0  0  0  0  0  0  0  0  0  0  0  0
  -21.2553  -27.6592   23.1009 C   0  0  0  0  0  0  0  0  0  0  0  0
  -22.5121  -27.3003   21.0044 C   0  0  0  0  0  0  0  0  0  0  0  0
  -21.0107  -22.1621   21.1731 C   0  0  0  0  0  0  0  0  0  0  0  0
  -28.1087  -13.7759   19.7857 C   0  0  1  0  0  0  0  0  0  0  0  0
  -25.6659  -14.6887   22.5485 C   0  0  1  0  0  0  0  0  0  0  0  0
  -23.3669  -28.5535   21.2796 C   0  0  2  0  0  0  0  0  0  0  0  0
  -22.6415  -21.0812   22.0697 C   0  0  0  0  0  0  0  0  0  1  0  0
  -19.0486  -27.4418   18.5967 C   0  0  0  0  0  0  0  0  0  0  0  0
  -20.3683  -21.4772   18.3869 C   0  0  0  0  0  0  0  0  0  0  0  0
  -20.9621  -24.9330   21.9003 C   0  0  0  0  0  0  0  0  0  0  0  0
  -19.6472  -28.7656   18.1021 C   0  0  0  0  0  0  0  0  0  0  0  0
  -17.5511  -27.6260   18.9020 C   0  0  0  0  0  0  0  0  0  0  0  0
  -18.4462  -13.1332   24.8848 C   0  0  0  0  0  0  0  0  0  0  0  0
  -22.4548  -13.1311   19.6121 C   0  0  0  0  0  0  0  0  0  0  0  0
  -20.1403  -12.9389   20.5474 C   0  0  0  0  0  0  0  0  0  0  0  0
  -21.8912  -11.2890   21.2070 C   0  0  0  0  0  0  0  0  0  0  0  0
  -21.0138  -15.2679   26.7088 C   0  0  0  0  0  0  0  0  0  0  0  0
  -22.0130  -13.6503   22.1023 C   0  0  1  0  0  0  0  0  0  0  0  0
  -19.8377  -13.6557   25.2067 C   0  0  2  0  0  0  0  0  0  0  0  0
  -21.6405  -12.7755   20.8721 C   0  0  0  0  0  0  0  0  0  0  0  0
  -25.3147  -27.2367   20.5351 N   0  0  0  0  0  0  0  0  0  0  0  0
  -24.7400  -28.4468   20.6425 N   0  0  0  0  0  0  0  0  0  0  0  0
  -19.7882  -26.9339   19.7989 N   0  0  0  0  0  0  0  0  0  0  0  0
  -24.2090  -14.7477   22.4143 N   0  0  0  0  0  0  0  0  0  0  0  0
  -21.1995  -27.4291   21.6576 N   0  0  0  0  0  0  0  0  0  0  0  0
  -25.0718  -30.7441   20.1702 N   0  0  0  0  0  0  0  0  0  0  0  0
  -27.7385  -29.7300   17.6695 N   0  0  0  0  0  0  0  0  0  0  0  0
  -27.3971  -13.9309   21.0363 N   0  0  0  0  0  0  0  0  0  0  0  0
  -21.2768  -13.3175   23.3171 N   0  0  0  0  0  0  0  0  0  0  0  0
  -19.7171  -14.6850   26.2776 N   0  3  0  0  0  0  0  0  0  0  0  0
  -28.7228  -29.9971   19.7234 O   0  0  0  0  0  0  0  0  0  0  0  0
  -25.6575  -15.2702   20.2601 O   0  0  0  0  0  0  0  0  0  0  0  0
  -23.9531  -12.4568   22.7644 O   0  0  0  0  0  0  0  0  0  0  0  0
  -20.3491  -15.4186   23.6358 O   0  0  0  0  0  0  0  0  0  0  0  0
  -19.2018  -28.5321   21.3415 O   0  0  0  0  0  0  0  0  0  0  0  0
  -30.0721  -23.3746   18.8038 O   0  0  0  0  0  0  0  0  0  0  0  0
  -24.0692  -20.9214   22.1019 O   0  0  0  0  0  0  0  0  0  1  0  0
  -28.1697  -18.2028   18.9975 F   0  0  0  0  0  0  0  0  0  0  0  0
  -29.0146  -22.3389   21.1387 F   0  0  0  0  0  0  0  0  0  0  0  0
  1  2  1  0  0  0  0
  1  5  2  0  0  0  0
  2  6  2  0  0  0  0
  3  8  2  0  0  0  0
  3 16  1  0  0  0  0
  4  9  1  0  0  0  0
  4 16  2  0  0  0  0
  5 18  1  0  0  0  0
  6 20  1  0  0  0  0
  7 10  2  0  0  0  0
  7 19  1  0  0  0  0
  8 27  1  0  0  0  0
  9 27  2  0  0  0  0
 10 28  1  0  0  0  0
 11 12  2  0  0  0  0
 11 29  1  0  0  0  0
 12 30  1  0  0  0  0
 13 21  1  0  0  0  0
 13 24  2  0  0  0  0
 14 22  1  0  0  0  0
 14 28  2  0  0  0  0
 15 30  2  0  0  0  0
 15 31  1  0  0  0  0
 16 32  1  0  0  0  0
 17 32  1  0  0  0  0
 17 33  2  0  0  0  0
 17 34  1  0  0  0  0
 18 20  2  0  0  0  0
 18 39  1  0  0  0  0
 19 22  2  0  0  0  0
 19 40  1  0  0  0  0
 20 52  1  0  0  0  0
 21 26  2  0  0  0  0
 21 41  1  0  0  0  0
 22 42  1  0  0  0  0
 23 24  1  0  0  0  0
 23 25  2  0  0  0  0
 23 51  1  0  0  0  0
 24 57  1  0  0  0  0
 25 26  1  0  0  0  0
 25 58  1  0  0  0  0
 26 71  1  0  0  0  0
 27 84  1  0  0  0  0
 28 85  1  0  0  0  0
 29 31  2  0  0  0  0
 29 84  1  0  0  0  0
 30 86  1  0  0  0  0
 31 87  1  0  0  0  0
 32 69  2  0  0  0  0
 33 70  1  0  0  0  0
 33 74  1  0  0  0  0
 34 75  1  0  0  0  0
 34 79  2  0  0  0  0
 35 53  1  0  0  0  0
 35 76  1  0  0  0  0
 35 80  2  0  0  0  0
 36 66  1  0  0  0  0
 36 72  1  0  0  0  0
 36 81  2  0  0  0  0
 37 67  1  0  0  0  0
 37 77  1  0  0  0  0
 37 82  2  0  0  0  0
 38 71  1  0  0  0  0
 38 73  1  0  0  0  0
 38 83  2  0  0  0  0
 39 43  1  0  0  0  0
 40 53  1  0  0  0  0
 41 56  1  0  0  0  0
 42 72  1  0  0  0  0
 43 45  1  0  0  0  0
 44 46  1  0  0  0  0
 44 49  1  0  0  0  0
 45 52  1  0  0  0  0
 46 54  1  0  0  0  0
 47 51  1  0  0  0  0
 47 55  1  0  0  0  0
 48 51  1  0  0  0  0
 48 55  1  0  0  0  0
 49 73  1  0  0  0  0
 50 54  1  0  0  0  0
 50 73  1  0  0  0  0
 52 76  1  0  0  0  0
 53 72  1  0  0  0  0
 54 70  1  0  0  0  0
 55 85  1  0  0  0  0
 56 59  1  0  0  0  0
 56 60  1  0  0  0  0
 56 71  1  0  0  0  0
 61 67  1  0  0  0  0
 62 68  1  0  0  0  0
 63 68  1  0  0  0  0
 64 68  1  0  0  0  0
 65 78  1  0  0  0  0
 66 68  1  0  0  0  0
 66 77  1  0  0  0  0
 67 78  1  0  0  0  0
 69 70  1  0  0  0  0
M  CHG  1  78   1
M  ISO  4  38 100  55 101  71 100  85 101
M  END
> <Batch ID>
0169

> <Smiles>
CNC(C)C(=O)NC(C(=O)N1Cc2cc([101O:1][101CH:1]3CC(c4c(C)cc5c(c4C)[100N:0]([100C:0](=O)N4CCCC(n6nc(-c7ccc(Oc8ccc(F)cc8F)cc7)c(C(N)=O)c6N)C4)C(C)(C)C5)C3)ccc2CC1C(=O)NC1CCCc2ccccc21)C(C)(C)C

> <Shape>
0.234

> <Color>
0.057

> <Negative vol penalty>
0.000

$$$$

  -OEChem-04052322323D

 91102  0     1  0  0  0  0  0999 V2000
  -18.0770  -10.2879   22.0589 C   0  0  0  0  0  0  0  0  0  0  0  0
  -18.2213  -11.2879   21.1025 C   0  0  0  0  0  0  0  0  0  0  0  0
  -25.9391  -29.2041   23.6671 C   0  0  0  0  0  0  0  0  0  0  0  0
  -25.0385  -31.1194   22.5020 C   0  0  0  0  0  0  0  0  0  0  0  0
  -18.9740  -10.2083   23.1234 C   0  0  0  0  0  0  0  0  0  0  0  0
  -19.2621  -12.2096   21.2107 C   0  0  0  0  0  0  0  0  0  0  0  0
  -23.6989  -16.1201   17.1685 C   0  0  0  0  0  0  0  0  0  0  0  0
  -25.8117  -29.8817   24.8796 C   0  0  0  0  0  0  0  0  0  0  0  0
  -24.9109  -31.7970   23.7146 C   0  0  0  0  0  0  0  0  0  0  0  0
  -24.1302  -17.4359   17.0061 C   0  0  0  0  0  0  0  0  0  0  0  0
  -24.6834  -34.1656   26.4619 C   0  0  0  0  0  0  0  0  0  0  0  0
  -25.1031  -35.4949   26.5090 C   0  0  0  0  0  0  0  0  0  0  0  0
  -25.6664  -17.1529   18.8443 C   0  0  0  0  0  0  0  0  0  0  0  0
  -27.3385  -34.8107   25.8990 C   0  0  0  0  0  0  0  0  0  0  0  0
  -25.5526  -29.8229   22.4783 C   0  0  0  0  0  0  0  0  0  0  0  0
  -24.7265  -28.2977   20.6078 C   0  0  0  0  0  0  0  0  0  0  0  0
  -20.0320  -11.1236   23.2394 C   0  0  0  0  0  0  0  0  0  0  0  0
  -24.2413  -15.3128   18.1788 C   0  0  0  0  0  0  0  0  0  0  0  0
  -20.1732  -12.1430   22.2784 C   0  0  0  0  0  0  0  0  0  0  0  0
  -25.2422  -15.8264   19.0158 C   0  0  0  0  0  0  0  0  0  0  0  0
  -25.2975  -31.1781   24.9034 C   0  0  0  0  0  0  0  0  0  0  0  0
  -25.1120  -17.9534   17.8459 C   0  0  0  0  0  0  0  0  0  0  0  0
  -25.5912  -33.1587   26.1335 C   0  0  0  0  0  0  0  0  0  0  0  0
  -26.4306  -35.8175   26.2275 C   0  0  0  0  0  0  0  0  0  0  0  0
  -26.9187  -33.4813   25.8520 C   0  0  0  0  0  0  0  0  0  0  0  0
  -25.6846  -29.1237   21.2254 C   0  0  0  0  0  0  0  0  0  0  0  0
  -25.3313  -27.8779   19.4483 C   0  0  0  0  0  0  0  0  0  0  0  0
  -27.5773  -21.7809   19.5023 C   0  0  0  0  0  0  0  0  0  0  0  0
  -27.0496  -22.8536   20.1683 C   0  0  0  0  0  0  0  0  0  0  0  0
  -28.8887  -21.0952   19.8314 C   0  0  0  0  0  0  0  0  0  0  0  0
  -29.9741  -21.9930   20.2986 C   0  0  0  0  0  0  0  0  0  0  0  0
  -28.7255  -24.3567   21.3665 C   0  0  0  0  0  0  0  0  0  0  0  0
  -23.4076  -27.9418   21.0432 C   0  0  0  0  0  0  0  0  0  0  0  0
  -23.0738  -13.8399   20.7422 C   0  0  0  0  0  0  0  0  0  0  0  0
  -26.0731  -12.6178   20.9245 C   0  0  0  0  0  0  0  0  0  0  0  0
  -29.3821  -12.9333   20.1512 C   0  0  0  0  0  0  0  0  0  0  0  0
  -29.4934  -26.6289   20.9011 C   0  0  0  0  0  0  0  0  0  0  0  0
  -20.9483  -11.0264   24.4333 C   0  0  0  0  0  0  0  0  0  0  0  0
  -23.7844  -13.8871   18.3237 C   0  0  0  0  0  0  0  0  0  0  0  0
  -25.8710  -14.9946   20.1027 C   0  0  0  0  0  0  0  0  0  0  0  0
  -30.7240  -22.9106   19.3455 C   0  0  0  0  0  0  0  0  0  0  0  0
  -22.2462  -11.8134   24.2707 C   0  0  0  0  0  0  0  0  0  0  0  0
  -29.7388  -29.6312   19.1590 C   0  0  0  0  0  0  0  0  0  0  0  0
  -21.9588  -13.2117   23.7329 C   0  0  0  0  0  0  0  0  0  0  0  0
  -25.6597  -23.0984   23.3227 C   0  0  0  0  0  0  0  0  0  0  0  0
  -26.6494  -24.0684   23.9053 C   0  0  0  0  0  0  0  0  0  0  0  0
  -28.5845  -29.5263   18.1515 C   0  0  0  0  0  0  0  0  0  0  0  0
  -31.4143  -25.4150   19.8455 C   0  0  0  0  0  0  0  0  0  0  0  0
  -32.3078  -24.5088   20.6371 C   0  0  0  0  0  0  0  0  0  0  0  0
  -30.4522  -28.2989   19.3653 C   0  0  0  0  0  0  0  0  0  0  0  0
  -28.4989  -27.0443   18.5820 C   0  0  0  0  0  0  0  0  0  0  0  0
  -21.3041  -13.1462   22.3477 C   0  0  1  0  0  0  0  0  0  0  0  0
  -27.5202  -23.4346   21.5444 C   0  0  1  0  0  0  0  0  0  0  0  0
  -24.0385  -13.3169   19.7157 C   0  0  1  0  0  0  0  0  0  0  0  0
  -26.4293  -24.0111   22.4353 C   0  0  0  0  0  0  0  0  0  0  0  0
  -27.6462  -28.3137   18.3741 C   0  0  1  0  0  0  0  0  0  0  0  0
  -30.9026  -24.0773   20.2887 C   0  0  0  0  0  0  0  0  0  0  0  0
  -25.8587  -23.5966   19.5900 C   0  0  0  0  0  0  0  0  0  0  0  0
  -27.8358  -21.2841   17.0782 C   0  0  0  0  0  0  0  0  0  0  0  0
  -31.5965  -11.7964   20.4693 C   0  0  0  0  0  0  0  0  0  0  0  0
  -26.1728  -13.6229   23.8037 C   0  0  0  0  0  0  0  0  0  0  0  0
  -28.6581  -13.3258   23.7478 C   0  0  0  0  0  0  0  0  0  0  0  0
  -27.1610  -11.3519   23.4567 C   0  0  0  0  0  0  0  0  0  0  0  0
  -29.7469  -12.5732   17.2364 C   0  0  0  0  0  0  0  0  0  0  0  0
  -26.5427  -19.7037   18.5843 C   0  0  0  0  0  0  0  0  0  1  0  0
  -26.9236  -21.1537   18.2922 C   0  0  1  0  0  0  0  0  0  0  0  0
  -27.3618  -13.0416   21.5869 C   0  0  1  0  0  0  0  0  0  0  0  0
  -30.3792  -11.9471   19.5703 C   0  0  2  0  0  0  0  0  0  0  0  0
  -27.3254  -12.8521   23.1296 C   0  0  0  0  0  0  0  0  0  0  0  0
  -26.8125  -29.2238   20.5170 N   0  0  0  0  0  0  0  0  0  0  0  0
  -29.9611  -22.3242   21.5499 N   0  0  0  0  0  0  0  0  0  0  0  0
  -26.5670  -28.4551   19.4423 N   0  0  0  0  0  0  0  0  0  0  0  0
  -29.9344  -23.7404   21.3717 N   0  0  0  0  0  0  0  0  0  0  0  0
  -25.3861  -13.6085   20.2087 N   0  0  0  0  0  0  0  0  0  0  0  0
  -29.4773  -27.2507   19.6539 N   0  0  0  0  0  0  0  0  0  0  0  0
  -24.9214  -27.0748   18.4436 N   0  0  0  0  0  0  0  0  0  0  0  0
  -22.9423  -28.4616   22.2588 N   0  0  0  0  0  0  0  0  0  0  0  0
  -22.2960  -12.8623   21.3328 N   0  0  0  0  0  0  0  0  0  0  0  0
  -28.4267  -12.3014   20.9188 N   0  0  0  0  0  0  0  0  0  0  0  0
  -28.4740  -25.6274   21.0979 N   0  3  0  0  0  0  0  0  0  0  0  0
  -30.8395  -12.4053   18.2289 N   0  3  0  0  0  0  0  0  0  0  0  0
  -29.1332  -19.9100   19.6924 O   0  0  0  0  0  0  0  0  0  0  0  0
  -22.6699  -27.1722   20.3821 O   0  0  0  0  0  0  0  0  0  0  0  0
  -23.0389  -15.0412   20.9817 O   0  0  0  0  0  0  0  0  0  0  0  0
  -25.6937  -11.4490   21.0321 O   0  0  0  0  0  0  0  0  0  0  0  0
  -29.4465  -14.1437   19.9477 O   0  0  0  0  0  0  0  0  0  0  0  0
  -30.2697  -26.8783   21.8174 O   0  0  0  0  0  0  0  0  0  0  0  0
  -25.1727  -31.8395   26.0864 O   0  0  0  0  0  0  0  0  0  0  0  0
  -25.5373  -19.2467   17.6888 O   0  0  0  0  0  0  0  0  0  1  0  0
  -26.8332  -37.0943   26.2713 F   0  0  0  0  0  0  0  0  0  0  0  0
  -27.7952  -32.5185   25.5347 F   0  0  0  0  0  0  0  0  0  0  0  0
  1  2  1  0  0  0  0
  1  5  2  0  0  0  0
  2  6  2  0  0  0  0
  3  8  2  0  0  0  0
  3 15  1  0  0  0  0
  4  9  1  0  0  0  0
  4 15  2  0  0  0  0
  5 17  1  0  0  0  0
  6 19  1  0  0  0  0
  7 10  2  0  0  0  0
  7 18  1  0  0  0  0
  8 21  1  0  0  0  0
  9 21  2  0  0  0  0
 10 22  1  0  0  0  0
 11 12  2  0  0  0  0
 11 23  1  0  0  0  0
 12 24  1  0  0  0  0
 13 20  1  0  0  0  0
 13 22  2  0  0  0  0
 14 24  2  0  0  0  0
 14 25  1  0  0  0  0
 15 26  1  0  0  0  0
 16 26  1  0  0  0  0
 16 27  2  0  0  0  0
 16 33  1  0  0  0  0
 17 19  2  0  0  0  0
 17 38  1  0  0  0  0
 18 20  2  0  0  0  0
 18 39  1  0  0  0  0
 19 52  1  0  0  0  0
 20 40  1  0  0  0  0
 21 88  1  0  0  0  0
 22 89  1  0  0  0  0
 23 25  2  0  0  0  0
 23 88  1  0  0  0  0
 24 90  1  0  0  0  0
 25 91  1  0  0  0  0
 26 70  2  0  0  0  0
 27 72  1  0  0  0  0
 27 76  1  0  0  0  0
 28 29  2  0  0  0  0
 28 30  1  0  0  0  0
 28 66  1  0  0  0  0
 29 53  1  0  0  0  0
 29 58  1  0  0  0  0
 30 31  1  0  0  0  0
 30 82  2  0  0  0  0
 31 41  1  0  0  0  0
 31 71  2  0  0  0  0
 32 53  1  0  0  0  0
 32 73  1  0  0  0  0
 32 80  2  0  0  0  0
 33 77  1  0  0  0  0
 33 83  2  0  0  0  0
 34 54  1  0  0  0  0
 34 78  1  0  0  0  0
 34 84  2  0  0  0  0
 35 67  1  0  0  0  0
 35 74  1  0  0  0  0
 35 85  2  0  0  0  0
 36 68  1  0  0  0  0
 36 79  1  0  0  0  0
 36 86  2  0  0  0  0
 37 75  1  0  0  0  0
 37 80  1  0  0  0  0
 37 87  2  0  0  0  0
 38 42  1  0  0  0  0
 39 54  1  0  0  0  0
 40 74  1  0  0  0  0
 41 57  1  0  0  0  0
 42 44  1  0  0  0  0
 43 47  1  0  0  0  0
 43 50  1  0  0  0  0
 44 52  1  0  0  0  0
 45 46  1  0  0  0  0
 45 55  1  0  0  0  0
 46 55  1  0  0  0  0
 47 56  1  0  0  0  0
 48 49  1  0  0  0  0
 48 57  1  0  0  0  0
 49 57  1  0  0  0  0
 50 75  1  0  0  0  0
 51 56  1  0  0  0  0
 51 75  1  0  0  0  0
 52 78  1  0  0  0  0
 53 55  1  0  0  0  0
 54 74  1  0  0  0  0
 56 72  1  0  0  0  0
 57 73  1  0  0  0  0
 59 66  1  0  0  0  0
 60 68  1  0  0  0  0
 61 69  1  0  0  0  0
 62 69  1  0  0  0  0
 63 69  1  0  0  0  0
 64 81  1  0  0  0  0
 65 66  1  0  0  0  0
 65 89  1  0  0  0  0
 67 69  1  0  0  0  0
 67 79  1  0  0  0  0
 68 81  1  0  0  0  0
 70 72  1  0  0  0  0
 71 73  1  0  0  0  0
M  CHG  2  80   1  81   1
M  ISO  4  37 100  65 101  80 100  89 101
M  END
> <Batch ID>
0169

> <Smiles>
CNC(C)C(=O)NC(C(=O)N1Cc2cc([101O:1][101CH2:1]C(C)C3=C(C)C(C4CC4)=C([100NH:0][100C:0](=O)N4CCCC(n5nc(-c6ccc(Oc7ccc(F)cc7F)cc6)c(C(N)=O)c5N)C4)N4N=C(CC45CC5)C3=O)ccc2CC1C(=O)NC1CCCc2ccccc21)C(C)(C)C

> <Shape>
0.275

> <Color>
0.063

> <Negative vol penalty>
0.000

$$$$

  -OEChem-04052322323D

 85 95  0     1  0  0  0  0  0999 V2000
  -33.6654  -28.7891   16.6217 C   0  0  0  0  0  0  0  0  0  0  0  0
  -32.9167  -27.8682   17.3475 C   0  0  0  0  0  0  0  0  0  0  0  0
  -22.5556   -7.0551   24.0693 C   0  0  0  0  0  0  0  0  0  0  0  0
  -21.3187   -6.2221   22.1684 C   0  0  0  0  0  0  0  0  0  0  0  0
  -33.7531  -30.1112   17.0556 C   0  0  0  0  0  0  0  0  0  0  0  0
  -32.2561  -28.2687   18.5083 C   0  0  0  0  0  0  0  0  0  0  0  0
  -27.5172  -26.5005   18.7551 C   0  0  0  0  0  0  0  0  0  0  0  0
  -21.9490   -6.0985   24.8832 C   0  0  0  0  0  0  0  0  0  0  0  0
  -20.7121   -5.2654   22.9824 C   0  0  0  0  0  0  0  0  0  0  0  0
  -27.3536  -25.1678   19.1304 C   0  0  0  0  0  0  0  0  0  0  0  0
  -22.2973   -2.7986   25.5332 C   0  0  0  0  0  0  0  0  0  0  0  0
  -23.1097   -2.0939   26.4214 C   0  0  0  0  0  0  0  0  0  0  0  0
  -26.8393  -19.2302   21.4007 C   0  0  0  0  0  0  0  0  0  0  0  0
  -27.5458  -20.4393   21.1862 C   0  0  0  0  0  0  0  0  0  0  0  0
  -26.8139  -25.8720   21.3736 C   0  0  0  0  0  0  0  0  0  0  0  0
  -21.8108   -2.9349   28.2769 C   0  0  0  0  0  0  0  0  0  0  0  0
  -22.2404   -7.1169   22.7119 C   0  0  0  0  0  0  0  0  0  0  0  0
  -24.0670   -7.9695   21.1485 C   0  0  0  0  0  0  0  0  0  0  0  0
  -33.0853  -30.5303   18.2171 C   0  0  0  0  0  0  0  0  0  0  0  0
  -27.3407  -27.5302   19.6906 C   0  0  0  0  0  0  0  0  0  0  0  0
  -32.3360  -29.5973   18.9590 C   0  0  0  0  0  0  0  0  0  0  0  0
  -26.9733  -27.2171   21.0070 C   0  0  0  0  0  0  0  0  0  0  0  0
  -21.0273   -5.2037   24.3398 C   0  0  0  0  0  0  0  0  0  0  0  0
  -27.0047  -24.8532   20.4406 C   0  0  0  0  0  0  0  0  0  0  0  0
  -21.2416   -3.5715   26.0169 C   0  0  0  0  0  0  0  0  0  0  0  0
  -22.8665   -2.1620   27.7932 C   0  0  0  0  0  0  0  0  0  0  0  0
  -20.9983   -3.6396   27.3887 C   0  0  0  0  0  0  0  0  0  0  0  0
  -22.8663   -8.1052   21.8706 C   0  0  0  0  0  0  0  0  0  0  0  0
  -25.6681  -19.3047   20.6796 C   0  0  0  0  0  0  0  0  0  0  0  0
  -26.7848  -21.2160   20.3407 C   0  0  0  0  0  0  0  0  0  0  0  0
  -24.2252   -9.1779   20.5150 C   0  0  0  0  0  0  0  0  0  0  0  0
  -24.9596   -6.8511   21.0583 C   0  0  0  0  0  0  0  0  0  0  0  0
  -29.2085  -29.7908   20.9171 C   0  0  0  0  0  0  0  0  0  0  0  0
  -26.4452  -30.7777   22.3001 C   0  0  0  0  0  0  0  0  0  0  0  0
  -23.3062  -29.9917   23.3843 C   0  0  0  0  0  0  0  0  0  0  0  0
  -24.2330  -14.5938   20.5372 C   0  0  0  0  0  0  0  0  0  0  0  0
  -33.2483  -31.9588   18.6726 C   0  0  0  0  0  0  0  0  0  0  0  0
  -27.4947  -28.9641   19.2632 C   0  0  0  0  0  0  0  0  0  0  0  0
  -26.7523  -28.2866   22.0443 C   0  0  0  0  0  0  0  0  0  0  0  0
  -32.2125  -32.3900   19.7077 C   0  0  0  0  0  0  0  0  0  0  0  0
  -21.0496  -13.0544   19.9464 C   0  0  0  0  0  0  0  0  0  0  0  0
  -32.0717  -31.3301   20.7957 C   0  0  0  0  0  0  0  0  0  0  0  0
  -21.3304  -11.6144   20.3687 C   0  0  0  0  0  0  0  0  0  0  0  0
  -23.8962  -22.3107   19.4288 C   0  0  0  0  0  0  0  0  0  0  0  0
  -23.1471  -21.0348   19.6544 C   0  0  0  0  0  0  0  0  0  0  0  0
  -23.8639  -17.9462   21.8729 C   0  0  0  0  0  0  0  0  0  0  0  0
  -21.7649  -14.0710   20.8384 C   0  0  0  0  0  0  0  0  0  0  0  0
  -23.1260  -16.6608   21.5271 C   0  0  0  0  0  0  0  0  0  0  0  0
  -23.5001  -12.3890   21.3874 C   0  0  0  0  0  0  0  0  0  0  0  0
  -31.5849  -29.9993   20.2097 C   0  0  1  0  0  0  0  0  0  0  0  0
  -24.5487  -18.2997   20.5469 C   0  0  2  0  0  0  0  0  0  0  0  0
  -27.7931  -29.9054   20.4261 C   0  0  1  0  0  0  0  0  0  0  0  0
  -24.5789  -20.9870   19.1748 C   0  0  0  0  0  0  0  0  0  0  0  0
  -22.8437  -11.3584   20.4576 C   0  0  1  0  0  0  0  0  0  0  0  0
  -24.9783  -16.9190   20.0035 C   0  0  2  0  0  0  0  0  0  0  0  0
  -24.9699  -16.8815   18.4774 C   0  0  0  0  0  0  0  0  0  0  0  0
  -21.2999  -30.9986   24.5062 C   0  0  0  0  0  0  0  0  0  0  0  0
  -27.8987  -30.6806   24.9811 C   0  0  0  0  0  0  0  0  0  0  0  0
  -25.6675  -30.7558   26.1145 C   0  0  0  0  0  0  0  0  0  0  0  0
  -26.3997  -32.6594   24.6782 C   0  0  0  0  0  0  0  0  0  0  0  0
  -21.5746  -29.4294   21.0510 C   0  0  0  0  0  0  0  0  0  0  0  0
  -27.0521  -22.5640   19.7977 C   0  0  0  0  0  0  0  0  0  1  0  0
  -25.7303  -30.4753   23.5949 C   0  0  1  0  0  0  0  0  0  0  0  0
  -21.9680  -30.6782   23.1781 C   0  0  2  0  0  0  0  0  0  0  0  0
  -26.4300  -31.1223   24.8233 C   0  0  0  0  0  0  0  0  0  0  0  0
  -22.3017   -9.3052   21.7115 N   0  0  0  0  0  0  0  0  0  0  0  0
  -25.6455  -20.5163   20.0395 N   0  0  0  0  0  0  0  0  0  0  0  0
  -23.1515   -9.9346   20.8822 N   0  0  0  0  0  0  0  0  0  0  0  0
  -26.9210  -29.6732   21.5793 N   0  0  0  0  0  0  0  0  0  0  0  0
  -23.1933  -13.7586   20.9658 N   0  0  0  0  0  0  0  0  0  0  0  0
  -24.0142  -15.9735   20.5875 N   0  0  0  0  0  0  0  0  0  0  0  0
  -25.1765   -9.6563   19.6853 N   0  0  0  0  0  0  0  0  0  0  0  0
  -24.6465   -5.6870   21.7732 N   0  0  0  0  0  0  0  0  0  0  0  0
  -30.1618  -30.0513   19.9513 N   0  0  0  0  0  0  0  0  0  0  0  0
  -24.3464  -30.8965   23.4050 N   0  0  0  0  0  0  0  0  0  0  0  0
  -21.0533  -29.8039   22.3907 N   0  3  0  0  0  0  0  0  0  0  0  0
  -26.0125   -6.8889   20.3774 O   0  0  0  0  0  0  0  0  0  0  0  0
  -29.4200  -29.4899   22.0860 O   0  0  0  0  0  0  0  0  0  0  0  0
  -26.5705  -31.9502   21.9380 O   0  0  0  0  0  0  0  0  0  0  0  0
  -23.4171  -28.7750   23.5177 O   0  0  0  0  0  0  0  0  0  0  0  0
  -25.3159  -14.1307   20.1561 O   0  0  0  0  0  0  0  0  0  0  0  0
  -20.4353   -4.2699   25.1338 O   0  0  0  0  0  0  0  0  0  0  0  0
  -26.8442  -23.5462   20.8117 O   0  0  0  0  0  0  0  0  0  1  0  0
  -23.6459   -1.4840   28.6459 F   0  0  0  0  0  0  0  0  0  0  0  0
  -19.9849   -4.3795   27.8591 F   0  0  0  0  0  0  0  0  0  0  0  0
  1  2  1  0  0  0  0
  1  5  2  0  0  0  0
  2  6  2  0  0  0  0
  3  8  2  0  0  0  0
  3 17  1  0  0  0  0
  4  9  1  0  0  0  0
  4 17  2  0  0  0  0
  5 19  1  0  0  0  0
  6 21  1  0  0  0  0
  7 10  2  0  0  0  0
  7 20  1  0  0  0  0
  8 23  1  0  0  0  0
  9 23  2  0  0  0  0
 10 24  1  0  0  0  0
 11 12  2  0  0  0  0
 11 25  1  0  0  0  0
 12 26  1  0  0  0  0
 13 14  1  0  0  0  0
 13 29  2  0  0  0  0
 14 30  2  0  0  0  0
 15 22  1  0  0  0  0
 15 24  2  0  0  0  0
 16 26  2  0  0  0  0
 16 27  1  0  0  0  0
 17 28  1  0  0  0  0
 18 28  1  0  0  0  0
 18 31  2  0  0  0  0
 18 32  1  0  0  0  0
 19 21  2  0  0  0  0
 19 37  1  0  0  0  0
 20 22  2  0  0  0  0
 20 38  1  0  0  0  0
 21 50  1  0  0  0  0
 22 39  1  0  0  0  0
 23 82  1  0  0  0  0
 24 83  1  0  0  0  0
 25 27  2  0  0  0  0
 25 82  1  0  0  0  0
 26 84  1  0  0  0  0
 27 85  1  0  0  0  0
 28 66  2  0  0  0  0
 29 51  1  0  0  0  0
 29 67  1  0  0  0  0
 30 62  1  0  0  0  0
 30 67  1  0  0  0  0
 31 68  1  0  0  0  0
 31 72  1  0  0  0  0
 32 73  1  0  0  0  0
 32 77  2  0  0  0  0
 33 52  1  0  0  0  0
 33 74  1  0  0  0  0
 33 78  2  0  0  0  0
 34 63  1  0  0  0  0
 34 69  1  0  0  0  0
 34 79  2  0  0  0  0
 35 64  1  0  0  0  0
 35 75  1  0  0  0  0
 35 80  2  0  0  0  0
 36 70  1  0  0  0  0
 36 71  1  0  0  0  0
 36 81  2  0  0  0  0
 37 40  1  0  0  0  0
 38 52  1  0  0  0  0
 39 69  1  0  0  0  0
 40 42  1  0  0  0  0
 41 43  1  0  0  0  0
 41 47  1  0  0  0  0
 42 50  1  0  0  0  0
 43 54  1  0  0  0  0
 44 45  1  0  0  0  0
 44 53  1  0  0  0  0
 45 53  1  0  0  0  0
 46 48  1  0  0  0  0
 46 51  1  0  0  0  0
 47 70  1  0  0  0  0
 48 71  1  0  0  0  0
 49 54  1  0  0  0  0
 49 70  1  0  0  0  0
 50 74  1  0  0  0  0
 51 55  1  0  0  0  0
 52 69  1  0  0  0  0
 53 67  1  0  0  0  0
 54 68  1  0  0  0  0
 55 56  1  0  0  0  0
 55 71  1  0  0  0  0
 57 64  1  0  0  0  0
 58 65  1  0  0  0  0
 59 65  1  0  0  0  0
 60 65  1  0  0  0  0
 61 76  1  0  0  0  0
 62 83  1  0  0  0  0
 63 65  1  0  0  0  0
 63 75  1  0  0  0  0
 64 76  1  0  0  0  0
 66 68  1  0  0  0  0
M  CHG  1  76   1
M  ISO  4  36 100  62 101  71 100  83 101
M  END
> <Batch ID>
0169

> <Smiles>
CNC(C)C(=O)NC(C(=O)N1Cc2cc([101O:1][101CH2:1]c3ccc(C4CC[100N:0]([100C:0](=O)N5CCCC(n6nc(-c7ccc(Oc8ccc(F)cc8F)cc7)c(C(N)=O)c6N)C5)C4C)n3C3CC3)ccc2CC1C(=O)NC1CCCc2ccccc21)C(C)(C)C

> <Shape>
0.215

> <Color>
0.088

> <Negative vol penalty>
0.000

$$$$

  -OEChem-04052322323D

 89100  0     1  0  0  0  0  0999 V2000
  -22.4203  -27.7419   25.2801 C   0  0  0  0  0  0  0  0  0  0  0  0
  -22.8480  -26.4187   25.2418 C   0  0  0  0  0  0  0  0  0  0  0  0
  -27.7723  -26.1199   17.8244 C   0  0  0  0  0  0  0  0  0  0  0  0
  -27.3691  -25.7732   20.1811 C   0  0  0  0  0  0  0  0  0  0  0  0
  -21.3705  -28.1580   24.4622 C   0  0  0  0  0  0  0  0  0  0  0  0
  -22.2253  -25.5103   24.3863 C   0  0  0  0  0  0  0  0  0  0  0  0
  -24.8596  -20.8411   21.4257 C   0  0  0  0  0  0  0  0  0  0  0  0
  -26.7120  -27.0249   17.7761 C   0  0  0  0  0  0  0  0  0  0  0  0
  -26.3088  -26.6783   20.1329 C   0  0  0  0  0  0  0  0  0  0  0  0
  -24.9320  -19.4765   21.7021 C   0  0  0  0  0  0  0  0  0  0  0  0
  -25.8989  -30.0326   20.0994 C   0  0  0  0  0  0  0  0  0  0  0  0
  -25.8109  -30.9803   21.1190 C   0  0  0  0  0  0  0  0  0  0  0  0
  -23.0409  -19.0893   20.2554 C   0  0  0  0  0  0  0  0  0  0  0  0
  -23.6221  -13.3416   19.9031 C   0  0  0  0  0  0  0  0  0  0  0  0
  -23.6383  -30.1193   21.7318 C   0  0  0  0  0  0  0  0  0  0  0  0
  -28.1008  -25.4940   19.0269 C   0  0  0  0  0  0  0  0  0  0  0  0
  -30.5465  -24.8450   19.3507 C   0  0  0  0  0  0  0  0  0  0  0  0
  -20.7411  -27.2566   23.5893 C   0  0  0  0  0  0  0  0  0  0  0  0
  -23.8687  -21.3423   20.5693 C   0  0  0  0  0  0  0  0  0  0  0  0
  -21.1653  -25.9144   23.5570 C   0  0  0  0  0  0  0  0  0  0  0  0
  -22.9596  -20.4603   19.9678 C   0  0  0  0  0  0  0  0  0  0  0  0
  -25.7742  -13.3017   18.8302 C   0  0  0  0  0  0  0  0  0  0  0  0
  -24.4948  -12.7780   18.9789 C   0  0  0  0  0  0  0  0  0  0  0  0
  -25.9803  -27.3041   18.9304 C   0  0  0  0  0  0  0  0  0  0  0  0
  -24.0208  -18.6007   21.1192 C   0  0  0  0  0  0  0  0  0  0  0  0
  -24.8566  -29.1282   19.8959 C   0  0  0  0  0  0  0  0  0  0  0  0
  -24.6807  -31.0237   21.9352 C   0  0  0  0  0  0  0  0  0  0  0  0
  -23.7263  -29.1716   20.7122 C   0  0  0  0  0  0  0  0  0  0  0  0
  -29.1956  -24.5586   19.0772 C   0  0  0  0  0  0  0  0  0  0  0  0
  -26.1295  -14.3809   19.6232 C   0  0  0  0  0  0  0  0  0  0  0  0
  -24.0738  -14.4188   20.6483 C   0  0  0  0  0  0  0  0  0  0  0  0
  -31.1769  -23.6267   19.2801 C   0  0  0  0  0  0  0  0  0  0  0  0
  -31.1754  -26.1000   19.6424 C   0  0  0  0  0  0  0  0  0  0  0  0
  -21.4442  -23.3728   20.8896 C   0  0  0  0  0  0  0  0  0  0  0  0
  -21.1853  -22.9617   17.6824 C   0  0  0  0  0  0  0  0  0  0  0  0
  -21.7840  -20.9992   14.9553 C   0  0  0  0  0  0  0  0  0  0  0  0
  -29.0361  -18.1393   20.1111 C   0  0  0  0  0  0  0  0  0  0  0  0
  -19.5794  -27.7416   22.7587 C   0  0  0  0  0  0  0  0  0  0  0  0
  -23.8207  -22.8136   20.2604 C   0  0  0  0  0  0  0  0  0  0  0  0
  -21.8896  -20.9453   19.0253 C   0  0  0  0  0  0  0  0  0  0  0  0
  -19.2204  -26.8051   21.6079 C   0  0  0  0  0  0  0  0  0  0  0  0
  -30.8974  -19.3621   17.1862 C   0  0  0  0  0  0  0  0  0  0  0  0
  -27.3574  -13.6275   16.8149 C   0  0  0  0  0  0  0  0  0  0  0  0
  -26.3354  -12.6145   16.4030 C   0  0  0  0  0  0  0  0  0  0  0  0
  -19.1668  -25.3598   22.0927 C   0  0  0  0  0  0  0  0  0  0  0  0
  -22.8131  -14.9163   24.2569 C   0  0  0  0  0  0  0  0  0  0  0  0
  -23.4644  -13.6295   23.8330 C   0  0  0  0  0  0  0  0  0  0  0  0
  -30.7225  -20.8690   17.3374 C   0  0  0  0  0  0  0  0  0  0  0  0
  -29.6859  -18.5798   17.6939 C   0  0  0  0  0  0  0  0  0  0  0  0
  -27.7129  -16.3776   18.7346 C   0  0  0  0  0  0  0  0  0  0  0  0
  -28.0286  -15.9065   20.7821 C   0  0  0  0  0  0  0  0  0  0  0  0
  -29.1227  -20.4479   19.2353 C   0  0  0  0  0  0  0  0  0  0  0  0
  -26.7387  -12.7250   17.8502 C   0  0  0  0  0  0  0  0  0  0  0  0
  -20.5315  -24.9052   22.6243 C   0  0  1  0  0  0  0  0  0  0  0  0
  -27.5496  -15.0847   19.5676 C   0  0  0  0  0  0  0  0  0  0  0  0
  -22.4502  -23.2782   19.7774 C   0  0  1  0  0  0  0  0  0  0  0  0
  -23.7193  -14.8921   23.0573 C   0  0  0  0  0  0  0  0  0  0  0  0
  -30.3694  -21.2236   18.7891 C   0  0  2  0  0  0  0  0  0  0  0  0
  -24.0356  -11.6161   18.1612 C   0  0  0  0  0  0  0  0  0  0  0  0
  -21.4221  -20.9117   12.4736 C   0  0  0  0  0  0  0  0  0  0  0  0
  -18.2557  -22.2403   18.1375 C   0  0  0  0  0  0  0  0  0  0  0  0
  -18.2099  -21.2653   15.8319 C   0  0  0  0  0  0  0  0  0  0  0  0
  -18.6746  -23.6958   16.1474 C   0  0  0  0  0  0  0  0  0  0  0  0
  -24.6933  -20.9296   14.4166 C   0  0  0  0  0  0  0  0  0  0  0  0
  -22.8652  -16.5352   21.3515 C   0  0  0  0  0  0  0  0  0  1  0  0
  -23.1482  -15.0596   21.6678 C   0  0  1  0  0  0  0  0  0  0  0  0
  -20.4415  -22.0032   16.7840 C   0  0  1  0  0  0  0  0  0  0  0  0
  -22.3684  -21.3208   13.5916 C   0  0  2  0  0  0  0  0  0  0  0  0
  -18.9143  -22.2920   16.7444 C   0  0  0  0  0  0  0  0  0  0  0  0
  -28.9796  -23.2603   18.8498 N   0  0  0  0  0  0  0  0  0  0  0  0
  -25.3094  -14.9550   20.5317 N   0  0  0  0  0  0  0  0  0  0  0  0
  -30.2032  -22.7201   18.9801 N   0  0  0  0  0  0  0  0  0  0  0  0
  -21.8796  -22.3934   18.7597 N   0  0  0  0  0  0  0  0  0  0  0  0
  -29.2756  -19.0027   19.0368 N   0  0  0  0  0  0  0  0  0  0  0  0
  -28.5382  -16.8839   19.8245 N   0  0  0  0  0  0  0  0  0  0  0  0
  -32.4635  -23.2533   19.4460 N   0  0  0  0  0  0  0  0  0  0  0  0
  -30.3805  -27.2539   19.6754 N   0  0  0  0  0  0  0  0  0  0  0  0
  -21.4245  -24.5984   21.5276 N   0  0  0  0  0  0  0  0  0  0  0  0
  -21.0966  -22.0721   15.4823 N   0  0  0  0  0  0  0  0  0  0  0  0
  -23.6606  -20.6036   13.3996 N   0  3  0  0  0  0  0  0  0  0  0  0
  -32.4085  -26.1978   19.8510 O   0  0  0  0  0  0  0  0  0  0  0  0
  -20.7373  -22.4060   21.1487 O   0  0  0  0  0  0  0  0  0  0  0  0
  -21.1573  -24.1695   17.4331 O   0  0  0  0  0  0  0  0  0  0  0  0
  -21.9203  -19.9045   15.4971 O   0  0  0  0  0  0  0  0  0  0  0  0
  -29.2257  -18.4826   21.2849 O   0  0  0  0  0  0  0  0  0  0  0  0
  -24.9457  -28.1874   18.8837 O   0  0  0  0  0  0  0  0  0  0  0  0
  -24.0889  -17.2684   21.3877 O   0  0  0  0  0  0  0  0  0  1  0  0
  -24.5970  -31.9329   22.9153 F   0  0  0  0  0  0  0  0  0  0  0  0
  -22.7222  -28.3046   20.5223 F   0  0  0  0  0  0  0  0  0  0  0  0
  1  2  1  0  0  0  0
  1  5  2  0  0  0  0
  2  6  2  0  0  0  0
  3  8  2  0  0  0  0
  3 16  1  0  0  0  0
  4  9  1  0  0  0  0
  4 16  2  0  0  0  0
  5 18  1  0  0  0  0
  6 20  1  0  0  0  0
  7 10  2  0  0  0  0
  7 19  1  0  0  0  0
  8 24  1  0  0  0  0
  9 24  2  0  0  0  0
 10 25  1  0  0  0  0
 11 12  2  0  0  0  0
 11 26  1  0  0  0  0
 12 27  1  0  0  0  0
 13 21  1  0  0  0  0
 13 25  2  0  0  0  0
 14 23  2  0  0  0  0
 14 31  1  0  0  0  0
 15 27  2  0  0  0  0
 15 28  1  0  0  0  0
 16 29  1  0  0  0  0
 17 29  1  0  0  0  0
 17 32  2  0  0  0  0
 17 33  1  0  0  0  0
 18 20  2  0  0  0  0
 18 38  1  0  0  0  0
 19 21  2  0  0  0  0
 19 39  1  0  0  0  0
 20 54  1  0  0  0  0
 21 40  1  0  0  0  0
 22 23  1  0  0  0  0
 22 30  2  0  0  0  0
 22 53  1  0  0  0  0
 23 59  1  0  0  0  0
 24 86  1  0  0  0  0
 25 87  1  0  0  0  0
 26 28  2  0  0  0  0
 26 86  1  0  0  0  0
 27 88  1  0  0  0  0
 28 89  1  0  0  0  0
 29 70  2  0  0  0  0
 30 55  1  0  0  0  0
 30 71  1  0  0  0  0
 31 66  1  0  0  0  0
 31 71  2  0  0  0  0
 32 72  1  0  0  0  0
 32 76  1  0  0  0  0
 33 77  1  0  0  0  0
 33 81  2  0  0  0  0
 34 56  1  0  0  0  0
 34 78  1  0  0  0  0
 34 82  2  0  0  0  0
 35 67  1  0  0  0  0
 35 73  1  0  0  0  0
 35 83  2  0  0  0  0
 36 68  1  0  0  0  0
 36 79  1  0  0  0  0
 36 84  2  0  0  0  0
 37 74  1  0  0  0  0
 37 75  1  0  0  0  0
 37 85  2  0  0  0  0
 38 41  1  0  0  0  0
 39 56  1  0  0  0  0
 40 73  1  0  0  0  0
 41 45  1  0  0  0  0
 42 48  1  0  0  0  0
 42 49  1  0  0  0  0
 43 44  1  0  0  0  0
 43 53  1  0  0  0  0
 44 53  1  0  0  0  0
 45 54  1  0  0  0  0
 46 47  1  0  0  0  0
 46 57  1  0  0  0  0
 47 57  1  0  0  0  0
 48 58  1  0  0  0  0
 49 74  1  0  0  0  0
 50 55  1  0  0  0  0
 50 75  1  0  0  0  0
 51 55  1  0  0  0  0
 51 75  1  0  0  0  0
 52 58  1  0  0  0  0
 52 74  1  0  0  0  0
 54 78  1  0  0  0  0
 56 73  1  0  0  0  0
 57 66  1  0  0  0  0
 58 72  1  0  0  0  0
 60 68  1  0  0  0  0
 61 69  1  0  0  0  0
 62 69  1  0  0  0  0
 63 69  1  0  0  0  0
 64 80  1  0  0  0  0
 65 66  1  0  0  0  0
 65 87  1  0  0  0  0
 67 69  1  0  0  0  0
 67 79  1  0  0  0  0
 68 80  1  0  0  0  0
 70 72  1  0  0  0  0
M  CHG  1  80   1
M  ISO  4  37 100  65 101  75 100  87 101
M  END
> <Batch ID>
0169

> <Smiles>
CNC(C)C(=O)NC(C(=O)N1Cc2cc([101O:1][101CH2:1]C(c3cc(C)c(C4CC4)c(C4C[100N:0]([100C:0](=O)N5CCCC(n6nc(-c7ccc(Oc8ccc(F)cc8F)cc7)c(C(N)=O)c6N)C5)C4)n3)C3CC3)ccc2CC1C(=O)NC1CCCc2ccccc21)C(C)(C)C

> <Shape>
0.213

> <Color>
0.060

> <Negative vol penalty>
0.000

$$$$

  -OEChem-04052322323D

 84 93  0     1  0  0  0  0  0999 V2000
  -28.0633  -31.9450   24.6592 C   0  0  0  0  0  0  0  0  0  0  0  0
  -28.0813  -30.8292   23.8285 C   0  0  0  0  0  0  0  0  0  0  0  0
  -25.1382  -18.5387   22.8325 C   0  0  0  0  0  0  0  0  0  0  0  0
  -23.0651   -9.8823   19.9726 C   0  0  0  0  0  0  0  0  0  0  0  0
  -23.9283   -9.8846   22.2291 C   0  0  0  0  0  0  0  0  0  0  0  0
  -29.1608  -32.2252   25.4721 C   0  0  0  0  0  0  0  0  0  0  0  0
  -29.1974  -29.9935   23.8095 C   0  0  0  0  0  0  0  0  0  0  0  0
  -27.9523  -25.0863   23.9270 C   0  0  0  0  0  0  0  0  0  0  0  0
  -22.3477   -8.7183   20.2482 C   0  0  0  0  0  0  0  0  0  0  0  0
  -23.2109   -8.7206   22.5047 C   0  0  0  0  0  0  0  0  0  0  0  0
  -27.5114  -24.5125   22.7352 C   0  0  0  0  0  0  0  0  0  0  0  0
  -20.0235   -7.8782   23.2477 C   0  0  0  0  0  0  0  0  0  0  0  0
  -19.3212   -7.8214   24.4515 C   0  0  0  0  0  0  0  0  0  0  0  0
  -26.2575  -17.7434   23.0512 C   0  0  0  0  0  0  0  0  0  0  0  0
  -25.2009  -19.5798   21.9130 C   0  0  0  0  0  0  0  0  0  0  0  0
  -29.7034  -23.5678   22.3862 C   0  0  0  0  0  0  0  0  0  0  0  0
  -20.6186   -5.8952   25.1175 C   0  0  0  0  0  0  0  0  0  0  0  0
  -23.8555  -10.4654   20.9631 C   0  0  0  0  0  0  0  0  0  0  0  0
  -24.1603  -12.9954   20.8449 C   0  0  0  0  0  0  0  0  0  0  0  0
  -30.2870  -31.3872   25.4702 C   0  0  0  0  0  0  0  0  0  0  0  0
  -29.2773  -24.9138   24.3525 C   0  0  0  0  0  0  0  0  0  0  0  0
  -30.3116  -30.2635   24.6222 C   0  0  0  0  0  0  0  0  0  0  0  0
  -30.1579  -24.1382   23.5850 C   0  0  0  0  0  0  0  0  0  0  0  0
  -22.4205   -8.1374   21.5142 C   0  0  0  0  0  0  0  0  0  0  0  0
  -28.3878  -23.7556   21.9632 C   0  0  0  0  0  0  0  0  0  0  0  0
  -21.0234   -6.9435   22.9788 C   0  0  0  0  0  0  0  0  0  0  0  0
  -19.6187   -6.8299   25.3864 C   0  0  0  0  0  0  0  0  0  0  0  0
  -21.3210   -5.9520   23.9137 C   0  0  0  0  0  0  0  0  0  0  0  0
  -24.5973  -11.6675   20.6788 C   0  0  0  0  0  0  0  0  0  0  0  0
  -27.4062  -18.0280   22.3305 C   0  0  0  0  0  0  0  0  0  0  0  0
  -26.3969  -19.7824   21.2434 C   0  0  0  0  0  0  0  0  0  0  0  0
  -25.2254  -13.7609   20.4375 C   0  0  0  0  0  0  0  0  0  0  0  0
  -22.9039  -13.4925   21.3246 C   0  0  0  0  0  0  0  0  0  0  0  0
  -31.7269  -26.8622   24.9065 C   0  0  0  0  0  0  0  0  0  0  0  0
  -33.1402  -24.1468   25.9796 C   0  0  0  0  0  0  0  0  0  0  0  0
  -33.2905  -20.7380   25.9139 C   0  0  0  0  0  0  0  0  0  0  0  0
  -30.7590  -14.6738   20.7198 C   0  0  0  0  0  0  0  0  0  0  0  0
  -31.4686  -31.7572   26.3314 C   0  0  0  0  0  0  0  0  0  0  0  0
  -29.7300  -25.5170   25.6539 C   0  0  0  0  0  0  0  0  0  0  0  0
  -31.5847  -23.9061   24.0078 C   0  0  0  0  0  0  0  0  0  0  0  0
  -32.4600  -30.6134   26.5292 C   0  0  0  0  0  0  0  0  0  0  0  0
  -29.5009  -12.4922   18.0451 C   0  0  0  0  0  0  0  0  0  0  0  0
  -32.7619  -29.9324   25.1981 C   0  0  0  0  0  0  0  0  0  0  0  0
  -28.0903  -12.1544   18.5347 C   0  0  0  0  0  0  0  0  0  0  0  0
  -29.9981  -17.8601   22.2938 C   0  0  0  0  0  0  0  0  0  0  0  0
  -30.4653  -12.7461   19.2023 C   0  0  0  0  0  0  0  0  0  0  0  0
  -30.9563  -16.6874   22.1586 C   0  0  0  0  0  0  0  0  0  0  0  0
  -28.7370  -15.9493   21.6300 C   0  0  0  0  0  0  0  0  0  0  0  0
  -28.5961  -13.3840   20.6743 C   0  0  0  0  0  0  0  0  0  0  0  0
  -31.4938  -29.3194   24.5918 C   0  0  1  0  0  0  0  0  0  0  0  0
  -28.6433  -17.1830   22.5434 C   0  0  2  0  0  0  0  0  0  0  0  0
  -31.2420  -25.7041   25.7318 C   0  0  1  0  0  0  0  0  0  0  0  0
  -27.5805  -13.2077   19.5378 C   0  0  2  0  0  0  0  0  0  0  0  0
  -34.5743  -18.8041   26.8672 C   0  0  0  0  0  0  0  0  0  0  0  0
  -35.4519  -24.7487   24.0813 C   0  0  0  0  0  0  0  0  0  0  0  0
  -36.2087  -22.3789   24.3631 C   0  0  0  0  0  0  0  0  0  0  0  0
  -36.1429  -23.9080   26.3329 C   0  0  0  0  0  0  0  0  0  0  0  0
  -30.8750  -19.6245   27.2118 C   0  0  0  0  0  0  0  0  0  0  0  0
  -27.6155  -21.1589   19.5565 C   0  0  0  0  0  0  0  0  0  0  0  0
  -28.5819  -21.9757   20.3979 C   0  0  0  0  0  0  0  0  0  1  0  0
  -33.9740  -23.0558   25.3524 C   0  0  1  0  0  0  0  0  0  0  0  0
  -33.3646  -19.7113   27.0296 C   0  0  2  0  0  0  0  0  0  0  0  0
  -35.4181  -23.5286   25.0232 C   0  0  0  0  0  0  0  0  0  0  0  0
  -25.8429  -11.5903   20.2029 N   0  0  0  0  0  0  0  0  0  0  0  0
  -27.5051  -19.0306   21.4291 N   0  0  0  0  0  0  0  0  0  0  0  0
  -26.1977  -12.8794   20.0664 N   0  0  0  0  0  0  0  0  0  0  0  0
  -31.9816  -24.5219   25.2848 N   0  0  0  0  0  0  0  0  0  0  0  0
  -29.9121  -13.7303   20.1304 N   0  0  0  0  0  0  0  0  0  0  0  0
  -30.1644  -15.6272   21.5502 N   0  0  0  0  0  0  0  0  0  0  0  0
  -25.4159  -15.0954   20.3641 N   0  0  0  0  0  0  0  0  0  0  0  0
  -21.9197  -12.5685   21.7012 N   0  0  0  0  0  0  0  0  0  0  0  0
  -26.4446  -20.8472   20.3093 N   0  0  0  0  0  0  0  0  0  0  0  0
  -31.1663  -28.0759   25.2559 N   0  0  0  0  0  0  0  0  0  0  0  0
  -33.9108  -21.9186   26.2641 N   0  0  0  0  0  0  0  0  0  0  0  0
  -32.1389  -18.8637   27.0358 N   0  3  0  0  0  0  0  0  0  0  0  0
  -22.6553  -14.7196   21.4010 O   0  0  0  0  0  0  0  0  0  0  0  0
  -32.5500  -26.6692   24.0193 O   0  0  0  0  0  0  0  0  0  0  0  0
  -33.4998  -24.6429   27.0502 O   0  0  0  0  0  0  0  0  0  0  0  0
  -32.7407  -20.5138   24.8377 O   0  0  0  0  0  0  0  0  0  0  0  0
  -31.9710  -14.6931   20.4714 O   0  0  0  0  0  0  0  0  0  0  0  0
  -21.7204   -7.0017   21.7836 O   0  0  0  0  0  0  0  0  0  0  0  0
  -27.9572  -23.1911   20.7910 O   0  0  0  0  0  0  0  0  0  1  0  0
  -18.9452   -6.7764   26.5430 F   0  0  0  0  0  0  0  0  0  0  0  0
  -22.2813   -5.0520   23.6615 F   0  0  0  0  0  0  0  0  0  0  0  0
  1  2  1  0  0  0  0
  1  6  2  0  0  0  0
  2  7  2  0  0  0  0
  3 14  1  0  0  0  0
  3 15  2  0  0  0  0
  4  9  2  0  0  0  0
  4 18  1  0  0  0  0
  5 10  1  0  0  0  0
  5 18  2  0  0  0  0
  6 20  1  0  0  0  0
  7 22  1  0  0  0  0
  8 11  2  0  0  0  0
  8 21  1  0  0  0  0
  9 24  1  0  0  0  0
 10 24  2  0  0  0  0
 11 25  1  0  0  0  0
 12 13  2  0  0  0  0
 12 26  1  0  0  0  0
 13 27  1  0  0  0  0
 14 30  2  0  0  0  0
 15 31  1  0  0  0  0
 16 23  1  0  0  0  0
 16 25  2  0  0  0  0
 17 27  2  0  0  0  0
 17 28  1  0  0  0  0
 18 29  1  0  0  0  0
 19 29  1  0  0  0  0
 19 32  2  0  0  0  0
 19 33  1  0  0  0  0
 20 22  2  0  0  0  0
 20 38  1  0  0  0  0
 21 23  2  0  0  0  0
 21 39  1  0  0  0  0
 22 50  1  0  0  0  0
 23 40  1  0  0  0  0
 24 81  1  0  0  0  0
 25 82  1  0  0  0  0
 26 28  2  0  0  0  0
 26 81  1  0  0  0  0
 27 83  1  0  0  0  0
 28 84  1  0  0  0  0
 29 64  2  0  0  0  0
 30 51  1  0  0  0  0
 30 65  1  0  0  0  0
 31 65  2  0  0  0  0
 31 72  1  0  0  0  0
 32 66  1  0  0  0  0
 32 70  1  0  0  0  0
 33 71  1  0  0  0  0
 33 76  2  0  0  0  0
 34 52  1  0  0  0  0
 34 73  1  0  0  0  0
 34 77  2  0  0  0  0
 35 61  1  0  0  0  0
 35 67  1  0  0  0  0
 35 78  2  0  0  0  0
 36 62  1  0  0  0  0
 36 74  1  0  0  0  0
 36 79  2  0  0  0  0
 37 68  1  0  0  0  0
 37 69  1  0  0  0  0
 37 80  2  0  0  0  0
 38 41  1  0  0  0  0
 39 52  1  0  0  0  0
 40 67  1  0  0  0  0
 41 43  1  0  0  0  0
 42 44  1  0  0  0  0
 42 46  1  0  0  0  0
 43 50  1  0  0  0  0
 44 53  1  0  0  0  0
 45 47  1  0  0  0  0
 45 51  1  0  0  0  0
 46 68  1  0  0  0  0
 47 69  1  0  0  0  0
 48 51  1  0  0  0  0
 48 69  1  0  0  0  0
 49 53  1  0  0  0  0
 49 68  1  0  0  0  0
 50 73  1  0  0  0  0
 52 67  1  0  0  0  0
 53 66  1  0  0  0  0
 54 62  1  0  0  0  0
 55 63  1  0  0  0  0
 56 63  1  0  0  0  0
 57 63  1  0  0  0  0
 58 75  1  0  0  0  0
 59 60  1  0  0  0  0
 59 72  1  0  0  0  0
 60 82  1  0  0  0  0
 61 63  1  0  0  0  0
 61 74  1  0  0  0  0
 62 75  1  0  0  0  0
 64 66  1  0  0  0  0
M  CHG  1  75   1
M  ISO  4  37 100  60 101  69 100  82 101
M  END
> <Batch ID>
0169

> <Smiles>
CNC(C)C(=O)NC(C(=O)N1Cc2cc([101O:1][101CH2:1]CNc3cccc(C4CC[100N:0]([100C:0](=O)N5CCCC(n6nc(-c7ccc(Oc8ccc(F)cc8F)cc7)c(C(N)=O)c6N)C5)C4)n3)ccc2CC1C(=O)NC1CCCc2ccccc21)C(C)(C)C

> <Shape>
0.215

> <Color>
0.185

> <Negative vol penalty>
0.000

$$$$

  -OEChem-04052322323D

 87 98  0     1  0  0  0  0  0999 V2000
  -26.0696  -27.9423   25.3531 C   0  0  0  0  0  0  0  0  0  0  0  0
  -26.0971  -26.5598   25.5064 C   0  0  0  0  0  0  0  0  0  0  0  0
  -19.8596  -22.9982   21.0967 C   0  0  0  0  0  0  0  0  0  0  0  0
  -21.3267  -22.3018   22.8854 C   0  0  0  0  0  0  0  0  0  0  0  0
  -26.0322  -28.5003   24.0760 C   0  0  0  0  0  0  0  0  0  0  0  0
  -26.0861  -25.7345   24.3825 C   0  0  0  0  0  0  0  0  0  0  0  0
  -28.5871  -19.4382   22.0549 C   0  0  0  0  0  0  0  0  0  0  0  0
  -19.4735  -24.1095   21.8460 C   0  0  0  0  0  0  0  0  0  0  0  0
  -20.9407  -23.4132   23.6347 C   0  0  0  0  0  0  0  0  0  0  0  0
  -28.1444  -18.2549   21.4654 C   0  0  0  0  0  0  0  0  0  0  0  0
  -20.7259  -27.1560   22.6099 C   0  0  0  0  0  0  0  0  0  0  0  0
  -20.6686  -28.3884   21.9592 C   0  0  0  0  0  0  0  0  0  0  0  0
  -28.1590  -19.3319   19.3069 C   0  0  0  0  0  0  0  0  0  0  0  0
  -23.8834  -12.2093   20.7653 C   0  0  0  0  0  0  0  0  0  0  0  0
  -18.3175  -28.5586   22.4888 C   0  0  0  0  0  0  0  0  0  0  0  0
  -20.7862  -22.0943   21.6164 C   0  0  0  0  0  0  0  0  0  0  0  0
  -22.2560  -20.8639   19.9331 C   0  0  0  0  0  0  0  0  0  0  0  0
  -26.0305  -27.6816   22.9356 C   0  0  0  0  0  0  0  0  0  0  0  0
  -28.8090  -20.5823   21.2751 C   0  0  0  0  0  0  0  0  0  0  0  0
  -26.0472  -26.2821   23.0889 C   0  0  0  0  0  0  0  0  0  0  0  0
  -28.6069  -20.5278   19.8886 C   0  0  0  0  0  0  0  0  0  0  0  0
  -25.4201  -13.9113   20.0400 C   0  0  0  0  0  0  0  0  0  0  0  0
  -24.1184  -13.4994   20.3031 C   0  0  0  0  0  0  0  0  0  0  0  0
  -20.0140  -24.3170   23.1150 C   0  0  0  0  0  0  0  0  0  0  0  0
  -27.9275  -18.2024   20.0916 C   0  0  0  0  0  0  0  0  0  0  0  0
  -19.5790  -26.6248   23.2000 C   0  0  0  0  0  0  0  0  0  0  0  0
  -19.4644  -29.0897   21.8987 C   0  0  0  0  0  0  0  0  0  0  0  0
  -18.3748  -27.3261   23.1395 C   0  0  0  0  0  0  0  0  0  0  0  0
  -21.1850  -20.9458   20.8431 C   0  0  0  0  0  0  0  0  0  0  0  0
  -26.4437  -13.0022   20.2537 C   0  0  0  0  0  0  0  0  0  0  0  0
  -24.9757  -11.3764   20.9463 C   0  0  0  0  0  0  0  0  0  0  0  0
  -22.2126  -19.5726   19.4671 C   0  0  0  0  0  0  0  0  0  0  0  0
  -23.2052  -21.8655   19.5439 C   0  0  0  0  0  0  0  0  0  0  0  0
  -27.5698  -23.5080   21.1813 C   0  0  0  0  0  0  0  0  0  0  0  0
  -29.9151  -24.0095   18.9972 C   0  0  0  0  0  0  0  0  0  0  0  0
  -32.0630  -22.6887   16.6975 C   0  0  0  0  0  0  0  0  0  0  0  0
  -21.6716  -14.0985   20.3298 C   0  0  0  0  0  0  0  0  0  0  0  0
  -25.9417  -28.3298   21.5767 C   0  0  0  0  0  0  0  0  0  0  0  0
  -29.3121  -21.8433   21.9225 C   0  0  0  0  0  0  0  0  0  0  0  0
  -28.8499  -21.7224   19.0042 C   0  0  0  0  0  0  0  0  0  0  0  0
  -26.3108  -27.3928   20.4296 C   0  0  0  0  0  0  0  0  0  0  0  0
  -18.6745  -15.9931   20.0065 C   0  0  0  0  0  0  0  0  0  0  0  0
  -25.6181  -26.0442   20.5979 C   0  0  0  0  0  0  0  0  0  0  0  0
  -28.2239  -13.9229   18.6236 C   0  0  0  0  0  0  0  0  0  0  0  0
  -28.6849  -12.5625   19.0445 C   0  0  0  0  0  0  0  0  0  0  0  0
  -19.1485  -17.4438   20.1205 C   0  0  0  0  0  0  0  0  0  0  0  0
  -25.7117   -7.8036   21.4657 C   0  0  0  0  0  0  0  0  0  0  0  0
  -26.3918   -8.5432   20.3509 C   0  0  0  0  0  0  0  0  0  0  0  0
  -25.1975  -16.4689   20.3317 C   0  0  0  0  0  0  0  0  0  0  0  0
  -19.4622  -15.0649   20.9293 C   0  0  0  0  0  0  0  0  0  0  0  0
  -21.3959  -16.5911   20.9011 C   0  0  0  0  0  0  0  0  0  0  0  0
  -25.7020  -15.2805   19.5469 C   0  0  1  0  0  0  0  0  0  0  0  0
  -26.0614  -25.3541   21.8936 C   0  0  1  0  0  0  0  0  0  0  0  0
  -27.8604  -13.3978   19.9857 C   0  0  0  0  0  0  0  0  0  0  0  0
  -29.0126  -23.0956   21.1043 C   0  0  1  0  0  0  0  0  0  0  0  0
  -20.6756  -17.5533   19.9424 C   0  0  2  0  0  0  0  0  0  0  0  0
  -25.9250   -9.2868   21.5695 C   0  0  0  0  0  0  0  0  0  0  0  0
  -26.6634  -16.1603   20.3156 C   0  0  1  0  0  0  0  0  0  1  0  0
  -33.8307  -23.3519   15.0443 C   0  0  0  0  0  0  0  0  0  0  0  0
  -27.7532  -25.0096   17.0904 C   0  0  0  0  0  0  0  0  0  0  0  0
  -29.3880  -24.7506   15.2120 C   0  0  0  0  0  0  0  0  0  0  0  0
  -29.8653  -26.3485   17.0672 C   0  0  0  0  0  0  0  0  0  0  0  0
  -34.1285  -21.0900   18.0891 C   0  0  0  0  0  0  0  0  0  0  0  0
  -30.0300  -23.8629   17.4991 C   0  0  1  0  0  0  0  0  0  0  0  0
  -33.5488  -22.9003   16.4688 C   0  0  2  0  0  0  0  0  0  0  0  0
  -29.2526  -24.9708   16.7339 C   0  0  0  0  0  0  0  0  0  0  0  0
  -20.5104  -19.7979   20.9502 N   0  0  0  0  0  0  0  0  0  0  0  0
  -26.2544  -11.7409   20.7017 N   0  0  0  0  0  0  0  0  0  0  0  0
  -21.1591  -18.9826   20.1013 N   0  0  0  0  0  0  0  0  0  0  0  0
  -29.3354  -22.9341   19.6851 N   0  0  0  0  0  0  0  0  0  0  0  0
  -20.9005  -15.2201   20.7015 N   0  0  0  0  0  0  0  0  0  0  0  0
  -22.9732  -18.8957   18.5807 N   0  0  0  0  0  0  0  0  0  0  0  0
  -23.1063  -23.1394   20.1199 N   0  0  0  0  0  0  0  0  0  0  0  0
  -23.0206  -14.3739   20.1085 N   0  0  0  0  0  0  0  0  0  0  0  0
  -27.3713  -24.7615   21.7279 N   0  0  0  0  0  0  0  0  0  0  0  0
  -31.4576  -23.8204   17.2014 N   0  0  0  0  0  0  0  0  0  0  0  0
  -34.2964  -21.6353   16.7175 N   0  3  0  0  0  0  0  0  0  0  0  0
  -24.1040  -21.6423   18.6978 O   0  0  0  0  0  0  0  0  0  0  0  0
  -26.7010  -22.7459   20.7736 O   0  0  0  0  0  0  0  0  0  0  0  0
  -30.3311  -25.0372   19.5379 O   0  0  0  0  0  0  0  0  0  0  0  0
  -31.4956  -21.6270   16.4500 O   0  0  0  0  0  0  0  0  0  0  0  0
  -21.1668  -12.9815   20.1898 O   0  0  0  0  0  0  0  0  0  0  0  0
  -19.6377  -25.4015   23.8463 O   0  0  0  0  0  0  0  0  0  0  0  0
  -27.4948  -17.0489   19.5137 O   0  0  0  0  0  0  0  0  0  1  0  0
  -24.7701  -10.1001   21.4010 O   0  0  0  0  0  0  0  0  0  0  0  0
  -19.4098  -30.2739   21.2751 F   0  0  0  0  0  0  0  0  0  0  0  0
  -17.2699  -26.8215   23.7055 F   0  0  0  0  0  0  0  0  0  0  0  0
  1  2  1  0  0  0  0
  1  5  2  0  0  0  0
  2  6  2  0  0  0  0
  3  8  2  0  0  0  0
  3 16  1  0  0  0  0
  4  9  1  0  0  0  0
  4 16  2  0  0  0  0
  5 18  1  0  0  0  0
  6 20  1  0  0  0  0
  7 10  2  0  0  0  0
  7 19  1  0  0  0  0
  8 24  1  0  0  0  0
  9 24  2  0  0  0  0
 10 25  1  0  0  0  0
 11 12  2  0  0  0  0
 11 26  1  0  0  0  0
 12 27  1  0  0  0  0
 13 21  1  0  0  0  0
 13 25  2  0  0  0  0
 14 23  2  0  0  0  0
 14 31  1  0  0  0  0
 15 27  2  0  0  0  0
 15 28  1  0  0  0  0
 16 29  1  0  0  0  0
 17 29  1  0  0  0  0
 17 32  2  0  0  0  0
 17 33  1  0  0  0  0
 18 20  2  0  0  0  0
 18 38  1  0  0  0  0
 19 21  2  0  0  0  0
 19 39  1  0  0  0  0
 20 53  1  0  0  0  0
 21 40  1  0  0  0  0
 22 23  1  0  0  0  0
 22 30  2  0  0  0  0
 22 52  1  0  0  0  0
 23 74  1  0  0  0  0
 24 83  1  0  0  0  0
 25 84  1  0  0  0  0
 26 28  2  0  0  0  0
 26 83  1  0  0  0  0
 27 86  1  0  0  0  0
 28 87  1  0  0  0  0
 29 67  2  0  0  0  0
 30 54  1  0  0  0  0
 30 68  1  0  0  0  0
 31 68  2  0  0  0  0
 31 85  1  0  0  0  0
 32 69  1  0  0  0  0
 32 72  1  0  0  0  0
 33 73  1  0  0  0  0
 33 78  2  0  0  0  0
 34 55  1  0  0  0  0
 34 75  1  0  0  0  0
 34 79  2  0  0  0  0
 35 64  1  0  0  0  0
 35 70  1  0  0  0  0
 35 80  2  0  0  0  0
 36 65  1  0  0  0  0
 36 76  1  0  0  0  0
 36 81  2  0  0  0  0
 37 71  1  0  0  0  0
 37 74  1  0  0  0  0
 37 82  2  0  0  0  0
 38 41  1  0  0  0  0
 39 55  1  0  0  0  0
 40 70  1  0  0  0  0
 41 43  1  0  0  0  0
 42 46  1  0  0  0  0
 42 50  1  0  0  0  0
 43 53  1  0  0  0  0
 44 45  1  0  0  0  0
 44 54  1  0  0  0  0
 45 54  1  0  0  0  0
 46 56  1  0  0  0  0
 47 48  1  0  0  0  0
 47 57  1  0  0  0  0
 48 57  1  0  0  0  0
 49 52  1  0  0  0  0
 49 58  1  0  0  0  0
 50 71  1  0  0  0  0
 51 56  1  0  0  0  0
 51 71  1  0  0  0  0
 52 58  1  0  0  0  0
 53 75  1  0  0  0  0
 55 70  1  0  0  0  0
 56 69  1  0  0  0  0
 57 85  1  0  0  0  0
 58 84  1  0  0  0  0
 59 65  1  0  0  0  0
 60 66  1  0  0  0  0
 61 66  1  0  0  0  0
 62 66  1  0  0  0  0
 63 77  1  0  0  0  0
 64 66  1  0  0  0  0
 64 76  1  0  0  0  0
 65 77  1  0  0  0  0
 67 69  1  0  0  0  0
M  CHG  1  77   1
M  ISO  4  37 100  58 101  74 100  84 101
M  END
> <Batch ID>
0169

> <Smiles>
CNC(C)C(=O)NC(C(=O)N1Cc2cc([101O:1][101CH:1]3CC3c3c([100NH:0][100C:0](=O)N4CCCC(n5nc(-c6ccc(Oc7ccc(F)cc7F)cc6)c(C(N)=O)c5N)C4)cc(OC4CC4)nc3C3CC3)ccc2CC1C(=O)NC1CCCc2ccccc21)C(C)(C)C

> <Shape>
0.212

> <Color>
0.068

> <Negative vol penalty>
0.000

$$$$

  -OEChem-04052322323D

 84 93  0     1  0  0  0  0  0999 V2000
  -16.5207  -29.3728   24.2018 C   0  0  0  0  0  0  0  0  0  0  0  0
  -16.8801  -28.8895   22.9478 C   0  0  0  0  0  0  0  0  0  0  0  0
  -24.5678   -9.0305   21.7959 C   0  0  0  0  0  0  0  0  0  0  0  0
  -22.9823  -10.3177   20.5050 C   0  0  0  0  0  0  0  0  0  0  0  0
  -17.3517  -30.2752   24.8643 C   0  0  0  0  0  0  0  0  0  0  0  0
  -18.0704  -29.3093   22.3550 C   0  0  0  0  0  0  0  0  0  0  0  0
  -23.1636  -24.5651   20.4994 C   0  0  0  0  0  0  0  0  0  0  0  0
  -23.6814   -7.9537   21.8109 C   0  0  0  0  0  0  0  0  0  0  0  0
  -22.0958   -9.2408   20.5200 C   0  0  0  0  0  0  0  0  0  0  0  0
  -24.0957  -23.7012   19.9240 C   0  0  0  0  0  0  0  0  0  0  0  0
  -22.7164   -5.4921   19.7032 C   0  0  0  0  0  0  0  0  0  0  0  0
  -28.0331  -20.0492   18.5658 C   0  0  0  0  0  0  0  0  0  0  0  0
  -23.2325   -4.2240   19.4365 C   0  0  0  0  0  0  0  0  0  0  0  0
  -27.4640  -18.9769   19.2437 C   0  0  0  0  0  0  0  0  0  0  0  0
  -25.4452  -25.5904   19.2476 C   0  0  0  0  0  0  0  0  0  0  0  0
  -22.5013   -3.4690   21.6119 C   0  0  0  0  0  0  0  0  0  0  0  0
  -24.2182  -10.2126   21.1430 C   0  0  0  0  0  0  0  0  0  0  0  0
  -26.1299  -11.5935   20.1703 C   0  0  0  0  0  0  0  0  0  0  0  0
  -18.5575  -30.6988   24.2836 C   0  0  0  0  0  0  0  0  0  0  0  0
  -23.3768  -25.9459   20.4645 C   0  0  0  0  0  0  0  0  0  0  0  0
  -18.9177  -30.2193   23.0097 C   0  0  0  0  0  0  0  0  0  0  0  0
  -24.5213  -26.4601   19.8332 C   0  0  0  0  0  0  0  0  0  0  0  0
  -22.4454   -8.0588   21.1730 C   0  0  0  0  0  0  0  0  0  0  0  0
  -25.2335  -24.2126   19.2994 C   0  0  0  0  0  0  0  0  0  0  0  0
  -22.0929   -5.7488   20.9243 C   0  0  0  0  0  0  0  0  0  0  0  0
  -28.3688  -21.2052   19.2616 C   0  0  0  0  0  0  0  0  0  0  0  0
  -23.1249   -3.2124   20.3909 C   0  0  0  0  0  0  0  0  0  0  0  0
  -21.9852   -4.7372   21.8786 C   0  0  0  0  0  0  0  0  0  0  0  0
  -25.1332  -11.3255   21.1277 C   0  0  0  0  0  0  0  0  0  0  0  0
  -28.1171  -21.2385   20.6237 C   0  0  0  0  0  0  0  0  0  0  0  0
  -27.2530  -19.1098   20.6067 C   0  0  0  0  0  0  0  0  0  0  0  0
  -26.7191  -12.7559   20.6041 C   0  0  0  0  0  0  0  0  0  0  0  0
  -26.4908  -10.8575   18.9940 C   0  0  0  0  0  0  0  0  0  0  0  0
  -22.1326  -29.3583   21.4046 C   0  0  0  0  0  0  0  0  0  0  0  0
  -25.1675  -29.3621   21.8512 C   0  0  0  0  0  0  0  0  0  0  0  0
  -28.4502  -28.8231   22.6068 C   0  0  0  0  0  0  0  0  0  0  0  0
  -26.3735  -17.9238   22.6478 C   0  0  0  0  0  0  0  0  0  0  0  0
  -19.4001  -31.7120   25.0172 C   0  0  0  0  0  0  0  0  0  0  0  0
  -22.3690  -26.9168   21.0173 C   0  0  0  0  0  0  0  0  0  0  0  0
  -24.6918  -27.9540   19.7893 C   0  0  0  0  0  0  0  0  0  0  0  0
  -20.8265  -31.8184   24.4842 C   0  0  0  0  0  0  0  0  0  0  0  0
  -26.2618  -15.2434   24.9888 C   0  0  0  0  0  0  0  0  0  0  0  0
  -20.8227  -31.8969   22.9608 C   0  0  0  0  0  0  0  0  0  0  0  0
  -29.8741  -22.9847   21.3569 C   0  0  0  0  0  0  0  0  0  0  0  0
  -29.3650  -22.3329   22.6044 C   0  0  0  0  0  0  0  0  0  0  0  0
  -26.0402  -14.0072   24.1142 C   0  0  0  0  0  0  0  0  0  0  0  0
  -25.5038  -16.4581   24.4562 C   0  0  0  0  0  0  0  0  0  0  0  0
  -25.5328  -15.5403   22.1702 C   0  0  0  0  0  0  0  0  0  0  0  0
  -20.2130  -30.6319   22.3448 C   0  0  1  0  0  0  0  0  0  0  0  0
  -28.4634  -22.4631   21.4066 C   0  0  0  0  0  0  0  0  0  0  0  0
  -23.0146  -28.1675   21.6402 C   0  0  1  0  0  0  0  0  0  0  0  0
  -26.3284  -14.3078   22.6302 C   0  0  2  0  0  0  0  0  0  0  0  0
  -30.4752  -29.9829   23.5294 C   0  0  0  0  0  0  0  0  0  0  0  0
  -29.1216  -23.3751   16.5020 C   0  0  0  0  0  0  0  0  0  0  0  0
  -25.5344  -30.8233   19.1991 C   0  0  0  0  0  0  0  0  0  0  0  0
  -27.9405  -31.1643   19.8010 C   0  0  0  0  0  0  0  0  0  0  0  0
  -26.1481  -32.1609   21.2211 C   0  0  0  0  0  0  0  0  0  0  0  0
  -28.6377  -26.9374   24.8802 C   0  0  0  0  0  0  0  0  0  0  0  0
  -27.2829  -23.9515   18.1207 C   0  0  0  0  0  0  0  0  0  1  0  0
  -26.5299  -29.6623   21.2792 C   0  0  1  0  0  0  0  0  0  0  0  0
  -29.2602  -29.1279   23.8540 C   0  0  2  0  0  0  0  0  0  0  0  0
  -28.1580  -22.8426   17.5497 C   0  0  2  0  0  0  0  0  0  0  0  0
  -26.5271  -30.9265   20.3741 C   0  0  0  0  0  0  0  0  0  0  0  0
  -25.0889  -12.2437   22.0967 N   0  0  0  0  0  0  0  0  0  0  0  0
  -27.5658  -20.2170   21.3166 N   0  0  0  0  0  0  0  0  0  0  0  0
  -26.0651  -13.0999   21.7505 N   0  0  0  0  0  0  0  0  0  0  0  0
  -24.3289  -28.5395   21.0894 N   0  0  0  0  0  0  0  0  0  0  0  0
  -25.8296  -16.6844   23.0465 N   0  0  0  0  0  0  0  0  0  0  0  0
  -27.7276  -13.5070   20.1130 N   0  0  0  0  0  0  0  0  0  0  0  0
  -25.7829   -9.6852   18.6959 N   0  0  0  0  0  0  0  0  0  0  0  0
  -26.6735  -18.0114   21.2887 N   0  0  0  0  0  0  0  0  0  0  0  0
  -21.1672  -29.5442   22.3757 N   0  0  0  0  0  0  0  0  0  0  0  0
  -27.4410  -29.7431   22.4157 N   0  0  0  0  0  0  0  0  0  0  0  0
  -29.7307  -27.8638   24.4878 N   0  3  0  0  0  0  0  0  0  0  0  0
  -27.4246  -11.2197   18.2387 O   0  0  0  0  0  0  0  0  0  0  0  0
  -22.3144  -30.0586   20.4156 O   0  0  0  0  0  0  0  0  0  0  0  0
  -24.8507  -29.8471   22.9411 O   0  0  0  0  0  0  0  0  0  0  0  0
  -28.6910  -27.8668   21.8733 O   0  0  0  0  0  0  0  0  0  0  0  0
  -26.5848  -18.8303   23.4574 O   0  0  0  0  0  0  0  0  0  0  0  0
  -21.5803   -7.0081   21.1872 O   0  0  0  0  0  0  0  0  0  0  0  0
  -26.1416  -23.3634   18.7437 O   0  0  0  0  0  0  0  0  0  1  0  0
  -28.9295  -22.2643   18.6015 O   0  0  0  0  0  0  0  0  0  0  0  0
  -23.6191   -1.9943   20.1341 F   0  0  0  0  0  0  0  0  0  0  0  0
  -21.3862   -4.9774   23.0530 F   0  0  0  0  0  0  0  0  0  0  0  0
  1  2  1  0  0  0  0
  1  5  2  0  0  0  0
  2  6  2  0  0  0  0
  3  8  2  0  0  0  0
  3 17  1  0  0  0  0
  4  9  1  0  0  0  0
  4 17  2  0  0  0  0
  5 19  1  0  0  0  0
  6 21  1  0  0  0  0
  7 10  2  0  0  0  0
  7 20  1  0  0  0  0
  8 23  1  0  0  0  0
  9 23  2  0  0  0  0
 10 24  1  0  0  0  0
 11 13  2  0  0  0  0
 11 25  1  0  0  0  0
 12 14  2  0  0  0  0
 12 26  1  0  0  0  0
 13 27  1  0  0  0  0
 14 31  1  0  0  0  0
 15 22  1  0  0  0  0
 15 24  2  0  0  0  0
 16 27  2  0  0  0  0
 16 28  1  0  0  0  0
 17 29  1  0  0  0  0
 18 29  1  0  0  0  0
 18 32  2  0  0  0  0
 18 33  1  0  0  0  0
 19 21  2  0  0  0  0
 19 38  1  0  0  0  0
 20 22  2  0  0  0  0
 20 39  1  0  0  0  0
 21 49  1  0  0  0  0
 22 40  1  0  0  0  0
 23 80  1  0  0  0  0
 24 81  1  0  0  0  0
 25 28  2  0  0  0  0
 25 80  1  0  0  0  0
 26 30  2  0  0  0  0
 26 82  1  0  0  0  0
 27 83  1  0  0  0  0
 28 84  1  0  0  0  0
 29 64  2  0  0  0  0
 30 50  1  0  0  0  0
 30 65  1  0  0  0  0
 31 65  2  0  0  0  0
 31 71  1  0  0  0  0
 32 66  1  0  0  0  0
 32 69  1  0  0  0  0
 33 70  1  0  0  0  0
 33 75  2  0  0  0  0
 34 51  1  0  0  0  0
 34 72  1  0  0  0  0
 34 76  2  0  0  0  0
 35 60  1  0  0  0  0
 35 67  1  0  0  0  0
 35 77  2  0  0  0  0
 36 61  1  0  0  0  0
 36 73  1  0  0  0  0
 36 78  2  0  0  0  0
 37 68  1  0  0  0  0
 37 71  1  0  0  0  0
 37 79  2  0  0  0  0
 38 41  1  0  0  0  0
 39 51  1  0  0  0  0
 40 67  1  0  0  0  0
 41 43  1  0  0  0  0
 42 46  1  0  0  0  0
 42 47  1  0  0  0  0
 43 49  1  0  0  0  0
 44 45  1  0  0  0  0
 44 50  1  0  0  0  0
 45 50  1  0  0  0  0
 46 52  1  0  0  0  0
 47 68  1  0  0  0  0
 48 52  1  0  0  0  0
 48 68  1  0  0  0  0
 49 72  1  0  0  0  0
 51 67  1  0  0  0  0
 52 66  1  0  0  0  0
 53 61  1  0  0  0  0
 54 62  1  0  0  0  0
 55 63  1  0  0  0  0
 56 63  1  0  0  0  0
 57 63  1  0  0  0  0
 58 74  1  0  0  0  0
 59 62  1  0  0  0  0
 59 81  1  0  0  0  0
 60 63  1  0  0  0  0
 60 73  1  0  0  0  0
 61 74  1  0  0  0  0
 62 82  1  0  0  0  0
 64 66  1  0  0  0  0
M  CHG  1  74   1
M  ISO  4  37 100  59 101  71 100  81 101
M  END
> <Batch ID>
0169

> <Smiles>
CNC(C)C(=O)NC(C(=O)N1Cc2cc([101O:1][101CH2:1]C(C)Oc3ccc([100NH:0][100C:0](=O)N4CCCC(n5nc(-c6ccc(Oc7ccc(F)cc7F)cc6)c(C(N)=O)c5N)C4)nc3C3CC3)ccc2CC1C(=O)NC1CCCc2ccccc21)C(C)(C)C

> <Shape>
0.256

> <Color>
0.092

> <Negative vol penalty>
0.000

$$$$

  -OEChem-04052322323D

 83 92  0     1  0  0  0  0  0999 V2000
  -29.8636  -11.7436   19.6384 C   0  0  0  0  0  0  0  0  0  0  0  0
  -30.1917  -13.0443   19.2698 C   0  0  0  0  0  0  0  0  0  0  0  0
  -19.9936  -27.5146   23.9708 C   0  0  0  0  0  0  0  0  0  0  0  0
  -20.0397  -28.0032   21.6052 C   0  0  0  0  0  0  0  0  0  0  0  0
  -28.5572  -11.4358   20.0160 C   0  0  0  0  0  0  0  0  0  0  0  0
  -29.2133  -14.0378   19.2774 C   0  0  0  0  0  0  0  0  0  0  0  0
  -29.9788  -19.9480   20.6881 C   0  0  0  0  0  0  0  0  0  0  0  0
  -18.6385  -27.8425   24.0122 C   0  0  0  0  0  0  0  0  0  0  0  0
  -18.6845  -28.3311   21.6465 C   0  0  0  0  0  0  0  0  0  0  0  0
  -30.1489  -21.0858   19.9007 C   0  0  0  0  0  0  0  0  0  0  0  0
  -15.2515  -28.8968   24.8126 C   0  0  0  0  0  0  0  0  0  0  0  0
  -14.8093  -29.7018   25.8623 C   0  0  0  0  0  0  0  0  0  0  0  0
  -27.7854  -21.5418   20.0595 C   0  0  0  0  0  0  0  0  0  0  0  0
  -29.3778  -26.3386   19.0486 C   0  0  0  0  0  0  0  0  0  0  0  0
  -16.3119  -31.4548   25.1509 C   0  0  0  0  0  0  0  0  0  0  0  0
  -20.6943  -27.5951   22.7673 C   0  0  0  0  0  0  0  0  0  0  0  0
  -22.6557  -25.9907   22.4733 C   0  0  0  0  0  0  0  0  0  0  0  0
  -27.5645  -12.4281   20.0376 C   0  0  0  0  0  0  0  0  0  0  0  0
  -28.7068  -19.5918   21.1589 C   0  0  0  0  0  0  0  0  0  0  0  0
  -27.8921  -13.7427   19.6544 C   0  0  0  0  0  0  0  0  0  0  0  0
  -27.6022  -20.4003   20.8549 C   0  0  0  0  0  0  0  0  0  0  0  0
  -30.4578  -25.7831   18.3874 C   0  0  0  0  0  0  0  0  0  0  0  0
  -31.7271  -26.3530   18.5108 C   0  0  0  0  0  0  0  0  0  0  0  0
  -17.9839  -28.2507   22.8500 C   0  0  0  0  0  0  0  0  0  0  0  0
  -29.0517  -21.8813   19.5839 C   0  0  0  0  0  0  0  0  0  0  0  0
  -16.2241  -29.3707   23.9321 C   0  0  0  0  0  0  0  0  0  0  0  0
  -15.3394  -30.9809   26.0314 C   0  0  0  0  0  0  0  0  0  0  0  0
  -16.7542  -30.6497   24.1012 C   0  0  0  0  0  0  0  0  0  0  0  0
  -22.0942  -27.2570   22.7241 C   0  0  0  0  0  0  0  0  0  0  0  0
  -31.8889  -27.4656   19.3038 C   0  0  0  0  0  0  0  0  0  0  0  0
  -29.6345  -27.4666   19.8152 C   0  0  0  0  0  0  0  0  0  0  0  0
  -24.0119  -26.1967   22.5414 C   0  0  0  0  0  0  0  0  0  0  0  0
  -22.0090  -24.7399   22.2028 C   0  0  0  0  0  0  0  0  0  0  0  0
  -26.7863  -17.0907   20.7594 C   0  0  0  0  0  0  0  0  0  0  0  0
  -24.9912  -18.6051   22.9969 C   0  0  0  0  0  0  0  0  0  0  0  0
  -24.1474  -21.5293   24.5410 C   0  0  0  0  0  0  0  0  0  0  0  0
  -28.5535  -29.1762   21.3169 C   0  0  0  0  0  0  0  0  0  0  0  0
  -26.1555  -12.0374   20.4076 C   0  0  0  0  0  0  0  0  0  0  0  0
  -28.5443  -18.3761   22.0295 C   0  0  0  0  0  0  0  0  0  0  0  0
  -32.7550  -25.5814   17.7551 C   0  0  0  0  0  0  0  0  0  0  0  0
  -26.2189  -20.0728   21.3525 C   0  0  0  0  0  0  0  0  0  0  0  0
  -25.2631  -13.2279   20.7490 C   0  0  0  0  0  0  0  0  0  0  0  0
  -31.8651  -24.7817   16.7897 C   0  0  0  0  0  0  0  0  0  0  0  0
  -26.6587  -30.1994   24.1524 C   0  0  0  0  0  0  0  0  0  0  0  0
  -25.4229  -14.3309   19.7075 C   0  0  0  0  0  0  0  0  0  0  0  0
  -25.3484  -29.4209   24.0129 C   0  0  0  0  0  0  0  0  0  0  0  0
  -27.2006  -30.6453   22.7955 C   0  0  0  0  0  0  0  0  0  0  0  0
  -26.0333  -28.7955   21.6620 C   0  0  0  0  0  0  0  0  0  0  0  0
  -26.8642  -14.8532   19.6738 C   0  0  1  0  0  0  0  0  0  0  0  0
  -27.1218  -17.8250   22.0266 C   0  0  1  0  0  0  0  0  0  0  0  0
  -25.4825  -28.2692   22.9974 C   0  0  2  0  0  0  0  0  0  0  0  0
  -30.5067  -24.5551   17.5090 C   0  0  2  0  0  0  0  0  0  0  0  0
  -33.2304  -28.0895   19.4809 C   0  0  0  0  0  0  0  0  0  0  0  0
  -29.3592  -24.4843   16.4986 C   0  0  0  0  0  0  0  0  0  0  0  0
  -22.6220  -22.4569   26.3045 C   0  0  0  0  0  0  0  0  0  0  0  0
  -22.6393  -18.4075   21.0630 C   0  0  0  0  0  0  0  0  0  0  0  0
  -21.4577  -20.1385   22.4327 C   0  0  0  0  0  0  0  0  0  0  0  0
  -22.0663  -17.9451   23.4531 C   0  0  0  0  0  0  0  0  0  0  0  0
  -26.4248  -22.4637   26.1839 C   0  0  0  0  0  0  0  0  0  0  0  0
  -30.5380  -23.2833   18.3667 C   0  0  0  0  0  0  0  0  0  1  0  0
  -23.8850  -19.6320   22.9643 C   0  0  1  0  0  0  0  0  0  0  0  0
  -24.0008  -21.8874   26.0089 C   0  0  2  0  0  0  0  0  0  0  0  0
  -22.5377  -19.0362   22.4671 C   0  0  0  0  0  0  0  0  0  0  0  0
  -23.0183  -28.1979   22.9359 N   0  0  0  0  0  0  0  0  0  0  0  0
  -30.8575  -28.0432   19.9602 N   0  0  0  0  0  0  0  0  0  0  0  0
  -24.1741  -27.5223   22.8184 N   0  0  0  0  0  0  0  0  0  0  0  0
  -26.1103  -18.8703   22.1950 N   0  0  0  0  0  0  0  0  0  0  0  0
  -27.3045  -29.5013   21.8871 N   0  0  0  0  0  0  0  0  0  0  0  0
  -25.0696  -25.3715   22.3908 N   0  0  0  0  0  0  0  0  0  0  0  0
  -20.6083  -24.7054   22.1692 N   0  0  0  0  0  0  0  0  0  0  0  0
  -28.5367  -28.0493   20.4957 N   0  0  0  0  0  0  0  0  0  0  0  0
  -27.1043  -15.7463   20.7871 N   0  0  0  0  0  0  0  0  0  0  0  0
  -23.8251  -20.2100   24.3025 N   0  0  0  0  0  0  0  0  0  0  0  0
  -25.0214  -22.9008   26.3993 N   0  3  0  0  0  0  0  0  0  0  0  0
  -22.6539  -23.6808   22.0133 O   0  0  0  0  0  0  0  0  0  0  0  0
  -26.2753  -17.6986   19.8261 O   0  0  0  0  0  0  0  0  0  0  0  0
  -24.8699  -17.6081   23.7130 O   0  0  0  0  0  0  0  0  0  0  0  0
  -24.5079  -22.3398   23.6904 O   0  0  0  0  0  0  0  0  0  0  0  0
  -29.5693  -29.8319   21.5623 O   0  0  0  0  0  0  0  0  0  0  0  0
  -16.6616  -28.5705   22.8899 O   0  0  0  0  0  0  0  0  0  0  0  0
  -29.2149  -22.9922   18.8149 O   0  0  0  0  0  0  0  0  0  1  0  0
  -14.9135  -31.7544   27.0385 F   0  0  0  0  0  0  0  0  0  0  0  0
  -17.6879  -31.1110   23.2578 F   0  0  0  0  0  0  0  0  0  0  0  0
  1  2  1  0  0  0  0
  1  5  2  0  0  0  0
  2  6  2  0  0  0  0
  3  8  2  0  0  0  0
  3 16  1  0  0  0  0
  4  9  1  0  0  0  0
  4 16  2  0  0  0  0
  5 18  1  0  0  0  0
  6 20  1  0  0  0  0
  7 10  2  0  0  0  0
  7 19  1  0  0  0  0
  8 24  1  0  0  0  0
  9 24  2  0  0  0  0
 10 25  1  0  0  0  0
 11 12  2  0  0  0  0
 11 26  1  0  0  0  0
 12 27  1  0  0  0  0
 13 21  1  0  0  0  0
 13 25  2  0  0  0  0
 14 22  2  0  0  0  0
 14 31  1  0  0  0  0
 15 27  2  0  0  0  0
 15 28  1  0  0  0  0
 16 29  1  0  0  0  0
 17 29  1  0  0  0  0
 17 32  2  0  0  0  0
 17 33  1  0  0  0  0
 18 20  2  0  0  0  0
 18 38  1  0  0  0  0
 19 21  2  0  0  0  0
 19 39  1  0  0  0  0
 20 49  1  0  0  0  0
 21 41  1  0  0  0  0
 22 23  1  0  0  0  0
 22 52  1  0  0  0  0
 23 30  2  0  0  0  0
 23 40  1  0  0  0  0
 24 80  1  0  0  0  0
 25 81  1  0  0  0  0
 26 28  2  0  0  0  0
 26 80  1  0  0  0  0
 27 82  1  0  0  0  0
 28 83  1  0  0  0  0
 29 64  2  0  0  0  0
 30 53  1  0  0  0  0
 30 65  1  0  0  0  0
 31 65  2  0  0  0  0
 31 71  1  0  0  0  0
 32 66  1  0  0  0  0
 32 69  1  0  0  0  0
 33 70  1  0  0  0  0
 33 75  2  0  0  0  0
 34 50  1  0  0  0  0
 34 72  1  0  0  0  0
 34 76  2  0  0  0  0
 35 61  1  0  0  0  0
 35 67  1  0  0  0  0
 35 77  2  0  0  0  0
 36 62  1  0  0  0  0
 36 73  1  0  0  0  0
 36 78  2  0  0  0  0
 37 68  1  0  0  0  0
 37 71  1  0  0  0  0
 37 79  2  0  0  0  0
 38 42  1  0  0  0  0
 39 50  1  0  0  0  0
 40 43  1  0  0  0  0
 41 67  1  0  0  0  0
 42 45  1  0  0  0  0
 43 52  1  0  0  0  0
 44 46  1  0  0  0  0
 44 47  1  0  0  0  0
 45 49  1  0  0  0  0
 46 51  1  0  0  0  0
 47 68  1  0  0  0  0
 48 51  1  0  0  0  0
 48 68  1  0  0  0  0
 49 72  1  0  0  0  0
 50 67  1  0  0  0  0
 51 66  1  0  0  0  0
 52 54  1  0  0  0  0
 52 60  1  0  0  0  0
 55 62  1  0  0  0  0
 56 63  1  0  0  0  0
 57 63  1  0  0  0  0
 58 63  1  0  0  0  0
 59 74  1  0  0  0  0
 60 81  1  0  0  0  0
 61 63  1  0  0  0  0
 61 73  1  0  0  0  0
 62 74  1  0  0  0  0
 64 66  1  0  0  0  0
M  CHG  1  74   1
M  ISO  4  37 100  60 101  71 100  81 101
M  END
> <Batch ID>
0169

> <Smiles>
CNC(C)C(=O)NC(C(=O)N1Cc2cc([101O:1][101CH2:1]C3(C)CCc4c3cc([100NH:0][100C:0](=O)N3CCCC(n5nc(-c6ccc(Oc7ccc(F)cc7F)cc6)c(C(N)=O)c5N)C3)nc4C)ccc2CC1C(=O)NC1CCCc2ccccc21)C(C)(C)C

> <Shape>
0.251

> <Color>
0.065

> <Negative vol penalty>
0.000

$$$$

  -OEChem-04052322323D

 88 99  0     1  0  0  0  0  0999 V2000
  -28.3881  -24.9328   16.3529 C   0  0  0  0  0  0  0  0  0  0  0  0
  -27.2565  -24.9681   17.1615 C   0  0  0  0  0  0  0  0  0  0  0  0
  -26.9367  -13.1956   20.8926 C   0  0  0  0  0  0  0  0  0  0  0  0
  -24.6681  -13.7052   20.2363 C   0  0  0  0  0  0  0  0  0  0  0  0
  -29.5499  -25.5919   16.7526 C   0  0  0  0  0  0  0  0  0  0  0  0
  -27.2865  -25.6617   18.3708 C   0  0  0  0  0  0  0  0  0  0  0  0
  -23.1533  -28.4988   19.0863 C   0  0  0  0  0  0  0  0  0  0  0  0
  -26.4835  -12.0755   21.5895 C   0  0  0  0  0  0  0  0  0  0  0  0
  -24.2149  -12.5852   20.9331 C   0  0  0  0  0  0  0  0  0  0  0  0
  -21.9945  -27.8429   19.4995 C   0  0  0  0  0  0  0  0  0  0  0  0
  -24.0773   -9.2427   20.4538 C   0  0  0  0  0  0  0  0  0  0  0  0
  -23.1458   -8.4203   19.8202 C   0  0  0  0  0  0  0  0  0  0  0  0
  -20.3003  -22.0875   20.9736 C   0  0  0  0  0  0  0  0  0  0  0  0
  -18.2015  -20.7865   22.2717 C   0  0  0  0  0  0  0  0  0  0  0  0
  -22.4157  -28.5417   21.7696 C   0  0  0  0  0  0  0  0  0  0  0  0
  -21.5684   -8.8333   21.6030 C   0  0  0  0  0  0  0  0  0  0  0  0
  -26.0290  -14.0105   20.2160 C   0  0  0  0  0  0  0  0  0  0  0  0
  -27.4091  -15.1913   18.4248 C   0  0  0  0  0  0  0  0  0  0  0  0
  -29.5911  -26.3019   17.9628 C   0  0  0  0  0  0  0  0  0  0  0  0
  -23.9592  -29.1730   20.0150 C   0  0  0  0  0  0  0  0  0  0  0  0
  -28.4504  -26.3297   18.7877 C   0  0  0  0  0  0  0  0  0  0  0  0
  -19.7021  -22.6713   22.0902 C   0  0  0  0  0  0  0  0  0  0  0  0
  -19.8491  -20.8532   20.5059 C   0  0  0  0  0  0  0  0  0  0  0  0
  -18.6527  -22.0208   22.7393 C   0  0  0  0  0  0  0  0  0  0  0  0
  -23.5829  -29.2075   21.3652 C   0  0  0  0  0  0  0  0  0  0  0  0
  -18.7997  -20.2028   21.1550 C   0  0  0  0  0  0  0  0  0  0  0  0
  -25.1226  -11.7703   21.6098 C   0  0  0  0  0  0  0  0  0  0  0  0
  -21.6271  -27.8619   20.8417 C   0  0  0  0  0  0  0  0  0  0  0  0
  -23.7544   -9.8604   21.6621 C   0  0  0  0  0  0  0  0  0  0  0  0
  -21.8914   -8.2156   20.3947 C   0  0  0  0  0  0  0  0  0  0  0  0
  -22.5000   -9.6557   22.2366 C   0  0  0  0  0  0  0  0  0  0  0  0
  -26.4965  -15.1679   19.4964 C   0  0  0  0  0  0  0  0  0  0  0  0
  -27.5198  -16.5205   18.0970 C   0  0  0  0  0  0  0  0  0  0  0  0
  -28.0953  -14.1084   17.7829 C   0  0  0  0  0  0  0  0  0  0  0  0
  -26.9584  -28.8662   21.0222 C   0  0  0  0  0  0  0  0  0  0  0  0
  -26.2844  -31.5982   22.6360 C   0  0  0  0  0  0  0  0  0  0  0  0
  -23.9246  -33.6388   24.0195 C   0  0  0  0  0  0  0  0  0  0  0  0
  -23.7607  -21.1854   18.9939 C   0  0  0  0  0  0  0  0  0  0  0  0
  -30.8844  -26.9592   18.3751 C   0  0  0  0  0  0  0  0  0  0  0  0
  -25.1918  -29.8982   19.5490 C   0  0  0  0  0  0  0  0  0  0  0  0
  -24.4028  -29.9343   22.3987 C   0  0  0  0  0  0  0  0  0  0  0  0
  -30.7170  -27.9848   19.4933 C   0  0  0  0  0  0  0  0  0  0  0  0
  -27.2062  -20.8905   19.9642 C   0  0  0  0  0  0  0  0  0  0  0  0
  -18.6053  -22.4008   25.2941 C   0  0  0  0  0  0  0  0  0  0  0  0
  -17.3165  -21.7313   24.9322 C   0  0  0  0  0  0  0  0  0  0  0  0
  -29.8430  -27.4205   20.6089 C   0  0  0  0  0  0  0  0  0  0  0  0
  -27.4853  -19.3919   19.9128 C   0  0  0  0  0  0  0  0  0  0  0  0
  -21.2606  -24.8540   21.7363 C   0  0  0  0  0  0  0  0  0  0  0  0
  -19.3178  -25.3238   22.4583 C   0  0  0  0  0  0  0  0  0  0  0  0
  -25.7776  -21.1624   20.4158 C   0  0  0  0  0  0  0  0  0  0  0  0
  -21.3241  -21.1181   18.2484 C   0  0  0  0  0  0  0  0  0  0  0  0
  -21.8755  -19.4244   19.4117 C   0  0  0  0  0  0  0  0  0  0  0  0
  -25.0106  -19.0075   19.4556 C   0  0  0  0  0  0  0  0  0  0  0  0
  -20.2318  -24.0732   22.6035 C   0  0  0  0  0  0  0  0  0  0  0  0
  -20.5491  -20.2027   19.2257 C   0  0  0  0  0  0  0  0  0  0  0  0
  -17.9992  -22.6294   23.9349 C   0  0  0  0  0  0  0  0  0  0  0  0
  -28.4361  -27.0922   20.0948 C   0  0  1  0  0  0  0  0  0  0  0  0
  -26.2116  -30.1193   20.6619 C   0  0  1  0  0  0  0  0  0  0  0  0
  -26.4543  -18.6835   19.0224 C   0  0  2  0  0  0  0  0  0  0  0  0
  -20.5944  -26.1600   22.2225 C   0  0  0  0  0  0  0  0  0  1  0  0
  -18.3019  -18.8814   20.6702 C   0  0  0  0  0  0  0  0  0  0  0  0
  -23.6810  -35.7813   25.3030 C   0  0  0  0  0  0  0  0  0  0  0  0
  -27.2160  -30.1815   25.1728 C   0  0  0  0  0  0  0  0  0  0  0  0
  -26.0822  -31.9722   26.5056 C   0  0  0  0  0  0  0  0  0  0  0  0
  -27.9605  -32.5607   24.9732 C   0  0  0  0  0  0  0  0  0  0  0  0
  -22.3182  -34.8813   21.8666 C   0  0  0  0  0  0  0  0  0  0  0  0
  -25.7171  -31.9240   23.9965 C   0  0  1  0  0  0  0  0  0  0  0  0
  -23.7094  -35.1385   23.9251 C   0  0  2  0  0  0  0  0  0  0  0  0
  -26.7293  -31.6442   25.1431 C   0  0  0  0  0  0  0  0  0  0  0  0
  -26.0587  -16.3856   19.8275 N   0  0  0  0  0  0  0  0  0  0  0  0
  -26.6990  -17.1866   18.9589 N   0  0  0  0  0  0  0  0  0  0  0  0
  -25.6026  -30.6228   21.8947 N   0  0  0  0  0  0  0  0  0  0  0  0
  -24.7947  -20.4549   19.5898 N   0  0  0  0  0  0  0  0  0  0  0  0
  -22.5475  -20.5622   18.8098 N   0  0  0  0  0  0  0  0  0  0  0  0
  -28.2382  -17.1729   17.1586 N   0  0  0  0  0  0  0  0  0  0  0  0
  -27.8665  -12.8051   18.2449 N   0  0  0  0  0  0  0  0  0  0  0  0
  -27.6496  -28.3004   19.9679 N   0  0  0  0  0  0  0  0  0  0  0  0
  -25.2599  -33.3076   23.9275 N   0  0  0  0  0  0  0  0  0  0  0  0
  -22.4185  -35.4346   23.2417 N   0  3  0  0  0  0  0  0  0  0  0  0
  -28.9004  -14.2926   16.8388 O   0  0  0  0  0  0  0  0  0  0  0  0
  -26.9121  -28.4447   22.1719 O   0  0  0  0  0  0  0  0  0  0  0  0
  -27.2911  -32.1926   22.2424 O   0  0  0  0  0  0  0  0  0  0  0  0
  -23.0009  -32.8411   24.1643 O   0  0  0  0  0  0  0  0  0  0  0  0
  -23.9045  -22.3699   18.6633 O   0  0  0  0  0  0  0  0  0  0  0  0
  -24.6800  -10.6773   22.2895 O   0  0  0  0  0  0  0  0  0  0  0  0
  -20.4837  -27.2145   21.2526 O   0  0  0  0  0  0  0  0  0  1  0  0
  -20.9964   -7.4270   19.7854 F   0  0  0  0  0  0  0  0  0  0  0  0
  -22.1836  -10.2474   23.3967 F   0  0  0  0  0  0  0  0  0  0  0  0
  1  2  1  0  0  0  0
  1  5  2  0  0  0  0
  2  6  2  0  0  0  0
  3  8  2  0  0  0  0
  3 17  1  0  0  0  0
  4  9  1  0  0  0  0
  4 17  2  0  0  0  0
  5 19  1  0  0  0  0
  6 21  1  0  0  0  0
  7 10  2  0  0  0  0
  7 20  1  0  0  0  0
  8 27  1  0  0  0  0
  9 27  2  0  0  0  0
 10 28  1  0  0  0  0
 11 12  2  0  0  0  0
 11 29  1  0  0  0  0
 12 30  1  0  0  0  0
 13 22  1  0  0  0  0
 13 23  2  0  0  0  0
 14 24  1  0  0  0  0
 14 26  2  0  0  0  0
 15 25  1  0  0  0  0
 15 28  2  0  0  0  0
 16 30  2  0  0  0  0
 16 31  1  0  0  0  0
 17 32  1  0  0  0  0
 18 32  1  0  0  0  0
 18 33  2  0  0  0  0
 18 34  1  0  0  0  0
 19 21  2  0  0  0  0
 19 39  1  0  0  0  0
 20 25  2  0  0  0  0
 20 40  1  0  0  0  0
 21 57  1  0  0  0  0
 22 24  2  0  0  0  0
 22 54  1  0  0  0  0
 23 26  1  0  0  0  0
 23 55  1  0  0  0  0
 24 56  1  0  0  0  0
 25 41  1  0  0  0  0
 26 61  1  0  0  0  0
 27 85  1  0  0  0  0
 28 86  1  0  0  0  0
 29 31  2  0  0  0  0
 29 85  1  0  0  0  0
 30 87  1  0  0  0  0
 31 88  1  0  0  0  0
 32 70  2  0  0  0  0
 33 71  1  0  0  0  0
 33 75  1  0  0  0  0
 34 76  1  0  0  0  0
 34 80  2  0  0  0  0
 35 58  1  0  0  0  0
 35 77  1  0  0  0  0
 35 81  2  0  0  0  0
 36 67  1  0  0  0  0
 36 72  1  0  0  0  0
 36 82  2  0  0  0  0
 37 68  1  0  0  0  0
 37 78  1  0  0  0  0
 37 83  2  0  0  0  0
 38 73  1  0  0  0  0
 38 74  1  0  0  0  0
 38 84  2  0  0  0  0
 39 42  1  0  0  0  0
 40 58  1  0  0  0  0
 41 72  1  0  0  0  0
 42 46  1  0  0  0  0
 43 47  1  0  0  0  0
 43 50  1  0  0  0  0
 44 45  1  0  0  0  0
 44 56  1  0  0  0  0
 45 56  1  0  0  0  0
 46 57  1  0  0  0  0
 47 59  1  0  0  0  0
 48 54  1  0  0  0  0
 48 60  1  0  0  0  0
 49 54  1  0  0  0  0
 49 60  1  0  0  0  0
 50 73  1  0  0  0  0
 51 55  1  0  0  0  0
 51 74  1  0  0  0  0
 52 55  1  0  0  0  0
 52 74  1  0  0  0  0
 53 59  1  0  0  0  0
 53 73  1  0  0  0  0
 57 77  1  0  0  0  0
 58 72  1  0  0  0  0
 59 71  1  0  0  0  0
 60 86  1  0  0  0  0
 62 68  1  0  0  0  0
 63 69  1  0  0  0  0
 64 69  1  0  0  0  0
 65 69  1  0  0  0  0
 66 79  1  0  0  0  0
 67 69  1  0  0  0  0
 67 78  1  0  0  0  0
 68 79  1  0  0  0  0
 70 71  1  0  0  0  0
M  CHG  1  79   1
M  ISO  4  38 100  60 101  74 100  86 101
M  END
> <Batch ID>
0169

> <Smiles>
CNC(C)C(=O)NC(C(=O)N1Cc2cc([101O:1][101CH:1]3CC(c4cc(C5C[100N:0]([100C:0](=O)N6CCCC(n7nc(-c8ccc(Oc9ccc(F)cc9F)cc8)c(C(N)=O)c7N)C6)C5)c(C)cc4C4CC4)C3)ccc2CC1C(=O)NC1CCCc2ccccc21)C(C)(C)C

> <Shape>
0.270

> <Color>
0.089

> <Negative vol penalty>
0.000

$$$$

  -OEChem-04052322323D

 85 94  0     1  0  0  0  0  0999 V2000
  -28.6333  -11.3998   18.5555 C   0  0  0  0  0  0  0  0  0  0  0  0
  -28.6049  -12.7879   18.4665 C   0  0  0  0  0  0  0  0  0  0  0  0
  -19.6998  -29.2119   21.8338 C   0  0  0  0  0  0  0  0  0  0  0  0
  -21.3847  -27.5899   22.4398 C   0  0  0  0  0  0  0  0  0  0  0  0
  -27.6281  -10.7261   19.2481 C   0  0  0  0  0  0  0  0  0  0  0  0
  -27.5706  -13.5030   19.0692 C   0  0  0  0  0  0  0  0  0  0  0  0
  -29.2335  -17.5580   21.6061 C   0  0  0  0  0  0  0  0  0  0  0  0
  -18.7119  -28.3860   22.3700 C   0  0  0  0  0  0  0  0  0  0  0  0
  -20.3968  -26.7639   22.9760 C   0  0  0  0  0  0  0  0  0  0  0  0
  -29.5667  -18.6855   20.8567 C   0  0  0  0  0  0  0  0  0  0  0  0
  -18.0749  -24.5899   21.8300 C   0  0  0  0  0  0  0  0  0  0  0  0
  -18.1283  -23.2308   21.5209 C   0  0  0  0  0  0  0  0  0  0  0  0
  -27.4365  -19.6741   21.4083 C   0  0  0  0  0  0  0  0  0  0  0  0
  -28.1313  -26.5225   17.8078 C   0  0  0  0  0  0  0  0  0  0  0  0
  -18.3329  -22.7045   23.8700 C   0  0  0  0  0  0  0  0  0  0  0  0
  -21.0362  -28.8138   21.8687 C   0  0  0  0  0  0  0  0  0  0  0  0
  -22.7826  -30.6698   21.9842 C   0  0  0  0  0  0  0  0  0  0  0  0
  -26.5862  -11.4340   19.8678 C   0  0  0  0  0  0  0  0  0  0  0  0
  -27.9929  -17.4754   22.2544 C   0  0  0  0  0  0  0  0  0  0  0  0
  -26.5498  -12.8381   19.7696 C   0  0  0  0  0  0  0  0  0  0  0  0
  -27.0911  -18.5456   22.1674 C   0  0  0  0  0  0  0  0  0  0  0  0
  -29.3080  -25.7969   17.6584 C   0  0  0  0  0  0  0  0  0  0  0  0
  -30.0369  -25.9003   16.4789 C   0  0  0  0  0  0  0  0  0  0  0  0
  -19.0603  -27.1620   22.9411 C   0  0  0  0  0  0  0  0  0  0  0  0
  -28.6669  -19.7425   20.7553 C   0  0  0  0  0  0  0  0  0  0  0  0
  -18.1506  -25.0063   23.1592 C   0  0  0  0  0  0  0  0  0  0  0  0
  -18.2573  -22.2881   22.5408 C   0  0  0  0  0  0  0  0  0  0  0  0
  -18.2796  -24.0636   24.1791 C   0  0  0  0  0  0  0  0  0  0  0  0
  -22.0571  -29.6663   21.3145 C   0  0  0  0  0  0  0  0  0  0  0  0
  -29.5504  -26.7364   15.4869 C   0  0  0  0  0  0  0  0  0  0  0  0
  -27.7301  -27.3309   16.7564 C   0  0  0  0  0  0  0  0  0  0  0  0
  -23.6226  -31.1833   21.0266 C   0  0  0  0  0  0  0  0  0  0  0  0
  -22.7042  -31.0992   23.3499 C   0  0  0  0  0  0  0  0  0  0  0  0
  -25.4766  -15.5445   22.0448 C   0  0  0  0  0  0  0  0  0  0  0  0
  -24.4474  -17.2467   24.6071 C   0  0  0  0  0  0  0  0  0  0  0  0
  -24.5806  -20.1461   26.4023 C   0  0  0  0  0  0  0  0  0  0  0  0
  -25.9409  -28.9345   15.9993 C   0  0  0  0  0  0  0  0  0  0  0  0
  -25.4964  -10.6590   20.5652 C   0  0  0  0  0  0  0  0  0  0  0  0
  -27.6595  -16.2637   23.0810 C   0  0  0  0  0  0  0  0  0  0  0  0
  -25.7545  -18.5148   22.8611 C   0  0  0  0  0  0  0  0  0  0  0  0
  -24.6392  -11.5150   21.4941 C   0  0  0  0  0  0  0  0  0  0  0  0
  -23.9376  -31.8630   16.2965 C   0  0  0  0  0  0  0  0  0  0  0  0
  -24.2296  -12.8100   20.7999 C   0  0  0  0  0  0  0  0  0  0  0  0
  -23.2988  -31.7263   17.6805 C   0  0  0  0  0  0  0  0  0  0  0  0
  -29.7481  -23.3486   18.5846 C   0  0  0  0  0  0  0  0  0  0  0  0
  -24.0641  -30.5121   15.5944 C   0  0  0  0  0  0  0  0  0  0  0  0
  -24.1055  -29.3325   17.7568 C   0  0  0  0  0  0  0  0  0  0  0  0
  -29.7821  -24.8918   18.8046 C   0  0  2  0  0  0  0  0  0  0  0  0
  -25.4579  -13.6507   20.4312 C   0  0  1  0  0  0  0  0  0  0  0  0
  -26.1592  -16.0682   23.2767 C   0  0  1  0  0  0  0  0  0  0  0  0
  -29.3930  -23.2002   20.0826 C   0  0  1  0  0  0  0  0  0  0  0  0
  -28.8009  -24.6382   20.0004 C   0  0  1  0  0  0  0  0  0  0  0  0
  -24.0164  -30.6586   18.5295 C   0  0  2  0  0  0  0  0  0  0  0  0
  -31.3025  -25.1333   16.2938 C   0  0  0  0  0  0  0  0  0  0  0  0
  -30.2904  -26.8877   14.1982 C   0  0  0  0  0  0  0  0  0  0  0  0
  -28.9884  -25.5105   21.2265 C   0  0  0  0  0  0  0  0  0  0  0  0
  -23.5976  -21.2566   28.4266 C   0  0  0  0  0  0  0  0  0  0  0  0
  -21.8705  -17.7772   23.0618 C   0  0  0  0  0  0  0  0  0  0  0  0
  -21.3600  -19.6168   24.6815 C   0  0  0  0  0  0  0  0  0  0  0  0
  -21.5452  -17.2634   25.4876 C   0  0  0  0  0  0  0  0  0  0  0  0
  -27.2273  -20.3710   27.7074 C   0  0  0  0  0  0  0  0  0  0  0  0
  -28.4269  -22.0875   20.4402 C   0  0  0  0  0  0  0  0  0  1  0  0
  -23.6366  -18.5056   24.7985 C   0  0  1  0  0  0  0  0  0  0  0  0
  -24.7365  -20.4033   27.8902 C   0  0  2  0  0  0  0  0  0  0  0  0
  -22.1274  -18.2908   24.4926 C   0  0  0  0  0  0  0  0  0  0  0  0
  -22.4056  -29.5479   20.0305 N   0  0  0  0  0  0  0  0  0  0  0  0
  -28.4117  -27.4569   15.5957 N   0  0  0  0  0  0  0  0  0  0  0  0
  -23.3592  -30.4837   19.8858 N   0  0  0  0  0  0  0  0  0  0  0  0
  -25.4722  -17.3056   23.6521 N   0  0  0  0  0  0  0  0  0  0  0  0
  -24.7577  -29.5526   16.4564 N   0  0  0  0  0  0  0  0  0  0  0  0
  -24.5533  -32.1607   21.0574 N   0  0  0  0  0  0  0  0  0  0  0  0
  -21.7869  -30.4644   24.1983 N   0  0  0  0  0  0  0  0  0  0  0  0
  -26.5296  -28.0661   16.9178 N   0  0  0  0  0  0  0  0  0  0  0  0
  -25.9718  -14.3340   21.5988 N   0  0  0  0  0  0  0  0  0  0  0  0
  -23.9116  -18.9660   26.1553 N   0  0  0  0  0  0  0  0  0  0  0  0
  -26.0207  -21.1087   28.1623 N   0  3  0  0  0  0  0  0  0  0  0  0
  -23.4146  -32.0298   23.8002 O   0  0  0  0  0  0  0  0  0  0  0  0
  -24.5670  -16.1901   21.5374 O   0  0  0  0  0  0  0  0  0  0  0  0
  -24.1858  -16.2500   25.2852 O   0  0  0  0  0  0  0  0  0  0  0  0
  -25.0063  -20.9169   25.5449 O   0  0  0  0  0  0  0  0  0  0  0  0
  -26.4129  -29.1798   14.8862 O   0  0  0  0  0  0  0  0  0  0  0  0
  -18.0966  -26.3560   23.4646 O   0  0  0  0  0  0  0  0  0  0  0  0
  -28.9893  -20.8438   20.0238 O   0  0  0  0  0  0  0  0  0  1  0  0
  -18.3070  -20.9829   22.2439 F   0  0  0  0  0  0  0  0  0  0  0  0
  -18.3516  -24.4575   25.4580 F   0  0  0  0  0  0  0  0  0  0  0  0
  1  2  1  0  0  0  0
  1  5  2  0  0  0  0
  2  6  2  0  0  0  0
  3  8  2  0  0  0  0
  3 16  1  0  0  0  0
  4  9  1  0  0  0  0
  4 16  2  0  0  0  0
  5 18  1  0  0  0  0
  6 20  1  0  0  0  0
  7 10  2  0  0  0  0
  7 19  1  0  0  0  0
  8 24  1  0  0  0  0
  9 24  2  0  0  0  0
 10 25  1  0  0  0  0
 11 12  2  0  0  0  0
 11 26  1  0  0  0  0
 12 27  1  0  0  0  0
 13 21  1  0  0  0  0
 13 25  2  0  0  0  0
 14 22  1  0  0  0  0
 14 31  2  0  0  0  0
 15 27  2  0  0  0  0
 15 28  1  0  0  0  0
 16 29  1  0  0  0  0
 17 29  1  0  0  0  0
 17 32  2  0  0  0  0
 17 33  1  0  0  0  0
 18 20  2  0  0  0  0
 18 38  1  0  0  0  0
 19 21  2  0  0  0  0
 19 39  1  0  0  0  0
 20 49  1  0  0  0  0
 21 40  1  0  0  0  0
 22 23  2  0  0  0  0
 22 48  1  0  0  0  0
 23 30  1  0  0  0  0
 23 54  1  0  0  0  0
 24 82  1  0  0  0  0
 25 83  1  0  0  0  0
 26 28  2  0  0  0  0
 26 82  1  0  0  0  0
 27 84  1  0  0  0  0
 28 85  1  0  0  0  0
 29 66  2  0  0  0  0
 30 55  1  0  0  0  0
 30 67  2  0  0  0  0
 31 67  1  0  0  0  0
 31 73  1  0  0  0  0
 32 68  1  0  0  0  0
 32 71  1  0  0  0  0
 33 72  1  0  0  0  0
 33 77  2  0  0  0  0
 34 50  1  0  0  0  0
 34 74  1  0  0  0  0
 34 78  2  0  0  0  0
 35 63  1  0  0  0  0
 35 69  1  0  0  0  0
 35 79  2  0  0  0  0
 36 64  1  0  0  0  0
 36 75  1  0  0  0  0
 36 80  2  0  0  0  0
 37 70  1  0  0  0  0
 37 73  1  0  0  0  0
 37 81  2  0  0  0  0
 38 41  1  0  0  0  0
 39 50  1  0  0  0  0
 40 69  1  0  0  0  0
 41 43  1  0  0  0  0
 42 44  1  0  0  0  0
 42 46  1  0  0  0  0
 43 49  1  0  0  0  0
 44 53  1  0  0  0  0
 45 48  1  0  0  0  0
 45 51  1  0  0  0  0
 46 70  1  0  0  0  0
 47 53  1  0  0  0  0
 47 70  1  0  0  0  0
 48 52  1  0  0  0  0
 49 74  1  0  0  0  0
 50 69  1  0  0  0  0
 51 52  1  0  0  0  0
 51 62  1  0  0  0  0
 52 56  1  0  0  0  0
 53 68  1  0  0  0  0
 57 64  1  0  0  0  0
 58 65  1  0  0  0  0
 59 65  1  0  0  0  0
 60 65  1  0  0  0  0
 61 76  1  0  0  0  0
 62 83  1  0  0  0  0
 63 65  1  0  0  0  0
 63 75  1  0  0  0  0
 64 76  1  0  0  0  0
 66 68  1  0  0  0  0
M  CHG  1  76   1
M  ISO  4  37 100  62 101  73 100  83 101
M  END
> <Batch ID>
0169

> <Smiles>
CNC(C)C(=O)NC(C(=O)N1Cc2cc([101O:1][101CH2:1]C3CC(c4cc([100NH:0][100C:0](=O)N5CCCC(n6nc(-c7ccc(Oc8ccc(F)cc8F)cc7)c(C(N)=O)c6N)C5)nc(C)c4C)C3C)ccc2CC1C(=O)NC1CCCc2ccccc21)C(C)(C)C

> <Shape>
0.211

> <Color>
0.060

> <Negative vol penalty>
0.000

$$$$

  -OEChem-04052322323D

 89 99  0     1  0  0  0  0  0999 V2000
  -26.3852  -36.2535   23.2654 C   0  0  0  0  0  0  0  0  0  0  0  0
  -27.4295  -35.4267   22.8640 C   0  0  0  0  0  0  0  0  0  0  0  0
  -23.2647   -9.6920   19.9870 C   0  0  0  0  0  0  0  0  0  0  0  0
  -23.9375   -9.9088   22.2973 C   0  0  0  0  0  0  0  0  0  0  0  0
  -25.4904  -35.8197   24.2428 C   0  0  0  0  0  0  0  0  0  0  0  0
  -27.5804  -34.1660   23.4405 C   0  0  0  0  0  0  0  0  0  0  0  0
  -29.7837  -27.5342   21.8653 C   0  0  0  0  0  0  0  0  0  0  0  0
  -22.6076   -8.4996   20.2903 C   0  0  0  0  0  0  0  0  0  0  0  0
  -23.2803   -8.7164   22.6006 C   0  0  0  0  0  0  0  0  0  0  0  0
  -30.6507  -26.5478   22.3331 C   0  0  0  0  0  0  0  0  0  0  0  0
  -20.1072   -7.6941   23.1545 C   0  0  0  0  0  0  0  0  0  0  0  0
  -19.3138   -7.6667   24.3013 C   0  0  0  0  0  0  0  0  0  0  0  0
  -28.9980  -25.8728   23.9555 C   0  0  0  0  0  0  0  0  0  0  0  0
  -33.7708  -21.5275   24.4262 C   0  0  0  0  0  0  0  0  0  0  0  0
  -20.6798   -5.8899   25.2038 C   0  0  0  0  0  0  0  0  0  0  0  0
  -34.1334  -23.7295   24.7253 C   0  0  0  0  0  0  0  0  0  0  0  0
  -23.9297  -10.3966   20.9906 C   0  0  0  0  0  0  0  0  0  0  0  0
  -24.0709  -12.9285   20.7127 C   0  0  0  0  0  0  0  0  0  0  0  0
  -25.6247  -34.5493   24.8246 C   0  0  0  0  0  0  0  0  0  0  0  0
  -28.5193  -27.7048   22.4473 C   0  0  0  0  0  0  0  0  0  0  0  0
  -26.6874  -33.7154   24.4275 C   0  0  0  0  0  0  0  0  0  0  0  0
  -28.1157  -26.8605   23.4916 C   0  0  0  0  0  0  0  0  0  0  0  0
  -34.5676  -22.4798   25.1084 C   0  0  0  0  0  0  0  0  0  0  0  0
  -22.6154   -8.0118   21.5970 C   0  0  0  0  0  0  0  0  0  0  0  0
  -30.2591  -25.7188   23.3802 C   0  0  0  0  0  0  0  0  0  0  0  0
  -21.1869   -6.8194   23.0322 C   0  0  0  0  0  0  0  0  0  0  0  0
  -19.6001   -6.7646   25.3260 C   0  0  0  0  0  0  0  0  0  0  0  0
  -21.4732   -5.9173   24.0569 C   0  0  0  0  0  0  0  0  0  0  0  0
  -24.6091  -11.6282   20.6779 C   0  0  0  0  0  0  0  0  0  0  0  0
  -32.8740  -22.2244   23.6467 C   0  0  0  0  0  0  0  0  0  0  0  0
  -25.1116  -13.7411   20.3343 C   0  0  0  0  0  0  0  0  0  0  0  0
  -22.7485  -13.3631   21.0566 C   0  0  0  0  0  0  0  0  0  0  0  0
  -27.0670  -30.0643   24.0053 C   0  0  0  0  0  0  0  0  0  0  0  0
  -24.5067  -28.0801   23.8314 C   0  0  0  0  0  0  0  0  0  0  0  0
  -23.3270  -24.8943   23.5065 C   0  0  0  0  0  0  0  0  0  0  0  0
  -30.6208  -14.9360   21.0962 C   0  0  0  0  0  0  0  0  0  0  0  0
  -24.6609  -34.1430   25.9112 C   0  0  0  0  0  0  0  0  0  0  0  0
  -27.5853  -28.7560   21.9135 C   0  0  0  0  0  0  0  0  0  0  0  0
  -26.7610  -26.9893   24.1370 C   0  0  0  0  0  0  0  0  0  0  0  0
  -24.6690  -32.6447   26.2036 C   0  0  0  0  0  0  0  0  0  0  0  0
  -29.6255  -12.6389   18.3624 C   0  0  0  0  0  0  0  0  0  0  0  0
  -26.1006  -32.1319   26.3233 C   0  0  0  0  0  0  0  0  0  0  0  0
  -28.2142  -12.2257   18.7759 C   0  0  0  0  0  0  0  0  0  0  0  0
  -30.9719  -17.8857   22.8886 C   0  0  0  0  0  0  0  0  0  0  0  0
  -29.0388  -18.0790   21.2737 C   0  0  0  0  0  0  0  0  0  0  0  0
  -32.3210  -20.8364   21.5859 C   0  0  0  0  0  0  0  0  0  0  0  0
  -30.4859  -13.0022   19.5685 C   0  0  0  0  0  0  0  0  0  0  0  0
  -30.6186  -16.4136   23.0841 C   0  0  0  0  0  0  0  0  0  0  0  0
  -28.7393  -16.5914   21.4815 C   0  0  0  0  0  0  0  0  0  0  0  0
  -28.4706  -13.6331   20.8581 C   0  0  0  0  0  0  0  0  0  0  0  0
  -31.0637  -20.2054   21.0171 C   0  0  0  0  0  0  0  0  0  0  0  0
  -26.8695  -32.3313   25.0116 C   0  0  1  0  0  0  0  0  0  0  0  0
  -31.7959  -21.7151   22.7187 C   0  0  1  0  0  0  0  0  0  0  0  0
  -26.5211  -29.1776   22.9220 C   0  0  1  0  0  0  0  0  0  0  0  0
  -27.5656  -13.3034   19.6614 C   0  0  2  0  0  0  0  0  0  0  0  0
  -29.7261  -18.6785   22.4986 C   0  0  0  0  0  0  0  0  0  0  0  0
  -30.7553  -20.8045   23.3830 C   0  0  1  0  0  0  0  0  0  0  0  0
  -35.6607  -22.1881   26.0552 C   0  0  0  0  0  0  0  0  0  0  0  0
  -29.6868  -21.5586   24.1598 C   0  0  0  0  0  0  0  0  0  0  0  0
  -21.1886  -23.5829   23.4381 C   0  0  0  0  0  0  0  0  0  0  0  0
  -24.2366  -28.3673   26.8571 C   0  0  0  0  0  0  0  0  0  0  0  0
  -22.7483  -26.3541   26.8453 C   0  0  0  0  0  0  0  0  0  0  0  0
  -22.0707  -28.4111   25.6075 C   0  0  0  0  0  0  0  0  0  0  0  0
  -23.8769  -23.9193   20.7668 C   0  0  0  0  0  0  0  0  0  0  0  0
  -32.3809  -24.6441   23.2047 C   0  0  0  0  0  0  0  0  0  1  0  0
  -23.9462  -26.9795   24.6994 C   0  0  1  0  0  0  0  0  0  0  0  0
  -22.2456  -24.3063   22.6182 C   0  0  2  0  0  0  0  0  0  0  0  0
  -23.2768  -27.5266   25.9917 C   0  0  0  0  0  0  0  0  0  0  0  0
  -25.8919  -11.6109   20.3064 N   0  0  0  0  0  0  0  0  0  0  0  0
  -33.1039  -23.5621   23.8363 N   0  0  0  0  0  0  0  0  0  0  0  0
  -26.1685  -12.9104   20.1044 N   0  0  0  0  0  0  0  0  0  0  0  0
  -25.8861  -28.0363   23.5840 N   0  0  0  0  0  0  0  0  0  0  0  0
  -29.8281  -13.9931   20.4206 N   0  0  0  0  0  0  0  0  0  0  0  0
  -29.9499  -15.8695   21.9006 N   0  0  0  0  0  0  0  0  0  0  0  0
  -25.2164  -15.0780   20.1791 N   0  0  0  0  0  0  0  0  0  0  0  0
  -21.8016  -12.3967   21.4223 N   0  0  0  0  0  0  0  0  0  0  0  0
  -26.4931  -31.3207   24.0465 N   0  0  0  0  0  0  0  0  0  0  0  0
  -23.0532  -26.2021   23.8470 N   0  0  0  0  0  0  0  0  0  0  0  0
  -30.1171  -20.0802   22.1987 N   0  3  1  0  0  0  0  0  0  0  0  0
  -22.8377  -23.3364   21.6541 N   0  3  0  0  0  0  0  0  0  0  0  0
  -22.4119  -14.5710   21.0242 O   0  0  0  0  0  0  0  0  0  0  0  0
  -27.9429  -29.6395   24.7496 O   0  0  0  0  0  0  0  0  0  0  0  0
  -23.7474  -28.9429   23.3834 O   0  0  0  0  0  0  0  0  0  0  0  0
  -24.3140  -24.2560   23.8657 O   0  0  0  0  0  0  0  0  0  0  0  0
  -31.8531  -14.9434   20.9845 O   0  0  0  0  0  0  0  0  0  0  0  0
  -21.9741   -6.8484   21.8933 O   0  0  0  0  0  0  0  0  0  0  0  0
  -31.1093  -24.7493   23.8422 O   0  0  0  0  0  0  0  0  0  1  0  0
  -18.8390   -6.7394   26.4280 F   0  0  0  0  0  0  0  0  0  0  0  0
  -22.5098   -5.0754   23.9457 F   0  0  0  0  0  0  0  0  0  0  0  0
  1  2  1  0  0  0  0
  1  5  2  0  0  0  0
  2  6  2  0  0  0  0
  3  8  2  0  0  0  0
  3 17  1  0  0  0  0
  4  9  1  0  0  0  0
  4 17  2  0  0  0  0
  5 19  1  0  0  0  0
  6 21  1  0  0  0  0
  7 10  2  0  0  0  0
  7 20  1  0  0  0  0
  8 24  1  0  0  0  0
  9 24  2  0  0  0  0
 10 25  1  0  0  0  0
 11 12  2  0  0  0  0
 11 26  1  0  0  0  0
 12 27  1  0  0  0  0
 13 22  1  0  0  0  0
 13 25  2  0  0  0  0
 14 23  1  0  0  0  0
 14 30  2  0  0  0  0
 15 27  2  0  0  0  0
 15 28  1  0  0  0  0
 16 23  2  0  0  0  0
 16 70  1  0  0  0  0
 17 29  1  0  0  0  0
 18 29  1  0  0  0  0
 18 31  2  0  0  0  0
 18 32  1  0  0  0  0
 19 21  2  0  0  0  0
 19 37  1  0  0  0  0
 20 22  2  0  0  0  0
 20 38  1  0  0  0  0
 21 52  1  0  0  0  0
 22 39  1  0  0  0  0
 23 58  1  0  0  0  0
 24 86  1  0  0  0  0
 25 87  1  0  0  0  0
 26 28  2  0  0  0  0
 26 86  1  0  0  0  0
 27 88  1  0  0  0  0
 28 89  1  0  0  0  0
 29 69  2  0  0  0  0
 30 53  1  0  0  0  0
 30 70  1  0  0  0  0
 31 71  1  0  0  0  0
 31 75  1  0  0  0  0
 32 76  1  0  0  0  0
 32 81  2  0  0  0  0
 33 54  1  0  0  0  0
 33 77  1  0  0  0  0
 33 82  2  0  0  0  0
 34 66  1  0  0  0  0
 34 72  1  0  0  0  0
 34 83  2  0  0  0  0
 35 67  1  0  0  0  0
 35 78  1  0  0  0  0
 35 84  2  0  0  0  0
 36 73  1  0  0  0  0
 36 74  1  0  0  0  0
 36 85  2  0  0  0  0
 37 40  1  0  0  0  0
 38 54  1  0  0  0  0
 39 72  1  0  0  0  0
 40 42  1  0  0  0  0
 41 43  1  0  0  0  0
 41 47  1  0  0  0  0
 42 52  1  0  0  0  0
 43 55  1  0  0  0  0
 44 48  1  0  0  0  0
 44 56  1  0  0  0  0
 45 49  1  0  0  0  0
 45 56  1  0  0  0  0
 46 51  1  0  0  0  0
 46 53  1  0  0  0  0
 47 73  1  0  0  0  0
 48 74  1  0  0  0  0
 49 74  1  0  0  0  0
 50 55  1  0  0  0  0
 50 73  1  0  0  0  0
 51 79  1  0  0  0  0
 52 77  1  0  0  0  0
 53 57  1  0  0  0  0
 54 72  1  0  0  0  0
 55 71  1  0  0  0  0
 56 79  1  0  0  0  0
 57 59  1  0  0  0  0
 57 79  1  0  0  0  0
 60 67  1  0  0  0  0
 61 68  1  0  0  0  0
 62 68  1  0  0  0  0
 63 68  1  0  0  0  0
 64 80  1  0  0  0  0
 65 70  1  0  0  0  0
 65 87  1  0  0  0  0
 66 68  1  0  0  0  0
 66 78  1  0  0  0  0
 67 80  1  0  0  0  0
 69 71  1  0  0  0  0
M  CHG  2  79   1  80   1
M  ISO  4  36 100  65 101  74 100  87 101
M  END
> <Batch ID>
0169

> <Smiles>
CNC(C)C(=O)NC(C(=O)N1Cc2cc([101O:1][101CH2:1]n3cc(C)cc3C3CCN(C4CC[100N:0]([100C:0](=O)N5CCCC(n6nc(-c7ccc(Oc8ccc(F)cc8F)cc7)c(C(N)=O)c6N)C5)CC4)C3C)ccc2CC1C(=O)NC1CCCc2ccccc21)C(C)(C)C

> <Shape>
0.281

> <Color>
0.187

> <Negative vol penalty>
0.000

$$$$

  -OEChem-04052322323D

 84 93  0     1  0  0  0  0  0999 V2000
  -16.5167  -27.0310   23.0799 C   0  0  0  0  0  0  0  0  0  0  0  0
  -17.5820  -26.3968   23.7111 C   0  0  0  0  0  0  0  0  0  0  0  0
  -29.8356  -22.6849   29.3225 C   0  0  0  0  0  0  0  0  0  0  0  0
  -23.8451  -10.0635   22.4586 C   0  0  0  0  0  0  0  0  0  0  0  0
  -22.9610  -10.3672   20.2308 C   0  0  0  0  0  0  0  0  0  0  0  0
  -16.7608  -28.0115   22.1192 C   0  0  0  0  0  0  0  0  0  0  0  0
  -18.8921  -26.7420   23.3811 C   0  0  0  0  0  0  0  0  0  0  0  0
  -23.7179  -26.8997   27.1484 C   0  0  0  0  0  0  0  0  0  0  0  0
  -22.8890   -9.0778   22.7037 C   0  0  0  0  0  0  0  0  0  0  0  0
  -22.0050   -9.3815   20.4758 C   0  0  0  0  0  0  0  0  0  0  0  0
  -24.7490  -25.9931   27.3904 C   0  0  0  0  0  0  0  0  0  0  0  0
  -22.4294   -5.8127   21.9551 C   0  0  0  0  0  0  0  0  0  0  0  0
  -22.8548   -4.6359   22.5713 C   0  0  0  0  0  0  0  0  0  0  0  0
  -28.7042  -23.4845   29.2047 C   0  0  0  0  0  0  0  0  0  0  0  0
  -30.1620  -21.7974   28.3032 C   0  0  0  0  0  0  0  0  0  0  0  0
  -26.1546  -27.1856   25.8343 C   0  0  0  0  0  0  0  0  0  0  0  0
  -21.3376   -5.0479   24.4058 C   0  0  0  0  0  0  0  0  0  0  0  0
  -23.8810  -10.7082   21.2222 C   0  0  0  0  0  0  0  0  0  0  0  0
  -26.1571  -11.5469   20.4325 C   0  0  0  0  0  0  0  0  0  0  0  0
  -18.0745  -28.3758   21.7843 C   0  0  0  0  0  0  0  0  0  0  0  0
  -23.8941  -27.9515   26.2378 C   0  0  0  0  0  0  0  0  0  0  0  0
  -19.1540  -27.7274   22.4140 C   0  0  0  0  0  0  0  0  0  0  0  0
  -25.1251  -28.1057   25.5845 C   0  0  0  0  0  0  0  0  0  0  0  0
  -21.9690   -8.7368   21.7122 C   0  0  0  0  0  0  0  0  0  0  0  0
  -25.9666  -26.1342   26.7311 C   0  0  0  0  0  0  0  0  0  0  0  0
  -21.4581   -6.6072   22.5643 C   0  0  0  0  0  0  0  0  0  0  0  0
  -22.3090   -4.2535   23.7966 C   0  0  0  0  0  0  0  0  0  0  0  0
  -20.9122   -6.2248   23.7896 C   0  0  0  0  0  0  0  0  0  0  0  0
  -24.8680  -11.7269   20.9687 C   0  0  0  0  0  0  0  0  0  0  0  0
  -27.9384  -23.3595   28.0568 C   0  0  0  0  0  0  0  0  0  0  0  0
  -29.3308  -21.7478   27.1957 C   0  0  0  0  0  0  0  0  0  0  0  0
  -26.6917  -12.8115   20.3918 C   0  0  0  0  0  0  0  0  0  0  0  0
  -26.8127  -10.3442   20.0089 C   0  0  0  0  0  0  0  0  0  0  0  0
  -22.5155  -28.8065   23.5043 C   0  0  0  0  0  0  0  0  0  0  0  0
  -24.4079  -31.4222   23.8195 C   0  0  0  0  0  0  0  0  0  0  0  0
  -27.2304  -32.8140   25.1398 C   0  0  0  0  0  0  0  0  0  0  0  0
  -27.7299  -17.6317   22.5116 C   0  0  0  0  0  0  0  0  0  0  0  0
  -18.2890  -29.4078   20.7056 C   0  0  0  0  0  0  0  0  0  0  0  0
  -22.7810  -28.9368   26.0080 C   0  0  0  0  0  0  0  0  0  0  0  0
  -25.3718  -29.2297   24.6128 C   0  0  0  0  0  0  0  0  0  0  0  0
  -19.7038  -29.9807   20.6834 C   0  0  0  0  0  0  0  0  0  0  0  0
  -24.5412  -17.3316   21.0724 C   0  0  0  0  0  0  0  0  0  0  0  0
  -20.7348  -28.8609   20.7825 C   0  0  0  0  0  0  0  0  0  0  0  0
  -24.4404  -15.8198   20.8709 C   0  0  0  0  0  0  0  0  0  0  0  0
  -27.6713  -19.8269   25.2622 C   0  0  0  0  0  0  0  0  0  0  0  0
  -29.7737  -20.0678   23.8876 C   0  0  0  0  0  0  0  0  0  0  0  0
  -25.1983  -17.6893   22.4067 C   0  0  0  0  0  0  0  0  0  0  0  0
  -26.8899  -19.5185   23.9816 C   0  0  0  0  0  0  0  0  0  0  0  0
  -28.9484  -19.7836   22.6357 C   0  0  0  0  0  0  0  0  0  0  0  0
  -26.4141  -15.5352   22.4169 C   0  0  0  0  0  0  0  0  0  0  0  0
  -20.5891  -28.0919   22.1011 C   0  0  1  0  0  0  0  0  0  0  0  0
  -22.8968  -29.6686   24.6744 C   0  0  1  0  0  0  0  0  0  0  0  0
  -25.8108  -15.1449   21.0587 C   0  0  1  0  0  0  0  0  0  0  0  0
  -28.8992  -20.6947   24.9766 C   0  0  0  0  0  0  0  0  0  0  0  0
  -28.5307  -34.9597   25.1900 C   0  0  0  0  0  0  0  0  0  0  0  0
  -25.4430  -30.8580   21.0052 C   0  0  0  0  0  0  0  0  0  0  0  0
  -27.3582  -32.4004   21.4756 C   0  0  0  0  0  0  0  0  0  0  0  0
  -25.0215  -33.2736   21.4970 C   0  0  0  0  0  0  0  0  0  0  0  0
  -26.9191  -33.0693   28.0719 C   0  0  0  0  0  0  0  0  0  0  0  0
  -26.7169  -24.2022   27.8975 C   0  0  0  0  0  0  0  0  0  1  0  0
  -25.8069  -31.7881   23.3861 C   0  0  1  0  0  0  0  0  0  0  0  0
  -27.4598  -34.1233   25.8729 C   0  0  2  0  0  0  0  0  0  0  0  0
  -25.9024  -32.0576   21.8578 C   0  0  0  0  0  0  0  0  0  0  0  0
  -24.5999  -13.0051   21.2488 N   0  0  0  0  0  0  0  0  0  0  0  0
  -28.2235  -22.5088   27.0457 N   0  0  0  0  0  0  0  0  0  0  0  0
  -25.7280  -13.6397   20.8872 N   0  0  0  0  0  0  0  0  0  0  0  0
  -24.2506  -30.1635   24.4169 N   0  0  0  0  0  0  0  0  0  0  0  0
  -26.4826  -16.9912   22.5580 N   0  0  0  0  0  0  0  0  0  0  0  0
  -27.7784  -18.9632   22.9506 N   0  0  0  0  0  0  0  0  0  0  0  0
  -27.8875  -13.2846   19.9810 N   0  0  0  0  0  0  0  0  0  0  0  0
  -26.1196   -9.1311   20.1193 N   0  0  0  0  0  0  0  0  0  0  0  0
  -29.6690  -20.8600   26.1898 N   0  0  0  0  0  0  0  0  0  0  0  0
  -21.1700  -28.8447   23.1921 N   0  0  0  0  0  0  0  0  0  0  0  0
  -26.2100  -32.9166   24.2182 N   0  0  0  0  0  0  0  0  0  0  0  0
  -27.8902  -33.8630   27.2758 N   0  3  0  0  0  0  0  0  0  0  0  0
  -27.9846  -10.3433   19.5614 O   0  0  0  0  0  0  0  0  0  0  0  0
  -23.3785  -28.1561   22.9264 O   0  0  0  0  0  0  0  0  0  0  0  0
  -23.4898  -32.2265   23.6413 O   0  0  0  0  0  0  0  0  0  0  0  0
  -27.8929  -31.8024   25.3599 O   0  0  0  0  0  0  0  0  0  0  0  0
  -28.7413  -17.0481   22.1021 O   0  0  0  0  0  0  0  0  0  0  0  0
  -21.0362   -7.7748   21.9509 O   0  0  0  0  0  0  0  0  0  0  0  0
  -26.9815  -25.2440   26.9666 O   0  0  0  0  0  0  0  0  0  1  0  0
  -22.7165   -3.1225   24.3875 F   0  0  0  0  0  0  0  0  0  0  0  0
  -19.9779   -6.9833   24.3791 F   0  0  0  0  0  0  0  0  0  0  0  0
  1  2  1  0  0  0  0
  1  6  2  0  0  0  0
  2  7  2  0  0  0  0
  3 14  2  0  0  0  0
  3 15  1  0  0  0  0
  4  9  2  0  0  0  0
  4 18  1  0  0  0  0
  5 10  1  0  0  0  0
  5 18  2  0  0  0  0
  6 20  1  0  0  0  0
  7 22  1  0  0  0  0
  8 11  2  0  0  0  0
  8 21  1  0  0  0  0
  9 24  1  0  0  0  0
 10 24  2  0  0  0  0
 11 25  1  0  0  0  0
 12 13  2  0  0  0  0
 12 26  1  0  0  0  0
 13 27  1  0  0  0  0
 14 30  1  0  0  0  0
 15 31  2  0  0  0  0
 16 23  1  0  0  0  0
 16 25  2  0  0  0  0
 17 27  2  0  0  0  0
 17 28  1  0  0  0  0
 18 29  1  0  0  0  0
 19 29  1  0  0  0  0
 19 32  2  0  0  0  0
 19 33  1  0  0  0  0
 20 22  2  0  0  0  0
 20 38  1  0  0  0  0
 21 23  2  0  0  0  0
 21 39  1  0  0  0  0
 22 51  1  0  0  0  0
 23 40  1  0  0  0  0
 24 81  1  0  0  0  0
 25 82  1  0  0  0  0
 26 28  2  0  0  0  0
 26 81  1  0  0  0  0
 27 83  1  0  0  0  0
 28 84  1  0  0  0  0
 29 64  2  0  0  0  0
 30 60  1  0  0  0  0
 30 65  2  0  0  0  0
 31 65  1  0  0  0  0
 31 72  1  0  0  0  0
 32 66  1  0  0  0  0
 32 70  1  0  0  0  0
 33 71  1  0  0  0  0
 33 76  2  0  0  0  0
 34 52  1  0  0  0  0
 34 73  1  0  0  0  0
 34 77  2  0  0  0  0
 35 61  1  0  0  0  0
 35 67  1  0  0  0  0
 35 78  2  0  0  0  0
 36 62  1  0  0  0  0
 36 74  1  0  0  0  0
 36 79  2  0  0  0  0
 37 68  1  0  0  0  0
 37 69  1  0  0  0  0
 37 80  2  0  0  0  0
 38 41  1  0  0  0  0
 39 52  1  0  0  0  0
 40 67  1  0  0  0  0
 41 43  1  0  0  0  0
 42 44  1  0  0  0  0
 42 47  1  0  0  0  0
 43 51  1  0  0  0  0
 44 53  1  0  0  0  0
 45 48  1  0  0  0  0
 45 54  1  0  0  0  0
 46 49  1  0  0  0  0
 46 54  1  0  0  0  0
 47 68  1  0  0  0  0
 48 69  1  0  0  0  0
 49 69  1  0  0  0  0
 50 53  1  0  0  0  0
 50 68  1  0  0  0  0
 51 73  1  0  0  0  0
 52 67  1  0  0  0  0
 53 66  1  0  0  0  0
 54 72  1  0  0  0  0
 55 62  1  0  0  0  0
 56 63  1  0  0  0  0
 57 63  1  0  0  0  0
 58 63  1  0  0  0  0
 59 75  1  0  0  0  0
 60 82  1  0  0  0  0
 61 63  1  0  0  0  0
 61 74  1  0  0  0  0
 62 75  1  0  0  0  0
 64 66  1  0  0  0  0
M  CHG  1  75   1
M  ISO  4  37 100  60 101  69 100  82 101
M  END
> <Batch ID>
0169

> <Smiles>
CNC(C)C(=O)NC(C(=O)N1Cc2cc([101O:1][101CH2:1]c3cccc(NC4CC[100N:0]([100C:0](=O)N5CCCC(n6nc(-c7ccc(Oc8ccc(F)cc8F)cc7)c(C(N)=O)c6N)C5)CC4)n3)ccc2CC1C(=O)NC1CCCc2ccccc21)C(C)(C)C

> <Shape>
0.244

> <Color>
0.095

> <Negative vol penalty>
0.000

$$$$

  -OEChem-04052322323D

 86 96  0     1  0  0  0  0  0999 V2000
  -29.5791  -11.3532   16.2562 C   0  0  0  0  0  0  0  0  0  0  0  0
  -28.1953  -11.4967   16.2597 C   0  0  0  0  0  0  0  0  0  0  0  0
  -26.3269  -27.7400   21.5657 C   0  0  0  0  0  0  0  0  0  0  0  0
  -25.4981  -28.1105   19.3268 C   0  0  0  0  0  0  0  0  0  0  0  0
  -30.3316  -11.8364   17.3258 C   0  0  0  0  0  0  0  0  0  0  0  0
  -27.5631  -12.1226   17.3335 C   0  0  0  0  0  0  0  0  0  0  0  0
  -21.9137  -16.2593   18.8462 C   0  0  0  0  0  0  0  0  0  0  0  0
  -27.6217  -27.6069   21.0644 C   0  0  0  0  0  0  0  0  0  0  0  0
  -26.7929  -27.9775   18.8254 C   0  0  0  0  0  0  0  0  0  0  0  0
  -20.8129  -16.3088   19.7004 C   0  0  0  0  0  0  0  0  0  0  0  0
  -29.4586  -25.2335   19.5098 C   0  0  0  0  0  0  0  0  0  0  0  0
  -30.2335  -24.1779   19.9902 C   0  0  0  0  0  0  0  0  0  0  0  0
  -22.2220  -17.1751   21.4563 C   0  0  0  0  0  0  0  0  0  0  0  0
  -16.7535  -18.4671   27.9519 C   0  0  0  0  0  0  0  0  0  0  0  0
  -31.8690  -25.7536   20.8145 C   0  0  0  0  0  0  0  0  0  0  0  0
  -25.2651  -27.9918   20.6969 C   0  0  0  0  0  0  0  0  0  0  0  0
  -23.2986  -29.3133   21.6426 C   0  0  0  0  0  0  0  0  0  0  0  0
  -29.7092  -12.4772   18.4087 C   0  0  0  0  0  0  0  0  0  0  0  0
  -23.1812  -16.6577   19.2947 C   0  0  0  0  0  0  0  0  0  0  0  0
  -28.3079  -12.6137   18.4193 C   0  0  0  0  0  0  0  0  0  0  0  0
  -23.3368  -17.1321   20.6050 C   0  0  0  0  0  0  0  0  0  0  0  0
  -17.4308  -20.0123   26.2377 C   0  0  0  0  0  0  0  0  0  0  0  0
  -16.8510  -19.7708   27.4783 C   0  0  0  0  0  0  0  0  0  0  0  0
  -27.8548  -27.7257   19.6943 C   0  0  0  0  0  0  0  0  0  0  0  0
  -20.9675  -16.7640   21.0065 C   0  0  0  0  0  0  0  0  0  0  0  0
  -29.8890  -26.5492   19.6816 C   0  0  0  0  0  0  0  0  0  0  0  0
  -31.4386  -24.4379   20.6426 C   0  0  0  0  0  0  0  0  0  0  0  0
  -31.0941  -26.8092   20.3340 C   0  0  0  0  0  0  0  0  0  0  0  0
  -23.9272  -28.1288   21.2141 C   0  0  0  0  0  0  0  0  0  0  0  0
  -17.8939  -18.9243   25.5155 C   0  0  0  0  0  0  0  0  0  0  0  0
  -17.2468  -17.4484   27.1528 C   0  0  0  0  0  0  0  0  0  0  0  0
  -22.0460  -28.9131   22.0392 C   0  0  0  0  0  0  0  0  0  0  0  0
  -23.8020  -30.6553   21.6788 C   0  0  0  0  0  0  0  0  0  0  0  0
  -25.9902  -15.2137   19.6524 C   0  0  0  0  0  0  0  0  0  0  0  0
  -26.9992  -18.2105   20.3762 C   0  0  0  0  0  0  0  0  0  0  0  0
  -26.2190  -21.3394   21.4932 C   0  0  0  0  0  0  0  0  0  0  0  0
  -20.1407  -23.6134   23.9841 C   0  0  0  0  0  0  0  0  0  0  0  0
  -30.5602  -12.9410   19.5643 C   0  0  0  0  0  0  0  0  0  0  0  0
  -24.3533  -16.6235   18.3528 C   0  0  0  0  0  0  0  0  0  0  0  0
  -24.6723  -17.5905   21.1291 C   0  0  0  0  0  0  0  0  0  0  0  0
  -29.8482  -13.9257   20.4883 C   0  0  0  0  0  0  0  0  0  0  0  0
  -18.7272  -25.5923   21.2094 C   0  0  0  0  0  0  0  0  0  0  0  0
  -28.4452  -13.4273   20.8203 C   0  0  0  0  0  0  0  0  0  0  0  0
  -19.8825  -26.5425   20.9084 C   0  0  0  0  0  0  0  0  0  0  0  0
  -18.2404  -22.4486   26.5232 C   0  0  0  0  0  0  0  0  0  0  0  0
  -19.9498  -18.3494   23.8538 C   0  0  0  0  0  0  0  0  0  0  0  0
  -18.0475  -18.1543   22.9266 C   0  0  0  0  0  0  0  0  0  0  0  0
  -19.2181  -24.2196   21.6675 C   0  0  0  0  0  0  0  0  0  0  0  0
  -21.3130  -25.2309   22.5236 C   0  0  0  0  0  0  0  0  0  0  0  0
  -17.5534  -21.3958   25.6956 C   0  0  1  0  0  0  0  0  0  0  0  0
  -27.5880  -13.3089   19.5544 C   0  0  1  0  0  0  0  0  0  0  0  0
  -18.5763  -19.0406   24.0907 C   0  0  0  0  0  0  0  0  0  0  0  0
  -25.6971  -16.5687   19.0729 C   0  0  1  0  0  0  0  0  0  0  0  0
  -20.8381  -26.6318   22.1081 C   0  0  1  0  0  0  0  0  0  0  0  0
  -18.9191  -21.9078   25.2996 C   0  0  1  0  0  0  0  0  0  0  0  0
  -19.4979  -18.0752   22.4024 C   0  0  0  0  0  0  0  0  0  1  0  0
  -16.3282  -20.8895   28.3178 C   0  0  0  0  0  0  0  0  0  0  0  0
  -17.1584  -16.0368   27.6290 C   0  0  0  0  0  0  0  0  0  0  0  0
  -27.2613  -23.5620   22.0139 C   0  0  0  0  0  0  0  0  0  0  0  0
  -28.1404  -17.0663   22.9643 C   0  0  0  0  0  0  0  0  0  0  0  0
  -28.3020  -19.4044   23.8449 C   0  0  0  0  0  0  0  0  0  0  0  0
  -29.6094  -18.7404   21.8268 C   0  0  0  0  0  0  0  0  0  0  0  0
  -24.5646  -22.7209   19.4650 C   0  0  0  0  0  0  0  0  0  0  0  0
  -27.1042  -19.0267   21.6418 C   0  0  1  0  0  0  0  0  0  0  0  0
  -26.5676  -22.7163   20.9574 C   0  0  2  0  0  0  0  0  0  0  0  0
  -28.2641  -18.5491   22.5605 C   0  0  0  0  0  0  0  0  0  0  0  0
  -23.1390  -27.0565   21.3279 N   0  0  0  0  0  0  0  0  0  0  0  0
  -17.8166  -17.6440   25.9426 N   0  0  0  0  0  0  0  0  0  0  0  0
  -22.0023  -27.5657   21.8325 N   0  0  0  0  0  0  0  0  0  0  0  0
  -25.7893  -17.5321   20.1717 N   0  0  0  0  0  0  0  0  0  0  0  0
  -20.1806  -24.3309   22.7748 N   0  0  0  0  0  0  0  0  0  0  0  0
  -20.9887  -29.5859   22.5411 N   0  0  0  0  0  0  0  0  0  0  0  0
  -25.1102  -30.8904   21.2343 N   0  0  0  0  0  0  0  0  0  0  0  0
  -27.1224  -14.6135   19.1353 N   0  0  0  0  0  0  0  0  0  0  0  0
  -27.2098  -20.4198   21.2215 N   0  0  0  0  0  0  0  0  0  0  0  0
  -19.0876  -22.7163   24.1217 N   0  0  0  0  0  0  0  0  0  0  0  0
  -25.3342  -23.4294   20.5199 N   0  3  0  0  0  0  0  0  0  0  0  0
  -23.1178  -31.6148   22.1085 O   0  0  0  0  0  0  0  0  0  0  0  0
  -25.2452  -14.7480   20.5067 O   0  0  0  0  0  0  0  0  0  0  0  0
  -27.9528  -18.1818   19.5942 O   0  0  0  0  0  0  0  0  0  0  0  0
  -25.1741  -21.1042   22.0961 O   0  0  0  0  0  0  0  0  0  0  0  0
  -20.9848  -23.7560   24.8757 O   0  0  0  0  0  0  0  0  0  0  0  0
  -29.1182  -27.5962   19.2048 O   0  0  0  0  0  0  0  0  0  0  0  0
  -19.8949  -16.8127   21.8425 O   0  0  0  0  0  0  0  0  0  1  0  0
  -32.1819  -23.4242   21.1053 F   0  0  0  0  0  0  0  0  0  0  0  0
  -31.5121  -28.0711   20.5032 F   0  0  0  0  0  0  0  0  0  0  0  0
  1  2  1  0  0  0  0
  1  5  2  0  0  0  0
  2  6  2  0  0  0  0
  3  8  2  0  0  0  0
  3 16  1  0  0  0  0
  4  9  1  0  0  0  0
  4 16  2  0  0  0  0
  5 18  1  0  0  0  0
  6 20  1  0  0  0  0
  7 10  2  0  0  0  0
  7 19  1  0  0  0  0
  8 24  1  0  0  0  0
  9 24  2  0  0  0  0
 10 25  1  0  0  0  0
 11 12  2  0  0  0  0
 11 26  1  0  0  0  0
 12 27  1  0  0  0  0
 13 21  1  0  0  0  0
 13 25  2  0  0  0  0
 14 23  2  0  0  0  0
 14 31  1  0  0  0  0
 15 27  2  0  0  0  0
 15 28  1  0  0  0  0
 16 29  1  0  0  0  0
 17 29  1  0  0  0  0
 17 32  2  0  0  0  0
 17 33  1  0  0  0  0
 18 20  2  0  0  0  0
 18 38  1  0  0  0  0
 19 21  2  0  0  0  0
 19 39  1  0  0  0  0
 20 51  1  0  0  0  0
 21 40  1  0  0  0  0
 22 23  1  0  0  0  0
 22 30  2  0  0  0  0
 22 50  1  0  0  0  0
 23 57  1  0  0  0  0
 24 83  1  0  0  0  0
 25 84  1  0  0  0  0
 26 28  2  0  0  0  0
 26 83  1  0  0  0  0
 27 85  1  0  0  0  0
 28 86  1  0  0  0  0
 29 67  2  0  0  0  0
 30 52  1  0  0  0  0
 30 68  1  0  0  0  0
 31 58  1  0  0  0  0
 31 68  2  0  0  0  0
 32 69  1  0  0  0  0
 32 72  1  0  0  0  0
 33 73  1  0  0  0  0
 33 78  2  0  0  0  0
 34 53  1  0  0  0  0
 34 74  1  0  0  0  0
 34 79  2  0  0  0  0
 35 64  1  0  0  0  0
 35 70  1  0  0  0  0
 35 80  2  0  0  0  0
 36 65  1  0  0  0  0
 36 75  1  0  0  0  0
 36 81  2  0  0  0  0
 37 71  1  0  0  0  0
 37 76  1  0  0  0  0
 37 82  2  0  0  0  0
 38 41  1  0  0  0  0
 39 53  1  0  0  0  0
 40 70  1  0  0  0  0
 41 43  1  0  0  0  0
 42 44  1  0  0  0  0
 42 48  1  0  0  0  0
 43 51  1  0  0  0  0
 44 54  1  0  0  0  0
 45 50  1  0  0  0  0
 45 55  1  0  0  0  0
 46 52  1  0  0  0  0
 46 56  1  0  0  0  0
 47 52  1  0  0  0  0
 47 56  1  0  0  0  0
 48 71  1  0  0  0  0
 49 54  1  0  0  0  0
 49 71  1  0  0  0  0
 50 55  1  0  0  0  0
 51 74  1  0  0  0  0
 53 70  1  0  0  0  0
 54 69  1  0  0  0  0
 55 76  1  0  0  0  0
 56 84  1  0  0  0  0
 59 65  1  0  0  0  0
 60 66  1  0  0  0  0
 61 66  1  0  0  0  0
 62 66  1  0  0  0  0
 63 77  1  0  0  0  0
 64 66  1  0  0  0  0
 64 75  1  0  0  0  0
 65 77  1  0  0  0  0
 67 69  1  0  0  0  0
M  CHG  1  77   1
M  ISO  4  37 100  56 101  76 100  84 101
M  END
> <Batch ID>
0169

> <Smiles>
CNC(C)C(=O)NC(C(=O)N1Cc2cc([101O:1][101CH:1]3CC(c4nc(C)cc(C)c4C4CC4[100NH:0][100C:0](=O)N4CCCC(n5nc(-c6ccc(Oc7ccc(F)cc7F)cc6)c(C(N)=O)c5N)C4)C3)ccc2CC1C(=O)NC1CCCc2ccccc21)C(C)(C)C

> <Shape>
0.208

> <Color>
0.063

> <Negative vol penalty>
0.000

$$$$

  -OEChem-04052322323D

 92104  0     1  0  0  0  0  0999 V2000
  -22.6560  -11.2294   18.6896 C   0  0  0  0  0  0  0  0  0  0  0  0
  -22.0926  -12.4455   19.0625 C   0  0  0  0  0  0  0  0  0  0  0  0
  -29.7133  -27.0529   17.0479 C   0  0  0  0  0  0  0  0  0  0  0  0
  -28.0343  -28.6461   17.7404 C   0  0  0  0  0  0  0  0  0  0  0  0
  -23.9445  -10.9015   19.1094 C   0  0  0  0  0  0  0  0  0  0  0  0
  -22.8169  -13.3340   19.8564 C   0  0  0  0  0  0  0  0  0  0  0  0
  -22.6831  -19.4513   19.5987 C   0  0  0  0  0  0  0  0  0  0  0  0
  -29.5360  -27.4428   15.7205 C   0  0  0  0  0  0  0  0  0  0  0  0
  -27.8569  -29.0361   16.4129 C   0  0  0  0  0  0  0  0  0  0  0  0
  -22.0053  -20.4073   20.3539 C   0  0  0  0  0  0  0  0  0  0  0  0
  -26.2645  -27.8735   13.6663 C   0  0  0  0  0  0  0  0  0  0  0  0
  -24.9571  -28.0195   13.2030 C   0  0  0  0  0  0  0  0  0  0  0  0
  -18.6380  -28.2639   22.6052 C   0  0  0  0  0  0  0  0  0  0  0  0
  -21.0066  -26.8263   22.2801 C   0  0  0  0  0  0  0  0  0  0  0  0
  -23.9597  -20.6898   21.7395 C   0  0  0  0  0  0  0  0  0  0  0  0
  -25.3936  -30.3426   12.7031 C   0  0  0  0  0  0  0  0  0  0  0  0
  -28.9625  -27.6545   18.0579 C   0  0  0  0  0  0  0  0  0  0  0  0
  -30.3302  -27.3218   20.1854 C   0  0  0  0  0  0  0  0  0  0  0  0
  -24.6887  -11.7906   19.9008 C   0  0  0  0  0  0  0  0  0  0  0  0
  -24.0029  -19.0988   19.9155 C   0  0  0  0  0  0  0  0  0  0  0  0
  -24.1161  -13.0171   20.2883 C   0  0  0  0  0  0  0  0  0  0  0  0
  -18.5996  -26.9576   22.1175 C   0  0  0  0  0  0  0  0  0  0  0  0
  -19.8606  -28.8514   22.9303 C   0  0  0  0  0  0  0  0  0  0  0  0
  -19.7839  -26.2388   21.9550 C   0  0  0  0  0  0  0  0  0  0  0  0
  -21.0449  -28.1326   22.7677 C   0  0  0  0  0  0  0  0  0  0  0  0
  -24.6529  -19.7309   20.9852 C   0  0  0  0  0  0  0  0  0  0  0  0
  -28.6078  -28.4344   15.4030 C   0  0  0  0  0  0  0  0  0  0  0  0
  -22.6426  -21.0246   21.4263 C   0  0  0  0  0  0  0  0  0  0  0  0
  -27.1366  -28.9621   13.6482 C   0  0  0  0  0  0  0  0  0  0  0  0
  -24.5216  -29.2540   12.7213 C   0  0  0  0  0  0  0  0  0  0  0  0
  -26.7011  -30.1966   13.1665 C   0  0  0  0  0  0  0  0  0  0  0  0
  -29.1448  -27.2517   19.4292 C   0  0  0  0  0  0  0  0  0  0  0  0
  -29.9821  -26.8225   21.4166 C   0  0  0  0  0  0  0  0  0  0  0  0
  -31.6297  -27.7961   19.8086 C   0  0  0  0  0  0  0  0  0  0  0  0
  -25.4528  -16.4199   20.8237 C   0  0  0  0  0  0  0  0  0  0  0  0
  -28.1319  -18.2191   20.4951 C   0  0  0  0  0  0  0  0  0  0  0  0
  -29.2476  -21.1138   19.9600 C   0  0  0  0  0  0  0  0  0  0  0  0
  -24.6162  -26.4329   24.2009 C   0  0  0  0  0  0  0  0  0  0  0  0
  -26.0596  -11.3718   20.3697 C   0  0  0  0  0  0  0  0  0  0  0  0
  -24.7293  -18.0851   19.0746 C   0  0  0  0  0  0  0  0  0  0  0  0
  -26.0759  -19.4027   21.3539 C   0  0  0  0  0  0  0  0  0  0  0  0
  -26.9029  -12.5297   20.8975 C   0  0  0  0  0  0  0  0  0  0  0  0
  -26.9681  -23.8021   23.5320 C   0  0  0  0  0  0  0  0  0  0  0  0
  -16.7899  -26.4157   20.3553 C   0  0  0  0  0  0  0  0  0  0  0  0
  -16.1317  -27.2504   21.4090 C   0  0  0  0  0  0  0  0  0  0  0  0
  -20.5477  -30.5290   24.7708 C   0  0  0  0  0  0  0  0  0  0  0  0
  -19.0562  -30.5922   24.6626 C   0  0  0  0  0  0  0  0  0  0  0  0
  -20.5487  -24.6344   20.1036 C   0  0  0  0  0  0  0  0  0  0  0  0
  -26.0833  -13.3973   21.8475 C   0  0  0  0  0  0  0  0  0  0  0  0
  -27.8654  -24.3683   22.4362 C   0  0  0  0  0  0  0  0  0  0  0  0
  -21.5932  -23.5544   20.3757 C   0  0  0  0  0  0  0  0  0  0  0  0
  -25.5372  -24.2981   23.3734 C   0  0  0  0  0  0  0  0  0  0  0  0
  -23.1011  -28.4606   24.5016 C   0  0  0  0  0  0  0  0  0  0  0  0
  -23.7399  -28.2022   22.4888 C   0  0  0  0  0  0  0  0  0  0  0  0
  -26.3284  -26.3936   22.3073 C   0  0  0  0  0  0  0  0  0  0  0  0
  -17.2796  -26.3487   21.7773 C   0  0  0  0  0  0  0  0  0  0  0  0
  -19.8808  -30.2502   23.4500 C   0  0  0  0  0  0  0  0  0  0  0  0
  -19.7690  -24.8210   21.4274 C   0  0  1  0  0  0  0  0  0  0  0  0
  -22.4569  -28.7846   23.1328 C   0  0  0  0  0  0  0  0  0  0  0  0
  -24.8797  -14.0179   21.1282 C   0  0  1  0  0  0  0  0  0  0  0  0
  -25.8979  -17.4303   19.8046 C   0  0  1  0  0  0  0  0  0  0  0  0
  -27.7855  -25.9015   22.4150 C   0  0  2  0  0  0  0  0  0  0  0  0
  -20.4051  -23.8169   22.4033 C   0  0  2  0  0  0  0  0  0  0  0  0
  -20.9910  -22.7340   21.5087 C   0  0  2  0  0  0  0  0  0  1  0  0
  -30.5181  -23.2411   19.5627 C   0  0  0  0  0  0  0  0  0  0  0  0
  -28.8648  -17.4241   23.3483 C   0  0  0  0  0  0  0  0  0  0  0  0
  -30.5209  -19.3017   23.3717 C   0  0  0  0  0  0  0  0  0  0  0  0
  -30.7818  -17.4311   21.7421 C   0  0  0  0  0  0  0  0  0  0  0  0
  -29.6086  -20.4982   17.0877 C   0  0  0  0  0  0  0  0  0  0  0  0
  -28.9321  -19.1210   21.4035 C   0  0  1  0  0  0  0  0  0  0  0  0
  -30.2880  -21.8103   19.1016 C   0  0  2  0  0  0  0  0  0  0  0  0
  -29.7474  -18.3245   22.4609 C   0  0  0  0  0  0  0  0  0  0  0  0
  -28.1203  -26.7474   20.1221 N   0  0  0  0  0  0  0  0  0  0  0  0
  -28.6609  -26.4960   21.3265 N   0  0  0  0  0  0  0  0  0  0  0  0
  -26.7416  -18.4005   20.5054 N   0  0  0  0  0  0  0  0  0  0  0  0
  -25.4647  -25.7610   23.3139 N   0  0  0  0  0  0  0  0  0  0  0  0
  -24.0352  -27.6075   23.7801 N   0  0  0  0  0  0  0  0  0  0  0  0
  -30.6803  -26.6352   22.5567 N   0  0  0  0  0  0  0  0  0  0  0  0
  -31.8138  -28.2753   18.5044 N   0  0  0  0  0  0  0  0  0  0  0  0
  -25.2989  -15.1426   20.3196 N   0  0  0  0  0  0  0  0  0  0  0  0
  -29.7450  -19.9616   20.5312 N   0  0  0  0  0  0  0  0  0  0  0  0
  -19.3829  -23.2432   23.3085 N   0  3  0  0  0  0  0  0  0  0  0  0
  -29.8490  -21.8403   17.6777 N   0  3  0  0  0  0  0  0  0  0  0  0
  -32.6031  -27.7795   20.5997 O   0  0  0  0  0  0  0  0  0  0  0  0
  -25.2645  -16.7727   21.9821 O   0  0  0  0  0  0  0  0  0  0  0  0
  -28.7193  -17.3893   19.7966 O   0  0  0  0  0  0  0  0  0  0  0  0
  -28.1088  -21.5503   20.1118 O   0  0  0  0  0  0  0  0  0  0  0  0
  -24.3585  -25.9830   25.3253 O   0  0  0  0  0  0  0  0  0  0  0  0
  -28.4346  -28.8153   14.1078 O   0  0  0  0  0  0  0  0  0  0  0  0
  -21.9768  -21.9665   22.1724 O   0  0  0  0  0  0  0  0  0  1  0  0
  -23.2664  -29.3937   12.2749 F   0  0  0  0  0  0  0  0  0  0  0  0
  -27.5347  -31.2457   13.1454 F   0  0  0  0  0  0  0  0  0  0  0  0
  1  2  1  0  0  0  0
  1  5  2  0  0  0  0
  2  6  2  0  0  0  0
  3  8  2  0  0  0  0
  3 17  1  0  0  0  0
  4  9  1  0  0  0  0
  4 17  2  0  0  0  0
  5 19  1  0  0  0  0
  6 21  1  0  0  0  0
  7 10  2  0  0  0  0
  7 20  1  0  0  0  0
  8 27  1  0  0  0  0
  9 27  2  0  0  0  0
 10 28  1  0  0  0  0
 11 12  2  0  0  0  0
 11 29  1  0  0  0  0
 12 30  1  0  0  0  0
 13 22  1  0  0  0  0
 13 23  2  0  0  0  0
 14 24  1  0  0  0  0
 14 25  2  0  0  0  0
 15 26  1  0  0  0  0
 15 28  2  0  0  0  0
 16 30  2  0  0  0  0
 16 31  1  0  0  0  0
 17 32  1  0  0  0  0
 18 32  1  0  0  0  0
 18 33  2  0  0  0  0
 18 34  1  0  0  0  0
 19 21  2  0  0  0  0
 19 39  1  0  0  0  0
 20 26  2  0  0  0  0
 20 40  1  0  0  0  0
 21 60  1  0  0  0  0
 22 24  2  0  0  0  0
 22 56  1  0  0  0  0
 23 25  1  0  0  0  0
 23 57  1  0  0  0  0
 24 58  1  0  0  0  0
 25 59  1  0  0  0  0
 26 41  1  0  0  0  0
 27 89  1  0  0  0  0
 28 90  1  0  0  0  0
 29 31  2  0  0  0  0
 29 89  1  0  0  0  0
 30 91  1  0  0  0  0
 31 92  1  0  0  0  0
 32 73  2  0  0  0  0
 33 74  1  0  0  0  0
 33 78  1  0  0  0  0
 34 79  1  0  0  0  0
 34 84  2  0  0  0  0
 35 61  1  0  0  0  0
 35 80  1  0  0  0  0
 35 85  2  0  0  0  0
 36 70  1  0  0  0  0
 36 75  1  0  0  0  0
 36 86  2  0  0  0  0
 37 71  1  0  0  0  0
 37 81  1  0  0  0  0
 37 87  2  0  0  0  0
 38 76  1  0  0  0  0
 38 77  1  0  0  0  0
 38 88  2  0  0  0  0
 39 42  1  0  0  0  0
 40 61  1  0  0  0  0
 41 75  1  0  0  0  0
 42 49  1  0  0  0  0
 43 50  1  0  0  0  0
 43 52  1  0  0  0  0
 44 45  1  0  0  0  0
 44 56  1  0  0  0  0
 45 56  1  0  0  0  0
 46 47  1  0  0  0  0
 46 57  1  0  0  0  0
 47 57  1  0  0  0  0
 48 51  1  0  0  0  0
 48 58  1  0  0  0  0
 49 60  1  0  0  0  0
 50 62  1  0  0  0  0
 51 64  1  0  0  0  0
 52 76  1  0  0  0  0
 53 59  1  0  0  0  0
 53 77  1  0  0  0  0
 54 59  1  0  0  0  0
 54 77  1  0  0  0  0
 55 62  1  0  0  0  0
 55 76  1  0  0  0  0
 58 63  1  0  0  0  0
 60 80  1  0  0  0  0
 61 75  1  0  0  0  0
 62 74  1  0  0  0  0
 63 64  1  0  0  0  0
 63 82  1  0  0  0  0
 64 90  1  0  0  0  0
 65 71  1  0  0  0  0
 66 72  1  0  0  0  0
 67 72  1  0  0  0  0
 68 72  1  0  0  0  0
 69 83  1  0  0  0  0
 70 72  1  0  0  0  0
 70 81  1  0  0  0  0
 71 83  1  0  0  0  0
 73 74  1  0  0  0  0
M  CHG  2  82   1  83   1
M  ISO  4  38 100  64 101  77 100  90 101
M  END
> <Batch ID>
0169

> <Smiles>
CNC(C)C(=O)NC(C(=O)N1Cc2cc([101O:1][101CH:1]3CCC(c4cc(C5C[100N:0]([100C:0](=O)N6CCCC(n7nc(-c8ccc(Oc9ccc(F)cc9F)cc8)c(C(N)=O)c7N)C6)C5)c(C5CC5)cc4C4CC4)C3N)ccc2CC1C(=O)NC1CCCc2ccccc21)C(C)(C)C

> <Shape>
0.205

> <Color>
0.071

> <Negative vol penalty>
0.000

$$$$

  -OEChem-04052322323D

 89 98  0     1  0  0  0  0  0999 V2000
  -29.2202  -36.9871   20.4691 C   0  0  0  0  0  0  0  0  0  0  0  0
  -29.4686  -35.6419   20.2157 C   0  0  0  0  0  0  0  0  0  0  0  0
  -25.9974   -7.2323   21.5166 C   0  0  0  0  0  0  0  0  0  0  0  0
  -25.3207   -6.9180   19.2187 C   0  0  0  0  0  0  0  0  0  0  0  0
  -28.3167  -37.3522   21.4663 C   0  0  0  0  0  0  0  0  0  0  0  0
  -28.8144  -34.6610   20.9602 C   0  0  0  0  0  0  0  0  0  0  0  0
  -26.9468  -29.1735   18.9841 C   0  0  0  0  0  0  0  0  0  0  0  0
  -25.0968   -6.2451   21.9168 C   0  0  0  0  0  0  0  0  0  0  0  0
  -24.4202   -5.9308   19.6189 C   0  0  0  0  0  0  0  0  0  0  0  0
  -27.5059  -27.9002   19.0844 C   0  0  0  0  0  0  0  0  0  0  0  0
  -21.7717   -5.9809   22.4625 C   0  0  0  0  0  0  0  0  0  0  0  0
  -20.9770   -6.2435   23.5784 C   0  0  0  0  0  0  0  0  0  0  0  0
  -26.1442  -27.4620   21.0269 C   0  0  0  0  0  0  0  0  0  0  0  0
  -21.9206   -4.3241   24.7020 C   0  0  0  0  0  0  0  0  0  0  0  0
  -26.1093   -7.5688   20.1676 C   0  0  0  0  0  0  0  0  0  0  0  0
  -28.3850   -8.4118   19.3813 C   0  0  0  0  0  0  0  0  0  0  0  0
  -27.6439  -36.3751   22.2169 C   0  0  0  0  0  0  0  0  0  0  0  0
  -25.9886  -29.6053   19.9124 C   0  0  0  0  0  0  0  0  0  0  0  0
  -27.9021  -35.0133   21.9693 C   0  0  0  0  0  0  0  0  0  0  0  0
  -25.5726  -28.7403   20.9346 C   0  0  0  0  0  0  0  0  0  0  0  0
  -28.9322  -23.4044   22.1792 C   0  0  0  0  0  0  0  0  0  0  0  0
  -27.9266  -23.6770   21.2585 C   0  0  0  0  0  0  0  0  0  0  0  0
  -29.5956  -22.1833   22.1346 C   0  0  0  0  0  0  0  0  0  0  0  0
  -24.3083   -5.5944   20.9679 C   0  0  0  0  0  0  0  0  0  0  0  0
  -27.1068  -27.0454   20.1077 C   0  0  0  0  0  0  0  0  0  0  0  0
  -22.6407   -4.8898   22.4664 C   0  0  0  0  0  0  0  0  0  0  0  0
  -21.0515   -5.4151   24.6982 C   0  0  0  0  0  0  0  0  0  0  0  0
  -22.7152   -4.0615   23.5861 C   0  0  0  0  0  0  0  0  0  0  0  0
  -27.0389   -8.5888   19.7536 C   0  0  0  0  0  0  0  0  0  0  0  0
  -27.6246  -22.7029   20.3206 C   0  0  0  0  0  0  0  0  0  0  0  0
  -29.2188  -21.2759   21.1577 C   0  0  0  0  0  0  0  0  0  0  0  0
  -28.8264   -9.6764   19.0775 C   0  0  0  0  0  0  0  0  0  0  0  0
  -29.1664   -7.2115   19.3158 C   0  0  0  0  0  0  0  0  0  0  0  0
  -25.8355  -31.9514   22.0515 C   0  0  0  0  0  0  0  0  0  0  0  0
  -22.7836  -30.9090   22.3996 C   0  0  0  0  0  0  0  0  0  0  0  0
  -20.5415  -28.3546   22.0909 C   0  0  0  0  0  0  0  0  0  0  0  0
  -29.2894  -14.9363   20.0394 C   0  0  0  0  0  0  0  0  0  0  0  0
  -26.7117  -36.8187   23.3164 C   0  0  0  0  0  0  0  0  0  0  0  0
  -25.3755  -30.9719   19.7745 C   0  0  0  0  0  0  0  0  0  0  0  0
  -24.5325  -29.1484   21.9445 C   0  0  0  0  0  0  0  0  0  0  0  0
  -25.7789  -35.7142   23.8066 C   0  0  0  0  0  0  0  0  0  0  0  0
  -26.2915  -14.0033   18.4674 C   0  0  0  0  0  0  0  0  0  0  0  0
  -26.5568  -34.4229   24.0399 C   0  0  0  0  0  0  0  0  0  0  0  0
  -26.3230  -12.4840   18.6315 C   0  0  0  0  0  0  0  0  0  0  0  0
  -28.3087  -18.2758   20.5628 C   0  0  0  0  0  0  0  0  0  0  0  0
  -30.7627  -18.0722   20.0113 C   0  0  0  0  0  0  0  0  0  0  0  0
  -26.7837  -14.7257   19.7228 C   0  0  0  0  0  0  0  0  0  0  0  0
  -28.0195  -17.0927   19.6343 C   0  0  0  0  0  0  0  0  0  0  0  0
  -30.4228  -16.9156   19.0754 C   0  0  0  0  0  0  0  0  0  0  0  0
  -28.1477  -12.7605   20.3522 C   0  0  0  0  0  0  0  0  0  0  0  0
  -27.1936  -33.9197   22.7388 C   0  0  1  0  0  0  0  0  0  0  0  0
  -24.7842  -31.4959   21.0795 C   0  0  1  0  0  0  0  0  0  0  0  0
  -27.7137  -12.0062   19.0858 C   0  0  1  0  0  0  0  0  0  0  0  0
  -29.5731  -19.0271   20.1392 C   0  0  0  0  0  0  0  0  0  0  0  0
  -29.2985  -24.4220   23.2122 C   0  0  0  0  0  0  0  0  0  0  0  0
  -30.6780  -21.8699   23.1144 C   0  0  0  0  0  0  0  0  0  0  0  0
  -25.3908  -21.9380   19.4382 C   0  0  0  0  0  0  0  0  0  0  0  0
  -27.0970  -22.9233   17.8656 C   0  0  0  0  0  0  0  0  0  0  0  0
  -18.1288  -27.7921   22.4907 C   0  0  0  0  0  0  0  0  0  0  0  0
  -23.3349  -30.6818   25.3920 C   0  0  0  0  0  0  0  0  0  0  0  0
  -21.2865  -29.2560   25.5904 C   0  0  0  0  0  0  0  0  0  0  0  0
  -21.0893  -31.6181   24.8131 C   0  0  0  0  0  0  0  0  0  0  0  0
  -20.0750  -27.8002   19.2214 C   0  0  0  0  0  0  0  0  0  0  0  0
  -27.1970  -24.9783   21.2803 C   0  0  0  0  0  0  0  0  0  1  0  0
  -26.5538  -22.9381   19.3060 C   0  0  0  0  0  0  0  0  0  0  0  0
  -22.0961  -29.8858   23.2711 C   0  0  1  0  0  0  0  0  0  0  0  0
  -19.1500  -28.3032   21.4864 C   0  0  2  0  0  0  0  0  0  0  0  0
  -21.9728  -30.3531   24.7489 C   0  0  0  0  0  0  0  0  0  0  0  0
  -26.6508   -9.8654   19.6928 N   0  0  0  0  0  0  0  0  0  0  0  0
  -28.2470  -21.5051   20.2462 N   0  0  0  0  0  0  0  0  0  0  0  0
  -27.7596  -10.5020   19.2788 N   0  0  0  0  0  0  0  0  0  0  0  0
  -23.9673  -30.4967   21.7713 N   0  0  0  0  0  0  0  0  0  0  0  0
  -28.0943  -14.2086   20.1406 N   0  0  0  0  0  0  0  0  0  0  0  0
  -29.2032  -16.2307   19.5054 N   0  0  0  0  0  0  0  0  0  0  0  0
  -30.0191  -10.1517   18.6605 N   0  0  0  0  0  0  0  0  0  0  0  0
  -28.5570   -5.9978   19.6620 N   0  0  0  0  0  0  0  0  0  0  0  0
  -29.8727  -20.0576   21.1089 N   0  0  0  0  0  0  0  0  0  0  0  0
  -26.2003  -33.2763   21.9058 N   0  0  0  0  0  0  0  0  0  0  0  0
  -20.8195  -29.5936   22.6283 N   0  0  0  0  0  0  0  0  0  0  0  0
  -19.1338  -27.4020   20.2996 N   0  3  0  0  0  0  0  0  0  0  0  0
  -30.3741   -7.2173   18.9766 O   0  0  0  0  0  0  0  0  0  0  0  0
  -26.2817  -31.1599   22.8738 O   0  0  0  0  0  0  0  0  0  0  0  0
  -22.2847  -32.0302   22.2749 O   0  0  0  0  0  0  0  0  0  0  0  0
  -21.3041  -27.3907   22.0901 O   0  0  0  0  0  0  0  0  0  0  0  0
  -30.3704  -14.4578   20.4049 O   0  0  0  0  0  0  0  0  0  0  0  0
  -23.4296   -4.6309   21.3581 O   0  0  0  0  0  0  0  0  0  0  0  0
  -27.6551  -25.7937   20.2090 O   0  0  0  0  0  0  0  0  0  1  0  0
  -20.2895   -5.6683   25.7702 F   0  0  0  0  0  0  0  0  0  0  0  0
  -23.5491   -3.0125   23.5962 F   0  0  0  0  0  0  0  0  0  0  0  0
  1  2  1  0  0  0  0
  1  5  2  0  0  0  0
  2  6  2  0  0  0  0
  3  8  2  0  0  0  0
  3 15  1  0  0  0  0
  4  9  1  0  0  0  0
  4 15  2  0  0  0  0
  5 17  1  0  0  0  0
  6 19  1  0  0  0  0
  7 10  2  0  0  0  0
  7 18  1  0  0  0  0
  8 24  1  0  0  0  0
  9 24  2  0  0  0  0
 10 25  1  0  0  0  0
 11 12  2  0  0  0  0
 11 26  1  0  0  0  0
 12 27  1  0  0  0  0
 13 20  1  0  0  0  0
 13 25  2  0  0  0  0
 14 27  2  0  0  0  0
 14 28  1  0  0  0  0
 15 29  1  0  0  0  0
 16 29  1  0  0  0  0
 16 32  2  0  0  0  0
 16 33  1  0  0  0  0
 17 19  2  0  0  0  0
 17 38  1  0  0  0  0
 18 20  2  0  0  0  0
 18 39  1  0  0  0  0
 19 51  1  0  0  0  0
 20 40  1  0  0  0  0
 21 22  2  0  0  0  0
 21 23  1  0  0  0  0
 21 55  1  0  0  0  0
 22 30  1  0  0  0  0
 22 64  1  0  0  0  0
 23 31  2  0  0  0  0
 23 56  1  0  0  0  0
 24 86  1  0  0  0  0
 25 87  1  0  0  0  0
 26 28  2  0  0  0  0
 26 86  1  0  0  0  0
 27 88  1  0  0  0  0
 28 89  1  0  0  0  0
 29 69  2  0  0  0  0
 30 65  1  0  0  0  0
 30 70  2  0  0  0  0
 31 70  1  0  0  0  0
 31 77  1  0  0  0  0
 32 71  1  0  0  0  0
 32 75  1  0  0  0  0
 33 76  1  0  0  0  0
 33 81  2  0  0  0  0
 34 52  1  0  0  0  0
 34 78  1  0  0  0  0
 34 82  2  0  0  0  0
 35 66  1  0  0  0  0
 35 72  1  0  0  0  0
 35 83  2  0  0  0  0
 36 67  1  0  0  0  0
 36 79  1  0  0  0  0
 36 84  2  0  0  0  0
 37 73  1  0  0  0  0
 37 74  1  0  0  0  0
 37 85  2  0  0  0  0
 38 41  1  0  0  0  0
 39 52  1  0  0  0  0
 40 72  1  0  0  0  0
 41 43  1  0  0  0  0
 42 44  1  0  0  0  0
 42 47  1  0  0  0  0
 43 51  1  0  0  0  0
 44 53  1  0  0  0  0
 45 48  1  0  0  0  0
 45 54  1  0  0  0  0
 46 49  1  0  0  0  0
 46 54  1  0  0  0  0
 47 73  1  0  0  0  0
 48 74  1  0  0  0  0
 49 74  1  0  0  0  0
 50 53  1  0  0  0  0
 50 73  1  0  0  0  0
 51 78  1  0  0  0  0
 52 72  1  0  0  0  0
 53 71  1  0  0  0  0
 54 77  1  0  0  0  0
 57 65  1  0  0  0  0
 58 65  1  0  0  0  0
 59 67  1  0  0  0  0
 60 68  1  0  0  0  0
 61 68  1  0  0  0  0
 62 68  1  0  0  0  0
 63 80  1  0  0  0  0
 64 87  1  0  0  0  0
 66 68  1  0  0  0  0
 66 79  1  0  0  0  0
 67 80  1  0  0  0  0
 69 71  1  0  0  0  0
M  CHG  1  80   1
M  ISO  4  37 100  64 101  74 100  87 101
M  END
> <Batch ID>
0169

> <Smiles>
CNC(C)C(=O)NC(C(=O)N1Cc2cc([101O:1][101CH2:1]c3c(C(C)C)nc(NC4CC[100N:0]([100C:0](=O)N5CCCC(n6nc(-c7ccc(Oc8ccc(F)cc8F)cc7)c(C(N)=O)c6N)C5)CC4)c(C)c3C)ccc2CC1C(=O)NC1CCCc2ccccc21)C(C)(C)C

> <Shape>
0.273

> <Color>
0.070

> <Negative vol penalty>
0.000

$$$$

  -OEChem-04052322323D

 91101  0     1  0  0  0  0  0999 V2000
  -29.3349  -22.3590   16.6992 C   0  0  0  0  0  0  0  0  0  0  0  0
  -28.1200  -22.7206   17.2727 C   0  0  0  0  0  0  0  0  0  0  0  0
  -28.1808  -14.1192   19.1357 C   0  0  0  0  0  0  0  0  0  0  0  0
  -28.5441  -13.5651   21.4591 C   0  0  0  0  0  0  0  0  0  0  0  0
  -30.5190  -22.5210   17.4172 C   0  0  0  0  0  0  0  0  0  0  0  0
  -28.0886  -23.2435   18.5650 C   0  0  0  0  0  0  0  0  0  0  0  0
  -25.0664  -27.2885   18.9509 C   0  0  0  0  0  0  0  0  0  0  0  0
  -29.4860  -14.6031   19.0471 C   0  0  0  0  0  0  0  0  0  0  0  0
  -29.8493  -14.0490   21.3704 C   0  0  0  0  0  0  0  0  0  0  0  0
  -23.6939  -27.0536   19.0204 C   0  0  0  0  0  0  0  0  0  0  0  0
  -32.6078  -16.3149   18.3067 C   0  0  0  0  0  0  0  0  0  0  0  0
  -32.8066  -17.5336   17.6580 C   0  0  0  0  0  0  0  0  0  0  0  0
  -19.7577  -21.4498   18.7147 C   0  0  0  0  0  0  0  0  0  0  0  0
  -23.7713  -27.3443   21.4138 C   0  0  0  0  0  0  0  0  0  0  0  0
  -19.1330  -22.5556   16.2308 C   0  0  0  0  0  0  0  0  0  0  0  0
  -31.3694  -18.6235   19.2654 C   0  0  0  0  0  0  0  0  0  0  0  0
  -27.7098  -13.6002   20.3418 C   0  0  0  0  0  0  0  0  0  0  0  0
  -25.9235  -11.7854   20.1892 C   0  0  0  0  0  0  0  0  0  0  0  0
  -30.5030  -23.0552   18.7153 C   0  0  0  0  0  0  0  0  0  0  0  0
  -25.8048  -27.5428   20.1156 C   0  0  0  0  0  0  0  0  0  0  0  0
  -29.2735  -23.4116   19.3015 C   0  0  0  0  0  0  0  0  0  0  0  0
  -19.9390  -20.7005   17.5522 C   0  0  0  0  0  0  0  0  0  0  0  0
  -25.1526  -27.5847   21.3562 C   0  0  0  0  0  0  0  0  0  0  0  0
  -19.2641  -22.7520   18.6352 C   0  0  0  0  0  0  0  0  0  0  0  0
  -19.6266  -21.2534   16.3103 C   0  0  0  0  0  0  0  0  0  0  0  0
  -18.9517  -23.3048   17.3933 C   0  0  0  0  0  0  0  0  0  0  0  0
  -30.3203  -14.5680   20.1644 C   0  0  0  0  0  0  0  0  0  0  0  0
  -23.0466  -27.0786   20.2522 C   0  0  0  0  0  0  0  0  0  0  0  0
  -31.7898  -16.2504   19.4348 C   0  0  0  0  0  0  0  0  0  0  0  0
  -32.1874  -18.6879   18.1374 C   0  0  0  0  0  0  0  0  0  0  0  0
  -31.1706  -17.4048   19.9141 C   0  0  0  0  0  0  0  0  0  0  0  0
  -26.3615  -13.1007   20.4342 C   0  0  0  0  0  0  0  0  0  0  0  0
  -24.5689  -11.8275   20.4120 C   0  0  0  0  0  0  0  0  0  0  0  0
  -26.6741  -10.6290   19.7956 C   0  0  0  0  0  0  0  0  0  0  0  0
  -28.2102  -26.0961   21.6071 C   0  0  0  0  0  0  0  0  0  0  0  0
  -28.1062  -28.7280   23.5004 C   0  0  0  0  0  0  0  0  0  0  0  0
  -26.2879  -31.3390   24.7347 C   0  0  0  0  0  0  0  0  0  0  0  0
  -20.4812  -16.0314   20.1596 C   0  0  0  0  0  0  0  0  0  0  0  0
  -31.8039  -23.1676   19.4701 C   0  0  0  0  0  0  0  0  0  0  0  0
  -27.2800  -27.8207   20.0208 C   0  0  0  0  0  0  0  0  0  0  0  0
  -25.8963  -27.8732   22.6338 C   0  0  0  0  0  0  0  0  0  0  0  0
  -31.7220  -24.0780   20.6927 C   0  0  0  0  0  0  0  0  0  0  0  0
  -21.2526  -14.1453   22.9516 C   0  0  0  0  0  0  0  0  0  0  0  0
  -30.4741  -23.7620   21.5109 C   0  0  0  0  0  0  0  0  0  0  0  0
  -17.6923  -23.0403   22.0781 C   0  0  0  0  0  0  0  0  0  0  0  0
  -17.5147  -21.8494   21.1781 C   0  0  0  0  0  0  0  0  0  0  0  0
  -22.6080  -13.5270   22.6094 C   0  0  0  0  0  0  0  0  0  0  0  0
  -21.4577  -19.1339   18.8410 C   0  0  0  0  0  0  0  0  0  0  0  0
  -19.3489  -18.2444   17.7587 C   0  0  0  0  0  0  0  0  0  0  0  0
  -21.1841  -15.5975   22.4938 C   0  0  0  0  0  0  0  0  0  0  0  0
  -21.9726  -17.6972   18.9672 C   0  0  0  0  0  0  0  0  0  0  0  0
  -19.9226  -16.8362   17.8860 C   0  0  0  0  0  0  0  0  0  0  0  0
  -22.8095  -15.1711   20.6787 C   0  0  0  0  0  0  0  0  0  0  0  0
  -20.4779  -19.2867   17.6637 C   0  0  0  0  0  0  0  0  0  0  0  0
  -29.2009  -24.0054   20.6916 C   0  0  1  0  0  0  0  0  0  0  0  0
  -28.0222  -27.5605   21.3280 C   0  0  1  0  0  0  0  0  0  0  0  0
  -18.7816  -22.6567   21.1153 C   0  0  0  0  0  0  0  0  0  0  0  0
  -22.9314  -13.6967   21.1144 C   0  0  1  0  0  0  0  0  0  0  0  0
  -19.8130  -20.4704   15.0522 C   0  0  0  0  0  0  0  0  0  0  0  0
  -18.4211  -24.6966   17.2836 C   0  0  0  0  0  0  0  0  0  0  0  0
  -26.4627  -33.2998   26.2910 C   0  0  0  0  0  0  0  0  0  0  0  0
  -27.8953  -26.8454   25.8923 C   0  0  0  0  0  0  0  0  0  0  0  0
  -27.1289  -28.7917   27.2681 C   0  0  0  0  0  0  0  0  0  0  0  0
  -29.4022  -28.8106   26.2411 C   0  0  0  0  0  0  0  0  0  0  0  0
  -25.7336  -33.2648   22.5569 C   0  0  0  0  0  0  0  0  0  0  0  0
  -19.9491  -25.4661   21.2159 C   0  0  0  0  0  0  0  0  0  0  0  0
  -21.2121  -26.2484   21.5176 C   0  0  0  0  0  0  0  0  0  1  0  0
  -19.0775  -23.5347   19.8934 C   0  0  1  0  0  0  0  0  0  0  0  0
  -27.3722  -29.1079   24.7637 C   0  0  1  0  0  0  0  0  0  0  0  0
  -26.6040  -32.8188   24.8552 C   0  0  2  0  0  0  0  0  0  0  0  0
  -27.9357  -28.3815   26.0176 C   0  0  0  0  0  0  0  0  0  0  0  0
  -25.3658  -13.9187   20.7855 N   0  0  0  0  0  0  0  0  0  0  0  0
  -24.2886  -13.1154   20.7628 N   0  0  0  0  0  0  0  0  0  0  0  0
  -27.3384  -28.1322   22.4897 N   0  0  0  0  0  0  0  0  0  0  0  0
  -21.5008  -15.7171   21.0707 N   0  0  0  0  0  0  0  0  0  0  0  0
  -20.8529  -16.7465   19.0111 N   0  0  0  0  0  0  0  0  0  0  0  0
  -23.6020  -10.8882   20.3399 N   0  0  0  0  0  0  0  0  0  0  0  0
  -28.0571  -10.7614   19.6102 N   0  0  0  0  0  0  0  0  0  0  0  0
  -28.9067  -25.4207   20.6231 N   0  0  0  0  0  0  0  0  0  0  0  0
  -27.4230  -30.5637   24.8433 N   0  0  0  0  0  0  0  0  0  0  0  0
  -25.6815  -33.6170   23.9992 N   0  3  0  0  0  0  0  0  0  0  0  0
  -20.2575  -24.3989   20.2369 N   0  3  0  0  0  0  0  0  0  0  0  0
  -26.1320   -9.5152   19.5978 O   0  0  0  0  0  0  0  0  0  0  0  0
  -27.7582  -25.6149   22.6395 O   0  0  0  0  0  0  0  0  0  0  0  0
  -29.3147  -28.9582   23.4107 O   0  0  0  0  0  0  0  0  0  0  0  0
  -25.1475  -30.9131   24.5653 O   0  0  0  0  0  0  0  0  0  0  0  0
  -19.3079  -15.6929   20.3593 O   0  0  0  0  0  0  0  0  0  0  0  0
  -31.5941  -15.0399   20.0781 O   0  0  0  0  0  0  0  0  0  0  0  0
  -21.6975  -26.8473   20.3234 O   0  0  0  0  0  0  0  0  0  1  0  0
  -32.3796  -19.8585   17.5153 F   0  0  0  0  0  0  0  0  0  0  0  0
  -30.3846  -17.3494   20.9980 F   0  0  0  0  0  0  0  0  0  0  0  0
  1  2  1  0  0  0  0
  1  5  2  0  0  0  0
  2  6  2  0  0  0  0
  3  8  2  0  0  0  0
  3 17  1  0  0  0  0
  4  9  1  0  0  0  0
  4 17  2  0  0  0  0
  5 19  1  0  0  0  0
  6 21  1  0  0  0  0
  7 10  2  0  0  0  0
  7 20  1  0  0  0  0
  8 27  1  0  0  0  0
  9 27  2  0  0  0  0
 10 28  1  0  0  0  0
 11 12  2  0  0  0  0
 11 29  1  0  0  0  0
 12 30  1  0  0  0  0
 13 22  2  0  0  0  0
 13 24  1  0  0  0  0
 14 23  1  0  0  0  0
 14 28  2  0  0  0  0
 15 25  2  0  0  0  0
 15 26  1  0  0  0  0
 16 30  2  0  0  0  0
 16 31  1  0  0  0  0
 17 32  1  0  0  0  0
 18 32  1  0  0  0  0
 18 33  2  0  0  0  0
 18 34  1  0  0  0  0
 19 21  2  0  0  0  0
 19 39  1  0  0  0  0
 20 23  2  0  0  0  0
 20 40  1  0  0  0  0
 21 55  1  0  0  0  0
 22 25  1  0  0  0  0
 22 54  1  0  0  0  0
 23 41  1  0  0  0  0
 24 26  2  0  0  0  0
 24 68  1  0  0  0  0
 25 59  1  0  0  0  0
 26 60  1  0  0  0  0
 27 88  1  0  0  0  0
 28 89  1  0  0  0  0
 29 31  2  0  0  0  0
 29 88  1  0  0  0  0
 30 90  1  0  0  0  0
 31 91  1  0  0  0  0
 32 72  2  0  0  0  0
 33 73  1  0  0  0  0
 33 77  1  0  0  0  0
 34 78  1  0  0  0  0
 34 83  2  0  0  0  0
 35 56  1  0  0  0  0
 35 79  1  0  0  0  0
 35 84  2  0  0  0  0
 36 69  1  0  0  0  0
 36 74  1  0  0  0  0
 36 85  2  0  0  0  0
 37 70  1  0  0  0  0
 37 80  1  0  0  0  0
 37 86  2  0  0  0  0
 38 75  1  0  0  0  0
 38 76  1  0  0  0  0
 38 87  2  0  0  0  0
 39 42  1  0  0  0  0
 40 56  1  0  0  0  0
 41 74  1  0  0  0  0
 42 44  1  0  0  0  0
 43 47  1  0  0  0  0
 43 50  1  0  0  0  0
 44 55  1  0  0  0  0
 45 46  1  0  0  0  0
 45 57  1  0  0  0  0
 46 57  1  0  0  0  0
 47 58  1  0  0  0  0
 48 51  1  0  0  0  0
 48 54  1  0  0  0  0
 49 52  1  0  0  0  0
 49 54  1  0  0  0  0
 50 75  1  0  0  0  0
 51 76  1  0  0  0  0
 52 76  1  0  0  0  0
 53 58  1  0  0  0  0
 53 75  1  0  0  0  0
 55 79  1  0  0  0  0
 56 74  1  0  0  0  0
 57 68  1  0  0  0  0
 58 73  1  0  0  0  0
 61 70  1  0  0  0  0
 62 71  1  0  0  0  0
 63 71  1  0  0  0  0
 64 71  1  0  0  0  0
 65 81  1  0  0  0  0
 66 67  1  0  0  0  0
 66 82  1  0  0  0  0
 67 89  1  0  0  0  0
 68 82  1  0  0  0  0
 69 71  1  0  0  0  0
 69 80  1  0  0  0  0
 70 81  1  0  0  0  0
 72 73  1  0  0  0  0
M  CHG  2  81   1  82   1
M  ISO  4  38 100  67 101  76 100  89 101
M  END
> <Batch ID>
0169

> <Smiles>
CNC(C)C(=O)NC(C(=O)N1Cc2cc([101O:1][101CH2:1]CNC(c3cc(C4CC[100N:0]([100C:0](=O)N5CCCC(n6nc(-c7ccc(Oc8ccc(F)cc8F)cc7)c(C(N)=O)c6N)C5)CC4)c(C)cc3C)C3CC3)ccc2CC1C(=O)NC1CCCc2ccccc21)C(C)(C)C

> <Shape>
0.226

> <Color>
0.060

> <Negative vol penalty>
0.000

$$$$

  -OEChem-04052322323D

 83 92  0     1  0  0  0  0  0999 V2000
  -26.6469  -30.9439   27.1757 C   0  0  0  0  0  0  0  0  0  0  0  0
  -26.5764  -29.7265   26.5061 C   0  0  0  0  0  0  0  0  0  0  0  0
  -23.0230  -10.3179   20.5697 C   0  0  0  0  0  0  0  0  0  0  0  0
  -24.2606   -9.0681   22.2260 C   0  0  0  0  0  0  0  0  0  0  0  0
  -25.9099  -32.0346   26.7162 C   0  0  0  0  0  0  0  0  0  0  0  0
  -25.7679  -29.5988   25.3772 C   0  0  0  0  0  0  0  0  0  0  0  0
  -28.0799  -27.1435   21.5995 C   0  0  0  0  0  0  0  0  0  0  0  0
  -22.1178   -9.2634   20.4503 C   0  0  0  0  0  0  0  0  0  0  0  0
  -23.3554   -8.0136   22.1067 C   0  0  0  0  0  0  0  0  0  0  0  0
  -28.1544  -25.7545   21.6943 C   0  0  0  0  0  0  0  0  0  0  0  0
  -19.4694   -8.0477   22.1652 C   0  0  0  0  0  0  0  0  0  0  0  0
  -18.1101   -8.3595   22.1445 C   0  0  0  0  0  0  0  0  0  0  0  0
  -26.2839  -25.5570   20.1840 C   0  0  0  0  0  0  0  0  0  0  0  0
  -17.9140   -7.3592   19.9541 C   0  0  0  0  0  0  0  0  0  0  0  0
  -24.0944  -10.2203   21.4575 C   0  0  0  0  0  0  0  0  0  0  0  0
  -24.9511  -12.4018   22.4648 C   0  0  0  0  0  0  0  0  0  0  0  0
  -25.0995  -31.9229   25.5754 C   0  0  0  0  0  0  0  0  0  0  0  0
  -27.0982  -27.7508   20.8034 C   0  0  0  0  0  0  0  0  0  0  0  0
  -25.0183  -30.6886   24.9028 C   0  0  0  0  0  0  0  0  0  0  0  0
  -26.2006  -26.9538   20.0787 C   0  0  0  0  0  0  0  0  0  0  0  0
  -25.7932  -20.5488   21.3957 C   0  0  0  0  0  0  0  0  0  0  0  0
  -26.5921  -21.3912   20.5838 C   0  0  0  0  0  0  0  0  0  0  0  0
  -22.2840   -8.1113   21.2188 C   0  0  0  0  0  0  0  0  0  0  0  0
  -27.2545  -24.9611   20.9888 C   0  0  0  0  0  0  0  0  0  0  0  0
  -20.0512   -7.3917   21.0803 C   0  0  0  0  0  0  0  0  0  0  0  0
  -17.3323   -8.0152   21.0390 C   0  0  0  0  0  0  0  0  0  0  0  0
  -19.2734   -7.0475   19.9748 C   0  0  0  0  0  0  0  0  0  0  0  0
  -25.0301  -11.3090   21.5809 C   0  0  0  0  0  0  0  0  0  0  0  0
  -26.3471  -19.2884   21.3508 C   0  0  0  0  0  0  0  0  0  0  0  0
  -27.6098  -20.6199   20.0673 C   0  0  0  0  0  0  0  0  0  0  0  0
  -26.0719  -13.1469   22.1908 C   0  0  0  0  0  0  0  0  0  0  0  0
  -23.9537  -12.7154   23.4460 C   0  0  0  0  0  0  0  0  0  0  0  0
  -24.6613  -29.7155   21.3562 C   0  0  0  0  0  0  0  0  0  0  0  0
  -24.4458  -29.7306   18.1196 C   0  0  0  0  0  0  0  0  0  0  0  0
  -25.0881  -28.1466   15.1657 C   0  0  0  0  0  0  0  0  0  0  0  0
  -29.4812  -15.5022   18.4259 C   0  0  0  0  0  0  0  0  0  0  0  0
  -24.2845  -33.1164   25.1442 C   0  0  0  0  0  0  0  0  0  0  0  0
  -27.0480  -29.2499   20.6907 C   0  0  0  0  0  0  0  0  0  0  0  0
  -25.1409  -27.5563   19.1941 C   0  0  0  0  0  0  0  0  0  0  0  0
  -23.7427  -33.0022   23.7217 C   0  0  0  0  0  0  0  0  0  0  0  0
  -30.1455  -12.0855   19.3863 C   0  0  0  0  0  0  0  0  0  0  0  0
  -23.1252  -31.6260   23.4945 C   0  0  0  0  0  0  0  0  0  0  0  0
  -28.8578  -11.6583   20.0934 C   0  0  0  0  0  0  0  0  0  0  0  0
  -29.8733  -13.0692   18.2492 C   0  0  0  0  0  0  0  0  0  0  0  0
  -27.7927  -13.8141   19.3318 C   0  0  0  0  0  0  0  0  0  0  0  0
  -28.9637  -17.9785   18.7688 C   0  0  0  0  0  0  0  0  0  0  0  0
  -27.7670  -16.7210   19.9844 C   0  0  0  0  0  0  0  0  0  0  0  0
  -24.1718  -30.5176   23.6601 C   0  0  1  0  0  0  0  0  0  0  0  0
  -25.6820  -29.7709   20.2549 C   0  0  1  0  0  0  0  0  0  0  0  0
  -28.0296  -12.8818   20.5290 C   0  0  1  0  0  0  0  0  0  0  0  0
  -28.3972  -18.1183   20.2004 C   0  0  0  0  0  0  0  0  0  0  0  0
  -24.5865  -20.9444   22.1513 C   0  0  0  0  0  0  0  0  0  0  0  0
  -25.9205  -18.0355   22.0097 C   0  0  0  0  0  0  0  0  0  0  0  0
  -28.7203  -20.9893   19.1636 C   0  0  0  0  0  0  0  0  0  0  0  0
  -24.7588  -28.3865   12.6896 C   0  0  0  0  0  0  0  0  0  0  0  0
  -21.5135  -28.9485   18.4361 C   0  0  0  0  0  0  0  0  0  0  0  0
  -21.5018  -28.2861   16.0217 C   0  0  0  0  0  0  0  0  0  0  0  0
  -21.9523  -30.6548   16.6612 C   0  0  0  0  0  0  0  0  0  0  0  0
  -28.0044  -28.1557   14.6617 C   0  0  0  0  0  0  0  0  0  0  0  0
  -26.3712  -22.8535   20.3303 C   0  0  0  0  0  0  0  0  0  1  0  0
  -23.7177  -28.8972   17.0927 C   0  0  1  0  0  0  0  0  0  0  0  0
  -25.6888  -28.6467   13.8644 C   0  0  2  0  0  0  0  0  0  0  0  0
  -22.1900  -29.1850   17.0710 C   0  0  0  0  0  0  0  0  0  0  0  0
  -26.1153  -11.3522   20.8034 N   0  0  0  0  0  0  0  0  0  0  0  0
  -27.4507  -19.3435   20.5401 N   0  0  0  0  0  0  0  0  0  0  0  0
  -26.7284  -12.4811   21.1978 N   0  0  0  0  0  0  0  0  0  0  0  0
  -25.1284  -29.0268   19.1218 N   0  0  0  0  0  0  0  0  0  0  0  0
  -29.0707  -14.1999   18.7221 N   0  0  0  0  0  0  0  0  0  0  0  0
  -28.7298  -16.5464   18.9103 N   0  0  0  0  0  0  0  0  0  0  0  0
  -26.5501  -14.3000   22.7046 N   0  0  0  0  0  0  0  0  0  0  0  0
  -22.8678  -11.8424   23.5975 N   0  0  0  0  0  0  0  0  0  0  0  0
  -25.0104  -30.4344   22.4835 N   0  0  0  0  0  0  0  0  0  0  0  0
  -24.3894  -29.1389   15.8203 N   0  0  0  0  0  0  0  0  0  0  0  0
  -26.9863  -27.9643   13.5968 N   0  3  0  0  0  0  0  0  0  0  0  0
  -24.0149  -13.7480   24.1556 O   0  0  0  0  0  0  0  0  0  0  0  0
  -23.6326  -29.0696   21.1945 O   0  0  0  0  0  0  0  0  0  0  0  0
  -24.4160  -30.9607   18.0315 O   0  0  0  0  0  0  0  0  0  0  0  0
  -25.2219  -26.9903   15.5601 O   0  0  0  0  0  0  0  0  0  0  0  0
  -30.5081  -15.7296   17.7726 O   0  0  0  0  0  0  0  0  0  0  0  0
  -21.4007   -7.0822   21.1027 O   0  0  0  0  0  0  0  0  0  0  0  0
  -27.3247  -23.6051   21.0801 O   0  0  0  0  0  0  0  0  0  1  0  0
  -16.0266   -8.3133   21.0199 F   0  0  0  0  0  0  0  0  0  0  0  0
  -19.8264   -6.4162   18.9300 F   0  0  0  0  0  0  0  0  0  0  0  0
  1  2  1  0  0  0  0
  1  5  2  0  0  0  0
  2  6  2  0  0  0  0
  3  8  2  0  0  0  0
  3 15  1  0  0  0  0
  4  9  1  0  0  0  0
  4 15  2  0  0  0  0
  5 17  1  0  0  0  0
  6 19  1  0  0  0  0
  7 10  2  0  0  0  0
  7 18  1  0  0  0  0
  8 23  1  0  0  0  0
  9 23  2  0  0  0  0
 10 24  1  0  0  0  0
 11 12  2  0  0  0  0
 11 25  1  0  0  0  0
 12 26  1  0  0  0  0
 13 20  1  0  0  0  0
 13 24  2  0  0  0  0
 14 26  2  0  0  0  0
 14 27  1  0  0  0  0
 15 28  1  0  0  0  0
 16 28  1  0  0  0  0
 16 31  2  0  0  0  0
 16 32  1  0  0  0  0
 17 19  2  0  0  0  0
 17 37  1  0  0  0  0
 18 20  2  0  0  0  0
 18 38  1  0  0  0  0
 19 48  1  0  0  0  0
 20 39  1  0  0  0  0
 21 22  1  0  0  0  0
 21 29  2  0  0  0  0
 21 52  1  0  0  0  0
 22 30  2  0  0  0  0
 22 60  1  0  0  0  0
 23 80  1  0  0  0  0
 24 81  1  0  0  0  0
 25 27  2  0  0  0  0
 25 80  1  0  0  0  0
 26 82  1  0  0  0  0
 27 83  1  0  0  0  0
 28 64  2  0  0  0  0
 29 53  1  0  0  0  0
 29 65  1  0  0  0  0
 30 54  1  0  0  0  0
 30 65  1  0  0  0  0
 31 66  1  0  0  0  0
 31 70  1  0  0  0  0
 32 71  1  0  0  0  0
 32 75  2  0  0  0  0
 33 49  1  0  0  0  0
 33 72  1  0  0  0  0
 33 76  2  0  0  0  0
 34 61  1  0  0  0  0
 34 67  1  0  0  0  0
 34 77  2  0  0  0  0
 35 62  1  0  0  0  0
 35 73  1  0  0  0  0
 35 78  2  0  0  0  0
 36 68  1  0  0  0  0
 36 69  1  0  0  0  0
 36 79  2  0  0  0  0
 37 40  1  0  0  0  0
 38 49  1  0  0  0  0
 39 67  1  0  0  0  0
 40 42  1  0  0  0  0
 41 43  1  0  0  0  0
 41 44  1  0  0  0  0
 42 48  1  0  0  0  0
 43 50  1  0  0  0  0
 44 68  1  0  0  0  0
 45 50  1  0  0  0  0
 45 68  1  0  0  0  0
 46 51  1  0  0  0  0
 46 69  1  0  0  0  0
 47 51  1  0  0  0  0
 47 69  1  0  0  0  0
 48 72  1  0  0  0  0
 49 67  1  0  0  0  0
 50 66  1  0  0  0  0
 51 65  1  0  0  0  0
 55 62  1  0  0  0  0
 56 63  1  0  0  0  0
 57 63  1  0  0  0  0
 58 63  1  0  0  0  0
 59 74  1  0  0  0  0
 60 81  1  0  0  0  0
 61 63  1  0  0  0  0
 61 73  1  0  0  0  0
 62 74  1  0  0  0  0
 64 66  1  0  0  0  0
M  CHG  1  74   1
M  ISO  4  36 100  60 101  69 100  81 101
M  END
> <Batch ID>
0169

> <Smiles>
CNC(C)C(=O)NC(C(=O)N1Cc2cc([101O:1][101CH2:1]c3c(C)c(C)n(C4C[100N:0]([100C:0](=O)N5CCCC(n6nc(-c7ccc(Oc8ccc(F)cc8F)cc7)c(C(N)=O)c6N)C5)C4)c3C)ccc2CC1C(=O)NC1CCCc2ccccc21)C(C)(C)C

> <Shape>
0.238

> <Color>
0.097

> <Negative vol penalty>
0.000

$$$$

  -OEChem-04052322323D

 85 94  0     1  0  0  0  0  0999 V2000
  -33.8604  -29.8408   16.4005 C   0  0  0  0  0  0  0  0  0  0  0  0
  -32.8682  -28.9527   15.9975 C   0  0  0  0  0  0  0  0  0  0  0  0
  -23.2927   -9.8908   19.8275 C   0  0  0  0  0  0  0  0  0  0  0  0
  -23.9040   -9.8002   22.1631 C   0  0  0  0  0  0  0  0  0  0  0  0
  -34.0627  -30.0891   17.7574 C   0  0  0  0  0  0  0  0  0  0  0  0
  -32.0786  -28.3116   16.9513 C   0  0  0  0  0  0  0  0  0  0  0  0
  -26.1669  -26.8016   16.4242 C   0  0  0  0  0  0  0  0  0  0  0  0
  -22.6282   -8.6710   19.9540 C   0  0  0  0  0  0  0  0  0  0  0  0
  -23.2394   -8.5804   22.2897 C   0  0  0  0  0  0  0  0  0  0  0  0
  -25.5299  -25.6054   16.0971 C   0  0  0  0  0  0  0  0  0  0  0  0
  -19.6668   -7.5601   21.1494 C   0  0  0  0  0  0  0  0  0  0  0  0
  -18.4007   -7.4489   20.5747 C   0  0  0  0  0  0  0  0  0  0  0  0
  -25.2581  -25.1156   18.4435 C   0  0  0  0  0  0  0  0  0  0  0  0
  -19.1944   -5.6467   19.1750 C   0  0  0  0  0  0  0  0  0  0  0  0
  -28.0320  -17.3137   18.1769 C   0  0  0  0  0  0  0  0  0  0  0  0
  -23.9307  -10.4554   20.9320 C   0  0  0  0  0  0  0  0  0  0  0  0
  -28.4239  -16.3319   17.2813 C   0  0  0  0  0  0  0  0  0  0  0  0
  -24.0786  -13.0013   20.9930 C   0  0  0  0  0  0  0  0  0  0  0  0
  -33.2687  -29.4581   18.7280 C   0  0  0  0  0  0  0  0  0  0  0  0
  -26.3643  -27.1592   17.7657 C   0  0  0  0  0  0  0  0  0  0  0  0
  -32.2714  -28.5507   18.3226 C   0  0  0  0  0  0  0  0  0  0  0  0
  -25.8956  -26.3181   18.7849 C   0  0  0  0  0  0  0  0  0  0  0  0
  -27.7793  -16.2792   16.0503 C   0  0  0  0  0  0  0  0  0  0  0  0
  -26.7768  -17.1969   15.7569 C   0  0  0  0  0  0  0  0  0  0  0  0
  -22.6015   -8.0158   21.1851 C   0  0  0  0  0  0  0  0  0  0  0  0
  -25.0780  -24.7608   17.1068 C   0  0  0  0  0  0  0  0  0  0  0  0
  -20.6967   -6.7145   20.7369 C   0  0  0  0  0  0  0  0  0  0  0  0
  -18.1645   -6.4922   19.5875 C   0  0  0  0  0  0  0  0  0  0  0  0
  -20.4605   -5.7578   19.7497 C   0  0  0  0  0  0  0  0  0  0  0  0
  -24.6179  -11.7151   20.8017 C   0  0  0  0  0  0  0  0  0  0  0  0
  -26.4586  -18.1400   16.7208 C   0  0  0  0  0  0  0  0  0  0  0  0
  -25.1287  -13.8532   20.7521 C   0  0  0  0  0  0  0  0  0  0  0  0
  -29.4895  -15.3905   17.6487 C   0  0  0  0  0  0  0  0  0  0  0  0
  -22.7475  -13.3912   21.3560 C   0  0  0  0  0  0  0  0  0  0  0  0
  -28.9094  -27.6934   19.5935 C   0  0  0  0  0  0  0  0  0  0  0  0
  -26.6744  -28.5753   21.7727 C   0  0  0  0  0  0  0  0  0  0  0  0
  -23.4525  -28.3448   22.8741 C   0  0  0  0  0  0  0  0  0  0  0  0
  -33.5561  -29.7222   20.1848 C   0  0  0  0  0  0  0  0  0  0  0  0
  -27.0294  -28.4658   18.1018 C   0  0  0  0  0  0  0  0  0  0  0  0
  -26.0649  -26.6657   20.2406 C   0  0  0  0  0  0  0  0  0  0  0  0
  -32.4280  -29.2873   21.1168 C   0  0  0  0  0  0  0  0  0  0  0  0
  -30.0674  -12.9318   20.1711 C   0  0  0  0  0  0  0  0  0  0  0  0
  -31.9432  -27.8880   20.7513 C   0  0  0  0  0  0  0  0  0  0  0  0
  -28.6581  -12.4852   20.5642 C   0  0  0  0  0  0  0  0  0  0  0  0
  -24.6673  -19.9094   17.7729 C   0  0  0  0  0  0  0  0  0  0  0  0
  -30.1632  -13.2478   18.6806 C   0  0  0  0  0  0  0  0  0  0  0  0
  -27.7520  -13.7793   18.5881 C   0  0  0  0  0  0  0  0  0  0  0  0
  -31.3779  -27.8547   19.3262 C   0  0  1  0  0  0  0  0  0  0  0  0
  -25.3375  -19.2517   16.5305 C   0  0  1  0  0  0  0  0  0  0  0  0
  -27.6355  -28.4849   19.5017 C   0  0  1  0  0  0  0  0  0  0  0  0
  -24.5189  -21.2058   16.9415 C   0  0  2  0  0  0  0  0  0  0  0  0
  -27.5995  -13.4997   20.0923 C   0  0  1  0  0  0  0  0  0  0  0  0
  -25.7494  -20.7154   16.0906 C   0  0  0  0  0  0  0  0  0  0  0  0
  -28.1624  -15.2401   15.0449 C   0  0  0  0  0  0  0  0  0  0  0  0
  -26.0609  -17.1750   14.4492 C   0  0  0  0  0  0  0  0  0  0  0  0
  -25.5733  -20.9866   14.5958 C   0  0  0  0  0  0  0  0  0  0  0  0
  -27.1253  -21.1944   16.5660 C   0  0  0  0  0  0  0  0  0  0  0  0
  -21.9333  -29.1493   24.7023 C   0  0  0  0  0  0  0  0  0  0  0  0
  -27.9681  -26.6059   23.7111 C   0  0  0  0  0  0  0  0  0  0  0  0
  -25.9031  -26.7434   25.1199 C   0  0  0  0  0  0  0  0  0  0  0  0
  -27.2869  -28.7831   24.7358 C   0  0  0  0  0  0  0  0  0  0  0  0
  -21.6580  -29.6960   20.9471 C   0  0  0  0  0  0  0  0  0  0  0  0
  -24.5985  -22.5110   17.7107 C   0  0  0  0  0  0  0  0  0  1  0  0
  -25.8856  -27.8616   22.8439 C   0  0  1  0  0  0  0  0  0  0  0  0
  -22.4540  -29.4073   23.2969 C   0  0  2  0  0  0  0  0  0  0  0  0
  -26.7593  -27.4907   24.0754 C   0  0  0  0  0  0  0  0  0  0  0  0
  -27.0625  -18.2224   17.9275 N   0  0  0  0  0  0  0  0  0  0  0  0
  -25.9101  -11.7426   20.4651 N   0  0  0  0  0  0  0  0  0  0  0  0
  -26.1916  -13.0565   20.4428 N   0  0  0  0  0  0  0  0  0  0  0  0
  -29.1271  -14.2015   18.2863 N   0  0  0  0  0  0  0  0  0  0  0  0
  -26.7269  -27.9510   20.5184 N   0  0  0  0  0  0  0  0  0  0  0  0
  -25.2373  -15.1986   20.7766 N   0  0  0  0  0  0  0  0  0  0  0  0
  -21.7915  -12.3882   21.5665 N   0  0  0  0  0  0  0  0  0  0  0  0
  -30.0463  -28.4208   19.2973 N   0  0  0  0  0  0  0  0  0  0  0  0
  -24.7488  -28.7215   23.1550 N   0  0  0  0  0  0  0  0  0  0  0  0
  -21.2935  -29.4288   22.3623 N   0  3  0  0  0  0  0  0  0  0  0  0
  -30.6377  -15.7344   17.3722 O   0  0  0  0  0  0  0  0  0  0  0  0
  -22.4115  -14.5941   21.4737 O   0  0  0  0  0  0  0  0  0  0  0  0
  -28.8643  -26.5107   19.9110 O   0  0  0  0  0  0  0  0  0  0  0  0
  -27.2177  -29.6508   22.0371 O   0  0  0  0  0  0  0  0  0  0  0  0
  -23.1158  -27.2850   22.3506 O   0  0  0  0  0  0  0  0  0  0  0  0
  -21.9529   -6.8256   21.3091 O   0  0  0  0  0  0  0  0  0  0  0  0
  -24.4565  -23.5922   16.7903 O   0  0  0  0  0  0  0  0  0  1  0  0
  -16.9483   -6.3846   19.0367 F   0  0  0  0  0  0  0  0  0  0  0  0
  -21.4456   -4.9420   19.3502 F   0  0  0  0  0  0  0  0  0  0  0  0
  1  2  1  0  0  0  0
  1  5  2  0  0  0  0
  2  6  2  0  0  0  0
  3  8  2  0  0  0  0
  3 16  1  0  0  0  0
  4  9  1  0  0  0  0
  4 16  2  0  0  0  0
  5 19  1  0  0  0  0
  6 21  1  0  0  0  0
  7 10  2  0  0  0  0
  7 20  1  0  0  0  0
  8 25  1  0  0  0  0
  9 25  2  0  0  0  0
 10 26  1  0  0  0  0
 11 12  2  0  0  0  0
 11 27  1  0  0  0  0
 12 28  1  0  0  0  0
 13 22  1  0  0  0  0
 13 26  2  0  0  0  0
 14 28  2  0  0  0  0
 14 29  1  0  0  0  0
 15 17  1  0  0  0  0
 15 67  2  0  0  0  0
 16 30  1  0  0  0  0
 17 23  2  0  0  0  0
 17 33  1  0  0  0  0
 18 30  1  0  0  0  0
 18 32  2  0  0  0  0
 18 34  1  0  0  0  0
 19 21  2  0  0  0  0
 19 38  1  0  0  0  0
 20 22  2  0  0  0  0
 20 39  1  0  0  0  0
 21 48  1  0  0  0  0
 22 40  1  0  0  0  0
 23 24  1  0  0  0  0
 23 54  1  0  0  0  0
 24 31  2  0  0  0  0
 24 55  1  0  0  0  0
 25 82  1  0  0  0  0
 26 83  1  0  0  0  0
 27 29  2  0  0  0  0
 27 82  1  0  0  0  0
 28 84  1  0  0  0  0
 29 85  1  0  0  0  0
 30 68  2  0  0  0  0
 31 49  1  0  0  0  0
 31 67  1  0  0  0  0
 32 69  1  0  0  0  0
 32 72  1  0  0  0  0
 33 70  1  0  0  0  0
 33 77  2  0  0  0  0
 34 73  1  0  0  0  0
 34 78  2  0  0  0  0
 35 50  1  0  0  0  0
 35 74  1  0  0  0  0
 35 79  2  0  0  0  0
 36 64  1  0  0  0  0
 36 71  1  0  0  0  0
 36 80  2  0  0  0  0
 37 65  1  0  0  0  0
 37 75  1  0  0  0  0
 37 81  2  0  0  0  0
 38 41  1  0  0  0  0
 39 50  1  0  0  0  0
 40 71  1  0  0  0  0
 41 43  1  0  0  0  0
 42 44  1  0  0  0  0
 42 46  1  0  0  0  0
 43 48  1  0  0  0  0
 44 52  1  0  0  0  0
 45 49  1  0  0  0  0
 45 51  1  0  0  0  0
 46 70  1  0  0  0  0
 47 52  1  0  0  0  0
 47 70  1  0  0  0  0
 48 74  1  0  0  0  0
 49 53  1  0  0  0  0
 50 71  1  0  0  0  0
 51 53  1  0  0  0  0
 51 63  1  0  0  0  0
 52 69  1  0  0  0  0
 53 56  1  0  0  0  0
 53 57  1  0  0  0  0
 58 65  1  0  0  0  0
 59 66  1  0  0  0  0
 60 66  1  0  0  0  0
 61 66  1  0  0  0  0
 62 76  1  0  0  0  0
 63 83  1  0  0  0  0
 64 66  1  0  0  0  0
 64 75  1  0  0  0  0
 65 76  1  0  0  0  0
 68 69  1  0  0  0  0
M  CHG  1  76   1
M  ISO  4  17 100  33 100  63 101  83 101
M  END
> <Batch ID>
0169

> <Smiles>
CNC(C)C(=O)NC(C(=O)N1Cc2cc([101O:1][101CH2:1]C3CC(c4nc[100c:0]([100C:0](=O)N5CCCC(n6nc(-c7ccc(Oc8ccc(F)cc8F)cc7)c(C(N)=O)c6N)C5)c(C)c4C)C3(C)C)ccc2CC1C(=O)NC1CCCc2ccccc21)C(C)(C)C

> <Shape>
0.201

> <Color>
0.199

> <Negative vol penalty>
0.000

$$$$

  -OEChem-04052322323D

 86 95  0     1  0  0  0  0  0999 V2000
  -27.3789  -23.2356   17.6519 C   0  0  0  0  0  0  0  0  0  0  0  0
  -28.1322  -22.2191   18.2304 C   0  0  0  0  0  0  0  0  0  0  0  0
  -24.8952  -27.1849   19.1356 C   0  0  0  0  0  0  0  0  0  0  0  0
  -25.1252  -27.0266   21.5354 C   0  0  0  0  0  0  0  0  0  0  0  0
  -26.0028  -23.2921   17.8693 C   0  0  0  0  0  0  0  0  0  0  0  0
  -27.5100  -21.2591   19.0276 C   0  0  0  0  0  0  0  0  0  0  0  0
  -29.0753  -16.5572   17.9851 C   0  0  0  0  0  0  0  0  0  0  0  0
  -33.8785  -17.0949   20.4650 C   0  0  0  0  0  0  0  0  0  0  0  0
  -23.5460  -26.8477   19.2426 C   0  0  0  0  0  0  0  0  0  0  0  0
  -23.7760  -26.6894   21.6425 C   0  0  0  0  0  0  0  0  0  0  0  0
  -30.3128  -16.1699   18.4972 C   0  0  0  0  0  0  0  0  0  0  0  0
  -20.3064  -26.1396   22.5796 C   0  0  0  0  0  0  0  0  0  0  0  0
  -19.5566  -26.7697   23.5727 C   0  0  0  0  0  0  0  0  0  0  0  0
  -34.1428  -18.4609   20.4045 C   0  0  0  0  0  0  0  0  0  0  0  0
  -29.1989  -15.0044   20.2916 C   0  0  0  0  0  0  0  0  0  0  0  0
  -20.0462  -28.9172   22.5799 C   0  0  0  0  0  0  0  0  0  0  0  0
  -25.6848  -27.2743   20.2819 C   0  0  0  0  0  0  0  0  0  0  0  0
  -27.6378  -28.9136   20.2038 C   0  0  0  0  0  0  0  0  0  0  0  0
  -25.3620  -22.3267   18.6618 C   0  0  0  0  0  0  0  0  0  0  0  0
  -27.8885  -16.1795   18.6297 C   0  0  0  0  0  0  0  0  0  0  0  0
  -26.1243  -21.3035   19.2570 C   0  0  0  0  0  0  0  0  0  0  0  0
  -33.4748  -16.5586   21.6744 C   0  0  0  0  0  0  0  0  0  0  0  0
  -27.9475  -15.3860   19.7843 C   0  0  0  0  0  0  0  0  0  0  0  0
  -22.9863  -26.6000   20.4961 C   0  0  0  0  0  0  0  0  0  0  0  0
  -30.3749  -15.3958   19.6522 C   0  0  0  0  0  0  0  0  0  0  0  0
  -20.9263  -26.8983   21.5867 C   0  0  0  0  0  0  0  0  0  0  0  0
  -19.4264  -28.1584   23.5729 C   0  0  0  0  0  0  0  0  0  0  0  0
  -20.7961  -28.2870   21.5868 C   0  0  0  0  0  0  0  0  0  0  0  0
  -27.0788  -27.6220   20.1719 C   0  0  0  0  0  0  0  0  0  0  0  0
  -33.3488  -17.4066   22.7740 C   0  0  0  0  0  0  0  0  0  0  0  0
  -33.9802  -19.2240   21.5591 C   0  0  0  0  0  0  0  0  0  0  0  0
  -28.9882  -28.7069   20.0615 C   0  0  0  0  0  0  0  0  0  0  0  0
  -26.9940  -30.1865   20.3490 C   0  0  0  0  0  0  0  0  0  0  0  0
  -25.4942  -17.7430   20.0176 C   0  0  0  0  0  0  0  0  0  0  0  0
  -24.1984  -14.7771   20.2342 C   0  0  0  0  0  0  0  0  0  0  0  0
  -24.6894  -11.4014   20.3374 C   0  0  0  0  0  0  0  0  0  0  0  0
  -32.4208  -24.0882   21.3807 C   0  0  0  0  0  0  0  0  0  0  0  0
  -23.8795  -22.4564   18.9068 C   0  0  0  0  0  0  0  0  0  0  0  0
  -26.5607  -16.5829   18.0497 C   0  0  0  0  0  0  0  0  0  0  0  0
  -26.7020  -14.9372   20.5025 C   0  0  0  0  0  0  0  0  0  0  0  0
  -23.2398  -21.1849   19.4586 C   0  0  0  0  0  0  0  0  0  0  0  0
  -32.1260  -25.6520   18.1304 C   0  0  0  0  0  0  0  0  0  0  0  0
  -24.0805  -20.6150   20.5967 C   0  0  0  0  0  0  0  0  0  0  0  0
  -30.8391  -26.4620   18.2981 C   0  0  0  0  0  0  0  0  0  0  0  0
  -33.2007  -15.2052   23.5722 C   0  0  0  0  0  0  0  0  0  0  0  0
  -32.0332  -24.3110   18.8523 C   0  0  0  0  0  0  0  0  0  0  0  0
  -30.4135  -25.2221   20.4710 C   0  0  0  0  0  0  0  0  0  0  0  0
  -25.4819  -20.2294   20.1078 C   0  0  1  0  0  0  0  0  0  0  0  0
  -32.8464  -16.6516   23.9796 C   0  0  1  0  0  0  0  0  0  0  0  0
  -25.4324  -16.5733   19.0765 C   0  0  1  0  0  0  0  0  0  0  0  0
  -30.4526  -26.5986   19.7827 C   0  0  2  0  0  0  0  0  0  0  0  0
  -33.1012  -15.1412   22.0232 C   0  0  2  0  0  0  0  0  0  0  0  0
  -33.4978  -17.0649   25.2890 C   0  0  0  0  0  0  0  0  0  0  0  0
  -34.0707  -14.1012   21.4563 C   0  0  0  0  0  0  0  0  0  0  0  0
  -23.4418   -9.2352   20.5569 C   0  0  0  0  0  0  0  0  0  0  0  0
  -23.8467  -15.2852   23.2222 C   0  0  0  0  0  0  0  0  0  0  0  0
  -23.5068  -12.8239   23.5298 C   0  0  0  0  0  0  0  0  0  0  0  0
  -21.9159  -14.1350   22.1252 C   0  0  0  0  0  0  0  0  0  0  0  0
  -25.6188  -10.4639   17.6886 C   0  0  0  0  0  0  0  0  0  0  0  0
  -31.6687  -14.8343   21.5670 C   0  0  0  0  0  0  0  0  0  1  0  0
  -34.1288  -21.5048   22.5597 C   0  0  0  0  0  0  0  0  0  0  0  0
  -34.4763  -22.9258   22.1429 C   0  0  0  0  0  0  0  0  0  0  0  0
  -24.2414  -13.6634   21.2524 C   0  0  1  0  0  0  0  0  0  0  0  0
  -24.0159  -10.2624   19.5936 C   0  0  2  0  0  0  0  0  0  0  0  0
  -23.4014  -13.9868   22.5202 C   0  0  0  0  0  0  0  0  0  0  0  0
  -27.9988  -26.6655   20.0211 N   0  0  0  0  0  0  0  0  0  0  0  0
  -33.5787  -18.7314   22.7545 N   0  0  0  0  0  0  0  0  0  0  0  0
  -29.1496  -27.3567   19.9569 N   0  0  0  0  0  0  0  0  0  0  0  0
  -25.4278  -15.3625   19.8999 N   0  0  0  0  0  0  0  0  0  0  0  0
  -31.6805  -24.5125   20.2648 N   0  0  0  0  0  0  0  0  0  0  0  0
  -30.0414  -29.5502   20.0169 N   0  0  0  0  0  0  0  0  0  0  0  0
  -25.5993  -30.2183   20.4840 N   0  0  0  0  0  0  0  0  0  0  0  0
  -34.2551  -20.6114   21.4555 N   0  0  0  0  0  0  0  0  0  0  0  0
  -25.4392  -18.9731   19.3907 N   0  0  0  0  0  0  0  0  0  0  0  0
  -23.8243  -12.4535   20.5519 N   0  0  0  0  0  0  0  0  0  0  0  0
  -33.6046  -23.4175   21.0991 N   0  0  0  0  0  0  0  0  0  0  0  0
  -24.9934   -9.5760   18.7024 N   0  3  0  0  0  0  0  0  0  0  0  0
  -27.6349  -31.2648   20.3423 O   0  0  0  0  0  0  0  0  0  0  0  0
  -25.5836  -17.5441   21.2235 O   0  0  0  0  0  0  0  0  0  0  0  0
  -23.1149  -15.1104   19.7478 O   0  0  0  0  0  0  0  0  0  0  0  0
  -25.8643  -11.3603   20.6959 O   0  0  0  0  0  0  0  0  0  0  0  0
  -32.0563  -24.2965   22.5430 O   0  0  0  0  0  0  0  0  0  0  0  0
  -21.6697  -26.2712   20.6009 O   0  0  0  0  0  0  0  0  0  0  0  0
  -31.5816  -15.0169   20.1545 O   0  0  0  0  0  0  0  0  0  1  0  0
  -18.7050  -28.7633   24.5257 F   0  0  0  0  0  0  0  0  0  0  0  0
  -21.3882  -29.0211   20.6348 F   0  0  0  0  0  0  0  0  0  0  0  0
  1  2  1  0  0  0  0
  1  5  2  0  0  0  0
  2  6  2  0  0  0  0
  3  9  2  0  0  0  0
  3 17  1  0  0  0  0
  4 10  1  0  0  0  0
  4 17  2  0  0  0  0
  5 19  1  0  0  0  0
  6 21  1  0  0  0  0
  7 11  2  0  0  0  0
  7 20  1  0  0  0  0
  8 14  2  0  0  0  0
  8 22  1  0  0  0  0
  9 24  1  0  0  0  0
 10 24  2  0  0  0  0
 11 25  1  0  0  0  0
 12 13  2  0  0  0  0
 12 26  1  0  0  0  0
 13 27  1  0  0  0  0
 14 31  1  0  0  0  0
 15 23  1  0  0  0  0
 15 25  2  0  0  0  0
 16 27  2  0  0  0  0
 16 28  1  0  0  0  0
 17 29  1  0  0  0  0
 18 29  1  0  0  0  0
 18 32  2  0  0  0  0
 18 33  1  0  0  0  0
 19 21  2  0  0  0  0
 19 38  1  0  0  0  0
 20 23  2  0  0  0  0
 20 39  1  0  0  0  0
 21 48  1  0  0  0  0
 22 30  2  0  0  0  0
 22 52  1  0  0  0  0
 23 40  1  0  0  0  0
 24 83  1  0  0  0  0
 25 84  1  0  0  0  0
 26 28  2  0  0  0  0
 26 83  1  0  0  0  0
 27 85  1  0  0  0  0
 28 86  1  0  0  0  0
 29 66  2  0  0  0  0
 30 49  1  0  0  0  0
 30 67  1  0  0  0  0
 31 67  2  0  0  0  0
 31 73  1  0  0  0  0
 32 68  1  0  0  0  0
 32 71  1  0  0  0  0
 33 72  1  0  0  0  0
 33 78  2  0  0  0  0
 34 50  1  0  0  0  0
 34 74  1  0  0  0  0
 34 79  2  0  0  0  0
 35 63  1  0  0  0  0
 35 69  1  0  0  0  0
 35 80  2  0  0  0  0
 36 64  1  0  0  0  0
 36 75  1  0  0  0  0
 36 81  2  0  0  0  0
 37 70  1  0  0  0  0
 37 76  1  0  0  0  0
 37 82  2  0  0  0  0
 38 41  1  0  0  0  0
 39 50  1  0  0  0  0
 40 69  1  0  0  0  0
 41 43  1  0  0  0  0
 42 44  1  0  0  0  0
 42 46  1  0  0  0  0
 43 48  1  0  0  0  0
 44 51  1  0  0  0  0
 45 49  1  0  0  0  0
 45 52  1  0  0  0  0
 46 70  1  0  0  0  0
 47 51  1  0  0  0  0
 47 70  1  0  0  0  0
 48 74  1  0  0  0  0
 49 53  1  0  0  0  0
 50 69  1  0  0  0  0
 51 68  1  0  0  0  0
 52 54  1  0  0  0  0
 52 60  1  0  0  0  0
 55 64  1  0  0  0  0
 56 65  1  0  0  0  0
 57 65  1  0  0  0  0
 58 65  1  0  0  0  0
 59 77  1  0  0  0  0
 60 84  1  0  0  0  0
 61 62  1  0  0  0  0
 61 73  1  0  0  0  0
 62 76  1  0  0  0  0
 63 65  1  0  0  0  0
 63 75  1  0  0  0  0
 64 77  1  0  0  0  0
 66 68  1  0  0  0  0
M  CHG  1  77   1
M  ISO  4  37 100  60 101  76 100  84 101
M  END
> <Batch ID>
0169

> <Smiles>
CNC(C)C(=O)NC(C(=O)N1Cc2cc([101O:1][101CH2:1]C3(C)CC(C)c4nc(NCC[100NH:0][100C:0](=O)N5CCCC(n6nc(-c7ccc(Oc8ccc(F)cc8F)cc7)c(C(N)=O)c6N)C5)ccc43)ccc2CC1C(=O)NC1CCCc2ccccc21)C(C)(C)C

> <Shape>
0.199

> <Color>
0.062

> <Negative vol penalty>
0.000

$$$$

  -OEChem-04052322323D

 84 93  0     1  0  0  0  0  0999 V2000
  -27.1063  -34.5308   25.2341 C   0  0  0  0  0  0  0  0  0  0  0  0
  -27.4457  -33.2836   24.7196 C   0  0  0  0  0  0  0  0  0  0  0  0
  -27.5986  -12.4328   18.7706 C   0  0  0  0  0  0  0  0  0  0  0  0
  -28.4446  -13.1219   20.9262 C   0  0  0  0  0  0  0  0  0  0  0  0
  -25.7882  -34.7962   25.6031 C   0  0  0  0  0  0  0  0  0  0  0  0
  -26.4674  -32.3006   24.5749 C   0  0  0  0  0  0  0  0  0  0  0  0
  -26.7470  -29.9233   20.1122 C   0  0  0  0  0  0  0  0  0  0  0  0
  -28.8580  -11.9361   18.4351 C   0  0  0  0  0  0  0  0  0  0  0  0
  -29.7040  -12.6251   20.5907 C   0  0  0  0  0  0  0  0  0  0  0  0
  -27.7354  -28.9504   19.9699 C   0  0  0  0  0  0  0  0  0  0  0  0
  -31.8215  -13.1708   17.3779 C   0  0  0  0  0  0  0  0  0  0  0  0
  -32.3181  -13.4694   16.1091 C   0  0  0  0  0  0  0  0  0  0  0  0
  -26.0908  -27.2305   20.3650 C   0  0  0  0  0  0  0  0  0  0  0  0
  -32.4392  -11.1104   15.6014 C   0  0  0  0  0  0  0  0  0  0  0  0
  -28.3502  -22.5647   19.1537 C   0  0  0  0  0  0  0  0  0  0  0  0
  -27.3918  -13.0258   20.0162 C   0  0  0  0  0  0  0  0  0  0  0  0
  -25.0438  -12.8444   20.9967 C   0  0  0  0  0  0  0  0  0  0  0  0
  -24.7913  -33.8191   25.4538 C   0  0  0  0  0  0  0  0  0  0  0  0
  -25.4229  -29.5570   20.3933 C   0  0  0  0  0  0  0  0  0  0  0  0
  -25.1350  -32.5526   24.9436 C   0  0  0  0  0  0  0  0  0  0  0  0
  -25.0869  -28.2005   20.5079 C   0  0  0  0  0  0  0  0  0  0  0  0
  -28.6025  -23.8981   19.4332 C   0  0  0  0  0  0  0  0  0  0  0  0
  -28.3466  -24.3526   20.7221 C   0  0  0  0  0  0  0  0  0  0  0  0
  -27.8530  -23.4722   21.6785 C   0  0  0  0  0  0  0  0  0  0  0  0
  -29.9108  -12.0322   19.3451 C   0  0  0  0  0  0  0  0  0  0  0  0
  -27.4079  -27.6039   20.0991 C   0  0  0  0  0  0  0  0  0  0  0  0
  -31.6337  -11.8421   17.7585 C   0  0  0  0  0  0  0  0  0  0  0  0
  -32.6270  -12.4392   15.2209 C   0  0  0  0  0  0  0  0  0  0  0  0
  -31.9426  -10.8119   16.8703 C   0  0  0  0  0  0  0  0  0  0  0  0
  -26.0912  -13.5396   20.3631 C   0  0  0  0  0  0  0  0  0  0  0  0
  -27.6340  -22.1579   21.2984 C   0  0  0  0  0  0  0  0  0  0  0  0
  -24.0319  -13.7674   21.0997 C   0  0  0  0  0  0  0  0  0  0  0  0
  -24.9903  -11.4857   21.4515 C   0  0  0  0  0  0  0  0  0  0  0  0
  -23.4072  -30.0960   22.7912 C   0  0  0  0  0  0  0  0  0  0  0  0
  -21.2968  -28.5911   20.8408 C   0  0  0  0  0  0  0  0  0  0  0  0
  -20.7773  -26.4181   18.2610 C   0  0  0  0  0  0  0  0  0  0  0  0
  -24.1367  -19.8240   21.1597 C   0  0  0  0  0  0  0  0  0  0  0  0
  -23.3895  -34.1366   25.9107 C   0  0  0  0  0  0  0  0  0  0  0  0
  -24.3633  -30.6173   20.5174 C   0  0  0  0  0  0  0  0  0  0  0  0
  -23.6763  -27.7539   20.7890 C   0  0  0  0  0  0  0  0  0  0  0  0
  -22.3399  -33.1657   25.3757 C   0  0  0  0  0  0  0  0  0  0  0  0
  -22.2634  -17.6559   18.9941 C   0  0  0  0  0  0  0  0  0  0  0  0
  -22.8111  -31.7246   25.5434 C   0  0  0  0  0  0  0  0  0  0  0  0
  -22.9666  -16.3075   19.1106 C   0  0  0  0  0  0  0  0  0  0  0  0
  -23.2629  -18.8006   19.0910 C   0  0  0  0  0  0  0  0  0  0  0  0
  -25.6087  -21.1326   22.7778 C   0  0  0  0  0  0  0  0  0  0  0  0
  -26.6879  -19.6500   21.6992 C   0  0  0  0  0  0  0  0  0  0  0  0
  -24.7654  -17.4346   20.5159 C   0  0  0  0  0  0  0  0  0  0  0  0
  -24.0972  -31.4687   24.7484 C   0  0  1  0  0  0  0  0  0  0  0  0
  -27.0712  -21.0329   22.2830 C   0  0  0  0  0  0  0  0  0  0  0  0
  -23.1461  -30.1554   21.3127 C   0  0  1  0  0  0  0  0  0  0  0  0
  -23.7940  -16.2428   20.4024 C   0  0  2  0  0  0  0  0  0  0  0  0
  -29.1315  -24.7957   18.3691 C   0  0  0  0  0  0  0  0  0  0  0  0
  -27.5650  -23.9191   23.0714 C   0  0  0  0  0  0  0  0  0  0  0  0
  -30.0294  -26.0230   21.5712 C   0  0  0  0  0  0  0  0  0  0  0  0
  -18.9420  -25.3594   16.9165 C   0  0  0  0  0  0  0  0  0  0  0  0
  -20.6857  -26.7079   23.1624 C   0  0  0  0  0  0  0  0  0  0  0  0
  -19.6129  -25.1484   21.5238 C   0  0  0  0  0  0  0  0  0  0  0  0
  -18.6819  -27.4386   21.8566 C   0  0  0  0  0  0  0  0  0  0  0  0
  -21.7641  -27.6271   15.7463 C   0  0  0  0  0  0  0  0  0  0  0  0
  -28.6048  -25.7982   21.0804 C   0  0  1  0  0  0  0  0  0  1  0  0
  -20.8731  -27.1581   20.6270 C   0  0  1  0  0  0  0  0  0  0  0  0
  -19.9176  -26.5219   17.0142 C   0  0  2  0  0  0  0  0  0  0  0  0
  -19.9904  -26.6214   21.7891 C   0  0  0  0  0  0  0  0  0  0  0  0
  -27.8708  -21.6797   20.0562 N   0  0  0  0  0  0  0  0  0  0  0  0
  -25.7740  -14.8065   20.0832 N   0  0  0  0  0  0  0  0  0  0  0  0
  -24.5158  -14.9147   20.5429 N   0  0  0  0  0  0  0  0  0  0  0  0
  -22.6770  -28.8285   20.9083 N   0  0  0  0  0  0  0  0  0  0  0  0
  -24.0798  -18.7172   20.3053 N   0  0  0  0  0  0  0  0  0  0  0  0
  -25.2996  -20.0426   21.8628 N   0  0  0  0  0  0  0  0  0  0  0  0
  -22.7843  -13.7015   21.6111 N   0  0  0  0  0  0  0  0  0  0  0  0
  -26.1183  -10.6746   21.2672 N   0  0  0  0  0  0  0  0  0  0  0  0
  -23.7974  -31.3016   23.3424 N   0  0  0  0  0  0  0  0  0  0  0  0
  -20.2298  -27.1135   19.3183 N   0  0  0  0  0  0  0  0  0  0  0  0
  -20.7728  -26.5216   15.7938 N   0  3  0  0  0  0  0  0  0  0  0  0
  -23.9666  -11.0005   21.9901 O   0  0  0  0  0  0  0  0  0  0  0  0
  -23.2636  -29.0354   23.3879 O   0  0  0  0  0  0  0  0  0  0  0  0
  -20.4352  -29.4686   20.9370 O   0  0  0  0  0  0  0  0  0  0  0  0
  -21.8276  -25.7807   18.2948 O   0  0  0  0  0  0  0  0  0  0  0  0
  -23.1893  -20.6135   21.2696 O   0  0  0  0  0  0  0  0  0  0  0  0
  -31.1398  -11.5473   19.0182 O   0  0  0  0  0  0  0  0  0  0  0  0
  -28.3709  -26.6522   19.9614 O   0  0  0  0  0  0  0  0  0  1  0  0
  -33.1025  -12.7261   14.0020 F   0  0  0  0  0  0  0  0  0  0  0  0
  -31.7632   -9.5334   17.2298 F   0  0  0  0  0  0  0  0  0  0  0  0
  1  2  1  0  0  0  0
  1  5  2  0  0  0  0
  2  6  2  0  0  0  0
  3  8  2  0  0  0  0
  3 16  1  0  0  0  0
  4  9  1  0  0  0  0
  4 16  2  0  0  0  0
  5 18  1  0  0  0  0
  6 20  1  0  0  0  0
  7 10  2  0  0  0  0
  7 19  1  0  0  0  0
  8 25  1  0  0  0  0
  9 25  2  0  0  0  0
 10 26  1  0  0  0  0
 11 12  2  0  0  0  0
 11 27  1  0  0  0  0
 12 28  1  0  0  0  0
 13 21  1  0  0  0  0
 13 26  2  0  0  0  0
 14 28  2  0  0  0  0
 14 29  1  0  0  0  0
 15 22  2  0  0  0  0
 15 65  1  0  0  0  0
 16 30  1  0  0  0  0
 17 30  1  0  0  0  0
 17 32  2  0  0  0  0
 17 33  1  0  0  0  0
 18 20  2  0  0  0  0
 18 38  1  0  0  0  0
 19 21  2  0  0  0  0
 19 39  1  0  0  0  0
 20 49  1  0  0  0  0
 21 40  1  0  0  0  0
 22 23  1  0  0  0  0
 22 53  1  0  0  0  0
 23 24  2  0  0  0  0
 23 61  1  0  0  0  0
 24 31  1  0  0  0  0
 24 54  1  0  0  0  0
 25 81  1  0  0  0  0
 26 82  1  0  0  0  0
 27 29  2  0  0  0  0
 27 81  1  0  0  0  0
 28 83  1  0  0  0  0
 29 84  1  0  0  0  0
 30 66  2  0  0  0  0
 31 50  1  0  0  0  0
 31 65  2  0  0  0  0
 32 67  1  0  0  0  0
 32 71  1  0  0  0  0
 33 72  1  0  0  0  0
 33 76  2  0  0  0  0
 34 51  1  0  0  0  0
 34 73  1  0  0  0  0
 34 77  2  0  0  0  0
 35 62  1  0  0  0  0
 35 68  1  0  0  0  0
 35 78  2  0  0  0  0
 36 63  1  0  0  0  0
 36 74  1  0  0  0  0
 36 79  2  0  0  0  0
 37 69  1  0  0  0  0
 37 70  1  0  0  0  0
 37 80  2  0  0  0  0
 38 41  1  0  0  0  0
 39 51  1  0  0  0  0
 40 68  1  0  0  0  0
 41 43  1  0  0  0  0
 42 44  1  0  0  0  0
 42 45  1  0  0  0  0
 43 49  1  0  0  0  0
 44 52  1  0  0  0  0
 45 69  1  0  0  0  0
 46 50  1  0  0  0  0
 46 70  1  0  0  0  0
 47 50  1  0  0  0  0
 47 70  1  0  0  0  0
 48 52  1  0  0  0  0
 48 69  1  0  0  0  0
 49 73  1  0  0  0  0
 51 68  1  0  0  0  0
 52 67  1  0  0  0  0
 55 61  1  0  0  0  0
 56 63  1  0  0  0  0
 57 64  1  0  0  0  0
 58 64  1  0  0  0  0
 59 64  1  0  0  0  0
 60 75  1  0  0  0  0
 61 82  1  0  0  0  0
 62 64  1  0  0  0  0
 62 74  1  0  0  0  0
 63 75  1  0  0  0  0
 66 67  1  0  0  0  0
M  CHG  1  75   1
M  ISO  4  37 100  61 101  70 100  82 101
M  END
> <Batch ID>
0169

> <Smiles>
CNC(C)C(=O)NC(C(=O)N1Cc2cc([101O:1][101CH:1](C)c3c(C)cnc(C4C[100N:0]([100C:0](=O)N5CCCC(n6nc(-c7ccc(Oc8ccc(F)cc8F)cc7)c(C(N)=O)c6N)C5)C4)c3C)ccc2CC1C(=O)NC1CCCc2ccccc21)C(C)(C)C

> <Shape>
0.283

> <Color>
0.100

> <Negative vol penalty>
0.000

$$$$

  -OEChem-04052322323D

 85 94  0     1  0  0  0  0  0999 V2000
  -18.7136  -28.6949   23.2141 C   0  0  0  0  0  0  0  0  0  0  0  0
  -19.5635  -27.7293   23.7438 C   0  0  0  0  0  0  0  0  0  0  0  0
  -27.4211  -28.0793   18.9658 C   0  0  0  0  0  0  0  0  0  0  0  0
  -26.0521  -27.0811   20.6882 C   0  0  0  0  0  0  0  0  0  0  0  0
  -17.8752  -28.3744   22.1472 C   0  0  0  0  0  0  0  0  0  0  0  0
  -19.5748  -26.4421   23.2075 C   0  0  0  0  0  0  0  0  0  0  0  0
  -24.0010  -20.9461   21.9752 C   0  0  0  0  0  0  0  0  0  0  0  0
  -27.1923  -29.3408   19.5151 C   0  0  0  0  0  0  0  0  0  0  0  0
  -25.8233  -28.3426   21.2375 C   0  0  0  0  0  0  0  0  0  0  0  0
  -24.1048  -19.5747   22.2034 C   0  0  0  0  0  0  0  0  0  0  0  0
  -27.4779  -30.5400   23.2009 C   0  0  0  0  0  0  0  0  0  0  0  0
  -27.5832  -30.6710   24.5855 C   0  0  0  0  0  0  0  0  0  0  0  0
  -22.6703  -19.1572   20.3094 C   0  0  0  0  0  0  0  0  0  0  0  0
  -25.2796  -31.3915   24.6926 C   0  0  0  0  0  0  0  0  0  0  0  0
  -26.8510  -26.9494   19.5524 C   0  0  0  0  0  0  0  0  0  0  0  0
  -26.7584  -25.2120   17.6867 C   0  0  0  0  0  0  0  0  0  0  0  0
  -17.8831  -27.0854   21.5913 C   0  0  0  0  0  0  0  0  0  0  0  0
  -23.2210  -21.4347   20.9172 C   0  0  0  0  0  0  0  0  0  0  0  0
  -18.7348  -26.1037   22.1330 C   0  0  0  0  0  0  0  0  0  0  0  0
  -22.5604  -20.5352   20.0684 C   0  0  0  0  0  0  0  0  0  0  0  0
  -24.4107  -13.0860   21.2836 C   0  0  0  0  0  0  0  0  0  0  0  0
  -23.0351  -15.0573   21.1256 C   0  0  0  0  0  0  0  0  0  0  0  0
  -24.2408  -14.4070   20.8806 C   0  0  0  0  0  0  0  0  0  0  0  0
  -26.3935  -29.4725   20.6510 C   0  0  0  0  0  0  0  0  0  0  0  0
  -23.4370  -18.6801   21.3722 C   0  0  0  0  0  0  0  0  0  0  0  0
  -26.2734  -30.8348   22.5620 C   0  0  0  0  0  0  0  0  0  0  0  0
  -26.4841  -31.0968   25.3314 C   0  0  0  0  0  0  0  0  0  0  0  0
  -25.1743  -31.2605   23.3079 C   0  0  0  0  0  0  0  0  0  0  0  0
  -27.0865  -25.6460   18.9851 C   0  0  0  0  0  0  0  0  0  0  0  0
  -23.3623  -12.4433   21.9265 C   0  0  0  0  0  0  0  0  0  0  0  0
  -22.0215  -14.3646   21.7724 C   0  0  0  0  0  0  0  0  0  0  0  0
  -27.1860  -23.9076   17.6423 C   0  0  0  0  0  0  0  0  0  0  0  0
  -26.1240  -25.9245   16.6163 C   0  0  0  0  0  0  0  0  0  0  0  0
  -20.6475  -23.2873   20.6969 C   0  0  0  0  0  0  0  0  0  0  0  0
  -21.2307  -23.0529   17.5146 C   0  0  0  0  0  0  0  0  0  0  0  0
  -22.1895  -21.2404   14.5459 C   0  0  0  0  0  0  0  0  0  0  0  0
  -27.3455  -18.9247   19.9870 C   0  0  0  0  0  0  0  0  0  0  0  0
  -16.9249  -26.7727   20.4693 C   0  0  0  0  0  0  0  0  0  0  0  0
  -23.1410  -22.9159   20.6682 C   0  0  0  0  0  0  0  0  0  0  0  0
  -21.7267  -21.0079   18.9065 C   0  0  0  0  0  0  0  0  0  0  0  0
  -17.2678  -25.4907   19.7149 C   0  0  0  0  0  0  0  0  0  0  0  0
  -30.0733  -21.2656   20.8190 C   0  0  0  0  0  0  0  0  0  0  0  0
  -17.5772  -24.3621   20.6934 C   0  0  0  0  0  0  0  0  0  0  0  0
  -29.4765  -22.5896   20.3511 C   0  0  0  0  0  0  0  0  0  0  0  0
  -27.6713  -15.2996   21.1338 C   0  0  0  0  0  0  0  0  0  0  0  0
  -29.0065  -20.3158   21.3622 C   0  0  0  0  0  0  0  0  0  0  0  0
  -27.2887  -21.3981   19.9402 C   0  0  0  0  0  0  0  0  0  0  0  0
  -18.7937  -24.7033   21.5624 C   0  0  1  0  0  0  0  0  0  0  0  0
  -21.9038  -23.3222   19.8734 C   0  0  1  0  0  0  0  0  0  0  0  0
  -28.3404  -22.3474   19.3457 C   0  0  1  0  0  0  0  0  0  0  0  0
  -26.2845  -15.8378   20.9250 C   0  0  1  0  0  0  0  0  0  0  0  0
  -27.4522  -16.4601   20.2030 C   0  0  1  0  0  0  0  0  0  0  0  0
  -25.6950  -12.3645   21.0353 C   0  0  0  0  0  0  0  0  0  0  0  0
  -23.4439  -11.0344   22.3945 C   0  0  0  0  0  0  0  0  0  0  0  0
  -20.6984  -14.9687   22.0805 C   0  0  0  0  0  0  0  0  0  0  0  0
  -22.4637  -22.0193   12.1762 C   0  0  0  0  0  0  0  0  0  0  0  0
  -18.3434  -22.1244   17.1810 C   0  0  0  0  0  0  0  0  0  0  0  0
  -18.9493  -21.2876   14.9004 C   0  0  0  0  0  0  0  0  0  0  0  0
  -19.1358  -23.7192   15.4251 C   0  0  0  0  0  0  0  0  0  0  0  0
  -24.9663  -20.2256   14.4113 C   0  0  0  0  0  0  0  0  0  0  0  0
  -22.8256  -16.4815   20.7026 C   0  0  0  0  0  0  0  0  0  1  0  0
  -20.8097  -22.1051   16.4175 C   0  0  1  0  0  0  0  0  0  0  0  0
  -23.1725  -21.6943   13.4818 C   0  0  2  0  0  0  0  0  0  0  0  0
  -19.3236  -22.2999   16.0040 C   0  0  0  0  0  0  0  0  0  0  0  0
  -27.6768  -24.6943   19.7130 N   0  0  0  0  0  0  0  0  0  0  0  0
  -27.7229  -23.6494   18.8692 N   0  0  0  0  0  0  0  0  0  0  0  0
  -22.2119  -13.0930   22.1497 N   0  3  0  0  0  0  0  0  0  0  0  0
  -21.6743  -22.4657   18.7080 N   0  0  0  0  0  0  0  0  0  0  0  0
  -27.8968  -20.1474   20.4108 N   0  0  0  0  0  0  0  0  0  0  0  0
  -27.1513  -22.9676   16.6740 N   0  0  0  0  0  0  0  0  0  0  0  0
  -24.7263  -25.8816   16.5212 N   0  0  0  0  0  0  0  0  0  0  0  0
  -25.2923  -15.0872   20.2237 N   0  0  0  0  0  0  0  0  0  0  0  0
  -20.0182  -24.5119   20.8152 N   0  0  0  0  0  0  0  0  0  0  0  0
  -21.7624  -22.2922   15.3286 N   0  0  0  0  0  0  0  0  0  0  0  0
  -27.9144  -17.7811   20.5362 N   0  0  0  0  0  0  0  0  0  0  0  0
  -24.1788  -20.6273   13.2174 N   0  3  0  0  0  0  0  0  0  0  0  0
  -26.7782  -26.5662   15.7597 O   0  0  0  0  0  0  0  0  0  0  0  0
  -20.2758  -22.2276   21.1874 O   0  0  0  0  0  0  0  0  0  0  0  0
  -21.1750  -24.2693   17.3173 O   0  0  0  0  0  0  0  0  0  0  0  0
  -21.8330  -20.0706   14.6679 O   0  0  0  0  0  0  0  0  0  0  0  0
  -26.4102  -18.8548   19.1821 O   0  0  0  0  0  0  0  0  0  0  0  0
  -26.1702  -30.7034   21.1873 O   0  0  0  0  0  0  0  0  0  0  0  0
  -23.5360  -17.3409   21.5930 O   0  0  0  0  0  0  0  0  0  1  0  0
  -26.5850  -31.2211   26.6613 F   0  0  0  0  0  0  0  0  0  0  0  0
  -24.0142  -31.5440   22.6999 F   0  0  0  0  0  0  0  0  0  0  0  0
  1  2  1  0  0  0  0
  1  5  2  0  0  0  0
  2  6  2  0  0  0  0
  3  8  2  0  0  0  0
  3 15  1  0  0  0  0
  4  9  1  0  0  0  0
  4 15  2  0  0  0  0
  5 17  1  0  0  0  0
  6 19  1  0  0  0  0
  7 10  2  0  0  0  0
  7 18  1  0  0  0  0
  8 24  1  0  0  0  0
  9 24  2  0  0  0  0
 10 25  1  0  0  0  0
 11 12  2  0  0  0  0
 11 26  1  0  0  0  0
 12 27  1  0  0  0  0
 13 20  1  0  0  0  0
 13 25  2  0  0  0  0
 14 27  2  0  0  0  0
 14 28  1  0  0  0  0
 15 29  1  0  0  0  0
 16 29  1  0  0  0  0
 16 32  2  0  0  0  0
 16 33  1  0  0  0  0
 17 19  2  0  0  0  0
 17 38  1  0  0  0  0
 18 20  2  0  0  0  0
 18 39  1  0  0  0  0
 19 48  1  0  0  0  0
 20 40  1  0  0  0  0
 21 23  1  0  0  0  0
 21 30  2  0  0  0  0
 21 53  1  0  0  0  0
 22 23  2  0  0  0  0
 22 31  1  0  0  0  0
 22 61  1  0  0  0  0
 23 72  1  0  0  0  0
 24 82  1  0  0  0  0
 25 83  1  0  0  0  0
 26 28  2  0  0  0  0
 26 82  1  0  0  0  0
 27 84  1  0  0  0  0
 28 85  1  0  0  0  0
 29 65  2  0  0  0  0
 30 54  1  0  0  0  0
 30 67  1  0  0  0  0
 31 55  1  0  0  0  0
 31 67  2  0  0  0  0
 32 66  1  0  0  0  0
 32 70  1  0  0  0  0
 33 71  1  0  0  0  0
 33 77  2  0  0  0  0
 34 49  1  0  0  0  0
 34 73  1  0  0  0  0
 34 78  2  0  0  0  0
 35 62  1  0  0  0  0
 35 68  1  0  0  0  0
 35 79  2  0  0  0  0
 36 63  1  0  0  0  0
 36 74  1  0  0  0  0
 36 80  2  0  0  0  0
 37 69  1  0  0  0  0
 37 75  1  0  0  0  0
 37 81  2  0  0  0  0
 38 41  1  0  0  0  0
 39 49  1  0  0  0  0
 40 68  1  0  0  0  0
 41 43  1  0  0  0  0
 42 44  1  0  0  0  0
 42 46  1  0  0  0  0
 43 48  1  0  0  0  0
 44 50  1  0  0  0  0
 45 51  1  0  0  0  0
 45 52  1  0  0  0  0
 46 69  1  0  0  0  0
 47 50  1  0  0  0  0
 47 69  1  0  0  0  0
 48 73  1  0  0  0  0
 49 68  1  0  0  0  0
 50 66  1  0  0  0  0
 51 52  1  0  0  0  0
 51 72  1  0  0  0  0
 52 75  1  0  0  0  0
 56 63  1  0  0  0  0
 57 64  1  0  0  0  0
 58 64  1  0  0  0  0
 59 64  1  0  0  0  0
 60 76  1  0  0  0  0
 61 83  1  0  0  0  0
 62 64  1  0  0  0  0
 62 74  1  0  0  0  0
 63 76  1  0  0  0  0
 65 66  1  0  0  0  0
M  CHG  2  67   1  76   1
M  ISO  4  37 100  61 101  75 100  83 101
M  END
> <Batch ID>
0169

> <Smiles>
CNC(C)C(=O)NC(C(=O)N1Cc2cc([101O:1][101CH2:1]c3c(C)nc(C)c(C)c3NC3CC3[100NH:0][100C:0](=O)N3CCCC(n4nc(-c5ccc(Oc6ccc(F)cc6F)cc5)c(C(N)=O)c4N)C3)ccc2CC1C(=O)NC1CCCc2ccccc21)C(C)(C)C

> <Shape>
0.214

> <Color>
0.060

> <Negative vol penalty>
0.000

$$$$

  -OEChem-04052322323D

 89 99  0     1  0  0  0  0  0999 V2000
  -27.9608  -35.9593   27.5340 C   0  0  0  0  0  0  0  0  0  0  0  0
  -26.9611  -35.0487   27.8608 C   0  0  0  0  0  0  0  0  0  0  0  0
  -22.4115  -10.4489   22.0207 C   0  0  0  0  0  0  0  0  0  0  0  0
  -23.1145   -9.9726   19.7589 C   0  0  0  0  0  0  0  0  0  0  0  0
  -28.1201  -36.3732   26.2122 C   0  0  0  0  0  0  0  0  0  0  0  0
  -26.1192  -34.5524   26.8661 C   0  0  0  0  0  0  0  0  0  0  0  0
  -22.4876  -28.6479   25.0595 C   0  0  0  0  0  0  0  0  0  0  0  0
  -22.0302   -9.1171   22.1827 C   0  0  0  0  0  0  0  0  0  0  0  0
  -22.7333   -8.6407   19.9209 C   0  0  0  0  0  0  0  0  0  0  0  0
  -21.2046  -28.2418   24.6951 C   0  0  0  0  0  0  0  0  0  0  0  0
  -21.2060   -5.7616   23.3127 C   0  0  0  0  0  0  0  0  0  0  0  0
  -21.5739   -5.1211   24.4959 C   0  0  0  0  0  0  0  0  0  0  0  0
  -21.6239  -28.9674   22.4331 C   0  0  0  0  0  0  0  0  0  0  0  0
  -15.8736  -25.3313   22.6850 C   0  0  0  0  0  0  0  0  0  0  0  0
  -23.9024   -5.5108   23.9829 C   0  0  0  0  0  0  0  0  0  0  0  0
  -22.9536  -10.8768   20.8087 C   0  0  0  0  0  0  0  0  0  0  0  0
  -24.6081  -12.8156   20.9138 C   0  0  0  0  0  0  0  0  0  0  0  0
  -27.2861  -35.8743   25.1992 C   0  0  0  0  0  0  0  0  0  0  0  0
  -23.3459  -29.2278   24.1144 C   0  0  0  0  0  0  0  0  0  0  0  0
  -26.2667  -34.9611   25.5297 C   0  0  0  0  0  0  0  0  0  0  0  0
  -22.9182  -29.3777   22.7875 C   0  0  0  0  0  0  0  0  0  0  0  0
  -17.1046  -25.6879   23.2242 C   0  0  0  0  0  0  0  0  0  0  0  0
  -17.3899  -27.0271   23.4658 C   0  0  0  0  0  0  0  0  0  0  0  0
  -22.1911   -8.2129   21.1328 C   0  0  0  0  0  0  0  0  0  0  0  0
  -20.7715  -28.4042   23.3824 C   0  0  0  0  0  0  0  0  0  0  0  0
  -22.1863   -6.2767   22.4645 C   0  0  0  0  0  0  0  0  0  0  0  0
  -22.9221   -4.9957   24.8310 C   0  0  0  0  0  0  0  0  0  0  0  0
  -23.5345   -6.1514   22.7996 C   0  0  0  0  0  0  0  0  0  0  0  0
  -23.3471  -12.2526   20.6406 C   0  0  0  0  0  0  0  0  0  0  0  0
  -14.9695  -26.3439   22.4072 C   0  0  0  0  0  0  0  0  0  0  0  0
  -16.4180  -27.9638   23.1528 C   0  0  0  0  0  0  0  0  0  0  0  0
  -24.4689  -14.1431   20.5901 C   0  0  0  0  0  0  0  0  0  0  0  0
  -25.7989  -12.1941   21.4153 C   0  0  0  0  0  0  0  0  0  0  0  0
  -24.7648  -32.0558   23.8101 C   0  0  0  0  0  0  0  0  0  0  0  0
  -26.2046  -30.6249   21.2800 C   0  0  0  0  0  0  0  0  0  0  0  0
  -26.1206  -28.1798   18.9006 C   0  0  0  0  0  0  0  0  0  0  0  0
  -21.8343  -18.8233   20.6395 C   0  0  0  0  0  0  0  0  0  0  0  0
  -27.4661  -36.3872   23.7923 C   0  0  0  0  0  0  0  0  0  0  0  0
  -24.7364  -29.6361   24.5172 C   0  0  0  0  0  0  0  0  0  0  0  0
  -23.8084  -29.9761   21.7301 C   0  0  0  0  0  0  0  0  0  0  0  0
  -26.7736  -35.5280   22.7375 C   0  0  0  0  0  0  0  0  0  0  0  0
  -20.7764  -16.5789   18.1511 C   0  0  0  0  0  0  0  0  0  0  0  0
  -25.3510  -35.1915   23.1730 C   0  0  0  0  0  0  0  0  0  0  0  0
  -21.4559  -15.2856   18.5999 C   0  0  0  0  0  0  0  0  0  0  0  0
  -17.8800  -23.0972   23.0807 C   0  0  0  0  0  0  0  0  0  0  0  0
  -19.4643  -24.4659   22.7037 C   0  0  0  0  0  0  0  0  0  0  0  0
  -20.2172  -17.3727   19.3332 C   0  0  0  0  0  0  0  0  0  0  0  0
  -19.5761  -19.9740   20.5659 C   0  0  0  0  0  0  0  0  0  0  0  0
  -21.6676  -21.2821   20.3906 C   0  0  0  0  0  0  0  0  0  0  0  0
  -21.8916  -16.3553   20.8434 C   0  0  0  0  0  0  0  0  0  0  0  0
  -19.1466  -20.8049   21.7725 C   0  0  0  0  0  0  0  0  0  0  0  0
  -21.2823  -22.1140   21.6047 C   0  0  0  0  0  0  0  0  0  0  0  0
  -18.1615  -24.5556   23.5557 C   0  0  0  0  0  0  0  0  0  0  0  0
  -25.3496  -34.3811   24.4748 C   0  0  1  0  0  0  0  0  0  0  0  0
  -25.3427  -30.6862   23.5914 C   0  0  1  0  0  0  0  0  0  0  0  0
  -22.5138  -15.5643   19.6824 C   0  0  1  0  0  0  0  0  0  0  0  0
  -19.4035  -22.9370   22.8998 C   0  0  0  0  0  0  0  0  0  0  0  0
  -13.6389  -25.9977   21.8267 C   0  0  0  0  0  0  0  0  0  0  0  0
  -16.6668  -29.4175   23.3911 C   0  0  0  0  0  0  0  0  0  0  0  0
  -27.4201  -27.2843   16.9495 C   0  0  0  0  0  0  0  0  0  0  0  0
  -25.2489  -32.9658   19.5721 C   0  0  0  0  0  0  0  0  0  0  0  0
  -25.7255  -31.5859   17.5381 C   0  0  0  0  0  0  0  0  0  0  0  0
  -27.5810  -32.2039   19.0867 C   0  0  0  0  0  0  0  0  0  0  0  0
  -26.4664  -25.5403   20.1937 C   0  0  0  0  0  0  0  0  0  0  0  0
  -18.7022  -27.4363   24.0436 C   0  0  0  0  0  0  0  0  0  1  0  0
  -25.8849  -30.4750   19.8122 C   0  0  1  0  0  0  0  0  0  0  0  0
  -27.1688  -27.1804   18.4458 C   0  0  2  0  0  0  0  0  0  0  0  0
  -26.0924  -31.7981   19.0224 C   0  0  0  0  0  0  0  0  0  0  0  0
  -22.4712  -13.1492   20.1790 N   0  0  0  0  0  0  0  0  0  0  0  0
  -15.2108  -27.6556   22.6280 N   0  0  0  0  0  0  0  0  0  0  0  0
  -23.1829  -14.2890   20.1597 N   0  0  0  0  0  0  0  0  0  0  0  0
  -25.1568  -30.3656   22.1747 N   0  0  0  0  0  0  0  0  0  0  0  0
  -21.2508  -17.5791   20.3572 N   0  0  0  0  0  0  0  0  0  0  0  0
  -21.0399  -19.9609   20.4318 N   0  0  0  0  0  0  0  0  0  0  0  0
  -25.3222  -15.1882   20.6345 N   0  0  0  0  0  0  0  0  0  0  0  0
  -25.7687  -10.8213   21.6958 N   0  0  0  0  0  0  0  0  0  0  0  0
  -25.6911  -32.9998   24.2106 N   0  0  0  0  0  0  0  0  0  0  0  0
  -26.6917  -29.3589   19.3306 N   0  0  0  0  0  0  0  0  0  0  0  0
  -19.7808  -22.1650   21.6834 N   0  3  0  0  0  0  0  0  0  0  0  0
  -26.7271  -25.7906   18.7528 N   0  3  0  0  0  0  0  0  0  0  0  0
  -26.8535  -12.8405   21.6244 O   0  0  0  0  0  0  0  0  0  0  0  0
  -23.5676  -32.2427   23.6275 O   0  0  0  0  0  0  0  0  0  0  0  0
  -27.3440  -30.9528   21.6203 O   0  0  0  0  0  0  0  0  0  0  0  0
  -24.9155  -27.9400   18.8733 O   0  0  0  0  0  0  0  0  0  0  0  0
  -22.9969  -18.9126   21.0539 O   0  0  0  0  0  0  0  0  0  0  0  0
  -21.8194   -6.9131   21.2906 O   0  0  0  0  0  0  0  0  0  0  0  0
  -19.5109  -28.0065   23.0218 O   0  0  0  0  0  0  0  0  0  1  0  0
  -23.2751   -4.3819   25.9680 F   0  0  0  0  0  0  0  0  0  0  0  0
  -24.4807   -6.6453   21.9894 F   0  0  0  0  0  0  0  0  0  0  0  0
  1  2  1  0  0  0  0
  1  5  2  0  0  0  0
  2  6  2  0  0  0  0
  3  8  2  0  0  0  0
  3 16  1  0  0  0  0
  4  9  1  0  0  0  0
  4 16  2  0  0  0  0
  5 18  1  0  0  0  0
  6 20  1  0  0  0  0
  7 10  2  0  0  0  0
  7 19  1  0  0  0  0
  8 24  1  0  0  0  0
  9 24  2  0  0  0  0
 10 25  1  0  0  0  0
 11 12  2  0  0  0  0
 11 26  1  0  0  0  0
 12 27  1  0  0  0  0
 13 21  1  0  0  0  0
 13 25  2  0  0  0  0
 14 22  2  0  0  0  0
 14 30  1  0  0  0  0
 15 27  2  0  0  0  0
 15 28  1  0  0  0  0
 16 29  1  0  0  0  0
 17 29  1  0  0  0  0
 17 32  2  0  0  0  0
 17 33  1  0  0  0  0
 18 20  2  0  0  0  0
 18 38  1  0  0  0  0
 19 21  2  0  0  0  0
 19 39  1  0  0  0  0
 20 54  1  0  0  0  0
 21 40  1  0  0  0  0
 22 23  1  0  0  0  0
 22 53  1  0  0  0  0
 23 31  2  0  0  0  0
 23 65  1  0  0  0  0
 24 86  1  0  0  0  0
 25 87  1  0  0  0  0
 26 28  2  0  0  0  0
 26 86  1  0  0  0  0
 27 88  1  0  0  0  0
 28 89  1  0  0  0  0
 29 69  2  0  0  0  0
 30 58  1  0  0  0  0
 30 70  2  0  0  0  0
 31 59  1  0  0  0  0
 31 70  1  0  0  0  0
 32 71  1  0  0  0  0
 32 75  1  0  0  0  0
 33 76  1  0  0  0  0
 33 81  2  0  0  0  0
 34 55  1  0  0  0  0
 34 77  1  0  0  0  0
 34 82  2  0  0  0  0
 35 66  1  0  0  0  0
 35 72  1  0  0  0  0
 35 83  2  0  0  0  0
 36 67  1  0  0  0  0
 36 78  1  0  0  0  0
 36 84  2  0  0  0  0
 37 73  1  0  0  0  0
 37 74  1  0  0  0  0
 37 85  2  0  0  0  0
 38 41  1  0  0  0  0
 39 55  1  0  0  0  0
 40 72  1  0  0  0  0
 41 43  1  0  0  0  0
 42 44  1  0  0  0  0
 42 47  1  0  0  0  0
 43 54  1  0  0  0  0
 44 56  1  0  0  0  0
 45 53  1  0  0  0  0
 45 57  1  0  0  0  0
 46 53  1  0  0  0  0
 46 57  1  0  0  0  0
 47 73  1  0  0  0  0
 48 51  1  0  0  0  0
 48 74  1  0  0  0  0
 49 52  1  0  0  0  0
 49 74  1  0  0  0  0
 50 56  1  0  0  0  0
 50 73  1  0  0  0  0
 51 79  1  0  0  0  0
 52 79  1  0  0  0  0
 54 77  1  0  0  0  0
 55 72  1  0  0  0  0
 56 71  1  0  0  0  0
 57 79  1  0  0  0  0
 60 67  1  0  0  0  0
 61 68  1  0  0  0  0
 62 68  1  0  0  0  0
 63 68  1  0  0  0  0
 64 80  1  0  0  0  0
 65 87  1  0  0  0  0
 66 68  1  0  0  0  0
 66 78  1  0  0  0  0
 67 80  1  0  0  0  0
 69 71  1  0  0  0  0
M  CHG  2  79   1  80   1
M  ISO  4  37 100  65 101  74 100  87 101
M  END
> <Batch ID>
0169

> <Smiles>
CNC(C)C(=O)NC(C(=O)N1Cc2cc([101O:1][101CH2:1]c3c(C4CC(N5CC[100N:0]([100C:0](=O)N6CCCC(n7nc(-c8ccc(Oc9ccc(F)cc9F)cc8)c(C(N)=O)c7N)C6)CC5)C4)cc(C)nc3C)ccc2CC1C(=O)NC1CCCc2ccccc21)C(C)(C)C

> <Shape>
0.264

> <Color>
0.103

> <Negative vol penalty>
0.000

$$$$

  -OEChem-04052322323D

 83 92  0     1  0  0  0  0  0999 V2000
  -23.7413   -8.0125   21.6280 C   0  0  0  0  0  0  0  0  0  0  0  0
  -24.2000   -8.9769   20.7364 C   0  0  0  0  0  0  0  0  0  0  0  0
  -24.0504  -27.8513   21.4547 C   0  0  0  0  0  0  0  0  0  0  0  0
  -24.8538  -28.1991   23.7065 C   0  0  0  0  0  0  0  0  0  0  0  0
  -22.6003   -8.2568   22.3911 C   0  0  0  0  0  0  0  0  0  0  0  0
  -23.5173  -10.1858   20.6067 C   0  0  0  0  0  0  0  0  0  0  0  0
  -26.6332  -14.1769   20.5202 C   0  0  0  0  0  0  0  0  0  0  0  0
  -22.7728  -28.2481   21.8492 C   0  0  0  0  0  0  0  0  0  0  0  0
  -23.5762  -28.5960   24.1011 C   0  0  0  0  0  0  0  0  0  0  0  0
  -27.3036  -14.4355   19.3254 C   0  0  0  0  0  0  0  0  0  0  0  0
  -19.2172  -28.8257   22.3472 C   0  0  0  0  0  0  0  0  0  0  0  0
  -18.1357  -28.0586   21.9144 C   0  0  0  0  0  0  0  0  0  0  0  0
  -25.6910  -16.1506   18.7988 C   0  0  0  0  0  0  0  0  0  0  0  0
  -19.0522  -26.1295   23.0439 C   0  0  0  0  0  0  0  0  0  0  0  0
  -25.0910  -27.8267   22.3834 C   0  0  0  0  0  0  0  0  0  0  0  0
  -27.4418  -28.2376   21.4821 C   0  0  0  0  0  0  0  0  0  0  0  0
  -21.9088   -9.4732   22.2776 C   0  0  0  0  0  0  0  0  0  0  0  0
  -25.4785  -14.8969   20.8587 C   0  0  0  0  0  0  0  0  0  0  0  0
  -22.3652  -10.4461   21.3680 C   0  0  0  0  0  0  0  0  0  0  0  0
  -25.0092  -15.9009   19.9997 C   0  0  0  0  0  0  0  0  0  0  0  0
  -22.5356  -28.6205   23.1724 C   0  0  0  0  0  0  0  0  0  0  0  0
  -26.8309  -15.4205   18.4632 C   0  0  0  0  0  0  0  0  0  0  0  0
  -20.2163  -28.2448   23.1282 C   0  0  0  0  0  0  0  0  0  0  0  0
  -18.0531  -26.7104   22.2628 C   0  0  0  0  0  0  0  0  0  0  0  0
  -20.1338  -26.8967   23.4766 C   0  0  0  0  0  0  0  0  0  0  0  0
  -26.4109  -27.4164   21.9766 C   0  0  0  0  0  0  0  0  0  0  0  0
  -28.4839  -27.3750   21.2444 C   0  0  0  0  0  0  0  0  0  0  0  0
  -28.1655  -18.2875   15.7250 C   0  0  0  0  0  0  0  0  0  0  0  0
  -27.4562  -29.6537   21.2577 C   0  0  0  0  0  0  0  0  0  0  0  0
  -22.4354  -14.1404   21.3796 C   0  0  0  0  0  0  0  0  0  0  0  0
  -22.2071  -17.2661   22.2161 C   0  0  0  0  0  0  0  0  0  0  0  0
  -23.4476  -20.4343   21.9509 C   0  0  0  0  0  0  0  0  0  0  0  0
  -29.6178  -22.2531   19.3650 C   0  0  0  0  0  0  0  0  0  0  0  0
  -20.6531   -9.6728   23.0890 C   0  0  0  0  0  0  0  0  0  0  0  0
  -24.7821  -14.6242   22.1637 C   0  0  0  0  0  0  0  0  0  0  0  0
  -23.7856  -16.7160   20.3263 C   0  0  0  0  0  0  0  0  0  0  0  0
  -27.7985  -17.1762   14.7724 C   0  0  0  0  0  0  0  0  0  0  0  0
  -20.2024  -11.1293   23.1653 C   0  0  0  0  0  0  0  0  0  0  0  0
  -28.9879  -16.2244   14.8610 C   0  0  0  0  0  0  0  0  0  0  0  0
  -29.7149  -22.8607   22.8227 C   0  0  0  0  0  0  0  0  0  0  0  0
  -20.2410  -11.7731   21.7830 C   0  0  0  0  0  0  0  0  0  0  0  0
  -28.9678  -24.1906   22.9185 C   0  0  0  0  0  0  0  0  0  0  0  0
  -28.7422  -18.9124   18.6958 C   0  0  0  0  0  0  0  0  0  0  0  0
  -30.4958  -19.7827   17.1024 C   0  0  0  0  0  0  0  0  0  0  0  0
  -29.0662  -21.9104   21.8147 C   0  0  0  0  0  0  0  0  0  0  0  0
  -29.3518  -19.7713   19.8073 C   0  0  0  0  0  0  0  0  0  0  0  0
  -31.0842  -20.5991   18.2494 C   0  0  0  0  0  0  0  0  0  0  0  0
  -28.1317  -23.8299   20.5651 C   0  0  0  0  0  0  0  0  0  0  0  0
  -21.6662  -11.7797   21.2170 C   0  0  1  0  0  0  0  0  0  0  0  0
  -23.3216  -15.0651   22.1652 C   0  0  1  0  0  0  0  0  0  0  0  0
  -28.7935  -24.8275   21.5282 C   0  0  1  0  0  0  0  0  0  0  0  0
  -29.7811  -18.5376   17.6356 C   0  0  0  0  0  0  0  0  0  0  0  0
  -29.5228  -16.4192   16.2764 C   0  0  2  0  0  0  0  0  0  0  0  0
  -23.6873  -22.8879   22.4198 C   0  0  0  0  0  0  0  0  0  0  0  0
  -19.9070  -17.5016   20.2250 C   0  0  0  0  0  0  0  0  0  0  0  0
  -20.1631  -19.9899   20.3297 C   0  0  0  0  0  0  0  0  0  0  0  0
  -19.5471  -18.7137   22.3827 C   0  0  0  0  0  0  0  0  0  0  0  0
  -25.3365  -19.9429   24.1757 C   0  0  0  0  0  0  0  0  0  0  0  0
  -28.8864  -15.4501   17.2675 C   0  0  0  0  0  0  0  0  0  1  0  0
  -21.9038  -18.5499   21.4819 C   0  0  1  0  0  0  0  0  0  0  0  0
  -23.7609  -21.4846   23.0013 C   0  0  2  0  0  0  0  0  0  0  0  0
  -20.4022  -18.6722   21.0975 C   0  0  0  0  0  0  0  0  0  0  0  0
  -26.7658  -26.1307   22.0491 N   0  0  0  0  0  0  0  0  0  0  0  0
  -28.0313  -26.1377   21.5970 N   0  0  0  0  0  0  0  0  0  0  0  0
  -29.1671  -17.7979   16.5606 N   0  0  0  0  0  0  0  0  0  0  0  0
  -23.1359  -16.4077   21.6110 N   0  0  0  0  0  0  0  0  0  0  0  0
  -28.8836  -22.5743   20.5165 N   0  0  0  0  0  0  0  0  0  0  0  0
  -30.0608  -20.9277   19.2417 N   0  0  0  0  0  0  0  0  0  0  0  0
  -29.7340  -27.5618   20.7703 N   0  0  0  0  0  0  0  0  0  0  0  0
  -26.3009  -30.3891   21.5555 N   0  0  0  0  0  0  0  0  0  0  0  0
  -22.4477  -12.8334   21.8280 N   0  0  0  0  0  0  0  0  0  0  0  0
  -22.3933  -19.6309   22.3306 N   0  0  0  0  0  0  0  0  0  0  0  0
  -25.1300  -21.2750   23.5512 N   0  3  0  0  0  0  0  0  0  0  0  0
  -27.6312  -19.3863   15.7480 O   0  0  0  0  0  0  0  0  0  0  0  0
  -28.4583  -30.2467   20.7911 O   0  0  0  0  0  0  0  0  0  0  0  0
  -21.7873  -14.5804   20.4373 O   0  0  0  0  0  0  0  0  0  0  0  0
  -21.6460  -17.0369   23.2904 O   0  0  0  0  0  0  0  0  0  0  0  0
  -24.0730  -20.3388   20.8972 O   0  0  0  0  0  0  0  0  0  0  0  0
  -29.8629  -23.1007   18.4973 O   0  0  0  0  0  0  0  0  0  0  0  0
  -21.2890  -29.0080   23.5577 O   0  0  0  0  0  0  0  0  0  0  0  0
  -27.4888  -15.6768   17.2856 O   0  0  0  0  0  0  0  0  0  1  0  0
  -17.0136  -25.9742   21.8485 F   0  0  0  0  0  0  0  0  0  0  0  0
  -21.0899  -26.3333   24.2277 F   0  0  0  0  0  0  0  0  0  0  0  0
  1  2  1  0  0  0  0
  1  5  2  0  0  0  0
  2  6  2  0  0  0  0
  3  8  2  0  0  0  0
  3 15  1  0  0  0  0
  4  9  1  0  0  0  0
  4 15  2  0  0  0  0
  5 17  1  0  0  0  0
  6 19  1  0  0  0  0
  7 10  2  0  0  0  0
  7 18  1  0  0  0  0
  8 21  1  0  0  0  0
  9 21  2  0  0  0  0
 10 22  1  0  0  0  0
 11 12  2  0  0  0  0
 11 23  1  0  0  0  0
 12 24  1  0  0  0  0
 13 20  1  0  0  0  0
 13 22  2  0  0  0  0
 14 24  2  0  0  0  0
 14 25  1  0  0  0  0
 15 26  1  0  0  0  0
 16 26  1  0  0  0  0
 16 27  2  0  0  0  0
 16 29  1  0  0  0  0
 17 19  2  0  0  0  0
 17 34  1  0  0  0  0
 18 20  2  0  0  0  0
 18 35  1  0  0  0  0
 19 49  1  0  0  0  0
 20 36  1  0  0  0  0
 21 80  1  0  0  0  0
 22 81  1  0  0  0  0
 23 25  2  0  0  0  0
 23 80  1  0  0  0  0
 24 82  1  0  0  0  0
 25 83  1  0  0  0  0
 26 63  2  0  0  0  0
 27 64  1  0  0  0  0
 27 69  1  0  0  0  0
 28 37  1  0  0  0  0
 28 65  1  0  0  0  0
 28 74  2  0  0  0  0
 29 70  1  0  0  0  0
 29 75  2  0  0  0  0
 30 50  1  0  0  0  0
 30 71  1  0  0  0  0
 30 76  2  0  0  0  0
 31 60  1  0  0  0  0
 31 66  1  0  0  0  0
 31 77  2  0  0  0  0
 32 61  1  0  0  0  0
 32 72  1  0  0  0  0
 32 78  2  0  0  0  0
 33 67  1  0  0  0  0
 33 68  1  0  0  0  0
 33 79  2  0  0  0  0
 34 38  1  0  0  0  0
 35 50  1  0  0  0  0
 36 66  1  0  0  0  0
 37 39  1  0  0  0  0
 38 41  1  0  0  0  0
 39 53  1  0  0  0  0
 40 42  1  0  0  0  0
 40 45  1  0  0  0  0
 41 49  1  0  0  0  0
 42 51  1  0  0  0  0
 43 46  1  0  0  0  0
 43 52  1  0  0  0  0
 44 47  1  0  0  0  0
 44 52  1  0  0  0  0
 45 67  1  0  0  0  0
 46 68  1  0  0  0  0
 47 68  1  0  0  0  0
 48 51  1  0  0  0  0
 48 67  1  0  0  0  0
 49 71  1  0  0  0  0
 50 66  1  0  0  0  0
 51 64  1  0  0  0  0
 52 65  1  0  0  0  0
 53 59  1  0  0  0  0
 53 65  1  0  0  0  0
 54 61  1  0  0  0  0
 55 62  1  0  0  0  0
 56 62  1  0  0  0  0
 57 62  1  0  0  0  0
 58 73  1  0  0  0  0
 59 81  1  0  0  0  0
 60 62  1  0  0  0  0
 60 72  1  0  0  0  0
 61 73  1  0  0  0  0
 63 64  1  0  0  0  0
M  CHG  1  73   1
M  ISO  4  33 100  59 101  68 100  81 101
M  END
> <Batch ID>
0169

> <Smiles>
CNC(C)C(=O)NC(C(=O)N1Cc2cc([101O:1][101CH2:1]C3CCC(=O)N3C3CC[100N:0]([100C:0](=O)N4CCCC(n5nc(-c6ccc(Oc7ccc(F)cc7F)cc6)c(C(N)=O)c5N)C4)CC3)ccc2CC1C(=O)NC1CCCc2ccccc21)C(C)(C)C

> <Shape>
0.216

> <Color>
0.074

> <Negative vol penalty>
0.000

$$$$

  -OEChem-04052322323D

 85 94  0     1  0  0  0  0  0999 V2000
  -29.3771  -33.3785   27.3844 C   0  0  0  0  0  0  0  0  0  0  0  0
  -28.8999  -32.3549   26.5720 C   0  0  0  0  0  0  0  0  0  0  0  0
  -24.0367   -9.4576   22.2155 C   0  0  0  0  0  0  0  0  0  0  0  0
  -23.1196   -9.6974   19.9932 C   0  0  0  0  0  0  0  0  0  0  0  0
  -28.5616  -34.4702   27.6798 C   0  0  0  0  0  0  0  0  0  0  0  0
  -27.6065  -32.4219   26.0554 C   0  0  0  0  0  0  0  0  0  0  0  0
  -27.4064  -31.1752   21.1512 C   0  0  0  0  0  0  0  0  0  0  0  0
  -23.1115   -8.4502   22.4887 C   0  0  0  0  0  0  0  0  0  0  0  0
  -22.1944   -8.6899   20.2663 C   0  0  0  0  0  0  0  0  0  0  0  0
  -27.4539  -29.8178   20.8369 C   0  0  0  0  0  0  0  0  0  0  0  0
  -22.7351   -5.1608   21.8020 C   0  0  0  0  0  0  0  0  0  0  0  0
  -23.2002   -4.0073   22.4333 C   0  0  0  0  0  0  0  0  0  0  0  0
  -25.0579  -29.8047   20.5575 C   0  0  0  0  0  0  0  0  0  0  0  0
  -21.6927   -4.4092   24.2781 C   0  0  0  0  0  0  0  0  0  0  0  0
  -24.9721  -24.7742   20.6318 C   0  0  0  0  0  0  0  0  0  0  0  0
  -24.0407  -10.0813   20.9678 C   0  0  0  0  0  0  0  0  0  0  0  0
  -26.2834  -10.9689   20.1371 C   0  0  0  0  0  0  0  0  0  0  0  0
  -27.2609  -34.5552   27.1586 C   0  0  0  0  0  0  0  0  0  0  0  0
  -26.1810  -31.8563   21.1818 C   0  0  0  0  0  0  0  0  0  0  0  0
  -26.7723  -33.5150   26.3452 C   0  0  0  0  0  0  0  0  0  0  0  0
  -24.9978  -31.1714   20.8700 C   0  0  0  0  0  0  0  0  0  0  0  0
  -25.3110  -25.7191   19.6767 C   0  0  0  0  0  0  0  0  0  0  0  0
  -25.8628  -25.2686   18.4827 C   0  0  0  0  0  0  0  0  0  0  0  0
  -26.0561  -23.9063   18.2829 C   0  0  0  0  0  0  0  0  0  0  0  0
  -22.1903   -8.0663   21.5141 C   0  0  0  0  0  0  0  0  0  0  0  0
  -26.2793  -29.1316   20.5428 C   0  0  0  0  0  0  0  0  0  0  0  0
  -21.7488   -5.9386   22.4087 C   0  0  0  0  0  0  0  0  0  0  0  0
  -22.6790   -3.6315   23.6714 C   0  0  0  0  0  0  0  0  0  0  0  0
  -21.2276   -5.5628   23.6467 C   0  0  0  0  0  0  0  0  0  0  0  0
  -24.9959  -11.1224   20.6852 C   0  0  0  0  0  0  0  0  0  0  0  0
  -25.6840  -23.0425   19.3004 C   0  0  0  0  0  0  0  0  0  0  0  0
  -26.7819  -12.2469   20.0684 C   0  0  0  0  0  0  0  0  0  0  0  0
  -26.9676   -9.7777   19.7267 C   0  0  0  0  0  0  0  0  0  0  0  0
  -24.5197  -33.3854   23.4191 C   0  0  0  0  0  0  0  0  0  0  0  0
  -22.5998  -34.1506   20.9189 C   0  0  0  0  0  0  0  0  0  0  0  0
  -21.4780  -33.3868   17.7877 C   0  0  0  0  0  0  0  0  0  0  0  0
  -26.3879  -17.4759   18.9079 C   0  0  0  0  0  0  0  0  0  0  0  0
  -26.3999  -35.7319   27.5442 C   0  0  0  0  0  0  0  0  0  0  0  0
  -26.1496  -33.3267   21.4966 C   0  0  0  0  0  0  0  0  0  0  0  0
  -23.6589  -31.8612   20.8691 C   0  0  0  0  0  0  0  0  0  0  0  0
  -25.1738  -35.9078   26.6520 C   0  0  0  0  0  0  0  0  0  0  0  0
  -25.0662  -16.5718   22.0344 C   0  0  0  0  0  0  0  0  0  0  0  0
  -24.4663  -34.5720   26.4475 C   0  0  0  0  0  0  0  0  0  0  0  0
  -25.0309  -15.0482   21.9202 C   0  0  0  0  0  0  0  0  0  0  0  0
  -24.6436  -17.2541   20.7323 C   0  0  0  0  0  0  0  0  0  0  0  0
  -27.1451  -21.0555   19.5122 C   0  0  0  0  0  0  0  0  0  0  0  0
  -24.6884  -20.8038   19.1286 C   0  0  0  0  0  0  0  0  0  0  0  0
  -27.3754  -19.7328   18.7861 C   0  0  0  0  0  0  0  0  0  0  0  0
  -24.9631  -19.4935   18.3990 C   0  0  0  0  0  0  0  0  0  0  0  0
  -25.3676  -15.2797   19.4301 C   0  0  0  0  0  0  0  0  0  0  0  0
  -25.3837  -33.5635   25.7456 C   0  0  1  0  0  0  0  0  0  0  0  0
  -24.7900  -33.8010   22.0007 C   0  0  1  0  0  0  0  0  0  0  0  0
  -25.8435  -14.5663   20.7052 C   0  0  2  0  0  0  0  0  0  0  0  0
  -26.2457  -26.2483   17.4197 C   0  0  0  0  0  0  0  0  0  0  0  0
  -26.6475  -23.4013   17.0079 C   0  0  0  0  0  0  0  0  0  0  0  0
  -19.8817  -34.1768   16.0199 C   0  0  0  0  0  0  0  0  0  0  0  0
  -20.2636  -33.0337   22.5328 C   0  0  0  0  0  0  0  0  0  0  0  0
  -18.9248  -32.9681   20.4182 C   0  0  0  0  0  0  0  0  0  0  0  0
  -19.7607  -35.1483   21.2960 C   0  0  0  0  0  0  0  0  0  0  0  0
  -23.6632  -33.7999   15.8349 C   0  0  0  0  0  0  0  0  0  0  0  0
  -25.0811  -27.1661   19.9453 C   0  0  0  0  0  0  0  0  0  1  0  0
  -21.3953  -33.5192   20.2636 C   0  0  1  0  0  0  0  0  0  0  0  0
  -21.3084  -34.2388   16.5428 C   0  0  2  0  0  0  0  0  0  0  0  0
  -20.1110  -33.6536   21.1295 C   0  0  0  0  0  0  0  0  0  0  0  0
  -25.1450  -23.4428   20.4738 N   0  0  0  0  0  0  0  0  0  0  0  0
  -24.6952  -12.3973   20.9464 N   0  0  0  0  0  0  0  0  0  0  0  0
  -25.8010  -13.0566   20.5607 N   0  0  0  0  0  0  0  0  0  0  0  0
  -25.8760  -21.6687   19.1059 N   0  0  0  0  0  0  0  0  0  0  0  0
  -23.6796  -33.2981   21.1894 N   0  0  0  0  0  0  0  0  0  0  0  0
  -25.4172  -16.7337   19.5970 N   0  0  0  0  0  0  0  0  0  0  0  0
  -26.2048  -18.8667   18.8566 N   0  0  0  0  0  0  0  0  0  0  0  0
  -27.9593  -12.7458   19.6356 N   0  0  0  0  0  0  0  0  0  0  0  0
  -26.3101   -8.5478   19.8662 N   0  0  0  0  0  0  0  0  0  0  0  0
  -25.4536  -33.8453   24.3278 N   0  0  0  0  0  0  0  0  0  0  0  0
  -21.2887  -34.1215   18.9390 N   0  0  0  0  0  0  0  0  0  0  0  0
  -22.2247  -33.7696   15.4652 N   0  3  0  0  0  0  0  0  0  0  0  0
  -28.1340   -9.8014   19.2657 O   0  0  0  0  0  0  0  0  0  0  0  0
  -23.5358  -32.6996   23.6707 O   0  0  0  0  0  0  0  0  0  0  0  0
  -22.5860  -35.3573   21.1748 O   0  0  0  0  0  0  0  0  0  0  0  0
  -21.7475  -32.1885   17.7431 O   0  0  0  0  0  0  0  0  0  0  0  0
  -27.3617  -16.9315   18.3728 O   0  0  0  0  0  0  0  0  0  0  0  0
  -21.2875   -7.0831   21.7802 O   0  0  0  0  0  0  0  0  0  0  0  0
  -26.3231  -27.7976   20.2342 O   0  0  0  0  0  0  0  0  0  1  0  0
  -23.1247   -2.5229   24.2769 F   0  0  0  0  0  0  0  0  0  0  0  0
  -20.2791   -6.3053   24.2339 F   0  0  0  0  0  0  0  0  0  0  0  0
  1  2  1  0  0  0  0
  1  5  2  0  0  0  0
  2  6  2  0  0  0  0
  3  8  2  0  0  0  0
  3 16  1  0  0  0  0
  4  9  1  0  0  0  0
  4 16  2  0  0  0  0
  5 18  1  0  0  0  0
  6 20  1  0  0  0  0
  7 10  2  0  0  0  0
  7 19  1  0  0  0  0
  8 25  1  0  0  0  0
  9 25  2  0  0  0  0
 10 26  1  0  0  0  0
 11 12  2  0  0  0  0
 11 27  1  0  0  0  0
 12 28  1  0  0  0  0
 13 21  1  0  0  0  0
 13 26  2  0  0  0  0
 14 28  2  0  0  0  0
 14 29  1  0  0  0  0
 15 22  1  0  0  0  0
 15 65  2  0  0  0  0
 16 30  1  0  0  0  0
 17 30  1  0  0  0  0
 17 32  2  0  0  0  0
 17 33  1  0  0  0  0
 18 20  2  0  0  0  0
 18 38  1  0  0  0  0
 19 21  2  0  0  0  0
 19 39  1  0  0  0  0
 20 51  1  0  0  0  0
 21 40  1  0  0  0  0
 22 23  2  0  0  0  0
 22 61  1  0  0  0  0
 23 24  1  0  0  0  0
 23 54  1  0  0  0  0
 24 31  2  0  0  0  0
 24 55  1  0  0  0  0
 25 82  1  0  0  0  0
 26 83  1  0  0  0  0
 27 29  2  0  0  0  0
 27 82  1  0  0  0  0
 28 84  1  0  0  0  0
 29 85  1  0  0  0  0
 30 66  2  0  0  0  0
 31 65  1  0  0  0  0
 31 68  1  0  0  0  0
 32 67  1  0  0  0  0
 32 72  1  0  0  0  0
 33 73  1  0  0  0  0
 33 77  2  0  0  0  0
 34 52  1  0  0  0  0
 34 74  1  0  0  0  0
 34 78  2  0  0  0  0
 35 62  1  0  0  0  0
 35 69  1  0  0  0  0
 35 79  2  0  0  0  0
 36 63  1  0  0  0  0
 36 75  1  0  0  0  0
 36 80  2  0  0  0  0
 37 70  1  0  0  0  0
 37 71  1  0  0  0  0
 37 81  2  0  0  0  0
 38 41  1  0  0  0  0
 39 52  1  0  0  0  0
 40 69  1  0  0  0  0
 41 43  1  0  0  0  0
 42 44  1  0  0  0  0
 42 45  1  0  0  0  0
 43 51  1  0  0  0  0
 44 53  1  0  0  0  0
 45 70  1  0  0  0  0
 46 48  1  0  0  0  0
 46 68  1  0  0  0  0
 47 49  1  0  0  0  0
 47 68  1  0  0  0  0
 48 71  1  0  0  0  0
 49 71  1  0  0  0  0
 50 53  1  0  0  0  0
 50 70  1  0  0  0  0
 51 74  1  0  0  0  0
 52 69  1  0  0  0  0
 53 67  1  0  0  0  0
 56 63  1  0  0  0  0
 57 64  1  0  0  0  0
 58 64  1  0  0  0  0
 59 64  1  0  0  0  0
 60 76  1  0  0  0  0
 61 83  1  0  0  0  0
 62 64  1  0  0  0  0
 62 75  1  0  0  0  0
 63 76  1  0  0  0  0
 66 67  1  0  0  0  0
M  CHG  1  76   1
M  ISO  4  37 100  61 101  71 100  83 101
M  END
> <Batch ID>
0169

> <Smiles>
CNC(C)C(=O)NC(C(=O)N1Cc2cc([101O:1][101CH2:1]c3cnc(N4CC[100N:0]([100C:0](=O)N5CCCC(n6nc(-c7ccc(Oc8ccc(F)cc8F)cc7)c(C(N)=O)c6N)C5)CC4)c(C)c3C)ccc2CC1C(=O)NC1CCCc2ccccc21)C(C)(C)C

> <Shape>
0.221

> <Color>
0.090

> <Negative vol penalty>
0.000

$$$$

  -OEChem-04052322323D

 87 96  0     1  0  0  0  0  0999 V2000
  -31.2589  -28.3602   19.8604 C   0  0  0  0  0  0  0  0  0  0  0  0
  -30.0369  -27.6989   19.9292 C   0  0  0  0  0  0  0  0  0  0  0  0
  -22.3212  -10.5016   20.9560 C   0  0  0  0  0  0  0  0  0  0  0  0
  -24.3057   -9.2662   21.5665 C   0  0  0  0  0  0  0  0  0  0  0  0
  -31.5473  -29.3851   20.7605 C   0  0  0  0  0  0  0  0  0  0  0  0
  -29.1029  -28.0615   20.8990 C   0  0  0  0  0  0  0  0  0  0  0  0
  -24.4107  -28.4395   19.0319 C   0  0  0  0  0  0  0  0  0  0  0  0
  -21.5770   -9.3223   20.9889 C   0  0  0  0  0  0  0  0  0  0  0  0
  -23.5615   -8.0869   21.5995 C   0  0  0  0  0  0  0  0  0  0  0  0
  -23.7140  -27.2515   18.8154 C   0  0  0  0  0  0  0  0  0  0  0  0
  -21.4155   -6.5563   23.7142 C   0  0  0  0  0  0  0  0  0  0  0  0
  -21.6115   -5.6980   24.7961 C   0  0  0  0  0  0  0  0  0  0  0  0
  -22.5194  -27.5819   20.8850 C   0  0  0  0  0  0  0  0  0  0  0  0
  -26.4068  -21.9806   22.5805 C   0  0  0  0  0  0  0  0  0  0  0  0
  -25.5561  -19.7880   22.0775 C   0  0  0  0  0  0  0  0  0  0  0  0
  -22.3079   -3.9486   23.2823 C   0  0  0  0  0  0  0  0  0  0  0  0
  -23.6856  -10.4735   21.2447 C   0  0  0  0  0  0  0  0  0  0  0  0
  -24.6442  -12.5464   20.1081 C   0  0  0  0  0  0  0  0  0  0  0  0
  -30.6125  -29.7670   21.7356 C   0  0  0  0  0  0  0  0  0  0  0  0
  -24.1745  -29.2034   20.1839 C   0  0  0  0  0  0  0  0  0  0  0  0
  -29.3795  -29.0917   21.8139 C   0  0  0  0  0  0  0  0  0  0  0  0
  -23.2127  -28.7806   21.1125 C   0  0  0  0  0  0  0  0  0  0  0  0
  -25.6382  -21.1436   21.7793 C   0  0  0  0  0  0  0  0  0  0  0  0
  -22.1971   -8.1150   21.3107 C   0  0  0  0  0  0  0  0  0  0  0  0
  -22.7703  -26.8210   19.7434 C   0  0  0  0  0  0  0  0  0  0  0  0
  -21.6655   -6.1107   22.4163 C   0  0  0  0  0  0  0  0  0  0  0  0
  -22.0577   -4.3942   24.5802 C   0  0  0  0  0  0  0  0  0  0  0  0
  -22.1117   -4.8069   22.2003 C   0  0  0  0  0  0  0  0  0  0  0  0
  -24.4551  -11.6912   21.2102 C   0  0  0  0  0  0  0  0  0  0  0  0
  -27.0686  -21.4173   23.6596 C   0  0  0  0  0  0  0  0  0  0  0  0
  -26.2562  -19.3228   23.1789 C   0  0  0  0  0  0  0  0  0  0  0  0
  -25.4458  -13.5531   20.5882 C   0  0  0  0  0  0  0  0  0  0  0  0
  -24.1402  -12.4404   18.7701 C   0  0  0  0  0  0  0  0  0  0  0  0
  -25.9353  -30.1243   22.6648 C   0  0  0  0  0  0  0  0  0  0  0  0
  -23.2823  -31.8329   23.4162 C   0  0  0  0  0  0  0  0  0  0  0  0
  -19.7138  -31.3017   23.3924 C   0  0  0  0  0  0  0  0  0  0  0  0
  -26.7813  -17.2584   24.5239 C   0  0  0  0  0  0  0  0  0  0  0  0
  -30.9880  -30.8489   22.7171 C   0  0  0  0  0  0  0  0  0  0  0  0
  -24.9152  -30.4963   20.3896 C   0  0  0  0  0  0  0  0  0  0  0  0
  -22.9074  -29.5747   22.3553 C   0  0  0  0  0  0  0  0  0  0  0  0
  -29.7947  -31.4246   23.4751 C   0  0  0  0  0  0  0  0  0  0  0  0
  -27.9978  -13.9385   24.9426 C   0  0  0  0  0  0  0  0  0  0  0  0
  -28.8996  -30.3032   23.9928 C   0  0  0  0  0  0  0  0  0  0  0  0
  -27.2001  -13.1282   23.9183 C   0  0  0  0  0  0  0  0  0  0  0  0
  -27.1507  -15.0391   25.5790 C   0  0  0  0  0  0  0  0  0  0  0  0
  -25.6813  -15.1235   23.6034 C   0  0  0  0  0  0  0  0  0  0  0  0
  -22.8777  -21.6623   19.1546 C   0  0  0  0  0  0  0  0  0  0  0  0
  -23.8907  -22.7864   21.0638 C   0  0  0  0  0  0  0  0  0  0  0  0
  -28.3306  -29.4729   22.8359 C   0  0  1  0  0  0  0  0  0  0  0  0
  -24.9636  -30.9312   21.8510 C   0  0  1  0  0  0  0  0  0  0  0  0
  -23.8968  -20.7507   19.8470 C   0  0  2  0  0  0  0  0  0  0  0  0
  -26.5108  -14.0445   22.8883 C   0  0  2  0  0  0  0  0  0  0  0  0
  -24.8834  -21.7137   20.5703 C   0  0  2  0  0  0  0  0  0  0  0  0
  -27.9035  -22.2855   24.5409 C   0  0  0  0  0  0  0  0  0  0  0  0
  -24.5104  -19.7748   18.8434 C   0  0  0  0  0  0  0  0  0  0  0  0
  -25.9027  -22.3255   19.5798 C   0  0  0  0  0  0  0  0  0  0  0  0
  -17.8225  -32.9355   23.1656 C   0  0  0  0  0  0  0  0  0  0  0  0
  -23.2902  -31.8222   26.4673 C   0  0  0  0  0  0  0  0  0  0  0  0
  -20.7896  -31.9296   26.4048 C   0  0  0  0  0  0  0  0  0  0  0  0
  -22.1408  -33.7883   25.4340 C   0  0  0  0  0  0  0  0  0  0  0  0
  -18.5734  -29.8391   21.0860 C   0  0  0  0  0  0  0  0  0  0  0  0
  -21.5712  -23.4612   20.3553 C   0  0  0  0  0  0  0  0  0  0  0  0
  -21.6725  -24.9360   20.6910 C   0  0  0  0  0  0  0  0  0  1  0  0
  -22.0351  -31.5703   24.2252 C   0  0  1  0  0  0  0  0  0  0  0  0
  -18.7077  -31.9303   22.4452 C   0  0  2  0  0  0  0  0  0  0  0  0
  -22.0778  -32.2566   25.6197 C   0  0  0  0  0  0  0  0  0  0  0  0
  -25.0860  -12.1173   22.3077 N   0  0  0  0  0  0  0  0  0  0  0  0
  -27.0130  -20.1053   23.9806 N   0  0  0  0  0  0  0  0  0  0  0  0
  -25.6794  -13.2512   21.8976 N   0  0  0  0  0  0  0  0  0  0  0  0
  -23.6623  -30.8286   22.5147 N   0  0  0  0  0  0  0  0  0  0  0  0
  -26.5326  -15.8697   24.5432 N   0  0  0  0  0  0  0  0  0  0  0  0
  -25.9668  -14.6581   20.0138 N   0  0  0  0  0  0  0  0  0  0  0  0
  -24.9055  -11.7498   17.8205 N   0  0  0  0  0  0  0  0  0  0  0  0
  -26.1665  -17.9398   23.4741 N   0  0  0  0  0  0  0  0  0  0  0  0
  -27.2359  -30.1747   22.2007 N   0  0  0  0  0  0  0  0  0  0  0  0
  -20.9124  -31.9833   23.3901 N   0  0  0  0  0  0  0  0  0  0  0  0
  -22.9130  -22.9591   19.9279 N   0  3  2  0  0  0  0  0  0  0  0  0
  -17.8356  -30.8814   21.8452 N   0  3  0  0  0  0  0  0  0  0  0  0
  -23.0513  -12.9573   18.4226 O   0  0  0  0  0  0  0  0  0  0  0  0
  -25.5351  -29.5032   23.6425 O   0  0  0  0  0  0  0  0  0  0  0  0
  -23.8927  -32.8933   23.5730 O   0  0  0  0  0  0  0  0  0  0  0  0
  -19.4603  -30.3078   24.0695 O   0  0  0  0  0  0  0  0  0  0  0  0
  -27.5098  -17.7989   25.3602 O   0  0  0  0  0  0  0  0  0  0  0  0
  -21.4711   -6.9642   21.3432 O   0  0  0  0  0  0  0  0  0  0  0  0
  -22.0892  -25.6614   19.5349 O   0  0  0  0  0  0  0  0  0  1  0  0
  -22.2475   -3.5707   25.6194 F   0  0  0  0  0  0  0  0  0  0  0  0
  -22.3548   -4.3735   20.9558 F   0  0  0  0  0  0  0  0  0  0  0  0
  1  2  1  0  0  0  0
  1  5  2  0  0  0  0
  2  6  2  0  0  0  0
  3  8  2  0  0  0  0
  3 17  1  0  0  0  0
  4  9  1  0  0  0  0
  4 17  2  0  0  0  0
  5 19  1  0  0  0  0
  6 21  1  0  0  0  0
  7 10  2  0  0  0  0
  7 20  1  0  0  0  0
  8 24  1  0  0  0  0
  9 24  2  0  0  0  0
 10 25  1  0  0  0  0
 11 12  2  0  0  0  0
 11 26  1  0  0  0  0
 12 27  1  0  0  0  0
 13 22  1  0  0  0  0
 13 25  2  0  0  0  0
 14 23  1  0  0  0  0
 14 30  2  0  0  0  0
 15 23  2  0  0  0  0
 15 31  1  0  0  0  0
 16 27  2  0  0  0  0
 16 28  1  0  0  0  0
 17 29  1  0  0  0  0
 18 29  1  0  0  0  0
 18 32  2  0  0  0  0
 18 33  1  0  0  0  0
 19 21  2  0  0  0  0
 19 38  1  0  0  0  0
 20 22  2  0  0  0  0
 20 39  1  0  0  0  0
 21 49  1  0  0  0  0
 22 40  1  0  0  0  0
 23 53  1  0  0  0  0
 24 84  1  0  0  0  0
 25 85  1  0  0  0  0
 26 28  2  0  0  0  0
 26 84  1  0  0  0  0
 27 86  1  0  0  0  0
 28 87  1  0  0  0  0
 29 67  2  0  0  0  0
 30 54  1  0  0  0  0
 30 68  1  0  0  0  0
 31 68  2  0  0  0  0
 31 74  1  0  0  0  0
 32 69  1  0  0  0  0
 32 72  1  0  0  0  0
 33 73  1  0  0  0  0
 33 79  2  0  0  0  0
 34 50  1  0  0  0  0
 34 75  1  0  0  0  0
 34 80  2  0  0  0  0
 35 64  1  0  0  0  0
 35 70  1  0  0  0  0
 35 81  2  0  0  0  0
 36 65  1  0  0  0  0
 36 76  1  0  0  0  0
 36 82  2  0  0  0  0
 37 71  1  0  0  0  0
 37 74  1  0  0  0  0
 37 83  2  0  0  0  0
 38 41  1  0  0  0  0
 39 50  1  0  0  0  0
 40 70  1  0  0  0  0
 41 43  1  0  0  0  0
 42 44  1  0  0  0  0
 42 45  1  0  0  0  0
 43 49  1  0  0  0  0
 44 52  1  0  0  0  0
 45 71  1  0  0  0  0
 46 52  1  0  0  0  0
 46 71  1  0  0  0  0
 47 51  1  0  0  0  0
 47 77  1  0  0  0  0
 48 53  1  0  0  0  0
 48 77  1  0  0  0  0
 49 75  1  0  0  0  0
 50 70  1  0  0  0  0
 51 53  1  0  0  0  0
 51 55  1  0  0  0  0
 52 69  1  0  0  0  0
 53 56  1  0  0  0  0
 57 65  1  0  0  0  0
 58 66  1  0  0  0  0
 59 66  1  0  0  0  0
 60 66  1  0  0  0  0
 61 78  1  0  0  0  0
 62 63  1  0  0  0  0
 62 77  1  0  0  0  0
 63 85  1  0  0  0  0
 64 66  1  0  0  0  0
 64 76  1  0  0  0  0
 65 78  1  0  0  0  0
 67 69  1  0  0  0  0
M  CHG  2  77   1  78   1
M  ISO  4  37 100  63 101  74 100  85 101
M  END
> <Batch ID>
0169

> <Smiles>
CNC(C)C(=O)NC(C(=O)N1Cc2cc([101O:1][101CH2:1]CN3CC(C)C(C)(c4cc(C)nc([100NH:0][100C:0](=O)N5CCCC(n6nc(-c7ccc(Oc8ccc(F)cc8F)cc7)c(C(N)=O)c6N)C5)c4)C3)ccc2CC1C(=O)NC1CCCc2ccccc21)C(C)(C)C

> <Shape>
0.206

> <Color>
0.104

> <Negative vol penalty>
0.000

$$$$

  -OEChem-04052322323D

 84 93  0     1  0  0  0  0  0999 V2000
  -25.6821  -38.0007   23.5257 C   0  0  0  0  0  0  0  0  0  0  0  0
  -26.4219  -37.2094   22.6528 C   0  0  0  0  0  0  0  0  0  0  0  0
  -28.4450  -10.7863   21.7345 C   0  0  0  0  0  0  0  0  0  0  0  0
  -27.4247  -11.3398   23.8534 C   0  0  0  0  0  0  0  0  0  0  0  0
  -24.9946  -37.4118   24.5861 C   0  0  0  0  0  0  0  0  0  0  0  0
  -26.4754  -35.8287   22.8404 C   0  0  0  0  0  0  0  0  0  0  0  0
  -26.9499  -29.7072   19.1501 C   0  0  0  0  0  0  0  0  0  0  0  0
  -28.8369   -9.5493   22.2463 C   0  0  0  0  0  0  0  0  0  0  0  0
  -27.8165  -10.1028   24.3652 C   0  0  0  0  0  0  0  0  0  0  0  0
  -27.7081  -28.5385   19.0955 C   0  0  0  0  0  0  0  0  0  0  0  0
  -28.2339   -6.9445   26.1171 C   0  0  0  0  0  0  0  0  0  0  0  0
  -27.2957   -6.2189   26.8511 C   0  0  0  0  0  0  0  0  0  0  0  0
  -26.4160  -27.6225   20.9151 C   0  0  0  0  0  0  0  0  0  0  0  0
  -25.8330   -6.1657   24.9289 C   0  0  0  0  0  0  0  0  0  0  0  0
  -27.7390  -11.6816   22.5381 C   0  0  0  0  0  0  0  0  0  0  0  0
  -26.1287  -13.2639   21.3503 C   0  0  0  0  0  0  0  0  0  0  0  0
  -25.0320  -36.0221   24.7812 C   0  0  0  0  0  0  0  0  0  0  0  0
  -25.9245  -29.8469   20.0963 C   0  0  0  0  0  0  0  0  0  0  0  0
  -25.7889  -35.2208   23.9052 C   0  0  0  0  0  0  0  0  0  0  0  0
  -25.6446  -28.7930   20.9779 C   0  0  0  0  0  0  0  0  0  0  0  0
  -31.1589  -22.4621   19.1355 C   0  0  0  0  0  0  0  0  0  0  0  0
  -29.7774  -22.5343   18.8832 C   0  0  0  0  0  0  0  0  0  0  0  0
  -31.8856  -23.6420   19.3492 C   0  0  0  0  0  0  0  0  0  0  0  0
  -29.1546  -23.7890   18.8162 C   0  0  0  0  0  0  0  0  0  0  0  0
  -31.2533  -24.8833   19.2883 C   0  0  0  0  0  0  0  0  0  0  0  0
  -29.8892  -24.9569   19.0194 C   0  0  0  0  0  0  0  0  0  0  0  0
  -28.5226   -9.2075   23.5616 C   0  0  0  0  0  0  0  0  0  0  0  0
  -27.4431  -27.4970   19.9800 C   0  0  0  0  0  0  0  0  0  0  0  0
  -27.9717   -7.2807   24.7890 C   0  0  0  0  0  0  0  0  0  0  0  0
  -26.0953   -5.8295   26.2570 C   0  0  0  0  0  0  0  0  0  0  0  0
  -26.7713   -6.8913   24.1949 C   0  0  0  0  0  0  0  0  0  0  0  0
  -27.3345  -12.9598   22.0102 C   0  0  0  0  0  0  0  0  0  0  0  0
  -26.2291  -14.6005   21.0504 C   0  0  0  0  0  0  0  0  0  0  0  0
  -25.0173  -12.4142   21.0365 C   0  0  0  0  0  0  0  0  0  0  0  0
  -25.3687  -31.8183   22.5271 C   0  0  0  0  0  0  0  0  0  0  0  0
  -22.5242  -30.2626   22.6306 C   0  0  0  0  0  0  0  0  0  0  0  0
  -20.7320  -27.4501   21.9058 C   0  0  0  0  0  0  0  0  0  0  0  0
  -28.8833  -18.8992   19.2154 C   0  0  0  0  0  0  0  0  0  0  0  0
  -24.3111  -35.4362   25.9694 C   0  0  0  0  0  0  0  0  0  0  0  0
  -25.0983  -31.1035   20.1246 C   0  0  0  0  0  0  0  0  0  0  0  0
  -31.8589  -21.1310   19.2336 C   0  0  0  0  0  0  0  0  0  0  0  0
  -24.5414  -28.8851   21.9991 C   0  0  0  0  0  0  0  0  0  0  0  0
  -28.9571  -21.2936   18.6422 C   0  0  0  0  0  0  0  0  0  0  0  0
  -24.1143  -33.9252   25.8780 C   0  0  0  0  0  0  0  0  0  0  0  0
  -29.5503  -18.0870   22.5726 C   0  0  0  0  0  0  0  0  0  0  0  0
  -25.4101  -33.2429   25.4513 C   0  0  0  0  0  0  0  0  0  0  0  0
  -28.9353  -16.6919   22.6759 C   0  0  0  0  0  0  0  0  0  0  0  0
  -31.0643  -20.0055   18.5797 C   0  0  0  0  0  0  0  0  0  0  0  0
  -30.2773  -18.2962   21.2431 C   0  0  0  0  0  0  0  0  0  0  0  0
  -28.8315  -16.6090   20.1563 C   0  0  0  0  0  0  0  0  0  0  0  0
  -25.8513  -33.7168   24.0612 C   0  0  1  0  0  0  0  0  0  0  0  0
  -24.4159  -31.3397   21.4684 C   0  0  1  0  0  0  0  0  0  0  0  0
  -28.0445  -16.3906   21.4578 C   0  0  1  0  0  0  0  0  0  0  0  0
  -33.3549  -23.5880   19.6378 C   0  0  0  0  0  0  0  0  0  0  0  0
  -27.6868  -23.8925   18.5313 C   0  0  0  0  0  0  0  0  0  0  0  0
  -32.0394  -26.1374   19.5094 C   0  0  0  0  0  0  0  0  0  0  0  0
  -18.4394  -26.4587   22.1465 C   0  0  0  0  0  0  0  0  0  0  0  0
  -23.0741  -29.7133   25.5812 C   0  0  0  0  0  0  0  0  0  0  0  0
  -21.2837  -27.9644   25.5176 C   0  0  0  0  0  0  0  0  0  0  0  0
  -20.7120  -30.3493   25.0610 C   0  0  0  0  0  0  0  0  0  0  0  0
  -20.3920  -27.2321   18.9740 C   0  0  0  0  0  0  0  0  0  0  0  0
  -29.2127  -26.2897   18.9471 C   0  0  0  0  0  0  0  0  0  1  0  0
  -22.0038  -29.0316   23.3327 C   0  0  1  0  0  0  0  0  0  0  0  0
  -19.3739  -27.2611   21.2546 C   0  0  2  0  0  0  0  0  0  0  0  0
  -21.7905  -29.2634   24.8553 C   0  0  0  0  0  0  0  0  0  0  0  0
  -28.1416  -14.0179   22.1230 N   0  0  0  0  0  0  0  0  0  0  0  0
  -27.4418  -15.0000   21.5299 N   0  0  0  0  0  0  0  0  0  0  0  0
  -23.7657  -30.1364   21.9915 N   0  0  0  0  0  0  0  0  0  0  0  0
  -29.6533  -20.0510   18.9790 N   0  0  0  0  0  0  0  0  0  0  0  0
  -29.4052  -17.9558   20.1119 N   0  0  0  0  0  0  0  0  0  0  0  0
  -25.3975  -15.4612   20.4259 N   0  0  0  0  0  0  0  0  0  0  0  0
  -25.0781  -11.0667   21.4170 N   0  0  0  0  0  0  0  0  0  0  0  0
  -25.0660  -33.0679   23.0332 N   0  0  0  0  0  0  0  0  0  0  0  0
  -20.7987  -28.6309   22.6147 N   0  0  0  0  0  0  0  0  0  0  0  0
  -19.5171  -26.5426   19.9569 N   0  3  0  0  0  0  0  0  0  0  0  0
  -24.0073  -12.8336   20.4220 O   0  0  0  0  0  0  0  0  0  0  0  0
  -26.3081  -31.1058   22.8611 O   0  0  0  0  0  0  0  0  0  0  0  0
  -21.8505  -31.2958   22.6426 O   0  0  0  0  0  0  0  0  0  0  0  0
  -21.6416  -26.6304   21.7996 O   0  0  0  0  0  0  0  0  0  0  0  0
  -27.7937  -18.7263   18.6545 O   0  0  0  0  0  0  0  0  0  0  0  0
  -28.9045   -8.0005   24.0613 O   0  0  0  0  0  0  0  0  0  0  0  0
  -28.1875  -26.3469   19.9289 O   0  0  0  0  0  0  0  0  0  1  0  0
  -25.1950   -5.1314   26.9616 F   0  0  0  0  0  0  0  0  0  0  0  0
  -26.5143   -7.2104   22.9190 F   0  0  0  0  0  0  0  0  0  0  0  0
  1  2  1  0  0  0  0
  1  5  2  0  0  0  0
  2  6  2  0  0  0  0
  3  8  2  0  0  0  0
  3 15  1  0  0  0  0
  4  9  1  0  0  0  0
  4 15  2  0  0  0  0
  5 17  1  0  0  0  0
  6 19  1  0  0  0  0
  7 10  2  0  0  0  0
  7 18  1  0  0  0  0
  8 27  1  0  0  0  0
  9 27  2  0  0  0  0
 10 28  1  0  0  0  0
 11 12  2  0  0  0  0
 11 29  1  0  0  0  0
 12 30  1  0  0  0  0
 13 20  1  0  0  0  0
 13 28  2  0  0  0  0
 14 30  2  0  0  0  0
 14 31  1  0  0  0  0
 15 32  1  0  0  0  0
 16 32  1  0  0  0  0
 16 33  2  0  0  0  0
 16 34  1  0  0  0  0
 17 19  2  0  0  0  0
 17 39  1  0  0  0  0
 18 20  2  0  0  0  0
 18 40  1  0  0  0  0
 19 51  1  0  0  0  0
 20 42  1  0  0  0  0
 21 22  2  0  0  0  0
 21 23  1  0  0  0  0
 21 41  1  0  0  0  0
 22 24  1  0  0  0  0
 22 43  1  0  0  0  0
 23 25  2  0  0  0  0
 23 54  1  0  0  0  0
 24 26  2  0  0  0  0
 24 55  1  0  0  0  0
 25 26  1  0  0  0  0
 25 56  1  0  0  0  0
 26 62  1  0  0  0  0
 27 81  1  0  0  0  0
 28 82  1  0  0  0  0
 29 31  2  0  0  0  0
 29 81  1  0  0  0  0
 30 83  1  0  0  0  0
 31 84  1  0  0  0  0
 32 66  2  0  0  0  0
 33 67  1  0  0  0  0
 33 71  1  0  0  0  0
 34 72  1  0  0  0  0
 34 76  2  0  0  0  0
 35 52  1  0  0  0  0
 35 73  1  0  0  0  0
 35 77  2  0  0  0  0
 36 63  1  0  0  0  0
 36 68  1  0  0  0  0
 36 78  2  0  0  0  0
 37 64  1  0  0  0  0
 37 74  1  0  0  0  0
 37 79  2  0  0  0  0
 38 69  1  0  0  0  0
 38 70  1  0  0  0  0
 38 80  2  0  0  0  0
 39 44  1  0  0  0  0
 40 52  1  0  0  0  0
 41 48  1  0  0  0  0
 42 68  1  0  0  0  0
 43 69  1  0  0  0  0
 44 46  1  0  0  0  0
 45 47  1  0  0  0  0
 45 49  1  0  0  0  0
 46 51  1  0  0  0  0
 47 53  1  0  0  0  0
 48 69  1  0  0  0  0
 49 70  1  0  0  0  0
 50 53  1  0  0  0  0
 50 70  1  0  0  0  0
 51 73  1  0  0  0  0
 52 68  1  0  0  0  0
 53 67  1  0  0  0  0
 57 64  1  0  0  0  0
 58 65  1  0  0  0  0
 59 65  1  0  0  0  0
 60 65  1  0  0  0  0
 61 75  1  0  0  0  0
 62 82  1  0  0  0  0
 63 65  1  0  0  0  0
 63 74  1  0  0  0  0
 64 75  1  0  0  0  0
 66 67  1  0  0  0  0
M  CHG  1  75   1
M  ISO  4  38 100  62 101  69 100  82 101
M  END
> <Batch ID>
0169

> <Smiles>
CNC(C)C(=O)NC(C(=O)N1Cc2cc([101O:1][101CH2:1]c3c(C)c(C)c4c(c3C)C[100N:0]([100C:0](=O)N3CCCC(n5nc(-c6ccc(Oc7ccc(F)cc7F)cc6)c(C(N)=O)c5N)C3)CC4)ccc2CC1C(=O)NC1CCCc2ccccc21)C(C)(C)C

> <Shape>
0.306

> <Color>
0.095

> <Negative vol penalty>
0.000

$$$$

  -OEChem-04052322323D

 87 96  0     1  0  0  0  0  0999 V2000
  -19.1573  -33.5773   20.9927 C   0  0  0  0  0  0  0  0  0  0  0  0
  -20.4221  -33.1954   20.5568 C   0  0  0  0  0  0  0  0  0  0  0  0
  -26.1686  -12.6374   21.9421 C   0  0  0  0  0  0  0  0  0  0  0  0
  -25.3655  -14.0684   20.1689 C   0  0  0  0  0  0  0  0  0  0  0  0
  -18.6264  -33.0250   22.1575 C   0  0  0  0  0  0  0  0  0  0  0  0
  -21.1572  -32.2617   21.2863 C   0  0  0  0  0  0  0  0  0  0  0  0
  -24.9740  -28.0246   19.0537 C   0  0  0  0  0  0  0  0  0  0  0  0
  -25.0071  -11.8708   21.8496 C   0  0  0  0  0  0  0  0  0  0  0  0
  -24.2039  -13.3017   20.0763 C   0  0  0  0  0  0  0  0  0  0  0  0
  -26.3615  -27.9881   18.9221 C   0  0  0  0  0  0  0  0  0  0  0  0
  -23.7764   -9.4460   19.8399 C   0  0  0  0  0  0  0  0  0  0  0  0
  -23.9137   -8.0580   19.8454 C   0  0  0  0  0  0  0  0  0  0  0  0
  -26.5208  -26.7744   21.0008 C   0  0  0  0  0  0  0  0  0  0  0  0
  -22.5526   -7.9312   21.8375 C   0  0  0  0  0  0  0  0  0  0  0  0
  -26.3478  -13.7363   21.1018 C   0  0  0  0  0  0  0  0  0  0  0  0
  -28.7521  -14.3357   20.4954 C   0  0  0  0  0  0  0  0  0  0  0  0
  -19.3514  -32.0767   22.8964 C   0  0  0  0  0  0  0  0  0  0  0  0
  -24.3492  -27.4448   20.1673 C   0  0  0  0  0  0  0  0  0  0  0  0
  -20.6360  -31.6971   22.4629 C   0  0  0  0  0  0  0  0  0  0  0  0
  -25.1250  -26.8027   21.1429 C   0  0  0  0  0  0  0  0  0  0  0  0
  -24.0247  -12.2028   20.9167 C   0  0  0  0  0  0  0  0  0  0  0  0
  -27.1353  -27.3655   19.8971 C   0  0  0  0  0  0  0  0  0  0  0  0
  -23.0273  -10.0767   20.8332 C   0  0  0  0  0  0  0  0  0  0  0  0
  -23.3018   -7.3006   20.8442 C   0  0  0  0  0  0  0  0  0  0  0  0
  -22.4154   -9.3193   21.8320 C   0  0  0  0  0  0  0  0  0  0  0  0
  -27.5472  -14.5290   21.1973 C   0  0  0  0  0  0  0  0  0  0  0  0
  -29.5725  -15.3449   20.9370 C   0  0  0  0  0  0  0  0  0  0  0  0
  -31.1435  -25.6651   19.7999 C   0  0  0  0  0  0  0  0  0  0  0  0
  -29.0987  -13.3336   19.5303 C   0  0  0  0  0  0  0  0  0  0  0  0
  -22.5437  -28.5337   22.5459 C   0  0  0  0  0  0  0  0  0  0  0  0
  -22.2816  -25.3828   23.2706 C   0  0  0  0  0  0  0  0  0  0  0  0
  -23.6026  -22.0444   23.6275 C   0  0  0  0  0  0  0  0  0  0  0  0
  -28.7910  -20.9919   22.5620 C   0  0  0  0  0  0  0  0  0  0  0  0
  -18.7555  -31.5427   24.1749 C   0  0  0  0  0  0  0  0  0  0  0  0
  -22.8496  -27.4693   20.2811 C   0  0  0  0  0  0  0  0  0  0  0  0
  -24.5015  -26.1475   22.3472 C   0  0  0  0  0  0  0  0  0  0  0  0
  -19.4440  -30.2802   24.6869 C   0  0  0  0  0  0  0  0  0  0  0  0
  -29.7000  -18.2698   24.9082 C   0  0  0  0  0  0  0  0  0  0  0  0
  -20.9599  -30.4456   24.6480 C   0  0  0  0  0  0  0  0  0  0  0  0
  -29.2722  -17.0185   24.1435 C   0  0  0  0  0  0  0  0  0  0  0  0
  -29.0877  -23.2614   19.9546 C   0  0  0  0  0  0  0  0  0  0  0  0
  -30.6904  -21.3383   19.6150 C   0  0  0  0  0  0  0  0  0  0  0  0
  -28.8670  -19.4860   24.5159 C   0  0  0  0  0  0  0  0  0  0  0  0
  -28.0910  -22.2798   20.5653 C   0  0  0  0  0  0  0  0  0  0  0  0
  -29.6689  -20.3963   20.2591 C   0  0  0  0  0  0  0  0  0  0  0  0
  -28.4283  -18.5080   22.2858 C   0  0  0  0  0  0  0  0  0  0  0  0
  -31.1326  -25.7145   17.3311 C   0  0  0  0  0  0  0  0  0  0  0  0
  -21.4539  -30.6686   23.2135 C   0  0  1  0  0  0  0  0  0  0  0  0
  -31.6704  -24.2542   19.6358 C   0  0  2  0  0  0  0  0  0  0  0  0
  -22.3563  -27.2964   21.7143 C   0  0  1  0  0  0  0  0  0  0  0  0
  -29.2785  -17.2749   22.6267 C   0  0  2  0  0  0  0  0  0  0  0  0
  -30.0014  -22.5377   18.9677 C   0  0  0  0  0  0  0  0  0  0  0  0
  -30.5096  -24.3262   17.3205 C   0  0  1  0  0  0  0  0  0  0  0  0
  -33.1894  -24.2374   19.4838 C   0  0  0  0  0  0  0  0  0  0  0  0
  -30.8024  -23.6027   16.0086 C   0  0  0  0  0  0  0  0  0  0  0  0
  -22.4688  -19.9020   24.2771 C   0  0  0  0  0  0  0  0  0  0  0  0
  -23.2146  -26.0819   26.0903 C   0  0  0  0  0  0  0  0  0  0  0  0
  -23.6833  -23.6510   26.4628 C   0  0  0  0  0  0  0  0  0  0  0  0
  -21.3553  -24.4124   25.9906 C   0  0  0  0  0  0  0  0  0  0  0  0
  -24.5219  -20.6772   21.1690 C   0  0  0  0  0  0  0  0  0  0  0  0
  -30.5599  -27.7653   18.6198 C   0  0  0  0  0  0  0  0  0  0  0  0
  -29.0527  -27.9478   18.6163 C   0  0  0  0  0  0  0  0  0  1  0  0
  -23.0621  -24.4139   24.1255 C   0  0  1  0  0  0  0  0  0  0  0  0
  -22.9710  -20.7586   23.1252 C   0  0  2  0  0  0  0  0  0  0  0  0
  -22.8410  -24.6537   25.6457 C   0  0  0  0  0  0  0  0  0  0  0  0
  -27.5938  -15.5783   22.0224 N   0  0  0  0  0  0  0  0  0  0  0  0
  -28.8379  -16.0534   21.8417 N   0  0  0  0  0  0  0  0  0  0  0  0
  -30.9343  -26.3601   18.6175 N   0  0  0  0  0  0  0  0  0  0  0  0
  -23.0319  -26.2035   22.4167 N   0  0  0  0  0  0  0  0  0  0  0  0
  -28.8490  -19.6818   23.0661 N   0  0  0  0  0  0  0  0  0  0  0  0
  -28.7780  -21.1349   21.1662 N   0  0  0  0  0  0  0  0  0  0  0  0
  -30.8434  -15.6863   20.6360 N   0  0  0  0  0  0  0  0  0  0  0  0
  -28.1373  -12.3720   19.1909 N   0  0  0  0  0  0  0  0  0  0  0  0
  -21.4821  -29.4165   22.4883 N   0  0  0  0  0  0  0  0  0  0  0  0
  -22.6911  -23.0781   23.6712 N   0  0  0  0  0  0  0  0  0  0  0  0
  -31.0353  -23.4861   18.4786 N   0  3  1  0  0  0  0  0  0  0  0  0
  -23.9626  -19.9643   22.3463 N   0  3  0  0  0  0  0  0  0  0  0  0
  -30.9879  -26.1388   20.9269 O   0  0  0  0  0  0  0  0  0  0  0  0
  -30.2331  -13.2823   18.9974 O   0  0  0  0  0  0  0  0  0  0  0  0
  -23.5744  -28.6763   23.1932 O   0  0  0  0  0  0  0  0  0  0  0  0
  -21.0509  -25.4055   23.3520 O   0  0  0  0  0  0  0  0  0  0  0  0
  -24.7853  -22.1229   23.9525 O   0  0  0  0  0  0  0  0  0  0  0  0
  -28.7552  -21.9734   23.3147 O   0  0  0  0  0  0  0  0  0  0  0  0
  -22.8913  -11.4548   20.8259 O   0  0  0  0  0  0  0  0  0  0  0  0
  -28.4994  -27.3287   19.7705 O   0  0  0  0  0  0  0  0  0  1  0  0
  -23.4325   -5.9675   20.8485 F   0  0  0  0  0  0  0  0  0  0  0  0
  -21.6934   -9.9195   22.7883 F   0  0  0  0  0  0  0  0  0  0  0  0
  1  2  1  0  0  0  0
  1  5  2  0  0  0  0
  2  6  2  0  0  0  0
  3  8  2  0  0  0  0
  3 15  1  0  0  0  0
  4  9  1  0  0  0  0
  4 15  2  0  0  0  0
  5 17  1  0  0  0  0
  6 19  1  0  0  0  0
  7 10  2  0  0  0  0
  7 18  1  0  0  0  0
  8 21  1  0  0  0  0
  9 21  2  0  0  0  0
 10 22  1  0  0  0  0
 11 12  2  0  0  0  0
 11 23  1  0  0  0  0
 12 24  1  0  0  0  0
 13 20  1  0  0  0  0
 13 22  2  0  0  0  0
 14 24  2  0  0  0  0
 14 25  1  0  0  0  0
 15 26  1  0  0  0  0
 16 26  1  0  0  0  0
 16 27  2  0  0  0  0
 16 29  1  0  0  0  0
 17 19  2  0  0  0  0
 17 34  1  0  0  0  0
 18 20  2  0  0  0  0
 18 35  1  0  0  0  0
 19 48  1  0  0  0  0
 20 36  1  0  0  0  0
 21 84  1  0  0  0  0
 22 85  1  0  0  0  0
 23 25  2  0  0  0  0
 23 84  1  0  0  0  0
 24 86  1  0  0  0  0
 25 87  1  0  0  0  0
 26 66  2  0  0  0  0
 27 67  1  0  0  0  0
 27 72  1  0  0  0  0
 28 49  1  0  0  0  0
 28 68  1  0  0  0  0
 28 78  2  0  0  0  0
 29 73  1  0  0  0  0
 29 79  2  0  0  0  0
 30 50  1  0  0  0  0
 30 74  1  0  0  0  0
 30 80  2  0  0  0  0
 31 63  1  0  0  0  0
 31 69  1  0  0  0  0
 31 81  2  0  0  0  0
 32 64  1  0  0  0  0
 32 75  1  0  0  0  0
 32 82  2  0  0  0  0
 33 70  1  0  0  0  0
 33 71  1  0  0  0  0
 33 83  2  0  0  0  0
 34 37  1  0  0  0  0
 35 50  1  0  0  0  0
 36 69  1  0  0  0  0
 37 39  1  0  0  0  0
 38 40  1  0  0  0  0
 38 43  1  0  0  0  0
 39 48  1  0  0  0  0
 40 51  1  0  0  0  0
 41 44  1  0  0  0  0
 41 52  1  0  0  0  0
 42 45  1  0  0  0  0
 42 52  1  0  0  0  0
 43 70  1  0  0  0  0
 44 71  1  0  0  0  0
 45 71  1  0  0  0  0
 46 51  1  0  0  0  0
 46 70  1  0  0  0  0
 47 53  1  0  0  0  0
 47 68  1  0  0  0  0
 48 74  1  0  0  0  0
 49 54  1  0  0  0  0
 49 76  1  0  0  0  0
 50 69  1  0  0  0  0
 51 67  1  0  0  0  0
 52 76  1  0  0  0  0
 53 55  1  0  0  0  0
 53 76  1  0  0  0  0
 56 64  1  0  0  0  0
 57 65  1  0  0  0  0
 58 65  1  0  0  0  0
 59 65  1  0  0  0  0
 60 77  1  0  0  0  0
 61 62  1  0  0  0  0
 61 68  1  0  0  0  0
 62 85  1  0  0  0  0
 63 65  1  0  0  0  0
 63 75  1  0  0  0  0
 64 77  1  0  0  0  0
 66 67  1  0  0  0  0
M  CHG  2  76   1  77   1
M  ISO  4  33 100  62 101  71 100  85 101
M  END
> <Batch ID>
0169

> <Smiles>
CNC(C)C(=O)NC(C(=O)N1Cc2cc([101O:1][101CH2:1]CN3CC(C)N(C4CC[100N:0]([100C:0](=O)N5CCCC(n6nc(-c7ccc(Oc8ccc(F)cc8F)cc7)c(C(N)=O)c6N)C5)CC4)C(C)C3=O)ccc2CC1C(=O)NC1CCCc2ccccc21)C(C)(C)C

> <Shape>
0.252

> <Color>
0.089

> <Negative vol penalty>
0.000

$$$$

  -OEChem-04052322323D

 92102  0     1  0  0  0  0  0999 V2000
  -21.6573  -28.7452   25.6974 C   0  0  0  0  0  0  0  0  0  0  0  0
  -21.7450  -27.3839   25.9709 C   0  0  0  0  0  0  0  0  0  0  0  0
  -29.4762  -23.5408   21.1745 C   0  0  0  0  0  0  0  0  0  0  0  0
  -27.4865  -23.1409   19.8637 C   0  0  0  0  0  0  0  0  0  0  0  0
  -21.1041  -29.1789   24.4934 C   0  0  0  0  0  0  0  0  0  0  0  0
  -21.2784  -26.4556   25.0408 C   0  0  0  0  0  0  0  0  0  0  0  0
  -23.6243  -20.9214   23.8682 C   0  0  0  0  0  0  0  0  0  0  0  0
  -29.3809  -24.9056   20.9029 C   0  0  0  0  0  0  0  0  0  0  0  0
  -27.3911  -24.5057   19.5921 C   0  0  0  0  0  0  0  0  0  0  0  0
  -23.2680  -19.6423   24.2935 C   0  0  0  0  0  0  0  0  0  0  0  0
  -26.4182  -27.9295   18.8511 C   0  0  0  0  0  0  0  0  0  0  0  0
  -25.1632  -28.5277   18.9632 C   0  0  0  0  0  0  0  0  0  0  0  0
  -21.9937  -19.3306   22.2691 C   0  0  0  0  0  0  0  0  0  0  0  0
  -25.0683  -27.8920   21.2922 C   0  0  0  0  0  0  0  0  0  0  0  0
  -28.5291  -22.6584   20.6549 C   0  0  0  0  0  0  0  0  0  0  0  0
  -28.0537  -20.5544   22.0168 C   0  0  0  0  0  0  0  0  0  0  0  0
  -20.6393  -28.2552   23.5439 C   0  0  0  0  0  0  0  0  0  0  0  0
  -23.1582  -21.4196   22.6431 C   0  0  0  0  0  0  0  0  0  0  0  0
  -20.7173  -26.8775   23.8235 C   0  0  0  0  0  0  0  0  0  0  0  0
  -22.3476  -20.6154   21.8294 C   0  0  0  0  0  0  0  0  0  0  0  0
  -24.3076  -12.1313   21.0735 C   0  0  0  0  0  0  0  0  0  0  0  0
  -24.0633  -13.2653   21.8229 C   0  0  0  0  0  0  0  0  0  0  0  0
  -25.4361  -12.1159   20.2569 C   0  0  0  0  0  0  0  0  0  0  0  0
  -28.3383  -25.3881   20.1118 C   0  0  0  0  0  0  0  0  0  0  0  0
  -22.4503  -18.8478   23.4953 C   0  0  0  0  0  0  0  0  0  0  0  0
  -26.9984  -27.3125   19.9595 C   0  0  0  0  0  0  0  0  0  0  0  0
  -24.4882  -28.5090   20.1838 C   0  0  0  0  0  0  0  0  0  0  0  0
  -26.3234  -27.2938   21.1800 C   0  0  0  0  0  0  0  0  0  0  0  0
  -28.6274  -21.2484   20.9346 C   0  0  0  0  0  0  0  0  0  0  0  0
  -24.9536  -14.3298   21.7393 C   0  0  0  0  0  0  0  0  0  0  0  0
  -26.2651  -13.2372   20.2410 C   0  0  0  0  0  0  0  0  0  0  0  0
  -28.4381  -19.2490   21.8301 C   0  0  0  0  0  0  0  0  0  0  0  0
  -27.2456  -21.0457   23.0944 C   0  0  0  0  0  0  0  0  0  0  0  0
  -21.3340  -23.8707   21.7664 C   0  0  0  0  0  0  0  0  0  0  0  0
  -22.1629  -22.9156   18.7793 C   0  0  0  0  0  0  0  0  0  0  0  0
  -23.2262  -20.4004   16.7323 C   0  0  0  0  0  0  0  0  0  0  0  0
  -29.1978  -14.8265   18.5120 C   0  0  0  0  0  0  0  0  0  0  0  0
  -20.0060  -28.7731   22.2769 C   0  0  0  0  0  0  0  0  0  0  0  0
  -23.5733  -22.7913   22.1864 C   0  0  0  0  0  0  0  0  0  0  0  0
  -21.8374  -21.0959   20.4962 C   0  0  0  0  0  0  0  0  0  0  0  0
  -24.5322  -15.4443   22.6454 C   0  0  0  0  0  0  0  0  0  0  0  0
  -19.8774  -27.7152   21.1838 C   0  0  0  0  0  0  0  0  0  0  0  0
  -31.8168  -17.2346   18.6500 C   0  0  0  0  0  0  0  0  0  0  0  0
  -19.3131  -26.4198   21.7584 C   0  0  0  0  0  0  0  0  0  0  0  0
  -31.1715  -18.4377   19.3400 C   0  0  0  0  0  0  0  0  0  0  0  0
  -22.7867  -10.6483   19.7793 C   0  0  0  0  0  0  0  0  0  0  0  0
  -24.2022   -9.7147   21.6532 C   0  0  0  0  0  0  0  0  0  0  0  0
  -30.8319  -16.5162   17.7303 C   0  0  0  0  0  0  0  0  0  0  0  0
  -28.9194  -17.3201   19.0606 C   0  0  0  0  0  0  0  0  0  0  0  0
  -21.9344   -9.3861   19.8072 C   0  0  0  0  0  0  0  0  0  0  0  0
  -23.3388   -8.4597   21.6669 C   0  0  0  0  0  0  0  0  0  0  0  0
  -23.4163  -10.9392   21.1528 C   0  0  0  0  0  0  0  0  0  0  0  0
  -20.2448  -25.8392   22.8291 C   0  0  1  0  0  0  0  0  0  0  0  0
  -22.9628  -13.5613   22.7912 C   0  0  2  0  0  0  0  0  0  0  0  0
  -22.6212  -23.3919   21.1568 C   0  0  1  0  0  0  0  0  0  0  0  0
  -29.8578  -18.0436   20.0416 C   0  0  2  0  0  0  0  0  0  0  0  0
  -25.7559  -10.9197   19.4220 C   0  0  0  0  0  0  0  0  0  0  0  0
  -21.5496  -13.3615   22.2565 C   0  0  0  0  0  0  0  0  0  0  0  0
  -23.7763  -19.9127   14.3330 C   0  0  0  0  0  0  0  0  0  0  0  0
  -19.1856  -22.8230   18.1181 C   0  0  0  0  0  0  0  0  0  0  0  0
  -19.7479  -21.4552   16.0979 C   0  0  0  0  0  0  0  0  0  0  0  0
  -20.6261  -23.7802   16.3117 C   0  0  0  0  0  0  0  0  0  0  0  0
  -22.0140   -6.9277   20.2133 C   0  0  0  0  0  0  0  0  0  0  0  0
  -26.0289  -19.7167   17.3929 C   0  0  0  0  0  0  0  0  0  0  0  0
  -27.4853  -13.2528   19.3780 C   0  0  0  0  0  0  0  0  0  0  0  0
  -22.8605  -15.4110   24.5539 C   0  0  0  0  0  0  0  0  0  0  0  0
  -23.0303  -16.9059   24.7397 C   0  0  0  0  0  0  0  0  0  1  0  0
  -21.5908  -21.9522   17.7676 C   0  0  1  0  0  0  0  0  0  0  0  0
  -24.3221  -20.3509   15.6831 C   0  0  2  0  0  0  0  0  0  0  0  0
  -20.2955  -22.4940   17.0998 C   0  0  0  0  0  0  0  0  0  0  0  0
  -29.3234  -20.4500   20.1208 N   0  0  0  0  0  0  0  0  0  0  0  0
  -26.0552  -14.3583   20.9714 N   0  0  0  0  0  0  0  0  0  0  0  0
  -29.1896  -19.2409   20.6919 N   0  0  0  0  0  0  0  0  0  0  0  0
  -22.2658  -22.4465   20.0965 N   0  0  0  0  0  0  0  0  0  0  0  0
  -29.6084  -16.1687   18.4570 N   0  0  0  0  0  0  0  0  0  0  0  0
  -28.2032  -18.1189   22.5301 N   0  0  0  0  0  0  0  0  0  0  0  0
  -26.9453  -22.4141   23.1342 N   0  0  0  0  0  0  0  0  0  0  0  0
  -21.3744  -25.1782   22.2115 N   0  0  0  0  0  0  0  0  0  0  0  0
  -22.6685  -21.6577   16.8294 N   0  0  0  0  0  0  0  0  0  0  0  0
  -28.0312  -14.5831   19.2264 N   0  0  0  0  0  0  0  0  0  0  0  0
  -23.1298  -15.0596   23.1368 N   0  3  1  0  0  0  0  0  0  0  0  0
  -22.7716   -8.2250   20.2874 N   0  3  0  0  0  0  0  0  0  0  0  0
  -25.3881  -19.3932   16.0923 N   0  3  0  0  0  0  0  0  0  0  0  0
  -26.8166  -20.2963   24.0042 O   0  0  0  0  0  0  0  0  0  0  0  0
  -20.3747  -23.1106   21.8271 O   0  0  0  0  0  0  0  0  0  0  0  0
  -22.5125  -24.0404   18.4128 O   0  0  0  0  0  0  0  0  0  0  0  0
  -22.8952  -19.4207   17.3966 O   0  0  0  0  0  0  0  0  0  0  0  0
  -29.8275  -13.9121   17.9695 O   0  0  0  0  0  0  0  0  0  0  0  0
  -28.2448  -26.7198   19.8467 O   0  0  0  0  0  0  0  0  0  0  0  0
  -22.1006  -17.5992   23.9083 O   0  0  0  0  0  0  0  0  0  1  0  0
  -23.2836  -29.0847   20.2917 F   0  0  0  0  0  0  0  0  0  0  0  0
  -26.8762  -26.7037   22.2487 F   0  0  0  0  0  0  0  0  0  0  0  0
  1  2  1  0  0  0  0
  1  5  2  0  0  0  0
  2  6  2  0  0  0  0
  3  8  2  0  0  0  0
  3 15  1  0  0  0  0
  4  9  1  0  0  0  0
  4 15  2  0  0  0  0
  5 17  1  0  0  0  0
  6 19  1  0  0  0  0
  7 10  2  0  0  0  0
  7 18  1  0  0  0  0
  8 24  1  0  0  0  0
  9 24  2  0  0  0  0
 10 25  1  0  0  0  0
 11 12  2  0  0  0  0
 11 26  1  0  0  0  0
 12 27  1  0  0  0  0
 13 20  1  0  0  0  0
 13 25  2  0  0  0  0
 14 27  2  0  0  0  0
 14 28  1  0  0  0  0
 15 29  1  0  0  0  0
 16 29  1  0  0  0  0
 16 32  2  0  0  0  0
 16 33  1  0  0  0  0
 17 19  2  0  0  0  0
 17 38  1  0  0  0  0
 18 20  2  0  0  0  0
 18 39  1  0  0  0  0
 19 53  1  0  0  0  0
 20 40  1  0  0  0  0
 21 22  1  0  0  0  0
 21 23  2  0  0  0  0
 21 52  1  0  0  0  0
 22 30  2  0  0  0  0
 22 54  1  0  0  0  0
 23 31  1  0  0  0  0
 23 57  1  0  0  0  0
 24 89  1  0  0  0  0
 25 90  1  0  0  0  0
 26 28  2  0  0  0  0
 26 89  1  0  0  0  0
 27 91  1  0  0  0  0
 28 92  1  0  0  0  0
 29 71  2  0  0  0  0
 30 41  1  0  0  0  0
 30 72  1  0  0  0  0
 31 65  1  0  0  0  0
 31 72  2  0  0  0  0
 32 73  1  0  0  0  0
 32 76  1  0  0  0  0
 33 77  1  0  0  0  0
 33 84  2  0  0  0  0
 34 55  1  0  0  0  0
 34 78  1  0  0  0  0
 34 85  2  0  0  0  0
 35 68  1  0  0  0  0
 35 74  1  0  0  0  0
 35 86  2  0  0  0  0
 36 69  1  0  0  0  0
 36 79  1  0  0  0  0
 36 87  2  0  0  0  0
 37 75  1  0  0  0  0
 37 80  1  0  0  0  0
 37 88  2  0  0  0  0
 38 42  1  0  0  0  0
 39 55  1  0  0  0  0
 40 74  1  0  0  0  0
 41 81  1  0  0  0  0
 42 44  1  0  0  0  0
 43 45  1  0  0  0  0
 43 48  1  0  0  0  0
 44 53  1  0  0  0  0
 45 56  1  0  0  0  0
 46 50  1  0  0  0  0
 46 52  1  0  0  0  0
 47 51  1  0  0  0  0
 47 52  1  0  0  0  0
 48 75  1  0  0  0  0
 49 56  1  0  0  0  0
 49 75  1  0  0  0  0
 50 82  1  0  0  0  0
 51 82  1  0  0  0  0
 53 78  1  0  0  0  0
 54 58  1  0  0  0  0
 54 81  1  0  0  0  0
 55 74  1  0  0  0  0
 56 73  1  0  0  0  0
 59 69  1  0  0  0  0
 60 70  1  0  0  0  0
 61 70  1  0  0  0  0
 62 70  1  0  0  0  0
 63 82  1  0  0  0  0
 64 83  1  0  0  0  0
 65 80  1  0  0  0  0
 66 67  1  0  0  0  0
 66 81  1  0  0  0  0
 67 90  1  0  0  0  0
 68 70  1  0  0  0  0
 68 79  1  0  0  0  0
 69 83  1  0  0  0  0
 71 73  1  0  0  0  0
M  CHG  3  81   1  82   1  83   1
M  ISO  4  37 100  67 101  80 100  90 101
M  END
> <Batch ID>
0169

> <Smiles>
CNC(C)C(=O)NC(C(=O)N1Cc2cc([101O:1][101CH2:1]CN3Cc4nc(C[100NH:0][100C:0](=O)N5CCCC(n6nc(-c7ccc(Oc8ccc(F)cc8F)cc7)c(C(N)=O)c6N)C5)c(C)c(C5CCN(C)CC5)c4C3C)ccc2CC1C(=O)NC1CCCc2ccccc21)C(C)(C)C

> <Shape>
0.224

> <Color>
0.085

> <Negative vol penalty>
0.000

$$$$

  -OEChem-04052322323D

 85 94  0     1  0  0  0  0  0999 V2000
  -20.6772  -34.4608   21.5025 C   0  0  0  0  0  0  0  0  0  0  0  0
  -21.8986  -33.8487   21.2398 C   0  0  0  0  0  0  0  0  0  0  0  0
  -25.7573  -10.1254   22.1846 C   0  0  0  0  0  0  0  0  0  0  0  0
  -23.4181  -10.1741   21.5820 C   0  0  0  0  0  0  0  0  0  0  0  0
  -19.7605  -33.8474   22.3553 C   0  0  0  0  0  0  0  0  0  0  0  0
  -22.2045  -32.6232   21.8307 C   0  0  0  0  0  0  0  0  0  0  0  0
  -25.4613  -28.0592   19.3674 C   0  0  0  0  0  0  0  0  0  0  0  0
  -25.6901   -8.7401   22.3333 C   0  0  0  0  0  0  0  0  0  0  0  0
  -23.3510   -8.7888   21.7307 C   0  0  0  0  0  0  0  0  0  0  0  0
  -26.7949  -27.6772   19.5063 C   0  0  0  0  0  0  0  0  0  0  0  0
  -23.1135   -6.5638   24.2652 C   0  0  0  0  0  0  0  0  0  0  0  0
  -22.0232   -6.0385   24.9585 C   0  0  0  0  0  0  0  0  0  0  0  0
  -26.1533  -26.0695   21.1864 C   0  0  0  0  0  0  0  0  0  0  0  0
  -29.4006  -23.4673   20.7134 C   0  0  0  0  0  0  0  0  0  0  0  0
  -21.3813   -4.7821   22.9973 C   0  0  0  0  0  0  0  0  0  0  0  0
  -29.0037  -21.4108   19.5866 C   0  0  0  0  0  0  0  0  0  0  0  0
  -24.6212  -10.8424   21.8090 C   0  0  0  0  0  0  0  0  0  0  0  0
  -25.0061  -12.9890   20.4854 C   0  0  0  0  0  0  0  0  0  0  0  0
  -20.0513  -32.6091   22.9494 C   0  0  0  0  0  0  0  0  0  0  0  0
  -24.4633  -27.4557   20.1461 C   0  0  0  0  0  0  0  0  0  0  0  0
  -21.2913  -31.9933   22.6933 C   0  0  0  0  0  0  0  0  0  0  0  0
  -24.8074  -26.4438   21.0536 C   0  0  0  0  0  0  0  0  0  0  0  0
  -29.9082  -23.9845   19.5267 C   0  0  0  0  0  0  0  0  0  0  0  0
  -28.9377  -22.1568   20.7523 C   0  0  0  0  0  0  0  0  0  0  0  0
  -24.4870   -8.0718   22.1063 C   0  0  0  0  0  0  0  0  0  0  0  0
  -27.1415  -26.6843   20.4180 C   0  0  0  0  0  0  0  0  0  0  0  0
  -23.3378   -6.1983   22.9378 C   0  0  0  0  0  0  0  0  0  0  0  0
  -21.1571   -5.1477   24.3246 C   0  0  0  0  0  0  0  0  0  0  0  0
  -22.4717   -5.3074   22.3039 C   0  0  0  0  0  0  0  0  0  0  0  0
  -24.6898  -12.2735   21.6558 C   0  0  0  0  0  0  0  0  0  0  0  0
  -29.9309  -23.1566   18.4159 C   0  0  0  0  0  0  0  0  0  0  0  0
  -24.9361  -14.3085   20.8602 C   0  0  0  0  0  0  0  0  0  0  0  0
  -25.3336  -12.5041   19.1765 C   0  0  0  0  0  0  0  0  0  0  0  0
  -22.3881  -28.4843   22.3230 C   0  0  0  0  0  0  0  0  0  0  0  0
  -21.2784  -25.4420   22.1357 C   0  0  0  0  0  0  0  0  0  0  0  0
  -21.8977  -22.1741   21.3716 C   0  0  0  0  0  0  0  0  0  0  0  0
  -26.3485  -18.2244   24.6744 C   0  0  0  0  0  0  0  0  0  0  0  0
  -19.0483  -32.0074   23.9015 C   0  0  0  0  0  0  0  0  0  0  0  0
  -23.0259  -27.8602   19.9651 C   0  0  0  0  0  0  0  0  0  0  0  0
  -23.7712  -25.7506   21.8987 C   0  0  0  0  0  0  0  0  0  0  0  0
  -19.2951  -30.5292   24.1921 C   0  0  0  0  0  0  0  0  0  0  0  0
  -23.1554  -16.4591   25.0756 C   0  0  0  0  0  0  0  0  0  0  0  0
  -20.7695  -30.2839   24.4965 C   0  0  0  0  0  0  0  0  0  0  0  0
  -23.3214  -15.2462   24.1591 C   0  0  0  0  0  0  0  0  0  0  0  0
  -26.4893  -20.1478   21.5444 C   0  0  0  0  0  0  0  0  0  0  0  0
  -24.4898  -16.9276   25.6513 C   0  0  0  0  0  0  0  0  0  0  0  0
  -26.0291  -18.8553   22.2105 C   0  0  0  0  0  0  0  0  0  0  0  0
  -25.7004  -15.9657   23.7323 C   0  0  0  0  0  0  0  0  0  0  0  0
  -27.8302  -19.8106   23.4788 C   0  0  0  0  0  0  0  0  0  0  0  0
  -21.6494  -30.6520   23.2958 C   0  0  1  0  0  0  0  0  0  0  0  0
  -22.1577  -27.5393   21.1778 C   0  0  1  0  0  0  0  0  0  0  0  0
  -24.3886  -15.5076   23.0799 C   0  0  1  0  0  0  0  0  0  0  0  0
  -27.9295  -20.2662   22.0307 C   0  0  2  0  0  0  0  0  0  0  0  0
  -30.4652  -23.6586   17.1143 C   0  0  0  0  0  0  0  0  0  0  0  0
  -20.8076  -19.9138   21.3567 C   0  0  0  0  0  0  0  0  0  0  0  0
  -21.5882  -25.2753   25.1666 C   0  0  0  0  0  0  0  0  0  0  0  0
  -21.4121  -22.7850   24.9778 C   0  0  0  0  0  0  0  0  0  0  0  0
  -19.5019  -24.2257   24.2719 C   0  0  0  0  0  0  0  0  0  0  0  0
  -22.2415  -21.8992   18.4449 C   0  0  0  0  0  0  0  0  0  0  0  0
  -30.4056  -25.3876   19.4784 C   0  0  0  0  0  0  0  0  0  0  0  0
  -29.2770  -26.4218   19.4047 C   0  0  0  0  0  0  0  0  0  1  0  0
  -21.5875  -24.1457   22.8450 C   0  0  1  0  0  0  0  0  0  0  0  0
  -21.1147  -21.1659   20.5500 C   0  0  2  0  0  0  0  0  0  0  0  0
  -21.0424  -24.1222   24.3009 C   0  0  0  0  0  0  0  0  0  0  0  0
  -29.4901  -21.8785   18.4152 N   0  0  0  0  0  0  0  0  0  0  0  0
  -24.4379  -13.0723   22.6963 N   0  0  0  0  0  0  0  0  0  0  0  0
  -24.5959  -14.3033   22.1809 N   0  0  0  0  0  0  0  0  0  0  0  0
  -22.3802  -26.1856   21.6899 N   0  0  0  0  0  0  0  0  0  0  0  0
  -25.4755  -17.1342   24.5899 N   0  0  0  0  0  0  0  0  0  0  0  0
  -26.7575  -18.8188   23.4814 N   0  0  0  0  0  0  0  0  0  0  0  0
  -25.1332  -15.4610   20.1855 N   0  0  0  0  0  0  0  0  0  0  0  0
  -25.3602  -11.1190   18.9643 N   0  0  0  0  0  0  0  0  0  0  0  0
  -28.4259  -21.6126   21.9225 N   0  0  0  0  0  0  0  0  0  0  0  0
  -21.5920  -29.6133   22.2897 N   0  0  0  0  0  0  0  0  0  0  0  0
  -21.0665  -23.0809   21.9946 N   0  0  0  0  0  0  0  0  0  0  0  0
  -21.8908  -20.7679   19.3417 N   0  3  0  0  0  0  0  0  0  0  0  0
  -25.6110  -13.2760   18.2274 O   0  0  0  0  0  0  0  0  0  0  0  0
  -23.2251  -28.2089   23.1747 O   0  0  0  0  0  0  0  0  0  0  0  0
  -20.1024  -25.7788   21.9766 O   0  0  0  0  0  0  0  0  0  0  0  0
  -23.1237  -22.1565   21.4554 O   0  0  0  0  0  0  0  0  0  0  0  0
  -26.7096  -18.6770   25.7688 O   0  0  0  0  0  0  0  0  0  0  0  0
  -24.4212   -6.7201   22.2510 O   0  0  0  0  0  0  0  0  0  0  0  0
  -28.4517  -26.3075   20.5570 O   0  0  0  0  0  0  0  0  0  1  0  0
  -20.1109   -4.6421   24.9911 F   0  0  0  0  0  0  0  0  0  0  0  0
  -22.6826   -4.9517   21.0292 F   0  0  0  0  0  0  0  0  0  0  0  0
  1  2  1  0  0  0  0
  1  5  2  0  0  0  0
  2  6  2  0  0  0  0
  3  8  2  0  0  0  0
  3 17  1  0  0  0  0
  4  9  1  0  0  0  0
  4 17  2  0  0  0  0
  5 19  1  0  0  0  0
  6 21  1  0  0  0  0
  7 10  2  0  0  0  0
  7 20  1  0  0  0  0
  8 25  1  0  0  0  0
  9 25  2  0  0  0  0
 10 26  1  0  0  0  0
 11 12  2  0  0  0  0
 11 27  1  0  0  0  0
 12 28  1  0  0  0  0
 13 22  1  0  0  0  0
 13 26  2  0  0  0  0
 14 23  1  0  0  0  0
 14 24  2  0  0  0  0
 15 28  2  0  0  0  0
 15 29  1  0  0  0  0
 16 24  1  0  0  0  0
 16 65  2  0  0  0  0
 17 30  1  0  0  0  0
 18 30  1  0  0  0  0
 18 32  2  0  0  0  0
 18 33  1  0  0  0  0
 19 21  2  0  0  0  0
 19 38  1  0  0  0  0
 20 22  2  0  0  0  0
 20 39  1  0  0  0  0
 21 50  1  0  0  0  0
 22 40  1  0  0  0  0
 23 31  2  0  0  0  0
 23 60  1  0  0  0  0
 24 73  1  0  0  0  0
 25 82  1  0  0  0  0
 26 83  1  0  0  0  0
 27 29  2  0  0  0  0
 27 82  1  0  0  0  0
 28 84  1  0  0  0  0
 29 85  1  0  0  0  0
 30 66  2  0  0  0  0
 31 54  1  0  0  0  0
 31 65  1  0  0  0  0
 32 67  1  0  0  0  0
 32 71  1  0  0  0  0
 33 72  1  0  0  0  0
 33 77  2  0  0  0  0
 34 51  1  0  0  0  0
 34 74  1  0  0  0  0
 34 78  2  0  0  0  0
 35 62  1  0  0  0  0
 35 68  1  0  0  0  0
 35 79  2  0  0  0  0
 36 63  1  0  0  0  0
 36 75  1  0  0  0  0
 36 80  2  0  0  0  0
 37 69  1  0  0  0  0
 37 70  1  0  0  0  0
 37 81  2  0  0  0  0
 38 41  1  0  0  0  0
 39 51  1  0  0  0  0
 40 68  1  0  0  0  0
 41 43  1  0  0  0  0
 42 44  1  0  0  0  0
 42 46  1  0  0  0  0
 43 50  1  0  0  0  0
 44 52  1  0  0  0  0
 45 47  1  0  0  0  0
 45 53  1  0  0  0  0
 46 69  1  0  0  0  0
 47 70  1  0  0  0  0
 48 52  1  0  0  0  0
 48 69  1  0  0  0  0
 49 53  1  0  0  0  0
 49 70  1  0  0  0  0
 50 74  1  0  0  0  0
 51 68  1  0  0  0  0
 52 67  1  0  0  0  0
 53 73  1  0  0  0  0
 55 63  1  0  0  0  0
 56 64  1  0  0  0  0
 57 64  1  0  0  0  0
 58 64  1  0  0  0  0
 59 76  1  0  0  0  0
 60 61  1  0  0  0  0
 61 83  1  0  0  0  0
 62 64  1  0  0  0  0
 62 75  1  0  0  0  0
 63 76  1  0  0  0  0
 66 67  1  0  0  0  0
M  CHG  1  76   1
M  ISO  4  37 100  61 101  70 100  83 101
M  END
> <Batch ID>
0169

> <Smiles>
CNC(C)C(=O)NC(C(=O)N1Cc2cc([101O:1][101CH2:1]Cc3cc(NC4CC[100N:0]([100C:0](=O)N5CCCC(n6nc(-c7ccc(Oc8ccc(F)cc8F)cc7)c(C(N)=O)c6N)C5)C4)cnc3C)ccc2CC1C(=O)NC1CCCc2ccccc21)C(C)(C)C

> <Shape>
0.218

> <Color>
0.099

> <Negative vol penalty>
0.000

$$$$

  -OEChem-04052322323D

 91102  0     1  0  0  0  0  0999 V2000
  -17.7657  -25.7541   22.8646 C   0  0  0  0  0  0  0  0  0  0  0  0
  -19.0909  -25.3309   22.8510 C   0  0  0  0  0  0  0  0  0  0  0  0
  -25.1025  -15.0795   19.3291 C   0  0  0  0  0  0  0  0  0  0  0  0
  -23.2748  -14.7187   20.8675 C   0  0  0  0  0  0  0  0  0  0  0  0
  -17.4398  -27.0356   22.4224 C   0  0  0  0  0  0  0  0  0  0  0  0
  -20.0909  -26.1886   22.3942 C   0  0  0  0  0  0  0  0  0  0  0  0
  -25.8366  -26.5839   24.4765 C   0  0  0  0  0  0  0  0  0  0  0  0
  -25.6106  -13.8174   19.6367 C   0  0  0  0  0  0  0  0  0  0  0  0
  -23.7828  -13.4566   21.1750 C   0  0  0  0  0  0  0  0  0  0  0  0
  -27.0401  -26.0521   24.0154 C   0  0  0  0  0  0  0  0  0  0  0  0
  -23.8088  -10.3770   19.7837 C   0  0  0  0  0  0  0  0  0  0  0  0
  -22.9086   -9.3128   19.8360 C   0  0  0  0  0  0  0  0  0  0  0  0
  -27.5072  -28.1210   22.8664 C   0  0  0  0  0  0  0  0  0  0  0  0
  -23.4971   -8.9287   22.1476 C   0  0  0  0  0  0  0  0  0  0  0  0
  -23.9347  -15.5302   19.9445 C   0  0  0  0  0  0  0  0  0  0  0  0
  -22.4904  -17.1563   18.6113 C   0  0  0  0  0  0  0  0  0  0  0  0
  -18.4375  -27.9129   21.9690 C   0  0  0  0  0  0  0  0  0  0  0  0
  -25.4537  -27.8867   24.1264 C   0  0  0  0  0  0  0  0  0  0  0  0
  -19.7779  -27.4825   21.9442 C   0  0  0  0  0  0  0  0  0  0  0  0
  -26.2996  -28.6680   23.3264 C   0  0  0  0  0  0  0  0  0  0  0  0
  -32.1969  -23.7310   21.2421 C   0  0  0  0  0  0  0  0  0  0  0  0
  -32.8457  -24.5330   22.2132 C   0  0  0  0  0  0  0  0  0  0  0  0
  -24.9507  -13.0059   20.5597 C   0  0  0  0  0  0  0  0  0  0  0  0
  -27.8743  -26.8196   23.2078 C   0  0  0  0  0  0  0  0  0  0  0  0
  -24.5533  -10.7170   20.9132 C   0  0  0  0  0  0  0  0  0  0  0  0
  -22.7527   -8.5887   21.0180 C   0  0  0  0  0  0  0  0  0  0  0  0
  -24.3974   -9.9929   22.0952 C   0  0  0  0  0  0  0  0  0  0  0  0
  -23.4097  -16.8340   19.6276 C   0  0  0  0  0  0  0  0  0  0  0  0
  -30.8430  -23.8063   21.4845 C   0  0  0  0  0  0  0  0  0  0  0  0
  -31.8686  -25.0738   23.0195 C   0  0  0  0  0  0  0  0  0  0  0  0
  -22.3161  -18.5140   18.7239 C   0  0  0  0  0  0  0  0  0  0  0  0
  -21.8512  -16.3045   17.6514 C   0  0  0  0  0  0  0  0  0  0  0  0
  -23.0228  -29.1543   22.5179 C   0  0  0  0  0  0  0  0  0  0  0  0
  -24.3458  -31.9519   23.4904 C   0  0  0  0  0  0  0  0  0  0  0  0
  -27.1250  -33.6328   24.5377 C   0  0  0  0  0  0  0  0  0  0  0  0
  -25.5862  -22.9308   20.7837 C   0  0  0  0  0  0  0  0  0  0  0  0
  -18.0311  -29.2718   21.4563 C   0  0  0  0  0  0  0  0  0  0  0  0
  -24.1649  -28.4552   24.6539 C   0  0  0  0  0  0  0  0  0  0  0  0
  -25.9440  -30.0793   22.9387 C   0  0  0  0  0  0  0  0  0  0  0  0
  -19.1955  -30.2520   21.3394 C   0  0  0  0  0  0  0  0  0  0  0  0
  -22.4397  -22.0617   21.9207 C   0  0  0  0  0  0  0  0  0  0  0  0
  -32.5956  -21.4429   20.0267 C   0  0  0  0  0  0  0  0  0  0  0  0
  -33.9356  -21.9156   20.4970 C   0  0  0  0  0  0  0  0  0  0  0  0
  -34.8858  -26.1749   22.3322 C   0  0  0  0  0  0  0  0  0  0  0  0
  -35.1228  -25.2843   21.1528 C   0  0  0  0  0  0  0  0  0  0  0  0
  -20.3877  -29.5859   20.6598 C   0  0  0  0  0  0  0  0  0  0  0  0
  -22.2291  -20.6531   21.3660 C   0  0  0  0  0  0  0  0  0  0  0  0
  -28.9008  -22.1889   21.6673 C   0  0  0  0  0  0  0  0  0  0  0  0
  -28.7359  -24.1944   20.1308 C   0  0  0  0  0  0  0  0  0  0  0  0
  -23.8664  -22.2414   22.4263 C   0  0  0  0  0  0  0  0  0  0  0  0
  -27.7113  -21.5591   20.9368 C   0  0  0  0  0  0  0  0  0  0  0  0
  -27.5715  -23.5084   19.4223 C   0  0  0  0  0  0  0  0  0  0  0  0
  -24.7143  -20.5500   20.8331 C   0  0  0  0  0  0  0  0  0  0  0  0
  -32.8686  -22.9326   20.1330 C   0  0  0  0  0  0  0  0  0  0  0  0
  -34.3461  -24.7558   22.3457 C   0  0  0  0  0  0  0  0  0  0  0  0
  -20.8940  -28.3927   21.4792 C   0  0  1  0  0  0  0  0  0  0  0  0
  -29.6820  -23.1542   20.7576 C   0  0  0  0  0  0  0  0  0  0  0  0
  -23.6332  -29.6114   23.8125 C   0  0  1  0  0  0  0  0  0  0  0  0
  -23.2863  -20.3148   20.3000 C   0  0  1  0  0  0  0  0  0  0  0  0
  -31.4593  -25.3509   25.4912 C   0  0  0  0  0  0  0  0  0  0  0  0
  -31.2946  -27.3430   23.9552 C   0  0  0  0  0  0  0  0  0  0  0  0
  -27.9042  -35.9184   25.2205 C   0  0  0  0  0  0  0  0  0  0  0  0
  -24.3547  -32.8199   20.5653 C   0  0  0  0  0  0  0  0  0  0  0  0
  -25.9660  -34.6345   21.1811 C   0  0  0  0  0  0  0  0  0  0  0  0
  -23.6810  -34.6057   22.1813 C   0  0  0  0  0  0  0  0  0  0  0  0
  -27.8774  -32.6953   27.2422 C   0  0  0  0  0  0  0  0  0  0  0  0
  -29.3718  -24.9645   23.1450 C   0  0  0  0  0  0  0  0  0  1  0  0
  -31.9867  -25.9798   24.1817 C   0  0  0  0  0  0  0  0  0  0  0  0
  -25.3842  -32.8946   22.9318 C   0  0  1  0  0  0  0  0  0  0  0  0
  -27.3482  -34.5859   25.6980 C   0  0  2  0  0  0  0  0  0  0  0  0
  -24.8525  -33.7114   21.7204 C   0  0  0  0  0  0  0  0  0  0  0  0
  -23.7927  -17.9011   20.3338 N   0  0  0  0  0  0  0  0  0  0  0  0
  -30.6552  -24.6250   22.5674 N   0  0  0  0  0  0  0  0  0  0  0  0
  -23.1108  -18.9072   19.7603 N   0  0  0  0  0  0  0  0  0  0  0  0
  -24.6705  -30.5880   23.4742 N   0  0  0  0  0  0  0  0  0  0  0  0
  -24.8400  -21.9072   21.3869 N   0  0  0  0  0  0  0  0  0  0  0  0
  -26.8693  -22.5966   20.3251 N   0  0  0  0  0  0  0  0  0  0  0  0
  -21.5621  -19.3980   18.0365 N   0  0  0  0  0  0  0  0  0  0  0  0
  -22.1429  -14.9339   17.6754 N   0  0  0  0  0  0  0  0  0  0  0  0
  -21.6778  -28.8498   22.6066 N   0  0  0  0  0  0  0  0  0  0  0  0
  -25.8372  -33.7127   24.0516 N   0  0  0  0  0  0  0  0  0  0  0  0
  -28.3092  -33.9981   26.6737 N   0  3  0  0  0  0  0  0  0  0  0  0
  -21.0577  -16.7483   16.7870 O   0  0  0  0  0  0  0  0  0  0  0  0
  -23.7200  -29.0846   21.5125 O   0  0  0  0  0  0  0  0  0  0  0  0
  -23.2885  -32.4094   23.9315 O   0  0  0  0  0  0  0  0  0  0  0  0
  -28.0062  -32.8942   24.1035 O   0  0  0  0  0  0  0  0  0  0  0  0
  -25.1331  -24.0757   20.6610 O   0  0  0  0  0  0  0  0  0  0  0  0
  -25.4460  -11.7742   20.8599 O   0  0  0  0  0  0  0  0  0  0  0  0
  -29.0568  -26.2993   22.7530 O   0  0  0  0  0  0  0  0  0  1  0  0
  -21.8870   -7.5678   21.0686 F   0  0  0  0  0  0  0  0  0  0  0  0
  -25.1089  -10.3156   23.1839 F   0  0  0  0  0  0  0  0  0  0  0  0
  1  2  1  0  0  0  0
  1  5  2  0  0  0  0
  2  6  2  0  0  0  0
  3  8  2  0  0  0  0
  3 15  1  0  0  0  0
  4  9  1  0  0  0  0
  4 15  2  0  0  0  0
  5 17  1  0  0  0  0
  6 19  1  0  0  0  0
  7 10  2  0  0  0  0
  7 18  1  0  0  0  0
  8 23  1  0  0  0  0
  9 23  2  0  0  0  0
 10 24  1  0  0  0  0
 11 12  2  0  0  0  0
 11 25  1  0  0  0  0
 12 26  1  0  0  0  0
 13 20  1  0  0  0  0
 13 24  2  0  0  0  0
 14 26  2  0  0  0  0
 14 27  1  0  0  0  0
 15 28  1  0  0  0  0
 16 28  1  0  0  0  0
 16 31  2  0  0  0  0
 16 32  1  0  0  0  0
 17 19  2  0  0  0  0
 17 37  1  0  0  0  0
 18 20  2  0  0  0  0
 18 38  1  0  0  0  0
 19 56  1  0  0  0  0
 20 39  1  0  0  0  0
 21 22  1  0  0  0  0
 21 29  2  0  0  0  0
 21 54  1  0  0  0  0
 22 30  2  0  0  0  0
 22 55  1  0  0  0  0
 23 88  1  0  0  0  0
 24 89  1  0  0  0  0
 25 27  2  0  0  0  0
 25 88  1  0  0  0  0
 26 90  1  0  0  0  0
 27 91  1  0  0  0  0
 28 72  2  0  0  0  0
 29 57  1  0  0  0  0
 29 73  1  0  0  0  0
 30 68  1  0  0  0  0
 30 73  1  0  0  0  0
 31 74  1  0  0  0  0
 31 78  1  0  0  0  0
 32 79  1  0  0  0  0
 32 83  2  0  0  0  0
 33 58  1  0  0  0  0
 33 80  1  0  0  0  0
 33 84  2  0  0  0  0
 34 69  1  0  0  0  0
 34 75  1  0  0  0  0
 34 85  2  0  0  0  0
 35 70  1  0  0  0  0
 35 81  1  0  0  0  0
 35 86  2  0  0  0  0
 36 76  1  0  0  0  0
 36 77  1  0  0  0  0
 36 87  2  0  0  0  0
 37 40  1  0  0  0  0
 38 58  1  0  0  0  0
 39 75  1  0  0  0  0
 40 46  1  0  0  0  0
 41 47  1  0  0  0  0
 41 50  1  0  0  0  0
 42 43  1  0  0  0  0
 42 54  1  0  0  0  0
 43 54  1  0  0  0  0
 44 45  1  0  0  0  0
 44 55  1  0  0  0  0
 45 55  1  0  0  0  0
 46 56  1  0  0  0  0
 47 59  1  0  0  0  0
 48 51  1  0  0  0  0
 48 57  1  0  0  0  0
 49 52  1  0  0  0  0
 49 57  1  0  0  0  0
 50 76  1  0  0  0  0
 51 77  1  0  0  0  0
 52 77  1  0  0  0  0
 53 59  1  0  0  0  0
 53 76  1  0  0  0  0
 56 80  1  0  0  0  0
 58 75  1  0  0  0  0
 59 74  1  0  0  0  0
 60 68  1  0  0  0  0
 61 68  1  0  0  0  0
 62 70  1  0  0  0  0
 63 71  1  0  0  0  0
 64 71  1  0  0  0  0
 65 71  1  0  0  0  0
 66 82  1  0  0  0  0
 67 73  1  0  0  0  0
 67 89  1  0  0  0  0
 69 71  1  0  0  0  0
 69 81  1  0  0  0  0
 70 82  1  0  0  0  0
 72 74  1  0  0  0  0
M  CHG  1  82   1
M  ISO  4  36 100  67 101  77 100  89 101
M  END
> <Batch ID>
0169

> <Smiles>
CNC(C)C(=O)NC(C(=O)N1Cc2cc([101O:1][101CH2:1]n3c(C(C)C)c(C4CC4)c(C4CC4)c3C3CC[100N:0]([100C:0](=O)N4CCCC(n5nc(-c6ccc(Oc7ccc(F)cc7F)cc6)c(C(N)=O)c5N)C4)CC3)ccc2CC1C(=O)NC1CCCc2ccccc21)C(C)(C)C

> <Shape>
0.211

> <Color>
0.082

> <Negative vol penalty>
0.000

$$$$

  -OEChem-04052322323D

 88 97  0     1  0  0  0  0  0999 V2000
  -37.1355  -32.5696   26.2868 C   0  0  0  0  0  0  0  0  0  0  0  0
  -36.1807  -31.5985   26.0029 C   0  0  0  0  0  0  0  0  0  0  0  0
  -23.2360   -9.6430   20.2179 C   0  0  0  0  0  0  0  0  0  0  0  0
  -23.9220  -10.0399   22.5002 C   0  0  0  0  0  0  0  0  0  0  0  0
  -36.7621  -33.7420   26.9425 C   0  0  0  0  0  0  0  0  0  0  0  0
  -34.8520  -31.7987   26.3755 C   0  0  0  0  0  0  0  0  0  0  0  0
  -31.5959  -30.5600   22.7001 C   0  0  0  0  0  0  0  0  0  0  0  0
  -22.5684   -8.4861   20.6198 C   0  0  0  0  0  0  0  0  0  0  0  0
  -23.2544   -8.8830   22.9021 C   0  0  0  0  0  0  0  0  0  0  0  0
  -31.3317  -29.2038   22.5139 C   0  0  0  0  0  0  0  0  0  0  0  0
  -23.7974   -5.5464   22.8458 C   0  0  0  0  0  0  0  0  0  0  0  0
  -24.4615   -4.6852   23.7192 C   0  0  0  0  0  0  0  0  0  0  0  0
  -29.2736  -29.4412   23.7496 C   0  0  0  0  0  0  0  0  0  0  0  0
  -30.4800  -24.2892   23.0835 C   0  0  0  0  0  0  0  0  0  0  0  0
  -29.8918  -24.6978   20.7762 C   0  0  0  0  0  0  0  0  0  0  0  0
  -22.7000   -4.9773   25.3467 C   0  0  0  0  0  0  0  0  0  0  0  0
  -23.9129  -10.4199   21.1582 C   0  0  0  0  0  0  0  0  0  0  0  0
  -24.0783  -12.9192   20.6747 C   0  0  0  0  0  0  0  0  0  0  0  0
  -35.4263  -33.9610   27.3147 C   0  0  0  0  0  0  0  0  0  0  0  0
  -30.7047  -31.3660   23.4230 C   0  0  0  0  0  0  0  0  0  0  0  0
  -34.4605  -32.9746   27.0379 C   0  0  0  0  0  0  0  0  0  0  0  0
  -29.5275  -30.8079   23.9413 C   0  0  0  0  0  0  0  0  0  0  0  0
  -30.4041  -25.1531   21.9911 C   0  0  0  0  0  0  0  0  0  0  0  0
  -30.0436  -22.9700   22.9612 C   0  0  0  0  0  0  0  0  0  0  0  0
  -29.5313  -22.5147   21.7464 C   0  0  0  0  0  0  0  0  0  0  0  0
  -22.5776   -8.1061   21.9618 C   0  0  0  0  0  0  0  0  0  0  0  0
  -30.1719  -28.6435   23.0412 C   0  0  0  0  0  0  0  0  0  0  0  0
  -22.5846   -6.1232   23.2229 C   0  0  0  0  0  0  0  0  0  0  0  0
  -23.9128   -4.4006   24.9697 C   0  0  0  0  0  0  0  0  0  0  0  0
  -22.0359   -5.8386   24.4733 C   0  0  0  0  0  0  0  0  0  0  0  0
  -29.4553  -23.3786   20.6539 C   0  0  0  0  0  0  0  0  0  0  0  0
  -24.6032  -11.6148   20.7436 C   0  0  0  0  0  0  0  0  0  0  0  0
  -25.1252  -13.6874   20.2273 C   0  0  0  0  0  0  0  0  0  0  0  0
  -22.7620  -13.3940   20.9873 C   0  0  0  0  0  0  0  0  0  0  0  0
  -30.8879  -33.0703   26.0999 C   0  0  0  0  0  0  0  0  0  0  0  0
  -27.9097  -34.0226   25.2363 C   0  0  0  0  0  0  0  0  0  0  0  0
  -25.0507  -33.3680   23.4915 C   0  0  0  0  0  0  0  0  0  0  0  0
  -30.6498  -14.8828   20.8676 C   0  0  0  0  0  0  0  0  0  0  0  0
  -35.0791  -35.2232   28.0638 C   0  0  0  0  0  0  0  0  0  0  0  0
  -30.9910  -32.8330   23.5921 C   0  0  0  0  0  0  0  0  0  0  0  0
  -28.5285  -31.6345   24.7077 C   0  0  0  0  0  0  0  0  0  0  0  0
  -33.5826  -35.5232   28.0907 C   0  0  0  0  0  0  0  0  0  0  0  0
  -29.6184  -12.3815   18.3337 C   0  0  0  0  0  0  0  0  0  0  0  0
  -32.7928  -34.2683   28.4489 C   0  0  0  0  0  0  0  0  0  0  0  0
  -28.2050  -12.0180   18.7851 C   0  0  0  0  0  0  0  0  0  0  0  0
  -31.0392  -17.9646   22.4127 C   0  0  0  0  0  0  0  0  0  0  0  0
  -29.1004  -18.0461   20.7950 C   0  0  0  0  0  0  0  0  0  0  0  0
  -30.4881  -12.8327   19.5029 C   0  0  0  0  0  0  0  0  0  0  0  0
  -30.6721  -16.5171   22.7287 C   0  0  0  0  0  0  0  0  0  0  0  0
  -28.7870  -16.5836   21.1244 C   0  0  0  0  0  0  0  0  0  0  0  0
  -28.4855  -13.5873   20.7448 C   0  0  0  0  0  0  0  0  0  0  0  0
  -33.0047  -33.1661   27.4040 C   0  0  1  0  0  0  0  0  0  0  0  0
  -30.2671  -33.4494   24.7851 C   0  0  1  0  0  0  0  0  0  0  0  0
  -27.5715  -13.1709   19.5825 C   0  0  2  0  0  0  0  0  0  0  0  0
  -29.7996  -18.7360   21.9644 C   0  0  0  0  0  0  0  0  0  0  0  0
  -30.1381  -22.0667   24.1474 C   0  0  0  0  0  0  0  0  0  0  0  0
  -22.7770  -34.3140   23.0092 C   0  0  0  0  0  0  0  0  0  0  0  0
  -26.9671  -33.1637   28.0083 C   0  0  0  0  0  0  0  0  0  0  0  0
  -24.6151  -33.2304   27.1528 C   0  0  0  0  0  0  0  0  0  0  0  0
  -25.9855  -35.3144   27.1926 C   0  0  0  0  0  0  0  0  0  0  0  0
  -25.6105  -33.5414   20.5905 C   0  0  0  0  0  0  0  0  0  0  0  0
  -30.8526  -20.1284   20.1888 C   0  0  0  0  0  0  0  0  0  0  0  0
  -29.0668  -21.0927   21.6315 C   0  0  0  0  0  0  0  0  0  0  0  0
  -30.8700  -26.5638   22.1230 C   0  0  0  0  0  0  0  0  0  1  0  0
  -26.5099  -33.5185   25.4921 C   0  0  1  0  0  0  0  0  0  0  0  0
  -24.2248  -34.2280   22.5519 C   0  0  2  0  0  0  0  0  0  0  0  0
  -26.0390  -33.7905   26.9487 C   0  0  0  0  0  0  0  0  0  0  0  0
  -25.8840  -11.5539   20.3697 N   0  0  0  0  0  0  0  0  0  0  0  0
  -26.1727  -12.8298   20.0615 N   0  0  0  0  0  0  0  0  0  0  0  0
  -28.8564  -33.0625   24.8517 N   0  0  0  0  0  0  0  0  0  0  0  0
  -29.8445  -13.8963   20.2741 N   0  0  0  0  0  0  0  0  0  0  0  0
  -29.9922  -15.8855   21.5961 N   0  0  0  0  0  0  0  0  0  0  0  0
  -25.2428  -15.0061   19.9634 N   0  0  0  0  0  0  0  0  0  0  0  0
  -21.8072  -12.4705   21.4341 N   0  0  0  0  0  0  0  0  0  0  0  0
  -32.2157  -33.4333   26.2205 N   0  0  0  0  0  0  0  0  0  0  0  0
  -25.6648  -34.1232   24.4681 N   0  0  0  0  0  0  0  0  0  0  0  0
  -24.2496  -33.6608   21.1740 N   0  3  0  0  0  0  0  0  0  0  0  0
  -30.2033  -20.1045   21.5499 N   0  3  1  0  0  0  0  0  0  0  0  0
  -22.4374  -14.5988   20.8580 O   0  0  0  0  0  0  0  0  0  0  0  0
  -30.2118  -32.4926   26.9430 O   0  0  0  0  0  0  0  0  0  0  0  0
  -28.1525  -35.2250   25.3659 O   0  0  0  0  0  0  0  0  0  0  0  0
  -25.1390  -32.1479   23.3732 O   0  0  0  0  0  0  0  0  0  0  0  0
  -31.8816  -14.8682   20.7508 O   0  0  0  0  0  0  0  0  0  0  0  0
  -21.9261   -6.9774   22.3543 O   0  0  0  0  0  0  0  0  0  0  0  0
  -29.9101  -27.3108   22.8603 O   0  0  0  0  0  0  0  0  0  1  0  0
  -24.5499   -3.5724   25.8077 F   0  0  0  0  0  0  0  0  0  0  0  0
  -20.8704   -6.3888   24.8407 F   0  0  0  0  0  0  0  0  0  0  0  0
  -28.8259  -22.8538   19.1341 Cl  0  0  0  0  0  0  0  0  0  0  0  0
  1  2  1  0  0  0  0
  1  5  2  0  0  0  0
  2  6  2  0  0  0  0
  3  8  2  0  0  0  0
  3 17  1  0  0  0  0
  4  9  1  0  0  0  0
  4 17  2  0  0  0  0
  5 19  1  0  0  0  0
  6 21  1  0  0  0  0
  7 10  2  0  0  0  0
  7 20  1  0  0  0  0
  8 26  1  0  0  0  0
  9 26  2  0  0  0  0
 10 27  1  0  0  0  0
 11 12  2  0  0  0  0
 11 28  1  0  0  0  0
 12 29  1  0  0  0  0
 13 22  1  0  0  0  0
 13 27  2  0  0  0  0
 14 23  1  0  0  0  0
 14 24  2  0  0  0  0
 15 23  2  0  0  0  0
 15 31  1  0  0  0  0
 16 29  2  0  0  0  0
 16 30  1  0  0  0  0
 17 32  1  0  0  0  0
 18 32  1  0  0  0  0
 18 33  2  0  0  0  0
 18 34  1  0  0  0  0
 19 21  2  0  0  0  0
 19 39  1  0  0  0  0
 20 22  2  0  0  0  0
 20 40  1  0  0  0  0
 21 52  1  0  0  0  0
 22 41  1  0  0  0  0
 23 64  1  0  0  0  0
 24 25  1  0  0  0  0
 24 56  1  0  0  0  0
 25 31  2  0  0  0  0
 25 63  1  0  0  0  0
 26 84  1  0  0  0  0
 27 85  1  0  0  0  0
 28 30  2  0  0  0  0
 28 84  1  0  0  0  0
 29 86  1  0  0  0  0
 30 87  1  0  0  0  0
 31 88  1  0  0  0  0
 32 68  2  0  0  0  0
 33 69  1  0  0  0  0
 33 73  1  0  0  0  0
 34 74  1  0  0  0  0
 34 79  2  0  0  0  0
 35 53  1  0  0  0  0
 35 75  1  0  0  0  0
 35 80  2  0  0  0  0
 36 65  1  0  0  0  0
 36 70  1  0  0  0  0
 36 81  2  0  0  0  0
 37 66  1  0  0  0  0
 37 76  1  0  0  0  0
 37 82  2  0  0  0  0
 38 71  1  0  0  0  0
 38 72  1  0  0  0  0
 38 83  2  0  0  0  0
 39 42  1  0  0  0  0
 40 53  1  0  0  0  0
 41 70  1  0  0  0  0
 42 44  1  0  0  0  0
 43 45  1  0  0  0  0
 43 48  1  0  0  0  0
 44 52  1  0  0  0  0
 45 54  1  0  0  0  0
 46 49  1  0  0  0  0
 46 55  1  0  0  0  0
 47 50  1  0  0  0  0
 47 55  1  0  0  0  0
 48 71  1  0  0  0  0
 49 72  1  0  0  0  0
 50 72  1  0  0  0  0
 51 54  1  0  0  0  0
 51 71  1  0  0  0  0
 52 75  1  0  0  0  0
 53 70  1  0  0  0  0
 54 69  1  0  0  0  0
 55 78  1  0  0  0  0
 57 66  1  0  0  0  0
 58 67  1  0  0  0  0
 59 67  1  0  0  0  0
 60 67  1  0  0  0  0
 61 77  1  0  0  0  0
 62 78  1  0  0  0  0
 63 78  1  0  0  0  0
 64 85  1  0  0  0  0
 65 67  1  0  0  0  0
 65 76  1  0  0  0  0
 66 77  1  0  0  0  0
 68 69  1  0  0  0  0
M  CHG  2  77   1  78   1
M  ISO  4  38 100  64 101  72 100  85 101
M  END
> <Batch ID>
0169

> <Smiles>
CNC(C)C(=O)NC(C(=O)N1Cc2cc([101O:1][101CH2:1]c3cc(C)c(CN(C)C4CC[100N:0]([100C:0](=O)N5CCCC(n6nc(-c7ccc(Oc8ccc(F)cc8F)cc7)c(C(N)=O)c6N)C5)CC4)c(Cl)c3)ccc2CC1C(=O)NC1CCCc2ccccc21)C(C)(C)C

> <Shape>
0.265

> <Color>
0.186

> <Negative vol penalty>
0.000

$$$$

  -OEChem-04052322323D

 85 94  0     1  0  0  0  0  0999 V2000
  -26.1081  -35.8390   15.8559 C   0  0  0  0  0  0  0  0  0  0  0  0
  -26.2749  -34.4591   15.7964 C   0  0  0  0  0  0  0  0  0  0  0  0
  -22.8712  -17.3025   19.5605 C   0  0  0  0  0  0  0  0  0  0  0  0
  -22.1234  -15.0905   20.1808 C   0  0  0  0  0  0  0  0  0  0  0  0
  -26.2809  -36.5093   17.0662 C   0  0  0  0  0  0  0  0  0  0  0  0
  -26.6157  -33.7488   16.9469 C   0  0  0  0  0  0  0  0  0  0  0  0
  -24.8175  -28.0904   18.4483 C   0  0  0  0  0  0  0  0  0  0  0  0
  -21.7375  -17.4623   18.7637 C   0  0  0  0  0  0  0  0  0  0  0  0
  -20.9897  -15.2503   19.3841 C   0  0  0  0  0  0  0  0  0  0  0  0
  -25.4368  -26.8470   18.3299 C   0  0  0  0  0  0  0  0  0  0  0  0
  -18.4676  -18.2019   19.2039 C   0  0  0  0  0  0  0  0  0  0  0  0
  -17.7788  -19.4115   19.2918 C   0  0  0  0  0  0  0  0  0  0  0  0
  -26.1973  -27.0150   20.6130 C   0  0  0  0  0  0  0  0  0  0  0  0
  -27.7009  -22.1716   20.8585 C   0  0  0  0  0  0  0  0  0  0  0  0
  -18.1693  -19.8048   16.9402 C   0  0  0  0  0  0  0  0  0  0  0  0
  -23.0642  -16.1166   20.2690 C   0  0  0  0  0  0  0  0  0  0  0  0
  -24.3729  -16.2854   22.4522 C   0  0  0  0  0  0  0  0  0  0  0  0
  -26.6146  -35.8057   18.2342 C   0  0  0  0  0  0  0  0  0  0  0  0
  -24.8928  -28.8116   19.6486 C   0  0  0  0  0  0  0  0  0  0  0  0
  -26.7945  -34.4105   18.1737 C   0  0  0  0  0  0  0  0  0  0  0  0
  -25.5759  -28.2662   20.7449 C   0  0  0  0  0  0  0  0  0  0  0  0
  -29.2435  -20.9133   19.5088 C   0  0  0  0  0  0  0  0  0  0  0  0
  -28.3091  -20.9632   20.5373 C   0  0  0  0  0  0  0  0  0  0  0  0
  -20.7968  -16.4363   18.6755 C   0  0  0  0  0  0  0  0  0  0  0  0
  -26.1293  -26.3104   19.4114 C   0  0  0  0  0  0  0  0  0  0  0  0
  -19.0074  -17.7936   17.9841 C   0  0  0  0  0  0  0  0  0  0  0  0
  -17.6296  -20.2130   18.1600 C   0  0  0  0  0  0  0  0  0  0  0  0
  -18.8582  -18.5951   16.8523 C   0  0  0  0  0  0  0  0  0  0  0  0
  -24.2353  -15.9506   21.0918 C   0  0  0  0  0  0  0  0  0  0  0  0
  -28.0589  -23.2925   20.1269 C   0  0  0  0  0  0  0  0  0  0  0  0
  -29.5323  -22.0905   18.8375 C   0  0  0  0  0  0  0  0  0  0  0  0
  -25.6640  -15.9352   22.7632 C   0  0  0  0  0  0  0  0  0  0  0  0
  -23.4188  -16.8614   23.3542 C   0  0  0  0  0  0  0  0  0  0  0  0
  -26.0951  -31.6277   20.5017 C   0  0  0  0  0  0  0  0  0  0  0  0
  -24.6852  -30.9319   23.3390 C   0  0  0  0  0  0  0  0  0  0  0  0
  -23.4939  -28.5525   25.4758 C   0  0  0  0  0  0  0  0  0  0  0  0
  -30.6312  -15.4004   19.6976 C   0  0  0  0  0  0  0  0  0  0  0  0
  -26.8373  -36.5797   19.5093 C   0  0  0  0  0  0  0  0  0  0  0  0
  -24.1967  -30.1396   19.7687 C   0  0  0  0  0  0  0  0  0  0  0  0
  -25.6691  -28.9913   22.0618 C   0  0  0  0  0  0  0  0  0  0  0  0
  -26.8308  -35.7061   20.7611 C   0  0  0  0  0  0  0  0  0  0  0  0
  -29.1291  -12.8833   21.5304 C   0  0  0  0  0  0  0  0  0  0  0  0
  -27.6891  -34.4630   20.5491 C   0  0  0  0  0  0  0  0  0  0  0  0
  -27.7119  -13.4051   21.7676 C   0  0  0  0  0  0  0  0  0  0  0  0
  -30.7691  -19.0499   20.2956 C   0  0  0  0  0  0  0  0  0  0  0  0
  -28.9202  -18.5554   18.6409 C   0  0  0  0  0  0  0  0  0  0  0  0
  -29.5938  -13.1895   20.1111 C   0  0  0  0  0  0  0  0  0  0  0  0
  -31.4291  -17.7257   19.9187 C   0  0  0  0  0  0  0  0  0  0  0  0
  -29.6223  -17.2442   18.3002 C   0  0  0  0  0  0  0  0  0  0  0  0
  -28.1239  -15.1741   19.9886 C   0  0  0  0  0  0  0  0  0  0  0  0
  -29.9253  -19.6098   19.1374 C   0  0  0  0  0  0  0  0  0  0  0  0
  -27.1398  -33.6019   19.4053 C   0  0  1  0  0  0  0  0  0  0  0  0
  -24.7731  -31.0185   20.8744 C   0  0  1  0  0  0  0  0  0  0  0  0
  -27.6076  -14.8994   21.4151 C   0  0  1  0  0  0  0  0  0  0  0  0
  -27.9407  -19.7381   21.3070 C   0  0  0  0  0  0  0  0  0  0  0  0
  -30.5287  -22.1002   17.7246 C   0  0  0  0  0  0  0  0  0  0  0  0
  -22.4349  -28.2864   27.7352 C   0  0  0  0  0  0  0  0  0  0  0  0
  -27.3889  -31.4305   24.6623 C   0  0  0  0  0  0  0  0  0  0  0  0
  -26.5307  -30.2541   26.6989 C   0  0  0  0  0  0  0  0  0  0  0  0
  -25.4292  -32.3502   25.9145 C   0  0  0  0  0  0  0  0  0  0  0  0
  -21.0618  -27.3249   24.3197 C   0  0  0  0  0  0  0  0  0  0  0  0
  -27.4276  -24.6067   20.4448 C   0  0  0  0  0  0  0  0  0  1  0  0
  -25.1117  -30.2155   24.5975 C   0  0  1  0  0  0  0  0  0  0  0  0
  -22.1883  -28.4509   26.2436 C   0  0  2  0  0  0  0  0  0  0  0  0
  -26.1152  -31.0495   25.4430 C   0  0  0  0  0  0  0  0  0  0  0  0
  -25.3502  -15.4280   20.5741 N   0  0  0  0  0  0  0  0  0  0  0  0
  -28.9622  -23.2831   19.1211 N   0  0  0  0  0  0  0  0  0  0  0  0
  -26.2006  -15.4319   21.6147 N   0  0  0  0  0  0  0  0  0  0  0  0
  -24.9772  -30.2892   22.1276 N   0  0  0  0  0  0  0  0  0  0  0  0
  -29.4732  -14.6165   19.8134 N   0  0  0  0  0  0  0  0  0  0  0  0
  -30.4479  -16.7644   19.4169 N   0  0  0  0  0  0  0  0  0  0  0  0
  -26.3814  -16.0119   23.9042 N   0  0  0  0  0  0  0  0  0  0  0  0
  -22.1376  -17.1597   22.8706 N   0  0  0  0  0  0  0  0  0  0  0  0
  -25.9914  -32.8424   19.8511 N   0  0  0  0  0  0  0  0  0  0  0  0
  -23.8841  -29.8636   25.3029 N   0  0  0  0  0  0  0  0  0  0  0  0
  -21.3963  -27.2822   25.7665 N   0  3  0  0  0  0  0  0  0  0  0  0
  -23.6993  -17.1196   24.5493 O   0  0  0  0  0  0  0  0  0  0  0  0
  -27.1325  -31.0400   20.7848 O   0  0  0  0  0  0  0  0  0  0  0  0
  -24.1076  -32.0182   23.4277 O   0  0  0  0  0  0  0  0  0  0  0  0
  -24.1083  -27.5671   25.0732 O   0  0  0  0  0  0  0  0  0  0  0  0
  -31.7604  -14.9154   19.8412 O   0  0  0  0  0  0  0  0  0  0  0  0
  -19.6903  -16.5920   17.8983 O   0  0  0  0  0  0  0  0  0  0  0  0
  -26.7395  -25.0887   19.2975 O   0  0  0  0  0  0  0  0  0  1  0  0
  -16.9668  -21.3739   18.2442 F   0  0  0  0  0  0  0  0  0  0  0  0
  -19.3735  -18.2076   15.6775 F   0  0  0  0  0  0  0  0  0  0  0  0
  1  2  1  0  0  0  0
  1  5  2  0  0  0  0
  2  6  2  0  0  0  0
  3  8  2  0  0  0  0
  3 16  1  0  0  0  0
  4  9  1  0  0  0  0
  4 16  2  0  0  0  0
  5 18  1  0  0  0  0
  6 20  1  0  0  0  0
  7 10  2  0  0  0  0
  7 19  1  0  0  0  0
  8 24  1  0  0  0  0
  9 24  2  0  0  0  0
 10 25  1  0  0  0  0
 11 12  2  0  0  0  0
 11 26  1  0  0  0  0
 12 27  1  0  0  0  0
 13 21  1  0  0  0  0
 13 25  2  0  0  0  0
 14 23  2  0  0  0  0
 14 30  1  0  0  0  0
 15 27  2  0  0  0  0
 15 28  1  0  0  0  0
 16 29  1  0  0  0  0
 17 29  1  0  0  0  0
 17 32  2  0  0  0  0
 17 33  1  0  0  0  0
 18 20  2  0  0  0  0
 18 38  1  0  0  0  0
 19 21  2  0  0  0  0
 19 39  1  0  0  0  0
 20 52  1  0  0  0  0
 21 40  1  0  0  0  0
 22 23  1  0  0  0  0
 22 31  2  0  0  0  0
 22 51  1  0  0  0  0
 23 55  1  0  0  0  0
 24 82  1  0  0  0  0
 25 83  1  0  0  0  0
 26 28  2  0  0  0  0
 26 82  1  0  0  0  0
 27 84  1  0  0  0  0
 28 85  1  0  0  0  0
 29 66  2  0  0  0  0
 30 62  1  0  0  0  0
 30 67  2  0  0  0  0
 31 56  1  0  0  0  0
 31 67  1  0  0  0  0
 32 68  1  0  0  0  0
 32 72  1  0  0  0  0
 33 73  1  0  0  0  0
 33 77  2  0  0  0  0
 34 53  1  0  0  0  0
 34 74  1  0  0  0  0
 34 78  2  0  0  0  0
 35 63  1  0  0  0  0
 35 69  1  0  0  0  0
 35 79  2  0  0  0  0
 36 64  1  0  0  0  0
 36 75  1  0  0  0  0
 36 80  2  0  0  0  0
 37 70  1  0  0  0  0
 37 71  1  0  0  0  0
 37 81  2  0  0  0  0
 38 41  1  0  0  0  0
 39 53  1  0  0  0  0
 40 69  1  0  0  0  0
 41 43  1  0  0  0  0
 42 44  1  0  0  0  0
 42 47  1  0  0  0  0
 43 52  1  0  0  0  0
 44 54  1  0  0  0  0
 45 48  1  0  0  0  0
 45 51  1  0  0  0  0
 46 49  1  0  0  0  0
 46 51  1  0  0  0  0
 47 70  1  0  0  0  0
 48 71  1  0  0  0  0
 49 71  1  0  0  0  0
 50 54  1  0  0  0  0
 50 70  1  0  0  0  0
 52 74  1  0  0  0  0
 53 69  1  0  0  0  0
 54 68  1  0  0  0  0
 57 64  1  0  0  0  0
 58 65  1  0  0  0  0
 59 65  1  0  0  0  0
 60 65  1  0  0  0  0
 61 76  1  0  0  0  0
 62 83  1  0  0  0  0
 63 65  1  0  0  0  0
 63 75  1  0  0  0  0
 64 76  1  0  0  0  0
 66 68  1  0  0  0  0
M  CHG  1  76   1
M  ISO  4  37 100  62 101  71 100  83 101
M  END
> <Batch ID>
0169

> <Smiles>
CNC(C)C(=O)NC(C(=O)N1Cc2cc([101O:1][101CH2:1]c3cc(C)c(C4CC[100N:0]([100C:0](=O)N5CCCC(n6nc(-c7ccc(Oc8ccc(F)cc8F)cc7)c(C(N)=O)c6N)C5)CC4)c(C)n3)ccc2CC1C(=O)NC1CCCc2ccccc21)C(C)(C)C

> <Shape>
0.212

> <Color>
0.105

> <Negative vol penalty>
0.000

$$$$

  -OEChem-04052322323D

 89 99  0     1  0  0  0  0  0999 V2000
  -26.6348  -35.1266   23.9989 C   0  0  0  0  0  0  0  0  0  0  0  0
  -27.0675  -33.8409   23.6904 C   0  0  0  0  0  0  0  0  0  0  0  0
  -21.2568  -12.7195   23.3153 C   0  0  0  0  0  0  0  0  0  0  0  0
  -21.3796  -14.4018   21.5856 C   0  0  0  0  0  0  0  0  0  0  0  0
  -25.3133  -35.3415   24.3879 C   0  0  0  0  0  0  0  0  0  0  0  0
  -26.1792  -32.7692   23.7718 C   0  0  0  0  0  0  0  0  0  0  0  0
  -26.5025  -29.6705   19.7795 C   0  0  0  0  0  0  0  0  0  0  0  0
  -19.9586  -13.1282   23.6207 C   0  0  0  0  0  0  0  0  0  0  0  0
  -20.0813  -14.8105   21.8909 C   0  0  0  0  0  0  0  0  0  0  0  0
  -27.5701  -28.7742   19.7539 C   0  0  0  0  0  0  0  0  0  0  0  0
  -16.6675  -16.0583   21.9731 C   0  0  0  0  0  0  0  0  0  0  0  0
  -15.7918  -16.2855   20.9115 C   0  0  0  0  0  0  0  0  0  0  0  0
  -26.1078  -27.0196   20.5300 C   0  0  0  0  0  0  0  0  0  0  0  0
  -16.0516  -13.9895   20.2058 C   0  0  0  0  0  0  0  0  0  0  0  0
  -21.9674  -13.3564   22.2978 C   0  0  0  0  0  0  0  0  0  0  0  0
  -23.6940  -11.9510   21.0523 C   0  0  0  0  0  0  0  0  0  0  0  0
  -24.4058  -34.2733   24.4648 C   0  0  0  0  0  0  0  0  0  0  0  0
  -25.2298  -29.2499   20.1916 C   0  0  0  0  0  0  0  0  0  0  0  0
  -24.8446  -32.9698   24.1635 C   0  0  0  0  0  0  0  0  0  0  0  0
  -25.0252  -27.9119   20.5575 C   0  0  0  0  0  0  0  0  0  0  0  0
  -29.6363  -23.3582   18.5341 C   0  0  0  0  0  0  0  0  0  0  0  0
  -29.9664  -22.8085   17.3003 C   0  0  0  0  0  0  0  0  0  0  0  0
  -30.0431  -21.4274   17.1590 C   0  0  0  0  0  0  0  0  0  0  0  0
  -19.3708  -14.1736   22.9085 C   0  0  0  0  0  0  0  0  0  0  0  0
  -27.3736  -27.4493   20.1320 C   0  0  0  0  0  0  0  0  0  0  0  0
  -17.2353  -14.7967   22.1510 C   0  0  0  0  0  0  0  0  0  0  0  0
  -15.4838  -15.2511   20.0278 C   0  0  0  0  0  0  0  0  0  0  0  0
  -16.9274  -13.7623   21.2674 C   0  0  0  0  0  0  0  0  0  0  0  0
  -23.3086  -12.9351   21.9823 C   0  0  0  0  0  0  0  0  0  0  0  0
  -29.3942  -22.4904   19.5868 C   0  0  0  0  0  0  0  0  0  0  0  0
  -29.7829  -20.6461   18.2733 C   0  0  0  0  0  0  0  0  0  0  0  0
  -25.0653  -11.9276   21.1257 C   0  0  0  0  0  0  0  0  0  0  0  0
  -22.8847  -11.1315   20.1984 C   0  0  0  0  0  0  0  0  0  0  0  0
  -23.2681  -30.0343   22.5665 C   0  0  0  0  0  0  0  0  0  0  0  0
  -21.2311  -28.0356   21.0244 C   0  0  0  0  0  0  0  0  0  0  0  0
  -20.8139  -25.4039   18.8921 C   0  0  0  0  0  0  0  0  0  0  0  0
  -29.0803  -16.2435   21.9432 C   0  0  0  0  0  0  0  0  0  0  0  0
  -22.9995  -34.5478   24.9358 C   0  0  0  0  0  0  0  0  0  0  0  0
  -24.0825  -30.2226   20.1880 C   0  0  0  0  0  0  0  0  0  0  0  0
  -23.6738  -27.4053   20.9884 C   0  0  0  0  0  0  0  0  0  0  0  0
  -22.0240  -33.4129   24.6351 C   0  0  0  0  0  0  0  0  0  0  0  0
  -28.2804  -13.9695   24.4494 C   0  0  0  0  0  0  0  0  0  0  0  0
  -22.6323  -32.0691   25.0236 C   0  0  0  0  0  0  0  0  0  0  0  0
  -26.8474  -13.6782   23.9902 C   0  0  0  0  0  0  0  0  0  0  0  0
  -29.0065  -16.9650   18.2630 C   0  0  0  0  0  0  0  0  0  0  0  0
  -28.6404  -25.6310   17.8142 C   0  0  0  0  0  0  0  0  0  0  0  0
  -29.2484  -14.1878   23.2890 C   0  0  0  0  0  0  0  0  0  0  0  0
  -28.5454  -16.0834   19.4185 C   0  0  0  0  0  0  0  0  0  0  0  0
  -27.4260  -14.3222   21.6170 C   0  0  0  0  0  0  0  0  0  0  0  0
  -29.5457  -24.8369   18.7181 C   0  0  1  0  0  0  0  0  0  0  0  0
  -23.9044  -31.7851   24.2159 C   0  0  1  0  0  0  0  0  0  0  0  0
  -22.9451  -29.8085   21.1166 C   0  0  1  0  0  0  0  0  0  0  0  0
  -26.8023  -13.2349   22.5195 C   0  0  2  0  0  0  0  0  0  0  0  0
  -29.0730  -18.3414   18.9135 C   0  0  1  0  0  0  0  0  0  0  0  0
  -28.2647  -25.4283   19.2502 C   0  0  1  0  0  0  0  0  0  1  0  0
  -29.6504  -18.0370   20.3018 C   0  0  2  0  0  0  0  0  0  0  0  0
  -30.2378  -23.6981   16.1289 C   0  0  0  0  0  0  0  0  0  0  0  0
  -30.3962  -20.8159   15.8429 C   0  0  0  0  0  0  0  0  0  0  0  0
  -29.0351  -23.0207   20.9367 C   0  0  0  0  0  0  0  0  0  0  0  0
  -31.1831  -17.9553   20.3342 C   0  0  0  0  0  0  0  0  0  0  0  0
  -19.0330  -23.9732   17.8535 C   0  0  0  0  0  0  0  0  0  0  0  0
  -20.8875  -26.5492   23.6669 C   0  0  0  0  0  0  0  0  0  0  0  0
  -19.8999  -24.6394   22.3840 C   0  0  0  0  0  0  0  0  0  0  0  0
  -18.7753  -26.8660   22.3658 C   0  0  0  0  0  0  0  0  0  0  0  0
  -21.5860  -26.2263   16.1559 C   0  0  0  0  0  0  0  0  0  0  0  0
  -20.9333  -26.5569   21.0854 C   0  0  1  0  0  0  0  0  0  0  0  0
  -19.9002  -25.2124   17.6950 C   0  0  2  0  0  0  0  0  0  0  0  0
  -20.1500  -26.1626   22.3693 C   0  0  0  0  0  0  0  0  0  0  0  0
  -24.3509  -13.4960   22.6012 N   0  0  0  0  0  0  0  0  0  0  0  0
  -29.4592  -21.1437   19.4878 N   0  0  0  0  0  0  0  0  0  0  0  0
  -25.4048  -12.8623   22.0590 N   0  0  0  0  0  0  0  0  0  0  0  0
  -22.5850  -28.3963   20.9742 N   0  0  0  0  0  0  0  0  0  0  0  0
  -28.6235  -14.9436   22.2022 N   0  0  0  0  0  0  0  0  0  0  0  0
  -29.0391  -16.7345   20.6370 N   0  0  0  0  0  0  0  0  0  0  0  0
  -26.0019  -11.1987   20.4822 N   0  0  0  0  0  0  0  0  0  0  0  0
  -21.4925  -11.2844   20.2493 N   0  0  0  0  0  0  0  0  0  0  0  0
  -29.8590  -19.2666   18.1398 N   0  0  0  0  0  0  0  0  0  0  0  0
  -23.5667  -31.3469   22.8786 N   0  0  0  0  0  0  0  0  0  0  0  0
  -20.2463  -26.2272   19.8414 N   0  0  0  0  0  0  0  0  0  0  0  0
  -20.7035  -25.0675   16.4482 N   0  3  0  0  0  0  0  0  0  0  0  0
  -23.3807  -10.2771   19.4254 O   0  0  0  0  0  0  0  0  0  0  0  0
  -23.2465  -29.0880   23.3448 O   0  0  0  0  0  0  0  0  0  0  0  0
  -20.2966  -28.8407   21.0142 O   0  0  0  0  0  0  0  0  0  0  0  0
  -21.9191  -24.8730   18.9782 O   0  0  0  0  0  0  0  0  0  0  0  0
  -29.5373  -16.9410   22.8611 O   0  0  0  0  0  0  0  0  0  0  0  0
  -18.1040  -14.5725   23.2060 O   0  0  0  0  0  0  0  0  0  0  0  0
  -28.4163  -26.5707   20.1085 O   0  0  0  0  0  0  0  0  0  1  0  0
  -14.6416  -15.4690   19.0093 F   0  0  0  0  0  0  0  0  0  0  0  0
  -17.4689  -12.5479   21.4339 F   0  0  0  0  0  0  0  0  0  0  0  0
  1  2  1  0  0  0  0
  1  5  2  0  0  0  0
  2  6  2  0  0  0  0
  3  8  2  0  0  0  0
  3 15  1  0  0  0  0
  4  9  1  0  0  0  0
  4 15  2  0  0  0  0
  5 17  1  0  0  0  0
  6 19  1  0  0  0  0
  7 10  2  0  0  0  0
  7 18  1  0  0  0  0
  8 24  1  0  0  0  0
  9 24  2  0  0  0  0
 10 25  1  0  0  0  0
 11 12  2  0  0  0  0
 11 26  1  0  0  0  0
 12 27  1  0  0  0  0
 13 20  1  0  0  0  0
 13 25  2  0  0  0  0
 14 27  2  0  0  0  0
 14 28  1  0  0  0  0
 15 29  1  0  0  0  0
 16 29  1  0  0  0  0
 16 32  2  0  0  0  0
 16 33  1  0  0  0  0
 17 19  2  0  0  0  0
 17 38  1  0  0  0  0
 18 20  2  0  0  0  0
 18 39  1  0  0  0  0
 19 51  1  0  0  0  0
 20 40  1  0  0  0  0
 21 22  2  0  0  0  0
 21 30  1  0  0  0  0
 21 50  1  0  0  0  0
 22 23  1  0  0  0  0
 22 57  1  0  0  0  0
 23 31  2  0  0  0  0
 23 58  1  0  0  0  0
 24 86  1  0  0  0  0
 25 87  1  0  0  0  0
 26 28  2  0  0  0  0
 26 86  1  0  0  0  0
 27 88  1  0  0  0  0
 28 89  1  0  0  0  0
 29 69  2  0  0  0  0
 30 59  1  0  0  0  0
 30 70  2  0  0  0  0
 31 70  1  0  0  0  0
 31 77  1  0  0  0  0
 32 71  1  0  0  0  0
 32 75  1  0  0  0  0
 33 76  1  0  0  0  0
 33 81  2  0  0  0  0
 34 52  1  0  0  0  0
 34 78  1  0  0  0  0
 34 82  2  0  0  0  0
 35 66  1  0  0  0  0
 35 72  1  0  0  0  0
 35 83  2  0  0  0  0
 36 67  1  0  0  0  0
 36 79  1  0  0  0  0
 36 84  2  0  0  0  0
 37 73  1  0  0  0  0
 37 74  1  0  0  0  0
 37 85  2  0  0  0  0
 38 41  1  0  0  0  0
 39 52  1  0  0  0  0
 40 72  1  0  0  0  0
 41 43  1  0  0  0  0
 42 44  1  0  0  0  0
 42 47  1  0  0  0  0
 43 51  1  0  0  0  0
 44 53  1  0  0  0  0
 45 48  1  0  0  0  0
 45 54  1  0  0  0  0
 46 50  1  0  0  0  0
 46 55  1  0  0  0  0
 47 73  1  0  0  0  0
 48 74  1  0  0  0  0
 49 53  1  0  0  0  0
 49 73  1  0  0  0  0
 50 55  1  0  0  0  0
 51 78  1  0  0  0  0
 52 72  1  0  0  0  0
 53 71  1  0  0  0  0
 54 56  1  0  0  0  0
 54 77  1  0  0  0  0
 55 87  1  0  0  0  0
 56 60  1  0  0  0  0
 56 74  1  0  0  0  0
 61 67  1  0  0  0  0
 62 68  1  0  0  0  0
 63 68  1  0  0  0  0
 64 68  1  0  0  0  0
 65 80  1  0  0  0  0
 66 68  1  0  0  0  0
 66 79  1  0  0  0  0
 67 80  1  0  0  0  0
 69 71  1  0  0  0  0
M  CHG  1  80   1
M  ISO  4  37 100  55 101  74 100  87 101
M  END
> <Batch ID>
0169

> <Smiles>
CNC(C)C(=O)NC(C(=O)N1Cc2cc([101O:1][101CH:1]3CC3c3c(C)nc(NC4CC[100N:0]([100C:0](=O)N5CCCC(n6nc(-c7ccc(Oc8ccc(F)cc8F)cc7)c(C(N)=O)c6N)C5)C4C)c(C)c3C)ccc2CC1C(=O)NC1CCCc2ccccc21)C(C)(C)C

> <Shape>
0.285

> <Color>
0.083

> <Negative vol penalty>
0.000

$$$$

  -OEChem-04052322323D

 85 94  0     1  0  0  0  0  0999 V2000
  -21.4344  -12.8924   19.8672 C   0  0  0  0  0  0  0  0  0  0  0  0
  -22.4915  -13.7026   20.2690 C   0  0  0  0  0  0  0  0  0  0  0  0
  -23.4116  -32.5344   27.1345 C   0  0  0  0  0  0  0  0  0  0  0  0
  -22.6135  -34.0365   25.4187 C   0  0  0  0  0  0  0  0  0  0  0  0
  -21.5666  -11.5050   19.9072 C   0  0  0  0  0  0  0  0  0  0  0  0
  -23.6813  -13.1258   20.7120 C   0  0  0  0  0  0  0  0  0  0  0  0
  -27.7760  -15.3668   18.7483 C   0  0  0  0  0  0  0  0  0  0  0  0
  -22.4885  -33.0699   28.0326 C   0  0  0  0  0  0  0  0  0  0  0  0
  -21.6903  -34.5719   26.3169 C   0  0  0  0  0  0  0  0  0  0  0  0
  -28.1659  -16.5830   19.3073 C   0  0  0  0  0  0  0  0  0  0  0  0
  -21.6976  -36.7806   28.8767 C   0  0  0  0  0  0  0  0  0  0  0  0
  -21.5691  -38.1687   28.9236 C   0  0  0  0  0  0  0  0  0  0  0  0
  -29.5273  -24.9207   22.0717 C   0  0  0  0  0  0  0  0  0  0  0  0
  -27.4119  -25.1590   20.2755 C   0  0  0  0  0  0  0  0  0  0  0  0
  -29.8609  -15.4430   20.5904 C   0  0  0  0  0  0  0  0  0  0  0  0
  -19.2410  -37.9740   28.3079 C   0  0  0  0  0  0  0  0  0  0  0  0
  -23.4742  -33.0178   25.8275 C   0  0  0  0  0  0  0  0  0  0  0  0
  -25.8299  -32.4546   25.0268 C   0  0  0  0  0  0  0  0  0  0  0  0
  -22.7620  -10.9110   20.3418 C   0  0  0  0  0  0  0  0  0  0  0  0
  -28.4195  -14.1761   19.1149 C   0  0  0  0  0  0  0  0  0  0  0  0
  -23.8292  -11.7291   20.7591 C   0  0  0  0  0  0  0  0  0  0  0  0
  -29.1922  -23.8304   21.2541 C   0  0  0  0  0  0  0  0  0  0  0  0
  -28.1337  -23.9576   20.3347 C   0  0  0  0  0  0  0  0  0  0  0  0
  -29.4789  -14.2133   20.0327 C   0  0  0  0  0  0  0  0  0  0  0  0
  -28.8096  -26.1137   21.9947 C   0  0  0  0  0  0  0  0  0  0  0  0
  -27.7511  -26.2320   21.0988 C   0  0  0  0  0  0  0  0  0  0  0  0
  -21.6278  -34.0886   27.6238 C   0  0  0  0  0  0  0  0  0  0  0  0
  -29.2066  -16.6209   20.2307 C   0  0  0  0  0  0  0  0  0  0  0  0
  -20.5978  -35.9891   28.5453 C   0  0  0  0  0  0  0  0  0  0  0  0
  -20.3408  -38.7654   28.6392 C   0  0  0  0  0  0  0  0  0  0  0  0
  -19.3695  -36.5859   28.2610 C   0  0  0  0  0  0  0  0  0  0  0  0
  -24.4280  -32.4655   24.8994 C   0  0  0  0  0  0  0  0  0  0  0  0
  -26.2729  -31.8201   23.8921 C   0  0  0  0  0  0  0  0  0  0  0  0
  -29.4350  -21.4034   20.5854 C   0  0  0  0  0  0  0  0  0  0  0  0
  -29.4377  -20.1563   21.0806 C   0  0  0  0  0  0  0  0  0  0  0  0
  -26.6577  -32.9716   26.0772 C   0  0  0  0  0  0  0  0  0  0  0  0
  -27.5074  -11.4736   20.5180 C   0  0  0  0  0  0  0  0  0  0  0  0
  -30.5344  -10.5435   19.8147 C   0  0  0  0  0  0  0  0  0  0  0  0
  -33.7571  -11.4394   19.1379 C   0  0  0  0  0  0  0  0  0  0  0  0
  -25.9259  -27.6968   20.1664 C   0  0  0  0  0  0  0  0  0  0  0  0
  -30.0148  -22.5653   21.3521 C   0  0  0  0  0  0  0  0  0  0  0  0
  -22.8412   -9.4065   20.4124 C   0  0  0  0  0  0  0  0  0  0  0  0
  -28.0047  -12.8758   18.4827 C   0  0  0  0  0  0  0  0  0  0  0  0
  -27.7144  -22.8026   19.4558 C   0  0  0  0  0  0  0  0  0  0  0  0
  -30.2156  -12.9658   20.4444 C   0  0  0  0  0  0  0  0  0  0  0  0
  -24.2672   -8.8770   20.5400 C   0  0  0  0  0  0  0  0  0  0  0  0
  -23.8025  -30.5118   19.6722 C   0  0  0  0  0  0  0  0  0  0  0  0
  -25.0342   -9.6593   21.6014 C   0  0  0  0  0  0  0  0  0  0  0  0
  -23.8913  -31.2701   20.9986 C   0  0  0  0  0  0  0  0  0  0  0  0
  -23.8286  -28.9987   19.8812 C   0  0  0  0  0  0  0  0  0  0  0  0
  -25.0435  -29.2602   22.0083 C   0  0  0  0  0  0  0  0  0  0  0  0
  -25.1443  -11.1411   21.2224 C   0  0  1  0  0  0  0  0  0  0  0  0
  -28.8045  -21.7366   19.2518 C   0  0  1  0  0  0  0  0  0  0  0  0
  -28.3895  -11.6569   19.3155 C   0  0  1  0  0  0  0  0  0  0  0  0
  -25.0863  -30.7883   21.8443 C   0  0  2  0  0  0  0  0  0  0  0  0
  -29.1988  -27.2476   22.8867 C   0  0  0  0  0  0  0  0  0  0  0  0
  -29.8529  -22.1783   18.2244 C   0  0  0  0  0  0  0  0  0  0  0  0
  -36.0125  -10.4566   18.6431 C   0  0  0  0  0  0  0  0  0  0  0  0
  -30.8636   -9.8219   22.7610 C   0  0  0  0  0  0  0  0  0  0  0  0
  -33.3401   -9.7623   22.3978 C   0  0  0  0  0  0  0  0  0  0  0  0
  -31.8620   -8.1749   21.1657 C   0  0  0  0  0  0  0  0  0  0  0  0
  -33.8750  -12.7494   16.4867 C   0  0  0  0  0  0  0  0  0  0  0  0
  -28.8799  -18.9729   20.3617 C   0  0  0  0  0  0  0  0  0  1  0  0
  -31.8671  -10.6192   20.5198 C   0  0  1  0  0  0  0  0  0  0  0  0
  -34.7192  -10.9948   18.0511 C   0  0  2  0  0  0  0  0  0  0  0  0
  -31.9683   -9.6180   21.7050 C   0  0  0  0  0  0  0  0  0  0  0  0
  -24.0081  -31.8844   23.7724 N   0  0  0  0  0  0  0  0  0  0  0  0
  -25.1530  -31.5023   23.1814 N   0  0  0  0  0  0  0  0  0  0  0  0
  -29.7688  -11.7181   19.8031 N   0  0  0  0  0  0  0  0  0  0  0  0
  -24.9899  -28.6154   20.6869 N   0  0  0  0  0  0  0  0  0  0  0  0
  -27.5073  -31.5087   23.4428 N   0  0  0  0  0  0  0  0  0  0  0  0
  -27.1049  -34.2966   25.9845 N   0  0  0  0  0  0  0  0  0  0  0  0
  -27.0053  -27.4334   21.0091 N   0  0  0  0  0  0  0  0  0  0  0  0
  -26.1666  -11.3307   20.2157 N   0  0  0  0  0  0  0  0  0  0  0  0
  -32.8844  -10.4320   19.4909 N   0  0  0  0  0  0  0  0  0  0  0  0
  -35.0525  -12.1379   17.1549 N   0  3  0  0  0  0  0  0  0  0  0  0
  -27.0045  -32.2739   27.0603 O   0  0  0  0  0  0  0  0  0  0  0  0
  -28.0065  -11.4612   21.6371 O   0  0  0  0  0  0  0  0  0  0  0  0
  -30.1886   -9.4834   19.2873 O   0  0  0  0  0  0  0  0  0  0  0  0
  -33.7802  -12.5665   19.6276 O   0  0  0  0  0  0  0  0  0  0  0  0
  -25.7946  -27.2024   19.0437 O   0  0  0  0  0  0  0  0  0  0  0  0
  -20.7267  -34.6111   28.4999 O   0  0  0  0  0  0  0  0  0  0  0  0
  -29.5887  -17.8066   20.7784 O   0  0  0  0  0  0  0  0  0  1  0  0
  -20.2172  -40.0983   28.6858 F   0  0  0  0  0  0  0  0  0  0  0  0
  -18.3090  -35.8307   27.9432 F   0  0  0  0  0  0  0  0  0  0  0  0
  1  2  1  0  0  0  0
  1  5  2  0  0  0  0
  2  6  2  0  0  0  0
  3  8  2  0  0  0  0
  3 17  1  0  0  0  0
  4  9  1  0  0  0  0
  4 17  2  0  0  0  0
  5 19  1  0  0  0  0
  6 21  1  0  0  0  0
  7 10  2  0  0  0  0
  7 20  1  0  0  0  0
  8 27  1  0  0  0  0
  9 27  2  0  0  0  0
 10 28  1  0  0  0  0
 11 12  2  0  0  0  0
 11 29  1  0  0  0  0
 12 30  1  0  0  0  0
 13 22  1  0  0  0  0
 13 25  2  0  0  0  0
 14 23  1  0  0  0  0
 14 26  2  0  0  0  0
 15 24  1  0  0  0  0
 15 28  2  0  0  0  0
 16 30  2  0  0  0  0
 16 31  1  0  0  0  0
 17 32  1  0  0  0  0
 18 32  1  0  0  0  0
 18 33  2  0  0  0  0
 18 36  1  0  0  0  0
 19 21  2  0  0  0  0
 19 42  1  0  0  0  0
 20 24  2  0  0  0  0
 20 43  1  0  0  0  0
 21 52  1  0  0  0  0
 22 23  2  0  0  0  0
 22 41  1  0  0  0  0
 23 44  1  0  0  0  0
 24 45  1  0  0  0  0
 25 26  1  0  0  0  0
 25 56  1  0  0  0  0
 26 73  1  0  0  0  0
 27 82  1  0  0  0  0
 28 83  1  0  0  0  0
 29 31  2  0  0  0  0
 29 82  1  0  0  0  0
 30 84  1  0  0  0  0
 31 85  1  0  0  0  0
 32 67  2  0  0  0  0
 33 68  1  0  0  0  0
 33 71  1  0  0  0  0
 34 35  2  0  0  0  0
 34 41  1  0  0  0  0
 34 53  1  0  0  0  0
 35 63  1  0  0  0  0
 36 72  1  0  0  0  0
 36 77  2  0  0  0  0
 37 54  1  0  0  0  0
 37 74  1  0  0  0  0
 37 78  2  0  0  0  0
 38 64  1  0  0  0  0
 38 69  1  0  0  0  0
 38 79  2  0  0  0  0
 39 65  1  0  0  0  0
 39 75  1  0  0  0  0
 39 80  2  0  0  0  0
 40 70  1  0  0  0  0
 40 73  1  0  0  0  0
 40 81  2  0  0  0  0
 42 46  1  0  0  0  0
 43 54  1  0  0  0  0
 44 53  1  0  0  0  0
 45 69  1  0  0  0  0
 46 48  1  0  0  0  0
 47 49  1  0  0  0  0
 47 50  1  0  0  0  0
 48 52  1  0  0  0  0
 49 55  1  0  0  0  0
 50 70  1  0  0  0  0
 51 55  1  0  0  0  0
 51 70  1  0  0  0  0
 52 74  1  0  0  0  0
 53 57  1  0  0  0  0
 54 69  1  0  0  0  0
 55 68  1  0  0  0  0
 58 65  1  0  0  0  0
 59 66  1  0  0  0  0
 60 66  1  0  0  0  0
 61 66  1  0  0  0  0
 62 76  1  0  0  0  0
 63 83  1  0  0  0  0
 64 66  1  0  0  0  0
 64 75  1  0  0  0  0
 65 76  1  0  0  0  0
 67 68  1  0  0  0  0
M  CHG  1  76   1
M  ISO  4  40 100  63 101  73 100  83 101
M  END
> <Batch ID>
0169

> <Smiles>
CNC(C)C(=O)NC(C(=O)N1Cc2cc([101O:1][101CH2:1]C=C3Cc4cc(C)c([100NH:0][100C:0](=O)N5CCCC(n6nc(-c7ccc(Oc8ccc(F)cc8F)cc7)c(C(N)=O)c6N)C5)cc4CC3C)ccc2CC1C(=O)NC1CCCc2ccccc21)C(C)(C)C

> <Shape>
0.264

> <Color>
0.058

> <Negative vol penalty>
0.000

$$$$

  -OEChem-04052322323D

 86 95  0     1  0  0  0  0  0999 V2000
  -32.4318  -13.8154   20.2094 C   0  0  0  0  0  0  0  0  0  0  0  0
  -31.7347  -14.9933   20.4584 C   0  0  0  0  0  0  0  0  0  0  0  0
  -28.6694  -28.2865   20.4320 C   0  0  0  0  0  0  0  0  0  0  0  0
  -27.2035  -26.6237   19.4710 C   0  0  0  0  0  0  0  0  0  0  0  0
  -31.7457  -12.6755   19.7927 C   0  0  0  0  0  0  0  0  0  0  0  0
  -30.3511  -15.0322   20.2897 C   0  0  0  0  0  0  0  0  0  0  0  0
  -26.3278  -18.2491   23.6019 C   0  0  0  0  0  0  0  0  0  0  0  0
  -29.7454  -27.4069   20.3127 C   0  0  0  0  0  0  0  0  0  0  0  0
  -28.2795  -25.7441   19.3517 C   0  0  0  0  0  0  0  0  0  0  0  0
  -25.6967  -19.4726   23.3814 C   0  0  0  0  0  0  0  0  0  0  0  0
  -30.0425  -23.6768   21.3639 C   0  0  0  0  0  0  0  0  0  0  0  0
  -29.8454  -22.3542   21.7605 C   0  0  0  0  0  0  0  0  0  0  0  0
  -18.9189  -24.1751   19.7890 C   0  0  0  0  0  0  0  0  0  0  0  0
  -23.7716  -18.3144   22.5028 C   0  0  0  0  0  0  0  0  0  0  0  0
  -30.3719  -21.6053   19.5247 C   0  0  0  0  0  0  0  0  0  0  0  0
  -27.3984  -27.8948   20.0112 C   0  0  0  0  0  0  0  0  0  0  0  0
  -19.8192  -24.7715   21.9418 C   0  0  0  0  0  0  0  0  0  0  0  0
  -25.8455  -29.7414   19.1827 C   0  0  0  0  0  0  0  0  0  0  0  0
  -30.3517  -12.6978   19.6282 C   0  0  0  0  0  0  0  0  0  0  0  0
  -25.6888  -17.0475   23.2638 C   0  0  0  0  0  0  0  0  0  0  0  0
  -29.6458  -13.8919   19.8692 C   0  0  0  0  0  0  0  0  0  0  0  0
  -19.7024  -23.8635   20.8871 C   0  0  0  0  0  0  0  0  0  0  0  0
  -24.3957  -17.0769   22.7223 C   0  0  0  0  0  0  0  0  0  0  0  0
  -18.2592  -25.4085   19.7710 C   0  0  0  0  0  0  0  0  0  0  0  0
  -19.1778  -25.9962   21.9478 C   0  0  0  0  0  0  0  0  0  0  0  0
  -18.3879  -26.3110   20.8415 C   0  0  0  0  0  0  0  0  0  0  0  0
  -29.5505  -26.1358   19.7725 C   0  0  0  0  0  0  0  0  0  0  0  0
  -24.4196  -19.5055   22.8291 C   0  0  0  0  0  0  0  0  0  0  0  0
  -30.4042  -23.9637   20.0476 C   0  0  0  0  0  0  0  0  0  0  0  0
  -30.0101  -21.3184   20.8409 C   0  0  0  0  0  0  0  0  0  0  0  0
  -30.5689  -22.9280   19.1280 C   0  0  0  0  0  0  0  0  0  0  0  0
  -26.2864  -28.8027   20.1348 C   0  0  0  0  0  0  0  0  0  0  0  0
  -24.7658  -30.3497   19.7749 C   0  0  0  0  0  0  0  0  0  0  0  0
  -20.6962  -24.2078   22.9706 C   0  0  0  0  0  0  0  0  0  0  0  0
  -21.1227  -22.8663   22.4740 C   0  0  0  0  0  0  0  0  0  0  0  0
  -21.9367  -22.0598   23.1638 C   0  0  0  0  0  0  0  0  0  0  0  0
  -26.3653  -30.0368   17.8796 C   0  0  0  0  0  0  0  0  0  0  0  0
  -26.3073  -14.6675   21.2496 C   0  0  0  0  0  0  0  0  0  0  0  0
  -23.7266  -13.3115   22.6721 C   0  0  0  0  0  0  0  0  0  0  0  0
  -20.8216  -13.7351   24.4123 C   0  0  0  0  0  0  0  0  0  0  0  0
  -20.9198  -28.6003   24.0174 C   0  0  0  0  0  0  0  0  0  0  0  0
  -20.4954  -22.6142   21.1266 C   0  0  0  0  0  0  0  0  0  0  0  0
  -29.6595  -11.4537   19.1304 C   0  0  0  0  0  0  0  0  0  0  0  0
  -26.3723  -15.7349   23.5327 C   0  0  0  0  0  0  0  0  0  0  0  0
  -23.6584  -15.8143   22.3608 C   0  0  0  0  0  0  0  0  0  0  0  0
  -28.1472  -11.4741   19.3368 C   0  0  0  0  0  0  0  0  0  0  0  0
  -23.0017  -31.4880   24.0741 C   0  0  0  0  0  0  0  0  0  0  0  0
  -27.5658  -12.8125   18.8923 C   0  0  0  0  0  0  0  0  0  0  0  0
  -24.0398  -31.2120   22.9850 C   0  0  0  0  0  0  0  0  0  0  0  0
  -22.6175  -30.2141   24.8235 C   0  0  0  0  0  0  0  0  0  0  0  0
  -23.2094  -28.8251   22.8756 C   0  0  0  0  0  0  0  0  0  0  0  0
  -28.1416  -13.9668   19.7215 C   0  0  1  0  0  0  0  0  0  0  0  0
  -25.8347  -14.5943   22.6740 C   0  0  1  0  0  0  0  0  0  0  0  0
  -23.5870  -30.0703   22.0551 C   0  0  2  0  0  0  0  0  0  0  0  0
  -17.4118  -25.7483   18.5868 C   0  0  0  0  0  0  0  0  0  0  0  0
  -17.6683  -27.6232   20.7916 C   0  0  0  0  0  0  0  0  0  0  0  0
  -18.9103  -12.4429   25.3995 C   0  0  0  0  0  0  0  0  0  0  0  0
  -22.5452  -12.9336   19.8843 C   0  0  0  0  0  0  0  0  0  0  0  0
  -20.3174  -12.5419   20.9575 C   0  0  0  0  0  0  0  0  0  0  0  0
  -22.2161  -10.9941   21.4285 C   0  0  0  0  0  0  0  0  0  0  0  0
  -21.4451  -14.6780   27.1474 C   0  0  0  0  0  0  0  0  0  0  0  0
  -19.3190  -26.9486   23.0854 C   0  0  0  0  0  0  0  0  0  0  0  0
  -22.3767  -20.7149   22.6881 C   0  0  0  0  0  0  0  0  0  1  0  0
  -22.2384  -13.3204   22.4186 C   0  0  1  0  0  0  0  0  0  0  0  0
  -20.2819  -13.0485   25.6540 C   0  0  2  0  0  0  0  0  0  0  0  0
  -21.8437  -12.4716   21.1771 C   0  0  0  0  0  0  0  0  0  0  0  0
  -25.5474  -28.8106   21.2473 N   0  0  0  0  0  0  0  0  0  0  0  0
  -24.6312  -29.7617   20.9981 N   0  0  0  0  0  0  0  0  0  0  0  0
  -24.3713  -14.5561   22.6369 N   0  0  0  0  0  0  0  0  0  0  0  0
  -22.1961  -29.1717   23.8844 N   0  0  0  0  0  0  0  0  0  0  0  0
  -23.9281  -31.3251   19.3634 N   0  0  0  0  0  0  0  0  0  0  0  0
  -27.4796  -29.3178   17.4260 N   0  0  0  0  0  0  0  0  0  0  0  0
  -27.5071  -14.0212   21.0211 N   0  0  0  0  0  0  0  0  0  0  0  0
  -21.6099  -12.8883   23.6622 N   0  0  0  0  0  0  0  0  0  0  0  0
  -20.5975  -27.6241   23.0825 N   0  0  0  0  0  0  0  0  0  0  0  0
  -20.1646  -14.0232   26.7752 N   0  3  0  0  0  0  0  0  0  0  0  0
  -21.0129  -24.7315   24.0188 O   0  0  0  0  0  0  0  0  0  0  0  0
  -25.8669  -30.9239   17.1460 O   0  0  0  0  0  0  0  0  0  0  0  0
  -25.6327  -15.2649   20.4191 O   0  0  0  0  0  0  0  0  0  0  0  0
  -24.2948  -12.2407   22.9003 O   0  0  0  0  0  0  0  0  0  0  0  0
  -20.5661  -14.9046   24.1335 O   0  0  0  0  0  0  0  0  0  0  0  0
  -20.1244  -28.9389   24.9003 O   0  0  0  0  0  0  0  0  0  0  0  0
  -30.6002  -25.2773   19.6556 O   0  0  0  0  0  0  0  0  0  0  0  0
  -23.8016  -20.6984   22.6122 O   0  0  0  0  0  0  0  0  0  1  0  0
  -29.8223  -20.0482   21.2223 F   0  0  0  0  0  0  0  0  0  0  0  0
  -30.9175  -23.1973   17.8624 F   0  0  0  0  0  0  0  0  0  0  0  0
  1  2  1  0  0  0  0
  1  5  2  0  0  0  0
  2  6  2  0  0  0  0
  3  8  2  0  0  0  0
  3 16  1  0  0  0  0
  4  9  1  0  0  0  0
  4 16  2  0  0  0  0
  5 19  1  0  0  0  0
  6 21  1  0  0  0  0
  7 10  2  0  0  0  0
  7 20  1  0  0  0  0
  8 27  1  0  0  0  0
  9 27  2  0  0  0  0
 10 28  1  0  0  0  0
 11 12  2  0  0  0  0
 11 29  1  0  0  0  0
 12 30  1  0  0  0  0
 13 22  1  0  0  0  0
 13 24  2  0  0  0  0
 14 23  1  0  0  0  0
 14 28  2  0  0  0  0
 15 30  2  0  0  0  0
 15 31  1  0  0  0  0
 16 32  1  0  0  0  0
 17 22  2  0  0  0  0
 17 25  1  0  0  0  0
 17 34  1  0  0  0  0
 18 32  1  0  0  0  0
 18 33  2  0  0  0  0
 18 37  1  0  0  0  0
 19 21  2  0  0  0  0
 19 43  1  0  0  0  0
 20 23  2  0  0  0  0
 20 44  1  0  0  0  0
 21 52  1  0  0  0  0
 22 42  1  0  0  0  0
 23 45  1  0  0  0  0
 24 26  1  0  0  0  0
 24 55  1  0  0  0  0
 25 26  2  0  0  0  0
 25 62  1  0  0  0  0
 26 56  1  0  0  0  0
 27 83  1  0  0  0  0
 28 84  1  0  0  0  0
 29 31  2  0  0  0  0
 29 83  1  0  0  0  0
 30 85  1  0  0  0  0
 31 86  1  0  0  0  0
 32 67  2  0  0  0  0
 33 68  1  0  0  0  0
 33 71  1  0  0  0  0
 34 35  1  0  0  0  0
 34 77  2  0  0  0  0
 35 36  2  0  0  0  0
 35 42  1  0  0  0  0
 36 63  1  0  0  0  0
 37 72  1  0  0  0  0
 37 78  2  0  0  0  0
 38 53  1  0  0  0  0
 38 73  1  0  0  0  0
 38 79  2  0  0  0  0
 39 64  1  0  0  0  0
 39 69  1  0  0  0  0
 39 80  2  0  0  0  0
 40 65  1  0  0  0  0
 40 74  1  0  0  0  0
 40 81  2  0  0  0  0
 41 70  1  0  0  0  0
 41 75  1  0  0  0  0
 41 82  2  0  0  0  0
 43 46  1  0  0  0  0
 44 53  1  0  0  0  0
 45 69  1  0  0  0  0
 46 48  1  0  0  0  0
 47 49  1  0  0  0  0
 47 50  1  0  0  0  0
 48 52  1  0  0  0  0
 49 54  1  0  0  0  0
 50 70  1  0  0  0  0
 51 54  1  0  0  0  0
 51 70  1  0  0  0  0
 52 73  1  0  0  0  0
 53 69  1  0  0  0  0
 54 68  1  0  0  0  0
 57 65  1  0  0  0  0
 58 66  1  0  0  0  0
 59 66  1  0  0  0  0
 60 66  1  0  0  0  0
 61 76  1  0  0  0  0
 62 75  1  0  0  0  0
 63 84  1  0  0  0  0
 64 66  1  0  0  0  0
 64 74  1  0  0  0  0
 65 76  1  0  0  0  0
 67 68  1  0  0  0  0
M  CHG  1  76   1
M  ISO  4  41 100  63 101  75 100  84 101
M  END
> <Batch ID>
0169

> <Smiles>
CNC(C)C(=O)NC(C(=O)N1Cc2cc([101O:1][101CH2:1]C=C3Cc4cc(C)c(C)c(C[100NH:0][100C:0](=O)N5CCCC(n6nc(-c7ccc(Oc8ccc(F)cc8F)cc7)c(C(N)=O)c6N)C5)c4C3=O)ccc2CC1C(=O)NC1CCCc2ccccc21)C(C)(C)C

> <Shape>
0.255

> <Color>
0.062

> <Negative vol penalty>
0.000

$$$$

  -OEChem-04052322323D

 86 95  0     1  0  0  0  0  0999 V2000
  -25.6165  -35.7692   21.4432 C   0  0  0  0  0  0  0  0  0  0  0  0
  -26.2418  -34.5266   21.4639 C   0  0  0  0  0  0  0  0  0  0  0  0
  -22.9772   -9.3161   19.8834 C   0  0  0  0  0  0  0  0  0  0  0  0
  -23.5861   -9.4837   22.2154 C   0  0  0  0  0  0  0  0  0  0  0  0
  -24.3472  -35.9189   22.0005 C   0  0  0  0  0  0  0  0  0  0  0  0
  -25.5986  -33.4332   22.0428 C   0  0  0  0  0  0  0  0  0  0  0  0
  -25.9460  -29.2509   19.2086 C   0  0  0  0  0  0  0  0  0  0  0  0
  -22.8569   -7.9326   20.0142 C   0  0  0  0  0  0  0  0  0  0  0  0
  -23.4657   -8.1002   22.3463 C   0  0  0  0  0  0  0  0  0  0  0  0
  -27.1524  -28.5531   19.2484 C   0  0  0  0  0  0  0  0  0  0  0  0
  -20.9778   -5.8401   22.6965 C   0  0  0  0  0  0  0  0  0  0  0  0
  -20.2991   -5.3529   23.8135 C   0  0  0  0  0  0  0  0  0  0  0  0
  -26.1830  -26.9774   20.7966 C   0  0  0  0  0  0  0  0  0  0  0  0
  -27.6838  -22.0097   18.5214 C   0  0  0  0  0  0  0  0  0  0  0  0
  -22.2866   -4.1648   24.5029 C   0  0  0  0  0  0  0  0  0  0  0  0
  -23.3419  -10.0916   20.9840 C   0  0  0  0  0  0  0  0  0  0  0  0
  -22.4591  -12.4843   21.0435 C   0  0  0  0  0  0  0  0  0  0  0  0
  -23.6841  -34.8246   22.5779 C   0  0  0  0  0  0  0  0  0  0  0  0
  -24.8506  -28.8226   19.9722 C   0  0  0  0  0  0  0  0  0  0  0  0
  -24.3198  -33.5687   22.6094 C   0  0  0  0  0  0  0  0  0  0  0  0
  -24.9631  -27.6700   20.7627 C   0  0  0  0  0  0  0  0  0  0  0  0
  -29.3216  -23.2563   19.7731 C   0  0  0  0  0  0  0  0  0  0  0  0
  -28.5127  -22.1327   19.6324 C   0  0  0  0  0  0  0  0  0  0  0  0
  -23.1011   -7.3246   21.2457 C   0  0  0  0  0  0  0  0  0  0  0  0
  -27.2719  -27.4179   20.0447 C   0  0  0  0  0  0  0  0  0  0  0  0
  -22.3109   -5.4896   22.4827 C   0  0  0  0  0  0  0  0  0  0  0  0
  -20.9535   -4.5153   24.7167 C   0  0  0  0  0  0  0  0  0  0  0  0
  -22.9653   -4.6519   23.3859 C   0  0  0  0  0  0  0  0  0  0  0  0
  -23.4669  -11.5207   20.8494 C   0  0  0  0  0  0  0  0  0  0  0  0
  -27.6847  -23.0213   17.5716 C   0  0  0  0  0  0  0  0  0  0  0  0
  -29.2812  -24.2363   18.7916 C   0  0  0  0  0  0  0  0  0  0  0  0
  -23.0794  -13.6845   20.7961 C   0  0  0  0  0  0  0  0  0  0  0  0
  -21.0852  -12.3100   21.4143 C   0  0  0  0  0  0  0  0  0  0  0  0
  -23.1315  -30.0811   22.3312 C   0  0  0  0  0  0  0  0  0  0  0  0
  -21.3223  -27.4221   21.9081 C   0  0  0  0  0  0  0  0  0  0  0  0
  -21.1245  -24.1970   20.8095 C   0  0  0  0  0  0  0  0  0  0  0  0
  -27.2963  -17.0896   21.4929 C   0  0  0  0  0  0  0  0  0  0  0  0
  -22.3327  -35.0457   23.2099 C   0  0  0  0  0  0  0  0  0  0  0  0
  -23.5479  -29.5710   19.8976 C   0  0  0  0  0  0  0  0  0  0  0  0
  -23.8105  -27.1572   21.5856 C   0  0  0  0  0  0  0  0  0  0  0  0
  -21.5629  -33.7533   23.4695 C   0  0  0  0  0  0  0  0  0  0  0  0
  -27.6130  -14.6993   18.7955 C   0  0  0  0  0  0  0  0  0  0  0  0
  -22.4688  -32.7143   24.1226 C   0  0  0  0  0  0  0  0  0  0  0  0
  -26.4687  -13.7345   19.1107 C   0  0  0  0  0  0  0  0  0  0  0  0
  -28.2895  -15.1921   20.0716 C   0  0  0  0  0  0  0  0  0  0  0  0
  -26.2221  -14.8622   21.3698 C   0  0  0  0  0  0  0  0  0  0  0  0
  -27.4326  -20.2714   20.9362 C   0  0  0  0  0  0  0  0  0  0  0  0
  -29.5244  -20.1337   20.7773 C   0  0  0  0  0  0  0  0  0  0  0  0
  -23.6441  -32.3532   23.2062 C   0  0  1  0  0  0  0  0  0  0  0  0
  -22.6559  -29.3403   21.1135 C   0  0  1  0  0  0  0  0  0  0  0  0
  -25.4821  -14.3476   20.1218 C   0  0  2  0  0  0  0  0  0  0  0  0
  -28.4708  -19.3090   21.5303 C   0  0  0  0  0  0  0  0  0  0  0  0
  -30.2198  -23.4114   20.9563 C   0  0  0  0  0  0  0  0  0  0  0  0
  -26.8292  -22.9651   16.3587 C   0  0  0  0  0  0  0  0  0  0  0  0
  -31.0993  -25.5676   17.6718 C   0  0  0  0  0  0  0  0  0  0  0  0
  -19.5254  -22.2713   20.6312 C   0  0  0  0  0  0  0  0  0  0  0  0
  -21.6518  -26.8752   24.8918 C   0  0  0  0  0  0  0  0  0  0  0  0
  -20.8811  -24.5298   24.4761 C   0  0  0  0  0  0  0  0  0  0  0  0
  -19.3554  -26.4450   23.9998 C   0  0  0  0  0  0  0  0  0  0  0  0
  -21.3263  -24.1523   17.8572 C   0  0  0  0  0  0  0  0  0  0  0  0
  -29.2587  -26.7662   18.9116 C   0  0  0  0  0  0  0  0  0  1  0  0
  -30.1244  -25.5003   18.8507 C   0  0  1  0  0  0  0  0  0  0  0  0
  -21.3284  -26.0234   22.4761 C   0  0  1  0  0  0  0  0  0  0  0  0
  -20.1047  -23.4921   19.9334 C   0  0  2  0  0  0  0  0  0  0  0  0
  -20.8267  -25.9789   23.9471 C   0  0  0  0  0  0  0  0  0  0  0  0
  -24.6385  -12.0620   20.5051 N   0  0  0  0  0  0  0  0  0  0  0  0
  -24.3707  -13.3788   20.4809 N   0  0  0  0  0  0  0  0  0  0  0  0
  -28.4737  -24.0925   17.7319 N   0  3  0  0  0  0  0  0  0  0  0  0
  -28.5191  -21.1090   20.6047 N   0  0  0  0  0  0  0  0  0  0  0  0
  -22.5597  -27.9269   21.4840 N   0  0  0  0  0  0  0  0  0  0  0  0
  -27.2979  -15.7816   20.9829 N   0  0  0  0  0  0  0  0  0  0  0  0
  -22.6408  -14.9610   20.8197 N   0  0  0  0  0  0  0  0  0  0  0  0
  -20.6114  -11.0088   21.6307 N   0  0  0  0  0  0  0  0  0  0  0  0
  -23.2114  -31.4501   22.1613 N   0  0  0  0  0  0  0  0  0  0  0  0
  -20.5487  -25.2049   21.5538 N   0  0  0  0  0  0  0  0  0  0  0  0
  -28.3439  -17.9070   21.0818 N   0  0  0  0  0  0  0  0  0  0  0  0
  -20.7356  -23.0492   18.6580 N   0  3  0  0  0  0  0  0  0  0  0  0
  -20.2966  -13.2782   21.5336 O   0  0  0  0  0  0  0  0  0  0  0  0
  -23.4042  -29.4569   23.3498 O   0  0  0  0  0  0  0  0  0  0  0  0
  -20.2578  -28.0411   21.8366 O   0  0  0  0  0  0  0  0  0  0  0  0
  -22.3124  -23.8825   20.8342 O   0  0  0  0  0  0  0  0  0  0  0  0
  -26.4213  -17.5097   22.2581 O   0  0  0  0  0  0  0  0  0  0  0  0
  -22.9836   -5.9747   21.3737 O   0  0  0  0  0  0  0  0  0  0  0  0
  -28.4485  -26.7354   20.0859 O   0  0  0  0  0  0  0  0  0  1  0  0
  -20.3020   -4.0487   25.7901 F   0  0  0  0  0  0  0  0  0  0  0  0
  -24.2462   -4.3127   23.1864 F   0  0  0  0  0  0  0  0  0  0  0  0
  1  2  1  0  0  0  0
  1  5  2  0  0  0  0
  2  6  2  0  0  0  0
  3  8  2  0  0  0  0
  3 16  1  0  0  0  0
  4  9  1  0  0  0  0
  4 16  2  0  0  0  0
  5 18  1  0  0  0  0
  6 20  1  0  0  0  0
  7 10  2  0  0  0  0
  7 19  1  0  0  0  0
  8 24  1  0  0  0  0
  9 24  2  0  0  0  0
 10 25  1  0  0  0  0
 11 12  2  0  0  0  0
 11 26  1  0  0  0  0
 12 27  1  0  0  0  0
 13 21  1  0  0  0  0
 13 25  2  0  0  0  0
 14 23  2  0  0  0  0
 14 30  1  0  0  0  0
 15 27  2  0  0  0  0
 15 28  1  0  0  0  0
 16 29  1  0  0  0  0
 17 29  1  0  0  0  0
 17 32  2  0  0  0  0
 17 33  1  0  0  0  0
 18 20  2  0  0  0  0
 18 38  1  0  0  0  0
 19 21  2  0  0  0  0
 19 39  1  0  0  0  0
 20 49  1  0  0  0  0
 21 40  1  0  0  0  0
 22 23  1  0  0  0  0
 22 31  2  0  0  0  0
 22 53  1  0  0  0  0
 23 69  1  0  0  0  0
 24 83  1  0  0  0  0
 25 84  1  0  0  0  0
 26 28  2  0  0  0  0
 26 83  1  0  0  0  0
 27 85  1  0  0  0  0
 28 86  1  0  0  0  0
 29 66  2  0  0  0  0
 30 54  1  0  0  0  0
 30 68  2  0  0  0  0
 31 62  1  0  0  0  0
 31 68  1  0  0  0  0
 32 67  1  0  0  0  0
 32 72  1  0  0  0  0
 33 73  1  0  0  0  0
 33 78  2  0  0  0  0
 34 50  1  0  0  0  0
 34 74  1  0  0  0  0
 34 79  2  0  0  0  0
 35 63  1  0  0  0  0
 35 70  1  0  0  0  0
 35 80  2  0  0  0  0
 36 64  1  0  0  0  0
 36 75  1  0  0  0  0
 36 81  2  0  0  0  0
 37 71  1  0  0  0  0
 37 76  1  0  0  0  0
 37 82  2  0  0  0  0
 38 41  1  0  0  0  0
 39 50  1  0  0  0  0
 40 70  1  0  0  0  0
 41 43  1  0  0  0  0
 42 44  1  0  0  0  0
 42 45  1  0  0  0  0
 43 49  1  0  0  0  0
 44 51  1  0  0  0  0
 45 71  1  0  0  0  0
 46 51  1  0  0  0  0
 46 71  1  0  0  0  0
 47 52  1  0  0  0  0
 47 69  1  0  0  0  0
 48 52  1  0  0  0  0
 48 69  1  0  0  0  0
 49 74  1  0  0  0  0
 50 70  1  0  0  0  0
 51 67  1  0  0  0  0
 52 76  1  0  0  0  0
 55 62  1  0  0  0  0
 56 64  1  0  0  0  0
 57 65  1  0  0  0  0
 58 65  1  0  0  0  0
 59 65  1  0  0  0  0
 60 77  1  0  0  0  0
 61 62  1  0  0  0  0
 61 84  1  0  0  0  0
 63 65  1  0  0  0  0
 63 75  1  0  0  0  0
 64 77  1  0  0  0  0
 66 67  1  0  0  0  0
M  CHG  2  68   1  77   1
M  ISO  4  37 100  61 101  76 100  84 101
M  END
> <Batch ID>
0169

> <Smiles>
CNC(C)C(=O)NC(C(=O)N1Cc2cc([101O:1][101CH2:1]C(C)c3nc(C)cc(N4CC([100NH:0][100C:0](=O)N5CCCC(n6nc(-c7ccc(Oc8ccc(F)cc8F)cc7)c(C(N)=O)c6N)C5)C4)c3C)ccc2CC1C(=O)NC1CCCc2ccccc21)C(C)(C)C

> <Shape>
0.313

> <Color>
0.106

> <Negative vol penalty>
0.000

$$$$

  -OEChem-04052322323D

 86 97  0     1  0  0  0  0  0999 V2000
  -27.0004  -37.9224   23.3663 C   0  0  0  0  0  0  0  0  0  0  0  0
  -27.6042  -37.0121   22.5048 C   0  0  0  0  0  0  0  0  0  0  0  0
  -24.2333  -13.2793   21.1632 C   0  0  0  0  0  0  0  0  0  0  0  0
  -26.5031  -13.3959   20.3437 C   0  0  0  0  0  0  0  0  0  0  0  0
  -26.2420  -37.4643   24.4428 C   0  0  0  0  0  0  0  0  0  0  0  0
  -27.4508  -35.6429   22.7200 C   0  0  0  0  0  0  0  0  0  0  0  0
  -26.9624  -29.4509   19.1511 C   0  0  0  0  0  0  0  0  0  0  0  0
  -24.2629  -11.8896   21.0475 C   0  0  0  0  0  0  0  0  0  0  0  0
  -26.5327  -12.0062   20.2280 C   0  0  0  0  0  0  0  0  0  0  0  0
  -27.5352  -28.1803   19.1153 C   0  0  0  0  0  0  0  0  0  0  0  0
  -25.5035   -9.2708   22.7899 C   0  0  0  0  0  0  0  0  0  0  0  0
  -24.9974   -8.5210   23.8516 C   0  0  0  0  0  0  0  0  0  0  0  0
  -28.7027  -23.2808   18.2301 C   0  0  0  0  0  0  0  0  0  0  0  0
  -26.1370  -27.5046   20.9613 C   0  0  0  0  0  0  0  0  0  0  0  0
  -23.3601   -7.5342   22.3742 C   0  0  0  0  0  0  0  0  0  0  0  0
  -29.9336  -23.8262   20.1907 C   0  0  0  0  0  0  0  0  0  0  0  0
  -25.3534  -14.0325   20.8112 C   0  0  0  0  0  0  0  0  0  0  0  0
  -25.6889  -16.2362   22.0517 C   0  0  0  0  0  0  0  0  0  0  0  0
  -26.0713  -36.0888   24.6657 C   0  0  0  0  0  0  0  0  0  0  0  0
  -25.9788  -29.7617   20.1010 C   0  0  0  0  0  0  0  0  0  0  0  0
  -26.6905  -35.1659   23.8013 C   0  0  0  0  0  0  0  0  0  0  0  0
  -29.1130  -21.9604   18.3765 C   0  0  0  0  0  0  0  0  0  0  0  0
  -25.5515  -28.7791   21.0054 C   0  0  0  0  0  0  0  0  0  0  0  0
  -29.1164  -24.2377   19.1502 C   0  0  0  0  0  0  0  0  0  0  0  0
  -25.4126  -11.2530   20.5799 C   0  0  0  0  0  0  0  0  0  0  0  0
  -27.1246  -27.2078   20.0223 C   0  0  0  0  0  0  0  0  0  0  0  0
  -24.9379   -9.1524   21.5203 C   0  0  0  0  0  0  0  0  0  0  0  0
  -23.9257   -7.6527   23.6437 C   0  0  0  0  0  0  0  0  0  0  0  0
  -23.8662   -8.2841   21.3125 C   0  0  0  0  0  0  0  0  0  0  0  0
  -25.3232  -15.4681   20.9300 C   0  0  0  0  0  0  0  0  0  0  0  0
  -29.9305  -21.6509   19.4515 C   0  0  0  0  0  0  0  0  0  0  0  0
  -25.4816  -17.5363   21.6600 C   0  0  0  0  0  0  0  0  0  0  0  0
  -26.1728  -15.8125   23.3330 C   0  0  0  0  0  0  0  0  0  0  0  0
  -25.7493  -31.8402   22.4949 C   0  0  0  0  0  0  0  0  0  0  0  0
  -22.7039  -30.7338   22.6481 C   0  0  0  0  0  0  0  0  0  0  0  0
  -20.5016  -28.2107   21.9918 C   0  0  0  0  0  0  0  0  0  0  0  0
  -25.3328  -19.9154   16.0840 C   0  0  0  0  0  0  0  0  0  0  0  0
  -25.2816  -35.6411   25.8701 C   0  0  0  0  0  0  0  0  0  0  0  0
  -25.3517  -31.1289   20.1091 C   0  0  0  0  0  0  0  0  0  0  0  0
  -24.4844  -29.0560   22.0316 C   0  0  0  0  0  0  0  0  0  0  0  0
  -24.8583  -34.1756   25.8106 C   0  0  0  0  0  0  0  0  0  0  0  0
  -22.7887  -20.1863   18.7135 C   0  0  0  0  0  0  0  0  0  0  0  0
  -26.0324  -33.2976   25.3894 C   0  0  0  0  0  0  0  0  0  0  0  0
  -29.5113  -19.2819   20.3928 C   0  0  0  0  0  0  0  0  0  0  0  0
  -30.7657  -19.7868   21.0346 C   0  0  0  0  0  0  0  0  0  0  0  0
  -23.1636  -19.0405   19.6565 C   0  0  0  0  0  0  0  0  0  0  0  0
  -29.7144  -20.1618   16.5829 C   0  0  0  0  0  0  0  0  0  0  0  0
  -23.1633  -19.8823   17.2642 C   0  0  0  0  0  0  0  0  0  0  0  0
  -27.5380  -20.6692   15.2440 C   0  0  0  0  0  0  0  0  0  0  0  0
  -24.9269  -18.3296   18.0029 C   0  0  0  0  0  0  0  0  0  0  0  0
  -27.3431  -20.2405   17.6366 C   0  0  0  0  0  0  0  0  0  0  0  0
  -26.5269  -33.6730   23.9872 C   0  0  1  0  0  0  0  0  0  0  0  0
  -30.3970  -20.2446   19.6496 C   0  0  0  0  0  0  0  0  0  0  0  0
  -24.7253  -31.4909   21.4523 C   0  0  1  0  0  0  0  0  0  0  0  0
  -28.7924  -21.1295   15.9047 C   0  0  1  0  0  0  0  0  0  0  0  0
  -24.6387  -18.6309   19.4795 C   0  0  2  0  0  0  0  0  0  0  0  0
  -28.6664  -20.9179   17.3802 C   0  0  1  0  0  0  0  0  0  0  0  0
  -18.0880  -27.5813   22.2672 C   0  0  0  0  0  0  0  0  0  0  0  0
  -23.1924  -30.1641   25.6056 C   0  0  0  0  0  0  0  0  0  0  0  0
  -21.1583  -28.7044   25.5888 C   0  0  0  0  0  0  0  0  0  0  0  0
  -20.9484  -31.1391   25.0878 C   0  0  0  0  0  0  0  0  0  0  0  0
  -20.1050  -27.9908   19.0672 C   0  0  0  0  0  0  0  0  0  0  0  0
  -28.6949  -25.6582   19.0214 C   0  0  0  0  0  0  0  0  0  1  0  0
  -22.0105  -29.6090   23.3783 C   0  0  1  0  0  0  0  0  0  0  0  0
  -19.1244  -28.2165   21.3533 C   0  0  2  0  0  0  0  0  0  0  0  0
  -21.8489  -29.8992   24.8972 C   0  0  0  0  0  0  0  0  0  0  0  0
  -30.3529  -22.5529   20.3657 N   0  0  0  0  0  0  0  0  0  0  0  0
  -24.9144  -16.2177   19.9029 N   0  0  0  0  0  0  0  0  0  0  0  0
  -25.0218  -17.4704   20.3776 N   0  0  0  0  0  0  0  0  0  0  0  0
  -23.9062  -30.4096   22.0037 N   0  0  0  0  0  0  0  0  0  0  0  0
  -24.5641  -19.4767   17.1663 N   0  0  0  0  0  0  0  0  0  0  0  0
  -26.6923  -20.1462   16.3193 N   0  0  0  0  0  0  0  0  0  0  0  0
  -25.6494  -18.7179   22.2909 N   0  0  0  0  0  0  0  0  0  0  0  0
  -26.3275  -14.4395   23.5682 N   0  0  0  0  0  0  0  0  0  0  0  0
  -25.6432  -33.1306   22.9776 N   0  0  0  0  0  0  0  0  0  0  0  0
  -20.7521  -29.3812   22.6763 N   0  0  0  0  0  0  0  0  0  0  0  0
  -19.1455  -27.4599   20.0695 N   0  3  0  0  0  0  0  0  0  0  0  0
  -26.4440  -16.6264   24.2482 O   0  0  0  0  0  0  0  0  0  0  0  0
  -26.5737  -31.0006   22.8372 O   0  0  0  0  0  0  0  0  0  0  0  0
  -22.1938  -31.8569   22.6435 O   0  0  0  0  0  0  0  0  0  0  0  0
  -21.2761  -27.2612   21.8963 O   0  0  0  0  0  0  0  0  0  0  0  0
  -24.8202  -20.1433   14.9809 O   0  0  0  0  0  0  0  0  0  0  0  0
  -25.4420   -9.8969   20.4671 O   0  0  0  0  0  0  0  0  0  0  0  0
  -27.6917  -25.9467   19.9895 O   0  0  0  0  0  0  0  0  0  1  0  0
  -23.4408   -6.9315   24.6630 F   0  0  0  0  0  0  0  0  0  0  0  0
  -23.3194   -8.1652   20.0948 F   0  0  0  0  0  0  0  0  0  0  0  0
  1  2  1  0  0  0  0
  1  5  2  0  0  0  0
  2  6  2  0  0  0  0
  3  8  2  0  0  0  0
  3 17  1  0  0  0  0
  4  9  1  0  0  0  0
  4 17  2  0  0  0  0
  5 19  1  0  0  0  0
  6 21  1  0  0  0  0
  7 10  2  0  0  0  0
  7 20  1  0  0  0  0
  8 25  1  0  0  0  0
  9 25  2  0  0  0  0
 10 26  1  0  0  0  0
 11 12  2  0  0  0  0
 11 27  1  0  0  0  0
 12 28  1  0  0  0  0
 13 22  1  0  0  0  0
 13 24  2  0  0  0  0
 14 23  1  0  0  0  0
 14 26  2  0  0  0  0
 15 28  2  0  0  0  0
 15 29  1  0  0  0  0
 16 24  1  0  0  0  0
 16 67  2  0  0  0  0
 17 30  1  0  0  0  0
 18 30  1  0  0  0  0
 18 32  2  0  0  0  0
 18 33  1  0  0  0  0
 19 21  2  0  0  0  0
 19 38  1  0  0  0  0
 20 23  2  0  0  0  0
 20 39  1  0  0  0  0
 21 52  1  0  0  0  0
 22 31  2  0  0  0  0
 22 57  1  0  0  0  0
 23 40  1  0  0  0  0
 24 63  1  0  0  0  0
 25 83  1  0  0  0  0
 26 84  1  0  0  0  0
 27 29  2  0  0  0  0
 27 83  1  0  0  0  0
 28 85  1  0  0  0  0
 29 86  1  0  0  0  0
 30 68  2  0  0  0  0
 31 53  1  0  0  0  0
 31 67  1  0  0  0  0
 32 69  1  0  0  0  0
 32 73  1  0  0  0  0
 33 74  1  0  0  0  0
 33 78  2  0  0  0  0
 34 54  1  0  0  0  0
 34 75  1  0  0  0  0
 34 79  2  0  0  0  0
 35 64  1  0  0  0  0
 35 70  1  0  0  0  0
 35 80  2  0  0  0  0
 36 65  1  0  0  0  0
 36 76  1  0  0  0  0
 36 81  2  0  0  0  0
 37 71  1  0  0  0  0
 37 72  1  0  0  0  0
 37 82  2  0  0  0  0
 38 41  1  0  0  0  0
 39 54  1  0  0  0  0
 40 70  1  0  0  0  0
 41 43  1  0  0  0  0
 42 46  1  0  0  0  0
 42 48  1  0  0  0  0
 43 52  1  0  0  0  0
 44 45  1  0  0  0  0
 44 53  1  0  0  0  0
 45 53  1  0  0  0  0
 46 56  1  0  0  0  0
 47 55  1  0  0  0  0
 47 57  1  0  0  0  0
 48 71  1  0  0  0  0
 49 55  1  0  0  0  0
 49 72  1  0  0  0  0
 50 56  1  0  0  0  0
 50 71  1  0  0  0  0
 51 57  1  0  0  0  0
 51 72  1  0  0  0  0
 52 75  1  0  0  0  0
 54 70  1  0  0  0  0
 55 57  1  0  0  0  0
 56 69  1  0  0  0  0
 58 65  1  0  0  0  0
 59 66  1  0  0  0  0
 60 66  1  0  0  0  0
 61 66  1  0  0  0  0
 62 77  1  0  0  0  0
 63 84  1  0  0  0  0
 64 66  1  0  0  0  0
 64 76  1  0  0  0  0
 65 77  1  0  0  0  0
 68 69  1  0  0  0  0
M  CHG  1  77   1
M  ISO  4  37 100  63 101  72 100  84 101
M  END
> <Batch ID>
0169

> <Smiles>
CNC(C)C(=O)NC(C(=O)N1Cc2cc([101O:1][101CH2:1]c3cnc(C4CC4)c(C45CC4C[100N:0]([100C:0](=O)N4CCCC(n6nc(-c7ccc(Oc8ccc(F)cc8F)cc7)c(C(N)=O)c6N)C4)C5)c3)ccc2CC1C(=O)NC1CCCc2ccccc21)C(C)(C)C

> <Shape>
0.283

> <Color>
0.074

> <Negative vol penalty>
0.000

$$$$

  -OEChem-04052322323D

 85 94  0     1  0  0  0  0  0999 V2000
  -27.7273  -37.5430   26.4174 C   0  0  0  0  0  0  0  0  0  0  0  0
  -28.5089  -36.6154   25.7362 C   0  0  0  0  0  0  0  0  0  0  0  0
  -24.4656   -9.0609   22.3120 C   0  0  0  0  0  0  0  0  0  0  0  0
  -23.8811   -9.3874   19.9906 C   0  0  0  0  0  0  0  0  0  0  0  0
  -26.4143  -37.2263   26.7634 C   0  0  0  0  0  0  0  0  0  0  0  0
  -27.9783  -35.3700   25.4016 C   0  0  0  0  0  0  0  0  0  0  0  0
  -28.3394  -30.3294   20.3244 C   0  0  0  0  0  0  0  0  0  0  0  0
  -28.8853  -22.5851   20.7566 C   0  0  0  0  0  0  0  0  0  0  0  0
  -23.3473   -8.2440   22.4786 C   0  0  0  0  0  0  0  0  0  0  0  0
  -22.7629   -8.5705   20.1572 C   0  0  0  0  0  0  0  0  0  0  0  0
  -28.5490  -28.9585   20.1806 C   0  0  0  0  0  0  0  0  0  0  0  0
  -22.4673   -5.0538   21.7852 C   0  0  0  0  0  0  0  0  0  0  0  0
  -22.6367   -3.8572   22.4816 C   0  0  0  0  0  0  0  0  0  0  0  0
  -28.9212  -23.9667   20.9088 C   0  0  0  0  0  0  0  0  0  0  0  0
  -26.2429  -28.5514   20.7598 C   0  0  0  0  0  0  0  0  0  0  0  0
  -21.0160   -4.5816   24.1204 C   0  0  0  0  0  0  0  0  0  0  0  0
  -24.7325   -9.6326   21.0679 C   0  0  0  0  0  0  0  0  0  0  0  0
  -27.1822  -10.0785   20.5130 C   0  0  0  0  0  0  0  0  0  0  0  0
  -25.8642  -35.9801   26.4243 C   0  0  0  0  0  0  0  0  0  0  0  0
  -27.0807  -30.8216   20.6983 C   0  0  0  0  0  0  0  0  0  0  0  0
  -26.6571  -35.0359   25.7446 C   0  0  0  0  0  0  0  0  0  0  0  0
  -26.0193  -29.9290   20.9052 C   0  0  0  0  0  0  0  0  0  0  0  0
  -28.8826  -22.0316   19.4812 C   0  0  0  0  0  0  0  0  0  0  0  0
  -22.4960   -7.9988   21.4013 C   0  0  0  0  0  0  0  0  0  0  0  0
  -27.5014  -28.0691   20.4012 C   0  0  0  0  0  0  0  0  0  0  0  0
  -21.5724   -6.0144   22.2565 C   0  0  0  0  0  0  0  0  0  0  0  0
  -21.9110   -3.6210   23.6492 C   0  0  0  0  0  0  0  0  0  0  0  0
  -20.8467   -5.7782   23.4240 C   0  0  0  0  0  0  0  0  0  0  0  0
  -25.8872  -10.4770   20.8953 C   0  0  0  0  0  0  0  0  0  0  0  0
  -28.9163  -22.8961   18.3989 C   0  0  0  0  0  0  0  0  0  0  0  0
  -28.9534  -24.7446   19.7626 C   0  0  0  0  0  0  0  0  0  0  0  0
  -27.9083  -11.2442   20.4932 C   0  0  0  0  0  0  0  0  0  0  0  0
  -28.9801  -23.1771   15.9633 C   0  0  0  0  0  0  0  0  0  0  0  0
  -28.9156  -22.3953   17.0305 C   0  0  0  0  0  0  0  0  0  0  0  0
  -27.6838   -8.7716   20.2033 C   0  0  0  0  0  0  0  0  0  0  0  0
  -25.9634  -32.4763   23.1716 C   0  0  0  0  0  0  0  0  0  0  0  0
  -23.2289  -32.4923   21.4267 C   0  0  0  0  0  0  0  0  0  0  0  0
  -21.3305  -31.0208   19.0022 C   0  0  0  0  0  0  0  0  0  0  0  0
  -28.6095  -16.4188   19.2378 C   0  0  0  0  0  0  0  0  0  0  0  0
  -24.4554  -35.6653   26.8612 C   0  0  0  0  0  0  0  0  0  0  0  0
  -26.8640  -32.3048   20.8231 C   0  0  0  0  0  0  0  0  0  0  0  0
  -24.6437  -30.4079   21.2884 C   0  0  0  0  0  0  0  0  0  0  0  0
  -23.8477  -34.4651   26.1398 C   0  0  0  0  0  0  0  0  0  0  0  0
  -26.7797  -15.8678   22.1853 C   0  0  0  0  0  0  0  0  0  0  0  0
  -24.8367  -33.3041   26.1088 C   0  0  0  0  0  0  0  0  0  0  0  0
  -26.4832  -14.3719   22.0836 C   0  0  0  0  0  0  0  0  0  0  0  0
  -26.6473  -16.5714   20.8336 C   0  0  0  0  0  0  0  0  0  0  0  0
  -29.9237  -19.8239   19.8937 C   0  0  0  0  0  0  0  0  0  0  0  0
  -27.5262  -20.0018   19.2106 C   0  0  0  0  0  0  0  0  0  0  0  0
  -29.9965  -18.4583   19.2158 C   0  0  0  0  0  0  0  0  0  0  0  0
  -27.6450  -18.6403   18.5346 C   0  0  0  0  0  0  0  0  0  0  0  0
  -27.1533  -14.4580   19.6523 C   0  0  0  0  0  0  0  0  0  0  0  0
  -26.1093  -33.6838   25.3422 C   0  0  1  0  0  0  0  0  0  0  0  0
  -25.6745  -32.6624   21.7089 C   0  0  1  0  0  0  0  0  0  0  0  0
  -27.3354  -13.7134   20.9841 C   0  0  2  0  0  0  0  0  0  0  0  0
  -19.1270  -31.2401   17.8216 C   0  0  0  0  0  0  0  0  0  0  0  0
  -21.8059  -31.3627   23.8780 C   0  0  0  0  0  0  0  0  0  0  0  0
  -19.8972  -30.7236   22.3891 C   0  0  0  0  0  0  0  0  0  0  0  0
  -20.5255  -33.1238   22.6478 C   0  0  0  0  0  0  0  0  0  0  0  0
  -22.6428  -31.3825   16.3743 C   0  0  0  0  0  0  0  0  0  0  0  0
  -28.9941  -26.2312   19.8885 C   0  0  0  0  0  0  0  0  0  1  0  0
  -22.0264  -31.5864   21.3153 C   0  0  1  0  0  0  0  0  0  0  0  0
  -20.6045  -31.5999   17.8014 C   0  0  2  0  0  0  0  0  0  0  0  0
  -21.0901  -31.6896   22.5522 C   0  0  0  0  0  0  0  0  0  0  0  0
  -25.7931  -11.7929   21.1035 N   0  0  0  0  0  0  0  0  0  0  0  0
  -28.9517  -24.2432   18.5072 N   0  0  0  0  0  0  0  0  0  0  0  0
  -27.0381  -12.2315   20.8513 N   0  0  0  0  0  0  0  0  0  0  0  0
  -28.8447  -20.6399   19.3265 N   0  0  0  0  0  0  0  0  0  0  0  0
  -24.4835  -31.8668   21.4042 N   0  0  0  0  0  0  0  0  0  0  0  0
  -27.4448  -15.8845   19.8087 N   0  0  0  0  0  0  0  0  0  0  0  0
  -28.6886  -17.8175   19.1495 N   0  0  0  0  0  0  0  0  0  0  0  0
  -29.1998  -11.5108   20.2048 N   0  0  0  0  0  0  0  0  0  0  0  0
  -26.8027   -7.6839   20.2729 N   0  0  0  0  0  0  0  0  0  0  0  0
  -25.8725  -33.6374   23.9152 N   0  0  0  0  0  0  0  0  0  0  0  0
  -21.3821  -31.9170   20.0488 N   0  0  0  0  0  0  0  0  0  0  0  0
  -21.1976  -31.0796   16.5371 N   0  3  0  0  0  0  0  0  0  0  0  0
  -28.8821   -8.5719   19.8905 O   0  0  0  0  0  0  0  0  0  0  0  0
  -26.2462  -31.3615   23.5945 O   0  0  0  0  0  0  0  0  0  0  0  0
  -23.0614  -33.7106   21.5226 O   0  0  0  0  0  0  0  0  0  0  0  0
  -21.8013  -29.8856   19.0122 O   0  0  0  0  0  0  0  0  0  0  0  0
  -29.5258  -15.6923   18.8336 O   0  0  0  0  0  0  0  0  0  0  0  0
  -21.4048   -7.2016   21.5635 O   0  0  0  0  0  0  0  0  0  0  0  0
  -27.7069  -26.7079   20.2598 O   0  0  0  0  0  0  0  0  0  1  0  0
  -22.0726   -2.4712   24.3170 F   0  0  0  0  0  0  0  0  0  0  0  0
  -19.9846   -6.6968   23.8810 F   0  0  0  0  0  0  0  0  0  0  0  0
  1  2  1  0  0  0  0
  1  5  2  0  0  0  0
  2  6  2  0  0  0  0
  3  9  2  0  0  0  0
  3 17  1  0  0  0  0
  4 10  1  0  0  0  0
  4 17  2  0  0  0  0
  5 19  1  0  0  0  0
  6 21  1  0  0  0  0
  7 11  2  0  0  0  0
  7 20  1  0  0  0  0
  8 14  2  0  0  0  0
  8 23  1  0  0  0  0
  9 24  1  0  0  0  0
 10 24  2  0  0  0  0
 11 25  1  0  0  0  0
 12 13  2  0  0  0  0
 12 26  1  0  0  0  0
 13 27  1  0  0  0  0
 14 31  1  0  0  0  0
 15 22  1  0  0  0  0
 15 25  2  0  0  0  0
 16 27  2  0  0  0  0
 16 28  1  0  0  0  0
 17 29  1  0  0  0  0
 18 29  1  0  0  0  0
 18 32  2  0  0  0  0
 18 35  1  0  0  0  0
 19 21  2  0  0  0  0
 19 40  1  0  0  0  0
 20 22  2  0  0  0  0
 20 41  1  0  0  0  0
 21 53  1  0  0  0  0
 22 42  1  0  0  0  0
 23 30  2  0  0  0  0
 23 68  1  0  0  0  0
 24 82  1  0  0  0  0
 25 83  1  0  0  0  0
 26 28  2  0  0  0  0
 26 82  1  0  0  0  0
 27 84  1  0  0  0  0
 28 85  1  0  0  0  0
 29 65  2  0  0  0  0
 30 34  1  0  0  0  0
 30 66  1  0  0  0  0
 31 61  1  0  0  0  0
 31 66  2  0  0  0  0
 32 67  1  0  0  0  0
 32 72  1  0  0  0  0
 33 34  2  0  0  0  0
 35 73  1  0  0  0  0
 35 77  2  0  0  0  0
 36 54  1  0  0  0  0
 36 74  1  0  0  0  0
 36 78  2  0  0  0  0
 37 62  1  0  0  0  0
 37 69  1  0  0  0  0
 37 79  2  0  0  0  0
 38 63  1  0  0  0  0
 38 75  1  0  0  0  0
 38 80  2  0  0  0  0
 39 70  1  0  0  0  0
 39 71  1  0  0  0  0
 39 81  2  0  0  0  0
 40 43  1  0  0  0  0
 41 54  1  0  0  0  0
 42 69  1  0  0  0  0
 43 45  1  0  0  0  0
 44 46  1  0  0  0  0
 44 47  1  0  0  0  0
 45 53  1  0  0  0  0
 46 55  1  0  0  0  0
 47 70  1  0  0  0  0
 48 50  1  0  0  0  0
 48 68  1  0  0  0  0
 49 51  1  0  0  0  0
 49 68  1  0  0  0  0
 50 71  1  0  0  0  0
 51 71  1  0  0  0  0
 52 55  1  0  0  0  0
 52 70  1  0  0  0  0
 53 74  1  0  0  0  0
 54 69  1  0  0  0  0
 55 67  1  0  0  0  0
 56 63  1  0  0  0  0
 57 64  1  0  0  0  0
 58 64  1  0  0  0  0
 59 64  1  0  0  0  0
 60 76  1  0  0  0  0
 61 83  1  0  0  0  0
 62 64  1  0  0  0  0
 62 75  1  0  0  0  0
 63 76  1  0  0  0  0
 65 67  1  0  0  0  0
M  CHG  1  76   1
M  ISO  4  39 100  61 101  71 100  83 101
M  END
> <Batch ID>
0169

> <Smiles>
C=Cc1nc([101CH2:1][101O:1]c2ccc3c(c2)CN(C(=O)C(NC(=O)C(C)NC)C(C)(C)C)C(C(=O)NC2CCCc4ccccc42)C3)ccc1N1CC[100N:0]([100C:0](=O)N2CCCC(n3nc(-c4ccc(Oc5ccc(F)cc5F)cc4)c(C(N)=O)c3N)C2)CC1

> <Shape>
0.302

> <Color>
0.088

> <Negative vol penalty>
0.000

$$$$

  -OEChem-04052322323D

 87 97  0     1  0  0  0  0  0999 V2000
  -17.2518  -12.3204   21.7519 C   0  0  0  0  0  0  0  0  0  0  0  0
  -17.8607  -13.5424   21.4851 C   0  0  0  0  0  0  0  0  0  0  0  0
  -26.7823  -28.9912   20.8027 C   0  0  0  0  0  0  0  0  0  0  0  0
  -25.5170  -26.9808   20.3620 C   0  0  0  0  0  0  0  0  0  0  0  0
  -17.9587  -11.3219   22.4206 C   0  0  0  0  0  0  0  0  0  0  0  0
  -19.1766  -13.7671   21.8879 C   0  0  0  0  0  0  0  0  0  0  0  0
  -23.4060  -17.0912   18.9607 C   0  0  0  0  0  0  0  0  0  0  0  0
  -25.6191  -29.7507   20.6775 C   0  0  0  0  0  0  0  0  0  0  0  0
  -24.3538  -27.7403   20.2368 C   0  0  0  0  0  0  0  0  0  0  0  0
  -23.8574  -18.3987   19.1352 C   0  0  0  0  0  0  0  0  0  0  0  0
  -22.1213  -29.2309   22.2899 C   0  0  0  0  0  0  0  0  0  0  0  0
  -20.9726  -28.7643   22.9289 C   0  0  0  0  0  0  0  0  0  0  0  0
  -25.6894  -17.5811   20.4748 C   0  0  0  0  0  0  0  0  0  0  0  0
  -30.9704  -22.0167   18.6278 C   0  0  0  0  0  0  0  0  0  0  0  0
  -19.8374  -28.6429   20.7997 C   0  0  0  0  0  0  0  0  0  0  0  0
  -26.7313  -27.6062   20.6449 C   0  0  0  0  0  0  0  0  0  0  0  0
  -28.4466  -26.2399   21.9481 C   0  0  0  0  0  0  0  0  0  0  0  0
  -19.2872  -11.5309   22.8232 C   0  0  0  0  0  0  0  0  0  0  0  0
  -24.0879  -16.0179   19.5520 C   0  0  0  0  0  0  0  0  0  0  0  0
  -19.9016  -12.7709   22.5638 C   0  0  0  0  0  0  0  0  0  0  0  0
  -25.2461  -16.2607   20.3042 C   0  0  0  0  0  0  0  0  0  0  0  0
  -29.6081  -22.1954   18.3975 C   0  0  0  0  0  0  0  0  0  0  0  0
  -28.7445  -22.1087   19.4746 C   0  0  0  0  0  0  0  0  0  0  0  0
  -24.4048  -29.1253   20.3946 C   0  0  0  0  0  0  0  0  0  0  0  0
  -24.9975  -18.6441   19.8947 C   0  0  0  0  0  0  0  0  0  0  0  0
  -22.1281  -29.4036   20.9057 C   0  0  0  0  0  0  0  0  0  0  0  0
  -19.8307  -28.4703   22.1838 C   0  0  0  0  0  0  0  0  0  0  0  0
  -20.9861  -29.1096   20.1606 C   0  0  0  0  0  0  0  0  0  0  0  0
  -27.9326  -26.8211   20.7735 C   0  0  0  0  0  0  0  0  0  0  0  0
  -29.2772  -21.8535   20.7356 C   0  0  0  0  0  0  0  0  0  0  0  0
  -31.4005  -21.7662   19.9295 C   0  0  0  0  0  0  0  0  0  0  0  0
  -29.5951  -25.6049   21.5428 C   0  0  0  0  0  0  0  0  0  0  0  0
  -27.9319  -26.2711   23.2859 C   0  0  0  0  0  0  0  0  0  0  0  0
  -23.3446  -13.8013   21.7055 C   0  0  0  0  0  0  0  0  0  0  0  0
  -26.2707  -12.6306   20.9374 C   0  0  0  0  0  0  0  0  0  0  0  0
  -29.3936  -13.2234   19.6954 C   0  0  0  0  0  0  0  0  0  0  0  0
  -31.1400  -23.7836   15.8596 C   0  0  0  0  0  0  0  0  0  0  0  0
  -19.9953  -10.4388   23.5851 C   0  0  0  0  0  0  0  0  0  0  0  0
  -23.6035  -14.6110   19.3321 C   0  0  0  0  0  0  0  0  0  0  0  0
  -26.0258  -15.1417   20.9432 C   0  0  0  0  0  0  0  0  0  0  0  0
  -28.2008  -21.8303   21.7833 C   0  0  0  0  0  0  0  0  0  0  0  0
  -21.5095  -10.6222   23.6465 C   0  0  0  0  0  0  0  0  0  0  0  0
  -33.0560  -25.8267   18.2854 C   0  0  0  0  0  0  0  0  0  0  0  0
  -21.8584  -12.0602   24.0168 C   0  0  0  0  0  0  0  0  0  0  0  0
  -31.9731  -26.3292   19.2352 C   0  0  0  0  0  0  0  0  0  0  0  0
  -28.9171  -21.2145   16.0250 C   0  0  0  0  0  0  0  0  0  0  0  0
  -32.4985  -25.5490   16.8939 C   0  0  0  0  0  0  0  0  0  0  0  0
  -29.6948  -21.9161   14.9177 C   0  0  0  0  0  0  0  0  0  0  0  0
  -30.2639  -25.0872   17.8458 C   0  0  0  0  0  0  0  0  0  0  0  0
  -29.1106  -22.4626   16.9154 C   0  0  2  0  0  0  0  0  0  0  0  0
  -21.3356  -13.0437   22.9628 C   0  0  1  0  0  0  0  0  0  0  0  0
  -24.0821  -13.6395   20.4065 C   0  0  1  0  0  0  0  0  0  0  0  0
  -26.9340  -21.6066   20.9205 C   0  0  1  0  0  0  0  0  0  0  0  0
  -30.7883  -25.3521   19.2667 C   0  0  2  0  0  0  0  0  0  0  0  0
  -27.2453  -22.2734   19.5318 C   0  0  0  0  0  0  0  0  0  0  0  0
  -32.8580  -21.5682   20.1857 C   0  0  0  0  0  0  0  0  0  0  0  0
  -26.5229  -21.6275   18.3446 C   0  0  0  0  0  0  0  0  0  0  0  0
  -26.9009  -23.7741   19.5730 C   0  0  0  0  0  0  0  0  0  0  0  0
  -31.7116  -12.7116   18.8815 C   0  0  0  0  0  0  0  0  0  0  0  0
  -26.9376  -12.6898   23.9143 C   0  0  0  0  0  0  0  0  0  0  0  0
  -29.3557  -12.4641   23.3059 C   0  0  0  0  0  0  0  0  0  0  0  0
  -27.7460  -10.6558   22.7043 C   0  0  0  0  0  0  0  0  0  0  0  0
  -28.4453  -12.7580   16.9307 C   0  0  0  0  0  0  0  0  0  0  0  0
  -26.6098  -20.1062   20.8532 C   0  0  0  0  0  0  0  0  0  1  0  0
  -27.6758  -12.8471   21.4452 C   0  0  1  0  0  0  0  0  0  0  0  0
  -30.2241  -12.4831   18.6625 C   0  0  2  0  0  0  0  0  0  0  0  0
  -27.9132  -12.1857   22.8321 C   0  0  0  0  0  0  0  0  0  0  0  0
  -28.6923  -26.5772   19.7023 N   0  0  0  0  0  0  0  0  0  0  0  0
  -30.5827  -21.6828   21.0051 N   0  0  0  0  0  0  0  0  0  0  0  0
  -29.6955  -25.8357   20.2024 N   0  0  0  0  0  0  0  0  0  0  0  0
  -25.5085  -13.7841   20.7044 N   0  0  0  0  0  0  0  0  0  0  0  0
  -31.3338  -24.6607   16.9339 N   0  0  0  0  0  0  0  0  0  0  0  0
  -30.0666  -22.9240   15.9028 N   0  0  0  0  0  0  0  0  0  0  0  0
  -30.5189  -24.8773   22.2059 N   0  0  0  0  0  0  0  0  0  0  0  0
  -26.7406  -26.9688   23.5273 N   0  0  0  0  0  0  0  0  0  0  0  0
  -22.1948  -13.0405   21.7983 N   0  0  0  0  0  0  0  0  0  0  0  0
  -28.5677  -12.3687   20.3945 N   0  0  0  0  0  0  0  0  0  0  0  0
  -29.8748  -12.9450   17.2893 N   0  3  0  0  0  0  0  0  0  0  0  0
  -28.5199  -25.7110   24.2420 O   0  0  0  0  0  0  0  0  0  0  0  0
  -23.7868  -14.5591   22.5610 O   0  0  0  0  0  0  0  0  0  0  0  0
  -25.8668  -11.4806   20.7475 O   0  0  0  0  0  0  0  0  0  0  0  0
  -29.4725  -14.4377   19.8675 O   0  0  0  0  0  0  0  0  0  0  0  0
  -31.9214  -23.7496   14.8993 O   0  0  0  0  0  0  0  0  0  0  0  0
  -23.2695  -29.8661   20.2727 O   0  0  0  0  0  0  0  0  0  0  0  0
  -25.4438  -19.9308   20.0687 O   0  0  0  0  0  0  0  0  0  1  0  0
  -18.7281  -28.0208   22.7974 F   0  0  0  0  0  0  0  0  0  0  0  0
  -20.9870  -29.2723   18.8305 F   0  0  0  0  0  0  0  0  0  0  0  0
  1  2  1  0  0  0  0
  1  5  2  0  0  0  0
  2  6  2  0  0  0  0
  3  8  2  0  0  0  0
  3 16  1  0  0  0  0
  4  9  1  0  0  0  0
  4 16  2  0  0  0  0
  5 18  1  0  0  0  0
  6 20  1  0  0  0  0
  7 10  2  0  0  0  0
  7 19  1  0  0  0  0
  8 24  1  0  0  0  0
  9 24  2  0  0  0  0
 10 25  1  0  0  0  0
 11 12  2  0  0  0  0
 11 26  1  0  0  0  0
 12 27  1  0  0  0  0
 13 21  1  0  0  0  0
 13 25  2  0  0  0  0
 14 22  2  0  0  0  0
 14 31  1  0  0  0  0
 15 27  2  0  0  0  0
 15 28  1  0  0  0  0
 16 29  1  0  0  0  0
 17 29  1  0  0  0  0
 17 32  2  0  0  0  0
 17 33  1  0  0  0  0
 18 20  2  0  0  0  0
 18 38  1  0  0  0  0
 19 21  2  0  0  0  0
 19 39  1  0  0  0  0
 20 51  1  0  0  0  0
 21 40  1  0  0  0  0
 22 23  1  0  0  0  0
 22 50  1  0  0  0  0
 23 30  2  0  0  0  0
 23 55  1  0  0  0  0
 24 84  1  0  0  0  0
 25 85  1  0  0  0  0
 26 28  2  0  0  0  0
 26 84  1  0  0  0  0
 27 86  1  0  0  0  0
 28 87  1  0  0  0  0
 29 68  2  0  0  0  0
 30 41  1  0  0  0  0
 30 69  1  0  0  0  0
 31 56  1  0  0  0  0
 31 69  2  0  0  0  0
 32 70  1  0  0  0  0
 32 74  1  0  0  0  0
 33 75  1  0  0  0  0
 33 79  2  0  0  0  0
 34 52  1  0  0  0  0
 34 76  1  0  0  0  0
 34 80  2  0  0  0  0
 35 65  1  0  0  0  0
 35 71  1  0  0  0  0
 35 81  2  0  0  0  0
 36 66  1  0  0  0  0
 36 77  1  0  0  0  0
 36 82  2  0  0  0  0
 37 72  1  0  0  0  0
 37 73  1  0  0  0  0
 37 83  2  0  0  0  0
 38 42  1  0  0  0  0
 39 52  1  0  0  0  0
 40 71  1  0  0  0  0
 41 53  1  0  0  0  0
 42 44  1  0  0  0  0
 43 45  1  0  0  0  0
 43 47  1  0  0  0  0
 44 51  1  0  0  0  0
 45 54  1  0  0  0  0
 46 48  1  0  0  0  0
 46 50  1  0  0  0  0
 47 72  1  0  0  0  0
 48 73  1  0  0  0  0
 49 54  1  0  0  0  0
 49 72  1  0  0  0  0
 50 73  1  0  0  0  0
 51 76  1  0  0  0  0
 52 71  1  0  0  0  0
 53 55  1  0  0  0  0
 53 64  1  0  0  0  0
 54 70  1  0  0  0  0
 55 57  1  0  0  0  0
 55 58  1  0  0  0  0
 59 66  1  0  0  0  0
 60 67  1  0  0  0  0
 61 67  1  0  0  0  0
 62 67  1  0  0  0  0
 63 78  1  0  0  0  0
 64 85  1  0  0  0  0
 65 67  1  0  0  0  0
 65 77  1  0  0  0  0
 66 78  1  0  0  0  0
 68 70  1  0  0  0  0
M  CHG  1  78   1
M  ISO  4  37 100  64 101  73 100  85 101
M  END
> <Batch ID>
0169

> <Smiles>
CNC(C)C(=O)NC(C(=O)N1Cc2cc([101O:1][101CH2:1]C3Cc4nc(C)cc(C5CC[100N:0]5[100C:0](=O)N5CCCC(n6nc(-c7ccc(Oc8ccc(F)cc8F)cc7)c(C(N)=O)c6N)C5)c4C3(C)C)ccc2CC1C(=O)NC1CCCc2ccccc21)C(C)(C)C

> <Shape>
0.259

> <Color>
0.063

> <Negative vol penalty>
0.000

$$$$

  -OEChem-04052322323D

 87 97  0     1  0  0  0  0  0999 V2000
  -27.2069  -37.7636   23.0852 C   0  0  0  0  0  0  0  0  0  0  0  0
  -27.7899  -36.7951   22.2744 C   0  0  0  0  0  0  0  0  0  0  0  0
  -22.1377  -15.1962   23.4516 C   0  0  0  0  0  0  0  0  0  0  0  0
  -20.7110  -14.0316   21.8879 C   0  0  0  0  0  0  0  0  0  0  0  0
  -26.4047  -37.3811   24.1595 C   0  0  0  0  0  0  0  0  0  0  0  0
  -27.5717  -35.4433   22.5380 C   0  0  0  0  0  0  0  0  0  0  0  0
  -26.8945  -29.1424   19.1979 C   0  0  0  0  0  0  0  0  0  0  0  0
  -21.0145  -15.6149   24.1647 C   0  0  0  0  0  0  0  0  0  0  0  0
  -19.5877  -14.4502   22.6011 C   0  0  0  0  0  0  0  0  0  0  0  0
  -27.4118  -27.8479   19.2249 C   0  0  0  0  0  0  0  0  0  0  0  0
  -17.9634  -13.5667   25.4298 C   0  0  0  0  0  0  0  0  0  0  0  0
  -16.9727  -12.6199   25.6897 C   0  0  0  0  0  0  0  0  0  0  0  0
  -25.9433  -27.3059   21.0604 C   0  0  0  0  0  0  0  0  0  0  0  0
  -15.3717  -13.9620   24.4761 C   0  0  0  0  0  0  0  0  0  0  0  0
  -21.9860  -14.4046   22.3132 C   0  0  0  0  0  0  0  0  0  0  0  0
  -23.8894  -12.7936   21.7751 C   0  0  0  0  0  0  0  0  0  0  0  0
  -26.1688  -36.0241   24.4306 C   0  0  0  0  0  0  0  0  0  0  0  0
  -25.9039  -29.5322   20.1106 C   0  0  0  0  0  0  0  0  0  0  0  0
  -26.7667  -35.0422   23.6177 C   0  0  0  0  0  0  0  0  0  0  0  0
  -25.4133  -28.6051   21.0412 C   0  0  0  0  0  0  0  0  0  0  0  0
  -29.5955  -23.4426   20.5426 C   0  0  0  0  0  0  0  0  0  0  0  0
  -28.8182  -23.8407   19.4607 C   0  0  0  0  0  0  0  0  0  0  0  0
  -29.9135  -22.0989   20.7060 C   0  0  0  0  0  0  0  0  0  0  0  0
  -19.7395  -15.2419   23.7395 C   0  0  0  0  0  0  0  0  0  0  0  0
  -26.9382  -26.9304   20.1581 C   0  0  0  0  0  0  0  0  0  0  0  0
  -17.6583  -14.7113   24.6931 C   0  0  0  0  0  0  0  0  0  0  0  0
  -15.6768  -12.8175   25.2128 C   0  0  0  0  0  0  0  0  0  0  0  0
  -16.3624  -14.9089   24.2163 C   0  0  0  0  0  0  0  0  0  0  0  0
  -23.1460  -13.9724   21.5757 C   0  0  0  0  0  0  0  0  0  0  0  0
  -28.3871  -22.8639   18.5775 C   0  0  0  0  0  0  0  0  0  0  0  0
  -29.4333  -21.2001   19.7672 C   0  0  0  0  0  0  0  0  0  0  0  0
  -24.8817  -12.8491   20.8271 C   0  0  0  0  0  0  0  0  0  0  0  0
  -23.6998  -11.7425   22.7316 C   0  0  0  0  0  0  0  0  0  0  0  0
  -25.7109  -31.7111   22.4168 C   0  0  0  0  0  0  0  0  0  0  0  0
  -22.6171  -30.7432   22.5372 C   0  0  0  0  0  0  0  0  0  0  0  0
  -20.3220  -28.2931   21.9240 C   0  0  0  0  0  0  0  0  0  0  0  0
  -28.2640  -16.7994   18.2116 C   0  0  0  0  0  0  0  0  0  0  0  0
  -25.3328  -35.6584   25.6314 C   0  0  0  0  0  0  0  0  0  0  0  0
  -25.3373  -30.9242   20.0510 C   0  0  0  0  0  0  0  0  0  0  0  0
  -24.3361  -28.9677   22.0295 C   0  0  0  0  0  0  0  0  0  0  0  0
  -24.8472  -34.2112   25.6177 C   0  0  0  0  0  0  0  0  0  0  0  0
  -25.5266  -15.2232   16.5641 C   0  0  0  0  0  0  0  0  0  0  0  0
  -25.9910  -33.2678   25.2595 C   0  0  0  0  0  0  0  0  0  0  0  0
  -24.6752  -14.6654   17.7007 C   0  0  0  0  0  0  0  0  0  0  0  0
  -30.3585  -17.9093   21.0062 C   0  0  0  0  0  0  0  0  0  0  0  0
  -26.1506  -16.5545   16.9586 C   0  0  0  0  0  0  0  0  0  0  0  0
  -26.1809  -15.8910   19.3512 C   0  0  0  0  0  0  0  0  0  0  0  0
  -30.4855  -19.0603   18.9470 C   0  0  0  0  0  0  0  0  0  0  0  0
  -28.0889  -18.1552   20.3980 C   0  0  0  0  0  0  0  0  0  0  0  0
  -26.5336  -33.5662   23.8566 C   0  0  1  0  0  0  0  0  0  0  0  0
  -24.6967  -31.3653   21.3634 C   0  0  1  0  0  0  0  0  0  0  0  0
  -25.5033  -14.5537   18.9893 C   0  0  1  0  0  0  0  0  0  0  0  0
  -30.2323  -17.6411   19.5085 C   0  0  2  0  0  0  0  0  0  0  0  0
  -29.2494  -18.9781   20.9869 C   0  0  2  0  0  0  0  0  0  0  0  0
  -30.0879  -24.4568   21.5253 C   0  0  0  0  0  0  0  0  0  0  0  0
  -30.7463  -21.6497   21.8612 C   0  0  0  0  0  0  0  0  0  0  0  0
  -27.5490  -23.2308   17.3967 C   0  0  0  0  0  0  0  0  0  0  0  0
  -17.8775  -27.7791   22.1637 C   0  0  0  0  0  0  0  0  0  0  0  0
  -23.0123  -30.2698   25.5255 C   0  0  0  0  0  0  0  0  0  0  0  0
  -20.9171  -28.8993   25.5145 C   0  0  0  0  0  0  0  0  0  0  0  0
  -20.8256  -31.3191   24.9157 C   0  0  0  0  0  0  0  0  0  0  0  0
  -19.9835  -27.9756   19.0011 C   0  0  0  0  0  0  0  0  0  0  0  0
  -28.4608  -25.2750   19.2579 C   0  0  0  0  0  0  0  0  0  1  0  0
  -21.8586  -29.6788   23.2926 C   0  0  1  0  0  0  0  0  0  0  0  0
  -18.9614  -28.3328   21.2520 C   0  0  2  0  0  0  0  0  0  0  0  0
  -21.6751  -30.0352   24.7949 C   0  0  0  0  0  0  0  0  0  0  0  0
  -23.6251  -14.7219   20.5795 N   0  0  0  0  0  0  0  0  0  0  0  0
  -28.6757  -21.5492   18.7034 N   0  0  0  0  0  0  0  0  0  0  0  0
  -24.6804  -14.0125   20.1444 N   0  0  0  0  0  0  0  0  0  0  0  0
  -29.7408  -19.8722   19.9235 N   0  0  3  0  0  0  0  0  0  0  0  0
  -23.8185  -30.3427   21.9355 N   0  0  0  0  0  0  0  0  0  0  0  0
  -26.9076  -16.4572   18.2082 N   0  0  0  0  0  0  0  0  0  0  0  0
  -28.7892  -17.3613   19.3703 N   0  0  0  0  0  0  0  0  0  0  0  0
  -25.8981  -12.0157   20.5192 N   0  0  0  0  0  0  0  0  0  0  0  0
  -22.6310  -11.8437   23.6325 N   0  0  0  0  0  0  0  0  0  0  0  0
  -25.6503  -33.0229   22.8470 N   0  0  0  0  0  0  0  0  0  0  0  0
  -20.6078  -29.4778   22.5691 N   0  0  0  0  0  0  0  0  0  0  0  0
  -18.9788  -27.5262   19.9990 N   0  3  0  0  0  0  0  0  0  0  0  0
  -24.4656  -10.7511   22.7964 O   0  0  0  0  0  0  0  0  0  0  0  0
  -26.4896  -30.8511   22.8113 O   0  0  0  0  0  0  0  0  0  0  0  0
  -22.1570  -31.8862   22.4771 O   0  0  0  0  0  0  0  0  0  0  0  0
  -21.0562  -27.3083   21.8840 O   0  0  0  0  0  0  0  0  0  0  0  0
  -28.9685  -16.6514   17.2041 O   0  0  0  0  0  0  0  0  0  0  0  0
  -18.6432  -15.6500   24.4353 O   0  0  0  0  0  0  0  0  0  0  0  0
  -27.4504  -25.6451   20.1876 O   0  0  0  0  0  0  0  0  0  1  0  0
  -14.7259  -11.9074   25.4611 F   0  0  0  0  0  0  0  0  0  0  0  0
  -16.0636  -16.0059   23.5070 F   0  0  0  0  0  0  0  0  0  0  0  0
  1  2  1  0  0  0  0
  1  5  2  0  0  0  0
  2  6  2  0  0  0  0
  3  8  2  0  0  0  0
  3 15  1  0  0  0  0
  4  9  1  0  0  0  0
  4 15  2  0  0  0  0
  5 17  1  0  0  0  0
  6 19  1  0  0  0  0
  7 10  2  0  0  0  0
  7 18  1  0  0  0  0
  8 24  1  0  0  0  0
  9 24  2  0  0  0  0
 10 25  1  0  0  0  0
 11 12  2  0  0  0  0
 11 26  1  0  0  0  0
 12 27  1  0  0  0  0
 13 20  1  0  0  0  0
 13 25  2  0  0  0  0
 14 27  2  0  0  0  0
 14 28  1  0  0  0  0
 15 29  1  0  0  0  0
 16 29  1  0  0  0  0
 16 32  2  0  0  0  0
 16 33  1  0  0  0  0
 17 19  2  0  0  0  0
 17 38  1  0  0  0  0
 18 20  2  0  0  0  0
 18 39  1  0  0  0  0
 19 50  1  0  0  0  0
 20 40  1  0  0  0  0
 21 22  2  0  0  0  0
 21 23  1  0  0  0  0
 21 55  1  0  0  0  0
 22 30  1  0  0  0  0
 22 63  1  0  0  0  0
 23 31  2  0  0  0  0
 23 56  1  0  0  0  0
 24 84  1  0  0  0  0
 25 85  1  0  0  0  0
 26 28  2  0  0  0  0
 26 84  1  0  0  0  0
 27 86  1  0  0  0  0
 28 87  1  0  0  0  0
 29 67  2  0  0  0  0
 30 57  1  0  0  0  0
 30 68  2  0  0  0  0
 31 68  1  0  0  0  0
 31 70  1  0  0  0  0
 32 69  1  0  0  0  0
 32 74  1  0  0  0  0
 33 75  1  0  0  0  0
 33 79  2  0  0  0  0
 34 51  1  0  0  0  0
 34 76  1  0  0  0  0
 34 80  2  0  0  0  0
 35 64  1  0  0  0  0
 35 71  1  0  0  0  0
 35 81  2  0  0  0  0
 36 65  1  0  0  0  0
 36 77  1  0  0  0  0
 36 82  2  0  0  0  0
 37 72  1  0  0  0  0
 37 73  1  0  0  0  0
 37 83  2  0  0  0  0
 38 41  1  0  0  0  0
 39 51  1  0  0  0  0
 40 71  1  0  0  0  0
 41 43  1  0  0  0  0
 42 44  1  0  0  0  0
 42 46  1  0  0  0  0
 43 50  1  0  0  0  0
 44 52  1  0  0  0  0
 45 53  1  0  0  0  0
 45 54  1  0  0  0  0
 46 72  1  0  0  0  0
 47 52  1  0  0  0  0
 47 72  1  0  0  0  0
 48 53  1  0  0  0  0
 48 70  1  0  0  0  0
 49 54  1  0  0  0  0
 49 73  1  0  0  0  0
 50 76  1  0  0  0  0
 51 71  1  0  0  0  0
 52 69  1  0  0  0  0
 53 73  1  0  0  0  0
 54 70  1  0  0  0  0
 58 65  1  0  0  0  0
 59 66  1  0  0  0  0
 60 66  1  0  0  0  0
 61 66  1  0  0  0  0
 62 78  1  0  0  0  0
 63 85  1  0  0  0  0
 64 66  1  0  0  0  0
 64 77  1  0  0  0  0
 65 78  1  0  0  0  0
 67 69  1  0  0  0  0
M  CHG  1  78   1
M  ISO  4  37 100  63 101  73 100  85 101
M  END
> <Batch ID>
0169

> <Smiles>
CNC(C)C(=O)NC(C(=O)N1Cc2cc([101O:1][101CH2:1]c3c(C)nc(N4CC5CC4C[100N:0]5[100C:0](=O)N4CCCC(n5nc(-c6ccc(Oc7ccc(F)cc7F)cc6)c(C(N)=O)c5N)C4)c(C)c3C)ccc2CC1C(=O)NC1CCCc2ccccc21)C(C)(C)C

> <Shape>
0.287

> <Color>
0.069

> <Negative vol penalty>
0.000

$$$$

  -OEChem-04052322323D

 86 95  0     1  0  0  0  0  0999 V2000
  -19.4280  -30.2905   15.7295 C   0  0  0  0  0  0  0  0  0  0  0  0
  -20.2661  -29.1961   15.9168 C   0  0  0  0  0  0  0  0  0  0  0  0
  -22.9522  -10.0365   19.9100 C   0  0  0  0  0  0  0  0  0  0  0  0
  -23.8523   -9.7712   22.1363 C   0  0  0  0  0  0  0  0  0  0  0  0
  -19.7092  -31.4992   16.3651 C   0  0  0  0  0  0  0  0  0  0  0  0
  -21.3866  -29.3100   16.7390 C   0  0  0  0  0  0  0  0  0  0  0  0
  -23.7625  -24.9686   20.3464 C   0  0  0  0  0  0  0  0  0  0  0  0
  -22.1846   -8.8849   20.0831 C   0  0  0  0  0  0  0  0  0  0  0  0
  -23.0846   -8.6195   22.3095 C   0  0  0  0  0  0  0  0  0  0  0  0
  -24.8312  -24.0895   20.1769 C   0  0  0  0  0  0  0  0  0  0  0  0
  -23.2218   -5.3713   21.3817 C   0  0  0  0  0  0  0  0  0  0  0  0
  -23.8435   -4.2564   21.9439 C   0  0  0  0  0  0  0  0  0  0  0  0
  -28.2700  -20.4150   20.5811 C   0  0  0  0  0  0  0  0  0  0  0  0
  -26.2674  -25.6142   21.3735 C   0  0  0  0  0  0  0  0  0  0  0  0
  -22.2583   -4.2916   23.7668 C   0  0  0  0  0  0  0  0  0  0  0  0
  -31.7787  -18.2092   20.3873 C   0  0  0  0  0  0  0  0  0  0  0  0
  -29.4445  -19.6521   20.5360 C   0  0  0  0  0  0  0  0  0  0  0  0
  -23.7862  -10.4797   20.9366 C   0  0  0  0  0  0  0  0  0  0  0  0
  -24.2098  -12.9919   21.0656 C   0  0  0  0  0  0  0  0  0  0  0  0
  -20.8283  -31.6252   17.2031 C   0  0  0  0  0  0  0  0  0  0  0  0
  -23.9411  -26.1842   21.0224 C   0  0  0  0  0  0  0  0  0  0  0  0
  -21.6837  -30.5219   17.3853 C   0  0  0  0  0  0  0  0  0  0  0  0
  -25.1987  -26.5059   21.5524 C   0  0  0  0  0  0  0  0  0  0  0  0
  -28.1295  -21.5299   19.7662 C   0  0  0  0  0  0  0  0  0  0  0  0
  -30.8014  -17.7904   21.2689 C   0  0  0  0  0  0  0  0  0  0  0  0
  -29.6238  -18.5195   21.3430 C   0  0  0  0  0  0  0  0  0  0  0  0
  -22.2507   -8.1764   21.2828 C   0  0  0  0  0  0  0  0  0  0  0  0
  -26.0846  -24.4135   20.6880 C   0  0  0  0  0  0  0  0  0  0  0  0
  -22.1183   -5.9464   22.0120 C   0  0  0  0  0  0  0  0  0  0  0  0
  -23.3618   -3.7166   23.1364 C   0  0  0  0  0  0  0  0  0  0  0  0
  -21.6365   -5.4065   23.2046 C   0  0  0  0  0  0  0  0  0  0  0  0
  -24.5798  -11.6689   20.7582 C   0  0  0  0  0  0  0  0  0  0  0  0
  -29.1779  -21.8480   18.9256 C   0  0  0  0  0  0  0  0  0  0  0  0
  -30.4671  -20.0512   19.6449 C   0  0  0  0  0  0  0  0  0  0  0  0
  -25.3034  -13.7449   20.7141 C   0  0  0  0  0  0  0  0  0  0  0  0
  -22.9869  -13.4953   21.6196 C   0  0  0  0  0  0  0  0  0  0  0  0
  -23.6646  -29.2510   20.2338 C   0  0  0  0  0  0  0  0  0  0  0  0
  -24.2233  -29.7120   23.3957 C   0  0  0  0  0  0  0  0  0  0  0  0
  -25.5479  -28.5225   26.3073 C   0  0  0  0  0  0  0  0  0  0  0  0
  -30.8212  -14.5790   20.6516 C   0  0  0  0  0  0  0  0  0  0  0  0
  -21.1176  -32.9656   17.8312 C   0  0  0  0  0  0  0  0  0  0  0  0
  -22.7718  -27.1094   21.2201 C   0  0  0  0  0  0  0  0  0  0  0  0
  -25.4380  -27.7892   22.3037 C   0  0  0  0  0  0  0  0  0  0  0  0
  -22.1166  -32.8954   18.9833 C   0  0  0  0  0  0  0  0  0  0  0  0
  -29.4537  -12.5031   18.1027 C   0  0  0  0  0  0  0  0  0  0  0  0
  -23.3190  -32.0404   18.5961 C   0  0  0  0  0  0  0  0  0  0  0  0
  -28.0362  -12.2053   18.5947 C   0  0  0  0  0  0  0  0  0  0  0  0
  -30.4507  -12.5650   19.2578 C   0  0  0  0  0  0  0  0  0  0  0  0
  -28.6657  -13.1947   20.8360 C   0  0  0  0  0  0  0  0  0  0  0  0
  -22.8950  -30.5990   18.2892 C   0  0  1  0  0  0  0  0  0  0  0  0
  -23.1897  -28.5539   21.4773 C   0  0  1  0  0  0  0  0  0  0  0  0
  -27.6149  -13.1779   19.7127 C   0  0  2  0  0  0  0  0  0  0  0  0
  -29.0874  -23.0377   18.0269 C   0  0  0  0  0  0  0  0  0  0  0  0
  -25.8843  -29.1411   28.7160 C   0  0  0  0  0  0  0  0  0  0  0  0
  -26.4856  -31.5956   22.5935 C   0  0  0  0  0  0  0  0  0  0  0  0
  -27.3627  -31.4259   24.9324 C   0  0  0  0  0  0  0  0  0  0  0  0
  -25.0996  -32.3899   24.5177 C   0  0  0  0  0  0  0  0  0  0  0  0
  -28.1370  -18.9234   23.3056 C   0  0  0  0  0  0  0  0  0  0  0  0
  -23.9464  -26.2166   27.2437 C   0  0  0  0  0  0  0  0  0  0  0  0
  -31.0402  -16.5789   22.1048 C   0  0  0  0  0  0  0  0  0  0  0  0
  -26.8708  -22.3449   19.8169 C   0  0  0  0  0  0  0  0  0  1  0  0
  -25.4554  -29.9015   24.2472 C   0  0  1  0  0  0  0  0  0  0  0  0
  -24.9804  -28.4413   27.7130 C   0  0  2  0  0  0  0  0  0  0  0  0
  -26.0971  -31.3049   24.0569 C   0  0  0  0  0  0  0  0  0  0  0  0
  -25.8122  -11.5830   20.2502 N   0  0  0  0  0  0  0  0  0  0  0  0
  -30.3288  -21.1431   18.8474 N   0  0  0  0  0  0  0  0  0  0  0  0
  -26.2260  -12.8615   20.2358 N   0  0  0  0  0  0  0  0  0  0  0  0
  -31.5870  -19.2928   19.6266 N   0  3  0  0  0  0  0  0  0  0  0  0
  -24.2649  -28.6638   22.4654 N   0  0  0  0  0  0  0  0  0  0  0  0
  -29.9931  -13.5060   20.2829 N   0  0  0  0  0  0  0  0  0  0  0  0
  -25.5563  -15.0697   20.7705 N   0  0  0  0  0  0  0  0  0  0  0  0
  -21.9660  -12.5842   21.9230 N   0  0  0  0  0  0  0  0  0  0  0  0
  -28.6148  -18.0984   22.2444 N   0  0  0  0  0  0  0  0  0  0  0  0
  -22.6584  -29.8696   19.5166 N   0  0  0  0  0  0  0  0  0  0  0  0
  -25.0527  -29.6096   25.6187 N   0  0  0  0  0  0  0  0  0  0  0  0
  -30.3088  -15.4272   21.6256 N   0  0  0  0  0  0  0  0  0  0  0  0
  -24.8296  -27.0183   28.1292 N   0  3  0  0  0  0  0  0  0  0  0  0
  -22.7987  -14.7186   21.8237 O   0  0  0  0  0  0  0  0  0  0  0  0
  -24.8558  -29.2305   19.9472 O   0  0  0  0  0  0  0  0  0  0  0  0
  -23.2567  -30.4616   23.5553 O   0  0  0  0  0  0  0  0  0  0  0  0
  -26.3530  -27.7056   25.8658 O   0  0  0  0  0  0  0  0  0  0  0  0
  -31.9324  -14.7702   20.1461 O   0  0  0  0  0  0  0  0  0  0  0  0
  -21.5016   -7.0527   21.4522 O   0  0  0  0  0  0  0  0  0  0  0  0
  -27.1296  -23.5575   20.5234 O   0  0  0  0  0  0  0  0  0  1  0  0
  -23.9580   -2.6450   23.6754 F   0  0  0  0  0  0  0  0  0  0  0  0
  -20.5761   -5.9539   23.8141 F   0  0  0  0  0  0  0  0  0  0  0  0
  1  2  1  0  0  0  0
  1  5  2  0  0  0  0
  2  6  2  0  0  0  0
  3  8  2  0  0  0  0
  3 18  1  0  0  0  0
  4  9  1  0  0  0  0
  4 18  2  0  0  0  0
  5 20  1  0  0  0  0
  6 22  1  0  0  0  0
  7 10  2  0  0  0  0
  7 21  1  0  0  0  0
  8 27  1  0  0  0  0
  9 27  2  0  0  0  0
 10 28  1  0  0  0  0
 11 12  2  0  0  0  0
 11 29  1  0  0  0  0
 12 30  1  0  0  0  0
 13 17  1  0  0  0  0
 13 24  2  0  0  0  0
 14 23  1  0  0  0  0
 14 28  2  0  0  0  0
 15 30  2  0  0  0  0
 15 31  1  0  0  0  0
 16 25  2  0  0  0  0
 16 68  1  0  0  0  0
 17 26  2  0  0  0  0
 17 34  1  0  0  0  0
 18 32  1  0  0  0  0
 19 32  1  0  0  0  0
 19 35  2  0  0  0  0
 19 36  1  0  0  0  0
 20 22  2  0  0  0  0
 20 41  1  0  0  0  0
 21 23  2  0  0  0  0
 21 42  1  0  0  0  0
 22 50  1  0  0  0  0
 23 43  1  0  0  0  0
 24 33  1  0  0  0  0
 24 61  1  0  0  0  0
 25 26  1  0  0  0  0
 25 60  1  0  0  0  0
 26 73  1  0  0  0  0
 27 83  1  0  0  0  0
 28 84  1  0  0  0  0
 29 31  2  0  0  0  0
 29 83  1  0  0  0  0
 30 85  1  0  0  0  0
 31 86  1  0  0  0  0
 32 65  2  0  0  0  0
 33 53  1  0  0  0  0
 33 66  2  0  0  0  0
 34 66  1  0  0  0  0
 34 68  2  0  0  0  0
 35 67  1  0  0  0  0
 35 71  1  0  0  0  0
 36 72  1  0  0  0  0
 36 78  2  0  0  0  0
 37 51  1  0  0  0  0
 37 74  1  0  0  0  0
 37 79  2  0  0  0  0
 38 62  1  0  0  0  0
 38 69  1  0  0  0  0
 38 80  2  0  0  0  0
 39 63  1  0  0  0  0
 39 75  1  0  0  0  0
 39 81  2  0  0  0  0
 40 70  1  0  0  0  0
 40 76  1  0  0  0  0
 40 82  2  0  0  0  0
 41 44  1  0  0  0  0
 42 51  1  0  0  0  0
 43 69  1  0  0  0  0
 44 46  1  0  0  0  0
 45 47  1  0  0  0  0
 45 48  1  0  0  0  0
 46 50  1  0  0  0  0
 47 52  1  0  0  0  0
 48 70  1  0  0  0  0
 49 52  1  0  0  0  0
 49 70  1  0  0  0  0
 50 74  1  0  0  0  0
 51 69  1  0  0  0  0
 52 67  1  0  0  0  0
 54 63  1  0  0  0  0
 55 64  1  0  0  0  0
 56 64  1  0  0  0  0
 57 64  1  0  0  0  0
 58 73  1  0  0  0  0
 59 77  1  0  0  0  0
 60 76  1  0  0  0  0
 61 84  1  0  0  0  0
 62 64  1  0  0  0  0
 62 75  1  0  0  0  0
 63 77  1  0  0  0  0
 65 67  1  0  0  0  0
M  CHG  2  68   1  77   1
M  ISO  4  40 100  61 101  76 100  84 101
M  END
> <Batch ID>
0169

> <Smiles>
CNc1c(C[100NH:0][100C:0](=O)N2CCCC(n3nc(-c4ccc(Oc5ccc(F)cc5F)cc4)c(C(N)=O)c3N)C2)cnc2nc(C)c([101CH2:1][101O:1]c3ccc4c(c3)CN(C(=O)C(NC(=O)C(C)NC)C(C)(C)C)C(C(=O)NC3CCCc5ccccc53)C4)cc12

> <Shape>
0.313

> <Color>
0.183

> <Negative vol penalty>
0.000

$$$$

  -OEChem-04052322323D

 88 97  0     1  0  0  0  0  0999 V2000
  -30.1861  -32.8009   25.2852 C   0  0  0  0  0  0  0  0  0  0  0  0
  -29.8404  -31.6308   24.6166 C   0  0  0  0  0  0  0  0  0  0  0  0
  -23.9941   -9.0871   21.0989 C   0  0  0  0  0  0  0  0  0  0  0  0
  -25.3811   -9.7307   22.9695 C   0  0  0  0  0  0  0  0  0  0  0  0
  -29.2039  -33.5475   25.9347 C   0  0  0  0  0  0  0  0  0  0  0  0
  -28.5124  -31.2061   24.5981 C   0  0  0  0  0  0  0  0  0  0  0  0
  -27.0193  -29.6971   20.0005 C   0  0  0  0  0  0  0  0  0  0  0  0
  -23.7290   -7.8646   21.7161 C   0  0  0  0  0  0  0  0  0  0  0  0
  -25.1160   -8.5083   23.5867 C   0  0  0  0  0  0  0  0  0  0  0  0
  -27.4230  -28.4292   19.5842 C   0  0  0  0  0  0  0  0  0  0  0  0
  -21.7270   -6.7004   24.1798 C   0  0  0  0  0  0  0  0  0  0  0  0
  -20.4066   -6.2510   24.1875 C   0  0  0  0  0  0  0  0  0  0  0  0
  -25.2535  -27.5524   20.1707 C   0  0  0  0  0  0  0  0  0  0  0  0
  -21.0733   -4.2715   22.9733 C   0  0  0  0  0  0  0  0  0  0  0  0
  -24.8202  -10.0201   21.7256 C   0  0  0  0  0  0  0  0  0  0  0  0
  -24.1610  -12.2687   20.7172 C   0  0  0  0  0  0  0  0  0  0  0  0
  -27.8616  -33.1368   25.9159 C   0  0  0  0  0  0  0  0  0  0  0  0
  -25.7311  -29.9003   20.5160 C   0  0  0  0  0  0  0  0  0  0  0  0
  -27.5115  -31.9472   25.2491 C   0  0  0  0  0  0  0  0  0  0  0  0
  -24.8351  -28.8244   20.5904 C   0  0  0  0  0  0  0  0  0  0  0  0
  -29.3506  -21.5686   20.7617 C   0  0  0  0  0  0  0  0  0  0  0  0
  -29.3164  -20.8705   21.9688 C   0  0  0  0  0  0  0  0  0  0  0  0
  -29.0448  -20.9140   19.5685 C   0  0  0  0  0  0  0  0  0  0  0  0
  -28.9764  -19.5178   21.9827 C   0  0  0  0  0  0  0  0  0  0  0  0
  -28.7047  -19.5613   19.5824 C   0  0  0  0  0  0  0  0  0  0  0  0
  -28.6705  -18.8631   20.7895 C   0  0  0  0  0  0  0  0  0  0  0  0
  -24.2899   -7.5752   22.9600 C   0  0  0  0  0  0  0  0  0  0  0  0
  -26.5411  -27.3561   19.6719 C   0  0  0  0  0  0  0  0  0  0  0  0
  -22.7206   -5.9354   23.5688 C   0  0  0  0  0  0  0  0  0  0  0  0
  -20.0797   -5.0365   23.5843 C   0  0  0  0  0  0  0  0  0  0  0  0
  -22.3937   -4.7209   22.9656 C   0  0  0  0  0  0  0  0  0  0  0  0
  -25.0949  -11.2829   21.0883 C   0  0  0  0  0  0  0  0  0  0  0  0
  -24.9197  -13.2659   20.1545 C   0  0  0  0  0  0  0  0  0  0  0  0
  -22.7352  -12.2820   20.8677 C   0  0  0  0  0  0  0  0  0  0  0  0
  -24.5591  -30.8643   23.3090 C   0  0  0  0  0  0  0  0  0  0  0  0
  -29.4432  -16.5527   20.3091 C   0  0  0  0  0  0  0  0  0  0  0  0
  -21.7341  -30.7584   21.7183 C   0  0  0  0  0  0  0  0  0  0  0  0
  -19.9091  -29.4727   19.1370 C   0  0  0  0  0  0  0  0  0  0  0  0
  -26.8426  -33.9517   26.6723 C   0  0  0  0  0  0  0  0  0  0  0  0
  -25.3020  -31.2794   20.9358 C   0  0  0  0  0  0  0  0  0  0  0  0
  -23.4344  -28.9939   21.1175 C   0  0  0  0  0  0  0  0  0  0  0  0
  -25.4002  -33.6316   26.2883 C   0  0  0  0  0  0  0  0  0  0  0  0
  -29.7754  -13.3353   18.7670 C   0  0  0  0  0  0  0  0  0  0  0  0
  -30.2933  -23.7626   19.4467 C   0  0  0  0  0  0  0  0  0  0  0  0
  -25.1820  -32.1226   26.2434 C   0  0  0  0  0  0  0  0  0  0  0  0
  -28.5260  -12.5857   19.2276 C   0  0  0  0  0  0  0  0  0  0  0  0
  -29.5833  -25.0655   19.8561 C   0  0  0  0  0  0  0  0  0  0  0  0
  -30.2931  -14.2764   19.8503 C   0  0  0  0  0  0  0  0  0  0  0  0
  -28.0233  -14.5019   20.8089 C   0  0  0  0  0  0  0  0  0  0  0  0
  -29.7377  -23.1105   20.7460 C   0  0  1  0  0  0  0  0  0  0  0  0
  -26.0778  -31.4669   25.1855 C   0  0  1  0  0  0  0  0  0  0  0  0
  -24.1397  -31.2686   21.9240 C   0  0  1  0  0  0  0  0  0  0  0  0
  -27.4498  -13.5630   19.7328 C   0  0  2  0  0  0  0  0  0  0  0  0
  -28.5963  -24.2024   20.6971 C   0  0  1  0  0  0  0  0  0  0  0  0
  -29.6450  -21.5753   23.2464 C   0  0  0  0  0  0  0  0  0  0  0  0
  -29.0816  -21.6660   18.2761 C   0  0  0  0  0  0  0  0  0  0  0  0
  -28.9407  -18.7685   23.2773 C   0  0  0  0  0  0  0  0  0  0  0  0
  -28.3792  -18.8591   18.3017 C   0  0  0  0  0  0  0  0  0  0  0  0
  -28.2644  -24.8229   22.0528 C   0  0  0  0  0  0  0  0  0  0  0  0
  -17.6178  -29.5456   18.1163 C   0  0  0  0  0  0  0  0  0  0  0  0
  -20.6809  -28.9784   23.9615 C   0  0  0  0  0  0  0  0  0  0  0  0
  -18.7877  -28.3245   22.4593 C   0  0  0  0  0  0  0  0  0  0  0  0
  -19.0624  -30.7049   23.1526 C   0  0  0  0  0  0  0  0  0  0  0  0
  -20.9567  -30.5232   16.5761 C   0  0  0  0  0  0  0  0  0  0  0  0
  -28.3068  -17.4117   20.8036 C   0  0  0  0  0  0  0  0  0  0  0  0
  -27.3206  -23.8350   19.9338 C   0  0  0  0  0  0  0  0  0  0  0  0
  -26.3416  -25.0003   19.9294 C   0  0  0  0  0  0  0  0  0  1  0  0
  -20.6778  -29.7056   21.4841 C   0  0  1  0  0  0  0  0  0  0  0  0
  -19.0183  -30.1382   18.1036 C   0  0  2  0  0  0  0  0  0  0  0  0
  -19.8292  -29.4244   22.7562 C   0  0  0  0  0  0  0  0  0  0  0  0
  -26.3509  -11.6227   20.7866 N   0  0  0  0  0  0  0  0  0  0  0  0
  -26.2115  -12.8333   20.2199 N   0  0  0  0  0  0  0  0  0  0  0  0
  -23.0640  -30.3603   21.5214 N   0  0  0  0  0  0  0  0  0  0  0  0
  -29.2354  -15.1733   20.3194 N   0  0  0  0  0  0  0  0  0  0  0  0
  -24.6011  -14.4616   19.6150 N   0  0  0  0  0  0  0  0  0  0  0  0
  -22.1924  -12.8194   22.0429 N   0  0  0  0  0  0  0  0  0  0  0  0
  -25.5320  -31.6754   23.8615 N   0  0  0  0  0  0  0  0  0  0  0  0
  -19.9004  -30.1559   20.3347 N   0  0  0  0  0  0  0  0  0  0  0  0
  -19.5897  -29.9646   16.7382 N   0  3  0  0  0  0  0  0  0  0  0  0
  -21.9660  -11.8158   19.9934 O   0  0  0  0  0  0  0  0  0  0  0  0
  -24.0377  -29.8896   23.8378 O   0  0  0  0  0  0  0  0  0  0  0  0
  -30.4827  -17.0934   19.9229 O   0  0  0  0  0  0  0  0  0  0  0  0
  -21.3915  -31.8942   22.0562 O   0  0  0  0  0  0  0  0  0  0  0  0
  -20.5458  -28.4471   18.9061 O   0  0  0  0  0  0  0  0  0  0  0  0
  -24.0312   -6.3825   23.5626 O   0  0  0  0  0  0  0  0  0  0  0  0
  -26.9328  -26.1174   19.2669 O   0  0  0  0  0  0  0  0  0  1  0  0
  -18.8119   -4.6043   23.5931 F   0  0  0  0  0  0  0  0  0  0  0  0
  -23.3441   -3.9810   22.3780 F   0  0  0  0  0  0  0  0  0  0  0  0
  1  2  1  0  0  0  0
  1  5  2  0  0  0  0
  2  6  2  0  0  0  0
  3  8  2  0  0  0  0
  3 15  1  0  0  0  0
  4  9  1  0  0  0  0
  4 15  2  0  0  0  0
  5 17  1  0  0  0  0
  6 19  1  0  0  0  0
  7 10  2  0  0  0  0
  7 18  1  0  0  0  0
  8 27  1  0  0  0  0
  9 27  2  0  0  0  0
 10 28  1  0  0  0  0
 11 12  2  0  0  0  0
 11 29  1  0  0  0  0
 12 30  1  0  0  0  0
 13 20  1  0  0  0  0
 13 28  2  0  0  0  0
 14 30  2  0  0  0  0
 14 31  1  0  0  0  0
 15 32  1  0  0  0  0
 16 32  1  0  0  0  0
 16 33  2  0  0  0  0
 16 34  1  0  0  0  0
 17 19  2  0  0  0  0
 17 39  1  0  0  0  0
 18 20  2  0  0  0  0
 18 40  1  0  0  0  0
 19 51  1  0  0  0  0
 20 41  1  0  0  0  0
 21 22  1  0  0  0  0
 21 23  2  0  0  0  0
 21 50  1  0  0  0  0
 22 24  2  0  0  0  0
 22 55  1  0  0  0  0
 23 25  1  0  0  0  0
 23 56  1  0  0  0  0
 24 26  1  0  0  0  0
 24 57  1  0  0  0  0
 25 26  2  0  0  0  0
 25 58  1  0  0  0  0
 26 65  1  0  0  0  0
 27 85  1  0  0  0  0
 28 86  1  0  0  0  0
 29 31  2  0  0  0  0
 29 85  1  0  0  0  0
 30 87  1  0  0  0  0
 31 88  1  0  0  0  0
 32 71  2  0  0  0  0
 33 72  1  0  0  0  0
 33 75  1  0  0  0  0
 34 76  1  0  0  0  0
 34 80  2  0  0  0  0
 35 52  1  0  0  0  0
 35 77  1  0  0  0  0
 35 81  2  0  0  0  0
 36 65  1  0  0  0  0
 36 74  1  0  0  0  0
 36 82  2  0  0  0  0
 37 68  1  0  0  0  0
 37 73  1  0  0  0  0
 37 83  2  0  0  0  0
 38 69  1  0  0  0  0
 38 78  1  0  0  0  0
 38 84  2  0  0  0  0
 39 42  1  0  0  0  0
 40 52  1  0  0  0  0
 41 73  1  0  0  0  0
 42 45  1  0  0  0  0
 43 46  1  0  0  0  0
 43 48  1  0  0  0  0
 44 47  1  0  0  0  0
 44 50  1  0  0  0  0
 45 51  1  0  0  0  0
 46 53  1  0  0  0  0
 47 54  1  0  0  0  0
 48 74  1  0  0  0  0
 49 53  1  0  0  0  0
 49 74  1  0  0  0  0
 50 54  1  0  0  0  0
 51 77  1  0  0  0  0
 52 73  1  0  0  0  0
 53 72  1  0  0  0  0
 54 59  1  0  0  0  0
 54 66  1  0  0  0  0
 60 69  1  0  0  0  0
 61 70  1  0  0  0  0
 62 70  1  0  0  0  0
 63 70  1  0  0  0  0
 64 79  1  0  0  0  0
 66 67  1  0  0  0  0
 67 86  1  0  0  0  0
 68 70  1  0  0  0  0
 68 78  1  0  0  0  0
 69 79  1  0  0  0  0
 71 72  1  0  0  0  0
M  CHG  1  79   1
M  ISO  4  36 100  65 100  67 101  86 101
M  END
> <Batch ID>
0169

> <Smiles>
CNC(C)C(=O)NC(C(=O)N1Cc2cc([101O:1][101CH2:1]CC3(C)CCC3c3c(C)c(C)c([100CH2:0][100C:0](=O)N4CCCC(n5nc(-c6ccc(Oc7ccc(F)cc7F)cc6)c(C(N)=O)c5N)C4)c(C)c3C)ccc2CC1C(=O)NC1CCCc2ccccc21)C(C)(C)C

> <Shape>
0.385

> <Color>
0.144

> <Negative vol penalty>
0.000

$$$$

  -OEChem-04052322323D

 89 98  0     1  0  0  0  0  0999 V2000
  -26.7673  -33.6392   24.5284 C   0  0  0  0  0  0  0  0  0  0  0  0
  -26.3272  -32.3231   24.6263 C   0  0  0  0  0  0  0  0  0  0  0  0
  -26.3543  -12.9699   21.3093 C   0  0  0  0  0  0  0  0  0  0  0  0
  -26.2239  -13.3357   18.9247 C   0  0  0  0  0  0  0  0  0  0  0  0
  -27.1311  -34.1609   23.2876 C   0  0  0  0  0  0  0  0  0  0  0  0
  -26.2497  -31.5282   23.4832 C   0  0  0  0  0  0  0  0  0  0  0  0
  -28.1316  -26.8841   24.2151 C   0  0  0  0  0  0  0  0  0  0  0  0
  -25.1289  -12.3046   21.2743 C   0  0  0  0  0  0  0  0  0  0  0  0
  -24.9984  -12.6703   18.8897 C   0  0  0  0  0  0  0  0  0  0  0  0
  -27.3272  -25.9711   24.8958 C   0  0  0  0  0  0  0  0  0  0  0  0
  -23.9805   -9.2430   20.4136 C   0  0  0  0  0  0  0  0  0  0  0  0
  -23.8733   -8.0444   21.1189 C   0  0  0  0  0  0  0  0  0  0  0  0
  -26.6856  -24.9780   22.7931 C   0  0  0  0  0  0  0  0  0  0  0  0
  -22.1014   -8.9922   22.4602 C   0  0  0  0  0  0  0  0  0  0  0  0
  -26.9018  -13.4856   20.1345 C   0  0  0  0  0  0  0  0  0  0  0  0
  -29.4469  -13.6081   20.0132 C   0  0  0  0  0  0  0  0  0  0  0  0
  -27.0672  -33.3690   22.1303 C   0  0  0  0  0  0  0  0  0  0  0  0
  -28.2106  -26.8578   22.8153 C   0  0  0  0  0  0  0  0  0  0  0  0
  -26.6117  -32.0402   22.2256 C   0  0  0  0  0  0  0  0  0  0  0  0
  -27.4936  -25.8900   22.0972 C   0  0  0  0  0  0  0  0  0  0  0  0
  -24.4510  -12.1547   20.0645 C   0  0  0  0  0  0  0  0  0  0  0  0
  -26.6018  -25.0197   24.1846 C   0  0  0  0  0  0  0  0  0  0  0  0
  -23.1482  -10.3162   20.7316 C   0  0  0  0  0  0  0  0  0  0  0  0
  -22.9337   -7.9190   22.1422 C   0  0  0  0  0  0  0  0  0  0  0  0
  -22.2086  -10.1908   21.7549 C   0  0  0  0  0  0  0  0  0  0  0  0
  -28.1673  -14.1735   20.1701 C   0  0  0  0  0  0  0  0  0  0  0  0
  -30.3086  -14.6714   20.1283 C   0  0  0  0  0  0  0  0  0  0  0  0
  -24.0535  -21.5097   25.3044 C   0  0  0  0  0  0  0  0  0  0  0  0
  -29.8231  -12.2437   19.7838 C   0  0  0  0  0  0  0  0  0  0  0  0
  -27.4805  -28.8968   20.4887 C   0  0  0  0  0  0  0  0  0  0  0  0
  -28.8725  -26.6475   18.6111 C   0  0  0  0  0  0  0  0  0  0  0  0
  -29.7678  -23.3825   18.1808 C   0  0  0  0  0  0  0  0  0  0  0  0
  -26.6075  -18.4441   21.2377 C   0  0  0  0  0  0  0  0  0  0  0  0
  -27.4260  -33.9914   20.8041 C   0  0  0  0  0  0  0  0  0  0  0  0
  -29.1036  -27.8324   22.0976 C   0  0  0  0  0  0  0  0  0  0  0  0
  -27.5599  -25.8067   20.5949 C   0  0  0  0  0  0  0  0  0  0  0  0
  -27.6713  -32.9686   19.6978 C   0  0  0  0  0  0  0  0  0  0  0  0
  -28.9433  -18.5460   18.6132 C   0  0  0  0  0  0  0  0  0  0  0  0
  -26.5680  -31.9154   19.6902 C   0  0  0  0  0  0  0  0  0  0  0  0
  -30.2120  -17.9288   19.1955 C   0  0  0  0  0  0  0  0  0  0  0  0
  -28.2360  -19.4110   19.6463 C   0  0  0  0  0  0  0  0  0  0  0  0
  -27.1149  -18.9851   23.6570 C   0  0  0  0  0  0  0  0  0  0  0  0
  -24.3497  -21.7023   27.6461 C   0  0  0  0  0  0  0  0  0  0  0  0
  -29.1051  -18.0237   21.5087 C   0  0  0  0  0  0  0  0  0  0  0  0
  -26.2567  -19.9490   24.4656 C   0  0  0  0  0  0  0  0  0  0  0  0
  -24.2230  -18.6378   23.8620 C   0  0  0  0  0  0  0  0  0  0  0  0
  -26.5374  -31.1389   21.0122 C   0  0  1  0  0  0  0  0  0  0  0  0
  -24.2038  -20.1180   25.8682 C   0  0  2  0  0  0  0  0  0  0  0  0
  -28.7079  -28.0433   20.6394 C   0  0  1  0  0  0  0  0  0  0  0  0
  -24.8937  -20.3439   27.2170 C   0  0  2  0  0  0  0  0  0  0  0  0
  -29.9822  -17.2057   20.5342 C   0  0  1  0  0  0  0  0  0  0  0  0
  -25.0783  -17.6741   23.0381 C   0  0  2  0  0  0  0  0  0  0  0  0
  -25.3638  -16.3603   23.7719 C   0  0  0  0  0  0  0  0  0  0  0  0
  -30.8569  -21.8399   16.5281 C   0  0  0  0  0  0  0  0  0  0  0  0
  -25.0026  -18.3588   30.5909 C   0  0  0  0  0  0  0  0  0  0  0  0
  -26.8131  -19.6107   29.4000 C   0  0  0  0  0  0  0  0  0  0  0  0
  -26.3260  -26.6544   16.9303 C   0  0  0  0  0  0  0  0  0  0  0  0
  -27.0707  -24.4885   15.9190 C   0  0  0  0  0  0  0  0  0  0  0  0
  -28.4471  -26.5458   15.6099 C   0  0  0  0  0  0  0  0  0  0  0  0
  -31.9419  -22.7043   20.0709 C   0  0  0  0  0  0  0  0  0  0  0  0
  -24.6170  -19.2475   28.2325 C   0  0  0  0  0  0  0  0  0  0  0  0
  -23.9415  -23.8161   26.3263 C   0  0  0  0  0  0  0  0  0  0  0  0
  -25.2449  -24.5552   26.0817 C   0  0  0  0  0  0  0  0  0  1  0  0
  -28.3891  -25.4220   17.8739 C   0  0  1  0  0  0  0  0  0  0  0  0
  -31.0704  -22.7462   17.7305 C   0  0  2  0  0  0  0  0  0  0  0  0
  -25.3005  -19.4784   29.5925 C   0  0  0  0  0  0  0  0  0  0  0  0
  -27.5552  -25.7802   16.6114 C   0  0  0  0  0  0  0  0  0  0  0  0
  -28.2078  -15.4935   20.3698 N   0  0  0  0  0  0  0  0  0  0  0  0
  -29.5234  -15.7664   20.3393 N   0  0  0  0  0  0  0  0  0  0  0  0
  -24.1387  -22.3841   26.3879 N   0  0  0  0  0  0  0  0  0  0  0  0
  -28.4421  -26.7855   19.9383 N   0  0  0  0  0  0  0  0  0  0  0  0
  -27.9448  -18.6578   20.8649 N   0  0  0  0  0  0  0  0  0  0  0  0
  -26.3358  -18.3104   22.6086 N   0  0  0  0  0  0  0  0  0  0  0  0
  -31.6539  -14.7673   20.0687 N   0  0  0  0  0  0  0  0  0  0  0  0
  -28.8113  -11.2782   19.6918 N   0  0  0  0  0  0  0  0  0  0  0  0
  -27.5989  -30.1558   21.0456 N   0  0  0  0  0  0  0  0  0  0  0  0
  -29.5745  -24.6173   17.5985 N   0  0  0  0  0  0  0  0  0  0  0  0
  -25.0373  -19.2318   24.9841 N   0  3  2  0  0  0  0  0  0  0  0  0
  -31.6583  -21.9337   18.8329 N   0  3  0  0  0  0  0  0  0  0  0  0
  -23.8608  -21.7809   24.1289 O   0  0  0  0  0  0  0  0  0  0  0  0
  -31.0217  -11.8887   19.6803 O   0  0  0  0  0  0  0  0  0  0  0  0
  -26.4993  -28.4469   19.9086 O   0  0  0  0  0  0  0  0  0  0  0  0
  -29.6107  -27.4490   18.0329 O   0  0  0  0  0  0  0  0  0  0  0  0
  -28.9970  -22.8370   18.9675 O   0  0  0  0  0  0  0  0  0  0  0  0
  -25.7087  -18.3599   20.3910 O   0  0  0  0  0  0  0  0  0  0  0  0
  -23.2553  -11.5053   20.0299 O   0  0  0  0  0  0  0  0  0  0  0  0
  -25.8099  -24.1215   24.8512 O   0  0  0  0  0  0  0  0  0  1  0  0
  -22.8299   -6.7674   22.8184 F   0  0  0  0  0  0  0  0  0  0  0  0
  -21.4054  -11.2180   22.0641 F   0  0  0  0  0  0  0  0  0  0  0  0
  1  2  1  0  0  0  0
  1  5  2  0  0  0  0
  2  6  2  0  0  0  0
  3  8  2  0  0  0  0
  3 15  1  0  0  0  0
  4  9  1  0  0  0  0
  4 15  2  0  0  0  0
  5 17  1  0  0  0  0
  6 19  1  0  0  0  0
  7 10  2  0  0  0  0
  7 18  1  0  0  0  0
  8 21  1  0  0  0  0
  9 21  2  0  0  0  0
 10 22  1  0  0  0  0
 11 12  2  0  0  0  0
 11 23  1  0  0  0  0
 12 24  1  0  0  0  0
 13 20  1  0  0  0  0
 13 22  2  0  0  0  0
 14 24  2  0  0  0  0
 14 25  1  0  0  0  0
 15 26  1  0  0  0  0
 16 26  1  0  0  0  0
 16 27  2  0  0  0  0
 16 29  1  0  0  0  0
 17 19  2  0  0  0  0
 17 34  1  0  0  0  0
 18 20  2  0  0  0  0
 18 35  1  0  0  0  0
 19 47  1  0  0  0  0
 20 36  1  0  0  0  0
 21 86  1  0  0  0  0
 22 87  1  0  0  0  0
 23 25  2  0  0  0  0
 23 86  1  0  0  0  0
 24 88  1  0  0  0  0
 25 89  1  0  0  0  0
 26 68  2  0  0  0  0
 27 69  1  0  0  0  0
 27 74  1  0  0  0  0
 28 48  1  0  0  0  0
 28 70  1  0  0  0  0
 28 80  2  0  0  0  0
 29 75  1  0  0  0  0
 29 81  2  0  0  0  0
 30 49  1  0  0  0  0
 30 76  1  0  0  0  0
 30 82  2  0  0  0  0
 31 64  1  0  0  0  0
 31 71  1  0  0  0  0
 31 83  2  0  0  0  0
 32 65  1  0  0  0  0
 32 77  1  0  0  0  0
 32 84  2  0  0  0  0
 33 72  1  0  0  0  0
 33 73  1  0  0  0  0
 33 85  2  0  0  0  0
 34 37  1  0  0  0  0
 35 49  1  0  0  0  0
 36 71  1  0  0  0  0
 37 39  1  0  0  0  0
 38 40  1  0  0  0  0
 38 41  1  0  0  0  0
 39 47  1  0  0  0  0
 40 51  1  0  0  0  0
 41 72  1  0  0  0  0
 42 45  1  0  0  0  0
 42 73  1  0  0  0  0
 43 50  1  0  0  0  0
 43 70  1  0  0  0  0
 44 51  1  0  0  0  0
 44 72  1  0  0  0  0
 45 78  1  0  0  0  0
 46 52  1  0  0  0  0
 46 78  1  0  0  0  0
 47 76  1  0  0  0  0
 48 50  1  0  0  0  0
 48 78  1  0  0  0  0
 49 71  1  0  0  0  0
 50 61  1  0  0  0  0
 51 69  1  0  0  0  0
 52 53  1  0  0  0  0
 52 73  1  0  0  0  0
 54 65  1  0  0  0  0
 55 66  1  0  0  0  0
 56 66  1  0  0  0  0
 57 67  1  0  0  0  0
 58 67  1  0  0  0  0
 59 67  1  0  0  0  0
 60 79  1  0  0  0  0
 61 66  1  0  0  0  0
 62 63  1  0  0  0  0
 62 70  1  0  0  0  0
 63 87  1  0  0  0  0
 64 67  1  0  0  0  0
 64 77  1  0  0  0  0
 65 79  1  0  0  0  0
 68 69  1  0  0  0  0
M  CHG  2  78   1  79   1
M  ISO  4  33 100  63 101  73 100  87 101
M  END
> <Batch ID>
0169

> <Smiles>
CNC(C)C(=O)NC(C(=O)N1Cc2cc([101O:1][101CH2:1]CN3CC(CC(C)C)C(N4CC[100N:0]([100C:0](=O)N5CCCC(n6nc(-c7ccc(Oc8ccc(F)cc8F)cc7)c(C(N)=O)c6N)C5)C(C)C4)C3=O)ccc2CC1C(=O)NC1CCCc2ccccc21)C(C)(C)C

> <Shape>
0.248

> <Color>
0.063

> <Negative vol penalty>
0.000

$$$$

  -OEChem-04052322323D

 85 94  0     1  0  0  0  0  0999 V2000
  -17.6158  -25.7274   21.3333 C   0  0  0  0  0  0  0  0  0  0  0  0
  -18.9527  -25.3858   21.1564 C   0  0  0  0  0  0  0  0  0  0  0  0
  -23.9959  -12.3437   19.4695 C   0  0  0  0  0  0  0  0  0  0  0  0
  -25.4368  -13.3692   21.1155 C   0  0  0  0  0  0  0  0  0  0  0  0
  -17.2802  -26.9647   21.8814 C   0  0  0  0  0  0  0  0  0  0  0  0
  -19.9549  -26.2819   21.5265 C   0  0  0  0  0  0  0  0  0  0  0  0
  -23.7240  -24.0426   24.0612 C   0  0  0  0  0  0  0  0  0  0  0  0
  -24.7550  -11.1752   19.5330 C   0  0  0  0  0  0  0  0  0  0  0  0
  -26.1959  -12.2007   21.1790 C   0  0  0  0  0  0  0  0  0  0  0  0
  -24.6543  -23.3222   23.3134 C   0  0  0  0  0  0  0  0  0  0  0  0
  -26.0982   -7.7972   19.5280 C   0  0  0  0  0  0  0  0  0  0  0  0
  -25.4151   -6.5832   19.5991 C   0  0  0  0  0  0  0  0  0  0  0  0
  -30.7802  -19.7568   20.5737 C   0  0  0  0  0  0  0  0  0  0  0  0
  -26.1807  -25.1867   23.4272 C   0  0  0  0  0  0  0  0  0  0  0  0
  -24.3704   -7.2916   21.6591 C   0  0  0  0  0  0  0  0  0  0  0  0
  -24.3369  -13.4407   20.2607 C   0  0  0  0  0  0  0  0  0  0  0  0
  -22.4288  -14.9754   20.9762 C   0  0  0  0  0  0  0  0  0  0  0  0
  -18.2790  -27.8725   22.2673 C   0  0  0  0  0  0  0  0  0  0  0  0
  -24.0112  -25.3468   24.4890 C   0  0  0  0  0  0  0  0  0  0  0  0
  -19.6324  -27.5331   22.0790 C   0  0  0  0  0  0  0  0  0  0  0  0
  -29.5286  -19.1641   20.6357 C   0  0  0  0  0  0  0  0  0  0  0  0
  -25.2533  -25.9206   24.1824 C   0  0  0  0  0  0  0  0  0  0  0  0
  -30.8517  -21.1410   20.4124 C   0  0  0  0  0  0  0  0  0  0  0  0
  -29.6814  -21.9052   20.3017 C   0  0  0  0  0  0  0  0  0  0  0  0
  -28.4249  -21.2978   20.3691 C   0  0  0  0  0  0  0  0  0  0  0  0
  -28.3631  -19.9277   20.5730 C   0  0  0  0  0  0  0  0  0  0  0  0
  -25.8550  -11.1037   20.3878 C   0  0  0  0  0  0  0  0  0  0  0  0
  -25.8817  -23.8952   22.9938 C   0  0  0  0  0  0  0  0  0  0  0  0
  -25.9175   -8.7585   20.5226 C   0  0  0  0  0  0  0  0  0  0  0  0
  -24.5512   -6.3304   20.6646 C   0  0  0  0  0  0  0  0  0  0  0  0
  -25.0535   -8.5056   21.5881 C   0  0  0  0  0  0  0  0  0  0  0  0
  -23.5535  -14.6482   20.1952 C   0  0  0  0  0  0  0  0  0  0  0  0
  -22.0524  -16.2193   20.5319 C   0  0  0  0  0  0  0  0  0  0  0  0
  -21.7823  -14.2222   22.0108 C   0  0  0  0  0  0  0  0  0  0  0  0
  -22.7364  -28.2111   23.9654 C   0  0  0  0  0  0  0  0  0  0  0  0
  -24.8903  -29.1479   26.2027 C   0  0  0  0  0  0  0  0  0  0  0  0
  -27.8391  -28.5518   27.8140 C   0  0  0  0  0  0  0  0  0  0  0  0
  -25.9099  -19.4769   20.4597 C   0  0  0  0  0  0  0  0  0  0  0  0
  -17.8667  -29.2172   22.8116 C   0  0  0  0  0  0  0  0  0  0  0  0
  -23.0075  -26.1007   25.3177 C   0  0  0  0  0  0  0  0  0  0  0  0
  -29.2199  -17.7049   20.7552 C   0  0  0  0  0  0  0  0  0  0  0  0
  -25.6184  -27.3100   24.6351 C   0  0  0  0  0  0  0  0  0  0  0  0
  -18.9952  -29.9579   23.5244 C   0  0  0  0  0  0  0  0  0  0  0  0
  -24.9414  -18.1798   17.0951 C   0  0  0  0  0  0  0  0  0  0  0  0
  -20.2729  -29.9120   22.6924 C   0  0  0  0  0  0  0  0  0  0  0  0
  -23.4913  -17.7185   17.2774 C   0  0  0  0  0  0  0  0  0  0  0  0
  -25.7844  -18.0713   18.3602 C   0  0  0  0  0  0  0  0  0  0  0  0
  -23.7157  -18.9566   19.4623 C   0  0  0  0  0  0  0  0  0  0  0  0
  -20.7486  -28.4681   22.4911 C   0  0  1  0  0  0  0  0  0  0  0  0
  -23.2024  -27.6128   25.2625 C   0  0  1  0  0  0  0  0  0  0  0  0
  -22.9694  -17.8324   18.7250 C   0  0  2  0  0  0  0  0  0  0  0  0
  -27.6927  -17.6828   20.5238 C   0  0  1  0  0  0  0  0  0  0  0  0
  -32.1983  -21.7865   20.3472 C   0  0  0  0  0  0  0  0  0  0  0  0
  -29.7920  -23.3840   20.0917 C   0  0  0  0  0  0  0  0  0  0  0  0
  -26.9906  -16.7607   21.5157 C   0  0  0  0  0  0  0  0  0  0  0  0
  -26.4395  -21.6920   18.8739 C   0  0  0  0  0  0  0  0  0  0  0  0
  -29.3558  -29.5140   29.5665 C   0  0  0  0  0  0  0  0  0  0  0  0
  -25.8682  -31.2373   24.2057 C   0  0  0  0  0  0  0  0  0  0  0  0
  -27.9325  -31.5002   25.5977 C   0  0  0  0  0  0  0  0  0  0  0  0
  -25.6996  -32.0482   26.5655 C   0  0  0  0  0  0  0  0  0  0  0  0
  -27.5484  -26.1661   29.5410 C   0  0  0  0  0  0  0  0  0  0  0  0
  -26.2804  -22.2435   21.3299 C   0  0  0  0  0  0  0  0  0  1  0  0
  -27.2303  -22.1551   20.1137 C   0  0  1  0  0  0  0  0  0  0  0  0
  -26.3209  -29.6289   26.1740 C   0  0  1  0  0  0  0  0  0  0  0  0
  -28.2017  -28.5635   29.2881 C   0  0  2  0  0  0  0  0  0  0  0  0
  -26.4480  -31.0782   25.6254 C   0  0  0  0  0  0  0  0  0  0  0  0
  -23.8706  -15.6069   19.3209 N   0  0  0  0  0  0  0  0  0  0  0  0
  -22.9396  -16.5487   19.5498 N   0  0  0  0  0  0  0  0  0  0  0  0
  -27.2313  -19.0863   20.6439 N   0  0  0  0  0  0  0  0  0  0  0  0
  -24.6011  -28.0092   25.4375 N   0  0  0  0  0  0  0  0  0  0  0  0
  -25.1663  -18.7583   19.5048 N   0  0  0  0  0  0  0  0  0  0  0  0
  -21.0522  -17.0526   20.8893 N   0  0  0  0  0  0  0  0  0  0  0  0
  -22.2990  -12.9623   22.3424 N   0  0  0  0  0  0  0  0  0  0  0  0
  -21.4029  -27.9803   23.6863 N   0  0  0  0  0  0  0  0  0  0  0  0
  -26.8373  -29.4549   27.5273 N   0  0  0  0  0  0  0  0  0  0  0  0
  -28.5990  -27.1984   29.7346 N   0  3  0  0  0  0  0  0  0  0  0  0
  -20.7663  -14.6467   22.6118 O   0  0  0  0  0  0  0  0  0  0  0  0
  -23.5277  -28.8372   23.2700 O   0  0  0  0  0  0  0  0  0  0  0  0
  -24.0615  -29.7557   26.8848 O   0  0  0  0  0  0  0  0  0  0  0  0
  -28.3919  -27.8179   26.9978 O   0  0  0  0  0  0  0  0  0  0  0  0
  -25.4396  -20.4514   21.0587 O   0  0  0  0  0  0  0  0  0  0  0  0
  -26.5958   -9.9636   20.4502 O   0  0  0  0  0  0  0  0  0  0  0  0
  -26.7974  -23.1899   22.2587 O   0  0  0  0  0  0  0  0  0  1  0  0
  -23.8941   -5.1651   20.7319 F   0  0  0  0  0  0  0  0  0  0  0  0
  -24.8749   -9.4257   22.5459 F   0  0  0  0  0  0  0  0  0  0  0  0
  1  2  1  0  0  0  0
  1  5  2  0  0  0  0
  2  6  2  0  0  0  0
  3  8  2  0  0  0  0
  3 16  1  0  0  0  0
  4  9  1  0  0  0  0
  4 16  2  0  0  0  0
  5 18  1  0  0  0  0
  6 20  1  0  0  0  0
  7 10  2  0  0  0  0
  7 19  1  0  0  0  0
  8 27  1  0  0  0  0
  9 27  2  0  0  0  0
 10 28  1  0  0  0  0
 11 12  2  0  0  0  0
 11 29  1  0  0  0  0
 12 30  1  0  0  0  0
 13 21  2  0  0  0  0
 13 23  1  0  0  0  0
 14 22  1  0  0  0  0
 14 28  2  0  0  0  0
 15 30  2  0  0  0  0
 15 31  1  0  0  0  0
 16 32  1  0  0  0  0
 17 32  1  0  0  0  0
 17 33  2  0  0  0  0
 17 34  1  0  0  0  0
 18 20  2  0  0  0  0
 18 39  1  0  0  0  0
 19 22  2  0  0  0  0
 19 40  1  0  0  0  0
 20 49  1  0  0  0  0
 21 26  1  0  0  0  0
 21 41  1  0  0  0  0
 22 42  1  0  0  0  0
 23 24  2  0  0  0  0
 23 53  1  0  0  0  0
 24 25  1  0  0  0  0
 24 54  1  0  0  0  0
 25 26  2  0  0  0  0
 25 63  1  0  0  0  0
 26 69  1  0  0  0  0
 27 82  1  0  0  0  0
 28 83  1  0  0  0  0
 29 31  2  0  0  0  0
 29 82  1  0  0  0  0
 30 84  1  0  0  0  0
 31 85  1  0  0  0  0
 32 67  2  0  0  0  0
 33 68  1  0  0  0  0
 33 72  1  0  0  0  0
 34 73  1  0  0  0  0
 34 77  2  0  0  0  0
 35 50  1  0  0  0  0
 35 74  1  0  0  0  0
 35 78  2  0  0  0  0
 36 64  1  0  0  0  0
 36 70  1  0  0  0  0
 36 79  2  0  0  0  0
 37 65  1  0  0  0  0
 37 75  1  0  0  0  0
 37 80  2  0  0  0  0
 38 69  1  0  0  0  0
 38 71  1  0  0  0  0
 38 81  2  0  0  0  0
 39 43  1  0  0  0  0
 40 50  1  0  0  0  0
 41 52  1  0  0  0  0
 42 70  1  0  0  0  0
 43 45  1  0  0  0  0
 44 46  1  0  0  0  0
 44 47  1  0  0  0  0
 45 49  1  0  0  0  0
 46 51  1  0  0  0  0
 47 71  1  0  0  0  0
 48 51  1  0  0  0  0
 48 71  1  0  0  0  0
 49 74  1  0  0  0  0
 50 70  1  0  0  0  0
 51 68  1  0  0  0  0
 52 55  1  0  0  0  0
 52 69  1  0  0  0  0
 56 63  1  0  0  0  0
 57 65  1  0  0  0  0
 58 66  1  0  0  0  0
 59 66  1  0  0  0  0
 60 66  1  0  0  0  0
 61 76  1  0  0  0  0
 62 63  1  0  0  0  0
 62 83  1  0  0  0  0
 64 66  1  0  0  0  0
 64 75  1  0  0  0  0
 65 76  1  0  0  0  0
 67 68  1  0  0  0  0
M  CHG  1  76   1
M  ISO  4  38 100  62 101  69 100  83 101
M  END
> <Batch ID>
0169

> <Smiles>
CNC(C)C(=O)NC(C(=O)N1Cc2cc([101O:1][101CH2:1]C(C)c3c(C)c(C)cc4c3[100N:0]([100C:0](=O)N3CCCC(n5nc(-c6ccc(Oc7ccc(F)cc7F)cc6)c(C(N)=O)c5N)C3)C(C)C4)ccc2CC1C(=O)NC1CCCc2ccccc21)C(C)(C)C

> <Shape>
0.209

> <Color>
0.079

> <Negative vol penalty>
0.000

$$$$

  -OEChem-04052322323D

 86 96  0     1  0  0  0  0  0999 V2000
  -27.0408  -38.0166   24.4487 C   0  0  0  0  0  0  0  0  0  0  0  0
  -27.7030  -37.1474   23.5877 C   0  0  0  0  0  0  0  0  0  0  0  0
  -22.5181  -13.1833   22.6985 C   0  0  0  0  0  0  0  0  0  0  0  0
  -21.9490  -13.8501   20.4471 C   0  0  0  0  0  0  0  0  0  0  0  0
  -26.1631  -37.5122   25.4073 C   0  0  0  0  0  0  0  0  0  0  0  0
  -27.4887  -35.7730   23.6856 C   0  0  0  0  0  0  0  0  0  0  0  0
  -27.1890  -29.8675   19.6419 C   0  0  0  0  0  0  0  0  0  0  0  0
  -21.2033  -13.4186   23.1005 C   0  0  0  0  0  0  0  0  0  0  0  0
  -20.6342  -14.0853   20.8491 C   0  0  0  0  0  0  0  0  0  0  0  0
  -27.7253  -28.5825   19.5707 C   0  0  0  0  0  0  0  0  0  0  0  0
  -17.0415  -14.5168   21.2020 C   0  0  0  0  0  0  0  0  0  0  0  0
  -16.0173  -14.0422   20.3827 C   0  0  0  0  0  0  0  0  0  0  0  0
  -26.1261  -27.8307   21.2129 C   0  0  0  0  0  0  0  0  0  0  0  0
  -16.8348  -11.7866   20.6673 C   0  0  0  0  0  0  0  0  0  0  0  0
  -22.8910  -13.3991   21.3718 C   0  0  0  0  0  0  0  0  0  0  0  0
  -24.7852  -11.9520   20.4635 C   0  0  0  0  0  0  0  0  0  0  0  0
  -25.9305  -36.1316   25.5107 C   0  0  0  0  0  0  0  0  0  0  0  0
  -26.1226  -30.1466   20.5086 C   0  0  0  0  0  0  0  0  0  0  0  0
  -26.6080  -35.2495   24.6474 C   0  0  0  0  0  0  0  0  0  0  0  0
  -25.5765  -29.1194   21.2913 C   0  0  0  0  0  0  0  0  0  0  0  0
  -30.3085  -22.8201   20.5343 C   0  0  0  0  0  0  0  0  0  0  0  0
  -29.9413  -24.1610   20.5170 C   0  0  0  0  0  0  0  0  0  0  0  0
  -29.2194  -24.6646   19.4406 C   0  0  0  0  0  0  0  0  0  0  0  0
  -20.2614  -13.8695   22.1759 C   0  0  0  0  0  0  0  0  0  0  0  0
  -27.1958  -27.5645   20.3584 C   0  0  0  0  0  0  0  0  0  0  0  0
  -17.9624  -13.6263   21.7539 C   0  0  0  0  0  0  0  0  0  0  0  0
  -15.9139  -12.6771   20.1153 C   0  0  0  0  0  0  0  0  0  0  0  0
  -17.8591  -12.2612   21.4866 C   0  0  0  0  0  0  0  0  0  0  0  0
  -24.2491  -13.1569   20.9560 C   0  0  0  0  0  0  0  0  0  0  0  0
  -29.9324  -22.0308   19.4594 C   0  0  0  0  0  0  0  0  0  0  0  0
  -28.8922  -23.7928   18.4146 C   0  0  0  0  0  0  0  0  0  0  0  0
  -26.1049  -12.2399   20.2142 C   0  0  0  0  0  0  0  0  0  0  0  0
  -24.1474  -10.6858   20.2502 C   0  0  0  0  0  0  0  0  0  0  0  0
  -25.7094  -32.0597   23.0133 C   0  0  0  0  0  0  0  0  0  0  0  0
  -22.6335  -31.0567   22.7792 C   0  0  0  0  0  0  0  0  0  0  0  0
  -20.4376  -28.6674   21.7226 C   0  0  0  0  0  0  0  0  0  0  0  0
  -28.7396  -17.4302   18.9871 C   0  0  0  0  0  0  0  0  0  0  0  0
  -25.0088  -35.6298   26.5939 C   0  0  0  0  0  0  0  0  0  0  0  0
  -25.5379  -31.5318   20.5540 C   0  0  0  0  0  0  0  0  0  0  0  0
  -24.4183  -29.3625   22.2230 C   0  0  0  0  0  0  0  0  0  0  0  0
  -24.5515  -34.1885   26.3851 C   0  0  0  0  0  0  0  0  0  0  0  0
  -29.6742  -15.0517   21.6299 C   0  0  0  0  0  0  0  0  0  0  0  0
  -32.3934  -22.8721   22.0589 C   0  0  0  0  0  0  0  0  0  0  0  0
  -32.3826  -21.5352   21.3861 C   0  0  0  0  0  0  0  0  0  0  0  0
  -25.7365  -33.2999   26.0205 C   0  0  0  0  0  0  0  0  0  0  0  0
  -28.3931  -14.2345   21.7541 C   0  0  0  0  0  0  0  0  0  0  0  0
  -29.4027  -16.5106   21.2617 C   0  0  0  0  0  0  0  0  0  0  0  0
  -29.6079  -19.4903   20.3104 C   0  0  0  0  0  0  0  0  0  0  0  0
  -29.6460  -19.6660   18.1933 C   0  0  0  0  0  0  0  0  0  0  0  0
  -27.2678  -15.8418   20.1765 C   0  0  0  0  0  0  0  0  0  0  0  0
  -31.0826  -22.2406   21.6700 C   0  0  0  0  0  0  0  0  0  0  0  0
  -26.3829  -33.7542   24.7062 C   0  0  1  0  0  0  0  0  0  0  0  0
  -30.2773  -20.4877   19.3362 C   0  0  0  0  0  0  0  0  0  0  0  0
  -24.7880  -31.8216   21.8506 C   0  0  1  0  0  0  0  0  0  0  0  0
  -27.5502  -14.3636   20.4772 C   0  0  2  0  0  0  0  0  0  0  0  0
  -30.3208  -25.0589   21.6512 C   0  0  0  0  0  0  0  0  0  0  0  0
  -28.1196  -24.2765   17.2311 C   0  0  0  0  0  0  0  0  0  0  0  0
  -17.9913  -28.1084   21.7081 C   0  0  0  0  0  0  0  0  0  0  0  0
  -22.7995  -30.2642   25.7211 C   0  0  0  0  0  0  0  0  0  0  0  0
  -20.7363  -28.8843   25.3938 C   0  0  0  0  0  0  0  0  0  0  0  0
  -20.6496  -31.3540   25.0540 C   0  0  0  0  0  0  0  0  0  0  0  0
  -20.3368  -28.6670   18.7648 C   0  0  0  0  0  0  0  0  0  0  0  0
  -28.8072  -26.1065   19.3923 C   0  0  0  0  0  0  0  0  0  1  0  0
  -21.8365  -29.9095   23.3519 C   0  0  1  0  0  0  0  0  0  0  0  0
  -19.1339  -28.7678   20.9515 C   0  0  2  0  0  0  0  0  0  0  0  0
  -21.5286  -30.0985   24.8642 C   0  0  0  0  0  0  0  0  0  0  0  0
  -25.1542  -14.1372   21.0170 N   0  0  0  0  0  0  0  0  0  0  0  0
  -29.2312  -22.4842   18.3962 N   0  0  0  0  0  0  0  0  0  0  0  0
  -26.2725  -13.5487   20.5596 N   0  0  0  0  0  0  0  0  0  0  0  0
  -23.8855  -30.7349   22.2365 N   0  0  0  0  0  0  0  0  0  0  0  0
  -28.5006  -16.6338   20.1120 N   0  0  0  0  0  0  0  0  0  0  0  0
  -29.4559  -18.5963   19.1688 N   0  0  0  0  0  0  0  0  0  0  0  0
  -27.1267  -11.4987   19.7357 N   0  0  0  0  0  0  0  0  0  0  0  0
  -22.7858  -10.5631   20.5588 N   0  0  0  0  0  0  0  0  0  0  0  0
  -25.5919  -33.3162   23.5761 N   0  0  0  0  0  0  0  0  0  0  0  0
  -20.6506  -29.7773   22.5126 N   0  0  0  0  0  0  0  0  0  0  0  0
  -19.2645  -28.1026   19.6243 N   0  3  0  0  0  0  0  0  0  0  0  0
  -24.7705   -9.6879   19.8147 O   0  0  0  0  0  0  0  0  0  0  0  0
  -26.4696  -31.1688   23.3741 O   0  0  0  0  0  0  0  0  0  0  0  0
  -22.1594  -32.1952   22.8058 O   0  0  0  0  0  0  0  0  0  0  0  0
  -21.1900  -27.6994   21.6360 O   0  0  0  0  0  0  0  0  0  0  0  0
  -28.3038  -17.1334   17.8674 O   0  0  0  0  0  0  0  0  0  0  0  0
  -18.9783  -14.0989   22.5678 O   0  0  0  0  0  0  0  0  0  0  0  0
  -27.7177  -26.3096   20.2913 O   0  0  0  0  0  0  0  0  0  1  0  0
  -14.9293  -12.2213   19.3298 F   0  0  0  0  0  0  0  0  0  0  0  0
  -18.7401  -11.4007   22.0149 F   0  0  0  0  0  0  0  0  0  0  0  0
  1  2  1  0  0  0  0
  1  5  2  0  0  0  0
  2  6  2  0  0  0  0
  3  8  2  0  0  0  0
  3 15  1  0  0  0  0
  4  9  1  0  0  0  0
  4 15  2  0  0  0  0
  5 17  1  0  0  0  0
  6 19  1  0  0  0  0
  7 10  2  0  0  0  0
  7 18  1  0  0  0  0
  8 24  1  0  0  0  0
  9 24  2  0  0  0  0
 10 25  1  0  0  0  0
 11 12  2  0  0  0  0
 11 26  1  0  0  0  0
 12 27  1  0  0  0  0
 13 20  1  0  0  0  0
 13 25  2  0  0  0  0
 14 27  2  0  0  0  0
 14 28  1  0  0  0  0
 15 29  1  0  0  0  0
 16 29  1  0  0  0  0
 16 32  2  0  0  0  0
 16 33  1  0  0  0  0
 17 19  2  0  0  0  0
 17 38  1  0  0  0  0
 18 20  2  0  0  0  0
 18 39  1  0  0  0  0
 19 52  1  0  0  0  0
 20 40  1  0  0  0  0
 21 22  1  0  0  0  0
 21 30  2  0  0  0  0
 21 51  1  0  0  0  0
 22 23  2  0  0  0  0
 22 56  1  0  0  0  0
 23 31  1  0  0  0  0
 23 63  1  0  0  0  0
 24 83  1  0  0  0  0
 25 84  1  0  0  0  0
 26 28  2  0  0  0  0
 26 83  1  0  0  0  0
 27 85  1  0  0  0  0
 28 86  1  0  0  0  0
 29 67  2  0  0  0  0
 30 53  1  0  0  0  0
 30 68  1  0  0  0  0
 31 57  1  0  0  0  0
 31 68  2  0  0  0  0
 32 69  1  0  0  0  0
 32 73  1  0  0  0  0
 33 74  1  0  0  0  0
 33 78  2  0  0  0  0
 34 54  1  0  0  0  0
 34 75  1  0  0  0  0
 34 79  2  0  0  0  0
 35 64  1  0  0  0  0
 35 70  1  0  0  0  0
 35 80  2  0  0  0  0
 36 65  1  0  0  0  0
 36 76  1  0  0  0  0
 36 81  2  0  0  0  0
 37 71  1  0  0  0  0
 37 72  1  0  0  0  0
 37 82  2  0  0  0  0
 38 41  1  0  0  0  0
 39 54  1  0  0  0  0
 40 70  1  0  0  0  0
 41 45  1  0  0  0  0
 42 46  1  0  0  0  0
 42 47  1  0  0  0  0
 43 44  1  0  0  0  0
 43 51  1  0  0  0  0
 44 51  1  0  0  0  0
 45 52  1  0  0  0  0
 46 55  1  0  0  0  0
 47 71  1  0  0  0  0
 48 53  1  0  0  0  0
 48 72  1  0  0  0  0
 49 53  1  0  0  0  0
 49 72  1  0  0  0  0
 50 55  1  0  0  0  0
 50 71  1  0  0  0  0
 52 75  1  0  0  0  0
 54 70  1  0  0  0  0
 55 69  1  0  0  0  0
 58 65  1  0  0  0  0
 59 66  1  0  0  0  0
 60 66  1  0  0  0  0
 61 66  1  0  0  0  0
 62 77  1  0  0  0  0
 63 84  1  0  0  0  0
 64 66  1  0  0  0  0
 64 76  1  0  0  0  0
 65 77  1  0  0  0  0
 67 69  1  0  0  0  0
M  CHG  1  77   1
M  ISO  4  37 100  63 101  72 100  84 101
M  END
> <Batch ID>
0169

> <Smiles>
CNC(C)C(=O)NC(C(=O)N1Cc2cc([101O:1][101CH2:1]c3c(C)nc(C4C[100N:0]([100C:0](=O)N5CCCC(n6nc(-c7ccc(Oc8ccc(F)cc8F)cc7)c(C(N)=O)c6N)C5)C4)c(C4CC4)c3C)ccc2CC1C(=O)NC1CCCc2ccccc21)C(C)(C)C

> <Shape>
0.317

> <Color>
0.086

> <Negative vol penalty>
0.000

$$$$

  -OEChem-04052322323D

 88 97  0     1  0  0  0  0  0999 V2000
  -16.7728  -27.4502   22.9485 C   0  0  0  0  0  0  0  0  0  0  0  0
  -17.8436  -26.8161   22.3266 C   0  0  0  0  0  0  0  0  0  0  0  0
  -26.2077  -12.8756   21.5593 C   0  0  0  0  0  0  0  0  0  0  0  0
  -25.8262  -13.5355   19.2667 C   0  0  0  0  0  0  0  0  0  0  0  0
  -16.7648  -28.8386   23.0760 C   0  0  0  0  0  0  0  0  0  0  0  0
  -18.9066  -27.5702   21.8308 C   0  0  0  0  0  0  0  0  0  0  0  0
  -24.8163  -25.9683   21.7108 C   0  0  0  0  0  0  0  0  0  0  0  0
  -25.0381  -12.1160   21.5353 C   0  0  0  0  0  0  0  0  0  0  0  0
  -24.6566  -12.7758   19.2426 C   0  0  0  0  0  0  0  0  0  0  0  0
  -25.6244  -25.4387   20.7056 C   0  0  0  0  0  0  0  0  0  0  0  0
  -24.0479   -9.1038   20.3609 C   0  0  0  0  0  0  0  0  0  0  0  0
  -24.0983   -7.8190   20.9014 C   0  0  0  0  0  0  0  0  0  0  0  0
  -26.4029  -27.6583   20.1705 C   0  0  0  0  0  0  0  0  0  0  0  0
  -25.0209  -23.4011   15.2860 C   0  0  0  0  0  0  0  0  0  0  0  0
  -22.3940   -8.4259   22.5028 C   0  0  0  0  0  0  0  0  0  0  0  0
  -26.6018  -13.5855   20.4250 C   0  0  0  0  0  0  0  0  0  0  0  0
  -29.1077  -13.9445   20.1104 C   0  0  0  0  0  0  0  0  0  0  0  0
  -17.8328  -29.6093   22.5901 C   0  0  0  0  0  0  0  0  0  0  0  0
  -24.7872  -27.3503   21.9465 C   0  0  0  0  0  0  0  0  0  0  0  0
  -18.9123  -28.9703   21.9508 C   0  0  0  0  0  0  0  0  0  0  0  0
  -25.5956  -28.2027   21.1809 C   0  0  0  0  0  0  0  0  0  0  0  0
  -26.4620  -25.2130   15.9518 C   0  0  0  0  0  0  0  0  0  0  0  0
  -26.1992  -23.8485   15.8758 C   0  0  0  0  0  0  0  0  0  0  0  0
  -24.2626  -12.0661   20.3770 C   0  0  0  0  0  0  0  0  0  0  0  0
  -26.4157  -26.2841   19.9334 C   0  0  0  0  0  0  0  0  0  0  0  0
  -23.1707  -10.0498   20.8913 C   0  0  0  0  0  0  0  0  0  0  0  0
  -23.2713   -7.4800   21.9723 C   0  0  0  0  0  0  0  0  0  0  0  0
  -22.3438   -9.7108   21.9623 C   0  0  0  0  0  0  0  0  0  0  0  0
  -27.8095  -14.3708   20.4493 C   0  0  0  0  0  0  0  0  0  0  0  0
  -24.1280  -24.3367   14.7830 C   0  0  0  0  0  0  0  0  0  0  0  0
  -25.5327  -26.1028   15.4320 C   0  0  0  0  0  0  0  0  0  0  0  0
  -29.8938  -15.0550   20.2984 C   0  0  0  0  0  0  0  0  0  0  0  0
  -29.5623  -12.6596   19.6654 C   0  0  0  0  0  0  0  0  0  0  0  0
  -22.5496  -29.6035   21.8041 C   0  0  0  0  0  0  0  0  0  0  0  0
  -24.8955  -31.4642   23.0519 C   0  0  0  0  0  0  0  0  0  0  0  0
  -28.2356  -32.0085   23.4925 C   0  0  0  0  0  0  0  0  0  0  0  0
  -28.7354  -20.9291   20.2322 C   0  0  0  0  0  0  0  0  0  0  0  0
  -17.7573  -31.1109   22.7089 C   0  0  0  0  0  0  0  0  0  0  0  0
  -23.9304  -27.9030   23.0523 C   0  0  0  0  0  0  0  0  0  0  0  0
  -25.6158  -29.6915   21.4075 C   0  0  0  0  0  0  0  0  0  0  0  0
  -19.0981  -31.8074   22.4907 C   0  0  0  0  0  0  0  0  0  0  0  0
  -30.1582  -19.0576   22.9061 C   0  0  0  0  0  0  0  0  0  0  0  0
  -19.7962  -31.2466   21.2558 C   0  0  0  0  0  0  0  0  0  0  0  0
  -29.8347  -17.6058   22.5491 C   0  0  0  0  0  0  0  0  0  0  0  0
  -29.0249  -20.0019   22.5110 C   0  0  0  0  0  0  0  0  0  0  0  0
  -28.2786  -18.4542   20.7443 C   0  0  0  0  0  0  0  0  0  0  0  0
  -27.0685  -22.4250   17.7549 C   0  0  0  0  0  0  0  0  0  0  0  0
  -28.1842  -22.3330   15.6034 C   0  0  0  0  0  0  0  0  0  0  0  0
  -20.0955  -29.7519   21.4222 C   0  0  1  0  0  0  0  0  0  0  0  0
  -23.5904  -29.3783   22.8642 C   0  0  1  0  0  0  0  0  0  0  0  0
  -29.4155  -17.4714   21.0728 C   0  0  2  0  0  0  0  0  0  0  0  0
  -28.4141  -21.7063   17.8973 C   0  0  2  0  0  0  0  0  0  0  0  0
  -28.6487  -21.1794   16.4893 C   0  0  2  0  0  0  0  0  0  0  0  0
  -22.8495  -23.9402   14.1394 C   0  0  0  0  0  0  0  0  0  0  0  0
  -25.7203  -27.5774   15.4641 C   0  0  0  0  0  0  0  0  0  0  0  0
  -28.6002  -26.4845   15.5739 C   0  0  0  0  0  0  0  0  0  0  0  0
  -29.8477  -33.6325   24.5226 C   0  0  0  0  0  0  0  0  0  0  0  0
  -24.4105  -33.4039   20.7470 C   0  0  0  0  0  0  0  0  0  0  0  0
  -26.6148  -34.4689   21.2714 C   0  0  0  0  0  0  0  0  0  0  0  0
  -24.7849  -34.4939   22.9665 C   0  0  0  0  0  0  0  0  0  0  0  0
  -29.3347  -29.9450   25.3071 C   0  0  0  0  0  0  0  0  0  0  0  0
  -27.4594  -26.6020   17.8202 C   0  0  0  0  0  0  0  0  0  1  0  0
  -27.7422  -25.7272   16.5913 C   0  0  1  0  0  0  0  0  0  0  0  0
  -25.9937  -32.3274   22.4793 C   0  0  1  0  0  0  0  0  0  0  0  0
  -29.0448  -32.3575   24.7286 C   0  0  2  0  0  0  0  0  0  0  0  0
  -25.4494  -33.6457   21.8603 C   0  0  0  0  0  0  0  0  0  0  0  0
  -27.7690  -15.6521   20.8244 N   0  0  0  0  0  0  0  0  0  0  0  0
  -29.0515  -16.0405   20.7223 N   0  0  0  0  0  0  0  0  0  0  0  0
  -24.4061  -25.6447   14.8694 N   0  3  0  0  0  0  0  0  0  0  0  0
  -27.0926  -22.9271   16.3784 N   0  0  3  0  0  0  0  0  0  0  0  0
  -24.7561  -30.1845   22.4962 N   0  0  0  0  0  0  0  0  0  0  0  0
  -28.6765  -19.8255   21.0991 N   0  0  0  0  0  0  0  0  0  0  0  0
  -31.2164  -15.2749   20.1408 N   0  0  0  0  0  0  0  0  0  0  0  0
  -28.6221  -11.6296   19.5262 N   0  0  0  0  0  0  0  0  0  0  0  0
  -21.2504  -29.5593   22.2727 N   0  0  0  0  0  0  0  0  0  0  0  0
  -26.9591  -32.5263   23.5548 N   0  0  0  0  0  0  0  0  0  0  0  0
  -28.3955  -20.6738   18.9093 N   0  0  0  0  0  0  0  0  0  0  0  0
  -30.0695  -20.8649   16.2566 N   0  3  0  0  0  0  0  0  0  0  0  0
  -29.9912  -31.2540   25.0567 N   0  3  0  0  0  0  0  0  0  0  0  0
  -30.7693  -12.4272   19.4148 O   0  0  0  0  0  0  0  0  0  0  0  0
  -22.8995  -29.8039   20.6469 O   0  0  0  0  0  0  0  0  0  0  0  0
  -24.1920  -31.9064   23.9636 O   0  0  0  0  0  0  0  0  0  0  0  0
  -28.6914  -31.3463   22.5629 O   0  0  0  0  0  0  0  0  0  0  0  0
  -29.0715  -22.0573   20.6081 O   0  0  0  0  0  0  0  0  0  0  0  0
  -23.1214  -11.3247   20.3531 O   0  0  0  0  0  0  0  0  0  0  0  0
  -27.2048  -25.7699   18.9512 O   0  0  0  0  0  0  0  0  0  1  0  0
  -23.3187   -6.2456   22.4903 F   0  0  0  0  0  0  0  0  0  0  0  0
  -21.4981  -10.6149   22.4753 F   0  0  0  0  0  0  0  0  0  0  0  0
  1  2  1  0  0  0  0
  1  5  2  0  0  0  0
  2  6  2  0  0  0  0
  3  8  2  0  0  0  0
  3 16  1  0  0  0  0
  4  9  1  0  0  0  0
  4 16  2  0  0  0  0
  5 18  1  0  0  0  0
  6 20  1  0  0  0  0
  7 10  2  0  0  0  0
  7 19  1  0  0  0  0
  8 24  1  0  0  0  0
  9 24  2  0  0  0  0
 10 25  1  0  0  0  0
 11 12  2  0  0  0  0
 11 26  1  0  0  0  0
 12 27  1  0  0  0  0
 13 21  1  0  0  0  0
 13 25  2  0  0  0  0
 14 23  2  0  0  0  0
 14 30  1  0  0  0  0
 15 27  2  0  0  0  0
 15 28  1  0  0  0  0
 16 29  1  0  0  0  0
 17 29  1  0  0  0  0
 17 32  2  0  0  0  0
 17 33  1  0  0  0  0
 18 20  2  0  0  0  0
 18 38  1  0  0  0  0
 19 21  2  0  0  0  0
 19 39  1  0  0  0  0
 20 49  1  0  0  0  0
 21 40  1  0  0  0  0
 22 23  1  0  0  0  0
 22 31  2  0  0  0  0
 22 63  1  0  0  0  0
 23 70  1  0  0  0  0
 24 85  1  0  0  0  0
 25 86  1  0  0  0  0
 26 28  2  0  0  0  0
 26 85  1  0  0  0  0
 27 87  1  0  0  0  0
 28 88  1  0  0  0  0
 29 67  2  0  0  0  0
 30 54  1  0  0  0  0
 30 69  2  0  0  0  0
 31 55  1  0  0  0  0
 31 69  1  0  0  0  0
 32 68  1  0  0  0  0
 32 73  1  0  0  0  0
 33 74  1  0  0  0  0
 33 80  2  0  0  0  0
 34 50  1  0  0  0  0
 34 75  1  0  0  0  0
 34 81  2  0  0  0  0
 35 64  1  0  0  0  0
 35 71  1  0  0  0  0
 35 82  2  0  0  0  0
 36 65  1  0  0  0  0
 36 76  1  0  0  0  0
 36 83  2  0  0  0  0
 37 72  1  0  0  0  0
 37 77  1  0  0  0  0
 37 84  2  0  0  0  0
 38 41  1  0  0  0  0
 39 50  1  0  0  0  0
 40 71  1  0  0  0  0
 41 43  1  0  0  0  0
 42 44  1  0  0  0  0
 42 45  1  0  0  0  0
 43 49  1  0  0  0  0
 44 51  1  0  0  0  0
 45 72  1  0  0  0  0
 46 51  1  0  0  0  0
 46 72  1  0  0  0  0
 47 52  1  0  0  0  0
 47 70  1  0  0  0  0
 48 53  1  0  0  0  0
 48 70  1  0  0  0  0
 49 75  1  0  0  0  0
 50 71  1  0  0  0  0
 51 68  1  0  0  0  0
 52 53  1  0  0  0  0
 52 77  1  0  0  0  0
 53 78  1  0  0  0  0
 56 63  1  0  0  0  0
 57 65  1  0  0  0  0
 58 66  1  0  0  0  0
 59 66  1  0  0  0  0
 60 66  1  0  0  0  0
 61 79  1  0  0  0  0
 62 63  1  0  0  0  0
 62 86  1  0  0  0  0
 64 66  1  0  0  0  0
 64 76  1  0  0  0  0
 65 79  1  0  0  0  0
 67 68  1  0  0  0  0
M  CHG  3  69   1  78   1  79   1
M  ISO  4  37 100  62 101  77 100  86 101
M  END
> <Batch ID>
0169

> <Smiles>
CNC(C)C(=O)NC(C(=O)N1Cc2cc([101O:1][101CH2:1]C(C)c3c(N4CC(N)C([100NH:0][100C:0](=O)N5CCCC(n6nc(-c7ccc(Oc8ccc(F)cc8F)cc7)c(C(N)=O)c6N)C5)C4)cc(C)nc3C)ccc2CC1C(=O)NC1CCCc2ccccc21)C(C)(C)C

> <Shape>
0.295

> <Color>
0.074

> <Negative vol penalty>
0.000

$$$$

  -OEChem-04052322323D

 84 93  0     1  0  0  0  0  0999 V2000
  -21.2381  -25.5680   25.1036 C   0  0  0  0  0  0  0  0  0  0  0  0
  -21.1434  -24.6325   24.0782 C   0  0  0  0  0  0  0  0  0  0  0  0
  -23.1915   -9.8392   19.9224 C   0  0  0  0  0  0  0  0  0  0  0  0
  -23.6138   -9.9609   22.2981 C   0  0  0  0  0  0  0  0  0  0  0  0
  -20.7107  -26.8469   24.9298 C   0  0  0  0  0  0  0  0  0  0  0  0
  -20.5203  -24.9752   22.8787 C   0  0  0  0  0  0  0  0  0  0  0  0
  -23.1306  -23.4313   18.8232 C   0  0  0  0  0  0  0  0  0  0  0  0
  -22.4344   -8.6839   20.1161 C   0  0  0  0  0  0  0  0  0  0  0  0
  -22.8566   -8.8055   22.4918 C   0  0  0  0  0  0  0  0  0  0  0  0
  -23.0348  -22.0835   18.4795 C   0  0  0  0  0  0  0  0  0  0  0  0
  -23.2675   -5.4686   22.1349 C   0  0  0  0  0  0  0  0  0  0  0  0
  -23.7866   -4.4877   22.9798 C   0  0  0  0  0  0  0  0  0  0  0  0
  -24.5516  -17.7013   17.4202 C   0  0  0  0  0  0  0  0  0  0  0  0
  -21.4247  -22.6396   16.7715 C   0  0  0  0  0  0  0  0  0  0  0  0
  -21.8555   -4.7026   24.4158 C   0  0  0  0  0  0  0  0  0  0  0  0
  -23.7813  -10.4777   21.0134 C   0  0  0  0  0  0  0  0  0  0  0  0
  -24.1042  -13.0013   20.8277 C   0  0  0  0  0  0  0  0  0  0  0  0
  -20.0894  -27.2084   23.7240 C   0  0  0  0  0  0  0  0  0  0  0  0
  -22.3647  -24.3937   18.1497 C   0  0  0  0  0  0  0  0  0  0  0  0
  -19.9830  -26.2597   22.6891 C   0  0  0  0  0  0  0  0  0  0  0  0
  -25.6032  -18.2901   16.7267 C   0  0  0  0  0  0  0  0  0  0  0  0
  -21.5145  -23.9993   17.1067 C   0  0  0  0  0  0  0  0  0  0  0  0
  -23.3497  -18.3859   17.5618 C   0  0  0  0  0  0  0  0  0  0  0  0
  -22.2669   -8.1670   21.4008 C   0  0  0  0  0  0  0  0  0  0  0  0
  -22.1796  -21.6871   17.4555 C   0  0  0  0  0  0  0  0  0  0  0  0
  -22.0424   -6.0666   22.4305 C   0  0  0  0  0  0  0  0  0  0  0  0
  -23.0806   -4.1046   24.1202 C   0  0  0  0  0  0  0  0  0  0  0  0
  -21.3364   -5.6836   23.5709 C   0  0  0  0  0  0  0  0  0  0  0  0
  -24.5640  -11.6709   20.8139 C   0  0  0  0  0  0  0  0  0  0  0  0
  -25.4036  -19.5552   16.1980 C   0  0  0  0  0  0  0  0  0  0  0  0
  -23.2509  -19.6467   16.9957 C   0  0  0  0  0  0  0  0  0  1  0  0
  -25.2275  -13.7553   20.5902 C   0  0  0  0  0  0  0  0  0  0  0  0
  -22.7802  -13.5102   21.0365 C   0  0  0  0  0  0  0  0  0  0  0  0
  -20.1026  -26.4579   19.0014 C   0  0  0  0  0  0  0  0  0  0  0  0
  -20.4196  -27.4721   15.9365 C   0  0  0  0  0  0  0  0  0  0  0  0
  -21.3551  -26.7625   12.7321 C   0  0  0  0  0  0  0  0  0  0  0  0
  -29.9150  -14.7953   17.9711 C   0  0  0  0  0  0  0  0  0  0  0  0
  -19.4924  -28.5879   23.6001 C   0  0  0  0  0  0  0  0  0  0  0  0
  -22.4995  -25.8467   18.5144 C   0  0  0  0  0  0  0  0  0  0  0  0
  -20.6861  -24.9957   16.3391 C   0  0  0  0  0  0  0  0  0  0  0  0
  -19.1801  -28.9894   22.1609 C   0  0  0  0  0  0  0  0  0  0  0  0
  -30.1150  -12.4805   20.5310 C   0  0  0  0  0  0  0  0  0  0  0  0
  -18.4596  -27.8575   21.4353 C   0  0  0  0  0  0  0  0  0  0  0  0
  -28.6533  -12.1622   20.8458 C   0  0  0  0  0  0  0  0  0  0  0  0
  -27.9132  -17.8951   17.6893 C   0  0  0  0  0  0  0  0  0  0  0  0
  -26.7120  -16.0259   16.4794 C   0  0  0  0  0  0  0  0  0  0  0  0
  -30.3378  -12.5950   19.0272 C   0  0  0  0  0  0  0  0  0  0  0  0
  -29.2216  -17.1235   17.5344 C   0  0  0  0  0  0  0  0  0  0  0  0
  -28.0468  -15.2978   16.3502 C   0  0  0  0  0  0  0  0  0  0  0  0
  -27.9940  -13.2963   18.6679 C   0  0  0  0  0  0  0  0  0  0  0  0
  -26.9174  -17.5484   16.5691 C   0  0  0  0  0  0  0  0  0  0  0  0
  -19.3364  -26.6015   21.3643 C   0  0  1  0  0  0  0  0  0  0  0  0
  -21.2887  -26.6800   18.1061 C   0  0  1  0  0  0  0  0  0  0  0  0
  -27.7108  -13.1797   20.1790 C   0  0  1  0  0  0  0  0  0  0  0  0
  -22.2162  -17.7652   18.3021 C   0  0  0  0  0  0  0  0  0  0  0  0
  -26.4983  -20.2363   15.4438 C   0  0  0  0  0  0  0  0  0  0  0  0
  -21.4617  -27.7790   10.4402 C   0  0  0  0  0  0  0  0  0  0  0  0
  -17.4067  -27.0975   15.6329 C   0  0  0  0  0  0  0  0  0  0  0  0
  -17.7149  -27.1966   13.1502 C   0  0  0  0  0  0  0  0  0  0  0  0
  -18.3143  -29.1659   14.5592 C   0  0  0  0  0  0  0  0  0  0  0  0
  -24.2974  -26.4676   12.6117 C   0  0  0  0  0  0  0  0  0  0  0  0
  -19.7809  -27.1073   14.6182 C   0  0  1  0  0  0  0  0  0  0  0  0
  -22.2111  -27.5284   11.7396 C   0  0  2  0  0  0  0  0  0  0  0  0
  -18.3182  -27.6226   14.5057 C   0  0  0  0  0  0  0  0  0  0  0  0
  -25.8770  -11.5814   20.5856 N   0  0  0  0  0  0  0  0  0  0  0  0
  -24.2505  -20.2511   16.3151 N   0  0  0  0  0  0  0  0  0  0  0  0
  -26.2518  -12.8652   20.4536 N   0  0  0  0  0  0  0  0  0  0  0  0
  -20.8480  -26.4038   16.7372 N   0  0  0  0  0  0  0  0  0  0  0  0
  -29.4200  -13.5654   18.4309 N   0  0  0  0  0  0  0  0  0  0  0  0
  -28.9821  -15.6859   17.4148 N   0  0  0  0  0  0  0  0  0  0  0  0
  -25.4290  -15.0861   20.4870 N   0  0  0  0  0  0  0  0  0  0  0  0
  -21.7421  -12.5972   21.2670 N   0  0  0  0  0  0  0  0  0  0  0  0
  -20.3408  -26.7439   20.3322 N   0  0  0  0  0  0  0  0  0  0  0  0
  -20.6731  -27.6102   13.5793 N   0  0  0  0  0  0  0  0  0  0  0  0
  -23.4514  -26.7637   11.4270 N   0  3  0  0  0  0  0  0  0  0  0  0
  -22.5223  -14.7374   21.0029 O   0  0  0  0  0  0  0  0  0  0  0  0
  -19.0489  -26.0581   18.5202 O   0  0  0  0  0  0  0  0  0  0  0  0
  -20.5407  -28.6612   16.2414 O   0  0  0  0  0  0  0  0  0  0  0  0
  -21.2943  -25.5351   12.7513 O   0  0  0  0  0  0  0  0  0  0  0  0
  -31.1149  -15.0848   18.0563 O   0  0  0  0  0  0  0  0  0  0  0  0
  -21.5280   -7.0398   21.5903 O   0  0  0  0  0  0  0  0  0  0  0  0
  -22.0823  -20.3533   17.1137 O   0  0  0  0  0  0  0  0  0  1  0  0
  -23.5785   -3.1615   24.9307 F   0  0  0  0  0  0  0  0  0  0  0  0
  -20.1584   -6.2536   23.8594 F   0  0  0  0  0  0  0  0  0  0  0  0
  1  2  1  0  0  0  0
  1  5  2  0  0  0  0
  2  6  2  0  0  0  0
  3  8  2  0  0  0  0
  3 16  1  0  0  0  0
  4  9  1  0  0  0  0
  4 16  2  0  0  0  0
  5 18  1  0  0  0  0
  6 20  1  0  0  0  0
  7 10  2  0  0  0  0
  7 19  1  0  0  0  0
  8 24  1  0  0  0  0
  9 24  2  0  0  0  0
 10 25  1  0  0  0  0
 11 12  2  0  0  0  0
 11 26  1  0  0  0  0
 12 27  1  0  0  0  0
 13 21  2  0  0  0  0
 13 23  1  0  0  0  0
 14 22  1  0  0  0  0
 14 25  2  0  0  0  0
 15 27  2  0  0  0  0
 15 28  1  0  0  0  0
 16 29  1  0  0  0  0
 17 29  1  0  0  0  0
 17 32  2  0  0  0  0
 17 33  1  0  0  0  0
 18 20  2  0  0  0  0
 18 38  1  0  0  0  0
 19 22  2  0  0  0  0
 19 39  1  0  0  0  0
 20 52  1  0  0  0  0
 21 30  1  0  0  0  0
 21 51  1  0  0  0  0
 22 40  1  0  0  0  0
 23 31  2  0  0  0  0
 23 55  1  0  0  0  0
 24 81  1  0  0  0  0
 25 82  1  0  0  0  0
 26 28  2  0  0  0  0
 26 81  1  0  0  0  0
 27 83  1  0  0  0  0
 28 84  1  0  0  0  0
 29 65  2  0  0  0  0
 30 56  1  0  0  0  0
 30 66  2  0  0  0  0
 31 66  1  0  0  0  0
 31 82  1  0  0  0  0
 32 67  1  0  0  0  0
 32 71  1  0  0  0  0
 33 72  1  0  0  0  0
 33 76  2  0  0  0  0
 34 53  1  0  0  0  0
 34 73  1  0  0  0  0
 34 77  2  0  0  0  0
 35 62  1  0  0  0  0
 35 68  1  0  0  0  0
 35 78  2  0  0  0  0
 36 63  1  0  0  0  0
 36 74  1  0  0  0  0
 36 79  2  0  0  0  0
 37 69  1  0  0  0  0
 37 70  1  0  0  0  0
 37 80  2  0  0  0  0
 38 41  1  0  0  0  0
 39 53  1  0  0  0  0
 40 68  1  0  0  0  0
 41 43  1  0  0  0  0
 42 44  1  0  0  0  0
 42 47  1  0  0  0  0
 43 52  1  0  0  0  0
 44 54  1  0  0  0  0
 45 48  1  0  0  0  0
 45 51  1  0  0  0  0
 46 49  1  0  0  0  0
 46 51  1  0  0  0  0
 47 69  1  0  0  0  0
 48 70  1  0  0  0  0
 49 70  1  0  0  0  0
 50 54  1  0  0  0  0
 50 69  1  0  0  0  0
 52 73  1  0  0  0  0
 53 68  1  0  0  0  0
 54 67  1  0  0  0  0
 57 63  1  0  0  0  0
 58 64  1  0  0  0  0
 59 64  1  0  0  0  0
 60 64  1  0  0  0  0
 61 75  1  0  0  0  0
 62 64  1  0  0  0  0
 62 74  1  0  0  0  0
 63 75  1  0  0  0  0
 65 67  1  0  0  0  0
M  CHG  1  75   1
M  ISO  4  31 101  37 100  70 100  82 101
M  END
> <Batch ID>
0169

> <Smiles>
CNC(C)C(=O)NC(C(=O)N1Cc2cc([101O:1][101c:1]3nc(C)c(C4CC[100N:0]([100C:0](=O)N5CCCC(n6nc(-c7ccc(Oc8ccc(F)cc8F)cc7)c(C(N)=O)c6N)C5)CC4)cc3C)ccc2CC1C(=O)NC1CCCc2ccccc21)C(C)(C)C

> <Shape>
0.190

> <Color>
0.211

> <Negative vol penalty>
0.000

$$$$

  -OEChem-04052322323D

 84 94  0     1  0  0  0  0  0999 V2000
  -32.0130  -13.8934   21.0134 C   0  0  0  0  0  0  0  0  0  0  0  0
  -31.4487  -15.0927   20.5909 C   0  0  0  0  0  0  0  0  0  0  0  0
  -20.7603  -26.6175   23.4730 C   0  0  0  0  0  0  0  0  0  0  0  0
  -21.0494  -26.3856   21.0856 C   0  0  0  0  0  0  0  0  0  0  0  0
  -31.3075  -12.7005   20.8611 C   0  0  0  0  0  0  0  0  0  0  0  0
  -30.1788  -15.0997   20.0148 C   0  0  0  0  0  0  0  0  0  0  0  0
  -27.2508  -18.8203   21.8117 C   0  0  0  0  0  0  0  0  0  0  0  0
  -19.6069  -27.3724   23.2601 C   0  0  0  0  0  0  0  0  0  0  0  0
  -19.8959  -27.1405   20.8726 C   0  0  0  0  0  0  0  0  0  0  0  0
  -27.4753  -20.1035   21.3149 C   0  0  0  0  0  0  0  0  0  0  0  0
  -16.3687  -26.8044   22.4697 C   0  0  0  0  0  0  0  0  0  0  0  0
  -15.2477  -26.5080   23.2450 C   0  0  0  0  0  0  0  0  0  0  0  0
  -25.5974  -19.8479   19.8226 C   0  0  0  0  0  0  0  0  0  0  0  0
  -15.2623  -28.7577   24.1260 C   0  0  0  0  0  0  0  0  0  0  0  0
  -31.5291  -25.6296   17.8238 C   0  0  0  0  0  0  0  0  0  0  0  0
  -21.4816  -26.1241   22.3858 C   0  0  0  0  0  0  0  0  0  0  0  0
  -22.7604  -23.9473   22.7512 C   0  0  0  0  0  0  0  0  0  0  0  0
  -30.0244  -12.6941   20.2917 C   0  0  0  0  0  0  0  0  0  0  0  0
  -26.2028  -18.0358   21.3091 C   0  0  0  0  0  0  0  0  0  0  0  0
  -29.4560  -13.9054   19.8535 C   0  0  0  0  0  0  0  0  0  0  0  0
  -25.3601  -18.5560   20.3164 C   0  0  0  0  0  0  0  0  0  0  0  0
  -19.1747  -27.6339   21.9599 C   0  0  0  0  0  0  0  0  0  0  0  0
  -26.6504  -20.6164   20.3182 C   0  0  0  0  0  0  0  0  0  0  0  0
  -16.9366  -28.0774   22.5226 C   0  0  0  0  0  0  0  0  0  0  0  0
  -14.6945  -27.4847   24.0731 C   0  0  0  0  0  0  0  0  0  0  0  0
  -16.3834  -29.0540   23.3507 C   0  0  0  0  0  0  0  0  0  0  0  0
  -22.6735  -25.3447   22.6051 C   0  0  0  0  0  0  0  0  0  0  0  0
  -30.8304  -25.5042   19.0072 C   0  0  0  0  0  0  0  0  0  0  0  0
  -31.0392  -24.8984   16.7610 C   0  0  0  0  0  0  0  0  0  0  0  0
  -24.0995  -23.7040   22.9361 C   0  0  0  0  0  0  0  0  0  0  0  0
  -29.3578  -24.0652   18.0439 C   0  0  0  0  0  0  0  0  0  0  0  0
  -21.7235  -22.9575   22.7222 C   0  0  0  0  0  0  0  0  0  0  0  0
  -26.0157  -15.2518   19.7865 C   0  0  0  0  0  0  0  0  0  0  0  0
  -22.8264  -15.6941   20.1803 C   0  0  0  0  0  0  0  0  0  0  0  0
  -20.2413  -17.8683   20.6669 C   0  0  0  0  0  0  0  0  0  0  0  0
  -28.8865  -26.7629   21.2637 C   0  0  0  0  0  0  0  0  0  0  0  0
  -29.3198  -11.3738   20.1046 C   0  0  0  0  0  0  0  0  0  0  0  0
  -25.9574  -16.6637   21.8744 C   0  0  0  0  0  0  0  0  0  0  0  0
  -24.2088  -17.7619   19.7575 C   0  0  0  0  0  0  0  0  0  0  0  0
  -27.8254  -11.5148   19.8271 C   0  0  0  0  0  0  0  0  0  0  0  0
  -28.0729  -25.7458   24.6571 C   0  0  0  0  0  0  0  0  0  0  0  0
  -27.5775  -12.5857   18.7694 C   0  0  0  0  0  0  0  0  0  0  0  0
  -26.5909  -25.3907   24.5193 C   0  0  0  0  0  0  0  0  0  0  0  0
  -32.0432  -25.4854   21.3943 C   0  0  0  0  0  0  0  0  0  0  0  0
  -28.2575  -21.7424   17.7796 C   0  0  0  0  0  0  0  0  0  0  0  0
  -28.4282  -26.9424   23.7824 C   0  0  0  0  0  0  0  0  0  0  0  0
  -31.1134  -26.0505   22.4666 C   0  0  0  0  0  0  0  0  0  0  0  0
  -26.6269  -26.4275   22.1982 C   0  0  0  0  0  0  0  0  0  0  0  0
  -28.0707  -13.9570   19.2467 C   0  0  1  0  0  0  0  0  0  0  0  0
  -31.2357  -26.2656   20.3384 C   0  0  2  0  0  0  0  0  0  0  0  0
  -28.1607  -23.1997   18.1666 C   0  0  1  0  0  0  0  0  0  0  0  0
  -25.1777  -15.7576   20.9265 C   0  0  1  0  0  0  0  0  0  0  0  0
  -26.1910  -25.2144   23.0420 C   0  0  2  0  0  0  0  0  0  0  0  0
  -28.1350  -22.1184   19.2247 C   0  0  1  0  0  0  0  0  0  1  0  0
  -31.7271  -24.9717   15.4394 C   0  0  0  0  0  0  0  0  0  0  0  0
  -17.8899  -18.6305   21.0999 C   0  0  0  0  0  0  0  0  0  0  0  0
  -22.5246  -15.2821   17.1721 C   0  0  0  0  0  0  0  0  0  0  0  0
  -20.2357  -16.2834   17.3350 C   0  0  0  0  0  0  0  0  0  0  0  0
  -20.7626  -14.1745   18.5587 C   0  0  0  0  0  0  0  0  0  0  0  0
  -20.6209  -17.7536   23.5997 C   0  0  0  0  0  0  0  0  0  0  0  0
  -21.7326  -16.3598   19.3806 C   0  0  1  0  0  0  0  0  0  0  0  0
  -19.0759  -17.8461   21.6394 C   0  0  2  0  0  0  0  0  0  0  0  0
  -21.3367  -15.5394   18.1205 C   0  0  0  0  0  0  0  0  0  0  0  0
  -23.8626  -25.9470   22.6901 N   0  0  0  0  0  0  0  0  0  0  0  0
  -29.7365  -24.7281   19.1533 N   0  0  0  0  0  0  0  0  0  0  0  0
  -29.9520  -24.1029   16.8360 N   0  0  0  0  0  0  0  0  0  0  0  0
  -24.7094  -24.9232   22.8917 N   0  0  0  0  0  0  0  0  0  0  0  0
  -24.0136  -16.4232   20.3382 N   0  0  0  0  0  0  0  0  0  0  0  0
  -28.0593  -26.6885   22.3870 N   0  0  0  0  0  0  0  0  0  0  0  0
  -30.2196  -26.4471   21.3940 N   0  0  0  0  0  0  0  0  0  0  0  0
  -24.8030  -22.5684   23.1308 N   0  0  0  0  0  0  0  0  0  0  0  0
  -20.4022  -23.3798   22.5219 N   0  0  0  0  0  0  0  0  0  0  0  0
  -27.1293  -14.5354   20.1814 N   0  0  0  0  0  0  0  0  0  0  0  0
  -20.6331  -16.5954   20.3100 N   0  0  0  0  0  0  0  0  0  0  0  0
  -19.4789  -18.4418   22.9446 N   0  3  0  0  0  0  0  0  0  0  0  0
  -21.9597  -21.7364   22.8859 O   0  0  0  0  0  0  0  0  0  0  0  0
  -25.6763  -15.4924   18.6339 O   0  0  0  0  0  0  0  0  0  0  0  0
  -22.6320  -14.5717   20.6536 O   0  0  0  0  0  0  0  0  0  0  0  0
  -20.7506  -18.9108   20.2613 O   0  0  0  0  0  0  0  0  0  0  0  0
  -28.4305  -27.0709   20.1535 O   0  0  0  0  0  0  0  0  0  0  0  0
  -18.0491  -28.3703   21.7517 O   0  0  0  0  0  0  0  0  0  0  0  0
  -26.8677  -21.8684   19.8311 O   0  0  0  0  0  0  0  0  0  1  0  0
  -13.6170  -27.2004   24.8164 F   0  0  0  0  0  0  0  0  0  0  0  0
  -16.9238  -30.2791   23.4049 F   0  0  0  0  0  0  0  0  0  0  0  0
  1  2  1  0  0  0  0
  1  5  2  0  0  0  0
  2  6  2  0  0  0  0
  3  8  2  0  0  0  0
  3 16  1  0  0  0  0
  4  9  1  0  0  0  0
  4 16  2  0  0  0  0
  5 18  1  0  0  0  0
  6 20  1  0  0  0  0
  7 10  2  0  0  0  0
  7 19  1  0  0  0  0
  8 22  1  0  0  0  0
  9 22  2  0  0  0  0
 10 23  1  0  0  0  0
 11 12  2  0  0  0  0
 11 24  1  0  0  0  0
 12 25  1  0  0  0  0
 13 21  1  0  0  0  0
 13 23  2  0  0  0  0
 14 25  2  0  0  0  0
 14 26  1  0  0  0  0
 15 28  2  0  0  0  0
 15 29  1  0  0  0  0
 16 27  1  0  0  0  0
 17 27  1  0  0  0  0
 17 30  2  0  0  0  0
 17 32  1  0  0  0  0
 18 20  2  0  0  0  0
 18 37  1  0  0  0  0
 19 21  2  0  0  0  0
 19 38  1  0  0  0  0
 20 49  1  0  0  0  0
 21 39  1  0  0  0  0
 22 81  1  0  0  0  0
 23 82  1  0  0  0  0
 24 26  2  0  0  0  0
 24 81  1  0  0  0  0
 25 83  1  0  0  0  0
 26 84  1  0  0  0  0
 27 64  2  0  0  0  0
 28 50  1  0  0  0  0
 28 65  1  0  0  0  0
 29 55  1  0  0  0  0
 29 66  2  0  0  0  0
 30 67  1  0  0  0  0
 30 71  1  0  0  0  0
 31 51  1  0  0  0  0
 31 65  2  0  0  0  0
 31 66  1  0  0  0  0
 32 72  1  0  0  0  0
 32 76  2  0  0  0  0
 33 52  1  0  0  0  0
 33 73  1  0  0  0  0
 33 77  2  0  0  0  0
 34 61  1  0  0  0  0
 34 68  1  0  0  0  0
 34 78  2  0  0  0  0
 35 62  1  0  0  0  0
 35 74  1  0  0  0  0
 35 79  2  0  0  0  0
 36 69  1  0  0  0  0
 36 70  1  0  0  0  0
 36 80  2  0  0  0  0
 37 40  1  0  0  0  0
 38 52  1  0  0  0  0
 39 68  1  0  0  0  0
 40 42  1  0  0  0  0
 41 43  1  0  0  0  0
 41 46  1  0  0  0  0
 42 49  1  0  0  0  0
 43 53  1  0  0  0  0
 44 47  1  0  0  0  0
 44 50  1  0  0  0  0
 45 51  1  0  0  0  0
 45 54  1  0  0  0  0
 46 69  1  0  0  0  0
 47 70  1  0  0  0  0
 48 53  1  0  0  0  0
 48 69  1  0  0  0  0
 49 73  1  0  0  0  0
 50 70  1  0  0  0  0
 51 54  1  0  0  0  0
 52 68  1  0  0  0  0
 53 67  1  0  0  0  0
 54 82  1  0  0  0  0
 56 62  1  0  0  0  0
 57 63  1  0  0  0  0
 58 63  1  0  0  0  0
 59 63  1  0  0  0  0
 60 75  1  0  0  0  0
 61 63  1  0  0  0  0
 61 74  1  0  0  0  0
 62 75  1  0  0  0  0
 64 67  1  0  0  0  0
M  CHG  1  75   1
M  ISO  4  36 100  54 101  70 100  82 101
M  END
> <Batch ID>
0169

> <Smiles>
CNC(C)C(=O)NC(C(=O)N1Cc2cc([101O:1][101CH:1]3CC3c3nc(C)cc(C4CC[100N:0]4[100C:0](=O)N4CCCC(n5nc(-c6ccc(Oc7ccc(F)cc7F)cc6)c(C(N)=O)c5N)C4)n3)ccc2CC1C(=O)NC1CCCc2ccccc21)C(C)(C)C

> <Shape>
0.200

> <Color>
0.061

> <Negative vol penalty>
0.000

$$$$

  -OEChem-04052322323D

 91102  0     1  0  0  0  0  0999 V2000
  -21.3488  -20.8390   34.0568 C   0  0  0  0  0  0  0  0  0  0  0  0
  -21.6929  -20.6260   32.7257 C   0  0  0  0  0  0  0  0  0  0  0  0
  -23.0167   -9.8647   19.9872 C   0  0  0  0  0  0  0  0  0  0  0  0
  -23.6993   -9.9756   22.3022 C   0  0  0  0  0  0  0  0  0  0  0  0
  -20.6784  -22.0049   34.4244 C   0  0  0  0  0  0  0  0  0  0  0  0
  -21.3657  -21.5785   31.7613 C   0  0  0  0  0  0  0  0  0  0  0  0
  -25.1912  -22.5124   28.5772 C   0  0  0  0  0  0  0  0  0  0  0  0
  -22.2523   -8.7320   20.2668 C   0  0  0  0  0  0  0  0  0  0  0  0
  -22.9348   -8.8428   22.5818 C   0  0  0  0  0  0  0  0  0  0  0  0
  -25.4213  -21.5792   27.5672 C   0  0  0  0  0  0  0  0  0  0  0  0
  -23.2080   -5.4952   22.1948 C   0  0  0  0  0  0  0  0  0  0  0  0
  -23.7878   -4.5001   22.9817 C   0  0  0  0  0  0  0  0  0  0  0  0
  -28.3439  -18.7895   21.7838 C   0  0  0  0  0  0  0  0  0  0  0  0
  -24.2585  -22.9975   26.0002 C   0  0  0  0  0  0  0  0  0  0  0  0
  -22.0321   -4.7719   24.6190 C   0  0  0  0  0  0  0  0  0  0  0  0
  -23.7402  -10.4865   21.0049 C   0  0  0  0  0  0  0  0  0  0  0  0
  -24.1134  -12.9996   20.7755 C   0  0  0  0  0  0  0  0  0  0  0  0
  -20.3514  -22.9765   33.4654 C   0  0  0  0  0  0  0  0  0  0  0  0
  -24.4824  -23.6921   28.3082 C   0  0  0  0  0  0  0  0  0  0  0  0
  -20.6891  -22.7578   32.1161 C   0  0  0  0  0  0  0  0  0  0  0  0
  -27.0046  -19.1305   21.6309 C   0  0  0  0  0  0  0  0  0  0  0  0
  -24.0229  -23.9452   27.0079 C   0  0  0  0  0  0  0  0  0  0  0  0
  -29.0806  -18.3759   20.6795 C   0  0  0  0  0  0  0  0  0  0  0  0
  -22.2113   -8.2210   21.5641 C   0  0  0  0  0  0  0  0  0  0  0  0
  -24.9524  -21.8204   26.2791 C   0  0  0  0  0  0  0  0  0  0  0  0
  -22.0402   -6.1287   22.6201 C   0  0  0  0  0  0  0  0  0  0  0  0
  -23.1999   -4.1384   24.1938 C   0  0  0  0  0  0  0  0  0  0  0  0
  -21.4523   -5.7670   23.8321 C   0  0  0  0  0  0  0  0  0  0  0  0
  -24.5305  -11.6563   20.7166 C   0  0  0  0  0  0  0  0  0  0  0  0
  -26.4534  -19.0416   20.3629 C   0  0  0  0  0  0  0  0  0  0  0  0
  -28.4364  -18.3206   19.4540 C   0  0  0  0  0  0  0  0  0  0  0  0
  -25.2253  -13.7205   20.4140 C   0  0  0  0  0  0  0  0  0  0  0  0
  -22.8353  -13.5469   21.1257 C   0  0  0  0  0  0  0  0  0  0  0  0
  -21.7584  -24.9586   29.3474 C   0  0  0  0  0  0  0  0  0  0  0  0
  -22.7093  -27.4943   27.5618 C   0  0  0  0  0  0  0  0  0  0  0  0
  -24.5766  -28.6657   24.9564 C   0  0  0  0  0  0  0  0  0  0  0  0
  -30.7104  -14.6964   20.7396 C   0  0  0  0  0  0  0  0  0  0  0  0
  -19.5845  -24.1992   33.9031 C   0  0  0  0  0  0  0  0  0  0  0  0
  -24.2657  -24.7010   29.4026 C   0  0  0  0  0  0  0  0  0  0  0  0
  -23.2742  -25.2057   26.6627 C   0  0  0  0  0  0  0  0  0  0  0  0
  -19.6063  -25.3309   32.8789 C   0  0  0  0  0  0  0  0  0  0  0  0
  -29.6275  -12.2100   18.4328 C   0  0  0  0  0  0  0  0  0  0  0  0
  -26.1600  -18.4834   23.9073 C   0  0  0  0  0  0  0  0  0  0  0  0
  -19.3099  -24.7930   31.4826 C   0  0  0  0  0  0  0  0  0  0  0  0
  -24.5744  -19.8587   18.7894 C   0  0  0  0  0  0  0  0  0  0  0  0
  -24.6535  -20.8413   19.9157 C   0  0  0  0  0  0  0  0  0  0  0  0
  -28.4294  -17.2788   17.0900 C   0  0  0  0  0  0  0  0  0  0  0  0
  -29.3019  -16.4115   17.9426 C   0  0  0  0  0  0  0  0  0  0  0  0
  -28.1732  -11.9509   18.8302 C   0  0  0  0  0  0  0  0  0  0  0  0
  -26.7590  -19.1124   25.1660 C   0  0  0  0  0  0  0  0  0  0  0  0
  -30.5062  -12.4801   19.6522 C   0  0  0  0  0  0  0  0  0  0  0  0
  -28.5672  -13.2950   20.9366 C   0  0  0  0  0  0  0  0  0  0  0  0
  -26.2111  -19.5746   22.8144 C   0  0  1  0  0  0  0  0  0  0  0  0
  -20.3735  -23.7789   31.0447 C   0  0  1  0  0  0  0  0  0  0  0  0
  -25.0178  -19.4008   20.1522 C   0  0  0  0  0  0  0  0  0  0  0  0
  -29.1895  -17.8822   18.2398 C   0  0  0  0  0  0  0  0  0  0  0  0
  -23.0857  -25.6298   29.1339 C   0  0  1  0  0  0  0  0  0  0  0  0
  -26.8486  -20.8100   23.4974 C   0  0  2  0  0  0  0  0  0  0  0  0
  -27.6312  -13.0727   19.7362 C   0  0  2  0  0  0  0  0  0  0  0  0
  -26.5347  -20.6073   24.9827 C   0  0  1  0  0  0  0  0  0  1  0  0
  -26.3474  -22.1266   22.9172 C   0  0  0  0  0  0  0  0  0  0  0  0
  -25.1202  -30.7779   23.7153 C   0  0  0  0  0  0  0  0  0  0  0  0
  -19.9974  -27.3710   26.1689 C   0  0  0  0  0  0  0  0  0  0  0  0
  -20.9390  -28.8224   24.3592 C   0  0  0  0  0  0  0  0  0  0  0  0
  -20.7951  -29.6818   26.6965 C   0  0  0  0  0  0  0  0  0  0  0  0
  -27.4491  -28.4655   25.6402 C   0  0  0  0  0  0  0  0  0  0  0  0
  -30.5161  -18.0113   20.8401 C   0  0  0  0  0  0  0  0  0  0  0  0
  -30.7583  -16.9036   21.8734 C   0  0  0  0  0  0  0  0  0  0  0  0
  -22.5192  -27.9227   26.1267 C   0  0  1  0  0  0  0  0  0  0  0  0
  -25.5247  -29.8462   24.8472 C   0  0  2  0  0  0  0  0  0  0  0  0
  -21.0751  -28.4247   25.8445 C   0  0  0  0  0  0  0  0  0  0  0  0
  -25.8075  -11.5286   20.3467 N   0  0  0  0  0  0  0  0  0  0  0  0
  -27.1372  -18.6440   19.2665 N   0  0  0  0  0  0  0  0  0  0  0  0
  -26.2025  -12.8009   20.1697 N   0  0  0  0  0  0  0  0  0  0  0  0
  -23.0820  -26.1586   27.7684 N   0  0  0  0  0  0  0  0  0  0  0  0
  -29.9375  -13.5553   20.4685 N   0  0  0  0  0  0  0  0  0  0  0  0
  -25.4525  -15.0448   20.2843 N   0  0  0  0  0  0  0  0  0  0  0  0
  -21.8028  -12.6645   21.4716 N   0  0  0  0  0  0  0  0  0  0  0  0
  -21.5787  -24.4605   30.6237 N   0  0  0  0  0  0  0  0  0  0  0  0
  -23.5588  -28.9093   25.8541 N   0  0  0  0  0  0  0  0  0  0  0  0
  -30.0936  -15.6704   21.5152 N   0  0  0  0  0  0  0  0  0  0  0  0
  -26.9145  -29.3726   24.5922 N   0  3  0  0  0  0  0  0  0  0  0  0
  -22.6107  -14.7810   21.1158 O   0  0  0  0  0  0  0  0  0  0  0  0
  -20.9562  -24.8985   28.4230 O   0  0  0  0  0  0  0  0  0  0  0  0
  -22.5405  -28.3165   28.4657 O   0  0  0  0  0  0  0  0  0  0  0  0
  -24.7221  -27.6323   24.3072 O   0  0  0  0  0  0  0  0  0  0  0  0
  -31.8628  -14.8392   20.3170 O   0  0  0  0  0  0  0  0  0  0  0  0
  -21.4654   -7.1159   21.8373 O   0  0  0  0  0  0  0  0  0  0  0  0
  -25.1750  -20.9109   25.2916 O   0  0  0  0  0  0  0  0  0  1  0  0
  -23.7560   -3.1818   24.9486 F   0  0  0  0  0  0  0  0  0  0  0  0
  -20.3298   -6.3712   24.2454 F   0  0  0  0  0  0  0  0  0  0  0  0
  1  2  1  0  0  0  0
  1  5  2  0  0  0  0
  2  6  2  0  0  0  0
  3  8  2  0  0  0  0
  3 16  1  0  0  0  0
  4  9  1  0  0  0  0
  4 16  2  0  0  0  0
  5 18  1  0  0  0  0
  6 20  1  0  0  0  0
  7 10  2  0  0  0  0
  7 19  1  0  0  0  0
  8 24  1  0  0  0  0
  9 24  2  0  0  0  0
 10 25  1  0  0  0  0
 11 12  2  0  0  0  0
 11 26  1  0  0  0  0
 12 27  1  0  0  0  0
 13 21  1  0  0  0  0
 13 23  2  0  0  0  0
 14 22  1  0  0  0  0
 14 25  2  0  0  0  0
 15 27  2  0  0  0  0
 15 28  1  0  0  0  0
 16 29  1  0  0  0  0
 17 29  1  0  0  0  0
 17 32  2  0  0  0  0
 17 33  1  0  0  0  0
 18 20  2  0  0  0  0
 18 38  1  0  0  0  0
 19 22  2  0  0  0  0
 19 39  1  0  0  0  0
 20 54  1  0  0  0  0
 21 30  2  0  0  0  0
 21 53  1  0  0  0  0
 22 40  1  0  0  0  0
 23 31  1  0  0  0  0
 23 67  1  0  0  0  0
 24 88  1  0  0  0  0
 25 89  1  0  0  0  0
 26 28  2  0  0  0  0
 26 88  1  0  0  0  0
 27 90  1  0  0  0  0
 28 91  1  0  0  0  0
 29 72  2  0  0  0  0
 30 55  1  0  0  0  0
 30 73  1  0  0  0  0
 31 56  1  0  0  0  0
 31 73  2  0  0  0  0
 32 74  1  0  0  0  0
 32 77  1  0  0  0  0
 33 78  1  0  0  0  0
 33 83  2  0  0  0  0
 34 57  1  0  0  0  0
 34 79  1  0  0  0  0
 34 84  2  0  0  0  0
 35 69  1  0  0  0  0
 35 75  1  0  0  0  0
 35 85  2  0  0  0  0
 36 70  1  0  0  0  0
 36 80  1  0  0  0  0
 36 86  2  0  0  0  0
 37 76  1  0  0  0  0
 37 81  1  0  0  0  0
 37 87  2  0  0  0  0
 38 41  1  0  0  0  0
 39 57  1  0  0  0  0
 40 75  1  0  0  0  0
 41 44  1  0  0  0  0
 42 49  1  0  0  0  0
 42 51  1  0  0  0  0
 43 50  1  0  0  0  0
 43 53  1  0  0  0  0
 44 54  1  0  0  0  0
 45 46  1  0  0  0  0
 45 55  1  0  0  0  0
 46 55  1  0  0  0  0
 47 48  1  0  0  0  0
 47 56  1  0  0  0  0
 48 56  1  0  0  0  0
 49 59  1  0  0  0  0
 50 60  1  0  0  0  0
 51 76  1  0  0  0  0
 52 59  1  0  0  0  0
 52 76  1  0  0  0  0
 53 58  1  0  0  0  0
 54 79  1  0  0  0  0
 57 75  1  0  0  0  0
 58 60  1  0  0  0  0
 58 61  1  0  0  0  0
 59 74  1  0  0  0  0
 60 89  1  0  0  0  0
 62 70  1  0  0  0  0
 63 71  1  0  0  0  0
 64 71  1  0  0  0  0
 65 71  1  0  0  0  0
 66 82  1  0  0  0  0
 67 68  1  0  0  0  0
 68 81  1  0  0  0  0
 69 71  1  0  0  0  0
 69 80  1  0  0  0  0
 70 82  1  0  0  0  0
 72 74  1  0  0  0  0
M  CHG  1  82   1
M  ISO  4  37 100  60 101  81 100  89 101
M  END
> <Batch ID>
0169

> <Smiles>
CNC(C)C(=O)NC(C(=O)N1Cc2cc([101O:1][101CH:1]3CCC(c4cc(CC[100NH:0][100C:0](=O)N5CCCC(n6nc(-c7ccc(Oc8ccc(F)cc8F)cc7)c(C(N)=O)c6N)C5)c(C5CC5)nc4C4CC4)C3C)ccc2CC1C(=O)NC1CCCc2ccccc21)C(C)(C)C

> <Shape>
0.224

> <Color>
0.197

> <Negative vol penalty>
0.000

$$$$

  -OEChem-04052322323D

 89 99  0     1  0  0  0  0  0999 V2000
  -20.5468  -28.7723   14.7449 C   0  0  0  0  0  0  0  0  0  0  0  0
  -21.8440  -28.5708   15.2053 C   0  0  0  0  0  0  0  0  0  0  0  0
  -26.0457   -8.8361   22.9328 C   0  0  0  0  0  0  0  0  0  0  0  0
  -24.2739   -8.4193   21.3441 C   0  0  0  0  0  0  0  0  0  0  0  0
  -19.8795  -29.9600   15.0417 C   0  0  0  0  0  0  0  0  0  0  0  0
  -22.4752  -29.5575   15.9619 C   0  0  0  0  0  0  0  0  0  0  0  0
  -24.8770  -27.6696   20.0007 C   0  0  0  0  0  0  0  0  0  0  0  0
  -25.4129   -8.0045   23.8567 C   0  0  0  0  0  0  0  0  0  0  0  0
  -23.6411   -7.5877   22.2680 C   0  0  0  0  0  0  0  0  0  0  0  0
  -26.1111  -27.0595   19.7800 C   0  0  0  0  0  0  0  0  0  0  0  0
  -21.7038   -7.9370   25.0168 C   0  0  0  0  0  0  0  0  0  0  0  0
  -20.3274   -8.0860   25.1865 C   0  0  0  0  0  0  0  0  0  0  0  0
  -27.2282  -29.0669   20.5160 C   0  0  0  0  0  0  0  0  0  0  0  0
  -30.6488  -22.7432   20.0285 C   0  0  0  0  0  0  0  0  0  0  0  0
  -19.9954   -5.7910   24.5083 C   0  0  0  0  0  0  0  0  0  0  0  0
  -25.4762   -9.0436   21.6765 C   0  0  0  0  0  0  0  0  0  0  0  0
  -27.0828   -9.5304   19.7557 C   0  0  0  0  0  0  0  0  0  0  0  0
  -20.4993  -30.9577   15.8105 C   0  0  0  0  0  0  0  0  0  0  0  0
  -24.8092  -28.9888   20.4712 C   0  0  0  0  0  0  0  0  0  0  0  0
  -21.8161  -30.7602   16.2682 C   0  0  0  0  0  0  0  0  0  0  0  0
  -25.9920  -29.6905   20.7443 C   0  0  0  0  0  0  0  0  0  0  0  0
  -30.2615  -23.9271   20.6462 C   0  0  0  0  0  0  0  0  0  0  0  0
  -30.2217  -23.9999   22.0342 C   0  0  0  0  0  0  0  0  0  0  0  0
  -24.2106   -7.3803   23.5243 C   0  0  0  0  0  0  0  0  0  0  0  0
  -27.2869  -27.7592   20.0349 C   0  0  0  0  0  0  0  0  0  0  0  0
  -22.2261   -6.7151   24.5928 C   0  0  0  0  0  0  0  0  0  0  0  0
  -19.4732   -7.0130   24.9323 C   0  0  0  0  0  0  0  0  0  0  0  0
  -21.3719   -5.6421   24.3386 C   0  0  0  0  0  0  0  0  0  0  0  0
  -26.1291   -9.9029   20.7219 C   0  0  0  0  0  0  0  0  0  0  0  0
  -30.9838  -21.6692   20.8372 C   0  0  0  0  0  0  0  0  0  0  0  0
  -30.5756  -22.8695   22.7531 C   0  0  0  0  0  0  0  0  0  0  0  0
  -27.3888  -10.7012   19.1061 C   0  0  0  0  0  0  0  0  0  0  0  0
  -27.6420   -8.2413   19.4709 C   0  0  0  0  0  0  0  0  0  0  0  0
  -23.6392  -31.7177   19.3362 C   0  0  0  0  0  0  0  0  0  0  0  0
  -24.4363  -32.8304   22.2770 C   0  0  0  0  0  0  0  0  0  0  0  0
  -26.3716  -32.5093   25.0696 C   0  0  0  0  0  0  0  0  0  0  0  0
  -28.6190  -15.9257   18.9977 C   0  0  0  0  0  0  0  0  0  0  0  0
  -19.7553  -32.2446   16.0657 C   0  0  0  0  0  0  0  0  0  0  0  0
  -23.4701  -29.6234   20.7295 C   0  0  0  0  0  0  0  0  0  0  0  0
  -25.9735  -31.1020   21.2696 C   0  0  0  0  0  0  0  0  0  0  0  0
  -20.3577  -33.0837   17.1897 C   0  0  0  0  0  0  0  0  0  0  0  0
  -25.1832  -15.2428   19.2670 C   0  0  0  0  0  0  0  0  0  0  0  0
  -21.8716  -33.1813   17.0306 C   0  0  0  0  0  0  0  0  0  0  0  0
  -25.1957  -13.7502   19.5957 C   0  0  0  0  0  0  0  0  0  0  0  0
  -28.8277  -24.9412   18.7510 C   0  0  0  0  0  0  0  0  0  0  0  0
  -26.2919  -16.0006   19.9996 C   0  0  0  0  0  0  0  0  0  0  0  0
  -28.2526  -18.2051   20.0439 C   0  0  0  0  0  0  0  0  0  0  0  0
  -29.4997  -17.9770   17.9271 C   0  0  0  0  0  0  0  0  0  0  0  0
  -27.6558  -13.9406   20.1230 C   0  0  0  0  0  0  0  0  0  0  0  0
  -29.4463  -18.9079   20.6824 C   0  0  0  0  0  0  0  0  0  0  0  0
  -30.7171  -18.6512   18.5385 C   0  0  0  0  0  0  0  0  0  0  0  0
  -29.8947  -25.1018   19.8015 C   0  0  1  0  0  0  0  0  0  0  0  0
  -22.5253  -31.7966   17.1127 C   0  0  1  0  0  0  0  0  0  0  0  0
  -23.5200  -31.1481   20.7215 C   0  0  1  0  0  0  0  0  0  0  0  0
  -26.5895  -13.1435   19.3558 C   0  0  1  0  0  0  0  0  0  0  0  0
  -28.5403  -25.7386   19.9863 C   0  0  1  0  0  0  0  0  0  1  0  0
  -29.8085  -25.2618   22.7175 C   0  0  0  0  0  0  0  0  0  0  0  0
  -26.8229  -33.5909   27.2886 C   0  0  0  0  0  0  0  0  0  0  0  0
  -26.0063  -35.0410   20.8776 C   0  0  0  0  0  0  0  0  0  0  0  0
  -27.1745  -35.4884   23.0463 C   0  0  0  0  0  0  0  0  0  0  0  0
  -24.7043  -35.7913   22.8766 C   0  0  0  0  0  0  0  0  0  0  0  0
  -31.4033  -22.1658   24.9993 C   0  0  0  0  0  0  0  0  0  0  0  0
  -25.5618  -30.0780   26.5501 C   0  0  0  0  0  0  0  0  0  0  0  0
  -31.4065  -20.3758   20.2051 C   0  0  0  0  0  0  0  0  0  0  0  0
  -25.6687  -33.4543   22.8862 C   0  0  1  0  0  0  0  0  0  0  0  0
  -26.0209  -32.5332   26.5464 C   0  0  2  0  0  0  0  0  0  0  0  0
  -25.8892  -34.9178   22.4099 C   0  0  0  0  0  0  0  0  0  0  0  0
  -25.8479  -11.2083   20.6923 N   0  0  0  0  0  0  0  0  0  0  0  0
  -30.9571  -21.7019   22.1885 N   0  0  0  0  0  0  0  0  0  0  0  0
  -26.6296  -11.6663   19.6997 N   0  0  0  0  0  0  0  0  0  0  0  0
  -24.6397  -31.6811   21.5001 N   0  0  0  0  0  0  0  0  0  0  0  0
  -27.5960  -15.3617   19.7744 N   0  0  0  0  0  0  0  0  0  0  0  0
  -28.6845  -17.3261   18.9504 N   0  0  0  0  0  0  0  0  0  0  0  0
  -28.2306  -10.9890   18.0907 N   0  0  0  0  0  0  0  0  0  0  0  0
  -27.2168   -7.1452   20.2338 N   0  0  0  0  0  0  0  0  0  0  0  0
  -30.5371  -22.9364   24.1684 N   0  0  0  0  0  0  0  0  0  0  0  0
  -22.6084  -31.3577   18.4892 N   0  0  0  0  0  0  0  0  0  0  0  0
  -25.5271  -33.3110   24.3311 N   0  0  0  0  0  0  0  0  0  0  0  0
  -30.2581  -19.6047   19.6170 N   0  3  0  0  0  0  0  0  0  0  0  0
  -26.3028  -31.2080   27.1672 N   0  3  0  0  0  0  0  0  0  0  0  0
  -28.5057   -8.0695   18.5776 O   0  0  0  0  0  0  0  0  0  0  0  0
  -24.5948  -32.4321   19.0568 O   0  0  0  0  0  0  0  0  0  0  0  0
  -23.3330  -33.3398   22.4889 O   0  0  0  0  0  0  0  0  0  0  0  0
  -27.3040  -31.8487   24.6170 O   0  0  0  0  0  0  0  0  0  0  0  0
  -29.4276  -15.2189   18.3826 O   0  0  0  0  0  0  0  0  0  0  0  0
  -23.5929   -6.5686   24.4255 O   0  0  0  0  0  0  0  0  0  0  0  0
  -28.4953  -27.1651   19.8193 O   0  0  0  0  0  0  0  0  0  1  0  0
  -18.1515   -7.1557   25.0967 F   0  0  0  0  0  0  0  0  0  0  0  0
  -21.8679   -4.4654   23.9322 F   0  0  0  0  0  0  0  0  0  0  0  0
  1  2  1  0  0  0  0
  1  5  2  0  0  0  0
  2  6  2  0  0  0  0
  3  8  2  0  0  0  0
  3 16  1  0  0  0  0
  4  9  1  0  0  0  0
  4 16  2  0  0  0  0
  5 18  1  0  0  0  0
  6 20  1  0  0  0  0
  7 10  2  0  0  0  0
  7 19  1  0  0  0  0
  8 24  1  0  0  0  0
  9 24  2  0  0  0  0
 10 25  1  0  0  0  0
 11 12  2  0  0  0  0
 11 26  1  0  0  0  0
 12 27  1  0  0  0  0
 13 21  1  0  0  0  0
 13 25  2  0  0  0  0
 14 22  2  0  0  0  0
 14 30  1  0  0  0  0
 15 27  2  0  0  0  0
 15 28  1  0  0  0  0
 16 29  1  0  0  0  0
 17 29  1  0  0  0  0
 17 32  2  0  0  0  0
 17 33  1  0  0  0  0
 18 20  2  0  0  0  0
 18 38  1  0  0  0  0
 19 21  2  0  0  0  0
 19 39  1  0  0  0  0
 20 53  1  0  0  0  0
 21 40  1  0  0  0  0
 22 23  1  0  0  0  0
 22 52  1  0  0  0  0
 23 31  2  0  0  0  0
 23 57  1  0  0  0  0
 24 86  1  0  0  0  0
 25 87  1  0  0  0  0
 26 28  2  0  0  0  0
 26 86  1  0  0  0  0
 27 88  1  0  0  0  0
 28 89  1  0  0  0  0
 29 68  2  0  0  0  0
 30 64  1  0  0  0  0
 30 69  2  0  0  0  0
 31 69  1  0  0  0  0
 31 76  1  0  0  0  0
 32 70  1  0  0  0  0
 32 74  1  0  0  0  0
 33 75  1  0  0  0  0
 33 81  2  0  0  0  0
 34 54  1  0  0  0  0
 34 77  1  0  0  0  0
 34 82  2  0  0  0  0
 35 65  1  0  0  0  0
 35 71  1  0  0  0  0
 35 83  2  0  0  0  0
 36 66  1  0  0  0  0
 36 78  1  0  0  0  0
 36 84  2  0  0  0  0
 37 72  1  0  0  0  0
 37 73  1  0  0  0  0
 37 85  2  0  0  0  0
 38 41  1  0  0  0  0
 39 54  1  0  0  0  0
 40 71  1  0  0  0  0
 41 43  1  0  0  0  0
 42 44  1  0  0  0  0
 42 46  1  0  0  0  0
 43 53  1  0  0  0  0
 44 55  1  0  0  0  0
 45 52  1  0  0  0  0
 45 56  1  0  0  0  0
 46 72  1  0  0  0  0
 47 50  1  0  0  0  0
 47 73  1  0  0  0  0
 48 51  1  0  0  0  0
 48 73  1  0  0  0  0
 49 55  1  0  0  0  0
 49 72  1  0  0  0  0
 50 79  1  0  0  0  0
 51 79  1  0  0  0  0
 52 56  1  0  0  0  0
 53 77  1  0  0  0  0
 54 71  1  0  0  0  0
 55 70  1  0  0  0  0
 56 87  1  0  0  0  0
 58 66  1  0  0  0  0
 59 67  1  0  0  0  0
 60 67  1  0  0  0  0
 61 67  1  0  0  0  0
 62 76  1  0  0  0  0
 63 80  1  0  0  0  0
 64 79  1  0  0  0  0
 65 67  1  0  0  0  0
 65 78  1  0  0  0  0
 66 80  1  0  0  0  0
 68 70  1  0  0  0  0
M  CHG  2  79   1  80   1
M  ISO  4  37 100  56 101  73 100  87 101
M  END
> <Batch ID>
0169

> <Smiles>
CNc1nc(CN2CC[100N:0]([100C:0](=O)N3CCCC(n4nc(-c5ccc(Oc6ccc(F)cc6F)cc5)c(C(N)=O)c4N)C3)CC2)cc(C2C[101CH:1]2[101O:1]c2ccc3c(c2)CN(C(=O)C(NC(=O)C(C)NC)C(C)(C)C)C(C(=O)NC2CCCc4ccccc42)C3)c1C

> <Shape>
0.272

> <Color>
0.079

> <Negative vol penalty>
0.000

$$$$

  -OEChem-04052322323D

 88 98  0     1  0  0  0  0  0999 V2000
  -26.6470  -38.4726   22.9218 C   0  0  0  0  0  0  0  0  0  0  0  0
  -27.2818  -37.5399   22.1079 C   0  0  0  0  0  0  0  0  0  0  0  0
  -24.5219  -10.1761   23.1477 C   0  0  0  0  0  0  0  0  0  0  0  0
  -24.4808   -8.6576   21.2690 C   0  0  0  0  0  0  0  0  0  0  0  0
  -25.9117  -38.0459   24.0268 C   0  0  0  0  0  0  0  0  0  0  0  0
  -27.1826  -36.1799   22.3992 C   0  0  0  0  0  0  0  0  0  0  0  0
  -26.9190  -29.7856   19.1805 C   0  0  0  0  0  0  0  0  0  0  0  0
  -23.3742   -9.5721   23.6610 C   0  0  0  0  0  0  0  0  0  0  0  0
  -23.3331   -8.0535   21.7824 C   0  0  0  0  0  0  0  0  0  0  0  0
  -27.5404  -28.5380   19.2110 C   0  0  0  0  0  0  0  0  0  0  0  0
  -22.5660   -5.8073   24.1879 C   0  0  0  0  0  0  0  0  0  0  0  0
  -22.5160   -4.4134   24.1927 C   0  0  0  0  0  0  0  0  0  0  0  0
  -26.1776  -27.9121   21.1005 C   0  0  0  0  0  0  0  0  0  0  0  0
  -30.6417  -23.1218   20.5563 C   0  0  0  0  0  0  0  0  0  0  0  0
  -20.5510   -4.4791   22.7886 C   0  0  0  0  0  0  0  0  0  0  0  0
  -25.0752   -9.7189   21.9517 C   0  0  0  0  0  0  0  0  0  0  0  0
  -27.5975   -9.9862   21.6794 C   0  0  0  0  0  0  0  0  0  0  0  0
  -25.7954  -36.6794   24.3263 C   0  0  0  0  0  0  0  0  0  0  0  0
  -25.9282  -30.1104   20.1181 C   0  0  0  0  0  0  0  0  0  0  0  0
  -26.4461  -35.7345   23.5101 C   0  0  0  0  0  0  0  0  0  0  0  0
  -25.5433  -29.1637   21.0781 C   0  0  0  0  0  0  0  0  0  0  0  0
  -30.1690  -24.4230   20.4265 C   0  0  0  0  0  0  0  0  0  0  0  0
  -29.3031  -24.7416   19.3863 C   0  0  0  0  0  0  0  0  0  0  0  0
  -22.7798   -8.5108   22.9784 C   0  0  0  0  0  0  0  0  0  0  0  0
  -27.1718  -27.6021   20.1729 C   0  0  0  0  0  0  0  0  0  0  0  0
  -21.6085   -6.5372   23.4836 C   0  0  0  0  0  0  0  0  0  0  0  0
  -21.5085   -3.7493   23.4930 C   0  0  0  0  0  0  0  0  0  0  0  0
  -20.6010   -5.8731   22.7839 C   0  0  0  0  0  0  0  0  0  0  0  0
  -26.2605  -10.3428   21.4206 C   0  0  0  0  0  0  0  0  0  0  0  0
  -28.9429  -23.7310   18.5096 C   0  0  0  0  0  0  0  0  0  0  0  0
  -30.2214  -22.1836   19.6274 C   0  0  0  0  0  0  0  0  0  0  0  0
  -28.3392  -10.8767   20.9422 C   0  0  0  0  0  0  0  0  0  0  0  0
  -28.1222   -8.9432   22.5115 C   0  0  0  0  0  0  0  0  0  0  0  0
  -25.6288  -32.3079   22.3953 C   0  0  0  0  0  0  0  0  0  0  0  0
  -22.6293  -31.0953   22.6291 C   0  0  0  0  0  0  0  0  0  0  0  0
  -20.5236  -28.4569   22.1273 C   0  0  0  0  0  0  0  0  0  0  0  0
  -29.5002  -15.8035   19.1576 C   0  0  0  0  0  0  0  0  0  0  0  0
  -25.0289  -36.2690   25.5587 C   0  0  0  0  0  0  0  0  0  0  0  0
  -25.2486  -31.4508   20.0550 C   0  0  0  0  0  0  0  0  0  0  0  0
  -24.4708  -29.4557   22.0944 C   0  0  0  0  0  0  0  0  0  0  0  0
  -24.6625  -34.7872   25.5829 C   0  0  0  0  0  0  0  0  0  0  0  0
  -26.9538  -14.1724   17.3731 C   0  0  0  0  0  0  0  0  0  0  0  0
  -25.8679  -33.9330   25.2031 C   0  0  0  0  0  0  0  0  0  0  0  0
  -26.5302  -23.9750   17.6191 C   0  0  0  0  0  0  0  0  0  0  0  0
  -27.1877  -22.9082   16.8006 C   0  0  0  0  0  0  0  0  0  0  0  0
  -26.6478  -12.9907   18.2929 C   0  0  0  0  0  0  0  0  0  0  0  0
  -28.9563  -19.2800   19.2388 C   0  0  0  0  0  0  0  0  0  0  0  0
  -31.3975  -18.6971   18.9769 C   0  0  0  0  0  0  0  0  0  0  0  0
  -27.1961  -15.4625   18.1587 C   0  0  0  0  0  0  0  0  0  0  0  0
  -28.5905  -18.0474   18.4067 C   0  0  0  0  0  0  0  0  0  0  0  0
  -30.9861  -17.4965   18.1293 C   0  0  0  0  0  0  0  0  0  0  0  0
  -27.9248  -14.1578   20.1298 C   0  0  0  0  0  0  0  0  0  0  0  0
  -26.3413  -34.2490   23.7791 C   0  0  1  0  0  0  0  0  0  0  0  0
  -28.0141  -24.0260   17.3762 C   0  0  0  0  0  0  0  0  0  0  0  0
  -24.6146  -31.8623   21.3802 C   0  0  1  0  0  0  0  0  0  0  0  0
  -27.7343  -12.8348   19.3719 C   0  0  1  0  0  0  0  0  0  0  0  0
  -30.3478  -19.8073   18.8810 C   0  0  0  0  0  0  0  0  0  0  0  0
  -30.6039  -25.4564   21.4125 C   0  0  0  0  0  0  0  0  0  0  0  0
  -18.1374  -27.7514   22.4528 C   0  0  0  0  0  0  0  0  0  0  0  0
  -23.1525  -30.7093   25.6103 C   0  0  0  0  0  0  0  0  0  0  0  0
  -21.1765  -29.1739   25.6873 C   0  0  0  0  0  0  0  0  0  0  0  0
  -20.8701  -31.5672   25.0542 C   0  0  0  0  0  0  0  0  0  0  0  0
  -20.1230  -28.0604   19.2219 C   0  0  0  0  0  0  0  0  0  0  0  0
  -28.7816  -26.1305   19.2249 C   0  0  0  0  0  0  0  0  0  1  0  0
  -21.9833  -29.9868   23.4247 C   0  0  1  0  0  0  0  0  0  0  0  0
  -19.1444  -28.3743   21.4984 C   0  0  2  0  0  0  0  0  0  0  0  0
  -21.8172  -30.3542   24.9263 C   0  0  0  0  0  0  0  0  0  0  0  0
  -26.1558  -11.3791   20.5845 N   0  0  0  0  0  0  0  0  0  0  0  0
  -29.3813  -22.4556   18.6037 N   0  0  0  0  0  0  0  0  0  0  0  0
  -27.4364  -11.6815   20.3116 N   0  0  0  0  0  0  0  0  0  0  0  0
  -23.8404  -30.7825   21.9957 N   0  0  0  0  0  0  0  0  0  0  0  0
  -28.2101  -15.2540   19.2016 N   0  0  0  0  0  0  0  0  0  0  0  0
  -29.6475  -17.0294   18.4917 N   0  0  0  0  0  0  0  0  0  0  0  0
  -29.6689  -11.0422   20.7785 N   0  0  0  0  0  0  0  0  0  0  0  0
  -27.2203   -8.1191   23.1984 N   0  0  0  0  0  0  0  0  0  0  0  0
  -30.6985  -20.8928   19.7702 N   0  0  0  0  0  0  0  0  0  0  0  0
  -25.4749  -33.6180   22.8068 N   0  0  0  0  0  0  0  0  0  0  0  0
  -20.7315  -29.6723   22.7445 N   0  0  0  0  0  0  0  0  0  0  0  0
  -19.1892  -27.5493   20.2582 N   0  3  0  0  0  0  0  0  0  0  0  0
  -29.3546   -8.7582   22.6551 O   0  0  0  0  0  0  0  0  0  0  0  0
  -26.4866  -31.5208   22.7780 O   0  0  0  0  0  0  0  0  0  0  0  0
  -22.0760  -32.1960   22.5659 O   0  0  0  0  0  0  0  0  0  0  0  0
  -21.3339  -27.5341   22.0793 O   0  0  0  0  0  0  0  0  0  0  0  0
  -30.4642  -15.2325   19.6827 O   0  0  0  0  0  0  0  0  0  0  0  0
  -21.6600   -7.9210   23.4791 O   0  0  0  0  0  0  0  0  0  0  0  0
  -27.7815  -26.3753   20.2056 O   0  0  0  0  0  0  0  0  0  1  0  0
  -21.4615   -2.4107   23.4964 F   0  0  0  0  0  0  0  0  0  0  0  0
  -19.6790   -6.5688   22.1043 F   0  0  0  0  0  0  0  0  0  0  0  0
  1  2  1  0  0  0  0
  1  5  2  0  0  0  0
  2  6  2  0  0  0  0
  3  8  2  0  0  0  0
  3 16  1  0  0  0  0
  4  9  1  0  0  0  0
  4 16  2  0  0  0  0
  5 18  1  0  0  0  0
  6 20  1  0  0  0  0
  7 10  2  0  0  0  0
  7 19  1  0  0  0  0
  8 24  1  0  0  0  0
  9 24  2  0  0  0  0
 10 25  1  0  0  0  0
 11 12  2  0  0  0  0
 11 26  1  0  0  0  0
 12 27  1  0  0  0  0
 13 21  1  0  0  0  0
 13 25  2  0  0  0  0
 14 22  2  0  0  0  0
 14 31  1  0  0  0  0
 15 27  2  0  0  0  0
 15 28  1  0  0  0  0
 16 29  1  0  0  0  0
 17 29  1  0  0  0  0
 17 32  2  0  0  0  0
 17 33  1  0  0  0  0
 18 20  2  0  0  0  0
 18 38  1  0  0  0  0
 19 21  2  0  0  0  0
 19 39  1  0  0  0  0
 20 53  1  0  0  0  0
 21 40  1  0  0  0  0
 22 23  1  0  0  0  0
 22 58  1  0  0  0  0
 23 30  2  0  0  0  0
 23 64  1  0  0  0  0
 24 85  1  0  0  0  0
 25 86  1  0  0  0  0
 26 28  2  0  0  0  0
 26 85  1  0  0  0  0
 27 87  1  0  0  0  0
 28 88  1  0  0  0  0
 29 68  2  0  0  0  0
 30 54  1  0  0  0  0
 30 69  1  0  0  0  0
 31 69  2  0  0  0  0
 31 76  1  0  0  0  0
 32 70  1  0  0  0  0
 32 74  1  0  0  0  0
 33 75  1  0  0  0  0
 33 80  2  0  0  0  0
 34 55  1  0  0  0  0
 34 77  1  0  0  0  0
 34 81  2  0  0  0  0
 35 65  1  0  0  0  0
 35 71  1  0  0  0  0
 35 82  2  0  0  0  0
 36 66  1  0  0  0  0
 36 78  1  0  0  0  0
 36 83  2  0  0  0  0
 37 72  1  0  0  0  0
 37 73  1  0  0  0  0
 37 84  2  0  0  0  0
 38 41  1  0  0  0  0
 39 55  1  0  0  0  0
 40 71  1  0  0  0  0
 41 43  1  0  0  0  0
 42 46  1  0  0  0  0
 42 49  1  0  0  0  0
 43 53  1  0  0  0  0
 44 45  1  0  0  0  0
 44 54  1  0  0  0  0
 45 54  1  0  0  0  0
 46 56  1  0  0  0  0
 47 50  1  0  0  0  0
 47 57  1  0  0  0  0
 48 51  1  0  0  0  0
 48 57  1  0  0  0  0
 49 72  1  0  0  0  0
 50 73  1  0  0  0  0
 51 73  1  0  0  0  0
 52 56  1  0  0  0  0
 52 72  1  0  0  0  0
 53 77  1  0  0  0  0
 55 71  1  0  0  0  0
 56 70  1  0  0  0  0
 57 76  1  0  0  0  0
 59 66  1  0  0  0  0
 60 67  1  0  0  0  0
 61 67  1  0  0  0  0
 62 67  1  0  0  0  0
 63 79  1  0  0  0  0
 64 86  1  0  0  0  0
 65 67  1  0  0  0  0
 65 78  1  0  0  0  0
 66 79  1  0  0  0  0
 68 70  1  0  0  0  0
M  CHG  1  79   1
M  ISO  4  37 100  64 101  73 100  86 101
M  END
> <Batch ID>
0169

> <Smiles>
CNC(C)C(=O)NC(C(=O)N1Cc2cc([101O:1][101CH2:1]c3c(C)cc(NC4CC[100N:0]([100C:0](=O)N5CCCC(n6nc(-c7ccc(Oc8ccc(F)cc8F)cc7)c(C(N)=O)c6N)C5)CC4)nc3C3CC3)ccc2CC1C(=O)NC1CCCc2ccccc21)C(C)(C)C

> <Shape>
0.329

> <Color>
0.104

> <Negative vol penalty>
0.000

$$$$

  -OEChem-04052322323D

 86 95  0     1  0  0  0  0  0999 V2000
  -29.3624  -36.6190   23.8827 C   0  0  0  0  0  0  0  0  0  0  0  0
  -29.6805  -35.5561   23.0434 C   0  0  0  0  0  0  0  0  0  0  0  0
  -24.6507   -8.5871   21.3357 C   0  0  0  0  0  0  0  0  0  0  0  0
  -23.3180  -10.5651   21.7214 C   0  0  0  0  0  0  0  0  0  0  0  0
  -28.3886  -36.4606   24.8679 C   0  0  0  0  0  0  0  0  0  0  0  0
  -29.0256  -34.3337   23.1896 C   0  0  0  0  0  0  0  0  0  0  0  0
  -26.6994  -28.7521   19.3488 C   0  0  0  0  0  0  0  0  0  0  0  0
  -23.9503   -7.9193   22.3402 C   0  0  0  0  0  0  0  0  0  0  0  0
  -22.6175   -9.8973   22.7258 C   0  0  0  0  0  0  0  0  0  0  0  0
  -26.7786  -27.3606   19.3142 C   0  0  0  0  0  0  0  0  0  0  0  0
  -20.9590   -6.3826   22.6915 C   0  0  0  0  0  0  0  0  0  0  0  0
  -20.5317   -5.0811   22.4284 C   0  0  0  0  0  0  0  0  0  0  0  0
  -25.0576  -27.2268   20.9992 C   0  0  0  0  0  0  0  0  0  0  0  0
  -26.2727  -22.4676   18.2500 C   0  0  0  0  0  0  0  0  0  0  0  0
  -21.8406   -4.2747   24.2922 C   0  0  0  0  0  0  0  0  0  0  0  0
  -24.3346   -9.9101   21.0264 C   0  0  0  0  0  0  0  0  0  0  0  0
  -24.7382  -10.6524   18.6193 C   0  0  0  0  0  0  0  0  0  0  0  0
  -27.7147  -35.2386   25.0199 C   0  0  0  0  0  0  0  0  0  0  0  0
  -25.8049  -29.3927   20.2182 C   0  0  0  0  0  0  0  0  0  0  0  0
  -28.0429  -34.1584   24.1786 C   0  0  0  0  0  0  0  0  0  0  0  0
  -24.9671  -28.6265   21.0411 C   0  0  0  0  0  0  0  0  0  0  0  0
  -26.1981  -21.0808   18.3184 C   0  0  0  0  0  0  0  0  0  0  0  0
  -26.8932  -23.1761   19.2728 C   0  0  0  0  0  0  0  0  0  0  0  0
  -22.9336   -8.5743   23.0352 C   0  0  0  0  0  0  0  0  0  0  0  0
  -25.9597  -26.5978   20.1415 C   0  0  0  0  0  0  0  0  0  0  0  0
  -21.8271   -6.6301   23.7549 C   0  0  0  0  0  0  0  0  0  0  0  0
  -20.9725   -4.0272   23.2288 C   0  0  0  0  0  0  0  0  0  0  0  0
  -22.2679   -5.5762   24.5552 C   0  0  0  0  0  0  0  0  0  0  0  0
  -25.0582  -10.6007   19.9893 C   0  0  0  0  0  0  0  0  0  0  0  0
  -26.7551  -20.4550   19.4220 C   0  0  0  0  0  0  0  0  0  0  0  0
  -27.4189  -22.4566   20.3338 C   0  0  0  0  0  0  0  0  0  0  0  0
  -25.7270  -11.4277   18.0647 C   0  0  0  0  0  0  0  0  0  0  0  0
  -23.6448  -10.0532   17.9114 C   0  0  0  0  0  0  0  0  0  0  0  0
  -26.1035  -31.4028   22.6624 C   0  0  0  0  0  0  0  0  0  0  0  0
  -22.8646  -31.4699   22.4981 C   0  0  0  0  0  0  0  0  0  0  0  0
  -19.9791  -29.9151   21.5476 C   0  0  0  0  0  0  0  0  0  0  0  0
  -28.9965  -16.0298   19.3334 C   0  0  0  0  0  0  0  0  0  0  0  0
  -26.7031  -35.1007   26.1300 C   0  0  0  0  0  0  0  0  0  0  0  0
  -25.7127  -30.8940   20.2243 C   0  0  0  0  0  0  0  0  0  0  0  0
  -23.9756  -29.2652   21.9777 C   0  0  0  0  0  0  0  0  0  0  0  0
  -25.7901  -33.8871   25.9748 C   0  0  0  0  0  0  0  0  0  0  0  0
  -30.2906  -12.7424   19.3676 C   0  0  0  0  0  0  0  0  0  0  0  0
  -26.6060  -32.6464   25.6260 C   0  0  0  0  0  0  0  0  0  0  0  0
  -29.0531  -11.8515   19.4337 C   0  0  0  0  0  0  0  0  0  0  0  0
  -26.7058  -18.3753   20.9782 C   0  0  0  0  0  0  0  0  0  0  0  0
  -30.0980  -13.9988   20.2063 C   0  0  0  0  0  0  0  0  0  0  0  0
  -27.0574  -16.9101   20.7579 C   0  0  0  0  0  0  0  0  0  0  0  0
  -27.9004  -18.2137   18.9325 C   0  0  0  0  0  0  0  0  0  0  0  0
  -27.6459  -13.9365   19.8406 C   0  0  0  0  0  0  0  0  0  0  0  0
  -27.3370  -32.8244   24.2898 C   0  0  1  0  0  0  0  0  0  0  0  0
  -26.7033  -18.9488   19.5519 C   0  0  2  0  0  0  0  0  0  0  0  0
  -25.1297  -31.4516   21.5192 C   0  0  1  0  0  0  0  0  0  0  0  0
  -27.7978  -12.6369   19.0233 C   0  0  2  0  0  0  0  0  0  0  0  0
  -28.0977  -23.1656   21.4597 C   0  0  0  0  0  0  0  0  0  0  0  0
  -24.0676  -20.7115   17.0079 C   0  0  0  0  0  0  0  0  0  0  0  0
  -17.4859  -30.1983   21.5804 C   0  0  0  0  0  0  0  0  0  0  0  0
  -22.8241  -30.7486   25.4626 C   0  0  0  0  0  0  0  0  0  0  0  0
  -20.4138  -30.1219   25.2057 C   0  0  0  0  0  0  0  0  0  0  0  0
  -21.1417  -32.4704   24.7848 C   0  0  0  0  0  0  0  0  0  0  0  0
  -19.8183  -29.8667   18.5928 C   0  0  0  0  0  0  0  0  0  0  0  0
  -26.9762  -24.6620   19.2058 C   0  0  0  0  0  0  0  0  0  1  0  0
  -25.5347  -20.3159   17.2257 C   0  0  1  0  0  0  0  0  0  0  0  0
  -21.7458  -30.6679   23.1180 C   0  0  1  0  0  0  0  0  0  0  0  0
  -18.7653  -30.4207   20.7889 C   0  0  2  0  0  0  0  0  0  0  0  0
  -21.5513  -30.9899   24.6266 C   0  0  0  0  0  0  0  0  0  0  0  0
  -26.1640  -11.2883   20.2867 N   0  0  0  0  0  0  0  0  0  0  0  0
  -27.3657  -21.1095   20.4351 N   0  0  0  0  0  0  0  0  0  0  0  0
  -26.5474  -11.7793   19.0960 N   0  0  0  0  0  0  0  0  0  0  0  0
  -23.9273  -30.7365   21.9517 N   0  0  0  0  0  0  0  0  0  0  0  0
  -28.8848  -14.7252   19.8270 N   0  0  0  0  0  0  0  0  0  0  0  0
  -27.9619  -16.9226   19.6102 N   0  0  0  0  0  0  0  0  0  0  0  0
  -25.9660  -11.8362   16.8005 N   0  0  0  0  0  0  0  0  0  0  0  0
  -22.7198   -9.2879   18.6347 N   0  0  0  0  0  0  0  0  0  0  0  0
  -26.4209  -32.6423   23.1844 N   0  0  0  0  0  0  0  0  0  0  0  0
  -20.5647  -30.9131   22.2976 N   0  0  0  0  0  0  0  0  0  0  0  0
  -26.2314  -20.4411   15.8988 N   0  3  0  0  0  0  0  0  0  0  0  0
  -18.6390  -29.7135   19.4832 N   0  3  0  0  0  0  0  0  0  0  0  0
  -23.5018  -10.1786   16.6715 O   0  0  0  0  0  0  0  0  0  0  0  0
  -26.5339  -30.3207   23.0437 O   0  0  0  0  0  0  0  0  0  0  0  0
  -22.7946  -32.7014   22.4923 O   0  0  0  0  0  0  0  0  0  0  0  0
  -20.3666  -28.7505   21.4844 O   0  0  0  0  0  0  0  0  0  0  0  0
  -29.9994  -16.3958   18.7056 O   0  0  0  0  0  0  0  0  0  0  0  0
  -22.2498   -7.9229   24.0153 O   0  0  0  0  0  0  0  0  0  0  0  0
  -26.0359  -25.2303   20.1100 O   0  0  0  0  0  0  0  0  0  1  0  0
  -20.5609   -2.7777   22.9769 F   0  0  0  0  0  0  0  0  0  0  0  0
  -23.1010   -5.8080   25.5790 F   0  0  0  0  0  0  0  0  0  0  0  0
  1  2  1  0  0  0  0
  1  5  2  0  0  0  0
  2  6  2  0  0  0  0
  3  8  2  0  0  0  0
  3 16  1  0  0  0  0
  4  9  1  0  0  0  0
  4 16  2  0  0  0  0
  5 18  1  0  0  0  0
  6 20  1  0  0  0  0
  7 10  2  0  0  0  0
  7 19  1  0  0  0  0
  8 24  1  0  0  0  0
  9 24  2  0  0  0  0
 10 25  1  0  0  0  0
 11 12  2  0  0  0  0
 11 26  1  0  0  0  0
 12 27  1  0  0  0  0
 13 21  1  0  0  0  0
 13 25  2  0  0  0  0
 14 22  2  0  0  0  0
 14 23  1  0  0  0  0
 15 27  2  0  0  0  0
 15 28  1  0  0  0  0
 16 29  1  0  0  0  0
 17 29  1  0  0  0  0
 17 32  2  0  0  0  0
 17 33  1  0  0  0  0
 18 20  2  0  0  0  0
 18 38  1  0  0  0  0
 19 21  2  0  0  0  0
 19 39  1  0  0  0  0
 20 50  1  0  0  0  0
 21 40  1  0  0  0  0
 22 30  1  0  0  0  0
 22 62  1  0  0  0  0
 23 31  2  0  0  0  0
 23 61  1  0  0  0  0
 24 83  1  0  0  0  0
 25 84  1  0  0  0  0
 26 28  2  0  0  0  0
 26 83  1  0  0  0  0
 27 85  1  0  0  0  0
 28 86  1  0  0  0  0
 29 66  2  0  0  0  0
 30 51  1  0  0  0  0
 30 67  2  0  0  0  0
 31 54  1  0  0  0  0
 31 67  1  0  0  0  0
 32 68  1  0  0  0  0
 32 72  1  0  0  0  0
 33 73  1  0  0  0  0
 33 78  2  0  0  0  0
 34 52  1  0  0  0  0
 34 74  1  0  0  0  0
 34 79  2  0  0  0  0
 35 63  1  0  0  0  0
 35 69  1  0  0  0  0
 35 80  2  0  0  0  0
 36 64  1  0  0  0  0
 36 75  1  0  0  0  0
 36 81  2  0  0  0  0
 37 70  1  0  0  0  0
 37 71  1  0  0  0  0
 37 82  2  0  0  0  0
 38 41  1  0  0  0  0
 39 52  1  0  0  0  0
 40 69  1  0  0  0  0
 41 43  1  0  0  0  0
 42 44  1  0  0  0  0
 42 46  1  0  0  0  0
 43 50  1  0  0  0  0
 44 53  1  0  0  0  0
 45 47  1  0  0  0  0
 45 51  1  0  0  0  0
 46 70  1  0  0  0  0
 47 71  1  0  0  0  0
 48 51  1  0  0  0  0
 48 71  1  0  0  0  0
 49 53  1  0  0  0  0
 49 70  1  0  0  0  0
 50 74  1  0  0  0  0
 52 69  1  0  0  0  0
 53 68  1  0  0  0  0
 55 62  1  0  0  0  0
 56 64  1  0  0  0  0
 57 65  1  0  0  0  0
 58 65  1  0  0  0  0
 59 65  1  0  0  0  0
 60 77  1  0  0  0  0
 61 84  1  0  0  0  0
 62 76  1  0  0  0  0
 63 65  1  0  0  0  0
 63 75  1  0  0  0  0
 64 77  1  0  0  0  0
 66 68  1  0  0  0  0
M  CHG  2  76   1  77   1
M  ISO  4  37 100  61 101  71 100  84 101
M  END
> <Batch ID>
0169

> <Smiles>
CNC(C)C(=O)NC(C(=O)N1Cc2cc([101O:1][101CH2:1]c3cc(C(C)N)c(C4CC[100N:0]([100C:0](=O)N5CCCC(n6nc(-c7ccc(Oc8ccc(F)cc8F)cc7)c(C(N)=O)c6N)C5)C4)nc3C)ccc2CC1C(=O)NC1CCCc2ccccc21)C(C)(C)C

> <Shape>
0.270

> <Color>
0.093

> <Negative vol penalty>
0.000

$$$$

  -OEChem-04052322323D

 83 92  0     1  0  0  0  0  0999 V2000
  -28.3389  -34.1207   23.6834 C   0  0  0  0  0  0  0  0  0  0  0  0
  -28.9678  -32.9216   23.3637 C   0  0  0  0  0  0  0  0  0  0  0  0
  -23.0091  -10.0076   19.8948 C   0  0  0  0  0  0  0  0  0  0  0  0
  -24.0392   -9.8104   22.0713 C   0  0  0  0  0  0  0  0  0  0  0  0
  -26.9669  -34.1428   23.9304 C   0  0  0  0  0  0  0  0  0  0  0  0
  -28.2250  -31.7436   23.2919 C   0  0  0  0  0  0  0  0  0  0  0  0
  -29.1265  -27.0506   19.4619 C   0  0  0  0  0  0  0  0  0  0  0  0
  -22.3270   -8.8099   20.1091 C   0  0  0  0  0  0  0  0  0  0  0  0
  -23.3572   -8.6127   22.2856 C   0  0  0  0  0  0  0  0  0  0  0  0
  -29.7687  -25.8230   19.6175 C   0  0  0  0  0  0  0  0  0  0  0  0
  -23.6541   -5.3758   21.3554 C   0  0  0  0  0  0  0  0  0  0  0  0
  -24.3747   -4.3056   21.8855 C   0  0  0  0  0  0  0  0  0  0  0  0
  -27.6478  -24.7819   20.1043 C   0  0  0  0  0  0  0  0  0  0  0  0
  -22.8877   -4.2472   23.7888 C   0  0  0  0  0  0  0  0  0  0  0  0
  -23.8652  -10.5078   20.8759 C   0  0  0  0  0  0  0  0  0  0  0  0
  -24.1327  -13.0426   20.9799 C   0  0  0  0  0  0  0  0  0  0  0  0
  -26.2053  -32.9661   23.8522 C   0  0  0  0  0  0  0  0  0  0  0  0
  -27.7391  -27.1554   19.6374 C   0  0  0  0  0  0  0  0  0  0  0  0
  -26.8418  -31.7497   23.5395 C   0  0  0  0  0  0  0  0  0  0  0  0
  -26.9900  -26.0115   19.9479 C   0  0  0  0  0  0  0  0  0  0  0  0
  -22.5011   -8.1124   21.3045 C   0  0  0  0  0  0  0  0  0  0  0  0
  -29.0298  -24.6890   19.9416 C   0  0  0  0  0  0  0  0  0  0  0  0
  -22.5504   -5.8818   22.0420 C   0  0  0  0  0  0  0  0  0  0  0  0
  -23.9915   -3.7413   23.1022 C   0  0  0  0  0  0  0  0  0  0  0  0
  -22.1671   -5.3174   23.2587 C   0  0  0  0  0  0  0  0  0  0  0  0
  -24.5704  -11.7447   20.6549 C   0  0  0  0  0  0  0  0  0  0  0  0
  -25.1559  -13.8625   20.5708 C   0  0  0  0  0  0  0  0  0  0  0  0
  -22.9106  -13.4690   21.5965 C   0  0  0  0  0  0  0  0  0  0  0  0
  -25.8444  -28.7453   21.6339 C   0  0  0  0  0  0  0  0  0  0  0  0
  -23.4981  -27.5574   19.7350 C   0  0  0  0  0  0  0  0  0  0  0  0
  -22.4911  -25.1490   17.5367 C   0  0  0  0  0  0  0  0  0  0  0  0
  -30.7848  -14.6838   20.6116 C   0  0  0  0  0  0  0  0  0  0  0  0
  -24.7333  -33.0314   24.1740 C   0  0  0  0  0  0  0  0  0  0  0  0
  -27.0578  -28.4817   19.4398 C   0  0  0  0  0  0  0  0  0  0  0  0
  -25.4956  -26.0668   20.1271 C   0  0  0  0  0  0  0  0  0  0  0  0
  -23.9534  -31.8038   23.7102 C   0  0  0  0  0  0  0  0  0  0  0  0
  -29.2319  -12.9148   17.7480 C   0  0  0  0  0  0  0  0  0  0  0  0
  -24.6892  -30.5255   24.0993 C   0  0  0  0  0  0  0  0  0  0  0  0
  -27.8755  -12.4981   18.3138 C   0  0  0  0  0  0  0  0  0  0  0  0
  -31.6029  -17.2785   22.7645 C   0  0  0  0  0  0  0  0  0  0  0  0
  -29.4638  -17.8171   21.5333 C   0  0  0  0  0  0  0  0  0  0  0  0
  -30.9241  -20.8937   20.5430 C   0  0  0  0  0  0  0  0  0  0  0  0
  -30.2885  -13.0371   18.8414 C   0  0  0  0  0  0  0  0  0  0  0  0
  -31.1852  -15.8104   22.7809 C   0  0  0  0  0  0  0  0  0  0  0  0
  -29.0999  -16.3295   21.5506 C   0  0  0  0  0  0  0  0  0  0  0  0
  -28.5405  -13.5292   20.5221 C   0  0  0  0  0  0  0  0  0  0  0  0
  -31.6773  -19.8556   21.3539 C   0  0  0  0  0  0  0  0  0  0  0  0
  -26.0660  -30.4552   23.4277 C   0  0  1  0  0  0  0  0  0  0  0  0
  -25.7094  -28.5721   20.1475 C   0  0  1  0  0  0  0  0  0  0  0  0
  -30.1754  -21.6952   21.5985 C   0  0  2  0  0  0  0  0  0  0  0  0
  -27.4435  -13.4404   19.4505 C   0  0  2  0  0  0  0  0  0  0  0  0
  -30.3685  -18.1762   22.7100 C   0  0  0  0  0  0  0  0  0  0  0  0
  -29.6515  -20.5986   22.5262 C   0  0  2  0  0  0  0  0  0  0  0  0
  -29.3257  -21.0802   23.9305 C   0  0  0  0  0  0  0  0  0  0  0  0
  -20.5062  -24.4220   16.1843 C   0  0  0  0  0  0  0  0  0  0  0  0
  -22.1836  -26.4583   22.2597 C   0  0  0  0  0  0  0  0  0  0  0  0
  -20.7838  -24.9793   20.8032 C   0  0  0  0  0  0  0  0  0  0  0  0
  -20.5951  -27.4589   20.6075 C   0  0  0  0  0  0  0  0  0  0  0  0
  -23.9635  -25.4686   14.9893 C   0  0  0  0  0  0  0  0  0  0  0  0
  -29.0758  -22.5626   21.0057 C   0  0  0  0  0  0  0  0  0  1  0  0
  -22.6626  -26.3000   19.7276 C   0  0  1  0  0  0  0  0  0  0  0  0
  -21.7877  -25.2408   16.1946 C   0  0  2  0  0  0  0  0  0  0  0  0
  -21.5847  -26.2981   20.8481 C   0  0  0  0  0  0  0  0  0  0  0  0
  -25.7776  -11.7357   20.0833 N   0  0  0  0  0  0  0  0  0  0  0  0
  -26.1071  -13.0380   20.0458 N   0  0  0  0  0  0  0  0  0  0  0  0
  -24.8762  -27.3878   19.9296 N   0  0  0  0  0  0  0  0  0  0  0  0
  -29.8366  -13.8997   19.9333 N   0  0  0  0  0  0  0  0  0  0  0  0
  -30.3088  -15.4983   21.6503 N   0  0  0  0  0  0  0  0  0  0  0  0
  -25.3258  -15.2011   20.6125 N   0  0  0  0  0  0  0  0  0  0  0  0
  -21.9675  -12.4958   21.9539 N   0  0  0  0  0  0  0  0  0  0  0  0
  -25.9325  -30.0628   22.0411 N   0  0  0  0  0  0  0  0  0  0  0  0
  -22.1220  -26.1771   18.3781 N   0  0  0  0  0  0  0  0  0  0  0  0
  -30.8029  -19.5907   22.5747 N   0  3  2  0  0  0  0  0  0  0  0  0
  -22.6757  -24.7376   15.1088 N   0  3  0  0  0  0  0  0  0  0  0  0
  -22.6551  -14.6786   21.8089 O   0  0  0  0  0  0  0  0  0  0  0  0
  -25.8656  -27.7568   22.3579 O   0  0  0  0  0  0  0  0  0  0  0  0
  -22.9491  -28.6492   19.5670 O   0  0  0  0  0  0  0  0  0  0  0  0
  -23.2856  -24.2527   17.8124 O   0  0  0  0  0  0  0  0  0  0  0  0
  -31.9833  -14.6581   20.3051 O   0  0  0  0  0  0  0  0  0  0  0  0
  -21.8355   -6.9438   21.5140 O   0  0  0  0  0  0  0  0  0  0  0  0
  -29.6596  -23.4794   20.0959 O   0  0  0  0  0  0  0  0  0  1  0  0
  -24.6826   -2.7125   23.6104 F   0  0  0  0  0  0  0  0  0  0  0  0
  -21.1069   -5.7984   23.9223 F   0  0  0  0  0  0  0  0  0  0  0  0
  1  2  1  0  0  0  0
  1  5  2  0  0  0  0
  2  6  2  0  0  0  0
  3  8  2  0  0  0  0
  3 15  1  0  0  0  0
  4  9  1  0  0  0  0
  4 15  2  0  0  0  0
  5 17  1  0  0  0  0
  6 19  1  0  0  0  0
  7 10  2  0  0  0  0
  7 18  1  0  0  0  0
  8 21  1  0  0  0  0
  9 21  2  0  0  0  0
 10 22  1  0  0  0  0
 11 12  2  0  0  0  0
 11 23  1  0  0  0  0
 12 24  1  0  0  0  0
 13 20  1  0  0  0  0
 13 22  2  0  0  0  0
 14 24  2  0  0  0  0
 14 25  1  0  0  0  0
 15 26  1  0  0  0  0
 16 26  1  0  0  0  0
 16 27  2  0  0  0  0
 16 28  1  0  0  0  0
 17 19  2  0  0  0  0
 17 33  1  0  0  0  0
 18 20  2  0  0  0  0
 18 34  1  0  0  0  0
 19 48  1  0  0  0  0
 20 35  1  0  0  0  0
 21 80  1  0  0  0  0
 22 81  1  0  0  0  0
 23 25  2  0  0  0  0
 23 80  1  0  0  0  0
 24 82  1  0  0  0  0
 25 83  1  0  0  0  0
 26 64  2  0  0  0  0
 27 65  1  0  0  0  0
 27 69  1  0  0  0  0
 28 70  1  0  0  0  0
 28 75  2  0  0  0  0
 29 49  1  0  0  0  0
 29 71  1  0  0  0  0
 29 76  2  0  0  0  0
 30 61  1  0  0  0  0
 30 66  1  0  0  0  0
 30 77  2  0  0  0  0
 31 62  1  0  0  0  0
 31 72  1  0  0  0  0
 31 78  2  0  0  0  0
 32 67  1  0  0  0  0
 32 68  1  0  0  0  0
 32 79  2  0  0  0  0
 33 36  1  0  0  0  0
 34 49  1  0  0  0  0
 35 66  1  0  0  0  0
 36 38  1  0  0  0  0
 37 39  1  0  0  0  0
 37 43  1  0  0  0  0
 38 48  1  0  0  0  0
 39 51  1  0  0  0  0
 40 44  1  0  0  0  0
 40 52  1  0  0  0  0
 41 45  1  0  0  0  0
 41 52  1  0  0  0  0
 42 47  1  0  0  0  0
 42 50  1  0  0  0  0
 43 67  1  0  0  0  0
 44 68  1  0  0  0  0
 45 68  1  0  0  0  0
 46 51  1  0  0  0  0
 46 67  1  0  0  0  0
 47 73  1  0  0  0  0
 48 71  1  0  0  0  0
 49 66  1  0  0  0  0
 50 53  1  0  0  0  0
 50 60  1  0  0  0  0
 51 65  1  0  0  0  0
 52 73  1  0  0  0  0
 53 54  1  0  0  0  0
 53 73  1  0  0  0  0
 55 62  1  0  0  0  0
 56 63  1  0  0  0  0
 57 63  1  0  0  0  0
 58 63  1  0  0  0  0
 59 74  1  0  0  0  0
 60 81  1  0  0  0  0
 61 63  1  0  0  0  0
 61 72  1  0  0  0  0
 62 74  1  0  0  0  0
 64 65  1  0  0  0  0
M  CHG  2  73   1  74   1
M  ISO  4  32 100  60 101  68 100  81 101
M  END
> <Batch ID>
0169

> <Smiles>
CNC(C)C(=O)NC(C(=O)N1Cc2cc([101O:1][101CH2:1]C3CCN(C4CC[100N:0]([100C:0](=O)N5CCCC(n6nc(-c7ccc(Oc8ccc(F)cc8F)cc7)c(C(N)=O)c6N)C5)CC4)C3C)ccc2CC1C(=O)NC1CCCc2ccccc21)C(C)(C)C

> <Shape>
0.345

> <Color>
0.185

> <Negative vol penalty>
0.000

$$$$

  -OEChem-04052322323D

 87 96  0     1  0  0  0  0  0999 V2000
  -23.9952  -17.8782   24.8877 C   0  0  0  0  0  0  0  0  0  0  0  0
  -24.6340  -18.9637   24.2969 C   0  0  0  0  0  0  0  0  0  0  0  0
  -24.2911  -13.1084   21.3143 C   0  0  0  0  0  0  0  0  0  0  0  0
  -26.2336  -12.7239   19.9301 C   0  0  0  0  0  0  0  0  0  0  0  0
  -22.6607  -17.6083   24.5876 C   0  0  0  0  0  0  0  0  0  0  0  0
  -23.9388  -19.7793   23.4047 C   0  0  0  0  0  0  0  0  0  0  0  0
  -24.5966  -25.8227   22.6629 C   0  0  0  0  0  0  0  0  0  0  0  0
  -23.7738  -11.8707   20.9323 C   0  0  0  0  0  0  0  0  0  0  0  0
  -25.7163  -11.4861   19.5481 C   0  0  0  0  0  0  0  0  0  0  0  0
  -25.3042  -26.5820   21.7319 C   0  0  0  0  0  0  0  0  0  0  0  0
  -24.2526   -8.6188   21.7255 C   0  0  0  0  0  0  0  0  0  0  0  0
  -23.7180   -7.8038   22.7233 C   0  0  0  0  0  0  0  0  0  0  0  0
  -23.2990  -26.8218   20.4125 C   0  0  0  0  0  0  0  0  0  0  0  0
  -21.5774   -7.8371   21.6035 C   0  0  0  0  0  0  0  0  0  0  0  0
  -25.5210  -13.5351   20.8131 C   0  0  0  0  0  0  0  0  0  0  0  0
  -26.8925  -15.0833   22.3063 C   0  0  0  0  0  0  0  0  0  0  0  0
  -21.9460  -18.4267   23.6987 C   0  0  0  0  0  0  0  0  0  0  0  0
  -23.2352  -25.5477   22.4698 C   0  0  0  0  0  0  0  0  0  0  0  0
  -22.5939  -19.5193   23.0914 C   0  0  0  0  0  0  0  0  0  0  0  0
  -22.5758  -26.0610   21.3438 C   0  0  0  0  0  0  0  0  0  0  0  0
  -24.4864  -11.0595   20.0493 C   0  0  0  0  0  0  0  0  0  0  0  0
  -24.6561  -27.0792   20.6051 C   0  0  0  0  0  0  0  0  0  0  0  0
  -23.4497   -9.0430   20.6667 C   0  0  0  0  0  0  0  0  0  0  0  0
  -22.3804   -7.4130   22.6623 C   0  0  0  0  0  0  0  0  0  0  0  0
  -22.1121   -8.6521   20.6057 C   0  0  0  0  0  0  0  0  0  0  0  0
  -26.0555  -14.8139   21.2069 C   0  0  0  0  0  0  0  0  0  0  0  0
  -27.1168  -16.4369   22.2435 C   0  0  0  0  0  0  0  0  0  0  0  0
  -27.4202  -14.1899   23.2957 C   0  0  0  0  0  0  0  0  0  0  0  0
  -21.5146  -22.9042   22.0762 C   0  0  0  0  0  0  0  0  0  0  0  0
  -19.0197  -24.9711   22.2353 C   0  0  0  0  0  0  0  0  0  0  0  0
  -17.8721  -28.1622   21.8517 C   0  0  0  0  0  0  0  0  0  0  0  0
  -28.4240  -20.9142   19.3812 C   0  0  0  0  0  0  0  0  0  0  0  0
  -20.5189  -18.0673   23.3689 C   0  0  0  0  0  0  0  0  0  0  0  0
  -22.4798  -24.7497   23.4969 C   0  0  0  0  0  0  0  0  0  0  0  0
  -21.1106  -25.8112   21.1004 C   0  0  0  0  0  0  0  0  0  0  0  0
  -19.7442  -19.2005   22.7010 C   0  0  0  0  0  0  0  0  0  0  0  0
  -24.9192  -20.0130   19.4197 C   0  0  0  0  0  0  0  0  0  0  0  0
  -20.5734  -19.8292   21.5857 C   0  0  0  0  0  0  0  0  0  0  0  0
  -28.6850  -24.8311   20.3791 C   0  0  0  0  0  0  0  0  0  0  0  0
  -24.9767  -18.5921   19.9835 C   0  0  0  0  0  0  0  0  0  0  0  0
  -29.5831  -23.5870   20.4810 C   0  0  0  0  0  0  0  0  0  0  0  0
  -30.3710  -23.0606   18.0189 C   0  0  0  0  0  0  0  0  0  0  0  0
  -26.0985  -20.2874   18.4913 C   0  0  0  0  0  0  0  0  0  0  0  0
  -27.4948  -18.6350   19.6717 C   0  0  0  0  0  0  0  0  0  0  0  0
  -21.8663  -20.4418   22.1376 C   0  0  1  0  0  0  0  0  0  0  0  0
  -21.2183  -24.0986   22.9383 C   0  0  1  0  0  0  0  0  0  0  0  0
  -28.6801  -24.6738   18.8450 C   0  0  1  0  0  0  0  0  0  0  0  0
  -29.7537  -25.3929   18.0182 C   0  0  1  0  0  0  0  0  0  0  0  0
  -26.3415  -18.3029   20.6360 C   0  0  2  0  0  0  0  0  0  0  0  0
  -29.2216  -23.2350   19.0142 C   0  0  2  0  0  0  0  0  0  0  0  0
  -30.2860  -24.2842   17.0754 C   0  0  0  0  0  0  0  0  0  0  0  0
  -29.3469  -23.9803   15.8938 C   0  0  0  0  0  0  0  0  0  0  0  0
  -31.6735  -24.6370   16.5245 C   0  0  0  0  0  0  0  0  0  0  0  0
  -15.7786  -29.5360   22.0175 C   0  0  0  0  0  0  0  0  0  0  0  0
  -30.2478  -27.4208   16.5976 C   0  0  0  0  0  0  0  0  0  0  0  0
  -18.0499  -23.8089   19.5860 C   0  0  0  0  0  0  0  0  0  0  0  0
  -16.5575  -25.8036   19.3371 C   0  0  0  0  0  0  0  0  0  0  0  0
  -16.2421  -24.2440   21.2583 C   0  0  0  0  0  0  0  0  0  0  0  0
  -19.0292  -29.8814   23.9645 C   0  0  0  0  0  0  0  0  0  0  0  0
  -27.5768  -28.4650   17.8984 C   0  0  0  0  0  0  0  0  0  0  0  0
  -26.4396  -28.5952   20.1847 C   0  0  0  0  0  0  0  0  0  1  0  0
  -18.2432  -25.7889   21.2316 C   0  0  1  0  0  0  0  0  0  0  0  0
  -17.0168  -29.0396   22.7478 C   0  0  2  0  0  0  0  0  0  0  0  0
  -29.1850  -26.6350   17.3476 C   0  0  2  0  0  0  0  0  0  0  0  0
  -27.0680  -29.3606   19.0246 C   0  0  1  0  0  0  0  0  0  0  0  0
  -17.3013  -24.9146   20.3566 C   0  0  0  0  0  0  0  0  0  0  0  0
  -25.7675  -15.9085   20.4977 N   0  0  0  0  0  0  0  0  0  0  0  0
  -26.4271  -16.8788   21.1530 N   0  0  0  0  0  0  0  0  0  0  0  0
  -20.4170  -25.0201   22.1303 N   0  0  0  0  0  0  0  0  0  0  0  0
  -27.3676  -20.0105   19.1789 N   0  0  0  0  0  0  0  0  0  0  0  0
  -27.8346  -17.2804   23.0153 N   0  0  0  0  0  0  0  0  0  0  0  0
  -27.0905  -12.8303   23.2120 N   0  0  0  0  0  0  0  0  0  0  0  0
  -21.5923  -21.7131   22.7725 N   0  0  0  0  0  0  0  0  0  0  0  0
  -17.5579  -26.8271   21.9938 N   0  0  0  0  0  0  0  0  0  0  0  0
  -28.2270  -22.1942   18.8779 N   0  0  0  0  0  0  0  0  0  0  0  0
  -17.7958  -30.2229   23.2101 N   0  3  0  0  0  0  0  0  0  0  0  0
  -28.6018  -27.5118   18.3989 N   0  3  0  0  0  0  0  0  0  0  0  0
  -28.1488  -14.5882   24.2360 O   0  0  0  0  0  0  0  0  0  0  0  0
  -21.6604  -23.0520   20.8684 O   0  0  0  0  0  0  0  0  0  0  0  0
  -18.4091  -24.3188   23.0857 O   0  0  0  0  0  0  0  0  0  0  0  0
  -18.7303  -28.6160   21.0980 O   0  0  0  0  0  0  0  0  0  0  0  0
  -29.4644  -20.6046   19.9718 O   0  0  0  0  0  0  0  0  0  0  0  0
  -28.1464  -30.1471   19.5334 O   0  0  0  0  0  0  0  0  0  0  0  0
  -23.9821   -9.8515   19.6765 O   0  0  0  0  0  0  0  0  0  0  0  0
  -25.3487  -27.8245   19.6889 O   0  0  0  0  0  0  0  0  0  1  0  0
  -21.8675   -6.6291   23.6197 F   0  0  0  0  0  0  0  0  0  0  0  0
  -21.3361   -9.0555   19.5904 F   0  0  0  0  0  0  0  0  0  0  0  0
  1  2  1  0  0  0  0
  1  5  2  0  0  0  0
  2  6  2  0  0  0  0
  3  8  2  0  0  0  0
  3 15  1  0  0  0  0
  4  9  1  0  0  0  0
  4 15  2  0  0  0  0
  5 17  1  0  0  0  0
  6 19  1  0  0  0  0
  7 10  2  0  0  0  0
  7 18  1  0  0  0  0
  8 21  1  0  0  0  0
  9 21  2  0  0  0  0
 10 22  1  0  0  0  0
 11 12  2  0  0  0  0
 11 23  1  0  0  0  0
 12 24  1  0  0  0  0
 13 20  1  0  0  0  0
 13 22  2  0  0  0  0
 14 24  2  0  0  0  0
 14 25  1  0  0  0  0
 15 26  1  0  0  0  0
 16 26  1  0  0  0  0
 16 27  2  0  0  0  0
 16 28  1  0  0  0  0
 17 19  2  0  0  0  0
 17 33  1  0  0  0  0
 18 20  2  0  0  0  0
 18 34  1  0  0  0  0
 19 45  1  0  0  0  0
 20 35  1  0  0  0  0
 21 84  1  0  0  0  0
 22 85  1  0  0  0  0
 23 25  2  0  0  0  0
 23 84  1  0  0  0  0
 24 86  1  0  0  0  0
 25 87  1  0  0  0  0
 26 67  2  0  0  0  0
 27 68  1  0  0  0  0
 27 71  1  0  0  0  0
 28 72  1  0  0  0  0
 28 78  2  0  0  0  0
 29 46  1  0  0  0  0
 29 73  1  0  0  0  0
 29 79  2  0  0  0  0
 30 62  1  0  0  0  0
 30 69  1  0  0  0  0
 30 80  2  0  0  0  0
 31 63  1  0  0  0  0
 31 74  1  0  0  0  0
 31 81  2  0  0  0  0
 32 70  1  0  0  0  0
 32 75  1  0  0  0  0
 32 82  2  0  0  0  0
 33 36  1  0  0  0  0
 34 46  1  0  0  0  0
 35 69  1  0  0  0  0
 36 38  1  0  0  0  0
 37 40  1  0  0  0  0
 37 43  1  0  0  0  0
 38 45  1  0  0  0  0
 39 41  1  0  0  0  0
 39 47  1  0  0  0  0
 40 49  1  0  0  0  0
 41 50  1  0  0  0  0
 42 50  1  0  0  0  0
 42 51  1  0  0  0  0
 43 70  1  0  0  0  0
 44 49  1  0  0  0  0
 44 70  1  0  0  0  0
 45 73  1  0  0  0  0
 46 69  1  0  0  0  0
 47 48  1  0  0  0  0
 47 50  1  0  0  0  0
 48 51  1  0  0  0  0
 48 64  1  0  0  0  0
 49 68  1  0  0  0  0
 50 75  1  0  0  0  0
 51 52  1  0  0  0  0
 51 53  1  0  0  0  0
 54 63  1  0  0  0  0
 55 64  1  0  0  0  0
 56 66  1  0  0  0  0
 57 66  1  0  0  0  0
 58 66  1  0  0  0  0
 59 76  1  0  0  0  0
 60 65  1  0  0  0  0
 60 77  1  0  0  0  0
 61 65  1  0  0  0  0
 61 85  1  0  0  0  0
 62 66  1  0  0  0  0
 62 74  1  0  0  0  0
 63 76  1  0  0  0  0
 64 77  1  0  0  0  0
 65 83  1  0  0  0  0
 67 68  1  0  0  0  0
M  CHG  2  76   1  77   1
M  ISO  4  32 100  61 101  75 100  85 101
M  END
> <Batch ID>
0169

> <Smiles>
CNC(C)C(=O)NC(C(=O)N1Cc2cc([101O:1][101CH2:1]C(O)CNC(C)C3C4CCC4([100NH:0][100C:0](=O)N4CCCC(n5nc(-c6ccc(Oc7ccc(F)cc7F)cc6)c(C(N)=O)c5N)C4)CC3(C)C)ccc2CC1C(=O)NC1CCCc2ccccc21)C(C)(C)C

> <Shape>
0.221

> <Color>
0.042

> <Negative vol penalty>
0.000

$$$$

  -OEChem-04052322323D

 85 94  0     1  0  0  0  0  0999 V2000
  -33.0783  -25.4685   18.1033 C   0  0  0  0  0  0  0  0  0  0  0  0
  -31.7578  -25.0308   18.1089 C   0  0  0  0  0  0  0  0  0  0  0  0
  -28.0409  -14.1550   22.2341 C   0  0  0  0  0  0  0  0  0  0  0  0
  -26.2685  -15.3839   21.1453 C   0  0  0  0  0  0  0  0  0  0  0  0
  -33.5403  -26.2996   19.1229 C   0  0  0  0  0  0  0  0  0  0  0  0
  -30.8987  -25.4232   19.1348 C   0  0  0  0  0  0  0  0  0  0  0  0
  -24.8998  -26.5675   18.6777 C   0  0  0  0  0  0  0  0  0  0  0  0
  -27.4833  -12.9565   21.7890 C   0  0  0  0  0  0  0  0  0  0  0  0
  -25.7109  -14.1853   20.7002 C   0  0  0  0  0  0  0  0  0  0  0  0
  -23.7735  -25.7970   18.9630 C   0  0  0  0  0  0  0  0  0  0  0  0
  -24.9285  -10.9227   22.6615 C   0  0  0  0  0  0  0  0  0  0  0  0
  -24.8296   -9.8753   23.5773 C   0  0  0  0  0  0  0  0  0  0  0  0
  -23.6211  -26.8351   21.1352 C   0  0  0  0  0  0  0  0  0  0  0  0
  -21.9035  -22.4093   24.4674 C   0  0  0  0  0  0  0  0  0  0  0  0
  -26.2264   -8.5047   22.1605 C   0  0  0  0  0  0  0  0  0  0  0  0
  -27.4334  -15.3688   21.9123 C   0  0  0  0  0  0  0  0  0  0  0  0
  -28.9649  -17.3987   21.7085 C   0  0  0  0  0  0  0  0  0  0  0  0
  -32.6839  -26.7102   20.1567 C   0  0  0  0  0  0  0  0  0  0  0  0
  -25.4025  -27.4713   19.6247 C   0  0  0  0  0  0  0  0  0  0  0  0
  -31.3501  -26.2595   20.1699 C   0  0  0  0  0  0  0  0  0  0  0  0
  -24.7524  -27.6178   20.8584 C   0  0  0  0  0  0  0  0  0  0  0  0
  -21.2076  -22.5359   23.2704 C   0  0  0  0  0  0  0  0  0  0  0  0
  -23.2893  -22.5230   24.4748 C   0  0  0  0  0  0  0  0  0  0  0  0
  -26.3183  -12.9716   21.0220 C   0  0  0  0  0  0  0  0  0  0  0  0
  -23.1356  -25.9286   20.1931 C   0  0  0  0  0  0  0  0  0  0  0  0
  -25.6763  -10.7611   21.4951 C   0  0  0  0  0  0  0  0  0  0  0  0
  -25.4785   -8.6663   23.3268 C   0  0  0  0  0  0  0  0  0  0  0  0
  -26.3252   -9.5521   21.2447 C   0  0  0  0  0  0  0  0  0  0  0  0
  -28.0086  -16.6072   22.3723 C   0  0  0  0  0  0  0  0  0  0  0  0
  -21.9382  -22.7740   22.1175 C   0  0  0  0  0  0  0  0  0  0  0  0
  -23.9268  -22.7615   23.2679 C   0  0  0  0  0  0  0  0  0  0  0  0
  -29.1797  -18.4594   22.5542 C   0  0  0  0  0  0  0  0  0  0  0  0
  -29.6022  -17.1935   20.4406 C   0  0  0  0  0  0  0  0  0  0  0  0
  -28.1408  -27.7656   21.2117 C   0  0  0  0  0  0  0  0  0  0  0  0
  -26.8040  -30.5417   22.2259 C   0  0  0  0  0  0  0  0  0  0  0  0
  -23.9681  -32.3487   22.8081 C   0  0  0  0  0  0  0  0  0  0  0  0
  -25.8320  -21.0309   26.8006 C   0  0  0  0  0  0  0  0  0  0  0  0
  -33.2415  -27.5708   21.2626 C   0  0  0  0  0  0  0  0  0  0  0  0
  -26.6025  -28.3145   19.2912 C   0  0  0  0  0  0  0  0  0  0  0  0
  -25.2402  -28.5885   21.9016 C   0  0  0  0  0  0  0  0  0  0  0  0
  -32.1662  -28.2447   22.1110 C   0  0  0  0  0  0  0  0  0  0  0  0
  -29.0816  -19.6296   27.1923 C   0  0  0  0  0  0  0  0  0  0  0  0
  -31.0834  -27.2416   22.4959 C   0  0  0  0  0  0  0  0  0  0  0  0
  -29.2614  -18.7675   25.9416 C   0  0  0  0  0  0  0  0  0  0  0  0
  -27.5382  -22.7238   21.9708 C   0  0  0  0  0  0  0  0  0  0  0  0
  -26.4969  -22.0018   21.1677 C   0  0  0  0  0  0  0  0  0  0  0  0
  -27.6411  -19.5964   27.6983 C   0  0  0  0  0  0  0  0  0  0  0  0
  -26.8021  -19.0811   25.4391 C   0  0  0  0  0  0  0  0  0  0  0  0
  -30.3810  -26.6836   21.2521 C   0  0  1  0  0  0  0  0  0  0  0  0
  -27.3320  -28.8311   20.5275 C   0  0  1  0  0  0  0  0  0  0  0  0
  -28.2261  -19.1273   24.8590 C   0  0  2  0  0  0  0  0  0  0  0  0
  -26.0933  -23.1227   22.0842 C   0  0  0  0  0  0  0  0  0  0  0  0
  -19.7228  -22.4151   23.2560 C   0  0  0  0  0  0  0  0  0  0  0  0
  -23.1923  -34.5725   23.6744 C   0  0  0  0  0  0  0  0  0  0  0  0
  -27.3603  -29.6208   25.0812 C   0  0  0  0  0  0  0  0  0  0  0  0
  -25.7558  -31.3675   25.8830 C   0  0  0  0  0  0  0  0  0  0  0  0
  -27.8212  -32.0421   24.6575 C   0  0  0  0  0  0  0  0  0  0  0  0
  -22.6996  -33.0426   20.2258 C   0  0  0  0  0  0  0  0  0  0  0  0
  -24.0325  -22.3867   25.7601 C   0  0  0  0  0  0  0  0  0  0  0  0
  -21.2360  -22.9206   20.7894 C   0  0  0  0  0  0  0  0  0  0  0  0
  -21.9529  -23.8926   19.8586 C   0  0  0  0  0  0  0  0  0  1  0  0
  -25.9296  -30.9451   23.3885 C   0  0  1  0  0  0  0  0  0  0  0  0
  -23.5881  -33.7724   22.4431 C   0  0  2  0  0  0  0  0  0  0  0  0
  -26.7084  -30.9741   24.7338 C   0  0  0  0  0  0  0  0  0  0  0  0
  -27.6412  -17.1211   23.5492 N   0  0  0  0  0  0  0  0  0  0  0  0
  -23.2847  -22.8905   22.0853 N   0  0  0  0  0  0  0  0  0  0  0  0
  -28.3706  -18.2468   23.6315 N   0  0  0  0  0  0  0  0  0  0  0  0
  -26.4210  -29.3859   21.5307 N   0  0  0  0  0  0  0  0  0  0  0  0
  -26.7098  -19.9486   26.6239 N   0  0  0  0  0  0  0  0  0  0  0  0
  -29.9797  -19.5437   22.4742 N   0  0  0  0  0  0  0  0  0  0  0  0
  -29.2659  -16.0516   19.7008 N   0  0  0  0  0  0  0  0  0  0  0  0
  -25.3394  -22.8778   23.2700 N   0  0  0  0  0  0  0  0  0  0  0  0
  -29.4317  -27.6451   20.7337 N   0  0  0  0  0  0  0  0  0  0  0  0
  -25.3244  -32.2206   23.0208 N   0  0  0  0  0  0  0  0  0  0  0  0
  -24.9872  -21.3011   25.7311 N   0  0  0  0  0  0  0  0  0  0  0  0
  -22.4407  -33.7747   21.4922 N   0  3  0  0  0  0  0  0  0  0  0  0
  -30.4570  -17.9905   19.9849 O   0  0  0  0  0  0  0  0  0  0  0  0
  -27.6318  -27.1029   22.1081 O   0  0  0  0  0  0  0  0  0  0  0  0
  -27.7865  -31.2308   21.9406 O   0  0  0  0  0  0  0  0  0  0  0  0
  -23.1436  -31.4418   22.8994 O   0  0  0  0  0  0  0  0  0  0  0  0
  -25.8071  -21.7097   27.8329 O   0  0  0  0  0  0  0  0  0  0  0  0
  -25.7741  -11.8022   20.5873 O   0  0  0  0  0  0  0  0  0  0  0  0
  -22.0365  -25.1772   20.4744 O   0  0  0  0  0  0  0  0  0  1  0  0
  -25.3847   -7.6611   24.2071 F   0  0  0  0  0  0  0  0  0  0  0  0
  -27.0460   -9.3913   20.1264 F   0  0  0  0  0  0  0  0  0  0  0  0
  1  2  1  0  0  0  0
  1  5  2  0  0  0  0
  2  6  2  0  0  0  0
  3  8  2  0  0  0  0
  3 16  1  0  0  0  0
  4  9  1  0  0  0  0
  4 16  2  0  0  0  0
  5 18  1  0  0  0  0
  6 20  1  0  0  0  0
  7 10  2  0  0  0  0
  7 19  1  0  0  0  0
  8 24  1  0  0  0  0
  9 24  2  0  0  0  0
 10 25  1  0  0  0  0
 11 12  2  0  0  0  0
 11 26  1  0  0  0  0
 12 27  1  0  0  0  0
 13 21  1  0  0  0  0
 13 25  2  0  0  0  0
 14 22  1  0  0  0  0
 14 23  2  0  0  0  0
 15 27  2  0  0  0  0
 15 28  1  0  0  0  0
 16 29  1  0  0  0  0
 17 29  1  0  0  0  0
 17 32  2  0  0  0  0
 17 33  1  0  0  0  0
 18 20  2  0  0  0  0
 18 38  1  0  0  0  0
 19 21  2  0  0  0  0
 19 39  1  0  0  0  0
 20 49  1  0  0  0  0
 21 40  1  0  0  0  0
 22 30  2  0  0  0  0
 22 53  1  0  0  0  0
 23 31  1  0  0  0  0
 23 59  1  0  0  0  0
 24 82  1  0  0  0  0
 25 83  1  0  0  0  0
 26 28  2  0  0  0  0
 26 82  1  0  0  0  0
 27 84  1  0  0  0  0
 28 85  1  0  0  0  0
 29 65  2  0  0  0  0
 30 60  1  0  0  0  0
 30 66  1  0  0  0  0
 31 66  2  0  0  0  0
 31 72  1  0  0  0  0
 32 67  1  0  0  0  0
 32 70  1  0  0  0  0
 33 71  1  0  0  0  0
 33 77  2  0  0  0  0
 34 50  1  0  0  0  0
 34 73  1  0  0  0  0
 34 78  2  0  0  0  0
 35 62  1  0  0  0  0
 35 68  1  0  0  0  0
 35 79  2  0  0  0  0
 36 63  1  0  0  0  0
 36 74  1  0  0  0  0
 36 80  2  0  0  0  0
 37 69  1  0  0  0  0
 37 75  1  0  0  0  0
 37 81  2  0  0  0  0
 38 41  1  0  0  0  0
 39 50  1  0  0  0  0
 40 68  1  0  0  0  0
 41 43  1  0  0  0  0
 42 44  1  0  0  0  0
 42 47  1  0  0  0  0
 43 49  1  0  0  0  0
 44 51  1  0  0  0  0
 45 46  1  0  0  0  0
 45 52  1  0  0  0  0
 46 52  1  0  0  0  0
 47 69  1  0  0  0  0
 48 51  1  0  0  0  0
 48 69  1  0  0  0  0
 49 73  1  0  0  0  0
 50 68  1  0  0  0  0
 51 67  1  0  0  0  0
 52 72  1  0  0  0  0
 54 63  1  0  0  0  0
 55 64  1  0  0  0  0
 56 64  1  0  0  0  0
 57 64  1  0  0  0  0
 58 76  1  0  0  0  0
 59 75  1  0  0  0  0
 60 61  1  0  0  0  0
 61 83  1  0  0  0  0
 62 64  1  0  0  0  0
 62 74  1  0  0  0  0
 63 76  1  0  0  0  0
 65 67  1  0  0  0  0
M  CHG  1  76   1
M  ISO  4  37 100  61 101  75 100  83 101
M  END
> <Batch ID>
0169

> <Smiles>
CNC(C)C(=O)NC(C(=O)N1Cc2cc([101O:1][101CH2:1]Cc3nc(NC4CC4)c(C[100NH:0][100C:0](=O)N4CCCC(n5nc(-c6ccc(Oc7ccc(F)cc7F)cc6)c(C(N)=O)c5N)C4)cc3C)ccc2CC1C(=O)NC1CCCc2ccccc21)C(C)(C)C

> <Shape>
0.195

> <Color>
0.069

> <Negative vol penalty>
0.000

$$$$

  -OEChem-04052322323D

 92103  0     1  0  0  0  0  0999 V2000
  -30.0311  -25.3463   15.7500 C   0  0  0  0  0  0  0  0  0  0  0  0
  -28.6573  -25.5600   15.7994 C   0  0  0  0  0  0  0  0  0  0  0  0
  -22.4451  -11.6133   23.4129 C   0  0  0  0  0  0  0  0  0  0  0  0
  -22.9848  -10.3623   21.4177 C   0  0  0  0  0  0  0  0  0  0  0  0
  -30.7800  -25.3580   16.9260 C   0  0  0  0  0  0  0  0  0  0  0  0
  -28.0314  -25.7845   17.0250 C   0  0  0  0  0  0  0  0  0  0  0  0
  -22.5723  -29.4039   19.9257 C   0  0  0  0  0  0  0  0  0  0  0  0
  -22.0406  -10.4358   24.0418 C   0  0  0  0  0  0  0  0  0  0  0  0
  -22.5803   -9.1848   22.0466 C   0  0  0  0  0  0  0  0  0  0  0  0
  -21.4537  -29.2016   20.7329 C   0  0  0  0  0  0  0  0  0  0  0  0
  -22.0287   -5.7986   23.2498 C   0  0  0  0  0  0  0  0  0  0  0  0
  -22.8471   -4.6770   23.1164 C   0  0  0  0  0  0  0  0  0  0  0  0
  -20.0649  -23.7734   21.5354 C   0  0  0  0  0  0  0  0  0  0  0  0
  -22.8604  -29.2784   22.6911 C   0  0  0  0  0  0  0  0  0  0  0  0
  -24.6636   -5.8780   24.1628 C   0  0  0  0  0  0  0  0  0  0  0  0
  -22.9172  -11.5765   22.1009 C   0  0  0  0  0  0  0  0  0  0  0  0
  -24.6254  -13.3547   21.4469 C   0  0  0  0  0  0  0  0  0  0  0  0
  -30.1644  -25.5923   18.1657 C   0  0  0  0  0  0  0  0  0  0  0  0
  -23.8470  -29.5344   20.4955 C   0  0  0  0  0  0  0  0  0  0  0  0
  -28.7725  -25.7980   18.2189 C   0  0  0  0  0  0  0  0  0  0  0  0
  -21.2422  -23.4557   22.2126 C   0  0  0  0  0  0  0  0  0  0  0  0
  -23.9932  -29.4849   21.8891 C   0  0  0  0  0  0  0  0  0  0  0  0
  -21.7102  -24.2906   23.2272 C   0  0  0  0  0  0  0  0  0  0  0  0
  -19.8238  -25.7612   22.8874 C   0  0  0  0  0  0  0  0  0  0  0  0
  -19.3557  -24.9263   21.8728 C   0  0  0  0  0  0  0  0  0  0  0  0
  -21.0010  -25.4434   23.5646 C   0  0  0  0  0  0  0  0  0  0  0  0
  -22.1081   -9.2216   23.3587 C   0  0  0  0  0  0  0  0  0  0  0  0
  -21.5980  -29.1359   22.1156 C   0  0  0  0  0  0  0  0  0  0  0  0
  -22.5277   -6.9599   23.8397 C   0  0  0  0  0  0  0  0  0  0  0  0
  -24.1646   -4.7167   23.5729 C   0  0  0  0  0  0  0  0  0  0  0  0
  -23.8452   -6.9996   24.2962 C   0  0  0  0  0  0  0  0  0  0  0  0
  -23.3348  -12.7926   21.4505 C   0  0  0  0  0  0  0  0  0  0  0  0
  -24.5000  -14.4976   20.6954 C   0  0  0  0  0  0  0  0  0  0  0  0
  -25.8299  -12.8858   22.0673 C   0  0  0  0  0  0  0  0  0  0  0  0
  -26.5649  -27.8965   20.3106 C   0  0  0  0  0  0  0  0  0  0  0  0
  -27.7125  -30.3535   22.0906 C   0  0  0  0  0  0  0  0  0  0  0  0
  -27.0708  -32.8947   24.2763 C   0  0  0  0  0  0  0  0  0  0  0  0
  -21.8658  -19.0583   19.1849 C   0  0  0  0  0  0  0  0  0  0  0  0
  -31.0082  -25.5487   19.4150 C   0  0  0  0  0  0  0  0  0  0  0  0
  -25.0399  -29.7789   19.6126 C   0  0  0  0  0  0  0  0  0  0  0  0
  -25.3370  -29.6393   22.5515 C   0  0  0  0  0  0  0  0  0  0  0  0
  -30.3256  -26.1660   20.6329 C   0  0  0  0  0  0  0  0  0  0  0  0
  -20.7232  -16.1228   17.7618 C   0  0  0  0  0  0  0  0  0  0  0  0
  -24.0838  -24.9605   23.9962 C   0  0  0  0  0  0  0  0  0  0  0  0
  -24.2318  -23.7291   23.1583 C   0  0  0  0  0  0  0  0  0  0  0  0
  -28.8899  -25.6645   20.7515 C   0  0  0  0  0  0  0  0  0  0  0  0
  -21.4028  -15.0303   18.5871 C   0  0  0  0  0  0  0  0  0  0  0  0
  -21.1561  -20.9271   22.0697 C   0  0  0  0  0  0  0  0  0  0  0  0
  -22.4893  -22.2450   20.3682 C   0  0  0  0  0  0  0  0  0  0  0  0
  -18.1635  -29.0256   22.3545 C   0  0  0  0  0  0  0  0  0  0  0  0
  -20.2456  -17.2629   18.6537 C   0  0  0  0  0  0  0  0  0  0  0  0
  -21.9072  -19.6617   21.6456 C   0  0  0  0  0  0  0  0  0  0  0  0
  -23.2248  -20.9586   20.0040 C   0  0  0  0  0  0  0  0  0  0  0  0
  -22.0170  -16.7932   20.3150 C   0  0  0  0  0  0  0  0  0  0  0  0
  -17.0675  -27.9928   22.2307 C   0  0  0  0  0  0  0  0  0  0  0  0
  -21.9928  -22.1957   21.8245 C   0  0  0  0  0  0  0  0  0  0  0  0
  -22.9732  -23.9474   23.9520 C   0  0  0  0  0  0  0  0  0  0  0  0
  -28.0610  -26.0696   19.5266 C   0  0  1  0  0  0  0  0  0  0  0  0
  -19.0609  -26.9969   23.2470 C   0  0  1  0  0  0  0  0  0  0  0  0
  -26.3596  -29.3844   20.2686 C   0  0  1  0  0  0  0  0  0  0  0  0
  -22.5271  -15.6154   19.4600 C   0  0  1  0  0  0  0  0  0  0  0  0
  -19.4315  -28.1857   22.3591 C   0  0  2  0  0  0  0  0  0  1  0  0
  -18.0980  -25.2437   21.1320 C   0  0  0  0  0  0  0  0  0  0  0  0
  -21.5016  -26.3404   24.6529 C   0  0  0  0  0  0  0  0  0  0  0  0
  -28.2159  -34.7056   25.5829 C   0  0  0  0  0  0  0  0  0  0  0  0
  -28.7230  -28.2743   24.0820 C   0  0  0  0  0  0  0  0  0  0  0  0
  -28.9855  -30.1124   25.7616 C   0  0  0  0  0  0  0  0  0  0  0  0
  -30.3082  -30.1590   23.6471 C   0  0  0  0  0  0  0  0  0  0  0  0
  -25.5461  -35.0192   22.8904 C   0  0  0  0  0  0  0  0  0  0  0  0
  -27.8276  -30.6408   23.5682 C   0  0  1  0  0  0  0  0  0  0  0  0
  -27.5061  -34.3490   24.2861 C   0  0  2  0  0  0  0  0  0  0  0  0
  -28.9359  -29.7917   24.2524 C   0  0  0  0  0  0  0  0  0  0  0  0
  -22.4542  -13.5185   20.7565 N   0  0  0  0  0  0  0  0  0  0  0  0
  -23.1928  -14.5486   20.3099 N   0  0  0  0  0  0  0  0  0  0  0  0
  -26.4740  -29.8703   21.6452 N   0  0  0  0  0  0  0  0  0  0  0  0
  -21.3406  -17.7887   19.4688 N   0  0  0  0  0  0  0  0  0  0  0  0
  -22.3922  -19.7845   20.2639 N   0  0  0  0  0  0  0  0  0  0  0  0
  -25.3816  -15.4537   20.3334 N   0  0  0  0  0  0  0  0  0  0  0  0
  -25.7823  -11.6937   22.8028 N   0  0  0  0  0  0  0  0  0  0  0  0
  -27.6767  -27.4621   19.6145 N   0  0  0  0  0  0  0  0  0  0  0  0
  -28.0181  -32.0820   23.6902 N   0  0  0  0  0  0  0  0  0  0  0  0
  -17.5669  -26.8382   23.0482 N   0  3  0  0  0  0  0  0  0  0  0  0
  -26.3243  -35.2444   24.1356 N   0  3  0  0  0  0  0  0  0  0  0  0
  -26.9126  -13.5141   21.9859 O   0  0  0  0  0  0  0  0  0  0  0  0
  -25.7740  -27.1948   20.9301 O   0  0  0  0  0  0  0  0  0  0  0  0
  -28.6834  -30.5574   21.3575 O   0  0  0  0  0  0  0  0  0  0  0  0
  -25.9995  -32.5169   24.7454 O   0  0  0  0  0  0  0  0  0  0  0  0
  -21.8656  -19.5165   18.0355 O   0  0  0  0  0  0  0  0  0  0  0  0
  -21.7137   -8.0724   23.9721 O   0  0  0  0  0  0  0  0  0  0  0  0
  -20.4985  -28.9361   22.9126 O   0  0  0  0  0  0  0  0  0  1  0  0
  -24.9499   -3.6391   23.4461 F   0  0  0  0  0  0  0  0  0  0  0  0
  -24.3298   -8.1121   24.8648 F   0  0  0  0  0  0  0  0  0  0  0  0
  1  2  1  0  0  0  0
  1  5  2  0  0  0  0
  2  6  2  0  0  0  0
  3  8  2  0  0  0  0
  3 16  1  0  0  0  0
  4  9  1  0  0  0  0
  4 16  2  0  0  0  0
  5 18  1  0  0  0  0
  6 20  1  0  0  0  0
  7 10  2  0  0  0  0
  7 19  1  0  0  0  0
  8 27  1  0  0  0  0
  9 27  2  0  0  0  0
 10 28  1  0  0  0  0
 11 12  2  0  0  0  0
 11 29  1  0  0  0  0
 12 30  1  0  0  0  0
 13 21  1  0  0  0  0
 13 25  2  0  0  0  0
 14 22  1  0  0  0  0
 14 28  2  0  0  0  0
 15 30  2  0  0  0  0
 15 31  1  0  0  0  0
 16 32  1  0  0  0  0
 17 32  1  0  0  0  0
 17 33  2  0  0  0  0
 17 34  1  0  0  0  0
 18 20  2  0  0  0  0
 18 39  1  0  0  0  0
 19 22  2  0  0  0  0
 19 40  1  0  0  0  0
 20 58  1  0  0  0  0
 21 23  2  0  0  0  0
 21 56  1  0  0  0  0
 22 41  1  0  0  0  0
 23 26  1  0  0  0  0
 23 57  1  0  0  0  0
 24 25  1  0  0  0  0
 24 26  2  0  0  0  0
 24 59  1  0  0  0  0
 25 63  1  0  0  0  0
 26 64  1  0  0  0  0
 27 89  1  0  0  0  0
 28 90  1  0  0  0  0
 29 31  2  0  0  0  0
 29 89  1  0  0  0  0
 30 91  1  0  0  0  0
 31 92  1  0  0  0  0
 32 73  2  0  0  0  0
 33 74  1  0  0  0  0
 33 78  1  0  0  0  0
 34 79  1  0  0  0  0
 34 84  2  0  0  0  0
 35 60  1  0  0  0  0
 35 80  1  0  0  0  0
 35 85  2  0  0  0  0
 36 70  1  0  0  0  0
 36 75  1  0  0  0  0
 36 86  2  0  0  0  0
 37 71  1  0  0  0  0
 37 81  1  0  0  0  0
 37 87  2  0  0  0  0
 38 76  1  0  0  0  0
 38 77  1  0  0  0  0
 38 88  2  0  0  0  0
 39 42  1  0  0  0  0
 40 60  1  0  0  0  0
 41 75  1  0  0  0  0
 42 46  1  0  0  0  0
 43 47  1  0  0  0  0
 43 51  1  0  0  0  0
 44 45  1  0  0  0  0
 44 57  1  0  0  0  0
 45 57  1  0  0  0  0
 46 58  1  0  0  0  0
 47 61  1  0  0  0  0
 48 52  1  0  0  0  0
 48 56  1  0  0  0  0
 49 53  1  0  0  0  0
 49 56  1  0  0  0  0
 50 55  1  0  0  0  0
 50 62  1  0  0  0  0
 51 76  1  0  0  0  0
 52 77  1  0  0  0  0
 53 77  1  0  0  0  0
 54 61  1  0  0  0  0
 54 76  1  0  0  0  0
 55 82  1  0  0  0  0
 58 80  1  0  0  0  0
 59 62  1  0  0  0  0
 59 82  1  0  0  0  0
 60 75  1  0  0  0  0
 61 74  1  0  0  0  0
 62 90  1  0  0  0  0
 65 71  1  0  0  0  0
 66 72  1  0  0  0  0
 67 72  1  0  0  0  0
 68 72  1  0  0  0  0
 69 83  1  0  0  0  0
 70 72  1  0  0  0  0
 70 81  1  0  0  0  0
 71 83  1  0  0  0  0
 73 74  1  0  0  0  0
M  CHG  2  82   1  83   1
M  ISO  4  38 100  62 101  77 100  90 101
M  END
> <Batch ID>
0169

> <Smiles>
CNC(C)C(=O)NC(C(=O)N1Cc2cc([101O:1][101CH:1]3CCNC3c3c(C)cc(C4CC[100N:0]([100C:0](=O)N5CCCC(n6nc(-c7ccc(Oc8ccc(F)cc8F)cc7)c(C(N)=O)c6N)C5)CC4)c(C4CC4)c3C)ccc2CC1C(=O)NC1CCCc2ccccc21)C(C)(C)C

> <Shape>
0.269

> <Color>
0.063

> <Negative vol penalty>
0.000

$$$$

  -OEChem-04052322323D

 87 96  0     1  0  0  0  0  0999 V2000
  -33.9946  -10.9376   18.1907 C   0  0  0  0  0  0  0  0  0  0  0  0
  -33.5405  -12.2461   18.0606 C   0  0  0  0  0  0  0  0  0  0  0  0
  -24.3208  -30.8396   20.6888 C   0  0  0  0  0  0  0  0  0  0  0  0
  -23.7473  -30.7487   23.0340 C   0  0  0  0  0  0  0  0  0  0  0  0
  -33.0799   -9.8886   18.2736 C   0  0  0  0  0  0  0  0  0  0  0  0
  -32.1715  -12.5064   18.0123 C   0  0  0  0  0  0  0  0  0  0  0  0
  -30.8347  -16.4251   20.9281 C   0  0  0  0  0  0  0  0  0  0  0  0
  -23.0237  -30.4490   20.3565 C   0  0  0  0  0  0  0  0  0  0  0  0
  -22.4502  -30.3581   22.7017 C   0  0  0  0  0  0  0  0  0  0  0  0
  -31.0878  -17.7033   20.4321 C   0  0  0  0  0  0  0  0  0  0  0  0
  -20.8690  -27.5271   21.7447 C   0  0  0  0  0  0  0  0  0  0  0  0
  -20.3049  -26.4738   22.4644 C   0  0  0  0  0  0  0  0  0  0  0  0
  -28.7791  -17.8927   19.7590 C   0  0  0  0  0  0  0  0  0  0  0  0
  -18.5260  -27.9319   23.2040 C   0  0  0  0  0  0  0  0  0  0  0  0
  -30.5052  -24.0981   17.2564 C   0  0  0  0  0  0  0  0  0  0  0  0
  -24.6827  -30.9895   22.0276 C   0  0  0  0  0  0  0  0  0  0  0  0
  -26.4985  -32.7067   22.5391 C   0  0  0  0  0  0  0  0  0  0  0  0
  -31.6987  -10.1370   18.2360 C   0  0  0  0  0  0  0  0  0  0  0  0
  -29.5523  -15.8659   20.8332 C   0  0  0  0  0  0  0  0  0  0  0  0
  -31.2375  -11.4596   18.0934 C   0  0  0  0  0  0  0  0  0  0  0  0
  -28.5117  -16.6083   20.2568 C   0  0  0  0  0  0  0  0  0  0  0  0
  -29.9254  -22.7555   19.1320 C   0  0  0  0  0  0  0  0  0  0  0  0
  -29.6663  -21.7036   18.2605 C   0  0  0  0  0  0  0  0  0  0  0  0
  -22.0884  -30.2082   21.3629 C   0  0  0  0  0  0  0  0  0  0  0  0
  -30.0607  -18.4362   19.8449 C   0  0  0  0  0  0  0  0  0  0  0  0
  -20.2616  -28.7828   21.7547 C   0  0  0  0  0  0  0  0  0  0  0  0
  -30.3532  -23.9789   18.6284 C   0  0  0  0  0  0  0  0  0  0  0  0
  -19.1334  -26.6762   23.1941 C   0  0  0  0  0  0  0  0  0  0  0  0
  -19.0902  -28.9852   22.4843 C   0  0  0  0  0  0  0  0  0  0  0  0
  -26.0226  -31.3924   22.3716 C   0  0  0  0  0  0  0  0  0  0  0  0
  -29.8488  -21.9246   16.9049 C   0  0  0  0  0  0  0  0  0  0  0  0
  -27.8255  -32.5532   22.8585 C   0  0  0  0  0  0  0  0  0  0  0  0
  -25.8032  -33.9546   22.4170 C   0  0  0  0  0  0  0  0  0  0  0  0
  -28.3183  -13.3152   19.3926 C   0  0  0  0  0  0  0  0  0  0  0  0
  -25.6348  -14.1964   20.9878 C   0  0  0  0  0  0  0  0  0  0  0  0
  -23.8488  -16.6780   22.5040 C   0  0  0  0  0  0  0  0  0  0  0  0
  -31.7723  -28.1872   21.7794 C   0  0  0  0  0  0  0  0  0  0  0  0
  -30.7491   -8.9662   18.2816 C   0  0  0  0  0  0  0  0  0  0  0  0
  -29.2893  -14.4965   21.3971 C   0  0  0  0  0  0  0  0  0  0  0  0
  -27.1126  -16.0613   20.1489 C   0  0  0  0  0  0  0  0  0  0  0  0
  -29.3094   -9.3617   18.5997 C   0  0  0  0  0  0  0  0  0  0  0  0
  -30.8661  -29.5156   24.9230 C   0  0  0  0  0  0  0  0  0  0  0  0
  -28.8868  -10.5612   17.7574 C   0  0  0  0  0  0  0  0  0  0  0  0
  -29.5514  -30.2447   24.6598 C   0  0  0  0  0  0  0  0  0  0  0  0
  -31.7008  -26.8905   18.3120 C   0  0  0  0  0  0  0  0  0  0  0  0
  -30.9455  -28.2331   24.1061 C   0  0  0  0  0  0  0  0  0  0  0  0
  -32.4511  -27.3987   19.5348 C   0  0  0  0  0  0  0  0  0  0  0  0
  -29.5094  -29.2047   22.3333 C   0  0  0  0  0  0  0  0  0  0  0  0
  -30.1019  -27.3154   20.0351 C   0  0  0  0  0  0  0  0  0  0  0  0
  -29.7598  -11.7845   18.0623 C   0  0  1  0  0  0  0  0  0  0  0  0
  -28.0655  -13.8228   20.7841 C   0  0  1  0  0  0  0  0  0  0  0  0
  -29.3657  -30.5017   23.1563 C   0  0  1  0  0  0  0  0  0  0  0  0
  -30.4080  -26.3403   18.9047 C   0  0  2  0  0  0  0  0  0  0  0  0
  -29.5846  -20.8330   15.9199 C   0  0  0  0  0  0  0  0  0  0  0  0
  -28.6680  -23.5159   21.1800 C   0  0  0  0  0  0  0  0  0  0  0  0
  -31.0642  -22.7591   21.3808 C   0  0  0  0  0  0  0  0  0  0  0  0
  -21.6740  -17.1021   23.6820 C   0  0  0  0  0  0  0  0  0  0  0  0
  -24.1765  -14.1478   18.3080 C   0  0  0  0  0  0  0  0  0  0  0  0
  -22.3299  -15.4648   19.3680 C   0  0  0  0  0  0  0  0  0  0  0  0
  -22.8809  -13.1853   20.2183 C   0  0  0  0  0  0  0  0  0  0  0  0
  -25.2236  -17.4948   24.9943 C   0  0  0  0  0  0  0  0  0  0  0  0
  -29.2075  -20.3788   18.7705 C   0  0  0  0  0  0  0  0  0  1  0  0
  -29.7466  -22.5801   20.6056 C   0  0  0  0  0  0  0  0  0  0  0  0
  -24.4626  -15.1002   20.6907 C   0  0  1  0  0  0  0  0  0  0  0  0
  -23.1404  -16.7338   23.8455 C   0  0  2  0  0  0  0  0  0  0  0  0
  -23.4892  -14.4843   19.6464 C   0  0  0  0  0  0  0  0  0  0  0  0
  -30.2631  -23.0989   16.3785 N   0  0  0  0  0  0  0  0  0  0  0  0
  -26.9702  -30.4719   22.5682 N   0  0  0  0  0  0  0  0  0  0  0  0
  -28.0549  -31.2088   22.8624 N   0  0  0  0  0  0  0  0  0  0  0  0
  -26.9071  -14.7154   20.7091 N   0  0  0  0  0  0  0  0  0  0  0  0
  -30.7421  -28.4849   22.6783 N   0  0  0  0  0  0  0  0  0  0  0  0
  -31.4187  -27.7691   20.4967 N   0  0  0  0  0  0  0  0  0  0  0  0
  -28.8068  -33.4385   23.1335 N   0  0  0  0  0  0  0  0  0  0  0  0
  -24.4423  -33.9313   22.0825 N   0  0  0  0  0  0  0  0  0  0  0  0
  -29.3502  -12.4002   19.3063 N   0  0  0  0  0  0  0  0  0  0  0  0
  -23.8450  -15.4038   21.9770 N   0  0  0  0  0  0  0  0  0  0  0  0
  -23.7837  -17.7467   24.7292 N   0  3  0  0  0  0  0  0  0  0  0  0
  -26.3758  -35.0583   22.5829 O   0  0  0  0  0  0  0  0  0  0  0  0
  -27.6273  -13.7225   18.4661 O   0  0  0  0  0  0  0  0  0  0  0  0
  -25.4294  -13.0741   21.4567 O   0  0  0  0  0  0  0  0  0  0  0  0
  -24.3518  -17.6666   21.9747 O   0  0  0  0  0  0  0  0  0  0  0  0
  -32.9611  -28.2504   22.1208 O   0  0  0  0  0  0  0  0  0  0  0  0
  -20.8225  -29.8273   21.0390 O   0  0  0  0  0  0  0  0  0  0  0  0
  -30.6211  -25.0437   19.4482 O   0  0  0  0  0  0  0  0  0  0  0  0
  -30.3069  -19.6924   19.3560 O   0  0  0  0  0  0  0  0  0  1  0  0
  -18.5910  -25.6643   23.8839 F   0  0  0  0  0  0  0  0  0  0  0  0
  -18.5015  -30.1890   22.4967 F   0  0  0  0  0  0  0  0  0  0  0  0
  1  2  1  0  0  0  0
  1  5  2  0  0  0  0
  2  6  2  0  0  0  0
  3  8  2  0  0  0  0
  3 16  1  0  0  0  0
  4  9  1  0  0  0  0
  4 16  2  0  0  0  0
  5 18  1  0  0  0  0
  6 20  1  0  0  0  0
  7 10  2  0  0  0  0
  7 19  1  0  0  0  0
  8 24  1  0  0  0  0
  9 24  2  0  0  0  0
 10 25  1  0  0  0  0
 11 12  2  0  0  0  0
 11 26  1  0  0  0  0
 12 28  1  0  0  0  0
 13 21  1  0  0  0  0
 13 25  2  0  0  0  0
 14 28  2  0  0  0  0
 14 29  1  0  0  0  0
 15 27  2  0  0  0  0
 15 67  1  0  0  0  0
 16 30  1  0  0  0  0
 17 30  1  0  0  0  0
 17 32  2  0  0  0  0
 17 33  1  0  0  0  0
 18 20  2  0  0  0  0
 18 38  1  0  0  0  0
 19 21  2  0  0  0  0
 19 39  1  0  0  0  0
 20 50  1  0  0  0  0
 21 40  1  0  0  0  0
 22 23  2  0  0  0  0
 22 27  1  0  0  0  0
 22 63  1  0  0  0  0
 23 31  1  0  0  0  0
 23 62  1  0  0  0  0
 24 83  1  0  0  0  0
 25 85  1  0  0  0  0
 26 29  2  0  0  0  0
 26 83  1  0  0  0  0
 27 84  1  0  0  0  0
 28 86  1  0  0  0  0
 29 87  1  0  0  0  0
 30 68  2  0  0  0  0
 31 54  1  0  0  0  0
 31 67  2  0  0  0  0
 32 69  1  0  0  0  0
 32 73  1  0  0  0  0
 33 74  1  0  0  0  0
 33 78  2  0  0  0  0
 34 51  1  0  0  0  0
 34 75  1  0  0  0  0
 34 79  2  0  0  0  0
 35 64  1  0  0  0  0
 35 70  1  0  0  0  0
 35 80  2  0  0  0  0
 36 65  1  0  0  0  0
 36 76  1  0  0  0  0
 36 81  2  0  0  0  0
 37 71  1  0  0  0  0
 37 72  1  0  0  0  0
 37 82  2  0  0  0  0
 38 41  1  0  0  0  0
 39 51  1  0  0  0  0
 40 70  1  0  0  0  0
 41 43  1  0  0  0  0
 42 44  1  0  0  0  0
 42 46  1  0  0  0  0
 43 50  1  0  0  0  0
 44 52  1  0  0  0  0
 45 47  1  0  0  0  0
 45 53  1  0  0  0  0
 46 71  1  0  0  0  0
 47 72  1  0  0  0  0
 48 52  1  0  0  0  0
 48 71  1  0  0  0  0
 49 53  1  0  0  0  0
 49 72  1  0  0  0  0
 50 75  1  0  0  0  0
 51 70  1  0  0  0  0
 52 69  1  0  0  0  0
 53 84  1  0  0  0  0
 55 63  1  0  0  0  0
 56 63  1  0  0  0  0
 57 65  1  0  0  0  0
 58 66  1  0  0  0  0
 59 66  1  0  0  0  0
 60 66  1  0  0  0  0
 61 77  1  0  0  0  0
 62 85  1  0  0  0  0
 64 66  1  0  0  0  0
 64 76  1  0  0  0  0
 65 77  1  0  0  0  0
 68 69  1  0  0  0  0
M  CHG  1  77   1
M  ISO  4  37 100  62 101  72 100  85 101
M  END
> <Batch ID>
0169

> <Smiles>
CNC(C)C(=O)NC(C(=O)N1Cc2cc([101O:1][101CH2:1]c3c(C)ncc(OC4CC[100N:0]([100C:0](=O)N5CCCC(n6nc(-c7ccc(Oc8ccc(F)cc8F)cc7)c(C(N)=O)c6N)C5)C4)c3C(C)C)ccc2CC1C(=O)NC1CCCc2ccccc21)C(C)(C)C

> <Shape>
0.304

> <Color>
0.056

> <Negative vol penalty>
0.000

$$$$

  -OEChem-04052322323D

 84 93  0     1  0  0  0  0  0999 V2000
  -20.5645  -29.8297   23.1665 C   0  0  0  0  0  0  0  0  0  0  0  0
  -20.5702  -28.6270   22.4675 C   0  0  0  0  0  0  0  0  0  0  0  0
  -29.1757  -11.7835   19.9393 C   0  0  0  0  0  0  0  0  0  0  0  0
  -28.0539  -13.9188   19.8022 C   0  0  0  0  0  0  0  0  0  0  0  0
  -21.5806  -30.7612   22.9571 C   0  0  0  0  0  0  0  0  0  0  0  0
  -21.5914  -28.3554   21.5577 C   0  0  0  0  0  0  0  0  0  0  0  0
  -23.3979  -23.6465   22.0132 C   0  0  0  0  0  0  0  0  0  0  0  0
  -30.1515  -12.2391   19.0528 C   0  0  0  0  0  0  0  0  0  0  0  0
  -29.0297  -14.3745   18.9157 C   0  0  0  0  0  0  0  0  0  0  0  0
  -22.6393  -22.6170   21.4579 C   0  0  0  0  0  0  0  0  0  0  0  0
  -31.4231  -16.2225   16.8970 C   0  0  0  0  0  0  0  0  0  0  0  0
  -31.9452  -17.4988   17.1063 C   0  0  0  0  0  0  0  0  0  0  0  0
  -18.7785  -16.5457   19.7690 C   0  0  0  0  0  0  0  0  0  0  0  0
  -24.0930  -22.5922   19.5330 C   0  0  0  0  0  0  0  0  0  0  0  0
  -32.7192  -16.8236   19.2931 C   0  0  0  0  0  0  0  0  0  0  0  0
  -20.2876  -15.8456   18.0424 C   0  0  0  0  0  0  0  0  0  0  0  0
  -28.1269  -12.6233   20.3140 C   0  0  0  0  0  0  0  0  0  0  0  0
  -27.1326  -12.2509   22.6335 C   0  0  0  0  0  0  0  0  0  0  0  0
  -22.6200  -30.4969   22.0514 C   0  0  0  0  0  0  0  0  0  0  0  0
  -24.5052  -24.1649   21.3265 C   0  0  0  0  0  0  0  0  0  0  0  0
  -22.6216  -29.2848   21.3349 C   0  0  0  0  0  0  0  0  0  0  0  0
  -18.8156  -15.2475   20.2360 C   0  0  0  0  0  0  0  0  0  0  0  0
  -24.8656  -23.6266   20.0829 C   0  0  0  0  0  0  0  0  0  0  0  0
  -19.5399  -16.8572   18.6452 C   0  0  0  0  0  0  0  0  0  0  0  0
  -30.0785  -13.5346   18.5410 C   0  0  0  0  0  0  0  0  0  0  0  0
  -22.9851  -22.0917   20.2163 C   0  0  0  0  0  0  0  0  0  0  0  0
  -31.5489  -15.2466   17.8858 C   0  0  0  0  0  0  0  0  0  0  0  0
  -32.5933  -17.7994   18.3043 C   0  0  0  0  0  0  0  0  0  0  0  0
  -32.1970  -15.5472   19.0838 C   0  0  0  0  0  0  0  0  0  0  0  0
  -27.1183  -12.1530   21.2292 C   0  0  0  0  0  0  0  0  0  0  0  0
  -19.5944  -14.3080   19.5667 C   0  0  0  0  0  0  0  0  0  0  0  0
  -25.9579  -11.6602   23.0308 C   0  0  0  0  0  0  0  0  0  0  0  0
  -28.1193  -12.8245   23.5012 C   0  0  0  0  0  0  0  0  0  0  0  0
  -25.2781  -27.0111   20.1408 C   0  0  0  0  0  0  0  0  0  0  0  0
  -28.1221  -25.5631   19.5597 C   0  0  0  0  0  0  0  0  0  0  0  0
  -29.8439  -22.6625   19.0413 C   0  0  0  0  0  0  0  0  0  0  0  0
  -20.6943  -10.8133   20.3053 C   0  0  0  0  0  0  0  0  0  0  0  0
  -23.6708  -31.5545   21.8235 C   0  0  0  0  0  0  0  0  0  0  0  0
  -25.3291  -25.2573   21.9512 C   0  0  0  0  0  0  0  0  0  0  0  0
  -18.0785  -14.6326   21.3789 C   0  0  0  0  0  0  0  0  0  0  0  0
  -26.0572  -24.1342   19.3143 C   0  0  0  0  0  0  0  0  0  0  0  0
  -24.9195  -31.0306   21.1189 C   0  0  0  0  0  0  0  0  0  0  0  0
  -18.8814  -13.3362   21.5826 C   0  0  0  0  0  0  0  0  0  0  0  0
  -22.8119   -8.3118   21.6961 C   0  0  0  0  0  0  0  0  0  0  0  0
  -24.5344  -30.1702   19.9196 C   0  0  0  0  0  0  0  0  0  0  0  0
  -24.1570   -9.0214   21.8609 C   0  0  0  0  0  0  0  0  0  0  0  0
  -22.0846   -8.7671   20.4329 C   0  0  0  0  0  0  0  0  0  0  0  0
  -23.2540  -10.9360   20.4761 C   0  0  0  0  0  0  0  0  0  0  0  0
  -23.7256  -28.9433   20.3579 C   0  0  1  0  0  0  0  0  0  0  0  0
  -19.4377  -12.9508   20.1996 C   0  0  2  0  0  0  0  0  0  0  0  0
  -26.1310  -26.0589   20.9306 C   0  0  1  0  0  0  0  0  0  0  0  0
  -23.9995  -10.5509   21.7654 C   0  0  2  0  0  0  0  0  0  0  0  0
  -32.1501  -21.8005   18.5559 C   0  0  0  0  0  0  0  0  0  0  0  0
  -27.8442  -26.4614   16.6570 C   0  0  0  0  0  0  0  0  0  0  0  0
  -29.6234  -24.8085   16.0481 C   0  0  0  0  0  0  0  0  0  0  0  0
  -30.1483  -26.6873   17.6030 C   0  0  0  0  0  0  0  0  0  0  0  0
  -29.9153  -21.1016   21.5548 C   0  0  0  0  0  0  0  0  0  0  0  0
  -19.5505  -18.2508   18.0895 C   0  0  0  0  0  0  0  0  0  0  0  0
  -20.8691  -20.3536   17.8097 C   0  0  0  0  0  0  0  0  0  0  0  0
  -22.1718  -21.0126   18.2182 C   0  0  0  0  0  0  0  0  0  1  0  0
  -28.7057  -24.7750   18.4120 C   0  0  1  0  0  0  0  0  0  0  0  0
  -31.1372  -22.1383   19.6388 C   0  0  2  0  0  0  0  0  0  0  0  0
  -29.0567  -25.6746   17.1934 C   0  0  0  0  0  0  0  0  0  0  0  0
  -20.3312  -14.5614   18.4716 N   0  0  0  0  0  0  0  0  0  0  0  0
  -26.0216  -11.5477   20.7656 N   0  0  0  0  0  0  0  0  0  0  0  0
  -25.3359  -11.2598   21.8850 N   0  0  0  0  0  0  0  0  0  0  0  0
  -26.8276  -25.2074   19.9642 N   0  0  0  0  0  0  0  0  0  0  0  0
  -21.9668  -10.2270   20.4046 N   0  0  0  0  0  0  0  0  0  0  0  0
  -25.4068  -11.4495   24.2450 N   0  0  0  0  0  0  0  0  0  0  0  0
  -29.2664  -13.3894   22.9273 N   0  0  0  0  0  0  0  0  0  0  0  0
  -24.6005  -27.9338   20.9147 N   0  0  0  0  0  0  0  0  0  0  0  0
  -29.8408  -24.0388   18.9578 N   0  0  0  0  0  0  0  0  0  0  0  0
  -20.6716  -12.2026   20.2912 N   0  0  0  0  0  0  0  0  0  0  0  0
  -30.8770  -20.9083   20.4391 N   0  3  0  0  0  0  0  0  0  0  0  0
  -20.8036  -18.9917   18.3973 N   0  3  0  0  0  0  0  0  0  0  0  0
  -27.9954  -12.8210   24.7495 O   0  0  0  0  0  0  0  0  0  0  0  0
  -25.2390  -26.9165   18.9197 O   0  0  0  0  0  0  0  0  0  0  0  0
  -28.7928  -26.4563   20.0830 O   0  0  0  0  0  0  0  0  0  0  0  0
  -28.9294  -21.9246   18.6811 O   0  0  0  0  0  0  0  0  0  0  0  0
  -19.6550  -10.1481   20.2397 O   0  0  0  0  0  0  0  0  0  0  0  0
  -31.0306  -13.9797   17.6762 O   0  0  0  0  0  0  0  0  0  0  0  0
  -22.2459  -21.0872   19.6717 O   0  0  0  0  0  0  0  0  0  1  0  0
  -33.0961  -19.0247   18.5045 F   0  0  0  0  0  0  0  0  0  0  0  0
  -32.3220  -14.6135   20.0369 F   0  0  0  0  0  0  0  0  0  0  0  0
  1  2  1  0  0  0  0
  1  5  2  0  0  0  0
  2  6  2  0  0  0  0
  3  8  2  0  0  0  0
  3 17  1  0  0  0  0
  4  9  1  0  0  0  0
  4 17  2  0  0  0  0
  5 19  1  0  0  0  0
  6 21  1  0  0  0  0
  7 10  2  0  0  0  0
  7 20  1  0  0  0  0
  8 25  1  0  0  0  0
  9 25  2  0  0  0  0
 10 26  1  0  0  0  0
 11 12  2  0  0  0  0
 11 27  1  0  0  0  0
 12 28  1  0  0  0  0
 13 22  1  0  0  0  0
 13 24  2  0  0  0  0
 14 23  1  0  0  0  0
 14 26  2  0  0  0  0
 15 28  2  0  0  0  0
 15 29  1  0  0  0  0
 16 24  1  0  0  0  0
 16 64  2  0  0  0  0
 17 30  1  0  0  0  0
 18 30  1  0  0  0  0
 18 32  2  0  0  0  0
 18 33  1  0  0  0  0
 19 21  2  0  0  0  0
 19 38  1  0  0  0  0
 20 23  2  0  0  0  0
 20 39  1  0  0  0  0
 21 49  1  0  0  0  0
 22 31  2  0  0  0  0
 22 40  1  0  0  0  0
 23 41  1  0  0  0  0
 24 58  1  0  0  0  0
 25 81  1  0  0  0  0
 26 82  1  0  0  0  0
 27 29  2  0  0  0  0
 27 81  1  0  0  0  0
 28 83  1  0  0  0  0
 29 84  1  0  0  0  0
 30 65  2  0  0  0  0
 31 50  1  0  0  0  0
 31 64  1  0  0  0  0
 32 66  1  0  0  0  0
 32 69  1  0  0  0  0
 33 70  1  0  0  0  0
 33 76  2  0  0  0  0
 34 51  1  0  0  0  0
 34 71  1  0  0  0  0
 34 77  2  0  0  0  0
 35 61  1  0  0  0  0
 35 67  1  0  0  0  0
 35 78  2  0  0  0  0
 36 62  1  0  0  0  0
 36 72  1  0  0  0  0
 36 79  2  0  0  0  0
 37 68  1  0  0  0  0
 37 73  1  0  0  0  0
 37 80  2  0  0  0  0
 38 42  1  0  0  0  0
 39 51  1  0  0  0  0
 40 43  1  0  0  0  0
 41 67  1  0  0  0  0
 42 45  1  0  0  0  0
 43 50  1  0  0  0  0
 44 46  1  0  0  0  0
 44 47  1  0  0  0  0
 45 49  1  0  0  0  0
 46 52  1  0  0  0  0
 47 68  1  0  0  0  0
 48 52  1  0  0  0  0
 48 68  1  0  0  0  0
 49 71  1  0  0  0  0
 50 73  1  0  0  0  0
 51 67  1  0  0  0  0
 52 66  1  0  0  0  0
 53 62  1  0  0  0  0
 54 63  1  0  0  0  0
 55 63  1  0  0  0  0
 56 63  1  0  0  0  0
 57 74  1  0  0  0  0
 58 75  1  0  0  0  0
 59 60  1  0  0  0  0
 59 75  1  0  0  0  0
 60 82  1  0  0  0  0
 61 63  1  0  0  0  0
 61 72  1  0  0  0  0
 62 74  1  0  0  0  0
 65 66  1  0  0  0  0
M  CHG  2  74   1  75   1
M  ISO  4  37 100  60 101  73 100  82 101
M  END
> <Batch ID>
0169

> <Smiles>
CNC(C)C(=O)NC(C(=O)N1Cc2cc([101O:1][101CH2:1]CNCc3cnc4c(c3)CCC4[100NH:0][100C:0](=O)N3CCCC(n4nc(-c5ccc(Oc6ccc(F)cc6F)cc5)c(C(N)=O)c4N)C3)ccc2CC1C(=O)NC1CCCc2ccccc21)C(C)(C)C

> <Shape>
0.209

> <Color>
0.076

> <Negative vol penalty>
0.000

$$$$

  -OEChem-04052322323D

 87 96  0     1  0  0  0  0  0999 V2000
  -24.9531  -30.0734   24.8334 C   0  0  0  0  0  0  0  0  0  0  0  0
  -25.4281  -28.7751   24.6774 C   0  0  0  0  0  0  0  0  0  0  0  0
  -22.5246  -24.2551   22.9208 C   0  0  0  0  0  0  0  0  0  0  0  0
  -20.4189  -24.1389   21.7421 C   0  0  0  0  0  0  0  0  0  0  0  0
  -24.5292  -30.7978   23.7202 C   0  0  0  0  0  0  0  0  0  0  0  0
  -25.4783  -28.2001   23.4080 C   0  0  0  0  0  0  0  0  0  0  0  0
  -29.6864  -24.2779   21.3070 C   0  0  0  0  0  0  0  0  0  0  0  0
  -22.0615  -25.3572   23.6395 C   0  0  0  0  0  0  0  0  0  0  0  0
  -19.9557  -25.2409   22.4608 C   0  0  0  0  0  0  0  0  0  0  0  0
  -29.6947  -22.8894   21.1816 C   0  0  0  0  0  0  0  0  0  0  0  0
  -18.3491  -28.2448   23.7279 C   0  0  0  0  0  0  0  0  0  0  0  0
  -17.6859  -29.2478   23.0209 C   0  0  0  0  0  0  0  0  0  0  0  0
  -29.0046  -23.0993   18.8797 C   0  0  0  0  0  0  0  0  0  0  0  0
  -19.6605  -29.6047   21.6752 C   0  0  0  0  0  0  0  0  0  0  0  0
  -21.7033  -23.6460   21.9720 C   0  0  0  0  0  0  0  0  0  0  0  0
  -23.3027  -22.4574   20.3793 C   0  0  0  0  0  0  0  0  0  0  0  0
  -24.5833  -30.2349   22.4353 C   0  0  0  0  0  0  0  0  0  0  0  0
  -29.3260  -25.0886   20.2210 C   0  0  0  0  0  0  0  0  0  0  0  0
  -25.0535  -28.9173   22.2767 C   0  0  0  0  0  0  0  0  0  0  0  0
  -28.9951  -24.4979   18.9931 C   0  0  0  0  0  0  0  0  0  0  0  0
  -28.4732  -18.0191   20.4295 C   0  0  0  0  0  0  0  0  0  0  0  0
  -29.6836  -18.6854   20.5853 C   0  0  0  0  0  0  0  0  0  0  0  0
  -28.4664  -16.6782   20.0616 C   0  0  0  0  0  0  0  0  0  0  0  0
  -20.7771  -25.8501   23.4096 C   0  0  0  0  0  0  0  0  0  0  0  0
  -29.3510  -22.2998   19.9687 C   0  0  0  0  0  0  0  0  0  0  0  0
  -19.6680  -27.9218   23.4086 C   0  0  0  0  0  0  0  0  0  0  0  0
  -18.3416  -29.9277   21.9945 C   0  0  0  0  0  0  0  0  0  0  0  0
  -20.3237  -28.6018   22.3822 C   0  0  0  0  0  0  0  0  0  0  0  0
  -22.1813  -22.5078   21.2288 C   0  0  0  0  0  0  0  0  0  0  0  0
  -30.8502  -17.9715   20.3632 C   0  0  0  0  0  0  0  0  0  0  0  0
  -29.6875  -16.0542   19.8628 C   0  0  0  0  0  0  0  0  0  0  0  0
  -23.3273  -21.1633   19.9196 C   0  0  0  0  0  0  0  0  0  0  0  0
  -24.2385  -23.4880   20.0363 C   0  0  0  0  0  0  0  0  0  0  0  0
  -27.0025  -27.1838   19.6596 C   0  0  0  0  0  0  0  0  0  0  0  0
  -28.6532  -27.6895   16.9134 C   0  0  0  0  0  0  0  0  0  0  0  0
  -30.8524  -26.4950   14.5932 C   0  0  0  0  0  0  0  0  0  0  0  0
  -22.9061  -15.6712   20.8169 C   0  0  0  0  0  0  0  0  0  0  0  0
  -24.0697  -31.0399   21.2679 C   0  0  0  0  0  0  0  0  0  0  0  0
  -29.3479  -26.5857   20.3648 C   0  0  0  0  0  0  0  0  0  0  0  0
  -28.6203  -25.3243   17.7910 C   0  0  0  0  0  0  0  0  0  0  0  0
  -24.5063  -30.4924   19.9114 C   0  0  0  0  0  0  0  0  0  0  0  0
  -19.8839  -17.4755   20.2804 C   0  0  0  0  0  0  0  0  0  0  0  0
  -24.2988  -28.9823   19.8534 C   0  0  0  0  0  0  0  0  0  0  0  0
  -20.3035  -18.9403   20.4154 C   0  0  0  0  0  0  0  0  0  0  0  0
  -20.6433  -16.5787   21.2557 C   0  0  0  0  0  0  0  0  0  0  0  0
  -22.5316  -18.1608   21.3248 C   0  0  0  0  0  0  0  0  0  0  0  0
  -26.6031  -15.2651   20.9710 C   0  0  0  0  0  0  0  0  0  0  0  0
  -26.5538  -15.9088   18.6310 C   0  0  0  0  0  0  0  0  0  0  0  0
  -25.1465  -28.2679   20.9129 C   0  0  1  0  0  0  0  0  0  0  0  0
  -28.4669  -27.2970   19.3425 C   0  0  1  0  0  0  0  0  0  0  0  0
  -21.8334  -19.0961   20.3228 C   0  0  2  0  0  0  0  0  0  0  0  0
  -25.2299  -14.9151   20.3843 C   0  0  2  0  0  0  0  0  0  0  0  0
  -25.4867  -14.8419   18.8811 C   0  0  2  0  0  0  0  0  0  0  0  0
  -27.1846  -18.7446   20.6582 C   0  0  0  0  0  0  0  0  0  0  0  0
  -32.1808  -18.6329   20.5174 C   0  0  0  0  0  0  0  0  0  0  0  0
  -29.7472  -14.6148   19.4656 C   0  0  0  0  0  0  0  0  0  0  0  0
  -31.9797  -27.1229   12.4409 C   0  0  0  0  0  0  0  0  0  0  0  0
  -26.0552  -27.1639   15.4022 C   0  0  0  0  0  0  0  0  0  0  0  0
  -27.4097  -26.8632   13.3182 C   0  0  0  0  0  0  0  0  0  0  0  0
  -27.4195  -29.0577   14.5042 C   0  0  0  0  0  0  0  0  0  0  0  0
  -33.5435  -26.2883   15.8075 C   0  0  0  0  0  0  0  0  0  0  0  0
  -29.7248  -20.1316   20.9827 C   0  0  0  0  0  0  0  0  0  1  0  0
  -28.6329  -27.0901   15.5280 C   0  0  1  0  0  0  0  0  0  0  0  0
  -32.0832  -27.1166   13.9581 C   0  0  2  0  0  0  0  0  0  0  0  0
  -27.3845  -27.5278   14.7112 C   0  0  0  0  0  0  0  0  0  0  0  0
  -21.5399  -21.3388   21.3060 N   0  0  0  0  0  0  0  0  0  0  0  0
  -30.8834  -16.6684   20.0047 N   0  0  0  0  0  0  0  0  0  0  0  0
  -22.2605  -20.5416   20.4990 N   0  0  0  0  0  0  0  0  0  0  0  0
  -27.2810  -15.9924   19.8977 N   0  0  3  0  0  0  0  0  0  0  0  0
  -28.6504  -26.7836   17.9835 N   0  0  0  0  0  0  0  0  0  0  0  0
  -22.0884  -16.7735   21.1158 N   0  0  0  0  0  0  0  0  0  0  0  0
  -24.1571  -20.5079   19.0804 N   0  0  0  0  0  0  0  0  0  0  0  0
  -25.3828  -23.6428   20.8306 N   0  0  0  0  0  0  0  0  0  0  0  0
  -26.5264  -28.1849   20.4845 N   0  0  0  0  0  0  0  0  0  0  0  0
  -29.9059  -27.4460   14.9105 N   0  0  0  0  0  0  0  0  0  0  0  0
  -24.2631  -15.9443   20.6952 N   0  0  0  0  0  0  0  0  0  0  0  0
  -26.0562  -13.5051   18.5444 N   0  3  0  0  0  0  0  0  0  0  0  0
  -33.3051  -26.3551   14.3426 N   0  3  0  0  0  0  0  0  0  0  0  0
  -24.0569  -24.2599   19.0643 O   0  0  0  0  0  0  0  0  0  0  0  0
  -26.3524  -26.2575   19.1894 O   0  0  0  0  0  0  0  0  0  0  0  0
  -28.6781  -28.9161   17.0413 O   0  0  0  0  0  0  0  0  0  0  0  0
  -30.7403  -25.2862   14.7849 O   0  0  0  0  0  0  0  0  0  0  0  0
  -22.4592  -14.5293   20.6642 O   0  0  0  0  0  0  0  0  0  0  0  0
  -20.3248  -26.9253   24.1109 O   0  0  0  0  0  0  0  0  0  0  0  0
  -29.3576  -20.9447   19.8437 O   0  0  0  0  0  0  0  0  0  1  0  0
  -17.7041  -30.8898   21.3147 F   0  0  0  0  0  0  0  0  0  0  0  0
  -21.5903  -28.2951   22.0701 F   0  0  0  0  0  0  0  0  0  0  0  0
  1  2  1  0  0  0  0
  1  5  2  0  0  0  0
  2  6  2  0  0  0  0
  3  8  2  0  0  0  0
  3 15  1  0  0  0  0
  4  9  1  0  0  0  0
  4 15  2  0  0  0  0
  5 17  1  0  0  0  0
  6 19  1  0  0  0  0
  7 10  2  0  0  0  0
  7 18  1  0  0  0  0
  8 24  1  0  0  0  0
  9 24  2  0  0  0  0
 10 25  1  0  0  0  0
 11 12  2  0  0  0  0
 11 26  1  0  0  0  0
 12 27  1  0  0  0  0
 13 20  1  0  0  0  0
 13 25  2  0  0  0  0
 14 27  2  0  0  0  0
 14 28  1  0  0  0  0
 15 29  1  0  0  0  0
 16 29  1  0  0  0  0
 16 32  2  0  0  0  0
 16 33  1  0  0  0  0
 17 19  2  0  0  0  0
 17 38  1  0  0  0  0
 18 20  2  0  0  0  0
 18 39  1  0  0  0  0
 19 49  1  0  0  0  0
 20 40  1  0  0  0  0
 21 22  2  0  0  0  0
 21 23  1  0  0  0  0
 21 54  1  0  0  0  0
 22 30  1  0  0  0  0
 22 62  1  0  0  0  0
 23 31  2  0  0  0  0
 23 69  1  0  0  0  0
 24 84  1  0  0  0  0
 25 85  1  0  0  0  0
 26 28  2  0  0  0  0
 26 84  1  0  0  0  0
 27 86  1  0  0  0  0
 28 87  1  0  0  0  0
 29 66  2  0  0  0  0
 30 55  1  0  0  0  0
 30 67  2  0  0  0  0
 31 56  1  0  0  0  0
 31 67  1  0  0  0  0
 32 68  1  0  0  0  0
 32 72  1  0  0  0  0
 33 73  1  0  0  0  0
 33 79  2  0  0  0  0
 34 50  1  0  0  0  0
 34 74  1  0  0  0  0
 34 80  2  0  0  0  0
 35 63  1  0  0  0  0
 35 70  1  0  0  0  0
 35 81  2  0  0  0  0
 36 64  1  0  0  0  0
 36 75  1  0  0  0  0
 36 82  2  0  0  0  0
 37 71  1  0  0  0  0
 37 76  1  0  0  0  0
 37 83  2  0  0  0  0
 38 41  1  0  0  0  0
 39 50  1  0  0  0  0
 40 70  1  0  0  0  0
 41 43  1  0  0  0  0
 42 44  1  0  0  0  0
 42 45  1  0  0  0  0
 43 49  1  0  0  0  0
 44 51  1  0  0  0  0
 45 71  1  0  0  0  0
 46 51  1  0  0  0  0
 46 71  1  0  0  0  0
 47 52  1  0  0  0  0
 47 69  1  0  0  0  0
 48 53  1  0  0  0  0
 48 69  1  0  0  0  0
 49 74  1  0  0  0  0
 50 70  1  0  0  0  0
 51 68  1  0  0  0  0
 52 53  1  0  0  0  0
 52 76  1  0  0  0  0
 53 77  1  0  0  0  0
 57 64  1  0  0  0  0
 58 65  1  0  0  0  0
 59 65  1  0  0  0  0
 60 65  1  0  0  0  0
 61 78  1  0  0  0  0
 62 85  1  0  0  0  0
 63 65  1  0  0  0  0
 63 75  1  0  0  0  0
 64 78  1  0  0  0  0
 66 68  1  0  0  0  0
M  CHG  2  77   1  78   1
M  ISO  4  37 100  62 101  76 100  85 101
M  END
> <Batch ID>
0169

> <Smiles>
CNC(C)C(=O)NC(C(=O)N1Cc2cc([101O:1][101CH2:1]c3c(C)nc(C)c(N4CC(N)C([100NH:0][100C:0](=O)N5CCCC(n6nc(-c7ccc(Oc8ccc(F)cc8F)cc7)c(C(N)=O)c6N)C5)C4)c3C)ccc2CC1C(=O)NC1CCCc2ccccc21)C(C)(C)C

> <Shape>
0.213

> <Color>
0.059

> <Negative vol penalty>
0.000

$$$$

  -OEChem-04052322323D

 88 97  0     1  0  0  0  0  0999 V2000
  -17.8745  -27.6188   22.5063 C   0  0  0  0  0  0  0  0  0  0  0  0
  -18.4959  -26.3925   22.2926 C   0  0  0  0  0  0  0  0  0  0  0  0
  -29.6939  -23.4300   19.0722 C   0  0  0  0  0  0  0  0  0  0  0  0
  -27.8093  -23.2552   20.5739 C   0  0  0  0  0  0  0  0  0  0  0  0
  -18.6237  -28.7129   22.9370 C   0  0  0  0  0  0  0  0  0  0  0  0
  -19.8671  -26.2599   22.5085 C   0  0  0  0  0  0  0  0  0  0  0  0
  -21.0340  -22.0402   25.0535 C   0  0  0  0  0  0  0  0  0  0  0  0
  -21.0954  -16.0175   22.8475 C   0  0  0  0  0  0  0  0  0  0  0  0
  -21.2998  -14.8295   22.1457 C   0  0  0  0  0  0  0  0  0  0  0  0
  -29.6471  -24.8202   19.1752 C   0  0  0  0  0  0  0  0  0  0  0  0
  -27.7626  -24.6455   20.6770 C   0  0  0  0  0  0  0  0  0  0  0  0
  -21.0387  -20.8448   24.3362 C   0  0  0  0  0  0  0  0  0  0  0  0
  -26.9187  -28.1607   21.0529 C   0  0  0  0  0  0  0  0  0  0  0  0
  -25.6699  -28.7757   20.9645 C   0  0  0  0  0  0  0  0  0  0  0  0
  -23.4420  -20.9639   24.1650 C   0  0  0  0  0  0  0  0  0  0  0  0
  -21.5234  -17.2811   20.8333 C   0  0  0  0  0  0  0  0  0  0  0  0
  -25.3756  -27.8596   18.7483 C   0  0  0  0  0  0  0  0  0  0  0  0
  -28.7750  -22.6475   19.7715 C   0  0  0  0  0  0  0  0  0  0  0  0
  -29.5517  -20.3223   20.4771 C   0  0  0  0  0  0  0  0  0  0  0  0
  -20.0031  -28.5912   23.1676 C   0  0  0  0  0  0  0  0  0  0  0  0
  -22.2343  -22.7133   25.3230 C   0  0  0  0  0  0  0  0  0  0  0  0
  -20.6357  -27.3538   22.9414 C   0  0  0  0  0  0  0  0  0  0  0  0
  -23.4500  -22.1665   24.8881 C   0  0  0  0  0  0  0  0  0  0  0  0
  -21.2072  -17.2433   22.1913 C   0  0  0  0  0  0  0  0  0  0  0  0
  -21.6160  -14.8673   20.7877 C   0  0  0  0  0  0  0  0  0  0  0  0
  -21.7278  -16.0931   20.1314 C   0  0  0  0  0  0  0  0  0  0  0  0
  -28.6815  -25.4280   19.9776 C   0  0  0  0  0  0  0  0  0  0  0  0
  -22.2425  -20.3079   23.8893 C   0  0  0  0  0  0  0  0  0  0  0  0
  -27.3960  -27.3951   19.9890 C   0  0  0  0  0  0  0  0  0  0  0  0
  -24.8983  -28.6251   19.8122 C   0  0  0  0  0  0  0  0  0  0  0  0
  -26.6245  -27.2446   18.8367 C   0  0  0  0  0  0  0  0  0  0  0  0
  -28.8224  -21.2113   19.6650 C   0  0  0  0  0  0  0  0  0  0  0  0
  -29.2625  -19.0788   19.9708 C   0  0  0  0  0  0  0  0  0  0  0  0
  -30.4135  -20.5961   21.5898 C   0  0  0  0  0  0  0  0  0  0  0  0
  -23.4272  -25.5614   24.5686 C   0  0  0  0  0  0  0  0  0  0  0  0
  -25.8152  -24.6579   26.5695 C   0  0  0  0  0  0  0  0  0  0  0  0
  -27.5344  -22.1193   28.0683 C   0  0  0  0  0  0  0  0  0  0  0  0
  -25.5985  -15.3555   18.0066 C   0  0  0  0  0  0  0  0  0  0  0  0
  -20.7796  -29.8141   23.5874 C   0  0  0  0  0  0  0  0  0  0  0  0
  -22.2147  -23.9881   26.1211 C   0  0  0  0  0  0  0  0  0  0  0  0
  -24.7678  -22.8395   25.1689 C   0  0  0  0  0  0  0  0  0  0  0  0
  -22.1609  -29.4940   24.1530 C   0  0  0  0  0  0  0  0  0  0  0  0
  -26.9125  -17.7281   15.6999 C   0  0  0  0  0  0  0  0  0  0  0  0
  -22.8836  -28.4899   23.2607 C   0  0  0  0  0  0  0  0  0  0  0  0
  -27.5808  -18.7750   16.5929 C   0  0  0  0  0  0  0  0  0  0  0  0
  -26.6068  -13.2171   20.8925 C   0  0  0  0  0  0  0  0  0  0  0  0
  -24.4114  -12.1210   21.1420 C   0  0  0  0  0  0  0  0  0  0  0  0
  -25.6347  -17.1803   16.3317 C   0  0  0  0  0  0  0  0  0  0  0  0
  -26.4650  -17.7011   18.5930 C   0  0  0  0  0  0  0  0  0  0  0  0
  -22.1166  -27.1640   23.1885 C   0  0  1  0  0  0  0  0  0  0  0  0
  -23.4498  -24.8542   25.8942 C   0  0  1  0  0  0  0  0  0  0  0  0
  -27.7876  -18.2421   18.0235 C   0  0  2  0  0  0  0  0  0  0  0  0
  -25.6404  -13.6384   19.7845 C   0  0  1  0  0  0  0  0  0  0  0  0
  -24.2851  -13.4715   20.4517 C   0  0  1  0  0  0  0  0  0  0  0  0
  -25.8624  -12.1086   21.6860 C   0  0  0  0  0  0  0  0  0  0  0  0
  -22.0658  -16.1582   18.6781 C   0  0  0  0  0  0  0  0  0  0  0  0
  -26.5109  -10.7383   21.4547 C   0  0  0  0  0  0  0  0  0  0  0  0
  -25.8804  -12.4254   23.1881 C   0  0  0  0  0  0  0  0  0  0  0  0
  -29.4590  -21.6910   29.6208 C   0  0  0  0  0  0  0  0  0  0  0  0
  -27.7714  -25.2707   24.3095 C   0  0  0  0  0  0  0  0  0  0  0  0
  -29.5057  -23.9570   25.5483 C   0  0  0  0  0  0  0  0  0  0  0  0
  -28.5298  -26.0103   26.5750 C   0  0  0  0  0  0  0  0  0  0  0  0
  -25.7879  -20.7899   30.0536 C   0  0  0  0  0  0  0  0  0  0  0  0
  -21.8315  -13.5824   20.0575 C   0  0  0  0  0  0  0  0  0  0  0  0
  -20.9877  -18.5211   22.9466 C   0  0  0  0  0  0  0  0  0  1  0  0
  -27.1210  -23.9174   26.4100 C   0  0  1  0  0  0  0  0  0  0  0  0
  -27.9570  -21.9026   29.5101 C   0  0  2  0  0  0  0  0  0  0  0  0
  -28.2071  -24.7769   25.7036 C   0  0  0  0  0  0  0  0  0  0  0  0
  -28.1226  -20.5857   18.7148 N   0  0  0  0  0  0  0  0  0  0  0  0
  -28.4109  -19.2903   18.9266 N   0  0  0  0  0  0  0  0  0  0  0  0
  -24.6958  -24.0869   25.9475 N   0  0  0  0  0  0  0  0  0  0  0  0
  -25.8996  -16.6896   17.6863 N   0  0  0  0  0  0  0  0  0  0  0  0
  -29.6561  -17.8359   20.3212 N   0  0  0  0  0  0  0  0  0  0  0  0
  -30.6001  -21.9298   21.9780 N   0  0  0  0  0  0  0  0  0  0  0  0
  -22.3343  -26.3880   24.3905 N   0  0  0  0  0  0  0  0  0  0  0  0
  -27.4957  -23.4587   27.7432 N   0  0  0  0  0  0  0  0  0  0  0  0
  -25.8864  -14.9701   19.3102 N   0  0  0  0  0  0  0  0  0  0  0  0
  -23.1909  -13.4633   19.4637 N   0  3  0  0  0  0  0  0  0  0  0  0
  -27.2710  -20.7072   30.0770 N   0  3  0  0  0  0  0  0  0  0  0  0
  -31.0136  -19.6862   22.2107 O   0  0  0  0  0  0  0  0  0  0  0  0
  -24.3349  -25.3723   23.7674 O   0  0  0  0  0  0  0  0  0  0  0  0
  -25.7878  -25.7007   27.2280 O   0  0  0  0  0  0  0  0  0  0  0  0
  -27.2690  -21.1928   27.3056 O   0  0  0  0  0  0  0  0  0  0  0  0
  -25.1142  -14.5648   17.1897 O   0  0  0  0  0  0  0  0  0  0  0  0
  -28.6357  -26.7845   20.0786 O   0  0  0  0  0  0  0  0  0  0  0  0
  -22.2499  -19.1415   23.1883 O   0  0  0  0  0  0  0  0  0  1  0  0
  -23.6984  -29.2145   19.7281 F   0  0  0  0  0  0  0  0  0  0  0  0
  -27.0772  -26.5094   17.8119 F   0  0  0  0  0  0  0  0  0  0  0  0
  1  2  1  0  0  0  0
  1  5  2  0  0  0  0
  2  6  2  0  0  0  0
  3 10  2  0  0  0  0
  3 18  1  0  0  0  0
  4 11  1  0  0  0  0
  4 18  2  0  0  0  0
  5 20  1  0  0  0  0
  6 22  1  0  0  0  0
  7 12  2  0  0  0  0
  7 21  1  0  0  0  0
  8  9  2  0  0  0  0
  8 24  1  0  0  0  0
  9 25  1  0  0  0  0
 10 27  1  0  0  0  0
 11 27  2  0  0  0  0
 12 28  1  0  0  0  0
 13 14  2  0  0  0  0
 13 29  1  0  0  0  0
 14 30  1  0  0  0  0
 15 23  1  0  0  0  0
 15 28  2  0  0  0  0
 16 24  2  0  0  0  0
 16 26  1  0  0  0  0
 17 30  2  0  0  0  0
 17 31  1  0  0  0  0
 18 32  1  0  0  0  0
 19 32  1  0  0  0  0
 19 33  2  0  0  0  0
 19 34  1  0  0  0  0
 20 22  2  0  0  0  0
 20 39  1  0  0  0  0
 21 23  2  0  0  0  0
 21 40  1  0  0  0  0
 22 50  1  0  0  0  0
 23 41  1  0  0  0  0
 24 65  1  0  0  0  0
 25 26  2  0  0  0  0
 25 64  1  0  0  0  0
 26 56  1  0  0  0  0
 27 85  1  0  0  0  0
 28 86  1  0  0  0  0
 29 31  2  0  0  0  0
 29 85  1  0  0  0  0
 30 87  1  0  0  0  0
 31 88  1  0  0  0  0
 32 69  2  0  0  0  0
 33 70  1  0  0  0  0
 33 73  1  0  0  0  0
 34 74  1  0  0  0  0
 34 80  2  0  0  0  0
 35 51  1  0  0  0  0
 35 75  1  0  0  0  0
 35 81  2  0  0  0  0
 36 66  1  0  0  0  0
 36 71  1  0  0  0  0
 36 82  2  0  0  0  0
 37 67  1  0  0  0  0
 37 76  1  0  0  0  0
 37 83  2  0  0  0  0
 38 72  1  0  0  0  0
 38 77  1  0  0  0  0
 38 84  2  0  0  0  0
 39 42  1  0  0  0  0
 40 51  1  0  0  0  0
 41 71  1  0  0  0  0
 42 44  1  0  0  0  0
 43 45  1  0  0  0  0
 43 48  1  0  0  0  0
 44 50  1  0  0  0  0
 45 52  1  0  0  0  0
 46 53  1  0  0  0  0
 46 55  1  0  0  0  0
 47 54  1  0  0  0  0
 47 55  1  0  0  0  0
 48 72  1  0  0  0  0
 49 52  1  0  0  0  0
 49 72  1  0  0  0  0
 50 75  1  0  0  0  0
 51 71  1  0  0  0  0
 52 70  1  0  0  0  0
 53 54  1  0  0  0  0
 53 77  1  0  0  0  0
 54 78  1  0  0  0  0
 55 57  1  0  0  0  0
 55 58  1  0  0  0  0
 59 67  1  0  0  0  0
 60 68  1  0  0  0  0
 61 68  1  0  0  0  0
 62 68  1  0  0  0  0
 63 79  1  0  0  0  0
 64 78  1  0  0  0  0
 65 86  1  0  0  0  0
 66 68  1  0  0  0  0
 66 76  1  0  0  0  0
 67 79  1  0  0  0  0
 69 70  1  0  0  0  0
M  CHG  2  78   1  79   1
M  ISO  4  38 100  65 101  77 100  86 101
M  END
> <Batch ID>
0169

> <Smiles>
CNC(C)C(=O)NC(C(=O)N1Cc2cc([101O:1][101CH2:1]c3ccc(CNC4CC(C)(C)CC4[100NH:0][100C:0](=O)N4CCCC(n5nc(-c6ccc(Oc7ccc(F)cc7F)cc6)c(C(N)=O)c5N)C4)c(C)c3)ccc2CC1C(=O)NC1CCCc2ccccc21)C(C)(C)C

> <Shape>
0.200

> <Color>
0.084

> <Negative vol penalty>
0.000

$$$$

  -OEChem-04052322323D

 85 94  0     1  0  0  0  0  0999 V2000
  -20.8207   -9.7451   19.1761 C   0  0  0  0  0  0  0  0  0  0  0  0
  -20.9527  -11.0192   18.6334 C   0  0  0  0  0  0  0  0  0  0  0  0
  -24.2269  -25.2918   24.3703 C   0  0  0  0  0  0  0  0  0  0  0  0
  -23.8206  -26.7056   26.2869 C   0  0  0  0  0  0  0  0  0  0  0  0
  -21.6005   -9.3701   20.2694 C   0  0  0  0  0  0  0  0  0  0  0  0
  -21.8639  -11.9195   19.1843 C   0  0  0  0  0  0  0  0  0  0  0  0
  -26.2372  -17.2790   17.3226 C   0  0  0  0  0  0  0  0  0  0  0  0
  -24.7425  -24.3034   25.2086 C   0  0  0  0  0  0  0  0  0  0  0  0
  -24.3361  -25.7171   27.1252 C   0  0  0  0  0  0  0  0  0  0  0  0
  -26.5309  -18.5981   17.6654 C   0  0  0  0  0  0  0  0  0  0  0  0
  -23.5388  -21.9164   27.2789 C   0  0  0  0  0  0  0  0  0  0  0  0
  -23.1255  -20.6020   27.0618 C   0  0  0  0  0  0  0  0  0  0  0  0
  -27.3894  -24.2884   20.4235 C   0  0  0  0  0  0  0  0  0  0  0  0
  -27.8816  -17.8133   19.5035 C   0  0  0  0  0  0  0  0  0  0  0  0
  -25.4168  -19.9475   26.6631 C   0  0  0  0  0  0  0  0  0  0  0  0
  -23.7660  -26.4929   24.9094 C   0  0  0  0  0  0  0  0  0  0  0  0
  -21.8944  -27.6751   23.6417 C   0  0  0  0  0  0  0  0  0  0  0  0
  -22.5286  -10.2630   20.8279 C   0  0  0  0  0  0  0  0  0  0  0  0
  -26.7556  -16.2156   18.0755 C   0  0  0  0  0  0  0  0  0  0  0  0
  -22.6559  -11.5566   20.2869 C   0  0  0  0  0  0  0  0  0  0  0  0
  -28.3595  -25.0063   19.7241 C   0  0  0  0  0  0  0  0  0  0  0  0
  -27.5951  -16.4816   19.1666 C   0  0  0  0  0  0  0  0  0  0  0  0
  -26.9700  -23.0433   19.9547 C   0  0  0  0  0  0  0  0  0  0  0  0
  -27.5207  -22.5163   18.7865 C   0  0  0  0  0  0  0  0  0  0  0  0
  -28.4908  -23.2342   18.0871 C   0  0  0  0  0  0  0  0  0  0  0  0
  -24.7970  -24.5160   26.5861 C   0  0  0  0  0  0  0  0  0  0  0  0
  -27.3508  -18.8655   18.7578 C   0  0  0  0  0  0  0  0  0  0  0  0
  -24.8910  -22.2464   27.1880 C   0  0  0  0  0  0  0  0  0  0  0  0
  -24.0645  -19.6175   26.7540 C   0  0  0  0  0  0  0  0  0  0  0  0
  -25.8300  -21.2620   26.8801 C   0  0  0  0  0  0  0  0  0  0  0  0
  -28.9102  -24.4792   18.5560 C   0  0  0  0  0  0  0  0  0  0  0  0
  -23.2339  -27.5146   24.0438 C   0  0  0  0  0  0  0  0  0  0  0  0
  -21.9101  -28.7825   22.8293 C   0  0  0  0  0  0  0  0  0  0  0  0
  -20.7391  -26.8932   23.9729 C   0  0  0  0  0  0  0  0  0  0  0  0
  -25.4933  -13.8768   19.8190 C   0  0  0  0  0  0  0  0  0  0  0  0
  -28.5749  -12.8812   20.0067 C   0  0  0  0  0  0  0  0  0  0  0  0
  -31.8904  -13.6749   19.8527 C   0  0  0  0  0  0  0  0  0  0  0  0
  -27.3499  -29.3332   22.0659 C   0  0  0  0  0  0  0  0  0  0  0  0
  -23.3157   -9.8286   22.0389 C   0  0  0  0  0  0  0  0  0  0  0  0
  -26.4511  -14.7977   17.6765 C   0  0  0  0  0  0  0  0  0  0  0  0
  -28.1934  -15.3751   19.9951 C   0  0  0  0  0  0  0  0  0  0  0  0
  -24.5254  -10.7135   22.3287 C   0  0  0  0  0  0  0  0  0  0  0  0
  -24.6574  -30.6797   19.6739 C   0  0  0  0  0  0  0  0  0  0  0  0
  -24.1405  -12.1873   22.2475 C   0  0  0  0  0  0  0  0  0  0  0  0
  -23.4485  -30.3292   20.5313 C   0  0  0  0  0  0  0  0  0  0  0  0
  -29.3634  -26.3102   21.6811 C   0  0  0  0  0  0  0  0  0  0  0  0
  -25.8475  -29.8014   20.0493 C   0  0  0  0  0  0  0  0  0  0  0  0
  -29.2451  -27.7580   22.1268 C   0  0  0  0  0  0  0  0  0  0  0  0
  -27.6455  -27.3748   20.3866 C   0  0  0  0  0  0  0  0  0  0  0  0
  -25.2675  -30.6110   22.3295 C   0  0  0  0  0  0  0  0  0  0  0  0
  -28.7809  -26.3482   20.2682 C   0  0  2  0  0  0  0  0  0  0  0  0
  -23.6511  -12.5530   20.8410 C   0  0  1  0  0  0  0  0  0  0  0  0
  -26.6165  -13.8056   18.8235 C   0  0  1  0  0  0  0  0  0  0  0  0
  -23.7701  -30.3934   22.0362 C   0  0  2  0  0  0  0  0  0  0  0  0
  -25.9304  -22.2949   20.7223 C   0  0  0  0  0  0  0  0  0  0  0  0
  -29.0704  -22.6513   16.8353 C   0  0  0  0  0  0  0  0  0  0  0  0
  -34.1725  -12.6572   20.0852 C   0  0  0  0  0  0  0  0  0  0  0  0
  -28.2477  -12.8462   23.0401 C   0  0  0  0  0  0  0  0  0  0  0  0
  -30.7420  -12.7625   23.2384 C   0  0  0  0  0  0  0  0  0  0  0  0
  -29.5197  -10.9063   22.1056 C   0  0  0  0  0  0  0  0  0  0  0  0
  -32.6068  -14.3593   17.0640 C   0  0  0  0  0  0  0  0  0  0  0  0
  -27.0683  -21.1798   18.2886 C   0  0  0  0  0  0  0  0  0  1  0  0
  -29.7277  -13.1431   20.9455 C   0  0  1  0  0  0  0  0  0  0  0  0
  -33.0503  -13.0197   19.1249 C   0  0  2  0  0  0  0  0  0  0  0  0
  -29.5466  -12.4357   22.3181 C   0  0  0  0  0  0  0  0  0  0  0  0
  -24.0419  -28.4454   23.5292 N   0  0  0  0  0  0  0  0  0  0  0  0
  -23.2077  -29.2014   22.7952 N   0  0  0  0  0  0  0  0  0  0  0  0
  -27.8610  -14.0057   19.5688 N   0  0  0  0  0  0  0  0  0  0  0  0
  -26.1669  -29.8152   21.4816 N   0  0  0  0  0  0  0  0  0  0  0  0
  -28.0291  -28.2617   21.4882 N   0  0  0  0  0  0  0  0  0  0  0  0
  -20.9406  -29.4289   22.1477 N   0  0  0  0  0  0  0  0  0  0  0  0
  -20.9005  -25.7889   24.8207 N   0  0  0  0  0  0  0  0  0  0  0  0
  -24.7726  -12.7039   19.9389 N   0  0  0  0  0  0  0  0  0  0  0  0
  -30.9360  -12.7529   20.2270 N   0  0  0  0  0  0  0  0  0  0  0  0
  -33.5977  -13.9400   18.0883 N   0  3  0  0  0  0  0  0  0  0  0  0
  -19.6005  -27.1560   23.5170 O   0  0  0  0  0  0  0  0  0  0  0  0
  -25.2961  -14.9182   20.4340 O   0  0  0  0  0  0  0  0  0  0  0  0
  -28.3217  -11.7222   19.6684 O   0  0  0  0  0  0  0  0  0  0  0  0
  -31.8383  -14.8833   20.0710 O   0  0  0  0  0  0  0  0  0  0  0  0
  -27.7844  -29.8439   23.1106 O   0  0  0  0  0  0  0  0  0  0  0  0
  -25.2998  -23.5517   27.4045 O   0  0  0  0  0  0  0  0  0  0  0  0
  -27.6406  -20.1617   19.0975 O   0  0  0  0  0  0  0  0  0  1  0  0
  -23.6677  -18.3550   26.5471 F   0  0  0  0  0  0  0  0  0  0  0  0
  -27.1306  -21.5727   26.7925 F   0  0  0  0  0  0  0  0  0  0  0  0
  -30.1151  -25.3736   17.6902 Cl  0  0  0  0  0  0  0  0  0  0  0  0
  1  2  1  0  0  0  0
  1  5  2  0  0  0  0
  2  6  2  0  0  0  0
  3  8  2  0  0  0  0
  3 16  1  0  0  0  0
  4  9  1  0  0  0  0
  4 16  2  0  0  0  0
  5 18  1  0  0  0  0
  6 20  1  0  0  0  0
  7 10  2  0  0  0  0
  7 19  1  0  0  0  0
  8 26  1  0  0  0  0
  9 26  2  0  0  0  0
 10 27  1  0  0  0  0
 11 12  2  0  0  0  0
 11 28  1  0  0  0  0
 12 29  1  0  0  0  0
 13 21  1  0  0  0  0
 13 23  2  0  0  0  0
 14 22  1  0  0  0  0
 14 27  2  0  0  0  0
 15 29  2  0  0  0  0
 15 30  1  0  0  0  0
 16 32  1  0  0  0  0
 17 32  1  0  0  0  0
 17 33  2  0  0  0  0
 17 34  1  0  0  0  0
 18 20  2  0  0  0  0
 18 39  1  0  0  0  0
 19 22  2  0  0  0  0
 19 40  1  0  0  0  0
 20 52  1  0  0  0  0
 21 31  2  0  0  0  0
 21 51  1  0  0  0  0
 22 41  1  0  0  0  0
 23 24  1  0  0  0  0
 23 55  1  0  0  0  0
 24 25  2  0  0  0  0
 24 62  1  0  0  0  0
 25 31  1  0  0  0  0
 25 56  1  0  0  0  0
 26 81  1  0  0  0  0
 27 82  1  0  0  0  0
 28 30  2  0  0  0  0
 28 81  1  0  0  0  0
 29 83  1  0  0  0  0
 30 84  1  0  0  0  0
 31 85  1  0  0  0  0
 32 66  2  0  0  0  0
 33 67  1  0  0  0  0
 33 71  1  0  0  0  0
 34 72  1  0  0  0  0
 34 76  2  0  0  0  0
 35 53  1  0  0  0  0
 35 73  1  0  0  0  0
 35 77  2  0  0  0  0
 36 63  1  0  0  0  0
 36 68  1  0  0  0  0
 36 78  2  0  0  0  0
 37 64  1  0  0  0  0
 37 74  1  0  0  0  0
 37 79  2  0  0  0  0
 38 69  1  0  0  0  0
 38 70  1  0  0  0  0
 38 80  2  0  0  0  0
 39 42  1  0  0  0  0
 40 53  1  0  0  0  0
 41 68  1  0  0  0  0
 42 44  1  0  0  0  0
 43 45  1  0  0  0  0
 43 47  1  0  0  0  0
 44 52  1  0  0  0  0
 45 54  1  0  0  0  0
 46 48  1  0  0  0  0
 46 51  1  0  0  0  0
 47 69  1  0  0  0  0
 48 70  1  0  0  0  0
 49 51  1  0  0  0  0
 49 70  1  0  0  0  0
 50 54  1  0  0  0  0
 50 69  1  0  0  0  0
 52 73  1  0  0  0  0
 53 68  1  0  0  0  0
 54 67  1  0  0  0  0
 57 64  1  0  0  0  0
 58 65  1  0  0  0  0
 59 65  1  0  0  0  0
 60 65  1  0  0  0  0
 61 75  1  0  0  0  0
 62 82  1  0  0  0  0
 63 65  1  0  0  0  0
 63 74  1  0  0  0  0
 64 75  1  0  0  0  0
 66 67  1  0  0  0  0
M  CHG  1  75   1
M  ISO  4  38 100  62 101  70 100  82 101
M  END
> <Batch ID>
0169

> <Smiles>
CNC(C)C(=O)NC(C(=O)N1Cc2cc([101O:1][101CH2:1]c3c(C)cc(C4CC[100N:0]([100C:0](=O)N5CCCC(n6nc(-c7ccc(Oc8ccc(F)cc8F)cc7)c(C(N)=O)c6N)C5)C4)c(Cl)c3C)ccc2CC1C(=O)NC1CCCc2ccccc21)C(C)(C)C

> <Shape>
0.245

> <Color>
0.084

> <Negative vol penalty>
0.000

$$$$

  -OEChem-04052322323D

 92102  0     1  0  0  0  0  0999 V2000
  -22.3783   -7.3960   24.2052 C   0  0  0  0  0  0  0  0  0  0  0  0
  -22.9741   -8.5066   24.7944 C   0  0  0  0  0  0  0  0  0  0  0  0
  -23.0932  -28.7028   23.2900 C   0  0  0  0  0  0  0  0  0  0  0  0
  -21.8224  -29.2752   21.3165 C   0  0  0  0  0  0  0  0  0  0  0  0
  -22.1933   -7.3563   22.8238 C   0  0  0  0  0  0  0  0  0  0  0  0
  -23.3862   -9.5777   24.0024 C   0  0  0  0  0  0  0  0  0  0  0  0
  -24.0606  -16.7075   24.1665 C   0  0  0  0  0  0  0  0  0  0  0  0
  -21.9289  -28.2456   23.9071 C   0  0  0  0  0  0  0  0  0  0  0  0
  -20.6581  -28.8179   21.9336 C   0  0  0  0  0  0  0  0  0  0  0  0
  -25.0053  -17.7057   23.9323 C   0  0  0  0  0  0  0  0  0  0  0  0
  -18.4484  -29.9453   24.2308 C   0  0  0  0  0  0  0  0  0  0  0  0
  -17.3062  -30.7393   24.1289 C   0  0  0  0  0  0  0  0  0  0  0  0
  -24.5628  -17.5607   21.5654 C   0  0  0  0  0  0  0  0  0  0  0  0
  -16.1480  -28.9312   23.0216 C   0  0  0  0  0  0  0  0  0  0  0  0
  -23.0400  -29.2177   21.9947 C   0  0  0  0  0  0  0  0  0  0  0  0
  -25.0882  -30.7256   21.7985 C   0  0  0  0  0  0  0  0  0  0  0  0
  -22.5947   -8.4316   22.0156 C   0  0  0  0  0  0  0  0  0  0  0  0
  -23.3666  -16.1198   23.0992 C   0  0  0  0  0  0  0  0  0  0  0  0
  -23.2077   -9.5518   22.6088 C   0  0  0  0  0  0  0  0  0  0  0  0
  -23.6079  -16.5570   21.7889 C   0  0  0  0  0  0  0  0  0  0  0  0
  -29.1972  -19.7101   20.7889 C   0  0  0  0  0  0  0  0  0  0  0  0
  -28.4116  -19.8728   21.9389 C   0  0  0  0  0  0  0  0  0  0  0  0
  -30.1015  -20.6934   20.4074 C   0  0  0  0  0  0  0  0  0  0  0  0
  -28.5176  -21.0178   22.7179 C   0  0  0  0  0  0  0  0  0  0  0  0
  -29.4197  -22.0101   22.3321 C   0  0  0  0  0  0  0  0  0  0  0  0
  -30.2069  -21.8488   21.1843 C   0  0  0  0  0  0  0  0  0  0  0  0
  -20.7113  -28.3031   23.2289 C   0  0  0  0  0  0  0  0  0  0  0  0
  -25.2587  -18.1304   22.6313 C   0  0  0  0  0  0  0  0  0  0  0  0
  -18.4405  -28.6442   23.7281 C   0  0  0  0  0  0  0  0  0  0  0  0
  -16.1560  -30.2323   23.5244 C   0  0  0  0  0  0  0  0  0  0  0  0
  -17.2902  -28.1371   23.1235 C   0  0  0  0  0  0  0  0  0  0  0  0
  -24.2423  -29.6907   21.3568 C   0  0  0  0  0  0  0  0  0  0  0  0
  -26.0814  -30.7850   20.8517 C   0  0  0  0  0  0  0  0  0  0  0  0
  -24.9854  -31.5588   22.9608 C   0  0  0  0  0  0  0  0  0  0  0  0
  -23.1529  -13.1797   21.9101 C   0  0  0  0  0  0  0  0  0  0  0  0
  -20.8924  -14.5299   20.0156 C   0  0  0  0  0  0  0  0  0  0  0  0
  -20.4829  -17.6189   18.1968 C   0  0  0  0  0  0  0  0  0  0  0  0
  -28.2975  -26.7628   17.0095 C   0  0  0  0  0  0  0  0  0  0  0  0
  -22.4169   -8.3229   20.5218 C   0  0  0  0  0  0  0  0  0  0  0  0
  -22.3313  -15.0630   23.3710 C   0  0  0  0  0  0  0  0  0  0  0  0
  -22.8751  -15.9724   20.6101 C   0  0  0  0  0  0  0  0  0  0  0  0
  -22.5411   -9.6593   19.7947 C   0  0  0  0  0  0  0  0  0  0  0  0
  -26.8884  -29.9341   16.2132 C   0  0  0  0  0  0  0  0  0  0  0  0
  -23.7635  -10.4253   20.2906 C   0  0  0  0  0  0  0  0  0  0  0  0
  -26.1268  -30.3247   17.4810 C   0  0  0  0  0  0  0  0  0  0  0  0
  -31.0455  -25.7505   18.5991 C   0  0  0  0  0  0  0  0  0  0  0  0
  -27.6136  -17.9502   20.8184 C   0  0  0  0  0  0  0  0  0  0  0  0
  -26.8080  -28.4326   15.9466 C   0  0  0  0  0  0  0  0  0  0  0  0
  -26.4645  -27.9706   18.3429 C   0  0  0  0  0  0  0  0  0  0  0  0
  -31.8964  -24.5540   18.9953 C   0  0  0  0  0  0  0  0  0  0  0  0
  -29.5148  -24.0777   19.2860 C   0  0  0  0  0  0  0  0  0  0  0  0
  -23.6456  -10.7440   21.7860 C   0  0  1  0  0  0  0  0  0  0  0  0
  -22.0544  -14.1731   22.1631 C   0  0  1  0  0  0  0  0  0  0  0  0
  -26.5635  -29.4673   18.6841 C   0  0  2  0  0  0  0  0  0  0  0  0
  -29.7105  -25.1346   18.2171 C   0  0  1  0  0  0  0  0  0  0  0  0
  -28.9325  -18.3828   20.1188 C   0  0  0  0  0  0  0  0  0  0  0  0
  -27.5264  -18.6830   22.1771 C   0  0  1  0  0  0  0  0  0  1  0  0
  -30.9791  -20.5331   19.2108 C   0  0  0  0  0  0  0  0  0  0  0  0
  -27.6863  -21.1934   23.9456 C   0  0  0  0  0  0  0  0  0  0  0  0
  -29.5502  -23.2554   23.1534 C   0  0  0  0  0  0  0  0  0  0  0  0
  -30.0755  -17.3962   20.3878 C   0  0  0  0  0  0  0  0  0  0  0  0
  -28.7144  -18.5172   18.6063 C   0  0  0  0  0  0  0  0  0  0  0  0
  -27.9792  -17.8388   23.3636 C   0  0  0  0  0  0  0  0  0  0  0  0
  -18.4040  -18.8537   17.5256 C   0  0  0  0  0  0  0  0  0  0  0  0
  -21.1744  -12.9933   17.3946 C   0  0  0  0  0  0  0  0  0  0  0  0
  -20.4219  -15.0532   16.1868 C   0  0  0  0  0  0  0  0  0  0  0  0
  -18.8954  -13.9347   17.8120 C   0  0  0  0  0  0  0  0  0  0  0  0
  -21.3929  -20.1050   19.5197 C   0  0  0  0  0  0  0  0  0  0  0  0
  -31.1740  -22.9236   20.7936 C   0  0  0  0  0  0  0  0  0  0  0  0
  -20.8956  -15.2193   18.6726 C   0  0  1  0  0  0  0  0  0  0  0  0
  -19.5354  -18.7550   18.5370 C   0  0  2  0  0  0  0  0  0  0  0  0
  -20.3695  -14.3009   17.5337 C   0  0  0  0  0  0  0  0  0  0  0  0
  -24.6614  -29.1328   20.2179 N   0  0  0  0  0  0  0  0  0  0  0  0
  -25.7815  -29.8198   19.9359 N   0  0  0  0  0  0  0  0  0  0  0  0
  -21.8769  -14.9375   20.9268 N   0  0  0  0  0  0  0  0  0  0  0  0
  -27.2371  -27.6767   17.1257 N   0  0  0  0  0  0  0  0  0  0  0  0
  -27.1732  -31.5681   20.7214 N   0  0  0  0  0  0  0  0  0  0  0  0
  -23.9023  -31.3642   23.8288 N   0  0  0  0  0  0  0  0  0  0  0  0
  -22.7495  -11.8608   21.9956 N   0  0  0  0  0  0  0  0  0  0  0  0
  -20.1354  -16.4525   18.8450 N   0  0  0  0  0  0  0  0  0  0  0  0
  -28.6449  -26.0929   18.1763 N   0  0  0  0  0  0  0  0  0  0  0  0
  -30.9041  -23.4931   19.4380 N   0  3  2  0  0  0  0  0  0  0  0  0
  -20.2672  -20.0531   18.5517 N   0  3  0  0  0  0  0  0  0  0  0  0
  -25.8201  -32.4605   23.2133 O   0  0  0  0  0  0  0  0  0  0  0  0
  -24.2826  -13.5800   21.6547 O   0  0  0  0  0  0  0  0  0  0  0  0
  -20.0430  -13.6667   20.2502 O   0  0  0  0  0  0  0  0  0  0  0  0
  -21.4339  -17.7517   17.4297 O   0  0  0  0  0  0  0  0  0  0  0  0
  -28.8941  -26.5629   15.9460 O   0  0  0  0  0  0  0  0  0  0  0  0
  -19.5750  -27.8568   23.8307 O   0  0  0  0  0  0  0  0  0  0  0  0
  -26.1866  -19.1103   22.3983 O   0  0  0  0  0  0  0  0  0  1  0  0
  -15.0587  -30.9944   23.4280 F   0  0  0  0  0  0  0  0  0  0  0  0
  -17.2761  -26.8875   22.6397 F   0  0  0  0  0  0  0  0  0  0  0  0
  1  2  1  0  0  0  0
  1  5  2  0  0  0  0
  2  6  2  0  0  0  0
  3  8  2  0  0  0  0
  3 15  1  0  0  0  0
  4  9  1  0  0  0  0
  4 15  2  0  0  0  0
  5 17  1  0  0  0  0
  6 19  1  0  0  0  0
  7 10  2  0  0  0  0
  7 18  1  0  0  0  0
  8 27  1  0  0  0  0
  9 27  2  0  0  0  0
 10 28  1  0  0  0  0
 11 12  2  0  0  0  0
 11 29  1  0  0  0  0
 12 30  1  0  0  0  0
 13 20  1  0  0  0  0
 13 28  2  0  0  0  0
 14 30  2  0  0  0  0
 14 31  1  0  0  0  0
 15 32  1  0  0  0  0
 16 32  1  0  0  0  0
 16 33  2  0  0  0  0
 16 34  1  0  0  0  0
 17 19  2  0  0  0  0
 17 39  1  0  0  0  0
 18 20  2  0  0  0  0
 18 40  1  0  0  0  0
 19 52  1  0  0  0  0
 20 41  1  0  0  0  0
 21 22  2  0  0  0  0
 21 23  1  0  0  0  0
 21 56  1  0  0  0  0
 22 24  1  0  0  0  0
 22 57  1  0  0  0  0
 23 26  2  0  0  0  0
 23 58  1  0  0  0  0
 24 25  2  0  0  0  0
 24 59  1  0  0  0  0
 25 26  1  0  0  0  0
 25 60  1  0  0  0  0
 26 69  1  0  0  0  0
 27 89  1  0  0  0  0
 28 90  1  0  0  0  0
 29 31  2  0  0  0  0
 29 89  1  0  0  0  0
 30 91  1  0  0  0  0
 31 92  1  0  0  0  0
 32 73  2  0  0  0  0
 33 74  1  0  0  0  0
 33 77  1  0  0  0  0
 34 78  1  0  0  0  0
 34 84  2  0  0  0  0
 35 53  1  0  0  0  0
 35 79  1  0  0  0  0
 35 85  2  0  0  0  0
 36 70  1  0  0  0  0
 36 75  1  0  0  0  0
 36 86  2  0  0  0  0
 37 71  1  0  0  0  0
 37 80  1  0  0  0  0
 37 87  2  0  0  0  0
 38 76  1  0  0  0  0
 38 81  1  0  0  0  0
 38 88  2  0  0  0  0
 39 42  1  0  0  0  0
 40 53  1  0  0  0  0
 41 75  1  0  0  0  0
 42 44  1  0  0  0  0
 43 45  1  0  0  0  0
 43 48  1  0  0  0  0
 44 52  1  0  0  0  0
 45 54  1  0  0  0  0
 46 50  1  0  0  0  0
 46 55  1  0  0  0  0
 47 56  1  0  0  0  0
 47 57  1  0  0  0  0
 48 76  1  0  0  0  0
 49 54  1  0  0  0  0
 49 76  1  0  0  0  0
 50 82  1  0  0  0  0
 51 55  1  0  0  0  0
 51 82  1  0  0  0  0
 52 79  1  0  0  0  0
 53 75  1  0  0  0  0
 54 74  1  0  0  0  0
 55 81  1  0  0  0  0
 56 61  1  0  0  0  0
 56 62  1  0  0  0  0
 57 63  1  0  0  0  0
 57 90  1  0  0  0  0
 64 71  1  0  0  0  0
 65 72  1  0  0  0  0
 66 72  1  0  0  0  0
 67 72  1  0  0  0  0
 68 83  1  0  0  0  0
 69 82  1  0  0  0  0
 70 72  1  0  0  0  0
 70 80  1  0  0  0  0
 71 83  1  0  0  0  0
 73 74  1  0  0  0  0
M  CHG  2  82   1  83   1
M  ISO  4  38 100  57 101  81 100  90 101
M  END
> <Batch ID>
0169

> <Smiles>
CNC(C)C(=O)NC(C(=O)N1Cc2cc([101O:1][101C:1]3(C)CC(C)(C)c4c(C)c(CN5CCC([100NH:0][100C:0](=O)N6CCCC(n7nc(-c8ccc(Oc9ccc(F)cc9F)cc8)c(C(N)=O)c7N)C6)C5)c(C)c(C)c43)ccc2CC1C(=O)NC1CCCc2ccccc21)C(C)(C)C

> <Shape>
0.269

> <Color>
0.048

> <Negative vol penalty>
0.000

$$$$

  -OEChem-04052322323D

 84 93  0     1  0  0  0  0  0999 V2000
  -19.6173  -14.7173   17.0016 C   0  0  0  0  0  0  0  0  0  0  0  0
  -20.4341  -15.8204   17.2287 C   0  0  0  0  0  0  0  0  0  0  0  0
  -20.1362  -24.0194   21.8511 C   0  0  0  0  0  0  0  0  0  0  0  0
  -19.1355  -24.2214   24.0408 C   0  0  0  0  0  0  0  0  0  0  0  0
  -19.8786  -13.5122   17.6522 C   0  0  0  0  0  0  0  0  0  0  0  0
  -21.5120  -15.7192   18.1074 C   0  0  0  0  0  0  0  0  0  0  0  0
  -26.9310  -18.5313   17.6256 C   0  0  0  0  0  0  0  0  0  0  0  0
  -28.8724  -25.2680   20.8049 C   0  0  0  0  0  0  0  0  0  0  0  0
  -26.5984  -24.6166   20.3134 C   0  0  0  0  0  0  0  0  0  0  0  0
  -20.2845  -22.6461   22.0456 C   0  0  0  0  0  0  0  0  0  0  0  0
  -19.2838  -22.8482   24.2353 C   0  0  0  0  0  0  0  0  0  0  0  0
  -27.4455  -19.6841   18.2174 C   0  0  0  0  0  0  0  0  0  0  0  0
  -28.5502  -26.5977   20.5334 C   0  0  0  0  0  0  0  0  0  0  0  0
  -26.2762  -25.9463   20.0419 C   0  0  0  0  0  0  0  0  0  0  0  0
  -22.3903  -20.5771   23.6916 C   0  0  0  0  0  0  0  0  0  0  0  0
  -23.6111  -20.0016   23.3394 C   0  0  0  0  0  0  0  0  0  0  0  0
  -28.5016  -18.3341   19.9148 C   0  0  0  0  0  0  0  0  0  0  0  0
  -22.4789  -18.5671   21.7591 C   0  0  0  0  0  0  0  0  0  0  0  0
  -19.5617  -24.8070   22.8488 C   0  0  0  0  0  0  0  0  0  0  0  0
  -18.3042  -26.8902   22.0828 C   0  0  0  0  0  0  0  0  0  0  0  0
  -20.9660  -13.3934   18.5320 C   0  0  0  0  0  0  0  0  0  0  0  0
  -27.1894  -17.2700   18.1812 C   0  0  0  0  0  0  0  0  0  0  0  0
  -21.7873  -14.5117   18.7714 C   0  0  0  0  0  0  0  0  0  0  0  0
  -27.9914  -17.1667   19.3267 C   0  0  0  0  0  0  0  0  0  0  0  0
  -27.8965  -24.2774   20.6948 C   0  0  0  0  0  0  0  0  0  0  0  0
  -19.8583  -22.0605   23.2377 C   0  0  0  0  0  0  0  0  0  0  0  0
  -27.2521  -26.9369   20.1520 C   0  0  0  0  0  0  0  0  0  0  0  0
  -28.2285  -19.5858   19.3638 C   0  0  0  0  0  0  0  0  0  0  0  0
  -21.2138  -20.1476   23.0775 C   0  0  0  0  0  0  0  0  0  0  0  0
  -23.6554  -18.9966   22.3732 C   0  0  0  0  0  0  0  0  0  0  0  0
  -21.2581  -19.1426   22.1113 C   0  0  0  0  0  0  0  0  0  0  0  0
  -19.4087  -26.2257   22.6487 C   0  0  0  0  0  0  0  0  0  0  0  0
  -18.6481  -28.2195   22.1182 C   0  0  0  0  0  0  0  0  0  0  0  0
  -17.0769  -26.3538   21.5710 C   0  0  0  0  0  0  0  0  0  0  0  0
  -25.3979  -14.9545   19.4194 C   0  0  0  0  0  0  0  0  0  0  0  0
  -28.2174  -13.3529   19.5069 C   0  0  0  0  0  0  0  0  0  0  0  0
  -31.6261  -13.4908   19.6004 C   0  0  0  0  0  0  0  0  0  0  0  0
  -24.0651  -30.9342   22.3398 C   0  0  0  0  0  0  0  0  0  0  0  0
  -21.1805  -12.0837   19.2483 C   0  0  0  0  0  0  0  0  0  0  0  0
  -26.6493  -16.0340   17.5155 C   0  0  0  0  0  0  0  0  0  0  0  0
  -28.3151  -15.8346   19.9507 C   0  0  0  0  0  0  0  0  0  0  0  0
  -22.5654  -11.9531   19.8771 C   0  0  0  0  0  0  0  0  0  0  0  0
  -21.2677  -31.3606   24.5589 C   0  0  0  0  0  0  0  0  0  0  0  0
  -22.9279  -13.2241   20.6387 C   0  0  0  0  0  0  0  0  0  0  0  0
  -20.4022  -30.1287   24.3155 C   0  0  0  0  0  0  0  0  0  0  0  0
  -22.7461  -31.0218   24.4233 C   0  0  0  0  0  0  0  0  0  0  0  0
  -22.2343  -29.2150   22.8018 C   0  0  0  0  0  0  0  0  0  0  0  0
  -25.9130  -30.4038   20.6641 C   0  0  0  0  0  0  0  0  0  0  0  0
  -25.0816  -28.6566   21.5492 C   0  0  0  0  0  0  0  0  0  0  0  0
  -22.9809  -14.4344   19.6985 C   0  0  1  0  0  0  0  0  0  0  0  0
  -26.5497  -14.8410   18.4611 C   0  0  1  0  0  0  0  0  0  0  0  0
  -20.7275  -29.5053   22.9506 C   0  0  1  0  0  0  0  0  0  0  0  0
  -26.4722  -29.0160   21.0032 C   0  0  0  0  0  0  0  0  0  0  0  0
  -33.6550  -12.0177   19.7046 C   0  0  0  0  0  0  0  0  0  0  0  0
  -27.6933  -12.8447   22.4695 C   0  0  0  0  0  0  0  0  0  0  0  0
  -30.1089  -12.2363   22.7210 C   0  0  0  0  0  0  0  0  0  0  0  0
  -28.6343  -10.8894   21.2262 C   0  0  0  0  0  0  0  0  0  0  0  0
  -32.6382  -14.5047   17.0107 C   0  0  0  0  0  0  0  0  0  0  0  0
  -27.9696  -21.9085   19.8046 C   0  0  0  0  0  0  0  0  0  1  0  0
  -28.2407  -22.8559   20.9856 C   0  0  2  0  0  0  0  0  0  0  0  0
  -29.3356  -13.2109   20.5112 C   0  0  1  0  0  0  0  0  0  0  0  0
  -32.6862  -12.7594   18.7968 C   0  0  2  0  0  0  0  0  0  0  0  0
  -28.9355  -12.3207   21.7216 C   0  0  0  0  0  0  0  0  0  0  0  0
  -20.3816  -27.0637   23.0165 N   0  0  0  0  0  0  0  0  0  0  0  0
  -19.8895  -28.2684   22.6809 N   0  0  0  0  0  0  0  0  0  0  0  0
  -27.7585  -14.6558   19.2665 N   0  0  0  0  0  0  0  0  0  0  0  0
  -23.0517  -30.3895   23.1363 N   0  0  0  0  0  0  0  0  0  0  0  0
  -24.7971  -30.0818   21.5455 N   0  0  0  0  0  0  0  0  0  0  0  0
  -18.0067  -29.3395   21.7226 N   0  0  0  0  0  0  0  0  0  0  0  0
  -16.8862  -24.9659   21.6111 N   0  0  0  0  0  0  0  0  0  0  0  0
  -24.2128  -14.4309   18.9391 N   0  0  0  0  0  0  0  0  0  0  0  0
  -30.4925  -12.7238   19.7678 N   0  0  0  0  0  0  0  0  0  0  0  0
  -27.5067  -22.3066   22.1803 N   0  3  0  0  0  0  0  0  0  0  0  0
  -33.4635  -13.7227   17.9669 N   0  3  0  0  0  0  0  0  0  0  0  0
  -16.1831  -27.0823   21.0773 O   0  0  0  0  0  0  0  0  0  0  0  0
  -25.5720  -15.4771   20.5141 O   0  0  0  0  0  0  0  0  0  0  0  0
  -27.7725  -12.3457   18.9508 O   0  0  0  0  0  0  0  0  0  0  0  0
  -31.7889  -14.6272   20.0391 O   0  0  0  0  0  0  0  0  0  0  0  0
  -24.3323  -32.1431   22.3590 O   0  0  0  0  0  0  0  0  0  0  0  0
  -20.0026  -20.7205   23.4277 O   0  0  0  0  0  0  0  0  0  0  0  0
  -26.9371  -28.2366   19.8880 O   0  0  0  0  0  0  0  0  0  0  0  0
  -28.7347  -20.7169   19.9476 O   0  0  0  0  0  0  0  0  0  1  0  0
  -24.8280  -18.4451   22.0340 F   0  0  0  0  0  0  0  0  0  0  0  0
  -20.1313  -18.7266   21.5171 F   0  0  0  0  0  0  0  0  0  0  0  0
  1  2  1  0  0  0  0
  1  5  2  0  0  0  0
  2  6  2  0  0  0  0
  3 10  2  0  0  0  0
  3 19  1  0  0  0  0
  4 11  1  0  0  0  0
  4 19  2  0  0  0  0
  5 21  1  0  0  0  0
  6 23  1  0  0  0  0
  7 12  2  0  0  0  0
  7 22  1  0  0  0  0
  8 13  2  0  0  0  0
  8 25  1  0  0  0  0
  9 14  1  0  0  0  0
  9 25  2  0  0  0  0
 10 26  1  0  0  0  0
 11 26  2  0  0  0  0
 12 28  1  0  0  0  0
 13 27  1  0  0  0  0
 14 27  2  0  0  0  0
 15 16  2  0  0  0  0
 15 29  1  0  0  0  0
 16 30  1  0  0  0  0
 17 24  1  0  0  0  0
 17 28  2  0  0  0  0
 18 30  2  0  0  0  0
 18 31  1  0  0  0  0
 19 32  1  0  0  0  0
 20 32  1  0  0  0  0
 20 33  2  0  0  0  0
 20 34  1  0  0  0  0
 21 23  2  0  0  0  0
 21 39  1  0  0  0  0
 22 24  2  0  0  0  0
 22 40  1  0  0  0  0
 23 50  1  0  0  0  0
 24 41  1  0  0  0  0
 25 60  1  0  0  0  0
 26 80  1  0  0  0  0
 27 81  1  0  0  0  0
 28 82  1  0  0  0  0
 29 31  2  0  0  0  0
 29 80  1  0  0  0  0
 30 83  1  0  0  0  0
 31 84  1  0  0  0  0
 32 64  2  0  0  0  0
 33 65  1  0  0  0  0
 33 69  1  0  0  0  0
 34 70  1  0  0  0  0
 34 75  2  0  0  0  0
 35 51  1  0  0  0  0
 35 71  1  0  0  0  0
 35 76  2  0  0  0  0
 36 61  1  0  0  0  0
 36 66  1  0  0  0  0
 36 77  2  0  0  0  0
 37 62  1  0  0  0  0
 37 72  1  0  0  0  0
 37 78  2  0  0  0  0
 38 67  1  0  0  0  0
 38 68  1  0  0  0  0
 38 79  2  0  0  0  0
 39 42  1  0  0  0  0
 40 51  1  0  0  0  0
 41 66  1  0  0  0  0
 42 44  1  0  0  0  0
 43 45  1  0  0  0  0
 43 46  1  0  0  0  0
 44 50  1  0  0  0  0
 45 52  1  0  0  0  0
 46 67  1  0  0  0  0
 47 52  1  0  0  0  0
 47 67  1  0  0  0  0
 48 53  1  0  0  0  0
 48 68  1  0  0  0  0
 49 53  1  0  0  0  0
 49 68  1  0  0  0  0
 50 71  1  0  0  0  0
 51 66  1  0  0  0  0
 52 65  1  0  0  0  0
 53 81  1  0  0  0  0
 54 62  1  0  0  0  0
 55 63  1  0  0  0  0
 56 63  1  0  0  0  0
 57 63  1  0  0  0  0
 58 74  1  0  0  0  0
 59 60  1  0  0  0  0
 59 82  1  0  0  0  0
 60 73  1  0  0  0  0
 61 63  1  0  0  0  0
 61 72  1  0  0  0  0
 62 74  1  0  0  0  0
 64 65  1  0  0  0  0
M  CHG  2  73   1  74   1
M  ISO  4  38 100  59 101  68 100  82 101
M  END
> <Batch ID>
0169

> <Smiles>
CNC(C)C(=O)NC(C(=O)N1Cc2cc([101O:1][101CH2:1]C(N)c3ccc(OC4C[100N:0]([100C:0](=O)N5CCCC(n6nc(-c7ccc(Oc8ccc(F)cc8F)cc7)c(C(N)=O)c6N)C5)C4)cc3)ccc2CC1C(=O)NC1CCCc2ccccc21)C(C)(C)C

> <Shape>
0.242

> <Color>
0.074

> <Negative vol penalty>
0.000

$$$$

  -OEChem-04052322323D

 84 93  0     1  0  0  0  0  0999 V2000
  -29.9622  -32.6250   25.4332 C   0  0  0  0  0  0  0  0  0  0  0  0
  -29.5842  -31.4084   24.8743 C   0  0  0  0  0  0  0  0  0  0  0  0
  -25.5457   -9.8114   22.8566 C   0  0  0  0  0  0  0  0  0  0  0  0
  -23.3464   -9.9853   21.8717 C   0  0  0  0  0  0  0  0  0  0  0  0
  -28.9885  -33.5306   25.8526 C   0  0  0  0  0  0  0  0  0  0  0  0
  -28.2323  -31.0962   24.7354 C   0  0  0  0  0  0  0  0  0  0  0  0
  -27.1523  -29.1119   20.2032 C   0  0  0  0  0  0  0  0  0  0  0  0
  -25.0651   -8.8662   23.7629 C   0  0  0  0  0  0  0  0  0  0  0  0
  -22.8658   -9.0401   22.7779 C   0  0  0  0  0  0  0  0  0  0  0  0
  -27.4753  -27.7706   20.0020 C   0  0  0  0  0  0  0  0  0  0  0  0
  -22.9284   -5.6805   23.1384 C   0  0  0  0  0  0  0  0  0  0  0  0
  -22.1114   -4.6652   22.6413 C   0  0  0  0  0  0  0  0  0  0  0  0
  -25.1758  -27.1627   20.4045 C   0  0  0  0  0  0  0  0  0  0  0  0
  -20.3253   -5.3889   24.0984 C   0  0  0  0  0  0  0  0  0  0  0  0
  -24.6863  -10.3710   21.9110 C   0  0  0  0  0  0  0  0  0  0  0  0
  -25.7323  -11.1031   19.7025 C   0  0  0  0  0  0  0  0  0  0  0  0
  -27.6240  -33.2334   25.7100 C   0  0  0  0  0  0  0  0  0  0  0  0
  -25.8386  -29.4881   20.5178 C   0  0  0  0  0  0  0  0  0  0  0  0
  -27.2395  -31.9980   25.1545 C   0  0  0  0  0  0  0  0  0  0  0  0
  -24.8382  -28.5096   20.6067 C   0  0  0  0  0  0  0  0  0  0  0  0
  -28.4341  -21.4544   20.2928 C   0  0  0  0  0  0  0  0  0  0  0  0
  -28.5614  -20.9417   18.9896 C   0  0  0  0  0  0  0  0  0  0  0  0
  -28.2921  -22.8365   20.4813 C   0  0  0  0  0  0  0  0  0  0  0  0
  -28.5780  -21.8255   17.9008 C   0  0  0  0  0  0  0  0  0  0  0  0
  -28.4474  -23.1995   18.1007 C   0  0  0  0  0  0  0  0  0  0  0  0
  -28.3019  -23.7044   19.3899 C   0  0  0  0  0  0  0  0  0  0  0  0
  -23.7252   -8.4806   23.7235 C   0  0  0  0  0  0  0  0  0  0  0  0
  -26.4876  -26.7955   20.1055 C   0  0  0  0  0  0  0  0  0  0  0  0
  -22.4439   -6.5501   24.1156 C   0  0  0  0  0  0  0  0  0  0  0  0
  -20.8098   -4.5194   23.1213 C   0  0  0  0  0  0  0  0  0  0  0  0
  -21.1423   -6.4043   24.5956 C   0  0  0  0  0  0  0  0  0  0  0  0
  -25.1820  -11.3478   20.9750 C   0  0  0  0  0  0  0  0  0  0  0  0
  -26.0466  -12.3496   19.2189 C   0  0  0  0  0  0  0  0  0  0  0  0
  -25.9407   -9.8602   19.0188 C   0  0  0  0  0  0  0  0  0  0  0  0
  -24.4452  -30.9119   22.9947 C   0  0  0  0  0  0  0  0  0  0  0  0
  -21.8317  -30.8270   21.0751 C   0  0  0  0  0  0  0  0  0  0  0  0
  -20.2071  -29.3614   18.4560 C   0  0  0  0  0  0  0  0  0  0  0  0
  -28.1333  -17.2776   19.7074 C   0  0  0  0  0  0  0  0  0  0  0  0
  -26.6080  -34.2238   26.2214 C   0  0  0  0  0  0  0  0  0  0  0  0
  -25.5010  -30.9418   20.7055 C   0  0  0  0  0  0  0  0  0  0  0  0
  -28.3932  -20.5342   21.4856 C   0  0  0  0  0  0  0  0  0  0  0  0
  -23.4086  -28.8634   20.9221 C   0  0  0  0  0  0  0  0  0  0  0  0
  -28.7215  -19.4646   18.7389 C   0  0  0  0  0  0  0  0  0  0  0  0
  -25.1967  -33.9752   25.6953 C   0  0  0  0  0  0  0  0  0  0  0  0
  -24.8463  -16.9514   20.9176 C   0  0  0  0  0  0  0  0  0  0  0  0
  -24.8375  -32.4970   25.8082 C   0  0  0  0  0  0  0  0  0  0  0  0
  -24.6815  -15.4324   20.9433 C   0  0  0  0  0  0  0  0  0  0  0  0
  -28.9679  -19.1555   21.1777 C   0  0  0  0  0  0  0  0  0  0  0  0
  -26.2370  -17.3855   21.3840 C   0  0  0  0  0  0  0  0  0  0  0  0
  -27.1809  -15.2097   20.6817 C   0  0  0  0  0  0  0  0  0  0  0  0
  -25.7831  -31.6336   24.9645 C   0  0  1  0  0  0  0  0  0  0  0  0
  -24.2346  -31.1598   21.5278 C   0  0  1  0  0  0  0  0  0  0  0  0
  -25.8129  -14.7418   20.1615 C   0  0  1  0  0  0  0  0  0  0  0  0
  -28.1375  -23.4037   21.8597 C   0  0  0  0  0  0  0  0  0  0  0  0
  -28.7305  -21.3042   16.5039 C   0  0  0  0  0  0  0  0  0  0  0  0
  -28.4638  -24.1322   16.9306 C   0  0  0  0  0  0  0  0  0  0  0  0
  -18.0711  -29.4855   17.1447 C   0  0  0  0  0  0  0  0  0  0  0  0
  -20.3498  -29.4574   23.3638 C   0  0  0  0  0  0  0  0  0  0  0  0
  -18.5926  -28.7663   21.7199 C   0  0  0  0  0  0  0  0  0  0  0  0
  -19.0169  -31.1874   22.1452 C   0  0  0  0  0  0  0  0  0  0  0  0
  -21.6489  -29.9684   15.9437 C   0  0  0  0  0  0  0  0  0  0  0  0
  -28.1577  -25.1787   19.6027 C   0  0  0  0  0  0  0  0  0  1  0  0
  -20.7119  -29.8431   20.8367 C   0  0  1  0  0  0  0  0  0  0  0  0
  -19.5149  -29.9534   17.2416 C   0  0  2  0  0  0  0  0  0  0  0  0
  -19.6950  -29.8063   22.0123 C   0  0  0  0  0  0  0  0  0  0  0  0
  -25.1474  -12.6476   21.2806 N   0  0  0  0  0  0  0  0  0  0  0  0
  -25.6800  -13.2308   20.1932 N   0  0  0  0  0  0  0  0  0  0  0  0
  -23.1297  -30.2976   21.1033 N   0  0  0  0  0  0  0  0  0  0  0  0
  -28.4434  -18.6333   19.9110 N   0  0  0  0  0  0  0  0  0  0  0  0
  -27.2834  -16.6701   20.6426 N   0  0  0  0  0  0  0  0  0  0  0  0
  -26.5980  -12.7670   18.0595 N   0  0  0  0  0  0  0  0  0  0  0  0
  -25.5606   -8.6732   19.6598 N   0  0  0  0  0  0  0  0  0  0  0  0
  -25.4210  -31.7067   23.5652 N   0  0  0  0  0  0  0  0  0  0  0  0
  -20.1242  -30.1976   19.5493 N   0  0  0  0  0  0  0  0  0  0  0  0
  -20.2240  -29.5514   15.9940 N   0  3  0  0  0  0  0  0  0  0  0  0
  -26.4640   -9.8027   17.8803 O   0  0  0  0  0  0  0  0  0  0  0  0
  -23.7711  -30.0635   23.5669 O   0  0  0  0  0  0  0  0  0  0  0  0
  -21.5653  -32.0222   21.2234 O   0  0  0  0  0  0  0  0  0  0  0  0
  -20.7623  -28.2651   18.4378 O   0  0  0  0  0  0  0  0  0  0  0  0
  -28.5926  -16.6489   18.7454 O   0  0  0  0  0  0  0  0  0  0  0  0
  -23.2560   -7.5581   24.6076 O   0  0  0  0  0  0  0  0  0  0  0  0
  -26.8027  -25.4758   19.9088 O   0  0  0  0  0  0  0  0  0  1  0  0
  -20.0249   -3.5452   22.6427 F   0  0  0  0  0  0  0  0  0  0  0  0
  -20.6709   -7.2374   25.5334 F   0  0  0  0  0  0  0  0  0  0  0  0
  1  2  1  0  0  0  0
  1  5  2  0  0  0  0
  2  6  2  0  0  0  0
  3  8  2  0  0  0  0
  3 15  1  0  0  0  0
  4  9  1  0  0  0  0
  4 15  2  0  0  0  0
  5 17  1  0  0  0  0
  6 19  1  0  0  0  0
  7 10  2  0  0  0  0
  7 18  1  0  0  0  0
  8 27  1  0  0  0  0
  9 27  2  0  0  0  0
 10 28  1  0  0  0  0
 11 12  2  0  0  0  0
 11 29  1  0  0  0  0
 12 30  1  0  0  0  0
 13 20  1  0  0  0  0
 13 28  2  0  0  0  0
 14 30  2  0  0  0  0
 14 31  1  0  0  0  0
 15 32  1  0  0  0  0
 16 32  1  0  0  0  0
 16 33  2  0  0  0  0
 16 34  1  0  0  0  0
 17 19  2  0  0  0  0
 17 39  1  0  0  0  0
 18 20  2  0  0  0  0
 18 40  1  0  0  0  0
 19 51  1  0  0  0  0
 20 42  1  0  0  0  0
 21 22  2  0  0  0  0
 21 23  1  0  0  0  0
 21 41  1  0  0  0  0
 22 24  1  0  0  0  0
 22 43  1  0  0  0  0
 23 26  2  0  0  0  0
 23 54  1  0  0  0  0
 24 25  2  0  0  0  0
 24 55  1  0  0  0  0
 25 26  1  0  0  0  0
 25 56  1  0  0  0  0
 26 62  1  0  0  0  0
 27 81  1  0  0  0  0
 28 82  1  0  0  0  0
 29 31  2  0  0  0  0
 29 81  1  0  0  0  0
 30 83  1  0  0  0  0
 31 84  1  0  0  0  0
 32 66  2  0  0  0  0
 33 67  1  0  0  0  0
 33 71  1  0  0  0  0
 34 72  1  0  0  0  0
 34 76  2  0  0  0  0
 35 52  1  0  0  0  0
 35 73  1  0  0  0  0
 35 77  2  0  0  0  0
 36 63  1  0  0  0  0
 36 68  1  0  0  0  0
 36 78  2  0  0  0  0
 37 64  1  0  0  0  0
 37 74  1  0  0  0  0
 37 79  2  0  0  0  0
 38 69  1  0  0  0  0
 38 70  1  0  0  0  0
 38 80  2  0  0  0  0
 39 44  1  0  0  0  0
 40 52  1  0  0  0  0
 41 48  1  0  0  0  0
 42 68  1  0  0  0  0
 43 69  1  0  0  0  0
 44 46  1  0  0  0  0
 45 47  1  0  0  0  0
 45 49  1  0  0  0  0
 46 51  1  0  0  0  0
 47 53  1  0  0  0  0
 48 69  1  0  0  0  0
 49 70  1  0  0  0  0
 50 53  1  0  0  0  0
 50 70  1  0  0  0  0
 51 73  1  0  0  0  0
 52 68  1  0  0  0  0
 53 67  1  0  0  0  0
 57 64  1  0  0  0  0
 58 65  1  0  0  0  0
 59 65  1  0  0  0  0
 60 65  1  0  0  0  0
 61 75  1  0  0  0  0
 62 82  1  0  0  0  0
 63 65  1  0  0  0  0
 63 74  1  0  0  0  0
 64 75  1  0  0  0  0
 66 67  1  0  0  0  0
M  CHG  1  75   1
M  ISO  4  38 100  62 101  69 100  82 101
M  END
> <Batch ID>
0169

> <Smiles>
CNC(C)C(=O)NC(C(=O)N1Cc2cc([101O:1][101CH2:1]c3c(C)c(C)c4c(c3C)CC[100N:0]([100C:0](=O)N3CCCC(n5nc(-c6ccc(Oc7ccc(F)cc7F)cc6)c(C(N)=O)c5N)C3)C4)ccc2CC1C(=O)NC1CCCc2ccccc21)C(C)(C)C

> <Shape>
0.311

> <Color>
0.073

> <Negative vol penalty>
0.000

$$$$

  -OEChem-04052322323D

 91102  0     1  0  0  0  0  0999 V2000
  -27.1040  -39.0556   25.4638 C   0  0  0  0  0  0  0  0  0  0  0  0
  -27.9954  -37.9939   25.3475 C   0  0  0  0  0  0  0  0  0  0  0  0
  -24.1048   -9.4723   21.2985 C   0  0  0  0  0  0  0  0  0  0  0  0
  -24.6469  -10.4711   23.4305 C   0  0  0  0  0  0  0  0  0  0  0  0
  -25.7466  -38.8062   25.6619 C   0  0  0  0  0  0  0  0  0  0  0  0
  -27.5301  -36.6820   25.4303 C   0  0  0  0  0  0  0  0  0  0  0  0
  -28.8262  -30.1255   22.8517 C   0  0  0  0  0  0  0  0  0  0  0  0
  -23.6704   -8.3179   21.9497 C   0  0  0  0  0  0  0  0  0  0  0  0
  -24.2124   -9.3167   24.0818 C   0  0  0  0  0  0  0  0  0  0  0  0
  -29.0494  -28.8208   23.2893 C   0  0  0  0  0  0  0  0  0  0  0  0
  -20.9247   -7.2926   23.6358 C   0  0  0  0  0  0  0  0  0  0  0  0
  -19.7194   -6.7278   23.2190 C   0  0  0  0  0  0  0  0  0  0  0  0
  -26.6720  -28.5092   23.5538 C   0  0  0  0  0  0  0  0  0  0  0  0
  -31.6299  -20.6796   22.5170 C   0  0  0  0  0  0  0  0  0  0  0  0
  -20.8734   -4.6814   22.6551 C   0  0  0  0  0  0  0  0  0  0  0  0
  -24.5931  -10.5489   22.0389 C   0  0  0  0  0  0  0  0  0  0  0  0
  -24.2717  -12.8714   21.0336 C   0  0  0  0  0  0  0  0  0  0  0  0
  -25.2630  -37.4905   25.7375 C   0  0  0  0  0  0  0  0  0  0  0  0
  -27.5227  -30.6364   22.7721 C   0  0  0  0  0  0  0  0  0  0  0  0
  -26.1652  -36.4147   25.6309 C   0  0  0  0  0  0  0  0  0  0  0  0
  -26.4348  -29.8200   23.1125 C   0  0  0  0  0  0  0  0  0  0  0  0
  -30.2459  -20.5460   22.5102 C   0  0  0  0  0  0  0  0  0  0  0  0
  -29.4439  -21.6670   22.6937 C   0  0  0  0  0  0  0  0  0  0  0  0
  -23.7242   -8.2400   23.3414 C   0  0  0  0  0  0  0  0  0  0  0  0
  -27.9724  -28.0133   23.6432 C   0  0  0  0  0  0  0  0  0  0  0  0
  -22.1044   -6.5519   23.5622 C   0  0  0  0  0  0  0  0  0  0  0  0
  -19.6938   -5.4222   22.7286 C   0  0  0  0  0  0  0  0  0  0  0  0
  -22.0788   -5.2463   23.0719 C   0  0  0  0  0  0  0  0  0  0  0  0
  -25.0426  -11.7415   21.3667 C   0  0  0  0  0  0  0  0  0  0  0  0
  -30.0700  -22.8891   22.8786 C   0  0  0  0  0  0  0  0  0  0  0  0
  -32.1581  -21.9460   22.7097 C   0  0  0  0  0  0  0  0  0  0  0  0
  -25.1558  -13.7193   20.4125 C   0  0  0  0  0  0  0  0  0  0  0  0
  -22.8807  -13.1312   21.2650 C   0  0  0  0  0  0  0  0  0  0  0  0
  -25.9617  -33.0279   24.1677 C   0  0  0  0  0  0  0  0  0  0  0  0
  -23.6153  -32.1931   22.0893 C   0  0  0  0  0  0  0  0  0  0  0  0
  -22.2092  -29.7847   20.1222 C   0  0  0  0  0  0  0  0  0  0  0  0
  -30.1607  -16.1675   20.1787 C   0  0  0  0  0  0  0  0  0  0  0  0
  -23.7941  -37.2709   25.9997 C   0  0  0  0  0  0  0  0  0  0  0  0
  -27.2970  -32.0371   22.2726 C   0  0  0  0  0  0  0  0  0  0  0  0
  -25.0146  -30.3141   23.0254 C   0  0  0  0  0  0  0  0  0  0  0  0
  -23.3281  -35.8482   25.7014 C   0  0  0  0  0  0  0  0  0  0  0  0
  -29.8473  -12.9579   18.7353 C   0  0  0  0  0  0  0  0  0  0  0  0
  -27.2729  -20.9282   21.5043 C   0  0  0  0  0  0  0  0  0  0  0  0
  -27.1589  -22.4024   21.7364 C   0  0  0  0  0  0  0  0  0  0  0  0
  -24.2958  -34.8327   26.3007 C   0  0  0  0  0  0  0  0  0  0  0  0
  -29.5517  -25.1881   21.9971 C   0  0  0  0  0  0  0  0  0  0  0  0
  -28.5263  -12.4259   19.2840 C   0  0  0  0  0  0  0  0  0  0  0  0
  -30.1523  -26.3859   22.7330 C   0  0  0  0  0  0  0  0  0  0  0  0
  -30.0426  -18.0812   23.3057 C   0  0  0  0  0  0  0  0  0  0  0  0
  -29.5975  -24.8006   24.4280 C   0  0  0  0  0  0  0  0  0  0  0  0
  -30.5868  -13.7653   19.7937 C   0  0  0  0  0  0  0  0  0  0  0  0
  -29.6190  -16.7989   22.6020 C   0  0  0  0  0  0  0  0  0  0  0  0
  -30.0124  -18.5091   20.9702 C   0  0  0  0  0  0  0  0  0  0  0  0
  -28.4504  -14.4184   20.8705 C   0  0  0  0  0  0  0  0  0  0  0  0
  -29.6412  -19.1750   22.3027 C   0  0  2  0  0  0  0  0  0  0  0  0
  -27.9556  -21.5538   22.6914 C   0  0  0  0  0  0  0  0  0  0  0  0
  -25.6952  -34.9775   25.6905 C   0  0  1  0  0  0  0  0  0  0  0  0
  -29.2621  -24.1295   23.0804 C   0  0  2  0  0  0  0  0  0  0  0  0
  -25.9617  -32.6233   22.7206 C   0  0  1  0  0  0  0  0  0  0  0  0
  -27.6703  -13.5734   19.8423 C   0  0  2  0  0  0  0  0  0  0  0  0
  -29.5469  -26.2992   24.1319 C   0  0  1  0  0  0  0  0  0  1  0  0
  -33.6393  -22.1269   22.7224 C   0  0  0  0  0  0  0  0  0  0  0  0
  -30.2896  -27.1436   25.1555 C   0  0  0  0  0  0  0  0  0  0  0  0
  -20.2764  -29.3882   18.5716 C   0  0  0  0  0  0  0  0  0  0  0  0
  -21.7379  -31.9877   24.4858 C   0  0  0  0  0  0  0  0  0  0  0  0
  -20.1475  -30.7022   23.0413 C   0  0  0  0  0  0  0  0  0  0  0  0
  -20.7319  -33.0569   22.4612 C   0  0  0  0  0  0  0  0  0  0  0  0
  -24.0063  -29.2073   17.8428 C   0  0  0  0  0  0  0  0  0  0  0  0
  -22.4502  -31.2337   22.1214 C   0  0  1  0  0  0  0  0  0  0  0  0
  -21.7327  -29.8125   18.6812 C   0  0  2  0  0  0  0  0  0  0  0  0
  -21.2936  -31.7362   23.0310 C   0  0  0  0  0  0  0  0  0  0  0  0
  -26.3182  -11.8579   20.9883 N   0  0  0  0  0  0  0  0  0  0  0  0
  -31.4112  -23.0581   22.8914 N   0  0  0  0  0  0  0  0  0  0  0  0
  -26.3557  -13.0709   20.4110 N   0  0  0  0  0  0  0  0  0  0  0  0
  -24.8460  -31.6928   22.5374 N   0  0  0  0  0  0  0  0  0  0  0  0
  -29.7538  -14.8384   20.3397 N   0  0  0  0  0  0  0  0  0  0  0  0
  -29.8308  -17.0768   21.1830 N   0  0  0  0  0  0  0  0  0  0  0  0
  -25.0161  -14.9488   19.8728 N   0  0  0  0  0  0  0  0  0  0  0  0
  -22.1176  -12.1527   21.9165 N   0  0  0  0  0  0  0  0  0  0  0  0
  -25.7377  -34.3756   24.3751 N   0  0  0  0  0  0  0  0  0  0  0  0
  -22.0647  -31.0130   20.7318 N   0  0  0  0  0  0  0  0  0  0  0  0
  -22.5546  -28.8918   17.8459 N   0  3  0  0  0  0  0  0  0  0  0  0
  -22.3272  -14.1925   20.8900 O   0  0  0  0  0  0  0  0  0  0  0  0
  -26.1494  -32.1799   25.0321 O   0  0  0  0  0  0  0  0  0  0  0  0
  -23.4414  -33.3419   21.6749 O   0  0  0  0  0  0  0  0  0  0  0  0
  -22.6608  -28.7734   20.6551 O   0  0  0  0  0  0  0  0  0  0  0  0
  -30.8283  -16.5209   19.1973 O   0  0  0  0  0  0  0  0  0  0  0  0
  -23.3001   -7.1138   23.9772 O   0  0  0  0  0  0  0  0  0  0  0  0
  -28.1887  -26.7328   24.0736 O   0  0  0  0  0  0  0  0  0  1  0  0
  -18.5360   -4.8794   22.3298 F   0  0  0  0  0  0  0  0  0  0  0  0
  -23.2087   -4.5294   22.9999 F   0  0  0  0  0  0  0  0  0  0  0  0
  1  2  1  0  0  0  0
  1  5  2  0  0  0  0
  2  6  2  0  0  0  0
  3  8  2  0  0  0  0
  3 16  1  0  0  0  0
  4  9  1  0  0  0  0
  4 16  2  0  0  0  0
  5 18  1  0  0  0  0
  6 20  1  0  0  0  0
  7 10  2  0  0  0  0
  7 19  1  0  0  0  0
  8 24  1  0  0  0  0
  9 24  2  0  0  0  0
 10 25  1  0  0  0  0
 11 12  2  0  0  0  0
 11 26  1  0  0  0  0
 12 27  1  0  0  0  0
 13 21  1  0  0  0  0
 13 25  2  0  0  0  0
 14 22  2  0  0  0  0
 14 31  1  0  0  0  0
 15 27  2  0  0  0  0
 15 28  1  0  0  0  0
 16 29  1  0  0  0  0
 17 29  1  0  0  0  0
 17 32  2  0  0  0  0
 17 33  1  0  0  0  0
 18 20  2  0  0  0  0
 18 38  1  0  0  0  0
 19 21  2  0  0  0  0
 19 39  1  0  0  0  0
 20 57  1  0  0  0  0
 21 40  1  0  0  0  0
 22 23  1  0  0  0  0
 22 55  1  0  0  0  0
 23 30  2  0  0  0  0
 23 56  1  0  0  0  0
 24 88  1  0  0  0  0
 25 89  1  0  0  0  0
 26 28  2  0  0  0  0
 26 88  1  0  0  0  0
 27 90  1  0  0  0  0
 28 91  1  0  0  0  0
 29 72  2  0  0  0  0
 30 58  1  0  0  0  0
 30 73  1  0  0  0  0
 31 62  1  0  0  0  0
 31 73  2  0  0  0  0
 32 74  1  0  0  0  0
 32 78  1  0  0  0  0
 33 79  1  0  0  0  0
 33 83  2  0  0  0  0
 34 59  1  0  0  0  0
 34 80  1  0  0  0  0
 34 84  2  0  0  0  0
 35 69  1  0  0  0  0
 35 75  1  0  0  0  0
 35 85  2  0  0  0  0
 36 70  1  0  0  0  0
 36 81  1  0  0  0  0
 36 86  2  0  0  0  0
 37 76  1  0  0  0  0
 37 77  1  0  0  0  0
 37 87  2  0  0  0  0
 38 41  1  0  0  0  0
 39 59  1  0  0  0  0
 40 75  1  0  0  0  0
 41 45  1  0  0  0  0
 42 47  1  0  0  0  0
 42 51  1  0  0  0  0
 43 44  1  0  0  0  0
 43 56  1  0  0  0  0
 44 56  1  0  0  0  0
 45 57  1  0  0  0  0
 46 48  1  0  0  0  0
 46 58  1  0  0  0  0
 47 60  1  0  0  0  0
 48 61  1  0  0  0  0
 49 52  1  0  0  0  0
 49 55  1  0  0  0  0
 50 58  1  0  0  0  0
 50 61  1  0  0  0  0
 51 76  1  0  0  0  0
 52 77  1  0  0  0  0
 53 55  1  0  0  0  0
 53 77  1  0  0  0  0
 54 60  1  0  0  0  0
 54 76  1  0  0  0  0
 57 80  1  0  0  0  0
 59 75  1  0  0  0  0
 60 74  1  0  0  0  0
 61 63  1  0  0  0  0
 61 89  1  0  0  0  0
 64 70  1  0  0  0  0
 65 71  1  0  0  0  0
 66 71  1  0  0  0  0
 67 71  1  0  0  0  0
 68 82  1  0  0  0  0
 69 71  1  0  0  0  0
 69 81  1  0  0  0  0
 70 82  1  0  0  0  0
 72 74  1  0  0  0  0
M  CHG  1  82   1
M  ISO  4  37 100  61 101  77 100  89 101
M  END
> <Batch ID>
0169

> <Smiles>
CNC(C)C(=O)NC(C(=O)N1Cc2cc([101O:1][101C:1]3(C)CCC(c4nc(C)cc(C5CC[100N:0]([100C:0](=O)N6CCCC(n7nc(-c8ccc(Oc9ccc(F)cc9F)cc8)c(C(N)=O)c7N)C6)C5)c4C4CC4)C3)ccc2CC1C(=O)NC1CCCc2ccccc21)C(C)(C)C

> <Shape>
0.288

> <Color>
0.118

> <Negative vol penalty>
0.000

$$$$

  -OEChem-04052322323D

 89 98  0     1  0  0  0  0  0999 V2000
  -17.4924  -13.0428   22.7446 C   0  0  0  0  0  0  0  0  0  0  0  0
  -18.1610  -14.2071   22.3804 C   0  0  0  0  0  0  0  0  0  0  0  0
  -26.3527  -27.7865   22.3718 C   0  0  0  0  0  0  0  0  0  0  0  0
  -25.8186  -28.9118   20.3017 C   0  0  0  0  0  0  0  0  0  0  0  0
  -18.1978  -11.9853   23.3174 C   0  0  0  0  0  0  0  0  0  0  0  0
  -19.5354  -14.3151   22.5898 C   0  0  0  0  0  0  0  0  0  0  0  0
  -23.5780  -17.2594   19.0551 C   0  0  0  0  0  0  0  0  0  0  0  0
  -27.3083  -27.0178   21.7075 C   0  0  0  0  0  0  0  0  0  0  0  0
  -26.7743  -28.1431   19.6373 C   0  0  0  0  0  0  0  0  0  0  0  0
  -24.1615  -18.5221   19.1491 C   0  0  0  0  0  0  0  0  0  0  0  0
  -30.4721  -27.4060   20.5793 C   0  0  0  0  0  0  0  0  0  0  0  0
  -31.7161  -27.2484   21.1902 C   0  0  0  0  0  0  0  0  0  0  0  0
  -26.0874  -17.5454   20.2243 C   0  0  0  0  0  0  0  0  0  0  0  0
  -31.3886  -24.8552   21.2397 C   0  0  0  0  0  0  0  0  0  0  0  0
  -25.6078  -28.7335   21.6690 C   0  0  0  0  0  0  0  0  0  0  0  0
  -24.8159  -30.7729   22.9809 C   0  0  0  0  0  0  0  0  0  0  0  0
  -19.5831  -12.0766   23.5251 C   0  0  0  0  0  0  0  0  0  0  0  0
  -24.2412  -16.1298   19.5556 C   0  0  0  0  0  0  0  0  0  0  0  0
  -20.2598  -13.2584   23.1672 C   0  0  0  0  0  0  0  0  0  0  0  0
  -25.5113  -16.2691   20.1331 C   0  0  0  0  0  0  0  0  0  0  0  0
  -24.2917  -23.9090   18.6979 C   0  0  0  0  0  0  0  0  0  0  0  0
  -25.5931  -23.4213   18.6546 C   0  0  0  0  0  0  0  0  0  0  0  0
  -23.9151  -24.9456   17.8512 C   0  0  0  0  0  0  0  0  0  0  0  0
  -27.5191  -27.1961   20.3402 C   0  0  0  0  0  0  0  0  0  0  0  0
  -25.4151  -18.6657   19.7364 C   0  0  0  0  0  0  0  0  0  0  0  0
  -29.6862  -26.2882   20.2987 C   0  0  0  0  0  0  0  0  0  0  0  0
  -32.1744  -25.9730   21.5203 C   0  0  0  0  0  0  0  0  0  0  0  0
  -30.1445  -25.0128   20.6289 C   0  0  0  0  0  0  0  0  0  0  0  0
  -24.6201  -29.5275   22.3546 C   0  0  0  0  0  0  0  0  0  0  0  0
  -26.4728  -23.9997   17.7538 C   0  0  0  0  0  0  0  0  0  0  0  0
  -24.8700  -25.4559   16.9865 C   0  0  0  0  0  0  0  0  0  0  0  0
  -23.5798  -31.1048   23.4792 C   0  0  0  0  0  0  0  0  0  0  0  0
  -26.0085  -31.5596   23.1013 C   0  0  0  0  0  0  0  0  0  0  0  0
  -23.6220  -13.9840   21.8176 C   0  0  0  0  0  0  0  0  0  0  0  0
  -26.2960  -12.5624   20.6553 C   0  0  0  0  0  0  0  0  0  0  0  0
  -29.2500  -12.8808   18.9761 C   0  0  0  0  0  0  0  0  0  0  0  0
  -20.6967  -26.8473   21.4738 C   0  0  0  0  0  0  0  0  0  0  0  0
  -20.2947  -10.9256   24.1909 C   0  0  0  0  0  0  0  0  0  0  0  0
  -23.6099  -14.7710   19.4225 C   0  0  0  0  0  0  0  0  0  0  0  0
  -26.2737  -15.0852   20.6675 C   0  0  0  0  0  0  0  0  0  0  0  0
  -21.8124  -10.9755   24.0348 C   0  0  0  0  0  0  0  0  0  0  0  0
  -21.1206  -27.8467   24.8780 C   0  0  0  0  0  0  0  0  0  0  0  0
  -18.5828  -27.4039   18.5805 C   0  0  0  0  0  0  0  0  0  0  0  0
  -22.3342  -12.3770   24.3357 C   0  0  0  0  0  0  0  0  0  0  0  0
  -21.0351  -29.3687   24.8520 C   0  0  0  0  0  0  0  0  0  0  0  0
  -19.8275  -26.8900   17.8706 C   0  0  0  0  0  0  0  0  0  0  0  0
  -20.1740  -27.2391   23.8545 C   0  0  0  0  0  0  0  0  0  0  0  0
  -19.1560  -28.0413   19.8367 C   0  0  0  0  0  0  0  0  0  0  0  0
  -20.4298  -29.2180   22.3696 C   0  0  0  0  0  0  0  0  0  0  0  0
  -21.7542  -13.4039   23.3556 C   0  0  1  0  0  0  0  0  0  0  0  0
  -24.1503  -13.7599   20.4289 C   0  0  1  0  0  0  0  0  0  0  0  0
  -21.2647  -29.9479   23.4469 C   0  0  2  0  0  0  0  0  0  0  0  0
  -20.7083  -26.3939   19.0206 C   0  0  1  0  0  0  0  0  0  0  0  0
  -23.3025  -23.3183   19.6527 C   0  0  0  0  0  0  0  0  0  0  0  0
  -27.8832  -23.5164   17.6598 C   0  0  0  0  0  0  0  0  0  0  0  0
  -24.5277  -26.5708   16.0520 C   0  0  0  0  0  0  0  0  0  0  0  0
  -25.9370  -22.6950   21.0391 C   0  0  0  0  0  0  0  0  0  0  0  0
  -31.2368  -11.5499   18.2154 C   0  0  0  0  0  0  0  0  0  0  0  0
  -27.3824  -12.5591   23.5065 C   0  0  0  0  0  0  0  0  0  0  0  0
  -29.6604  -12.1231   22.5637 C   0  0  0  0  0  0  0  0  0  0  0  0
  -27.8305  -10.4637   22.2170 C   0  0  0  0  0  0  0  0  0  0  0  0
  -28.7010  -13.4708   16.1284 C   0  0  0  0  0  0  0  0  0  0  0  0
  -22.1915  -26.5357   18.7034 C   0  0  0  0  0  0  0  0  0  0  0  0
  -25.2455  -20.9984   19.3056 C   0  0  0  0  0  0  0  0  0  1  0  0
  -26.0278  -22.3091   19.5492 C   0  0  1  0  0  0  0  0  0  0  0  0
  -27.7725  -12.6543   20.9561 C   0  0  1  0  0  0  0  0  0  0  0  0
  -29.8575  -12.0719   17.8443 C   0  0  2  0  0  0  0  0  0  0  0  0
  -28.1465  -11.9728   22.3026 C   0  0  0  0  0  0  0  0  0  0  0  0
  -23.3589  -29.0972   22.4456 N   0  0  0  0  0  0  0  0  0  0  0  0
  -26.1436  -25.0080   16.9156 N   0  0  0  0  0  0  0  0  0  0  0  0
  -22.7510  -30.0778   23.1349 N   0  0  0  0  0  0  0  0  0  0  0  0
  -25.6116  -13.7786   20.5198 N   0  0  0  0  0  0  0  0  0  0  0  0
  -20.4204  -27.7545   22.5076 N   0  0  0  0  0  0  0  0  0  0  0  0
  -20.3002  -27.1955   20.1806 N   0  0  0  0  0  0  0  0  0  0  0  0
  -23.1318  -32.1720   24.1741 N   0  0  0  0  0  0  0  0  0  0  0  0
  -27.1918  -31.0707   22.5311 N   0  0  0  0  0  0  0  0  0  0  0  0
  -22.6164  -25.4570   17.8740 N   0  0  0  0  0  0  0  0  0  0  0  0
  -22.4354  -13.3268   22.0810 N   0  0  0  0  0  0  0  0  0  0  0  0
  -28.4609  -12.1009   19.7949 N   0  0  0  0  0  0  0  0  0  0  0  0
  -29.9864  -12.9107   16.6192 N   0  3  0  0  0  0  0  0  0  0  0  0
  -26.0281  -32.6556   23.7111 O   0  0  0  0  0  0  0  0  0  0  0  0
  -24.2457  -14.6991   22.5931 O   0  0  0  0  0  0  0  0  0  0  0  0
  -25.7708  -11.4525   20.5375 O   0  0  0  0  0  0  0  0  0  0  0  0
  -29.4579  -14.0833   19.1217 O   0  0  0  0  0  0  0  0  0  0  0  0
  -21.2635  -25.7694   21.6973 O   0  0  0  0  0  0  0  0  0  0  0  0
  -28.4517  -26.4463   19.6916 O   0  0  0  0  0  0  0  0  0  0  0  0
  -25.9904  -19.9052   19.8306 O   0  0  0  0  0  0  0  0  0  1  0  0
  -33.3698  -25.8216   22.1054 F   0  0  0  0  0  0  0  0  0  0  0  0
  -29.3945  -23.9351   20.3607 F   0  0  0  0  0  0  0  0  0  0  0  0
  1  2  1  0  0  0  0
  1  5  2  0  0  0  0
  2  6  2  0  0  0  0
  3  8  2  0  0  0  0
  3 15  1  0  0  0  0
  4  9  1  0  0  0  0
  4 15  2  0  0  0  0
  5 17  1  0  0  0  0
  6 19  1  0  0  0  0
  7 10  2  0  0  0  0
  7 18  1  0  0  0  0
  8 24  1  0  0  0  0
  9 24  2  0  0  0  0
 10 25  1  0  0  0  0
 11 12  2  0  0  0  0
 11 26  1  0  0  0  0
 12 27  1  0  0  0  0
 13 20  1  0  0  0  0
 13 25  2  0  0  0  0
 14 27  2  0  0  0  0
 14 28  1  0  0  0  0
 15 29  1  0  0  0  0
 16 29  1  0  0  0  0
 16 32  2  0  0  0  0
 16 33  1  0  0  0  0
 17 19  2  0  0  0  0
 17 38  1  0  0  0  0
 18 20  2  0  0  0  0
 18 39  1  0  0  0  0
 19 50  1  0  0  0  0
 20 40  1  0  0  0  0
 21 22  2  0  0  0  0
 21 23  1  0  0  0  0
 21 54  1  0  0  0  0
 22 30  1  0  0  0  0
 22 65  1  0  0  0  0
 23 31  2  0  0  0  0
 23 77  1  0  0  0  0
 24 86  1  0  0  0  0
 25 87  1  0  0  0  0
 26 28  2  0  0  0  0
 26 86  1  0  0  0  0
 27 88  1  0  0  0  0
 28 89  1  0  0  0  0
 29 69  2  0  0  0  0
 30 55  1  0  0  0  0
 30 70  2  0  0  0  0
 31 56  1  0  0  0  0
 31 70  1  0  0  0  0
 32 71  1  0  0  0  0
 32 75  1  0  0  0  0
 33 76  1  0  0  0  0
 33 81  2  0  0  0  0
 34 51  1  0  0  0  0
 34 78  1  0  0  0  0
 34 82  2  0  0  0  0
 35 66  1  0  0  0  0
 35 72  1  0  0  0  0
 35 83  2  0  0  0  0
 36 67  1  0  0  0  0
 36 79  1  0  0  0  0
 36 84  2  0  0  0  0
 37 73  1  0  0  0  0
 37 74  1  0  0  0  0
 37 85  2  0  0  0  0
 38 41  1  0  0  0  0
 39 51  1  0  0  0  0
 40 72  1  0  0  0  0
 41 44  1  0  0  0  0
 42 45  1  0  0  0  0
 42 47  1  0  0  0  0
 43 46  1  0  0  0  0
 43 48  1  0  0  0  0
 44 50  1  0  0  0  0
 45 52  1  0  0  0  0
 46 53  1  0  0  0  0
 47 73  1  0  0  0  0
 48 74  1  0  0  0  0
 49 52  1  0  0  0  0
 49 73  1  0  0  0  0
 50 78  1  0  0  0  0
 51 72  1  0  0  0  0
 52 71  1  0  0  0  0
 53 63  1  0  0  0  0
 53 74  1  0  0  0  0
 57 65  1  0  0  0  0
 58 67  1  0  0  0  0
 59 68  1  0  0  0  0
 60 68  1  0  0  0  0
 61 68  1  0  0  0  0
 62 80  1  0  0  0  0
 63 77  1  0  0  0  0
 64 65  1  0  0  0  0
 64 87  1  0  0  0  0
 66 68  1  0  0  0  0
 66 79  1  0  0  0  0
 67 80  1  0  0  0  0
 69 71  1  0  0  0  0
M  CHG  1  80   1
M  ISO  4  37 100  64 101  74 100  87 101
M  END
> <Batch ID>
0169

> <Smiles>
CNC(C)C(=O)NC(C(=O)N1Cc2cc([101O:1][101CH2:1]C(C)c3c(C)nc(C)c(NCC4CCC[100N:0]4[100C:0](=O)N4CCCC(n5nc(-c6ccc(Oc7ccc(F)cc7F)cc6)c(C(N)=O)c5N)C4)c3C)ccc2CC1C(=O)NC1CCCc2ccccc21)C(C)(C)C

> <Shape>
0.237

> <Color>
0.075

> <Negative vol penalty>
0.000

$$$$

  -OEChem-04052322323D

 82 91  0     1  0  0  0  0  0999 V2000
  -29.1322  -35.1827   23.8350 C   0  0  0  0  0  0  0  0  0  0  0  0
  -29.8212  -34.2000   23.1315 C   0  0  0  0  0  0  0  0  0  0  0  0
  -24.3826   -8.9700   19.9808 C   0  0  0  0  0  0  0  0  0  0  0  0
  -24.2440   -9.4671   22.3411 C   0  0  0  0  0  0  0  0  0  0  0  0
  -27.9416  -34.8659   24.4877 C   0  0  0  0  0  0  0  0  0  0  0  0
  -29.3205  -32.8996   23.0812 C   0  0  0  0  0  0  0  0  0  0  0  0
  -28.9894  -27.2087   18.7428 C   0  0  0  0  0  0  0  0  0  0  0  0
  -24.1809   -7.6171   20.2538 C   0  0  0  0  0  0  0  0  0  0  0  0
  -24.0422   -8.1141   22.6141 C   0  0  0  0  0  0  0  0  0  0  0  0
  -29.2591  -25.8409   18.7381 C   0  0  0  0  0  0  0  0  0  0  0  0
  -21.4932   -5.8997   22.4745 C   0  0  0  0  0  0  0  0  0  0  0  0
  -20.4856   -5.5660   23.3794 C   0  0  0  0  0  0  0  0  0  0  0  0
  -29.7329  -20.9728   17.5843 C   0  0  0  0  0  0  0  0  0  0  0  0
  -30.2947  -19.6539   19.9755 C   0  0  0  0  0  0  0  0  0  0  0  0
  -27.1520  -25.4277   19.8375 C   0  0  0  0  0  0  0  0  0  0  0  0
  -22.1201   -4.5058   24.8083 C   0  0  0  0  0  0  0  0  0  0  0  0
  -24.4142   -9.8950   21.0244 C   0  0  0  0  0  0  0  0  0  0  0  0
  -23.6380  -12.2635   20.4809 C   0  0  0  0  0  0  0  0  0  0  0  0
  -27.4211  -33.5631   24.4374 C   0  0  0  0  0  0  0  0  0  0  0  0
  -27.8020  -27.6981   19.3057 C   0  0  0  0  0  0  0  0  0  0  0  0
  -28.1226  -32.5647   23.7350 C   0  0  0  0  0  0  0  0  0  0  0  0
  -29.8221  -19.5739   17.5967 C   0  0  0  0  0  0  0  0  0  0  0  0
  -30.0880  -18.9060   18.8072 C   0  0  0  0  0  0  0  0  0  0  0  0
  -26.8685  -26.8020   19.8459 C   0  0  0  0  0  0  0  0  0  0  0  0
  -30.2153  -21.0459   19.9484 C   0  0  0  0  0  0  0  0  0  0  0  0
  -29.9315  -21.7045   18.7547 C   0  0  0  0  0  0  0  0  0  0  0  0
  -24.0107   -7.1892   21.5705 C   0  0  0  0  0  0  0  0  0  0  0  0
  -28.3417  -24.9504   19.2881 C   0  0  0  0  0  0  0  0  0  0  0  0
  -22.8143   -5.5364   22.7363 C   0  0  0  0  0  0  0  0  0  0  0  0
  -20.7991   -4.8691   24.5463 C   0  0  0  0  0  0  0  0  0  0  0  0
  -23.1277   -4.8395   23.9032 C   0  0  0  0  0  0  0  0  0  0  0  0
  -24.6231  -11.2926   20.7431 C   0  0  0  0  0  0  0  0  0  0  0  0
  -24.3446  -13.4238   20.2790 C   0  0  0  0  0  0  0  0  0  0  0  0
  -22.2117  -12.1286   20.4251 C   0  0  0  0  0  0  0  0  0  0  0  0
  -27.0987  -29.6405   21.7216 C   0  0  0  0  0  0  0  0  0  0  0  0
  -24.0726  -29.2993   20.6041 C   0  0  0  0  0  0  0  0  0  0  0  0
  -21.8275  -27.4241   18.8463 C   0  0  0  0  0  0  0  0  0  0  0  0
  -28.6893  -15.7832   17.6126 C   0  0  0  0  0  0  0  0  0  0  0  0
  -26.1552  -33.2573   25.1981 C   0  0  0  0  0  0  0  0  0  0  0  0
  -27.5138  -29.1741   19.2790 C   0  0  0  0  0  0  0  0  0  0  0  0
  -29.5793  -18.8017   16.3239 C   0  0  0  0  0  0  0  0  0  0  0  0
  -30.1937  -17.3984   18.8699 C   0  0  0  0  0  0  0  0  0  0  0  0
  -25.5696  -27.2748   20.4442 C   0  0  0  0  0  0  0  0  0  0  0  0
  -25.4978  -31.9435   24.7834 C   0  0  0  0  0  0  0  0  0  0  0  0
  -29.2062  -14.5166   21.0904 C   0  0  0  0  0  0  0  0  0  0  0  0
  -26.5372  -30.8304   24.6966 C   0  0  0  0  0  0  0  0  0  0  0  0
  -27.9998  -13.5919   21.2467 C   0  0  0  0  0  0  0  0  0  0  0  0
  -30.1367  -17.3844   16.4032 C   0  0  0  0  0  0  0  0  0  0  0  0
  -29.6457  -14.6085   19.6341 C   0  0  0  0  0  0  0  0  0  0  0  0
  -27.3522  -14.1168   18.8509 C   0  0  0  0  0  0  0  0  0  0  0  0
  -27.5987  -31.1483   23.6366 C   0  0  1  0  0  0  0  0  0  0  0  0
  -26.5070  -29.6057   20.3409 C   0  0  1  0  0  0  0  0  0  0  0  0
  -26.8589  -14.0109   20.3037 C   0  0  1  0  0  0  0  0  0  0  0  0
  -30.4357  -21.8088   21.2134 C   0  0  0  0  0  0  0  0  0  0  0  0
  -19.4205  -27.3853   18.1375 C   0  0  0  0  0  0  0  0  0  0  0  0
  -23.2575  -28.4724   23.4258 C   0  0  0  0  0  0  0  0  0  0  0  0
  -21.1349  -27.5528   22.4681 C   0  0  0  0  0  0  0  0  0  0  0  0
  -21.6363  -29.9886   22.2738 C   0  0  0  0  0  0  0  0  0  0  0  0
  -22.5514  -27.4621   15.9769 C   0  0  0  0  0  0  0  0  0  0  0  0
  -29.8346  -23.1940   18.7032 C   0  0  0  0  0  0  0  0  0  1  0  0
  -22.9377  -28.3393   20.8673 C   0  0  1  0  0  0  0  0  0  0  0  0
  -20.8349  -27.7975   17.7601 C   0  0  2  0  0  0  0  0  0  0  0  0
  -22.2669  -28.5792   22.2493 C   0  0  0  0  0  0  0  0  0  0  0  0
  -25.8613  -11.7926   20.7110 N   0  0  0  0  0  0  0  0  0  0  0  0
  -25.6589  -13.0903   20.4263 N   0  0  0  0  0  0  0  0  0  0  0  0
  -25.3365  -28.7278   20.3999 N   0  0  0  0  0  0  0  0  0  0  0  0
  -29.7117  -16.7437   17.6452 N   0  0  0  0  0  0  0  0  0  0  0  0
  -28.5304  -14.9813   18.7542 N   0  0  0  0  0  0  0  0  0  0  0  0
  -23.9638  -14.6866   19.9914 N   0  0  0  0  0  0  0  0  0  0  0  0
  -21.6504  -10.8655   20.6573 N   0  0  0  0  0  0  0  0  0  0  0  0
  -27.0811  -30.8907   22.3099 N   0  0  0  0  0  0  0  0  0  0  0  0
  -22.0287  -28.4610   19.7327 N   0  0  0  0  0  0  0  0  0  0  0  0
  -21.1935  -27.1275   16.4781 N   0  3  0  0  0  0  0  0  0  0  0  0
  -21.4582  -13.0959   20.1604 O   0  0  0  0  0  0  0  0  0  0  0  0
  -27.5374  -28.6091   22.2171 O   0  0  0  0  0  0  0  0  0  0  0  0
  -23.8447  -30.5112   20.5736 O   0  0  0  0  0  0  0  0  0  0  0  0
  -22.3673  -26.3216   18.9049 O   0  0  0  0  0  0  0  0  0  0  0  0
  -27.9517  -15.6569   16.6270 O   0  0  0  0  0  0  0  0  0  0  0  0
  -23.8136   -5.8691   21.8372 O   0  0  0  0  0  0  0  0  0  0  0  0
  -28.6046  -23.6053   19.2853 O   0  0  0  0  0  0  0  0  0  1  0  0
  -19.8316   -4.5500   25.4160 F   0  0  0  0  0  0  0  0  0  0  0  0
  -24.3952   -4.4888   24.1608 F   0  0  0  0  0  0  0  0  0  0  0  0
  1  2  1  0  0  0  0
  1  5  2  0  0  0  0
  2  6  2  0  0  0  0
  3  8  2  0  0  0  0
  3 17  1  0  0  0  0
  4  9  1  0  0  0  0
  4 17  2  0  0  0  0
  5 19  1  0  0  0  0
  6 21  1  0  0  0  0
  7 10  2  0  0  0  0
  7 20  1  0  0  0  0
  8 27  1  0  0  0  0
  9 27  2  0  0  0  0
 10 28  1  0  0  0  0
 11 12  2  0  0  0  0
 11 29  1  0  0  0  0
 12 30  1  0  0  0  0
 13 22  2  0  0  0  0
 13 26  1  0  0  0  0
 14 23  2  0  0  0  0
 14 25  1  0  0  0  0
 15 24  1  0  0  0  0
 15 28  2  0  0  0  0
 16 30  2  0  0  0  0
 16 31  1  0  0  0  0
 17 32  1  0  0  0  0
 18 32  1  0  0  0  0
 18 33  2  0  0  0  0
 18 34  1  0  0  0  0
 19 21  2  0  0  0  0
 19 39  1  0  0  0  0
 20 24  2  0  0  0  0
 20 40  1  0  0  0  0
 21 51  1  0  0  0  0
 22 23  1  0  0  0  0
 22 41  1  0  0  0  0
 23 42  1  0  0  0  0
 24 43  1  0  0  0  0
 25 26  2  0  0  0  0
 25 54  1  0  0  0  0
 26 60  1  0  0  0  0
 27 79  1  0  0  0  0
 28 80  1  0  0  0  0
 29 31  2  0  0  0  0
 29 79  1  0  0  0  0
 30 81  1  0  0  0  0
 31 82  1  0  0  0  0
 32 64  2  0  0  0  0
 33 65  1  0  0  0  0
 33 69  1  0  0  0  0
 34 70  1  0  0  0  0
 34 74  2  0  0  0  0
 35 52  1  0  0  0  0
 35 71  1  0  0  0  0
 35 75  2  0  0  0  0
 36 61  1  0  0  0  0
 36 66  1  0  0  0  0
 36 76  2  0  0  0  0
 37 62  1  0  0  0  0
 37 72  1  0  0  0  0
 37 77  2  0  0  0  0
 38 67  1  0  0  0  0
 38 68  1  0  0  0  0
 38 78  2  0  0  0  0
 39 44  1  0  0  0  0
 40 52  1  0  0  0  0
 41 48  1  0  0  0  0
 42 67  1  0  0  0  0
 43 66  1  0  0  0  0
 44 46  1  0  0  0  0
 45 47  1  0  0  0  0
 45 49  1  0  0  0  0
 46 51  1  0  0  0  0
 47 53  1  0  0  0  0
 48 67  1  0  0  0  0
 49 68  1  0  0  0  0
 50 53  1  0  0  0  0
 50 68  1  0  0  0  0
 51 71  1  0  0  0  0
 52 66  1  0  0  0  0
 53 65  1  0  0  0  0
 55 62  1  0  0  0  0
 56 63  1  0  0  0  0
 57 63  1  0  0  0  0
 58 63  1  0  0  0  0
 59 73  1  0  0  0  0
 60 80  1  0  0  0  0
 61 63  1  0  0  0  0
 61 72  1  0  0  0  0
 62 73  1  0  0  0  0
 64 65  1  0  0  0  0
M  CHG  1  73   1
M  ISO  4  38 100  60 101  67 100  80 101
M  END
> <Batch ID>
0169

> <Smiles>
CNC(C)C(=O)NC(C(=O)N1Cc2cc([101O:1][101CH2:1]c3cc4c(cc3C)C[100N:0]([100C:0](=O)N3CCCC(n5nc(-c6ccc(Oc7ccc(F)cc7F)cc6)c(C(N)=O)c5N)C3)CC4)ccc2CC1C(=O)NC1CCCc2ccccc21)C(C)(C)C

> <Shape>
0.306

> <Color>
0.089

> <Negative vol penalty>
0.000

$$$$

  -OEChem-04052322323D

 89 99  0     1  0  0  0  0  0999 V2000
  -30.8578  -20.8110   27.4863 C   0  0  0  0  0  0  0  0  0  0  0  0
  -30.0182  -20.0546   26.6749 C   0  0  0  0  0  0  0  0  0  0  0  0
  -20.1795  -24.4706   22.5109 C   0  0  0  0  0  0  0  0  0  0  0  0
  -18.8962  -24.9482   24.5014 C   0  0  0  0  0  0  0  0  0  0  0  0
  -31.1818  -22.1182   27.1257 C   0  0  0  0  0  0  0  0  0  0  0  0
  -29.5012  -20.6055   25.5028 C   0  0  0  0  0  0  0  0  0  0  0  0
  -29.8170  -17.3873   21.4984 C   0  0  0  0  0  0  0  0  0  0  0  0
  -19.6220  -25.5851   21.8841 C   0  0  0  0  0  0  0  0  0  0  0  0
  -18.3388  -26.0627   23.8747 C   0  0  0  0  0  0  0  0  0  0  0  0
  -28.8827  -16.3570   21.4012 C   0  0  0  0  0  0  0  0  0  0  0  0
  -16.8498  -29.2406   22.9249 C   0  0  0  0  0  0  0  0  0  0  0  0
  -16.7778  -30.4273   23.6543 C   0  0  0  0  0  0  0  0  0  0  0  0
  -27.5955  -17.6790   19.8476 C   0  0  0  0  0  0  0  0  0  0  0  0
  -19.1819  -30.4263   23.8933 C   0  0  0  0  0  0  0  0  0  0  0  0
  -19.8165  -24.1521   23.8195 C   0  0  0  0  0  0  0  0  0  0  0  0
  -21.5694  -22.9582   25.2371 C   0  0  0  0  0  0  0  0  0  0  0  0
  -30.6762  -22.6821   25.9437 C   0  0  0  0  0  0  0  0  0  0  0  0
  -29.6422  -18.5777   20.7777 C   0  0  0  0  0  0  0  0  0  0  0  0
  -29.8176  -21.9219   25.1267 C   0  0  0  0  0  0  0  0  0  0  0  0
  -28.5315  -18.7208   19.9337 C   0  0  0  0  0  0  0  0  0  0  0  0
  -26.2763  -12.2171   20.1974 C   0  0  0  0  0  0  0  0  0  0  0  0
  -24.7564  -13.4600   21.5373 C   0  0  0  0  0  0  0  0  0  0  0  0
  -26.0290  -13.3202   20.9898 C   0  0  0  0  0  0  0  0  0  0  0  0
  -18.7017  -26.3811   22.5660 C   0  0  0  0  0  0  0  0  0  0  0  0
  -27.7706  -16.5037   20.5775 C   0  0  0  0  0  0  0  0  0  0  0  0
  -18.0879  -28.6466   22.6798 C   0  0  0  0  0  0  0  0  0  0  0  0
  -17.9438  -31.0202   24.1385 C   0  0  0  0  0  0  0  0  0  0  0  0
  -19.2539  -29.2395   23.1639 C   0  0  0  0  0  0  0  0  0  0  0  0
  -20.3915  -23.0007   24.4673 C   0  0  0  0  0  0  0  0  0  0  0  0
  -25.2514  -11.3034   19.9666 C   0  0  0  0  0  0  0  0  0  0  0  0
  -23.7955  -12.4914   21.2501 C   0  0  0  0  0  0  0  0  0  0  0  0
  -21.6795  -21.6450   25.6241 C   0  0  0  0  0  0  0  0  0  0  0  0
  -22.4824  -24.0116   25.5724 C   0  0  0  0  0  0  0  0  0  0  0  0
  -29.2917  -21.6814   21.4773 C   0  0  0  0  0  0  0  0  0  0  0  0
  -29.4580  -21.9124   18.1649 C   0  0  0  0  0  0  0  0  0  0  0  0
  -29.8719  -25.2850   18.4711 C   0  0  0  0  0  0  0  0  0  0  0  0
  -21.4026  -16.2563   24.6718 C   0  0  0  0  0  0  0  0  0  0  0  0
  -31.0166  -24.1152   25.6197 C   0  0  0  0  0  0  0  0  0  0  0  0
  -30.6779  -19.6652   20.8733 C   0  0  0  0  0  0  0  0  0  0  0  0
  -27.5193  -11.8501   19.4595 C   0  0  0  0  0  0  0  0  0  0  0  0
  -28.3008  -19.9765   19.1371 C   0  0  0  0  0  0  0  0  0  0  0  0
  -30.7277  -24.4971   24.1702 C   0  0  0  0  0  0  0  0  0  0  0  0
  -27.2511  -10.3676   19.1499 C   0  0  0  0  0  0  0  0  0  0  0  0
  -18.3901  -17.8245   25.3150 C   0  0  0  0  0  0  0  0  0  0  0  0
  -29.3454  -24.0046   23.7537 C   0  0  0  0  0  0  0  0  0  0  0  0
  -18.7272  -19.3123   25.2190 C   0  0  0  0  0  0  0  0  0  0  0  0
  -23.3374  -15.5386   21.8329 C   0  0  0  0  0  0  0  0  0  0  0  0
  -24.0607  -14.2029   23.8583 C   0  0  0  0  0  0  0  0  0  0  0  0
  -19.0956  -17.0335   24.2196 C   0  0  0  0  0  0  0  0  0  0  0  0
  -22.9970  -16.7123   22.7559 C   0  0  0  0  0  0  0  0  0  0  0  0
  -23.7293  -15.4125   24.7275 C   0  0  0  0  0  0  0  0  0  0  0  0
  -20.9332  -18.6861   24.1181 C   0  0  0  0  0  0  0  0  0  0  0  0
  -24.4367  -14.6429   22.4318 C   0  0  0  0  0  0  0  0  0  0  0  0
  -29.2568  -22.4759   23.8349 C   0  0  1  0  0  0  0  0  0  0  0  0
  -30.1647  -21.0364   20.4384 C   0  0  1  0  0  0  0  0  0  0  0  0
  -20.2499  -19.5348   25.2095 C   0  0  1  0  0  0  0  0  0  0  0  0
  -25.7122  -10.2001   19.0348 C   0  0  0  0  0  0  0  0  0  0  0  0
  -25.2208  -10.4684   17.6082 C   0  0  0  0  0  0  0  0  0  0  0  0
  -25.2681   -8.8140   19.5035 C   0  0  0  0  0  0  0  0  0  0  0  0
  -30.4306  -27.3309   17.1297 C   0  0  0  0  0  0  0  0  0  0  0  0
  -32.3940  -21.0850   18.1321 C   0  0  0  0  0  0  0  0  0  0  0  0
  -32.9895  -23.4753   17.6843 C   0  0  0  0  0  0  0  0  0  0  0  0
  -31.6031  -22.2085   16.0424 C   0  0  0  0  0  0  0  0  0  0  0  0
  -27.2642  -26.5422   19.0862 C   0  0  0  0  0  0  0  0  0  0  0  0
  -27.1010  -14.3230   21.2500 C   0  0  0  0  0  0  0  0  0  1  0  0
  -30.5793  -22.9182   18.2424 C   0  0  1  0  0  0  0  0  0  0  0  0
  -29.3163  -26.4455   17.6655 C   0  0  2  0  0  0  0  0  0  0  0  0
  -31.8762  -22.4147   17.5483 C   0  0  0  0  0  0  0  0  0  0  0  0
  -19.7960  -21.8091   24.3698 N   0  0  0  0  0  0  0  0  0  0  0  0
  -24.0070  -11.4073   20.4662 N   0  0  0  0  0  0  0  0  0  0  0  0
  -20.6030  -21.0055   25.0834 N   0  0  0  0  0  0  0  0  0  0  0  0
  -29.3799  -20.9708   19.1990 N   0  0  0  0  0  0  0  0  0  0  0  0
  -20.5383  -17.2742   24.2414 N   0  0  0  0  0  0  0  0  0  0  0  0
  -22.6884  -16.2346   24.1109 N   0  0  0  0  0  0  0  0  0  0  0  0
  -22.5059  -12.6468   21.8202 N   0  0  0  0  0  0  0  0  0  0  0  0
  -22.5912  -20.9864   26.3708 N   0  0  0  0  0  0  0  0  0  0  0  0
  -22.2192  -25.3018   25.0923 N   0  0  0  0  0  0  0  0  0  0  0  0
  -29.9140  -21.8703   22.6966 N   0  0  0  0  0  0  0  0  0  0  0  0
  -30.0510  -24.1617   17.6919 N   0  0  0  0  0  0  0  0  0  0  0  0
  -28.4183  -27.2808   18.5121 N   0  3  0  0  0  0  0  0  0  0  0  0
  -23.5101  -23.8114   26.2632 O   0  0  0  0  0  0  0  0  0  0  0  0
  -28.1394  -21.9866   21.1933 O   0  0  0  0  0  0  0  0  0  0  0  0
  -28.6763  -21.9534   17.2107 O   0  0  0  0  0  0  0  0  0  0  0  0
  -30.1255  -25.3680   19.6709 O   0  0  0  0  0  0  0  0  0  0  0  0
  -21.0475  -15.4166   25.5084 O   0  0  0  0  0  0  0  0  0  0  0  0
  -18.1578  -27.4688   21.9548 O   0  0  0  0  0  0  0  0  0  0  0  0
  -26.8512  -15.4925   20.4797 O   0  0  0  0  0  0  0  0  0  1  0  0
  -17.8746  -32.1607   24.8376 F   0  0  0  0  0  0  0  0  0  0  0  0
  -20.4463  -28.6743   22.9306 F   0  0  0  0  0  0  0  0  0  0  0  0
  1  2  1  0  0  0  0
  1  5  2  0  0  0  0
  2  6  2  0  0  0  0
  3  8  2  0  0  0  0
  3 15  1  0  0  0  0
  4  9  1  0  0  0  0
  4 15  2  0  0  0  0
  5 17  1  0  0  0  0
  6 19  1  0  0  0  0
  7 10  2  0  0  0  0
  7 18  1  0  0  0  0
  8 24  1  0  0  0  0
  9 24  2  0  0  0  0
 10 25  1  0  0  0  0
 11 12  2  0  0  0  0
 11 26  1  0  0  0  0
 12 27  1  0  0  0  0
 13 20  1  0  0  0  0
 13 25  2  0  0  0  0
 14 27  2  0  0  0  0
 14 28  1  0  0  0  0
 15 29  1  0  0  0  0
 16 29  1  0  0  0  0
 16 32  2  0  0  0  0
 16 33  1  0  0  0  0
 17 19  2  0  0  0  0
 17 38  1  0  0  0  0
 18 20  2  0  0  0  0
 18 39  1  0  0  0  0
 19 54  1  0  0  0  0
 20 41  1  0  0  0  0
 21 23  1  0  0  0  0
 21 30  2  0  0  0  0
 21 40  1  0  0  0  0
 22 23  2  0  0  0  0
 22 31  1  0  0  0  0
 22 53  1  0  0  0  0
 23 65  1  0  0  0  0
 24 86  1  0  0  0  0
 25 87  1  0  0  0  0
 26 28  2  0  0  0  0
 26 86  1  0  0  0  0
 27 88  1  0  0  0  0
 28 89  1  0  0  0  0
 29 69  2  0  0  0  0
 30 57  1  0  0  0  0
 30 70  1  0  0  0  0
 31 70  2  0  0  0  0
 31 75  1  0  0  0  0
 32 71  1  0  0  0  0
 32 76  1  0  0  0  0
 33 77  1  0  0  0  0
 33 81  2  0  0  0  0
 34 55  1  0  0  0  0
 34 78  1  0  0  0  0
 34 82  2  0  0  0  0
 35 66  1  0  0  0  0
 35 72  1  0  0  0  0
 35 83  2  0  0  0  0
 36 67  1  0  0  0  0
 36 79  1  0  0  0  0
 36 84  2  0  0  0  0
 37 73  1  0  0  0  0
 37 74  1  0  0  0  0
 37 85  2  0  0  0  0
 38 42  1  0  0  0  0
 39 55  1  0  0  0  0
 40 43  1  0  0  0  0
 41 72  1  0  0  0  0
 42 45  1  0  0  0  0
 43 57  1  0  0  0  0
 44 46  1  0  0  0  0
 44 49  1  0  0  0  0
 45 54  1  0  0  0  0
 46 56  1  0  0  0  0
 47 50  1  0  0  0  0
 47 53  1  0  0  0  0
 48 51  1  0  0  0  0
 48 53  1  0  0  0  0
 49 73  1  0  0  0  0
 50 74  1  0  0  0  0
 51 74  1  0  0  0  0
 52 56  1  0  0  0  0
 52 73  1  0  0  0  0
 54 78  1  0  0  0  0
 55 72  1  0  0  0  0
 56 71  1  0  0  0  0
 57 58  1  0  0  0  0
 57 59  1  0  0  0  0
 60 67  1  0  0  0  0
 61 68  1  0  0  0  0
 62 68  1  0  0  0  0
 63 68  1  0  0  0  0
 64 80  1  0  0  0  0
 65 87  1  0  0  0  0
 66 68  1  0  0  0  0
 66 79  1  0  0  0  0
 67 80  1  0  0  0  0
 69 71  1  0  0  0  0
M  CHG  1  80   1
M  ISO  4  37 100  65 101  74 100  87 101
M  END
> <Batch ID>
0169

> <Smiles>
CNC(C)C(=O)NC(C(=O)N1Cc2cc([101O:1][101CH2:1]c3c4c(nc(N)c3C3CC[100N:0]([100C:0](=O)N5CCCC(n6nc(-c7ccc(Oc8ccc(F)cc8F)cc7)c(C(N)=O)c6N)C5)CC3)C(C)(C)CC4)ccc2CC1C(=O)NC1CCCc2ccccc21)C(C)(C)C

> <Shape>
0.211

> <Color>
0.058

> <Negative vol penalty>
0.000

$$$$

  -OEChem-04052322323D

 92102  0     1  0  0  0  0  0999 V2000
  -28.3249  -18.5342   18.4966 C   0  0  0  0  0  0  0  0  0  0  0  0
  -27.2090  -19.3286   18.2530 C   0  0  0  0  0  0  0  0  0  0  0  0
  -24.5239  -15.7354   21.6289 C   0  0  0  0  0  0  0  0  0  0  0  0
  -26.7740  -16.1399   22.4104 C   0  0  0  0  0  0  0  0  0  0  0  0
  -29.2215  -18.8842   19.5054 C   0  0  0  0  0  0  0  0  0  0  0  0
  -26.9886  -20.4728   19.0189 C   0  0  0  0  0  0  0  0  0  0  0  0
  -24.2524  -27.0753   18.5314 C   0  0  0  0  0  0  0  0  0  0  0  0
  -25.0317  -15.0948   20.4987 C   0  0  0  0  0  0  0  0  0  0  0  0
  -27.2817  -15.4992   21.2802 C   0  0  0  0  0  0  0  0  0  0  0  0
  -23.3339  -27.9101   19.1664 C   0  0  0  0  0  0  0  0  0  0  0  0
  -27.7438  -12.3256   20.2148 C   0  0  0  0  0  0  0  0  0  0  0  0
  -28.7811  -11.4119   20.4008 C   0  0  0  0  0  0  0  0  0  0  0  0
  -20.9072  -27.4066   23.2669 C   0  0  0  0  0  0  0  0  0  0  0  0
  -24.9924  -28.4596   20.8298 C   0  0  0  0  0  0  0  0  0  0  0  0
  -30.2049  -12.7364   18.9671 C   0  0  0  0  0  0  0  0  0  0  0  0
  -25.3951  -16.2581   22.5847 C   0  0  0  0  0  0  0  0  0  0  0  0
  -24.0266  -16.3700   24.7347 C   0  0  0  0  0  0  0  0  0  0  0  0
  -29.0170  -20.0386   20.2775 C   0  0  0  0  0  0  0  0  0  0  0  0
  -25.5465  -26.9176   19.0479 C   0  0  0  0  0  0  0  0  0  0  0  0
  -27.8826  -20.8378   20.0398 C   0  0  0  0  0  0  0  0  0  0  0  0
  -20.0364  -26.3468   23.0393 C   0  0  0  0  0  0  0  0  0  0  0  0
  -25.9262  -27.6241   20.1980 C   0  0  0  0  0  0  0  0  0  0  0  0
  -20.6178  -28.6617   22.7432 C   0  0  0  0  0  0  0  0  0  0  0  0
  -26.4105  -14.9767   20.3243 C   0  0  0  0  0  0  0  0  0  0  0  0
  -23.7029  -28.6002   20.3174 C   0  0  0  0  0  0  0  0  0  0  0  0
  -27.9369  -13.4447   19.4048 C   0  0  0  0  0  0  0  0  0  0  0  0
  -30.0116  -11.6173   19.7770 C   0  0  0  0  0  0  0  0  0  0  0  0
  -29.1675  -13.6501   18.7810 C   0  0  0  0  0  0  0  0  0  0  0  0
  -24.8712  -16.9205   23.7522 C   0  0  0  0  0  0  0  0  0  0  0  0
  -18.8987  -26.5922   22.2876 C   0  0  0  0  0  0  0  0  0  0  0  0
  -19.4541  -28.8034   22.0046 C   0  0  0  0  0  0  0  0  0  0  0  0
  -23.8186  -17.3966   25.6231 C   0  0  0  0  0  0  0  0  0  0  0  0
  -23.4792  -15.0486   24.8355 C   0  0  0  0  0  0  0  0  0  0  0  0
  -27.2233  -24.4704   20.1896 C   0  0  0  0  0  0  0  0  0  0  0  0
  -29.6245  -26.6504   20.2548 C   0  0  0  0  0  0  0  0  0  0  0  0
  -30.5567  -29.9306   20.3897 C   0  0  0  0  0  0  0  0  0  0  0  0
  -23.1316  -23.0218   25.9129 C   0  0  0  0  0  0  0  0  0  0  0  0
  -29.9885  -20.3504   21.3883 C   0  0  0  0  0  0  0  0  0  0  0  0
  -26.5339  -26.0340   18.3360 C   0  0  0  0  0  0  0  0  0  0  0  0
  -27.3098  -27.5051   20.7812 C   0  0  0  0  0  0  0  0  0  0  0  0
  -29.8825  -21.7825   21.9060 C   0  0  0  0  0  0  0  0  0  0  0  0
  -26.1713  -21.5924   26.7285 C   0  0  0  0  0  0  0  0  0  0  0  0
  -28.4228  -22.1591   22.1393 C   0  0  0  0  0  0  0  0  0  0  0  0
  -26.0770  -20.1818   26.1476 C   0  0  0  0  0  0  0  0  0  0  0  0
  -17.8105  -25.4874   19.5015 C   0  0  0  0  0  0  0  0  0  0  0  0
  -17.2343  -24.1970   20.0050 C   0  0  0  0  0  0  0  0  0  0  0  0
  -21.6641  -24.4045   23.0402 C   0  0  0  0  0  0  0  0  0  0  0  0
  -20.3972  -24.9934   25.1515 C   0  0  0  0  0  0  0  0  0  0  0  0
  -25.5703  -22.6172   25.7734 C   0  0  0  0  0  0  0  0  0  0  0  0
  -21.9970  -23.0386   23.6472 C   0  0  0  0  0  0  0  0  0  0  0  0
  -20.7364  -23.6089   25.6961 C   0  0  0  0  0  0  0  0  0  0  0  0
  -24.0419  -20.9252   24.8148 C   0  0  0  0  0  0  0  0  0  0  0  0
  -20.3558  -24.9790   23.6126 C   0  0  0  0  0  0  0  0  0  0  0  0
  -27.6222  -22.1002   20.8328 C   0  0  1  0  0  0  0  0  0  0  0  0
  -27.6627  -25.5494   19.2407 C   0  0  1  0  0  0  0  0  0  0  0  0
  -24.6302  -19.8450   25.7451 C   0  0  1  0  0  0  0  0  0  0  0  0
  -17.2065  -25.4214   20.8764 C   0  0  0  0  0  0  0  0  0  0  0  0
  -20.4124  -30.5735   25.1484 C   0  0  0  0  0  0  0  0  0  0  0  0
  -32.5902  -31.3990   20.4672 C   0  0  0  0  0  0  0  0  0  0  0  0
  -30.0270  -25.9337   23.1932 C   0  0  0  0  0  0  0  0  0  0  0  0
  -31.3636  -28.0350   23.4506 C   0  0  0  0  0  0  0  0  0  0  0  0
  -32.1424  -26.2460   21.8964 C   0  0  0  0  0  0  0  0  0  0  0  0
  -29.8360  -31.2606   17.8459 C   0  0  0  0  0  0  0  0  0  0  0  0
  -17.9253  -30.1010   20.7260 C   0  0  0  0  0  0  0  0  0  0  0  0
  -21.7212  -30.1646   24.4831 C   0  0  0  0  0  0  0  0  0  0  0  0
  -22.9403  -29.5647   22.3531 C   0  0  0  0  0  0  0  0  0  1  0  0
  -21.5428  -29.8047   22.9797 C   0  0  1  0  0  0  0  0  0  0  0  0
  -30.1354  -27.6483   21.2659 C   0  0  1  0  0  0  0  0  0  0  0  0
  -31.5588  -30.7273   19.5739 C   0  0  2  0  0  0  0  0  0  0  0  0
  -30.8904  -26.9667   22.4419 C   0  0  0  0  0  0  0  0  0  0  0  0
  -25.1785  -18.1978   23.9932 N   0  0  0  0  0  0  0  0  0  0  0  0
  -18.5840  -27.7975   21.7625 N   0  0  0  0  0  0  0  0  0  0  0  0
  -24.5234  -18.4584   25.1373 N   0  0  0  0  0  0  0  0  0  0  0  0
  -28.2373  -26.6240   20.0525 N   0  0  0  0  0  0  0  0  0  0  0  0
  -24.1984  -22.2603   25.4125 N   0  0  0  0  0  0  0  0  0  0  0  0
  -21.9804  -23.1049   25.1151 N   0  0  0  0  0  0  0  0  0  0  0  0
  -23.1033  -17.4857   26.7645 N   0  0  0  0  0  0  0  0  0  0  0  0
  -24.2098  -14.0738   25.5285 N   0  0  0  0  0  0  0  0  0  0  0  0
  -18.0085  -25.5147   22.0524 N   0  0  0  0  0  0  0  0  0  0  0  0
  -27.8881  -23.2704   20.0238 N   0  0  0  0  0  0  0  0  0  0  0  0
  -30.9372  -28.6117   20.5194 N   0  0  0  0  0  0  0  0  0  0  0  0
  -30.8624  -31.7823   18.7847 N   0  3  0  0  0  0  0  0  0  0  0  0
  -22.3826  -14.7373   24.3120 O   0  0  0  0  0  0  0  0  0  0  0  0
  -26.3471  -24.7094   21.0124 O   0  0  0  0  0  0  0  0  0  0  0  0
  -30.4273  -25.9262   19.6610 O   0  0  0  0  0  0  0  0  0  0  0  0
  -29.5400  -30.4293   20.8673 O   0  0  0  0  0  0  0  0  0  0  0  0
  -23.2023  -23.5935   27.0080 O   0  0  0  0  0  0  0  0  0  0  0  0
  -26.9063  -14.3514   19.2217 O   0  0  0  0  0  0  0  0  0  0  0  0
  -22.8024  -29.4204   20.9436 O   0  0  0  0  0  0  0  0  0  1  0  0
  -19.1334  -30.0255   21.4730 O   0  0  0  0  0  0  0  0  0  0  0  0
  -31.0082  -10.7405   19.9570 F   0  0  0  0  0  0  0  0  0  0  0  0
  -29.3595  -14.7240   18.0027 F   0  0  0  0  0  0  0  0  0  0  0  0
  1  2  1  0  0  0  0
  1  5  2  0  0  0  0
  2  6  2  0  0  0  0
  3  8  2  0  0  0  0
  3 16  1  0  0  0  0
  4  9  1  0  0  0  0
  4 16  2  0  0  0  0
  5 18  1  0  0  0  0
  6 20  1  0  0  0  0
  7 10  2  0  0  0  0
  7 19  1  0  0  0  0
  8 24  1  0  0  0  0
  9 24  2  0  0  0  0
 10 25  1  0  0  0  0
 11 12  2  0  0  0  0
 11 26  1  0  0  0  0
 12 27  1  0  0  0  0
 13 21  2  0  0  0  0
 13 23  1  0  0  0  0
 14 22  1  0  0  0  0
 14 25  2  0  0  0  0
 15 27  2  0  0  0  0
 15 28  1  0  0  0  0
 16 29  1  0  0  0  0
 17 29  1  0  0  0  0
 17 32  2  0  0  0  0
 17 33  1  0  0  0  0
 18 20  2  0  0  0  0
 18 38  1  0  0  0  0
 19 22  2  0  0  0  0
 19 39  1  0  0  0  0
 20 54  1  0  0  0  0
 21 30  1  0  0  0  0
 21 53  1  0  0  0  0
 22 40  1  0  0  0  0
 23 31  2  0  0  0  0
 23 67  1  0  0  0  0
 24 88  1  0  0  0  0
 25 89  1  0  0  0  0
 26 28  2  0  0  0  0
 26 88  1  0  0  0  0
 27 91  1  0  0  0  0
 28 92  1  0  0  0  0
 29 71  2  0  0  0  0
 30 72  2  0  0  0  0
 30 79  1  0  0  0  0
 31 72  1  0  0  0  0
 31 90  1  0  0  0  0
 32 73  1  0  0  0  0
 32 77  1  0  0  0  0
 33 78  1  0  0  0  0
 33 83  2  0  0  0  0
 34 55  1  0  0  0  0
 34 80  1  0  0  0  0
 34 84  2  0  0  0  0
 35 68  1  0  0  0  0
 35 74  1  0  0  0  0
 35 85  2  0  0  0  0
 36 69  1  0  0  0  0
 36 81  1  0  0  0  0
 36 86  2  0  0  0  0
 37 75  1  0  0  0  0
 37 76  1  0  0  0  0
 37 87  2  0  0  0  0
 38 41  1  0  0  0  0
 39 55  1  0  0  0  0
 40 74  1  0  0  0  0
 41 43  1  0  0  0  0
 42 44  1  0  0  0  0
 42 49  1  0  0  0  0
 43 54  1  0  0  0  0
 44 56  1  0  0  0  0
 45 46  1  0  0  0  0
 45 57  1  0  0  0  0
 46 57  1  0  0  0  0
 47 50  1  0  0  0  0
 47 53  1  0  0  0  0
 48 51  1  0  0  0  0
 48 53  1  0  0  0  0
 49 75  1  0  0  0  0
 50 76  1  0  0  0  0
 51 76  1  0  0  0  0
 52 56  1  0  0  0  0
 52 75  1  0  0  0  0
 54 80  1  0  0  0  0
 55 74  1  0  0  0  0
 56 73  1  0  0  0  0
 57 79  1  0  0  0  0
 58 65  1  0  0  0  0
 59 69  1  0  0  0  0
 60 70  1  0  0  0  0
 61 70  1  0  0  0  0
 62 70  1  0  0  0  0
 63 82  1  0  0  0  0
 64 90  1  0  0  0  0
 65 67  1  0  0  0  0
 66 67  1  0  0  0  0
 66 89  1  0  0  0  0
 68 70  1  0  0  0  0
 68 81  1  0  0  0  0
 69 82  1  0  0  0  0
 71 73  1  0  0  0  0
M  CHG  1  82   1
M  ISO  4  37 100  66 101  76 100  89 101
M  END
> <Batch ID>
0169

> <Smiles>
CCC(c1cc(C2CC[100N:0]([100C:0](=O)N3CCCC(n4nc(-c5ccc(Oc6ccc(F)cc6F)cc5)c(C(N)=O)c4N)C3)CC2)c(NC2CC2)nc1OC)[101CH2:1][101O:1]c1ccc2c(c1)CN(C(=O)C(NC(=O)C(C)NC)C(C)(C)C)C(C(=O)NC1CCCc3ccccc31)C2

> <Shape>
0.237

> <Color>
0.045

> <Negative vol penalty>
0.000

$$$$

  -OEChem-04052322323D

 84 93  0     1  0  0  0  0  0999 V2000
  -33.5123   -9.2632   32.3026 C   0  0  0  0  0  0  0  0  0  0  0  0
  -33.5617  -10.5083   31.6841 C   0  0  0  0  0  0  0  0  0  0  0  0
  -23.0109   -9.8951   19.9725 C   0  0  0  0  0  0  0  0  0  0  0  0
  -23.6610   -9.9620   22.2984 C   0  0  0  0  0  0  0  0  0  0  0  0
  -32.3671   -8.4757   32.1913 C   0  0  0  0  0  0  0  0  0  0  0  0
  -32.4662  -10.9663   30.9530 C   0  0  0  0  0  0  0  0  0  0  0  0
  -30.5303  -16.7555   30.4589 C   0  0  0  0  0  0  0  0  0  0  0  0
  -22.2195   -8.7748   20.2259 C   0  0  0  0  0  0  0  0  0  0  0  0
  -22.8696   -8.8417   22.5518 C   0  0  0  0  0  0  0  0  0  0  0  0
  -30.7177  -17.7265   29.4761 C   0  0  0  0  0  0  0  0  0  0  0  0
  -23.0802   -5.4944   22.1247 C   0  0  0  0  0  0  0  0  0  0  0  0
  -23.6279   -4.4776   22.9068 C   0  0  0  0  0  0  0  0  0  0  0  0
  -28.6008  -17.1259   28.4876 C   0  0  0  0  0  0  0  0  0  0  0  0
  -21.8539   -4.7642   24.5217 C   0  0  0  0  0  0  0  0  0  0  0  0
  -32.5883  -19.5787   25.5867 C   0  0  0  0  0  0  0  0  0  0  0  0
  -23.7317  -10.4887   21.0088 C   0  0  0  0  0  0  0  0  0  0  0  0
  -24.1593  -12.9963   20.8180 C   0  0  0  0  0  0  0  0  0  0  0  0
  -31.2534   -8.9285   31.4665 C   0  0  0  0  0  0  0  0  0  0  0  0
  -29.3800  -15.9536   30.4570 C   0  0  0  0  0  0  0  0  0  0  0  0
  -31.3055  -10.1837   30.8308 C   0  0  0  0  0  0  0  0  0  0  0  0
  -28.4000  -16.1471   29.4729 C   0  0  0  0  0  0  0  0  0  0  0  0
  -33.7247  -18.8394   25.3428 C   0  0  0  0  0  0  0  0  0  0  0  0
  -33.3230  -17.6509   24.6847 C   0  0  0  0  0  0  0  0  0  0  0  0
  -22.1488   -8.2481   21.5155 C   0  0  0  0  0  0  0  0  0  0  0  0
  -29.7542  -17.9099   28.4886 C   0  0  0  0  0  0  0  0  0  0  0  0
  -21.9194   -6.1462   22.5411 C   0  0  0  0  0  0  0  0  0  0  0  0
  -23.0147   -4.1124   24.1053 C   0  0  0  0  0  0  0  0  0  0  0  0
  -21.3063   -5.7811   23.7396 C   0  0  0  0  0  0  0  0  0  0  0  0
  -24.5498  -11.6456   20.7476 C   0  0  0  0  0  0  0  0  0  0  0  0
  -31.9534  -17.7001   24.5463 C   0  0  0  0  0  0  0  0  0  0  0  0
  -25.2909  -13.6988   20.4825 C   0  0  0  0  0  0  0  0  0  0  0  0
  -22.8876  -13.5652   21.1567 C   0  0  0  0  0  0  0  0  0  0  0  0
  -28.8183  -12.8373   30.1790 C   0  0  0  0  0  0  0  0  0  0  0  0
  -25.7662  -13.7258   30.8251 C   0  0  0  0  0  0  0  0  0  0  0  0
  -23.3955  -16.1805   30.7962 C   0  0  0  0  0  0  0  0  0  0  0  0
  -30.7897  -14.5139   20.9257 C   0  0  0  0  0  0  0  0  0  0  0  0
  -30.0555   -8.0216   31.3348 C   0  0  0  0  0  0  0  0  0  0  0  0
  -29.1803  -14.9287   31.5396 C   0  0  0  0  0  0  0  0  0  0  0  0
  -27.1378  -15.3261   29.4383 C   0  0  0  0  0  0  0  0  0  0  0  0
  -28.7973   -8.7404   30.8548 C   0  0  0  0  0  0  0  0  0  0  0  0
  -29.6778  -12.1679   18.5293 C   0  0  0  0  0  0  0  0  0  0  0  0
  -29.1171   -9.6392   29.6645 C   0  0  0  0  0  0  0  0  0  0  0  0
  -28.2240  -11.9015   18.9099 C   0  0  0  0  0  0  0  0  0  0  0  0
  -30.9986  -15.2843   24.5058 C   0  0  0  0  0  0  0  0  0  0  0  0
  -30.5389  -12.3441   19.7728 C   0  0  0  0  0  0  0  0  0  0  0  0
  -30.2783  -14.4746   23.4359 C   0  0  0  0  0  0  0  0  0  0  0  0
  -31.2595  -16.4189   22.4363 C   0  0  0  0  0  0  0  0  0  0  0  0
  -28.6063  -13.2184   21.0575 C   0  0  0  0  0  0  0  0  0  0  0  0
  -30.1282  -10.7258   30.0497 C   0  0  1  0  0  0  0  0  0  0  0  0
  -30.9991  -16.7063   23.9217 C   0  0  2  0  0  0  0  0  0  0  0  0
  -28.2118  -13.8194   31.1409 C   0  0  1  0  0  0  0  0  0  0  0  0
  -27.6933  -13.0106   19.8314 C   0  0  2  0  0  0  0  0  0  0  0  0
  -35.1030  -19.2250   25.7059 C   0  0  0  0  0  0  0  0  0  0  0  0
  -34.2078  -16.5585   24.2298 C   0  0  0  0  0  0  0  0  0  0  0  0
  -20.9835  -16.5963   31.3503 C   0  0  0  0  0  0  0  0  0  0  0  0
  -24.9315  -12.2463   28.2905 C   0  0  0  0  0  0  0  0  0  0  0  0
  -22.7482  -13.4685   28.3797 C   0  0  0  0  0  0  0  0  0  0  0  0
  -23.3924  -11.9323   30.2365 C   0  0  0  0  0  0  0  0  0  0  0  0
  -24.0915  -18.2401   32.8043 C   0  0  0  0  0  0  0  0  0  0  0  0
  -30.1441  -19.3247   25.1640 C   0  0  0  0  0  0  0  0  0  0  0  0
  -29.3514  -18.6064   26.2507 C   0  0  0  0  0  0  0  0  0  1  0  0
  -24.5786  -14.1520   29.9963 C   0  0  1  0  0  0  0  0  0  0  0  0
  -22.4162  -16.6476   31.8579 C   0  0  2  0  0  0  0  0  0  0  0  0
  -23.9372  -12.9641   29.2250 C   0  0  0  0  0  0  0  0  0  0  0  0
  -25.8293  -11.4965   20.3947 N   0  0  0  0  0  0  0  0  0  0  0  0
  -31.5177  -18.8765   25.0979 N   0  0  0  0  0  0  0  0  0  0  0  0
  -26.2528  -12.7626   20.2404 N   0  0  0  0  0  0  0  0  0  0  0  0
  -26.9916  -14.3324   30.5148 N   0  0  0  0  0  0  0  0  0  0  0  0
  -30.0099  -13.3834   20.6580 N   0  0  0  0  0  0  0  0  0  0  0  0
  -30.6618  -15.1127   22.1784 N   0  0  0  0  0  0  0  0  0  0  0  0
  -25.5470  -15.0198   20.3736 N   0  0  0  0  0  0  0  0  0  0  0  0
  -21.8322  -12.6998   21.4758 N   0  0  0  0  0  0  0  0  0  0  0  0
  -29.4749  -11.7851   30.7883 N   0  0  0  0  0  0  0  0  0  0  0  0
  -23.6672  -14.8334   30.9092 N   0  0  0  0  0  0  0  0  0  0  0  0
  -22.7212  -18.0488   32.2634 N   0  3  0  0  0  0  0  0  0  0  0  0
  -22.6883  -14.8036   21.1598 O   0  0  0  0  0  0  0  0  0  0  0  0
  -28.6982  -13.0199   28.9732 O   0  0  0  0  0  0  0  0  0  0  0  0
  -25.6109  -12.8908   31.7197 O   0  0  0  0  0  0  0  0  0  0  0  0
  -23.8690  -16.9344   29.9489 O   0  0  0  0  0  0  0  0  0  0  0  0
  -31.5991  -14.9480   20.0948 O   0  0  0  0  0  0  0  0  0  0  0  0
  -21.3765   -7.1550   21.7632 O   0  0  0  0  0  0  0  0  0  0  0  0
  -29.9362  -18.8632   27.5211 O   0  0  0  0  0  0  0  0  0  1  0  0
  -23.5399   -3.1349   24.8554 F   0  0  0  0  0  0  0  0  0  0  0  0
  -20.1902   -6.4028   24.1443 F   0  0  0  0  0  0  0  0  0  0  0  0
  1  2  1  0  0  0  0
  1  5  2  0  0  0  0
  2  6  2  0  0  0  0
  3  8  2  0  0  0  0
  3 16  1  0  0  0  0
  4  9  1  0  0  0  0
  4 16  2  0  0  0  0
  5 18  1  0  0  0  0
  6 20  1  0  0  0  0
  7 10  2  0  0  0  0
  7 19  1  0  0  0  0
  8 24  1  0  0  0  0
  9 24  2  0  0  0  0
 10 25  1  0  0  0  0
 11 12  2  0  0  0  0
 11 26  1  0  0  0  0
 12 27  1  0  0  0  0
 13 21  1  0  0  0  0
 13 25  2  0  0  0  0
 14 27  2  0  0  0  0
 14 28  1  0  0  0  0
 15 22  2  0  0  0  0
 15 66  1  0  0  0  0
 16 29  1  0  0  0  0
 17 29  1  0  0  0  0
 17 31  2  0  0  0  0
 17 32  1  0  0  0  0
 18 20  2  0  0  0  0
 18 37  1  0  0  0  0
 19 21  2  0  0  0  0
 19 38  1  0  0  0  0
 20 49  1  0  0  0  0
 21 39  1  0  0  0  0
 22 23  1  0  0  0  0
 22 53  1  0  0  0  0
 23 30  2  0  0  0  0
 23 54  1  0  0  0  0
 24 81  1  0  0  0  0
 25 82  1  0  0  0  0
 26 28  2  0  0  0  0
 26 81  1  0  0  0  0
 27 83  1  0  0  0  0
 28 84  1  0  0  0  0
 29 65  2  0  0  0  0
 30 50  1  0  0  0  0
 30 66  1  0  0  0  0
 31 67  1  0  0  0  0
 31 71  1  0  0  0  0
 32 72  1  0  0  0  0
 32 76  2  0  0  0  0
 33 51  1  0  0  0  0
 33 73  1  0  0  0  0
 33 77  2  0  0  0  0
 34 62  1  0  0  0  0
 34 68  1  0  0  0  0
 34 78  2  0  0  0  0
 35 63  1  0  0  0  0
 35 74  1  0  0  0  0
 35 79  2  0  0  0  0
 36 69  1  0  0  0  0
 36 70  1  0  0  0  0
 36 80  2  0  0  0  0
 37 40  1  0  0  0  0
 38 51  1  0  0  0  0
 39 68  1  0  0  0  0
 40 42  1  0  0  0  0
 41 43  1  0  0  0  0
 41 45  1  0  0  0  0
 42 49  1  0  0  0  0
 43 52  1  0  0  0  0
 44 46  1  0  0  0  0
 44 50  1  0  0  0  0
 45 69  1  0  0  0  0
 46 70  1  0  0  0  0
 47 50  1  0  0  0  0
 47 70  1  0  0  0  0
 48 52  1  0  0  0  0
 48 69  1  0  0  0  0
 49 73  1  0  0  0  0
 51 68  1  0  0  0  0
 52 67  1  0  0  0  0
 55 63  1  0  0  0  0
 56 64  1  0  0  0  0
 57 64  1  0  0  0  0
 58 64  1  0  0  0  0
 59 75  1  0  0  0  0
 60 61  1  0  0  0  0
 60 66  1  0  0  0  0
 61 82  1  0  0  0  0
 62 64  1  0  0  0  0
 62 74  1  0  0  0  0
 63 75  1  0  0  0  0
 65 67  1  0  0  0  0
M  CHG  1  75   1
M  ISO  4  36 100  61 101  70 100  82 101
M  END
> <Batch ID>
0169

> <Smiles>
CNC(C)C(=O)NC(C(=O)N1Cc2cc([101O:1][101CH2:1]Cn3cc(C)c(C)c3C3CC[100N:0]([100C:0](=O)N4CCCC(n5nc(-c6ccc(Oc7ccc(F)cc7F)cc6)c(C(N)=O)c5N)C4)C3)ccc2CC1C(=O)NC1CCCc2ccccc21)C(C)(C)C

> <Shape>
0.165

> <Color>
0.205

> <Negative vol penalty>
0.000

$$$$

  -OEChem-04052322323D

 84 93  0     1  0  0  0  0  0999 V2000
  -30.1705  -20.8586   16.5750 C   0  0  0  0  0  0  0  0  0  0  0  0
  -29.8958  -21.1081   17.9158 C   0  0  0  0  0  0  0  0  0  0  0  0
  -23.2498  -12.7724   19.8527 C   0  0  0  0  0  0  0  0  0  0  0  0
  -23.0662  -13.8837   21.9901 C   0  0  0  0  0  0  0  0  0  0  0  0
  -30.2711  -21.9195   15.6760 C   0  0  0  0  0  0  0  0  0  0  0  0
  -29.7226  -22.4190   18.3585 C   0  0  0  0  0  0  0  0  0  0  0  0
  -25.7378  -22.9167   21.4438 C   0  0  0  0  0  0  0  0  0  0  0  0
  -22.6130  -11.6498   20.3817 C   0  0  0  0  0  0  0  0  0  0  0  0
  -22.4293  -12.7611   22.5191 C   0  0  0  0  0  0  0  0  0  0  0  0
  -25.8990  -22.4996   22.7644 C   0  0  0  0  0  0  0  0  0  0  0  0
  -21.3569   -8.3546   21.2692 C   0  0  0  0  0  0  0  0  0  0  0  0
  -21.8994   -7.1027   20.9795 C   0  0  0  0  0  0  0  0  0  0  0  0
  -26.2399  -24.7902   23.4399 C   0  0  0  0  0  0  0  0  0  0  0  0
  -30.5445  -20.5504   25.5790 C   0  0  0  0  0  0  0  0  0  0  0  0
  -28.8630  -19.1685   24.5555 C   0  0  0  0  0  0  0  0  0  0  0  0
  -23.9706   -7.7549   22.0387 C   0  0  0  0  0  0  0  0  0  0  0  0
  -23.4765  -13.8893   20.6569 C   0  0  0  0  0  0  0  0  0  0  0  0
  -23.5287  -16.1544   19.4846 C   0  0  0  0  0  0  0  0  0  0  0  0
  -30.0894  -23.2434   16.1061 C   0  0  0  0  0  0  0  0  0  0  0  0
  -25.8375  -24.2748   21.1092 C   0  0  0  0  0  0  0  0  0  0  0  0
  -29.8221  -23.4987   17.4647 C   0  0  0  0  0  0  0  0  0  0  0  0
  -26.0771  -25.2222   22.1148 C   0  0  0  0  0  0  0  0  0  0  0  0
  -29.2673  -20.0010   25.5932 C   0  0  0  0  0  0  0  0  0  0  0  0
  -22.2027  -11.6441   21.7148 C   0  0  0  0  0  0  0  0  0  0  0  0
  -26.1530  -23.4361   23.7622 C   0  0  0  0  0  0  0  0  0  0  0  0
  -22.1213   -9.3068   21.9437 C   0  0  0  0  0  0  0  0  0  0  0  0
  -23.2062   -6.8028   21.3643 C   0  0  0  0  0  0  0  0  0  0  0  0
  -23.4281   -9.0069   22.3284 C   0  0  0  0  0  0  0  0  0  0  0  0
  -24.1348  -15.0491   20.1112 C   0  0  0  0  0  0  0  0  0  0  0  0
  -31.3727  -20.2388   24.5128 C   0  0  0  0  0  0  0  0  0  0  0  0
  -29.7664  -18.9189   23.5350 C   0  0  0  0  0  0  0  0  0  0  0  0
  -24.5769  -16.9759   19.1485 C   0  0  0  0  0  0  0  0  0  0  0  0
  -22.1422  -16.4154   19.2293 C   0  0  0  0  0  0  0  0  0  0  0  0
  -27.7627  -25.9921   19.2523 C   0  0  0  0  0  0  0  0  0  0  0  0
  -25.7061  -28.3868   19.9991 C   0  0  0  0  0  0  0  0  0  0  0  0
  -23.3959  -29.6501   22.1703 C   0  0  0  0  0  0  0  0  0  0  0  0
  -30.0817  -17.6831   21.3625 C   0  0  0  0  0  0  0  0  0  0  0  0
  -30.2544  -24.3606   15.1065 C   0  0  0  0  0  0  0  0  0  0  0  0
  -25.6346  -24.7113   19.6842 C   0  0  0  0  0  0  0  0  0  0  0  0
  -26.1731  -26.6942   21.8109 C   0  0  0  0  0  0  0  0  0  0  0  0
  -29.6865  -25.6945   15.5845 C   0  0  0  0  0  0  0  0  0  0  0  0
  -27.4478  -19.5555   28.6560 C   0  0  0  0  0  0  0  0  0  0  0  0
  -29.2268  -16.8384   18.0110 C   0  0  0  0  0  0  0  0  0  0  0  0
  -30.1262  -25.9792   17.0171 C   0  0  0  0  0  0  0  0  0  0  0  0
  -27.7670  -16.3901   18.1112 C   0  0  0  0  0  0  0  0  0  0  0  0
  -27.2165  -19.2217   27.1720 C   0  0  0  0  0  0  0  0  0  0  0  0
  -28.8165  -20.1332   28.2552 C   0  0  0  0  0  0  0  0  0  0  0  0
  -30.0379  -16.4061   19.2312 C   0  0  0  0  0  0  0  0  0  0  0  0
  -28.0084  -16.3507   20.6266 C   0  0  0  0  0  0  0  0  0  0  0  0
  -29.6032  -24.9052   17.9786 C   0  0  1  0  0  0  0  0  0  0  0  0
  -26.2673  -26.0654   19.3782 C   0  0  1  0  0  0  0  0  0  0  0  0
  -27.1363  -16.8194   19.4504 C   0  0  2  0  0  0  0  0  0  0  0  0
  -28.2650  -20.3262   26.8005 C   0  0  0  0  0  0  0  0  0  0  0  0
  -32.7505  -20.8099   24.4654 C   0  0  0  0  0  0  0  0  0  0  0  0
  -21.9165  -31.6445   22.5320 C   0  0  0  0  0  0  0  0  0  0  0  0
  -28.1250  -30.0150   20.8980 C   0  0  0  0  0  0  0  0  0  0  0  0
  -26.5560  -31.5533   22.0980 C   0  0  0  0  0  0  0  0  0  0  0  0
  -26.4111  -31.3120   19.6194 C   0  0  0  0  0  0  0  0  0  0  0  0
  -20.9441  -27.9958   22.0659 C   0  0  0  0  0  0  0  0  0  0  0  0
  -27.6364  -21.7074   26.5668 C   0  0  0  0  0  0  0  0  0  0  0  0
  -26.8535  -21.7284   25.2619 C   0  0  0  0  0  0  0  0  0  1  0  0
  -25.6207  -29.4191   21.0973 C   0  0  1  0  0  0  0  0  0  0  0  0
  -22.0190  -30.2469   21.9413 C   0  0  2  0  0  0  0  0  0  0  0  0
  -26.6784  -30.5470   20.9339 C   0  0  0  0  0  0  0  0  0  0  0  0
  -25.4649  -15.1554   20.1707 N   0  0  0  0  0  0  0  0  0  0  0  0
  -31.0153  -19.4343   23.4868 N   0  0  0  0  0  0  0  0  0  0  0  0
  -25.7033  -16.3373   19.5772 N   0  0  0  0  0  0  0  0  0  0  0  0
  -25.9737  -27.0707   20.4016 N   0  0  0  0  0  0  0  0  0  0  0  0
  -29.3822  -16.8512   20.4629 N   0  0  0  0  0  0  0  0  0  0  0  0
  -24.6358  -18.1749   18.5309 N   0  0  0  0  0  0  0  0  0  0  0  0
  -21.1968  -15.4661   19.6409 N   0  0  0  0  0  0  0  0  0  0  0  0
  -29.3456  -18.0689   22.4824 N   0  0  0  0  0  0  0  0  0  0  0  0
  -28.2028  -25.1260   18.2695 N   0  0  0  0  0  0  0  0  0  0  0  0
  -24.2404  -29.8913   21.1073 N   0  0  0  0  0  0  0  0  0  0  0  0
  -20.9729  -29.3926   22.5710 N   0  3  0  0  0  0  0  0  0  0  0  0
  -21.7544  -17.4518   18.6386 O   0  0  0  0  0  0  0  0  0  0  0  0
  -28.4653  -26.6721   19.9910 O   0  0  0  0  0  0  0  0  0  0  0  0
  -25.5344  -28.7341   18.8280 O   0  0  0  0  0  0  0  0  0  0  0  0
  -23.6937  -29.0349   23.1917 O   0  0  0  0  0  0  0  0  0  0  0  0
  -31.2386  -18.0501   21.1414 O   0  0  0  0  0  0  0  0  0  0  0  0
  -21.5811  -10.5490   22.2313 O   0  0  0  0  0  0  0  0  0  0  0  0
  -26.3114  -23.0316   25.0519 O   0  0  0  0  0  0  0  0  0  1  0  0
  -23.7264   -5.6000   21.0873 F   0  0  0  0  0  0  0  0  0  0  0  0
  -24.1669   -9.9172   22.9777 F   0  0  0  0  0  0  0  0  0  0  0  0
  1  2  1  0  0  0  0
  1  5  2  0  0  0  0
  2  6  2  0  0  0  0
  3  8  2  0  0  0  0
  3 17  1  0  0  0  0
  4  9  1  0  0  0  0
  4 17  2  0  0  0  0
  5 19  1  0  0  0  0
  6 21  1  0  0  0  0
  7 10  2  0  0  0  0
  7 20  1  0  0  0  0
  8 24  1  0  0  0  0
  9 24  2  0  0  0  0
 10 25  1  0  0  0  0
 11 12  2  0  0  0  0
 11 26  1  0  0  0  0
 12 27  1  0  0  0  0
 13 22  1  0  0  0  0
 13 25  2  0  0  0  0
 14 23  1  0  0  0  0
 14 30  2  0  0  0  0
 15 23  2  0  0  0  0
 15 31  1  0  0  0  0
 16 27  2  0  0  0  0
 16 28  1  0  0  0  0
 17 29  1  0  0  0  0
 18 29  1  0  0  0  0
 18 32  2  0  0  0  0
 18 33  1  0  0  0  0
 19 21  2  0  0  0  0
 19 38  1  0  0  0  0
 20 22  2  0  0  0  0
 20 39  1  0  0  0  0
 21 50  1  0  0  0  0
 22 40  1  0  0  0  0
 23 53  1  0  0  0  0
 24 81  1  0  0  0  0
 25 82  1  0  0  0  0
 26 28  2  0  0  0  0
 26 81  1  0  0  0  0
 27 83  1  0  0  0  0
 28 84  1  0  0  0  0
 29 65  2  0  0  0  0
 30 54  1  0  0  0  0
 30 66  1  0  0  0  0
 31 66  2  0  0  0  0
 31 72  1  0  0  0  0
 32 67  1  0  0  0  0
 32 70  1  0  0  0  0
 33 71  1  0  0  0  0
 33 76  2  0  0  0  0
 34 51  1  0  0  0  0
 34 73  1  0  0  0  0
 34 77  2  0  0  0  0
 35 62  1  0  0  0  0
 35 68  1  0  0  0  0
 35 78  2  0  0  0  0
 36 63  1  0  0  0  0
 36 74  1  0  0  0  0
 36 79  2  0  0  0  0
 37 69  1  0  0  0  0
 37 72  1  0  0  0  0
 37 80  2  0  0  0  0
 38 41  1  0  0  0  0
 39 51  1  0  0  0  0
 40 68  1  0  0  0  0
 41 44  1  0  0  0  0
 42 46  1  0  0  0  0
 42 47  1  0  0  0  0
 43 45  1  0  0  0  0
 43 48  1  0  0  0  0
 44 50  1  0  0  0  0
 45 52  1  0  0  0  0
 46 53  1  0  0  0  0
 47 53  1  0  0  0  0
 48 69  1  0  0  0  0
 49 52  1  0  0  0  0
 49 69  1  0  0  0  0
 50 73  1  0  0  0  0
 51 68  1  0  0  0  0
 52 67  1  0  0  0  0
 53 60  1  0  0  0  0
 55 63  1  0  0  0  0
 56 64  1  0  0  0  0
 57 64  1  0  0  0  0
 58 64  1  0  0  0  0
 59 75  1  0  0  0  0
 60 61  1  0  0  0  0
 61 82  1  0  0  0  0
 62 64  1  0  0  0  0
 62 74  1  0  0  0  0
 63 75  1  0  0  0  0
 65 67  1  0  0  0  0
M  CHG  1  75   1
M  ISO  4  37 100  61 101  72 100  82 101
M  END
> <Batch ID>
0169

> <Smiles>
CNC(C)C(=O)NC(C(=O)N1Cc2cc([101O:1][101CH2:1]CC3(c4cc(C)nc([100NH:0][100C:0](=O)N5CCCC(n6nc(-c7ccc(Oc8ccc(F)cc8F)cc7)c(C(N)=O)c6N)C5)c4)CCC3)ccc2CC1C(=O)NC1CCCc2ccccc21)C(C)(C)C

> <Shape>
0.219

> <Color>
0.074

> <Negative vol penalty>
0.000

$$$$

  -OEChem-04052322323D

 87 97  0     1  0  0  0  0  0999 V2000
  -15.1635  -29.4744   14.8492 C   0  0  0  0  0  0  0  0  0  0  0  0
  -16.0125  -28.3764   14.7542 C   0  0  0  0  0  0  0  0  0  0  0  0
  -23.1948   -9.8152   19.9280 C   0  0  0  0  0  0  0  0  0  0  0  0
  -23.5381  -10.0055   22.3119 C   0  0  0  0  0  0  0  0  0  0  0  0
  -15.2237  -30.3060   15.9667 C   0  0  0  0  0  0  0  0  0  0  0  0
  -16.9230  -28.1100   15.7761 C   0  0  0  0  0  0  0  0  0  0  0  0
  -18.7576  -22.6031   17.7291 C   0  0  0  0  0  0  0  0  0  0  0  0
  -22.4223   -8.6716   20.1305 C   0  0  0  0  0  0  0  0  0  0  0  0
  -22.7655   -8.8620   22.5144 C   0  0  0  0  0  0  0  0  0  0  0  0
  -19.8931  -21.8415   17.4563 C   0  0  0  0  0  0  0  0  0  0  0  0
  -21.1826   -5.7877   23.6340 C   0  0  0  0  0  0  0  0  0  0  0  0
  -21.6631   -4.8306   24.5277 C   0  0  0  0  0  0  0  0  0  0  0  0
  -24.9435  -17.9720   17.6678 C   0  0  0  0  0  0  0  0  0  0  0  0
  -20.9397  -22.6972   19.4542 C   0  0  0  0  0  0  0  0  0  0  0  0
  -23.6415   -4.5548   23.1687 C   0  0  0  0  0  0  0  0  0  0  0  0
  -23.7528  -10.4821   21.0187 C   0  0  0  0  0  0  0  0  0  0  0  0
  -24.1022  -12.9967   20.7685 C   0  0  0  0  0  0  0  0  0  0  0  0
  -16.1287  -30.0441   17.0074 C   0  0  0  0  0  0  0  0  0  0  0  0
  -18.7088  -23.4272   18.8626 C   0  0  0  0  0  0  0  0  0  0  0  0
  -16.9963  -28.9396   16.9080 C   0  0  0  0  0  0  0  0  0  0  0  0
  -25.7808  -18.1484   16.5641 C   0  0  0  0  0  0  0  0  0  0  0  0
  -19.8014  -23.4663   19.7405 C   0  0  0  0  0  0  0  0  0  0  0  0
  -25.3809  -19.0270   15.5712 C   0  0  0  0  0  0  0  0  0  0  0  0
  -24.1759  -19.7321   15.6731 C   0  0  0  0  0  0  0  0  0  0  0  0
  -23.7347  -18.6789   17.7697 C   0  0  0  0  0  0  0  0  0  0  0  0
  -23.3457  -19.5727   16.7696 C   0  0  0  0  0  0  0  0  0  0  0  0
  -22.2076   -8.1950   21.4237 C   0  0  0  0  0  0  0  0  0  0  0  0
  -20.9855  -21.8907   18.3173 C   0  0  0  0  0  0  0  0  0  0  0  0
  -21.9316   -6.1283   22.5076 C   0  0  0  0  0  0  0  0  0  0  0  0
  -22.8925   -4.2142   24.2951 C   0  0  0  0  0  0  0  0  0  0  0  0
  -23.1610   -5.5119   22.2750 C   0  0  0  0  0  0  0  0  0  0  0  0
  -24.5514  -11.6632   20.8101 C   0  0  0  0  0  0  0  0  0  0  0  0
  -25.2389  -13.7351   20.5467 C   0  0  0  0  0  0  0  0  0  0  0  0
  -22.7760  -13.5210   20.9171 C   0  0  0  0  0  0  0  0  0  0  0  0
  -18.4060  -26.5534   19.3517 C   0  0  0  0  0  0  0  0  0  0  0  0
  -18.2493  -25.6563   22.4650 C   0  0  0  0  0  0  0  0  0  0  0  0
  -19.0005  -23.3370   24.8532 C   0  0  0  0  0  0  0  0  0  0  0  0
  -30.0199  -14.6623   18.0576 C   0  0  0  0  0  0  0  0  0  0  0  0
  -16.1898  -30.9984   18.1736 C   0  0  0  0  0  0  0  0  0  0  0  0
  -17.4662  -24.2221   19.1570 C   0  0  0  0  0  0  0  0  0  0  0  0
  -26.1172  -19.4074   14.3257 C   0  0  0  0  0  0  0  0  0  0  0  0
  -23.9954  -20.6503   14.5059 C   0  0  0  0  0  0  0  0  0  0  0  0
  -19.7913  -24.3195   20.9817 C   0  0  0  0  0  0  0  0  0  0  0  0
  -16.9238  -30.4320   19.3864 C   0  0  0  0  0  0  0  0  0  0  0  0
  -24.9934  -20.0540   13.5018 C   0  0  0  0  0  0  0  0  0  0  0  0
  -30.1151  -12.4245   20.6910 C   0  0  0  0  0  0  0  0  0  0  0  0
  -18.2343  -29.7781   18.9598 C   0  0  0  0  0  0  0  0  0  0  0  0
  -28.6411  -12.1262   20.9655 C   0  0  0  0  0  0  0  0  0  0  0  0
  -28.0539  -17.7663   17.6157 C   0  0  0  0  0  0  0  0  0  0  0  0
  -26.8790  -15.8700   16.4223 C   0  0  0  0  0  0  0  0  0  0  0  0
  -30.3892  -12.4919   19.1928 C   0  0  0  0  0  0  0  0  0  0  0  0
  -29.3605  -16.9812   17.5282 C   0  0  0  0  0  0  0  0  0  0  0  0
  -28.2114  -15.1289   16.3601 C   0  0  0  0  0  0  0  0  0  0  0  0
  -28.0646  -13.1987   18.7336 C   0  0  0  0  0  0  0  0  0  0  0  0
  -27.0935  -17.3930   16.4733 C   0  0  0  0  0  0  0  0  0  0  0  0
  -17.9803  -28.6034   18.0074 C   0  0  1  0  0  0  0  0  0  0  0  0
  -17.7246  -25.4202   20.0654 C   0  0  1  0  0  0  0  0  0  0  0  0
  -27.7299  -13.1297   20.2370 C   0  0  1  0  0  0  0  0  0  0  0  0
  -22.8763  -18.4605   18.9737 C   0  0  0  0  0  0  0  0  0  0  0  0
  -18.7766  -22.8999   27.3141 C   0  0  0  0  0  0  0  0  0  0  0  0
  -20.5022  -27.6379   23.0195 C   0  0  0  0  0  0  0  0  0  0  0  0
  -20.8719  -26.4960   25.2166 C   0  0  0  0  0  0  0  0  0  0  0  0
  -18.6904  -27.6093   24.7431 C   0  0  0  0  0  0  0  0  0  0  0  0
  -17.3910  -20.8967   24.3912 C   0  0  0  0  0  0  0  0  0  0  0  0
  -22.0729  -20.3423   16.8766 C   0  0  0  0  0  0  0  0  0  1  0  0
  -19.2575  -25.4436   23.5683 C   0  0  1  0  0  0  0  0  0  0  0  0
  -18.1541  -22.7008   25.9410 C   0  0  2  0  0  0  0  0  0  0  0  0
  -19.8318  -26.7820   24.1126 C   0  0  0  0  0  0  0  0  0  0  0  0
  -25.8705  -11.5575   20.6291 N   0  0  0  0  0  0  0  0  0  0  0  0
  -26.2600  -12.8341   20.4715 N   0  0  0  0  0  0  0  0  0  0  0  0
  -18.5559  -25.0832   21.2228 N   0  0  0  0  0  0  0  0  0  0  0  0
  -29.4999  -13.4504   18.5370 N   0  0  0  0  0  0  0  0  0  0  0  0
  -29.1135  -15.5423   17.4436 N   0  0  0  0  0  0  0  0  0  0  0  0
  -25.4545  -15.0608   20.4106 N   0  0  0  0  0  0  0  0  0  0  0  0
  -21.7235  -12.6228   21.1396 N   0  0  0  0  0  0  0  0  0  0  0  0
  -17.5368  -27.4406   18.7461 N   0  0  0  0  0  0  0  0  0  0  0  0
  -18.5927  -24.6248   24.5764 N   0  0  0  0  0  0  0  0  0  0  0  0
  -18.0117  -21.2375   25.6972 N   0  3  0  0  0  0  0  0  0  0  0  0
  -22.5294  -14.7484   20.8381 O   0  0  0  0  0  0  0  0  0  0  0  0
  -19.6297  -26.6187   19.3517 O   0  0  0  0  0  0  0  0  0  0  0  0
  -17.2240  -26.3011   22.6988 O   0  0  0  0  0  0  0  0  0  0  0  0
  -19.9326  -22.7516   24.3065 O   0  0  0  0  0  0  0  0  0  0  0  0
  -31.2186  -14.9457   18.1746 O   0  0  0  0  0  0  0  0  0  0  0  0
  -21.4536   -7.0793   21.6217 O   0  0  0  0  0  0  0  0  0  0  0  0
  -22.1029  -21.1438   18.0512 O   0  0  0  0  0  0  0  0  0  1  0  0
  -23.3545   -3.2962   25.1542 F   0  0  0  0  0  0  0  0  0  0  0  0
  -23.8855   -5.8358   21.1952 F   0  0  0  0  0  0  0  0  0  0  0  0
  1  2  1  0  0  0  0
  1  5  2  0  0  0  0
  2  6  2  0  0  0  0
  3  8  2  0  0  0  0
  3 16  1  0  0  0  0
  4  9  1  0  0  0  0
  4 16  2  0  0  0  0
  5 18  1  0  0  0  0
  6 20  1  0  0  0  0
  7 10  2  0  0  0  0
  7 19  1  0  0  0  0
  8 27  1  0  0  0  0
  9 27  2  0  0  0  0
 10 28  1  0  0  0  0
 11 12  2  0  0  0  0
 11 29  1  0  0  0  0
 12 30  1  0  0  0  0
 13 21  1  0  0  0  0
 13 25  2  0  0  0  0
 14 22  1  0  0  0  0
 14 28  2  0  0  0  0
 15 30  2  0  0  0  0
 15 31  1  0  0  0  0
 16 32  1  0  0  0  0
 17 32  1  0  0  0  0
 17 33  2  0  0  0  0
 17 34  1  0  0  0  0
 18 20  2  0  0  0  0
 18 39  1  0  0  0  0
 19 22  2  0  0  0  0
 19 40  1  0  0  0  0
 20 56  1  0  0  0  0
 21 23  2  0  0  0  0
 21 55  1  0  0  0  0
 22 43  1  0  0  0  0
 23 24  1  0  0  0  0
 23 41  1  0  0  0  0
 24 26  2  0  0  0  0
 24 42  1  0  0  0  0
 25 26  1  0  0  0  0
 25 59  1  0  0  0  0
 26 65  1  0  0  0  0
 27 84  1  0  0  0  0
 28 85  1  0  0  0  0
 29 31  2  0  0  0  0
 29 84  1  0  0  0  0
 30 86  1  0  0  0  0
 31 87  1  0  0  0  0
 32 69  2  0  0  0  0
 33 70  1  0  0  0  0
 33 74  1  0  0  0  0
 34 75  1  0  0  0  0
 34 79  2  0  0  0  0
 35 57  1  0  0  0  0
 35 76  1  0  0  0  0
 35 80  2  0  0  0  0
 36 66  1  0  0  0  0
 36 71  1  0  0  0  0
 36 81  2  0  0  0  0
 37 67  1  0  0  0  0
 37 77  1  0  0  0  0
 37 82  2  0  0  0  0
 38 72  1  0  0  0  0
 38 73  1  0  0  0  0
 38 83  2  0  0  0  0
 39 44  1  0  0  0  0
 40 57  1  0  0  0  0
 41 45  1  0  0  0  0
 42 45  1  0  0  0  0
 43 71  1  0  0  0  0
 44 47  1  0  0  0  0
 46 48  1  0  0  0  0
 46 51  1  0  0  0  0
 47 56  1  0  0  0  0
 48 58  1  0  0  0  0
 49 52  1  0  0  0  0
 49 55  1  0  0  0  0
 50 53  1  0  0  0  0
 50 55  1  0  0  0  0
 51 72  1  0  0  0  0
 52 73  1  0  0  0  0
 53 73  1  0  0  0  0
 54 58  1  0  0  0  0
 54 72  1  0  0  0  0
 56 76  1  0  0  0  0
 57 71  1  0  0  0  0
 58 70  1  0  0  0  0
 60 67  1  0  0  0  0
 61 68  1  0  0  0  0
 62 68  1  0  0  0  0
 63 68  1  0  0  0  0
 64 78  1  0  0  0  0
 65 85  1  0  0  0  0
 66 68  1  0  0  0  0
 66 77  1  0  0  0  0
 67 78  1  0  0  0  0
 69 70  1  0  0  0  0
M  CHG  1  78   1
M  ISO  4  38 100  65 101  73 100  85 101
M  END
> <Batch ID>
0169

> <Smiles>
CNC(C)C(=O)NC(C(=O)N1Cc2cc([101O:1][101CH2:1]c3c(C)cc(C4CC[100N:0]([100C:0](=O)N5CCCC(n6nc(-c7ccc(Oc8ccc(F)cc8F)cc7)c(C(N)=O)c6N)C5)CC4)c4c3CCC4)ccc2CC1C(=O)NC1CCCc2ccccc21)C(C)(C)C

> <Shape>
0.175

> <Color>
0.186

> <Negative vol penalty>
0.000

$$$$

  -OEChem-04052322323D

 89 99  0     1  0  0  0  0  0999 V2000
  -27.8981  -36.1214   23.9334 C   0  0  0  0  0  0  0  0  0  0  0  0
  -28.1337  -34.7522   23.8617 C   0  0  0  0  0  0  0  0  0  0  0  0
  -24.2728   -9.7052   21.8172 C   0  0  0  0  0  0  0  0  0  0  0  0
  -22.5821  -10.1207   20.1422 C   0  0  0  0  0  0  0  0  0  0  0  0
  -28.2508  -21.4980   20.9680 C   0  0  0  0  0  0  0  0  0  0  0  0
  -26.5919  -36.5984   24.0343 C   0  0  0  0  0  0  0  0  0  0  0  0
  -27.0632  -33.8591   23.8920 C   0  0  0  0  0  0  0  0  0  0  0  0
  -28.5759  -22.8282   20.7025 C   0  0  0  0  0  0  0  0  0  0  0  0
  -27.4849  -30.2024   20.4141 C   0  0  0  0  0  0  0  0  0  0  0  0
  -23.6668   -8.4877   22.1270 C   0  0  0  0  0  0  0  0  0  0  0  0
  -21.9760   -8.9031   20.4519 C   0  0  0  0  0  0  0  0  0  0  0  0
  -28.3588  -29.1532   20.6961 C   0  0  0  0  0  0  0  0  0  0  0  0
  -23.5422   -5.3666   20.8323 C   0  0  0  0  0  0  0  0  0  0  0  0
  -24.3667   -4.2514   20.9809 C   0  0  0  0  0  0  0  0  0  0  0  0
  -26.4896  -27.7857   21.3708 C   0  0  0  0  0  0  0  0  0  0  0  0
  -23.5976   -3.9860   23.2558 C   0  0  0  0  0  0  0  0  0  0  0  0
  -23.7304  -10.5217   20.8249 C   0  0  0  0  0  0  0  0  0  0  0  0
  -28.8444  -20.4742   20.2296 C   0  0  0  0  0  0  0  0  0  0  0  0
  -25.3612  -12.0100   19.5468 C   0  0  0  0  0  0  0  0  0  0  0  0
  -25.5042  -35.7112   24.0561 C   0  0  0  0  0  0  0  0  0  0  0  0
  -26.1056  -30.0544   20.6191 C   0  0  0  0  0  0  0  0  0  0  0  0
  -25.7413  -34.3247   23.9946 C   0  0  0  0  0  0  0  0  0  0  0  0
  -29.4945  -23.1347   19.6986 C   0  0  0  0  0  0  0  0  0  0  0  0
  -25.6001  -28.8336   21.0883 C   0  0  0  0  0  0  0  0  0  0  0  0
  -29.7630  -20.7807   19.2256 C   0  0  0  0  0  0  0  0  0  0  0  0
  -30.0881  -22.1109   18.9601 C   0  0  0  0  0  0  0  0  0  0  0  0
  -22.5184   -8.0866   21.4443 C   0  0  0  0  0  0  0  0  0  0  0  0
  -27.8615  -27.9456   21.1772 C   0  0  0  0  0  0  0  0  0  0  0  0
  -22.7455   -5.7916   21.8955 C   0  0  0  0  0  0  0  0  0  0  0  0
  -24.3944   -3.5610   22.1926 C   0  0  0  0  0  0  0  0  0  0  0  0
  -22.7732   -5.1013   23.1072 C   0  0  0  0  0  0  0  0  0  0  0  0
  -24.3557  -11.7798   20.5049 C   0  0  0  0  0  0  0  0  0  0  0  0
  -25.6107  -13.3582   19.6281 C   0  0  0  0  0  0  0  0  0  0  0  0
  -28.4822  -19.0871   20.5317 C   0  0  0  0  0  0  0  0  0  0  0  0
  -26.0114  -11.0877   18.6624 C   0  0  0  0  0  0  0  0  0  0  0  0
  -23.9473  -31.4778   22.4682 C   0  0  0  0  0  0  0  0  0  0  0  0
  -21.8697  -29.6272   20.8005 C   0  0  0  0  0  0  0  0  0  0  0  0
  -21.3448  -26.8145   18.9405 C   0  0  0  0  0  0  0  0  0  0  0  0
  -26.4446  -17.9680   22.5951 C   0  0  0  0  0  0  0  0  0  0  0  0
  -24.1131  -36.2719   24.2139 C   0  0  0  0  0  0  0  0  0  0  0  0
  -25.1736  -31.1867   20.2848 C   0  0  0  0  0  0  0  0  0  0  0  0
  -24.1256  -28.6170   21.3062 C   0  0  0  0  0  0  0  0  0  0  0  0
  -23.0113  -35.2756   23.8622 C   0  0  0  0  0  0  0  0  0  0  0  0
  -29.7888  -16.6449   22.8605 C   0  0  0  0  0  0  0  0  0  0  0  0
  -23.1130  -17.0458   21.9972 C   0  0  0  0  0  0  0  0  0  0  0  0
  -23.2881  -33.9228   24.5103 C   0  0  0  0  0  0  0  0  0  0  0  0
  -30.0949  -17.8644   22.0001 C   0  0  0  0  0  0  0  0  0  0  0  0
  -23.2080  -15.6067   21.4953 C   0  0  0  0  0  0  0  0  0  0  0  0
  -31.2676  -25.0017   19.4633 C   0  0  0  0  0  0  0  0  0  0  0  0
  -24.1206  -17.2994   23.1111 C   0  0  0  0  0  0  0  0  0  0  0  0
  -28.3625  -16.2955   22.4692 C   0  0  0  0  0  0  0  0  0  0  0  0
  -25.6559  -15.5840   22.1974 C   0  0  0  0  0  0  0  0  0  0  0  0
  -29.8237  -24.5662   19.4319 C   0  0  2  0  0  0  0  0  0  0  0  0
  -24.6048  -33.3254   23.9995 C   0  0  1  0  0  0  0  0  0  0  0  0
  -28.7581  -18.5959   21.9176 C   0  0  2  0  0  0  0  0  0  0  0  0
  -23.8389  -31.0984   21.0184 C   0  0  1  0  0  0  0  0  0  0  0  0
  -30.3402  -25.4187   20.5657 C   0  0  2  0  0  0  0  0  0  0  0  0
  -24.6474  -15.2692   21.0736 C   0  0  1  0  0  0  0  0  0  0  0  0
  -30.4000  -19.6826   18.4333 C   0  0  0  0  0  0  0  0  0  0  0  0
  -31.0732  -22.4402   17.8832 C   0  0  0  0  0  0  0  0  0  0  0  0
  -19.5340  -25.5507   17.7482 C   0  0  0  0  0  0  0  0  0  0  0  0
  -20.8166  -28.6141   23.4790 C   0  0  0  0  0  0  0  0  0  0  0  0
  -19.7277  -26.7205   22.2555 C   0  0  0  0  0  0  0  0  0  0  0  0
  -19.0499  -29.0714   21.7690 C   0  0  0  0  0  0  0  0  0  0  0  0
  -22.7070  -27.0974   16.3283 C   0  0  0  0  0  0  0  0  0  0  0  0
  -29.9080  -26.8399   20.6825 C   0  0  0  0  0  0  0  0  0  1  0  0
  -21.3000  -28.2396   20.9706 C   0  0  1  0  0  0  0  0  0  0  0  0
  -20.6278  -26.5995   17.6198 C   0  0  2  0  0  0  0  0  0  0  0  0
  -20.2516  -28.1658   22.1164 C   0  0  0  0  0  0  0  0  0  0  0  0
  -23.9915  -12.8925   21.1477 N   0  0  0  0  0  0  0  0  0  0  0  0
  -24.7724  -13.8349   20.5926 N   0  0  0  0  0  0  0  0  0  0  0  0
  -23.2555  -29.7562   20.9708 N   0  0  0  0  0  0  0  0  0  0  0  0
  -25.4807  -16.9561   22.6934 N   0  0  0  0  0  0  0  0  0  0  0  0
  -27.7368  -17.5933   22.2163 N   0  0  0  0  0  0  0  0  0  0  0  0
  -26.4633  -14.1705   18.9681 N   0  0  0  0  0  0  0  0  0  0  0  0
  -25.6345   -9.7386   18.7092 N   0  0  0  0  0  0  0  0  0  0  0  0
  -24.4242  -32.7572   22.6808 N   0  0  0  0  0  0  0  0  0  0  0  0
  -20.7851  -27.8467   19.6633 N   0  0  0  0  0  0  0  0  0  0  0  0
  -21.5905  -26.1490   16.5751 N   0  3  0  0  0  0  0  0  0  0  0  0
  -27.9772  -18.3093   19.7288 O   0  0  0  0  0  0  0  0  0  0  0  0
  -26.9118  -11.4464   17.8661 O   0  0  0  0  0  0  0  0  0  0  0  0
  -23.6209  -30.6702   23.3302 O   0  0  0  0  0  0  0  0  0  0  0  0
  -21.1142  -30.5610   20.5196 O   0  0  0  0  0  0  0  0  0  0  0  0
  -22.3030  -26.1323   19.2970 O   0  0  0  0  0  0  0  0  0  0  0  0
  -26.1699  -19.1470   22.8541 O   0  0  0  0  0  0  0  0  0  0  0  0
  -21.9269   -6.8985   21.7461 O   0  0  0  0  0  0  0  0  0  0  0  0
  -28.7186  -26.9126   21.4559 O   0  0  0  0  0  0  0  0  0  1  0  0
  -25.1850   -2.4892   22.3347 F   0  0  0  0  0  0  0  0  0  0  0  0
  -22.0091   -5.5041   24.1318 F   0  0  0  0  0  0  0  0  0  0  0  0
  1  2  1  0  0  0  0
  1  6  2  0  0  0  0
  2  7  2  0  0  0  0
  3 10  2  0  0  0  0
  3 17  1  0  0  0  0
  4 11  1  0  0  0  0
  4 17  2  0  0  0  0
  5  8  2  0  0  0  0
  5 18  1  0  0  0  0
  6 20  1  0  0  0  0
  7 22  1  0  0  0  0
  8 23  1  0  0  0  0
  9 12  2  0  0  0  0
  9 21  1  0  0  0  0
 10 27  1  0  0  0  0
 11 27  2  0  0  0  0
 12 28  1  0  0  0  0
 13 14  2  0  0  0  0
 13 29  1  0  0  0  0
 14 30  1  0  0  0  0
 15 24  1  0  0  0  0
 15 28  2  0  0  0  0
 16 30  2  0  0  0  0
 16 31  1  0  0  0  0
 17 32  1  0  0  0  0
 18 25  2  0  0  0  0
 18 34  1  0  0  0  0
 19 32  1  0  0  0  0
 19 33  2  0  0  0  0
 19 35  1  0  0  0  0
 20 22  2  0  0  0  0
 20 40  1  0  0  0  0
 21 24  2  0  0  0  0
 21 41  1  0  0  0  0
 22 54  1  0  0  0  0
 23 26  2  0  0  0  0
 23 53  1  0  0  0  0
 24 42  1  0  0  0  0
 25 26  1  0  0  0  0
 25 59  1  0  0  0  0
 26 60  1  0  0  0  0
 27 86  1  0  0  0  0
 28 87  1  0  0  0  0
 29 31  2  0  0  0  0
 29 86  1  0  0  0  0
 30 88  1  0  0  0  0
 31 89  1  0  0  0  0
 32 70  2  0  0  0  0
 33 71  1  0  0  0  0
 33 75  1  0  0  0  0
 34 55  1  0  0  0  0
 34 80  2  0  0  0  0
 35 76  1  0  0  0  0
 35 81  2  0  0  0  0
 36 56  1  0  0  0  0
 36 77  1  0  0  0  0
 36 82  2  0  0  0  0
 37 67  1  0  0  0  0
 37 72  1  0  0  0  0
 37 83  2  0  0  0  0
 38 68  1  0  0  0  0
 38 78  1  0  0  0  0
 38 84  2  0  0  0  0
 39 73  1  0  0  0  0
 39 74  1  0  0  0  0
 39 85  2  0  0  0  0
 40 43  1  0  0  0  0
 41 56  1  0  0  0  0
 42 72  1  0  0  0  0
 43 46  1  0  0  0  0
 44 47  1  0  0  0  0
 44 51  1  0  0  0  0
 45 48  1  0  0  0  0
 45 50  1  0  0  0  0
 46 54  1  0  0  0  0
 47 55  1  0  0  0  0
 48 58  1  0  0  0  0
 49 53  1  0  0  0  0
 49 57  1  0  0  0  0
 50 73  1  0  0  0  0
 51 74  1  0  0  0  0
 52 58  1  0  0  0  0
 52 73  1  0  0  0  0
 53 57  1  0  0  0  0
 54 77  1  0  0  0  0
 55 74  1  0  0  0  0
 56 72  1  0  0  0  0
 57 66  1  0  0  0  0
 58 71  1  0  0  0  0
 61 68  1  0  0  0  0
 62 69  1  0  0  0  0
 63 69  1  0  0  0  0
 64 69  1  0  0  0  0
 65 79  1  0  0  0  0
 66 87  1  0  0  0  0
 67 69  1  0  0  0  0
 67 78  1  0  0  0  0
 68 79  1  0  0  0  0
 70 71  1  0  0  0  0
M  CHG  1  79   1
M  ISO  4  39 100  66 101  74 100  87 101
M  END
> <Batch ID>
0169

> <Smiles>
CNC(C)C(=O)NC(C(=O)N1Cc2cc([101O:1][101CH2:1]C3CC3c3ccc(C(=O)C4CCC[100N:0]4[100C:0](=O)N4CCCC(n5nc(-c6ccc(Oc7ccc(F)cc7F)cc6)c(C(N)=O)c5N)C4)c(C)c3C)ccc2CC1C(=O)NC1CCCc2ccccc21)C(C)(C)C

> <Shape>
0.357

> <Color>
0.077

> <Negative vol penalty>
0.000

$$$$

  -OEChem-04052322323D

 85 95  0     1  0  0  0  0  0999 V2000
  -27.5690  -33.2207   27.0426 C   0  0  0  0  0  0  0  0  0  0  0  0
  -27.8032  -32.1104   26.2378 C   0  0  0  0  0  0  0  0  0  0  0  0
  -25.4451  -12.2360   22.0270 C   0  0  0  0  0  0  0  0  0  0  0  0
  -26.0252  -12.2768   19.6820 C   0  0  0  0  0  0  0  0  0  0  0  0
  -26.2610  -33.6036   27.3368 C   0  0  0  0  0  0  0  0  0  0  0  0
  -26.7294  -31.3817   25.7275 C   0  0  0  0  0  0  0  0  0  0  0  0
  -27.3146  -30.2313   20.8306 C   0  0  0  0  0  0  0  0  0  0  0  0
  -24.1253  -11.9302   21.6953 C   0  0  0  0  0  0  0  0  0  0  0  0
  -24.7053  -11.9709   19.3502 C   0  0  0  0  0  0  0  0  0  0  0  0
  -28.1693  -29.1737   20.5228 C   0  0  0  0  0  0  0  0  0  0  0  0
  -22.3620   -9.2043   20.7501 C   0  0  0  0  0  0  0  0  0  0  0  0
  -21.7290   -8.1940   21.4742 C   0  0  0  0  0  0  0  0  0  0  0  0
  -26.2635  -27.7191   20.2557 C   0  0  0  0  0  0  0  0  0  0  0  0
  -20.0489   -9.7695   22.2036 C   0  0  0  0  0  0  0  0  0  0  0  0
  -26.3951  -12.4094   21.0204 C   0  0  0  0  0  0  0  0  0  0  0  0
  -28.8066  -11.8180   21.6056 C   0  0  0  0  0  0  0  0  0  0  0  0
  -25.1706  -32.8849   26.8219 C   0  0  0  0  0  0  0  0  0  0  0  0
  -25.9261  -30.0377   20.8641 C   0  0  0  0  0  0  0  0  0  0  0  0
  -25.4056  -31.7545   26.0161 C   0  0  0  0  0  0  0  0  0  0  0  0
  -25.3932  -28.7764   20.5618 C   0  0  0  0  0  0  0  0  0  0  0  0
  -29.3792  -23.5850   20.2537 C   0  0  0  0  0  0  0  0  0  0  0  0
  -28.9451  -24.6124   19.3802 C   0  0  0  0  0  0  0  0  0  0  0  0
  -23.7554  -11.7976   20.3569 C   0  0  0  0  0  0  0  0  0  0  0  0
  -27.6440  -27.9167   20.2381 C   0  0  0  0  0  0  0  0  0  0  0  0
  -21.8385  -10.4972   20.7528 C   0  0  0  0  0  0  0  0  0  0  0  0
  -20.5725   -8.4766   22.2009 C   0  0  0  0  0  0  0  0  0  0  0  0
  -20.6819  -10.7798   21.4795 C   0  0  0  0  0  0  0  0  0  0  0  0
  -27.7585  -12.7259   21.3624 C   0  0  0  0  0  0  0  0  0  0  0  0
  -30.3791  -22.8915   19.6082 C   0  0  0  0  0  0  0  0  0  0  0  0
  -29.6928  -24.5154   18.2274 C   0  0  0  0  0  0  0  0  0  0  0  0
  -29.8909  -12.6128   21.8868 C   0  0  0  0  0  0  0  0  0  0  0  0
  -28.8006  -10.3845   21.5797 C   0  0  0  0  0  0  0  0  0  0  0  0
  -23.6816  -30.2745   23.1023 C   0  0  0  0  0  0  0  0  0  0  0  0
  -21.6851  -29.7123   20.6082 C   0  0  0  0  0  0  0  0  0  0  0  0
  -21.2456  -28.4051   17.4866 C   0  0  0  0  0  0  0  0  0  0  0  0
  -31.0746  -18.2118   20.2629 C   0  0  0  0  0  0  0  0  0  0  0  0
  -23.7751  -33.3090   27.2061 C   0  0  0  0  0  0  0  0  0  0  0  0
  -25.0163  -31.1952   21.1718 C   0  0  0  0  0  0  0  0  0  0  0  0
  -23.9088  -28.5214   20.5643 C   0  0  0  0  0  0  0  0  0  0  0  0
  -22.6892  -32.7052   26.3192 C   0  0  0  0  0  0  0  0  0  0  0  0
  -31.0800  -16.8575   23.6806 C   0  0  0  0  0  0  0  0  0  0  0  0
  -22.9280  -31.2112   26.1250 C   0  0  0  0  0  0  0  0  0  0  0  0
  -30.2520  -15.5910   23.4945 C   0  0  0  0  0  0  0  0  0  0  0  0
  -32.9926  -22.8957   17.7375 C   0  0  0  0  0  0  0  0  0  0  0  0
  -32.5423  -23.9781   16.8071 C   0  0  0  0  0  0  0  0  0  0  0  0
  -30.6318  -17.9893   22.7556 C   0  0  0  0  0  0  0  0  0  0  0  0
  -30.4204  -20.6033   21.0387 C   0  0  0  0  0  0  0  0  0  0  0  0
  -31.5494  -20.4887   19.2425 C   0  0  0  0  0  0  0  0  0  0  0  0
  -29.7478  -16.3204   21.1382 C   0  0  0  0  0  0  0  0  0  0  0  0
  -24.2669  -30.9532   25.4234 C   0  0  1  0  0  0  0  0  0  0  0  0
  -31.1774  -21.6497   20.1877 C   0  0  0  0  0  0  0  0  0  0  0  0
  -23.6457  -30.7591   21.6805 C   0  0  1  0  0  0  0  0  0  0  0  0
  -31.5277  -23.0231   17.3908 C   0  0  0  0  0  0  0  0  0  0  0  0
  -30.2471  -15.1670   22.0187 C   0  0  2  0  0  0  0  0  0  0  0  0
  -28.8558  -23.3091   21.6077 C   0  0  0  0  0  0  0  0  0  0  0  0
  -29.6548  -25.3328   16.9958 C   0  0  0  0  0  0  0  0  0  0  0  0
  -19.4933  -28.0627   15.7231 C   0  0  0  0  0  0  0  0  0  0  0  0
  -20.4937  -27.4256   22.2396 C   0  0  0  0  0  0  0  0  0  0  0  0
  -19.4617  -26.5525   20.1322 C   0  0  0  0  0  0  0  0  0  0  0  0
  -18.8178  -28.8028   20.9949 C   0  0  0  0  0  0  0  0  0  0  0  0
  -22.7397  -30.0366   15.5206 C   0  0  0  0  0  0  0  0  0  0  0  0
  -27.8698  -25.6218   19.6565 C   0  0  0  0  0  0  0  0  0  1  0  0
  -21.1026  -28.4785   19.9622 C   0  0  1  0  0  0  0  0  0  0  0  0
  -20.5959  -28.9746   16.2384 C   0  0  2  0  0  0  0  0  0  0  0  0
  -19.9970  -27.8189   20.8340 C   0  0  0  0  0  0  0  0  0  0  0  0
  -28.1424  -13.9999   21.4790 N   0  0  0  0  0  0  0  0  0  0  0  0
  -30.5610  -23.4656   18.3772 N   0  0  0  0  0  0  0  0  0  0  0  0
  -29.4438  -13.8983   21.7987 N   0  0  0  0  0  0  0  0  0  0  0  0
  -23.0608  -29.6834   20.8774 N   0  0  0  0  0  0  0  0  0  0  0  0
  -30.5130  -17.5517   21.3610 N   0  0  0  0  0  0  0  0  0  0  0  0
  -31.1892  -19.5859   20.3321 N   0  0  0  0  0  0  0  0  0  0  0  0
  -31.1737  -12.3305   22.1984 N   0  0  0  0  0  0  0  0  0  0  0  0
  -27.6016   -9.7269   21.2724 N   0  0  0  0  0  0  0  0  0  0  0  0
  -24.1515  -31.2103   24.0039 N   0  0  0  0  0  0  0  0  0  0  0  0
  -20.6535  -28.8860   18.6353 N   0  0  0  0  0  0  0  0  0  0  0  0
  -21.6088  -29.1439   15.1584 N   0  3  0  0  0  0  0  0  0  0  0  0
  -29.8240   -9.7066   21.8378 O   0  0  0  0  0  0  0  0  0  0  0  0
  -23.3090  -29.1364   23.3623 O   0  0  0  0  0  0  0  0  0  0  0  0
  -20.9480  -30.6694   20.8582 O   0  0  0  0  0  0  0  0  0  0  0  0
  -22.1820  -27.6102   17.4466 O   0  0  0  0  0  0  0  0  0  0  0  0
  -31.4306  -17.6063   19.2439 O   0  0  0  0  0  0  0  0  0  0  0  0
  -22.4676  -11.4989   20.0328 O   0  0  0  0  0  0  0  0  0  0  0  0
  -28.4761  -26.8826   19.9379 O   0  0  0  0  0  0  0  0  0  1  0  0
  -19.9639   -7.5060   22.8949 F   0  0  0  0  0  0  0  0  0  0  0  0
  -20.1735  -12.0197   21.4850 F   0  0  0  0  0  0  0  0  0  0  0  0
  1  2  1  0  0  0  0
  1  5  2  0  0  0  0
  2  6  2  0  0  0  0
  3  8  2  0  0  0  0
  3 15  1  0  0  0  0
  4  9  1  0  0  0  0
  4 15  2  0  0  0  0
  5 17  1  0  0  0  0
  6 19  1  0  0  0  0
  7 10  2  0  0  0  0
  7 18  1  0  0  0  0
  8 23  1  0  0  0  0
  9 23  2  0  0  0  0
 10 24  1  0  0  0  0
 11 12  2  0  0  0  0
 11 25  1  0  0  0  0
 12 26  1  0  0  0  0
 13 20  1  0  0  0  0
 13 24  2  0  0  0  0
 14 26  2  0  0  0  0
 14 27  1  0  0  0  0
 15 28  1  0  0  0  0
 16 28  1  0  0  0  0
 16 31  2  0  0  0  0
 16 32  1  0  0  0  0
 17 19  2  0  0  0  0
 17 37  1  0  0  0  0
 18 20  2  0  0  0  0
 18 38  1  0  0  0  0
 19 50  1  0  0  0  0
 20 39  1  0  0  0  0
 21 22  1  0  0  0  0
 21 29  2  0  0  0  0
 21 55  1  0  0  0  0
 22 30  2  0  0  0  0
 22 62  1  0  0  0  0
 23 82  1  0  0  0  0
 24 83  1  0  0  0  0
 25 27  2  0  0  0  0
 25 82  1  0  0  0  0
 26 84  1  0  0  0  0
 27 85  1  0  0  0  0
 28 66  2  0  0  0  0
 29 51  1  0  0  0  0
 29 67  1  0  0  0  0
 30 56  1  0  0  0  0
 30 67  1  0  0  0  0
 31 68  1  0  0  0  0
 31 72  1  0  0  0  0
 32 73  1  0  0  0  0
 32 77  2  0  0  0  0
 33 52  1  0  0  0  0
 33 74  1  0  0  0  0
 33 78  2  0  0  0  0
 34 63  1  0  0  0  0
 34 69  1  0  0  0  0
 34 79  2  0  0  0  0
 35 64  1  0  0  0  0
 35 75  1  0  0  0  0
 35 80  2  0  0  0  0
 36 70  1  0  0  0  0
 36 71  1  0  0  0  0
 36 81  2  0  0  0  0
 37 40  1  0  0  0  0
 38 52  1  0  0  0  0
 39 69  1  0  0  0  0
 40 42  1  0  0  0  0
 41 43  1  0  0  0  0
 41 46  1  0  0  0  0
 42 50  1  0  0  0  0
 43 54  1  0  0  0  0
 44 45  1  0  0  0  0
 44 53  1  0  0  0  0
 45 53  1  0  0  0  0
 46 70  1  0  0  0  0
 47 51  1  0  0  0  0
 47 71  1  0  0  0  0
 48 51  1  0  0  0  0
 48 71  1  0  0  0  0
 49 54  1  0  0  0  0
 49 70  1  0  0  0  0
 50 74  1  0  0  0  0
 52 69  1  0  0  0  0
 53 67  1  0  0  0  0
 54 68  1  0  0  0  0
 57 64  1  0  0  0  0
 58 65  1  0  0  0  0
 59 65  1  0  0  0  0
 60 65  1  0  0  0  0
 61 76  1  0  0  0  0
 62 83  1  0  0  0  0
 63 65  1  0  0  0  0
 63 75  1  0  0  0  0
 64 76  1  0  0  0  0
 66 68  1  0  0  0  0
M  CHG  1  76   1
M  ISO  4  36 100  62 101  71 100  83 101
M  END
> <Batch ID>
0169

> <Smiles>
CNC(C)C(=O)NC(C(=O)N1Cc2cc([101O:1][101CH2:1]c3c(C)c(C4C[100N:0]([100C:0](=O)N5CCCC(n6nc(-c7ccc(Oc8ccc(F)cc8F)cc7)c(C(N)=O)c6N)C5)C4)n(C4CC4)c3C)ccc2CC1C(=O)NC1CCCc2ccccc21)C(C)(C)C

> <Shape>
0.305

> <Color>
0.079

> <Negative vol penalty>
0.000

$$$$

  -OEChem-04052322323D

 84 93  0     1  0  0  0  0  0999 V2000
  -32.3468  -37.9534   21.4912 C   0  0  0  0  0  0  0  0  0  0  0  0
  -32.2717  -36.9256   20.5566 C   0  0  0  0  0  0  0  0  0  0  0  0
  -24.4078   -9.1082   22.2555 C   0  0  0  0  0  0  0  0  0  0  0  0
  -23.8973   -9.1431   19.8943 C   0  0  0  0  0  0  0  0  0  0  0  0
  -31.9740  -37.7197   22.8142 C   0  0  0  0  0  0  0  0  0  0  0  0
  -31.8248  -35.6631   20.9448 C   0  0  0  0  0  0  0  0  0  0  0  0
  -28.2015  -30.0113   18.4457 C   0  0  0  0  0  0  0  0  0  0  0  0
  -23.3053   -8.2844   22.4817 C   0  0  0  0  0  0  0  0  0  0  0  0
  -22.7948   -8.3192   20.1205 C   0  0  0  0  0  0  0  0  0  0  0  0
  -28.3186  -28.6281   18.3168 C   0  0  0  0  0  0  0  0  0  0  0  0
  -22.5308   -5.0105   22.1424 C   0  0  0  0  0  0  0  0  0  0  0  0
  -22.7056   -3.9093   22.9804 C   0  0  0  0  0  0  0  0  0  0  0  0
  -27.6259  -28.3617   20.6121 C   0  0  0  0  0  0  0  0  0  0  0  0
  -21.0105   -4.7733   24.4695 C   0  0  0  0  0  0  0  0  0  0  0  0
  -27.6061  -23.7242   17.4105 C   0  0  0  0  0  0  0  0  0  0  0  0
  -24.7038   -9.5377   20.9618 C   0  0  0  0  0  0  0  0  0  0  0  0
  -27.1595   -9.9866   20.4366 C   0  0  0  0  0  0  0  0  0  0  0  0
  -31.5131  -36.4563   23.2166 C   0  0  0  0  0  0  0  0  0  0  0  0
  -27.8055  -30.5817   19.6640 C   0  0  0  0  0  0  0  0  0  0  0  0
  -31.4467  -35.4119   22.2747 C   0  0  0  0  0  0  0  0  0  0  0  0
  -27.5021  -29.7523   20.7531 C   0  0  0  0  0  0  0  0  0  0  0  0
  -28.5890  -24.4657   18.0339 C   0  0  0  0  0  0  0  0  0  0  0  0
  -22.4988   -7.8898   21.4142 C   0  0  0  0  0  0  0  0  0  0  0  0
  -28.0336  -27.8032   19.4010 C   0  0  0  0  0  0  0  0  0  0  0  0
  -21.5959   -5.9933   22.4680 C   0  0  0  0  0  0  0  0  0  0  0  0
  -21.9454   -3.7906   24.1439 C   0  0  0  0  0  0  0  0  0  0  0  0
  -20.8358   -5.8746   23.6315 C   0  0  0  0  0  0  0  0  0  0  0  0
  -25.8423  -10.3893   20.7275 C   0  0  0  0  0  0  0  0  0  0  0  0
  -29.5742  -23.7372   18.6686 C   0  0  0  0  0  0  0  0  0  0  0  0
  -27.8563  -11.1627   20.3025 C   0  0  0  0  0  0  0  0  0  0  0  0
  -28.5937  -21.7806   18.0542 C   0  0  0  0  0  0  0  0  0  0  0  0
  -27.7045   -8.6676   20.2998 C   0  0  0  0  0  0  0  0  0  0  0  0
  -29.1475  -32.5670   21.7525 C   0  0  0  0  0  0  0  0  0  0  0  0
  -26.2281  -32.4374   23.1606 C   0  0  0  0  0  0  0  0  0  0  0  0
  -23.3159  -30.7236   23.6394 C   0  0  0  0  0  0  0  0  0  0  0  0
  -28.4707  -16.1725   18.4673 C   0  0  0  0  0  0  0  0  0  0  0  0
  -31.1662  -36.2387   24.6682 C   0  0  0  0  0  0  0  0  0  0  0  0
  -27.6582  -32.0742   19.7788 C   0  0  0  0  0  0  0  0  0  0  0  0
  -27.0535  -30.3139   22.0767 C   0  0  0  0  0  0  0  0  0  0  0  0
  -30.3480  -34.9739   24.9159 C   0  0  0  0  0  0  0  0  0  0  0  0
  -26.5528  -15.9179   21.3992 C   0  0  0  0  0  0  0  0  0  0  0  0
  -30.9528  -33.7914   24.1657 C   0  0  0  0  0  0  0  0  0  0  0  0
  -26.2979  -14.4124   21.4656 C   0  0  0  0  0  0  0  0  0  0  0  0
  -26.4504  -16.4539   19.9704 C   0  0  0  0  0  0  0  0  0  0  0  0
  -29.6749  -19.6678   18.7579 C   0  0  0  0  0  0  0  0  0  0  0  0
  -27.2992  -19.6944   17.9822 C   0  0  0  0  0  0  0  0  0  0  0  0
  -29.8059  -18.2349   18.2488 C   0  0  0  0  0  0  0  0  0  0  0  0
  -27.4759  -18.2672   17.4760 C   0  0  0  0  0  0  0  0  0  0  0  0
  -27.0507  -14.2322   19.0639 C   0  0  0  0  0  0  0  0  0  0  0  0
  -30.9435  -34.0354   22.6518 C   0  0  1  0  0  0  0  0  0  0  0  0
  -27.7433  -32.5741   21.2177 C   0  0  1  0  0  0  0  0  0  0  0  0
  -27.2045  -13.6546   20.4795 C   0  0  2  0  0  0  0  0  0  0  0  0
  -30.6912  -24.4332   19.3740 C   0  0  0  0  0  0  0  0  0  0  0  0
  -21.1344  -30.8524   24.8730 C   0  0  0  0  0  0  0  0  0  0  0  0
  -27.6490  -31.6676   25.7487 C   0  0  0  0  0  0  0  0  0  0  0  0
  -25.4432  -30.8981   26.6490 C   0  0  0  0  0  0  0  0  0  0  0  0
  -25.7702  -33.2934   26.0339 C   0  0  0  0  0  0  0  0  0  0  0  0
  -21.7590  -30.7127   21.1225 C   0  0  0  0  0  0  0  0  0  0  0  0
  -28.5649  -25.9503   18.0079 C   0  0  0  0  0  0  0  0  0  1  0  0
  -25.5827  -31.5584   24.2045 C   0  0  1  0  0  0  0  0  0  0  0  0
  -21.8650  -31.1657   23.5765 C   0  0  2  0  0  0  0  0  0  0  0  0
  -26.1216  -31.8435   25.6348 C   0  0  0  0  0  0  0  0  0  0  0  0
  -27.5774  -22.3754   17.4008 N   0  0  0  0  0  0  0  0  0  0  0  0
  -25.7077  -11.7173   20.7757 N   0  0  0  0  0  0  0  0  0  0  0  0
  -29.6077  -22.3887   18.6988 N   0  0  0  0  0  0  0  0  0  0  0  0
  -26.9494  -12.1593   20.5133 N   0  0  0  0  0  0  0  0  0  0  0  0
  -28.5963  -20.3799   18.0640 N   0  0  0  0  0  0  0  0  0  0  0  0
  -26.9307  -31.7796   22.1410 N   0  0  0  0  0  0  0  0  0  0  0  0
  -27.3004  -15.6752   19.0599 N   0  0  0  0  0  0  0  0  0  0  0  0
  -28.5177  -17.5529   18.2169 N   0  0  0  0  0  0  0  0  0  0  0  0
  -29.1501  -11.4311   20.0260 N   0  0  0  0  0  0  0  0  0  0  0  0
  -26.8491   -7.5703   20.4693 N   0  0  0  0  0  0  0  0  0  0  0  0
  -29.6187  -33.8151   22.1125 N   0  0  0  0  0  0  0  0  0  0  0  0
  -24.1428  -31.7435   24.0605 N   0  0  0  0  0  0  0  0  0  0  0  0
  -21.1604  -30.4731   22.4609 N   0  3  0  0  0  0  0  0  0  0  0  0
  -28.9176   -8.4676   20.0513 O   0  0  0  0  0  0  0  0  0  0  0  0
  -29.7576  -31.5073   21.8340 O   0  0  0  0  0  0  0  0  0  0  0  0
  -26.1070  -33.6622   23.2426 O   0  0  0  0  0  0  0  0  0  0  0  0
  -23.6789  -29.5862   23.3478 O   0  0  0  0  0  0  0  0  0  0  0  0
  -29.4187  -15.4306   18.1813 O   0  0  0  0  0  0  0  0  0  0  0  0
  -21.4230   -7.0856   21.6346 O   0  0  0  0  0  0  0  0  0  0  0  0
  -28.1484  -26.4443   19.2774 O   0  0  0  0  0  0  0  0  0  1  0  0
  -22.1123   -2.7322   24.9477 F   0  0  0  0  0  0  0  0  0  0  0  0
  -19.9353   -6.8149   23.9489 F   0  0  0  0  0  0  0  0  0  0  0  0
  1  2  1  0  0  0  0
  1  5  2  0  0  0  0
  2  6  2  0  0  0  0
  3  8  2  0  0  0  0
  3 16  1  0  0  0  0
  4  9  1  0  0  0  0
  4 16  2  0  0  0  0
  5 18  1  0  0  0  0
  6 20  1  0  0  0  0
  7 10  2  0  0  0  0
  7 19  1  0  0  0  0
  8 23  1  0  0  0  0
  9 23  2  0  0  0  0
 10 24  1  0  0  0  0
 11 12  2  0  0  0  0
 11 25  1  0  0  0  0
 12 26  1  0  0  0  0
 13 21  1  0  0  0  0
 13 24  2  0  0  0  0
 14 26  2  0  0  0  0
 14 27  1  0  0  0  0
 15 22  1  0  0  0  0
 15 63  2  0  0  0  0
 16 28  1  0  0  0  0
 17 28  1  0  0  0  0
 17 30  2  0  0  0  0
 17 32  1  0  0  0  0
 18 20  2  0  0  0  0
 18 37  1  0  0  0  0
 19 21  2  0  0  0  0
 19 38  1  0  0  0  0
 20 50  1  0  0  0  0
 21 39  1  0  0  0  0
 22 29  2  0  0  0  0
 22 59  1  0  0  0  0
 23 81  1  0  0  0  0
 24 82  1  0  0  0  0
 25 27  2  0  0  0  0
 25 81  1  0  0  0  0
 26 83  1  0  0  0  0
 27 84  1  0  0  0  0
 28 64  2  0  0  0  0
 29 53  1  0  0  0  0
 29 65  1  0  0  0  0
 30 66  1  0  0  0  0
 30 71  1  0  0  0  0
 31 63  1  0  0  0  0
 31 65  2  0  0  0  0
 31 67  1  0  0  0  0
 32 72  1  0  0  0  0
 32 76  2  0  0  0  0
 33 51  1  0  0  0  0
 33 73  1  0  0  0  0
 33 77  2  0  0  0  0
 34 60  1  0  0  0  0
 34 68  1  0  0  0  0
 34 78  2  0  0  0  0
 35 61  1  0  0  0  0
 35 74  1  0  0  0  0
 35 79  2  0  0  0  0
 36 69  1  0  0  0  0
 36 70  1  0  0  0  0
 36 80  2  0  0  0  0
 37 40  1  0  0  0  0
 38 51  1  0  0  0  0
 39 68  1  0  0  0  0
 40 42  1  0  0  0  0
 41 43  1  0  0  0  0
 41 44  1  0  0  0  0
 42 50  1  0  0  0  0
 43 52  1  0  0  0  0
 44 69  1  0  0  0  0
 45 47  1  0  0  0  0
 45 67  1  0  0  0  0
 46 48  1  0  0  0  0
 46 67  1  0  0  0  0
 47 70  1  0  0  0  0
 48 70  1  0  0  0  0
 49 52  1  0  0  0  0
 49 69  1  0  0  0  0
 50 73  1  0  0  0  0
 51 68  1  0  0  0  0
 52 66  1  0  0  0  0
 54 61  1  0  0  0  0
 55 62  1  0  0  0  0
 56 62  1  0  0  0  0
 57 62  1  0  0  0  0
 58 75  1  0  0  0  0
 59 82  1  0  0  0  0
 60 62  1  0  0  0  0
 60 74  1  0  0  0  0
 61 75  1  0  0  0  0
 64 66  1  0  0  0  0
M  CHG  1  75   1
M  ISO  4  36 100  59 101  70 100  82 101
M  END
> <Batch ID>
0169

> <Smiles>
CNC(C)C(=O)NC(C(=O)N1Cc2cc([101O:1][101CH2:1]c3cnc(N4CC[100N:0]([100C:0](=O)N5CCCC(n6nc(-c7ccc(Oc8ccc(F)cc8F)cc7)c(C(N)=O)c6N)C5)CC4)nc3C)ccc2CC1C(=O)NC1CCCc2ccccc21)C(C)(C)C

> <Shape>
0.263

> <Color>
0.111

> <Negative vol penalty>
0.000

$$$$

  -OEChem-04052322323D

 94104  0     1  0  0  0  0  0999 V2000
  -17.9257  -29.1262   25.8700 C   0  0  0  0  0  0  0  0  0  0  0  0
  -19.2887  -29.0257   26.1297 C   0  0  0  0  0  0  0  0  0  0  0  0
  -23.4184  -10.4287   22.1174 C   0  0  0  0  0  0  0  0  0  0  0  0
  -24.6497   -8.7418   20.9028 C   0  0  0  0  0  0  0  0  0  0  0  0
  -17.4344  -28.8193   24.6018 C   0  0  0  0  0  0  0  0  0  0  0  0
  -20.1612  -28.6173   25.1216 C   0  0  0  0  0  0  0  0  0  0  0  0
  -26.8562  -29.6302   22.7834 C   0  0  0  0  0  0  0  0  0  0  0  0
  -22.3400   -9.5527   22.2409 C   0  0  0  0  0  0  0  0  0  0  0  0
  -23.5714   -7.8657   21.0264 C   0  0  0  0  0  0  0  0  0  0  0  0
  -27.9950  -28.9072   22.4311 C   0  0  0  0  0  0  0  0  0  0  0  0
  -21.2804   -5.0596   21.3350 C   0  0  0  0  0  0  0  0  0  0  0  0
  -21.5531   -3.7421   21.7032 C   0  0  0  0  0  0  0  0  0  0  0  0
  -28.6562  -22.0027   19.7761 C   0  0  0  0  0  0  0  0  0  0  0  0
  -27.0431  -28.4791   20.2563 C   0  0  0  0  0  0  0  0  0  0  0  0
  -22.5380   -4.5226   23.7666 C   0  0  0  0  0  0  0  0  0  0  0  0
  -24.5732  -10.0233   21.4483 C   0  0  0  0  0  0  0  0  0  0  0  0
  -26.7685  -11.0767   22.2091 C   0  0  0  0  0  0  0  0  0  0  0  0
  -18.3025  -28.4161   23.5749 C   0  0  0  0  0  0  0  0  0  0  0  0
  -25.7959  -29.7742   21.8771 C   0  0  0  0  0  0  0  0  0  0  0  0
  -19.6809  -28.3034   23.8388 C   0  0  0  0  0  0  0  0  0  0  0  0
  -29.0474  -21.6678   18.4799 C   0  0  0  0  0  0  0  0  0  0  0  0
  -25.8931  -29.2066   20.5986 C   0  0  0  0  0  0  0  0  0  0  0  0
  -29.0016  -23.2442   20.3101 C   0  0  0  0  0  0  0  0  0  0  0  0
  -29.7842  -22.5742   17.7175 C   0  0  0  0  0  0  0  0  0  0  0  0
  -29.7384  -24.1507   19.5478 C   0  0  0  0  0  0  0  0  0  0  0  0
  -30.1297  -23.8157   18.2515 C   0  0  0  0  0  0  0  0  0  0  0  0
  -22.4165   -8.2712   21.6954 C   0  0  0  0  0  0  0  0  0  0  0  0
  -28.0874  -28.3290   21.1685 C   0  0  0  0  0  0  0  0  0  0  0  0
  -21.6366   -6.1086   22.1826 C   0  0  0  0  0  0  0  0  0  0  0  0
  -22.1819   -3.4737   22.9190 C   0  0  0  0  0  0  0  0  0  0  0  0
  -22.2654   -5.8401   23.3984 C   0  0  0  0  0  0  0  0  0  0  0  0
  -25.6873  -10.9280   21.3199 C   0  0  0  0  0  0  0  0  0  0  0  0
  -27.5485  -12.0540   21.6408 C   0  0  0  0  0  0  0  0  0  0  0  0
  -27.0432  -10.3926   23.4388 C   0  0  0  0  0  0  0  0  0  0  0  0
  -22.7348  -28.9181   21.8517 C   0  0  0  0  0  0  0  0  0  0  0  0
  -22.6783  -30.6431   19.1051 C   0  0  0  0  0  0  0  0  0  0  0  0
  -24.4024  -31.9280   16.4550 C   0  0  0  0  0  0  0  0  0  0  0  0
  -28.1400  -16.8916   19.2785 C   0  0  0  0  0  0  0  0  0  0  0  0
  -17.7191  -28.0493   22.2333 C   0  0  0  0  0  0  0  0  0  0  0  0
  -24.5857  -30.5798   22.2629 C   0  0  0  0  0  0  0  0  0  0  0  0
  -24.7911  -29.3491   19.5818 C   0  0  0  0  0  0  0  0  0  0  0  0
  -18.7563  -27.9848   21.1152 C   0  0  0  0  0  0  0  0  0  0  0  0
  -27.3850  -14.1727   17.0670 C   0  0  0  0  0  0  0  0  0  0  0  0
  -19.9846  -27.2035   21.5708 C   0  0  0  0  0  0  0  0  0  0  0  0
  -26.9307  -13.1009   18.0546 C   0  0  0  0  0  0  0  0  0  0  0  0
  -27.1466  -20.0785   17.8588 C   0  0  0  0  0  0  0  0  0  0  0  0
  -26.9255  -15.5731   17.4780 C   0  0  0  0  0  0  0  0  0  0  0  0
  -27.0609  -18.5678   17.6961 C   0  0  0  0  0  0  0  0  0  0  0  0
  -26.8427  -14.8643   19.8513 C   0  0  0  0  0  0  0  0  0  0  0  0
  -30.2629  -25.7184   16.6160 C   0  0  0  0  0  0  0  0  0  0  0  0
  -32.3206  -24.7772   17.4868 C   0  0  0  0  0  0  0  0  0  0  0  0
  -28.6601  -20.3172   17.9261 C   0  0  2  0  0  0  0  0  0  0  0  0
  -20.6621  -27.8876   22.7643 C   0  0  1  0  0  0  0  0  0  0  0  0
  -23.3477  -30.2279   21.4437 C   0  0  1  0  0  0  0  0  0  0  0  0
  -27.3567  -13.4642   19.4864 C   0  0  1  0  0  0  0  0  0  0  0  0
  -31.4534  -26.2189   15.7864 C   0  0  2  0  0  0  0  0  0  0  0  0
  -32.6017  -26.1027   16.7816 C   0  0  2  0  0  0  0  0  0  0  0  0
  -29.1616  -19.1107   18.7503 C   0  0  2  0  0  0  0  0  0  0  0  0
  -28.5701  -23.5777   21.7007 C   0  0  0  0  0  0  0  0  0  0  0  0
  -30.2009  -22.2087   16.3272 C   0  0  0  0  0  0  0  0  0  0  0  0
  -30.5707  -18.6896   18.3410 C   0  0  0  0  0  0  0  0  0  0  0  0
  -31.4626  -25.9827   19.5982 C   0  0  0  0  0  0  0  0  0  0  0  0
  -24.0782  -33.2608   14.3535 C   0  0  0  0  0  0  0  0  0  0  0  0
  -21.4862  -28.1905   17.7364 C   0  0  0  0  0  0  0  0  0  0  0  0
  -22.0669  -29.2249   15.5317 C   0  0  0  0  0  0  0  0  0  0  0  0
  -20.4578  -30.3669   17.0579 C   0  0  0  0  0  0  0  0  0  0  0  0
  -26.1997  -34.0793   17.4040 C   0  0  0  0  0  0  0  0  0  0  0  0
  -29.0238  -26.5565   19.8889 C   0  0  0  0  0  0  0  0  0  1  0  0
  -30.1058  -25.4812   20.1266 C   0  0  1  0  0  0  0  0  0  0  0  0
  -22.9165  -30.3380   17.6460 C   0  0  1  0  0  0  0  0  0  0  0  0
  -24.4121  -33.3142   15.8362 C   0  0  2  0  0  0  0  0  0  0  0  0
  -21.7520  -29.5256   17.0126 C   0  0  0  0  0  0  0  0  0  0  0  0
  -25.7695  -11.7455   20.2668 N   0  0  0  0  0  0  0  0  0  0  0  0
  -26.9117  -12.4174   20.4907 N   0  0  0  0  0  0  0  0  0  0  0  0
  -30.8577  -24.7115   17.4982 N   0  0  3  0  0  0  0  0  0  0  0  0
  -23.6255  -30.1408   20.0087 N   0  0  0  0  0  0  0  0  0  0  0  0
  -27.2792  -15.8639   18.8725 N   0  0  0  0  0  0  0  0  0  0  0  0
  -28.1710  -18.0522   18.4999 N   0  0  0  0  0  0  0  0  0  0  0  0
  -28.7100  -12.6295   22.0177 N   0  0  0  0  0  0  0  0  0  0  0  0
  -26.1376   -9.4169   23.8773 N   0  0  0  0  0  0  0  0  0  0  0  0
  -31.2532  -27.5710   15.2935 N   0  0  0  0  0  0  0  0  0  0  0  0
  -21.4394  -29.0249   22.3206 N   0  0  0  0  0  0  0  0  0  0  0  0
  -23.1729  -31.6195   16.9976 N   0  0  0  0  0  0  0  0  0  0  0  0
  -33.9108  -26.0731   16.1027 N   0  3  0  0  0  0  0  0  0  0  0  0
  -25.7544  -33.9422   15.9934 N   0  3  0  0  0  0  0  0  0  0  0  0
  -28.0531  -10.6507   24.1366 O   0  0  0  0  0  0  0  0  0  0  0  0
  -23.3882  -27.8867   21.7472 O   0  0  0  0  0  0  0  0  0  0  0  0
  -21.6922  -31.3089   19.4306 O   0  0  0  0  0  0  0  0  0  0  0  0
  -25.3859  -31.1911   16.4535 O   0  0  0  0  0  0  0  0  0  0  0  0
  -28.8261  -16.7899   20.3038 O   0  0  0  0  0  0  0  0  0  0  0  0
  -21.3645   -7.4160   21.8160 O   0  0  0  0  0  0  0  0  0  0  0  0
  -29.2049  -27.6176   20.8200 O   0  0  0  0  0  0  0  0  0  1  0  0
  -22.4423   -2.2084   23.2731 F   0  0  0  0  0  0  0  0  0  0  0  0
  -22.6089   -6.8437   24.2174 F   0  0  0  0  0  0  0  0  0  0  0  0
  1  2  1  0  0  0  0
  1  5  2  0  0  0  0
  2  6  2  0  0  0  0
  3  8  2  0  0  0  0
  3 16  1  0  0  0  0
  4  9  1  0  0  0  0
  4 16  2  0  0  0  0
  5 18  1  0  0  0  0
  6 20  1  0  0  0  0
  7 10  2  0  0  0  0
  7 19  1  0  0  0  0
  8 27  1  0  0  0  0
  9 27  2  0  0  0  0
 10 28  1  0  0  0  0
 11 12  2  0  0  0  0
 11 29  1  0  0  0  0
 12 30  1  0  0  0  0
 13 21  1  0  0  0  0
 13 23  2  0  0  0  0
 14 22  1  0  0  0  0
 14 28  2  0  0  0  0
 15 30  2  0  0  0  0
 15 31  1  0  0  0  0
 16 32  1  0  0  0  0
 17 32  1  0  0  0  0
 17 33  2  0  0  0  0
 17 34  1  0  0  0  0
 18 20  2  0  0  0  0
 18 39  1  0  0  0  0
 19 22  2  0  0  0  0
 19 40  1  0  0  0  0
 20 53  1  0  0  0  0
 21 24  2  0  0  0  0
 21 52  1  0  0  0  0
 22 41  1  0  0  0  0
 23 25  1  0  0  0  0
 23 59  1  0  0  0  0
 24 26  1  0  0  0  0
 24 60  1  0  0  0  0
 25 26  2  0  0  0  0
 25 69  1  0  0  0  0
 26 75  1  0  0  0  0
 27 91  1  0  0  0  0
 28 92  1  0  0  0  0
 29 31  2  0  0  0  0
 29 91  1  0  0  0  0
 30 93  1  0  0  0  0
 31 94  1  0  0  0  0
 32 73  2  0  0  0  0
 33 74  1  0  0  0  0
 33 79  1  0  0  0  0
 34 80  1  0  0  0  0
 34 86  2  0  0  0  0
 35 54  1  0  0  0  0
 35 82  1  0  0  0  0
 35 87  2  0  0  0  0
 36 70  1  0  0  0  0
 36 76  1  0  0  0  0
 36 88  2  0  0  0  0
 37 71  1  0  0  0  0
 37 83  1  0  0  0  0
 37 89  2  0  0  0  0
 38 77  1  0  0  0  0
 38 78  1  0  0  0  0
 38 90  2  0  0  0  0
 39 42  1  0  0  0  0
 40 54  1  0  0  0  0
 41 76  1  0  0  0  0
 42 44  1  0  0  0  0
 43 45  1  0  0  0  0
 43 47  1  0  0  0  0
 44 53  1  0  0  0  0
 45 55  1  0  0  0  0
 46 48  1  0  0  0  0
 46 52  1  0  0  0  0
 47 77  1  0  0  0  0
 48 78  1  0  0  0  0
 49 55  1  0  0  0  0
 49 77  1  0  0  0  0
 50 56  1  0  0  0  0
 50 75  1  0  0  0  0
 51 57  1  0  0  0  0
 51 75  1  0  0  0  0
 52 58  1  0  0  0  0
 53 82  1  0  0  0  0
 54 76  1  0  0  0  0
 55 74  1  0  0  0  0
 56 57  1  0  0  0  0
 56 81  1  0  0  0  0
 57 84  1  0  0  0  0
 58 61  1  0  0  0  0
 58 78  1  0  0  0  0
 62 69  1  0  0  0  0
 63 71  1  0  0  0  0
 64 72  1  0  0  0  0
 65 72  1  0  0  0  0
 66 72  1  0  0  0  0
 67 85  1  0  0  0  0
 68 69  1  0  0  0  0
 68 92  1  0  0  0  0
 70 72  1  0  0  0  0
 70 83  1  0  0  0  0
 71 85  1  0  0  0  0
 73 74  1  0  0  0  0
M  CHG  2  84   1  85   1
M  ISO  4  38 100  68 101  78 100  92 101
M  END
> <Batch ID>
0169

> <Smiles>
CNC(C)C(=O)NC(C(=O)N1Cc2cc([101O:1][101CH2:1]C(C)c3c(C)cc(C4CC[100N:0]([100C:0](=O)N5CCCC(n6nc(-c7ccc(Oc8ccc(F)cc8F)cc7)c(C(N)=O)c6N)C5)C4C)c(C)c3N3CC(N)C(N)C3)ccc2CC1C(=O)NC1CCCc2ccccc21)C(C)(C)C

> <Shape>
0.322

> <Color>
0.102

> <Negative vol penalty>
0.000

$$$$

  -OEChem-04052322323D

 87 96  0     1  0  0  0  0  0999 V2000
  -33.9661  -34.8186   30.0592 C   0  0  0  0  0  0  0  0  0  0  0  0
  -34.2478  -33.6413   29.3735 C   0  0  0  0  0  0  0  0  0  0  0  0
  -23.0204   -9.8992   19.9742 C   0  0  0  0  0  0  0  0  0  0  0  0
  -23.6688   -9.9779   22.3002 C   0  0  0  0  0  0  0  0  0  0  0  0
  -32.6577  -35.1002   30.4502 C   0  0  0  0  0  0  0  0  0  0  0  0
  -33.2214  -32.7444   29.0794 C   0  0  0  0  0  0  0  0  0  0  0  0
  -31.1985  -28.0148   24.0939 C   0  0  0  0  0  0  0  0  0  0  0  0
  -22.2386   -8.7728   20.2302 C   0  0  0  0  0  0  0  0  0  0  0  0
  -22.8870   -8.8515   22.5563 C   0  0  0  0  0  0  0  0  0  0  0  0
  -30.7925  -26.6867   23.9710 C   0  0  0  0  0  0  0  0  0  0  0  0
  -23.1266   -5.5051   22.1382 C   0  0  0  0  0  0  0  0  0  0  0  0
  -23.6826   -4.4951   22.9233 C   0  0  0  0  0  0  0  0  0  0  0  0
  -28.5577  -27.3157   24.6263 C   0  0  0  0  0  0  0  0  0  0  0  0
  -21.9055   -4.7707   24.5366 C   0  0  0  0  0  0  0  0  0  0  0  0
  -23.7356  -10.5018   21.0092 C   0  0  0  0  0  0  0  0  0  0  0  0
  -24.1418  -13.0125   20.8119 C   0  0  0  0  0  0  0  0  0  0  0  0
  -31.6132  -34.2109   30.1522 C   0  0  0  0  0  0  0  0  0  0  0  0
  -30.2883  -29.0032   24.4952 C   0  0  0  0  0  0  0  0  0  0  0  0
  -31.8981  -33.0138   29.4679 C   0  0  0  0  0  0  0  0  0  0  0  0
  -28.9541  -28.6560   24.7511 C   0  0  0  0  0  0  0  0  0  0  0  0
  -29.1204  -21.9983   24.7348 C   0  0  0  0  0  0  0  0  0  0  0  0
  -28.5420  -20.7415   24.5965 C   0  0  0  0  0  0  0  0  0  0  0  0
  -29.4375  -22.7400   23.6022 C   0  0  0  0  0  0  0  0  0  0  0  0
  -22.1718   -8.2490   21.5212 C   0  0  0  0  0  0  0  0  0  0  0  0
  -29.4726  -26.3365   24.2400 C   0  0  0  0  0  0  0  0  0  0  0  0
  -21.9600   -6.1480   22.5524 C   0  0  0  0  0  0  0  0  0  0  0  0
  -23.0721   -4.1279   24.1224 C   0  0  0  0  0  0  0  0  0  0  0  0
  -21.3495   -5.7808   23.7515 C   0  0  0  0  0  0  0  0  0  0  0  0
  -24.5439  -11.6650   20.7452 C   0  0  0  0  0  0  0  0  0  0  0  0
  -28.3028  -20.2753   23.3138 C   0  0  0  0  0  0  0  0  0  0  0  0
  -29.1584  -22.1842   22.3641 C   0  0  0  0  0  0  0  0  0  0  0  0
  -25.2675  -13.7237   20.4749 C   0  0  0  0  0  0  0  0  0  0  0  0
  -22.8650  -13.5713   21.1485 C   0  0  0  0  0  0  0  0  0  0  0  0
  -30.0799  -30.9901   26.9675 C   0  0  0  0  0  0  0  0  0  0  0  0
  -27.5590  -32.1739   25.3045 C   0  0  0  0  0  0  0  0  0  0  0  0
  -25.1279  -31.6518   22.9669 C   0  0  0  0  0  0  0  0  0  0  0  0
  -30.6473  -14.7072   20.7212 C   0  0  0  0  0  0  0  0  0  0  0  0
  -30.2225  -34.5360   30.6368 C   0  0  0  0  0  0  0  0  0  0  0  0
  -30.7356  -30.4356   24.5972 C   0  0  0  0  0  0  0  0  0  0  0  0
  -27.9330  -29.6827   25.1654 C   0  0  0  0  0  0  0  0  0  0  0  0
  -29.1324  -33.7111   29.9575 C   0  0  0  0  0  0  0  0  0  0  0  0
  -29.6796  -12.2063   18.5388 C   0  0  0  0  0  0  0  0  0  0  0  0
  -29.5236  -32.2372   29.9200 C   0  0  0  0  0  0  0  0  0  0  0  0
  -28.2209  -11.9432   18.9123 C   0  0  0  0  0  0  0  0  0  0  0  0
  -29.7060  -18.1111   21.8410 C   0  0  0  0  0  0  0  0  0  0  0  0
  -28.0789  -16.4512   22.8139 C   0  0  0  0  0  0  0  0  0  0  0  0
  -30.5326  -12.4175   19.7845 C   0  0  0  0  0  0  0  0  0  0  0  0
  -30.7215  -16.9853   21.6664 C   0  0  0  0  0  0  0  0  0  0  0  0
  -29.1263  -15.3586   22.6263 C   0  0  0  0  0  0  0  0  0  0  0  0
  -28.5870  -13.2680   21.0522 C   0  0  0  0  0  0  0  0  0  0  0  0
  -30.8078  -32.0277   29.1086 C   0  0  1  0  0  0  0  0  0  0  0  0
  -29.8479  -31.2752   25.5106 C   0  0  1  0  0  0  0  0  0  0  0  0
  -28.7357  -17.8264   22.9948 C   0  0  0  0  0  0  0  0  0  0  0  0
  -27.6757  -13.0544   19.8269 C   0  0  2  0  0  0  0  0  0  0  0  0
  -29.4028  -22.5496   26.0960 C   0  0  0  0  0  0  0  0  0  0  0  0
  -28.1896  -19.9225   25.7928 C   0  0  0  0  0  0  0  0  0  0  0  0
  -29.4784  -22.9319   21.1111 C   0  0  0  0  0  0  0  0  0  0  0  0
  -23.1932  -32.7932   21.8482 C   0  0  0  0  0  0  0  0  0  0  0  0
  -25.8757  -31.7798   27.8188 C   0  0  0  0  0  0  0  0  0  0  0  0
  -23.8266  -32.0180   26.4000 C   0  0  0  0  0  0  0  0  0  0  0  0
  -25.4355  -33.9146   26.5927 C   0  0  0  0  0  0  0  0  0  0  0  0
  -26.3746  -31.3998   20.2946 C   0  0  0  0  0  0  0  0  0  0  0  0
  -30.0589  -24.0917   23.7173 C   0  0  0  0  0  0  0  0  0  1  0  0
  -27.6791  -18.9234   23.1004 C   0  0  0  0  0  0  0  0  0  0  0  0
  -26.0806  -31.8739   25.2467 C   0  0  1  0  0  0  0  0  0  0  0  0
  -24.6799  -32.4812   21.7770 C   0  0  2  0  0  0  0  0  0  0  0  0
  -25.3241  -32.3767   26.5086 C   0  0  0  0  0  0  0  0  0  0  0  0
  -25.8248  -11.5259   20.3934 N   0  0  0  0  0  0  0  0  0  0  0  0
  -28.5971  -20.9667   22.1900 N   0  0  0  0  0  0  0  0  0  0  0  0
  -26.2374  -12.7952   20.2359 N   0  0  0  0  0  0  0  0  0  0  0  0
  -28.4206  -31.0688   25.2572 N   0  0  0  0  0  0  0  0  0  0  0  0
  -29.9796  -13.4767   20.6283 N   0  0  0  0  0  0  0  0  0  0  0  0
  -30.0635  -15.6853   21.5433 N   0  0  0  0  0  0  0  0  0  0  0  0
  -25.5122  -15.0466   20.3627 N   0  0  0  0  0  0  0  0  0  0  0  0
  -21.8170  -12.6977   21.4694 N   0  0  0  0  0  0  0  0  0  0  0  0
  -30.5240  -32.0807   27.6905 N   0  0  0  0  0  0  0  0  0  0  0  0
  -25.5971  -32.4436   23.9937 N   0  0  0  0  0  0  0  0  0  0  0  0
  -24.9464  -31.7499   20.5061 N   0  3  0  0  0  0  0  0  0  0  0  0
  -22.6551  -14.8080   21.1482 O   0  0  0  0  0  0  0  0  0  0  0  0
  -29.8701  -29.8643   27.4037 O   0  0  0  0  0  0  0  0  0  0  0  0
  -27.9356  -33.3460   25.3814 O   0  0  0  0  0  0  0  0  0  0  0  0
  -25.0643  -30.4246   22.9853 O   0  0  0  0  0  0  0  0  0  0  0  0
  -31.6984  -14.9232   20.1050 O   0  0  0  0  0  0  0  0  0  0  0  0
  -21.4088   -7.1500   21.7715 O   0  0  0  0  0  0  0  0  0  0  0  0
  -29.0710  -25.0318   24.1206 O   0  0  0  0  0  0  0  0  0  1  0  0
  -23.6052   -3.1569   24.8755 F   0  0  0  0  0  0  0  0  0  0  0  0
  -20.2280   -6.3940   24.1540 F   0  0  0  0  0  0  0  0  0  0  0  0
  1  2  1  0  0  0  0
  1  5  2  0  0  0  0
  2  6  2  0  0  0  0
  3  8  2  0  0  0  0
  3 15  1  0  0  0  0
  4  9  1  0  0  0  0
  4 15  2  0  0  0  0
  5 17  1  0  0  0  0
  6 19  1  0  0  0  0
  7 10  2  0  0  0  0
  7 18  1  0  0  0  0
  8 24  1  0  0  0  0
  9 24  2  0  0  0  0
 10 25  1  0  0  0  0
 11 12  2  0  0  0  0
 11 26  1  0  0  0  0
 12 27  1  0  0  0  0
 13 20  1  0  0  0  0
 13 25  2  0  0  0  0
 14 27  2  0  0  0  0
 14 28  1  0  0  0  0
 15 29  1  0  0  0  0
 16 29  1  0  0  0  0
 16 32  2  0  0  0  0
 16 33  1  0  0  0  0
 17 19  2  0  0  0  0
 17 38  1  0  0  0  0
 18 20  2  0  0  0  0
 18 39  1  0  0  0  0
 19 51  1  0  0  0  0
 20 40  1  0  0  0  0
 21 22  1  0  0  0  0
 21 23  2  0  0  0  0
 21 55  1  0  0  0  0
 22 30  2  0  0  0  0
 22 56  1  0  0  0  0
 23 31  1  0  0  0  0
 23 63  1  0  0  0  0
 24 84  1  0  0  0  0
 25 85  1  0  0  0  0
 26 28  2  0  0  0  0
 26 84  1  0  0  0  0
 27 86  1  0  0  0  0
 28 87  1  0  0  0  0
 29 68  2  0  0  0  0
 30 64  1  0  0  0  0
 30 69  1  0  0  0  0
 31 57  1  0  0  0  0
 31 69  2  0  0  0  0
 32 70  1  0  0  0  0
 32 74  1  0  0  0  0
 33 75  1  0  0  0  0
 33 79  2  0  0  0  0
 34 52  1  0  0  0  0
 34 76  1  0  0  0  0
 34 80  2  0  0  0  0
 35 65  1  0  0  0  0
 35 71  1  0  0  0  0
 35 81  2  0  0  0  0
 36 66  1  0  0  0  0
 36 77  1  0  0  0  0
 36 82  2  0  0  0  0
 37 72  1  0  0  0  0
 37 73  1  0  0  0  0
 37 83  2  0  0  0  0
 38 41  1  0  0  0  0
 39 52  1  0  0  0  0
 40 71  1  0  0  0  0
 41 43  1  0  0  0  0
 42 44  1  0  0  0  0
 42 47  1  0  0  0  0
 43 51  1  0  0  0  0
 44 54  1  0  0  0  0
 45 48  1  0  0  0  0
 45 53  1  0  0  0  0
 46 49  1  0  0  0  0
 46 53  1  0  0  0  0
 47 72  1  0  0  0  0
 48 73  1  0  0  0  0
 49 73  1  0  0  0  0
 50 54  1  0  0  0  0
 50 72  1  0  0  0  0
 51 76  1  0  0  0  0
 52 71  1  0  0  0  0
 53 64  1  0  0  0  0
 54 70  1  0  0  0  0
 58 66  1  0  0  0  0
 59 67  1  0  0  0  0
 60 67  1  0  0  0  0
 61 67  1  0  0  0  0
 62 78  1  0  0  0  0
 63 85  1  0  0  0  0
 65 67  1  0  0  0  0
 65 77  1  0  0  0  0
 66 78  1  0  0  0  0
 68 70  1  0  0  0  0
M  CHG  1  78   1
M  ISO  4  37 100  63 101  73 100  85 101
M  END
> <Batch ID>
0169

> <Smiles>
CNC(C)C(=O)NC(C(=O)N1Cc2cc([101O:1][101CH2:1]c3c(C)nc(CC4CC[100N:0]([100C:0](=O)N5CCCC(n6nc(-c7ccc(Oc8ccc(F)cc8F)cc7)c(C(N)=O)c6N)C5)CC4)c(C)c3C)ccc2CC1C(=O)NC1CCCc2ccccc21)C(C)(C)C

> <Shape>
0.277

> <Color>
0.206

> <Negative vol penalty>
0.000

$$$$

  -OEChem-04052322323D

 86 96  0     1  0  0  0  0  0999 V2000
  -33.1762  -33.4501   19.5501 C   0  0  0  0  0  0  0  0  0  0  0  0
  -33.3684  -32.0798   19.4064 C   0  0  0  0  0  0  0  0  0  0  0  0
  -23.1834   -9.8212   19.9282 C   0  0  0  0  0  0  0  0  0  0  0  0
  -23.8426   -9.9071   22.2509 C   0  0  0  0  0  0  0  0  0  0  0  0
  -32.0762  -33.9278   20.2612 C   0  0  0  0  0  0  0  0  0  0  0  0
  -32.4612  -31.1862   19.9747 C   0  0  0  0  0  0  0  0  0  0  0  0
  -30.7245  -25.7661   17.7137 C   0  0  0  0  0  0  0  0  0  0  0  0
  -22.4685   -8.6491   20.1744 C   0  0  0  0  0  0  0  0  0  0  0  0
  -23.1277   -8.7350   22.4972 C   0  0  0  0  0  0  0  0  0  0  0  0
  -31.1282  -24.4609   17.9918 C   0  0  0  0  0  0  0  0  0  0  0  0
  -19.9051   -7.8401   22.9813 C   0  0  0  0  0  0  0  0  0  0  0  0
  -19.0999   -7.8009   24.1196 C   0  0  0  0  0  0  0  0  0  0  0  0
  -31.2002  -18.0918   19.4568 C   0  0  0  0  0  0  0  0  0  0  0  0
  -29.2714  -24.2170   19.5123 C   0  0  0  0  0  0  0  0  0  0  0  0
  -20.3726   -5.9249   24.9552 C   0  0  0  0  0  0  0  0  0  0  0  0
  -23.8705  -10.4502   20.9664 C   0  0  0  0  0  0  0  0  0  0  0  0
  -24.1323  -12.9823   20.7994 C   0  0  0  0  0  0  0  0  0  0  0  0
  -31.1497  -33.0398   20.8303 C   0  0  0  0  0  0  0  0  0  0  0  0
  -29.5956  -26.3111   18.3422 C   0  0  0  0  0  0  0  0  0  0  0  0
  -31.3484  -31.6525   20.6952 C   0  0  0  0  0  0  0  0  0  0  0  0
  -31.9126  -17.8610   20.6284 C   0  0  0  0  0  0  0  0  0  0  0  0
  -28.8540  -25.5284   19.2385 C   0  0  0  0  0  0  0  0  0  0  0  0
  -30.5789  -19.3198   19.2581 C   0  0  0  0  0  0  0  0  0  0  0  0
  -22.4406   -8.1060   21.4589 C   0  0  0  0  0  0  0  0  0  0  0  0
  -30.4033  -23.6871   18.8934 C   0  0  0  0  0  0  0  0  0  0  0  0
  -20.9440   -6.9216   22.8299 C   0  0  0  0  0  0  0  0  0  0  0  0
  -19.3337   -6.8434   25.1066 C   0  0  0  0  0  0  0  0  0  0  0  0
  -21.1777   -5.9641   23.8169 C   0  0  0  0  0  0  0  0  0  0  0  0
  -24.6096  -11.6607   20.7126 C   0  0  0  0  0  0  0  0  0  0  0  0
  -30.6990  -20.2760   20.2536 C   0  0  0  0  0  0  0  0  0  0  0  0
  -31.9732  -18.8826   21.5624 C   0  0  0  0  0  0  0  0  0  0  0  0
  -25.2133  -13.7605   20.4646 C   0  0  0  0  0  0  0  0  0  0  0  0
  -22.8282  -13.4633   21.1512 C   0  0  0  0  0  0  0  0  0  0  0  0
  -29.0829  -28.7600   20.3027 C   0  0  0  0  0  0  0  0  0  0  0  0
  -25.9705  -27.9650   19.8524 C   0  0  0  0  0  0  0  0  0  0  0  0
  -23.6820  -25.5728   19.0235 C   0  0  0  0  0  0  0  0  0  0  0  0
  -30.5367  -14.9622   21.0268 C   0  0  0  0  0  0  0  0  0  0  0  0
  -30.0018  -33.6026   21.6303 C   0  0  0  0  0  0  0  0  0  0  0  0
  -29.1578  -27.7115   18.0112 C   0  0  0  0  0  0  0  0  0  0  0  0
  -27.6228  -26.0598   19.9244 C   0  0  0  0  0  0  0  0  0  0  0  0
  -28.8833  -32.5948   21.8826 C   0  0  0  0  0  0  0  0  0  0  0  0
  -29.6982  -12.4952   18.4927 C   0  0  0  0  0  0  0  0  0  0  0  0
  -29.4608  -31.2617   22.3474 C   0  0  0  0  0  0  0  0  0  0  0  0
  -28.2473  -12.1706   18.8550 C   0  0  0  0  0  0  0  0  0  0  0  0
  -31.3105  -18.7045   24.9053 C   0  0  0  0  0  0  0  0  0  0  0  0
  -32.7540  -18.6586   25.3112 C   0  0  0  0  0  0  0  0  0  0  0  0
  -33.5385  -15.9299   19.7359 C   0  0  0  0  0  0  0  0  0  0  0  0
  -30.5297  -12.7380   19.7468 C   0  0  0  0  0  0  0  0  0  0  0  0
  -32.8759  -14.5626   19.8945 C   0  0  0  0  0  0  0  0  0  0  0  0
  -28.5626  -13.4811   21.0107 C   0  0  0  0  0  0  0  0  0  0  0  0
  -32.6219  -16.4605   20.8557 C   0  0  2  0  0  0  0  0  0  0  0  0
  -30.3728  -30.6520   21.2760 C   0  0  1  0  0  0  0  0  0  0  0  0
  -28.2900  -28.3388   19.0979 C   0  0  1  0  0  0  0  0  0  0  0  0
  -27.6509  -13.2373   19.7929 C   0  0  2  0  0  0  0  0  0  0  0  0
  -32.3640  -19.2723   23.9957 C   0  0  0  0  0  0  0  0  0  0  0  0
  -29.8145  -19.5735   18.0050 C   0  0  0  0  0  0  0  0  0  0  0  0
  -21.2106  -25.2108   18.7809 C   0  0  0  0  0  0  0  0  0  0  0  0
  -25.6935  -27.8383   22.8884 C   0  0  0  0  0  0  0  0  0  0  0  0
  -23.5526  -26.5797   22.5708 C   0  0  0  0  0  0  0  0  0  0  0  0
  -23.7666  -28.9108   21.7089 C   0  0  0  0  0  0  0  0  0  0  0  0
  -23.9423  -24.9205   16.1485 C   0  0  0  0  0  0  0  0  0  0  0  0
  -30.0519  -21.6130   20.0948 C   0  0  0  0  0  0  0  0  0  1  0  0
  -24.9942  -27.0379   20.5354 C   0  0  1  0  0  0  0  0  0  0  0  0
  -22.4994  -25.5968   18.0719 C   0  0  2  0  0  0  0  0  0  0  0  0
  -24.5260  -27.5820   21.9146 C   0  0  0  0  0  0  0  0  0  0  0  0
  -25.8939  -11.5991   20.3509 N   0  0  0  0  0  0  0  0  0  0  0  0
  -31.3826  -20.0884   21.4047 N   0  0  0  0  0  0  0  0  0  0  0  0
  -26.2327  -12.8917   20.2074 N   0  0  0  0  0  0  0  0  0  0  0  0
  -27.2387  -27.4368   19.5726 N   0  0  0  0  0  0  0  0  0  0  0  0
  -29.9277  -13.7915   20.5685 N   0  0  0  0  0  0  0  0  0  0  0  0
  -31.8380  -15.2243   20.6636 N   0  0  0  0  0  0  0  0  0  0  0  0
  -25.3819  -15.0964   20.3681 N   0  0  0  0  0  0  0  0  0  0  0  0
  -21.8337  -12.5277   21.4673 N   0  0  0  0  0  0  0  0  0  0  0  0
  -32.6992  -18.6495   22.7568 N   0  0  0  0  0  0  0  0  0  0  0  0
  -29.5833  -30.0458   20.2255 N   0  0  0  0  0  0  0  0  0  0  0  0
  -23.9120  -26.8116   19.5836 N   0  0  0  0  0  0  0  0  0  0  0  0
  -22.7204  -24.6445   16.9470 N   0  3  0  0  0  0  0  0  0  0  0  0
  -22.5485  -14.6860   21.1684 O   0  0  0  0  0  0  0  0  0  0  0  0
  -29.2286  -27.9770   21.2340 O   0  0  0  0  0  0  0  0  0  0  0  0
  -25.6182  -29.1132   19.5708 O   0  0  0  0  0  0  0  0  0  0  0  0
  -24.3339  -24.5559   19.2503 O   0  0  0  0  0  0  0  0  0  0  0  0
  -29.9126  -15.7784   21.7195 O   0  0  0  0  0  0  0  0  0  0  0  0
  -21.7430   -6.9623   21.6996 O   0  0  0  0  0  0  0  0  0  0  0  0
  -30.8023  -22.3913   19.1718 O   0  0  0  0  0  0  0  0  0  1  0  0
  -18.5614   -6.8068   26.2004 F   0  0  0  0  0  0  0  0  0  0  0  0
  -22.1751   -5.0799   23.6776 F   0  0  0  0  0  0  0  0  0  0  0  0
  1  2  1  0  0  0  0
  1  5  2  0  0  0  0
  2  6  2  0  0  0  0
  3  8  2  0  0  0  0
  3 16  1  0  0  0  0
  4  9  1  0  0  0  0
  4 16  2  0  0  0  0
  5 18  1  0  0  0  0
  6 20  1  0  0  0  0
  7 10  2  0  0  0  0
  7 19  1  0  0  0  0
  8 24  1  0  0  0  0
  9 24  2  0  0  0  0
 10 25  1  0  0  0  0
 11 12  2  0  0  0  0
 11 26  1  0  0  0  0
 12 27  1  0  0  0  0
 13 21  2  0  0  0  0
 13 23  1  0  0  0  0
 14 22  1  0  0  0  0
 14 25  2  0  0  0  0
 15 27  2  0  0  0  0
 15 28  1  0  0  0  0
 16 29  1  0  0  0  0
 17 29  1  0  0  0  0
 17 32  2  0  0  0  0
 17 33  1  0  0  0  0
 18 20  2  0  0  0  0
 18 38  1  0  0  0  0
 19 22  2  0  0  0  0
 19 39  1  0  0  0  0
 20 52  1  0  0  0  0
 21 31  1  0  0  0  0
 21 51  1  0  0  0  0
 22 40  1  0  0  0  0
 23 30  2  0  0  0  0
 23 56  1  0  0  0  0
 24 83  1  0  0  0  0
 25 84  1  0  0  0  0
 26 28  2  0  0  0  0
 26 83  1  0  0  0  0
 27 85  1  0  0  0  0
 28 86  1  0  0  0  0
 29 66  2  0  0  0  0
 30 62  1  0  0  0  0
 30 67  1  0  0  0  0
 31 67  2  0  0  0  0
 31 74  1  0  0  0  0
 32 68  1  0  0  0  0
 32 72  1  0  0  0  0
 33 73  1  0  0  0  0
 33 78  2  0  0  0  0
 34 53  1  0  0  0  0
 34 75  1  0  0  0  0
 34 79  2  0  0  0  0
 35 63  1  0  0  0  0
 35 69  1  0  0  0  0
 35 80  2  0  0  0  0
 36 64  1  0  0  0  0
 36 76  1  0  0  0  0
 36 81  2  0  0  0  0
 37 70  1  0  0  0  0
 37 71  1  0  0  0  0
 37 82  2  0  0  0  0
 38 41  1  0  0  0  0
 39 53  1  0  0  0  0
 40 69  1  0  0  0  0
 41 43  1  0  0  0  0
 42 44  1  0  0  0  0
 42 48  1  0  0  0  0
 43 52  1  0  0  0  0
 44 54  1  0  0  0  0
 45 46  1  0  0  0  0
 45 55  1  0  0  0  0
 46 55  1  0  0  0  0
 47 49  1  0  0  0  0
 47 51  1  0  0  0  0
 48 70  1  0  0  0  0
 49 71  1  0  0  0  0
 50 54  1  0  0  0  0
 50 70  1  0  0  0  0
 51 71  1  0  0  0  0
 52 75  1  0  0  0  0
 53 69  1  0  0  0  0
 54 68  1  0  0  0  0
 55 74  1  0  0  0  0
 57 64  1  0  0  0  0
 58 65  1  0  0  0  0
 59 65  1  0  0  0  0
 60 65  1  0  0  0  0
 61 77  1  0  0  0  0
 62 84  1  0  0  0  0
 63 65  1  0  0  0  0
 63 76  1  0  0  0  0
 64 77  1  0  0  0  0
 66 68  1  0  0  0  0
M  CHG  1  77   1
M  ISO  4  37 100  62 101  71 100  84 101
M  END
> <Batch ID>
0169

> <Smiles>
CNC(C)C(=O)NC(C(=O)N1Cc2cc([101O:1][101CH2:1]c3nc(NC4CC4)c(C4CC[100N:0]4[100C:0](=O)N4CCCC(n5nc(-c6ccc(Oc7ccc(F)cc7F)cc6)c(C(N)=O)c5N)C4)cc3C)ccc2CC1C(=O)NC1CCCc2ccccc21)C(C)(C)C

> <Shape>
0.275

> <Color>
0.172

> <Negative vol penalty>
0.000

$$$$

  -OEChem-04052322323D

 88 97  0     1  0  0  0  0  0999 V2000
  -35.5840  -35.3857   21.7136 C   0  0  0  0  0  0  0  0  0  0  0  0
  -35.7283  -34.1338   22.3029 C   0  0  0  0  0  0  0  0  0  0  0  0
  -23.1084   -9.8634   19.9183 C   0  0  0  0  0  0  0  0  0  0  0  0
  -23.7904   -9.8790   22.2360 C   0  0  0  0  0  0  0  0  0  0  0  0
  -34.7825  -35.5342   20.5824 C   0  0  0  0  0  0  0  0  0  0  0  0
  -35.0703  -33.0298   21.7619 C   0  0  0  0  0  0  0  0  0  0  0  0
  -35.8403  -25.9664   20.8498 C   0  0  0  0  0  0  0  0  0  0  0  0
  -22.3448   -8.7195   20.1507 C   0  0  0  0  0  0  0  0  0  0  0  0
  -23.0267   -8.7352   22.4684 C   0  0  0  0  0  0  0  0  0  0  0  0
  -35.1608  -24.7705   21.0777 C   0  0  0  0  0  0  0  0  0  0  0  0
  -20.9698   -6.0276   23.7555 C   0  0  0  0  0  0  0  0  0  0  0  0
  -20.1740   -5.9999   24.9006 C   0  0  0  0  0  0  0  0  0  0  0  0
  -33.8659  -25.1317   19.0747 C   0  0  0  0  0  0  0  0  0  0  0  0
  -18.9747   -7.9442   24.1143 C   0  0  0  0  0  0  0  0  0  0  0  0
  -23.8313  -10.4431   20.9610 C   0  0  0  0  0  0  0  0  0  0  0  0
  -24.2028  -12.9638   20.8356 C   0  0  0  0  0  0  0  0  0  0  0  0
  -34.1221  -34.4297   20.0216 C   0  0  0  0  0  0  0  0  0  0  0  0
  -35.5297  -26.7606   19.7367 C   0  0  0  0  0  0  0  0  0  0  0  0
  -34.2582  -33.1639   20.6230 C   0  0  0  0  0  0  0  0  0  0  0  0
  -34.5447  -26.3359   18.8336 C   0  0  0  0  0  0  0  0  0  0  0  0
  -32.2640  -19.1118   20.5535 C   0  0  0  0  0  0  0  0  0  0  0  0
  -33.0624  -20.2489   20.5008 C   0  0  0  0  0  0  0  0  0  0  0  0
  -31.4264  -18.9071   21.6443 C   0  0  0  0  0  0  0  0  0  0  0  0
  -22.3039   -8.1554   21.4258 C   0  0  0  0  0  0  0  0  0  0  0  0
  -34.1714  -24.3544   20.1917 C   0  0  0  0  0  0  0  0  0  0  0  0
  -20.7682   -7.0137   22.7897 C   0  0  0  0  0  0  0  0  0  0  0  0
  -19.1764   -6.9581   25.0800 C   0  0  0  0  0  0  0  0  0  0  0  0
  -19.7706   -7.9720   22.9691 C   0  0  0  0  0  0  0  0  0  0  0  0
  -24.6208  -11.6244   20.7214 C   0  0  0  0  0  0  0  0  0  0  0  0
  -32.9870  -21.1438   21.5560 C   0  0  0  0  0  0  0  0  0  0  0  0
  -31.4244  -19.8619   22.6484 C   0  0  0  0  0  0  0  0  0  0  0  0
  -25.3142  -13.6998   20.5045 C   0  0  0  0  0  0  0  0  0  0  0  0
  -22.9242  -13.4953   21.2077 C   0  0  0  0  0  0  0  0  0  0  0  0
  -34.4116  -29.7076   19.3256 C   0  0  0  0  0  0  0  0  0  0  0  0
  -34.9885  -29.0714   16.1975 C   0  0  0  0  0  0  0  0  0  0  0  0
  -35.3791  -26.7356   13.7402 C   0  0  0  0  0  0  0  0  0  0  0  0
  -30.7819  -14.6460   20.8584 C   0  0  0  0  0  0  0  0  0  0  0  0
  -33.2288  -34.6482   18.8262 C   0  0  0  0  0  0  0  0  0  0  0  0
  -36.2904  -28.0346   19.4905 C   0  0  0  0  0  0  0  0  0  0  0  0
  -34.1877  -27.1421   17.6125 C   0  0  0  0  0  0  0  0  0  0  0  0
  -32.8652  -33.3591   18.0939 C   0  0  0  0  0  0  0  0  0  0  0  0
  -29.7061  -12.3139   18.4503 C   0  0  0  0  0  0  0  0  0  0  0  0
  -32.4385  -32.2829   19.0872 C   0  0  0  0  0  0  0  0  0  0  0  0
  -28.2621  -12.0101   18.8418 C   0  0  0  0  0  0  0  0  0  0  0  0
  -31.1814  -16.6528   23.9565 C   0  0  0  0  0  0  0  0  0  0  0  0
  -30.5798  -12.4777   19.6870 C   0  0  0  0  0  0  0  0  0  0  0  0
  -28.6475  -13.2744   21.0194 C   0  0  0  0  0  0  0  0  0  0  0  0
  -30.3218  -14.5153   23.3628 C   0  0  0  0  0  0  0  0  0  0  0  0
  -33.5803  -31.9378   20.0509 C   0  0  1  0  0  0  0  0  0  0  0  0
  -35.5353  -29.0196   18.6033 C   0  0  1  0  0  0  0  0  0  0  0  0
  -27.7211  -13.0823   19.8011 C   0  0  2  0  0  0  0  0  0  0  0  0
  -31.2000  -15.1974   24.3972 C   0  0  2  0  0  0  0  0  0  0  0  0
  -31.2572  -16.5317   22.4284 C   0  0  2  0  0  0  0  0  0  0  0  0
  -32.3075  -18.1114   19.4427 C   0  0  0  0  0  0  0  0  0  0  0  0
  -33.9704  -20.4968   19.3432 C   0  0  0  0  0  0  0  0  0  0  0  0
  -30.5475  -19.6962   23.8464 C   0  0  0  0  0  0  0  0  0  0  0  0
  -35.8032  -26.5205   11.2762 C   0  0  0  0  0  0  0  0  0  0  0  0
  -32.0948  -29.8574   15.6332 C   0  0  0  0  0  0  0  0  0  0  0  0
  -32.2992  -28.7391   13.4026 C   0  0  0  0  0  0  0  0  0  0  0  0
  -33.7491  -30.6926   13.9539 C   0  0  0  0  0  0  0  0  0  0  0  0
  -31.4259  -15.7411   26.8246 C   0  0  0  0  0  0  0  0  0  0  0  0
  -37.9027  -25.2552   14.1861 C   0  0  0  0  0  0  0  0  0  0  0  0
  -30.5499  -17.6863   21.7310 C   0  0  0  0  0  0  0  0  0  0  0  0
  -33.8203  -22.3834   21.5557 C   0  0  0  0  0  0  0  0  0  1  0  0
  -34.1942  -28.4659   15.0655 C   0  0  1  0  0  0  0  0  0  0  0  0
  -36.4331  -26.5773   12.6593 C   0  0  2  0  0  0  0  0  0  0  0  0
  -33.0895  -29.4243   14.5378 C   0  0  0  0  0  0  0  0  0  0  0  0
  -25.8980  -11.5130   20.3469 N   0  0  0  0  0  0  0  0  0  0  0  0
  -32.1857  -20.9790   22.6323 N   0  0  0  0  0  0  0  0  0  0  0  0
  -26.2921  -12.7918   20.2227 N   0  0  0  0  0  0  0  0  0  0  0  0
  -34.9553  -28.3834   17.4188 N   0  0  0  0  0  0  0  0  0  0  0  0
  -30.0394  -13.4869   20.5992 N   0  0  0  0  0  0  0  0  0  0  0  0
  -30.6501  -15.2269   22.1224 N   0  0  0  0  0  0  0  0  0  0  0  0
  -25.5405  -15.0285   20.4296 N   0  0  0  0  0  0  0  0  0  0  0  0
  -21.8922  -12.5987   21.5166 N   0  0  0  0  0  0  0  0  0  0  0  0
  -34.5485  -31.0806   19.4010 N   0  0  0  0  0  0  0  0  0  0  0  0
  -35.1661  -28.0608   14.0558 N   0  0  0  0  0  0  0  0  0  0  0  0
  -30.6541  -15.0407   25.7555 N   0  3  0  0  0  0  0  0  0  0  0  0
  -37.2105  -25.3240   12.8735 N   0  3  0  0  0  0  0  0  0  0  0  0
  -22.6987  -14.7286   21.2487 O   0  0  0  0  0  0  0  0  0  0  0  0
  -33.4880  -29.0423   19.7794 O   0  0  0  0  0  0  0  0  0  0  0  0
  -35.6211  -30.1124   16.0033 O   0  0  0  0  0  0  0  0  0  0  0  0
  -34.7997  -25.7794   14.2508 O   0  0  0  0  0  0  0  0  0  0  0  0
  -31.5490  -15.1230   20.0120 O   0  0  0  0  0  0  0  0  0  0  0  0
  -21.5586   -7.0394   21.6529 O   0  0  0  0  0  0  0  0  0  0  0  0
  -33.4947  -23.1680   20.4159 O   0  0  0  0  0  0  0  0  0  1  0  0
  -18.4112   -6.9305   26.1791 F   0  0  0  0  0  0  0  0  0  0  0  0
  -19.5714   -8.9210   22.0442 F   0  0  0  0  0  0  0  0  0  0  0  0
  1  2  1  0  0  0  0
  1  5  2  0  0  0  0
  2  6  2  0  0  0  0
  3  8  2  0  0  0  0
  3 15  1  0  0  0  0
  4  9  1  0  0  0  0
  4 15  2  0  0  0  0
  5 17  1  0  0  0  0
  6 19  1  0  0  0  0
  7 10  2  0  0  0  0
  7 18  1  0  0  0  0
  8 24  1  0  0  0  0
  9 24  2  0  0  0  0
 10 25  1  0  0  0  0
 11 12  2  0  0  0  0
 11 26  1  0  0  0  0
 12 27  1  0  0  0  0
 13 20  1  0  0  0  0
 13 25  2  0  0  0  0
 14 27  2  0  0  0  0
 14 28  1  0  0  0  0
 15 29  1  0  0  0  0
 16 29  1  0  0  0  0
 16 32  2  0  0  0  0
 16 33  1  0  0  0  0
 17 19  2  0  0  0  0
 17 38  1  0  0  0  0
 18 20  2  0  0  0  0
 18 39  1  0  0  0  0
 19 49  1  0  0  0  0
 20 40  1  0  0  0  0
 21 22  1  0  0  0  0
 21 23  2  0  0  0  0
 21 54  1  0  0  0  0
 22 30  2  0  0  0  0
 22 55  1  0  0  0  0
 23 31  1  0  0  0  0
 23 63  1  0  0  0  0
 24 85  1  0  0  0  0
 25 86  1  0  0  0  0
 26 28  2  0  0  0  0
 26 85  1  0  0  0  0
 27 87  1  0  0  0  0
 28 88  1  0  0  0  0
 29 68  2  0  0  0  0
 30 64  1  0  0  0  0
 30 69  1  0  0  0  0
 31 56  1  0  0  0  0
 31 69  2  0  0  0  0
 32 70  1  0  0  0  0
 32 74  1  0  0  0  0
 33 75  1  0  0  0  0
 33 80  2  0  0  0  0
 34 50  1  0  0  0  0
 34 76  1  0  0  0  0
 34 81  2  0  0  0  0
 35 65  1  0  0  0  0
 35 71  1  0  0  0  0
 35 82  2  0  0  0  0
 36 66  1  0  0  0  0
 36 77  1  0  0  0  0
 36 83  2  0  0  0  0
 37 72  1  0  0  0  0
 37 73  1  0  0  0  0
 37 84  2  0  0  0  0
 38 41  1  0  0  0  0
 39 50  1  0  0  0  0
 40 71  1  0  0  0  0
 41 43  1  0  0  0  0
 42 44  1  0  0  0  0
 42 46  1  0  0  0  0
 43 49  1  0  0  0  0
 44 51  1  0  0  0  0
 45 52  1  0  0  0  0
 45 53  1  0  0  0  0
 46 72  1  0  0  0  0
 47 51  1  0  0  0  0
 47 72  1  0  0  0  0
 48 52  1  0  0  0  0
 48 73  1  0  0  0  0
 49 76  1  0  0  0  0
 50 71  1  0  0  0  0
 51 70  1  0  0  0  0
 52 78  1  0  0  0  0
 53 63  1  0  0  0  0
 53 73  1  0  0  0  0
 57 66  1  0  0  0  0
 58 67  1  0  0  0  0
 59 67  1  0  0  0  0
 60 67  1  0  0  0  0
 61 78  1  0  0  0  0
 62 79  1  0  0  0  0
 64 86  1  0  0  0  0
 65 67  1  0  0  0  0
 65 77  1  0  0  0  0
 66 79  1  0  0  0  0
 68 70  1  0  0  0  0
M  CHG  2  78   1  79   1
M  ISO  4  37 100  64 101  73 100  86 101
M  END
> <Batch ID>
0169

> <Smiles>
CNC1CC(Cc2c(C)nc([101CH2:1][101O:1]c3ccc4c(c3)CN(C(=O)C(NC(=O)C(C)NC)C(C)(C)C)C(C(=O)NC3CCCc5ccccc53)C4)c(C)c2C)[100N:0]([100C:0](=O)N2CCCC(n3nc(-c4ccc(Oc5ccc(F)cc5F)cc4)c(C(N)=O)c3N)C2)C1

> <Shape>
0.160

> <Color>
0.183

> <Negative vol penalty>
0.000

$$$$

  -OEChem-04052322323D

 87 97  0     1  0  0  0  0  0999 V2000
  -16.5003  -29.2923   23.0933 C   0  0  0  0  0  0  0  0  0  0  0  0
  -17.2613  -29.4331   21.9372 C   0  0  0  0  0  0  0  0  0  0  0  0
  -28.4309  -13.7102   18.8341 C   0  0  0  0  0  0  0  0  0  0  0  0
  -27.4531  -11.9972   20.2293 C   0  0  0  0  0  0  0  0  0  0  0  0
  -17.1133  -29.3667   24.3434 C   0  0  0  0  0  0  0  0  0  0  0  0
  -18.6356  -29.6494   22.0306 C   0  0  0  0  0  0  0  0  0  0  0  0
  -23.3204  -25.1058   18.9811 C   0  0  0  0  0  0  0  0  0  0  0  0
  -29.5951  -12.9508   18.7175 C   0  0  0  0  0  0  0  0  0  0  0  0
  -28.6173  -11.2377   20.1127 C   0  0  0  0  0  0  0  0  0  0  0  0
  -24.2731  -24.3989   18.2470 C   0  0  0  0  0  0  0  0  0  0  0  0
  -30.6550  -10.2721   16.9472 C   0  0  0  0  0  0  0  0  0  0  0  0
  -31.2220  -10.1453   15.6791 C   0  0  0  0  0  0  0  0  0  0  0  0
  -26.0324  -25.7527   19.2064 C   0  0  0  0  0  0  0  0  0  0  0  0
  -33.2552  -11.1714   16.4856 C   0  0  0  0  0  0  0  0  0  0  0  0
  -27.3599  -13.2334   19.5900 C   0  0  0  0  0  0  0  0  0  0  0  0
  -25.0282  -13.9779   18.8715 C   0  0  0  0  0  0  0  0  0  0  0  0
  -18.4974  -29.5744   24.4519 C   0  0  0  0  0  0  0  0  0  0  0  0
  -23.7220  -26.1298   19.8434 C   0  0  0  0  0  0  0  0  0  0  0  0
  -19.2675  -29.7280   23.2833 C   0  0  0  0  0  0  0  0  0  0  0  0
  -25.0838  -26.4559   19.9537 C   0  0  0  0  0  0  0  0  0  0  0  0
  -29.6883  -11.7146   19.3568 C   0  0  0  0  0  0  0  0  0  0  0  0
  -25.6257  -24.7218   18.3592 C   0  0  0  0  0  0  0  0  0  0  0  0
  -31.3881  -10.8487   17.9845 C   0  0  0  0  0  0  0  0  0  0  0  0
  -32.5220  -10.5949   15.4483 C   0  0  0  0  0  0  0  0  0  0  0  0
  -32.6881  -11.2983   17.7537 C   0  0  0  0  0  0  0  0  0  0  0  0
  -26.1573  -14.0177   19.7113 C   0  0  0  0  0  0  0  0  0  0  0  0
  -29.7862  -25.5228   18.4390 C   0  0  0  0  0  0  0  0  0  0  0  0
  -28.8511  -24.5316   18.2376 C   0  0  0  0  0  0  0  0  0  0  0  0
  -30.7878  -24.2500   20.0535 C   0  0  0  0  0  0  0  0  0  0  0  0
  -29.8522  -23.2590   19.8527 C   0  0  0  0  0  0  0  0  0  0  0  0
  -24.1682  -14.9047   19.4082 C   0  0  0  0  0  0  0  0  0  0  0  0
  -24.7789  -13.1749   17.7101 C   0  0  0  0  0  0  0  0  0  0  0  0
  -22.6998  -28.7531   22.3232 C   0  0  0  0  0  0  0  0  0  0  0  0
  -25.2669  -27.4628   23.3982 C   0  0  0  0  0  0  0  0  0  0  0  0
  -27.8574  -25.5019   24.4381 C   0  0  0  0  0  0  0  0  0  0  0  0
  -25.0333  -19.7399   22.7972 C   0  0  0  0  0  0  0  0  0  0  0  0
  -19.1078  -29.6947   25.8258 C   0  0  0  0  0  0  0  0  0  0  0  0
  -22.7250  -26.9585   20.6069 C   0  0  0  0  0  0  0  0  0  0  0  0
  -25.4664  -27.5880   20.8674 C   0  0  0  0  0  0  0  0  0  0  0  0
  -20.6277  -29.5523   25.8316 C   0  0  0  0  0  0  0  0  0  0  0  0
  -22.9703  -16.9787   23.5293 C   0  0  0  0  0  0  0  0  0  0  0  0
  -21.2474  -30.3986   24.7242 C   0  0  0  0  0  0  0  0  0  0  0  0
  -23.4614  -15.8851   22.5848 C   0  0  0  0  0  0  0  0  0  0  0  0
  -24.1372  -17.8075   24.0483 C   0  0  0  0  0  0  0  0  0  0  0  0
  -26.4011  -21.7087   22.1678 C   0  0  0  0  0  0  0  0  0  0  0  0
  -27.5136  -19.5405   22.1822 C   0  0  0  0  0  0  0  0  0  0  0  0
  -25.4363  -17.3779   21.9769 C   0  0  0  0  0  0  0  0  0  0  0  0
  -20.7649  -29.9391   23.3431 C   0  0  1  0  0  0  0  0  0  0  0  0
  -23.2353  -27.3908   21.9932 C   0  0  1  0  0  0  0  0  0  0  0  0
  -27.8686  -21.9338   22.0255 C   0  0  1  0  0  0  0  0  0  0  0  0
  -28.5495  -20.6107   22.0541 C   0  0  2  0  0  0  0  0  0  0  0  0
  -24.2933  -16.4897   21.4432 C   0  0  1  0  0  0  0  0  0  0  0  0
  -28.6269  -21.4617   20.8139 C   0  0  0  0  0  0  0  0  0  0  0  0
  -29.7572  -26.7896   17.6545 C   0  0  0  0  0  0  0  0  0  0  0  0
  -31.8729  -24.0950   21.0630 C   0  0  0  0  0  0  0  0  0  0  0  0
  -28.1570  -24.1293   15.8502 C   0  0  0  0  0  0  0  0  0  0  0  0
  -29.6224  -24.5986   25.9764 C   0  0  0  0  0  0  0  0  0  0  0  0
  -26.8706  -29.8422   22.3634 C   0  0  0  0  0  0  0  0  0  0  0  0
  -28.8539  -28.9562   23.6083 C   0  0  0  0  0  0  0  0  0  0  0  0
  -26.8021  -29.6339   24.8547 C   0  0  0  0  0  0  0  0  0  0  0  0
  -25.9791  -23.5553   25.6387 C   0  0  0  0  0  0  0  0  0  0  0  0
  -27.7672  -24.6794   17.2254 C   0  0  1  0  0  0  0  0  0  1  0  0
  -26.7718  -27.5146   23.4764 C   0  0  1  0  0  0  0  0  0  0  0  0
  -28.1322  -24.8152   25.7637 C   0  0  2  0  0  0  0  0  0  0  0  0
  -27.3113  -28.9706   23.5564 C   0  0  0  0  0  0  0  0  0  0  0  0
  -26.0293  -14.9000   20.7058 N   0  0  0  0  0  0  0  0  0  0  0  0
  -30.7714  -25.3998   19.3505 N   0  0  0  0  0  0  0  0  0  0  0  0
  -28.8673  -23.3819   18.9409 N   0  0  0  0  0  0  0  0  0  0  0  0
  -24.8097  -15.4233   20.4943 N   0  0  0  0  0  0  0  0  0  0  0  0
  -24.6982  -27.5047   22.1194 N   0  0  0  0  0  0  0  0  0  0  0  0
  -24.9458  -18.3530   22.9578 N   0  0  0  0  0  0  0  0  0  0  0  0
  -26.2339  -20.2579   22.3005 N   0  0  0  0  0  0  0  0  0  0  0  0
  -22.9335  -15.3185   19.0522 N   0  0  0  0  0  0  0  0  0  0  0  0
  -25.7690  -12.2735   17.2959 N   0  0  0  0  0  0  0  0  0  0  0  0
  -21.4624  -28.7375   22.9380 N   0  0  0  0  0  0  0  0  0  0  0  0
  -27.1509  -26.6739   24.6069 N   0  0  0  0  0  0  0  0  0  0  0  0
  -27.4532  -23.4894   25.8108 N   0  3  0  0  0  0  0  0  0  0  0  0
  -23.7166  -13.2661   17.0493 O   0  0  0  0  0  0  0  0  0  0  0  0
  -23.3605  -29.7462   22.0424 O   0  0  0  0  0  0  0  0  0  0  0  0
  -24.6108  -27.3929   24.4412 O   0  0  0  0  0  0  0  0  0  0  0  0
  -28.2352  -25.0463   23.3609 O   0  0  0  0  0  0  0  0  0  0  0  0
  -24.1015  -20.4841   23.1299 O   0  0  0  0  0  0  0  0  0  0  0  0
  -30.8240  -10.9732   19.2431 O   0  0  0  0  0  0  0  0  0  0  0  0
  -26.5623  -24.0161   17.6343 O   0  0  0  0  0  0  0  0  0  1  0  0
  -29.8899  -22.1020   20.5739 O   0  0  0  0  0  0  0  0  0  0  0  0
  -33.0669  -10.4716   14.2309 F   0  0  0  0  0  0  0  0  0  0  0  0
  -33.3977  -11.8519   18.7465 F   0  0  0  0  0  0  0  0  0  0  0  0
  1  2  1  0  0  0  0
  1  5  2  0  0  0  0
  2  6  2  0  0  0  0
  3  8  2  0  0  0  0
  3 15  1  0  0  0  0
  4  9  1  0  0  0  0
  4 15  2  0  0  0  0
  5 17  1  0  0  0  0
  6 19  1  0  0  0  0
  7 10  2  0  0  0  0
  7 18  1  0  0  0  0
  8 21  1  0  0  0  0
  9 21  2  0  0  0  0
 10 22  1  0  0  0  0
 11 12  2  0  0  0  0
 11 23  1  0  0  0  0
 12 24  1  0  0  0  0
 13 20  1  0  0  0  0
 13 22  2  0  0  0  0
 14 24  2  0  0  0  0
 14 25  1  0  0  0  0
 15 26  1  0  0  0  0
 16 26  1  0  0  0  0
 16 31  2  0  0  0  0
 16 32  1  0  0  0  0
 17 19  2  0  0  0  0
 17 37  1  0  0  0  0
 18 20  2  0  0  0  0
 18 38  1  0  0  0  0
 19 48  1  0  0  0  0
 20 39  1  0  0  0  0
 21 83  1  0  0  0  0
 22 84  1  0  0  0  0
 23 25  2  0  0  0  0
 23 83  1  0  0  0  0
 24 86  1  0  0  0  0
 25 87  1  0  0  0  0
 26 66  2  0  0  0  0
 27 28  2  0  0  0  0
 27 54  1  0  0  0  0
 27 67  1  0  0  0  0
 28 62  1  0  0  0  0
 28 68  1  0  0  0  0
 29 30  1  0  0  0  0
 29 55  1  0  0  0  0
 29 67  2  0  0  0  0
 30 68  2  0  0  0  0
 30 85  1  0  0  0  0
 31 69  1  0  0  0  0
 31 73  1  0  0  0  0
 32 74  1  0  0  0  0
 32 78  2  0  0  0  0
 33 49  1  0  0  0  0
 33 75  1  0  0  0  0
 33 79  2  0  0  0  0
 34 63  1  0  0  0  0
 34 70  1  0  0  0  0
 34 80  2  0  0  0  0
 35 64  1  0  0  0  0
 35 76  1  0  0  0  0
 35 81  2  0  0  0  0
 36 71  1  0  0  0  0
 36 72  1  0  0  0  0
 36 82  2  0  0  0  0
 37 40  1  0  0  0  0
 38 49  1  0  0  0  0
 39 70  1  0  0  0  0
 40 42  1  0  0  0  0
 41 43  1  0  0  0  0
 41 44  1  0  0  0  0
 42 48  1  0  0  0  0
 43 52  1  0  0  0  0
 44 71  1  0  0  0  0
 45 50  1  0  0  0  0
 45 72  1  0  0  0  0
 46 51  1  0  0  0  0
 46 72  1  0  0  0  0
 47 52  1  0  0  0  0
 47 71  1  0  0  0  0
 48 75  1  0  0  0  0
 49 70  1  0  0  0  0
 50 51  1  0  0  0  0
 50 53  1  0  0  0  0
 51 53  1  0  0  0  0
 52 69  1  0  0  0  0
 53 85  1  0  0  0  0
 56 62  1  0  0  0  0
 57 64  1  0  0  0  0
 58 65  1  0  0  0  0
 59 65  1  0  0  0  0
 60 65  1  0  0  0  0
 61 77  1  0  0  0  0
 62 84  1  0  0  0  0
 63 65  1  0  0  0  0
 63 76  1  0  0  0  0
 64 77  1  0  0  0  0
 66 69  1  0  0  0  0
M  CHG  1  77   1
M  ISO  4  36 100  62 101  72 100  84 101
M  END
> <Batch ID>
0169

> <Smiles>
CNC(C)C(=O)NC(C(=O)N1Cc2cc([101O:1][101CH:1](C)c3nc(OC4C5C[100N:0]([100C:0](=O)N6CCCC(n7nc(-c8ccc(Oc9ccc(F)cc9F)cc8)c(C(N)=O)c7N)C6)CC54)c(C)nc3C)ccc2CC1C(=O)NC1CCCc2ccccc21)C(C)(C)C

> <Shape>
0.202

> <Color>
0.085

> <Negative vol penalty>
0.000

$$$$

  -OEChem-04052322323D

 85 94  0     1  0  0  0  0  0999 V2000
  -27.2575  -37.9558   21.8240 C   0  0  0  0  0  0  0  0  0  0  0  0
  -27.8065  -36.7526   21.3922 C   0  0  0  0  0  0  0  0  0  0  0  0
  -25.2141  -13.5205   21.5055 C   0  0  0  0  0  0  0  0  0  0  0  0
  -26.0298  -11.8984   19.9117 C   0  0  0  0  0  0  0  0  0  0  0  0
  -26.2929  -37.9590   22.8307 C   0  0  0  0  0  0  0  0  0  0  0  0
  -27.3921  -35.5520   21.9678 C   0  0  0  0  0  0  0  0  0  0  0  0
  -26.8286  -30.1314   19.1741 C   0  0  0  0  0  0  0  0  0  0  0  0
  -24.4665  -12.5257   22.1355 C   0  0  0  0  0  0  0  0  0  0  0  0
  -25.2822  -10.9035   20.5417 C   0  0  0  0  0  0  0  0  0  0  0  0
  -27.6631  -29.0162   19.1133 C   0  0  0  0  0  0  0  0  0  0  0  0
  -22.0616   -9.8774   20.6155 C   0  0  0  0  0  0  0  0  0  0  0  0
  -21.3320   -9.0054   19.8074 C   0  0  0  0  0  0  0  0  0  0  0  0
  -26.4341  -28.0051   20.9261 C   0  0  0  0  0  0  0  0  0  0  0  0
  -31.5106  -23.2754   19.1255 C   0  0  0  0  0  0  0  0  0  0  0  0
  -29.4102  -24.3982   18.7911 C   0  0  0  0  0  0  0  0  0  0  0  0
  -22.5759   -7.1368   20.7008 C   0  0  0  0  0  0  0  0  0  0  0  0
  -25.9957  -13.2070   20.3936 C   0  0  0  0  0  0  0  0  0  0  0  0
  -28.0917  -14.6153   20.0316 C   0  0  0  0  0  0  0  0  0  0  0  0
  -25.8594  -36.7571   23.4122 C   0  0  0  0  0  0  0  0  0  0  0  0
  -25.7956  -30.1966   20.1202 C   0  0  0  0  0  0  0  0  0  0  0  0
  -26.4218  -35.5393   22.9842 C   0  0  0  0  0  0  0  0  0  0  0  0
  -25.5862  -29.1211   20.9951 C   0  0  0  0  0  0  0  0  0  0  0  0
  -30.1483  -23.2214   18.8527 C   0  0  0  0  0  0  0  0  0  0  0  0
  -24.5006  -11.2171   21.6536 C   0  0  0  0  0  0  0  0  0  0  0  0
  -27.4678  -27.9541   19.9912 C   0  0  0  0  0  0  0  0  0  0  0  0
  -23.0484   -9.3791   21.4661 C   0  0  0  0  0  0  0  0  0  0  0  0
  -21.5891   -7.6351   19.8501 C   0  0  0  0  0  0  0  0  0  0  0  0
  -23.3055   -8.0088   21.5088 C   0  0  0  0  0  0  0  0  0  0  0  0
  -26.7677  -14.2344   19.7420 C   0  0  0  0  0  0  0  0  0  0  0  0
  -32.0828  -24.5210   19.3275 C   0  0  0  0  0  0  0  0  0  0  0  0
  -30.0763  -25.5935   19.0083 C   0  0  0  0  0  0  0  0  0  0  0  0
  -28.3611  -15.6252   19.1404 C   0  0  0  0  0  0  0  0  0  0  0  0
  -28.9970  -14.1022   21.0178 C   0  0  0  0  0  0  0  0  0  0  0  0
  -25.1079  -32.1117   22.5621 C   0  0  0  0  0  0  0  0  0  0  0  0
  -22.3736  -30.3689   22.6535 C   0  0  0  0  0  0  0  0  0  0  0  0
  -20.7737  -27.4475   21.9102 C   0  0  0  0  0  0  0  0  0  0  0  0
  -26.9165  -20.2477   16.4782 C   0  0  0  0  0  0  0  0  0  0  0  0
  -24.8488  -36.8146   24.5302 C   0  0  0  0  0  0  0  0  0  0  0  0
  -24.8872  -31.3950   20.1551 C   0  0  0  0  0  0  0  0  0  0  0  0
  -24.4787  -29.1331   22.0158 C   0  0  0  0  0  0  0  0  0  0  0  0
  -24.1917  -35.4691   24.8271 C   0  0  0  0  0  0  0  0  0  0  0  0
  -25.8184  -17.2266   15.0880 C   0  0  0  0  0  0  0  0  0  0  0  0
  -25.2432  -34.3666   24.9029 C   0  0  0  0  0  0  0  0  0  0  0  0
  -26.0528  -16.2042   16.1981 C   0  0  0  0  0  0  0  0  0  0  0  0
  -28.3630  -21.5779   19.6282 C   0  0  0  0  0  0  0  0  0  0  0  0
  -25.3164  -18.5453   15.6619 C   0  0  0  0  0  0  0  0  0  0  0  0
  -26.4946  -18.1310   17.8032 C   0  0  0  0  0  0  0  0  0  0  0  0
  -29.4730  -21.8897   18.6231 C   0  0  1  0  0  0  0  0  0  0  0  0
  -25.9801  -34.2143   23.5667 C   0  0  1  0  0  0  0  0  0  0  0  0
  -24.1898  -31.5770   21.4997 C   0  0  1  0  0  0  0  0  0  0  0  0
  -26.9943  -16.7715   17.2733 C   0  0  1  0  0  0  0  0  0  0  0  0
  -27.5685  -20.4498   18.9505 C   0  0  1  0  0  0  0  0  0  0  0  0
  -28.7528  -21.7458   17.2679 C   0  0  1  0  0  0  0  0  0  0  0  0
  -33.5427  -24.6173   19.6210 C   0  0  0  0  0  0  0  0  0  0  0  0
  -26.1161  -20.4891   19.4188 C   0  0  0  0  0  0  0  0  0  0  0  0
  -29.7396  -21.3936   16.1547 C   0  0  0  0  0  0  0  0  0  0  0  0
  -18.5522  -26.3037   22.1427 C   0  0  0  0  0  0  0  0  0  0  0  0
  -22.9572  -29.8399   25.6013 C   0  0  0  0  0  0  0  0  0  0  0  0
  -21.2877  -27.9757   25.5255 C   0  0  0  0  0  0  0  0  0  0  0  0
  -20.5582  -30.3198   25.0826 C   0  0  0  0  0  0  0  0  0  0  0  0
  -20.4507  -27.2249   18.9767 C   0  0  0  0  0  0  0  0  0  0  0  0
  -29.3149  -26.8756   18.9515 C   0  0  0  0  0  0  0  0  0  1  0  0
  -21.9362  -29.1018   23.3477 C   0  0  1  0  0  0  0  0  0  0  0  0
  -19.4316  -27.1722   21.2565 C   0  0  2  0  0  0  0  0  0  0  0  0
  -21.7070  -29.3096   24.8715 C   0  0  0  0  0  0  0  0  0  0  0  0
  -26.2332  -14.9444   18.7450 N   0  0  0  0  0  0  0  0  0  0  0  0
  -31.3983  -25.6856   19.2757 N   0  0  0  0  0  0  0  0  0  0  0  0
  -27.2262  -15.7818   18.4003 N   0  0  0  0  0  0  0  0  0  0  0  0
  -23.6211  -30.3299   22.0149 N   0  0  0  0  0  0  0  0  0  0  0  0
  -26.2155  -19.0559   16.6968 N   0  0  0  0  0  0  0  0  0  0  0  0
  -27.7571  -20.6901   17.5034 N   0  0  0  0  0  0  0  0  0  0  0  0
  -29.4556  -16.3856   18.9256 N   0  0  0  0  0  0  0  0  0  0  0  0
  -28.5589  -13.0641   21.8512 N   0  0  0  0  0  0  0  0  0  0  0  0
  -25.1611  -33.4914   22.6174 N   0  0  0  0  0  0  0  0  0  0  0  0
  -20.7609  -28.6258   22.6262 N   0  0  0  0  0  0  0  0  0  0  0  0
  -19.6233  -26.4726   19.9546 N   0  3  0  0  0  0  0  0  0  0  0  0
  -30.1545  -14.5622   21.1669 O   0  0  0  0  0  0  0  0  0  0  0  0
  -25.7214  -31.3304   23.2796 O   0  0  0  0  0  0  0  0  0  0  0  0
  -21.6323  -31.3548   22.6710 O   0  0  0  0  0  0  0  0  0  0  0  0
  -21.7360  -26.6910   21.7999 O   0  0  0  0  0  0  0  0  0  0  0  0
  -26.7966  -20.8872   15.4258 O   0  0  0  0  0  0  0  0  0  0  0  0
  -23.7714  -10.2460   22.2682 O   0  0  0  0  0  0  0  0  0  0  0  0
  -28.2870  -26.8571   19.9341 O   0  0  0  0  0  0  0  0  0  1  0  0
  -20.8872   -6.7977   19.0753 F   0  0  0  0  0  0  0  0  0  0  0  0
  -24.2515   -7.5240   22.3248 F   0  0  0  0  0  0  0  0  0  0  0  0
  1  2  1  0  0  0  0
  1  5  2  0  0  0  0
  2  6  2  0  0  0  0
  3  8  2  0  0  0  0
  3 17  1  0  0  0  0
  4  9  1  0  0  0  0
  4 17  2  0  0  0  0
  5 19  1  0  0  0  0
  6 21  1  0  0  0  0
  7 10  2  0  0  0  0
  7 20  1  0  0  0  0
  8 24  1  0  0  0  0
  9 24  2  0  0  0  0
 10 25  1  0  0  0  0
 11 12  2  0  0  0  0
 11 26  1  0  0  0  0
 12 27  1  0  0  0  0
 13 22  1  0  0  0  0
 13 25  2  0  0  0  0
 14 23  1  0  0  0  0
 14 30  2  0  0  0  0
 15 23  2  0  0  0  0
 15 31  1  0  0  0  0
 16 27  2  0  0  0  0
 16 28  1  0  0  0  0
 17 29  1  0  0  0  0
 18 29  1  0  0  0  0
 18 32  2  0  0  0  0
 18 33  1  0  0  0  0
 19 21  2  0  0  0  0
 19 38  1  0  0  0  0
 20 22  2  0  0  0  0
 20 39  1  0  0  0  0
 21 49  1  0  0  0  0
 22 40  1  0  0  0  0
 23 48  1  0  0  0  0
 24 82  1  0  0  0  0
 25 83  1  0  0  0  0
 26 28  2  0  0  0  0
 26 82  1  0  0  0  0
 27 84  1  0  0  0  0
 28 85  1  0  0  0  0
 29 66  2  0  0  0  0
 30 54  1  0  0  0  0
 30 67  1  0  0  0  0
 31 62  1  0  0  0  0
 31 67  2  0  0  0  0
 32 68  1  0  0  0  0
 32 72  1  0  0  0  0
 33 73  1  0  0  0  0
 33 77  2  0  0  0  0
 34 50  1  0  0  0  0
 34 74  1  0  0  0  0
 34 78  2  0  0  0  0
 35 63  1  0  0  0  0
 35 69  1  0  0  0  0
 35 79  2  0  0  0  0
 36 64  1  0  0  0  0
 36 75  1  0  0  0  0
 36 80  2  0  0  0  0
 37 70  1  0  0  0  0
 37 71  1  0  0  0  0
 37 81  2  0  0  0  0
 38 41  1  0  0  0  0
 39 50  1  0  0  0  0
 40 69  1  0  0  0  0
 41 43  1  0  0  0  0
 42 44  1  0  0  0  0
 42 46  1  0  0  0  0
 43 49  1  0  0  0  0
 44 51  1  0  0  0  0
 45 48  1  0  0  0  0
 45 52  1  0  0  0  0
 46 70  1  0  0  0  0
 47 51  1  0  0  0  0
 47 70  1  0  0  0  0
 48 53  1  0  0  0  0
 49 74  1  0  0  0  0
 50 69  1  0  0  0  0
 51 68  1  0  0  0  0
 52 55  1  0  0  0  0
 52 71  1  0  0  0  0
 53 56  1  0  0  0  0
 53 71  1  0  0  0  0
 57 64  1  0  0  0  0
 58 65  1  0  0  0  0
 59 65  1  0  0  0  0
 60 65  1  0  0  0  0
 61 76  1  0  0  0  0
 62 83  1  0  0  0  0
 63 65  1  0  0  0  0
 63 75  1  0  0  0  0
 64 76  1  0  0  0  0
 66 68  1  0  0  0  0
M  CHG  1  76   1
M  ISO  4  37 100  62 101  71 100  83 101
M  END
> <Batch ID>
0169

> <Smiles>
CNC(C)C(=O)NC(C(=O)N1Cc2cc([101O:1][101CH2:1]c3cc(C4CC(C)[100N:0]([100C:0](=O)N5CCCC(n6nc(-c7ccc(Oc8ccc(F)cc8F)cc7)c(C(N)=O)c6N)C5)C4C)cc(C)n3)ccc2CC1C(=O)NC1CCCc2ccccc21)C(C)(C)C

> <Shape>
0.325

> <Color>
0.085

> <Negative vol penalty>
0.000

$$$$

  -OEChem-04052322323D

 89 98  0     1  0  0  0  0  0999 V2000
  -19.4639  -33.7262   20.2799 C   0  0  0  0  0  0  0  0  0  0  0  0
  -20.7208  -33.2275   19.9528 C   0  0  0  0  0  0  0  0  0  0  0  0
  -24.3974   -9.2623   22.1255 C   0  0  0  0  0  0  0  0  0  0  0  0
  -23.9520   -9.0157   19.7637 C   0  0  0  0  0  0  0  0  0  0  0  0
  -18.8448  -33.3301   21.4647 C   0  0  0  0  0  0  0  0  0  0  0  0
  -21.3597  -32.3332   20.8109 C   0  0  0  0  0  0  0  0  0  0  0  0
  -24.9989  -27.6702   19.2238 C   0  0  0  0  0  0  0  0  0  0  0  0
  -23.2937   -8.4609   22.4173 C   0  0  0  0  0  0  0  0  0  0  0  0
  -22.8483   -8.2143   20.0555 C   0  0  0  0  0  0  0  0  0  0  0  0
  -26.3859  -27.5389   19.1705 C   0  0  0  0  0  0  0  0  0  0  0  0
  -22.5473   -5.1632   22.4441 C   0  0  0  0  0  0  0  0  0  0  0  0
  -22.7051   -4.1693   23.4099 C   0  0  0  0  0  0  0  0  0  0  0  0
  -28.8529  -18.6181   22.1832 C   0  0  0  0  0  0  0  0  0  0  0  0
  -26.3697  -26.5409   21.3666 C   0  0  0  0  0  0  0  0  0  0  0  0
  -20.9649   -5.1869   24.7415 C   0  0  0  0  0  0  0  0  0  0  0  0
  -24.7265   -9.5398   20.7986 C   0  0  0  0  0  0  0  0  0  0  0  0
  -29.2154  -17.7530   21.1507 C   0  0  0  0  0  0  0  0  0  0  0  0
  -27.1932   -9.9457   20.2902 C   0  0  0  0  0  0  0  0  0  0  0  0
  -19.4723  -32.4230   22.3331 C   0  0  0  0  0  0  0  0  0  0  0  0
  -24.2869  -27.2471   20.3553 C   0  0  0  0  0  0  0  0  0  0  0  0
  -20.7490  -31.9256   22.0091 C   0  0  0  0  0  0  0  0  0  0  0  0
  -24.9735  -26.6656   21.4307 C   0  0  0  0  0  0  0  0  0  0  0  0
  -29.4977  -20.5092   20.8250 C   0  0  0  0  0  0  0  0  0  0  0  0
  -28.9941  -19.9962   22.0203 C   0  0  0  0  0  0  0  0  0  0  0  0
  -29.7190  -18.2661   19.9554 C   0  0  0  0  0  0  0  0  0  0  0  0
  -29.8601  -19.6442   19.7926 C   0  0  0  0  0  0  0  0  0  0  0  0
  -22.5192   -7.9369   21.3824 C   0  0  0  0  0  0  0  0  0  0  0  0
  -27.0718  -26.9768   20.2432 C   0  0  0  0  0  0  0  0  0  0  0  0
  -21.5983   -6.1690   22.6269 C   0  0  0  0  0  0  0  0  0  0  0  0
  -21.9139   -4.1811   24.5586 C   0  0  0  0  0  0  0  0  0  0  0  0
  -20.8071   -6.1809   23.7756 C   0  0  0  0  0  0  0  0  0  0  0  0
  -25.8662  -10.3680   20.4965 C   0  0  0  0  0  0  0  0  0  0  0  0
  -27.8868  -11.1040   20.0376 C   0  0  0  0  0  0  0  0  0  0  0  0
  -29.0557  -16.3076   21.3517 C   0  0  0  0  0  0  0  0  0  0  0  0
  -27.7491   -8.6246   20.3237 C   0  0  0  0  0  0  0  0  0  0  0  0
  -22.4449  -28.6816   22.5124 C   0  0  0  0  0  0  0  0  0  0  0  0
  -21.9485  -25.6440   23.5365 C   0  0  0  0  0  0  0  0  0  0  0  0
  -23.0692  -22.4251   23.7088 C   0  0  0  0  0  0  0  0  0  0  0  0
  -18.7842  -32.0607   23.6254 C   0  0  0  0  0  0  0  0  0  0  0  0
  -22.7882  -27.3713   20.3861 C   0  0  0  0  0  0  0  0  0  0  0  0
  -24.2536  -26.1770   22.6601 C   0  0  0  0  0  0  0  0  0  0  0  0
  -19.3660  -30.8201   24.2982 C   0  0  0  0  0  0  0  0  0  0  0  0
  -26.2493  -15.7954   19.1092 C   0  0  0  0  0  0  0  0  0  0  0  0
  -20.8895  -30.8914   24.3235 C   0  0  0  0  0  0  0  0  0  0  0  0
  -25.9995  -14.2957   19.2728 C   0  0  0  0  0  0  0  0  0  0  0  0
  -26.6859  -16.4329   20.4247 C   0  0  0  0  0  0  0  0  0  0  0  0
  -27.6350  -14.2893   21.2104 C   0  0  0  0  0  0  0  0  0  0  0  0
  -31.2688  -23.9151   20.2312 C   0  0  0  0  0  0  0  0  0  0  0  0
  -29.3015  -23.6354   18.6940 C   0  0  0  0  0  0  0  0  0  0  0  0
  -29.6476  -21.9914   20.6518 C   0  0  1  0  0  0  0  0  0  0  0  0
  -21.4634  -30.9345   22.9021 C   0  0  1  0  0  0  0  0  0  0  0  0
  -22.2181  -27.3776   21.8012 C   0  0  1  0  0  0  0  0  0  0  0  0
  -31.1219  -22.3908   20.4001 C   0  0  2  0  0  0  0  0  0  0  0  0
  -27.2164  -13.5938   19.9034 C   0  0  1  0  0  0  0  0  0  0  0  0
  -28.7470  -22.4430   19.4739 C   0  0  1  0  0  0  0  0  0  0  0  0
  -28.5973  -20.9009   23.1409 C   0  0  0  0  0  0  0  0  0  0  0  0
  -30.1088  -17.3392   18.8473 C   0  0  0  0  0  0  0  0  0  0  0  0
  -30.4007  -20.1948   18.5104 C   0  0  0  0  0  0  0  0  0  0  0  0
  -32.0705  -21.9187   21.5080 C   0  0  0  0  0  0  0  0  0  0  0  0
  -22.4649  -20.1763   24.6442 C   0  0  0  0  0  0  0  0  0  0  0  0
  -22.7910  -26.5768   26.3168 C   0  0  0  0  0  0  0  0  0  0  0  0
  -23.0856  -24.1744   26.9573 C   0  0  0  0  0  0  0  0  0  0  0  0
  -20.8356  -25.0178   26.2875 C   0  0  0  0  0  0  0  0  0  0  0  0
  -22.9633  -21.2041   21.0149 C   0  0  0  0  0  0  0  0  0  0  0  0
  -30.3120  -25.8931   19.0485 C   0  0  0  0  0  0  0  0  0  0  0  0
  -29.0143  -26.6639   18.9072 C   0  0  0  0  0  0  0  0  0  1  0  0
  -22.6247  -24.7252   24.5252 C   0  0  1  0  0  0  0  0  0  0  0  0
  -22.3760  -21.1015   23.4405 C   0  0  2  0  0  0  0  0  0  0  0  0
  -22.3483  -25.1344   25.9995 C   0  0  0  0  0  0  0  0  0  0  0  0
  -25.7229  -11.6913   20.3849 N   0  0  0  0  0  0  0  0  0  0  0  0
  -26.9689  -12.1105   20.1057 N   0  0  0  0  0  0  0  0  0  0  0  0
  -27.8407  -15.7218   20.9877 N   0  0  0  0  0  0  0  0  0  0  0  0
  -22.7890  -26.3260   22.6452 N   0  0  0  0  0  0  0  0  0  0  0  0
  -29.1862  -11.3496   19.7661 N   0  0  0  0  0  0  0  0  0  0  0  0
  -26.8956   -7.5473   20.5979 N   0  0  0  0  0  0  0  0  0  0  0  0
  -21.4457  -29.6143   22.3096 N   0  0  0  0  0  0  0  0  0  0  0  0
  -22.1909  -23.3734   24.1890 N   0  0  0  0  0  0  0  0  0  0  0  0
  -30.0291  -24.5616   19.6413 N   0  3  2  0  0  0  0  0  0  0  0  0
  -23.0012  -20.4164   22.2740 N   0  3  0  0  0  0  0  0  0  0  0  0
  -30.0250  -15.7151   21.8235 O   0  0  0  0  0  0  0  0  0  0  0  0
  -28.9698   -8.4075   20.1329 O   0  0  0  0  0  0  0  0  0  0  0  0
  -23.4511  -28.8300   23.1959 O   0  0  0  0  0  0  0  0  0  0  0  0
  -20.7194  -25.7472   23.5497 O   0  0  0  0  0  0  0  0  0  0  0  0
  -24.2704  -22.5992   23.5155 O   0  0  0  0  0  0  0  0  0  0  0  0
  -27.4621  -22.8059   19.9862 O   0  0  0  0  0  0  0  0  0  0  0  0
  -21.4423   -7.1546   21.6668 O   0  0  0  0  0  0  0  0  0  0  0  0
  -28.4257  -26.8480   20.1941 O   0  0  0  0  0  0  0  0  0  1  0  0
  -22.0645   -3.2257   25.4853 F   0  0  0  0  0  0  0  0  0  0  0  0
  -19.8929   -7.1439   23.9563 F   0  0  0  0  0  0  0  0  0  0  0  0
  1  2  1  0  0  0  0
  1  5  2  0  0  0  0
  2  6  2  0  0  0  0
  3  8  2  0  0  0  0
  3 16  1  0  0  0  0
  4  9  1  0  0  0  0
  4 16  2  0  0  0  0
  5 19  1  0  0  0  0
  6 21  1  0  0  0  0
  7 10  2  0  0  0  0
  7 20  1  0  0  0  0
  8 27  1  0  0  0  0
  9 27  2  0  0  0  0
 10 28  1  0  0  0  0
 11 12  2  0  0  0  0
 11 29  1  0  0  0  0
 12 30  1  0  0  0  0
 13 17  1  0  0  0  0
 13 24  2  0  0  0  0
 14 22  1  0  0  0  0
 14 28  2  0  0  0  0
 15 30  2  0  0  0  0
 15 31  1  0  0  0  0
 16 32  1  0  0  0  0
 17 25  2  0  0  0  0
 17 34  1  0  0  0  0
 18 32  1  0  0  0  0
 18 33  2  0  0  0  0
 18 35  1  0  0  0  0
 19 21  2  0  0  0  0
 19 39  1  0  0  0  0
 20 22  2  0  0  0  0
 20 40  1  0  0  0  0
 21 51  1  0  0  0  0
 22 41  1  0  0  0  0
 23 24  1  0  0  0  0
 23 26  2  0  0  0  0
 23 50  1  0  0  0  0
 24 56  1  0  0  0  0
 25 26  1  0  0  0  0
 25 57  1  0  0  0  0
 26 58  1  0  0  0  0
 27 86  1  0  0  0  0
 28 87  1  0  0  0  0
 29 31  2  0  0  0  0
 29 86  1  0  0  0  0
 30 88  1  0  0  0  0
 31 89  1  0  0  0  0
 32 70  2  0  0  0  0
 33 71  1  0  0  0  0
 33 74  1  0  0  0  0
 34 72  1  0  0  0  0
 34 80  2  0  0  0  0
 35 75  1  0  0  0  0
 35 81  2  0  0  0  0
 36 52  1  0  0  0  0
 36 76  1  0  0  0  0
 36 82  2  0  0  0  0
 37 67  1  0  0  0  0
 37 73  1  0  0  0  0
 37 83  2  0  0  0  0
 38 68  1  0  0  0  0
 38 77  1  0  0  0  0
 38 84  2  0  0  0  0
 39 42  1  0  0  0  0
 40 52  1  0  0  0  0
 41 73  1  0  0  0  0
 42 44  1  0  0  0  0
 43 45  1  0  0  0  0
 43 46  1  0  0  0  0
 44 51  1  0  0  0  0
 45 54  1  0  0  0  0
 46 72  1  0  0  0  0
 47 54  1  0  0  0  0
 47 72  1  0  0  0  0
 48 53  1  0  0  0  0
 48 78  1  0  0  0  0
 49 55  1  0  0  0  0
 49 78  1  0  0  0  0
 50 53  1  0  0  0  0
 50 55  1  0  0  0  0
 51 76  1  0  0  0  0
 52 73  1  0  0  0  0
 53 59  1  0  0  0  0
 54 71  1  0  0  0  0
 55 85  1  0  0  0  0
 60 68  1  0  0  0  0
 61 69  1  0  0  0  0
 62 69  1  0  0  0  0
 63 69  1  0  0  0  0
 64 79  1  0  0  0  0
 65 66  1  0  0  0  0
 65 78  1  0  0  0  0
 66 87  1  0  0  0  0
 67 69  1  0  0  0  0
 67 77  1  0  0  0  0
 68 79  1  0  0  0  0
 70 71  1  0  0  0  0
M  CHG  2  78   1  79   1
M  ISO  4  17 100  34 100  66 101  87 101
M  END
> <Batch ID>
0169

> <Smiles>
CNC(C)C(=O)NC(C(=O)N1Cc2cc([101O:1][101CH2:1]CN3CC(C)C(c4c(C)c[100c:0]([100C:0](=O)N5CCCC(n6nc(-c7ccc(Oc8ccc(F)cc8F)cc7)c(C(N)=O)c6N)C5)c(C)c4C)C(O)C3)ccc2CC1C(=O)NC1CCCc2ccccc21)C(C)(C)C

> <Shape>
0.266

> <Color>
0.127

> <Negative vol penalty>
0.000

$$$$

  -OEChem-04052322323D

 84 94  0     1  0  0  0  0  0999 V2000
  -27.8736  -36.0431   19.0204 C   0  0  0  0  0  0  0  0  0  0  0  0
  -28.6012  -34.8945   18.7260 C   0  0  0  0  0  0  0  0  0  0  0  0
  -26.6169  -12.9814   20.5118 C   0  0  0  0  0  0  0  0  0  0  0  0
  -24.9493  -14.5810   19.8065 C   0  0  0  0  0  0  0  0  0  0  0  0
  -26.9686  -36.0409   20.0810 C   0  0  0  0  0  0  0  0  0  0  0  0
  -28.4250  -33.7433   19.4929 C   0  0  0  0  0  0  0  0  0  0  0  0
  -28.4940  -26.6015   18.9388 C   0  0  0  0  0  0  0  0  0  0  0  0
  -25.7305  -11.9386   20.2426 C   0  0  0  0  0  0  0  0  0  0  0  0
  -24.0629  -13.5381   19.5373 C   0  0  0  0  0  0  0  0  0  0  0  0
  -29.0724  -25.4807   19.5329 C   0  0  0  0  0  0  0  0  0  0  0  0
  -23.7796   -8.8740   20.0809 C   0  0  0  0  0  0  0  0  0  0  0  0
  -23.6678   -7.8554   21.0271 C   0  0  0  0  0  0  0  0  0  0  0  0
  -27.4233  -25.5693   21.2913 C   0  0  0  0  0  0  0  0  0  0  0  0
  -22.9518   -9.4676   22.6780 C   0  0  0  0  0  0  0  0  0  0  0  0
  -27.6567  -21.0277   22.5099 C   0  0  0  0  0  0  0  0  0  0  0  0
  -26.2263  -14.3026   20.2938 C   0  0  0  0  0  0  0  0  0  0  0  0
  -28.0697  -15.9576   19.6854 C   0  0  0  0  0  0  0  0  0  0  0  0
  -26.7741  -34.8862   20.8552 C   0  0  0  0  0  0  0  0  0  0  0  0
  -27.3807  -27.2223   19.5233 C   0  0  0  0  0  0  0  0  0  0  0  0
  -27.5176  -33.7260   20.5657 C   0  0  0  0  0  0  0  0  0  0  0  0
  -26.8311  -26.6963   20.7012 C   0  0  0  0  0  0  0  0  0  0  0  0
  -24.4535  -12.2169   19.7554 C   0  0  0  0  0  0  0  0  0  0  0  0
  -28.5388  -24.9661   20.7109 C   0  0  0  0  0  0  0  0  0  0  0  0
  -23.4776  -10.1895   20.4332 C   0  0  0  0  0  0  0  0  0  0  0  0
  -23.2538   -8.1521   22.3257 C   0  0  0  0  0  0  0  0  0  0  0  0
  -23.0637  -10.4862   21.7317 C   0  0  0  0  0  0  0  0  0  0  0  0
  -27.1412  -15.3803   20.5722 C   0  0  0  0  0  0  0  0  0  0  0  0
  -26.4093  -20.5163   22.2875 C   0  0  0  0  0  0  0  0  0  0  0  0
  -28.6911  -16.9333   20.4261 C   0  0  0  0  0  0  0  0  0  0  0  0
  -27.4782  -20.5774   20.3498 C   0  0  0  0  0  0  0  0  0  0  0  0
  -28.3458  -15.6405   18.3147 C   0  0  0  0  0  0  0  0  0  0  0  0
  -26.7939  -30.1061   20.7245 C   0  0  0  0  0  0  0  0  0  0  0  0
  -23.7644  -28.9685   20.9483 C   0  0  0  0  0  0  0  0  0  0  0  0
  -21.6942  -26.2648   21.1749 C   0  0  0  0  0  0  0  0  0  0  0  0
  -26.6606  -19.7081   25.5423 C   0  0  0  0  0  0  0  0  0  0  0  0
  -25.8195  -34.9462   22.0213 C   0  0  0  0  0  0  0  0  0  0  0  0
  -26.7522  -28.4145   18.8556 C   0  0  0  0  0  0  0  0  0  0  0  0
  -25.6243  -27.3137   21.3577 C   0  0  0  0  0  0  0  0  0  0  0  0
  -25.4169  -33.5720   22.5502 C   0  0  0  0  0  0  0  0  0  0  0  0
  -29.9100  -18.0520   24.8875 C   0  0  0  0  0  0  0  0  0  0  0  0
  -26.6443  -32.6801   22.7080 C   0  0  0  0  0  0  0  0  0  0  0  0
  -26.9789  -21.2486   17.8713 C   0  0  0  0  0  0  0  0  0  0  0  0
  -26.7476  -19.7730   17.9694 C   0  0  0  0  0  0  0  0  0  0  0  0
  -29.6018  -17.1642   23.6857 C   0  0  0  0  0  0  0  0  0  0  0  0
  -24.4088  -21.5041   23.7333 C   0  0  0  0  0  0  0  0  0  0  0  0
  -28.6670  -18.3045   25.7333 C   0  0  0  0  0  0  0  0  0  0  0  0
  -24.6109  -21.1745   25.2076 C   0  0  0  0  0  0  0  0  0  0  0  0
  -27.2184  -18.0067   23.7519 C   0  0  0  0  0  0  0  0  0  0  0  0
  -27.3362  -32.4501   21.3589 C   0  0  1  0  0  0  0  0  0  0  0  0
  -25.2729  -20.2763   23.3675 C   0  0  2  0  0  0  0  0  0  0  0  0
  -27.7823  -20.4295   18.8632 C   0  0  0  0  0  0  0  0  0  0  0  0
  -25.9348  -29.2745   19.8146 C   0  0  1  0  0  0  0  0  0  0  0  0
  -28.4469  -17.7538   22.8624 C   0  0  2  0  0  0  0  0  0  0  0  0
  -19.2695  -25.6522   21.3819 C   0  0  0  0  0  0  0  0  0  0  0  0
  -23.8191  -29.7577   23.8951 C   0  0  0  0  0  0  0  0  0  0  0  0
  -21.8167  -28.2978   24.2515 C   0  0  0  0  0  0  0  0  0  0  0  0
  -21.6697  -30.2614   22.7200 C   0  0  0  0  0  0  0  0  0  0  0  0
  -21.7297  -24.7847   18.6123 C   0  0  0  0  0  0  0  0  0  0  0  0
  -29.7045  -21.5454   21.0632 C   0  0  0  0  0  0  0  0  0  0  0  0
  -29.7380  -22.9318   20.4292 C   0  0  0  0  0  0  0  0  0  1  0  0
  -22.9776  -28.2217   21.9982 C   0  0  1  0  0  0  0  0  0  0  0  0
  -20.4249  -25.9024   20.4252 C   0  0  2  0  0  0  0  0  0  0  0  0
  -22.5947  -29.1239   23.2051 C   0  0  0  0  0  0  0  0  0  0  0  0
  -27.1671  -15.9422   21.7836 N   0  0  0  0  0  0  0  0  0  0  0  0
  -28.2962  -21.0537   21.2940 N   0  0  0  0  0  0  0  0  0  0  0  0
  -28.1195  -16.8827   21.6634 N   0  0  0  0  0  0  0  0  0  0  0  0
  -26.3263  -20.2469   20.9426 N   0  3  0  0  0  0  0  0  0  0  0  0
  -25.0494  -28.4816   20.6700 N   0  0  0  0  0  0  0  0  0  0  0  0
  -27.5501  -18.8144   24.9333 N   0  0  0  0  0  0  0  0  0  0  0  0
  -25.6268  -20.2163   24.7899 N   0  0  0  0  0  0  0  0  0  0  0  0
  -29.6652  -17.8208   20.1332 N   0  0  0  0  0  0  0  0  0  0  0  0
  -27.6155  -14.6100   17.7071 N   0  0  0  0  0  0  0  0  0  0  0  0
  -26.6120  -31.4683   20.5804 N   0  0  0  0  0  0  0  0  0  0  0  0
  -21.8363  -27.6298   21.3088 N   0  0  0  0  0  0  0  0  0  0  0  0
  -20.6369  -24.6715   19.6123 N   0  3  0  0  0  0  0  0  0  0  0  0
  -29.2259  -16.2417   17.6532 O   0  0  0  0  0  0  0  0  0  0  0  0
  -27.5638  -29.5528   21.5010 O   0  0  0  0  0  0  0  0  0  0  0  0
  -23.2547  -29.9434   20.3903 O   0  0  0  0  0  0  0  0  0  0  0  0
  -22.4792  -25.4212   21.6023 O   0  0  0  0  0  0  0  0  0  0  0  0
  -26.8021  -20.0648   26.7199 O   0  0  0  0  0  0  0  0  0  0  0  0
  -23.5884  -11.1996   19.4924 O   0  0  0  0  0  0  0  0  0  0  0  0
  -29.1017  -23.8726   21.2932 O   0  0  0  0  0  0  0  0  0  1  0  0
  -23.1450   -7.1736   23.2338 F   0  0  0  0  0  0  0  0  0  0  0  0
  -22.7710  -11.7479   22.0757 F   0  0  0  0  0  0  0  0  0  0  0  0
  1  2  1  0  0  0  0
  1  5  2  0  0  0  0
  2  6  2  0  0  0  0
  3  8  2  0  0  0  0
  3 16  1  0  0  0  0
  4  9  1  0  0  0  0
  4 16  2  0  0  0  0
  5 18  1  0  0  0  0
  6 20  1  0  0  0  0
  7 10  2  0  0  0  0
  7 19  1  0  0  0  0
  8 22  1  0  0  0  0
  9 22  2  0  0  0  0
 10 23  1  0  0  0  0
 11 12  2  0  0  0  0
 11 24  1  0  0  0  0
 12 25  1  0  0  0  0
 13 21  1  0  0  0  0
 13 23  2  0  0  0  0
 14 25  2  0  0  0  0
 14 26  1  0  0  0  0
 15 28  2  0  0  0  0
 15 65  1  0  0  0  0
 16 27  1  0  0  0  0
 17 27  1  0  0  0  0
 17 29  2  0  0  0  0
 17 31  1  0  0  0  0
 18 20  2  0  0  0  0
 18 36  1  0  0  0  0
 19 21  2  0  0  0  0
 19 37  1  0  0  0  0
 20 49  1  0  0  0  0
 21 38  1  0  0  0  0
 22 81  1  0  0  0  0
 23 82  1  0  0  0  0
 24 26  2  0  0  0  0
 24 81  1  0  0  0  0
 25 83  1  0  0  0  0
 26 84  1  0  0  0  0
 27 64  2  0  0  0  0
 28 50  1  0  0  0  0
 28 67  1  0  0  0  0
 29 66  1  0  0  0  0
 29 71  1  0  0  0  0
 30 51  1  0  0  0  0
 30 65  1  0  0  0  0
 30 67  2  0  0  0  0
 31 72  1  0  0  0  0
 31 76  2  0  0  0  0
 32 52  1  0  0  0  0
 32 73  1  0  0  0  0
 32 77  2  0  0  0  0
 33 61  1  0  0  0  0
 33 68  1  0  0  0  0
 33 78  2  0  0  0  0
 34 62  1  0  0  0  0
 34 74  1  0  0  0  0
 34 79  2  0  0  0  0
 35 69  1  0  0  0  0
 35 70  1  0  0  0  0
 35 80  2  0  0  0  0
 36 39  1  0  0  0  0
 37 52  1  0  0  0  0
 38 68  1  0  0  0  0
 39 41  1  0  0  0  0
 40 44  1  0  0  0  0
 40 46  1  0  0  0  0
 41 49  1  0  0  0  0
 42 43  1  0  0  0  0
 42 51  1  0  0  0  0
 43 51  1  0  0  0  0
 44 53  1  0  0  0  0
 45 47  1  0  0  0  0
 45 50  1  0  0  0  0
 46 69  1  0  0  0  0
 47 70  1  0  0  0  0
 48 53  1  0  0  0  0
 48 69  1  0  0  0  0
 49 73  1  0  0  0  0
 50 70  1  0  0  0  0
 52 68  1  0  0  0  0
 53 66  1  0  0  0  0
 54 62  1  0  0  0  0
 55 63  1  0  0  0  0
 56 63  1  0  0  0  0
 57 63  1  0  0  0  0
 58 75  1  0  0  0  0
 59 60  1  0  0  0  0
 59 65  1  0  0  0  0
 60 82  1  0  0  0  0
 61 63  1  0  0  0  0
 61 74  1  0  0  0  0
 62 75  1  0  0  0  0
 64 66  1  0  0  0  0
M  CHG  2  67   1  75   1
M  ISO  4  35 100  60 101  70 100  82 101
M  END
> <Batch ID>
0169

> <Smiles>
CNC(C)C(=O)NC(C(=O)N1Cc2cc([101O:1][101CH2:1]Cn3cc(C4CC[100N:0]4[100C:0](=O)N4CCCC(n5nc(-c6ccc(Oc7ccc(F)cc7F)cc6)c(C(N)=O)c5N)C4)nc3C3CC3)ccc2CC1C(=O)NC1CCCc2ccccc21)C(C)(C)C

> <Shape>
0.240

> <Color>
0.054

> <Negative vol penalty>
0.000

$$$$

  -OEChem-04052322323D

 81 90  0     1  0  0  0  0  0999 V2000
  -25.9837  -38.7265   20.9685 C   0  0  0  0  0  0  0  0  0  0  0  0
  -26.6240  -37.7207   20.2517 C   0  0  0  0  0  0  0  0  0  0  0  0
  -24.8611   -8.4798   21.3589 C   0  0  0  0  0  0  0  0  0  0  0  0
  -23.2490  -10.2334   21.7632 C   0  0  0  0  0  0  0  0  0  0  0  0
  -25.3999  -38.4387   22.2015 C   0  0  0  0  0  0  0  0  0  0  0  0
  -26.6819  -36.4267   20.7681 C   0  0  0  0  0  0  0  0  0  0  0  0
  -26.7209  -29.5764   18.6732 C   0  0  0  0  0  0  0  0  0  0  0  0
  -23.8277   -7.5453   21.2918 C   0  0  0  0  0  0  0  0  0  0  0  0
  -22.2156   -9.2989   21.6961 C   0  0  0  0  0  0  0  0  0  0  0  0
  -27.4577  -28.4042   18.8370 C   0  0  0  0  0  0  0  0  0  0  0  0
  -21.8578   -5.8512   23.4536 C   0  0  0  0  0  0  0  0  0  0  0  0
  -22.0282   -4.6475   24.1374 C   0  0  0  0  0  0  0  0  0  0  0  0
  -26.3451  -28.0060   20.9400 C   0  0  0  0  0  0  0  0  0  0  0  0
  -21.8125   -3.4359   22.0583 C   0  0  0  0  0  0  0  0  0  0  0  0
  -24.5717   -9.8239   21.5947 C   0  0  0  0  0  0  0  0  0  0  0  0
  -26.7175  -10.8005   22.5692 C   0  0  0  0  0  0  0  0  0  0  0  0
  -25.4422  -37.1384   22.7288 C   0  0  0  0  0  0  0  0  0  0  0  0
  -25.7970  -29.9786   19.6484 C   0  0  0  0  0  0  0  0  0  0  0  0
  -26.0993  -36.1216   22.0099 C   0  0  0  0  0  0  0  0  0  0  0  0
  -25.5960  -29.1824   20.7850 C   0  0  0  0  0  0  0  0  0  0  0  0
  -22.5050   -7.9548   21.4603 C   0  0  0  0  0  0  0  0  0  0  0  0
  -27.2719  -27.6203   19.9719 C   0  0  0  0  0  0  0  0  0  0  0  0
  -21.6647   -5.8473   22.0722 C   0  0  0  0  0  0  0  0  0  0  0  0
  -22.0056   -3.4398   23.4397 C   0  0  0  0  0  0  0  0  0  0  0  0
  -21.6420   -4.6397   21.3745 C   0  0  0  0  0  0  0  0  0  0  0  0
  -25.6387  -10.7896   21.6647 C   0  0  0  0  0  0  0  0  0  0  0  0
  -27.4442  -11.9135   22.2235 C   0  0  0  0  0  0  0  0  0  0  0  0
  -27.0343   -9.8862   23.6272 C   0  0  0  0  0  0  0  0  0  0  0  0
  -25.5080  -32.5021   21.5594 C   0  0  0  0  0  0  0  0  0  0  0  0
  -22.6722  -31.1185   22.3119 C   0  0  0  0  0  0  0  0  0  0  0  0
  -21.4593  -27.7826   22.9586 C   0  0  0  0  0  0  0  0  0  0  0  0
  -25.7281  -16.9351   19.5145 C   0  0  0  0  0  0  0  0  0  0  0  0
  -24.8381  -36.8860   24.0874 C   0  0  0  0  0  0  0  0  0  0  0  0
  -24.9908  -31.2318   19.4440 C   0  0  0  0  0  0  0  0  0  0  0  0
  -24.6017  -29.5594   21.8516 C   0  0  0  0  0  0  0  0  0  0  0  0
  -24.6175  -35.4062   24.3905 C   0  0  0  0  0  0  0  0  0  0  0  0
  -28.4914  -14.7082   18.5055 C   0  0  0  0  0  0  0  0  0  0  0  0
  -25.8569  -34.5957   24.0246 C   0  0  0  0  0  0  0  0  0  0  0  0
  -28.1266  -13.4301   19.2547 C   0  0  0  0  0  0  0  0  0  0  0  0
  -27.3371  -22.8200   21.0335 C   0  0  0  0  0  0  0  0  0  0  0  0
  -27.2532  -15.4799   18.0511 C   0  0  0  0  0  0  0  0  0  0  0  0
  -25.9355  -14.5009   19.9083 C   0  0  0  0  0  0  0  0  0  0  0  0
  -26.2270  -20.4746   18.1605 C   0  0  0  0  0  0  0  0  0  0  0  0
  -26.0875  -20.0605   20.1977 C   0  0  0  0  0  0  0  0  0  0  0  0
  -26.1614  -34.7001   22.5253 C   0  0  1  0  0  0  0  0  0  0  0  0
  -24.4489  -31.8128   20.7464 C   0  0  1  0  0  0  0  0  0  0  0  0
  -27.8854  -24.0969   20.3433 C   0  0  1  0  0  0  0  0  0  0  0  0
  -27.2299  -23.5698   19.0293 C   0  0  2  0  0  0  0  0  0  0  0  0
  -27.1679  -13.7365   20.4155 C   0  0  1  0  0  0  0  0  0  0  0  0
  -25.5349  -19.3521   18.9503 C   0  0  0  0  0  0  0  0  0  0  0  0
  -27.3506  -22.1478   19.6427 C   0  0  2  0  0  0  0  0  0  0  0  0
  -28.0024  -23.8153   17.7479 C   0  0  0  0  0  0  0  0  0  0  0  0
  -19.1711  -26.7938   22.6686 C   0  0  0  0  0  0  0  0  0  0  0  0
  -22.2994  -31.8521   25.2500 C   0  0  0  0  0  0  0  0  0  0  0  0
  -21.0364  -29.7116   25.5522 C   0  0  0  0  0  0  0  0  0  0  0  0
  -20.1723  -31.4584   23.9951 C   0  0  0  0  0  0  0  0  0  0  0  0
  -22.4913  -25.6051   21.2404 C   0  0  0  0  0  0  0  0  0  0  0  0
  -27.3736  -25.4214   20.8722 C   0  0  0  0  0  0  0  0  0  1  0  0
  -22.2121  -30.1152   23.3418 C   0  0  1  0  0  0  0  0  0  0  0  0
  -20.5566  -26.9542   22.0623 C   0  0  2  0  0  0  0  0  0  0  0  0
  -21.4567  -30.7841   24.5247 C   0  0  0  0  0  0  0  0  0  0  0  0
  -25.6731  -11.8145   20.8088 N   0  0  0  0  0  0  0  0  0  0  0  0
  -26.7822  -12.4798   21.1740 N   0  0  0  0  0  0  0  0  0  0  0  0
  -23.8421  -30.7970   21.6091 N   0  0  0  0  0  0  0  0  0  0  0  0
  -26.3184  -15.7072   19.1644 N   0  0  0  0  0  0  0  0  0  0  0  0
  -28.5785  -12.4534   22.7179 N   0  0  0  0  0  0  0  0  0  0  0  0
  -26.1811   -8.7960   23.8460 N   0  0  0  0  0  0  0  0  0  0  0  0
  -25.2704  -33.8473   21.7680 N   0  0  0  0  0  0  0  0  0  0  0  0
  -21.4287  -29.1188   22.6195 N   0  0  0  0  0  0  0  0  0  0  0  0
  -26.0697  -18.0209   18.7162 N   0  0  0  0  0  0  0  0  0  0  0  0
  -26.1734  -21.3004   19.3901 N   0  3  0  0  0  0  0  0  0  0  0  0
  -21.1379  -25.5980   21.8530 N   0  3  0  0  0  0  0  0  0  0  0  0
  -28.0350  -10.0409   24.3675 O   0  0  0  0  0  0  0  0  0  0  0  0
  -26.4687  -31.8607   21.9684 O   0  0  0  0  0  0  0  0  0  0  0  0
  -22.0138  -32.1461   22.1324 O   0  0  0  0  0  0  0  0  0  0  0  0
  -22.1222  -27.2939   23.8709 O   0  0  0  0  0  0  0  0  0  0  0  0
  -24.9482  -17.0563   20.4656 O   0  0  0  0  0  0  0  0  0  0  0  0
  -21.4964   -7.0433   21.3946 O   0  0  0  0  0  0  0  0  0  0  0  0
  -27.9902  -26.4760   20.1346 O   0  0  0  0  0  0  0  0  0  1  0  0
  -22.1708   -2.2840   24.0963 F   0  0  0  0  0  0  0  0  0  0  0  0
  -21.4581   -4.6297   20.0471 F   0  0  0  0  0  0  0  0  0  0  0  0
  1  2  1  0  0  0  0
  1  5  2  0  0  0  0
  2  6  2  0  0  0  0
  3  8  2  0  0  0  0
  3 15  1  0  0  0  0
  4  9  1  0  0  0  0
  4 15  2  0  0  0  0
  5 17  1  0  0  0  0
  6 19  1  0  0  0  0
  7 10  2  0  0  0  0
  7 18  1  0  0  0  0
  8 21  1  0  0  0  0
  9 21  2  0  0  0  0
 10 22  1  0  0  0  0
 11 12  2  0  0  0  0
 11 23  1  0  0  0  0
 12 24  1  0  0  0  0
 13 20  1  0  0  0  0
 13 22  2  0  0  0  0
 14 24  2  0  0  0  0
 14 25  1  0  0  0  0
 15 26  1  0  0  0  0
 16 26  1  0  0  0  0
 16 27  2  0  0  0  0
 16 28  1  0  0  0  0
 17 19  2  0  0  0  0
 17 33  1  0  0  0  0
 18 20  2  0  0  0  0
 18 34  1  0  0  0  0
 19 45  1  0  0  0  0
 20 35  1  0  0  0  0
 21 78  1  0  0  0  0
 22 79  1  0  0  0  0
 23 25  2  0  0  0  0
 23 78  1  0  0  0  0
 24 80  1  0  0  0  0
 25 81  1  0  0  0  0
 26 62  2  0  0  0  0
 27 63  1  0  0  0  0
 27 66  1  0  0  0  0
 28 67  1  0  0  0  0
 28 73  2  0  0  0  0
 29 46  1  0  0  0  0
 29 68  1  0  0  0  0
 29 74  2  0  0  0  0
 30 59  1  0  0  0  0
 30 64  1  0  0  0  0
 30 75  2  0  0  0  0
 31 60  1  0  0  0  0
 31 69  1  0  0  0  0
 31 76  2  0  0  0  0
 32 65  1  0  0  0  0
 32 70  1  0  0  0  0
 32 77  2  0  0  0  0
 33 36  1  0  0  0  0
 34 46  1  0  0  0  0
 35 64  1  0  0  0  0
 36 38  1  0  0  0  0
 37 39  1  0  0  0  0
 37 41  1  0  0  0  0
 38 45  1  0  0  0  0
 39 49  1  0  0  0  0
 40 47  1  0  0  0  0
 40 51  1  0  0  0  0
 41 65  1  0  0  0  0
 42 49  1  0  0  0  0
 42 65  1  0  0  0  0
 43 50  1  0  0  0  0
 43 71  1  0  0  0  0
 44 50  1  0  0  0  0
 44 71  1  0  0  0  0
 45 68  1  0  0  0  0
 46 64  1  0  0  0  0
 47 48  1  0  0  0  0
 47 58  1  0  0  0  0
 48 51  1  0  0  0  0
 48 52  1  0  0  0  0
 49 63  1  0  0  0  0
 50 70  1  0  0  0  0
 51 71  1  0  0  0  0
 53 60  1  0  0  0  0
 54 61  1  0  0  0  0
 55 61  1  0  0  0  0
 56 61  1  0  0  0  0
 57 72  1  0  0  0  0
 58 79  1  0  0  0  0
 59 61  1  0  0  0  0
 59 69  1  0  0  0  0
 60 72  1  0  0  0  0
 62 63  1  0  0  0  0
M  CHG  2  71   1  72   1
M  ISO  4  32 100  58 101  70 100  79 101
M  END
> <Batch ID>
0169

> <Smiles>
CNC(C)C(=O)NC(C(=O)N1Cc2cc([101O:1][101CH2:1]C3CC(N4CC([100NH:0][100C:0](=O)N5CCCC(n6nc(-c7ccc(Oc8ccc(F)cc8F)cc7)c(C(N)=O)c6N)C5)C4)C3C)ccc2CC1C(=O)NC1CCCc2ccccc21)C(C)(C)C

> <Shape>
0.278

> <Color>
0.116

> <Negative vol penalty>
0.000

$$$$

  -OEChem-04052322323D

 85 94  0     1  0  0  0  0  0999 V2000
  -30.4000  -25.4563   15.8401 C   0  0  0  0  0  0  0  0  0  0  0  0
  -29.1529  -26.0364   16.0488 C   0  0  0  0  0  0  0  0  0  0  0  0
  -26.3924  -13.3074   20.4434 C   0  0  0  0  0  0  0  0  0  0  0  0
  -23.9883  -13.0686   20.4384 C   0  0  0  0  0  0  0  0  0  0  0  0
  -31.0709  -24.8481   16.9003 C   0  0  0  0  0  0  0  0  0  0  0  0
  -28.5754  -26.0077   17.3177 C   0  0  0  0  0  0  0  0  0  0  0  0
  -25.0644  -30.3318   19.8634 C   0  0  0  0  0  0  0  0  0  0  0  0
  -26.5169  -12.0425   21.0179 C   0  0  0  0  0  0  0  0  0  0  0  0
  -24.1128  -11.8036   21.0129 C   0  0  0  0  0  0  0  0  0  0  0  0
  -23.6823  -30.4622   19.9923 C   0  0  0  0  0  0  0  0  0  0  0  0
  -24.8739   -8.6719   19.9962 C   0  0  0  0  0  0  0  0  0  0  0  0
  -24.0999   -7.6410   19.4637 C   0  0  0  0  0  0  0  0  0  0  0  0
  -23.8056  -29.5148   22.2074 C   0  0  0  0  0  0  0  0  0  0  0  0
  -23.0371   -7.3299   21.6110 C   0  0  0  0  0  0  0  0  0  0  0  0
  -25.1281  -13.8205   20.1537 C   0  0  0  0  0  0  0  0  0  0  0  0
  -24.9704  -15.4390   18.1882 C   0  0  0  0  0  0  0  0  0  0  0  0
  -30.5056  -24.8204   18.1849 C   0  0  0  0  0  0  0  0  0  0  0  0
  -25.8274  -29.7809   20.9030 C   0  0  0  0  0  0  0  0  0  0  0  0
  -29.2387  -25.3973   18.3958 C   0  0  0  0  0  0  0  0  0  0  0  0
  -25.1975  -29.3809   22.0902 C   0  0  0  0  0  0  0  0  0  0  0  0
  -20.2635  -29.2496   22.9803 C   0  0  0  0  0  0  0  0  0  0  0  0
  -21.0372  -27.8686   21.1696 C   0  0  0  0  0  0  0  0  0  0  0  0
  -25.3771  -11.2906   21.3027 C   0  0  0  0  0  0  0  0  0  0  0  0
  -23.0523  -30.0510   21.1633 C   0  0  0  0  0  0  0  0  0  0  0  0
  -24.7296   -9.0319   21.3361 C   0  0  0  0  0  0  0  0  0  0  0  0
  -21.0031  -29.1012   21.8123 C   0  0  0  0  0  0  0  0  0  1  0  0
  -23.1814   -6.9700   20.2711 C   0  0  0  0  0  0  0  0  0  0  0  0
  -23.8112   -8.3609   22.1435 C   0  0  0  0  0  0  0  0  0  0  0  0
  -24.9988  -15.1273   19.5607 C   0  0  0  0  0  0  0  0  0  0  0  0
  -19.5811  -28.1435   23.4609 C   0  0  0  0  0  0  0  0  0  0  0  0
  -20.3202  -26.8243   21.7311 C   0  0  0  0  0  0  0  0  0  0  0  0
  -24.8339  -16.8052   18.1491 C   0  0  0  0  0  0  0  0  0  0  0  0
  -25.0594  -14.5713   17.0503 C   0  0  0  0  0  0  0  0  0  0  0  0
  -27.6821  -27.2177   21.2093 C   0  0  0  0  0  0  0  0  0  0  0  0
  -28.3239  -28.5107   24.1142 C   0  0  0  0  0  0  0  0  0  0  0  0
  -27.3304  -30.5575   26.6579 C   0  0  0  0  0  0  0  0  0  0  0  0
  -22.4923  -20.6336   21.9738 C   0  0  0  0  0  0  0  0  0  0  0  0
  -31.2474  -24.1098   19.2892 C   0  0  0  0  0  0  0  0  0  0  0  0
  -27.3206  -29.6718   20.7588 C   0  0  0  0  0  0  0  0  0  0  0  0
  -25.9739  -28.8020   23.2437 C   0  0  0  0  0  0  0  0  0  0  0  0
  -30.7341  -24.4514   20.6857 C   0  0  0  0  0  0  0  0  0  0  0  0
  -25.8631  -20.7447   20.6639 C   0  0  0  0  0  0  0  0  0  0  0  0
  -29.2106  -24.3873   20.7249 C   0  0  0  0  0  0  0  0  0  0  0  0
  -26.0140  -19.3317   20.0977 C   0  0  0  0  0  0  0  0  0  0  0  0
  -25.0606  -20.7385   21.9620 C   0  0  0  0  0  0  0  0  0  0  0  0
  -23.8670  -18.6918   21.2878 C   0  0  0  0  0  0  0  0  0  0  0  0
  -20.4061  -23.0528   21.4214 C   0  0  0  0  0  0  0  0  0  0  0  0
  -21.3581  -24.1887   22.8907 C   0  0  0  0  0  0  0  0  0  0  0  0
  -28.5906  -25.4082   19.7632 C   0  0  1  0  0  0  0  0  0  0  0  0
  -27.9347  -28.6221   21.6800 C   0  0  1  0  0  0  0  0  0  0  0  0
  -24.6478  -18.6340   19.9624 C   0  0  2  0  0  0  0  0  0  0  0  0
  -21.2061  -22.6717   22.6797 C   0  0  0  0  0  0  0  0  0  0  0  0
  -20.2100  -30.5615   23.6883 C   0  0  0  0  0  0  0  0  0  0  0  0
  -21.8234  -27.6837   19.9155 C   0  0  0  0  0  0  0  0  0  0  0  0
  -18.7700  -28.2425   24.7113 C   0  0  0  0  0  0  0  0  0  0  0  0
  -28.0477  -31.3836   28.9163 C   0  0  0  0  0  0  0  0  0  0  0  0
  -27.5360  -25.8308   25.3419 C   0  0  0  0  0  0  0  0  0  0  0  0
  -27.3518  -26.9796   27.5588 C   0  0  0  0  0  0  0  0  0  0  0  0
  -29.5463  -26.9010   26.3753 C   0  0  0  0  0  0  0  0  0  0  0  0
  -27.3962  -33.3694   25.7370 C   0  0  0  0  0  0  0  0  0  0  0  0
  -20.3196  -25.4774   21.0852 C   0  0  0  0  0  0  0  0  0  0  0  0
  -27.7143  -28.4022   25.4910 C   0  0  1  0  0  0  0  0  0  0  0  0
  -28.0637  -31.6475   27.4187 C   0  0  2  0  0  0  0  0  0  0  0  0
  -28.0220  -27.0375   26.1695 C   0  0  0  0  0  0  0  0  0  0  0  0
  -24.8892  -16.2084   20.3374 N   0  0  0  0  0  0  0  0  0  0  0  0
  -19.5905  -26.9304   22.8642 N   0  0  0  0  0  0  0  0  0  0  0  0
  -24.7908  -17.2128   19.4500 N   0  0  0  0  0  0  0  0  0  0  0  0
  -27.4307  -28.7098   23.0520 N   0  0  0  0  0  0  0  0  0  0  0  0
  -23.7634  -20.0771   21.7597 N   0  0  0  0  0  0  0  0  0  0  0  0
  -24.7478  -17.6855   17.1293 N   0  0  0  0  0  0  0  0  0  0  0  0
  -25.1966  -13.1938   17.2697 N   0  0  0  0  0  0  0  0  0  0  0  0
  -28.6388  -26.7364   20.3361 N   0  0  0  0  0  0  0  0  0  0  0  0
  -28.1874  -29.5617   26.2395 N   0  0  0  0  0  0  0  0  0  0  0  0
  -22.4693  -21.9514   22.4178 N   0  0  0  0  0  0  0  0  0  0  0  0
  -20.1571  -24.3599   22.0543 N   0  3  0  0  0  0  0  0  0  0  0  0
  -27.4277  -32.9717   27.1680 N   0  3  0  0  0  0  0  0  0  0  0  0
  -25.0350  -15.0062   15.8740 O   0  0  0  0  0  0  0  0  0  0  0  0
  -26.6932  -26.6149   21.6099 O   0  0  0  0  0  0  0  0  0  0  0  0
  -29.5481  -28.4292   23.9868 O   0  0  0  0  0  0  0  0  0  0  0  0
  -26.1180  -30.5849   26.4582 O   0  0  0  0  0  0  0  0  0  0  0  0
  -21.4448  -20.0072   21.7789 O   0  0  0  0  0  0  0  0  0  0  0  0
  -25.4983  -10.0562   21.8630 O   0  0  0  0  0  0  0  0  0  0  0  0
  -21.7034  -30.1765   21.2914 O   0  0  0  0  0  0  0  0  0  1  0  0
  -22.4371   -5.9810   19.7593 F   0  0  0  0  0  0  0  0  0  0  0  0
  -23.6673   -8.7030   23.4312 F   0  0  0  0  0  0  0  0  0  0  0  0
  1  2  1  0  0  0  0
  1  5  2  0  0  0  0
  2  6  2  0  0  0  0
  3  8  2  0  0  0  0
  3 15  1  0  0  0  0
  4  9  1  0  0  0  0
  4 15  2  0  0  0  0
  5 17  1  0  0  0  0
  6 19  1  0  0  0  0
  7 10  2  0  0  0  0
  7 18  1  0  0  0  0
  8 23  1  0  0  0  0
  9 23  2  0  0  0  0
 10 24  1  0  0  0  0
 11 12  2  0  0  0  0
 11 25  1  0  0  0  0
 12 27  1  0  0  0  0
 13 20  1  0  0  0  0
 13 24  2  0  0  0  0
 14 27  2  0  0  0  0
 14 28  1  0  0  0  0
 15 29  1  0  0  0  0
 16 29  1  0  0  0  0
 16 32  2  0  0  0  0
 16 33  1  0  0  0  0
 17 19  2  0  0  0  0
 17 38  1  0  0  0  0
 18 20  2  0  0  0  0
 18 39  1  0  0  0  0
 19 49  1  0  0  0  0
 20 40  1  0  0  0  0
 21 26  1  0  0  0  0
 21 30  2  0  0  0  0
 21 53  1  0  0  0  0
 22 26  2  0  0  0  0
 22 31  1  0  0  0  0
 22 54  1  0  0  0  0
 23 82  1  0  0  0  0
 24 83  1  0  0  0  0
 25 28  2  0  0  0  0
 25 82  1  0  0  0  0
 26 83  1  0  0  0  0
 27 84  1  0  0  0  0
 28 85  1  0  0  0  0
 29 65  2  0  0  0  0
 30 55  1  0  0  0  0
 30 66  1  0  0  0  0
 31 61  1  0  0  0  0
 31 66  2  0  0  0  0
 32 67  1  0  0  0  0
 32 70  1  0  0  0  0
 33 71  1  0  0  0  0
 33 77  2  0  0  0  0
 34 50  1  0  0  0  0
 34 72  1  0  0  0  0
 34 78  2  0  0  0  0
 35 62  1  0  0  0  0
 35 68  1  0  0  0  0
 35 79  2  0  0  0  0
 36 63  1  0  0  0  0
 36 73  1  0  0  0  0
 36 80  2  0  0  0  0
 37 69  1  0  0  0  0
 37 74  1  0  0  0  0
 37 81  2  0  0  0  0
 38 41  1  0  0  0  0
 39 50  1  0  0  0  0
 40 68  1  0  0  0  0
 41 43  1  0  0  0  0
 42 44  1  0  0  0  0
 42 45  1  0  0  0  0
 43 49  1  0  0  0  0
 44 51  1  0  0  0  0
 45 69  1  0  0  0  0
 46 51  1  0  0  0  0
 46 69  1  0  0  0  0
 47 52  1  0  0  0  0
 47 75  1  0  0  0  0
 48 52  1  0  0  0  0
 48 75  1  0  0  0  0
 49 72  1  0  0  0  0
 50 68  1  0  0  0  0
 51 67  1  0  0  0  0
 52 74  1  0  0  0  0
 56 63  1  0  0  0  0
 57 64  1  0  0  0  0
 58 64  1  0  0  0  0
 59 64  1  0  0  0  0
 60 76  1  0  0  0  0
 61 75  1  0  0  0  0
 62 64  1  0  0  0  0
 62 73  1  0  0  0  0
 63 76  1  0  0  0  0
 65 67  1  0  0  0  0
M  CHG  2  75   1  76   1
M  ISO  4  26 101  37 100  74 100  83 101
M  END
> <Batch ID>
0169

> <Smiles>
CNC(C)C(=O)NC(C(=O)N1Cc2cc([101O:1][101c:1]3c(C)c(C)nc(CN4CC([100NH:0][100C:0](=O)N5CCCC(n6nc(-c7ccc(Oc8ccc(F)cc8F)cc7)c(C(N)=O)c6N)C5)C4)c3C)ccc2CC1C(=O)NC1CCCc2ccccc21)C(C)(C)C

> <Shape>
0.238

> <Color>
0.047

> <Negative vol penalty>
0.000

$$$$

  -OEChem-04052322323D

 88 98  0     1  0  0  0  0  0999 V2000
  -27.2142  -34.5317   24.6487 C   0  0  0  0  0  0  0  0  0  0  0  0
  -27.5151  -33.2273   24.2700 C   0  0  0  0  0  0  0  0  0  0  0  0
  -24.0354  -10.0071   22.1996 C   0  0  0  0  0  0  0  0  0  0  0  0
  -22.5667  -10.3475   20.3118 C   0  0  0  0  0  0  0  0  0  0  0  0
  -25.8990  -34.8833   24.9492 C   0  0  0  0  0  0  0  0  0  0  0  0
  -26.5009  -32.2734   24.1927 C   0  0  0  0  0  0  0  0  0  0  0  0
  -26.8005  -29.4551   19.9960 C   0  0  0  0  0  0  0  0  0  0  0  0
  -23.1577   -9.0507   22.7100 C   0  0  0  0  0  0  0  0  0  0  0  0
  -21.6890   -9.3910   20.8221 C   0  0  0  0  0  0  0  0  0  0  0  0
  -27.7509  -28.4353   19.9804 C   0  0  0  0  0  0  0  0  0  0  0  0
  -22.4037   -5.8046   22.1380 C   0  0  0  0  0  0  0  0  0  0  0  0
  -22.9494   -4.6125   22.6142 C   0  0  0  0  0  0  0  0  0  0  0  0
  -26.0261  -26.8282   20.4919 C   0  0  0  0  0  0  0  0  0  0  0  0
  -22.0272   -5.0640   24.8012 C   0  0  0  0  0  0  0  0  0  0  0  0
  -23.7399  -10.6555   21.0005 C   0  0  0  0  0  0  0  0  0  0  0  0
  -25.7241  -11.4262   19.5946 C   0  0  0  0  0  0  0  0  0  0  0  0
  -24.8666  -33.9357   24.8662 C   0  0  0  0  0  0  0  0  0  0  0  0
  -25.4552  -29.1702   20.2708 C   0  0  0  0  0  0  0  0  0  0  0  0
  -25.1708  -32.6124   24.4936 C   0  0  0  0  0  0  0  0  0  0  0  0
  -25.0601  -27.8459   20.5078 C   0  0  0  0  0  0  0  0  0  0  0  0
  -21.9845   -8.7426   22.0213 C   0  0  0  0  0  0  0  0  0  0  0  0
  -27.3643  -27.1220   20.2312 C   0  0  0  0  0  0  0  0  0  0  0  0
  -21.6698   -6.6264   22.9934 C   0  0  0  0  0  0  0  0  0  0  0  0
  -22.7611   -4.2422   23.9457 C   0  0  0  0  0  0  0  0  0  0  0  0
  -21.4815   -6.2561   24.3250 C   0  0  0  0  0  0  0  0  0  0  0  0
  -24.6458  -11.6440   20.4731 C   0  0  0  0  0  0  0  0  0  0  0  0
  -26.2644  -12.6736   19.3982 C   0  0  0  0  0  0  0  0  0  0  0  0
  -28.8779  -23.8575   21.6378 C   0  0  0  0  0  0  0  0  0  0  0  0
  -29.3292  -25.0390   22.0758 C   0  0  0  0  0  0  0  0  0  0  0  0
  -28.8618  -22.7248   22.5967 C   0  0  0  0  0  0  0  0  0  0  0  0
  -29.7399  -24.0837   24.2842 C   0  0  0  0  0  0  0  0  0  0  0  0
  -26.1952  -10.2054   19.0086 C   0  0  0  0  0  0  0  0  0  0  0  0
  -23.4003  -30.0228   22.5411 C   0  0  0  0  0  0  0  0  0  0  0  0
  -21.2820  -28.4144   20.6842 C   0  0  0  0  0  0  0  0  0  0  0  0
  -20.7416  -26.0174   18.3158 C   0  0  0  0  0  0  0  0  0  0  0  0
  -28.0084  -17.4536   21.1231 C   0  0  0  0  0  0  0  0  0  0  0  0
  -23.4675  -34.3512   25.2464 C   0  0  0  0  0  0  0  0  0  0  0  0
  -24.4377  -30.2779   20.2575 C   0  0  0  0  0  0  0  0  0  0  0  0
  -23.6251  -27.4845   20.7881 C   0  0  0  0  0  0  0  0  0  0  0  0
  -22.3931  -33.3734   24.7774 C   0  0  0  0  0  0  0  0  0  0  0  0
  -24.5346  -17.2548   20.6362 C   0  0  0  0  0  0  0  0  0  0  0  0
  -22.7992  -31.9389   25.1003 C   0  0  0  0  0  0  0  0  0  0  0  0
  -24.3348  -15.7477   20.4798 C   0  0  0  0  0  0  0  0  0  0  0  0
  -29.3026  -27.5319   24.3314 C   0  0  0  0  0  0  0  0  0  0  0  0
  -30.2199  -26.8472   25.3002 C   0  0  0  0  0  0  0  0  0  0  0  0
  -25.5519  -17.5871   21.7291 C   0  0  0  0  0  0  0  0  0  0  0  0
  -28.5436  -21.1094   20.7707 C   0  0  0  0  0  0  0  0  0  0  0  0
  -27.5973  -20.6586   23.0192 C   0  0  0  0  0  0  0  0  0  0  0  0
  -29.0181  -19.6624   20.6846 C   0  0  0  0  0  0  0  0  0  0  0  0
  -28.0892  -19.2195   22.9243 C   0  0  0  0  0  0  0  0  0  0  0  0
  -26.6560  -15.3972   21.4060 C   0  0  0  0  0  0  0  0  0  0  0  0
  -24.0943  -31.5555   24.3742 C   0  0  1  0  0  0  0  0  0  0  0  0
  -23.1815  -29.9449   21.0566 C   0  0  1  0  0  0  0  0  0  0  0  0
  -25.6813  -15.0306   20.2760 C   0  0  1  0  0  0  0  0  0  0  0  0
  -30.2498  -26.4697   23.8445 C   0  0  0  0  0  0  0  0  0  0  0  0
  -30.6712  -26.2787   20.3768 C   0  0  0  0  0  0  0  0  0  0  0  0
  -18.9003  -24.9022   17.0261 C   0  0  0  0  0  0  0  0  0  0  0  0
  -20.5312  -26.7965   23.1598 C   0  0  0  0  0  0  0  0  0  0  0  0
  -19.4385  -25.1246   21.6502 C   0  0  0  0  0  0  0  0  0  0  0  0
  -18.5951  -27.4709   21.7276 C   0  0  0  0  0  0  0  0  0  0  0  0
  -21.8447  -26.9311   15.7259 C   0  0  0  0  0  0  0  0  0  0  0  0
  -29.3659  -26.2213   21.1471 C   0  0  1  0  0  0  0  0  0  1  0  0
  -20.8048  -26.9847   20.5994 C   0  0  1  0  0  0  0  0  0  0  0  0
  -19.9205  -26.0299   17.0390 C   0  0  2  0  0  0  0  0  0  0  0  0
  -19.8698  -26.6009   21.7809 C   0  0  0  0  0  0  0  0  0  0  0  0
  -24.5079  -12.9287   20.8114 N   0  0  0  0  0  0  0  0  0  0  0  0
  -29.2724  -22.8667   23.8270 N   0  0  0  0  0  0  0  0  0  0  0  0
  -25.5066  -13.5294   20.1422 N   0  0  0  0  0  0  0  0  0  0  0  0
  -29.7636  -25.1761   23.3903 N   0  0  0  0  0  0  0  0  0  0  0  0
  -28.4070  -21.5256   22.1650 N   0  0  0  0  0  0  0  0  0  0  0  0
  -22.6686  -28.6036   20.7704 N   0  0  0  0  0  0  0  0  0  0  0  0
  -26.8046  -16.8499   21.5160 N   0  0  0  0  0  0  0  0  0  0  0  0
  -28.2140  -18.7817   21.5290 N   0  0  0  0  0  0  0  0  0  0  0  0
  -27.3090  -13.1109   18.6634 N   0  0  0  0  0  0  0  0  0  0  0  0
  -25.5244   -9.0140   19.3166 N   0  0  0  0  0  0  0  0  0  0  0  0
  -23.8256  -31.2611   22.9829 N   0  0  0  0  0  0  0  0  0  0  0  0
  -20.1954  -26.8352   19.2823 N   0  0  0  0  0  0  0  0  0  0  0  0
  -20.8073  -25.8751   15.8513 N   0  3  0  0  0  0  0  0  0  0  0  0
  -30.1236  -24.1951   25.4505 O   0  0  0  0  0  0  0  0  0  0  0  0
  -27.1919  -10.1697   18.2477 O   0  0  0  0  0  0  0  0  0  0  0  0
  -23.1968  -29.0331   23.2345 O   0  0  0  0  0  0  0  0  0  0  0  0
  -20.4554  -29.3298   20.6671 O   0  0  0  0  0  0  0  0  0  0  0  0
  -21.7632  -25.3462   18.4442 O   0  0  0  0  0  0  0  0  0  0  0  0
  -28.8487  -16.8466   20.4475 O   0  0  0  0  0  0  0  0  0  0  0  0
  -21.1280   -7.8092   22.5189 O   0  0  0  0  0  0  0  0  0  0  0  0
  -28.2971  -26.1172   20.2172 O   0  0  0  0  0  0  0  0  0  1  0  0
  -23.2839   -3.0967   24.4025 F   0  0  0  0  0  0  0  0  0  0  0  0
  -20.7764   -7.0410   25.1512 F   0  0  0  0  0  0  0  0  0  0  0  0
  1  2  1  0  0  0  0
  1  5  2  0  0  0  0
  2  6  2  0  0  0  0
  3  8  2  0  0  0  0
  3 15  1  0  0  0  0
  4  9  1  0  0  0  0
  4 15  2  0  0  0  0
  5 17  1  0  0  0  0
  6 19  1  0  0  0  0
  7 10  2  0  0  0  0
  7 18  1  0  0  0  0
  8 21  1  0  0  0  0
  9 21  2  0  0  0  0
 10 22  1  0  0  0  0
 11 12  2  0  0  0  0
 11 23  1  0  0  0  0
 12 24  1  0  0  0  0
 13 20  1  0  0  0  0
 13 22  2  0  0  0  0
 14 24  2  0  0  0  0
 14 25  1  0  0  0  0
 15 26  1  0  0  0  0
 16 26  1  0  0  0  0
 16 27  2  0  0  0  0
 16 32  1  0  0  0  0
 17 19  2  0  0  0  0
 17 37  1  0  0  0  0
 18 20  2  0  0  0  0
 18 38  1  0  0  0  0
 19 52  1  0  0  0  0
 20 39  1  0  0  0  0
 21 85  1  0  0  0  0
 22 86  1  0  0  0  0
 23 25  2  0  0  0  0
 23 85  1  0  0  0  0
 24 87  1  0  0  0  0
 25 88  1  0  0  0  0
 26 66  2  0  0  0  0
 27 68  1  0  0  0  0
 27 74  1  0  0  0  0
 28 29  2  0  0  0  0
 28 30  1  0  0  0  0
 29 62  1  0  0  0  0
 29 69  1  0  0  0  0
 30 67  2  0  0  0  0
 30 70  1  0  0  0  0
 31 67  1  0  0  0  0
 31 69  1  0  0  0  0
 31 79  2  0  0  0  0
 32 75  1  0  0  0  0
 32 80  2  0  0  0  0
 33 53  1  0  0  0  0
 33 76  1  0  0  0  0
 33 81  2  0  0  0  0
 34 63  1  0  0  0  0
 34 71  1  0  0  0  0
 34 82  2  0  0  0  0
 35 64  1  0  0  0  0
 35 77  1  0  0  0  0
 35 83  2  0  0  0  0
 36 72  1  0  0  0  0
 36 73  1  0  0  0  0
 36 84  2  0  0  0  0
 37 40  1  0  0  0  0
 38 53  1  0  0  0  0
 39 71  1  0  0  0  0
 40 42  1  0  0  0  0
 41 43  1  0  0  0  0
 41 46  1  0  0  0  0
 42 52  1  0  0  0  0
 43 54  1  0  0  0  0
 44 45  1  0  0  0  0
 44 55  1  0  0  0  0
 45 55  1  0  0  0  0
 46 72  1  0  0  0  0
 47 49  1  0  0  0  0
 47 70  1  0  0  0  0
 48 50  1  0  0  0  0
 48 70  1  0  0  0  0
 49 73  1  0  0  0  0
 50 73  1  0  0  0  0
 51 54  1  0  0  0  0
 51 72  1  0  0  0  0
 52 76  1  0  0  0  0
 53 71  1  0  0  0  0
 54 68  1  0  0  0  0
 55 69  1  0  0  0  0
 56 62  1  0  0  0  0
 57 64  1  0  0  0  0
 58 65  1  0  0  0  0
 59 65  1  0  0  0  0
 60 65  1  0  0  0  0
 61 78  1  0  0  0  0
 62 86  1  0  0  0  0
 63 65  1  0  0  0  0
 63 77  1  0  0  0  0
 64 78  1  0  0  0  0
 66 68  1  0  0  0  0
M  CHG  1  78   1
M  ISO  4  36 100  62 101  73 100  86 101
M  END
> <Batch ID>
0169

> <Smiles>
CNC(C)C(=O)NC(C(=O)N1Cc2cc([101O:1][101CH:1](C)c3cc(N4CC[100N:0]([100C:0](=O)N5CCCC(n6nc(-c7ccc(Oc8ccc(F)cc8F)cc7)c(C(N)=O)c6N)C5)CC4)nc(=O)n3C3CC3)ccc2CC1C(=O)NC1CCCc2ccccc21)C(C)(C)C

> <Shape>
0.314

> <Color>
0.090

> <Negative vol penalty>
0.000

$$$$
