
  -OEChem-04052322353D

 91102  0     1  0  0  0  0  0999 V2000
  -23.7723  -35.5049   15.3254 C   0  0  0  0  0  0  0  0  0  0  0  0
  -24.3513  -34.2448   15.4371 C   0  0  0  0  0  0  0  0  0  0  0  0
  -24.1138   -9.5215   22.2455 C   0  0  0  0  0  0  0  0  0  0  0  0
  -23.9586   -8.7771   19.9523 C   0  0  0  0  0  0  0  0  0  0  0  0
  -23.8130  -36.3876   16.4039 C   0  0  0  0  0  0  0  0  0  0  0  0
  -24.9724  -33.8672   16.6271 C   0  0  0  0  0  0  0  0  0  0  0  0
  -25.1110  -28.2616   19.0897 C   0  0  0  0  0  0  0  0  0  0  0  0
  -22.8225   -9.0520   22.4854 C   0  0  0  0  0  0  0  0  0  0  0  0
  -22.6672   -8.3076   20.1921 C   0  0  0  0  0  0  0  0  0  0  0  0
  -26.0734  -27.2530   19.0723 C   0  0  0  0  0  0  0  0  0  0  0  0
  -19.7026   -7.7254   23.7975 C   0  0  0  0  0  0  0  0  0  0  0  0
  -19.4832   -7.0004   24.9687 C   0  0  0  0  0  0  0  0  0  0  0  0
  -26.9001  -28.0134   21.2072 C   0  0  0  0  0  0  0  0  0  0  0  0
  -30.9948  -22.3275   19.4920 C   0  0  0  0  0  0  0  0  0  0  0  0
  -21.1022   -5.3557   24.2541 C   0  0  0  0  0  0  0  0  0  0  0  0
  -24.6819   -9.3841   20.9790 C   0  0  0  0  0  0  0  0  0  0  0  0
  -27.2209   -9.1573   20.8798 C   0  0  0  0  0  0  0  0  0  0  0  0
  -24.4264  -36.0170   17.6109 C   0  0  0  0  0  0  0  0  0  0  0  0
  -25.0428  -29.1620   20.1626 C   0  0  0  0  0  0  0  0  0  0  0  0
  -25.0225  -34.7463   17.7223 C   0  0  0  0  0  0  0  0  0  0  0  0
  -25.9342  -29.0310   21.2370 C   0  0  0  0  0  0  0  0  0  0  0  0
  -30.3351  -24.5955   18.9845 C   0  0  0  0  0  0  0  0  0  0  0  0
  -28.6572  -22.9376   19.5069 C   0  0  0  0  0  0  0  0  0  0  0  0
  -31.3342  -23.6361   19.1486 C   0  0  0  0  0  0  0  0  0  0  0  0
  -28.9966  -24.2463   19.1636 C   0  0  0  0  0  0  0  0  0  0  0  0
  -22.0991   -8.4451   21.4587 C   0  0  0  0  0  0  0  0  0  0  0  0
  -26.9700  -27.1306   20.1298 C   0  0  0  0  0  0  0  0  0  0  0  0
  -20.6218   -7.2654   22.8544 C   0  0  0  0  0  0  0  0  0  0  0  0
  -29.6563  -21.9782   19.6711 C   0  0  0  0  0  0  0  0  0  0  0  0
  -20.1830   -5.8156   25.1971 C   0  0  0  0  0  0  0  0  0  0  0  0
  -21.3216   -6.0806   23.0827 C   0  0  0  0  0  0  0  0  0  0  0  0
  -26.0157   -9.8693   20.7305 C   0  0  0  0  0  0  0  0  0  0  0  0
  -28.1967  -10.0551   20.5214 C   0  0  0  0  0  0  0  0  0  0  0  0
  -27.4389   -7.8053   21.3043 C   0  0  0  0  0  0  0  0  0  0  0  0
  -25.3754  -32.3076   20.4757 C   0  0  0  0  0  0  0  0  0  0  0  0
  -24.4464  -31.7099   23.5257 C   0  0  0  0  0  0  0  0  0  0  0  0
  -24.1951  -29.4749   26.0925 C   0  0  0  0  0  0  0  0  0  0  0  0
  -28.5892  -15.8186   20.6467 C   0  0  0  0  0  0  0  0  0  0  0  0
  -24.4870  -37.0227   18.7332 C   0  0  0  0  0  0  0  0  0  0  0  0
  -23.9816  -30.2279   20.1789 C   0  0  0  0  0  0  0  0  0  0  0  0
  -25.8898  -29.9595   22.4220 C   0  0  0  0  0  0  0  0  0  0  0  0
  -24.8357  -36.4062   20.0855 C   0  0  0  0  0  0  0  0  0  0  0  0
  -28.9475  -13.8729   17.7470 C   0  0  0  0  0  0  0  0  0  0  0  0
  -30.0822  -26.6125   17.3902 C   0  0  0  0  0  0  0  0  0  0  0  0
  -31.5298  -26.2325   17.3810 C   0  0  0  0  0  0  0  0  0  0  0  0
  -26.3939  -23.3288   20.6896 C   0  0  0  0  0  0  0  0  0  0  0  0
  -26.8086  -21.9250   21.0021 C   0  0  0  0  0  0  0  0  0  0  0  0
  -26.0183  -35.4525   19.9483 C   0  0  0  0  0  0  0  0  0  0  0  0
  -28.3486  -12.5414   18.1992 C   0  0  0  0  0  0  0  0  0  0  0  0
  -30.7294  -18.7150   19.7648 C   0  0  0  0  0  0  0  0  0  0  0  0
  -28.5123  -18.9316   18.5617 C   0  0  0  0  0  0  0  0  0  0  0  0
  -28.1467  -15.0677   18.2676 C   0  0  0  0  0  0  0  0  0  0  0  0
  -30.0586  -17.7951   20.7837 C   0  0  0  0  0  0  0  0  0  0  0  0
  -27.8919  -18.0103   19.6096 C   0  0  0  0  0  0  0  0  0  0  0  0
  -27.3417  -13.7290   20.1850 C   0  0  0  0  0  0  0  0  0  0  0  0
  -30.7023  -25.9978   18.6147 C   0  0  0  0  0  0  0  0  0  0  0  0
  -27.2242  -22.5562   19.7016 C   0  0  0  0  0  0  0  0  0  0  0  0
  -25.6837  -34.2907   19.0050 C   0  0  1  0  0  0  0  0  0  0  0  0
  -24.3340  -31.4081   21.0791 C   0  0  1  0  0  0  0  0  0  0  0  0
  -28.1586  -12.5110   19.7262 C   0  0  1  0  0  0  0  0  0  0  0  0
  -29.7423  -19.6700   19.0926 C   0  0  0  0  0  0  0  0  0  0  0  0
  -32.7755  -23.9818   18.9615 C   0  0  0  0  0  0  0  0  0  0  0  0
  -23.4272  -29.2888   28.4743 C   0  0  0  0  0  0  0  0  0  0  0  0
  -26.9494  -33.1923   24.4460 C   0  0  0  0  0  0  0  0  0  0  0  0
  -26.6370  -32.1710   26.7105 C   0  0  0  0  0  0  0  0  0  0  0  0
  -24.8925  -33.6910   25.7783 C   0  0  0  0  0  0  0  0  0  0  0  0
  -22.1857  -27.4137   25.4053 C   0  0  0  0  0  0  0  0  0  0  0  0
  -27.9246  -25.2759   18.9875 C   0  0  0  0  0  0  0  0  0  1  0  0
  -25.1580  -31.3695   24.8128 C   0  0  1  0  0  0  0  0  0  0  0  0
  -23.0401  -29.1237   27.0129 C   0  0  2  0  0  0  0  0  0  0  0  0
  -25.9116  -32.5895   25.4138 C   0  0  0  0  0  0  0  0  0  0  0  0
  -26.2059  -11.1228   20.3102 N   0  0  0  0  0  0  0  0  0  0  0  0
  -27.5421  -11.2055   20.1925 N   0  0  0  0  0  0  0  0  0  0  0  0
  -24.8383  -30.9893   22.3885 N   0  0  0  0  0  0  0  0  0  0  0  0
  -27.9578  -14.9739   19.7214 N   0  0  0  0  0  0  0  0  0  0  0  0
  -28.8926  -17.1206   20.2140 N   0  0  0  0  0  0  0  0  0  0  0  0
  -29.5422   -9.9647   20.4589 N   0  0  0  0  0  0  0  0  0  0  0  0
  -26.3254   -7.0211   21.6351 N   0  0  0  0  0  0  0  0  0  0  0  0
  -24.8583  -33.3127   19.6808 N   0  0  0  0  0  0  0  0  0  0  0  0
  -24.1499  -30.7951   25.6971 N   0  0  0  0  0  0  0  0  0  0  0  0
  -22.6156  -27.7118   26.7957 N   0  3  0  0  0  0  0  0  0  0  0  0
  -28.5882   -7.3126   21.4037 O   0  0  0  0  0  0  0  0  0  0  0  0
  -26.5601  -32.1057   20.7150 O   0  0  0  0  0  0  0  0  0  0  0  0
  -23.5699  -32.5779   23.5305 O   0  0  0  0  0  0  0  0  0  0  0  0
  -25.0538  -28.6606   25.7607 O   0  0  0  0  0  0  0  0  0  0  0  0
  -28.8693  -15.4345   21.7891 O   0  0  0  0  0  0  0  0  0  0  0  0
  -20.8391   -7.9867   21.6924 O   0  0  0  0  0  0  0  0  0  0  0  0
  -29.3446  -20.6876   20.0090 O   0  0  0  0  0  0  0  0  0  0  0  0
  -27.9178  -26.1401   20.1150 O   0  0  0  0  0  0  0  0  0  1  0  0
  -19.9733   -5.1204   26.3226 F   0  0  0  0  0  0  0  0  0  0  0  0
  -22.2067   -5.6343   22.1810 F   0  0  0  0  0  0  0  0  0  0  0  0
  1  2  1  0  0  0  0
  1  5  2  0  0  0  0
  2  6  2  0  0  0  0
  3  8  2  0  0  0  0
  3 16  1  0  0  0  0
  4  9  1  0  0  0  0
  4 16  2  0  0  0  0
  5 18  1  0  0  0  0
  6 20  1  0  0  0  0
  7 10  2  0  0  0  0
  7 19  1  0  0  0  0
  8 26  1  0  0  0  0
  9 26  2  0  0  0  0
 10 27  1  0  0  0  0
 11 12  2  0  0  0  0
 11 28  1  0  0  0  0
 12 30  1  0  0  0  0
 13 21  1  0  0  0  0
 13 27  2  0  0  0  0
 14 24  1  0  0  0  0
 14 29  2  0  0  0  0
 15 30  2  0  0  0  0
 15 31  1  0  0  0  0
 16 32  1  0  0  0  0
 17 32  1  0  0  0  0
 17 33  2  0  0  0  0
 17 34  1  0  0  0  0
 18 20  2  0  0  0  0
 18 39  1  0  0  0  0
 19 21  2  0  0  0  0
 19 40  1  0  0  0  0
 20 58  1  0  0  0  0
 21 41  1  0  0  0  0
 22 24  2  0  0  0  0
 22 25  1  0  0  0  0
 22 56  1  0  0  0  0
 23 25  2  0  0  0  0
 23 29  1  0  0  0  0
 23 57  1  0  0  0  0
 24 62  1  0  0  0  0
 25 68  1  0  0  0  0
 26 87  1  0  0  0  0
 27 89  1  0  0  0  0
 28 31  2  0  0  0  0
 28 87  1  0  0  0  0
 29 88  1  0  0  0  0
 30 90  1  0  0  0  0
 31 91  1  0  0  0  0
 32 72  2  0  0  0  0
 33 73  1  0  0  0  0
 33 77  1  0  0  0  0
 34 78  1  0  0  0  0
 34 82  2  0  0  0  0
 35 59  1  0  0  0  0
 35 79  1  0  0  0  0
 35 83  2  0  0  0  0
 36 69  1  0  0  0  0
 36 74  1  0  0  0  0
 36 84  2  0  0  0  0
 37 70  1  0  0  0  0
 37 80  1  0  0  0  0
 37 85  2  0  0  0  0
 38 75  1  0  0  0  0
 38 76  1  0  0  0  0
 38 86  2  0  0  0  0
 39 42  1  0  0  0  0
 40 59  1  0  0  0  0
 41 74  1  0  0  0  0
 42 48  1  0  0  0  0
 43 49  1  0  0  0  0
 43 52  1  0  0  0  0
 44 45  1  0  0  0  0
 44 56  1  0  0  0  0
 45 56  1  0  0  0  0
 46 47  1  0  0  0  0
 46 57  1  0  0  0  0
 47 57  1  0  0  0  0
 48 58  1  0  0  0  0
 49 60  1  0  0  0  0
 50 53  1  0  0  0  0
 50 61  1  0  0  0  0
 51 54  1  0  0  0  0
 51 61  1  0  0  0  0
 52 75  1  0  0  0  0
 53 76  1  0  0  0  0
 54 76  1  0  0  0  0
 55 60  1  0  0  0  0
 55 75  1  0  0  0  0
 58 79  1  0  0  0  0
 59 74  1  0  0  0  0
 60 73  1  0  0  0  0
 61 88  1  0  0  0  0
 63 70  1  0  0  0  0
 64 71  1  0  0  0  0
 65 71  1  0  0  0  0
 66 71  1  0  0  0  0
 67 81  1  0  0  0  0
 68 89  1  0  0  0  0
 69 71  1  0  0  0  0
 69 80  1  0  0  0  0
 70 81  1  0  0  0  0
 72 73  1  0  0  0  0
M  CHG  1  81   1
M  ISO  4  38 100  68 101  76 100  89 101
M  END
> <Batch ID>
0170

> <Smiles>
CNC(C)C(=O)NC(C(=O)N1Cc2cc([101O:1][101CH2:1]c3c(C4CC4)c(C)cc(OC4CC[100N:0]([100C:0](=O)N5CCCC(n6nc(-c7ccc(Oc8ccc(F)cc8F)cc7)c(C(N)=O)c6N)C5)CC4)c3C3CC3)ccc2CC1C(=O)NC1CCCc2ccccc21)C(C)(C)C

> <Shape>
0.301

> <Color>
0.122

> <Negative vol penalty>
0.000

$$$$

  -OEChem-04052322353D

 85 95  0     1  0  0  0  0  0999 V2000
  -22.3622  -29.9159   18.3458 C   0  0  0  0  0  0  0  0  0  0  0  0
  -23.3497  -28.9600   18.1302 C   0  0  0  0  0  0  0  0  0  0  0  0
  -23.1910   -9.7501   19.9637 C   0  0  0  0  0  0  0  0  0  0  0  0
  -23.7935   -9.9168   22.2974 C   0  0  0  0  0  0  0  0  0  0  0  0
  -22.4754  -30.8048   19.4139 C   0  0  0  0  0  0  0  0  0  0  0  0
  -24.4516  -28.8931   18.9821 C   0  0  0  0  0  0  0  0  0  0  0  0
  -27.4619  -23.8505   20.7188 C   0  0  0  0  0  0  0  0  0  0  0  0
  -34.4708  -21.8482   18.1496 C   0  0  0  0  0  0  0  0  0  0  0  0
  -22.4613   -8.5927   20.2347 C   0  0  0  0  0  0  0  0  0  0  0  0
  -23.0638   -8.7594   22.5685 C   0  0  0  0  0  0  0  0  0  0  0  0
  -28.6430  -23.2616   20.2694 C   0  0  0  0  0  0  0  0  0  0  0  0
  -19.4426   -7.7984   21.5346 C   0  0  0  0  0  0  0  0  0  0  0  0
  -18.1732   -7.6849   20.9680 C   0  0  0  0  0  0  0  0  0  0  0  0
  -33.2105  -22.3679   18.4358 C   0  0  0  0  0  0  0  0  0  0  0  0
  -29.8606  -24.3746   22.0295 C   0  0  0  0  0  0  0  0  0  0  0  0
  -18.8700   -5.6833   19.8080 C   0  0  0  0  0  0  0  0  0  0  0  0
  -23.8572  -10.4122   20.9951 C   0  0  0  0  0  0  0  0  0  0  0  0
  -24.1425  -12.9345   20.7421 C   0  0  0  0  0  0  0  0  0  0  0  0
  -23.5744  -30.7425   20.2851 C   0  0  0  0  0  0  0  0  0  0  0  0
  -27.4730  -24.7159   21.8222 C   0  0  0  0  0  0  0  0  0  0  0  0
  -24.5803  -29.7829   20.0621 C   0  0  0  0  0  0  0  0  0  0  0  0
  -34.7237  -20.5372   18.4986 C   0  0  0  0  0  0  0  0  0  0  0  0
  -28.6778  -24.9712   22.4925 C   0  0  0  0  0  0  0  0  0  0  0  0
  -22.3976   -8.0974   21.5371 C   0  0  0  0  0  0  0  0  0  0  0  0
  -29.8430  -23.5259   20.9230 C   0  0  0  0  0  0  0  0  0  0  0  0
  -20.4258   -6.8544   21.2380 C   0  0  0  0  0  0  0  0  0  0  0  0
  -17.8868   -6.6273   20.1047 C   0  0  0  0  0  0  0  0  0  0  0  0
  -20.1395   -5.7969   20.3747 C   0  0  0  0  0  0  0  0  0  0  0  0
  -24.6116  -11.6075   20.7156 C   0  0  0  0  0  0  0  0  0  0  0  0
  -33.7167  -19.7913   19.1045 C   0  0  0  0  0  0  0  0  0  0  0  0
  -32.2676  -21.5399   19.0456 C   0  0  0  0  0  0  0  0  0  0  0  0
  -25.2375  -13.6926   20.4062 C   0  0  0  0  0  0  0  0  0  0  0  0
  -22.8340  -13.4370   21.0436 C   0  0  0  0  0  0  0  0  0  0  0  0
  -26.7536  -27.7783   22.2783 C   0  0  0  0  0  0  0  0  0  0  0  0
  -27.2762  -27.0343   25.3921 C   0  0  0  0  0  0  0  0  0  0  0  0
  -28.7891  -24.9902   27.6679 C   0  0  0  0  0  0  0  0  0  0  0  0
  -30.5747  -14.8427   21.1906 C   0  0  0  0  0  0  0  0  0  0  0  0
  -23.6769  -31.7553   21.3980 C   0  0  0  0  0  0  0  0  0  0  0  0
  -26.1861  -25.3221   22.3109 C   0  0  0  0  0  0  0  0  0  0  0  0
  -35.9538  -19.7188   18.2822 C   0  0  0  0  0  0  0  0  0  0  0  0
  -28.7402  -25.8770   23.6942 C   0  0  0  0  0  0  0  0  0  0  0  0
  -24.6884  -31.3752   22.4762 C   0  0  0  0  0  0  0  0  0  0  0  0
  -35.7087  -18.5583   19.2634 C   0  0  0  0  0  0  0  0  0  0  0  0
  -29.7395  -12.3677   18.5724 C   0  0  0  0  0  0  0  0  0  0  0  0
  -25.9959  -30.9116   21.8420 C   0  0  0  0  0  0  0  0  0  0  0  0
  -28.3026  -12.0200   18.9479 C   0  0  0  0  0  0  0  0  0  0  0  0
  -30.5935  -12.6884   19.7985 C   0  0  0  0  0  0  0  0  0  0  0  0
  -28.5691  -13.4033   21.0419 C   0  0  0  0  0  0  0  0  0  0  0  0
  -32.3521  -17.5122   20.7116 C   0  0  0  0  0  0  0  0  0  0  0  0
  -34.0781  -16.3393   20.6831 C   0  0  0  0  0  0  0  0  0  0  0  0
  -25.7782  -29.6628   20.9790 C   0  0  1  0  0  0  0  0  0  0  0  0
  -34.1820  -18.3817   19.3350 C   0  0  1  0  0  0  0  0  0  0  0  0
  -26.3969  -26.5924   23.1291 C   0  0  1  0  0  0  0  0  0  0  0  0
  -27.6871  -13.1286   19.8147 C   0  0  2  0  0  0  0  0  0  0  0  0
  -32.7064  -16.1612   21.3580 C   0  0  0  0  0  0  0  0  0  0  0  0
  -29.0608  -24.6548   30.1400 C   0  0  0  0  0  0  0  0  0  0  0  0
  -29.2380  -29.3691   25.4908 C   0  0  0  0  0  0  0  0  0  0  0  0
  -30.1563  -28.4168   27.6164 C   0  0  0  0  0  0  0  0  0  0  0  0
  -27.7746  -29.1502   27.5070 C   0  0  0  0  0  0  0  0  0  0  0  0
  -27.5430  -22.3080   27.5583 C   0  0  0  0  0  0  0  0  0  0  0  0
  -30.9062  -22.0913   19.3521 C   0  0  0  0  0  0  0  0  0  1  0  0
  -28.4781  -27.0399   26.3054 C   0  0  1  0  0  0  0  0  0  0  0  0
  -28.2547  -24.2886   28.9035 C   0  0  2  0  0  0  0  0  0  0  0  0
  -28.9112  -28.4784   26.7061 C   0  0  0  0  0  0  0  0  0  0  0  0
  -25.9039  -11.5239   20.3885 N   0  0  0  0  0  0  0  0  0  0  0  0
  -32.4847  -20.2467   19.3861 N   0  0  0  0  0  0  0  0  0  0  0  0
  -26.2561  -12.8080   20.2063 N   0  0  0  0  0  0  0  0  0  0  0  0
  -27.4563  -26.4507   24.1300 N   0  0  0  0  0  0  0  0  0  0  0  0
  -29.9552  -13.6978   20.6582 N   0  0  0  0  0  0  0  0  0  0  0  0
  -25.4186  -15.0229   20.2651 N   0  0  0  0  0  0  0  0  0  0  0  0
  -21.8248  -12.5204   21.3689 N   0  0  0  0  0  0  0  0  0  0  0  0
  -25.6617  -28.4860   21.8133 N   0  0  0  0  0  0  0  0  0  0  0  0
  -28.1364  -26.1823   27.4351 N   0  0  0  0  0  0  0  0  0  0  0  0
  -31.9175  -15.0125   20.8677 N   0  0  0  0  0  0  0  0  0  0  0  0
  -33.8010  -17.7895   20.6346 N   0  3  0  0  0  0  0  0  0  0  0  0
  -28.3128  -22.8101   28.7254 N   0  3  0  0  0  0  0  0  0  0  0  0
  -22.5634  -14.6614   21.0091 O   0  0  0  0  0  0  0  0  0  0  0  0
  -27.9324  -28.0333   22.0610 O   0  0  0  0  0  0  0  0  0  0  0  0
  -26.2145  -27.5230   25.7866 O   0  0  0  0  0  0  0  0  0  0  0  0
  -29.6974  -24.5289   26.9804 O   0  0  0  0  0  0  0  0  0  0  0  0
  -29.9820  -15.6552   21.9087 O   0  0  0  0  0  0  0  0  0  0  0  0
  -21.6855   -6.9681   21.8020 O   0  0  0  0  0  0  0  0  0  0  0  0
  -30.9974  -22.9529   20.4860 O   0  0  0  0  0  0  0  0  0  1  0  0
  -16.6673   -6.5176   19.5618 F   0  0  0  0  0  0  0  0  0  0  0  0
  -21.0796   -4.8863   20.0869 F   0  0  0  0  0  0  0  0  0  0  0  0
  1  2  1  0  0  0  0
  1  5  2  0  0  0  0
  2  6  2  0  0  0  0
  3  9  2  0  0  0  0
  3 17  1  0  0  0  0
  4 10  1  0  0  0  0
  4 17  2  0  0  0  0
  5 19  1  0  0  0  0
  6 21  1  0  0  0  0
  7 11  2  0  0  0  0
  7 20  1  0  0  0  0
  8 14  2  0  0  0  0
  8 22  1  0  0  0  0
  9 24  1  0  0  0  0
 10 24  2  0  0  0  0
 11 25  1  0  0  0  0
 12 13  2  0  0  0  0
 12 26  1  0  0  0  0
 13 27  1  0  0  0  0
 14 31  1  0  0  0  0
 15 23  1  0  0  0  0
 15 25  2  0  0  0  0
 16 27  2  0  0  0  0
 16 28  1  0  0  0  0
 17 29  1  0  0  0  0
 18 29  1  0  0  0  0
 18 32  2  0  0  0  0
 18 33  1  0  0  0  0
 19 21  2  0  0  0  0
 19 38  1  0  0  0  0
 20 23  2  0  0  0  0
 20 39  1  0  0  0  0
 21 51  1  0  0  0  0
 22 30  2  0  0  0  0
 22 40  1  0  0  0  0
 23 41  1  0  0  0  0
 24 82  1  0  0  0  0
 25 83  1  0  0  0  0
 26 28  2  0  0  0  0
 26 82  1  0  0  0  0
 27 84  1  0  0  0  0
 28 85  1  0  0  0  0
 29 65  2  0  0  0  0
 30 52  1  0  0  0  0
 30 66  1  0  0  0  0
 31 61  1  0  0  0  0
 31 66  2  0  0  0  0
 32 67  1  0  0  0  0
 32 70  1  0  0  0  0
 33 71  1  0  0  0  0
 33 77  2  0  0  0  0
 34 53  1  0  0  0  0
 34 72  1  0  0  0  0
 34 78  2  0  0  0  0
 35 62  1  0  0  0  0
 35 68  1  0  0  0  0
 35 79  2  0  0  0  0
 36 63  1  0  0  0  0
 36 73  1  0  0  0  0
 36 80  2  0  0  0  0
 37 69  1  0  0  0  0
 37 74  1  0  0  0  0
 37 81  2  0  0  0  0
 38 42  1  0  0  0  0
 39 53  1  0  0  0  0
 40 43  1  0  0  0  0
 41 68  1  0  0  0  0
 42 45  1  0  0  0  0
 43 52  1  0  0  0  0
 44 46  1  0  0  0  0
 44 47  1  0  0  0  0
 45 51  1  0  0  0  0
 46 54  1  0  0  0  0
 47 69  1  0  0  0  0
 48 54  1  0  0  0  0
 48 69  1  0  0  0  0
 49 55  1  0  0  0  0
 49 75  1  0  0  0  0
 50 55  1  0  0  0  0
 50 75  1  0  0  0  0
 51 72  1  0  0  0  0
 52 75  1  0  0  0  0
 53 68  1  0  0  0  0
 54 67  1  0  0  0  0
 55 74  1  0  0  0  0
 56 63  1  0  0  0  0
 57 64  1  0  0  0  0
 58 64  1  0  0  0  0
 59 64  1  0  0  0  0
 60 76  1  0  0  0  0
 61 83  1  0  0  0  0
 62 64  1  0  0  0  0
 62 73  1  0  0  0  0
 63 76  1  0  0  0  0
 65 67  1  0  0  0  0
M  CHG  2  75   1  76   1
M  ISO  4  37 100  61 101  74 100  83 101
M  END
> <Batch ID>
0170

> <Smiles>
CNC(C)C(=O)NC(C(=O)N1Cc2cc([101O:1][101CH2:1]c3ccc4c(n3)C(N3CC([100NH:0][100C:0](=O)N5CCCC(n6nc(-c7ccc(Oc8ccc(F)cc8F)cc7)c(C(N)=O)c6N)C5)C3)CC4)ccc2CC1C(=O)NC1CCCc2ccccc21)C(C)(C)C

> <Shape>
0.219

> <Color>
0.174

> <Negative vol penalty>
0.000

$$$$

  -OEChem-04052322353D

 88 99  0     1  0  0  0  0  0999 V2000
  -27.6440  -36.8078   20.3774 C   0  0  0  0  0  0  0  0  0  0  0  0
  -28.1717  -35.7014   19.7195 C   0  0  0  0  0  0  0  0  0  0  0  0
  -23.0464  -15.4587   19.5912 C   0  0  0  0  0  0  0  0  0  0  0  0
  -22.6947  -13.3465   18.4723 C   0  0  0  0  0  0  0  0  0  0  0  0
  -26.9850  -36.6444   21.5952 C   0  0  0  0  0  0  0  0  0  0  0  0
  -28.0416  -34.4310   20.2796 C   0  0  0  0  0  0  0  0  0  0  0  0
  -27.2561  -27.5601   18.4117 C   0  0  0  0  0  0  0  0  0  0  0  0
  -22.0705  -16.0473   18.7870 C   0  0  0  0  0  0  0  0  0  0  0  0
  -21.7188  -13.9351   17.6680 C   0  0  0  0  0  0  0  0  0  0  0  0
  -27.8269  -26.3092   18.6424 C   0  0  0  0  0  0  0  0  0  0  0  0
  -18.6941  -16.1684   18.6522 C   0  0  0  0  0  0  0  0  0  0  0  0
  -17.7555  -16.9940   19.2710 C   0  0  0  0  0  0  0  0  0  0  0  0
  -26.5993  -26.1374   20.7119 C   0  0  0  0  0  0  0  0  0  0  0  0
  -27.7522  -20.0175   20.6257 C   0  0  0  0  0  0  0  0  0  0  0  0
  -18.4755  -18.8442   17.8942 C   0  0  0  0  0  0  0  0  0  0  0  0
  -23.3585  -14.1083   19.4339 C   0  0  0  0  0  0  0  0  0  0  0  0
  -24.1772  -12.8715   21.5094 C   0  0  0  0  0  0  0  0  0  0  0  0
  -26.8383  -35.3702   22.1657 C   0  0  0  0  0  0  0  0  0  0  0  0
  -26.3595  -28.1147   19.3362 C   0  0  0  0  0  0  0  0  0  0  0  0
  -27.3812  -34.2506   21.5068 C   0  0  0  0  0  0  0  0  0  0  0  0
  -26.0165  -27.3944   20.4893 C   0  0  0  0  0  0  0  0  0  0  0  0
  -27.4193  -21.2463   20.0934 C   0  0  0  0  0  0  0  0  0  0  0  0
  -28.3954  -22.0687   19.5311 C   0  0  0  0  0  0  0  0  0  0  0  0
  -21.4067  -15.2855   17.8254 C   0  0  0  0  0  0  0  0  0  0  0  0
  -27.5008  -25.5989   19.7940 C   0  0  0  0  0  0  0  0  0  0  0  0
  -19.5235  -16.6806   17.6544 C   0  0  0  0  0  0  0  0  0  0  0  0
  -17.6462  -18.3320   18.8920 C   0  0  0  0  0  0  0  0  0  0  0  0
  -19.4141  -18.0185   17.2754 C   0  0  0  0  0  0  0  0  0  0  0  0
  -24.3669  -13.4999   20.2640 C   0  0  0  0  0  0  0  0  0  0  0  0
  -29.7000  -21.6337   19.5086 C   0  0  0  0  0  0  0  0  0  0  0  0
  -29.0904  -19.6596   20.5505 C   0  0  0  0  0  0  0  0  0  0  0  0
  -25.4342  -12.4633   21.8831 C   0  0  0  0  0  0  0  0  0  0  0  0
  -22.9723  -12.6743   22.2612 C   0  0  0  0  0  0  0  0  0  0  0  0
  -26.3371  -30.7241   21.1513 C   0  0  0  0  0  0  0  0  0  0  0  0
  -23.3201  -29.7489   21.8362 C   0  0  0  0  0  0  0  0  0  0  0  0
  -21.0752  -27.1849   22.0180 C   0  0  0  0  0  0  0  0  0  0  0  0
  -30.8217  -14.6602   19.9804 C   0  0  0  0  0  0  0  0  0  0  0  0
  -26.1595  -35.2492   23.5071 C   0  0  0  0  0  0  0  0  0  0  0  0
  -25.7319  -29.4534   19.0596 C   0  0  0  0  0  0  0  0  0  0  0  0
  -26.0817  -21.9145   20.0636 C   0  0  0  0  0  0  0  0  0  0  0  0
  -25.0436  -27.9367   21.5031 C   0  0  0  0  0  0  0  0  0  0  0  0
  -25.7366  -33.8229   23.8492 C   0  0  0  0  0  0  0  0  0  0  0  0
  -26.3163  -23.0085   19.0045 C   0  0  0  0  0  0  0  0  0  0  0  0
  -29.6554  -11.1395   20.0654 C   0  0  0  0  0  0  0  0  0  0  0  0
  -26.8711  -32.8455   23.5589 C   0  0  0  0  0  0  0  0  0  0  0  0
  -28.1382  -11.3022   20.1520 C   0  0  0  0  0  0  0  0  0  0  0  0
  -29.7704  -16.2091   22.9163 C   0  0  0  0  0  0  0  0  0  0  0  0
  -30.6304  -17.4804   22.9773 C   0  0  0  0  0  0  0  0  0  0  0  0
  -30.3148  -12.3269   19.3700 C   0  0  0  0  0  0  0  0  0  0  0  0
  -28.4579  -13.8039   20.0549 C   0  0  0  0  0  0  0  0  0  0  0  0
  -28.4842  -17.3021   21.0773 C   0  0  0  0  0  0  0  0  0  0  0  0
  -31.3454  -16.9874   20.6337 C   0  0  0  0  0  0  0  0  0  0  0  0
  -27.2387  -32.8533   22.0701 C   0  0  1  0  0  0  0  0  0  0  0  0
  -27.8141  -23.3590   19.0593 C   0  0  1  0  0  0  0  0  0  1  0  0
  -25.2258  -30.1480   20.3201 C   0  0  1  0  0  0  0  0  0  0  0  0
  -27.7686  -12.6496   20.7963 C   0  0  1  0  0  0  0  0  0  0  0  0
  -29.2388  -16.0191   21.4825 C   0  0  1  0  0  0  0  0  0  0  0  0
  -30.7891  -18.0785   21.5623 C   0  0  1  0  0  0  0  0  0  0  0  0
  -30.7795  -22.4818   18.9293 C   0  0  0  0  0  0  0  0  0  0  0  0
  -18.6971  -26.6897   22.6481 C   0  0  0  0  0  0  0  0  0  0  0  0
  -24.0698  -29.9179   24.7890 C   0  0  0  0  0  0  0  0  0  0  0  0
  -22.0462  -28.5389   25.3100 C   0  0  0  0  0  0  0  0  0  0  0  0
  -21.7862  -30.7780   24.2416 C   0  0  0  0  0  0  0  0  0  0  0  0
  -20.4221  -26.2572   19.2845 C   0  0  0  0  0  0  0  0  0  0  0  0
  -22.6971  -28.8529   22.8792 C   0  0  1  0  0  0  0  0  0  0  0  0
  -19.6469  -27.0593   21.5193 C   0  0  2  0  0  0  0  0  0  0  0  0
  -22.6697  -29.5123   24.2870 C   0  0  0  0  0  0  0  0  0  0  0  0
  -25.6439  -13.4940   19.8727 N   0  0  0  0  0  0  0  0  0  0  0  0
  -30.0703  -20.4318   20.0070 N   0  0  0  0  0  0  0  0  0  0  0  0
  -26.2680  -12.8570   20.8781 N   0  0  0  0  0  0  0  0  0  0  0  0
  -29.4404  -18.4241   21.0759 N   0  0  3  0  0  0  0  0  0  0  0  0
  -24.4615  -29.2524   21.1908 N   0  0  0  0  0  0  0  0  0  0  0  0
  -29.9093  -13.5959   19.9741 N   0  0  0  0  0  0  0  0  0  0  0  0
  -30.4104  -15.8543   20.5857 N   0  0  0  0  0  0  0  0  0  0  0  0
  -25.8967  -11.8097   22.9700 N   0  0  0  0  0  0  0  0  0  0  0  0
  -21.7677  -13.1565   21.7314 N   0  0  0  0  0  0  0  0  0  0  0  0
  -26.2706  -32.0956   21.3066 N   0  0  0  0  0  0  0  0  0  0  0  0
  -21.3821  -28.4831   22.3669 N   0  0  0  0  0  0  0  0  0  0  0  0
  -19.5564  -26.0089   20.4660 N   0  3  0  0  0  0  0  0  0  0  0  0
  -22.9667  -12.1025   23.3777 O   0  0  0  0  0  0  0  0  0  0  0  0
  -27.1908  -29.9793   21.6184 O   0  0  0  0  0  0  0  0  0  0  0  0
  -22.8086  -30.8457   21.5976 O   0  0  0  0  0  0  0  0  0  0  0  0
  -21.8408  -26.2264   22.0942 O   0  0  0  0  0  0  0  0  0  0  0  0
  -31.9512  -14.5422   19.4881 O   0  0  0  0  0  0  0  0  0  0  0  0
  -20.4543  -15.8594   17.0405 O   0  0  0  0  0  0  0  0  0  0  0  0
  -28.0616  -24.3677   20.0239 O   0  0  0  0  0  0  0  0  0  1  0  0
  -16.7438  -19.1243   19.4852 F   0  0  0  0  0  0  0  0  0  0  0  0
  -20.2073  -18.5161   16.3167 F   0  0  0  0  0  0  0  0  0  0  0  0
  1  2  1  0  0  0  0
  1  5  2  0  0  0  0
  2  6  2  0  0  0  0
  3  8  2  0  0  0  0
  3 16  1  0  0  0  0
  4  9  1  0  0  0  0
  4 16  2  0  0  0  0
  5 18  1  0  0  0  0
  6 20  1  0  0  0  0
  7 10  2  0  0  0  0
  7 19  1  0  0  0  0
  8 24  1  0  0  0  0
  9 24  2  0  0  0  0
 10 25  1  0  0  0  0
 11 12  2  0  0  0  0
 11 26  1  0  0  0  0
 12 27  1  0  0  0  0
 13 21  1  0  0  0  0
 13 25  2  0  0  0  0
 14 22  1  0  0  0  0
 14 31  2  0  0  0  0
 15 27  2  0  0  0  0
 15 28  1  0  0  0  0
 16 29  1  0  0  0  0
 17 29  1  0  0  0  0
 17 32  2  0  0  0  0
 17 33  1  0  0  0  0
 18 20  2  0  0  0  0
 18 38  1  0  0  0  0
 19 21  2  0  0  0  0
 19 39  1  0  0  0  0
 20 53  1  0  0  0  0
 21 41  1  0  0  0  0
 22 23  2  0  0  0  0
 22 40  1  0  0  0  0
 23 30  1  0  0  0  0
 23 54  1  0  0  0  0
 24 85  1  0  0  0  0
 25 86  1  0  0  0  0
 26 28  2  0  0  0  0
 26 85  1  0  0  0  0
 27 87  1  0  0  0  0
 28 88  1  0  0  0  0
 29 68  2  0  0  0  0
 30 59  1  0  0  0  0
 30 69  2  0  0  0  0
 31 69  1  0  0  0  0
 31 71  1  0  0  0  0
 32 70  1  0  0  0  0
 32 75  1  0  0  0  0
 33 76  1  0  0  0  0
 33 80  2  0  0  0  0
 34 55  1  0  0  0  0
 34 77  1  0  0  0  0
 34 81  2  0  0  0  0
 35 65  1  0  0  0  0
 35 72  1  0  0  0  0
 35 82  2  0  0  0  0
 36 66  1  0  0  0  0
 36 78  1  0  0  0  0
 36 83  2  0  0  0  0
 37 73  1  0  0  0  0
 37 74  1  0  0  0  0
 37 84  2  0  0  0  0
 38 42  1  0  0  0  0
 39 55  1  0  0  0  0
 40 43  1  0  0  0  0
 41 72  1  0  0  0  0
 42 45  1  0  0  0  0
 43 54  1  0  0  0  0
 44 46  1  0  0  0  0
 44 49  1  0  0  0  0
 45 53  1  0  0  0  0
 46 56  1  0  0  0  0
 47 48  1  0  0  0  0
 47 57  1  0  0  0  0
 48 58  1  0  0  0  0
 49 73  1  0  0  0  0
 50 56  1  0  0  0  0
 50 73  1  0  0  0  0
 51 57  1  0  0  0  0
 51 71  1  0  0  0  0
 52 58  1  0  0  0  0
 52 74  1  0  0  0  0
 53 77  1  0  0  0  0
 54 86  1  0  0  0  0
 55 72  1  0  0  0  0
 56 70  1  0  0  0  0
 57 74  1  0  0  0  0
 58 71  1  0  0  0  0
 60 66  1  0  0  0  0
 61 67  1  0  0  0  0
 62 67  1  0  0  0  0
 63 67  1  0  0  0  0
 64 79  1  0  0  0  0
 65 67  1  0  0  0  0
 65 78  1  0  0  0  0
 66 79  1  0  0  0  0
 68 70  1  0  0  0  0
M  CHG  1  79   1
M  ISO  4  37 100  54 101  74 100  86 101
M  END
> <Batch ID>
0170

> <Smiles>
CNC(C)C(=O)NC(C(=O)N1Cc2cc([101O:1][101CH:1]3CCc4cc(N5CC6CCC5C[100N:0]6[100C:0](=O)N5CCCC(n6nc(-c7ccc(Oc8ccc(F)cc8F)cc7)c(C(N)=O)c6N)C5)nc(C)c43)ccc2CC1C(=O)NC1CCCc2ccccc21)C(C)(C)C

> <Shape>
0.308

> <Color>
0.085

> <Negative vol penalty>
0.000

$$$$

  -OEChem-04052322353D

 87 97  0     1  0  0  0  0  0999 V2000
  -27.3213  -37.1458   27.2525 C   0  0  0  0  0  0  0  0  0  0  0  0
  -28.1566  -36.1485   26.7593 C   0  0  0  0  0  0  0  0  0  0  0  0
  -24.5906   -9.0420   22.0474 C   0  0  0  0  0  0  0  0  0  0  0  0
  -23.6054   -9.5809   19.9082 C   0  0  0  0  0  0  0  0  0  0  0  0
  -25.9383  -37.0192   27.1291 C   0  0  0  0  0  0  0  0  0  0  0  0
  -27.6093  -35.0236   26.1433 C   0  0  0  0  0  0  0  0  0  0  0  0
  -28.9652  -30.2948   20.9360 C   0  0  0  0  0  0  0  0  0  0  0  0
  -23.4930   -8.2363   22.3499 C   0  0  0  0  0  0  0  0  0  0  0  0
  -22.5078   -8.7750   20.2107 C   0  0  0  0  0  0  0  0  0  0  0  0
  -29.0313  -28.9189   20.7210 C   0  0  0  0  0  0  0  0  0  0  0  0
  -22.3886   -5.1366   21.5718 C   0  0  0  0  0  0  0  0  0  0  0  0
  -22.6392   -3.8808   22.1247 C   0  0  0  0  0  0  0  0  0  0  0  0
  -29.4693  -24.2982   18.7756 C   0  0  0  0  0  0  0  0  0  0  0  0
  -26.6309  -28.8453   20.4933 C   0  0  0  0  0  0  0  0  0  0  0  0
  -21.3706   -4.4921   24.0879 C   0  0  0  0  0  0  0  0  0  0  0  0
  -24.6468   -9.7144   20.8265 C   0  0  0  0  0  0  0  0  0  0  0  0
  -26.9688  -10.1580   19.8679 C   0  0  0  0  0  0  0  0  0  0  0  0
  -25.3741  -35.8968   26.5027 C   0  0  0  0  0  0  0  0  0  0  0  0
  -27.7284  -30.9557   20.9421 C   0  0  0  0  0  0  0  0  0  0  0  0
  -26.2174  -34.8813   26.0126 C   0  0  0  0  0  0  0  0  0  0  0  0
  -29.3576  -22.9374   18.5127 C   0  0  0  0  0  0  0  0  0  0  0  0
  -26.5521  -30.2301   20.7060 C   0  0  0  0  0  0  0  0  0  0  0  0
  -29.1022  -24.7921   20.0224 C   0  0  0  0  0  0  0  0  0  0  0  0
  -22.4516   -8.1027   21.4316 C   0  0  0  0  0  0  0  0  0  0  0  0
  -27.8638  -28.1935   20.5025 C   0  0  0  0  0  0  0  0  0  0  0  0
  -21.6291   -6.0702   22.2770 C   0  0  0  0  0  0  0  0  0  0  0  0
  -22.1301   -3.5585   23.3827 C   0  0  0  0  0  0  0  0  0  0  0  0
  -21.1201   -5.7479   23.5350 C   0  0  0  0  0  0  0  0  0  0  0  0
  -25.7801  -10.5474   20.5137 C   0  0  0  0  0  0  0  0  0  0  0  0
  -28.6329  -23.8909   20.9645 C   0  0  0  0  0  0  0  0  0  0  0  0
  -28.8771  -22.1192   19.5224 C   0  0  0  0  0  0  0  0  0  0  0  0
  -27.7202  -11.3063   19.8102 C   0  0  0  0  0  0  0  0  0  0  0  0
  -27.3590   -8.8732   19.3651 C   0  0  0  0  0  0  0  0  0  0  0  0
  -26.0837  -32.6174   23.0955 C   0  0  0  0  0  0  0  0  0  0  0  0
  -24.1017  -33.1643   20.5865 C   0  0  0  0  0  0  0  0  0  0  0  0
  -22.9330  -32.1535   17.5437 C   0  0  0  0  0  0  0  0  0  0  0  0
  -28.3648  -16.5555   18.8749 C   0  0  0  0  0  0  0  0  0  0  0  0
  -23.8718  -35.7819   26.4349 C   0  0  0  0  0  0  0  0  0  0  0  0
  -27.6765  -32.4446   21.1489 C   0  0  0  0  0  0  0  0  0  0  0  0
  -25.2011  -30.8955   20.6825 C   0  0  0  0  0  0  0  0  0  0  0  0
  -23.3855  -34.7361   25.4348 C   0  0  0  0  0  0  0  0  0  0  0  0
  -27.0836  -15.7867   22.0540 C   0  0  0  0  0  0  0  0  0  0  0  0
  -29.1161  -22.9943   15.9412 C   0  0  0  0  0  0  0  0  0  0  0  0
  -28.7530  -21.6100   16.3794 C   0  0  0  0  0  0  0  0  0  0  0  0
  -24.1707  -33.4383   25.5952 C   0  0  0  0  0  0  0  0  0  0  0  0
  -26.7205  -14.3115   21.8866 C   0  0  0  0  0  0  0  0  0  0  0  0
  -26.7325  -16.6077   20.8121 C   0  0  0  0  0  0  0  0  0  0  0  0
  -29.8967  -19.8637   19.5538 C   0  0  0  0  0  0  0  0  0  0  0  0
  -27.4228  -20.1481   19.3412 C   0  0  0  0  0  0  0  0  0  0  0  0
  -29.7963  -18.5611   18.7646 C   0  0  0  0  0  0  0  0  0  0  0  0
  -27.3681  -18.8485   18.5458 C   0  0  0  0  0  0  0  0  0  0  0  0
  -26.9396  -14.5954   19.3888 C   0  0  0  0  0  0  0  0  0  0  0  0
  -29.7517  -22.4090   17.1749 C   0  0  0  0  0  0  0  0  0  0  0  0
  -25.6624  -33.6578   25.3160 C   0  0  1  0  0  0  0  0  0  0  0  0
  -26.3186  -32.9319   21.6451 C   0  0  1  0  0  0  0  0  0  0  0  0
  -27.3344  -13.7343   20.5987 C   0  0  2  0  0  0  0  0  0  0  0  0
  -28.2239  -24.3650   22.3207 C   0  0  0  0  0  0  0  0  0  0  0  0
  -21.2883  -32.7844   15.7564 C   0  0  0  0  0  0  0  0  0  0  0  0
  -21.8182  -32.1303   22.3262 C   0  0  0  0  0  0  0  0  0  0  0  0
  -20.4397  -31.8869   20.2504 C   0  0  0  0  0  0  0  0  0  0  0  0
  -21.2528  -34.1395   20.9486 C   0  0  0  0  0  0  0  0  0  0  0  0
  -25.0717  -32.4581   15.5208 C   0  0  0  0  0  0  0  0  0  0  0  0
  -29.2195  -26.2489   20.3104 C   0  0  0  0  0  0  0  0  0  1  0  0
  -22.8963  -32.4664   20.0044 C   0  0  1  0  0  0  0  0  0  0  0  0
  -22.7236  -32.9086   16.2435 C   0  0  2  0  0  0  0  0  0  0  0  0
  -21.6269  -32.6426   20.8847 C   0  0  0  0  0  0  0  0  0  0  0  0
  -25.7723  -11.8419   20.8428 N   0  0  0  0  0  0  0  0  0  0  0  0
  -28.5104  -22.5625   20.7458 N   0  0  0  0  0  0  0  0  0  0  0  0
  -26.9654  -12.2759   20.4021 N   0  0  0  0  0  0  0  0  0  0  0  0
  -28.7622  -20.7473   19.2640 N   0  0  0  0  0  0  0  0  0  0  0  0
  -25.2019  -32.3522   20.8962 N   0  0  0  0  0  0  0  0  0  0  0  0
  -27.3052  -15.9969   19.6051 N   0  0  0  0  0  0  0  0  0  0  0  0
  -28.4763  -17.9547   18.8883 N   0  0  0  0  0  0  0  0  0  0  0  0
  -28.9464  -11.5711   19.3114 N   0  0  0  0  0  0  0  0  0  0  0  0
  -26.4671   -7.8014   19.5067 N   0  0  0  0  0  0  0  0  0  0  0  0
  -25.9042  -33.7328   23.8912 N   0  0  0  0  0  0  0  0  0  0  0  0
  -22.7529  -32.9676   18.6418 N   0  0  0  0  0  0  0  0  0  0  0  0
  -23.6270  -32.3767   15.1843 N   0  3  0  0  0  0  0  0  0  0  0  0
  -28.4724   -8.6777   18.8215 O   0  0  0  0  0  0  0  0  0  0  0  0
  -26.0650  -31.4492   23.4651 O   0  0  0  0  0  0  0  0  0  0  0  0
  -24.0709  -34.3861   20.7535 O   0  0  0  0  0  0  0  0  0  0  0  0
  -23.2233  -30.9598   17.5814 O   0  0  0  0  0  0  0  0  0  0  0  0
  -29.1659  -15.8487   18.2506 O   0  0  0  0  0  0  0  0  0  0  0  0
  -21.3805   -7.3163   21.7264 O   0  0  0  0  0  0  0  0  0  0  0  0
  -27.9258  -26.8413   20.2916 O   0  0  0  0  0  0  0  0  0  1  0  0
  -22.3695   -2.3519   23.9129 F   0  0  0  0  0  0  0  0  0  0  0  0
  -20.3887   -6.6402   24.2167 F   0  0  0  0  0  0  0  0  0  0  0  0
  1  2  1  0  0  0  0
  1  5  2  0  0  0  0
  2  6  2  0  0  0  0
  3  8  2  0  0  0  0
  3 16  1  0  0  0  0
  4  9  1  0  0  0  0
  4 16  2  0  0  0  0
  5 18  1  0  0  0  0
  6 20  1  0  0  0  0
  7 10  2  0  0  0  0
  7 19  1  0  0  0  0
  8 24  1  0  0  0  0
  9 24  2  0  0  0  0
 10 25  1  0  0  0  0
 11 12  2  0  0  0  0
 11 26  1  0  0  0  0
 12 27  1  0  0  0  0
 13 21  2  0  0  0  0
 13 23  1  0  0  0  0
 14 22  1  0  0  0  0
 14 25  2  0  0  0  0
 15 27  2  0  0  0  0
 15 28  1  0  0  0  0
 16 29  1  0  0  0  0
 17 29  1  0  0  0  0
 17 32  2  0  0  0  0
 17 33  1  0  0  0  0
 18 20  2  0  0  0  0
 18 38  1  0  0  0  0
 19 22  2  0  0  0  0
 19 39  1  0  0  0  0
 20 54  1  0  0  0  0
 21 31  1  0  0  0  0
 21 53  1  0  0  0  0
 22 40  1  0  0  0  0
 23 30  2  0  0  0  0
 23 63  1  0  0  0  0
 24 84  1  0  0  0  0
 25 85  1  0  0  0  0
 26 28  2  0  0  0  0
 26 84  1  0  0  0  0
 27 86  1  0  0  0  0
 28 87  1  0  0  0  0
 29 67  2  0  0  0  0
 30 57  1  0  0  0  0
 30 68  1  0  0  0  0
 31 68  2  0  0  0  0
 31 70  1  0  0  0  0
 32 69  1  0  0  0  0
 32 74  1  0  0  0  0
 33 75  1  0  0  0  0
 33 79  2  0  0  0  0
 34 55  1  0  0  0  0
 34 76  1  0  0  0  0
 34 80  2  0  0  0  0
 35 64  1  0  0  0  0
 35 71  1  0  0  0  0
 35 81  2  0  0  0  0
 36 65  1  0  0  0  0
 36 77  1  0  0  0  0
 36 82  2  0  0  0  0
 37 72  1  0  0  0  0
 37 73  1  0  0  0  0
 37 83  2  0  0  0  0
 38 41  1  0  0  0  0
 39 55  1  0  0  0  0
 40 71  1  0  0  0  0
 41 45  1  0  0  0  0
 42 46  1  0  0  0  0
 42 47  1  0  0  0  0
 43 44  1  0  0  0  0
 43 53  1  0  0  0  0
 44 53  1  0  0  0  0
 45 54  1  0  0  0  0
 46 56  1  0  0  0  0
 47 72  1  0  0  0  0
 48 50  1  0  0  0  0
 48 70  1  0  0  0  0
 49 51  1  0  0  0  0
 49 70  1  0  0  0  0
 50 73  1  0  0  0  0
 51 73  1  0  0  0  0
 52 56  1  0  0  0  0
 52 72  1  0  0  0  0
 54 76  1  0  0  0  0
 55 71  1  0  0  0  0
 56 69  1  0  0  0  0
 58 65  1  0  0  0  0
 59 66  1  0  0  0  0
 60 66  1  0  0  0  0
 61 66  1  0  0  0  0
 62 78  1  0  0  0  0
 63 85  1  0  0  0  0
 64 66  1  0  0  0  0
 64 77  1  0  0  0  0
 65 78  1  0  0  0  0
 67 69  1  0  0  0  0
M  CHG  1  78   1
M  ISO  4  37 100  63 101  73 100  85 101
M  END
> <Batch ID>
0170

> <Smiles>
CNC(C)C(=O)NC(C(=O)N1Cc2cc([101O:1][101CH2:1]c3cc(C4CC4)c(N4CC[100N:0]([100C:0](=O)N5CCCC(n6nc(-c7ccc(Oc8ccc(F)cc8F)cc7)c(C(N)=O)c6N)C5)CC4)nc3C)ccc2CC1C(=O)NC1CCCc2ccccc21)C(C)(C)C

> <Shape>
0.282

> <Color>
0.087

> <Negative vol penalty>
0.000

$$$$

  -OEChem-04052322353D

 86 96  0     1  0  0  0  0  0999 V2000
  -28.9086  -37.2580   24.4881 C   0  0  0  0  0  0  0  0  0  0  0  0
  -29.2995  -36.0926   23.8366 C   0  0  0  0  0  0  0  0  0  0  0  0
  -23.6077  -12.6520   22.9543 C   0  0  0  0  0  0  0  0  0  0  0  0
  -25.6902  -11.7475   23.7802 C   0  0  0  0  0  0  0  0  0  0  0  0
  -27.8134  -37.2393   25.3507 C   0  0  0  0  0  0  0  0  0  0  0  0
  -28.5959  -34.9074   24.0482 C   0  0  0  0  0  0  0  0  0  0  0  0
  -27.5382  -30.4736   19.9581 C   0  0  0  0  0  0  0  0  0  0  0  0
  -23.2831  -13.0799   24.2415 C   0  0  0  0  0  0  0  0  0  0  0  0
  -25.3656  -12.1755   25.0675 C   0  0  0  0  0  0  0  0  0  0  0  0
  -28.1636  -29.2511   19.7172 C   0  0  0  0  0  0  0  0  0  0  0  0
  -24.0993  -15.6385   26.2959 C   0  0  0  0  0  0  0  0  0  0  0  0
  -23.5910  -16.9293   26.4409 C   0  0  0  0  0  0  0  0  0  0  0  0
  -26.5069  -28.1427   21.0759 C   0  0  0  0  0  0  0  0  0  0  0  0
  -29.0447  -20.0681   20.5453 C   0  0  0  0  0  0  0  0  0  0  0  0
  -21.5625  -16.0237   27.3909 C   0  0  0  0  0  0  0  0  0  0  0  0
  -24.8113  -11.9857   22.7236 C   0  0  0  0  0  0  0  0  0  0  0  0
  -24.4239  -10.6411   20.5907 C   0  0  0  0  0  0  0  0  0  0  0  0
  -27.0902  -36.0555   25.5655 C   0  0  0  0  0  0  0  0  0  0  0  0
  -26.3969  -30.5415   20.7700 C   0  0  0  0  0  0  0  0  0  0  0  0
  -27.4908  -34.8725   24.9155 C   0  0  0  0  0  0  0  0  0  0  0  0
  -25.8674  -29.3670   21.3235 C   0  0  0  0  0  0  0  0  0  0  0  0
  -29.1438  -21.3178   21.1312 C   0  0  0  0  0  0  0  0  0  0  0  0
  -24.1620  -12.8418   25.2981 C   0  0  0  0  0  0  0  0  0  0  0  0
  -27.6497  -28.0858   20.2785 C   0  0  0  0  0  0  0  0  0  0  0  0
  -23.3392  -14.5403   26.6983 C   0  0  0  0  0  0  0  0  0  0  0  0
  -22.3226  -17.1219   26.9884 C   0  0  0  0  0  0  0  0  0  0  0  0
  -22.0708  -14.7329   27.2458 C   0  0  0  0  0  0  0  0  0  0  0  0
  -25.1470  -11.5428   21.3943 C   0  0  0  0  0  0  0  0  0  0  0  0
  -28.1824  -22.2570   20.8165 C   0  0  0  0  0  0  0  0  0  0  0  0
  -27.9904  -19.8402   19.6838 C   0  0  0  0  0  0  0  0  0  0  0  0
  -25.1536  -10.5538   19.4304 C   0  0  0  0  0  0  0  0  0  0  0  0
  -23.2017   -9.9447   20.8682 C   0  0  0  0  0  0  0  0  0  0  0  0
  -25.6799  -31.9712   23.5169 C   0  0  0  0  0  0  0  0  0  0  0  0
  -22.7028  -30.8572   22.8704 C   0  0  0  0  0  0  0  0  0  0  0  0
  -20.7531  -28.5684   21.2556 C   0  0  0  0  0  0  0  0  0  0  0  0
  -29.1168  -14.3925   20.4963 C   0  0  0  0  0  0  0  0  0  0  0  0
  -25.9422  -36.0735   26.5435 C   0  0  0  0  0  0  0  0  0  0  0  0
  -25.7184  -31.8644   20.9984 C   0  0  0  0  0  0  0  0  0  0  0  0
  -24.6326  -29.3833   22.1857 C   0  0  0  0  0  0  0  0  0  0  0  0
  -25.0212  -34.8620   26.4241 C   0  0  0  0  0  0  0  0  0  0  0  0
  -29.4089  -10.8294   19.8546 C   0  0  0  0  0  0  0  0  0  0  0  0
  -25.8381  -33.5764   26.3419 C   0  0  0  0  0  0  0  0  0  0  0  0
  -28.4465  -10.5695   18.7027 C   0  0  0  0  0  0  0  0  0  0  0  0
  -29.2543  -24.7365   20.9639 C   0  0  0  0  0  0  0  0  0  0  0  0
  -27.1347  -24.7513   20.8101 C   0  0  0  0  0  0  0  0  0  0  0  0
  -30.0088  -12.2230   19.7507 C   0  0  0  0  0  0  0  0  0  0  0  0
  -27.9448  -13.0714   18.6496 C   0  0  0  0  0  0  0  0  0  0  0  0
  -28.6841  -16.8987   20.7142 C   0  0  0  0  0  0  0  0  0  0  0  0
  -28.2988  -16.1736   18.7503 C   0  0  0  0  0  0  0  0  0  0  0  0
  -26.7378  -33.5729   25.1001 C   0  0  1  0  0  0  0  0  0  0  0  0
  -28.1504  -23.7301   21.3983 C   0  0  0  0  0  0  0  0  0  0  0  0
  -24.8610  -31.8862   22.2600 C   0  0  1  0  0  0  0  0  0  0  0  0
  -27.3533  -11.6443   18.6099 C   0  0  2  0  0  0  0  0  0  0  0  0
  -28.8003  -17.5092   19.3139 C   0  0  0  0  0  0  0  0  0  0  0  0
  -28.1903  -25.8531   21.0478 C   0  0  0  0  0  0  0  0  0  1  0  0
  -30.2578  -21.6255   22.0692 C   0  0  0  0  0  0  0  0  0  0  0  0
  -18.3572  -27.8878   20.9499 C   0  0  0  0  0  0  0  0  0  0  0  0
  -22.7137  -29.5822   25.6425 C   0  0  0  0  0  0  0  0  0  0  0  0
  -20.7766  -28.1684   24.9235 C   0  0  0  0  0  0  0  0  0  0  0  0
  -20.5478  -30.6514   24.9946 C   0  0  0  0  0  0  0  0  0  0  0  0
  -20.8616  -29.0698   18.3409 C   0  0  0  0  0  0  0  0  0  0  0  0
  -21.9465  -29.5871   23.1772 C   0  0  1  0  0  0  0  0  0  0  0  0
  -19.5033  -28.7284   20.4090 C   0  0  2  0  0  0  0  0  0  0  0  0
  -21.5206  -29.4969   24.6698 C   0  0  0  0  0  0  0  0  0  0  0  0
  -26.2515  -11.9959   20.7953 N   0  0  0  0  0  0  0  0  0  0  0  0
  -27.1614  -22.0064   19.9698 N   0  0  0  0  0  0  0  0  0  0  0  0
  -27.0638  -20.7780   19.3943 N   0  0  0  0  0  0  0  0  0  0  0  0
  -26.2279  -11.3763   19.6029 N   0  0  0  0  0  0  0  0  0  0  0  0
  -24.0089  -30.7019   22.3848 N   0  0  0  0  0  0  0  0  0  0  0  0
  -28.9868  -13.2697   19.6678 N   0  0  0  0  0  0  0  0  0  0  0  0
  -28.6397  -15.6003   20.0443 N   0  0  0  0  0  0  0  0  0  0  0  0
  -24.9749   -9.8545   18.2896 N   0  0  0  0  0  0  0  0  0  0  0  0
  -23.2744   -8.6821   21.4722 N   0  0  0  0  0  0  0  0  0  0  0  0
  -27.8902  -18.5767   19.0917 N   0  0  0  0  0  0  0  0  0  0  0  0
  -25.9645  -33.2630   23.9167 N   0  0  0  0  0  0  0  0  0  0  0  0
  -20.8344  -29.5363   22.2343 N   0  0  0  0  0  0  0  0  0  0  0  0
  -19.7719  -28.3089   19.0045 N   0  3  0  0  0  0  0  0  0  0  0  0
  -22.0790  -10.4207   20.5739 O   0  0  0  0  0  0  0  0  0  0  0  0
  -26.0265  -30.9412   24.0830 O   0  0  0  0  0  0  0  0  0  0  0  0
  -22.1523  -31.9467   23.0481 O   0  0  0  0  0  0  0  0  0  0  0  0
  -21.5733  -27.6721   21.0699 O   0  0  0  0  0  0  0  0  0  0  0  0
  -29.6657  -14.3250   21.6045 O   0  0  0  0  0  0  0  0  0  0  0  0
  -23.8456  -13.2595   26.5543 O   0  0  0  0  0  0  0  0  0  0  0  0
  -28.2656  -26.8774   20.0428 O   0  0  0  0  0  0  0  0  0  1  0  0
  -21.8352  -18.3616   27.1291 F   0  0  0  0  0  0  0  0  0  0  0  0
  -21.3364  -13.6818   27.6352 F   0  0  0  0  0  0  0  0  0  0  0  0
  1  2  1  0  0  0  0
  1  5  2  0  0  0  0
  2  6  2  0  0  0  0
  3  8  2  0  0  0  0
  3 16  1  0  0  0  0
  4  9  1  0  0  0  0
  4 16  2  0  0  0  0
  5 18  1  0  0  0  0
  6 20  1  0  0  0  0
  7 10  2  0  0  0  0
  7 19  1  0  0  0  0
  8 23  1  0  0  0  0
  9 23  2  0  0  0  0
 10 24  1  0  0  0  0
 11 12  2  0  0  0  0
 11 25  1  0  0  0  0
 12 26  1  0  0  0  0
 13 21  1  0  0  0  0
 13 24  2  0  0  0  0
 14 22  1  0  0  0  0
 14 30  2  0  0  0  0
 15 26  2  0  0  0  0
 15 27  1  0  0  0  0
 16 28  1  0  0  0  0
 17 28  1  0  0  0  0
 17 31  2  0  0  0  0
 17 32  1  0  0  0  0
 18 20  2  0  0  0  0
 18 37  1  0  0  0  0
 19 21  2  0  0  0  0
 19 38  1  0  0  0  0
 20 50  1  0  0  0  0
 21 39  1  0  0  0  0
 22 29  2  0  0  0  0
 22 56  1  0  0  0  0
 23 83  1  0  0  0  0
 24 84  1  0  0  0  0
 25 27  2  0  0  0  0
 25 83  1  0  0  0  0
 26 85  1  0  0  0  0
 27 86  1  0  0  0  0
 28 65  2  0  0  0  0
 29 51  1  0  0  0  0
 29 66  1  0  0  0  0
 30 67  1  0  0  0  0
 30 74  1  0  0  0  0
 31 68  1  0  0  0  0
 31 72  1  0  0  0  0
 32 73  1  0  0  0  0
 32 78  2  0  0  0  0
 33 52  1  0  0  0  0
 33 75  1  0  0  0  0
 33 79  2  0  0  0  0
 34 62  1  0  0  0  0
 34 69  1  0  0  0  0
 34 80  2  0  0  0  0
 35 63  1  0  0  0  0
 35 76  1  0  0  0  0
 35 81  2  0  0  0  0
 36 70  1  0  0  0  0
 36 71  1  0  0  0  0
 36 82  2  0  0  0  0
 37 40  1  0  0  0  0
 38 52  1  0  0  0  0
 39 69  1  0  0  0  0
 40 42  1  0  0  0  0
 41 43  1  0  0  0  0
 41 46  1  0  0  0  0
 42 50  1  0  0  0  0
 43 53  1  0  0  0  0
 44 51  1  0  0  0  0
 44 55  1  0  0  0  0
 45 51  1  0  0  0  0
 45 55  1  0  0  0  0
 46 70  1  0  0  0  0
 47 53  1  0  0  0  0
 47 70  1  0  0  0  0
 48 54  1  0  0  0  0
 48 71  1  0  0  0  0
 49 54  1  0  0  0  0
 49 71  1  0  0  0  0
 50 75  1  0  0  0  0
 52 69  1  0  0  0  0
 53 68  1  0  0  0  0
 54 74  1  0  0  0  0
 55 84  1  0  0  0  0
 57 63  1  0  0  0  0
 58 64  1  0  0  0  0
 59 64  1  0  0  0  0
 60 64  1  0  0  0  0
 61 77  1  0  0  0  0
 62 64  1  0  0  0  0
 62 76  1  0  0  0  0
 63 77  1  0  0  0  0
 65 68  1  0  0  0  0
 66 67  2  0  0  0  0
M  CHG  1  77   1
M  ISO  4  36 100  55 101  71 100  84 101
M  END
> <Batch ID>
0170

> <Smiles>
CNC(C)C(=O)NC(C(=O)N1Cc2cc([101O:1][101CH:1]3CC(c4nnc(NC5C[100N:0]([100C:0](=O)N6CCCC(n7nc(-c8ccc(Oc9ccc(F)cc9F)cc8)c(C(N)=O)c7N)C6)C5)cc4C)C3)ccc2CC1C(=O)NC1CCCc2ccccc21)C(C)(C)C

> <Shape>
0.293

> <Color>
0.074

> <Negative vol penalty>
0.000

$$$$

  -OEChem-04052322353D

 88 97  0     1  0  0  0  0  0999 V2000
  -29.5570  -31.9040   13.5601 C   0  0  0  0  0  0  0  0  0  0  0  0
  -29.4021  -30.9336   14.5448 C   0  0  0  0  0  0  0  0  0  0  0  0
  -22.8680  -10.0632   20.2347 C   0  0  0  0  0  0  0  0  0  0  0  0
  -24.1006   -9.6314   22.2673 C   0  0  0  0  0  0  0  0  0  0  0  0
  -29.8021  -33.2284   13.9207 C   0  0  0  0  0  0  0  0  0  0  0  0
  -29.4933  -31.2867   15.8907 C   0  0  0  0  0  0  0  0  0  0  0  0
  -25.8308  -29.2020   18.6987 C   0  0  0  0  0  0  0  0  0  0  0  0
  -22.4844   -8.7232   20.1827 C   0  0  0  0  0  0  0  0  0  0  0  0
  -23.7169   -8.2914   22.2153 C   0  0  0  0  0  0  0  0  0  0  0  0
  -25.9816  -27.8607   19.0479 C   0  0  0  0  0  0  0  0  0  0  0  0
  -20.9780   -6.4558   22.9565 C   0  0  0  0  0  0  0  0  0  0  0  0
  -20.5329   -5.8643   24.1387 C   0  0  0  0  0  0  0  0  0  0  0  0
  -26.7680  -28.5235   21.2300 C   0  0  0  0  0  0  0  0  0  0  0  0
  -29.7757  -22.4086   20.5188 C   0  0  0  0  0  0  0  0  0  0  0  0
  -22.3187   -4.2430   23.9998 C   0  0  0  0  0  0  0  0  0  0  0  0
  -23.6762  -10.5173   21.2770 C   0  0  0  0  0  0  0  0  0  0  0  0
  -23.3932  -12.9567   21.9679 C   0  0  0  0  0  0  0  0  0  0  0  0
  -29.8868  -33.5997   15.2718 C   0  0  0  0  0  0  0  0  0  0  0  0
  -26.1583  -30.2160   19.6103 C   0  0  0  0  0  0  0  0  0  0  0  0
  -29.7411  -32.6170   16.2696 C   0  0  0  0  0  0  0  0  0  0  0  0
  -26.6180  -29.8768   20.8908 C   0  0  0  0  0  0  0  0  0  0  0  0
  -30.7068  -23.8538   18.8370 C   0  0  0  0  0  0  0  0  0  0  0  0
  -22.9088   -7.8373   21.1730 C   0  0  0  0  0  0  0  0  0  0  0  0
  -26.4530  -27.5213   20.3127 C   0  0  0  0  0  0  0  0  0  0  0  0
  -22.0934   -5.9408   22.2958 C   0  0  0  0  0  0  0  0  0  0  0  0
  -29.7228  -23.5867   19.7822 C   0  0  0  0  0  0  0  0  0  0  0  0
  -21.2033   -4.7579   24.6604 C   0  0  0  0  0  0  0  0  0  0  0  0
  -22.7637   -4.8344   22.8175 C   0  0  0  0  0  0  0  0  0  0  0  0
  -24.0733  -11.9013   21.3310 C   0  0  0  0  0  0  0  0  0  0  0  0
  -31.7145  -22.9180   18.6676 C   0  0  0  0  0  0  0  0  0  0  0  0
  -30.8249  -21.5374   20.2740 C   0  0  0  0  0  0  0  0  0  0  0  0
  -24.1739  -14.0614   21.7301 C   0  0  0  0  0  0  0  0  0  0  0  0
  -22.1655  -12.9399   22.7082 C   0  0  0  0  0  0  0  0  0  0  0  0
  -28.2650  -32.5958   19.6569 C   0  0  0  0  0  0  0  0  0  0  0  0
  -26.7197  -33.3916   22.3957 C   0  0  0  0  0  0  0  0  0  0  0  0
  -24.7934  -32.3937   25.0301 C   0  0  0  0  0  0  0  0  0  0  0  0
  -29.0678  -16.4907   21.6219 C   0  0  0  0  0  0  0  0  0  0  0  0
  -30.2002  -35.0352   15.6119 C   0  0  0  0  0  0  0  0  0  0  0  0
  -25.9646  -31.6577   19.2276 C   0  0  0  0  0  0  0  0  0  0  0  0
  -26.9643  -30.9273   21.9131 C   0  0  0  0  0  0  0  0  0  0  0  0
  -29.9099  -35.3938   17.0670 C   0  0  0  0  0  0  0  0  0  0  0  0
  -28.1139  -14.7042   18.6238 C   0  0  0  0  0  0  0  0  0  0  0  0
  -30.4677  -34.3251   18.0017 C   0  0  0  0  0  0  0  0  0  0  0  0
  -26.9120  -13.8993   19.1211 C   0  0  0  0  0  0  0  0  0  0  0  0
  -29.1991  -14.7970   19.6929 C   0  0  0  0  0  0  0  0  0  0  0  0
  -27.5350  -14.5504   21.4925 C   0  0  0  0  0  0  0  0  0  0  0  0
  -29.7498  -19.6499   21.5438 C   0  0  0  0  0  0  0  0  0  0  0  0
  -31.6384  -19.2017   20.7364 C   0  0  0  0  0  0  0  0  0  0  0  0
  -29.8086  -32.9654   17.7407 C   0  0  1  0  0  0  0  0  0  0  0  0
  -26.8164  -32.6152   20.0553 C   0  0  1  0  0  0  0  0  0  0  0  0
  -26.3931  -14.4413   20.4659 C   0  0  2  0  0  0  0  0  0  0  0  0
  -30.6698  -18.4245   21.6390 C   0  0  0  0  0  0  0  0  0  0  0  0
  -32.7988  -23.1508   17.6668 C   0  0  0  0  0  0  0  0  0  0  0  0
  -30.7911  -26.3720   18.9116 C   0  0  0  0  0  0  0  0  0  0  0  0
  -29.4144  -25.2085   17.1492 C   0  0  0  0  0  0  0  0  0  0  0  0
  -23.7221  -33.2610   27.1272 C   0  0  0  0  0  0  0  0  0  0  0  0
  -29.4376  -33.3888   23.7824 C   0  0  0  0  0  0  0  0  0  0  0  0
  -28.2388  -33.3114   25.9790 C   0  0  0  0  0  0  0  0  0  0  0  0
  -27.9243  -35.2623   24.4566 C   0  0  0  0  0  0  0  0  0  0  0  0
  -22.0795  -31.7192   24.0611 C   0  0  0  0  0  0  0  0  0  0  0  0
  -27.6299  -25.9005   21.5949 C   0  0  0  0  0  0  0  0  0  1  0  0
  -28.1509  -24.5047   21.3127 C   0  0  0  0  0  0  0  0  0  0  0  0
  -30.6708  -25.1109   18.0352 C   0  0  0  0  0  0  0  0  0  0  0  0
  -26.8805  -33.0396   23.8549 C   0  0  1  0  0  0  0  0  0  0  0  0
  -23.5380  -32.9885   25.6424 C   0  0  2  0  0  0  0  0  0  0  0  0
  -28.1157  -33.7305   24.4985 C   0  0  0  0  0  0  0  0  0  0  0  0
  -25.1994  -12.2999   20.7334 N   0  0  0  0  0  0  0  0  0  0  0  0
  -31.7992  -21.7626   19.3642 N   0  0  0  0  0  0  0  0  0  0  0  0
  -25.2328  -13.6179   20.9937 N   0  0  0  0  0  0  0  0  0  0  0  0
  -30.8652  -20.3410   21.0322 N   0  0  0  0  0  0  0  0  0  0  0  0
  -26.7639  -32.3229   21.4892 N   0  0  0  0  0  0  0  0  0  0  0  0
  -28.6435  -15.3380   20.9418 N   0  0  0  0  0  0  0  0  0  0  0  0
  -24.0511  -15.3591   22.0811 N   0  0  0  0  0  0  0  0  0  0  0  0
  -21.4915  -11.7200   22.8569 N   0  0  0  0  0  0  0  0  0  0  0  0
  -28.4887  -32.9216   18.3327 N   0  0  0  0  0  0  0  0  0  0  0  0
  -25.6114  -33.3667   24.4959 N   0  0  0  0  0  0  0  0  0  0  0  0
  -30.1207  -17.1898   21.0414 N   0  0  0  0  0  0  0  0  0  0  0  0
  -22.3880  -32.0556   25.4748 N   0  3  0  0  0  0  0  0  0  0  0  0
  -21.6720  -13.9788   23.2088 O   0  0  0  0  0  0  0  0  0  0  0  0
  -29.1168  -32.3081   20.4895 O   0  0  0  0  0  0  0  0  0  0  0  0
  -26.5536  -34.5704   22.0727 O   0  0  0  0  0  0  0  0  0  0  0  0
  -25.0269  -31.1871   25.0295 O   0  0  0  0  0  0  0  0  0  0  0  0
  -28.5449  -16.8799   22.6721 O   0  0  0  0  0  0  0  0  0  0  0  0
  -22.5344   -6.5296   21.1226 O   0  0  0  0  0  0  0  0  0  0  0  0
  -26.6018  -26.2129   20.6559 O   0  0  0  0  0  0  0  0  0  1  0  0
  -28.6979  -24.4695   20.0002 O   0  0  0  0  0  0  0  0  0  0  0  0
  -20.7768   -4.1910   25.7965 F   0  0  0  0  0  0  0  0  0  0  0  0
  -23.8366   -4.3360   22.1879 F   0  0  0  0  0  0  0  0  0  0  0  0
  1  2  1  0  0  0  0
  1  5  2  0  0  0  0
  2  6  2  0  0  0  0
  3  8  2  0  0  0  0
  3 16  1  0  0  0  0
  4  9  1  0  0  0  0
  4 16  2  0  0  0  0
  5 18  1  0  0  0  0
  6 20  1  0  0  0  0
  7 10  2  0  0  0  0
  7 19  1  0  0  0  0
  8 23  1  0  0  0  0
  9 23  2  0  0  0  0
 10 24  1  0  0  0  0
 11 12  2  0  0  0  0
 11 25  1  0  0  0  0
 12 27  1  0  0  0  0
 13 21  1  0  0  0  0
 13 24  2  0  0  0  0
 14 26  1  0  0  0  0
 14 31  2  0  0  0  0
 15 27  2  0  0  0  0
 15 28  1  0  0  0  0
 16 29  1  0  0  0  0
 17 29  1  0  0  0  0
 17 32  2  0  0  0  0
 17 33  1  0  0  0  0
 18 20  2  0  0  0  0
 18 38  1  0  0  0  0
 19 21  2  0  0  0  0
 19 39  1  0  0  0  0
 20 49  1  0  0  0  0
 21 40  1  0  0  0  0
 22 26  2  0  0  0  0
 22 30  1  0  0  0  0
 22 63  1  0  0  0  0
 23 84  1  0  0  0  0
 24 85  1  0  0  0  0
 25 28  2  0  0  0  0
 25 84  1  0  0  0  0
 26 86  1  0  0  0  0
 27 87  1  0  0  0  0
 28 88  1  0  0  0  0
 29 67  2  0  0  0  0
 30 53  1  0  0  0  0
 30 68  2  0  0  0  0
 31 68  1  0  0  0  0
 31 70  1  0  0  0  0
 32 69  1  0  0  0  0
 32 73  1  0  0  0  0
 33 74  1  0  0  0  0
 33 79  2  0  0  0  0
 34 50  1  0  0  0  0
 34 75  1  0  0  0  0
 34 80  2  0  0  0  0
 35 64  1  0  0  0  0
 35 71  1  0  0  0  0
 35 81  2  0  0  0  0
 36 65  1  0  0  0  0
 36 76  1  0  0  0  0
 36 82  2  0  0  0  0
 37 72  1  0  0  0  0
 37 77  1  0  0  0  0
 37 83  2  0  0  0  0
 38 41  1  0  0  0  0
 39 50  1  0  0  0  0
 40 71  1  0  0  0  0
 41 43  1  0  0  0  0
 42 44  1  0  0  0  0
 42 45  1  0  0  0  0
 43 49  1  0  0  0  0
 44 51  1  0  0  0  0
 45 72  1  0  0  0  0
 46 51  1  0  0  0  0
 46 72  1  0  0  0  0
 47 52  1  0  0  0  0
 47 70  1  0  0  0  0
 48 52  1  0  0  0  0
 48 70  1  0  0  0  0
 49 75  1  0  0  0  0
 50 71  1  0  0  0  0
 51 69  1  0  0  0  0
 52 77  1  0  0  0  0
 54 63  1  0  0  0  0
 55 63  1  0  0  0  0
 56 65  1  0  0  0  0
 57 66  1  0  0  0  0
 58 66  1  0  0  0  0
 59 66  1  0  0  0  0
 60 78  1  0  0  0  0
 61 62  1  0  0  0  0
 61 85  1  0  0  0  0
 62 86  1  0  0  0  0
 64 66  1  0  0  0  0
 64 76  1  0  0  0  0
 65 78  1  0  0  0  0
 67 69  1  0  0  0  0
M  CHG  1  78   1
M  ISO  4  37 100  61 101  77 100  85 101
M  END
> <Batch ID>
0170

> <Smiles>
CNC(C)C(=O)NC(C(=O)N1Cc2cc([101O:1][101CH2:1]COc3cc(N4CC([100NH:0][100C:0](=O)N5CCCC(n6nc(-c7ccc(Oc8ccc(F)cc8F)cc7)c(C(N)=O)c6N)C5)C4)nc(C)c3C(C)C)ccc2CC1C(=O)NC1CCCc2ccccc21)C(C)(C)C

> <Shape>
0.294

> <Color>
0.100

> <Negative vol penalty>
0.000

$$$$

  -OEChem-04052322353D

 89 99  0     1  0  0  0  0  0999 V2000
  -18.2828  -30.8900   25.7396 C   0  0  0  0  0  0  0  0  0  0  0  0
  -19.6731  -30.8605   25.7810 C   0  0  0  0  0  0  0  0  0  0  0  0
  -20.5656  -14.5912   23.5385 C   0  0  0  0  0  0  0  0  0  0  0  0
  -19.7517  -14.0117   21.3387 C   0  0  0  0  0  0  0  0  0  0  0  0
  -17.5961  -30.0799   24.8362 C   0  0  0  0  0  0  0  0  0  0  0  0
  -20.3775  -30.0200   24.9198 C   0  0  0  0  0  0  0  0  0  0  0  0
  -26.5324  -29.6528   21.2730 C   0  0  0  0  0  0  0  0  0  0  0  0
  -19.3826  -14.1133   24.1021 C   0  0  0  0  0  0  0  0  0  0  0  0
  -18.5687  -13.5338   21.9024 C   0  0  0  0  0  0  0  0  0  0  0  0
  -27.6229  -28.8053   21.0833 C   0  0  0  0  0  0  0  0  0  0  0  0
  -18.0358  -11.1157   24.8980 C   0  0  0  0  0  0  0  0  0  0  0  0
  -18.1374  -10.3081   26.0307 C   0  0  0  0  0  0  0  0  0  0  0  0
  -28.1890  -24.3003   21.5227 C   0  0  0  0  0  0  0  0  0  0  0  0
  -27.8849  -22.8437   19.1651 C   0  0  0  0  0  0  0  0  0  0  0  0
  -26.3337  -27.5085   19.5099 C   0  0  0  0  0  0  0  0  0  0  0  0
  -16.8281  -11.9039   27.2861 C   0  0  0  0  0  0  0  0  0  0  0  0
  -20.7502  -14.5405   22.1567 C   0  0  0  0  0  0  0  0  0  0  0  0
  -23.1517  -14.3069   21.3287 C   0  0  0  0  0  0  0  0  0  0  0  0
  -18.2928  -29.2361   23.9568 C   0  0  0  0  0  0  0  0  0  0  0  0
  -25.3287  -29.4278   20.5897 C   0  0  0  0  0  0  0  0  0  0  0  0
  -19.6994  -29.1968   24.0048 C   0  0  0  0  0  0  0  0  0  0  0  0
  -26.9393  -23.7484   21.2085 C   0  0  0  0  0  0  0  0  0  0  0  0
  -29.2729  -24.1327   20.6614 C   0  0  0  0  0  0  0  0  0  0  0  0
  -26.7894  -22.9972   20.0272 C   0  0  0  0  0  0  0  0  0  0  0  0
  -25.2302  -28.3562   19.6908 C   0  0  0  0  0  0  0  0  0  0  0  0
  -29.1202  -23.4078   19.4823 C   0  0  0  0  0  0  0  0  0  0  0  0
  -18.3842  -13.5846   23.2841 C   0  0  0  0  0  0  0  0  0  0  0  0
  -27.5228  -27.7312   20.2038 C   0  0  0  0  0  0  0  0  0  0  0  0
  -17.3304  -12.3175   24.9594 C   0  0  0  0  0  0  0  0  0  0  0  0
  -17.5336  -10.7021   27.2247 C   0  0  0  0  0  0  0  0  0  0  0  0
  -16.7266  -12.7116   26.1534 C   0  0  0  0  0  0  0  0  0  0  0  0
  -21.9717  -15.0345   21.5738 C   0  0  0  0  0  0  0  0  0  0  0  0
  -24.0095  -15.2222   20.7693 C   0  0  0  0  0  0  0  0  0  0  0  0
  -23.4461  -12.9271   21.5838 C   0  0  0  0  0  0  0  0  0  0  0  0
  -22.3446  -28.7650   21.4612 C   0  0  0  0  0  0  0  0  0  0  0  0
  -21.7536  -29.1202   18.2915 C   0  0  0  0  0  0  0  0  0  0  0  0
  -22.9498  -29.0530   15.0960 C   0  0  0  0  0  0  0  0  0  0  0  0
  -23.8554  -21.2709   21.2712 C   0  0  0  0  0  0  0  0  0  0  0  0
  -17.5054  -28.3437   23.0304 C   0  0  0  0  0  0  0  0  0  0  0  0
  -24.1702  -30.3670   20.7852 C   0  0  0  0  0  0  0  0  0  0  0  0
  -25.7870  -23.9223   22.1664 C   0  0  0  0  0  0  0  0  0  0  0  0
  -25.4609  -22.3820   19.6464 C   0  0  0  0  0  0  0  0  0  0  0  0
  -23.9668  -28.0833   18.9176 C   0  0  0  0  0  0  0  0  0  0  0  0
  -18.3395  -27.7580   21.8940 C   0  0  0  0  0  0  0  0  0  0  0  0
  -24.0551  -19.2173   18.1548 C   0  0  0  0  0  0  0  0  0  0  0  0
  -19.6577  -27.2070   22.4284 C   0  0  0  0  0  0  0  0  0  0  0  0
  -23.5735  -17.8609   18.6676 C   0  0  0  0  0  0  0  0  0  0  0  0
  -32.2429  -26.6509   20.7042 C   0  0  0  0  0  0  0  0  0  0  0  0
  -24.4433  -23.6639   21.4928 C   0  0  0  0  0  0  0  0  0  0  0  0
  -23.4380  -20.3596   18.9527 C   0  0  0  0  0  0  0  0  0  0  0  0
  -23.1960  -18.9137   20.9444 C   0  0  0  0  0  0  0  0  0  0  0  0
  -32.5366  -26.6659   22.1984 C   0  0  0  0  0  0  0  0  0  0  0  0
  -30.8999  -24.7894   22.5422 C   0  0  0  0  0  0  0  0  0  0  0  0
  -30.6134  -24.7508   21.0326 C   0  0  2  0  0  0  0  0  0  0  0  0
  -20.4999  -28.3165   23.0696 C   0  0  1  0  0  0  0  0  0  0  0  0
  -22.8263  -29.7411   20.4253 C   0  0  1  0  0  0  0  0  0  0  0  0
  -30.8331  -26.1354   20.3687 C   0  0  1  0  0  0  0  0  0  0  0  0
  -23.8113  -17.7286   20.1816 C   0  0  1  0  0  0  0  0  0  0  0  0
  -30.2659  -23.2178   18.5431 C   0  0  0  0  0  0  0  0  0  0  0  0
  -22.2204  -29.3472   12.7129 C   0  0  0  0  0  0  0  0  0  0  0  0
  -20.4458  -26.3641   18.3541 C   0  0  0  0  0  0  0  0  0  0  0  0
  -20.6019  -26.3101   15.8559 C   0  0  0  0  0  0  0  0  0  0  0  0
  -19.2307  -28.0644   16.9805 C   0  0  0  0  0  0  0  0  0  0  0  0
  -32.6895  -25.2253   24.2256 C   0  0  0  0  0  0  0  0  0  0  0  0
  -24.7943  -31.3318   14.6909 C   0  0  0  0  0  0  0  0  0  0  0  0
  -29.7718  -27.1787   20.7450 C   0  0  0  0  0  0  0  0  0  1  0  0
  -21.7527  -28.2003   17.0945 C   0  0  1  0  0  0  0  0  0  0  0  0
  -22.7987  -30.0290   13.9431 C   0  0  2  0  0  0  0  0  0  0  0  0
  -20.5311  -27.2385   17.0871 C   0  0  0  0  0  0  0  0  0  0  0  0
  -22.0677  -16.3135   21.2009 N   0  0  0  0  0  0  0  0  0  0  0  0
  -23.3182  -16.3967   20.7158 N   0  0  0  0  0  0  0  0  0  0  0  0
  -22.8597  -29.0261   19.1479 N   0  0  0  0  0  0  0  0  0  0  0  0
  -24.4862  -22.4090   20.7464 N   0  0  0  0  0  0  0  0  0  0  0  0
  -23.6549  -20.1916   20.3956 N   0  0  0  0  0  0  0  0  0  0  0  0
  -25.2801  -15.1289   20.3229 N   0  0  0  0  0  0  0  0  0  0  0  0
  -22.4513  -12.1277   22.1632 N   0  0  0  0  0  0  0  0  0  0  0  0
  -21.1443  -29.1155   22.0494 N   0  0  0  0  0  0  0  0  0  0  0  0
  -21.8436  -29.0597   15.9191 N   0  0  0  0  0  0  0  0  0  0  0  0
  -32.3090  -25.2894   22.7715 N   0  3  2  0  0  0  0  0  0  0  0  0
  -24.1220  -30.6104   13.5798 N   0  3  0  0  0  0  0  0  0  0  0  0
  -24.5639  -12.4220   21.3211 O   0  0  0  0  0  0  0  0  0  0  0  0
  -23.0117  -27.7670   21.7074 O   0  0  0  0  0  0  0  0  0  0  0  0
  -20.8111  -29.8987   18.4566 O   0  0  0  0  0  0  0  0  0  0  0  0
  -23.9476  -28.3519   15.2487 O   0  0  0  0  0  0  0  0  0  0  0  0
  -23.5031  -21.2150   22.4562 O   0  0  0  0  0  0  0  0  0  0  0  0
  -17.2298  -13.1179   23.8338 O   0  0  0  0  0  0  0  0  0  0  0  0
  -28.5964  -26.8936   20.0153 O   0  0  0  0  0  0  0  0  0  1  0  0
  -17.6299   -9.9257   28.3119 F   0  0  0  0  0  0  0  0  0  0  0  0
  -16.0466  -13.8645   26.2181 F   0  0  0  0  0  0  0  0  0  0  0  0
  1  2  1  0  0  0  0
  1  5  2  0  0  0  0
  2  6  2  0  0  0  0
  3  8  2  0  0  0  0
  3 17  1  0  0  0  0
  4  9  1  0  0  0  0
  4 17  2  0  0  0  0
  5 19  1  0  0  0  0
  6 21  1  0  0  0  0
  7 10  2  0  0  0  0
  7 20  1  0  0  0  0
  8 27  1  0  0  0  0
  9 27  2  0  0  0  0
 10 28  1  0  0  0  0
 11 12  2  0  0  0  0
 11 29  1  0  0  0  0
 12 30  1  0  0  0  0
 13 22  2  0  0  0  0
 13 23  1  0  0  0  0
 14 24  2  0  0  0  0
 14 26  1  0  0  0  0
 15 25  1  0  0  0  0
 15 28  2  0  0  0  0
 16 30  2  0  0  0  0
 16 31  1  0  0  0  0
 17 32  1  0  0  0  0
 18 32  1  0  0  0  0
 18 33  2  0  0  0  0
 18 34  1  0  0  0  0
 19 21  2  0  0  0  0
 19 39  1  0  0  0  0
 20 25  2  0  0  0  0
 20 40  1  0  0  0  0
 21 55  1  0  0  0  0
 22 24  1  0  0  0  0
 22 41  1  0  0  0  0
 23 26  2  0  0  0  0
 23 54  1  0  0  0  0
 24 42  1  0  0  0  0
 25 43  1  0  0  0  0
 26 59  1  0  0  0  0
 27 86  1  0  0  0  0
 28 87  1  0  0  0  0
 29 31  2  0  0  0  0
 29 86  1  0  0  0  0
 30 88  1  0  0  0  0
 31 89  1  0  0  0  0
 32 70  2  0  0  0  0
 33 71  1  0  0  0  0
 33 75  1  0  0  0  0
 34 76  1  0  0  0  0
 34 81  2  0  0  0  0
 35 56  1  0  0  0  0
 35 77  1  0  0  0  0
 35 82  2  0  0  0  0
 36 67  1  0  0  0  0
 36 72  1  0  0  0  0
 36 83  2  0  0  0  0
 37 68  1  0  0  0  0
 37 78  1  0  0  0  0
 37 84  2  0  0  0  0
 38 73  1  0  0  0  0
 38 74  1  0  0  0  0
 38 85  2  0  0  0  0
 39 44  1  0  0  0  0
 40 56  1  0  0  0  0
 41 49  1  0  0  0  0
 42 73  1  0  0  0  0
 43 72  1  0  0  0  0
 44 46  1  0  0  0  0
 45 47  1  0  0  0  0
 45 50  1  0  0  0  0
 46 55  1  0  0  0  0
 47 58  1  0  0  0  0
 48 52  1  0  0  0  0
 48 57  1  0  0  0  0
 49 73  1  0  0  0  0
 50 74  1  0  0  0  0
 51 58  1  0  0  0  0
 51 74  1  0  0  0  0
 52 79  1  0  0  0  0
 53 54  1  0  0  0  0
 53 79  1  0  0  0  0
 54 57  1  0  0  0  0
 55 77  1  0  0  0  0
 56 72  1  0  0  0  0
 57 66  1  0  0  0  0
 58 71  1  0  0  0  0
 60 68  1  0  0  0  0
 61 69  1  0  0  0  0
 62 69  1  0  0  0  0
 63 69  1  0  0  0  0
 64 79  1  0  0  0  0
 65 80  1  0  0  0  0
 66 87  1  0  0  0  0
 67 69  1  0  0  0  0
 67 78  1  0  0  0  0
 68 80  1  0  0  0  0
 70 71  1  0  0  0  0
M  CHG  2  79   1  80   1
M  ISO  4  38 100  66 101  73 100  87 101
M  END
> <Batch ID>
0170

> <Smiles>
CNC(C)C(=O)NC(C(=O)N1Cc2cc([101O:1][101CH2:1]C3CCN(C)CC3c3cc4c(cc3C)C[100N:0]([100C:0](=O)N3CCCC(n5nc(-c6ccc(Oc7ccc(F)cc7F)cc6)c(C(N)=O)c5N)C3)CC4)ccc2CC1C(=O)NC1CCCc2ccccc21)C(C)(C)C

> <Shape>
0.189

> <Color>
0.110

> <Negative vol penalty>
0.000

$$$$

  -OEChem-04052322353D

 82 91  0     1  0  0  0  0  0999 V2000
  -27.7287  -37.8863   22.0602 C   0  0  0  0  0  0  0  0  0  0  0  0
  -28.1555  -36.8365   21.2532 C   0  0  0  0  0  0  0  0  0  0  0  0
  -23.5451   -9.9858   22.1661 C   0  0  0  0  0  0  0  0  0  0  0  0
  -24.2224   -8.6927   20.2410 C   0  0  0  0  0  0  0  0  0  0  0  0
  -27.0735  -37.6188   23.2615 C   0  0  0  0  0  0  0  0  0  0  0  0
  -27.9283  -35.5185   21.6477 C   0  0  0  0  0  0  0  0  0  0  0  0
  -26.5580  -29.0344   18.9282 C   0  0  0  0  0  0  0  0  0  0  0  0
  -27.7490  -22.7498   18.4943 C   0  0  0  0  0  0  0  0  0  0  0  0
  -22.2618   -9.4467   22.0768 C   0  0  0  0  0  0  0  0  0  0  0  0
  -22.9390   -8.1535   20.1517 C   0  0  0  0  0  0  0  0  0  0  0  0
  -27.0268  -27.7225   18.9827 C   0  0  0  0  0  0  0  0  0  0  0  0
  -20.7092   -6.5601   22.9073 C   0  0  0  0  0  0  0  0  0  0  0  0
  -20.1078   -6.1190   24.0860 C   0  0  0  0  0  0  0  0  0  0  0  0
  -28.0958  -21.4202   18.7069 C   0  0  0  0  0  0  0  0  0  0  0  0
  -25.8148  -27.3812   21.0403 C   0  0  0  0  0  0  0  0  0  0  0  0
  -18.3054   -7.6936   23.7556 C   0  0  0  0  0  0  0  0  0  0  0  0
  -24.5254   -9.6088   21.2482 C   0  0  0  0  0  0  0  0  0  0  0  0
  -26.9407   -9.6519   22.0679 C   0  0  0  0  0  0  0  0  0  0  0  0
  -26.8297  -36.2969   23.6662 C   0  0  0  0  0  0  0  0  0  0  0  0
  -25.7214  -29.5337   19.9368 C   0  0  0  0  0  0  0  0  0  0  0  0
  -27.2705  -35.2330   22.8562 C   0  0  0  0  0  0  0  0  0  0  0  0
  -25.3346  -28.6989   20.9950 C   0  0  0  0  0  0  0  0  0  0  0  0
  -28.3386  -23.7476   19.2625 C   0  0  0  0  0  0  0  0  0  0  0  0
  -21.9587   -8.5306   21.0696 C   0  0  0  0  0  0  0  0  0  0  0  0
  -26.6576  -26.8966   20.0403 C   0  0  0  0  0  0  0  0  0  0  0  0
  -20.1087   -7.5679   22.1527 C   0  0  0  0  0  0  0  0  0  0  0  0
  -18.9060   -6.6858   24.5102 C   0  0  0  0  0  0  0  0  0  0  0  0
  -18.9068   -8.1346   22.5768 C   0  0  0  0  0  0  0  0  0  0  0  0
  -25.8511  -10.1658   21.3396 C   0  0  0  0  0  0  0  0  0  0  0  0
  -29.0298  -21.1431   19.6921 C   0  0  0  0  0  0  0  0  0  0  0  0
  -29.2616  -23.3663   20.2230 C   0  0  0  0  0  0  0  0  0  0  0  0
  -27.9618  -10.5392   21.8301 C   0  0  0  0  0  0  0  0  0  0  0  0
  -27.0226   -8.4774   22.8862 C   0  0  0  0  0  0  0  0  0  0  0  0
  -25.9358  -31.8777   22.0731 C   0  0  0  0  0  0  0  0  0  0  0  0
  -22.8576  -31.0656   22.6954 C   0  0  0  0  0  0  0  0  0  0  0  0
  -20.4119  -28.6874   22.5965 C   0  0  0  0  0  0  0  0  0  0  0  0
  -27.7740  -16.3077   20.3508 C   0  0  0  0  0  0  0  0  0  0  0  0
  -26.1597  -36.0567   24.9959 C   0  0  0  0  0  0  0  0  0  0  0  0
  -25.2026  -30.9428   19.8495 C   0  0  0  0  0  0  0  0  0  0  0  0
  -24.4221  -29.1805   22.0922 C   0  0  0  0  0  0  0  0  0  0  0  0
  -25.6253  -34.6364   25.1609 C   0  0  0  0  0  0  0  0  0  0  0  0
  -29.5732  -13.6232   18.5707 C   0  0  0  0  0  0  0  0  0  0  0  0
  -26.6720  -33.6177   24.7212 C   0  0  0  0  0  0  0  0  0  0  0  0
  -28.8704  -12.3850   19.1196 C   0  0  0  0  0  0  0  0  0  0  0  0
  -29.2955  -19.1618   21.3281 C   0  0  0  0  0  0  0  0  0  0  0  0
  -28.6232  -14.8135   18.4452 C   0  0  0  0  0  0  0  0  0  0  0  0
  -27.2057  -13.9010   20.2624 C   0  0  0  0  0  0  0  0  0  0  0  0
  -27.0206  -33.7901   23.2379 C   0  0  1  0  0  0  0  0  0  0  0  0
  -29.4170  -19.7233   19.9374 C   0  0  1  0  0  0  0  0  0  0  0  0
  -24.7708  -31.5054   21.2002 C   0  0  1  0  0  0  0  0  0  0  0  0
  -28.1567  -12.7076   20.4413 C   0  0  1  0  0  0  0  0  0  0  0  0
  -28.3375  -18.7175   20.2627 C   0  0  1  0  0  0  0  0  0  0  0  0
  -29.9264  -24.3952   21.0776 C   0  0  0  0  0  0  0  0  0  0  0  0
  -18.0092  -28.3059   23.2118 C   0  0  0  0  0  0  0  0  0  0  0  0
  -23.6550  -30.7879   25.6275 C   0  0  0  0  0  0  0  0  0  0  0  0
  -21.5314  -29.5189   26.0126 C   0  0  0  0  0  0  0  0  0  0  0  0
  -21.4432  -31.8917   25.2479 C   0  0  0  0  0  0  0  0  0  0  0  0
  -19.6513  -28.1790   19.7820 C   0  0  0  0  0  0  0  0  0  0  0  0
  -27.9684  -25.1841   19.0377 C   0  0  0  0  0  0  0  0  0  1  0  0
  -22.1759  -30.0940   23.6282 C   0  0  1  0  0  0  0  0  0  0  0  0
  -18.9721  -28.7424   22.1187 C   0  0  2  0  0  0  0  0  0  0  0  0
  -22.2201  -30.5644   25.1095 C   0  0  0  0  0  0  0  0  0  0  0  0
  -26.1518  -11.2924   20.6881 N   0  0  0  0  0  0  0  0  0  0  0  0
  -29.6238  -22.0852   20.4583 N   0  0  0  0  0  0  0  0  0  0  0  0
  -27.4419  -11.4937   21.0062 N   0  0  0  0  0  0  0  0  0  0  0  0
  -23.9463  -30.5680   21.9655 N   0  0  0  0  0  0  0  0  0  0  0  0
  -27.9026  -15.0658   19.7031 N   0  0  0  0  0  0  0  0  0  0  0  0
  -29.2447  -10.5884   22.2475 N   0  0  0  0  0  0  0  0  0  0  0  0
  -25.8801   -7.6772   23.0227 N   0  0  0  0  0  0  0  0  0  0  0  0
  -25.9842  -33.2181   22.4053 N   0  0  0  0  0  0  0  0  0  0  0  0
  -20.8288  -29.9004   23.1027 N   0  0  0  0  0  0  0  0  0  0  0  0
  -28.3885  -17.3851   19.7226 N   0  0  0  0  0  0  0  0  0  0  0  0
  -18.7827  -27.8489   20.9411 N   0  3  0  0  0  0  0  0  0  0  0  0
  -28.0730   -8.1562   23.4920 O   0  0  0  0  0  0  0  0  0  0  0  0
  -26.7311  -31.0126   22.4207 O   0  0  0  0  0  0  0  0  0  0  0  0
  -22.4350  -32.2215   22.6119 O   0  0  0  0  0  0  0  0  0  0  0  0
  -21.0971  -27.6692   22.5310 O   0  0  0  0  0  0  0  0  0  0  0  0
  -27.1522  -16.4498   21.4095 O   0  0  0  0  0  0  0  0  0  0  0  0
  -20.7066   -8.0041   20.9823 O   0  0  0  0  0  0  0  0  0  0  0  0
  -27.1144  -25.6159   20.0963 O   0  0  0  0  0  0  0  0  0  1  0  0
  -18.3278   -6.2611   25.6414 F   0  0  0  0  0  0  0  0  0  0  0  0
  -18.3246   -9.1024   21.8555 F   0  0  0  0  0  0  0  0  0  0  0  0
  1  2  1  0  0  0  0
  1  5  2  0  0  0  0
  2  6  2  0  0  0  0
  3  9  2  0  0  0  0
  3 17  1  0  0  0  0
  4 10  1  0  0  0  0
  4 17  2  0  0  0  0
  5 19  1  0  0  0  0
  6 21  1  0  0  0  0
  7 11  2  0  0  0  0
  7 20  1  0  0  0  0
  8 14  2  0  0  0  0
  8 23  1  0  0  0  0
  9 24  1  0  0  0  0
 10 24  2  0  0  0  0
 11 25  1  0  0  0  0
 12 13  2  0  0  0  0
 12 26  1  0  0  0  0
 13 27  1  0  0  0  0
 14 30  1  0  0  0  0
 15 22  1  0  0  0  0
 15 25  2  0  0  0  0
 16 27  2  0  0  0  0
 16 28  1  0  0  0  0
 17 29  1  0  0  0  0
 18 29  1  0  0  0  0
 18 32  2  0  0  0  0
 18 33  1  0  0  0  0
 19 21  2  0  0  0  0
 19 38  1  0  0  0  0
 20 22  2  0  0  0  0
 20 39  1  0  0  0  0
 21 48  1  0  0  0  0
 22 40  1  0  0  0  0
 23 31  2  0  0  0  0
 23 59  1  0  0  0  0
 24 79  1  0  0  0  0
 25 80  1  0  0  0  0
 26 28  2  0  0  0  0
 26 79  1  0  0  0  0
 27 81  1  0  0  0  0
 28 82  1  0  0  0  0
 29 63  2  0  0  0  0
 30 49  1  0  0  0  0
 30 64  2  0  0  0  0
 31 53  1  0  0  0  0
 31 64  1  0  0  0  0
 32 65  1  0  0  0  0
 32 68  1  0  0  0  0
 33 69  1  0  0  0  0
 33 74  2  0  0  0  0
 34 50  1  0  0  0  0
 34 70  1  0  0  0  0
 34 75  2  0  0  0  0
 35 60  1  0  0  0  0
 35 66  1  0  0  0  0
 35 76  2  0  0  0  0
 36 61  1  0  0  0  0
 36 71  1  0  0  0  0
 36 77  2  0  0  0  0
 37 67  1  0  0  0  0
 37 72  1  0  0  0  0
 37 78  2  0  0  0  0
 38 41  1  0  0  0  0
 39 50  1  0  0  0  0
 40 66  1  0  0  0  0
 41 43  1  0  0  0  0
 42 44  1  0  0  0  0
 42 46  1  0  0  0  0
 43 48  1  0  0  0  0
 44 51  1  0  0  0  0
 45 49  1  0  0  0  0
 45 52  1  0  0  0  0
 46 67  1  0  0  0  0
 47 51  1  0  0  0  0
 47 67  1  0  0  0  0
 48 70  1  0  0  0  0
 49 52  1  0  0  0  0
 50 66  1  0  0  0  0
 51 65  1  0  0  0  0
 52 72  1  0  0  0  0
 54 61  1  0  0  0  0
 55 62  1  0  0  0  0
 56 62  1  0  0  0  0
 57 62  1  0  0  0  0
 58 73  1  0  0  0  0
 59 80  1  0  0  0  0
 60 62  1  0  0  0  0
 60 71  1  0  0  0  0
 61 73  1  0  0  0  0
 63 65  1  0  0  0  0
M  CHG  1  73   1
M  ISO  4  37 100  59 101  72 100  80 101
M  END
> <Batch ID>
0170

> <Smiles>
CNC(C)C(=O)NC(C(=O)N1Cc2cc([101O:1][101CH2:1]c3ccc(C4CC4[100NH:0][100C:0](=O)N4CCCC(n5nc(-c6ccc(Oc7ccc(F)cc7F)cc6)c(C(N)=O)c5N)C4)nc3C)ccc2CC1C(=O)NC1CCCc2ccccc21)C(C)(C)C

> <Shape>
0.303

> <Color>
0.091

> <Negative vol penalty>
0.000

$$$$

  -OEChem-04052322353D

 89 99  0     1  0  0  0  0  0999 V2000
  -16.0886  -28.5151   22.4476 C   0  0  0  0  0  0  0  0  0  0  0  0
  -15.9922  -27.2867   21.8016 C   0  0  0  0  0  0  0  0  0  0  0  0
  -27.4886  -23.3597   20.6711 C   0  0  0  0  0  0  0  0  0  0  0  0
  -29.1244  -23.3282   18.8935 C   0  0  0  0  0  0  0  0  0  0  0  0
  -17.3095  -28.9274   22.9799 C   0  0  0  0  0  0  0  0  0  0  0  0
  -17.1168  -26.4704   21.6867 C   0  0  0  0  0  0  0  0  0  0  0  0
  -17.2524  -20.3492   21.8221 C   0  0  0  0  0  0  0  0  0  0  0  0
  -27.5434  -24.7532   20.6969 C   0  0  0  0  0  0  0  0  0  0  0  0
  -29.1792  -24.7218   18.9192 C   0  0  0  0  0  0  0  0  0  0  0  0
  -17.3045  -19.3896   20.8120 C   0  0  0  0  0  0  0  0  0  0  0  0
  -26.2969  -27.3288   18.8954 C   0  0  0  0  0  0  0  0  0  0  0  0
  -25.0892  -28.0240   18.9566 C   0  0  0  0  0  0  0  0  0  0  0  0
  -24.0573  -15.5251   19.4694 C   0  0  0  0  0  0  0  0  0  0  0  0
  -19.7008  -19.2669   21.0605 C   0  0  0  0  0  0  0  0  0  0  0  0
  -25.7743  -29.0304   21.0435 C   0  0  0  0  0  0  0  0  0  0  0  0
  -28.2791  -22.6472   19.7694 C   0  0  0  0  0  0  0  0  0  0  0  0
  -27.3658  -20.4043   18.9675 C   0  0  0  0  0  0  0  0  0  0  0  0
  -18.4474  -28.1115   22.8800 C   0  0  0  0  0  0  0  0  0  0  0  0
  -18.4273  -20.7836   22.4524 C   0  0  0  0  0  0  0  0  0  0  0  0
  -18.3544  -26.8729   22.2171 C   0  0  0  0  0  0  0  0  0  0  0  0
  -23.8568  -14.7427   20.6012 C   0  0  0  0  0  0  0  0  0  0  0  0
  -19.6606  -20.2303   22.0800 C   0  0  0  0  0  0  0  0  0  0  0  0
  -23.0223  -15.6957   18.5568 C   0  0  0  0  0  0  0  0  0  0  0  0
  -28.3886  -25.4343   19.8209 C   0  0  0  0  0  0  0  0  0  0  0  0
  -18.5291  -18.8504   20.4291 C   0  0  0  0  0  0  0  0  0  0  0  0
  -27.2433  -27.4844   19.9083 C   0  0  0  0  0  0  0  0  0  0  0  0
  -24.8279  -28.8748   20.0306 C   0  0  0  0  0  0  0  0  0  0  0  0
  -26.9820  -28.3352   20.9823 C   0  0  0  0  0  0  0  0  0  0  0  0
  -28.2234  -21.2076   19.7427 C   0  0  0  0  0  0  0  0  0  0  0  0
  -21.8156  -15.0676   18.8198 C   0  0  0  0  0  0  0  0  0  0  0  0
  -22.6127  -14.1574   20.7729 C   0  0  0  0  0  0  0  0  0  0  0  0
  -27.7060  -19.1164   19.3022 C   0  0  0  0  0  0  0  0  0  0  0  0
  -26.3523  -20.7880   18.0287 C   0  0  0  0  0  0  0  0  0  0  0  0
  -19.9348  -23.5699   22.7126 C   0  0  0  0  0  0  0  0  0  0  0  0
  -21.8468  -21.9036   24.7350 C   0  0  0  0  0  0  0  0  0  0  0  0
  -23.0804  -18.8791   25.7238 C   0  0  0  0  0  0  0  0  0  0  0  0
  -29.0336  -15.2244   22.9083 C   0  0  0  0  0  0  0  0  0  0  0  0
  -19.7564  -28.6208   23.4295 C   0  0  0  0  0  0  0  0  0  0  0  0
  -18.3513  -21.7999   23.5586 C   0  0  0  0  0  0  0  0  0  0  0  0
  -20.9487  -20.6480   22.7395 C   0  0  0  0  0  0  0  0  0  0  0  0
  -20.8129  -27.5314   23.5944 C   0  0  0  0  0  0  0  0  0  0  0  0
  -31.6168  -17.3071   21.9383 C   0  0  0  0  0  0  0  0  0  0  0  0
  -20.8811  -26.6603   22.3440 C   0  0  0  0  0  0  0  0  0  0  0  0
  -30.9067  -18.4503   21.2130 C   0  0  0  0  0  0  0  0  0  0  0  0
  -26.1999  -13.8502   20.9649 C   0  0  0  0  0  0  0  0  0  0  0  0
  -25.4141  -15.8917   22.2359 C   0  0  0  0  0  0  0  0  0  0  0  0
  -19.2723  -14.9974   18.3640 C   0  0  0  0  0  0  0  0  0  0  0  0
  -30.8465  -16.8893   23.1858 C   0  0  0  0  0  0  0  0  0  0  0  0
  -27.3412  -13.6940   21.9670 C   0  0  0  0  0  0  0  0  0  0  0  0
  -26.5712  -15.6887   23.2097 C   0  0  0  0  0  0  0  0  0  0  0  0
  -28.7076  -17.6337   22.1933 C   0  0  0  0  0  0  0  0  0  0  0  0
  -24.9885  -14.5589   21.5950 C   0  0  0  0  0  0  0  0  0  0  0  0
  -19.5461  -25.9484   22.0941 C   0  0  1  0  0  0  0  0  0  0  0  0
  -20.6755  -15.2232   17.8660 C   0  0  1  0  0  0  0  0  0  0  0  0
  -19.6647  -22.5445   23.7772 C   0  0  1  0  0  0  0  0  0  0  0  0
  -29.4407  -18.0892   20.9157 C   0  0  1  0  0  0  0  0  0  0  0  0
  -19.7073  -16.3900   17.9866 C   0  0  1  0  0  0  0  0  0  0  0  0
  -23.2343  -16.5335   17.3430 C   0  0  0  0  0  0  0  0  0  0  0  0
  -19.1730  -16.9711   16.7030 C   0  0  0  0  0  0  0  0  0  0  0  0
  -24.6534  -17.8393   27.3796 C   0  0  0  0  0  0  0  0  0  0  0  0
  -24.2217  -22.8500   23.0695 C   0  0  0  0  0  0  0  0  0  0  0  0
  -25.6036  -21.0654   24.1530 C   0  0  0  0  0  0  0  0  0  0  0  0
  -24.6026  -22.8804   25.5410 C   0  0  0  0  0  0  0  0  0  0  0  0
  -20.9111  -17.2928   26.9636 C   0  0  0  0  0  0  0  0  0  0  0  0
  -19.8608  -17.4002   19.0952 C   0  0  0  0  0  0  0  0  0  1  0  0
  -23.1046  -21.0825   24.5841 C   0  0  1  0  0  0  0  0  0  0  0  0
  -23.2157  -18.2467   27.0972 C   0  0  2  0  0  0  0  0  0  0  0  0
  -24.3593  -21.9629   24.3230 C   0  0  0  0  0  0  0  0  0  0  0  0
  -29.0464  -20.4901   20.5121 N   0  0  0  0  0  0  0  0  0  0  0  0
  -21.5833  -14.3001   19.9082 N   0  0  0  0  0  0  0  0  0  0  0  0
  -28.7075  -19.2224   20.2220 N   0  0  0  0  0  0  0  0  0  0  0  0
  -20.8230  -21.6493   23.8114 N   0  0  0  0  0  0  0  0  0  0  0  0
  -29.4582  -16.5610   22.8626 N   0  0  0  0  0  0  0  0  0  0  0  0
  -27.6907  -14.9744   22.5811 N   0  0  0  0  0  0  0  0  0  0  0  0
  -22.4036  -13.3595   21.9254 N   0  0  0  0  0  0  0  0  0  0  0  0
  -27.2431  -17.9149   18.8966 N   0  0  0  0  0  0  0  0  0  0  0  0
  -26.1328  -22.1538   17.8035 N   0  0  0  0  0  0  0  0  0  0  0  0
  -19.4029  -24.8161   22.9839 N   0  0  0  0  0  0  0  0  0  0  0  0
  -23.1958  -20.2520   25.7801 N   0  0  0  0  0  0  0  0  0  0  0  0
  -22.3554  -17.0339   27.1960 N   0  3  0  0  0  0  0  0  0  0  0  0
  -25.6507  -19.9449   17.4202 O   0  0  0  0  0  0  0  0  0  0  0  0
  -20.5794  -23.2542   21.7194 O   0  0  0  0  0  0  0  0  0  0  0  0
  -21.7726  -22.7348   25.6434 O   0  0  0  0  0  0  0  0  0  0  0  0
  -22.8948  -18.2208   24.7027 O   0  0  0  0  0  0  0  0  0  0  0  0
  -29.8060  -14.3082   23.2165 O   0  0  0  0  0  0  0  0  0  0  0  0
  -28.4421  -26.7941   19.8456 O   0  0  0  0  0  0  0  0  0  0  0  0
  -18.5833  -17.9053   19.4338 O   0  0  0  0  0  0  0  0  0  1  0  0
  -23.6687  -29.5435   20.0885 F   0  0  0  0  0  0  0  0  0  0  0  0
  -27.8878  -28.4896   21.9577 F   0  0  0  0  0  0  0  0  0  0  0  0
  1  2  1  0  0  0  0
  1  5  2  0  0  0  0
  2  6  2  0  0  0  0
  3  8  2  0  0  0  0
  3 16  1  0  0  0  0
  4  9  1  0  0  0  0
  4 16  2  0  0  0  0
  5 18  1  0  0  0  0
  6 20  1  0  0  0  0
  7 10  2  0  0  0  0
  7 19  1  0  0  0  0
  8 24  1  0  0  0  0
  9 24  2  0  0  0  0
 10 25  1  0  0  0  0
 11 12  2  0  0  0  0
 11 26  1  0  0  0  0
 12 27  1  0  0  0  0
 13 21  2  0  0  0  0
 13 23  1  0  0  0  0
 14 22  1  0  0  0  0
 14 25  2  0  0  0  0
 15 27  2  0  0  0  0
 15 28  1  0  0  0  0
 16 29  1  0  0  0  0
 17 29  1  0  0  0  0
 17 32  2  0  0  0  0
 17 33  1  0  0  0  0
 18 20  2  0  0  0  0
 18 38  1  0  0  0  0
 19 22  2  0  0  0  0
 19 39  1  0  0  0  0
 20 53  1  0  0  0  0
 21 31  1  0  0  0  0
 21 52  1  0  0  0  0
 22 40  1  0  0  0  0
 23 30  2  0  0  0  0
 23 58  1  0  0  0  0
 24 86  1  0  0  0  0
 25 87  1  0  0  0  0
 26 28  2  0  0  0  0
 26 86  1  0  0  0  0
 27 88  1  0  0  0  0
 28 89  1  0  0  0  0
 29 69  2  0  0  0  0
 30 54  1  0  0  0  0
 30 70  1  0  0  0  0
 31 70  2  0  0  0  0
 31 75  1  0  0  0  0
 32 71  1  0  0  0  0
 32 76  1  0  0  0  0
 33 77  1  0  0  0  0
 33 81  2  0  0  0  0
 34 55  1  0  0  0  0
 34 78  1  0  0  0  0
 34 82  2  0  0  0  0
 35 66  1  0  0  0  0
 35 72  1  0  0  0  0
 35 83  2  0  0  0  0
 36 67  1  0  0  0  0
 36 79  1  0  0  0  0
 36 84  2  0  0  0  0
 37 73  1  0  0  0  0
 37 74  1  0  0  0  0
 37 85  2  0  0  0  0
 38 41  1  0  0  0  0
 39 55  1  0  0  0  0
 40 72  1  0  0  0  0
 41 43  1  0  0  0  0
 42 44  1  0  0  0  0
 42 48  1  0  0  0  0
 43 53  1  0  0  0  0
 44 56  1  0  0  0  0
 45 49  1  0  0  0  0
 45 52  1  0  0  0  0
 46 50  1  0  0  0  0
 46 52  1  0  0  0  0
 47 54  1  0  0  0  0
 47 57  1  0  0  0  0
 48 73  1  0  0  0  0
 49 74  1  0  0  0  0
 50 74  1  0  0  0  0
 51 56  1  0  0  0  0
 51 73  1  0  0  0  0
 53 78  1  0  0  0  0
 54 57  1  0  0  0  0
 55 72  1  0  0  0  0
 56 71  1  0  0  0  0
 57 59  1  0  0  0  0
 57 65  1  0  0  0  0
 60 67  1  0  0  0  0
 61 68  1  0  0  0  0
 62 68  1  0  0  0  0
 63 68  1  0  0  0  0
 64 80  1  0  0  0  0
 65 87  1  0  0  0  0
 66 68  1  0  0  0  0
 66 79  1  0  0  0  0
 67 80  1  0  0  0  0
 69 71  1  0  0  0  0
M  CHG  1  80   1
M  ISO  4  37 100  65 101  74 100  87 101
M  END
> <Batch ID>
0170

> <Smiles>
CNC(C)C(=O)NC(C(=O)N1Cc2cc([101O:1][101CH2:1]C3(C)CC3c3nc(N)c(C4CC[100N:0]([100C:0](=O)N5CCCC(n6nc(-c7ccc(Oc8ccc(F)cc8F)cc7)c(C(N)=O)c6N)C5)CC4)cc3C)ccc2CC1C(=O)NC1CCCc2ccccc21)C(C)(C)C

> <Shape>
0.212

> <Color>
0.083

> <Negative vol penalty>
0.000

$$$$

  -OEChem-04052322353D

 90100  0     1  0  0  0  0  0999 V2000
  -29.1867  -25.0786   17.1790 C   0  0  0  0  0  0  0  0  0  0  0  0
  -28.0237  -25.0919   17.9423 C   0  0  0  0  0  0  0  0  0  0  0  0
  -28.5032  -16.8472   20.1949 C   0  0  0  0  0  0  0  0  0  0  0  0
  -26.3662  -17.5972   19.3534 C   0  0  0  0  0  0  0  0  0  0  0  0
  -30.2703  -25.8748   17.5477 C   0  0  0  0  0  0  0  0  0  0  0  0
  -27.9440  -25.9005   19.0755 C   0  0  0  0  0  0  0  0  0  0  0  0
  -23.5570  -28.4137   19.3640 C   0  0  0  0  0  0  0  0  0  0  0  0
  -28.9527  -18.1671   20.2297 C   0  0  0  0  0  0  0  0  0  0  0  0
  -26.8158  -18.9172   19.3883 C   0  0  0  0  0  0  0  0  0  0  0  0
  -22.4424  -27.7007   19.8033 C   0  0  0  0  0  0  0  0  0  0  0  0
  -30.1164  -20.4604   18.0363 C   0  0  0  0  0  0  0  0  0  0  0  0
  -31.3921  -20.7232   17.5372 C   0  0  0  0  0  0  0  0  0  0  0  0
  -21.7618  -24.7024   22.8721 C   0  0  0  0  0  0  0  0  0  0  0  0
  -22.7076  -28.6534   22.0035 C   0  0  0  0  0  0  0  0  0  0  0  0
  -32.0632  -21.5699   19.6982 C   0  0  0  0  0  0  0  0  0  0  0  0
  -27.2099  -16.5622   19.7566 C   0  0  0  0  0  0  0  0  0  0  0  0
  -27.2950  -14.1329   18.9828 C   0  0  0  0  0  0  0  0  0  0  0  0
  -30.2003  -26.7009   18.6805 C   0  0  0  0  0  0  0  0  0  0  0  0
  -24.2630  -29.2450   20.2455 C   0  0  0  0  0  0  0  0  0  0  0  0
  -29.0281  -26.7075   19.4605 C   0  0  0  0  0  0  0  0  0  0  0  0
  -20.7144  -24.7523   21.9367 C   0  0  0  0  0  0  0  0  0  0  0  0
  -23.8293  -29.3779   21.5723 C   0  0  0  0  0  0  0  0  0  0  0  0
  -19.7641  -23.7122   21.9203 C   0  0  0  0  0  0  0  0  0  0  0  0
  -21.8448  -23.6632   23.7990 C   0  0  0  0  0  0  0  0  0  0  0  0
  -19.8520  -22.6787   22.8665 C   0  0  0  0  0  0  0  0  0  0  0  0
  -20.8873  -22.6543   23.7993 C   0  0  0  0  0  0  0  0  0  0  0  0
  -28.1090  -19.2021   19.8265 C   0  0  0  0  0  0  0  0  0  0  0  0
  -22.0193  -27.8182   21.1240 C   0  0  0  0  0  0  0  0  0  0  0  0
  -29.8140  -20.7525   19.3664 C   0  0  0  0  0  0  0  0  0  0  0  0
  -32.3655  -21.2779   18.3682 C   0  0  0  0  0  0  0  0  0  0  0  0
  -30.7874  -21.3072   20.1973 C   0  0  0  0  0  0  0  0  0  0  0  0
  -26.7452  -15.1988   19.7198 C   0  0  0  0  0  0  0  0  0  0  0  0
  -26.4975  -13.0571   19.2880 C   0  0  0  0  0  0  0  0  0  0  0  0
  -28.4255  -14.1166   18.1011 C   0  0  0  0  0  0  0  0  0  0  0  0
  -27.2330  -29.3074   21.3764 C   0  0  0  0  0  0  0  0  0  0  0  0
  -26.2613  -32.1133   22.6822 C   0  0  0  0  0  0  0  0  0  0  0  0
  -24.5703  -34.7703   23.9967 C   0  0  0  0  0  0  0  0  0  0  0  0
  -23.1899  -15.3944   23.0224 C   0  0  0  0  0  0  0  0  0  0  0  0
  -31.4144  -27.5083   19.0663 C   0  0  0  0  0  0  0  0  0  0  0  0
  -25.4474  -30.0281   19.7491 C   0  0  0  0  0  0  0  0  0  0  0  0
  -18.6153  -23.7040   20.9421 C   0  0  0  0  0  0  0  0  0  0  0  0
  -24.5404  -30.2728   22.5531 C   0  0  0  0  0  0  0  0  0  0  0  0
  -31.1135  -28.6195   20.0687 C   0  0  0  0  0  0  0  0  0  0  0  0
  -18.8474  -24.6122   19.7372 C   0  0  0  0  0  0  0  0  0  0  0  0
  -21.8992  -12.6195   20.6963 C   0  0  0  0  0  0  0  0  0  0  0  0
  -30.2454  -28.0915   21.2064 C   0  0  0  0  0  0  0  0  0  0  0  0
  -19.3216  -25.9810   20.1991 C   0  0  0  0  0  0  0  0  0  0  0  0
  -23.1879  -12.6759   19.8856 C   0  0  0  0  0  0  0  0  0  0  0  0
  -22.5568  -18.6116   22.9220 C   0  0  0  0  0  0  0  0  0  0  0  0
  -20.6766  -17.7558   24.3685 C   0  0  0  0  0  0  0  0  0  0  0  0
  -21.7750  -13.8588   21.5782 C   0  0  0  0  0  0  0  0  0  0  0  0
  -24.1035  -13.2301   22.2266 C   0  0  0  0  0  0  0  0  0  0  0  0
  -22.5078  -19.9442   23.6580 C   0  0  0  0  0  0  0  0  0  0  0  0
  -20.6364  -19.0933   25.0962 C   0  0  0  0  0  0  0  0  0  0  0  0
  -28.8943  -27.5900   20.6825 C   0  0  1  0  0  0  0  0  0  0  0  0
  -20.6668  -25.8735   20.9210 C   0  0  1  0  0  0  0  0  0  1  0  0
  -26.3973  -30.4474   20.8668 C   0  0  1  0  0  0  0  0  0  0  0  0
  -24.4273  -12.7386   20.8006 C   0  0  2  0  0  0  0  0  0  0  0  0
  -22.0677  -17.4637   23.8059 C   0  0  0  0  0  0  0  0  0  0  0  0
  -22.9722  -23.6588   24.7790 C   0  0  0  0  0  0  0  0  0  0  0  0
  -18.8384  -21.5744   22.8826 C   0  0  0  0  0  0  0  0  0  0  0  0
  -24.8757  -36.7416   25.5192 C   0  0  0  0  0  0  0  0  0  0  0  0
  -26.1598  -30.2572   25.1018 C   0  0  0  0  0  0  0  0  0  0  0  0
  -25.5147  -32.2306   26.5010 C   0  0  0  0  0  0  0  0  0  0  0  0
  -27.7217  -32.1959   25.3390 C   0  0  0  0  0  0  0  0  0  0  0  0
  -23.9219  -36.6863   21.8363 C   0  0  0  0  0  0  0  0  0  0  0  0
  -20.9753  -21.5451   24.7994 C   0  0  0  0  0  0  0  0  0  0  0  0
  -25.6122  -32.5189   23.9834 C   0  0  1  0  0  0  0  0  0  0  0  0
  -24.9210  -36.2448   24.0826 C   0  0  2  0  0  0  0  0  0  0  0  0
  -26.2366  -31.7933   25.2086 C   0  0  0  0  0  0  0  0  0  0  0  0
  -25.6806  -14.8335   20.4390 N   0  0  0  0  0  0  0  0  0  0  0  0
  -25.5550  -13.5259   20.1553 N   0  0  0  0  0  0  0  0  0  0  0  0
  -25.6968  -31.0129   22.0216 N   0  0  0  0  0  0  0  0  0  0  0  0
  -23.0229  -14.2174   22.2661 N   0  0  0  0  0  0  0  0  0  0  0  0
  -26.5175  -11.7653   18.8964 N   0  0  0  0  0  0  0  0  0  0  0  0
  -29.1331  -15.3096   17.8999 N   0  0  0  0  0  0  0  0  0  0  0  0
  -28.0133  -28.7049   20.4081 N   0  0  0  0  0  0  0  0  0  0  0  0
  -25.6951  -33.9741   24.0447 N   0  0  0  0  0  0  0  0  0  0  0  0
  -22.0693  -16.2190   23.0769 N   0  0  0  0  0  0  0  0  0  0  0  0
  -21.1075  -20.1865   24.1678 N   0  3  0  0  0  0  0  0  0  0  0  0
  -23.9636  -37.0527   23.2754 N   0  3  0  0  0  0  0  0  0  0  0  0
  -28.7873  -13.0788   17.4966 O   0  0  0  0  0  0  0  0  0  0  0  0
  -27.1752  -28.9982   22.5608 O   0  0  0  0  0  0  0  0  0  0  0  0
  -27.2289  -32.7537   22.2636 O   0  0  0  0  0  0  0  0  0  0  0  0
  -23.4140  -34.3651   23.9006 O   0  0  0  0  0  0  0  0  0  0  0  0
  -24.2443  -15.6841   23.5959 O   0  0  0  0  0  0  0  0  0  0  0  0
  -28.5473  -20.4903   19.8606 O   0  0  0  0  0  0  0  0  0  0  0  0
  -20.9320  -27.1228   21.5555 O   0  0  0  0  0  0  0  0  0  1  0  0
  -33.5910  -21.5288   17.8892 F   0  0  0  0  0  0  0  0  0  0  0  0
  -30.5032  -21.5888   21.4763 F   0  0  0  0  0  0  0  0  0  0  0  0
  1  2  1  0  0  0  0
  1  5  2  0  0  0  0
  2  6  2  0  0  0  0
  3  8  2  0  0  0  0
  3 16  1  0  0  0  0
  4  9  1  0  0  0  0
  4 16  2  0  0  0  0
  5 18  1  0  0  0  0
  6 20  1  0  0  0  0
  7 10  2  0  0  0  0
  7 19  1  0  0  0  0
  8 27  1  0  0  0  0
  9 27  2  0  0  0  0
 10 28  1  0  0  0  0
 11 12  2  0  0  0  0
 11 29  1  0  0  0  0
 12 30  1  0  0  0  0
 13 21  2  0  0  0  0
 13 24  1  0  0  0  0
 14 22  1  0  0  0  0
 14 28  2  0  0  0  0
 15 30  2  0  0  0  0
 15 31  1  0  0  0  0
 16 32  1  0  0  0  0
 17 32  1  0  0  0  0
 17 33  2  0  0  0  0
 17 34  1  0  0  0  0
 18 20  2  0  0  0  0
 18 39  1  0  0  0  0
 19 22  2  0  0  0  0
 19 40  1  0  0  0  0
 20 55  1  0  0  0  0
 21 23  1  0  0  0  0
 21 56  1  0  0  0  0
 22 42  1  0  0  0  0
 23 25  2  0  0  0  0
 23 41  1  0  0  0  0
 24 26  2  0  0  0  0
 24 60  1  0  0  0  0
 25 26  1  0  0  0  0
 25 61  1  0  0  0  0
 26 67  1  0  0  0  0
 27 87  1  0  0  0  0
 28 88  1  0  0  0  0
 29 31  2  0  0  0  0
 29 87  1  0  0  0  0
 30 89  1  0  0  0  0
 31 90  1  0  0  0  0
 32 71  2  0  0  0  0
 33 72  1  0  0  0  0
 33 75  1  0  0  0  0
 34 76  1  0  0  0  0
 34 82  2  0  0  0  0
 35 57  1  0  0  0  0
 35 77  1  0  0  0  0
 35 83  2  0  0  0  0
 36 68  1  0  0  0  0
 36 73  1  0  0  0  0
 36 84  2  0  0  0  0
 37 69  1  0  0  0  0
 37 78  1  0  0  0  0
 37 85  2  0  0  0  0
 38 74  1  0  0  0  0
 38 79  1  0  0  0  0
 38 86  2  0  0  0  0
 39 43  1  0  0  0  0
 40 57  1  0  0  0  0
 41 44  1  0  0  0  0
 42 73  1  0  0  0  0
 43 46  1  0  0  0  0
 44 47  1  0  0  0  0
 45 48  1  0  0  0  0
 45 51  1  0  0  0  0
 46 55  1  0  0  0  0
 47 56  1  0  0  0  0
 48 58  1  0  0  0  0
 49 53  1  0  0  0  0
 49 59  1  0  0  0  0
 50 54  1  0  0  0  0
 50 59  1  0  0  0  0
 51 74  1  0  0  0  0
 52 58  1  0  0  0  0
 52 74  1  0  0  0  0
 53 80  1  0  0  0  0
 54 80  1  0  0  0  0
 55 77  1  0  0  0  0
 56 88  1  0  0  0  0
 57 73  1  0  0  0  0
 58 72  1  0  0  0  0
 59 79  1  0  0  0  0
 62 69  1  0  0  0  0
 63 70  1  0  0  0  0
 64 70  1  0  0  0  0
 65 70  1  0  0  0  0
 66 81  1  0  0  0  0
 67 80  1  0  0  0  0
 68 70  1  0  0  0  0
 68 78  1  0  0  0  0
 69 81  1  0  0  0  0
 71 72  1  0  0  0  0
M  CHG  2  80   1  81   1
M  ISO  4  38 100  56 101  79 100  88 101
M  END
> <Batch ID>
0170

> <Smiles>
CNC(C)C(=O)NC(C(=O)N1Cc2cc([101O:1][101CH:1]3CCCc4c3cc(C)c(CN3CCC([100NH:0][100C:0](=O)N5CCCC(n6nc(-c7ccc(Oc8ccc(F)cc8F)cc7)c(C(N)=O)c6N)C5)CC3)c4C)ccc2CC1C(=O)NC1CCCc2ccccc21)C(C)(C)C

> <Shape>
0.307

> <Color>
0.077

> <Negative vol penalty>
0.000

$$$$

  -OEChem-04052322353D

 91102  0     1  0  0  0  0  0999 V2000
  -16.8929  -26.8547   21.7878 C   0  0  0  0  0  0  0  0  0  0  0  0
  -18.0269  -26.1407   22.1615 C   0  0  0  0  0  0  0  0  0  0  0  0
  -24.3664   -9.5024   21.6776 C   0  0  0  0  0  0  0  0  0  0  0  0
  -22.5049  -10.4057   20.4303 C   0  0  0  0  0  0  0  0  0  0  0  0
  -17.0245  -28.1105   21.1966 C   0  0  0  0  0  0  0  0  0  0  0  0
  -19.2934  -26.6819   21.9434 C   0  0  0  0  0  0  0  0  0  0  0  0
  -24.2442  -26.0090   25.4849 C   0  0  0  0  0  0  0  0  0  0  0  0
  -33.5145  -20.2167   24.4519 C   0  0  0  0  0  0  0  0  0  0  0  0
  -23.6930   -8.2873   21.8027 C   0  0  0  0  0  0  0  0  0  0  0  0
  -21.8314   -9.1906   20.5554 C   0  0  0  0  0  0  0  0  0  0  0  0
  -25.3484  -25.1618   25.4023 C   0  0  0  0  0  0  0  0  0  0  0  0
  -21.2138   -6.9983   23.7044 C   0  0  0  0  0  0  0  0  0  0  0  0
  -21.2099   -6.3864   24.9578 C   0  0  0  0  0  0  0  0  0  0  0  0
  -33.4878  -20.3327   23.0621 C   0  0  0  0  0  0  0  0  0  0  0  0
  -26.5976  -26.9070   24.3009 C   0  0  0  0  0  0  0  0  0  0  0  0
  -31.1377  -20.8860   23.1535 C   0  0  0  0  0  0  0  0  0  0  0  0
  -22.3076   -4.4510   24.0163 C   0  0  0  0  0  0  0  0  0  0  0  0
  -23.7723  -10.5616   20.9915 C   0  0  0  0  0  0  0  0  0  0  0  0
  -25.3446  -12.2011   19.8306 C   0  0  0  0  0  0  0  0  0  0  0  0
  -18.2930  -28.6715   20.9799 C   0  0  0  0  0  0  0  0  0  0  0  0
  -24.3050  -27.3101   24.9654 C   0  0  0  0  0  0  0  0  0  0  0  0
  -19.4422  -27.9458   21.3476 C   0  0  0  0  0  0  0  0  0  0  0  0
  -32.3528  -20.4353   25.1925 C   0  0  0  0  0  0  0  0  0  0  0  0
  -25.4936  -27.7696   24.3804 C   0  0  0  0  0  0  0  0  0  0  0  0
  -31.1645  -20.7699   24.5433 C   0  0  0  0  0  0  0  0  0  0  0  0
  -22.4255   -8.1313   21.2416 C   0  0  0  0  0  0  0  0  0  0  0  0
  -26.5244  -25.6097   24.8077 C   0  0  0  0  0  0  0  0  0  0  0  0
  -21.7645   -6.3365   22.6069 C   0  0  0  0  0  0  0  0  0  0  0  0
  -21.7569   -5.1128   25.1138 C   0  0  0  0  0  0  0  0  0  0  0  0
  -22.3114   -5.0629   22.7629 C   0  0  0  0  0  0  0  0  0  0  0  0
  -32.2994  -20.6673   22.4129 C   0  0  0  0  0  0  0  0  0  0  0  0
  -24.4672  -11.8172   20.8624 C   0  0  0  0  0  0  0  0  0  0  0  0
  -25.7352  -13.4740   20.1678 C   0  0  0  0  0  0  0  0  0  0  0  0
  -25.7685  -11.4723   18.6709 C   0  0  0  0  0  0  0  0  0  0  0  0
  -22.7567  -28.8881   22.6814 C   0  0  0  0  0  0  0  0  0  0  0  0
  -24.4623  -31.4076   23.8062 C   0  0  0  0  0  0  0  0  0  0  0  0
  -27.2261  -32.5251   25.4675 C   0  0  0  0  0  0  0  0  0  0  0  0
  -27.6229  -16.9826   23.9316 C   0  0  0  0  0  0  0  0  0  0  0  0
  -18.3866  -30.0117   20.2946 C   0  0  0  0  0  0  0  0  0  0  0  0
  -23.1139  -28.2206   25.0862 C   0  0  0  0  0  0  0  0  0  0  0  0
  -25.6169  -29.1644   23.8256 C   0  0  0  0  0  0  0  0  0  0  0  0
  -19.7532  -30.6762   20.4402 C   0  0  0  0  0  0  0  0  0  0  0  0
  -23.9818  -16.6586   23.6536 C   0  0  0  0  0  0  0  0  0  0  0  0
  -33.4565  -19.4248   27.2984 C   0  0  0  0  0  0  0  0  0  0  0  0
  -32.0231  -18.9943   27.3122 C   0  0  0  0  0  0  0  0  0  0  0  0
  -20.8671  -29.6745   20.1529 C   0  0  0  0  0  0  0  0  0  0  0  0
  -30.4319  -23.4755   25.6697 C   0  0  0  0  0  0  0  0  0  0  0  0
  -23.8631  -15.3595   22.8638 C   0  0  0  0  0  0  0  0  0  0  0  0
  -29.6110  -24.7121   26.0527 C   0  0  0  0  0  0  0  0  0  0  0  0
  -29.0038  -18.1564   26.7591 C   0  0  0  0  0  0  0  0  0  0  0  0
  -28.1602  -22.7744   25.9520 C   0  0  0  0  0  0  0  0  0  0  0  0
  -25.1826  -16.6560   24.6004 C   0  0  0  0  0  0  0  0  0  0  0  0
  -27.6107  -17.5858   26.4760 C   0  0  0  0  0  0  0  0  0  0  0  0
  -26.3446  -15.0251   23.1364 C   0  0  0  0  0  0  0  0  0  0  0  0
  -32.4046  -20.3057   26.6787 C   0  0  0  0  0  0  0  0  0  0  0  0
  -20.8325  -28.5099   21.1500 C   0  0  1  0  0  0  0  0  0  0  0  0
  -23.1208  -29.3524   24.0633 C   0  0  1  0  0  0  0  0  0  0  0  0
  -29.4225  -22.4502   25.1543 C   0  0  2  0  0  0  0  0  0  0  0  0
  -25.1800  -15.0501   22.1366 C   0  0  1  0  0  0  0  0  0  0  0  0
  -28.1427  -24.2980   25.9549 C   0  0  2  0  0  0  0  0  0  1  0  0
  -29.0810  -18.5858   25.2860 C   0  0  2  0  0  0  0  0  0  0  0  0
  -28.3656  -34.6386   26.1969 C   0  0  0  0  0  0  0  0  0  0  0  0
  -25.4204  -31.8749   20.9473 C   0  0  0  0  0  0  0  0  0  0  0  0
  -27.2342  -33.3347   21.8677 C   0  0  0  0  0  0  0  0  0  0  0  0
  -24.8424  -33.9565   22.2072 C   0  0  0  0  0  0  0  0  0  0  0  0
  -27.0168  -31.7885   28.3263 C   0  0  0  0  0  0  0  0  0  0  0  0
  -28.7536  -20.0293   24.9583 C   0  0  0  0  0  0  0  0  0  0  0  0
  -29.8863  -21.0139   25.3270 C   0  0  1  0  0  0  0  0  0  0  0  0
  -25.8117  -32.0092   23.4958 C   0  0  1  0  0  0  0  0  0  0  0  0
  -27.3880  -33.5400   26.5846 C   0  0  2  0  0  0  0  0  0  0  0  0
  -25.8245  -32.7668   22.1381 C   0  0  0  0  0  0  0  0  0  0  0  0
  -24.3096  -12.7691   21.7860 N   0  0  0  0  0  0  0  0  0  0  0  0
  -25.0933  -13.7637   21.3358 N   0  0  0  0  0  0  0  0  0  0  0  0
  -24.4228  -30.0147   23.9619 N   0  0  0  0  0  0  0  0  0  0  0  0
  -26.4206  -16.2672   23.9145 N   0  0  0  0  0  0  0  0  0  0  0  0
  -27.9301  -17.7083   25.0611 N   0  0  0  0  0  0  0  0  0  0  0  0
  -26.5617  -14.3624   19.5763 N   0  0  0  0  0  0  0  0  0  0  0  0
  -25.2706  -10.1766   18.4771 N   0  0  0  0  0  0  0  0  0  0  0  0
  -21.4003  -28.9136   22.4185 N   0  0  0  0  0  0  0  0  0  0  0  0
  -26.1641  -32.8361   24.6449 N   0  0  0  0  0  0  0  0  0  0  0  0
  -27.8934  -32.8754   27.8191 N   0  3  0  0  0  0  0  0  0  0  0  0
  -26.5781  -11.9496   17.8400 O   0  0  0  0  0  0  0  0  0  0  0  0
  -23.6410  -28.5343   21.9103 O   0  0  0  0  0  0  0  0  0  0  0  0
  -23.4809  -32.1470   23.9139 O   0  0  0  0  0  0  0  0  0  0  0  0
  -27.9698  -31.5555   25.3354 O   0  0  0  0  0  0  0  0  0  0  0  0
  -28.4155  -16.9518   22.9810 O   0  0  0  0  0  0  0  0  0  0  0  0
  -21.7682   -6.9457   21.3633 O   0  0  0  0  0  0  0  0  0  0  0  0
  -27.6101  -24.7795   24.7248 O   0  0  0  0  0  0  0  0  0  1  0  0
  -21.7545   -4.5259   26.3179 F   0  0  0  0  0  0  0  0  0  0  0  0
  -22.8430   -4.4227   21.7124 F   0  0  0  0  0  0  0  0  0  0  0  0
  -32.2657  -20.8115   20.6982 Cl  0  0  0  0  0  0  0  0  0  0  0  0
  1  2  1  0  0  0  0
  1  5  2  0  0  0  0
  2  6  2  0  0  0  0
  3  9  2  0  0  0  0
  3 18  1  0  0  0  0
  4 10  1  0  0  0  0
  4 18  2  0  0  0  0
  5 20  1  0  0  0  0
  6 22  1  0  0  0  0
  7 11  2  0  0  0  0
  7 21  1  0  0  0  0
  8 14  2  0  0  0  0
  8 23  1  0  0  0  0
  9 26  1  0  0  0  0
 10 26  2  0  0  0  0
 11 27  1  0  0  0  0
 12 13  2  0  0  0  0
 12 28  1  0  0  0  0
 13 29  1  0  0  0  0
 14 31  1  0  0  0  0
 15 24  1  0  0  0  0
 15 27  2  0  0  0  0
 16 25  1  0  0  0  0
 16 31  2  0  0  0  0
 17 29  2  0  0  0  0
 17 30  1  0  0  0  0
 18 32  1  0  0  0  0
 19 32  1  0  0  0  0
 19 33  2  0  0  0  0
 19 34  1  0  0  0  0
 20 22  2  0  0  0  0
 20 39  1  0  0  0  0
 21 24  2  0  0  0  0
 21 40  1  0  0  0  0
 22 56  1  0  0  0  0
 23 25  2  0  0  0  0
 23 55  1  0  0  0  0
 24 41  1  0  0  0  0
 25 68  1  0  0  0  0
 26 87  1  0  0  0  0
 27 88  1  0  0  0  0
 28 30  2  0  0  0  0
 28 87  1  0  0  0  0
 29 89  1  0  0  0  0
 30 90  1  0  0  0  0
 31 91  1  0  0  0  0
 32 72  2  0  0  0  0
 33 73  1  0  0  0  0
 33 77  1  0  0  0  0
 34 78  1  0  0  0  0
 34 82  2  0  0  0  0
 35 57  1  0  0  0  0
 35 79  1  0  0  0  0
 35 83  2  0  0  0  0
 36 69  1  0  0  0  0
 36 74  1  0  0  0  0
 36 84  2  0  0  0  0
 37 70  1  0  0  0  0
 37 80  1  0  0  0  0
 37 85  2  0  0  0  0
 38 75  1  0  0  0  0
 38 76  1  0  0  0  0
 38 86  2  0  0  0  0
 39 42  1  0  0  0  0
 40 57  1  0  0  0  0
 41 74  1  0  0  0  0
 42 46  1  0  0  0  0
 43 48  1  0  0  0  0
 43 52  1  0  0  0  0
 44 45  1  0  0  0  0
 44 55  1  0  0  0  0
 45 55  1  0  0  0  0
 46 56  1  0  0  0  0
 47 49  1  0  0  0  0
 47 58  1  0  0  0  0
 48 59  1  0  0  0  0
 49 60  1  0  0  0  0
 50 53  1  0  0  0  0
 50 61  1  0  0  0  0
 51 58  1  0  0  0  0
 51 60  1  0  0  0  0
 52 75  1  0  0  0  0
 53 76  1  0  0  0  0
 54 59  1  0  0  0  0
 54 75  1  0  0  0  0
 56 79  1  0  0  0  0
 57 74  1  0  0  0  0
 58 68  1  0  0  0  0
 59 73  1  0  0  0  0
 60 88  1  0  0  0  0
 61 67  1  0  0  0  0
 61 76  1  0  0  0  0
 62 70  1  0  0  0  0
 63 71  1  0  0  0  0
 64 71  1  0  0  0  0
 65 71  1  0  0  0  0
 66 81  1  0  0  0  0
 67 68  1  0  0  0  0
 69 71  1  0  0  0  0
 69 80  1  0  0  0  0
 70 81  1  0  0  0  0
 72 73  1  0  0  0  0
M  CHG  1  81   1
M  ISO  4  38 100  60 101  76 100  88 101
M  END
> <Batch ID>
0170

> <Smiles>
CNC(C)C(=O)NC(C(=O)N1Cc2cc([101O:1][101CH:1]3CCC(C(CC4CC[100N:0]4[100C:0](=O)N4CCCC(n5nc(-c6ccc(Oc7ccc(F)cc7F)cc6)c(C(N)=O)c5N)C4)c4cc(Cl)ccc4C4CC4)C3)ccc2CC1C(=O)NC1CCCc2ccccc21)C(C)(C)C

> <Shape>
0.223

> <Color>
0.120

> <Negative vol penalty>
0.000

$$$$

  -OEChem-04052322353D

 83 93  0     1  0  0  0  0  0999 V2000
  -21.5952  -12.0654   19.3908 C   0  0  0  0  0  0  0  0  0  0  0  0
  -21.4221  -13.4230   19.6403 C   0  0  0  0  0  0  0  0  0  0  0  0
  -27.4242  -31.5394   19.6194 C   0  0  0  0  0  0  0  0  0  0  0  0
  -26.8330  -31.1284   21.9256 C   0  0  0  0  0  0  0  0  0  0  0  0
  -22.7933  -11.4415   19.7360 C   0  0  0  0  0  0  0  0  0  0  0  0
  -22.4468  -14.1574   20.2362 C   0  0  0  0  0  0  0  0  0  0  0  0
  -23.8978  -20.0067   19.1473 C   0  0  0  0  0  0  0  0  0  0  0  0
  -28.0418  -32.7337   19.9906 C   0  0  0  0  0  0  0  0  0  0  0  0
  -27.4507  -32.3227   22.2968 C   0  0  0  0  0  0  0  0  0  0  0  0
  -23.5938  -21.1894   19.8200 C   0  0  0  0  0  0  0  0  0  0  0  0
  -26.7297  -35.6253   22.2321 C   0  0  0  0  0  0  0  0  0  0  0  0
  -26.0488  -36.4585   23.1197 C   0  0  0  0  0  0  0  0  0  0  0  0
  -25.7086  -21.0694   20.9743 C   0  0  0  0  0  0  0  0  0  0  0  0
  -27.8742  -36.2752   24.6919 C   0  0  0  0  0  0  0  0  0  0  0  0
  -26.8197  -30.7368   20.5870 C   0  0  0  0  0  0  0  0  0  0  0  0
  -26.7721  -28.2277   20.1285 C   0  0  0  0  0  0  0  0  0  0  0  0
  -23.8368  -12.1707   20.3276 C   0  0  0  0  0  0  0  0  0  0  0  0
  -25.1068  -19.3395   19.3915 C   0  0  0  0  0  0  0  0  0  0  0  0
  -23.6595  -13.5424   20.5909 C   0  0  0  0  0  0  0  0  0  0  0  0
  -26.0267  -19.8797   20.3015 C   0  0  0  0  0  0  0  0  0  0  0  0
  -28.0551  -33.1254   21.3292 C   0  0  0  0  0  0  0  0  0  0  0  0
  -24.4980  -21.7194   20.7358 C   0  0  0  0  0  0  0  0  0  0  0  0
  -27.9828  -35.1170   22.5744 C   0  0  0  0  0  0  0  0  0  0  0  0
  -26.6210  -36.7834   24.3496 C   0  0  0  0  0  0  0  0  0  0  0  0
  -28.5550  -35.4420   23.8043 C   0  0  0  0  0  0  0  0  0  0  0  0
  -26.1811  -29.5032   20.2041 C   0  0  0  0  0  0  0  0  0  0  0  0
  -25.7537  -27.4011   19.7210 C   0  0  0  0  0  0  0  0  0  0  0  0
  -28.1209  -27.8261   20.4023 C   0  0  0  0  0  0  0  0  0  0  0  0
  -25.9004  -16.4797   20.5295 C   0  0  0  0  0  0  0  0  0  0  0  0
  -28.8971  -17.4202   19.7186 C   0  0  0  0  0  0  0  0  0  0  0  0
  -31.0636  -19.9863   19.1115 C   0  0  0  0  0  0  0  0  0  0  0  0
  -19.7507  -28.1310   20.2584 C   0  0  0  0  0  0  0  0  0  0  0  0
  -25.0960  -11.4426   20.7264 C   0  0  0  0  0  0  0  0  0  0  0  0
  -25.4314  -18.0790   18.6378 C   0  0  0  0  0  0  0  0  0  0  0  0
  -27.3472  -19.2129   20.5843 C   0  0  0  0  0  0  0  0  0  0  0  0
  -26.2726  -12.3723   21.0120 C   0  0  0  0  0  0  0  0  0  0  0  0
  -21.6741  -27.4299   17.2087 C   0  0  0  0  0  0  0  0  0  0  0  0
  -25.8338  -13.5310   21.9017 C   0  0  0  0  0  0  0  0  0  0  0  0
  -23.0971  -27.8147   17.6199 C   0  0  0  0  0  0  0  0  0  0  0  0
  -24.4944  -24.1678   23.4048 C   0  0  0  0  0  0  0  0  0  0  0  0
  -20.3531  -26.3489   24.2550 C   0  0  0  0  0  0  0  0  0  0  0  0
  -20.6216  -28.2508   17.9508 C   0  0  0  0  0  0  0  0  0  0  0  0
  -18.7915  -27.2446   22.3641 C   0  0  0  0  0  0  0  0  0  0  0  0
  -22.1798  -28.6368   19.8191 C   0  0  0  0  0  0  0  0  0  0  0  0
  -21.0293  -26.4921   21.7536 C   0  0  0  0  0  0  0  0  0  0  0  0
  -23.2075  -24.9515   23.2431 C   0  0  0  0  0  0  0  0  0  0  0  0
  -22.7155  -22.5521   23.2710 C   0  0  0  0  0  0  0  0  0  0  0  0
  -24.7570  -14.3782   21.2131 C   0  0  1  0  0  0  0  0  0  0  0  0
  -26.4670  -17.2100   19.3449 C   0  0  1  0  0  0  0  0  0  0  0  0
  -19.1972  -26.1666   23.3104 C   0  0  1  0  0  0  0  0  0  0  0  0
  -23.2648  -27.7817   19.1515 C   0  0  2  0  0  0  0  0  0  0  0  0
  -24.1443  -22.8107   22.8191 C   0  0  1  0  0  0  0  0  0  1  0  0
  -20.5494  -25.6700   22.9182 C   0  0  2  0  0  0  0  0  0  0  0  0
  -33.4561  -20.4434   18.5080 C   0  0  0  0  0  0  0  0  0  0  0  0
  -19.7639  -23.3679   23.5943 C   0  0  0  0  0  0  0  0  0  0  0  0
  -29.7401  -16.7696   22.5780 C   0  0  0  0  0  0  0  0  0  0  0  0
  -31.8219  -18.1064   22.1944 C   0  0  0  0  0  0  0  0  0  0  0  0
  -31.3786  -16.0705   20.8227 C   0  0  0  0  0  0  0  0  0  0  0  0
  -30.2911  -21.3488   16.6003 C   0  0  0  0  0  0  0  0  0  0  0  0
  -30.0120  -18.1589   20.4189 C   0  0  1  0  0  0  0  0  0  0  0  0
  -32.0462  -20.2286   17.9800 C   0  0  2  0  0  0  0  0  0  0  0  0
  -20.8309  -24.2024   22.8829 C   0  0  2  0  0  0  0  0  0  0  0  0
  -30.7125  -17.2881   21.4998 C   0  0  0  0  0  0  0  0  0  0  0  0
  -24.8876  -29.4927   19.8712 N   0  0  0  0  0  0  0  0  0  0  0  0
  -24.6575  -28.2006   19.5824 N   0  0  0  0  0  0  0  0  0  0  0  0
  -27.6159  -17.9793   19.8270 N   0  0  0  0  0  0  0  0  0  0  0  0
  -20.8474  -28.1995   19.3938 N   0  0  0  0  0  0  0  0  0  0  0  0
  -19.9203  -27.4100   21.4451 N   0  0  0  0  0  0  0  0  0  0  0  0
  -25.6980  -26.0756   19.4713 N   0  0  0  0  0  0  0  0  0  0  0  0
  -29.0391  -28.8030   20.8110 N   0  0  0  0  0  0  0  0  0  0  0  0
  -25.3548  -15.2478   20.2226 N   0  0  0  0  0  0  0  0  0  0  0  0
  -30.9039  -18.6413   19.3700 N   0  0  0  0  0  0  0  0  0  0  0  0
  -22.1396  -23.9307   23.5566 N   0  3  2  0  0  0  0  0  0  0  0  0
  -31.6487  -21.4332   17.1978 N   0  3  0  0  0  0  0  0  0  0  0  0
  -28.5048  -26.6390   20.2720 O   0  0  0  0  0  0  0  0  0  0  0  0
  -25.9556  -16.9950   21.6399 O   0  0  0  0  0  0  0  0  0  0  0  0
  -29.1548  -16.3892   19.0924 O   0  0  0  0  0  0  0  0  0  0  0  0
  -30.4973  -20.8990   19.7088 O   0  0  0  0  0  0  0  0  0  0  0  0
  -18.6623  -28.6385   19.9599 O   0  0  0  0  0  0  0  0  0  0  0  0
  -28.6579  -34.2906   21.6918 O   0  0  0  0  0  0  0  0  0  0  0  0
  -24.2015  -22.8809   21.3986 O   0  0  0  0  0  0  0  0  0  1  0  0
  -25.9678  -37.5848   25.2012 F   0  0  0  0  0  0  0  0  0  0  0  0
  -29.7591  -34.9577   24.1382 F   0  0  0  0  0  0  0  0  0  0  0  0
  1  2  1  0  0  0  0
  1  5  2  0  0  0  0
  2  6  2  0  0  0  0
  3  8  2  0  0  0  0
  3 15  1  0  0  0  0
  4  9  1  0  0  0  0
  4 15  2  0  0  0  0
  5 17  1  0  0  0  0
  6 19  1  0  0  0  0
  7 10  2  0  0  0  0
  7 18  1  0  0  0  0
  8 21  1  0  0  0  0
  9 21  2  0  0  0  0
 10 22  1  0  0  0  0
 11 12  2  0  0  0  0
 11 23  1  0  0  0  0
 12 24  1  0  0  0  0
 13 20  1  0  0  0  0
 13 22  2  0  0  0  0
 14 24  2  0  0  0  0
 14 25  1  0  0  0  0
 15 26  1  0  0  0  0
 16 26  1  0  0  0  0
 16 27  2  0  0  0  0
 16 28  1  0  0  0  0
 17 19  2  0  0  0  0
 17 33  1  0  0  0  0
 18 20  2  0  0  0  0
 18 34  1  0  0  0  0
 19 48  1  0  0  0  0
 20 35  1  0  0  0  0
 21 80  1  0  0  0  0
 22 81  1  0  0  0  0
 23 25  2  0  0  0  0
 23 80  1  0  0  0  0
 24 82  1  0  0  0  0
 25 83  1  0  0  0  0
 26 64  2  0  0  0  0
 27 65  1  0  0  0  0
 27 69  1  0  0  0  0
 28 70  1  0  0  0  0
 28 75  2  0  0  0  0
 29 49  1  0  0  0  0
 29 71  1  0  0  0  0
 29 76  2  0  0  0  0
 30 60  1  0  0  0  0
 30 66  1  0  0  0  0
 30 77  2  0  0  0  0
 31 61  1  0  0  0  0
 31 72  1  0  0  0  0
 31 78  2  0  0  0  0
 32 67  1  0  0  0  0
 32 68  1  0  0  0  0
 32 79  2  0  0  0  0
 33 36  1  0  0  0  0
 34 49  1  0  0  0  0
 35 66  1  0  0  0  0
 36 38  1  0  0  0  0
 37 39  1  0  0  0  0
 37 42  1  0  0  0  0
 38 48  1  0  0  0  0
 39 51  1  0  0  0  0
 40 46  1  0  0  0  0
 40 52  1  0  0  0  0
 41 50  1  0  0  0  0
 41 53  1  0  0  0  0
 42 67  1  0  0  0  0
 43 50  1  0  0  0  0
 43 68  1  0  0  0  0
 44 51  1  0  0  0  0
 44 67  1  0  0  0  0
 45 53  1  0  0  0  0
 45 68  1  0  0  0  0
 46 73  1  0  0  0  0
 47 52  1  0  0  0  0
 47 73  1  0  0  0  0
 48 71  1  0  0  0  0
 49 66  1  0  0  0  0
 50 53  1  0  0  0  0
 51 65  1  0  0  0  0
 52 81  1  0  0  0  0
 53 62  1  0  0  0  0
 54 61  1  0  0  0  0
 55 62  1  0  0  0  0
 56 63  1  0  0  0  0
 57 63  1  0  0  0  0
 58 63  1  0  0  0  0
 59 74  1  0  0  0  0
 60 63  1  0  0  0  0
 60 72  1  0  0  0  0
 61 74  1  0  0  0  0
 62 73  1  0  0  0  0
 64 65  1  0  0  0  0
M  CHG  2  73   1  74   1
M  ISO  4  32 100  52 101  68 100  81 101
M  END
> <Batch ID>
0170

> <Smiles>
CNC(C)C(=O)NC(C(=O)N1Cc2cc([101O:1][101CH:1]3CCN(C(C)C45CC4C[100N:0]([100C:0](=O)N4CCCC(n6nc(-c7ccc(Oc8ccc(F)cc8F)cc7)c(C(N)=O)c6N)C4)C5)C3)ccc2CC1C(=O)NC1CCCc2ccccc21)C(C)(C)C

> <Shape>
0.234

> <Color>
0.074

> <Negative vol penalty>
0.000

$$$$

  -OEChem-04052322353D

 90100  0     1  0  0  0  0  0999 V2000
  -31.3014  -33.3946   17.6658 C   0  0  0  0  0  0  0  0  0  0  0  0
  -31.1570  -32.1724   18.3145 C   0  0  0  0  0  0  0  0  0  0  0  0
  -23.1896   -9.8264   19.9618 C   0  0  0  0  0  0  0  0  0  0  0  0
  -23.5578  -10.0745   22.3366 C   0  0  0  0  0  0  0  0  0  0  0  0
  -30.5469  -33.6712   16.5264 C   0  0  0  0  0  0  0  0  0  0  0  0
  -30.2571  -31.2265   17.8248 C   0  0  0  0  0  0  0  0  0  0  0  0
  -30.8968  -25.1367   17.9298 C   0  0  0  0  0  0  0  0  0  0  0  0
  -22.4138   -8.6921   20.2005 C   0  0  0  0  0  0  0  0  0  0  0  0
  -22.7819   -8.9402   22.5754 C   0  0  0  0  0  0  0  0  0  0  0  0
  -30.3977  -24.1557   18.7856 C   0  0  0  0  0  0  0  0  0  0  0  0
  -23.1592   -5.5843   22.4126 C   0  0  0  0  0  0  0  0  0  0  0  0
  -23.6462   -4.6458   23.3223 C   0  0  0  0  0  0  0  0  0  0  0  0
  -27.5646  -15.9451   13.4171 C   0  0  0  0  0  0  0  0  0  0  0  0
  -28.5764  -23.7559   17.2552 C   0  0  0  0  0  0  0  0  0  0  0  0
  -21.6849   -4.9614   24.6975 C   0  0  0  0  0  0  0  0  0  0  0  0
  -23.7617  -10.5176   21.0299 C   0  0  0  0  0  0  0  0  0  0  0  0
  -24.1204  -13.0234   20.7134 C   0  0  0  0  0  0  0  0  0  0  0  0
  -29.6444  -32.7244   16.0169 C   0  0  0  0  0  0  0  0  0  0  0  0
  -30.2323  -25.4427   16.7335 C   0  0  0  0  0  0  0  0  0  0  0  0
  -29.4889  -31.4912   16.6783 C   0  0  0  0  0  0  0  0  0  0  0  0
  -28.1797  -15.0910   14.3179 C   0  0  0  0  0  0  0  0  0  0  0  0
  -29.0706  -24.7393   16.3847 C   0  0  0  0  0  0  0  0  0  0  0  0
  -28.5910  -16.9004   15.8714 C   0  0  0  0  0  0  0  0  0  0  0  0
  -27.4644  -17.2965   13.7498 C   0  0  0  0  0  0  0  0  0  0  0  0
  -27.9665  -17.7688   14.9717 C   0  0  0  0  0  0  0  0  0  0  0  0
  -28.7201  -15.5673   15.5155 C   0  0  0  0  0  0  0  0  0  0  0  0
  -22.2099   -8.2490   21.5073 C   0  0  0  0  0  0  0  0  0  0  0  0
  -29.2357  -23.4672   18.4497 C   0  0  0  0  0  0  0  0  0  0  0  0
  -21.9352   -6.2114   22.6453 C   0  0  0  0  0  0  0  0  0  0  0  0
  -22.9090   -4.3343   24.4648 C   0  0  0  0  0  0  0  0  0  0  0  0
  -21.1980   -5.8999   23.7877 C   0  0  0  0  0  0  0  0  0  0  0  0
  -24.5637  -11.6891   20.7838 C   0  0  0  0  0  0  0  0  0  0  0  0
  -25.2582  -13.7504   20.4619 C   0  0  0  0  0  0  0  0  0  0  0  0
  -22.7983  -13.5578   20.8621 C   0  0  0  0  0  0  0  0  0  0  0  0
  -28.8282  -28.0361   15.5475 C   0  0  0  0  0  0  0  0  0  0  0  0
  -28.5635  -26.2000   12.8865 C   0  0  0  0  0  0  0  0  0  0  0  0
  -28.4322  -23.0733   11.5252 C   0  0  0  0  0  0  0  0  0  0  0  0
  -29.8868  -14.5172   17.4865 C   0  0  0  0  0  0  0  0  0  0  0  0
  -28.8163  -33.0871   14.8098 C   0  0  0  0  0  0  0  0  0  0  0  0
  -30.7984  -26.4849   15.8084 C   0  0  0  0  0  0  0  0  0  0  0  0
  -28.3777  -13.6128   14.1856 C   0  0  0  0  0  0  0  0  0  0  0  0
  -28.3309  -25.0160   15.1022 C   0  0  0  0  0  0  0  0  0  0  0  0
  -28.1584  -31.8842   14.1386 C   0  0  0  0  0  0  0  0  0  0  0  0
  -30.0054  -11.9290   20.2335 C   0  0  0  0  0  0  0  0  0  0  0  0
  -27.5025  -30.9840   15.1807 C   0  0  0  0  0  0  0  0  0  0  0  0
  -28.6507  -12.1445   20.9112 C   0  0  0  0  0  0  0  0  0  0  0  0
  -27.6922  -17.8645   17.9559 C   0  0  0  0  0  0  0  0  0  0  0  0
  -28.8304  -13.2443   15.6028 C   0  0  0  0  0  0  0  0  0  0  0  0
  -30.4561  -13.1543   19.4530 C   0  0  0  0  0  0  0  0  0  0  0  0
  -28.0877  -13.1500   18.6435 C   0  0  0  0  0  0  0  0  0  0  0  0
  -27.9982  -18.4920   19.3070 C   0  0  0  0  0  0  0  0  0  0  0  0
  -30.2333  -19.2448   18.4755 C   0  0  0  0  0  0  0  0  0  0  0  0
  -28.9719  -17.4315   17.2137 C   0  0  2  0  0  0  0  0  0  0  0  0
  -28.5412  -30.4297   16.1632 C   0  0  1  0  0  0  0  0  0  0  0  0
  -29.7563  -27.0735   14.8623 C   0  0  1  0  0  0  0  0  0  0  0  0
  -29.9675  -18.6178   17.1006 C   0  0  2  0  0  0  0  0  0  0  0  0
  -27.7431  -13.1251   20.1426 C   0  0  1  0  0  0  0  0  0  0  0  0
  -26.8145  -18.2277   12.7774 C   0  0  0  0  0  0  0  0  0  0  0  0
  -27.8130  -19.2190   15.3144 C   0  0  0  0  0  0  0  0  0  0  0  0
  -31.3025  -18.1831   16.4847 C   0  0  0  0  0  0  0  0  0  0  0  0
  -28.1735  -21.8912    9.3268 C   0  0  0  0  0  0  0  0  0  0  0  0
  -25.5764  -26.8220   12.9063 C   0  0  0  0  0  0  0  0  0  0  0  0
  -25.2388  -24.9106   11.3249 C   0  0  0  0  0  0  0  0  0  0  0  0
  -26.6351  -26.8613   10.6410 C   0  0  0  0  0  0  0  0  0  0  0  0
  -31.0836  -21.7824   11.7754 C   0  0  0  0  0  0  0  0  0  0  0  0
  -29.1533  -20.4120   20.3945 C   0  0  0  0  0  0  0  0  0  0  0  0
  -29.6895  -21.7941   20.0779 C   0  0  0  0  0  0  0  0  0  1  0  0
  -27.5345  -25.2328   12.3530 C   0  0  1  0  0  0  0  0  0  0  0  0
  -29.1551  -22.4596   10.3398 C   0  0  2  0  0  0  0  0  0  0  0  0
  -26.2589  -25.9526   11.8315 C   0  0  0  0  0  0  0  0  0  0  0  0
  -25.8804  -11.5724   20.5924 N   0  0  0  0  0  0  0  0  0  0  0  0
  -26.2743  -12.8427   20.3991 N   0  0  0  0  0  0  0  0  0  0  0  0
  -29.2724  -14.4938   16.2435 N   0  0  0  0  0  0  0  0  0  0  0  0
  -28.9205  -26.0484   14.2339 N   0  0  0  0  0  0  0  0  0  0  0  0
  -29.4903  -13.5526   18.4264 N   0  0  0  0  0  0  0  0  0  0  0  0
  -25.4787  -15.0712   20.2905 N   0  0  0  0  0  0  0  0  0  0  0  0
  -21.7438  -12.6706   21.1175 N   0  0  0  0  0  0  0  0  0  0  0  0
  -29.2795  -29.3421   15.5579 N   0  0  0  0  0  0  0  0  0  0  0  0
  -28.2168  -24.4237   11.3488 N   0  0  0  0  0  0  0  0  0  0  0  0
  -28.9299  -19.6601   19.1110 N   0  3  2  0  0  0  0  0  0  0  0  0
  -30.0524  -21.3595   10.7932 N   0  3  0  0  0  0  0  0  0  0  0  0
  -22.5566  -14.7841   20.7549 O   0  0  0  0  0  0  0  0  0  0  0  0
  -27.7794  -27.6247   16.0298 O   0  0  0  0  0  0  0  0  0  0  0  0
  -29.0385  -27.0539   12.1335 O   0  0  0  0  0  0  0  0  0  0  0  0
  -28.0894  -22.4193   12.5077 O   0  0  0  0  0  0  0  0  0  0  0  0
  -30.7106  -15.3966   17.7700 O   0  0  0  0  0  0  0  0  0  0  0  0
  -21.4527   -7.1423   21.7407 O   0  0  0  0  0  0  0  0  0  0  0  0
  -28.7425  -22.5028   19.2895 O   0  0  0  0  0  0  0  0  0  1  0  0
  -23.3760   -3.4319   25.3376 F   0  0  0  0  0  0  0  0  0  0  0  0
  -20.0209   -6.4982   24.0161 F   0  0  0  0  0  0  0  0  0  0  0  0
  1  2  1  0  0  0  0
  1  5  2  0  0  0  0
  2  6  2  0  0  0  0
  3  8  2  0  0  0  0
  3 16  1  0  0  0  0
  4  9  1  0  0  0  0
  4 16  2  0  0  0  0
  5 18  1  0  0  0  0
  6 20  1  0  0  0  0
  7 10  2  0  0  0  0
  7 19  1  0  0  0  0
  8 27  1  0  0  0  0
  9 27  2  0  0  0  0
 10 28  1  0  0  0  0
 11 12  2  0  0  0  0
 11 29  1  0  0  0  0
 12 30  1  0  0  0  0
 13 21  2  0  0  0  0
 13 24  1  0  0  0  0
 14 22  1  0  0  0  0
 14 28  2  0  0  0  0
 15 30  2  0  0  0  0
 15 31  1  0  0  0  0
 16 32  1  0  0  0  0
 17 32  1  0  0  0  0
 17 33  2  0  0  0  0
 17 34  1  0  0  0  0
 18 20  2  0  0  0  0
 18 39  1  0  0  0  0
 19 22  2  0  0  0  0
 19 40  1  0  0  0  0
 20 54  1  0  0  0  0
 21 26  1  0  0  0  0
 21 41  1  0  0  0  0
 22 42  1  0  0  0  0
 23 25  1  0  0  0  0
 23 26  2  0  0  0  0
 23 53  1  0  0  0  0
 24 25  2  0  0  0  0
 24 58  1  0  0  0  0
 25 59  1  0  0  0  0
 26 73  1  0  0  0  0
 27 87  1  0  0  0  0
 28 88  1  0  0  0  0
 29 31  2  0  0  0  0
 29 87  1  0  0  0  0
 30 89  1  0  0  0  0
 31 90  1  0  0  0  0
 32 71  2  0  0  0  0
 33 72  1  0  0  0  0
 33 76  1  0  0  0  0
 34 77  1  0  0  0  0
 34 82  2  0  0  0  0
 35 55  1  0  0  0  0
 35 78  1  0  0  0  0
 35 83  2  0  0  0  0
 36 68  1  0  0  0  0
 36 74  1  0  0  0  0
 36 84  2  0  0  0  0
 37 69  1  0  0  0  0
 37 79  1  0  0  0  0
 37 85  2  0  0  0  0
 38 73  1  0  0  0  0
 38 75  1  0  0  0  0
 38 86  2  0  0  0  0
 39 43  1  0  0  0  0
 40 55  1  0  0  0  0
 41 48  1  0  0  0  0
 42 74  1  0  0  0  0
 43 45  1  0  0  0  0
 44 46  1  0  0  0  0
 44 49  1  0  0  0  0
 45 54  1  0  0  0  0
 46 57  1  0  0  0  0
 47 51  1  0  0  0  0
 47 53  1  0  0  0  0
 48 73  1  0  0  0  0
 49 75  1  0  0  0  0
 50 57  1  0  0  0  0
 50 75  1  0  0  0  0
 51 80  1  0  0  0  0
 52 56  1  0  0  0  0
 52 80  1  0  0  0  0
 53 56  1  0  0  0  0
 54 78  1  0  0  0  0
 55 74  1  0  0  0  0
 56 60  1  0  0  0  0
 57 72  1  0  0  0  0
 61 69  1  0  0  0  0
 62 70  1  0  0  0  0
 63 70  1  0  0  0  0
 64 70  1  0  0  0  0
 65 81  1  0  0  0  0
 66 67  1  0  0  0  0
 66 80  1  0  0  0  0
 67 88  1  0  0  0  0
 68 70  1  0  0  0  0
 68 79  1  0  0  0  0
 69 81  1  0  0  0  0
 71 72  1  0  0  0  0
M  CHG  2  80   1  81   1
M  ISO  4  38 100  67 101  73 100  88 101
M  END
> <Batch ID>
0170

> <Smiles>
CNC(C)C(=O)NC(C(=O)N1Cc2cc([101O:1][101CH2:1]CN3CCC(c4c(C)c(C)cc5c4[100N:0]([100C:0](=O)N4CCCC(n6nc(-c7ccc(Oc8ccc(F)cc8F)cc7)c(C(N)=O)c6N)C4)CC5)C(C)C3)ccc2CC1C(=O)NC1CCCc2ccccc21)C(C)(C)C

> <Shape>
0.205

> <Color>
0.191

> <Negative vol penalty>
0.000

$$$$

  -OEChem-04052322353D

 87 98  0     1  0  0  0  0  0999 V2000
  -25.8994  -34.2169   25.0679 C   0  0  0  0  0  0  0  0  0  0  0  0
  -26.5437  -33.0008   24.8647 C   0  0  0  0  0  0  0  0  0  0  0  0
  -23.2893  -10.6198   21.9762 C   0  0  0  0  0  0  0  0  0  0  0  0
  -24.6066   -8.7079   21.3080 C   0  0  0  0  0  0  0  0  0  0  0  0
  -24.5241  -34.3188   24.8627 C   0  0  0  0  0  0  0  0  0  0  0  0
  -25.8127  -31.8854   24.4572 C   0  0  0  0  0  0  0  0  0  0  0  0
  -28.1007  -29.3144   20.7423 C   0  0  0  0  0  0  0  0  0  0  0  0
  -22.1741   -9.7968   22.1326 C   0  0  0  0  0  0  0  0  0  0  0  0
  -23.4913   -7.8849   21.4645 C   0  0  0  0  0  0  0  0  0  0  0  0
  -29.1583  -28.4806   21.1028 C   0  0  0  0  0  0  0  0  0  0  0  0
  -21.8230   -6.4103   24.0067 C   0  0  0  0  0  0  0  0  0  0  0  0
  -22.0025   -5.1978   24.6724 C   0  0  0  0  0  0  0  0  0  0  0  0
  -27.6809  -26.5760   21.0088 C   0  0  0  0  0  0  0  0  0  0  0  0
  -21.2644   -4.0075   22.7038 C   0  0  0  0  0  0  0  0  0  0  0  0
  -24.5056  -10.0754   21.5638 C   0  0  0  0  0  0  0  0  0  0  0  0
  -26.6206  -11.2474   22.3767 C   0  0  0  0  0  0  0  0  0  0  0  0
  -23.7775  -33.2065   24.4432 C   0  0  0  0  0  0  0  0  0  0  0  0
  -26.8205  -28.7858   20.5226 C   0  0  0  0  0  0  0  0  0  0  0  0
  -24.4259  -31.9721   24.2475 C   0  0  0  0  0  0  0  0  0  0  0  0
  -26.6093  -27.4048   20.6431 C   0  0  0  0  0  0  0  0  0  0  0  0
  -22.2751   -8.4294   21.8768 C   0  0  0  0  0  0  0  0  0  0  0  0
  -28.9479  -27.1116   21.2389 C   0  0  0  0  0  0  0  0  0  0  0  0
  -21.3641   -6.4214   22.6895 C   0  0  0  0  0  0  0  0  0  0  0  0
  -21.7233   -3.9964   24.0210 C   0  0  0  0  0  0  0  0  0  0  0  0
  -21.0848   -5.2200   22.0380 C   0  0  0  0  0  0  0  0  0  0  0  0
  -25.6579  -10.9251   21.4015 C   0  0  0  0  0  0  0  0  0  0  0  0
  -28.6757  -22.1344   18.3303 C   0  0  0  0  0  0  0  0  0  0  0  0
  -29.0114  -20.8189   18.5628 C   0  0  0  0  0  0  0  0  0  0  0  0
  -29.7675  -22.7512   20.2426 C   0  0  0  0  0  0  0  0  0  0  0  0
  -30.1027  -21.4356   20.4756 C   0  0  0  0  0  0  0  0  0  0  0  0
  -27.5007  -12.0792   21.7286 C   0  0  0  0  0  0  0  0  0  0  0  0
  -26.7113  -10.8319   23.7460 C   0  0  0  0  0  0  0  0  0  0  0  0
  -23.9692  -29.1797   21.8712 C   0  0  0  0  0  0  0  0  0  0  0  0
  -22.9848  -27.2872   19.4275 C   0  0  0  0  0  0  0  0  0  0  0  0
  -23.7700  -24.9172   17.1008 C   0  0  0  0  0  0  0  0  0  0  0  0
  -28.3214  -16.4731   18.5080 C   0  0  0  0  0  0  0  0  0  0  0  0
  -22.2854  -33.3534   24.2801 C   0  0  0  0  0  0  0  0  0  0  0  0
  -25.6963  -29.6951   20.1083 C   0  0  0  0  0  0  0  0  0  0  0  0
  -25.2586  -26.7849   20.3985 C   0  0  0  0  0  0  0  0  0  0  0  0
  -21.6446  -32.2176   23.4866 C   0  0  0  0  0  0  0  0  0  0  0  0
  -28.0015  -13.1981   16.8393 C   0  0  0  0  0  0  0  0  0  0  0  0
  -22.1557  -30.8675   23.9794 C   0  0  0  0  0  0  0  0  0  0  0  0
  -28.5933  -22.7737   15.8286 C   0  0  0  0  0  0  0  0  0  0  0  0
  -28.0074  -23.9225   16.5883 C   0  0  0  0  0  0  0  0  0  0  0  0
  -27.3888  -12.3583   17.9563 C   0  0  0  0  0  0  0  0  0  0  0  0
  -29.4311  -19.4571   16.4082 C   0  0  0  0  0  0  0  0  0  0  0  0
  -31.5618  -24.4349   21.0310 C   0  0  0  0  0  0  0  0  0  0  0  0
  -27.5265  -14.6498   16.8867 C   0  0  0  0  0  0  0  0  0  0  0  0
  -27.1325  -14.4633   19.3269 C   0  0  0  0  0  0  0  0  0  0  0  0
  -23.6715  -30.7458   23.7816 C   0  0  1  0  0  0  0  0  0  0  0  0
  -27.8787  -22.5235   17.1301 C   0  0  0  0  0  0  0  0  0  0  0  0
  -28.5885  -19.7405   17.6220 C   0  0  1  0  0  0  0  0  0  0  0  0
  -30.1896  -23.8201   21.1789 C   0  0  1  0  0  0  0  0  0  0  0  0
  -24.3175  -29.1165   20.4109 C   0  0  1  0  0  0  0  0  0  0  0  0
  -27.6363  -13.0119   19.3245 C   0  0  1  0  0  0  0  0  0  0  0  0
  -29.4116  -18.4762   17.5430 C   0  0  1  0  0  0  0  0  0  0  0  0
  -30.3488  -25.2340   20.6641 C   0  0  1  0  0  0  0  0  0  1  0  0
  -30.8982  -21.0328   21.6702 C   0  0  0  0  0  0  0  0  0  0  0  0
  -23.4518  -23.3840   15.1398 C   0  0  0  0  0  0  0  0  0  0  0  0
  -21.6938  -25.4757   21.5159 C   0  0  0  0  0  0  0  0  0  0  0  0
  -21.5347  -23.6905   19.7678 C   0  0  0  0  0  0  0  0  0  0  0  0
  -20.3166  -25.8458   19.4615 C   0  0  0  0  0  0  0  0  0  0  0  0
  -24.6303  -27.0014   15.1838 C   0  0  0  0  0  0  0  0  0  0  0  0
  -22.8330  -25.7994   19.2217 C   0  0  1  0  0  0  0  0  0  0  0  0
  -23.4757  -24.8287   15.6142 C   0  0  2  0  0  0  0  0  0  0  0  0
  -21.6197  -25.2145   19.9983 C   0  0  0  0  0  0  0  0  0  0  0  0
  -25.9030  -11.5050   20.2235 N   0  0  0  0  0  0  0  0  0  0  0  0
  -29.0478  -23.1242   19.1659 N   0  0  0  0  0  0  0  0  0  0  0  0
  -29.7309  -20.4458   19.6397 N   0  0  0  0  0  0  0  0  0  0  0  0
  -27.0298  -12.2001   20.4543 N   0  0  0  0  0  0  0  0  0  0  0  0
  -24.1898  -27.7164   20.0017 N   0  0  0  0  0  0  0  0  0  0  0  0
  -27.7137  -15.2370   18.2228 N   0  0  0  0  0  0  0  0  0  0  0  0
  -28.6237  -12.7117   22.1301 N   0  0  0  0  0  0  0  0  0  0  0  0
  -25.7234   -9.9757   24.2512 N   0  0  0  0  0  0  0  0  0  0  0  0
  -23.9790  -30.4575   22.3971 N   0  0  0  0  0  0  0  0  0  0  0  0
  -22.7760  -25.5905   17.7790 N   0  0  0  0  0  0  0  0  0  0  0  0
  -28.7751  -17.1931   17.4086 N   0  0  0  0  0  0  0  0  0  0  0  0
  -24.5141  -25.5617   14.8361 N   0  3  0  0  0  0  0  0  0  0  0  0
  -27.6318  -11.2220   24.5037 O   0  0  0  0  0  0  0  0  0  0  0  0
  -23.7094  -28.1459   22.4756 O   0  0  0  0  0  0  0  0  0  0  0  0
  -22.0709  -28.0415   19.0846 O   0  0  0  0  0  0  0  0  0  0  0  0
  -24.7787  -24.4339   17.6101 O   0  0  0  0  0  0  0  0  0  0  0  0
  -28.4467  -16.9084   19.6580 O   0  0  0  0  0  0  0  0  0  0  0  0
  -21.1871   -7.6259   22.0296 O   0  0  0  0  0  0  0  0  0  0  0  0
  -29.9783  -26.2955   21.5913 O   0  0  0  0  0  0  0  0  0  1  0  0
  -21.8972   -2.8321   24.6600 F   0  0  0  0  0  0  0  0  0  0  0  0
  -20.6448   -5.2243   20.7723 F   0  0  0  0  0  0  0  0  0  0  0  0
  1  2  1  0  0  0  0
  1  5  2  0  0  0  0
  2  6  2  0  0  0  0
  3  8  2  0  0  0  0
  3 15  1  0  0  0  0
  4  9  1  0  0  0  0
  4 15  2  0  0  0  0
  5 17  1  0  0  0  0
  6 19  1  0  0  0  0
  7 10  2  0  0  0  0
  7 18  1  0  0  0  0
  8 21  1  0  0  0  0
  9 21  2  0  0  0  0
 10 22  1  0  0  0  0
 11 12  2  0  0  0  0
 11 23  1  0  0  0  0
 12 24  1  0  0  0  0
 13 20  1  0  0  0  0
 13 22  2  0  0  0  0
 14 24  2  0  0  0  0
 14 25  1  0  0  0  0
 15 26  1  0  0  0  0
 16 26  1  0  0  0  0
 16 31  2  0  0  0  0
 16 32  1  0  0  0  0
 17 19  2  0  0  0  0
 17 37  1  0  0  0  0
 18 20  2  0  0  0  0
 18 38  1  0  0  0  0
 19 50  1  0  0  0  0
 20 39  1  0  0  0  0
 21 84  1  0  0  0  0
 22 85  1  0  0  0  0
 23 25  2  0  0  0  0
 23 84  1  0  0  0  0
 24 86  1  0  0  0  0
 25 87  1  0  0  0  0
 26 67  2  0  0  0  0
 27 28  1  0  0  0  0
 27 51  1  0  0  0  0
 27 68  2  0  0  0  0
 28 52  1  0  0  0  0
 28 69  2  0  0  0  0
 29 30  2  0  0  0  0
 29 53  1  0  0  0  0
 29 68  1  0  0  0  0
 30 58  1  0  0  0  0
 30 69  1  0  0  0  0
 31 70  1  0  0  0  0
 31 73  1  0  0  0  0
 32 74  1  0  0  0  0
 32 79  2  0  0  0  0
 33 54  1  0  0  0  0
 33 75  1  0  0  0  0
 33 80  2  0  0  0  0
 34 64  1  0  0  0  0
 34 71  1  0  0  0  0
 34 81  2  0  0  0  0
 35 65  1  0  0  0  0
 35 76  1  0  0  0  0
 35 82  2  0  0  0  0
 36 72  1  0  0  0  0
 36 77  1  0  0  0  0
 36 83  2  0  0  0  0
 37 40  1  0  0  0  0
 38 54  1  0  0  0  0
 39 71  1  0  0  0  0
 40 42  1  0  0  0  0
 41 45  1  0  0  0  0
 41 48  1  0  0  0  0
 42 50  1  0  0  0  0
 43 44  1  0  0  0  0
 43 51  1  0  0  0  0
 44 51  1  0  0  0  0
 45 55  1  0  0  0  0
 46 52  1  0  0  0  0
 46 56  1  0  0  0  0
 47 53  1  0  0  0  0
 47 57  1  0  0  0  0
 48 72  1  0  0  0  0
 49 55  1  0  0  0  0
 49 72  1  0  0  0  0
 50 75  1  0  0  0  0
 52 56  1  0  0  0  0
 53 57  1  0  0  0  0
 54 71  1  0  0  0  0
 55 70  1  0  0  0  0
 56 77  1  0  0  0  0
 57 85  1  0  0  0  0
 59 65  1  0  0  0  0
 60 66  1  0  0  0  0
 61 66  1  0  0  0  0
 62 66  1  0  0  0  0
 63 78  1  0  0  0  0
 64 66  1  0  0  0  0
 64 76  1  0  0  0  0
 65 78  1  0  0  0  0
 67 70  1  0  0  0  0
M  CHG  1  78   1
M  ISO  4  36 100  57 101  77 100  85 101
M  END
> <Batch ID>
0170

> <Smiles>
CNC(C)C(=O)NC(C(=O)N1Cc2cc([101O:1][101CH:1]3CC3c3nc(C4CC4)c(C4CC4[100NH:0][100C:0](=O)N4CCCC(n5nc(-c6ccc(Oc7ccc(F)cc7F)cc6)c(C(N)=O)c5N)C4)nc3C)ccc2CC1C(=O)NC1CCCc2ccccc21)C(C)(C)C

> <Shape>
0.282

> <Color>
0.111

> <Negative vol penalty>
0.000

$$$$

  -OEChem-04052322353D

 90100  0     1  0  0  0  0  0999 V2000
  -31.9892  -31.9436   16.6986 C   0  0  0  0  0  0  0  0  0  0  0  0
  -31.7714  -31.0444   17.7375 C   0  0  0  0  0  0  0  0  0  0  0  0
  -30.7236  -23.6805   26.4713 C   0  0  0  0  0  0  0  0  0  0  0  0
  -23.8434   -9.0834   20.9960 C   0  0  0  0  0  0  0  0  0  0  0  0
  -25.5516   -9.4298   22.6690 C   0  0  0  0  0  0  0  0  0  0  0  0
  -31.1419  -33.0391   16.5373 C   0  0  0  0  0  0  0  0  0  0  0  0
  -30.7068  -31.2406   18.6164 C   0  0  0  0  0  0  0  0  0  0  0  0
  -30.4745  -22.3152   26.3321 C   0  0  0  0  0  0  0  0  0  0  0  0
  -28.1390  -26.9749   19.5407 C   0  0  0  0  0  0  0  0  0  0  0  0
  -30.0141  -24.6011   25.7001 C   0  0  0  0  0  0  0  0  0  0  0  0
  -23.6743   -7.7721   21.4401 C   0  0  0  0  0  0  0  0  0  0  0  0
  -25.3825   -8.1185   23.1132 C   0  0  0  0  0  0  0  0  0  0  0  0
  -28.7057  -26.0727   20.4400 C   0  0  0  0  0  0  0  0  0  0  0  0
  -22.1269   -6.1875   23.9951 C   0  0  0  0  0  0  0  0  0  0  0  0
  -20.8224   -5.7235   24.1641 C   0  0  0  0  0  0  0  0  0  0  0  0
  -27.2426  -26.8918   22.1743 C   0  0  0  0  0  0  0  0  0  0  0  0
  -21.2316   -3.9817   22.5406 C   0  0  0  0  0  0  0  0  0  0  0  0
  -24.7821   -9.9123   21.6104 C   0  0  0  0  0  0  0  0  0  0  0  0
  -23.9876  -12.2866   21.1211 C   0  0  0  0  0  0  0  0  0  0  0  0
  -30.0606  -33.2436   17.4088 C   0  0  0  0  0  0  0  0  0  0  0  0
  -27.1257  -27.8513   19.9550 C   0  0  0  0  0  0  0  0  0  0  0  0
  -29.8450  -32.3406   18.4674 C   0  0  0  0  0  0  0  0  0  0  0  0
  -29.5160  -21.8704   25.4215 C   0  0  0  0  0  0  0  0  0  0  0  0
  -26.6629  -27.8024   21.2777 C   0  0  0  0  0  0  0  0  0  0  0  0
  -29.0556  -24.1564   24.7895 C   0  0  0  0  0  0  0  0  0  0  0  0
  -28.8065  -22.7910   24.6502 C   0  0  0  0  0  0  0  0  0  0  0  0
  -24.4438   -7.2896   22.4988 C   0  0  0  0  0  0  0  0  0  0  0  0
  -28.2595  -26.0331   21.7578 C   0  0  0  0  0  0  0  0  0  0  0  0
  -22.9838   -5.5487   23.0987 C   0  0  0  0  0  0  0  0  0  0  0  0
  -20.3748   -4.6206   23.4369 C   0  0  0  0  0  0  0  0  0  0  0  0
  -22.5361   -4.4458   22.3715 C   0  0  0  0  0  0  0  0  0  0  0  0
  -24.9577  -11.2669   21.1516 C   0  0  0  0  0  0  0  0  0  0  0  0
  -24.6486  -13.3740   20.6044 C   0  0  0  0  0  0  0  0  0  0  0  0
  -22.6120  -12.2537   21.5239 C   0  0  0  0  0  0  0  0  0  0  0  0
  -26.8274  -31.0108   20.1343 C   0  0  0  0  0  0  0  0  0  0  0  0
  -23.7725  -30.2855   20.9492 C   0  0  0  0  0  0  0  0  0  0  0  0
  -21.5797  -28.0084   22.2349 C   0  0  0  0  0  0  0  0  0  0  0  0
  -30.4098  -14.9724   20.4776 C   0  0  0  0  0  0  0  0  0  0  0  0
  -29.2000  -34.4681   17.2231 C   0  0  0  0  0  0  0  0  0  0  0  0
  -26.5062  -28.8000   18.9658 C   0  0  0  0  0  0  0  0  0  0  0  0
  -25.5636  -28.7080   21.7672 C   0  0  0  0  0  0  0  0  0  0  0  0
  -27.8714  -34.3982   17.9716 C   0  0  0  0  0  0  0  0  0  0  0  0
  -28.2639  -14.5184   17.6846 C   0  0  0  0  0  0  0  0  0  0  0  0
  -28.0898  -33.9183   19.4030 C   0  0  0  0  0  0  0  0  0  0  0  0
  -27.0827  -13.7298   18.2528 C   0  0  0  0  0  0  0  0  0  0  0  0
  -30.1837  -19.6696   24.3009 C   0  0  0  0  0  0  0  0  0  0  0  0
  -29.5858  -14.0888   18.3174 C   0  0  0  0  0  0  0  0  0  0  0  0
  -28.4295  -13.3379   20.3583 C   0  0  0  0  0  0  0  0  0  0  0  0
  -30.6447  -15.9333   24.1776 C   0  0  0  0  0  0  0  0  0  0  0  0
  -30.8768  -17.3200   22.6451 C   0  0  0  0  0  0  0  0  0  0  0  0
  -28.6861  -32.5058   19.4264 C   0  0  1  0  0  0  0  0  0  0  0  0
  -29.2661  -20.3912   25.2909 C   0  0  1  0  0  0  0  0  0  0  0  0
  -25.8371  -30.0006   19.6279 C   0  0  1  0  0  0  0  0  0  0  0  0
  -27.0670  -13.7741   19.7928 C   0  0  2  0  0  0  0  0  0  0  0  0
  -30.0670  -18.2150   24.7436 C   0  0  2  0  0  0  0  0  0  0  0  0
  -31.1239  -15.7979   22.7165 C   0  0  0  0  0  0  0  0  0  0  0  0
  -30.1494  -18.2947   26.2796 C   0  0  0  0  0  0  0  0  0  0  0  0
  -27.7788  -22.3141   23.6739 C   0  0  0  0  0  0  0  0  0  0  0  0
  -29.4067  -17.1507   26.9685 C   0  0  0  0  0  0  0  0  0  0  0  0
  -31.5736  -18.4194   26.8400 C   0  0  0  0  0  0  0  0  0  0  0  0
  -19.1548  -27.7167   22.8113 C   0  0  0  0  0  0  0  0  0  0  0  0
  -24.1584  -32.0114   23.4357 C   0  0  0  0  0  0  0  0  0  0  0  0
  -22.1181  -30.9382   24.4121 C   0  0  0  0  0  0  0  0  0  0  0  0
  -21.9384  -32.2776   22.3153 C   0  0  0  0  0  0  0  0  0  0  0  0
  -21.2803  -25.7560   20.3386 C   0  0  0  0  0  0  0  0  0  0  0  0
  -28.3062  -25.1673   23.9723 C   0  0  0  0  0  0  0  0  0  1  0  0
  -23.0489  -30.0073   22.2446 C   0  0  1  0  0  0  0  0  0  0  0  0
  -20.2248  -27.5282   21.7471 C   0  0  2  0  0  0  0  0  0  0  0  0
  -22.8381  -31.2928   23.0935 C   0  0  0  0  0  0  0  0  0  0  0  0
  -26.1447  -11.6705   20.6908 N   0  0  0  0  0  0  0  0  0  0  0  0
  -25.9247  -12.9558   20.3658 N   0  0  0  0  0  0  0  0  0  0  0  0
  -24.9940  -29.6226   20.7638 N   0  0  0  0  0  0  0  0  0  0  0  0
  -29.5033  -14.1601   19.7784 N   0  0  0  0  0  0  0  0  0  0  0  0
  -31.0659  -17.3562   24.1177 N   0  0  0  0  0  0  0  0  0  0  0  0
  -24.2570  -14.6376   20.3354 N   0  0  0  0  0  0  0  0  0  0  0  0
  -22.2959  -12.5816   22.8494 N   0  0  0  0  0  0  0  0  0  0  0  0
  -27.6613  -31.5200   19.1572 N   0  0  0  0  0  0  0  0  0  0  0  0
  -21.8135  -29.3209   21.8827 N   0  0  0  0  0  0  0  0  0  0  0  0
  -30.2644  -14.9964   21.8608 N   0  0  0  0  0  0  0  0  0  0  0  0
  -29.4264  -19.6035   26.5820 N   0  3  0  0  0  0  0  0  0  0  0  0
  -20.2848  -26.0821   21.3920 N   0  3  0  0  0  0  0  0  0  0  0  0
  -21.6920  -11.9269   20.7362 O   0  0  0  0  0  0  0  0  0  0  0  0
  -26.8335  -31.3074   21.3233 O   0  0  0  0  0  0  0  0  0  0  0  0
  -23.2690  -31.0570   20.1289 O   0  0  0  0  0  0  0  0  0  0  0  0
  -22.3518  -27.2921   22.8684 O   0  0  0  0  0  0  0  0  0  0  0  0
  -31.2852  -15.6389   19.9147 O   0  0  0  0  0  0  0  0  0  0  0  0
  -24.2788   -6.0101   22.9326 O   0  0  0  0  0  0  0  0  0  0  0  0
  -28.8114  -25.1539   22.6378 O   0  0  0  0  0  0  0  0  0  1  0  0
  -19.1225   -4.1742   23.6005 F   0  0  0  0  0  0  0  0  0  0  0  0
  -23.3551   -3.8272   21.5098 F   0  0  0  0  0  0  0  0  0  0  0  0
  1  2  1  0  0  0  0
  1  6  2  0  0  0  0
  2  7  2  0  0  0  0
  3  8  1  0  0  0  0
  3 10  2  0  0  0  0
  4 11  2  0  0  0  0
  4 18  1  0  0  0  0
  5 12  1  0  0  0  0
  5 18  2  0  0  0  0
  6 20  1  0  0  0  0
  7 22  1  0  0  0  0
  8 23  2  0  0  0  0
  9 13  2  0  0  0  0
  9 21  1  0  0  0  0
 10 25  1  0  0  0  0
 11 27  1  0  0  0  0
 12 27  2  0  0  0  0
 13 28  1  0  0  0  0
 14 15  2  0  0  0  0
 14 29  1  0  0  0  0
 15 30  1  0  0  0  0
 16 24  1  0  0  0  0
 16 28  2  0  0  0  0
 17 30  2  0  0  0  0
 17 31  1  0  0  0  0
 18 32  1  0  0  0  0
 19 32  1  0  0  0  0
 19 33  2  0  0  0  0
 19 34  1  0  0  0  0
 20 22  2  0  0  0  0
 20 39  1  0  0  0  0
 21 24  2  0  0  0  0
 21 40  1  0  0  0  0
 22 51  1  0  0  0  0
 23 26  1  0  0  0  0
 23 52  1  0  0  0  0
 24 41  1  0  0  0  0
 25 26  2  0  0  0  0
 25 66  1  0  0  0  0
 26 58  1  0  0  0  0
 27 87  1  0  0  0  0
 28 88  1  0  0  0  0
 29 31  2  0  0  0  0
 29 87  1  0  0  0  0
 30 89  1  0  0  0  0
 31 90  1  0  0  0  0
 32 70  2  0  0  0  0
 33 71  1  0  0  0  0
 33 75  1  0  0  0  0
 34 76  1  0  0  0  0
 34 82  2  0  0  0  0
 35 53  1  0  0  0  0
 35 77  1  0  0  0  0
 35 83  2  0  0  0  0
 36 67  1  0  0  0  0
 36 72  1  0  0  0  0
 36 84  2  0  0  0  0
 37 68  1  0  0  0  0
 37 78  1  0  0  0  0
 37 85  2  0  0  0  0
 38 73  1  0  0  0  0
 38 79  1  0  0  0  0
 38 86  2  0  0  0  0
 39 42  1  0  0  0  0
 40 53  1  0  0  0  0
 41 72  1  0  0  0  0
 42 44  1  0  0  0  0
 43 45  1  0  0  0  0
 43 47  1  0  0  0  0
 44 51  1  0  0  0  0
 45 54  1  0  0  0  0
 46 52  1  0  0  0  0
 46 55  1  0  0  0  0
 47 73  1  0  0  0  0
 48 54  1  0  0  0  0
 48 73  1  0  0  0  0
 49 56  1  0  0  0  0
 49 74  1  0  0  0  0
 50 56  1  0  0  0  0
 50 74  1  0  0  0  0
 51 77  1  0  0  0  0
 52 80  1  0  0  0  0
 53 72  1  0  0  0  0
 54 71  1  0  0  0  0
 55 57  1  0  0  0  0
 55 74  1  0  0  0  0
 56 79  1  0  0  0  0
 57 59  1  0  0  0  0
 57 60  1  0  0  0  0
 57 80  1  0  0  0  0
 61 68  1  0  0  0  0
 62 69  1  0  0  0  0
 63 69  1  0  0  0  0
 64 69  1  0  0  0  0
 65 81  1  0  0  0  0
 66 88  1  0  0  0  0
 67 69  1  0  0  0  0
 67 78  1  0  0  0  0
 68 81  1  0  0  0  0
 70 71  1  0  0  0  0
M  CHG  2  80   1  81   1
M  ISO  4  38 100  66 101  79 100  88 101
M  END
> <Batch ID>
0170

> <Smiles>
CNC(C)C(=O)NC(C(=O)N1Cc2cc([101O:1][101CH2:1]c3cccc(C4CC(N5CC([100NH:0][100C:0](=O)N6CCCC(n7nc(-c8ccc(Oc9ccc(F)cc9F)cc8)c(C(N)=O)c7N)C6)C5)C(C)(C)N4)c3C)ccc2CC1C(=O)NC1CCCc2ccccc21)C(C)(C)C

> <Shape>
0.261

> <Color>
0.099

> <Negative vol penalty>
0.000

$$$$

  -OEChem-04052322353D

 89 98  0     1  0  0  0  0  0999 V2000
  -31.6293  -25.0491   19.0193 C   0  0  0  0  0  0  0  0  0  0  0  0
  -30.8165  -24.5776   20.0451 C   0  0  0  0  0  0  0  0  0  0  0  0
  -23.1049   -9.8050   20.0369 C   0  0  0  0  0  0  0  0  0  0  0  0
  -23.7720   -9.9979   22.3510 C   0  0  0  0  0  0  0  0  0  0  0  0
  -31.5990  -26.3991   18.6719 C   0  0  0  0  0  0  0  0  0  0  0  0
  -29.9736  -25.4561   20.7250 C   0  0  0  0  0  0  0  0  0  0  0  0
  -25.3242  -23.5629   21.3915 C   0  0  0  0  0  0  0  0  0  0  0  0
  -22.3508   -8.6737   20.3486 C   0  0  0  0  0  0  0  0  0  0  0  0
  -23.0179   -8.8666   22.6627 C   0  0  0  0  0  0  0  0  0  0  0  0
  -25.1582  -22.6263   22.4108 C   0  0  0  0  0  0  0  0  0  0  0  0
  -19.7676   -8.1114   23.1973 C   0  0  0  0  0  0  0  0  0  0  0  0
  -18.9641   -8.1636   24.3363 C   0  0  0  0  0  0  0  0  0  0  0  0
  -24.2601  -24.3496   23.8400 C   0  0  0  0  0  0  0  0  0  0  0  0
  -31.7486  -18.6127   23.9479 C   0  0  0  0  0  0  0  0  0  0  0  0
  -31.9866  -16.7397   22.4405 C   0  0  0  0  0  0  0  0  0  0  0  0
  -20.1737   -6.2947   25.2751 C   0  0  0  0  0  0  0  0  0  0  0  0
  -23.8155  -10.4671   21.0381 C   0  0  0  0  0  0  0  0  0  0  0  0
  -24.1635  -12.9753   20.7296 C   0  0  0  0  0  0  0  0  0  0  0  0
  -30.7482  -27.2927   19.3414 C   0  0  0  0  0  0  0  0  0  0  0  0
  -24.9690  -24.9045   21.5929 C   0  0  0  0  0  0  0  0  0  0  0  0
  -29.9329  -26.8195   20.3872 C   0  0  0  0  0  0  0  0  0  0  0  0
  -24.4202  -25.3008   22.8209 C   0  0  0  0  0  0  0  0  0  0  0  0
  -30.3679  -18.5961   23.7505 C   0  0  0  0  0  0  0  0  0  0  0  0
  -29.7966  -17.6514   22.8981 C   0  0  0  0  0  0  0  0  0  0  0  0
  -30.6059  -16.7231   22.2431 C   0  0  0  0  0  0  0  0  0  0  0  0
  -22.3073   -8.2045   21.6615 C   0  0  0  0  0  0  0  0  0  0  0  0
  -24.6288  -23.0201   23.6362 C   0  0  0  0  0  0  0  0  0  0  0  0
  -20.7740   -7.1508   23.0971 C   0  0  0  0  0  0  0  0  0  0  0  0
  -32.5580  -17.6845   23.2929 C   0  0  0  0  0  0  0  0  0  0  0  0
  -19.1672   -7.2552   25.3752 C   0  0  0  0  0  0  0  0  0  0  0  0
  -20.9771   -6.2425   24.1360 C   0  0  0  0  0  0  0  0  0  0  0  0
  -24.5951  -11.6354   20.7167 C   0  0  0  0  0  0  0  0  0  0  0  0
  -25.2699  -13.6961   20.3515 C   0  0  0  0  0  0  0  0  0  0  0  0
  -22.8776  -13.5198   21.0545 C   0  0  0  0  0  0  0  0  0  0  0  0
  -26.5412  -27.6670   21.5837 C   0  0  0  0  0  0  0  0  0  0  0  0
  -23.5649  -28.9153   21.9085 C   0  0  0  0  0  0  0  0  0  0  0  0
  -20.3316  -28.4747   22.9078 C   0  0  0  0  0  0  0  0  0  0  0  0
  -30.7253  -14.7664   20.6609 C   0  0  0  0  0  0  0  0  0  0  0  0
  -30.7849  -28.7520   18.9622 C   0  0  0  0  0  0  0  0  0  0  0  0
  -25.1294  -25.8972   20.4744 C   0  0  0  0  0  0  0  0  0  0  0  0
  -24.0041  -26.7248   23.0808 C   0  0  0  0  0  0  0  0  0  0  0  0
  -29.5890  -29.5464   19.4812 C   0  0  0  0  0  0  0  0  0  0  0  0
  -29.7055  -12.1675   18.4512 C   0  0  0  0  0  0  0  0  0  0  0  0
  -29.3278  -29.2205   20.9483 C   0  0  0  0  0  0  0  0  0  0  0  0
  -28.2495  -11.9076   18.8447 C   0  0  0  0  0  0  0  0  0  0  0  0
  -30.5717  -12.4943   19.6663 C   0  0  0  0  0  0  0  0  0  0  0  0
  -28.6112  -13.3224   20.9074 C   0  0  0  0  0  0  0  0  0  0  0  0
  -27.0354  -19.2770   27.5591 C   0  0  0  0  0  0  0  0  0  0  0  0
  -28.9870  -27.7367   21.1316 C   0  0  1  0  0  0  0  0  0  0  0  0
  -25.2124  -27.3399   20.9633 C   0  0  1  0  0  0  0  0  0  0  0  0
  -27.6864  -13.0527   19.7092 C   0  0  2  0  0  0  0  0  0  0  0  0
  -27.8751  -19.8585   26.4469 C   0  0  1  0  0  0  0  0  0  0  0  0
  -28.3143  -17.6365   22.6916 C   0  0  0  0  0  0  0  0  0  0  0  0
  -30.2654  -20.9525   24.6050 C   0  0  0  0  0  0  0  0  0  0  0  0
  -18.1416  -29.6872   23.0840 C   0  0  0  0  0  0  0  0  0  0  0  0
  -24.6012  -30.4273   24.3478 C   0  0  0  0  0  0  0  0  0  0  0  0
  -22.2237  -30.8389   25.0159 C   0  0  0  0  0  0  0  0  0  0  0  0
  -23.0887  -31.7545   22.8627 C   0  0  0  0  0  0  0  0  0  0  0  0
  -18.9941  -26.5629   21.0870 C   0  0  0  0  0  0  0  0  0  0  0  0
  -34.4223  -18.6955   24.3690 C   0  0  0  0  0  0  0  0  0  0  0  0
  -25.5782  -20.5861   26.1139 C   0  0  0  0  0  0  0  0  0  0  0  0
  -25.3816  -21.0137   24.6676 C   0  0  0  0  0  0  0  0  0  1  0  0
  -29.5095  -19.6181   24.4769 C   0  0  2  0  0  0  0  0  0  0  0  0
  -22.6757  -29.2694   23.0760 C   0  0  1  0  0  0  0  0  0  0  0  0
  -19.0139  -28.7877   22.2222 C   0  0  2  0  0  0  0  0  0  0  0  0
  -28.9698  -19.0560   25.8364 C   0  0  1  0  0  0  0  0  0  0  0  0
  -23.1568  -30.5460   23.8216 C   0  0  0  0  0  0  0  0  0  0  0  0
  -25.8757  -11.5096   20.3586 N   0  0  0  0  0  0  0  0  0  0  0  0
  -26.2583  -12.7797   20.1428 N   0  0  0  0  0  0  0  0  0  0  0  0
  -24.1865  -27.6595   21.9581 N   0  0  0  0  0  0  0  0  0  0  0  0
  -29.9785  -13.5908   20.4350 N   0  0  0  0  0  0  0  0  0  0  0  0
  -26.4937  -19.4556   26.2152 N   0  0  2  0  0  0  0  0  0  0  0  0
  -25.4839  -15.0179   20.1803 N   0  0  0  0  0  0  0  0  0  0  0  0
  -21.8523  -12.6380   21.4228 N   0  0  0  0  0  0  0  0  0  0  0  0
  -30.0462  -15.7525   21.3757 N   0  0  0  0  0  0  0  0  0  0  0  0
  -27.6181  -27.4802   20.7381 N   0  0  0  0  0  0  0  0  0  0  0  0
  -21.3208  -29.3635   22.5432 N   0  0  0  0  0  0  0  0  0  0  0  0
  -30.1174  -18.9992   26.8118 N   0  3  0  0  0  0  0  0  0  0  0  0
  -18.2629  -27.5307   21.9447 N   0  3  0  0  0  0  0  0  0  0  0  0
  -22.6400  -14.7504   21.0033 O   0  0  0  0  0  0  0  0  0  0  0  0
  -26.5861  -28.0611   22.7431 O   0  0  0  0  0  0  0  0  0  0  0  0
  -23.6973  -29.7202   20.9833 O   0  0  0  0  0  0  0  0  0  0  0  0
  -20.4687  -27.5378   23.6914 O   0  0  0  0  0  0  0  0  0  0  0  0
  -31.8724  -14.9000   20.2269 O   0  0  0  0  0  0  0  0  0  0  0  0
  -21.5714   -7.1008   21.9660 O   0  0  0  0  0  0  0  0  0  0  0  0
  -33.9053  -17.7019   23.4851 O   0  0  0  0  0  0  0  0  0  0  0  0
  -24.4664  -22.1080   24.6330 O   0  0  0  0  0  0  0  0  0  1  0  0
  -18.3966   -7.3065   26.4696 F   0  0  0  0  0  0  0  0  0  0  0  0
  -21.9432   -5.3181   24.0461 F   0  0  0  0  0  0  0  0  0  0  0  0
  1  2  1  0  0  0  0
  1  5  2  0  0  0  0
  2  6  2  0  0  0  0
  3  8  2  0  0  0  0
  3 17  1  0  0  0  0
  4  9  1  0  0  0  0
  4 17  2  0  0  0  0
  5 19  1  0  0  0  0
  6 21  1  0  0  0  0
  7 10  2  0  0  0  0
  7 20  1  0  0  0  0
  8 26  1  0  0  0  0
  9 26  2  0  0  0  0
 10 27  1  0  0  0  0
 11 12  2  0  0  0  0
 11 28  1  0  0  0  0
 12 30  1  0  0  0  0
 13 22  1  0  0  0  0
 13 27  2  0  0  0  0
 14 23  1  0  0  0  0
 14 29  2  0  0  0  0
 15 25  2  0  0  0  0
 15 29  1  0  0  0  0
 16 30  2  0  0  0  0
 16 31  1  0  0  0  0
 17 32  1  0  0  0  0
 18 32  1  0  0  0  0
 18 33  2  0  0  0  0
 18 34  1  0  0  0  0
 19 21  2  0  0  0  0
 19 39  1  0  0  0  0
 20 22  2  0  0  0  0
 20 40  1  0  0  0  0
 21 49  1  0  0  0  0
 22 41  1  0  0  0  0
 23 24  2  0  0  0  0
 23 63  1  0  0  0  0
 24 25  1  0  0  0  0
 24 53  1  0  0  0  0
 25 75  1  0  0  0  0
 26 85  1  0  0  0  0
 27 87  1  0  0  0  0
 28 31  2  0  0  0  0
 28 85  1  0  0  0  0
 29 86  1  0  0  0  0
 30 88  1  0  0  0  0
 31 89  1  0  0  0  0
 32 68  2  0  0  0  0
 33 69  1  0  0  0  0
 33 73  1  0  0  0  0
 34 74  1  0  0  0  0
 34 80  2  0  0  0  0
 35 50  1  0  0  0  0
 35 76  1  0  0  0  0
 35 81  2  0  0  0  0
 36 64  1  0  0  0  0
 36 70  1  0  0  0  0
 36 82  2  0  0  0  0
 37 65  1  0  0  0  0
 37 77  1  0  0  0  0
 37 83  2  0  0  0  0
 38 71  1  0  0  0  0
 38 75  1  0  0  0  0
 38 84  2  0  0  0  0
 39 42  1  0  0  0  0
 40 50  1  0  0  0  0
 41 70  1  0  0  0  0
 42 44  1  0  0  0  0
 43 45  1  0  0  0  0
 43 46  1  0  0  0  0
 44 49  1  0  0  0  0
 45 51  1  0  0  0  0
 46 71  1  0  0  0  0
 47 51  1  0  0  0  0
 47 71  1  0  0  0  0
 48 52  1  0  0  0  0
 48 72  1  0  0  0  0
 49 76  1  0  0  0  0
 50 70  1  0  0  0  0
 51 69  1  0  0  0  0
 52 66  1  0  0  0  0
 52 72  1  0  0  0  0
 54 63  1  0  0  0  0
 55 65  1  0  0  0  0
 56 67  1  0  0  0  0
 57 67  1  0  0  0  0
 58 67  1  0  0  0  0
 59 79  1  0  0  0  0
 60 86  1  0  0  0  0
 61 62  1  0  0  0  0
 61 72  1  0  0  0  0
 62 87  1  0  0  0  0
 63 66  1  0  0  0  0
 64 67  1  0  0  0  0
 64 77  1  0  0  0  0
 65 79  1  0  0  0  0
 66 78  1  0  0  0  0
 68 69  1  0  0  0  0
M  CHG  2  78   1  79   1
M  ISO  4  38 100  62 101  75 100  87 101
M  END
> <Batch ID>
0170

> <Smiles>
CNC(C)C(=O)NC(C(=O)N1Cc2cc([101O:1][101CH2:1]CN3CC3C(N)C(C)c3cc(OC)cc([100NH:0][100C:0](=O)N4CCCC(n5nc(-c6ccc(Oc7ccc(F)cc7F)cc6)c(C(N)=O)c5N)C4)c3C)ccc2CC1C(=O)NC1CCCc2ccccc21)C(C)(C)C

> <Shape>
0.313

> <Color>
0.197

> <Negative vol penalty>
0.000

$$$$

  -OEChem-04052322353D

 86 95  0     1  0  0  0  0  0999 V2000
  -17.5289  -25.5348   21.5607 C   0  0  0  0  0  0  0  0  0  0  0  0
  -18.8644  -25.2025   21.3573 C   0  0  0  0  0  0  0  0  0  0  0  0
  -19.5307  -15.1470   22.5572 C   0  0  0  0  0  0  0  0  0  0  0  0
  -20.1950  -17.0407   21.2119 C   0  0  0  0  0  0  0  0  0  0  0  0
  -17.1949  -26.7767   22.0993 C   0  0  0  0  0  0  0  0  0  0  0  0
  -19.8668  -26.1125   21.6915 C   0  0  0  0  0  0  0  0  0  0  0  0
  -23.7140  -23.9422   24.1681 C   0  0  0  0  0  0  0  0  0  0  0  0
  -18.7893  -15.9930   23.3819 C   0  0  0  0  0  0  0  0  0  0  0  0
  -19.4536  -17.8867   22.0367 C   0  0  0  0  0  0  0  0  0  0  0  0
  -24.6332  -23.2195   23.4089 C   0  0  0  0  0  0  0  0  0  0  0  0
  -18.0281  -20.5940   23.9985 C   0  0  0  0  0  0  0  0  0  0  0  0
  -18.6225  -21.7890   24.4035 C   0  0  0  0  0  0  0  0  0  0  0  0
  -26.1447  -25.0988   23.4610 C   0  0  0  0  0  0  0  0  0  0  0  0
  -20.3972  -20.5446   25.4707 C   0  0  0  0  0  0  0  0  0  0  0  0
  -20.2336  -15.6709   21.4722 C   0  0  0  0  0  0  0  0  0  0  0  0
  -20.5534  -14.1323   19.4627 C   0  0  0  0  0  0  0  0  0  0  0  0
  -18.1941  -27.6985   22.4491 C   0  0  0  0  0  0  0  0  0  0  0  0
  -23.9992  -25.2548   24.5710 C   0  0  0  0  0  0  0  0  0  0  0  0
  -19.5458  -27.3684   22.2340 C   0  0  0  0  0  0  0  0  0  0  0  0
  -25.2285  -25.8351   24.2275 C   0  0  0  0  0  0  0  0  0  0  0  0
  -27.2980  -20.0086   20.4121 C   0  0  0  0  0  0  0  0  0  0  0  0
  -18.7507  -17.3628   23.1217 C   0  0  0  0  0  0  0  0  0  0  0  0
  -25.8476  -23.7988   23.0527 C   0  0  0  0  0  0  0  0  0  0  0  0
  -18.6182  -19.3742   24.3297 C   0  0  0  0  0  0  0  0  0  0  0  0
  -19.8071  -21.7644   25.1396 C   0  0  0  0  0  0  0  0  0  0  0  0
  -19.8028  -19.3495   25.0658 C   0  0  0  0  0  0  0  0  0  0  0  0
  -21.0001  -14.7976   20.6201 C   0  0  0  0  0  0  0  0  0  0  0  0
  -27.5043  -21.1553   21.1515 C   0  0  0  0  0  0  0  0  0  0  0  0
  -28.3999  -19.5297   19.7332 C   0  0  0  0  0  0  0  0  0  0  0  0
  -21.6517  -13.4351   19.0220 C   0  0  0  0  0  0  0  0  0  0  0  0
  -29.6875  -21.2284   20.5230 C   0  0  0  0  0  0  0  0  0  0  0  0
  -19.2614  -14.1436   18.8413 C   0  0  0  0  0  0  0  0  0  0  0  0
  -22.6865  -28.1002   24.0376 C   0  0  0  0  0  0  0  0  0  0  0  0
  -24.8833  -29.0872   26.2107 C   0  0  0  0  0  0  0  0  0  0  0  0
  -27.8740  -28.5398   27.7608 C   0  0  0  0  0  0  0  0  0  0  0  0
  -27.5431  -14.2337   19.7329 C   0  0  0  0  0  0  0  0  0  0  0  0
  -17.7823  -29.0472   22.9842 C   0  0  0  0  0  0  0  0  0  0  0  0
  -23.0082  -26.0115   25.4123 C   0  0  0  0  0  0  0  0  0  0  0  0
  -25.5914  -27.2339   24.6522 C   0  0  0  0  0  0  0  0  0  0  0  0
  -18.9204  -29.8076   23.6601 C   0  0  0  0  0  0  0  0  0  0  0  0
  -25.6513  -11.3502   20.6182 C   0  0  0  0  0  0  0  0  0  0  0  0
  -20.1787  -29.7613   22.7991 C   0  0  0  0  0  0  0  0  0  0  0  0
  -24.2044  -11.8468   20.6146 C   0  0  0  0  0  0  0  0  0  0  0  0
  -26.6128  -12.4172   21.1370 C   0  0  0  0  0  0  0  0  0  0  0  0
  -25.0758  -14.2155   20.4461 C   0  0  0  0  0  0  0  0  0  0  0  0
  -29.0147  -17.1556   19.2026 C   0  0  0  0  0  0  0  0  0  0  0  0
  -27.3246  -18.2600   17.8549 C   0  0  0  0  0  0  0  0  0  0  0  0
  -20.6628  -28.3189   22.6068 C   0  0  1  0  0  0  0  0  0  0  0  0
  -23.1880  -27.5243   25.3317 C   0  0  1  0  0  0  0  0  0  0  0  0
  -24.0757  -13.1939   19.8784 C   0  0  2  0  0  0  0  0  0  0  0  0
  -28.3237  -16.1141   18.3138 C   0  0  2  0  0  0  0  0  0  0  0  0
  -27.7227  -16.9449   17.1827 C   0  0  2  0  0  0  0  0  0  0  0  0
  -25.9693  -19.3392   20.3568 C   0  0  0  0  0  0  0  0  0  0  0  0
  -31.0144  -21.9057   20.5846 C   0  0  0  0  0  0  0  0  0  0  0  0
  -29.4223  -29.5398   29.4638 C   0  0  0  0  0  0  0  0  0  0  0  0
  -25.7954  -31.1568   24.1626 C   0  0  0  0  0  0  0  0  0  0  0  0
  -27.8891  -31.4574   25.5022 C   0  0  0  0  0  0  0  0  0  0  0  0
  -25.6744  -31.9993   26.5142 C   0  0  0  0  0  0  0  0  0  0  0  0
  -27.6453  -26.1761   29.5270 C   0  0  0  0  0  0  0  0  0  0  0  0
  -26.3798  -21.7697   21.9323 C   0  0  0  0  0  0  0  0  0  1  0  0
  -26.3084  -29.5803   26.1419 C   0  0  1  0  0  0  0  0  0  0  0  0
  -28.2708  -28.5754   29.2256 C   0  0  2  0  0  0  0  0  0  0  0  0
  -26.4095  -31.0228   25.5704 C   0  0  0  0  0  0  0  0  0  0  0  0
  -22.2821  -14.5455   20.8975 N   0  0  0  0  0  0  0  0  0  0  0  0
  -28.6903  -21.7937   21.2297 N   0  0  0  0  0  0  0  0  0  0  0  0
  -29.6143  -20.1168   19.7663 N   0  0  0  0  0  0  0  0  0  0  0  0
  -22.6504  -13.7140   19.9080 N   0  0  0  0  0  0  0  0  0  0  0  0
  -28.2556  -18.3858   18.9763 N   0  0  3  0  0  0  0  0  0  0  0  0
  -24.5868  -27.9353   25.4684 N   0  0  0  0  0  0  0  0  0  0  0  0
  -26.4410  -13.6691   20.3960 N   0  0  0  0  0  0  0  0  0  0  0  0
  -21.8509  -12.6167   17.9671 N   0  0  0  0  0  0  0  0  0  0  0  0
  -18.2460  -14.9135   19.4250 N   0  0  0  0  0  0  0  0  0  0  0  0
  -21.3490  -27.8537   23.7930 N   0  0  0  0  0  0  0  0  0  0  0  0
  -26.8577  -29.4299   27.4851 N   0  0  0  0  0  0  0  0  0  0  0  0
  -27.2922  -15.4171   19.0493 N   0  0  0  0  0  0  0  0  0  0  0  0
  -28.7768  -17.2256   16.1655 N   0  3  0  0  0  0  0  0  0  0  0  0
  -28.6908  -27.2202   29.6816 N   0  3  0  0  0  0  0  0  0  0  0  0
  -19.0100  -13.4774   17.8086 O   0  0  0  0  0  0  0  0  0  0  0  0
  -23.4557  -28.7233   23.3153 O   0  0  0  0  0  0  0  0  0  0  0  0
  -24.0650  -29.6973   26.9035 O   0  0  0  0  0  0  0  0  0  0  0  0
  -28.4144  -27.7992   26.9421 O   0  0  0  0  0  0  0  0  0  0  0  0
  -28.6661  -13.7182   19.7444 O   0  0  0  0  0  0  0  0  0  0  0  0
  -18.0272  -18.1886   23.9262 O   0  0  0  0  0  0  0  0  0  0  0  0
  -26.7463  -23.0958   22.3111 O   0  0  0  0  0  0  0  0  0  1  0  0
  -20.3787  -22.9121   25.5271 F   0  0  0  0  0  0  0  0  0  0  0  0
  -20.3750  -18.1808   25.3859 F   0  0  0  0  0  0  0  0  0  0  0  0
  1  2  1  0  0  0  0
  1  5  2  0  0  0  0
  2  6  2  0  0  0  0
  3  8  2  0  0  0  0
  3 15  1  0  0  0  0
  4  9  1  0  0  0  0
  4 15  2  0  0  0  0
  5 17  1  0  0  0  0
  6 19  1  0  0  0  0
  7 10  2  0  0  0  0
  7 18  1  0  0  0  0
  8 22  1  0  0  0  0
  9 22  2  0  0  0  0
 10 23  1  0  0  0  0
 11 12  2  0  0  0  0
 11 24  1  0  0  0  0
 12 25  1  0  0  0  0
 13 20  1  0  0  0  0
 13 23  2  0  0  0  0
 14 25  2  0  0  0  0
 14 26  1  0  0  0  0
 15 27  1  0  0  0  0
 16 27  1  0  0  0  0
 16 30  2  0  0  0  0
 16 32  1  0  0  0  0
 17 19  2  0  0  0  0
 17 37  1  0  0  0  0
 18 20  2  0  0  0  0
 18 38  1  0  0  0  0
 19 48  1  0  0  0  0
 20 39  1  0  0  0  0
 21 28  2  0  0  0  0
 21 29  1  0  0  0  0
 21 53  1  0  0  0  0
 22 83  1  0  0  0  0
 23 84  1  0  0  0  0
 24 26  2  0  0  0  0
 24 83  1  0  0  0  0
 25 85  1  0  0  0  0
 26 86  1  0  0  0  0
 27 64  2  0  0  0  0
 28 60  1  0  0  0  0
 28 65  1  0  0  0  0
 29 66  2  0  0  0  0
 29 68  1  0  0  0  0
 30 67  1  0  0  0  0
 30 71  1  0  0  0  0
 31 54  1  0  0  0  0
 31 65  2  0  0  0  0
 31 66  1  0  0  0  0
 32 72  1  0  0  0  0
 32 78  2  0  0  0  0
 33 49  1  0  0  0  0
 33 73  1  0  0  0  0
 33 79  2  0  0  0  0
 34 61  1  0  0  0  0
 34 69  1  0  0  0  0
 34 80  2  0  0  0  0
 35 62  1  0  0  0  0
 35 74  1  0  0  0  0
 35 81  2  0  0  0  0
 36 70  1  0  0  0  0
 36 75  1  0  0  0  0
 36 82  2  0  0  0  0
 37 40  1  0  0  0  0
 38 49  1  0  0  0  0
 39 69  1  0  0  0  0
 40 42  1  0  0  0  0
 41 43  1  0  0  0  0
 41 44  1  0  0  0  0
 42 48  1  0  0  0  0
 43 50  1  0  0  0  0
 44 70  1  0  0  0  0
 45 50  1  0  0  0  0
 45 70  1  0  0  0  0
 46 51  1  0  0  0  0
 46 68  1  0  0  0  0
 47 52  1  0  0  0  0
 47 68  1  0  0  0  0
 48 73  1  0  0  0  0
 49 69  1  0  0  0  0
 50 67  1  0  0  0  0
 51 52  1  0  0  0  0
 51 75  1  0  0  0  0
 52 76  1  0  0  0  0
 55 62  1  0  0  0  0
 56 63  1  0  0  0  0
 57 63  1  0  0  0  0
 58 63  1  0  0  0  0
 59 77  1  0  0  0  0
 60 84  1  0  0  0  0
 61 63  1  0  0  0  0
 61 74  1  0  0  0  0
 62 77  1  0  0  0  0
 64 67  1  0  0  0  0
M  CHG  2  76   1  77   1
M  ISO  4  36 100  60 101  75 100  84 101
M  END
> <Batch ID>
0170

> <Smiles>
CNC(C)C(=O)NC(C(=O)N1Cc2cc([101O:1][101CH2:1]c3nc(C)nc(N4CC(N)C([100NH:0][100C:0](=O)N5CCCC(n6nc(-c7ccc(Oc8ccc(F)cc8F)cc7)c(C(N)=O)c6N)C5)C4)c3C)ccc2CC1C(=O)NC1CCCc2ccccc21)C(C)(C)C

> <Shape>
0.196

> <Color>
0.096

> <Negative vol penalty>
0.000

$$$$

  -OEChem-04052322353D

 86 96  0     1  0  0  0  0  0999 V2000
  -26.6718  -10.4943   17.4766 C   0  0  0  0  0  0  0  0  0  0  0  0
  -25.9645  -11.6861   17.5980 C   0  0  0  0  0  0  0  0  0  0  0  0
  -25.5143  -29.0086   21.3761 C   0  0  0  0  0  0  0  0  0  0  0  0
  -24.9935  -27.8836   19.3024 C   0  0  0  0  0  0  0  0  0  0  0  0
  -27.9063  -10.3502   18.1084 C   0  0  0  0  0  0  0  0  0  0  0  0
  -26.4909  -12.7342   18.3522 C   0  0  0  0  0  0  0  0  0  0  0  0
  -26.0617  -17.2103   16.0229 C   0  0  0  0  0  0  0  0  0  0  0  0
  -26.8355  -28.5717   21.2813 C   0  0  0  0  0  0  0  0  0  0  0  0
  -26.3148  -27.4467   19.2075 C   0  0  0  0  0  0  0  0  0  0  0  0
  -24.8113  -17.8263   16.0528 C   0  0  0  0  0  0  0  0  0  0  0  0
  -28.5666  -25.7286   21.8686 C   0  0  0  0  0  0  0  0  0  0  0  0
  -29.1605  -25.2086   23.0185 C   0  0  0  0  0  0  0  0  0  0  0  0
  -20.3681  -22.0420   18.4036 C   0  0  0  0  0  0  0  0  0  0  0  0
  -19.9965  -20.2181   16.8634 C   0  0  0  0  0  0  0  0  0  0  0  0
  -25.5624  -19.2501   17.8494 C   0  0  0  0  0  0  0  0  0  0  0  0
  -30.8539  -26.9292   22.9220 C   0  0  0  0  0  0  0  0  0  0  0  0
  -24.5932  -28.6645   20.3866 C   0  0  0  0  0  0  0  0  0  0  0  0
  -22.6885  -30.3099   19.9714 C   0  0  0  0  0  0  0  0  0  0  0  0
  -28.4526  -11.4006   18.8627 C   0  0  0  0  0  0  0  0  0  0  0  0
  -27.0700  -17.6028   16.9149 C   0  0  0  0  0  0  0  0  0  0  0  0
  -27.7333  -12.6036   18.9957 C   0  0  0  0  0  0  0  0  0  0  0  0
  -20.8067  -21.2461   17.3454 C   0  0  0  0  0  0  0  0  0  0  0  0
  -19.1192  -21.8097   18.9799 C   0  0  0  0  0  0  0  0  0  0  0  0
  -26.8255  -18.6393   17.8271 C   0  0  0  0  0  0  0  0  0  0  0  0
  -18.7476  -19.9859   17.4397 C   0  0  0  0  0  0  0  0  0  0  0  0
  -18.3090  -20.7817   18.4979 C   0  0  0  0  0  0  0  0  0  0  0  0
  -27.2358  -27.7908   20.1970 C   0  0  0  0  0  0  0  0  0  0  0  0
  -24.5606  -18.8444   16.9681 C   0  0  0  0  0  0  0  0  0  0  0  0
  -29.1163  -26.8489   21.2452 C   0  0  0  0  0  0  0  0  0  0  0  0
  -30.3041  -25.8089   23.5453 C   0  0  0  0  0  0  0  0  0  0  0  0
  -30.2599  -27.4492   21.7720 C   0  0  0  0  0  0  0  0  0  0  0  0
  -23.2281  -29.1150   20.4843 C   0  0  0  0  0  0  0  0  0  0  0  0
  -21.3623  -30.2678   20.3263 C   0  0  0  0  0  0  0  0  0  0  0  0
  -23.3288  -31.3635   19.2395 C   0  0  0  0  0  0  0  0  0  0  0  0
  -28.7012  -16.1618   19.2314 C   0  0  0  0  0  0  0  0  0  0  0  0
  -30.3527  -18.9534   19.2724 C   0  0  0  0  0  0  0  0  0  0  0  0
  -30.4095  -22.2963   18.5880 C   0  0  0  0  0  0  0  0  0  0  0  0
  -17.7360  -25.5928   21.6514 C   0  0  0  0  0  0  0  0  0  0  0  0
  -29.7684  -11.1811   19.5663 C   0  0  0  0  0  0  0  0  0  0  0  0
  -28.4220  -16.9466   16.8519 C   0  0  0  0  0  0  0  0  0  0  0  0
  -27.8808  -19.1114   18.7924 C   0  0  0  0  0  0  0  0  0  0  0  0
  -30.4297  -12.4735   20.0382 C   0  0  0  0  0  0  0  0  0  0  0  0
  -18.4098  -28.5186   23.6309 C   0  0  0  0  0  0  0  0  0  0  0  0
  -29.4127  -13.3685   20.7393 C   0  0  0  0  0  0  0  0  0  0  0  0
  -19.6998  -29.0821   23.0443 C   0  0  0  0  0  0  0  0  0  0  0  0
  -22.3954  -22.8555   16.1092 C   0  0  0  0  0  0  0  0  0  0  0  0
  -22.2079  -21.6639   15.2232 C   0  0  0  0  0  0  0  0  0  0  0  0
  -18.4025  -26.9971   23.5676 C   0  0  0  0  0  0  0  0  0  0  0  0
  -19.4793  -23.9752   20.5539 C   0  0  0  0  0  0  0  0  0  0  0  0
  -17.4636  -23.7026   19.9573 C   0  0  0  0  0  0  0  0  0  0  0  0
  -19.8486  -27.0247   21.5522 C   0  0  0  0  0  0  0  0  0  0  0  0
  -18.6423  -22.7275   20.1813 C   0  0  0  0  0  0  0  0  0  0  0  0
  -28.2826  -13.7723   19.7847 C   0  0  1  0  0  0  0  0  0  0  0  0
  -29.2097  -17.0751   18.1521 C   0  0  1  0  0  0  0  0  0  0  0  0
  -19.9109  -28.5638   21.6145 C   0  0  2  0  0  0  0  0  0  0  0  0
  -22.1412  -21.4939   16.7303 C   0  0  0  0  0  0  0  0  0  0  0  0
  -17.8992  -18.8788   16.9050 C   0  0  0  0  0  0  0  0  0  0  0  0
  -16.9705  -20.5354   19.1174 C   0  0  0  0  0  0  0  0  0  0  0  0
  -31.8842  -24.3189   18.7667 C   0  0  0  0  0  0  0  0  0  0  0  0
  -29.7801  -19.1034   22.2656 C   0  0  0  0  0  0  0  0  0  0  0  0
  -30.4187  -21.5232   22.1958 C   0  0  0  0  0  0  0  0  0  0  0  0
  -32.0990  -19.7743   21.6122 C   0  0  0  0  0  0  0  0  0  0  0  0
  -30.4115  -22.6974   15.6558 C   0  0  0  0  0  0  0  0  0  0  0  0
  -23.2926  -20.8071   17.4108 C   0  0  0  0  0  0  0  0  0  1  0  0
  -30.2131  -20.2675   20.0021 C   0  0  1  0  0  0  0  0  0  0  0  0
  -31.4382  -23.1631   17.8846 C   0  0  2  0  0  0  0  0  0  0  0  0
  -30.6070  -20.1571   21.5022 C   0  0  0  0  0  0  0  0  0  0  0  0
  -22.3190  -28.3685   21.1170 N   0  0  0  0  0  0  0  0  0  0  0  0
  -21.1948  -29.0962   21.0041 N   0  0  0  0  0  0  0  0  0  0  0  0
  -29.1846  -18.4344   18.6961 N   0  0  0  0  0  0  0  0  0  0  0  0
  -18.6436  -26.5000   22.2096 N   0  0  0  0  0  0  0  0  0  0  0  0
  -18.2136  -24.6573   20.7642 N   0  0  0  0  0  0  0  0  0  0  0  0
  -20.3348  -31.1191   20.1217 N   0  0  0  0  0  0  0  0  0  0  0  0
  -24.6972  -31.2469   18.9600 N   0  0  0  0  0  0  0  0  0  0  0  0
  -28.7254  -14.8223   18.8926 N   0  0  0  0  0  0  0  0  0  0  0  0
  -30.9984  -21.2386   19.2481 N   0  0  0  0  0  0  0  0  0  0  0  0
  -30.8695  -23.7244   16.6266 N   0  3  0  0  0  0  0  0  0  0  0  0
  -22.7094  -32.3859   18.8594 O   0  0  0  0  0  0  0  0  0  0  0  0
  -28.3168  -16.6370   20.2936 O   0  0  0  0  0  0  0  0  0  0  0  0
  -31.4588  -18.4110   19.2096 O   0  0  0  0  0  0  0  0  0  0  0  0
  -29.2044  -22.5358   18.5583 O   0  0  0  0  0  0  0  0  0  0  0  0
  -16.5364  -25.5966   21.9581 O   0  0  0  0  0  0  0  0  0  0  0  0
  -28.5251  -27.3644   20.1041 O   0  0  0  0  0  0  0  0  0  0  0  0
  -23.3299  -19.4523   17.0001 O   0  0  0  0  0  0  0  0  0  1  0  0
  -30.8735  -25.3104   24.6505 F   0  0  0  0  0  0  0  0  0  0  0  0
  -30.7919  -28.5264   21.1783 F   0  0  0  0  0  0  0  0  0  0  0  0
  1  2  1  0  0  0  0
  1  5  2  0  0  0  0
  2  6  2  0  0  0  0
  3  8  2  0  0  0  0
  3 17  1  0  0  0  0
  4  9  1  0  0  0  0
  4 17  2  0  0  0  0
  5 19  1  0  0  0  0
  6 21  1  0  0  0  0
  7 10  2  0  0  0  0
  7 20  1  0  0  0  0
  8 27  1  0  0  0  0
  9 27  2  0  0  0  0
 10 28  1  0  0  0  0
 11 12  2  0  0  0  0
 11 29  1  0  0  0  0
 12 30  1  0  0  0  0
 13 22  2  0  0  0  0
 13 23  1  0  0  0  0
 14 22  1  0  0  0  0
 14 25  2  0  0  0  0
 15 24  1  0  0  0  0
 15 28  2  0  0  0  0
 16 30  2  0  0  0  0
 16 31  1  0  0  0  0
 17 32  1  0  0  0  0
 18 32  1  0  0  0  0
 18 33  2  0  0  0  0
 18 34  1  0  0  0  0
 19 21  2  0  0  0  0
 19 39  1  0  0  0  0
 20 24  2  0  0  0  0
 20 40  1  0  0  0  0
 21 53  1  0  0  0  0
 22 56  1  0  0  0  0
 23 26  2  0  0  0  0
 23 52  1  0  0  0  0
 24 41  1  0  0  0  0
 25 26  1  0  0  0  0
 25 57  1  0  0  0  0
 26 58  1  0  0  0  0
 27 83  1  0  0  0  0
 28 84  1  0  0  0  0
 29 31  2  0  0  0  0
 29 83  1  0  0  0  0
 30 85  1  0  0  0  0
 31 86  1  0  0  0  0
 32 68  2  0  0  0  0
 33 69  1  0  0  0  0
 33 73  1  0  0  0  0
 34 74  1  0  0  0  0
 34 78  2  0  0  0  0
 35 54  1  0  0  0  0
 35 75  1  0  0  0  0
 35 79  2  0  0  0  0
 36 65  1  0  0  0  0
 36 70  1  0  0  0  0
 36 80  2  0  0  0  0
 37 66  1  0  0  0  0
 37 76  1  0  0  0  0
 37 81  2  0  0  0  0
 38 71  1  0  0  0  0
 38 72  1  0  0  0  0
 38 82  2  0  0  0  0
 39 42  1  0  0  0  0
 40 54  1  0  0  0  0
 41 70  1  0  0  0  0
 42 44  1  0  0  0  0
 43 45  1  0  0  0  0
 43 48  1  0  0  0  0
 44 53  1  0  0  0  0
 45 55  1  0  0  0  0
 46 47  1  0  0  0  0
 46 56  1  0  0  0  0
 47 56  1  0  0  0  0
 48 71  1  0  0  0  0
 49 52  1  0  0  0  0
 49 72  1  0  0  0  0
 50 52  1  0  0  0  0
 50 72  1  0  0  0  0
 51 55  1  0  0  0  0
 51 71  1  0  0  0  0
 53 75  1  0  0  0  0
 54 70  1  0  0  0  0
 55 69  1  0  0  0  0
 56 64  1  0  0  0  0
 59 66  1  0  0  0  0
 60 67  1  0  0  0  0
 61 67  1  0  0  0  0
 62 67  1  0  0  0  0
 63 77  1  0  0  0  0
 64 84  1  0  0  0  0
 65 67  1  0  0  0  0
 65 76  1  0  0  0  0
 66 77  1  0  0  0  0
 68 69  1  0  0  0  0
M  CHG  1  77   1
M  ISO  4  38 100  64 101  72 100  84 101
M  END
> <Batch ID>
0170

> <Smiles>
CNC(C)C(=O)NC(C(=O)N1Cc2cc([101O:1][101CH2:1]C3(c4cc(C)c(C)c(C5C[100N:0]([100C:0](=O)N6CCCC(n7nc(-c8ccc(Oc9ccc(F)cc9F)cc8)c(C(N)=O)c7N)C6)C5)c4)CC3)ccc2CC1C(=O)NC1CCCc2ccccc21)C(C)(C)C

> <Shape>
0.221

> <Color>
0.086

> <Negative vol penalty>
0.000

$$$$

  -OEChem-04052322353D

 87 96  0     1  0  0  0  0  0999 V2000
  -13.9714  -22.8724   31.9055 C   0  0  0  0  0  0  0  0  0  0  0  0
  -15.3249  -22.5520   31.9347 C   0  0  0  0  0  0  0  0  0  0  0  0
  -23.1152   -9.7855   20.1130 C   0  0  0  0  0  0  0  0  0  0  0  0
  -23.7515  -10.0706   22.4262 C   0  0  0  0  0  0  0  0  0  0  0  0
  -13.3086  -22.9829   30.6839 C   0  0  0  0  0  0  0  0  0  0  0  0
  -16.0162  -22.3409   30.7422 C   0  0  0  0  0  0  0  0  0  0  0  0
  -22.5006  -23.1983   27.8210 C   0  0  0  0  0  0  0  0  0  0  0  0
  -22.3608   -8.6644   20.4587 C   0  0  0  0  0  0  0  0  0  0  0  0
  -22.9971   -8.9495   22.7719 C   0  0  0  0  0  0  0  0  0  0  0  0
  -23.4774  -22.4767   27.1363 C   0  0  0  0  0  0  0  0  0  0  0  0
  -19.7426   -8.2034   23.2936 C   0  0  0  0  0  0  0  0  0  0  0  0
  -18.9242   -8.2968   24.4193 C   0  0  0  0  0  0  0  0  0  0  0  0
  -22.2475  -22.7723   25.0822 C   0  0  0  0  0  0  0  0  0  0  0  0
  -20.1275   -6.4703   25.4455 C   0  0  0  0  0  0  0  0  0  0  0  0
  -23.8106  -10.4886   21.0968 C   0  0  0  0  0  0  0  0  0  0  0  0
  -24.1545  -12.9843   20.6955 C   0  0  0  0  0  0  0  0  0  0  0  0
  -13.9943  -22.7825   29.4755 C   0  0  0  0  0  0  0  0  0  0  0  0
  -21.3825  -23.7039   27.1422 C   0  0  0  0  0  0  0  0  0  0  0  0
  -15.3616  -22.4474   29.5033 C   0  0  0  0  0  0  0  0  0  0  0  0
  -21.2592  -23.5022   25.7601 C   0  0  0  0  0  0  0  0  0  0  0  0
  -26.9543  -18.4644   23.6221 C   0  0  0  0  0  0  0  0  0  0  0  0
  -26.0397  -19.0850   24.4657 C   0  0  0  0  0  0  0  0  0  0  0  0
  -28.1354  -19.1166   23.2860 C   0  0  0  0  0  0  0  0  0  0  0  0
  -22.3017   -8.2464   21.7881 C   0  0  0  0  0  0  0  0  0  0  0  0
  -23.3495  -22.2611   25.7673 C   0  0  0  0  0  0  0  0  0  0  0  0
  -20.7533   -7.2434   23.2438 C   0  0  0  0  0  0  0  0  0  0  0  0
  -19.1167   -7.4302   25.4952 C   0  0  0  0  0  0  0  0  0  0  0  0
  -20.9458   -6.3769   24.3197 C   0  0  0  0  0  0  0  0  0  0  0  0
  -24.5905  -11.6465   20.7402 C   0  0  0  0  0  0  0  0  0  0  0  0
  -26.3508  -20.3482   24.9426 C   0  0  0  0  0  0  0  0  0  0  0  0
  -28.3526  -20.3784   23.8156 C   0  0  0  0  0  0  0  0  0  0  0  0
  -25.2633  -13.6939   20.3039 C   0  0  0  0  0  0  0  0  0  0  0  0
  -22.8627  -13.5362   20.9824 C   0  0  0  0  0  0  0  0  0  0  0  0
  -18.2439  -23.2373   27.3305 C   0  0  0  0  0  0  0  0  0  0  0  0
  -18.1489  -25.6454   25.1592 C   0  0  0  0  0  0  0  0  0  0  0  0
  -19.7508  -27.4067   22.7142 C   0  0  0  0  0  0  0  0  0  0  0  0
  -30.7276  -14.7712   20.6592 C   0  0  0  0  0  0  0  0  0  0  0  0
  -13.2243  -22.8663   28.1813 C   0  0  0  0  0  0  0  0  0  0  0  0
  -20.3510  -24.5032   27.8904 C   0  0  0  0  0  0  0  0  0  0  0  0
  -20.0882  -24.0414   24.9813 C   0  0  0  0  0  0  0  0  0  0  0  0
  -14.1162  -22.9953   26.9492 C   0  0  0  0  0  0  0  0  0  0  0  0
  -29.7228  -12.1115   18.5162 C   0  0  0  0  0  0  0  0  0  0  0  0
  -15.2584  -21.9860   27.0089 C   0  0  0  0  0  0  0  0  0  0  0  0
  -28.2647  -11.8599   18.9044 C   0  0  0  0  0  0  0  0  0  0  0  0
  -30.5741  -12.4804   19.7291 C   0  0  0  0  0  0  0  0  0  0  0  0
  -28.5999  -13.3559   20.9165 C   0  0  0  0  0  0  0  0  0  0  0  0
  -30.1566  -17.6769   22.9148 C   0  0  0  0  0  0  0  0  0  0  0  0
  -29.0573  -18.6749   20.9944 C   0  0  0  0  0  0  0  0  0  0  0  0
  -16.1516  -22.2354   28.2302 C   0  0  1  0  0  0  0  0  0  0  0  0
  -18.9949  -24.5313   27.1921 C   0  0  1  0  0  0  0  0  0  0  0  0
  -27.6903  -13.0352   19.7181 C   0  0  2  0  0  0  0  0  0  0  0  0
  -30.7241  -17.0538   21.6333 C   0  0  2  0  0  0  0  0  0  0  0  0
  -30.3981  -18.0841   20.5549 C   0  0  2  0  0  0  0  0  0  0  0  0
  -26.6663  -17.0996   23.0802 C   0  0  0  0  0  0  0  0  0  0  0  0
  -24.7641  -18.4110   24.8462 C   0  0  0  0  0  0  0  0  0  0  0  0
  -29.6022  -21.1315   23.4917 C   0  0  0  0  0  0  0  0  0  0  0  0
  -19.4036  -29.2931   21.0961 C   0  0  0  0  0  0  0  0  0  0  0  0
  -16.4721  -23.8132   23.3868 C   0  0  0  0  0  0  0  0  0  0  0  0
  -16.9604  -25.3414   21.4647 C   0  0  0  0  0  0  0  0  0  0  0  0
  -15.7069  -26.1934   23.4460 C   0  0  0  0  0  0  0  0  0  0  0  0
  -21.9340  -28.9984   23.9221 C   0  0  0  0  0  0  0  0  0  0  0  0
  -25.4043  -21.0671   25.8583 C   0  0  0  0  0  0  0  0  0  1  0  0
  -18.1834  -25.7281   23.6523 C   0  0  1  0  0  0  0  0  0  0  0  0
  -19.8974  -28.8993   22.4795 C   0  0  2  0  0  0  0  0  0  0  0  0
  -16.8519  -25.2570   23.0022 C   0  0  0  0  0  0  0  0  0  0  0  0
  -25.8761  -11.5117   20.4037 N   0  0  0  0  0  0  0  0  0  0  0  0
  -27.4877  -21.0133   24.6382 N   0  0  0  0  0  0  0  0  0  0  0  0
  -26.2573  -12.7739   20.1438 N   0  0  0  0  0  0  0  0  0  0  0  0
  -29.0599  -18.5263   22.4498 N   0  0  3  0  0  0  0  0  0  0  0  0
  -19.1029  -24.8111   25.7588 N   0  0  0  0  0  0  0  0  0  0  0  0
  -29.9755  -13.6025   20.4561 N   0  0  0  0  0  0  0  0  0  0  0  0
  -25.4753  -15.0090   20.0843 N   0  0  0  0  0  0  0  0  0  0  0  0
  -21.8356  -12.6655   21.3714 N   0  0  0  0  0  0  0  0  0  0  0  0
  -17.0353  -23.3560   27.9897 N   0  0  0  0  0  0  0  0  0  0  0  0
  -18.5541  -27.1012   23.3272 N   0  0  0  0  0  0  0  0  0  0  0  0
  -30.0830  -15.7887   21.3520 N   0  0  0  0  0  0  0  0  0  0  0  0
  -31.4283  -19.1624   20.5778 N   0  3  0  0  0  0  0  0  0  0  0  0
  -21.3262  -29.3050   22.6017 N   0  3  0  0  0  0  0  0  0  0  0  0
  -22.6218  -14.7630   20.8804 O   0  0  0  0  0  0  0  0  0  0  0  0
  -18.7246  -22.2076   26.8718 O   0  0  0  0  0  0  0  0  0  0  0  0
  -17.3109  -26.3025   25.7819 O   0  0  0  0  0  0  0  0  0  0  0  0
  -20.6102  -26.5928   22.3832 O   0  0  0  0  0  0  0  0  0  0  0  0
  -31.8859  -14.9006   20.2486 O   0  0  0  0  0  0  0  0  0  0  0  0
  -21.5654   -7.1525   22.1258 O   0  0  0  0  0  0  0  0  0  0  0  0
  -24.3012  -21.5565   25.0967 O   0  0  0  0  0  0  0  0  0  1  0  0
  -18.3318   -7.5210   26.5768 F   0  0  0  0  0  0  0  0  0  0  0  0
  -21.9160   -5.4534   24.2781 F   0  0  0  0  0  0  0  0  0  0  0  0
  1  2  1  0  0  0  0
  1  5  2  0  0  0  0
  2  6  2  0  0  0  0
  3  8  2  0  0  0  0
  3 15  1  0  0  0  0
  4  9  1  0  0  0  0
  4 15  2  0  0  0  0
  5 17  1  0  0  0  0
  6 19  1  0  0  0  0
  7 10  2  0  0  0  0
  7 18  1  0  0  0  0
  8 24  1  0  0  0  0
  9 24  2  0  0  0  0
 10 25  1  0  0  0  0
 11 12  2  0  0  0  0
 11 26  1  0  0  0  0
 12 27  1  0  0  0  0
 13 20  1  0  0  0  0
 13 25  2  0  0  0  0
 14 27  2  0  0  0  0
 14 28  1  0  0  0  0
 15 29  1  0  0  0  0
 16 29  1  0  0  0  0
 16 32  2  0  0  0  0
 16 33  1  0  0  0  0
 17 19  2  0  0  0  0
 17 38  1  0  0  0  0
 18 20  2  0  0  0  0
 18 39  1  0  0  0  0
 19 49  1  0  0  0  0
 20 40  1  0  0  0  0
 21 22  1  0  0  0  0
 21 23  2  0  0  0  0
 21 54  1  0  0  0  0
 22 30  2  0  0  0  0
 22 55  1  0  0  0  0
 23 31  1  0  0  0  0
 23 69  1  0  0  0  0
 24 84  1  0  0  0  0
 25 85  1  0  0  0  0
 26 28  2  0  0  0  0
 26 84  1  0  0  0  0
 27 86  1  0  0  0  0
 28 87  1  0  0  0  0
 29 66  2  0  0  0  0
 30 62  1  0  0  0  0
 30 67  1  0  0  0  0
 31 56  1  0  0  0  0
 31 67  2  0  0  0  0
 32 68  1  0  0  0  0
 32 72  1  0  0  0  0
 33 73  1  0  0  0  0
 33 79  2  0  0  0  0
 34 50  1  0  0  0  0
 34 74  1  0  0  0  0
 34 80  2  0  0  0  0
 35 63  1  0  0  0  0
 35 70  1  0  0  0  0
 35 81  2  0  0  0  0
 36 64  1  0  0  0  0
 36 75  1  0  0  0  0
 36 82  2  0  0  0  0
 37 71  1  0  0  0  0
 37 76  1  0  0  0  0
 37 83  2  0  0  0  0
 38 41  1  0  0  0  0
 39 50  1  0  0  0  0
 40 70  1  0  0  0  0
 41 43  1  0  0  0  0
 42 44  1  0  0  0  0
 42 45  1  0  0  0  0
 43 49  1  0  0  0  0
 44 51  1  0  0  0  0
 45 71  1  0  0  0  0
 46 51  1  0  0  0  0
 46 71  1  0  0  0  0
 47 52  1  0  0  0  0
 47 69  1  0  0  0  0
 48 53  1  0  0  0  0
 48 69  1  0  0  0  0
 49 74  1  0  0  0  0
 50 70  1  0  0  0  0
 51 68  1  0  0  0  0
 52 53  1  0  0  0  0
 52 76  1  0  0  0  0
 53 77  1  0  0  0  0
 57 64  1  0  0  0  0
 58 65  1  0  0  0  0
 59 65  1  0  0  0  0
 60 65  1  0  0  0  0
 61 78  1  0  0  0  0
 62 85  1  0  0  0  0
 63 65  1  0  0  0  0
 63 75  1  0  0  0  0
 64 78  1  0  0  0  0
 66 68  1  0  0  0  0
M  CHG  2  77   1  78   1
M  ISO  4  37 100  62 101  76 100  85 101
M  END
> <Batch ID>
0170

> <Smiles>
CNC(C)C(=O)NC(C(=O)N1Cc2cc([101O:1][101CH2:1]c3nc(C)c(N4CC(N)C([100NH:0][100C:0](=O)N5CCCC(n6nc(-c7ccc(Oc8ccc(F)cc8F)cc7)c(C(N)=O)c6N)C5)C4)c(C)c3C)ccc2CC1C(=O)NC1CCCc2ccccc21)C(C)(C)C

> <Shape>
0.222

> <Color>
0.194

> <Negative vol penalty>
0.000

$$$$

  -OEChem-04052322353D

 91102  0     1  0  0  0  0  0999 V2000
  -29.1838  -34.0585   25.5942 C   0  0  0  0  0  0  0  0  0  0  0  0
  -28.8904  -32.7353   25.2804 C   0  0  0  0  0  0  0  0  0  0  0  0
  -23.7123  -10.1765   22.1552 C   0  0  0  0  0  0  0  0  0  0  0  0
  -25.0559   -8.1760   21.9821 C   0  0  0  0  0  0  0  0  0  0  0  0
  -28.1719  -35.0176   25.5815 C   0  0  0  0  0  0  0  0  0  0  0  0
  -27.5846  -32.3702   24.9546 C   0  0  0  0  0  0  0  0  0  0  0  0
  -27.3689  -29.3298   20.9106 C   0  0  0  0  0  0  0  0  0  0  0  0
  -22.5550   -9.4121   22.0074 C   0  0  0  0  0  0  0  0  0  0  0  0
  -23.8986   -7.4115   21.8344 C   0  0  0  0  0  0  0  0  0  0  0  0
  -27.6880  -27.9867   21.1060 C   0  0  0  0  0  0  0  0  0  0  0  0
  -21.2804   -4.8897   21.7729 C   0  0  0  0  0  0  0  0  0  0  0  0
  -21.1853   -3.7072   22.5065 C   0  0  0  0  0  0  0  0  0  0  0  0
  -25.3383  -27.4451   21.1772 C   0  0  0  0  0  0  0  0  0  0  0  0
  -21.3805   -4.9653   24.5598 C   0  0  0  0  0  0  0  0  0  0  0  0
  -29.2764  -23.1513   19.2715 C   0  0  0  0  0  0  0  0  0  0  0  0
  -28.9348  -23.0249   20.6215 C   0  0  0  0  0  0  0  0  0  0  0  0
  -24.9628   -9.5585   22.1425 C   0  0  0  0  0  0  0  0  0  0  0  0
  -26.8101  -10.6809   23.4971 C   0  0  0  0  0  0  0  0  0  0  0  0
  -26.8549  -34.6659   25.2460 C   0  0  0  0  0  0  0  0  0  0  0  0
  -26.0299  -29.7429   20.8578 C   0  0  0  0  0  0  0  0  0  0  0  0
  -26.5539  -33.3253   24.9387 C   0  0  0  0  0  0  0  0  0  0  0  0
  -25.0049  -28.7936   20.9784 C   0  0  0  0  0  0  0  0  0  0  0  0
  -29.3117  -20.6151   20.4781 C   0  0  0  0  0  0  0  0  0  0  0  0
  -28.5359  -23.9365   21.6376 C   0  0  0  0  0  0  0  0  0  0  0  0
  -28.9601  -21.7537   21.1971 C   0  0  0  0  0  0  0  0  0  0  0  0
  -22.6481   -8.0296   21.8470 C   0  0  0  0  0  0  0  0  0  0  0  0
  -26.6726  -27.0446   21.2422 C   0  0  0  0  0  0  0  0  0  0  0  0
  -21.4256   -6.1101   22.4328 C   0  0  0  0  0  0  0  0  0  0  0  0
  -21.2353   -3.7450   23.8999 C   0  0  0  0  0  0  0  0  0  0  0  0
  -21.4756   -6.1479   23.8262 C   0  0  0  0  0  0  0  0  0  0  0  0
  -26.1587  -10.3477   22.2945 C   0  0  0  0  0  0  0  0  0  0  0  0
  -29.6324  -20.8503   19.1502 C   0  0  0  0  0  0  0  0  0  0  0  0
  -28.3303  -23.2137   22.7904 C   0  0  0  0  0  0  0  0  0  0  0  0
  -27.8876  -11.4374   23.1058 C   0  0  0  0  0  0  0  0  0  0  0  0
  -26.4716  -10.3373   24.8473 C   0  0  0  0  0  0  0  0  0  0  0  0
  -24.2136  -31.6917   22.5919 C   0  0  0  0  0  0  0  0  0  0  0  0
  -22.0308  -31.0913   20.2687 C   0  0  0  0  0  0  0  0  0  0  0  0
  -20.9170  -29.0037   17.8094 C   0  0  0  0  0  0  0  0  0  0  0  0
  -30.2405  -15.3374   20.0602 C   0  0  0  0  0  0  0  0  0  0  0  0
  -25.7857  -35.7286   25.2918 C   0  0  0  0  0  0  0  0  0  0  0  0
  -25.7024  -31.1915   20.6197 C   0  0  0  0  0  0  0  0  0  0  0  0
  -23.5516  -29.1827   20.9088 C   0  0  0  0  0  0  0  0  0  0  0  0
  -24.5002  -35.3307   24.5710 C   0  0  0  0  0  0  0  0  0  0  0  0
  -29.8539  -12.2635   18.5272 C   0  0  0  0  0  0  0  0  0  0  0  0
  -24.0849  -33.9160   24.9621 C   0  0  0  0  0  0  0  0  0  0  0  0
  -28.9120  -11.5065   19.4633 C   0  0  0  0  0  0  0  0  0  0  0  0
  -27.2231  -19.9928   23.5942 C   0  0  0  0  0  0  0  0  0  0  0  0
  -27.5771  -20.9471   24.6914 C   0  0  0  0  0  0  0  0  0  0  0  0
  -28.3456  -18.2746   20.3759 C   0  0  0  0  0  0  0  0  0  0  0  0
  -30.7702  -18.6147   21.0203 C   0  0  0  0  0  0  0  0  0  0  0  0
  -29.4212  -13.7173   18.3765 C   0  0  0  0  0  0  0  0  0  0  0  0
  -28.4158  -16.8555   20.9471 C   0  0  0  0  0  0  0  0  0  0  0  0
  -30.7757  -17.2023   21.5978 C   0  0  0  0  0  0  0  0  0  0  0  0
  -28.3791  -13.7087   20.6198 C   0  0  0  0  0  0  0  0  0  0  0  0
  -29.3533  -19.2152   21.0611 C   0  0  0  0  0  0  0  0  0  0  0  0
  -25.1544  -32.8949   24.5560 C   0  0  1  0  0  0  0  0  0  0  0  0
  -24.3047  -31.5743   21.0967 C   0  0  1  0  0  0  0  0  0  0  0  0
  -28.4806  -20.8234   23.4870 C   0  0  0  0  0  0  0  0  0  0  0  0
  -28.7751  -12.2309   20.8143 C   0  0  1  0  0  0  0  0  0  0  0  0
  -30.0278  -19.7074   18.2703 C   0  0  0  0  0  0  0  0  0  0  0  0
  -27.9079  -23.6680   24.1330 C   0  0  0  0  0  0  0  0  0  0  0  0
  -19.0874  -28.7629   16.1088 C   0  0  0  0  0  0  0  0  0  0  0  0
  -20.0875  -30.2825   22.4776 C   0  0  0  0  0  0  0  0  0  0  0  0
  -18.6721  -29.1785   20.7323 C   0  0  0  0  0  0  0  0  0  0  0  0
  -19.0709  -31.6392   20.6390 C   0  0  0  0  0  0  0  0  0  0  0  0
  -22.8442  -29.0178   15.5633 C   0  0  0  0  0  0  0  0  0  0  0  0
  -28.3705  -25.3970   21.4842 C   0  0  0  0  0  0  0  0  0  1  0  0
  -20.9535  -30.0555   20.0559 C   0  0  1  0  0  0  0  0  0  0  0  0
  -20.4958  -29.2708   16.3756 C   0  0  2  0  0  0  0  0  0  0  0  0
  -19.7233  -30.2816   20.9795 C   0  0  0  0  0  0  0  0  0  0  0  0
  -29.6232  -22.0609   18.5460 N   0  0  0  0  0  0  0  0  0  0  0  0
  -26.7711  -10.8513   21.2196 N   0  0  0  0  0  0  0  0  0  0  0  0
  -28.5889  -21.8976   22.5146 N   0  0  0  0  0  0  0  0  0  0  0  0
  -27.8186  -11.5088   21.7455 N   0  0  0  0  0  0  0  0  0  0  0  0
  -23.2823  -30.6120   20.6809 N   0  0  0  0  0  0  0  0  0  0  0  0
  -29.2992  -14.3688   19.6805 N   0  0  0  0  0  0  0  0  0  0  0  0
  -29.7964  -16.3528   20.9204 N   0  0  0  0  0  0  0  0  0  0  0  0
  -28.8779  -12.0419   23.7960 N   0  0  0  0  0  0  0  0  0  0  0  0
  -25.3317   -9.5533   25.0715 N   0  0  0  0  0  0  0  0  0  0  0  0
  -25.0789  -32.6211   23.1370 N   0  0  0  0  0  0  0  0  0  0  0  0
  -20.6425  -30.0767   18.6307 N   0  0  0  0  0  0  0  0  0  0  0  0
  -21.4265  -28.5951   15.4279 N   0  3  0  0  0  0  0  0  0  0  0  0
  -27.1503  -10.7281   25.8272 O   0  0  0  0  0  0  0  0  0  0  0  0
  -23.4163  -30.9921   23.2054 O   0  0  0  0  0  0  0  0  0  0  0  0
  -21.7736  -32.2812   20.0693 O   0  0  0  0  0  0  0  0  0  0  0  0
  -21.4342  -27.9473   18.1659 O   0  0  0  0  0  0  0  0  0  0  0  0
  -31.4092  -15.2975   19.6556 O   0  0  0  0  0  0  0  0  0  0  0  0
  -21.5190   -7.2833   21.7031 O   0  0  0  0  0  0  0  0  0  0  0  0
  -26.9830  -25.7261   21.4347 O   0  0  0  0  0  0  0  0  0  1  0  0
  -21.1425   -2.6094   24.6043 F   0  0  0  0  0  0  0  0  0  0  0  0
  -21.6137   -7.3173   24.4658 F   0  0  0  0  0  0  0  0  0  0  0  0
  1  2  1  0  0  0  0
  1  5  2  0  0  0  0
  2  6  2  0  0  0  0
  3  8  2  0  0  0  0
  3 17  1  0  0  0  0
  4  9  1  0  0  0  0
  4 17  2  0  0  0  0
  5 19  1  0  0  0  0
  6 21  1  0  0  0  0
  7 10  2  0  0  0  0
  7 20  1  0  0  0  0
  8 26  1  0  0  0  0
  9 26  2  0  0  0  0
 10 27  1  0  0  0  0
 11 12  2  0  0  0  0
 11 28  1  0  0  0  0
 12 29  1  0  0  0  0
 13 22  1  0  0  0  0
 13 27  2  0  0  0  0
 14 29  2  0  0  0  0
 14 30  1  0  0  0  0
 15 16  1  0  0  0  0
 15 71  2  0  0  0  0
 16 24  1  0  0  0  0
 16 25  2  0  0  0  0
 17 31  1  0  0  0  0
 18 31  1  0  0  0  0
 18 34  2  0  0  0  0
 18 35  1  0  0  0  0
 19 21  2  0  0  0  0
 19 40  1  0  0  0  0
 20 22  2  0  0  0  0
 20 41  1  0  0  0  0
 21 56  1  0  0  0  0
 22 42  1  0  0  0  0
 23 25  1  0  0  0  0
 23 32  2  0  0  0  0
 23 55  1  0  0  0  0
 24 33  2  0  0  0  0
 24 67  1  0  0  0  0
 25 73  1  0  0  0  0
 26 88  1  0  0  0  0
 27 89  1  0  0  0  0
 28 30  2  0  0  0  0
 28 88  1  0  0  0  0
 29 90  1  0  0  0  0
 30 91  1  0  0  0  0
 31 72  2  0  0  0  0
 32 60  1  0  0  0  0
 32 71  1  0  0  0  0
 33 61  1  0  0  0  0
 33 73  1  0  0  0  0
 34 74  1  0  0  0  0
 34 78  1  0  0  0  0
 35 79  1  0  0  0  0
 35 83  2  0  0  0  0
 36 57  1  0  0  0  0
 36 80  1  0  0  0  0
 36 84  2  0  0  0  0
 37 68  1  0  0  0  0
 37 75  1  0  0  0  0
 37 85  2  0  0  0  0
 38 69  1  0  0  0  0
 38 81  1  0  0  0  0
 38 86  2  0  0  0  0
 39 76  1  0  0  0  0
 39 77  1  0  0  0  0
 39 87  2  0  0  0  0
 40 43  1  0  0  0  0
 41 57  1  0  0  0  0
 42 75  1  0  0  0  0
 43 45  1  0  0  0  0
 44 46  1  0  0  0  0
 44 51  1  0  0  0  0
 45 56  1  0  0  0  0
 46 59  1  0  0  0  0
 47 48  1  0  0  0  0
 47 58  1  0  0  0  0
 48 58  1  0  0  0  0
 49 52  1  0  0  0  0
 49 55  1  0  0  0  0
 50 53  1  0  0  0  0
 50 55  1  0  0  0  0
 51 76  1  0  0  0  0
 52 77  1  0  0  0  0
 53 77  1  0  0  0  0
 54 59  1  0  0  0  0
 54 76  1  0  0  0  0
 56 80  1  0  0  0  0
 57 75  1  0  0  0  0
 58 73  1  0  0  0  0
 59 74  1  0  0  0  0
 62 69  1  0  0  0  0
 63 70  1  0  0  0  0
 64 70  1  0  0  0  0
 65 70  1  0  0  0  0
 66 82  1  0  0  0  0
 67 89  1  0  0  0  0
 68 70  1  0  0  0  0
 68 81  1  0  0  0  0
 69 82  1  0  0  0  0
 72 74  1  0  0  0  0
M  CHG  1  82   1
M  ISO  4  39 100  67 101  77 100  89 101
M  END
> <Batch ID>
0170

> <Smiles>
CNC(C)C(=O)NC(C(=O)N1Cc2cc([101O:1][101CH2:1]c3c(C)n(C4CC4)c4c(C5CC[100N:0]([100C:0](=O)N6CCCC(n7nc(-c8ccc(Oc9ccc(F)cc9F)cc8)c(C(N)=O)c7N)C6)CC5)c(C)ncc34)ccc2CC1C(=O)NC1CCCc2ccccc21)C(C)(C)C

> <Shape>
0.322

> <Color>
0.104

> <Negative vol penalty>
0.000

$$$$

  -OEChem-04052322353D

 90101  0     1  0  0  0  0  0999 V2000
  -27.4293  -36.4557   20.9807 C   0  0  0  0  0  0  0  0  0  0  0  0
  -27.8213  -35.1246   21.0812 C   0  0  0  0  0  0  0  0  0  0  0  0
  -23.6769   -9.9871   22.0907 C   0  0  0  0  0  0  0  0  0  0  0  0
  -25.0518   -8.0011   22.0441 C   0  0  0  0  0  0  0  0  0  0  0  0
  -26.2142  -36.8665   21.5272 C   0  0  0  0  0  0  0  0  0  0  0  0
  -26.9988  -34.2038   21.7292 C   0  0  0  0  0  0  0  0  0  0  0  0
  -29.5668  -21.8311   18.3213 C   0  0  0  0  0  0  0  0  0  0  0  0
  -29.5890  -20.5752   18.9278 C   0  0  0  0  0  0  0  0  0  0  0  0
  -26.5558  -29.8565   19.1698 C   0  0  0  0  0  0  0  0  0  0  0  0
  -22.5364   -9.2014   21.9246 C   0  0  0  0  0  0  0  0  0  0  0  0
  -23.9113   -7.2154   21.8781 C   0  0  0  0  0  0  0  0  0  0  0  0
  -27.6175  -28.9569   19.2544 C   0  0  0  0  0  0  0  0  0  0  0  0
  -21.3303   -4.6559   21.8033 C   0  0  0  0  0  0  0  0  0  0  0  0
  -21.2208   -3.4990   22.5749 C   0  0  0  0  0  0  0  0  0  0  0  0
  -28.7769  -22.8127   20.3827 C   0  0  0  0  0  0  0  0  0  0  0  0
  -26.3987  -27.6826   20.9006 C   0  0  0  0  0  0  0  0  0  0  0  0
  -21.3166   -4.8322   24.5875 C   0  0  0  0  0  0  0  0  0  0  0  0
  -24.9346   -9.3869   22.1505 C   0  0  0  0  0  0  0  0  0  0  0  0
  -26.7111  -10.5832   23.5363 C   0  0  0  0  0  0  0  0  0  0  0  0
  -29.1607  -22.9499   19.0488 C   0  0  0  0  0  0  0  0  0  0  0  0
  -25.3719  -35.9482   22.1738 C   0  0  0  0  0  0  0  0  0  0  0  0
  -25.4102  -29.6818   19.9594 C   0  0  0  0  0  0  0  0  0  0  0  0
  -25.7719  -34.6029   22.2860 C   0  0  0  0  0  0  0  0  0  0  0  0
  -29.2052  -20.4381   20.2618 C   0  0  0  0  0  0  0  0  0  0  0  0
  -25.3228  -28.5801   20.8224 C   0  0  0  0  0  0  0  0  0  0  0  0
  -28.7991  -21.5568   20.9893 C   0  0  0  0  0  0  0  0  0  0  0  0
  -22.6536   -7.8156   21.8183 C   0  0  0  0  0  0  0  0  0  0  0  0
  -27.5403  -27.8713   20.1220 C   0  0  0  0  0  0  0  0  0  0  0  0
  -21.4330   -5.9009   22.4238 C   0  0  0  0  0  0  0  0  0  0  0  0
  -21.2139   -3.5872   23.9669 C   0  0  0  0  0  0  0  0  0  0  0  0
  -21.4261   -5.9891   23.8159 C   0  0  0  0  0  0  0  0  0  0  0  0
  -26.1132  -10.1980   22.3215 C   0  0  0  0  0  0  0  0  0  0  0  0
  -27.7937  -11.3406   23.1612 C   0  0  0  0  0  0  0  0  0  0  0  0
  -26.3226  -10.2832   24.8835 C   0  0  0  0  0  0  0  0  0  0  0  0
  -23.9728  -31.3760   22.2326 C   0  0  0  0  0  0  0  0  0  0  0  0
  -21.7104  -29.0650   21.9814 C   0  0  0  0  0  0  0  0  0  0  0  0
  -20.9233  -25.8654   21.0925 C   0  0  0  0  0  0  0  0  0  0  0  0
  -30.2178  -15.1625   20.0729 C   0  0  0  0  0  0  0  0  0  0  0  0
  -24.0897  -36.4487   22.7903 C   0  0  0  0  0  0  0  0  0  0  0  0
  -24.2625  -30.6463   19.8368 C   0  0  0  0  0  0  0  0  0  0  0  0
  -24.1065  -28.3363   21.6766 C   0  0  0  0  0  0  0  0  0  0  0  0
  -23.1032  -35.3352   23.1325 C   0  0  0  0  0  0  0  0  0  0  0  0
  -29.9329  -12.0307   18.6380 C   0  0  0  0  0  0  0  0  0  0  0  0
  -23.8151  -34.1934   23.8510 C   0  0  0  0  0  0  0  0  0  0  0  0
  -28.9637  -11.2943   19.5625 C   0  0  0  0  0  0  0  0  0  0  0  0
  -29.3080  -22.2662   24.5890 C   0  0  0  0  0  0  0  0  0  0  0  0
  -29.9188  -23.1259   23.5220 C   0  0  0  0  0  0  0  0  0  0  0  0
  -28.2742  -18.0818   20.2059 C   0  0  0  0  0  0  0  0  0  0  0  0
  -30.6661  -18.4793   20.9340 C   0  0  0  0  0  0  0  0  0  0  0  0
  -30.3911  -24.8072   17.7367 C   0  0  0  0  0  0  0  0  0  0  0  0
  -29.4881  -13.4718   18.4176 C   0  0  0  0  0  0  0  0  0  0  0  0
  -28.3393  -16.6851   20.8305 C   0  0  0  0  0  0  0  0  0  0  0  0
  -30.6663  -17.0886   21.5620 C   0  0  0  0  0  0  0  0  0  0  0  0
  -28.3563  -13.5284   20.6162 C   0  0  0  0  0  0  0  0  0  0  0  0
  -29.1369  -24.2912   18.4002 C   0  0  2  0  0  0  0  0  0  0  0  0
  -29.2411  -19.0605   20.8963 C   0  0  0  0  0  0  0  0  0  0  0  0
  -24.8956  -33.5693   22.9597 C   0  0  1  0  0  0  0  0  0  0  0  0
  -23.3577  -30.6575   21.0651 C   0  0  1  0  0  0  0  0  0  0  0  0
  -29.9249  -25.4195   19.0239 C   0  0  2  0  0  0  0  0  0  0  0  0
  -28.7630  -12.0643   20.8798 C   0  0  1  0  0  0  0  0  0  0  0  0
  -28.5774  -22.4870   23.2939 C   0  0  0  0  0  0  0  0  0  0  0  0
  -19.0021  -24.2519   21.0384 C   0  0  0  0  0  0  0  0  0  0  0  0
  -21.9708  -28.6576   24.9941 C   0  0  0  0  0  0  0  0  0  0  0  0
  -20.7862  -26.4678   24.7301 C   0  0  0  0  0  0  0  0  0  0  0  0
  -19.6243  -28.5925   24.1316 C   0  0  0  0  0  0  0  0  0  0  0  0
  -21.0794  -25.5985   18.1491 C   0  0  0  0  0  0  0  0  0  0  0  0
  -29.3650  -26.8003   19.0360 C   0  0  0  0  0  0  0  0  0  1  0  0
  -21.4715  -27.7268   22.6382 C   0  0  1  0  0  0  0  0  0  0  0  0
  -19.7833  -25.3018   20.2636 C   0  0  2  0  0  0  0  0  0  0  0  0
  -20.9870  -27.8666   24.1089 C   0  0  0  0  0  0  0  0  0  0  0  0
  -26.7621  -10.6717   21.2544 N   0  0  0  0  0  0  0  0  0  0  0  0
  -27.7789  -11.3624   21.7976 N   0  0  0  0  0  0  0  0  0  0  0  0
  -23.0133  -29.3109   21.5257 N   0  0  0  0  0  0  0  0  0  0  0  0
  -29.3050  -14.1677   19.6912 N   0  0  0  0  0  0  0  0  0  0  0  0
  -29.7262  -16.2016   20.8773 N   0  0  0  0  0  0  0  0  0  0  0  0
  -28.7474  -11.9834   23.8681 N   0  0  0  0  0  0  0  0  0  0  0  0
  -25.1847   -9.4915   25.0901 N   0  0  0  0  0  0  0  0  0  0  0  0
  -28.4059  -21.4364   22.3402 N   0  0  0  0  0  0  0  0  0  0  0  0
  -24.2955  -32.6947   21.9751 N   0  0  0  0  0  0  0  0  0  0  0  0
  -20.5467  -27.0056   21.7704 N   0  0  0  0  0  0  0  0  0  0  0  0
  -20.3094  -24.6727   19.0192 N   0  3  0  0  0  0  0  0  0  0  0  0
  -26.9560  -10.7184   25.8749 O   0  0  0  0  0  0  0  0  0  0  0  0
  -24.1407  -30.7786   23.2893 O   0  0  0  0  0  0  0  0  0  0  0  0
  -20.7736  -29.8599   21.8703 O   0  0  0  0  0  0  0  0  0  0  0  0
  -22.0355  -25.3442   21.1373 O   0  0  0  0  0  0  0  0  0  0  0  0
  -31.4023  -15.1249   19.7170 O   0  0  0  0  0  0  0  0  0  0  0  0
  -21.5409   -7.0486   21.6564 O   0  0  0  0  0  0  0  0  0  0  0  0
  -28.5831  -26.9855   20.2076 O   0  0  0  0  0  0  0  0  0  1  0  0
  -21.1072   -2.4763   24.7077 F   0  0  0  0  0  0  0  0  0  0  0  0
  -21.5233   -7.1825   24.4177 F   0  0  0  0  0  0  0  0  0  0  0  0
  1  2  1  0  0  0  0
  1  5  2  0  0  0  0
  2  6  2  0  0  0  0
  3 10  2  0  0  0  0
  3 18  1  0  0  0  0
  4 11  1  0  0  0  0
  4 18  2  0  0  0  0
  5 21  1  0  0  0  0
  6 23  1  0  0  0  0
  7  8  2  0  0  0  0
  7 20  1  0  0  0  0
  8 24  1  0  0  0  0
  9 12  2  0  0  0  0
  9 22  1  0  0  0  0
 10 27  1  0  0  0  0
 11 27  2  0  0  0  0
 12 28  1  0  0  0  0
 13 14  2  0  0  0  0
 13 29  1  0  0  0  0
 14 30  1  0  0  0  0
 15 20  2  0  0  0  0
 15 26  1  0  0  0  0
 16 25  1  0  0  0  0
 16 28  2  0  0  0  0
 17 30  2  0  0  0  0
 17 31  1  0  0  0  0
 18 32  1  0  0  0  0
 19 32  1  0  0  0  0
 19 33  2  0  0  0  0
 19 34  1  0  0  0  0
 20 55  1  0  0  0  0
 21 23  2  0  0  0  0
 21 39  1  0  0  0  0
 22 25  2  0  0  0  0
 22 40  1  0  0  0  0
 23 57  1  0  0  0  0
 24 26  2  0  0  0  0
 24 56  1  0  0  0  0
 25 41  1  0  0  0  0
 26 78  1  0  0  0  0
 27 87  1  0  0  0  0
 28 88  1  0  0  0  0
 29 31  2  0  0  0  0
 29 87  1  0  0  0  0
 30 89  1  0  0  0  0
 31 90  1  0  0  0  0
 32 71  2  0  0  0  0
 33 72  1  0  0  0  0
 33 76  1  0  0  0  0
 34 77  1  0  0  0  0
 34 82  2  0  0  0  0
 35 58  1  0  0  0  0
 35 79  1  0  0  0  0
 35 83  2  0  0  0  0
 36 68  1  0  0  0  0
 36 73  1  0  0  0  0
 36 84  2  0  0  0  0
 37 69  1  0  0  0  0
 37 80  1  0  0  0  0
 37 85  2  0  0  0  0
 38 74  1  0  0  0  0
 38 75  1  0  0  0  0
 38 86  2  0  0  0  0
 39 42  1  0  0  0  0
 40 58  1  0  0  0  0
 41 73  1  0  0  0  0
 42 44  1  0  0  0  0
 43 45  1  0  0  0  0
 43 51  1  0  0  0  0
 44 57  1  0  0  0  0
 45 60  1  0  0  0  0
 46 47  1  0  0  0  0
 46 61  1  0  0  0  0
 47 61  1  0  0  0  0
 48 52  1  0  0  0  0
 48 56  1  0  0  0  0
 49 53  1  0  0  0  0
 49 56  1  0  0  0  0
 50 55  1  0  0  0  0
 50 59  1  0  0  0  0
 51 74  1  0  0  0  0
 52 75  1  0  0  0  0
 53 75  1  0  0  0  0
 54 60  1  0  0  0  0
 54 74  1  0  0  0  0
 55 59  1  0  0  0  0
 57 79  1  0  0  0  0
 58 73  1  0  0  0  0
 59 67  1  0  0  0  0
 60 72  1  0  0  0  0
 61 78  1  0  0  0  0
 62 69  1  0  0  0  0
 63 70  1  0  0  0  0
 64 70  1  0  0  0  0
 65 70  1  0  0  0  0
 66 81  1  0  0  0  0
 67 88  1  0  0  0  0
 68 70  1  0  0  0  0
 68 80  1  0  0  0  0
 69 81  1  0  0  0  0
 71 72  1  0  0  0  0
M  CHG  1  81   1
M  ISO  4  38 100  67 101  75 100  88 101
M  END
> <Batch ID>
0170

> <Smiles>
CNC(C)C(=O)NC(C(=O)N1Cc2cc([101O:1][101CH2:1]C3CC3c3ccc(C4CC[100N:0]([100C:0](=O)N5CCCC(n6nc(-c7ccc(Oc8ccc(F)cc8F)cc7)c(C(N)=O)c6N)C5)CC4)c(NC4CC4)c3)ccc2CC1C(=O)NC1CCCc2ccccc21)C(C)(C)C

> <Shape>
0.370

> <Color>
0.115

> <Negative vol penalty>
0.000

$$$$

  -OEChem-04052322353D

 83 92  0     1  0  0  0  0  0999 V2000
  -17.0548  -26.9236   22.5532 C   0  0  0  0  0  0  0  0  0  0  0  0
  -18.1941  -26.3536   21.9941 C   0  0  0  0  0  0  0  0  0  0  0  0
  -27.7810  -15.2805   19.1790 C   0  0  0  0  0  0  0  0  0  0  0  0
  -27.8274  -15.4990   21.5847 C   0  0  0  0  0  0  0  0  0  0  0  0
  -16.9806  -28.3052   22.7252 C   0  0  0  0  0  0  0  0  0  0  0  0
  -19.2595  -27.1650   21.6057 C   0  0  0  0  0  0  0  0  0  0  0  0
  -25.2221  -25.7956   21.8833 C   0  0  0  0  0  0  0  0  0  0  0  0
  -27.1999  -14.0187   19.3048 C   0  0  0  0  0  0  0  0  0  0  0  0
  -27.2463  -14.2372   21.7105 C   0  0  0  0  0  0  0  0  0  0  0  0
  -26.1240  -25.3337   20.9257 C   0  0  0  0  0  0  0  0  0  0  0  0
  -28.2082  -10.8728   20.0195 C   0  0  0  0  0  0  0  0  0  0  0  0
  -28.7165   -9.8441   19.2265 C   0  0  0  0  0  0  0  0  0  0  0  0
  -26.8490  -27.5992   20.5244 C   0  0  0  0  0  0  0  0  0  0  0  0
  -26.5452   -9.5577   18.2063 C   0  0  0  0  0  0  0  0  0  0  0  0
  -28.0947  -16.0207   20.3190 C   0  0  0  0  0  0  0  0  0  0  0  0
  -28.0302  -18.5606   20.0904 C   0  0  0  0  0  0  0  0  0  0  0  0
  -18.0495  -29.1331   22.3476 C   0  0  0  0  0  0  0  0  0  0  0  0
  -25.1191  -27.1662   22.1613 C   0  0  0  0  0  0  0  0  0  0  0  0
  -19.1990  -28.5591   21.7716 C   0  0  0  0  0  0  0  0  0  0  0  0
  -25.9469  -28.0757   21.4879 C   0  0  0  0  0  0  0  0  0  0  0  0
  -30.8748  -23.4759   16.2515 C   0  0  0  0  0  0  0  0  0  0  0  0
  -29.6749  -24.0341   15.8050 C   0  0  0  0  0  0  0  0  0  0  0  0
  -28.6699  -24.3431   16.7136 C   0  0  0  0  0  0  0  0  0  0  0  0
  -26.9326  -13.4971   20.5705 C   0  0  0  0  0  0  0  0  0  0  0  0
  -26.9356  -26.2358   20.2440 C   0  0  0  0  0  0  0  0  0  0  0  0
  -26.8683  -11.2439   19.9061 C   0  0  0  0  0  0  0  0  0  0  0  0
  -27.8850   -9.1865   18.3199 C   0  0  0  0  0  0  0  0  0  0  0  0
  -26.0369  -10.5864   18.9995 C   0  0  0  0  0  0  0  0  0  0  0  0
  -28.6955  -17.3239   20.1897 C   0  0  0  0  0  0  0  0  0  0  0  0
  -31.0070  -23.2303   17.6221 C   0  0  0  0  0  0  0  0  0  0  0  0
  -28.9008  -24.0734   18.0506 C   0  0  0  0  0  0  0  0  0  0  0  0
  -29.0397  -19.4863   19.9877 C   0  0  0  0  0  0  0  0  0  0  0  0
  -26.6253  -18.8470   20.0911 C   0  0  0  0  0  0  0  0  0  0  0  0
  -22.8082  -29.3358   21.9230 C   0  0  0  0  0  0  0  0  0  0  0  0
  -24.9763  -31.2390   23.4061 C   0  0  0  0  0  0  0  0  0  0  0  0
  -28.2491  -31.8946   24.1173 C   0  0  0  0  0  0  0  0  0  0  0  0
  -33.8755  -20.8505   17.3948 C   0  0  0  0  0  0  0  0  0  0  0  0
  -17.9041  -30.6255   22.5095 C   0  0  0  0  0  0  0  0  0  0  0  0
  -24.1601  -27.6458   23.2162 C   0  0  0  0  0  0  0  0  0  0  0  0
  -31.9484  -23.0886   15.2690 C   0  0  0  0  0  0  0  0  0  0  0  0
  -25.8893  -29.5552   21.7640 C   0  0  0  0  0  0  0  0  0  0  0  0
  -32.2845  -22.6581   18.1710 C   0  0  0  0  0  0  0  0  0  0  0  0
  -19.2279  -31.3800   22.4170 C   0  0  0  0  0  0  0  0  0  0  0  0
  -34.0322  -19.0612   20.6375 C   0  0  0  0  0  0  0  0  0  0  0  0
  -20.0387  -30.8910   21.2210 C   0  0  0  0  0  0  0  0  0  0  0  0
  -32.6223  -18.4835   20.7605 C   0  0  0  0  0  0  0  0  0  0  0  0
  -33.2881  -22.7623   15.9305 C   0  0  0  0  0  0  0  0  0  0  0  0
  -34.4492  -19.2402   19.1802 C   0  0  0  0  0  0  0  0  0  0  0  0
  -32.0821  -19.4596   18.4975 C   0  0  0  0  0  0  0  0  0  0  0  0
  -20.3855  -29.4038   21.3606 C   0  0  1  0  0  0  0  0  0  0  0  0
  -23.7752  -29.1128   23.0513 C   0  0  1  0  0  0  0  0  0  0  0  0
  -31.6158  -19.3223   19.9536 C   0  0  1  0  0  0  0  0  0  0  0  0
  -29.4518  -24.2975   14.3484 C   0  0  0  0  0  0  0  0  0  0  0  0
  -27.3808  -24.9441   16.2619 C   0  0  0  0  0  0  0  0  0  0  0  0
  -29.7121  -33.5411   25.3198 C   0  0  0  0  0  0  0  0  0  0  0  0
  -24.5862  -33.2400   21.1359 C   0  0  0  0  0  0  0  0  0  0  0  0
  -26.6998  -34.3691   21.8613 C   0  0  0  0  0  0  0  0  0  0  0  0
  -24.7488  -34.2633   23.4121 C   0  0  0  0  0  0  0  0  0  0  0  0
  -29.2929  -29.8109   25.9416 C   0  0  0  0  0  0  0  0  0  0  0  0
  -27.8576  -24.3817   19.0743 C   0  0  0  0  0  0  0  0  0  1  0  0
  -26.0780  -32.1635   22.9475 C   0  0  1  0  0  0  0  0  0  0  0  0
  -28.9488  -32.2297   25.4222 C   0  0  2  0  0  0  0  0  0  0  0  0
  -25.5281  -33.4814   22.3324 C   0  0  0  0  0  0  0  0  0  0  0  0
  -30.0248  -17.4491   20.1532 N   0  0  0  0  0  0  0  0  0  0  0  0
  -30.0420  -23.5290   18.5265 N   0  0  0  0  0  0  0  0  0  0  0  0
  -30.2029  -18.7755   20.0297 N   0  0  0  0  0  0  0  0  0  0  0  0
  -24.9312  -29.9757   22.7998 N   0  0  0  0  0  0  0  0  0  0  0  0
  -33.0772  -21.9749   17.1425 N   0  0  0  0  0  0  0  0  0  0  0  0
  -33.4496  -19.9950   18.4249 N   0  0  0  0  0  0  0  0  0  0  0  0
  -29.0369  -20.8308   19.8664 N   0  0  0  0  0  0  0  0  0  0  0  0
  -25.7257  -17.7784   20.2047 N   0  0  0  0  0  0  0  0  0  0  0  0
  -21.4805  -29.2252   22.2898 N   0  0  0  0  0  0  0  0  0  0  0  0
  -26.9515  -32.3606   24.0992 N   0  0  0  0  0  0  0  0  0  0  0  0
  -29.9122  -31.1522   25.7849 N   0  3  0  0  0  0  0  0  0  0  0  0
  -26.1807  -20.0144   19.9772 O   0  0  0  0  0  0  0  0  0  0  0  0
  -23.2351  -29.5908   20.8030 O   0  0  0  0  0  0  0  0  0  0  0  0
  -24.1891  -31.6210   24.2757 O   0  0  0  0  0  0  0  0  0  0  0  0
  -28.7998  -31.2839   23.2039 O   0  0  0  0  0  0  0  0  0  0  0  0
  -34.9000  -20.6202   16.7411 O   0  0  0  0  0  0  0  0  0  0  0  0
  -26.3654  -12.2659   20.6936 O   0  0  0  0  0  0  0  0  0  0  0  0
  -27.8226  -25.7845   19.3017 O   0  0  0  0  0  0  0  0  0  1  0  0
  -28.3737   -8.1997   17.5572 F   0  0  0  0  0  0  0  0  0  0  0  0
  -24.7492  -10.9393   18.8852 F   0  0  0  0  0  0  0  0  0  0  0  0
  1  2  1  0  0  0  0
  1  5  2  0  0  0  0
  2  6  2  0  0  0  0
  3  8  2  0  0  0  0
  3 15  1  0  0  0  0
  4  9  1  0  0  0  0
  4 15  2  0  0  0  0
  5 17  1  0  0  0  0
  6 19  1  0  0  0  0
  7 10  2  0  0  0  0
  7 18  1  0  0  0  0
  8 24  1  0  0  0  0
  9 24  2  0  0  0  0
 10 25  1  0  0  0  0
 11 12  2  0  0  0  0
 11 26  1  0  0  0  0
 12 27  1  0  0  0  0
 13 20  1  0  0  0  0
 13 25  2  0  0  0  0
 14 27  2  0  0  0  0
 14 28  1  0  0  0  0
 15 29  1  0  0  0  0
 16 29  1  0  0  0  0
 16 32  2  0  0  0  0
 16 33  1  0  0  0  0
 17 19  2  0  0  0  0
 17 38  1  0  0  0  0
 18 20  2  0  0  0  0
 18 39  1  0  0  0  0
 19 50  1  0  0  0  0
 20 41  1  0  0  0  0
 21 22  2  0  0  0  0
 21 30  1  0  0  0  0
 21 40  1  0  0  0  0
 22 23  1  0  0  0  0
 22 53  1  0  0  0  0
 23 31  2  0  0  0  0
 23 54  1  0  0  0  0
 24 80  1  0  0  0  0
 25 81  1  0  0  0  0
 26 28  2  0  0  0  0
 26 80  1  0  0  0  0
 27 82  1  0  0  0  0
 28 83  1  0  0  0  0
 29 64  2  0  0  0  0
 30 42  1  0  0  0  0
 30 65  2  0  0  0  0
 31 60  1  0  0  0  0
 31 65  1  0  0  0  0
 32 66  1  0  0  0  0
 32 70  1  0  0  0  0
 33 71  1  0  0  0  0
 33 75  2  0  0  0  0
 34 51  1  0  0  0  0
 34 72  1  0  0  0  0
 34 76  2  0  0  0  0
 35 61  1  0  0  0  0
 35 67  1  0  0  0  0
 35 77  2  0  0  0  0
 36 62  1  0  0  0  0
 36 73  1  0  0  0  0
 36 78  2  0  0  0  0
 37 68  1  0  0  0  0
 37 69  1  0  0  0  0
 37 79  2  0  0  0  0
 38 43  1  0  0  0  0
 39 51  1  0  0  0  0
 40 47  1  0  0  0  0
 41 67  1  0  0  0  0
 42 68  1  0  0  0  0
 43 45  1  0  0  0  0
 44 46  1  0  0  0  0
 44 48  1  0  0  0  0
 45 50  1  0  0  0  0
 46 52  1  0  0  0  0
 47 68  1  0  0  0  0
 48 69  1  0  0  0  0
 49 52  1  0  0  0  0
 49 69  1  0  0  0  0
 50 72  1  0  0  0  0
 51 67  1  0  0  0  0
 52 66  1  0  0  0  0
 55 62  1  0  0  0  0
 56 63  1  0  0  0  0
 57 63  1  0  0  0  0
 58 63  1  0  0  0  0
 59 74  1  0  0  0  0
 60 81  1  0  0  0  0
 61 63  1  0  0  0  0
 61 73  1  0  0  0  0
 62 74  1  0  0  0  0
 64 66  1  0  0  0  0
M  CHG  1  74   1
M  ISO  4  37 100  60 101  68 100  81 101
M  END
> <Batch ID>
0170

> <Smiles>
CNC(C)C(=O)NC(C(=O)N1Cc2cc([101O:1][101CH2:1]c3nc4c(c(C)c3C)CC[100N:0]([100C:0](=O)N3CCCC(n5nc(-c6ccc(Oc7ccc(F)cc7F)cc6)c(C(N)=O)c5N)C3)C4)ccc2CC1C(=O)NC1CCCc2ccccc21)C(C)(C)C

> <Shape>
0.243

> <Color>
0.083

> <Negative vol penalty>
0.000

$$$$

  -OEChem-04052322353D

 89 99  0     1  0  0  0  0  0999 V2000
  -28.3378  -37.6590   25.9705 C   0  0  0  0  0  0  0  0  0  0  0  0
  -28.6839  -36.7739   24.9545 C   0  0  0  0  0  0  0  0  0  0  0  0
  -22.6430  -10.5423   21.2278 C   0  0  0  0  0  0  0  0  0  0  0  0
  -24.4800   -9.0001   21.5171 C   0  0  0  0  0  0  0  0  0  0  0  0
  -27.3396  -37.3167   26.8817 C   0  0  0  0  0  0  0  0  0  0  0  0
  -28.0327  -35.5454   24.8498 C   0  0  0  0  0  0  0  0  0  0  0  0
  -27.8212  -22.1430   17.8508 C   0  0  0  0  0  0  0  0  0  0  0  0
  -25.8405  -30.7873   19.9640 C   0  0  0  0  0  0  0  0  0  0  0  0
  -27.9155  -20.9633   18.5928 C   0  0  0  0  0  0  0  0  0  0  0  0
  -21.8954   -9.8275   22.1636 C   0  0  0  0  0  0  0  0  0  0  0  0
  -23.7325   -8.2852   22.4529 C   0  0  0  0  0  0  0  0  0  0  0  0
  -25.9288  -29.4274   19.6695 C   0  0  0  0  0  0  0  0  0  0  0  0
  -21.2349   -6.0065   22.4305 C   0  0  0  0  0  0  0  0  0  0  0  0
  -21.2298   -4.6153   22.3297 C   0  0  0  0  0  0  0  0  0  0  0  0
  -26.9577  -22.0595   20.5382 C   0  0  0  0  0  0  0  0  0  0  0  0
  -24.1651  -28.9764   21.2523 C   0  0  0  0  0  0  0  0  0  0  0  0
  -22.1696   -4.4511   24.5494 C   0  0  0  0  0  0  0  0  0  0  0  0
  -23.9353  -10.1286   20.9045 C   0  0  0  0  0  0  0  0  0  0  0  0
  -24.3804  -11.1014   18.5886 C   0  0  0  0  0  0  0  0  0  0  0  0
  -26.6691  -36.0873   26.7822 C   0  0  0  0  0  0  0  0  0  0  0  0
  -24.9198  -31.2515   20.9144 C   0  0  0  0  0  0  0  0  0  0  0  0
  -27.0255  -35.1856   25.7613 C   0  0  0  0  0  0  0  0  0  0  0  0
  -27.2871  -23.2717   18.4582 C   0  0  0  0  0  0  0  0  0  0  0  0
  -26.8561  -23.2223   19.7908 C   0  0  0  0  0  0  0  0  0  0  0  0
  -24.0654  -30.3430   21.5551 C   0  0  0  0  0  0  0  0  0  0  0  0
  -27.4877  -20.9221   19.9277 C   0  0  0  0  0  0  0  0  0  0  0  0
  -22.4401   -8.6989   22.7762 C   0  0  0  0  0  0  0  0  0  0  0  0
  -25.0930  -28.5214   20.3158 C   0  0  0  0  0  0  0  0  0  0  0  0
  -21.7074   -6.6200   23.5907 C   0  0  0  0  0  0  0  0  0  0  0  0
  -21.6971   -3.8376   23.3891 C   0  0  0  0  0  0  0  0  0  0  0  0
  -22.1747   -5.8423   24.6501 C   0  0  0  0  0  0  0  0  0  0  0  0
  -24.7078  -10.8663   19.9375 C   0  0  0  0  0  0  0  0  0  0  0  0
  -25.4293  -11.8448   18.1053 C   0  0  0  0  0  0  0  0  0  0  0  0
  -23.2310  -10.6850   17.8396 C   0  0  0  0  0  0  0  0  0  0  0  0
  -25.1427  -32.7643   23.7011 C   0  0  0  0  0  0  0  0  0  0  0  0
  -21.9088  -32.8583   23.4658 C   0  0  0  0  0  0  0  0  0  0  0  0
  -19.0583  -31.5086   22.1621 C   0  0  0  0  0  0  0  0  0  0  0  0
  -29.4046  -15.4741   20.7275 C   0  0  0  0  0  0  0  0  0  0  0  0
  -25.6297  -35.7415   27.8189 C   0  0  0  0  0  0  0  0  0  0  0  0
  -24.8186  -32.7246   21.2012 C   0  0  0  0  0  0  0  0  0  0  0  0
  -26.3414  -24.5522   20.2482 C   0  0  0  0  0  0  0  0  0  0  0  0
  -23.0459  -30.7926   22.5686 C   0  0  0  0  0  0  0  0  0  0  0  0
  -24.7283  -34.5783   27.4131 C   0  0  0  0  0  0  0  0  0  0  0  0
  -30.1094  -12.5884   18.7647 C   0  0  0  0  0  0  0  0  0  0  0  0
  -25.5603  -33.4264   26.8585 C   0  0  0  0  0  0  0  0  0  0  0  0
  -28.7754  -11.8411   18.7210 C   0  0  0  0  0  0  0  0  0  0  0  0
  -27.2199  -18.0887   22.2738 C   0  0  0  0  0  0  0  0  0  0  0  0
  -30.3353  -13.2612   20.1169 C   0  0  0  0  0  0  0  0  0  0  0  0
  -27.1808  -19.5982   22.0362 C   0  0  0  0  0  0  0  0  0  0  0  0
  -27.9071  -13.3983   20.5154 C   0  0  0  0  0  0  0  0  0  0  0  0
  -28.1159  -18.4973   20.0941 C   0  0  0  0  0  0  0  0  0  0  0  0
  -26.3249  -33.8541   25.5999 C   0  0  1  0  0  0  0  0  0  0  0  0
  -24.1988  -33.0271   22.5619 C   0  0  1  0  0  0  0  0  0  0  0  0
  -27.6089  -12.7501   19.1526 C   0  0  2  0  0  0  0  0  0  0  0  0
  -28.3231  -17.6243   21.3329 C   0  0  2  0  0  0  0  0  0  0  0  0
  -27.1113  -24.6654   17.8818 C   0  0  0  0  0  0  0  0  0  0  0  0
  -26.0407  -25.2622   18.8939 C   0  0  1  0  0  0  0  0  0  0  0  0
  -26.6444  -24.6532   16.4189 C   0  0  0  0  0  0  0  0  0  0  0  0
  -28.4779  -25.3795   17.9509 C   0  0  0  0  0  0  0  0  0  0  0  0
  -24.5818  -24.9361   18.4811 C   0  0  0  0  0  0  0  0  0  0  0  0
  -16.5634  -31.7783   22.1811 C   0  0  0  0  0  0  0  0  0  0  0  0
  -21.7952  -31.5903   26.2387 C   0  0  0  0  0  0  0  0  0  0  0  0
  -19.3961  -31.0213   25.8038 C   0  0  0  0  0  0  0  0  0  0  0  0
  -20.1210  -33.4077   25.8533 C   0  0  0  0  0  0  0  0  0  0  0  0
  -18.9750  -32.0187   19.2481 C   0  0  0  0  0  0  0  0  0  0  0  0
  -26.1353  -26.7869   19.0665 C   0  0  0  0  0  0  0  0  0  1  0  0
  -20.7790  -31.9528   23.8931 C   0  0  1  0  0  0  0  0  0  0  0  0
  -17.8618  -32.1472   21.4803 C   0  0  2  0  0  0  0  0  0  0  0  0
  -20.5433  -31.9840   25.4296 C   0  0  0  0  0  0  0  0  0  0  0  0
  -25.8735  -11.4158   20.2885 N   0  0  0  0  0  0  0  0  0  0  0  0
  -26.2879  -12.0034   19.1531 N   0  0  0  0  0  0  0  0  0  0  0  0
  -27.5958  -19.7486   20.6430 N   0  0  3  0  0  0  0  0  0  0  0  0
  -22.9897  -32.2422   22.8194 N   0  0  0  0  0  0  0  0  0  0  0  0
  -29.1939  -14.1101   20.4667 N   0  0  0  0  0  0  0  0  0  0  0  0
  -25.6918  -12.3717   16.8904 N   0  0  0  0  0  0  0  0  0  0  0  0
  -23.2804   -9.4557   17.1682 N   0  0  0  0  0  0  0  0  0  0  0  0
  -25.4390  -33.8832   24.4559 N   0  0  0  0  0  0  0  0  0  0  0  0
  -19.6182  -32.3475   23.1023 N   0  0  0  0  0  0  0  0  0  0  0  0
  -28.2684  -16.2083   21.0453 N   0  0  0  0  0  0  0  0  0  0  0  0
  -17.7738  -31.6991   20.0617 N   0  3  0  0  0  0  0  0  0  0  0  0
  -22.1969  -11.3899   17.7544 O   0  0  0  0  0  0  0  0  0  0  0  0
  -25.5694  -31.6299   23.8827 O   0  0  0  0  0  0  0  0  0  0  0  0
  -21.8317  -34.0688   23.6906 O   0  0  0  0  0  0  0  0  0  0  0  0
  -19.4542  -30.3771   21.8907 O   0  0  0  0  0  0  0  0  0  0  0  0
  -30.5216  -15.9999   20.6756 O   0  0  0  0  0  0  0  0  0  0  0  0
  -21.7111   -8.0013   23.6896 O   0  0  0  0  0  0  0  0  0  0  0  0
  -25.1784  -27.1798   20.0278 O   0  0  0  0  0  0  0  0  0  1  0  0
  -21.6908   -2.5016   23.2928 F   0  0  0  0  0  0  0  0  0  0  0  0
  -22.6288   -6.4260   25.7677 F   0  0  0  0  0  0  0  0  0  0  0  0
  1  2  1  0  0  0  0
  1  5  2  0  0  0  0
  2  6  2  0  0  0  0
  3 10  2  0  0  0  0
  3 18  1  0  0  0  0
  4 11  1  0  0  0  0
  4 18  2  0  0  0  0
  5 20  1  0  0  0  0
  6 22  1  0  0  0  0
  7  9  2  0  0  0  0
  7 23  1  0  0  0  0
  8 12  2  0  0  0  0
  8 21  1  0  0  0  0
  9 26  1  0  0  0  0
 10 27  1  0  0  0  0
 11 27  2  0  0  0  0
 12 28  1  0  0  0  0
 13 14  2  0  0  0  0
 13 29  1  0  0  0  0
 14 30  1  0  0  0  0
 15 24  1  0  0  0  0
 15 26  2  0  0  0  0
 16 25  1  0  0  0  0
 16 28  2  0  0  0  0
 17 30  2  0  0  0  0
 17 31  1  0  0  0  0
 18 32  1  0  0  0  0
 19 32  1  0  0  0  0
 19 33  2  0  0  0  0
 19 34  1  0  0  0  0
 20 22  2  0  0  0  0
 20 39  1  0  0  0  0
 21 25  2  0  0  0  0
 21 40  1  0  0  0  0
 22 52  1  0  0  0  0
 23 24  2  0  0  0  0
 23 56  1  0  0  0  0
 24 41  1  0  0  0  0
 25 42  1  0  0  0  0
 26 72  1  0  0  0  0
 27 86  1  0  0  0  0
 28 87  1  0  0  0  0
 29 31  2  0  0  0  0
 29 86  1  0  0  0  0
 30 88  1  0  0  0  0
 31 89  1  0  0  0  0
 32 70  2  0  0  0  0
 33 71  1  0  0  0  0
 33 75  1  0  0  0  0
 34 76  1  0  0  0  0
 34 81  2  0  0  0  0
 35 53  1  0  0  0  0
 35 77  1  0  0  0  0
 35 82  2  0  0  0  0
 36 67  1  0  0  0  0
 36 73  1  0  0  0  0
 36 83  2  0  0  0  0
 37 68  1  0  0  0  0
 37 78  1  0  0  0  0
 37 84  2  0  0  0  0
 38 74  1  0  0  0  0
 38 79  1  0  0  0  0
 38 85  2  0  0  0  0
 39 43  1  0  0  0  0
 40 53  1  0  0  0  0
 41 57  1  0  0  0  0
 42 73  1  0  0  0  0
 43 45  1  0  0  0  0
 44 46  1  0  0  0  0
 44 48  1  0  0  0  0
 45 52  1  0  0  0  0
 46 54  1  0  0  0  0
 47 49  1  0  0  0  0
 47 55  1  0  0  0  0
 48 74  1  0  0  0  0
 49 72  1  0  0  0  0
 50 54  1  0  0  0  0
 50 74  1  0  0  0  0
 51 55  1  0  0  0  0
 51 72  1  0  0  0  0
 52 77  1  0  0  0  0
 53 73  1  0  0  0  0
 54 71  1  0  0  0  0
 55 79  1  0  0  0  0
 56 57  1  0  0  0  0
 56 58  1  0  0  0  0
 56 59  1  0  0  0  0
 57 60  1  0  0  0  0
 57 66  1  0  0  0  0
 61 68  1  0  0  0  0
 62 69  1  0  0  0  0
 63 69  1  0  0  0  0
 64 69  1  0  0  0  0
 65 80  1  0  0  0  0
 66 87  1  0  0  0  0
 67 69  1  0  0  0  0
 67 78  1  0  0  0  0
 68 80  1  0  0  0  0
 70 71  1  0  0  0  0
M  CHG  1  80   1
M  ISO  4  38 100  66 101  79 100  87 101
M  END
> <Batch ID>
0170

> <Smiles>
CNC(C)C(=O)NC(C(=O)N1Cc2cc([101O:1][101CH2:1]C3(C)Cc4cc(N5CCC([100NH:0][100C:0](=O)N6CCCC(n7nc(-c8ccc(Oc9ccc(F)cc9F)cc8)c(C(N)=O)c7N)C6)C5)ccc4C3(C)C)ccc2CC1C(=O)NC1CCCc2ccccc21)C(C)(C)C

> <Shape>
0.278

> <Color>
0.101

> <Negative vol penalty>
0.000

$$$$

  -OEChem-04052322353D

 83 92  0     1  0  0  0  0  0999 V2000
  -27.7546  -30.8043   19.1502 C   0  0  0  0  0  0  0  0  0  0  0  0
  -27.8455  -29.5155   19.6661 C   0  0  0  0  0  0  0  0  0  0  0  0
  -23.0726   -9.7847   19.9888 C   0  0  0  0  0  0  0  0  0  0  0  0
  -23.6124  -10.0051   22.3334 C   0  0  0  0  0  0  0  0  0  0  0  0
  -26.6750  -31.6170   19.4938 C   0  0  0  0  0  0  0  0  0  0  0  0
  -26.8574  -29.0390   20.5269 C   0  0  0  0  0  0  0  0  0  0  0  0
  -25.3981  -24.3251   19.3892 C   0  0  0  0  0  0  0  0  0  0  0  0
  -22.2960   -8.6616   20.2731 C   0  0  0  0  0  0  0  0  0  0  0  0
  -22.8356   -8.8820   22.6178 C   0  0  0  0  0  0  0  0  0  0  0  0
  -26.2368  -23.2852   19.7879 C   0  0  0  0  0  0  0  0  0  0  0  0
  -23.1417   -5.5218   22.4024 C   0  0  0  0  0  0  0  0  0  0  0  0
  -23.6754   -4.5671   23.2680 C   0  0  0  0  0  0  0  0  0  0  0  0
  -28.5684  -18.8758   20.4394 C   0  0  0  0  0  0  0  0  0  0  0  0
  -24.8106  -22.8721   21.6891 C   0  0  0  0  0  0  0  0  0  0  0  0
  -21.8223   -4.9033   24.7813 C   0  0  0  0  0  0  0  0  0  0  0  0
  -23.7309  -10.4565   21.0189 C   0  0  0  0  0  0  0  0  0  0  0  0
  -24.1100  -12.9586   20.6973 C   0  0  0  0  0  0  0  0  0  0  0  0
  -25.6682  -31.1468   20.3515 C   0  0  0  0  0  0  0  0  0  0  0  0
  -24.2634  -24.6539   20.1446 C   0  0  0  0  0  0  0  0  0  0  0  0
  -25.7640  -29.8466   20.8833 C   0  0  0  0  0  0  0  0  0  0  0  0
  -29.2788  -17.8241   20.9815 C   0  0  0  0  0  0  0  0  0  0  0  0
  -23.9577  -23.9149   21.2964 C   0  0  0  0  0  0  0  0  0  0  0  0
  -28.6538  -20.1147   21.0690 C   0  0  0  0  0  0  0  0  0  0  0  0
  -22.1774   -8.2102   21.5876 C   0  0  0  0  0  0  0  0  0  0  0  0
  -25.9447  -22.5604   20.9396 C   0  0  0  0  0  0  0  0  0  0  0  0
  -21.9483   -6.1674   22.7263 C   0  0  0  0  0  0  0  0  0  0  0  0
  -23.0157   -4.2578   24.4574 C   0  0  0  0  0  0  0  0  0  0  0  0
  -21.2886   -5.8581   23.9157 C   0  0  0  0  0  0  0  0  0  0  0  0
  -24.5338  -11.6164   20.7257 C   0  0  0  0  0  0  0  0  0  0  0  0
  -30.0437  -18.0361   22.1208 C   0  0  0  0  0  0  0  0  0  0  0  0
  -29.4475  -20.2304   22.2096 C   0  0  0  0  0  0  0  0  0  0  0  0
  -25.2397  -13.6685   20.3714 C   0  0  0  0  0  0  0  0  0  0  0  0
  -22.8113  -13.5139   20.9436 C   0  0  0  0  0  0  0  0  0  0  0  0
  -23.2960  -27.2314   21.7335 C   0  0  0  0  0  0  0  0  0  0  0  0
  -20.5733  -25.5061   22.0978 C   0  0  0  0  0  0  0  0  0  0  0  0
  -19.0761  -22.4407   22.1877 C   0  0  0  0  0  0  0  0  0  0  0  0
  -30.7261  -14.4506   21.4480 C   0  0  0  0  0  0  0  0  0  0  0  0
  -24.5448  -32.0785   20.7318 C   0  0  0  0  0  0  0  0  0  0  0  0
  -23.3542  -25.7611   19.6864 C   0  0  0  0  0  0  0  0  0  0  0  0
  -29.3583  -16.4084   20.5364 C   0  0  0  0  0  0  0  0  0  0  0  0
  -22.7406  -24.2149   22.1313 C   0  0  0  0  0  0  0  0  0  0  0  0
  -23.3461  -31.3659   21.3527 C   0  0  0  0  0  0  0  0  0  0  0  0
  -29.7700  -12.1150   18.7417 C   0  0  0  0  0  0  0  0  0  0  0  0
  -23.8071  -30.3713   22.4134 C   0  0  0  0  0  0  0  0  0  0  0  0
  -28.2970  -11.8481   19.0587 C   0  0  0  0  0  0  0  0  0  0  0  0
  -30.5697  -12.4628   19.9946 C   0  0  0  0  0  0  0  0  0  0  0  0
  -28.5359  -13.2852   21.1164 C   0  0  0  0  0  0  0  0  0  0  0  0
  -24.6992  -29.2850   21.8004 C   0  0  1  0  0  0  0  0  0  0  0  0
  -22.5069  -26.3435   20.8134 C   0  0  1  0  0  0  0  0  0  0  0  0
  -27.6836  -13.0041   19.8719 C   0  0  2  0  0  0  0  0  0  0  0  0
  -30.7624  -16.7584   22.5242 C   0  0  0  0  0  0  0  0  0  0  0  0
  -29.5596  -21.5460   22.9095 C   0  0  0  0  0  0  0  0  0  0  0  0
  -30.3774  -16.3570   23.9509 C   0  0  0  0  0  0  0  0  0  0  0  0
  -32.2752  -16.9889   22.3951 C   0  0  0  0  0  0  0  0  0  0  0  0
  -16.8453  -21.3476   22.5428 C   0  0  0  0  0  0  0  0  0  0  0  0
  -20.8167  -25.9905   25.1005 C   0  0  0  0  0  0  0  0  0  0  0  0
  -19.1713  -24.1385   25.4621 C   0  0  0  0  0  0  0  0  0  0  0  0
  -18.4918  -26.1791   24.1985 C   0  0  0  0  0  0  0  0  0  0  0  0
  -19.0918  -21.2614   19.4733 C   0  0  0  0  0  0  0  0  0  0  0  0
  -27.9014  -21.2768   20.5159 C   0  0  0  0  0  0  0  0  0  1  0  0
  -20.0623  -24.5181   23.1184 C   0  0  1  0  0  0  0  0  0  0  0  0
  -17.8183  -21.9141   21.5205 C   0  0  2  0  0  0  0  0  0  0  0  0
  -19.6596  -25.2019   24.4554 C   0  0  0  0  0  0  0  0  0  0  0  0
  -25.8314  -11.4793   20.4404 N   0  0  0  0  0  0  0  0  0  0  0  0
  -30.1548  -19.2146   22.7596 N   0  0  0  0  0  0  0  0  0  0  0  0
  -26.2328  -12.7444   20.2296 N   0  0  0  0  0  0  0  0  0  0  0  0
  -21.8859  -25.3108   21.6453 N   0  0  0  0  0  0  0  0  0  0  0  0
  -30.2456  -15.7662   21.5308 N   0  0  0  0  0  0  0  0  0  0  0  0
  -29.9282  -13.5435   20.7389 N   0  0  0  0  0  0  0  0  0  0  0  0
  -25.4706  -14.9869   20.1950 N   0  0  0  0  0  0  0  0  0  0  0  0
  -21.7622  -12.6424   21.2663 N   0  0  0  0  0  0  0  0  0  0  0  0
  -23.8951  -28.3049   21.1024 N   0  0  0  0  0  0  0  0  0  0  0  0
  -18.9786  -23.7865   22.4713 N   0  0  0  0  0  0  0  0  0  0  0  0
  -18.1595  -20.8366   20.5491 N   0  3  0  0  0  0  0  0  0  0  0  0
  -22.5841  -14.7450   20.8634 O   0  0  0  0  0  0  0  0  0  0  0  0
  -23.3557  -26.9633   22.9277 O   0  0  0  0  0  0  0  0  0  0  0  0
  -19.8327  -26.4135   21.7109 O   0  0  0  0  0  0  0  0  0  0  0  0
  -20.0465  -21.7285   22.4360 O   0  0  0  0  0  0  0  0  0  0  0  0
  -31.8139  -14.1050   21.9213 O   0  0  0  0  0  0  0  0  0  0  0  0
  -21.4194   -7.1144   21.8655 O   0  0  0  0  0  0  0  0  0  0  0  0
  -26.7676  -21.5384   21.3341 O   0  0  0  0  0  0  0  0  0  1  0  0
  -23.5274   -3.3398   25.2879 F   0  0  0  0  0  0  0  0  0  0  0  0
  -20.1412   -6.4741   24.2317 F   0  0  0  0  0  0  0  0  0  0  0  0
  1  2  1  0  0  0  0
  1  5  2  0  0  0  0
  2  6  2  0  0  0  0
  3  8  2  0  0  0  0
  3 16  1  0  0  0  0
  4  9  1  0  0  0  0
  4 16  2  0  0  0  0
  5 18  1  0  0  0  0
  6 20  1  0  0  0  0
  7 10  2  0  0  0  0
  7 19  1  0  0  0  0
  8 24  1  0  0  0  0
  9 24  2  0  0  0  0
 10 25  1  0  0  0  0
 11 12  2  0  0  0  0
 11 26  1  0  0  0  0
 12 27  1  0  0  0  0
 13 21  2  0  0  0  0
 13 23  1  0  0  0  0
 14 22  1  0  0  0  0
 14 25  2  0  0  0  0
 15 27  2  0  0  0  0
 15 28  1  0  0  0  0
 16 29  1  0  0  0  0
 17 29  1  0  0  0  0
 17 32  2  0  0  0  0
 17 33  1  0  0  0  0
 18 20  2  0  0  0  0
 18 38  1  0  0  0  0
 19 22  2  0  0  0  0
 19 39  1  0  0  0  0
 20 48  1  0  0  0  0
 21 30  1  0  0  0  0
 21 40  1  0  0  0  0
 22 41  1  0  0  0  0
 23 31  2  0  0  0  0
 23 60  1  0  0  0  0
 24 80  1  0  0  0  0
 25 81  1  0  0  0  0
 26 28  2  0  0  0  0
 26 80  1  0  0  0  0
 27 82  1  0  0  0  0
 28 83  1  0  0  0  0
 29 64  2  0  0  0  0
 30 51  1  0  0  0  0
 30 65  2  0  0  0  0
 31 52  1  0  0  0  0
 31 65  1  0  0  0  0
 32 66  1  0  0  0  0
 32 70  1  0  0  0  0
 33 71  1  0  0  0  0
 33 75  2  0  0  0  0
 34 49  1  0  0  0  0
 34 72  1  0  0  0  0
 34 76  2  0  0  0  0
 35 61  1  0  0  0  0
 35 67  1  0  0  0  0
 35 77  2  0  0  0  0
 36 62  1  0  0  0  0
 36 73  1  0  0  0  0
 36 78  2  0  0  0  0
 37 68  1  0  0  0  0
 37 69  1  0  0  0  0
 37 79  2  0  0  0  0
 38 42  1  0  0  0  0
 39 49  1  0  0  0  0
 40 68  1  0  0  0  0
 41 67  1  0  0  0  0
 42 44  1  0  0  0  0
 43 45  1  0  0  0  0
 43 46  1  0  0  0  0
 44 48  1  0  0  0  0
 45 50  1  0  0  0  0
 46 69  1  0  0  0  0
 47 50  1  0  0  0  0
 47 69  1  0  0  0  0
 48 72  1  0  0  0  0
 49 67  1  0  0  0  0
 50 66  1  0  0  0  0
 51 53  1  0  0  0  0
 51 54  1  0  0  0  0
 51 68  1  0  0  0  0
 55 62  1  0  0  0  0
 56 63  1  0  0  0  0
 57 63  1  0  0  0  0
 58 63  1  0  0  0  0
 59 74  1  0  0  0  0
 60 81  1  0  0  0  0
 61 63  1  0  0  0  0
 61 73  1  0  0  0  0
 62 74  1  0  0  0  0
 64 66  1  0  0  0  0
M  CHG  1  74   1
M  ISO  4  37 100  60 101  68 100  81 101
M  END
> <Batch ID>
0170

> <Smiles>
CNC(C)C(=O)NC(C(=O)N1Cc2cc([101O:1][101CH2:1]c3cc4c(nc3C)C(C)(C)[100N:0]([100C:0](=O)N3CCCC(n5nc(-c6ccc(Oc7ccc(F)cc7F)cc6)c(C(N)=O)c5N)C3)C4)ccc2CC1C(=O)NC1CCCc2ccccc21)C(C)(C)C

> <Shape>
0.295

> <Color>
0.190

> <Negative vol penalty>
0.000

$$$$

  -OEChem-04052322353D

 90100  0     1  0  0  0  0  0999 V2000
  -32.2715  -27.7776   15.0028 C   0  0  0  0  0  0  0  0  0  0  0  0
  -31.4267  -26.6777   15.1128 C   0  0  0  0  0  0  0  0  0  0  0  0
  -28.9729  -16.1870   20.8734 C   0  0  0  0  0  0  0  0  0  0  0  0
  -27.7904  -16.7806   18.8519 C   0  0  0  0  0  0  0  0  0  0  0  0
  -32.5305  -28.5706   16.1199 C   0  0  0  0  0  0  0  0  0  0  0  0
  -30.8413  -26.3696   16.3403 C   0  0  0  0  0  0  0  0  0  0  0  0
  -24.8565  -23.5931   19.1312 C   0  0  0  0  0  0  0  0  0  0  0  0
  -29.8713  -17.2313   20.6546 C   0  0  0  0  0  0  0  0  0  0  0  0
  -28.6888  -17.8249   18.6331 C   0  0  0  0  0  0  0  0  0  0  0  0
  -24.4417  -22.6069   20.0252 C   0  0  0  0  0  0  0  0  0  0  0  0
  -30.4566  -20.8717   17.7329 C   0  0  0  0  0  0  0  0  0  0  0  0
  -29.9344  -22.1094   17.3575 C   0  0  0  0  0  0  0  0  0  0  0  0
  -24.1534  -19.1277   23.6285 C   0  0  0  0  0  0  0  0  0  0  0  0
  -24.8988  -24.0943   21.8685 C   0  0  0  0  0  0  0  0  0  0  0  0
  -28.6705  -22.2000   19.4146 C   0  0  0  0  0  0  0  0  0  0  0  0
  -27.9325  -15.9616   19.9720 C   0  0  0  0  0  0  0  0  0  0  0  0
  -27.3029  -13.5099   20.2895 C   0  0  0  0  0  0  0  0  0  0  0  0
  -31.9403  -28.2777   17.3595 C   0  0  0  0  0  0  0  0  0  0  0  0
  -25.3066  -24.8355   19.6005 C   0  0  0  0  0  0  0  0  0  0  0  0
  -31.0938  -27.1587   17.4753 C   0  0  0  0  0  0  0  0  0  0  0  0
  -23.7506  -18.2857   24.6591 C   0  0  0  0  0  0  0  0  0  0  0  0
  -25.3163  -25.0954   20.9783 C   0  0  0  0  0  0  0  0  0  0  0  0
  -23.1978  -19.7449   22.8290 C   0  0  0  0  0  0  0  0  0  0  0  0
  -29.7292  -18.0503   19.5344 C   0  0  0  0  0  0  0  0  0  0  0  0
  -24.4655  -22.8564   21.3942 C   0  0  0  0  0  0  0  0  0  0  0  0
  -30.0857  -20.2981   18.9491 C   0  0  0  0  0  0  0  0  0  0  0  0
  -29.0414  -22.7736   18.1983 C   0  0  0  0  0  0  0  0  0  0  0  0
  -29.1926  -20.9623   19.7899 C   0  0  0  0  0  0  0  0  0  0  0  0
  -27.0044  -14.8826   20.1973 C   0  0  0  0  0  0  0  0  0  0  0  0
  -21.8631  -19.4894   23.0990 C   0  0  0  0  0  0  0  0  0  0  0  0
  -22.3911  -18.0956   24.8474 C   0  0  0  0  0  0  0  0  0  0  0  0
  -26.0875  -12.9082   20.5069 C   0  0  0  0  0  0  0  0  0  0  0  0
  -28.5658  -12.8388   20.1878 C   0  0  0  0  0  0  0  0  0  0  0  0
  -28.0491  -26.4344   19.4397 C   0  0  0  0  0  0  0  0  0  0  0  0
  -26.3102  -28.7862   20.8422 C   0  0  0  0  0  0  0  0  0  0  0  0
  -23.6160  -29.6529   22.7492 C   0  0  0  0  0  0  0  0  0  0  0  0
  -20.9402  -14.8511   22.8694 C   0  0  0  0  0  0  0  0  0  0  0  0
  -32.2876  -29.1363   18.5498 C   0  0  0  0  0  0  0  0  0  0  0  0
  -25.7254  -25.8981   18.6218 C   0  0  0  0  0  0  0  0  0  0  0  0
  -25.7715  -26.4200   21.5322 C   0  0  0  0  0  0  0  0  0  0  0  0
  -31.3316  -28.9611   19.7269 C   0  0  0  0  0  0  0  0  0  0  0  0
  -21.4192  -13.4706   19.6227 C   0  0  0  0  0  0  0  0  0  0  0  0
  -25.8467  -16.7894   24.8629 C   0  0  0  0  0  0  0  0  0  0  0  0
  -24.7618  -16.1242   25.6509 C   0  0  0  0  0  0  0  0  0  0  0  0
  -31.0791  -27.4806   19.9937 C   0  0  0  0  0  0  0  0  0  0  0  0
  -22.9319  -13.5521   19.4101 C   0  0  0  0  0  0  0  0  0  0  0  0
  -20.8927  -14.6757   20.3989 C   0  0  0  0  0  0  0  0  0  0  0  0
  -23.0870  -15.0136   21.4689 C   0  0  0  0  0  0  0  0  0  0  0  0
  -22.3419  -17.5525   27.2532 C   0  0  0  0  0  0  0  0  0  0  0  0
  -24.7766  -17.6242   25.5159 C   0  0  0  0  0  0  0  0  0  0  0  0
  -30.4203  -26.8066   18.7840 C   0  0  1  0  0  0  0  0  0  0  0  0
  -26.6506  -26.9444   19.2355 C   0  0  1  0  0  0  0  0  0  0  0  0
  -20.1513  -16.5850   27.1704 C   0  0  1  0  0  0  0  0  0  0  0  0
  -23.6728  -13.7927   20.7392 C   0  0  2  0  0  0  0  0  0  0  0  0
  -21.3932  -16.6666   28.0542 C   0  0  2  0  0  0  0  0  0  0  0  0
  -20.7701  -16.4482   25.7558 C   0  0  2  0  0  0  0  0  0  0  0  0
  -20.7934  -20.1249   22.2726 C   0  0  0  0  0  0  0  0  0  0  0  0
  -19.1837  -15.4820   27.5719 C   0  0  0  0  0  0  0  0  0  0  0  0
  -22.4772  -31.6482   23.7589 C   0  0  0  0  0  0  0  0  0  0  0  0
  -28.4658  -28.9229   22.9974 C   0  0  0  0  0  0  0  0  0  0  0  0
  -26.8556  -30.1982   24.4288 C   0  0  0  0  0  0  0  0  0  0  0  0
  -27.6007  -31.1454   22.2447 C   0  0  0  0  0  0  0  0  0  0  0  0
  -21.1312  -29.1535   21.2211 C   0  0  0  0  0  0  0  0  0  0  0  0
  -23.6259  -20.6546   21.7152 C   0  0  0  0  0  0  0  0  0  1  0  0
  -21.1509  -15.0314   25.3356 C   0  0  0  0  0  0  0  0  0  0  0  0
  -26.0038  -29.1855   22.2655 C   0  0  1  0  0  0  0  0  0  0  0  0
  -22.5479  -30.7150   22.5602 C   0  0  2  0  0  0  0  0  0  0  0  0
  -27.2247  -29.8372   22.9741 C   0  0  0  0  0  0  0  0  0  0  0  0
  -25.7016  -15.1380   20.3439 N   0  0  0  0  0  0  0  0  0  0  0  0
  -21.4335  -18.6778   24.0911 N   0  0  0  0  0  0  0  0  0  0  0  0
  -25.1706  -13.9176   20.5304 N   0  0  0  0  0  0  0  0  0  0  0  0
  -21.9738  -17.2386   25.8963 N   0  0  1  0  0  0  0  0  0  0  0  0
  -26.1773  -27.4246   20.5354 N   0  0  0  0  0  0  0  0  0  0  0  0
  -21.6362  -14.8475   21.6493 N   0  0  0  0  0  0  0  0  0  0  0  0
  -25.7243  -11.6193   20.6782 N   0  0  0  0  0  0  0  0  0  0  0  0
  -28.9945  -12.4096   18.9243 N   0  0  0  0  0  0  0  0  0  0  0  0
  -29.0105  -27.1295   18.7312 N   0  0  0  0  0  0  0  0  0  0  0  0
  -24.8224  -30.0392   22.2047 N   0  0  0  0  0  0  0  0  0  0  0  0
  -21.7214  -15.0129   24.0071 N   0  0  0  0  0  0  0  0  0  0  0  0
  -21.0914  -17.2641   29.3688 N   0  3  0  0  0  0  0  0  0  0  0  0
  -21.2119  -30.0797   22.3797 N   0  3  0  0  0  0  0  0  0  0  0  0
  -29.2850  -12.6115   21.1901 O   0  0  0  0  0  0  0  0  0  0  0  0
  -28.2419  -25.4816   20.1859 O   0  0  0  0  0  0  0  0  0  0  0  0
  -26.6479  -29.6517   20.0307 O   0  0  0  0  0  0  0  0  0  0  0  0
  -23.4024  -28.5887   23.3258 O   0  0  0  0  0  0  0  0  0  0  0  0
  -19.7141  -14.7146   22.9400 O   0  0  0  0  0  0  0  0  0  0  0  0
  -30.6056  -19.0695   19.3207 O   0  0  0  0  0  0  0  0  0  0  0  0
  -24.0618  -21.8954   22.2691 O   0  0  0  0  0  0  0  0  0  1  0  0
  -28.5412  -23.9629   17.8384 F   0  0  0  0  0  0  0  0  0  0  0  0
  -28.8335  -20.4167   20.9601 F   0  0  0  0  0  0  0  0  0  0  0  0
  1  2  1  0  0  0  0
  1  5  2  0  0  0  0
  2  6  2  0  0  0  0
  3  8  2  0  0  0  0
  3 16  1  0  0  0  0
  4  9  1  0  0  0  0
  4 16  2  0  0  0  0
  5 18  1  0  0  0  0
  6 20  1  0  0  0  0
  7 10  2  0  0  0  0
  7 19  1  0  0  0  0
  8 24  1  0  0  0  0
  9 24  2  0  0  0  0
 10 25  1  0  0  0  0
 11 12  2  0  0  0  0
 11 26  1  0  0  0  0
 12 27  1  0  0  0  0
 13 21  2  0  0  0  0
 13 23  1  0  0  0  0
 14 22  1  0  0  0  0
 14 25  2  0  0  0  0
 15 27  2  0  0  0  0
 15 28  1  0  0  0  0
 16 29  1  0  0  0  0
 17 29  1  0  0  0  0
 17 32  2  0  0  0  0
 17 33  1  0  0  0  0
 18 20  2  0  0  0  0
 18 38  1  0  0  0  0
 19 22  2  0  0  0  0
 19 39  1  0  0  0  0
 20 51  1  0  0  0  0
 21 31  1  0  0  0  0
 21 50  1  0  0  0  0
 22 40  1  0  0  0  0
 23 30  2  0  0  0  0
 23 64  1  0  0  0  0
 24 87  1  0  0  0  0
 25 88  1  0  0  0  0
 26 28  2  0  0  0  0
 26 87  1  0  0  0  0
 27 89  1  0  0  0  0
 28 90  1  0  0  0  0
 29 69  2  0  0  0  0
 30 57  1  0  0  0  0
 30 70  1  0  0  0  0
 31 70  2  0  0  0  0
 31 72  1  0  0  0  0
 32 71  1  0  0  0  0
 32 75  1  0  0  0  0
 33 76  1  0  0  0  0
 33 82  2  0  0  0  0
 34 52  1  0  0  0  0
 34 77  1  0  0  0  0
 34 83  2  0  0  0  0
 35 66  1  0  0  0  0
 35 73  1  0  0  0  0
 35 84  2  0  0  0  0
 36 67  1  0  0  0  0
 36 78  1  0  0  0  0
 36 85  2  0  0  0  0
 37 74  1  0  0  0  0
 37 79  1  0  0  0  0
 37 86  2  0  0  0  0
 38 41  1  0  0  0  0
 39 52  1  0  0  0  0
 40 73  1  0  0  0  0
 41 45  1  0  0  0  0
 42 46  1  0  0  0  0
 42 47  1  0  0  0  0
 43 44  1  0  0  0  0
 43 50  1  0  0  0  0
 44 50  1  0  0  0  0
 45 51  1  0  0  0  0
 46 54  1  0  0  0  0
 47 74  1  0  0  0  0
 48 54  1  0  0  0  0
 48 74  1  0  0  0  0
 49 55  1  0  0  0  0
 49 72  1  0  0  0  0
 51 77  1  0  0  0  0
 52 73  1  0  0  0  0
 53 55  1  0  0  0  0
 53 56  1  0  0  0  0
 53 58  1  0  0  0  0
 54 71  1  0  0  0  0
 55 80  1  0  0  0  0
 56 65  1  0  0  0  0
 56 72  1  0  0  0  0
 59 67  1  0  0  0  0
 60 68  1  0  0  0  0
 61 68  1  0  0  0  0
 62 68  1  0  0  0  0
 63 81  1  0  0  0  0
 64 88  1  0  0  0  0
 65 79  1  0  0  0  0
 66 68  1  0  0  0  0
 66 78  1  0  0  0  0
 67 81  1  0  0  0  0
 69 71  1  0  0  0  0
M  CHG  2  80   1  81   1
M  ISO  4  37 100  64 101  79 100  88 101
M  END
> <Batch ID>
0170

> <Smiles>
CNC(C)C(=O)NC(C(=O)N1Cc2cc([101O:1][101CH2:1]c3cc(C4CC4)c(N4CC(N)C(C)C4C[100NH:0][100C:0](=O)N4CCCC(n5nc(-c6ccc(Oc7ccc(F)cc7F)cc6)c(C(N)=O)c5N)C4)nc3C)ccc2CC1C(=O)NC1CCCc2ccccc21)C(C)(C)C

> <Shape>
0.227

> <Color>
0.069

> <Negative vol penalty>
0.000

$$$$

  -OEChem-04052322353D

 85 95  0     1  0  0  0  0  0999 V2000
  -28.3927  -11.2147   21.1670 C   0  0  0  0  0  0  0  0  0  0  0  0
  -28.8869  -12.4445   20.7440 C   0  0  0  0  0  0  0  0  0  0  0  0
  -19.9197  -28.6885   23.5174 C   0  0  0  0  0  0  0  0  0  0  0  0
  -20.6044  -26.7566   22.2383 C   0  0  0  0  0  0  0  0  0  0  0  0
  -27.0183  -10.9805   21.1691 C   0  0  0  0  0  0  0  0  0  0  0  0
  -28.0070  -13.4404   20.3219 C   0  0  0  0  0  0  0  0  0  0  0  0
  -28.6422  -19.4827   21.0923 C   0  0  0  0  0  0  0  0  0  0  0  0
  -31.7277  -28.6668   17.8362 C   0  0  0  0  0  0  0  0  0  0  0  0
  -18.6606  -28.6383   22.9193 C   0  0  0  0  0  0  0  0  0  0  0  0
  -19.3453  -26.7064   21.6402 C   0  0  0  0  0  0  0  0  0  0  0  0
  -29.1017  -20.4927   20.2481 C   0  0  0  0  0  0  0  0  0  0  0  0
  -16.1934  -25.8509   20.0428 C   0  0  0  0  0  0  0  0  0  0  0  0
  -15.5725  -24.6061   19.9402 C   0  0  0  0  0  0  0  0  0  0  0  0
  -31.5946  -27.3212   17.5123 C   0  0  0  0  0  0  0  0  0  0  0  0
  -26.8271  -20.9953   19.6214 C   0  0  0  0  0  0  0  0  0  0  0  0
  -15.6230  -24.3825   22.3453 C   0  0  0  0  0  0  0  0  0  0  0  0
  -20.8916  -27.7477   23.1769 C   0  0  0  0  0  0  0  0  0  0  0  0
  -22.5972  -27.1574   24.9798 C   0  0  0  0  0  0  0  0  0  0  0  0
  -26.1205  -11.9774   20.7559 C   0  0  0  0  0  0  0  0  0  0  0  0
  -27.2701  -19.2137   21.1992 C   0  0  0  0  0  0  0  0  0  0  0  0
  -26.6193  -13.2188   20.3172 C   0  0  0  0  0  0  0  0  0  0  0  0
  -31.5384  -29.0821   19.1496 C   0  0  0  0  0  0  0  0  0  0  0  0
  -26.3526  -19.9830   20.4695 C   0  0  0  0  0  0  0  0  0  0  0  0
  -18.3734  -27.6473   21.9807 C   0  0  0  0  0  0  0  0  0  0  0  0
  -28.1943  -21.2473   19.5104 C   0  0  0  0  0  0  0  0  0  0  0  0
  -16.5292  -26.3615   21.2967 C   0  0  0  0  0  0  0  0  0  0  0  0
  -15.2873  -23.8719   21.0914 C   0  0  0  0  0  0  0  0  0  0  0  0
  -16.2440  -25.6274   22.4479 C   0  0  0  0  0  0  0  0  0  0  0  0
  -22.1926  -27.7993   23.7940 C   0  0  0  0  0  0  0  0  0  0  0  0
  -31.2736  -26.4378   18.5304 C   0  0  0  0  0  0  0  0  0  0  0  0
  -31.2197  -28.1199   20.0943 C   0  0  0  0  0  0  0  0  0  0  0  0
  -23.9128  -27.5199   25.1349 C   0  0  0  0  0  0  0  0  0  0  0  0
  -21.8505  -26.3091   25.8621 C   0  0  0  0  0  0  0  0  0  0  0  0
  -25.4209  -16.7045   20.5761 C   0  0  0  0  0  0  0  0  0  0  0  0
  -23.1272  -18.5479   21.9410 C   0  0  0  0  0  0  0  0  0  0  0  0
  -22.0243  -21.6744   22.7505 C   0  0  0  0  0  0  0  0  0  0  0  0
  -28.5683  -28.4263   21.9858 C   0  0  0  0  0  0  0  0  0  0  0  0
  -24.6460  -11.6614   20.7308 C   0  0  0  0  0  0  0  0  0  0  0  0
  -26.7889  -18.1385   22.1345 C   0  0  0  0  0  0  0  0  0  0  0  0
  -24.8680  -19.7476   20.5642 C   0  0  0  0  0  0  0  0  0  0  0  0
  -23.7594  -12.8994   20.6232 C   0  0  0  0  0  0  0  0  0  0  0  0
  -26.7395  -31.1987   23.4231 C   0  0  0  0  0  0  0  0  0  0  0  0
  -30.4495  -31.3923   19.5382 C   0  0  0  0  0  0  0  0  0  0  0  0
  -31.4527  -31.5658   18.4411 C   0  0  0  0  0  0  0  0  0  0  0  0
  -24.2828  -13.8383   19.5409 C   0  0  0  0  0  0  0  0  0  0  0  0
  -25.4102  -30.5325   23.7827 C   0  0  0  0  0  0  0  0  0  0  0  0
  -30.1688  -24.5783   17.1139 C   0  0  0  0  0  0  0  0  0  0  0  0
  -27.2947  -30.6522   22.1112 C   0  0  0  0  0  0  0  0  0  0  0  0
  -26.1333  -28.5037   22.4407 C   0  0  0  0  0  0  0  0  0  0  0  0
  -31.6793  -30.5221   19.5043 C   0  0  0  0  0  0  0  0  0  0  0  0
  -25.6952  -14.3329   19.8754 C   0  0  1  0  0  0  0  0  0  0  0  0
  -31.1267  -24.9981   18.2078 C   0  0  2  0  0  0  0  0  0  0  0  0
  -25.4036  -17.6100   21.7751 C   0  0  1  0  0  0  0  0  0  0  0  0
  -29.8297  -24.2934   18.5468 C   0  0  2  0  0  0  0  0  0  0  0  0
  -25.5312  -28.9971   23.7689 C   0  0  2  0  0  0  0  0  0  0  0  0
  -20.0964  -22.8655   23.8284 C   0  0  0  0  0  0  0  0  0  0  0  0
  -21.4510  -18.1014   19.4308 C   0  0  0  0  0  0  0  0  0  0  0  0
  -20.0124  -20.0262   20.1334 C   0  0  0  0  0  0  0  0  0  0  0  0
  -20.1675  -17.9961   21.5746 C   0  0  0  0  0  0  0  0  0  0  0  0
  -23.7568  -22.8088   24.8649 C   0  0  0  0  0  0  0  0  0  0  0  0
  -31.0045  -28.5064   21.5212 C   0  0  0  0  0  0  0  0  0  0  0  0
  -29.8496  -22.8934   19.0564 C   0  0  0  0  0  0  0  0  0  1  0  0
  -22.1393  -19.5726   21.4378 C   0  0  1  0  0  0  0  0  0  0  0  0
  -21.4670  -22.2426   24.0432 C   0  0  2  0  0  0  0  0  0  0  0  0
  -20.9706  -18.9275   20.6406 C   0  0  0  0  0  0  0  0  0  0  0  0
  -23.1720  -28.5156   23.2355 N   0  0  0  0  0  0  0  0  0  0  0  0
  -31.0820  -26.8038   19.8176 N   0  0  0  0  0  0  0  0  0  0  0  0
  -24.2049  -28.3259   24.0741 N   0  0  0  0  0  0  0  0  0  0  0  0
  -24.4472  -18.6809   21.4876 N   0  0  0  0  0  0  0  0  0  0  0  0
  -27.4023  -29.1876   22.1706 N   0  0  0  0  0  0  0  0  0  0  0  0
  -24.8368  -27.2248   26.0738 N   0  0  0  0  0  0  0  0  0  0  0  0
  -20.5102  -26.0390   25.5539 N   0  0  0  0  0  0  0  0  0  0  0  0
  -25.6416  -15.3744   20.8788 N   0  0  0  0  0  0  0  0  0  0  0  0
  -21.7155  -20.3385   22.6048 N   0  0  0  0  0  0  0  0  0  0  0  0
  -29.7261  -29.1499   21.7274 N   0  0  0  0  0  0  0  0  0  0  0  0
  -22.3793  -23.2893   24.5847 N   0  3  0  0  0  0  0  0  0  0  0  0
  -22.3521  -25.8187   26.9021 O   0  0  0  0  0  0  0  0  0  0  0  0
  -25.2455  -17.1773   19.4593 O   0  0  0  0  0  0  0  0  0  0  0  0
  -22.7433  -17.6663   22.7137 O   0  0  0  0  0  0  0  0  0  0  0  0
  -22.6660  -22.3492   21.9483 O   0  0  0  0  0  0  0  0  0  0  0  0
  -28.5782  -27.1923   22.0515 O   0  0  0  0  0  0  0  0  0  0  0  0
  -17.1448  -27.5979   21.3970 O   0  0  0  0  0  0  0  0  0  0  0  0
  -28.6401  -22.2333   18.6852 O   0  0  0  0  0  0  0  0  0  1  0  0
  -14.6897  -22.6772   20.9927 F   0  0  0  0  0  0  0  0  0  0  0  0
  -16.5631  -26.1132   23.6554 F   0  0  0  0  0  0  0  0  0  0  0  0
  1  2  1  0  0  0  0
  1  5  2  0  0  0  0
  2  6  2  0  0  0  0
  3  9  2  0  0  0  0
  3 17  1  0  0  0  0
  4 10  1  0  0  0  0
  4 17  2  0  0  0  0
  5 19  1  0  0  0  0
  6 21  1  0  0  0  0
  7 11  2  0  0  0  0
  7 20  1  0  0  0  0
  8 14  2  0  0  0  0
  8 22  1  0  0  0  0
  9 24  1  0  0  0  0
 10 24  2  0  0  0  0
 11 25  1  0  0  0  0
 12 13  2  0  0  0  0
 12 26  1  0  0  0  0
 13 27  1  0  0  0  0
 14 30  1  0  0  0  0
 15 23  1  0  0  0  0
 15 25  2  0  0  0  0
 16 27  2  0  0  0  0
 16 28  1  0  0  0  0
 17 29  1  0  0  0  0
 18 29  1  0  0  0  0
 18 32  2  0  0  0  0
 18 33  1  0  0  0  0
 19 21  2  0  0  0  0
 19 38  1  0  0  0  0
 20 23  2  0  0  0  0
 20 39  1  0  0  0  0
 21 51  1  0  0  0  0
 22 31  2  0  0  0  0
 22 50  1  0  0  0  0
 23 40  1  0  0  0  0
 24 82  1  0  0  0  0
 25 83  1  0  0  0  0
 26 28  2  0  0  0  0
 26 82  1  0  0  0  0
 27 84  1  0  0  0  0
 28 85  1  0  0  0  0
 29 66  2  0  0  0  0
 30 52  1  0  0  0  0
 30 67  2  0  0  0  0
 31 61  1  0  0  0  0
 31 67  1  0  0  0  0
 32 68  1  0  0  0  0
 32 71  1  0  0  0  0
 33 72  1  0  0  0  0
 33 77  2  0  0  0  0
 34 53  1  0  0  0  0
 34 73  1  0  0  0  0
 34 78  2  0  0  0  0
 35 63  1  0  0  0  0
 35 69  1  0  0  0  0
 35 79  2  0  0  0  0
 36 64  1  0  0  0  0
 36 74  1  0  0  0  0
 36 80  2  0  0  0  0
 37 70  1  0  0  0  0
 37 75  1  0  0  0  0
 37 81  2  0  0  0  0
 38 41  1  0  0  0  0
 39 53  1  0  0  0  0
 40 69  1  0  0  0  0
 41 45  1  0  0  0  0
 42 46  1  0  0  0  0
 42 48  1  0  0  0  0
 43 44  1  0  0  0  0
 43 50  1  0  0  0  0
 44 50  1  0  0  0  0
 45 51  1  0  0  0  0
 46 55  1  0  0  0  0
 47 52  1  0  0  0  0
 47 54  1  0  0  0  0
 48 70  1  0  0  0  0
 49 55  1  0  0  0  0
 49 70  1  0  0  0  0
 51 73  1  0  0  0  0
 52 54  1  0  0  0  0
 53 69  1  0  0  0  0
 54 62  1  0  0  0  0
 55 68  1  0  0  0  0
 56 64  1  0  0  0  0
 57 65  1  0  0  0  0
 58 65  1  0  0  0  0
 59 65  1  0  0  0  0
 60 76  1  0  0  0  0
 61 75  1  0  0  0  0
 62 83  1  0  0  0  0
 63 65  1  0  0  0  0
 63 74  1  0  0  0  0
 64 76  1  0  0  0  0
 66 68  1  0  0  0  0
M  CHG  1  76   1
M  ISO  4  37 100  62 101  75 100  83 101
M  END
> <Batch ID>
0170

> <Smiles>
CNC(C)C(=O)NC(C(=O)N1Cc2cc([101O:1][101CH2:1]C3CC3c3ccc(C4CC4)c(C[100NH:0][100C:0](=O)N4CCCC(n5nc(-c6ccc(Oc7ccc(F)cc7F)cc6)c(C(N)=O)c5N)C4)n3)ccc2CC1C(=O)NC1CCCc2ccccc21)C(C)(C)C

> <Shape>
0.214

> <Color>
0.076

> <Negative vol penalty>
0.000

$$$$

  -OEChem-04052322353D

 83 92  0     1  0  0  0  0  0999 V2000
  -16.7682  -30.5797   24.0616 C   0  0  0  0  0  0  0  0  0  0  0  0
  -17.3763  -29.4793   24.6572 C   0  0  0  0  0  0  0  0  0  0  0  0
  -23.1770   -9.7726   21.5150 C   0  0  0  0  0  0  0  0  0  0  0  0
  -23.7896  -10.9131   23.5548 C   0  0  0  0  0  0  0  0  0  0  0  0
  -17.2468  -31.0658   22.8457 C   0  0  0  0  0  0  0  0  0  0  0  0
  -18.4627  -28.8637   24.0366 C   0  0  0  0  0  0  0  0  0  0  0  0
  -24.5471  -25.4081   25.5714 C   0  0  0  0  0  0  0  0  0  0  0  0
  -22.4710   -8.8254   22.2565 C   0  0  0  0  0  0  0  0  0  0  0  0
  -23.0835   -9.9659   24.2964 C   0  0  0  0  0  0  0  0  0  0  0  0
  -25.2178  -24.2231   25.2717 C   0  0  0  0  0  0  0  0  0  0  0  0
  -23.1712   -6.0851   24.1072 C   0  0  0  0  0  0  0  0  0  0  0  0
  -23.3430   -4.7420   23.7727 C   0  0  0  0  0  0  0  0  0  0  0  0
  -27.7743  -19.2090   22.1848 C   0  0  0  0  0  0  0  0  0  0  0  0
  -26.0084  -25.1985   23.2120 C   0  0  0  0  0  0  0  0  0  0  0  0
  -20.9804   -4.5569   23.3026 C   0  0  0  0  0  0  0  0  0  0  0  0
  -23.8363  -10.8164   22.1641 C   0  0  0  0  0  0  0  0  0  0  0  0
  -24.0721  -13.0032   20.8717 C   0  0  0  0  0  0  0  0  0  0  0  0
  -18.3456  -30.4618   22.2146 C   0  0  0  0  0  0  0  0  0  0  0  0
  -24.5932  -26.4953   24.6868 C   0  0  0  0  0  0  0  0  0  0  0  0
  -18.9555  -29.3414   22.8104 C   0  0  0  0  0  0  0  0  0  0  0  0
  -29.1594  -19.1483   22.0789 C   0  0  0  0  0  0  0  0  0  0  0  0
  -25.3396  -26.3971   23.5039 C   0  0  0  0  0  0  0  0  0  0  0  0
  -27.1483  -20.4399   22.3469 C   0  0  0  0  0  0  0  0  0  0  0  0
  -22.4242   -8.9220   23.6472 C   0  0  0  0  0  0  0  0  0  0  0  0
  -25.9462  -24.1172   24.0905 C   0  0  0  0  0  0  0  0  0  0  0  0
  -21.9040   -6.6642   24.0395 C   0  0  0  0  0  0  0  0  0  0  0  0
  -22.2476   -3.9778   23.3704 C   0  0  0  0  0  0  0  0  0  0  0  0
  -20.8086   -5.9001   23.6372 C   0  0  0  0  0  0  0  0  0  0  0  0
  -24.5663  -11.7949   21.3987 C   0  0  0  0  0  0  0  0  0  0  0  0
  -29.8672  -20.3378   22.1407 C   0  0  0  0  0  0  0  0  0  0  0  0
  -27.9462  -21.5716   22.3968 C   0  0  0  0  0  0  0  0  0  0  0  0
  -25.1505  -13.5662   20.2341 C   0  0  0  0  0  0  0  0  0  0  0  0
  -22.7560  -13.5663   20.9516 C   0  0  0  0  0  0  0  0  0  0  0  0
  -22.4342  -28.1108   23.0038 C   0  0  0  0  0  0  0  0  0  0  0  0
  -24.9694  -30.0116   22.3095 C   0  0  0  0  0  0  0  0  0  0  0  0
  -28.3549  -30.3380   22.0291 C   0  0  0  0  0  0  0  0  0  0  0  0
  -30.6357  -14.8939   20.3235 C   0  0  0  0  0  0  0  0  0  0  0  0
  -18.7975  -30.9937   20.8776 C   0  0  0  0  0  0  0  0  0  0  0  0
  -23.8862  -27.7758   25.0374 C   0  0  0  0  0  0  0  0  0  0  0  0
  -25.4374  -27.5423   22.5306 C   0  0  0  0  0  0  0  0  0  0  0  0
  -20.1889  -30.5156   20.4705 C   0  0  0  0  0  0  0  0  0  0  0  0
  -29.6664  -11.6680   19.0638 C   0  0  0  0  0  0  0  0  0  0  0  0
  -20.3248  -29.0133   20.6977 C   0  0  0  0  0  0  0  0  0  0  0  0
  -28.2356  -11.4841   19.5589 C   0  0  0  0  0  0  0  0  0  0  0  0
  -30.4975  -12.4426   20.0778 C   0  0  0  0  0  0  0  0  0  0  0  0
  -29.0248  -16.4868   21.6379 C   0  0  0  0  0  0  0  0  0  0  0  0
  -30.5767  -17.4360   20.5497 C   0  0  0  0  0  0  0  0  0  0  0  0
  -28.4824  -13.6416   20.8876 C   0  0  0  0  0  0  0  0  0  0  0  0
  -29.8824  -17.7496   21.8951 C   0  0  0  0  0  0  0  0  0  0  0  0
  -20.1519  -28.6617   22.1803 C   0  0  1  0  0  0  0  0  0  0  0  0
  -23.5791  -28.6415   23.8193 C   0  0  1  0  0  0  0  0  0  0  0  0
  -27.6073  -12.8424   19.9018 C   0  0  2  0  0  0  0  0  0  0  0  0
  -25.6648  -20.5114   22.4620 C   0  0  0  0  0  0  0  0  0  0  0  0
  -31.3566  -20.3304   22.0321 C   0  0  0  0  0  0  0  0  0  0  0  0
  -30.1288  -31.9998   21.4053 C   0  0  0  0  0  0  0  0  0  0  0  0
  -24.2964  -29.6189   19.3594 C   0  0  0  0  0  0  0  0  0  0  0  0
  -26.5817  -30.4724   18.7963 C   0  0  0  0  0  0  0  0  0  0  0  0
  -24.9563  -31.9507   19.9775 C   0  0  0  0  0  0  0  0  0  0  0  0
  -29.5783  -30.2172   24.7213 C   0  0  0  0  0  0  0  0  0  0  0  0
  -27.3283  -22.9206   22.5694 C   0  0  0  0  0  0  0  0  0  1  0  0
  -26.0258  -30.0333   21.2312 C   0  0  1  0  0  0  0  0  0  0  0  0
  -29.3099  -31.4022   22.5389 C   0  0  2  0  0  0  0  0  0  0  0  0
  -25.4618  -30.4964   19.8583 C   0  0  0  0  0  0  0  0  0  0  0  0
  -25.8580  -11.6008   21.1198 N   0  0  0  0  0  0  0  0  0  0  0  0
  -29.2943  -21.5522   22.2974 N   0  0  0  0  0  0  0  0  0  0  0  0
  -26.1847  -12.6947   20.4107 N   0  0  0  0  0  0  0  0  0  0  0  0
  -24.7236  -28.7711   22.9150 N   0  0  0  0  0  0  0  0  0  0  0  0
  -29.8786  -13.7224   20.4363 N   0  0  0  0  0  0  0  0  0  0  0  0
  -30.0538  -16.0830   20.6949 N   0  0  0  0  0  0  0  0  0  0  0  0
  -25.3055  -14.7167   19.5452 N   0  0  0  0  0  0  0  0  0  0  0  0
  -21.7664  -12.8562   21.6449 N   0  0  0  0  0  0  0  0  0  0  0  0
  -21.3577  -28.9729   22.9175 N   0  0  0  0  0  0  0  0  0  0  0  0
  -27.1126  -30.8623   21.7412 N   0  0  0  0  0  0  0  0  0  0  0  0
  -30.2479  -30.8198   23.5399 N   0  3  0  0  0  0  0  0  0  0  0  0
  -22.4620  -14.6588   20.4098 O   0  0  0  0  0  0  0  0  0  0  0  0
  -22.5216  -27.0019   22.4896 O   0  0  0  0  0  0  0  0  0  0  0  0
  -24.3890  -31.0582   22.6086 O   0  0  0  0  0  0  0  0  0  0  0  0
  -28.6797  -29.1601   21.8959 O   0  0  0  0  0  0  0  0  0  0  0  0
  -31.8098  -14.8774   19.9305 O   0  0  0  0  0  0  0  0  0  0  0  0
  -21.7352   -7.9981   24.3712 O   0  0  0  0  0  0  0  0  0  0  0  0
  -26.6059  -22.9532   23.7932 O   0  0  0  0  0  0  0  0  0  1  0  0
  -22.4130   -2.6884   23.0477 F   0  0  0  0  0  0  0  0  0  0  0  0
  -19.5890   -6.4512   23.5690 F   0  0  0  0  0  0  0  0  0  0  0  0
  1  2  1  0  0  0  0
  1  5  2  0  0  0  0
  2  6  2  0  0  0  0
  3  8  2  0  0  0  0
  3 16  1  0  0  0  0
  4  9  1  0  0  0  0
  4 16  2  0  0  0  0
  5 18  1  0  0  0  0
  6 20  1  0  0  0  0
  7 10  2  0  0  0  0
  7 19  1  0  0  0  0
  8 24  1  0  0  0  0
  9 24  2  0  0  0  0
 10 25  1  0  0  0  0
 11 12  2  0  0  0  0
 11 26  1  0  0  0  0
 12 27  1  0  0  0  0
 13 21  2  0  0  0  0
 13 23  1  0  0  0  0
 14 22  1  0  0  0  0
 14 25  2  0  0  0  0
 15 27  2  0  0  0  0
 15 28  1  0  0  0  0
 16 29  1  0  0  0  0
 17 29  1  0  0  0  0
 17 32  2  0  0  0  0
 17 33  1  0  0  0  0
 18 20  2  0  0  0  0
 18 38  1  0  0  0  0
 19 22  2  0  0  0  0
 19 39  1  0  0  0  0
 20 50  1  0  0  0  0
 21 30  1  0  0  0  0
 21 49  1  0  0  0  0
 22 40  1  0  0  0  0
 23 31  2  0  0  0  0
 23 53  1  0  0  0  0
 24 80  1  0  0  0  0
 25 81  1  0  0  0  0
 26 28  2  0  0  0  0
 26 80  1  0  0  0  0
 27 82  1  0  0  0  0
 28 83  1  0  0  0  0
 29 64  2  0  0  0  0
 30 54  1  0  0  0  0
 30 65  2  0  0  0  0
 31 60  1  0  0  0  0
 31 65  1  0  0  0  0
 32 66  1  0  0  0  0
 32 70  1  0  0  0  0
 33 71  1  0  0  0  0
 33 75  2  0  0  0  0
 34 51  1  0  0  0  0
 34 72  1  0  0  0  0
 34 76  2  0  0  0  0
 35 61  1  0  0  0  0
 35 67  1  0  0  0  0
 35 77  2  0  0  0  0
 36 62  1  0  0  0  0
 36 73  1  0  0  0  0
 36 78  2  0  0  0  0
 37 68  1  0  0  0  0
 37 69  1  0  0  0  0
 37 79  2  0  0  0  0
 38 41  1  0  0  0  0
 39 51  1  0  0  0  0
 40 67  1  0  0  0  0
 41 43  1  0  0  0  0
 42 44  1  0  0  0  0
 42 45  1  0  0  0  0
 43 50  1  0  0  0  0
 44 52  1  0  0  0  0
 45 68  1  0  0  0  0
 46 49  1  0  0  0  0
 46 69  1  0  0  0  0
 47 49  1  0  0  0  0
 47 69  1  0  0  0  0
 48 52  1  0  0  0  0
 48 68  1  0  0  0  0
 50 72  1  0  0  0  0
 51 67  1  0  0  0  0
 52 66  1  0  0  0  0
 55 62  1  0  0  0  0
 56 63  1  0  0  0  0
 57 63  1  0  0  0  0
 58 63  1  0  0  0  0
 59 74  1  0  0  0  0
 60 81  1  0  0  0  0
 61 63  1  0  0  0  0
 61 73  1  0  0  0  0
 62 74  1  0  0  0  0
 64 66  1  0  0  0  0
M  CHG  1  74   1
M  ISO  4  37 100  60 101  69 100  81 101
M  END
> <Batch ID>
0170

> <Smiles>
CNC(C)C(=O)NC(C(=O)N1Cc2cc([101O:1][101CH2:1]c3nc(C)c(C4C[100N:0]([100C:0](=O)N5CCCC(n6nc(-c7ccc(Oc8ccc(F)cc8F)cc7)c(C(N)=O)c6N)C5)C4)cc3C)ccc2CC1C(=O)NC1CCCc2ccccc21)C(C)(C)C

> <Shape>
0.280

> <Color>
0.176

> <Negative vol penalty>
0.000

$$$$

  -OEChem-04052322353D

 86 95  0     1  0  0  0  0  0999 V2000
  -23.4691  -17.7575   23.7254 C   0  0  0  0  0  0  0  0  0  0  0  0
  -24.0963  -18.9302   23.3167 C   0  0  0  0  0  0  0  0  0  0  0  0
  -26.1858  -13.7667   21.7993 C   0  0  0  0  0  0  0  0  0  0  0  0
  -25.1264  -15.0789   20.0693 C   0  0  0  0  0  0  0  0  0  0  0  0
  -22.1015  -17.5891   23.5127 C   0  0  0  0  0  0  0  0  0  0  0  0
  -23.3563  -19.9347   22.6941 C   0  0  0  0  0  0  0  0  0  0  0  0
  -24.4448  -24.5442   24.4866 C   0  0  0  0  0  0  0  0  0  0  0  0
  -25.0750  -12.9241   21.8404 C   0  0  0  0  0  0  0  0  0  0  0  0
  -24.0156  -14.2363   20.1104 C   0  0  0  0  0  0  0  0  0  0  0  0
  -25.6212  -25.1412   24.0357 C   0  0  0  0  0  0  0  0  0  0  0  0
  -23.8288  -10.3551   20.0292 C   0  0  0  0  0  0  0  0  0  0  0  0
  -24.0593   -8.9799   20.0625 C   0  0  0  0  0  0  0  0  0  0  0  0
  -24.3451  -26.4572   22.4676 C   0  0  0  0  0  0  0  0  0  0  0  0
  -29.5730  -26.1418   21.5014 C   0  0  0  0  0  0  0  0  0  0  0  0
  -22.9012   -8.8369   22.1780 C   0  0  0  0  0  0  0  0  0  0  0  0
  -26.2115  -14.8442   20.9138 C   0  0  0  0  0  0  0  0  0  0  0  0
  -28.5030  -15.5750   20.0638 C   0  0  0  0  0  0  0  0  0  0  0  0
  -21.3426  -18.5961   22.8958 C   0  0  0  0  0  0  0  0  0  0  0  0
  -23.2088  -24.8918   23.9229 C   0  0  0  0  0  0  0  0  0  0  0  0
  -21.9775  -19.7791   22.4718 C   0  0  0  0  0  0  0  0  0  0  0  0
  -23.1542  -25.8650   22.9149 C   0  0  0  0  0  0  0  0  0  0  0  0
  -28.8945  -27.0780   20.7428 C   0  0  0  0  0  0  0  0  0  0  0  0
  -28.9788  -27.0485   19.3488 C   0  0  0  0  0  0  0  0  0  0  0  0
  -23.9899  -13.1589   20.9959 C   0  0  0  0  0  0  0  0  0  0  0  0
  -25.5718  -26.0958   23.0240 C   0  0  0  0  0  0  0  0  0  0  0  0
  -23.1346  -10.9714   21.0704 C   0  0  0  0  0  0  0  0  0  0  0  0
  -23.5954   -8.2208   21.1369 C   0  0  0  0  0  0  0  0  0  0  0  0
  -22.6707  -10.2123   22.1448 C   0  0  0  0  0  0  0  0  0  0  0  0
  -27.3584  -15.7153   20.8713 C   0  0  0  0  0  0  0  0  0  0  0  0
  -30.3212  -25.2041   20.8038 C   0  0  0  0  0  0  0  0  0  0  0  0
  -29.7365  -26.0731   18.7429 C   0  0  0  0  0  0  0  0  0  0  0  0
  -29.2910  -16.6500   20.3954 C   0  0  0  0  0  0  0  0  0  0  0  0
  -28.8250  -14.5635   19.1000 C   0  0  0  0  0  0  0  0  0  0  0  0
  -20.9572  -23.3270   22.3151 C   0  0  0  0  0  0  0  0  0  0  0  0
  -19.3516  -26.1309   22.6021 C   0  0  0  0  0  0  0  0  0  0  0  0
  -19.4821  -29.5111   23.0541 C   0  0  0  0  0  0  0  0  0  0  0  0
  -29.8746  -22.0086   21.3397 C   0  0  0  0  0  0  0  0  0  0  0  0
  -19.8761  -18.3490   22.6447 C   0  0  0  0  0  0  0  0  0  0  0  0
  -21.9461  -24.2580   24.4390 C   0  0  0  0  0  0  0  0  0  0  0  0
  -28.1444  -28.1136   18.7223 C   0  0  0  0  0  0  0  0  0  0  0  0
  -21.8504  -26.2880   22.2908 C   0  0  0  0  0  0  0  0  0  0  0  0
  -19.0923  -19.6170   22.3157 C   0  0  0  0  0  0  0  0  0  0  0  0
  -27.9483  -29.0660   19.9130 C   0  0  0  0  0  0  0  0  0  0  0  0
  -28.8896  -19.9876   24.1757 C   0  0  0  0  0  0  0  0  0  0  0  0
  -19.8389  -20.4526   21.2808 C   0  0  0  0  0  0  0  0  0  0  0  0
  -28.4962  -18.6764   23.4929 C   0  0  0  0  0  0  0  0  0  0  0  0
  -28.4796  -21.1932   23.3353 C   0  0  0  0  0  0  0  0  0  0  0  0
  -28.6187  -19.8735   21.2586 C   0  0  0  0  0  0  0  0  0  0  0  0
  -21.2041  -20.9021   21.8153 C   0  0  1  0  0  0  0  0  0  0  0  0
  -20.7970  -24.3134   23.4371 C   0  0  1  0  0  0  0  0  0  0  0  0
  -29.0262  -18.6161   22.0480 C   0  0  2  0  0  0  0  0  0  0  0  0
  -27.9868  -28.1958   21.1996 C   0  0  2  0  0  0  0  0  0  0  0  0
  -28.5490  -28.9915   22.3801 C   0  0  0  0  0  0  0  0  0  0  0  0
  -29.2679  -24.6721   16.7005 C   0  0  0  0  0  0  0  0  0  0  0  0
  -31.2727  -26.1997   16.7484 C   0  0  0  0  0  0  0  0  0  0  0  0
  -18.0084  -31.5366   23.2057 C   0  0  0  0  0  0  0  0  0  0  0  0
  -18.9784  -26.0830   19.5742 C   0  0  0  0  0  0  0  0  0  0  0  0
  -18.3738  -28.5102   19.6802 C   0  0  0  0  0  0  0  0  0  0  0  0
  -16.9663  -26.8233   20.8617 C   0  0  0  0  0  0  0  0  0  0  0  0
  -20.3756  -30.0979   25.8139 C   0  0  0  0  0  0  0  0  0  0  0  0
  -31.0769  -24.1672   21.5675 C   0  0  0  0  0  0  0  0  0  0  0  0
  -26.5945  -27.6497   21.5424 C   0  0  0  0  0  0  0  0  0  1  0  0
  -29.8333  -25.9926   17.2580 C   0  0  0  0  0  0  0  0  0  0  0  0
  -19.2510  -27.3941   21.7816 C   0  0  1  0  0  0  0  0  0  0  0  0
  -18.7119  -30.4338   23.9814 C   0  0  2  0  0  0  0  0  0  0  0  0
  -18.4173  -27.1935   20.4846 C   0  0  0  0  0  0  0  0  0  0  0  0
  -27.4107  -16.7942   21.6569 N   0  0  0  0  0  0  0  0  0  0  0  0
  -30.4208  -25.1447   19.4489 N   0  0  0  0  0  0  0  0  0  0  0  0
  -28.5977  -17.3416   21.3447 N   0  0  0  0  0  0  0  0  0  0  0  0
  -20.6439  -25.6349   22.8251 N   0  0  0  0  0  0  0  0  0  0  0  0
  -29.0316  -21.0834   21.9776 N   0  0  0  0  0  0  0  0  0  0  0  0
  -30.5025  -17.0615   19.9648 N   0  0  0  0  0  0  0  0  0  0  0  0
  -27.9031  -13.5306   18.8821 N   0  0  0  0  0  0  0  0  0  0  0  0
  -21.0479  -22.0122   22.7306 N   0  0  0  0  0  0  0  0  0  0  0  0
  -18.7272  -28.4210   22.6757 N   0  0  0  0  0  0  0  0  0  0  0  0
  -30.2128  -23.1304   22.0866 N   0  0  0  0  0  0  0  0  0  0  0  0
  -19.6345  -31.0667   24.9659 N   0  3  0  0  0  0  0  0  0  0  0  0
  -29.9058  -14.5663   18.4632 O   0  0  0  0  0  0  0  0  0  0  0  0
  -20.9941  -23.7288   21.1580 O   0  0  0  0  0  0  0  0  0  0  0  0
  -18.3220  -25.6076   23.0354 O   0  0  0  0  0  0  0  0  0  0  0  0
  -20.6365  -29.7368   22.6979 O   0  0  0  0  0  0  0  0  0  0  0  0
  -30.2992  -21.8445   20.1909 O   0  0  0  0  0  0  0  0  0  0  0  0
  -22.9059  -12.3367   21.0356 O   0  0  0  0  0  0  0  0  0  0  0  0
  -26.7186  -26.6796   22.5816 O   0  0  0  0  0  0  0  0  0  1  0  0
  -23.8155   -6.8999   21.1679 F   0  0  0  0  0  0  0  0  0  0  0  0
  -22.0022  -10.7984   23.1474 F   0  0  0  0  0  0  0  0  0  0  0  0
  1  2  1  0  0  0  0
  1  5  2  0  0  0  0
  2  6  2  0  0  0  0
  3  8  2  0  0  0  0
  3 16  1  0  0  0  0
  4  9  1  0  0  0  0
  4 16  2  0  0  0  0
  5 18  1  0  0  0  0
  6 20  1  0  0  0  0
  7 10  2  0  0  0  0
  7 19  1  0  0  0  0
  8 24  1  0  0  0  0
  9 24  2  0  0  0  0
 10 25  1  0  0  0  0
 11 12  2  0  0  0  0
 11 26  1  0  0  0  0
 12 27  1  0  0  0  0
 13 21  1  0  0  0  0
 13 25  2  0  0  0  0
 14 22  2  0  0  0  0
 14 30  1  0  0  0  0
 15 27  2  0  0  0  0
 15 28  1  0  0  0  0
 16 29  1  0  0  0  0
 17 29  1  0  0  0  0
 17 32  2  0  0  0  0
 17 33  1  0  0  0  0
 18 20  2  0  0  0  0
 18 38  1  0  0  0  0
 19 21  2  0  0  0  0
 19 39  1  0  0  0  0
 20 49  1  0  0  0  0
 21 41  1  0  0  0  0
 22 23  1  0  0  0  0
 22 52  1  0  0  0  0
 23 31  2  0  0  0  0
 23 40  1  0  0  0  0
 24 83  1  0  0  0  0
 25 84  1  0  0  0  0
 26 28  2  0  0  0  0
 26 83  1  0  0  0  0
 27 85  1  0  0  0  0
 28 86  1  0  0  0  0
 29 67  2  0  0  0  0
 30 61  1  0  0  0  0
 30 68  2  0  0  0  0
 31 63  1  0  0  0  0
 31 68  1  0  0  0  0
 32 69  1  0  0  0  0
 32 72  1  0  0  0  0
 33 73  1  0  0  0  0
 33 78  2  0  0  0  0
 34 50  1  0  0  0  0
 34 74  1  0  0  0  0
 34 79  2  0  0  0  0
 35 64  1  0  0  0  0
 35 70  1  0  0  0  0
 35 80  2  0  0  0  0
 36 65  1  0  0  0  0
 36 75  1  0  0  0  0
 36 81  2  0  0  0  0
 37 71  1  0  0  0  0
 37 76  1  0  0  0  0
 37 82  2  0  0  0  0
 38 42  1  0  0  0  0
 39 50  1  0  0  0  0
 40 43  1  0  0  0  0
 41 70  1  0  0  0  0
 42 45  1  0  0  0  0
 43 52  1  0  0  0  0
 44 46  1  0  0  0  0
 44 47  1  0  0  0  0
 45 49  1  0  0  0  0
 46 51  1  0  0  0  0
 47 71  1  0  0  0  0
 48 51  1  0  0  0  0
 48 71  1  0  0  0  0
 49 74  1  0  0  0  0
 50 70  1  0  0  0  0
 51 69  1  0  0  0  0
 52 53  1  0  0  0  0
 52 62  1  0  0  0  0
 54 63  1  0  0  0  0
 55 63  1  0  0  0  0
 56 65  1  0  0  0  0
 57 66  1  0  0  0  0
 58 66  1  0  0  0  0
 59 66  1  0  0  0  0
 60 77  1  0  0  0  0
 61 76  1  0  0  0  0
 62 84  1  0  0  0  0
 64 66  1  0  0  0  0
 64 75  1  0  0  0  0
 65 77  1  0  0  0  0
 67 69  1  0  0  0  0
M  CHG  1  77   1
M  ISO  4  37 100  62 101  76 100  84 101
M  END
> <Batch ID>
0170

> <Smiles>
CNC(C)C(=O)NC(C(=O)N1Cc2cc([101O:1][101CH2:1]C3(C)CCc4c3cc(C[100NH:0][100C:0](=O)N3CCCC(n5nc(-c6ccc(Oc7ccc(F)cc7F)cc6)c(C(N)=O)c5N)C3)nc4C(C)C)ccc2CC1C(=O)NC1CCCc2ccccc21)C(C)(C)C

> <Shape>
0.235

> <Color>
0.047

> <Negative vol penalty>
0.000

$$$$

  -OEChem-04052322353D

 88 98  0     1  0  0  0  0  0999 V2000
  -32.1779  -14.5973   20.8915 C   0  0  0  0  0  0  0  0  0  0  0  0
  -31.1639  -15.5278   21.0948 C   0  0  0  0  0  0  0  0  0  0  0  0
  -26.1562  -32.1147   23.3097 C   0  0  0  0  0  0  0  0  0  0  0  0
  -26.8162  -32.3134   20.9941 C   0  0  0  0  0  0  0  0  0  0  0  0
  -31.8839  -13.3622   20.3153 C   0  0  0  0  0  0  0  0  0  0  0  0
  -29.8553  -15.2241   20.7209 C   0  0  0  0  0  0  0  0  0  0  0  0
  -26.4731  -16.5207   24.2599 C   0  0  0  0  0  0  0  0  0  0  0  0
  -26.2043  -33.5024   23.4425 C   0  0  0  0  0  0  0  0  0  0  0  0
  -26.8642  -33.7011   21.1269 C   0  0  0  0  0  0  0  0  0  0  0  0
  -26.1277  -17.8686   24.3471 C   0  0  0  0  0  0  0  0  0  0  0  0
  -24.2570  -36.1498   22.6472 C   0  0  0  0  0  0  0  0  0  0  0  0
  -23.2002  -36.7746   23.3092 C   0  0  0  0  0  0  0  0  0  0  0  0
  -26.1518  -19.9702   20.7692 C   0  0  0  0  0  0  0  0  0  0  0  0
  -26.7154  -22.2642   20.2626 C   0  0  0  0  0  0  0  0  0  0  0  0
  -24.1073  -17.4249   23.1060 C   0  0  0  0  0  0  0  0  0  0  0  0
  -24.7429  -37.6402   24.9549 C   0  0  0  0  0  0  0  0  0  0  0  0
  -26.4622  -31.5202   22.0855 C   0  0  0  0  0  0  0  0  0  0  0  0
  -25.3056  -29.3068   21.5650 C   0  0  0  0  0  0  0  0  0  0  0  0
  -30.5694  -13.0395   19.9430 C   0  0  0  0  0  0  0  0  0  0  0  0
  -25.6421  -15.6152   23.5846 C   0  0  0  0  0  0  0  0  0  0  0  0
  -29.5436  -13.9840   20.1380 C   0  0  0  0  0  0  0  0  0  0  0  0
  -25.9272  -21.3359   20.9427 C   0  0  0  0  0  0  0  0  0  0  0  0
  -24.4431  -16.0656   23.0139 C   0  0  0  0  0  0  0  0  0  0  0  0
  -27.9529  -20.4612   19.2355 C   0  0  0  0  0  0  0  0  0  0  0  0
  -27.1647  -19.5329   19.9156 C   0  0  0  0  0  0  0  0  0  0  0  0
  -27.7283  -21.8269   19.4090 C   0  0  0  0  0  0  0  0  0  0  0  0
  -26.5583  -34.2956   22.3511 C   0  0  0  0  0  0  0  0  0  0  0  0
  -24.9461  -18.3214   23.7676 C   0  0  0  0  0  0  0  0  0  0  0  0
  -25.5568  -36.2700   23.1391 C   0  0  0  0  0  0  0  0  0  0  0  0
  -23.4431  -37.5198   24.4630 C   0  0  0  0  0  0  0  0  0  0  0  0
  -25.7997  -37.0153   24.2929 C   0  0  0  0  0  0  0  0  0  0  0  0
  -26.4133  -30.0868   21.9479 C   0  0  0  0  0  0  0  0  0  0  0  0
  -25.7716  -28.0150   21.5861 C   0  0  0  0  0  0  0  0  0  0  0  0
  -23.9745  -29.7137   21.2210 C   0  0  0  0  0  0  0  0  0  0  0  0
  -25.9677  -13.7431   21.0365 C   0  0  0  0  0  0  0  0  0  0  0  0
  -23.0360  -12.6789   21.9282 C   0  0  0  0  0  0  0  0  0  0  0  0
  -20.1156  -13.2832   23.5875 C   0  0  0  0  0  0  0  0  0  0  0  0
  -29.7056  -24.2402   20.3943 C   0  0  0  0  0  0  0  0  0  0  0  0
  -30.3082  -11.7101   19.2803 C   0  0  0  0  0  0  0  0  0  0  0  0
  -26.0157  -14.1596   23.5225 C   0  0  0  0  0  0  0  0  0  0  0  0
  -23.5065  -15.1303   22.2953 C   0  0  0  0  0  0  0  0  0  0  0  0
  -28.8323  -11.3211   19.2561 C   0  0  0  0  0  0  0  0  0  0  0  0
  -30.0851  -26.1002   23.4064 C   0  0  0  0  0  0  0  0  0  0  0  0
  -29.0419  -20.4637   16.8929 C   0  0  0  0  0  0  0  0  0  0  0  0
  -28.6941  -19.0422   17.2069 C   0  0  0  0  0  0  0  0  0  0  0  0
  -27.9771  -12.4994   18.8010 C   0  0  0  0  0  0  0  0  0  0  0  0
  -29.0772  -27.2417   23.2609 C   0  0  0  0  0  0  0  0  0  0  0  0
  -23.4218  -21.3776   21.5458 C   0  0  0  0  0  0  0  0  0  0  0  0
  -23.8359  -22.7964   21.3097 C   0  0  0  0  0  0  0  0  0  0  0  0
  -30.7343  -25.7468   22.0701 C   0  0  0  0  0  0  0  0  0  0  0  0
  -28.7780  -26.5946   20.8339 C   0  0  0  0  0  0  0  0  0  0  0  0
  -29.0393  -19.9919   18.3211 C   0  0  0  0  0  0  0  0  0  0  0  0
  -28.1075  -13.6820   19.7684 C   0  0  1  0  0  0  0  0  0  0  0  0
  -25.3484  -13.4202   22.3669 C   0  0  1  0  0  0  0  0  0  0  0  0
  -28.0561  -26.9493   22.1451 C   0  0  2  0  0  0  0  0  0  0  0  0
  -24.8459  -21.8030   21.8553 C   0  0  0  0  0  0  0  0  0  0  0  0
  -27.3841  -18.0644   19.7499 C   0  0  0  0  0  0  0  0  0  0  0  0
  -17.8930  -12.2404   24.1071 C   0  0  0  0  0  0  0  0  0  0  0  0
  -26.3325  -22.9657   23.4913 C   0  0  0  0  0  0  0  0  0  0  0  0
  -22.0906  -13.2862   19.0914 C   0  0  0  0  0  0  0  0  0  0  0  0
  -19.7328  -13.1404   19.9205 C   0  0  0  0  0  0  0  0  0  0  0  0
  -21.2222  -11.1431   20.0440 C   0  0  0  0  0  0  0  0  0  0  0  0
  -20.6370  -13.3449   26.5001 C   0  0  0  0  0  0  0  0  0  0  0  0
  -28.5580  -22.8431   18.6942 C   0  0  0  0  0  0  0  0  0  0  0  0
  -25.6755  -20.5802   23.9157 C   0  0  0  0  0  0  0  0  0  1  0  0
  -21.6137  -13.0806   21.6204 C   0  0  1  0  0  0  0  0  0  0  0  0
  -19.3257  -12.4433   24.5749 C   0  0  2  0  0  0  0  0  0  0  0  0
  -25.2494  -21.9296   23.3252 C   0  0  2  0  0  0  0  0  0  0  0  0
  -21.1832  -12.6808   20.1809 C   0  0  0  0  0  0  0  0  0  0  0  0
  -27.5010  -29.3518   22.1943 N   0  0  0  0  0  0  0  0  0  0  0  0
  -27.0790  -28.0964   21.9658 N   0  0  0  0  0  0  0  0  0  0  0  0
  -23.9189  -13.7175   22.2560 N   0  0  0  0  0  0  0  0  0  0  0  0
  -29.7117  -25.4793   21.0558 N   0  0  0  0  0  0  0  0  0  0  0  0
  -25.1864  -26.8286   21.3168 N   0  0  0  0  0  0  0  0  0  0  0  0
  -23.6649  -31.0803   21.2508 N   0  0  0  0  0  0  0  0  0  0  0  0
  -27.3161  -13.4515   20.9579 N   0  0  0  0  0  0  0  0  0  0  0  0
  -20.7884  -12.4996   22.6739 N   0  0  0  0  0  0  0  0  0  0  0  0
  -28.6990  -24.0663   19.4523 N   0  0  0  0  0  0  0  0  0  0  0  0
  -19.2950  -13.1052   25.9098 N   0  3  0  0  0  0  0  0  0  0  0  0
  -23.0815  -28.8885   20.9127 O   0  0  0  0  0  0  0  0  0  0  0  0
  -25.2731  -14.2200   20.1466 O   0  0  0  0  0  0  0  0  0  0  0  0
  -23.3502  -11.4868   21.8864 O   0  0  0  0  0  0  0  0  0  0  0  0
  -20.1311  -14.5117   23.6208 O   0  0  0  0  0  0  0  0  0  0  0  0
  -30.5324  -23.3526   20.6297 O   0  0  0  0  0  0  0  0  0  0  0  0
  -26.6051  -35.6497   22.4803 O   0  0  0  0  0  0  0  0  0  0  0  0
  -24.6069  -19.6367   23.8506 O   0  0  0  0  0  0  0  0  0  1  0  0
  -22.4284  -38.1211   25.0978 F   0  0  0  0  0  0  0  0  0  0  0  0
  -27.0464  -37.1354   24.7695 F   0  0  0  0  0  0  0  0  0  0  0  0
  1  2  1  0  0  0  0
  1  5  2  0  0  0  0
  2  6  2  0  0  0  0
  3  8  2  0  0  0  0
  3 17  1  0  0  0  0
  4  9  1  0  0  0  0
  4 17  2  0  0  0  0
  5 19  1  0  0  0  0
  6 21  1  0  0  0  0
  7 10  2  0  0  0  0
  7 20  1  0  0  0  0
  8 27  1  0  0  0  0
  9 27  2  0  0  0  0
 10 28  1  0  0  0  0
 11 12  2  0  0  0  0
 11 29  1  0  0  0  0
 12 30  1  0  0  0  0
 13 22  1  0  0  0  0
 13 25  2  0  0  0  0
 14 22  2  0  0  0  0
 14 26  1  0  0  0  0
 15 23  1  0  0  0  0
 15 28  2  0  0  0  0
 16 30  2  0  0  0  0
 16 31  1  0  0  0  0
 17 32  1  0  0  0  0
 18 32  1  0  0  0  0
 18 33  2  0  0  0  0
 18 34  1  0  0  0  0
 19 21  2  0  0  0  0
 19 39  1  0  0  0  0
 20 23  2  0  0  0  0
 20 40  1  0  0  0  0
 21 53  1  0  0  0  0
 22 56  1  0  0  0  0
 23 41  1  0  0  0  0
 24 25  1  0  0  0  0
 24 26  2  0  0  0  0
 24 52  1  0  0  0  0
 25 57  1  0  0  0  0
 26 64  1  0  0  0  0
 27 85  1  0  0  0  0
 28 86  1  0  0  0  0
 29 31  2  0  0  0  0
 29 85  1  0  0  0  0
 30 87  1  0  0  0  0
 31 88  1  0  0  0  0
 32 70  2  0  0  0  0
 33 71  1  0  0  0  0
 33 74  1  0  0  0  0
 34 75  1  0  0  0  0
 34 80  2  0  0  0  0
 35 54  1  0  0  0  0
 35 76  1  0  0  0  0
 35 81  2  0  0  0  0
 36 66  1  0  0  0  0
 36 72  1  0  0  0  0
 36 82  2  0  0  0  0
 37 67  1  0  0  0  0
 37 77  1  0  0  0  0
 37 83  2  0  0  0  0
 38 73  1  0  0  0  0
 38 78  1  0  0  0  0
 38 84  2  0  0  0  0
 39 42  1  0  0  0  0
 40 54  1  0  0  0  0
 41 72  1  0  0  0  0
 42 46  1  0  0  0  0
 43 47  1  0  0  0  0
 43 50  1  0  0  0  0
 44 45  1  0  0  0  0
 44 52  1  0  0  0  0
 45 52  1  0  0  0  0
 46 53  1  0  0  0  0
 47 55  1  0  0  0  0
 48 49  1  0  0  0  0
 48 56  1  0  0  0  0
 49 56  1  0  0  0  0
 50 73  1  0  0  0  0
 51 55  1  0  0  0  0
 51 73  1  0  0  0  0
 53 76  1  0  0  0  0
 54 72  1  0  0  0  0
 55 71  1  0  0  0  0
 56 68  1  0  0  0  0
 58 67  1  0  0  0  0
 59 68  1  0  0  0  0
 60 69  1  0  0  0  0
 61 69  1  0  0  0  0
 62 69  1  0  0  0  0
 63 79  1  0  0  0  0
 64 78  1  0  0  0  0
 65 68  1  0  0  0  0
 65 86  1  0  0  0  0
 66 69  1  0  0  0  0
 66 77  1  0  0  0  0
 67 79  1  0  0  0  0
 70 71  1  0  0  0  0
M  CHG  1  79   1
M  ISO  4  38 100  65 101  78 100  86 101
M  END
> <Batch ID>
0170

> <Smiles>
CNC(C)C(=O)NC(C(=O)N1Cc2cc([101O:1][101CH2:1]C(C)C3(c4cc(C)c(C5CC5)c(C[100NH:0][100C:0](=O)N5CCCC(n6nc(-c7ccc(Oc8ccc(F)cc8F)cc7)c(C(N)=O)c6N)C5)c4)CC3)ccc2CC1C(=O)NC1CCCc2ccccc21)C(C)(C)C

> <Shape>
0.261

> <Color>
0.039

> <Negative vol penalty>
0.000

$$$$

  -OEChem-04052322353D

 88 98  0     1  0  0  0  0  0999 V2000
  -25.2347   -6.2783   22.6299 C   0  0  0  0  0  0  0  0  0  0  0  0
  -26.1079   -6.8646   21.7193 C   0  0  0  0  0  0  0  0  0  0  0  0
  -19.9259  -31.0399   22.4333 C   0  0  0  0  0  0  0  0  0  0  0  0
  -20.4921  -28.7494   22.9530 C   0  0  0  0  0  0  0  0  0  0  0  0
  -23.9312   -6.7578   22.7520 C   0  0  0  0  0  0  0  0  0  0  0  0
  -25.6777   -7.9302   20.9295 C   0  0  0  0  0  0  0  0  0  0  0  0
  -29.0248  -14.3048   21.1598 C   0  0  0  0  0  0  0  0  0  0  0  0
  -18.5705  -30.7301   22.5445 C   0  0  0  0  0  0  0  0  0  0  0  0
  -19.1367  -28.4396   23.0643 C   0  0  0  0  0  0  0  0  0  0  0  0
  -29.7413  -15.4899   20.9911 C   0  0  0  0  0  0  0  0  0  0  0  0
  -16.3174  -30.2627   25.0221 C   0  0  0  0  0  0  0  0  0  0  0  0
  -15.5076  -31.1445   25.7378 C   0  0  0  0  0  0  0  0  0  0  0  0
  -28.0673  -16.2938   19.4420 C   0  0  0  0  0  0  0  0  0  0  0  0
  -14.1604  -31.5081   23.7654 C   0  0  0  0  0  0  0  0  0  0  0  0
  -20.8868  -30.0495   22.6374 C   0  0  0  0  0  0  0  0  0  0  0  0
  -23.0094  -31.3106   23.2789 C   0  0  0  0  0  0  0  0  0  0  0  0
  -23.4878   -7.8361   21.9702 C   0  0  0  0  0  0  0  0  0  0  0  0
  -27.8176  -14.1160   20.4813 C   0  0  0  0  0  0  0  0  0  0  0  0
  -24.3666   -8.4238   21.0403 C   0  0  0  0  0  0  0  0  0  0  0  0
  -27.3390  -15.1141   19.6167 C   0  0  0  0  0  0  0  0  0  0  0  0
  -18.1758  -29.4300   22.8601 C   0  0  0  0  0  0  0  0  0  0  0  0
  -29.2638  -16.4818   20.1341 C   0  0  0  0  0  0  0  0  0  0  0  0
  -16.0488  -30.0036   23.6780 C   0  0  0  0  0  0  0  0  0  0  0  0
  -14.4291  -31.7671   25.1095 C   0  0  0  0  0  0  0  0  0  0  0  0
  -14.9703  -30.6263   23.0497 C   0  0  0  0  0  0  0  0  0  0  0  0
  -22.2871  -30.3688   22.5220 C   0  0  0  0  0  0  0  0  0  0  0  0
  -24.2901  -31.2359   22.7883 C   0  0  0  0  0  0  0  0  0  0  0  0
  -22.5627  -32.1757   24.3314 C   0  0  0  0  0  0  0  0  0  0  0  0
  -24.8835  -11.8731   19.8205 C   0  0  0  0  0  0  0  0  0  0  0  0
  -23.7903  -14.7315   20.0318 C   0  0  0  0  0  0  0  0  0  0  0  0
  -22.9402  -17.9559   20.7515 C   0  0  0  0  0  0  0  0  0  0  0  0
  -28.6225  -28.4954   21.1507 C   0  0  0  0  0  0  0  0  0  0  0  0
  -22.0554   -8.2890   22.1038 C   0  0  0  0  0  0  0  0  0  0  0  0
  -27.0436  -12.8299   20.5854 C   0  0  0  0  0  0  0  0  0  0  0  0
  -26.0532  -14.8529   18.8808 C   0  0  0  0  0  0  0  0  0  0  0  0
  -21.7924   -9.6647   21.4967 C   0  0  0  0  0  0  0  0  0  0  0  0
  -26.1289  -28.9332   18.6885 C   0  0  0  0  0  0  0  0  0  0  0  0
  -22.4222   -9.7661   20.1111 C   0  0  0  0  0  0  0  0  0  0  0  0
  -24.9516  -29.4183   19.5331 C   0  0  0  0  0  0  0  0  0  0  0  0
  -32.3841  -19.2457   21.6013 C   0  0  0  0  0  0  0  0  0  0  0  0
  -31.7369  -17.8564   21.5906 C   0  0  0  0  0  0  0  0  0  0  0  0
  -29.7967  -26.3879   18.4823 C   0  0  0  0  0  0  0  0  0  0  0  0
  -31.9324  -22.9487   20.9024 C   0  0  0  0  0  0  0  0  0  0  0  0
  -31.4912  -22.4087   18.4712 C   0  0  0  0  0  0  0  0  0  0  0  0
  -32.0479  -18.6661   19.3108 C   0  0  0  0  0  0  0  0  0  0  0  0
  -26.9218  -27.8282   19.3889 C   0  0  0  0  0  0  0  0  0  0  0  0
  -26.1933  -28.6722   21.5979 C   0  0  0  0  0  0  0  0  0  0  0  0
  -29.9819  -24.9009   18.2234 C   0  0  0  0  0  0  0  0  0  0  0  0
  -33.1357  -22.0149   20.8835 C   0  0  0  0  0  0  0  0  0  0  0  0
  -32.6975  -21.4786   18.4669 C   0  0  0  0  0  0  0  0  0  0  0  0
  -30.4457  -25.4539   20.5606 C   0  0  0  0  0  0  0  0  0  0  0  0
  -23.9447   -9.5976   20.1835 C   0  0  1  0  0  0  0  0  0  0  0  0
  -25.5196  -13.0361   20.5236 C   0  0  1  0  0  0  0  0  0  0  0  0
  -25.4159  -29.8242   20.9426 C   0  0  2  0  0  0  0  0  0  0  0  0
  -29.4805  -26.4604   19.9663 C   0  0  1  0  0  0  0  0  0  0  0  0
  -31.9954  -19.8495   20.2632 C   0  0  2  0  0  0  0  0  0  0  0  0
  -31.6517  -23.5121   19.5126 C   0  0  0  0  0  0  0  0  0  0  0  0
  -31.3805  -17.5621   20.1281 C   0  0  2  0  0  0  0  0  0  1  0  0
  -20.9530  -19.4797   20.9139 C   0  0  0  0  0  0  0  0  0  0  0  0
  -23.6642  -14.8854   16.9881 C   0  0  0  0  0  0  0  0  0  0  0  0
  -22.4004  -17.0341   17.2199 C   0  0  0  0  0  0  0  0  0  0  0  0
  -21.4384  -14.9192   18.1278 C   0  0  0  0  0  0  0  0  0  0  0  0
  -31.0178  -28.2418   20.6249 C   0  0  0  0  0  0  0  0  0  0  0  0
  -23.4340  -18.4843   23.6213 C   0  0  0  0  0  0  0  0  0  0  0  0
  -23.4009  -15.9938   19.3050 C   0  0  1  0  0  0  0  0  0  0  0  0
  -21.8787  -18.5375   21.6676 C   0  0  2  0  0  0  0  0  0  0  0  0
  -22.7516  -15.7051   17.9220 C   0  0  0  0  0  0  0  0  0  0  0  0
  -23.0458  -29.7418   21.6191 N   0  0  0  0  0  0  0  0  0  0  0  0
  -24.2582  -30.2908   21.8054 N   0  0  0  0  0  0  0  0  0  0  0  0
  -25.0742  -14.2302   19.7854 N   0  0  0  0  0  0  0  0  0  0  0  0
  -27.3040  -28.2383   20.7470 N   0  0  0  0  0  0  0  0  0  0  0  0
  -25.4292  -31.8870   23.1060 N   0  0  0  0  0  0  0  0  0  0  0  0
  -22.6215  -31.7077   25.6512 N   0  0  0  0  0  0  0  0  0  0  0  0
  -24.5663  -10.8171   20.6534 N   0  0  0  0  0  0  0  0  0  0  0  0
  -22.5486  -16.7453   20.2200 N   0  0  0  0  0  0  0  0  0  0  0  0
  -29.6425  -27.7780   20.5078 N   0  0  0  0  0  0  0  0  0  0  0  0
  -30.4025  -24.3167   19.5606 N   0  3  2  0  0  0  0  0  0  0  0  0
  -32.9595  -20.9284   19.8490 N   0  3  0  0  0  0  0  0  0  0  0  0
  -22.5149  -19.2953   22.7820 N   0  3  0  0  0  0  0  0  0  0  0  0
  -22.1091  -33.3234   24.1066 O   0  0  0  0  0  0  0  0  0  0  0  0
  -24.6926  -11.9290   18.6113 O   0  0  0  0  0  0  0  0  0  0  0  0
  -22.9781  -14.1991   20.7935 O   0  0  0  0  0  0  0  0  0  0  0  0
  -24.0083  -18.5208   20.5267 O   0  0  0  0  0  0  0  0  0  0  0  0
  -28.8756  -29.3154   22.0427 O   0  0  0  0  0  0  0  0  0  0  0  0
  -16.8533  -29.1274   22.9691 O   0  0  0  0  0  0  0  0  0  0  0  0
  -29.9659  -17.6381   19.9775 O   0  0  0  0  0  0  0  0  0  1  0  0
  -13.6506  -32.6127   25.7973 F   0  0  0  0  0  0  0  0  0  0  0  0
  -14.7066  -30.3805   21.7590 F   0  0  0  0  0  0  0  0  0  0  0  0
  1  2  1  0  0  0  0
  1  5  2  0  0  0  0
  2  6  2  0  0  0  0
  3  8  2  0  0  0  0
  3 15  1  0  0  0  0
  4  9  1  0  0  0  0
  4 15  2  0  0  0  0
  5 17  1  0  0  0  0
  6 19  1  0  0  0  0
  7 10  2  0  0  0  0
  7 18  1  0  0  0  0
  8 21  1  0  0  0  0
  9 21  2  0  0  0  0
 10 22  1  0  0  0  0
 11 12  2  0  0  0  0
 11 23  1  0  0  0  0
 12 24  1  0  0  0  0
 13 20  1  0  0  0  0
 13 22  2  0  0  0  0
 14 24  2  0  0  0  0
 14 25  1  0  0  0  0
 15 26  1  0  0  0  0
 16 26  1  0  0  0  0
 16 27  2  0  0  0  0
 16 28  1  0  0  0  0
 17 19  2  0  0  0  0
 17 33  1  0  0  0  0
 18 20  2  0  0  0  0
 18 34  1  0  0  0  0
 19 52  1  0  0  0  0
 20 35  1  0  0  0  0
 21 85  1  0  0  0  0
 22 86  1  0  0  0  0
 23 25  2  0  0  0  0
 23 85  1  0  0  0  0
 24 87  1  0  0  0  0
 25 88  1  0  0  0  0
 26 68  2  0  0  0  0
 27 69  1  0  0  0  0
 27 72  1  0  0  0  0
 28 73  1  0  0  0  0
 28 80  2  0  0  0  0
 29 53  1  0  0  0  0
 29 74  1  0  0  0  0
 29 81  2  0  0  0  0
 30 65  1  0  0  0  0
 30 70  1  0  0  0  0
 30 82  2  0  0  0  0
 31 66  1  0  0  0  0
 31 75  1  0  0  0  0
 31 83  2  0  0  0  0
 32 71  1  0  0  0  0
 32 76  1  0  0  0  0
 32 84  2  0  0  0  0
 33 36  1  0  0  0  0
 34 53  1  0  0  0  0
 35 70  1  0  0  0  0
 36 38  1  0  0  0  0
 37 39  1  0  0  0  0
 37 46  1  0  0  0  0
 38 52  1  0  0  0  0
 39 54  1  0  0  0  0
 40 41  1  0  0  0  0
 40 56  1  0  0  0  0
 41 58  1  0  0  0  0
 42 48  1  0  0  0  0
 42 55  1  0  0  0  0
 43 49  1  0  0  0  0
 43 57  1  0  0  0  0
 44 50  1  0  0  0  0
 44 57  1  0  0  0  0
 45 56  1  0  0  0  0
 45 58  1  0  0  0  0
 46 71  1  0  0  0  0
 47 54  1  0  0  0  0
 47 71  1  0  0  0  0
 48 77  1  0  0  0  0
 49 78  1  0  0  0  0
 50 78  1  0  0  0  0
 51 55  1  0  0  0  0
 51 77  1  0  0  0  0
 52 74  1  0  0  0  0
 53 70  1  0  0  0  0
 54 69  1  0  0  0  0
 55 76  1  0  0  0  0
 56 78  1  0  0  0  0
 57 77  1  0  0  0  0
 58 86  1  0  0  0  0
 59 66  1  0  0  0  0
 60 67  1  0  0  0  0
 61 67  1  0  0  0  0
 62 67  1  0  0  0  0
 63 76  1  0  0  0  0
 64 79  1  0  0  0  0
 65 67  1  0  0  0  0
 65 75  1  0  0  0  0
 66 79  1  0  0  0  0
 68 69  1  0  0  0  0
M  CHG  3  77   1  78   1  79   1
M  ISO  4  32 100  58 101  76 100  86 101
M  END
> <Batch ID>
0170

> <Smiles>
CNC(C)C(=O)NC(C(=O)N1Cc2cc([101O:1][101CH:1]3CCC(N4CCC(N5CCC([100N:0](C)[100C:0](=O)N6CCCC(n7nc(-c8ccc(Oc9ccc(F)cc9F)cc8)c(C(N)=O)c7N)C6)C5)CC4)C3)ccc2CC1C(=O)NC1CCCc2ccccc21)C(C)(C)C

> <Shape>
0.275

> <Color>
0.058

> <Negative vol penalty>
0.000

$$$$

  -OEChem-04052322353D

 95106  0     1  0  0  0  0  0999 V2000
  -33.4205  -20.3700   17.2883 C   0  0  0  0  0  0  0  0  0  0  0  0
  -33.2181  -21.0187   18.5022 C   0  0  0  0  0  0  0  0  0  0  0  0
  -23.0759   -9.8653   19.9429 C   0  0  0  0  0  0  0  0  0  0  0  0
  -23.8390   -9.8748   22.2352 C   0  0  0  0  0  0  0  0  0  0  0  0
  -34.0019  -21.0546   16.2218 C   0  0  0  0  0  0  0  0  0  0  0  0
  -33.5980  -22.3522   18.6507 C   0  0  0  0  0  0  0  0  0  0  0  0
  -30.0677  -25.1290   20.9898 C   0  0  0  0  0  0  0  0  0  0  0  0
  -34.1779  -17.9440   26.3224 C   0  0  0  0  0  0  0  0  0  0  0  0
  -22.3343   -8.7111   20.1945 C   0  0  0  0  0  0  0  0  0  0  0  0
  -23.0972   -8.7206   22.4869 C   0  0  0  0  0  0  0  0  0  0  0  0
  -29.9775  -25.0079   22.3758 C   0  0  0  0  0  0  0  0  0  0  0  0
  -19.8712   -7.9180   23.0943 C   0  0  0  0  0  0  0  0  0  0  0  0
  -19.1159   -7.8776   24.2662 C   0  0  0  0  0  0  0  0  0  0  0  0
  -33.3328  -17.5563   25.2885 C   0  0  0  0  0  0  0  0  0  0  0  0
  -31.2278  -27.0551   22.6301 C   0  0  0  0  0  0  0  0  0  0  0  0
  -20.3614   -5.9425   25.0021 C   0  0  0  0  0  0  0  0  0  0  0  0
  -23.8284  -10.4472   20.9632 C   0  0  0  0  0  0  0  0  0  0  0  0
  -24.1660  -12.9728   20.8413 C   0  0  0  0  0  0  0  0  0  0  0  0
  -34.3803  -22.3999   16.3543 C   0  0  0  0  0  0  0  0  0  0  0  0
  -30.7492  -26.2102   20.4127 C   0  0  0  0  0  0  0  0  0  0  0  0
  -34.1862  -23.0550   17.5854 C   0  0  0  0  0  0  0  0  0  0  0  0
  -34.1621  -19.2606   26.7691 C   0  0  0  0  0  0  0  0  0  0  0  0
  -31.3231  -27.1890   21.2365 C   0  0  0  0  0  0  0  0  0  0  0  0
  -22.3449   -8.1388   21.4665 C   0  0  0  0  0  0  0  0  0  0  0  0
  -30.5600  -25.9695   23.1962 C   0  0  0  0  0  0  0  0  0  0  0  0
  -20.8715   -6.9707   22.8762 C   0  0  0  0  0  0  0  0  0  0  0  0
  -19.3610   -6.8899   25.2202 C   0  0  0  0  0  0  0  0  0  0  0  0
  -21.1167   -5.9830   23.8301 C   0  0  0  0  0  0  0  0  0  0  0  0
  -24.5952  -11.6391   20.7037 C   0  0  0  0  0  0  0  0  0  0  0  0
  -33.2898  -20.1438   26.1536 C   0  0  0  0  0  0  0  0  0  0  0  0
  -32.4975  -18.5158   24.7395 C   0  0  0  0  0  0  0  0  0  0  0  0
  -25.2565  -13.7238   20.4761 C   0  0  0  0  0  0  0  0  0  0  0  0
  -22.8953  -13.4868   21.2616 C   0  0  0  0  0  0  0  0  0  0  0  0
  -33.3022  -26.5124   18.5433 C   0  0  0  0  0  0  0  0  0  0  0  0
  -32.4253  -29.6353   18.5108 C   0  0  0  0  0  0  0  0  0  0  0  0
  -30.7752  -32.1973   20.0471 C   0  0  0  0  0  0  0  0  0  0  0  0
  -30.7388  -14.7517   20.6563 C   0  0  0  0  0  0  0  0  0  0  0  0
  -35.0484  -23.0843   15.1882 C   0  0  0  0  0  0  0  0  0  0  0  0
  -30.8147  -26.3405   18.9157 C   0  0  0  0  0  0  0  0  0  0  0  0
  -32.0483  -28.3796   20.6664 C   0  0  0  0  0  0  0  0  0  0  0  0
  -35.0795  -24.6056   15.3111 C   0  0  0  0  0  0  0  0  0  0  0  0
  -29.6018  -12.3640   18.2725 C   0  0  0  0  0  0  0  0  0  0  0  0
  -35.5410  -18.6531   28.8676 C   0  0  0  0  0  0  0  0  0  0  0  0
  -34.5410  -19.6835   29.2902 C   0  0  0  0  0  0  0  0  0  0  0  0
  -35.5341  -25.0191   16.7073 C   0  0  0  0  0  0  0  0  0  0  0  0
  -28.1654  -12.0682   18.7076 C   0  0  0  0  0  0  0  0  0  0  0  0
  -31.8179  -21.8630   27.1331 C   0  0  0  0  0  0  0  0  0  0  0  0
  -30.5202  -12.5869   19.4720 C   0  0  0  0  0  0  0  0  0  0  0  0
  -28.6192  -13.3158   20.8608 C   0  0  0  0  0  0  0  0  0  0  0  0
  -31.6132  -16.7523   23.1835 C   0  0  0  0  0  0  0  0  0  0  0  0
  -30.7257  -19.0039   23.0267 C   0  0  0  0  0  0  0  0  0  0  0  0
  -31.6468  -23.3216   27.5280 C   0  0  0  0  0  0  0  0  0  0  0  0
  -33.3722  -24.0008   25.8501 C   0  0  0  0  0  0  0  0  0  0  0  0
  -35.0641  -19.6836   27.8769 C   0  0  0  0  0  0  0  0  0  0  0  0
  -34.5623  -24.5081   17.7778 C   0  0  1  0  0  0  0  0  0  0  0  0
  -33.2299  -21.5751   26.5902 C   0  0  2  0  0  0  0  0  0  0  0  0
  -31.9753  -27.2099   18.4418 C   0  0  1  0  0  0  0  0  0  0  0  0
  -33.5814  -22.5406   25.4281 C   0  0  2  0  0  0  0  0  0  0  0  0
  -27.6437  -13.1390   19.6846 C   0  0  2  0  0  0  0  0  0  0  0  0
  -30.8029  -16.9030   21.8919 C   0  0  2  0  0  0  0  0  0  0  0  0
  -29.8464  -18.0334   22.2415 C   0  0  2  0  0  0  0  0  0  0  0  0
  -35.0286  -22.3610   24.9552 C   0  0  0  0  0  0  0  0  0  0  0  0
  -30.2676  -34.6425   19.8001 C   0  0  0  0  0  0  0  0  0  0  0  0
  -35.2637  -30.3121   19.4026 C   0  0  0  0  0  0  0  0  0  0  0  0
  -34.4441  -32.5886   20.0461 C   0  0  0  0  0  0  0  0  0  0  0  0
  -34.3214  -31.8470   17.6675 C   0  0  0  0  0  0  0  0  0  0  0  0
  -27.8604  -31.6987   19.9269 C   0  0  0  0  0  0  0  0  0  0  0  0
  -31.6664  -25.6434   26.6270 C   0  0  0  0  0  0  0  0  0  0  0  0
  -31.5463  -26.3977   25.3175 C   0  0  0  0  0  0  0  0  0  1  0  0
  -32.7372  -30.8422   19.3623 C   0  0  1  0  0  0  0  0  0  0  0  0
  -29.7936  -33.2258   19.5151 C   0  0  2  0  0  0  0  0  0  0  0  0
  -34.1797  -31.3741   19.1307 C   0  0  0  0  0  0  0  0  0  0  0  0
  -25.8596  -11.5450   20.2838 N   0  0  0  0  0  0  0  0  0  0  0  0
  -32.4541  -19.8042   25.1468 N   0  0  0  0  0  0  0  0  0  0  0  0
  -26.2343  -12.8291   20.1542 N   0  0  0  0  0  0  0  0  0  0  0  0
  -31.6646  -18.1163   23.7164 N   0  0  3  0  0  0  0  0  0  0  0  0
  -32.0907  -28.4592   19.1969 N   0  0  0  0  0  0  0  0  0  0  0  0
  -29.9692  -13.6151   20.3581 N   0  0  0  0  0  0  0  0  0  0  0  0
  -25.4646  -15.0555   20.4020 N   0  0  0  0  0  0  0  0  0  0  0  0
  -21.8853  -12.5762   21.6008 N   0  0  0  0  0  0  0  0  0  0  0  0
  -33.3765  -25.3368   17.8209 N   0  0  0  0  0  0  0  0  0  0  0  0
  -31.6888  -31.8184   19.0863 N   0  0  0  0  0  0  0  0  0  0  0  0
  -30.1393  -15.6800   21.4987 N   0  0  0  0  0  0  0  0  0  0  0  0
  -31.9557  -24.2148   26.3448 N   0  3  2  0  0  0  0  0  0  0  0  0
  -29.2934  -18.6706   21.0332 N   0  3  0  0  0  0  0  0  0  0  0  0
  -28.4567  -33.0415   20.1473 N   0  3  0  0  0  0  0  0  0  0  0  0
  -22.6571  -14.7171   21.3186 O   0  0  0  0  0  0  0  0  0  0  0  0
  -34.1932  -27.0051   19.2253 O   0  0  0  0  0  0  0  0  0  0  0  0
  -32.4697  -29.7343   17.2821 O   0  0  0  0  0  0  0  0  0  0  0  0
  -30.7378  -31.7752   21.2007 O   0  0  0  0  0  0  0  0  0  0  0  0
  -31.8739  -14.9287   20.2010 O   0  0  0  0  0  0  0  0  0  0  0  0
  -21.6210   -7.0127   21.7125 O   0  0  0  0  0  0  0  0  0  0  0  0
  -30.4739  -25.8533   24.5494 O   0  0  0  0  0  0  0  0  0  1  0  0
  -18.6367   -6.8521   26.3462 F   0  0  0  0  0  0  0  0  0  0  0  0
  -22.0772   -5.0709   23.6267 F   0  0  0  0  0  0  0  0  0  0  0  0
  1  2  1  0  0  0  0
  1  5  2  0  0  0  0
  2  6  2  0  0  0  0
  3  9  2  0  0  0  0
  3 17  1  0  0  0  0
  4 10  1  0  0  0  0
  4 17  2  0  0  0  0
  5 19  1  0  0  0  0
  6 21  1  0  0  0  0
  7 11  2  0  0  0  0
  7 20  1  0  0  0  0
  8 14  2  0  0  0  0
  8 22  1  0  0  0  0
  9 24  1  0  0  0  0
 10 24  2  0  0  0  0
 11 25  1  0  0  0  0
 12 13  2  0  0  0  0
 12 26  1  0  0  0  0
 13 27  1  0  0  0  0
 14 31  1  0  0  0  0
 15 23  1  0  0  0  0
 15 25  2  0  0  0  0
 16 27  2  0  0  0  0
 16 28  1  0  0  0  0
 17 29  1  0  0  0  0
 18 29  1  0  0  0  0
 18 32  2  0  0  0  0
 18 33  1  0  0  0  0
 19 21  2  0  0  0  0
 19 38  1  0  0  0  0
 20 23  2  0  0  0  0
 20 39  1  0  0  0  0
 21 55  1  0  0  0  0
 22 30  2  0  0  0  0
 22 54  1  0  0  0  0
 23 40  1  0  0  0  0
 24 92  1  0  0  0  0
 25 93  1  0  0  0  0
 26 28  2  0  0  0  0
 26 92  1  0  0  0  0
 27 94  1  0  0  0  0
 28 95  1  0  0  0  0
 29 73  2  0  0  0  0
 30 56  1  0  0  0  0
 30 74  1  0  0  0  0
 31 74  2  0  0  0  0
 31 76  1  0  0  0  0
 32 75  1  0  0  0  0
 32 79  1  0  0  0  0
 33 80  1  0  0  0  0
 33 87  2  0  0  0  0
 34 57  1  0  0  0  0
 34 81  1  0  0  0  0
 34 88  2  0  0  0  0
 35 70  1  0  0  0  0
 35 77  1  0  0  0  0
 35 89  2  0  0  0  0
 36 71  1  0  0  0  0
 36 82  1  0  0  0  0
 36 90  2  0  0  0  0
 37 78  1  0  0  0  0
 37 83  1  0  0  0  0
 37 91  2  0  0  0  0
 38 41  1  0  0  0  0
 39 57  1  0  0  0  0
 40 77  1  0  0  0  0
 41 45  1  0  0  0  0
 42 46  1  0  0  0  0
 42 48  1  0  0  0  0
 43 44  1  0  0  0  0
 43 54  1  0  0  0  0
 44 54  1  0  0  0  0
 45 55  1  0  0  0  0
 46 59  1  0  0  0  0
 47 52  1  0  0  0  0
 47 56  1  0  0  0  0
 48 78  1  0  0  0  0
 49 59  1  0  0  0  0
 49 78  1  0  0  0  0
 50 60  1  0  0  0  0
 50 76  1  0  0  0  0
 51 61  1  0  0  0  0
 51 76  1  0  0  0  0
 52 84  1  0  0  0  0
 53 58  1  0  0  0  0
 53 84  1  0  0  0  0
 55 81  1  0  0  0  0
 56 58  1  0  0  0  0
 57 77  1  0  0  0  0
 58 62  1  0  0  0  0
 59 75  1  0  0  0  0
 60 61  1  0  0  0  0
 60 83  1  0  0  0  0
 61 85  1  0  0  0  0
 63 71  1  0  0  0  0
 64 72  1  0  0  0  0
 65 72  1  0  0  0  0
 66 72  1  0  0  0  0
 67 86  1  0  0  0  0
 68 69  1  0  0  0  0
 68 84  1  0  0  0  0
 69 93  1  0  0  0  0
 70 72  1  0  0  0  0
 70 82  1  0  0  0  0
 71 86  1  0  0  0  0
 73 75  1  0  0  0  0
M  CHG  3  84   1  85   1  86   1
M  ISO  4  37 100  69 101  83 100  93 101
M  END
> <Batch ID>
0170

> <Smiles>
CNC(C)C(=O)NC(C(=O)N1Cc2cc([101O:1][101CH2:1]CN3CCC(c4nc(N5CC(N)C([100NH:0][100C:0](=O)N6CCCC(n7nc(-c8ccc(Oc9ccc(F)cc9F)cc8)c(C(N)=O)c7N)C6)C5)ccc4C4CC4)C(C)C3)ccc2CC1C(=O)NC1CCCc2ccccc21)C(C)(C)C

> <Shape>
0.198

> <Color>
0.173

> <Negative vol penalty>
0.000

$$$$

  -OEChem-04052322353D

 85 94  0     1  0  0  0  0  0999 V2000
  -26.1794  -38.1022   20.1600 C   0  0  0  0  0  0  0  0  0  0  0  0
  -26.8253  -37.0024   19.6044 C   0  0  0  0  0  0  0  0  0  0  0  0
  -23.6057  -10.2074   22.0617 C   0  0  0  0  0  0  0  0  0  0  0  0
  -24.5969   -8.9135   20.2784 C   0  0  0  0  0  0  0  0  0  0  0  0
  -25.5114  -37.9752   21.3772 C   0  0  0  0  0  0  0  0  0  0  0  0
  -26.8044  -35.7752   20.2662 C   0  0  0  0  0  0  0  0  0  0  0  0
  -30.4430  -21.6387   21.3708 C   0  0  0  0  0  0  0  0  0  0  0  0
  -26.7219  -28.7313   18.9652 C   0  0  0  0  0  0  0  0  0  0  0  0
  -30.8244  -22.8494   21.9489 C   0  0  0  0  0  0  0  0  0  0  0  0
  -22.5972   -9.2529   22.1939 C   0  0  0  0  0  0  0  0  0  0  0  0
  -23.5884   -7.9589   20.4105 C   0  0  0  0  0  0  0  0  0  0  0  0
  -27.4041  -27.5647   19.3077 C   0  0  0  0  0  0  0  0  0  0  0  0
  -19.9646   -6.9767   23.2442 C   0  0  0  0  0  0  0  0  0  0  0  0
  -19.6218   -6.5697   24.5335 C   0  0  0  0  0  0  0  0  0  0  0  0
  -28.9746  -22.8221   19.8607 C   0  0  0  0  0  0  0  0  0  0  0  0
  -26.1514  -27.4435   21.3657 C   0  0  0  0  0  0  0  0  0  0  0  0
  -21.8816   -5.7924   24.8889 C   0  0  0  0  0  0  0  0  0  0  0  0
  -24.6055  -10.0378   21.1040 C   0  0  0  0  0  0  0  0  0  0  0  0
  -26.8857  -11.0506   21.6352 C   0  0  0  0  0  0  0  0  0  0  0  0
  -29.5181  -21.6250   20.3267 C   0  0  0  0  0  0  0  0  0  0  0  0
  -25.4741  -36.7435   22.0495 C   0  0  0  0  0  0  0  0  0  0  0  0
  -25.7554  -29.2697   19.8268 C   0  0  0  0  0  0  0  0  0  0  0  0
  -26.1363  -35.6320   21.4942 C   0  0  0  0  0  0  0  0  0  0  0  0
  -25.4565  -28.6157   21.0306 C   0  0  0  0  0  0  0  0  0  0  0  0
  -30.2809  -24.0465   21.4830 C   0  0  0  0  0  0  0  0  0  0  0  0
  -29.3560  -24.0329   20.4388 C   0  0  0  0  0  0  0  0  0  0  0  0
  -22.5886   -8.1286   21.3683 C   0  0  0  0  0  0  0  0  0  0  0  0
  -27.1210  -26.9222   20.5094 C   0  0  0  0  0  0  0  0  0  0  0  0
  -21.2659   -6.7915   22.7771 C   0  0  0  0  0  0  0  0  0  0  0  0
  -20.5803   -5.9775   25.3559 C   0  0  0  0  0  0  0  0  0  0  0  0
  -22.2243   -6.1994   23.5995 C   0  0  0  0  0  0  0  0  0  0  0  0
  -25.6472  -11.0237   20.9666 C   0  0  0  0  0  0  0  0  0  0  0  0
  -27.5077  -12.1796   21.1607 C   0  0  0  0  0  0  0  0  0  0  0  0
  -27.4258  -10.1368   22.5991 C   0  0  0  0  0  0  0  0  0  0  0  0
  -25.4423  -32.0036   21.4179 C   0  0  0  0  0  0  0  0  0  0  0  0
  -22.5174  -30.7990   22.1364 C   0  0  0  0  0  0  0  0  0  0  0  0
  -20.5241  -28.0525   22.4975 C   0  0  0  0  0  0  0  0  0  0  0  0
  -26.9062  -17.6666   20.0829 C   0  0  0  0  0  0  0  0  0  0  0  0
  -24.7793  -36.6667   23.3860 C   0  0  0  0  0  0  0  0  0  0  0  0
  -25.0093  -30.5141   19.4304 C   0  0  0  0  0  0  0  0  0  0  0  0
  -24.4133  -29.1417   21.9811 C   0  0  0  0  0  0  0  0  0  0  0  0
  -24.4869  -35.2387   23.8393 C   0  0  0  0  0  0  0  0  0  0  0  0
  -26.3434  -15.2218   17.3050 C   0  0  0  0  0  0  0  0  0  0  0  0
  -25.7160  -34.3557   23.6483 C   0  0  0  0  0  0  0  0  0  0  0  0
  -26.1448  -13.9281   18.0930 C   0  0  0  0  0  0  0  0  0  0  0  0
  -29.4837  -20.2391   18.2077 C   0  0  0  0  0  0  0  0  0  0  0  0
  -25.9105  -16.4365   18.1175 C   0  0  0  0  0  0  0  0  0  0  0  0
  -27.6023  -20.0345   19.8775 C   0  0  0  0  0  0  0  0  0  0  0  0
  -27.5477  -18.6423   17.8341 C   0  0  0  0  0  0  0  0  0  0  0  0
  -26.3926  -15.2563   20.2389 C   0  0  0  0  0  0  0  0  0  0  0  0
  -29.1030  -20.3077   19.6983 C   0  0  2  0  0  0  0  0  0  0  0  0
  -26.1151  -34.2780   22.1697 C   0  0  1  0  0  0  0  0  0  0  0  0
  -24.4105  -31.2566   20.6210 C   0  0  1  0  0  0  0  0  0  0  0  0
  -29.0424  -18.9049   17.5853 C   0  0  1  0  0  0  0  0  0  0  0  0
  -26.8397  -14.0067   19.4628 C   0  0  1  0  0  0  0  0  0  0  0  0
  -30.7036  -25.3304   22.1183 C   0  0  0  0  0  0  0  0  0  0  0  0
  -29.3496  -18.8805   16.0891 C   0  0  0  0  0  0  0  0  0  0  0  0
  -18.1904  -27.3818   23.1311 C   0  0  0  0  0  0  0  0  0  0  0  0
  -23.1798  -31.2798   25.0758 C   0  0  0  0  0  0  0  0  0  0  0  0
  -21.2857  -29.7579   25.6796 C   0  0  0  0  0  0  0  0  0  0  0  0
  -20.8375  -31.8668   24.4247 C   0  0  0  0  0  0  0  0  0  0  0  0
  -20.0254  -26.8464   19.8413 C   0  0  0  0  0  0  0  0  0  0  0  0
  -28.7606  -25.3021   19.9237 C   0  0  0  0  0  0  0  0  0  1  0  0
  -21.9591  -29.9347   23.2410 C   0  0  1  0  0  0  0  0  0  0  0  0
  -19.1261  -27.7488   21.9898 C   0  0  2  0  0  0  0  0  0  0  0  0
  -21.8366  -30.7007   24.5885 C   0  0  0  0  0  0  0  0  0  0  0  0
  -25.4898  -12.0538   20.1311 N   0  0  0  0  0  0  0  0  0  0  0  0
  -26.6376  -12.7386   20.2715 N   0  0  0  0  0  0  0  0  0  0  0  0
  -23.7155  -30.3649   21.5517 N   0  0  0  0  0  0  0  0  0  0  0  0
  -26.5602  -16.4689   19.4352 N   0  0  0  0  0  0  0  0  0  0  0  0
  -27.2293  -18.7591   19.2640 N   0  0  0  0  0  0  0  0  0  0  0  0
  -28.7084  -12.7387   21.4214 N   0  0  0  0  0  0  0  0  0  0  0  0
  -26.6540   -9.0289   22.9750 N   0  0  0  0  0  0  0  0  0  0  0  0
  -25.2416  -33.3702   21.4575 N   0  0  0  0  0  0  0  0  0  0  0  0
  -20.6975  -29.3985   22.7417 N   0  0  0  0  0  0  0  0  0  0  0  0
  -19.1605  -26.6123   21.0263 N   0  3  0  0  0  0  0  0  0  0  0  0
  -28.5523  -10.3068   23.1240 O   0  0  0  0  0  0  0  0  0  0  0  0
  -26.3523  -31.3857   21.9580 O   0  0  0  0  0  0  0  0  0  0  0  0
  -21.9090  -31.8179   21.7998 O   0  0  0  0  0  0  0  0  0  0  0  0
  -21.3758  -27.1824   22.6646 O   0  0  0  0  0  0  0  0  0  0  0  0
  -26.9282  -17.7522   21.3170 O   0  0  0  0  0  0  0  0  0  0  0  0
  -21.6048   -7.1969   21.4971 O   0  0  0  0  0  0  0  0  0  0  0  0
  -27.7907  -25.7756   20.8489 O   0  0  0  0  0  0  0  0  0  1  0  0
  -20.2513   -5.5881   26.5945 F   0  0  0  0  0  0  0  0  0  0  0  0
  -23.4764   -6.0200   23.1568 F   0  0  0  0  0  0  0  0  0  0  0  0
  1  2  1  0  0  0  0
  1  5  2  0  0  0  0
  2  6  2  0  0  0  0
  3 10  2  0  0  0  0
  3 18  1  0  0  0  0
  4 11  1  0  0  0  0
  4 18  2  0  0  0  0
  5 21  1  0  0  0  0
  6 23  1  0  0  0  0
  7  9  2  0  0  0  0
  7 20  1  0  0  0  0
  8 12  2  0  0  0  0
  8 22  1  0  0  0  0
  9 25  1  0  0  0  0
 10 27  1  0  0  0  0
 11 27  2  0  0  0  0
 12 28  1  0  0  0  0
 13 14  2  0  0  0  0
 13 29  1  0  0  0  0
 14 30  1  0  0  0  0
 15 20  2  0  0  0  0
 15 26  1  0  0  0  0
 16 24  1  0  0  0  0
 16 28  2  0  0  0  0
 17 30  2  0  0  0  0
 17 31  1  0  0  0  0
 18 32  1  0  0  0  0
 19 32  1  0  0  0  0
 19 33  2  0  0  0  0
 19 34  1  0  0  0  0
 20 51  1  0  0  0  0
 21 23  2  0  0  0  0
 21 39  1  0  0  0  0
 22 24  2  0  0  0  0
 22 40  1  0  0  0  0
 23 52  1  0  0  0  0
 24 41  1  0  0  0  0
 25 26  2  0  0  0  0
 25 56  1  0  0  0  0
 26 63  1  0  0  0  0
 27 82  1  0  0  0  0
 28 83  1  0  0  0  0
 29 31  2  0  0  0  0
 29 82  1  0  0  0  0
 30 84  1  0  0  0  0
 31 85  1  0  0  0  0
 32 67  2  0  0  0  0
 33 68  1  0  0  0  0
 33 72  1  0  0  0  0
 34 73  1  0  0  0  0
 34 77  2  0  0  0  0
 35 53  1  0  0  0  0
 35 74  1  0  0  0  0
 35 78  2  0  0  0  0
 36 64  1  0  0  0  0
 36 69  1  0  0  0  0
 36 79  2  0  0  0  0
 37 65  1  0  0  0  0
 37 75  1  0  0  0  0
 37 80  2  0  0  0  0
 38 70  1  0  0  0  0
 38 71  1  0  0  0  0
 38 81  2  0  0  0  0
 39 42  1  0  0  0  0
 40 53  1  0  0  0  0
 41 69  1  0  0  0  0
 42 44  1  0  0  0  0
 43 45  1  0  0  0  0
 43 47  1  0  0  0  0
 44 52  1  0  0  0  0
 45 55  1  0  0  0  0
 46 51  1  0  0  0  0
 46 54  1  0  0  0  0
 47 70  1  0  0  0  0
 48 51  1  0  0  0  0
 48 71  1  0  0  0  0
 49 54  1  0  0  0  0
 49 71  1  0  0  0  0
 50 55  1  0  0  0  0
 50 70  1  0  0  0  0
 52 74  1  0  0  0  0
 53 69  1  0  0  0  0
 54 57  1  0  0  0  0
 55 68  1  0  0  0  0
 58 65  1  0  0  0  0
 59 66  1  0  0  0  0
 60 66  1  0  0  0  0
 61 66  1  0  0  0  0
 62 76  1  0  0  0  0
 63 83  1  0  0  0  0
 64 66  1  0  0  0  0
 64 75  1  0  0  0  0
 65 76  1  0  0  0  0
 67 68  1  0  0  0  0
M  CHG  1  76   1
M  ISO  4  38 100  63 101  71 100  83 101
M  END
> <Batch ID>
0170

> <Smiles>
CNC(C)C(=O)NC(C(=O)N1Cc2cc([101O:1][101CH2:1]c3cc(C4CC(C)C[100N:0]([100C:0](=O)N5CCCC(n6nc(-c7ccc(Oc8ccc(F)cc8F)cc7)c(C(N)=O)c6N)C5)C4)ccc3C)ccc2CC1C(=O)NC1CCCc2ccccc21)C(C)(C)C

> <Shape>
0.314

> <Color>
0.101

> <Negative vol penalty>
0.000

$$$$

  -OEChem-04052322353D

 92103  0     1  0  0  0  0  0999 V2000
  -37.2262  -17.1086   23.5764 C   0  0  0  0  0  0  0  0  0  0  0  0
  -36.2578  -17.7253   22.7907 C   0  0  0  0  0  0  0  0  0  0  0  0
  -17.6346  -24.9965   22.3527 C   0  0  0  0  0  0  0  0  0  0  0  0
  -19.5709  -23.9315   23.3292 C   0  0  0  0  0  0  0  0  0  0  0  0
  -37.2555  -15.7186   23.6814 C   0  0  0  0  0  0  0  0  0  0  0  0
  -35.3188  -16.9523   22.1087 C   0  0  0  0  0  0  0  0  0  0  0  0
  -30.6180  -18.7885   22.5277 C   0  0  0  0  0  0  0  0  0  0  0  0
  -16.8540  -23.8930   22.6968 C   0  0  0  0  0  0  0  0  0  0  0  0
  -18.7903  -22.8279   23.6734 C   0  0  0  0  0  0  0  0  0  0  0  0
  -30.2879  -19.8820   21.7282 C   0  0  0  0  0  0  0  0  0  0  0  0
  -17.5107  -20.1037   22.1331 C   0  0  0  0  0  0  0  0  0  0  0  0
  -18.0316  -18.8358   21.8752 C   0  0  0  0  0  0  0  0  0  0  0  0
  -29.1760  -18.4053   20.1782 C   0  0  0  0  0  0  0  0  0  0  0  0
  -27.6306  -27.2017   21.0087 C   0  0  0  0  0  0  0  0  0  0  0  0
  -17.9071  -18.3058   24.2291 C   0  0  0  0  0  0  0  0  0  0  0  0
  -18.9931  -25.0157   22.6688 C   0  0  0  0  0  0  0  0  0  0  0  0
  -20.0395  -27.3036   23.0914 C   0  0  0  0  0  0  0  0  0  0  0  0
  -36.3104  -14.9286   23.0080 C   0  0  0  0  0  0  0  0  0  0  0  0
  -30.2383  -17.4919   22.1523 C   0  0  0  0  0  0  0  0  0  0  0  0
  -35.3363  -15.5504   22.2037 C   0  0  0  0  0  0  0  0  0  0  0  0
  -29.5003  -17.2974   20.9760 C   0  0  0  0  0  0  0  0  0  0  0  0
  -26.8203  -26.1165   18.9988 C   0  0  0  0  0  0  0  0  0  0  0  0
  -28.9085  -27.1557   20.4479 C   0  0  0  0  0  0  0  0  0  0  0  0
  -28.0604  -26.0572   18.4248 C   0  0  0  0  0  0  0  0  0  0  0  0
  -29.1225  -26.5888   19.1683 C   0  0  0  0  0  0  0  0  0  0  0  0
  -26.6427  -26.6703   20.2380 C   0  0  0  0  0  0  0  0  0  0  0  0
  -17.4318  -22.8087   23.3572 C   0  0  0  0  0  0  0  0  0  0  0  0
  -29.5693  -19.6901   20.5517 C   0  0  0  0  0  0  0  0  0  0  0  0
  -17.1881  -20.4728   23.4390 C   0  0  0  0  0  0  0  0  0  0  0  0
  -18.2297  -17.9368   22.9232 C   0  0  0  0  0  0  0  0  0  0  0  0
  -17.3863  -19.5739   24.4870 C   0  0  0  0  0  0  0  0  0  0  0  0
  -19.8001  -26.1552   22.3131 C   0  0  0  0  0  0  0  0  0  0  0  0
  -20.8612  -28.0811   22.3124 C   0  0  0  0  0  0  0  0  0  0  0  0
  -19.5620  -27.6376   24.4013 C   0  0  0  0  0  0  0  0  0  0  0  0
  -24.6497  -26.6698   17.8568 C   0  0  0  0  0  0  0  0  0  0  0  0
  -31.7986  -14.8191   21.4275 C   0  0  0  0  0  0  0  0  0  0  0  0
  -28.8119  -13.5550   21.3621 C   0  0  0  0  0  0  0  0  0  0  0  0
  -25.4589  -14.0624   20.9790 C   0  0  0  0  0  0  0  0  0  0  0  0
  -36.4113  -13.4275   23.1142 C   0  0  0  0  0  0  0  0  0  0  0  0
  -30.5790  -16.3259   23.0393 C   0  0  0  0  0  0  0  0  0  0  0  0
  -29.0514  -15.9278   20.5388 C   0  0  0  0  0  0  0  0  0  0  0  0
  -35.1496  -12.6986   22.6590 C   0  0  0  0  0  0  0  0  0  0  0  0
  -21.9225  -29.0200   17.7511 C   0  0  0  0  0  0  0  0  0  0  0  0
  -34.6550  -13.2653   21.3320 C   0  0  0  0  0  0  0  0  0  0  0  0
  -21.0742  -28.6329   18.9617 C   0  0  0  0  0  0  0  0  0  0  0  0
  -27.5478  -22.4033   16.9726 C   0  0  0  0  0  0  0  0  0  0  0  0
  -29.3034  -23.4841   15.7449 C   0  0  0  0  0  0  0  0  0  0  0  0
  -22.5663  -27.7968   17.1058 C   0  0  0  0  0  0  0  0  0  0  0  0
  -22.5338  -26.5827   19.2639 C   0  0  0  0  0  0  0  0  0  0  0  0
  -34.2854  -14.7473   21.4684 C   0  0  1  0  0  0  0  0  0  0  0  0
  -30.5860  -14.9928   22.2975 C   0  0  1  0  0  0  0  0  0  0  0  0
  -28.5899  -23.0759   17.9340 C   0  0  2  0  0  0  0  0  0  0  0  0
  -29.1643  -24.2258   17.0903 C   0  0  2  0  0  0  0  0  0  0  0  0
  -21.8897  -27.7938   19.9613 C   0  0  2  0  0  0  0  0  0  0  0  0
  -25.3624  -25.8407   18.9368 C   0  0  1  0  0  0  0  0  0  0  0  0
  -28.8569  -22.0700   16.1861 C   0  0  1  0  0  0  0  0  0  0  0  0
  -29.4943  -21.7942   17.6293 C   0  0  1  0  0  0  0  0  0  0  0  0
  -30.0528  -27.7193   21.2283 C   0  0  0  0  0  0  0  0  0  0  0  0
  -30.5074  -26.5566   18.5995 C   0  0  0  0  0  0  0  0  0  0  0  0
  -24.9673  -24.3771   18.9915 C   0  0  0  0  0  0  0  0  0  0  0  0
  -28.8494  -21.0170   15.1148 C   0  0  0  0  0  0  0  0  0  0  0  0
  -31.0207  -21.9453   17.7380 C   0  0  0  0  0  0  0  0  0  0  0  0
  -28.7523  -26.4792   16.0379 C   0  0  0  0  0  0  0  0  0  0  0  0
  -23.2722  -12.8319   20.9402 C   0  0  0  0  0  0  0  0  0  0  0  0
  -29.4464  -12.5206   18.5626 C   0  0  0  0  0  0  0  0  0  0  0  0
  -26.9935  -12.1580   18.2163 C   0  0  0  0  0  0  0  0  0  0  0  0
  -28.1957  -10.9105   20.0111 C   0  0  0  0  0  0  0  0  0  0  0  0
  -24.4267  -15.5881   23.2954 C   0  0  0  0  0  0  0  0  0  0  0  0
  -29.1309  -20.5199   18.3665 C   0  0  0  0  0  0  0  0  0  1  0  0
  -28.2493  -25.4390   17.0477 C   0  0  2  0  0  0  0  0  0  0  0  0
  -27.7475  -13.3812   20.3059 C   0  0  1  0  0  0  0  0  0  0  0  0
  -24.2694  -13.5950   21.7981 C   0  0  2  0  0  0  0  0  0  0  0  0
  -28.1057  -12.2683   19.2809 C   0  0  0  0  0  0  0  0  0  0  0  0
  -20.4194  -26.1955   21.1304 N   0  0  0  0  0  0  0  0  0  0  0  0
  -21.0560  -27.3787   21.1596 N   0  0  0  0  0  0  0  0  0  0  0  0
  -23.3078  -27.0081   18.0913 N   0  0  0  0  0  0  0  0  0  0  0  0
  -29.4143  -14.8189   21.4366 N   0  0  0  0  0  0  0  0  0  0  0  0
  -21.4286  -29.2903   22.5078 N   0  0  0  0  0  0  0  0  0  0  0  0
  -18.7268  -26.7254   25.0607 N   0  0  0  0  0  0  0  0  0  0  0  0
  -32.9969  -14.8897   22.1120 N   0  0  0  0  0  0  0  0  0  0  0  0
  -26.4961  -13.1547   21.0208 N   0  0  0  0  0  0  0  0  0  0  0  0
  -23.5696  -14.7613   22.4072 N   0  3  0  0  0  0  0  0  0  0  0  0
  -19.8536  -28.7203   24.9636 O   0  0  0  0  0  0  0  0  0  0  0  0
  -25.2541  -27.0147   16.8300 O   0  0  0  0  0  0  0  0  0  0  0  0
  -31.6575  -14.6331   20.2245 O   0  0  0  0  0  0  0  0  0  0  0  0
  -29.0934  -12.6065   22.0988 O   0  0  0  0  0  0  0  0  0  0  0  0
  -25.4659  -15.1245   20.3606 O   0  0  0  0  0  0  0  0  0  0  0  0
  -25.3234  -26.4548   20.2723 O   0  0  0  0  0  0  0  0  0  0  0  0
  -16.6704  -21.7318   23.6933 O   0  0  0  0  0  0  0  0  0  0  0  0
  -29.2464  -20.7556   19.7692 O   0  0  0  0  0  0  0  0  0  1  0  0
  -18.7285  -16.7186   22.6752 F   0  0  0  0  0  0  0  0  0  0  0  0
  -17.0771  -19.9223   25.7435 F   0  0  0  0  0  0  0  0  0  0  0  0
  1  2  1  0  0  0  0
  1  5  2  0  0  0  0
  2  6  2  0  0  0  0
  3  8  2  0  0  0  0
  3 16  1  0  0  0  0
  4  9  1  0  0  0  0
  4 16  2  0  0  0  0
  5 18  1  0  0  0  0
  6 20  1  0  0  0  0
  7 10  2  0  0  0  0
  7 19  1  0  0  0  0
  8 27  1  0  0  0  0
  9 27  2  0  0  0  0
 10 28  1  0  0  0  0
 11 12  2  0  0  0  0
 11 29  1  0  0  0  0
 12 30  1  0  0  0  0
 13 21  1  0  0  0  0
 13 28  2  0  0  0  0
 14 23  1  0  0  0  0
 14 26  2  0  0  0  0
 15 30  2  0  0  0  0
 15 31  1  0  0  0  0
 16 32  1  0  0  0  0
 17 32  1  0  0  0  0
 17 33  2  0  0  0  0
 17 34  1  0  0  0  0
 18 20  2  0  0  0  0
 18 39  1  0  0  0  0
 19 21  2  0  0  0  0
 19 40  1  0  0  0  0
 20 50  1  0  0  0  0
 21 41  1  0  0  0  0
 22 24  2  0  0  0  0
 22 26  1  0  0  0  0
 22 55  1  0  0  0  0
 23 25  2  0  0  0  0
 23 58  1  0  0  0  0
 24 25  1  0  0  0  0
 24 70  1  0  0  0  0
 25 59  1  0  0  0  0
 26 88  1  0  0  0  0
 27 89  1  0  0  0  0
 28 90  1  0  0  0  0
 29 31  2  0  0  0  0
 29 89  1  0  0  0  0
 30 91  1  0  0  0  0
 31 92  1  0  0  0  0
 32 74  2  0  0  0  0
 33 75  1  0  0  0  0
 33 78  1  0  0  0  0
 34 79  1  0  0  0  0
 34 83  2  0  0  0  0
 35 55  1  0  0  0  0
 35 76  1  0  0  0  0
 35 84  2  0  0  0  0
 36 51  1  0  0  0  0
 36 80  1  0  0  0  0
 36 85  2  0  0  0  0
 37 71  1  0  0  0  0
 37 77  1  0  0  0  0
 37 86  2  0  0  0  0
 38 72  1  0  0  0  0
 38 81  1  0  0  0  0
 38 87  2  0  0  0  0
 39 42  1  0  0  0  0
 40 51  1  0  0  0  0
 41 77  1  0  0  0  0
 42 44  1  0  0  0  0
 43 45  1  0  0  0  0
 43 48  1  0  0  0  0
 44 50  1  0  0  0  0
 45 54  1  0  0  0  0
 46 52  1  0  0  0  0
 46 56  1  0  0  0  0
 47 53  1  0  0  0  0
 47 56  1  0  0  0  0
 48 76  1  0  0  0  0
 49 54  1  0  0  0  0
 49 76  1  0  0  0  0
 50 80  1  0  0  0  0
 51 77  1  0  0  0  0
 52 53  1  0  0  0  0
 52 57  1  0  0  0  0
 53 70  1  0  0  0  0
 54 75  1  0  0  0  0
 55 60  1  0  0  0  0
 55 88  1  0  0  0  0
 56 57  1  0  0  0  0
 56 61  1  0  0  0  0
 57 62  1  0  0  0  0
 57 69  1  0  0  0  0
 63 70  1  0  0  0  0
 64 72  1  0  0  0  0
 65 73  1  0  0  0  0
 66 73  1  0  0  0  0
 67 73  1  0  0  0  0
 68 82  1  0  0  0  0
 69 90  1  0  0  0  0
 71 73  1  0  0  0  0
 71 81  1  0  0  0  0
 72 82  1  0  0  0  0
 74 75  1  0  0  0  0
M  CHG  1  82   1
M  ISO  4  35 100  55 100  69 101  90 101
M  END
> <Batch ID>
0170

> <Smiles>
CNC(C)C(=O)NC(C(=O)N1Cc2cc([101O:1][101CH2:1]C3(C)C4CC3(C)CC4C(C)c3c(C)c(C)cc4c3[100C:0](C)([100C:0](=O)N3CCCC(n5nc(-c6ccc(Oc7ccc(F)cc7F)cc6)c(C(N)=O)c5N)C3)O4)ccc2CC1C(=O)NC1CCCc2ccccc21)C(C)(C)C

> <Shape>
0.237

> <Color>
0.067

> <Negative vol penalty>
0.000

$$$$

  -OEChem-04052322353D

 94104  0     1  0  0  0  0  0999 V2000
  -22.8247  -32.4380   14.3027 C   0  0  0  0  0  0  0  0  0  0  0  0
  -23.8658  -31.7492   14.9168 C   0  0  0  0  0  0  0  0  0  0  0  0
  -23.7841   -8.6330   19.6320 C   0  0  0  0  0  0  0  0  0  0  0  0
  -25.2872   -9.5893   18.0000 C   0  0  0  0  0  0  0  0  0  0  0  0
  -22.2237  -33.5149   14.9529 C   0  0  0  0  0  0  0  0  0  0  0  0
  -24.3073  -32.1377   16.1811 C   0  0  0  0  0  0  0  0  0  0  0  0
  -25.0149  -28.2006   19.2865 C   0  0  0  0  0  0  0  0  0  0  0  0
  -23.6177   -7.5105   18.8209 C   0  0  0  0  0  0  0  0  0  0  0  0
  -25.1208   -8.4667   17.1890 C   0  0  0  0  0  0  0  0  0  0  0  0
  -26.1816  -27.4566   19.1157 C   0  0  0  0  0  0  0  0  0  0  0  0
  -22.8111   -7.2762   15.0259 C   0  0  0  0  0  0  0  0  0  0  0  0
  -22.5997   -7.4867   13.6634 C   0  0  0  0  0  0  0  0  0  0  0  0
  -27.1911  -28.6257   20.9687 C   0  0  0  0  0  0  0  0  0  0  0  0
  -24.5980   -6.2261   13.1586 C   0  0  0  0  0  0  0  0  0  0  0  0
  -24.6188   -9.6725   19.2215 C   0  0  0  0  0  0  0  0  0  0  0  0
  -23.7910  -11.7248   20.4905 C   0  0  0  0  0  0  0  0  0  0  0  0
  -22.6516  -33.9108   16.2300 C   0  0  0  0  0  0  0  0  0  0  0  0
  -24.9313  -29.1720   20.2944 C   0  0  0  0  0  0  0  0  0  0  0  0
  -23.7123  -33.2218   16.8485 C   0  0  0  0  0  0  0  0  0  0  0  0
  -26.0214  -29.3788   21.1518 C   0  0  0  0  0  0  0  0  0  0  0  0
  -30.6602  -26.3566   20.3298 C   0  0  0  0  0  0  0  0  0  0  0  0
  -31.7572  -26.9077   19.6770 C   0  0  0  0  0  0  0  0  0  0  0  0
  -30.6577  -25.0042   20.6528 C   0  0  0  0  0  0  0  0  0  0  0  0
  -24.2860   -7.4273   17.5995 C   0  0  0  0  0  0  0  0  0  0  0  0
  -27.2709  -27.6711   19.9550 C   0  0  0  0  0  0  0  0  0  0  0  0
  -23.9160   -6.5407   15.4549 C   0  0  0  0  0  0  0  0  0  0  0  0
  -23.4931   -6.9617   12.7297 C   0  0  0  0  0  0  0  0  0  0  0  0
  -24.8094   -6.0157   14.5212 C   0  0  0  0  0  0  0  0  0  0  0  0
  -24.7906  -10.8326   20.0586 C   0  0  0  0  0  0  0  0  0  0  0  0
  -32.8182  -26.0705   19.3717 C   0  0  0  0  0  0  0  0  0  0  0  0
  -31.7678  -24.2521   20.3037 C   0  0  0  0  0  0  0  0  0  0  0  0
  -24.4616  -12.6471   21.2562 C   0  0  0  0  0  0  0  0  0  0  0  0
  -22.3824  -11.7203   20.2236 C   0  0  0  0  0  0  0  0  0  0  0  0
  -24.4966  -32.3203   20.3450 C   0  0  0  0  0  0  0  0  0  0  0  0
  -24.3782  -31.8605   23.5538 C   0  0  0  0  0  0  0  0  0  0  0  0
  -26.1610  -29.8974   26.0003 C   0  0  0  0  0  0  0  0  0  0  0  0
  -28.5401  -16.0043   22.2130 C   0  0  0  0  0  0  0  0  0  0  0  0
  -22.0028  -35.1108   16.8733 C   0  0  0  0  0  0  0  0  0  0  0  0
  -23.6563  -29.9474   20.4826 C   0  0  0  0  0  0  0  0  0  0  0  0
  -25.9752  -30.3955   22.2620 C   0  0  0  0  0  0  0  0  0  0  0  0
  -22.2794  -35.2232   18.3704 C   0  0  0  0  0  0  0  0  0  0  0  0
  -29.1880  -12.6513   23.0387 C   0  0  0  0  0  0  0  0  0  0  0  0
  -23.7612  -35.0025   18.6576 C   0  0  0  0  0  0  0  0  0  0  0  0
  -28.0133  -11.9412   22.3665 C   0  0  0  0  0  0  0  0  0  0  0  0
  -30.7984  -20.6392   20.3673 C   0  0  0  0  0  0  0  0  0  0  0  0
  -32.3980  -21.1300   22.2330 C   0  0  0  0  0  0  0  0  0  0  0  0
  -29.7505  -13.7776   22.1696 C   0  0  0  0  0  0  0  0  0  0  0  0
  -31.2372  -21.9206   19.6576 C   0  0  0  0  0  0  0  0  0  0  0  0
  -32.8364  -22.4058   21.5149 C   0  0  0  0  0  0  0  0  0  0  0  0
  -31.0271  -16.4304   21.9729 C   0  0  0  0  0  0  0  0  0  0  0  0
  -29.6260  -17.9051   23.3694 C   0  0  0  0  0  0  0  0  0  0  0  0
  -27.5595  -14.0475   21.0536 C   0  0  0  0  0  0  0  0  0  0  0  0
  -31.4788  -17.6287   21.1441 C   0  0  0  0  0  0  0  0  0  0  0  0
  -30.0348  -19.1178   22.5493 C   0  0  0  0  0  0  0  0  0  0  0  0
  -24.2027  -33.5976   18.2300 C   0  0  1  0  0  0  0  0  0  0  0  0
  -23.8638  -31.2702   21.2136 C   0  0  1  0  0  0  0  0  0  0  0  0
  -26.9359  -12.9492   21.9287 C   0  0  1  0  0  0  0  0  0  0  0  0
  -31.9226  -20.0822   21.2328 C   0  0  0  0  0  0  0  0  0  0  0  0
  -31.7898  -28.3555   19.3178 C   0  0  0  0  0  0  0  0  0  0  0  0
  -34.0241  -26.6050   18.6708 C   0  0  0  0  0  0  0  0  0  0  0  0
  -29.8636  -23.8290   22.7365 C   0  0  0  0  0  0  0  0  0  0  0  0
  -28.8063  -23.2995   20.5102 C   0  0  0  0  0  0  0  0  0  0  0  0
  -25.4229  -29.0012   28.2251 C   0  0  0  0  0  0  0  0  0  0  0  0
  -25.6126  -34.4187   24.6682 C   0  0  0  0  0  0  0  0  0  0  0  0
  -26.4435  -33.0857   26.6178 C   0  0  0  0  0  0  0  0  0  0  0  0
  -23.9923  -33.2883   26.2016 C   0  0  0  0  0  0  0  0  0  0  0  0
  -26.8828  -27.1260   25.2538 C   0  0  0  0  0  0  0  0  0  0  0  0
  -29.4887  -27.2164   20.6835 C   0  0  0  0  0  0  0  0  0  1  0  0
  -29.4896  -24.3920   21.3531 C   0  0  0  0  0  0  0  0  0  0  0  0
  -25.3945  -31.8460   24.6700 C   0  0  1  0  0  0  0  0  0  0  0  0
  -25.6361  -28.6877   26.7523 C   0  0  2  0  0  0  0  0  0  0  0  0
  -25.3677  -33.1523   25.5128 C   0  0  0  0  0  0  0  0  0  0  0  0
  -26.0039  -11.1588   20.5120 N   0  0  0  0  0  0  0  0  0  0  0  0
  -32.8518  -24.7522   19.6693 N   0  0  0  0  0  0  0  0  0  0  0  0
  -25.7711  -12.2663   21.2367 N   0  0  0  0  0  0  0  0  0  0  0  0
  -31.7713  -22.8888   20.6233 N   0  0  0  0  0  0  0  0  0  0  0  0
  -24.7087  -31.1330   22.4017 N   0  0  0  0  0  0  0  0  0  0  0  0
  -28.6805  -14.6900   21.7428 N   0  0  0  0  0  0  0  0  0  0  0  0
  -29.7142  -16.6779   22.5811 N   0  0  0  0  0  0  0  0  0  0  0  0
  -24.0529  -13.7387   21.9373 N   0  0  0  0  0  0  0  0  0  0  0  0
  -21.9132  -12.4123   19.0987 N   0  0  0  0  0  0  0  0  0  0  0  0
  -23.7759  -32.6155   19.2035 N   0  0  0  0  0  0  0  0  0  0  0  0
  -25.1386  -30.6332   25.4394 N   0  0  0  0  0  0  0  0  0  0  0  0
  -31.4157  -18.8824   21.9831 N   0  3  0  0  0  0  0  0  0  0  0  0
  -26.5987  -27.5548   26.6475 N   0  3  0  0  0  0  0  0  0  0  0  0
  -21.5621  -11.1340   20.9699 O   0  0  0  0  0  0  0  0  0  0  0  0
  -25.5593  -32.8264   20.6858 O   0  0  0  0  0  0  0  0  0  0  0  0
  -23.3265  -32.4880   23.7016 O   0  0  0  0  0  0  0  0  0  0  0  0
  -27.3579  -30.1650   25.9217 O   0  0  0  0  0  0  0  0  0  0  0  0
  -27.4301  -16.5448   22.2983 O   0  0  0  0  0  0  0  0  0  0  0  0
  -24.1241   -6.3319   16.8079 O   0  0  0  0  0  0  0  0  0  0  0  0
  -28.4195  -26.9415   19.7889 O   0  0  0  0  0  0  0  0  0  1  0  0
  -23.2891   -7.1626   11.4212 F   0  0  0  0  0  0  0  0  0  0  0  0
  -25.8720   -5.3073   14.9271 F   0  0  0  0  0  0  0  0  0  0  0  0
  1  2  1  0  0  0  0
  1  5  2  0  0  0  0
  2  6  2  0  0  0  0
  3  8  2  0  0  0  0
  3 15  1  0  0  0  0
  4  9  1  0  0  0  0
  4 15  2  0  0  0  0
  5 17  1  0  0  0  0
  6 19  1  0  0  0  0
  7 10  2  0  0  0  0
  7 18  1  0  0  0  0
  8 24  1  0  0  0  0
  9 24  2  0  0  0  0
 10 25  1  0  0  0  0
 11 12  2  0  0  0  0
 11 26  1  0  0  0  0
 12 27  1  0  0  0  0
 13 20  1  0  0  0  0
 13 25  2  0  0  0  0
 14 27  2  0  0  0  0
 14 28  1  0  0  0  0
 15 29  1  0  0  0  0
 16 29  1  0  0  0  0
 16 32  2  0  0  0  0
 16 33  1  0  0  0  0
 17 19  2  0  0  0  0
 17 38  1  0  0  0  0
 18 20  2  0  0  0  0
 18 39  1  0  0  0  0
 19 55  1  0  0  0  0
 20 40  1  0  0  0  0
 21 22  1  0  0  0  0
 21 23  2  0  0  0  0
 21 68  1  0  0  0  0
 22 30  2  0  0  0  0
 22 59  1  0  0  0  0
 23 31  1  0  0  0  0
 23 69  1  0  0  0  0
 24 91  1  0  0  0  0
 25 92  1  0  0  0  0
 26 28  2  0  0  0  0
 26 91  1  0  0  0  0
 27 93  1  0  0  0  0
 28 94  1  0  0  0  0
 29 73  2  0  0  0  0
 30 60  1  0  0  0  0
 30 74  1  0  0  0  0
 31 74  2  0  0  0  0
 31 76  1  0  0  0  0
 32 75  1  0  0  0  0
 32 80  1  0  0  0  0
 33 81  1  0  0  0  0
 33 86  2  0  0  0  0
 34 56  1  0  0  0  0
 34 82  1  0  0  0  0
 34 87  2  0  0  0  0
 35 70  1  0  0  0  0
 35 77  1  0  0  0  0
 35 88  2  0  0  0  0
 36 71  1  0  0  0  0
 36 83  1  0  0  0  0
 36 89  2  0  0  0  0
 37 78  1  0  0  0  0
 37 79  1  0  0  0  0
 37 90  2  0  0  0  0
 38 41  1  0  0  0  0
 39 56  1  0  0  0  0
 40 77  1  0  0  0  0
 41 43  1  0  0  0  0
 42 44  1  0  0  0  0
 42 47  1  0  0  0  0
 43 55  1  0  0  0  0
 44 57  1  0  0  0  0
 45 48  1  0  0  0  0
 45 58  1  0  0  0  0
 46 49  1  0  0  0  0
 46 58  1  0  0  0  0
 47 78  1  0  0  0  0
 48 76  1  0  0  0  0
 49 76  1  0  0  0  0
 50 53  1  0  0  0  0
 50 79  1  0  0  0  0
 51 54  1  0  0  0  0
 51 79  1  0  0  0  0
 52 57  1  0  0  0  0
 52 78  1  0  0  0  0
 53 84  1  0  0  0  0
 54 84  1  0  0  0  0
 55 82  1  0  0  0  0
 56 77  1  0  0  0  0
 57 75  1  0  0  0  0
 58 84  1  0  0  0  0
 61 69  1  0  0  0  0
 62 69  1  0  0  0  0
 63 71  1  0  0  0  0
 64 72  1  0  0  0  0
 65 72  1  0  0  0  0
 66 72  1  0  0  0  0
 67 85  1  0  0  0  0
 68 92  1  0  0  0  0
 70 72  1  0  0  0  0
 70 83  1  0  0  0  0
 71 85  1  0  0  0  0
 73 75  1  0  0  0  0
M  CHG  2  84   1  85   1
M  ISO  4  37 100  68 101  79 100  92 101
M  END
> <Batch ID>
0170

> <Smiles>
CNC(C)C(=O)NC(C(=O)N1Cc2cc([101O:1][101CH2:1]c3c(C)c(C)nc(N4CCC(N5CC[100N:0]([100C:0](=O)N6CCCC(n7nc(-c8ccc(Oc9ccc(F)cc9F)cc8)c(C(N)=O)c7N)C6)CC5)CC4)c3C(C)C)ccc2CC1C(=O)NC1CCCc2ccccc21)C(C)(C)C

> <Shape>
0.230

> <Color>
0.089

> <Negative vol penalty>
0.000

$$$$

  -OEChem-04052322353D

 86 96  0     1  0  0  0  0  0999 V2000
  -20.0710  -12.3336   18.3935 C   0  0  0  0  0  0  0  0  0  0  0  0
  -20.5046  -13.6100   18.0497 C   0  0  0  0  0  0  0  0  0  0  0  0
  -18.1985  -21.1000   19.1721 C   0  0  0  0  0  0  0  0  0  0  0  0
  -17.6660  -20.7162   21.4972 C   0  0  0  0  0  0  0  0  0  0  0  0
  -20.6976  -11.6411   19.4288 C   0  0  0  0  0  0  0  0  0  0  0  0
  -21.5645  -14.1951   18.7417 C   0  0  0  0  0  0  0  0  0  0  0  0
  -27.0894  -18.6488   17.7641 C   0  0  0  0  0  0  0  0  0  0  0  0
  -16.9866  -20.5190   18.7987 C   0  0  0  0  0  0  0  0  0  0  0  0
  -16.4542  -20.1352   21.1238 C   0  0  0  0  0  0  0  0  0  0  0  0
  -27.6490  -19.8057   18.3047 C   0  0  0  0  0  0  0  0  0  0  0  0
  -14.1929  -18.8109   17.2171 C   0  0  0  0  0  0  0  0  0  0  0  0
  -14.2072  -17.8985   16.1622 C   0  0  0  0  0  0  0  0  0  0  0  0
  -28.7072  -18.4836   20.0227 C   0  0  0  0  0  0  0  0  0  0  0  0
  -26.7794  -25.6885   20.8094 C   0  0  0  0  0  0  0  0  0  0  0  0
  -15.7309  -16.4907   17.4006 C   0  0  0  0  0  0  0  0  0  0  0  0
  -18.5382  -21.1985   20.5214 C   0  0  0  0  0  0  0  0  0  0  0  0
  -21.0832  -21.3709   20.5509 C   0  0  0  0  0  0  0  0  0  0  0  0
  -21.7720  -12.2141   20.1274 C   0  0  0  0  0  0  0  0  0  0  0  0
  -27.3261  -17.3998   18.3561 C   0  0  0  0  0  0  0  0  0  0  0  0
  -22.2052  -13.5101   19.7881 C   0  0  0  0  0  0  0  0  0  0  0  0
  -28.1515  -17.3121   19.4862 C   0  0  0  0  0  0  0  0  0  0  0  0
  -26.4078  -26.9935   20.5503 C   0  0  0  0  0  0  0  0  0  0  0  0
  -27.0741  -27.7391   19.5760 C   0  0  0  0  0  0  0  0  0  0  0  0
  -16.1145  -20.0366   19.7745 C   0  0  0  0  0  0  0  0  0  0  0  0
  -28.4557  -19.7235   19.4359 C   0  0  0  0  0  0  0  0  0  0  0  0
  -14.9476  -18.5633   18.3638 C   0  0  0  0  0  0  0  0  0  0  0  0
  -14.9762  -16.7383   16.2540 C   0  0  0  0  0  0  0  0  0  0  0  0
  -15.7166  -17.4032   18.4555 C   0  0  0  0  0  0  0  0  0  0  0  0
  -19.7901  -21.7981   20.9077 C   0  0  0  0  0  0  0  0  0  0  0  0
  -27.8187  -25.1804   20.0430 C   0  0  0  0  0  0  0  0  0  0  0  0
  -28.1025  -27.1556   18.8736 C   0  0  0  0  0  0  0  0  0  0  0  0
  -21.9228  -22.2668   21.1665 C   0  0  0  0  0  0  0  0  0  0  0  0
  -21.4891  -20.2634   19.7359 C   0  0  0  0  0  0  0  0  0  0  0  0
  -25.5012  -15.1783   19.7121 C   0  0  0  0  0  0  0  0  0  0  0  0
  -28.2770  -13.5016   19.7904 C   0  0  0  0  0  0  0  0  0  0  0  0
  -31.6894  -13.5463   19.8024 C   0  0  0  0  0  0  0  0  0  0  0  0
  -23.2912  -27.4988   22.5446 C   0  0  0  0  0  0  0  0  0  0  0  0
  -22.3870  -11.4459   21.2703 C   0  0  0  0  0  0  0  0  0  0  0  0
  -26.7368  -16.1582   17.7450 C   0  0  0  0  0  0  0  0  0  0  0  0
  -26.5508  -29.1344   19.5015 C   0  0  0  0  0  0  0  0  0  0  0  0
  -28.4530  -15.9929   20.1475 C   0  0  0  0  0  0  0  0  0  0  0  0
  -23.7465  -11.9865   21.7059 C   0  0  0  0  0  0  0  0  0  0  0  0
  -25.1926  -28.9736   20.2043 C   0  0  0  0  0  0  0  0  0  0  0  0
  -20.9752  -25.8063   24.6537 C   0  0  0  0  0  0  0  0  0  0  0  0
  -23.6987  -13.5051   21.8412 C   0  0  0  0  0  0  0  0  0  0  0  0
  -29.7484  -23.6168   20.6997 C   0  0  0  0  0  0  0  0  0  0  0  0
  -20.5628  -24.5815   23.8354 C   0  0  0  0  0  0  0  0  0  0  0  0
  -30.4191  -22.7783   19.6131 C   0  0  0  0  0  0  0  0  0  0  0  0
  -28.1117  -22.8739   19.0193 C   0  0  0  0  0  0  0  0  0  0  0  0
  -21.1881  -27.0315   23.7675 C   0  0  0  0  0  0  0  0  0  0  0  0
  -21.7119  -25.6046   21.8275 C   0  0  0  0  0  0  0  0  0  0  0  0
  -23.3677  -14.1685   20.4989 C   0  0  1  0  0  0  0  0  0  0  0  0
  -25.3680  -27.8348   21.2282 C   0  0  1  0  0  0  0  0  0  0  0  0
  -28.2720  -23.7562   20.2742 C   0  0  2  0  0  0  0  0  0  0  0  0
  -26.6267  -15.0006   18.7326 C   0  0  1  0  0  0  0  0  0  0  0  0
  -21.5399  -24.3299   22.6713 C   0  0  2  0  0  0  0  0  0  0  0  0
  -29.2929  -21.9143   19.0669 C   0  0  2  0  0  0  0  0  0  1  0  0
  -28.8532  -27.9215   17.8392 C   0  0  0  0  0  0  0  0  0  0  0  0
  -33.6791  -12.0209   19.9108 C   0  0  0  0  0  0  0  0  0  0  0  0
  -27.8087  -13.1072   22.7796 C   0  0  0  0  0  0  0  0  0  0  0  0
  -30.2119  -12.4396   22.9971 C   0  0  0  0  0  0  0  0  0  0  0  0
  -28.6663  -11.0859   21.5824 C   0  0  0  0  0  0  0  0  0  0  0  0
  -32.6680  -14.4446   17.1577 C   0  0  0  0  0  0  0  0  0  0  0  0
  -29.4140  -13.3616   20.7735 C   0  0  1  0  0  0  0  0  0  0  0  0
  -32.7099  -12.7590   19.0005 C   0  0  2  0  0  0  0  0  0  0  0  0
  -29.0182  -12.5238   22.0220 C   0  0  0  0  0  0  0  0  0  0  0  0
  -19.8022  -22.8810   21.6895 N   0  0  0  0  0  0  0  0  0  0  0  0
  -28.4872  -25.8761   19.0841 N   0  0  0  0  0  0  0  0  0  0  0  0
  -21.1132  -23.1418   21.8291 N   0  0  0  0  0  0  0  0  0  0  0  0
  -27.8485  -14.8082   19.5164 N   0  0  0  0  0  0  0  0  0  0  0  0
  -22.1261  -26.7267   22.6843 N   0  0  0  0  0  0  0  0  0  0  0  0
  -23.2673  -22.3835   21.2003 N   0  0  0  0  0  0  0  0  0  0  0  0
  -20.4972  -19.4435   19.1807 N   0  0  0  0  0  0  0  0  0  0  0  0
  -24.5359  -14.1918   19.6450 N   0  0  0  0  0  0  0  0  0  0  0  0
  -30.5394  -12.8176   20.0212 N   0  0  0  0  0  0  0  0  0  0  0  0
  -24.1291  -27.1391   21.4962 N   0  0  0  0  0  0  0  0  0  0  0  0
  -33.4937  -13.6719   18.1211 N   0  3  0  0  0  0  0  0  0  0  0  0
  -22.6961  -19.9987   19.5201 O   0  0  0  0  0  0  0  0  0  0  0  0
  -25.5089  -16.1385   20.4734 O   0  0  0  0  0  0  0  0  0  0  0  0
  -27.7917  -12.4894   19.2789 O   0  0  0  0  0  0  0  0  0  0  0  0
  -31.8935  -14.6917   20.1986 O   0  0  0  0  0  0  0  0  0  0  0  0
  -23.5670  -28.4357   23.3016 O   0  0  0  0  0  0  0  0  0  0  0  0
  -14.9318  -19.4698   19.4105 O   0  0  0  0  0  0  0  0  0  0  0  0
  -29.0026  -20.8512   19.9660 O   0  0  0  0  0  0  0  0  0  1  0  0
  -14.9886  -15.8614   15.2415 F   0  0  0  0  0  0  0  0  0  0  0  0
  -16.4428  -17.1592   19.5551 F   0  0  0  0  0  0  0  0  0  0  0  0
  1  2  1  0  0  0  0
  1  5  2  0  0  0  0
  2  6  2  0  0  0  0
  3  8  2  0  0  0  0
  3 16  1  0  0  0  0
  4  9  1  0  0  0  0
  4 16  2  0  0  0  0
  5 18  1  0  0  0  0
  6 20  1  0  0  0  0
  7 10  2  0  0  0  0
  7 19  1  0  0  0  0
  8 24  1  0  0  0  0
  9 24  2  0  0  0  0
 10 25  1  0  0  0  0
 11 12  2  0  0  0  0
 11 26  1  0  0  0  0
 12 27  1  0  0  0  0
 13 21  1  0  0  0  0
 13 25  2  0  0  0  0
 14 22  2  0  0  0  0
 14 30  1  0  0  0  0
 15 27  2  0  0  0  0
 15 28  1  0  0  0  0
 16 29  1  0  0  0  0
 17 29  1  0  0  0  0
 17 32  2  0  0  0  0
 17 33  1  0  0  0  0
 18 20  2  0  0  0  0
 18 38  1  0  0  0  0
 19 21  2  0  0  0  0
 19 39  1  0  0  0  0
 20 52  1  0  0  0  0
 21 41  1  0  0  0  0
 22 23  1  0  0  0  0
 22 53  1  0  0  0  0
 23 31  2  0  0  0  0
 23 40  1  0  0  0  0
 24 83  1  0  0  0  0
 25 84  1  0  0  0  0
 26 28  2  0  0  0  0
 26 83  1  0  0  0  0
 27 85  1  0  0  0  0
 28 86  1  0  0  0  0
 29 67  2  0  0  0  0
 30 54  1  0  0  0  0
 30 68  2  0  0  0  0
 31 58  1  0  0  0  0
 31 68  1  0  0  0  0
 32 69  1  0  0  0  0
 32 72  1  0  0  0  0
 33 73  1  0  0  0  0
 33 78  2  0  0  0  0
 34 55  1  0  0  0  0
 34 74  1  0  0  0  0
 34 79  2  0  0  0  0
 35 64  1  0  0  0  0
 35 70  1  0  0  0  0
 35 80  2  0  0  0  0
 36 65  1  0  0  0  0
 36 75  1  0  0  0  0
 36 81  2  0  0  0  0
 37 71  1  0  0  0  0
 37 76  1  0  0  0  0
 37 82  2  0  0  0  0
 38 42  1  0  0  0  0
 39 55  1  0  0  0  0
 40 43  1  0  0  0  0
 41 70  1  0  0  0  0
 42 45  1  0  0  0  0
 43 53  1  0  0  0  0
 44 47  1  0  0  0  0
 44 50  1  0  0  0  0
 45 52  1  0  0  0  0
 46 48  1  0  0  0  0
 46 54  1  0  0  0  0
 47 56  1  0  0  0  0
 48 57  1  0  0  0  0
 49 54  1  0  0  0  0
 49 57  1  0  0  0  0
 50 71  1  0  0  0  0
 51 56  1  0  0  0  0
 51 71  1  0  0  0  0
 52 74  1  0  0  0  0
 53 76  1  0  0  0  0
 55 70  1  0  0  0  0
 56 69  1  0  0  0  0
 57 84  1  0  0  0  0
 59 65  1  0  0  0  0
 60 66  1  0  0  0  0
 61 66  1  0  0  0  0
 62 66  1  0  0  0  0
 63 77  1  0  0  0  0
 64 66  1  0  0  0  0
 64 75  1  0  0  0  0
 65 77  1  0  0  0  0
 67 69  1  0  0  0  0
M  CHG  1  77   1
M  ISO  4  37 100  57 101  76 100  84 101
M  END
> <Batch ID>
0170

> <Smiles>
CNC(C)C(=O)NC(C(=O)N1Cc2cc([101O:1][101CH:1]3CCC(c4cc5c(c(C)n4)CCC5[100NH:0][100C:0](=O)N4CCCC(n5nc(-c6ccc(Oc7ccc(F)cc7F)cc6)c(C(N)=O)c5N)C4)C3)ccc2CC1C(=O)NC1CCCc2ccccc21)C(C)(C)C

> <Shape>
0.187

> <Color>
0.080

> <Negative vol penalty>
0.000

$$$$

  -OEChem-04052322353D

 85 94  0     1  0  0  0  0  0999 V2000
  -27.9830  -33.5065   26.3296 C   0  0  0  0  0  0  0  0  0  0  0  0
  -28.0719  -32.2596   25.7189 C   0  0  0  0  0  0  0  0  0  0  0  0
  -25.3014  -10.1361   23.1292 C   0  0  0  0  0  0  0  0  0  0  0  0
  -24.2081   -9.2561   21.1627 C   0  0  0  0  0  0  0  0  0  0  0  0
  -26.7351  -34.0934   26.5350 C   0  0  0  0  0  0  0  0  0  0  0  0
  -26.9128  -31.5985   25.3143 C   0  0  0  0  0  0  0  0  0  0  0  0
  -27.3321  -29.6035   20.6786 C   0  0  0  0  0  0  0  0  0  0  0  0
  -24.3503   -9.5127   23.9370 C   0  0  0  0  0  0  0  0  0  0  0  0
  -23.2570   -8.6326   21.9705 C   0  0  0  0  0  0  0  0  0  0  0  0
  -28.0448  -28.4110   20.5607 C   0  0  0  0  0  0  0  0  0  0  0  0
  -23.0500   -5.8508   23.8780 C   0  0  0  0  0  0  0  0  0  0  0  0
  -22.7167   -4.5291   23.5820 C   0  0  0  0  0  0  0  0  0  0  0  0
  -25.9691  -27.1835   20.4987 C   0  0  0  0  0  0  0  0  0  0  0  0
  -20.4181   -5.1868   23.2339 C   0  0  0  0  0  0  0  0  0  0  0  0
  -25.2302  -10.0079   21.7421 C   0  0  0  0  0  0  0  0  0  0  0  0
  -27.4366  -10.1156   20.4661 C   0  0  0  0  0  0  0  0  0  0  0  0
  -25.5607  -33.4434   26.1239 C   0  0  0  0  0  0  0  0  0  0  0  0
  -25.9304  -29.5939   20.7185 C   0  0  0  0  0  0  0  0  0  0  0  0
  -25.6479  -32.1767   25.5156 C   0  0  0  0  0  0  0  0  0  0  0  0
  -25.2409  -28.3774   20.6146 C   0  0  0  0  0  0  0  0  0  0  0  0
  -23.3282   -8.7610   23.3576 C   0  0  0  0  0  0  0  0  0  0  0  0
  -27.3634  -27.2006   20.4737 C   0  0  0  0  0  0  0  0  0  0  0  0
  -22.0674   -6.8405   23.8521 C   0  0  0  0  0  0  0  0  0  0  0  0
  -21.4008   -4.1971   23.2599 C   0  0  0  0  0  0  0  0  0  0  0  0
  -20.7515   -6.5085   23.5300 C   0  0  0  0  0  0  0  0  0  0  0  0
  -26.2120  -10.6521   20.9071 C   0  0  0  0  0  0  0  0  0  0  0  0
  -31.0812  -23.2338   18.8506 C   0  0  0  0  0  0  0  0  0  0  0  0
  -31.0952  -22.3648   19.9114 C   0  0  0  0  0  0  0  0  0  0  0  0
  -27.9957  -11.1146   19.7072 C   0  0  0  0  0  0  0  0  0  0  0  0
  -30.0693  -24.7685   20.1623 C   0  0  0  0  0  0  0  0  0  0  0  0
  -28.0168   -8.8292   20.7198 C   0  0  0  0  0  0  0  0  0  0  0  0
  -23.7410  -30.4715   22.8493 C   0  0  0  0  0  0  0  0  0  0  0  0
  -21.6816  -29.7670   20.4441 C   0  0  0  0  0  0  0  0  0  0  0  0
  -21.0701  -28.0357   17.5674 C   0  0  0  0  0  0  0  0  0  0  0  0
  -29.3588  -16.2255   18.7902 C   0  0  0  0  0  0  0  0  0  0  0  0
  -24.2315  -34.0962   26.4100 C   0  0  0  0  0  0  0  0  0  0  0  0
  -25.1757  -30.8911   20.8192 C   0  0  0  0  0  0  0  0  0  0  0  0
  -23.7361  -28.3148   20.6323 C   0  0  0  0  0  0  0  0  0  0  0  0
  -23.0750  -33.4977   25.6133 C   0  0  0  0  0  0  0  0  0  0  0  0
  -26.0357  -15.4337   17.9693 C   0  0  0  0  0  0  0  0  0  0  0  0
  -23.1217  -31.9740   25.6673 C   0  0  0  0  0  0  0  0  0  0  0  0
  -25.8782  -14.0645   18.6301 C   0  0  0  0  0  0  0  0  0  0  0  0
  -26.8309  -16.4045   18.8441 C   0  0  0  0  0  0  0  0  0  0  0  0
  -28.7175  -18.6635   19.0538 C   0  0  0  0  0  0  0  0  0  0  0  0
  -30.6351  -18.0111   17.6448 C   0  0  0  0  0  0  0  0  0  0  0  0
  -27.9880  -14.5123   19.9395 C   0  0  0  0  0  0  0  0  0  0  0  0
  -29.6240  -19.5635   19.8874 C   0  0  0  0  0  0  0  0  0  0  0  0
  -31.5725  -18.8783   18.4693 C   0  0  0  0  0  0  0  0  0  0  0  0
  -24.4149  -31.4392   25.0402 C   0  0  1  0  0  0  0  0  0  0  0  0
  -23.7625  -30.7192   21.3675 C   0  0  1  0  0  0  0  0  0  0  0  0
  -27.2435  -13.4976   19.0582 C   0  0  1  0  0  0  0  0  0  0  0  0
  -31.6433  -22.8510   17.5245 C   0  0  0  0  0  0  0  0  0  0  0  0
  -19.2831  -27.6343   15.8519 C   0  0  0  0  0  0  0  0  0  0  0  0
  -20.2148  -27.9437   22.4023 C   0  0  0  0  0  0  0  0  0  0  0  0
  -19.0739  -26.8766   20.4458 C   0  0  0  0  0  0  0  0  0  0  0  0
  -18.7233  -29.3000   20.9222 C   0  0  0  0  0  0  0  0  0  0  0  0
  -22.7530  -29.1252   15.3903 C   0  0  0  0  0  0  0  0  0  0  0  0
  -31.6731  -20.9845   19.8038 C   0  0  0  0  0  0  0  0  0  0  0  0
  -29.4805  -26.1261   20.3345 C   0  0  0  0  0  0  0  0  0  1  0  0
  -20.9453  -28.5277   19.9957 C   0  0  1  0  0  0  0  0  0  0  0  0
  -20.4940  -28.4719   16.2324 C   0  0  2  0  0  0  0  0  0  0  0  0
  -19.7677  -28.1627   20.9431 C   0  0  0  0  0  0  0  0  0  0  0  0
  -26.0048  -11.8954   20.4653 N   0  0  0  0  0  0  0  0  0  0  0  0
  -30.5633  -24.4672   18.9522 N   0  0  0  0  0  0  0  0  0  0  0  0
  -30.5841  -22.7234   21.1031 N   0  0  0  0  0  0  0  0  0  0  0  0
  -30.0553  -23.9573   21.2383 N   0  0  0  0  0  0  0  0  0  0  0  0
  -27.1068  -12.1485   19.7388 N   0  0  0  0  0  0  0  0  0  0  0  0
  -23.0433  -29.6095   20.7385 N   0  0  0  0  0  0  0  0  0  0  0  0
  -28.1061  -15.8048   19.2611 N   0  0  0  0  0  0  0  0  0  0  0  0
  -29.4843  -17.5763   18.4335 N   0  0  0  0  0  0  0  0  0  0  0  0
  -29.1560  -11.2007   19.0227 N   0  0  0  0  0  0  0  0  0  0  0  0
  -27.3083   -7.9228   21.5202 N   0  0  0  0  0  0  0  0  0  0  0  0
  -24.3286  -31.4747   23.5960 N   0  0  0  0  0  0  0  0  0  0  0  0
  -20.5473  -28.7673   18.6128 N   0  0  0  0  0  0  0  0  0  0  0  0
  -30.7883  -20.0327   19.0484 N   0  3  0  0  0  0  0  0  0  0  0  0
  -21.5169  -28.3348   15.1572 N   0  3  0  0  0  0  0  0  0  0  0  0
  -29.1380   -8.4996   20.2640 O   0  0  0  0  0  0  0  0  0  0  0  0
  -23.2279  -29.4467   23.2832 O   0  0  0  0  0  0  0  0  0  0  0  0
  -21.0727  -30.8368   20.5232 O   0  0  0  0  0  0  0  0  0  0  0  0
  -21.8980  -27.1335   17.6728 O   0  0  0  0  0  0  0  0  0  0  0  0
  -30.3101  -15.4398   18.6947 O   0  0  0  0  0  0  0  0  0  0  0  0
  -22.4001   -8.1523   24.1455 O   0  0  0  0  0  0  0  0  0  0  0  0
  -28.0612  -26.0273   20.3584 O   0  0  0  0  0  0  0  0  0  1  0  0
  -21.0811   -2.9281   22.9740 F   0  0  0  0  0  0  0  0  0  0  0  0
  -19.8034   -7.4552   23.5023 F   0  0  0  0  0  0  0  0  0  0  0  0
  1  2  1  0  0  0  0
  1  5  2  0  0  0  0
  2  6  2  0  0  0  0
  3  8  2  0  0  0  0
  3 15  1  0  0  0  0
  4  9  1  0  0  0  0
  4 15  2  0  0  0  0
  5 17  1  0  0  0  0
  6 19  1  0  0  0  0
  7 10  2  0  0  0  0
  7 18  1  0  0  0  0
  8 21  1  0  0  0  0
  9 21  2  0  0  0  0
 10 22  1  0  0  0  0
 11 12  2  0  0  0  0
 11 23  1  0  0  0  0
 12 24  1  0  0  0  0
 13 20  1  0  0  0  0
 13 22  2  0  0  0  0
 14 24  2  0  0  0  0
 14 25  1  0  0  0  0
 15 26  1  0  0  0  0
 16 26  1  0  0  0  0
 16 29  2  0  0  0  0
 16 31  1  0  0  0  0
 17 19  2  0  0  0  0
 17 36  1  0  0  0  0
 18 20  2  0  0  0  0
 18 37  1  0  0  0  0
 19 49  1  0  0  0  0
 20 38  1  0  0  0  0
 21 82  1  0  0  0  0
 22 83  1  0  0  0  0
 23 25  2  0  0  0  0
 23 82  1  0  0  0  0
 24 84  1  0  0  0  0
 25 85  1  0  0  0  0
 26 63  2  0  0  0  0
 27 28  2  0  0  0  0
 27 52  1  0  0  0  0
 27 64  1  0  0  0  0
 28 58  1  0  0  0  0
 28 65  1  0  0  0  0
 29 67  1  0  0  0  0
 29 71  1  0  0  0  0
 30 59  1  0  0  0  0
 30 64  2  0  0  0  0
 30 66  1  0  0  0  0
 31 72  1  0  0  0  0
 31 77  2  0  0  0  0
 32 50  1  0  0  0  0
 32 73  1  0  0  0  0
 32 78  2  0  0  0  0
 33 60  1  0  0  0  0
 33 68  1  0  0  0  0
 33 79  2  0  0  0  0
 34 61  1  0  0  0  0
 34 74  1  0  0  0  0
 34 80  2  0  0  0  0
 35 69  1  0  0  0  0
 35 70  1  0  0  0  0
 35 81  2  0  0  0  0
 36 39  1  0  0  0  0
 37 50  1  0  0  0  0
 38 68  1  0  0  0  0
 39 41  1  0  0  0  0
 40 42  1  0  0  0  0
 40 43  1  0  0  0  0
 41 49  1  0  0  0  0
 42 51  1  0  0  0  0
 43 69  1  0  0  0  0
 44 47  1  0  0  0  0
 44 70  1  0  0  0  0
 45 48  1  0  0  0  0
 45 70  1  0  0  0  0
 46 51  1  0  0  0  0
 46 69  1  0  0  0  0
 47 75  1  0  0  0  0
 48 75  1  0  0  0  0
 49 73  1  0  0  0  0
 50 68  1  0  0  0  0
 51 67  1  0  0  0  0
 53 61  1  0  0  0  0
 54 62  1  0  0  0  0
 55 62  1  0  0  0  0
 56 62  1  0  0  0  0
 57 76  1  0  0  0  0
 58 75  1  0  0  0  0
 59 83  1  0  0  0  0
 60 62  1  0  0  0  0
 60 74  1  0  0  0  0
 61 76  1  0  0  0  0
 63 67  1  0  0  0  0
 65 66  2  0  0  0  0
M  CHG  2  75   1  76   1
M  ISO  4  35 100  59 101  70 100  83 101
M  END
> <Batch ID>
0170

> <Smiles>
CNC(C)C(=O)NC(C(=O)N1Cc2cc([101O:1][101CH2:1]c3nnc(CN4CC[100N:0]([100C:0](=O)N5CCCC(n6nc(-c7ccc(Oc8ccc(F)cc8F)cc7)c(C(N)=O)c6N)C5)CC4)c(C)n3)ccc2CC1C(=O)NC1CCCc2ccccc21)C(C)(C)C

> <Shape>
0.301

> <Color>
0.085

> <Negative vol penalty>
0.000

$$$$

  -OEChem-04052322353D

 85 94  0     1  0  0  0  0  0999 V2000
  -29.3771  -33.3785   27.3844 C   0  0  0  0  0  0  0  0  0  0  0  0
  -28.8999  -32.3549   26.5720 C   0  0  0  0  0  0  0  0  0  0  0  0
  -24.0367   -9.4576   22.2155 C   0  0  0  0  0  0  0  0  0  0  0  0
  -23.1196   -9.6974   19.9932 C   0  0  0  0  0  0  0  0  0  0  0  0
  -28.5616  -34.4702   27.6798 C   0  0  0  0  0  0  0  0  0  0  0  0
  -27.6065  -32.4219   26.0554 C   0  0  0  0  0  0  0  0  0  0  0  0
  -27.4064  -31.1752   21.1512 C   0  0  0  0  0  0  0  0  0  0  0  0
  -23.1115   -8.4502   22.4887 C   0  0  0  0  0  0  0  0  0  0  0  0
  -22.1944   -8.6899   20.2663 C   0  0  0  0  0  0  0  0  0  0  0  0
  -27.4539  -29.8178   20.8369 C   0  0  0  0  0  0  0  0  0  0  0  0
  -22.7351   -5.1608   21.8020 C   0  0  0  0  0  0  0  0  0  0  0  0
  -23.2002   -4.0073   22.4333 C   0  0  0  0  0  0  0  0  0  0  0  0
  -25.0579  -29.8047   20.5575 C   0  0  0  0  0  0  0  0  0  0  0  0
  -21.6927   -4.4092   24.2781 C   0  0  0  0  0  0  0  0  0  0  0  0
  -24.9721  -24.7742   20.6318 C   0  0  0  0  0  0  0  0  0  0  0  0
  -24.0407  -10.0813   20.9678 C   0  0  0  0  0  0  0  0  0  0  0  0
  -26.2834  -10.9689   20.1371 C   0  0  0  0  0  0  0  0  0  0  0  0
  -27.2609  -34.5552   27.1586 C   0  0  0  0  0  0  0  0  0  0  0  0
  -26.1810  -31.8563   21.1818 C   0  0  0  0  0  0  0  0  0  0  0  0
  -26.7723  -33.5150   26.3452 C   0  0  0  0  0  0  0  0  0  0  0  0
  -24.9978  -31.1714   20.8700 C   0  0  0  0  0  0  0  0  0  0  0  0
  -25.3110  -25.7191   19.6767 C   0  0  0  0  0  0  0  0  0  0  0  0
  -25.8628  -25.2686   18.4827 C   0  0  0  0  0  0  0  0  0  0  0  0
  -26.0561  -23.9063   18.2829 C   0  0  0  0  0  0  0  0  0  0  0  0
  -22.1903   -8.0663   21.5141 C   0  0  0  0  0  0  0  0  0  0  0  0
  -26.2793  -29.1316   20.5428 C   0  0  0  0  0  0  0  0  0  0  0  0
  -21.7488   -5.9386   22.4087 C   0  0  0  0  0  0  0  0  0  0  0  0
  -22.6790   -3.6315   23.6714 C   0  0  0  0  0  0  0  0  0  0  0  0
  -21.2276   -5.5628   23.6467 C   0  0  0  0  0  0  0  0  0  0  0  0
  -24.9959  -11.1224   20.6852 C   0  0  0  0  0  0  0  0  0  0  0  0
  -25.6840  -23.0425   19.3004 C   0  0  0  0  0  0  0  0  0  0  0  0
  -26.7819  -12.2469   20.0684 C   0  0  0  0  0  0  0  0  0  0  0  0
  -26.9676   -9.7777   19.7267 C   0  0  0  0  0  0  0  0  0  0  0  0
  -24.5197  -33.3854   23.4191 C   0  0  0  0  0  0  0  0  0  0  0  0
  -22.5998  -34.1506   20.9189 C   0  0  0  0  0  0  0  0  0  0  0  0
  -21.4780  -33.3868   17.7877 C   0  0  0  0  0  0  0  0  0  0  0  0
  -26.3879  -17.4759   18.9079 C   0  0  0  0  0  0  0  0  0  0  0  0
  -26.3999  -35.7319   27.5442 C   0  0  0  0  0  0  0  0  0  0  0  0
  -26.1496  -33.3267   21.4966 C   0  0  0  0  0  0  0  0  0  0  0  0
  -23.6589  -31.8612   20.8691 C   0  0  0  0  0  0  0  0  0  0  0  0
  -25.1738  -35.9078   26.6520 C   0  0  0  0  0  0  0  0  0  0  0  0
  -25.0662  -16.5718   22.0344 C   0  0  0  0  0  0  0  0  0  0  0  0
  -24.4663  -34.5720   26.4475 C   0  0  0  0  0  0  0  0  0  0  0  0
  -25.0309  -15.0482   21.9202 C   0  0  0  0  0  0  0  0  0  0  0  0
  -24.6436  -17.2541   20.7323 C   0  0  0  0  0  0  0  0  0  0  0  0
  -27.1451  -21.0555   19.5122 C   0  0  0  0  0  0  0  0  0  0  0  0
  -24.6884  -20.8038   19.1286 C   0  0  0  0  0  0  0  0  0  0  0  0
  -27.3754  -19.7328   18.7861 C   0  0  0  0  0  0  0  0  0  0  0  0
  -24.9631  -19.4935   18.3990 C   0  0  0  0  0  0  0  0  0  0  0  0
  -25.3676  -15.2797   19.4301 C   0  0  0  0  0  0  0  0  0  0  0  0
  -25.3837  -33.5635   25.7456 C   0  0  1  0  0  0  0  0  0  0  0  0
  -24.7900  -33.8010   22.0007 C   0  0  1  0  0  0  0  0  0  0  0  0
  -25.8435  -14.5663   20.7052 C   0  0  2  0  0  0  0  0  0  0  0  0
  -26.2457  -26.2483   17.4197 C   0  0  0  0  0  0  0  0  0  0  0  0
  -26.6475  -23.4013   17.0079 C   0  0  0  0  0  0  0  0  0  0  0  0
  -19.8817  -34.1768   16.0199 C   0  0  0  0  0  0  0  0  0  0  0  0
  -20.2636  -33.0337   22.5328 C   0  0  0  0  0  0  0  0  0  0  0  0
  -18.9248  -32.9681   20.4182 C   0  0  0  0  0  0  0  0  0  0  0  0
  -19.7607  -35.1483   21.2960 C   0  0  0  0  0  0  0  0  0  0  0  0
  -23.6632  -33.7999   15.8349 C   0  0  0  0  0  0  0  0  0  0  0  0
  -25.0811  -27.1661   19.9453 C   0  0  0  0  0  0  0  0  0  1  0  0
  -21.3953  -33.5192   20.2636 C   0  0  1  0  0  0  0  0  0  0  0  0
  -21.3084  -34.2388   16.5428 C   0  0  2  0  0  0  0  0  0  0  0  0
  -20.1110  -33.6536   21.1295 C   0  0  0  0  0  0  0  0  0  0  0  0
  -25.1450  -23.4428   20.4738 N   0  0  0  0  0  0  0  0  0  0  0  0
  -24.6952  -12.3973   20.9464 N   0  0  0  0  0  0  0  0  0  0  0  0
  -25.8010  -13.0566   20.5607 N   0  0  0  0  0  0  0  0  0  0  0  0
  -25.8760  -21.6687   19.1059 N   0  0  0  0  0  0  0  0  0  0  0  0
  -23.6796  -33.2981   21.1894 N   0  0  0  0  0  0  0  0  0  0  0  0
  -25.4172  -16.7337   19.5970 N   0  0  0  0  0  0  0  0  0  0  0  0
  -26.2048  -18.8667   18.8566 N   0  0  0  0  0  0  0  0  0  0  0  0
  -27.9593  -12.7458   19.6356 N   0  0  0  0  0  0  0  0  0  0  0  0
  -26.3101   -8.5478   19.8662 N   0  0  0  0  0  0  0  0  0  0  0  0
  -25.4536  -33.8453   24.3278 N   0  0  0  0  0  0  0  0  0  0  0  0
  -21.2887  -34.1215   18.9390 N   0  0  0  0  0  0  0  0  0  0  0  0
  -22.2247  -33.7696   15.4652 N   0  3  0  0  0  0  0  0  0  0  0  0
  -28.1340   -9.8014   19.2657 O   0  0  0  0  0  0  0  0  0  0  0  0
  -23.5358  -32.6996   23.6707 O   0  0  0  0  0  0  0  0  0  0  0  0
  -22.5860  -35.3573   21.1748 O   0  0  0  0  0  0  0  0  0  0  0  0
  -21.7475  -32.1885   17.7431 O   0  0  0  0  0  0  0  0  0  0  0  0
  -27.3617  -16.9315   18.3728 O   0  0  0  0  0  0  0  0  0  0  0  0
  -21.2875   -7.0831   21.7802 O   0  0  0  0  0  0  0  0  0  0  0  0
  -26.3231  -27.7976   20.2342 O   0  0  0  0  0  0  0  0  0  1  0  0
  -23.1247   -2.5229   24.2769 F   0  0  0  0  0  0  0  0  0  0  0  0
  -20.2791   -6.3053   24.2339 F   0  0  0  0  0  0  0  0  0  0  0  0
  1  2  1  0  0  0  0
  1  5  2  0  0  0  0
  2  6  2  0  0  0  0
  3  8  2  0  0  0  0
  3 16  1  0  0  0  0
  4  9  1  0  0  0  0
  4 16  2  0  0  0  0
  5 18  1  0  0  0  0
  6 20  1  0  0  0  0
  7 10  2  0  0  0  0
  7 19  1  0  0  0  0
  8 25  1  0  0  0  0
  9 25  2  0  0  0  0
 10 26  1  0  0  0  0
 11 12  2  0  0  0  0
 11 27  1  0  0  0  0
 12 28  1  0  0  0  0
 13 21  1  0  0  0  0
 13 26  2  0  0  0  0
 14 28  2  0  0  0  0
 14 29  1  0  0  0  0
 15 22  1  0  0  0  0
 15 65  2  0  0  0  0
 16 30  1  0  0  0  0
 17 30  1  0  0  0  0
 17 32  2  0  0  0  0
 17 33  1  0  0  0  0
 18 20  2  0  0  0  0
 18 38  1  0  0  0  0
 19 21  2  0  0  0  0
 19 39  1  0  0  0  0
 20 51  1  0  0  0  0
 21 40  1  0  0  0  0
 22 23  2  0  0  0  0
 22 61  1  0  0  0  0
 23 24  1  0  0  0  0
 23 54  1  0  0  0  0
 24 31  2  0  0  0  0
 24 55  1  0  0  0  0
 25 82  1  0  0  0  0
 26 83  1  0  0  0  0
 27 29  2  0  0  0  0
 27 82  1  0  0  0  0
 28 84  1  0  0  0  0
 29 85  1  0  0  0  0
 30 66  2  0  0  0  0
 31 65  1  0  0  0  0
 31 68  1  0  0  0  0
 32 67  1  0  0  0  0
 32 72  1  0  0  0  0
 33 73  1  0  0  0  0
 33 77  2  0  0  0  0
 34 52  1  0  0  0  0
 34 74  1  0  0  0  0
 34 78  2  0  0  0  0
 35 62  1  0  0  0  0
 35 69  1  0  0  0  0
 35 79  2  0  0  0  0
 36 63  1  0  0  0  0
 36 75  1  0  0  0  0
 36 80  2  0  0  0  0
 37 70  1  0  0  0  0
 37 71  1  0  0  0  0
 37 81  2  0  0  0  0
 38 41  1  0  0  0  0
 39 52  1  0  0  0  0
 40 69  1  0  0  0  0
 41 43  1  0  0  0  0
 42 44  1  0  0  0  0
 42 45  1  0  0  0  0
 43 51  1  0  0  0  0
 44 53  1  0  0  0  0
 45 70  1  0  0  0  0
 46 48  1  0  0  0  0
 46 68  1  0  0  0  0
 47 49  1  0  0  0  0
 47 68  1  0  0  0  0
 48 71  1  0  0  0  0
 49 71  1  0  0  0  0
 50 53  1  0  0  0  0
 50 70  1  0  0  0  0
 51 74  1  0  0  0  0
 52 69  1  0  0  0  0
 53 67  1  0  0  0  0
 56 63  1  0  0  0  0
 57 64  1  0  0  0  0
 58 64  1  0  0  0  0
 59 64  1  0  0  0  0
 60 76  1  0  0  0  0
 61 83  1  0  0  0  0
 62 64  1  0  0  0  0
 62 75  1  0  0  0  0
 63 76  1  0  0  0  0
 66 67  1  0  0  0  0
M  CHG  1  76   1
M  ISO  4  37 100  61 101  71 100  83 101
M  END
> <Batch ID>
0170

> <Smiles>
CNC(C)C(=O)NC(C(=O)N1Cc2cc([101O:1][101CH2:1]c3cnc(N4CC[100N:0]([100C:0](=O)N5CCCC(n6nc(-c7ccc(Oc8ccc(F)cc8F)cc7)c(C(N)=O)c6N)C5)CC4)c(C)c3C)ccc2CC1C(=O)NC1CCCc2ccccc21)C(C)(C)C

> <Shape>
0.221

> <Color>
0.090

> <Negative vol penalty>
0.000

$$$$

  -OEChem-04052322353D

 91101  0     1  0  0  0  0  0999 V2000
  -21.3538  -12.1217   20.5312 C   0  0  0  0  0  0  0  0  0  0  0  0
  -21.4558  -13.4615   20.8916 C   0  0  0  0  0  0  0  0  0  0  0  0
  -29.4289  -27.1247   25.0524 C   0  0  0  0  0  0  0  0  0  0  0  0
  -27.7652  -25.3744   24.9746 C   0  0  0  0  0  0  0  0  0  0  0  0
  -22.5053  -11.3469   20.3991 C   0  0  0  0  0  0  0  0  0  0  0  0
  -22.7096  -14.0270   21.1213 C   0  0  0  0  0  0  0  0  0  0  0  0
  -21.5030  -27.7634   18.7129 C   0  0  0  0  0  0  0  0  0  0  0  0
  -23.2194  -18.5710   18.9449 C   0  0  0  0  0  0  0  0  0  0  0  0
  -21.7567  -27.5934   17.3519 C   0  0  0  0  0  0  0  0  0  0  0  0
  -29.8106  -26.7053   26.3267 C   0  0  0  0  0  0  0  0  0  0  0  0
  -28.1469  -24.9550   26.2490 C   0  0  0  0  0  0  0  0  0  0  0  0
  -22.6211  -19.6549   19.5861 C   0  0  0  0  0  0  0  0  0  0  0  0
  -31.6893  -24.2408   27.6794 C   0  0  0  0  0  0  0  0  0  0  0  0
  -33.0545  -24.1348   27.9452 C   0  0  0  0  0  0  0  0  0  0  0  0
  -24.7572  -20.2734   20.5207 C   0  0  0  0  0  0  0  0  0  0  0  0
  -32.8357  -25.7613   29.7182 C   0  0  0  0  0  0  0  0  0  0  0  0
  -28.4062  -26.4593   24.3763 C   0  0  0  0  0  0  0  0  0  0  0  0
  -28.5315  -26.4522   21.8284 C   0  0  0  0  0  0  0  0  0  0  0  0
  -23.7744  -11.9056   20.6178 C   0  0  0  0  0  0  0  0  0  0  0  0
  -24.5914  -18.3235   19.0958 C   0  0  0  0  0  0  0  0  0  0  0  0
  -23.8791  -13.2586   20.9933 C   0  0  0  0  0  0  0  0  0  0  0  0
  -22.3070  -27.1251   19.6573 C   0  0  0  0  0  0  0  0  0  0  0  0
  -25.3710  -19.1873   19.8783 C   0  0  0  0  0  0  0  0  0  0  0  0
  -22.8143  -26.7851   16.9352 C   0  0  0  0  0  0  0  0  0  0  0  0
  -23.3646  -26.3167   19.2406 C   0  0  0  0  0  0  0  0  0  0  0  0
  -23.6183  -26.1467   17.8796 C   0  0  0  0  0  0  0  0  0  0  0  0
  -29.1696  -25.6204   26.9250 C   0  0  0  0  0  0  0  0  0  0  0  0
  -23.3894  -20.5046   20.3764 C   0  0  0  0  0  0  0  0  0  0  0  0
  -30.8973  -25.1072   28.4330 C   0  0  0  0  0  0  0  0  0  0  0  0
  -33.6277  -24.8950   28.9646 C   0  0  0  0  0  0  0  0  0  0  0  0
  -31.4705  -25.8674   29.4524 C   0  0  0  0  0  0  0  0  0  0  0  0
  -28.0111  -26.8924   23.0601 C   0  0  0  0  0  0  0  0  0  0  0  0
  -27.8284  -27.1613   20.8854 C   0  0  0  0  0  0  0  0  0  0  0  0
  -29.5586  -25.4884   21.5606 C   0  0  0  0  0  0  0  0  0  0  0  0
  -26.3228  -15.9383   20.2859 C   0  0  0  0  0  0  0  0  0  0  0  0
  -28.8031  -17.6769   19.1249 C   0  0  0  0  0  0  0  0  0  0  0  0
  -29.7445  -21.1572   18.9903 C   0  0  0  0  0  0  0  0  0  0  0  0
  -22.3558  -29.9359   21.5077 C   0  0  0  0  0  0  0  0  0  0  0  0
  -24.9877  -11.0164   20.5090 C   0  0  0  0  0  0  0  0  0  0  0  0
  -25.2266  -17.1657   18.3760 C   0  0  0  0  0  0  0  0  0  0  0  0
  -26.8517  -18.9770   20.0561 C   0  0  0  0  0  0  0  0  0  0  0  0
  -26.3008  -11.7877   20.4046 C   0  0  0  0  0  0  0  0  0  0  0  0
  -25.5571  -31.2871   20.2152 C   0  0  0  0  0  0  0  0  0  0  0  0
  -26.3511  -12.8998   21.4474 C   0  0  0  0  0  0  0  0  0  0  0  0
  -26.5874  -30.3157   20.7828 C   0  0  0  0  0  0  0  0  0  0  0  0
  -22.1296  -21.8323   23.2978 C   0  0  0  0  0  0  0  0  0  0  0  0
  -24.3120  -31.3610   21.0917 C   0  0  0  0  0  0  0  0  0  0  0  0
  -20.5864  -28.3700   22.4518 C   0  0  0  0  0  0  0  0  0  0  0  0
  -24.6966  -29.0518   21.8887 C   0  0  0  0  0  0  0  0  0  0  0  0
  -21.7933  -23.3039   23.1642 C   0  0  0  0  0  0  0  0  0  0  0  0
  -20.4924  -22.0088   21.5425 C   0  0  0  0  0  0  0  0  0  0  0  0
  -21.9985  -27.3348   21.2003 C   0  0  2  0  0  0  0  0  0  0  0  0
  -25.2228  -13.9145   21.2267 C   0  0  1  0  0  0  0  0  0  0  0  0
  -26.5352  -16.7104   19.0145 C   0  0  1  0  0  0  0  0  0  0  0  0
  -20.5296  -27.0721   21.6396 C   0  0  1  0  0  0  0  0  0  0  0  0
  -25.9557  -28.9348   21.0137 C   0  0  2  0  0  0  0  0  0  0  0  0
  -21.7643  -21.2728   21.9336 C   0  0  1  0  0  0  0  0  0  1  0  0
  -23.0634  -26.6193   15.4721 C   0  0  0  0  0  0  0  0  0  0  0  0
  -24.2237  -25.6348   20.2575 C   0  0  0  0  0  0  0  0  0  0  0  0
  -24.7518  -25.2793   17.4312 C   0  0  0  0  0  0  0  0  0  0  0  0
  -31.1922  -22.3938   17.3556 C   0  0  0  0  0  0  0  0  0  0  0  0
  -18.9795  -25.9025   23.2325 C   0  0  0  0  0  0  0  0  0  0  0  0
  -31.0374  -17.1227   21.1275 C   0  0  0  0  0  0  0  0  0  0  0  0
  -31.9404  -19.4078   20.6468 C   0  0  0  0  0  0  0  0  0  0  0  0
  -31.8210  -17.7072   18.8256 C   0  0  0  0  0  0  0  0  0  0  0  0
  -27.6084  -23.1206   18.4063 C   0  0  0  0  0  0  0  0  0  0  0  0
  -20.3108  -24.5371   21.5456 C   0  0  0  0  0  0  0  0  0  0  0  0
  -29.6886  -18.7718   19.6691 C   0  0  1  0  0  0  0  0  0  0  0  0
  -29.7680  -22.0454   17.7594 C   0  0  2  0  0  0  0  0  0  0  0  0
  -20.2792  -25.7980   22.4248 C   0  0  1  0  0  0  0  0  0  0  0  0
  -31.0951  -18.2490   20.0763 C   0  0  0  0  0  0  0  0  0  0  0  0
  -27.0515  -27.8103   22.9159 N   0  0  0  0  0  0  0  0  0  0  0  0
  -26.9634  -27.9526   21.5825 N   0  0  0  0  0  0  0  0  0  0  0  0
  -27.4254  -17.8275   19.3370 N   0  0  0  0  0  0  0  0  0  0  0  0
  -23.7445  -30.0364   21.3569 N   0  0  0  0  0  0  0  0  0  0  0  0
  -21.8111  -28.6919   21.7273 N   0  0  0  0  0  0  0  0  0  0  0  0
  -27.8718  -27.1790   19.5363 N   0  0  0  0  0  0  0  0  0  0  0  0
  -30.1777  -24.8527   22.6455 N   0  0  0  0  0  0  0  0  0  0  0  0
  -25.5494  -14.8035   20.1324 N   0  0  0  0  0  0  0  0  0  0  0  0
  -29.7114  -19.8202   18.6549 N   0  0  0  0  0  0  0  0  0  0  0  0
  -20.5168  -23.3071   22.3463 N   0  3  2  0  0  0  0  0  0  0  0  0
  -29.0302  -23.3134   18.0214 N   0  3  0  0  0  0  0  0  0  0  0  0
  -29.9283  -25.2114   20.3943 O   0  0  0  0  0  0  0  0  0  0  0  0
  -26.8248  -16.3414   21.3286 O   0  0  0  0  0  0  0  0  0  0  0  0
  -29.3144  -16.7267   18.5271 O   0  0  0  0  0  0  0  0  0  0  0  0
  -29.7581  -21.6047   20.1349 O   0  0  0  0  0  0  0  0  0  0  0  0
  -21.6191  -30.9278   21.4219 O   0  0  0  0  0  0  0  0  0  0  0  0
  -29.5420  -25.2107   28.1685 O   0  0  0  0  0  0  0  0  0  0  0  0
  -22.8040  -21.5698   21.0081 O   0  0  0  0  0  0  0  0  0  1  0  0
  -34.9384  -24.7919   29.2207 F   0  0  0  0  0  0  0  0  0  0  0  0
  -30.7145  -26.7005   30.1805 F   0  0  0  0  0  0  0  0  0  0  0  0
  1  2  1  0  0  0  0
  1  5  2  0  0  0  0
  2  6  2  0  0  0  0
  3 10  2  0  0  0  0
  3 17  1  0  0  0  0
  4 11  1  0  0  0  0
  4 17  2  0  0  0  0
  5 19  1  0  0  0  0
  6 21  1  0  0  0  0
  7  9  2  0  0  0  0
  7 22  1  0  0  0  0
  8 12  2  0  0  0  0
  8 20  1  0  0  0  0
  9 24  1  0  0  0  0
 10 27  1  0  0  0  0
 11 27  2  0  0  0  0
 12 28  1  0  0  0  0
 13 14  2  0  0  0  0
 13 29  1  0  0  0  0
 14 30  1  0  0  0  0
 15 23  1  0  0  0  0
 15 28  2  0  0  0  0
 16 30  2  0  0  0  0
 16 31  1  0  0  0  0
 17 32  1  0  0  0  0
 18 32  1  0  0  0  0
 18 33  2  0  0  0  0
 18 34  1  0  0  0  0
 19 21  2  0  0  0  0
 19 39  1  0  0  0  0
 20 23  2  0  0  0  0
 20 40  1  0  0  0  0
 21 53  1  0  0  0  0
 22 25  2  0  0  0  0
 22 52  1  0  0  0  0
 23 41  1  0  0  0  0
 24 26  2  0  0  0  0
 24 58  1  0  0  0  0
 25 26  1  0  0  0  0
 25 59  1  0  0  0  0
 26 60  1  0  0  0  0
 27 88  1  0  0  0  0
 28 89  1  0  0  0  0
 29 31  2  0  0  0  0
 29 88  1  0  0  0  0
 30 90  1  0  0  0  0
 31 91  1  0  0  0  0
 32 72  2  0  0  0  0
 33 73  1  0  0  0  0
 33 77  1  0  0  0  0
 34 78  1  0  0  0  0
 34 83  2  0  0  0  0
 35 54  1  0  0  0  0
 35 79  1  0  0  0  0
 35 84  2  0  0  0  0
 36 68  1  0  0  0  0
 36 74  1  0  0  0  0
 36 85  2  0  0  0  0
 37 69  1  0  0  0  0
 37 80  1  0  0  0  0
 37 86  2  0  0  0  0
 38 75  1  0  0  0  0
 38 76  1  0  0  0  0
 38 87  2  0  0  0  0
 39 42  1  0  0  0  0
 40 54  1  0  0  0  0
 41 74  1  0  0  0  0
 42 44  1  0  0  0  0
 43 45  1  0  0  0  0
 43 47  1  0  0  0  0
 44 53  1  0  0  0  0
 45 56  1  0  0  0  0
 46 50  1  0  0  0  0
 46 57  1  0  0  0  0
 47 75  1  0  0  0  0
 48 55  1  0  0  0  0
 48 76  1  0  0  0  0
 49 56  1  0  0  0  0
 49 75  1  0  0  0  0
 50 81  1  0  0  0  0
 51 57  1  0  0  0  0
 51 81  1  0  0  0  0
 52 55  1  0  0  0  0
 52 76  1  0  0  0  0
 53 79  1  0  0  0  0
 54 74  1  0  0  0  0
 55 70  1  0  0  0  0
 56 73  1  0  0  0  0
 57 89  1  0  0  0  0
 61 69  1  0  0  0  0
 62 70  1  0  0  0  0
 63 71  1  0  0  0  0
 64 71  1  0  0  0  0
 65 71  1  0  0  0  0
 66 82  1  0  0  0  0
 67 70  1  0  0  0  0
 67 81  1  0  0  0  0
 68 71  1  0  0  0  0
 68 80  1  0  0  0  0
 69 82  1  0  0  0  0
 72 73  1  0  0  0  0
M  CHG  2  81   1  82   1
M  ISO  4  38 100  57 101  76 100  89 101
M  END
> <Batch ID>
0170

> <Smiles>
CNC(C)C(=O)NC(C(=O)N1Cc2cc([101O:1][101CH:1]3CCN(CC(C)C4C[100N:0]([100C:0](=O)N5CCCC(n6nc(-c7ccc(Oc8ccc(F)cc8F)cc7)c(C(N)=O)c6N)C5)C4c4ccc(C)c(C)c4C)C3)ccc2CC1C(=O)NC1CCCc2ccccc21)C(C)(C)C

> <Shape>
0.210

> <Color>
0.064

> <Negative vol penalty>
0.000

$$$$

  -OEChem-04052322353D

 84 93  0     1  0  0  0  0  0999 V2000
  -26.8856  -37.5600   22.5612 C   0  0  0  0  0  0  0  0  0  0  0  0
  -27.5495  -36.5647   21.8512 C   0  0  0  0  0  0  0  0  0  0  0  0
  -23.4479  -12.1804   16.2133 C   0  0  0  0  0  0  0  0  0  0  0  0
  -22.6442  -10.9803   18.1500 C   0  0  0  0  0  0  0  0  0  0  0  0
  -26.0442  -37.2172   23.6187 C   0  0  0  0  0  0  0  0  0  0  0  0
  -27.3731  -35.2259   22.1992 C   0  0  0  0  0  0  0  0  0  0  0  0
  -27.1303  -28.6859   19.2861 C   0  0  0  0  0  0  0  0  0  0  0  0
  -22.6328  -11.4013   15.3922 C   0  0  0  0  0  0  0  0  0  0  0  0
  -21.8290  -10.2012   17.3289 C   0  0  0  0  0  0  0  0  0  0  0  0
  -27.6978  -27.4207   19.4308 C   0  0  0  0  0  0  0  0  0  0  0  0
  -18.8633  -10.5217   15.7407 C   0  0  0  0  0  0  0  0  0  0  0  0
  -17.5476  -10.3078   16.1515 C   0  0  0  0  0  0  0  0  0  0  0  0
  -26.1581  -26.9418   21.2250 C   0  0  0  0  0  0  0  0  0  0  0  0
  -30.4487  -21.9395   21.2545 C   0  0  0  0  0  0  0  0  0  0  0  0
  -17.9481   -7.9256   16.1937 C   0  0  0  0  0  0  0  0  0  0  0  0
  -28.9506  -22.5622   19.0605 C   0  0  0  0  0  0  0  0  0  0  0  0
  -23.4537  -11.9698   17.5922 C   0  0  0  0  0  0  0  0  0  0  0  0
  -23.9627  -13.9941   19.0589 C   0  0  0  0  0  0  0  0  0  0  0  0
  -25.8499  -35.8730   23.9736 C   0  0  0  0  0  0  0  0  0  0  0  0
  -26.0779  -29.0934   20.1185 C   0  0  0  0  0  0  0  0  0  0  0  0
  -26.5293  -34.8649   23.2633 C   0  0  0  0  0  0  0  0  0  0  0  0
  -25.5773  -28.2118   21.0872 C   0  0  0  0  0  0  0  0  0  0  0  0
  -30.0530  -23.2567   21.0502 C   0  0  0  0  0  0  0  0  0  0  0  0
  -29.2895  -23.5824   19.9347 C   0  0  0  0  0  0  0  0  0  0  0  0
  -21.8233  -10.4118   15.9500 C   0  0  0  0  0  0  0  0  0  0  0  0
  -27.2136  -26.5495   20.4022 C   0  0  0  0  0  0  0  0  0  0  0  0
  -19.7214   -9.4375   15.5563 C   0  0  0  0  0  0  0  0  0  0  0  0
  -17.0900   -9.0097   16.3781 C   0  0  0  0  0  0  0  0  0  0  0  0
  -19.2638   -8.1395   15.7829 C   0  0  0  0  0  0  0  0  0  0  0  0
  -24.2960  -12.7739   18.4409 C   0  0  0  0  0  0  0  0  0  0  0  0
  -30.0577  -20.9929   20.3213 C   0  0  0  0  0  0  0  0  0  0  0  0
  -25.0952  -14.3494   19.7501 C   0  0  0  0  0  0  0  0  0  0  0  0
  -22.7389  -14.7396   19.0124 C   0  0  0  0  0  0  0  0  0  0  0  0
  -25.6750  -31.4154   22.2515 C   0  0  0  0  0  0  0  0  0  0  0  0
  -22.6213  -30.3217   22.2866 C   0  0  0  0  0  0  0  0  0  0  0  0
  -20.4635  -27.7357   21.7359 C   0  0  0  0  0  0  0  0  0  0  0  0
  -30.7096  -14.9368   19.6502 C   0  0  0  0  0  0  0  0  0  0  0  0
  -24.9674  -35.5542   25.1544 C   0  0  0  0  0  0  0  0  0  0  0  0
  -25.4589  -30.4515   19.9319 C   0  0  0  0  0  0  0  0  0  0  0  0
  -24.4356  -28.5935   21.9924 C   0  0  0  0  0  0  0  0  0  0  0  0
  -24.5427  -34.0894   25.2195 C   0  0  0  0  0  0  0  0  0  0  0  0
  -29.3025  -11.7374   20.7710 C   0  0  0  0  0  0  0  0  0  0  0  0
  -25.7414  -33.1752   24.9866 C   0  0  0  0  0  0  0  0  0  0  0  0
  -27.8593  -11.8080   20.2699 C   0  0  0  0  0  0  0  0  0  0  0  0
  -28.7424  -18.0289   19.9424 C   0  0  0  0  0  0  0  0  0  0  0  0
  -30.2580  -12.5210   19.8740 C   0  0  0  0  0  0  0  0  0  0  0  0
  -28.8219  -16.6391   19.3194 C   0  0  0  0  0  0  0  0  0  0  0  0
  -28.4214  -13.9864   19.1306 C   0  0  0  0  0  0  0  0  0  0  0  0
  -31.0299  -17.3813   19.9014 C   0  0  0  0  0  0  0  0  0  0  0  0
  -26.3444  -33.4000   23.5947 C   0  0  1  0  0  0  0  0  0  0  0  0
  -24.7327  -30.9531   21.1763 C   0  0  1  0  0  0  0  0  0  0  0  0
  -27.4203  -13.2670   20.0451 C   0  0  1  0  0  0  0  0  0  0  0  0
  -30.1336  -18.5873   19.6636 C   0  0  2  0  0  0  0  0  0  0  0  0
  -30.4574  -24.3012   22.0372 C   0  0  0  0  0  0  0  0  0  0  0  0
  -18.0328  -27.1315   21.8899 C   0  0  0  0  0  0  0  0  0  0  0  0
  -22.8775  -30.0735   25.3169 C   0  0  0  0  0  0  0  0  0  0  0  0
  -20.8435  -28.6138   25.2994 C   0  0  0  0  0  0  0  0  0  0  0  0
  -20.6850  -30.9801   24.5261 C   0  0  0  0  0  0  0  0  0  0  0  0
  -20.2926  -27.2027   18.8298 C   0  0  0  0  0  0  0  0  0  0  0  0
  -28.8390  -24.9765   19.6675 C   0  0  0  0  0  0  0  0  0  1  0  0
  -21.8681  -29.2793   23.0772 C   0  0  1  0  0  0  0  0  0  0  0  0
  -19.1397  -27.6685   20.9960 C   0  0  2  0  0  0  0  0  0  0  0  0
  -21.5913  -29.7299   24.5393 C   0  0  0  0  0  0  0  0  0  0  0  0
  -29.3163  -21.2712   19.2257 N   0  0  0  0  0  0  0  0  0  0  0  0
  -25.5426  -12.3806   18.7151 N   0  0  0  0  0  0  0  0  0  0  0  0
  -26.0026  -13.3592   19.5130 N   0  0  0  0  0  0  0  0  0  0  0  0
  -23.8680  -29.9344   21.7753 N   0  0  0  0  0  0  0  0  0  0  0  0
  -29.7822  -13.8893   19.6695 N   0  0  0  0  0  0  0  0  0  0  0  0
  -30.2173  -16.2333   19.5061 N   0  0  0  0  0  0  0  0  0  0  0  0
  -25.3933  -15.4092   20.5314 N   0  0  0  0  0  0  0  0  0  0  0  0
  -21.6751  -14.2310   18.2548 N   0  0  0  0  0  0  0  0  0  0  0  0
  -30.4602  -19.6821   20.5386 N   0  0  0  0  0  0  0  0  0  0  0  0
  -25.5384  -32.7497   22.5837 N   0  0  0  0  0  0  0  0  0  0  0  0
  -20.6664  -28.9735   22.3085 N   0  0  0  0  0  0  0  0  0  0  0  0
  -19.2560  -26.7790   19.8060 N   0  3  0  0  0  0  0  0  0  0  0  0
  -22.5986  -15.8329   19.6112 O   0  0  0  0  0  0  0  0  0  0  0  0
  -26.4663  -30.6200   22.7443 O   0  0  0  0  0  0  0  0  0  0  0  0
  -22.1187  -31.4362   22.1225 O   0  0  0  0  0  0  0  0  0  0  0  0
  -21.2384  -26.7840   21.8026 O   0  0  0  0  0  0  0  0  0  0  0  0
  -31.9205  -14.7279   19.8024 O   0  0  0  0  0  0  0  0  0  0  0  0
  -21.0276   -9.6515   15.1492 O   0  0  0  0  0  0  0  0  0  0  0  0
  -27.7698  -25.3060   20.5469 O   0  0  0  0  0  0  0  0  0  1  0  0
  -15.8269   -8.8046   16.7741 F   0  0  0  0  0  0  0  0  0  0  0  0
  -20.0838   -7.0940   15.6086 F   0  0  0  0  0  0  0  0  0  0  0  0
  1  2  1  0  0  0  0
  1  5  2  0  0  0  0
  2  6  2  0  0  0  0
  3  8  2  0  0  0  0
  3 17  1  0  0  0  0
  4  9  1  0  0  0  0
  4 17  2  0  0  0  0
  5 19  1  0  0  0  0
  6 21  1  0  0  0  0
  7 10  2  0  0  0  0
  7 20  1  0  0  0  0
  8 25  1  0  0  0  0
  9 25  2  0  0  0  0
 10 26  1  0  0  0  0
 11 12  2  0  0  0  0
 11 27  1  0  0  0  0
 12 28  1  0  0  0  0
 13 22  1  0  0  0  0
 13 26  2  0  0  0  0
 14 23  1  0  0  0  0
 14 31  2  0  0  0  0
 15 28  2  0  0  0  0
 15 29  1  0  0  0  0
 16 24  1  0  0  0  0
 16 64  2  0  0  0  0
 17 30  1  0  0  0  0
 18 30  1  0  0  0  0
 18 32  2  0  0  0  0
 18 33  1  0  0  0  0
 19 21  2  0  0  0  0
 19 38  1  0  0  0  0
 20 22  2  0  0  0  0
 20 39  1  0  0  0  0
 21 50  1  0  0  0  0
 22 40  1  0  0  0  0
 23 24  2  0  0  0  0
 23 54  1  0  0  0  0
 24 60  1  0  0  0  0
 25 81  1  0  0  0  0
 26 82  1  0  0  0  0
 27 29  2  0  0  0  0
 27 81  1  0  0  0  0
 28 83  1  0  0  0  0
 29 84  1  0  0  0  0
 30 65  2  0  0  0  0
 31 64  1  0  0  0  0
 31 72  1  0  0  0  0
 32 66  1  0  0  0  0
 32 70  1  0  0  0  0
 33 71  1  0  0  0  0
 33 76  2  0  0  0  0
 34 51  1  0  0  0  0
 34 73  1  0  0  0  0
 34 77  2  0  0  0  0
 35 61  1  0  0  0  0
 35 67  1  0  0  0  0
 35 78  2  0  0  0  0
 36 62  1  0  0  0  0
 36 74  1  0  0  0  0
 36 79  2  0  0  0  0
 37 68  1  0  0  0  0
 37 69  1  0  0  0  0
 37 80  2  0  0  0  0
 38 41  1  0  0  0  0
 39 51  1  0  0  0  0
 40 67  1  0  0  0  0
 41 43  1  0  0  0  0
 42 44  1  0  0  0  0
 42 46  1  0  0  0  0
 43 50  1  0  0  0  0
 44 52  1  0  0  0  0
 45 47  1  0  0  0  0
 45 53  1  0  0  0  0
 46 68  1  0  0  0  0
 47 69  1  0  0  0  0
 48 52  1  0  0  0  0
 48 68  1  0  0  0  0
 49 53  1  0  0  0  0
 49 69  1  0  0  0  0
 50 73  1  0  0  0  0
 51 67  1  0  0  0  0
 52 66  1  0  0  0  0
 53 72  1  0  0  0  0
 55 62  1  0  0  0  0
 56 63  1  0  0  0  0
 57 63  1  0  0  0  0
 58 63  1  0  0  0  0
 59 75  1  0  0  0  0
 60 82  1  0  0  0  0
 61 63  1  0  0  0  0
 61 74  1  0  0  0  0
 62 75  1  0  0  0  0
 65 66  1  0  0  0  0
M  CHG  1  75   1
M  ISO  4  37 100  60 101  69 100  82 101
M  END
> <Batch ID>
0170

> <Smiles>
CNC(C)C(=O)NC(C(=O)N1Cc2cc([101O:1][101CH2:1]c3cnc(NC4CC[100N:0]([100C:0](=O)N5CCCC(n6nc(-c7ccc(Oc8ccc(F)cc8F)cc7)c(C(N)=O)c6N)C5)C4)cc3C)ccc2CC1C(=O)NC1CCCc2ccccc21)C(C)(C)C

> <Shape>
0.296

> <Color>
0.118

> <Negative vol penalty>
0.000

$$$$

  -OEChem-04052322353D

 85 95  0     1  0  0  0  0  0999 V2000
  -22.0017  -30.9443   29.4134 C   0  0  0  0  0  0  0  0  0  0  0  0
  -22.9748  -31.0570   28.4255 C   0  0  0  0  0  0  0  0  0  0  0  0
  -25.2215  -13.5505   21.9567 C   0  0  0  0  0  0  0  0  0  0  0  0
  -26.0939  -13.7830   19.7157 C   0  0  0  0  0  0  0  0  0  0  0  0
  -21.1427  -29.8461   29.4220 C   0  0  0  0  0  0  0  0  0  0  0  0
  -23.0901  -30.0710   27.4462 C   0  0  0  0  0  0  0  0  0  0  0  0
  -24.6694  -30.8717   21.5836 C   0  0  0  0  0  0  0  0  0  0  0  0
  -24.3176  -12.5889   21.5051 C   0  0  0  0  0  0  0  0  0  0  0  0
  -25.1900  -12.8213   19.2641 C   0  0  0  0  0  0  0  0  0  0  0  0
  -25.8784  -30.7127   20.9078 C   0  0  0  0  0  0  0  0  0  0  0  0
  -24.3689   -9.3049   20.7013 C   0  0  0  0  0  0  0  0  0  0  0  0
  -24.2208   -8.1461   21.4633 C   0  0  0  0  0  0  0  0  0  0  0  0
  -25.2036  -28.4968   20.2341 C   0  0  0  0  0  0  0  0  0  0  0  0
  -21.8781   -8.6492   21.7730 C   0  0  0  0  0  0  0  0  0  0  0  0
  -26.1096  -14.1476   21.0620 C   0  0  0  0  0  0  0  0  0  0  0  0
  -28.3466  -14.9224   22.0123 C   0  0  0  0  0  0  0  0  0  0  0  0
  -21.2413  -28.8510   28.4367 C   0  0  0  0  0  0  0  0  0  0  0  0
  -23.7214  -29.8385   21.5989 C   0  0  0  0  0  0  0  0  0  0  0  0
  -22.2325  -28.9578   27.4425 C   0  0  0  0  0  0  0  0  0  0  0  0
  -23.9822  -28.6462   20.9087 C   0  0  0  0  0  0  0  0  0  0  0  0
  -24.3019  -12.2243   20.1588 C   0  0  0  0  0  0  0  0  0  0  0  0
  -26.1469  -29.5241   20.2353 C   0  0  0  0  0  0  0  0  0  0  0  0
  -23.2717  -10.1360   20.4752 C   0  0  0  0  0  0  0  0  0  0  0  0
  -22.9753   -7.8182   21.9991 C   0  0  0  0  0  0  0  0  0  0  0  0
  -22.0263   -9.8081   21.0110 C   0  0  0  0  0  0  0  0  0  0  0  0
  -27.0431  -15.1414   21.5278 C   0  0  0  0  0  0  0  0  0  0  0  0
  -28.8126  -16.1765   22.3229 C   0  0  0  0  0  0  0  0  0  0  0  0
  -26.9574  -26.0257   18.1462 C   0  0  0  0  0  0  0  0  0  0  0  0
  -27.2343  -24.7852   18.5449 C   0  0  0  0  0  0  0  0  0  0  0  0
  -27.5887  -27.1188   18.9194 C   0  0  0  0  0  0  0  0  0  0  0  0
  -28.1409  -24.5417   19.6998 C   0  0  0  0  0  0  0  0  0  0  0  0
  -29.0713  -13.6951   22.1676 C   0  0  0  0  0  0  0  0  0  0  0  0
  -22.3885  -28.0506   23.8640 C   0  0  0  0  0  0  0  0  0  0  0  0
  -20.5827  -26.9634   21.3984 C   0  0  0  0  0  0  0  0  0  0  0  0
  -20.2660  -26.4695   18.0365 C   0  0  0  0  0  0  0  0  0  0  0  0
  -29.5601  -21.4092   21.1355 C   0  0  0  0  0  0  0  0  0  0  0  0
  -20.3212  -27.6585   28.5148 C   0  0  0  0  0  0  0  0  0  0  0  0
  -22.4108  -30.0358   22.3102 C   0  0  0  0  0  0  0  0  0  0  0  0
  -22.9891  -27.5143   20.8777 C   0  0  0  0  0  0  0  0  0  0  0  0
  -20.2650  -26.8470   27.2231 C   0  0  0  0  0  0  0  0  0  0  0  0
  -26.4177  -20.6077   22.6432 C   0  0  0  0  0  0  0  0  0  0  0  0
  -21.6712  -26.6002   26.6860 C   0  0  0  0  0  0  0  0  0  0  0  0
  -26.3977  -19.0863   22.5079 C   0  0  0  0  0  0  0  0  0  0  0  0
  -31.2917  -24.9742   22.9850 C   0  0  0  0  0  0  0  0  0  0  0  0
  -31.6571  -25.8226   21.8044 C   0  0  0  0  0  0  0  0  0  0  0  0
  -27.0319  -21.2861   21.4180 C   0  0  0  0  0  0  0  0  0  0  0  0
  -28.3574  -19.2513   20.9282 C   0  0  0  0  0  0  0  0  0  0  0  0
  -29.1028  -25.4675   21.7361 C   0  0  0  0  0  0  0  0  0  0  0  0
  -30.6651  -23.6503   20.8558 C   0  0  0  0  0  0  0  0  0  0  0  0
  -22.3727  -27.9214   26.3487 C   0  0  1  0  0  0  0  0  0  0  0  0
  -21.7337  -28.7227   22.6905 C   0  0  1  0  0  0  0  0  0  0  0  0
  -27.7985  -18.5463   22.1733 C   0  0  2  0  0  0  0  0  0  0  0  0
  -30.4812  -24.8746   21.7100 C   0  0  0  0  0  0  0  0  0  0  0  0
  -28.4241  -28.9578   17.4792 C   0  0  0  0  0  0  0  0  0  0  0  0
  -18.6942  -25.5246   16.3237 C   0  0  0  0  0  0  0  0  0  0  0  0
  -21.4051  -24.1382   22.2058 C   0  0  0  0  0  0  0  0  0  0  0  0
  -20.6191  -23.3441   19.9653 C   0  0  0  0  0  0  0  0  0  0  0  0
  -19.0019  -24.3799   21.5573 C   0  0  0  0  0  0  0  0  0  0  0  0
  -19.9833  -29.0862   16.6829 C   0  0  0  0  0  0  0  0  0  0  0  0
  -27.3348  -28.5255   18.4332 C   0  0  2  0  0  0  0  0  0  1  0  0
  -20.7066  -25.8417   20.3957 C   0  0  1  0  0  0  0  0  0  0  0  0
  -19.1296  -26.7721   17.0765 C   0  0  2  0  0  0  0  0  0  0  0  0
  -20.4529  -24.4464   21.0330 C   0  0  0  0  0  0  0  0  0  0  0  0
  -26.7028  -16.4330   21.5288 N   0  0  0  0  0  0  0  0  0  0  0  0
  -28.3180  -26.9863   19.9823 N   0  0  0  0  0  0  0  0  0  0  0  0
  -27.7993  -17.0369   22.0178 N   0  0  0  0  0  0  0  0  0  0  0  0
  -28.5331  -25.6367   20.3769 N   0  0  0  0  0  0  0  0  0  0  0  0
  -21.7248  -27.7529   21.5934 N   0  0  0  0  0  0  0  0  0  0  0  0
  -28.3444  -20.7066   21.0969 N   0  0  0  0  0  0  0  0  0  0  0  0
  -29.4968  -22.7739   20.8602 N   0  0  0  0  0  0  0  0  0  0  0  0
  -28.4056  -23.2602   19.9611 N   0  3  0  0  0  0  0  0  0  0  0  0
  -29.9862  -16.6162   22.8246 N   0  0  0  0  0  0  0  0  0  0  0  0
  -28.4435  -12.4973   21.7997 N   0  0  0  0  0  0  0  0  0  0  0  0
  -21.8869  -28.4445   25.0899 N   0  0  0  0  0  0  0  0  0  0  0  0
  -19.8016  -26.1717   19.3001 N   0  0  0  0  0  0  0  0  0  0  0  0
  -19.5514  -27.7983   16.0815 N   0  3  0  0  0  0  0  0  0  0  0  0
  -30.2350  -13.6601   22.6346 O   0  0  0  0  0  0  0  0  0  0  0  0
  -23.2817  -27.2339   23.6715 O   0  0  0  0  0  0  0  0  0  0  0  0
  -19.5098  -27.1373   21.9817 O   0  0  0  0  0  0  0  0  0  0  0  0
  -21.4474  -26.4913   17.6982 O   0  0  0  0  0  0  0  0  0  0  0  0
  -30.6304  -20.8485   21.3976 O   0  0  0  0  0  0  0  0  0  0  0  0
  -23.4202  -11.2858   19.7178 O   0  0  0  0  0  0  0  0  0  0  0  0
  -27.3388  -29.3644   19.5685 O   0  0  0  0  0  0  0  0  0  1  0  0
  -22.8329   -6.7045   22.7296 F   0  0  0  0  0  0  0  0  0  0  0  0
  -20.9682  -10.6020   20.7961 F   0  0  0  0  0  0  0  0  0  0  0  0
  1  2  1  0  0  0  0
  1  5  2  0  0  0  0
  2  6  2  0  0  0  0
  3  8  2  0  0  0  0
  3 15  1  0  0  0  0
  4  9  1  0  0  0  0
  4 15  2  0  0  0  0
  5 17  1  0  0  0  0
  6 19  1  0  0  0  0
  7 10  2  0  0  0  0
  7 18  1  0  0  0  0
  8 21  1  0  0  0  0
  9 21  2  0  0  0  0
 10 22  1  0  0  0  0
 11 12  2  0  0  0  0
 11 23  1  0  0  0  0
 12 24  1  0  0  0  0
 13 20  1  0  0  0  0
 13 22  2  0  0  0  0
 14 24  2  0  0  0  0
 14 25  1  0  0  0  0
 15 26  1  0  0  0  0
 16 26  1  0  0  0  0
 16 27  2  0  0  0  0
 16 32  1  0  0  0  0
 17 19  2  0  0  0  0
 17 37  1  0  0  0  0
 18 20  2  0  0  0  0
 18 38  1  0  0  0  0
 19 50  1  0  0  0  0
 20 39  1  0  0  0  0
 21 82  1  0  0  0  0
 22 83  1  0  0  0  0
 23 25  2  0  0  0  0
 23 82  1  0  0  0  0
 24 84  1  0  0  0  0
 25 85  1  0  0  0  0
 26 64  2  0  0  0  0
 27 66  1  0  0  0  0
 27 72  1  0  0  0  0
 28 29  2  0  0  0  0
 28 30  1  0  0  0  0
 29 31  1  0  0  0  0
 30 60  1  0  0  0  0
 30 65  2  0  0  0  0
 31 67  1  0  0  0  0
 31 71  2  0  0  0  0
 32 73  1  0  0  0  0
 32 77  2  0  0  0  0
 33 51  1  0  0  0  0
 33 74  1  0  0  0  0
 33 78  2  0  0  0  0
 34 61  1  0  0  0  0
 34 68  1  0  0  0  0
 34 79  2  0  0  0  0
 35 62  1  0  0  0  0
 35 75  1  0  0  0  0
 35 80  2  0  0  0  0
 36 69  1  0  0  0  0
 36 70  1  0  0  0  0
 36 81  2  0  0  0  0
 37 40  1  0  0  0  0
 38 51  1  0  0  0  0
 39 68  1  0  0  0  0
 40 42  1  0  0  0  0
 41 43  1  0  0  0  0
 41 46  1  0  0  0  0
 42 50  1  0  0  0  0
 43 52  1  0  0  0  0
 44 45  1  0  0  0  0
 44 53  1  0  0  0  0
 45 53  1  0  0  0  0
 46 69  1  0  0  0  0
 47 52  1  0  0  0  0
 47 69  1  0  0  0  0
 48 53  1  0  0  0  0
 48 67  1  0  0  0  0
 49 53  1  0  0  0  0
 49 70  1  0  0  0  0
 50 74  1  0  0  0  0
 51 68  1  0  0  0  0
 52 66  1  0  0  0  0
 54 60  1  0  0  0  0
 55 62  1  0  0  0  0
 56 63  1  0  0  0  0
 57 63  1  0  0  0  0
 58 63  1  0  0  0  0
 59 76  1  0  0  0  0
 60 83  1  0  0  0  0
 61 63  1  0  0  0  0
 61 75  1  0  0  0  0
 62 76  1  0  0  0  0
 64 66  1  0  0  0  0
 65 67  1  0  0  0  0
 70 71  1  0  0  0  0
M  CHG  2  71   1  76   1
M  ISO  4  36 100  60 101  70 100  83 101
M  END
> <Batch ID>
0170

> <Smiles>
CNC(C)C(=O)NC(C(=O)N1Cc2cc([101O:1][101CH:1](C)C3=NN4CC5(CC5)C[100N:0]([100C:0](=O)N5CCCC(n6nc(-c7ccc(Oc8ccc(F)cc8F)cc7)c(C(N)=O)c6N)C5)N=C4C=C3)ccc2CC1C(=O)NC1CCCc2ccccc21)C(C)(C)C

> <Shape>
0.235

> <Color>
0.066

> <Negative vol penalty>
0.000

$$$$

  -OEChem-04052322353D

 90100  0     1  0  0  0  0  0999 V2000
  -24.5985  -38.7051   20.2516 C   0  0  0  0  0  0  0  0  0  0  0  0
  -25.3300  -37.5365   20.4381 C   0  0  0  0  0  0  0  0  0  0  0  0
  -23.0162  -10.4895   21.0491 C   0  0  0  0  0  0  0  0  0  0  0  0
  -24.6378   -8.7185   21.3157 C   0  0  0  0  0  0  0  0  0  0  0  0
  -23.3647  -38.8618   20.8818 C   0  0  0  0  0  0  0  0  0  0  0  0
  -24.8287  -36.5244   21.2559 C   0  0  0  0  0  0  0  0  0  0  0  0
  -25.5234  -30.4883   20.4888 C   0  0  0  0  0  0  0  0  0  0  0  0
  -22.2192   -9.9083   22.0353 C   0  0  0  0  0  0  0  0  0  0  0  0
  -23.8408   -8.1373   22.3020 C   0  0  0  0  0  0  0  0  0  0  0  0
  -26.4010  -29.5655   21.0562 C   0  0  0  0  0  0  0  0  0  0  0  0
  -21.0586   -6.2219   22.4484 C   0  0  0  0  0  0  0  0  0  0  0  0
  -20.8606   -4.8423   22.3920 C   0  0  0  0  0  0  0  0  0  0  0  0
  -24.7225  -28.9813   22.6874 C   0  0  0  0  0  0  0  0  0  0  0  0
  -27.2367  -21.7300   20.3764 C   0  0  0  0  0  0  0  0  0  0  0  0
  -21.8634   -4.6090   24.5777 C   0  0  0  0  0  0  0  0  0  0  0  0
  -24.2255   -9.8946   20.6893 C   0  0  0  0  0  0  0  0  0  0  0  0
  -24.6992  -10.7365   18.3283 C   0  0  0  0  0  0  0  0  0  0  0  0
  -22.8436  -37.8471   21.7000 C   0  0  0  0  0  0  0  0  0  0  0  0
  -24.2404  -30.6726   21.0240 C   0  0  0  0  0  0  0  0  0  0  0  0
  -23.5874  -36.6683   21.8987 C   0  0  0  0  0  0  0  0  0  0  0  0
  -23.8296  -29.9052   22.1233 C   0  0  0  0  0  0  0  0  0  0  0  0
  -27.4274  -23.0949   20.1921 C   0  0  0  0  0  0  0  0  0  0  0  0
  -27.7723  -21.1038   21.4964 C   0  0  0  0  0  0  0  0  0  0  0  0
  -22.6315   -8.7322   22.6618 C   0  0  0  0  0  0  0  0  0  0  0  0
  -26.0017  -28.8139   22.1574 C   0  0  0  0  0  0  0  0  0  0  0  0
  -21.6591   -6.7950   23.5695 C   0  0  0  0  0  0  0  0  0  0  0  0
  -21.2630   -4.0358   23.4566 C   0  0  0  0  0  0  0  0  0  0  0  0
  -22.0614   -5.9886   24.6341 C   0  0  0  0  0  0  0  0  0  0  0  0
  -25.0489  -10.4942   19.6702 C   0  0  0  0  0  0  0  0  0  0  0  0
  -28.1555  -23.7830   21.1493 C   0  0  0  0  0  0  0  0  0  0  0  0
  -28.4851  -21.8810   22.3950 C   0  0  0  0  0  0  0  0  0  0  0  0
  -25.8176  -11.3166   17.7813 C   0  0  0  0  0  0  0  0  0  0  0  0
  -23.4729  -10.4619   17.6379 C   0  0  0  0  0  0  0  0  0  0  0  0
  -22.6919  -33.1119   22.3491 C   0  0  0  0  0  0  0  0  0  0  0  0
  -20.1849  -31.0548   22.2748 C   0  0  0  0  0  0  0  0  0  0  0  0
  -19.0902  -27.8237   22.1814 C   0  0  0  0  0  0  0  0  0  0  0  0
  -30.3566  -14.4352   20.1315 C   0  0  0  0  0  0  0  0  0  0  0  0
  -21.5273  -38.0817   22.3980 C   0  0  0  0  0  0  0  0  0  0  0  0
  -23.2961  -31.6529   20.3838 C   0  0  0  0  0  0  0  0  0  0  0  0
  -22.4557  -30.0507   22.7230 C   0  0  0  0  0  0  0  0  0  0  0  0
  -20.8944  -36.8066   22.9492 C   0  0  0  0  0  0  0  0  0  0  0  0
  -30.5791  -11.4300   18.2351 C   0  0  0  0  0  0  0  0  0  0  0  0
  -21.9328  -35.9745   23.6950 C   0  0  0  0  0  0  0  0  0  0  0  0
  -29.1555  -10.8713   18.2668 C   0  0  0  0  0  0  0  0  0  0  0  0
  -29.4440  -17.5690   19.4606 C   0  0  0  0  0  0  0  0  0  0  0  0
  -28.6132  -26.1149   22.4343 C   0  0  0  0  0  0  0  0  0  0  0  0
  -27.2363  -26.3002   20.8083 C   0  0  0  0  0  0  0  0  0  0  0  0
  -30.9517  -12.1005   19.5556 C   0  0  0  0  0  0  0  0  0  0  0  0
  -28.5838  -12.5789   20.0433 C   0  0  0  0  0  0  0  0  0  0  0  0
  -29.3307  -18.9856   20.0019 C   0  0  0  0  0  0  0  0  0  0  0  0
  -28.6095  -17.3447   21.6666 C   0  0  0  0  0  0  0  0  0  0  0  0
  -23.0657  -35.5375   22.7584 C   0  0  1  0  0  0  0  0  0  0  0  0
  -22.1960  -32.1269   21.3285 C   0  0  1  0  0  0  0  0  0  0  0  0
  -28.1426  -11.9423   18.7142 C   0  0  2  0  0  0  0  0  0  0  0  0
  -29.6014  -16.7163   20.7078 C   0  0  1  0  0  0  0  0  0  0  0  0
  -27.8139  -27.2926   21.8385 C   0  0  0  0  0  0  0  0  0  1  0  0
  -28.4549  -25.3554   21.0753 C   0  0  0  0  0  0  0  0  0  0  0  0
  -26.8619  -23.7809   18.9984 C   0  0  0  0  0  0  0  0  0  0  0  0
  -29.0843  -21.2629   23.6158 C   0  0  0  0  0  0  0  0  0  0  0  0
  -29.6263  -25.5943   20.1115 C   0  0  0  0  0  0  0  0  0  0  0  0
  -16.9861  -26.4563   22.1678 C   0  0  0  0  0  0  0  0  0  0  0  0
  -19.8283  -31.5781   25.2596 C   0  0  0  0  0  0  0  0  0  0  0  0
  -18.3892  -29.5327   25.3754 C   0  0  0  0  0  0  0  0  0  0  0  0
  -17.6957  -31.4650   23.9583 C   0  0  0  0  0  0  0  0  0  0  0  0
  -19.7352  -26.6453   19.5443 C   0  0  0  0  0  0  0  0  0  0  0  0
  -27.5703  -19.6418   21.7002 C   0  0  0  0  0  0  0  0  0  0  0  0
  -19.6280  -30.0136   23.2155 C   0  0  1  0  0  0  0  0  0  0  0  0
  -18.0468  -27.1382   21.3178 C   0  0  2  0  0  0  0  0  0  0  0  0
  -18.9120  -30.6458   24.4423 C   0  0  0  0  0  0  0  0  0  0  0  0
  -26.2923  -10.8880   19.9582 N   0  0  0  0  0  0  0  0  0  0  0  0
  -28.6912  -23.2092   22.2499 N   0  0  0  0  0  0  0  0  0  0  0  0
  -26.7337  -11.3836   18.7896 N   0  0  0  0  0  0  0  0  0  0  0  0
  -21.5710  -31.0267   22.0655 N   0  0  0  0  0  0  0  0  0  0  0  0
  -29.9519  -13.1065   19.9223 N   0  0  0  0  0  0  0  0  0  0  0  0
  -26.0970  -11.7708   16.5412 N   0  0  0  0  0  0  0  0  0  0  0  0
  -22.4250   -9.8626   18.3499 N   0  0  0  0  0  0  0  0  0  0  0  0
  -22.6391  -34.4284   21.9324 N   0  0  0  0  0  0  0  0  0  0  0  0
  -18.7766  -29.1472   22.4076 N   0  0  0  0  0  0  0  0  0  0  0  0
  -29.3451  -15.3259   20.4695 N   0  0  0  0  0  0  0  0  0  0  0  0
  -28.7902  -18.8272   21.4123 N   0  3  2  0  0  0  0  0  0  0  0  0
  -18.6871  -26.1093   20.4504 N   0  3  0  0  0  0  0  0  0  0  0  0
  -23.3170  -10.7248   16.4213 O   0  0  0  0  0  0  0  0  0  0  0  0
  -23.0913  -32.7076   23.4347 O   0  0  0  0  0  0  0  0  0  0  0  0
  -19.4174  -31.8587   21.7398 O   0  0  0  0  0  0  0  0  0  0  0  0
  -20.0822  -27.2422   22.6153 O   0  0  0  0  0  0  0  0  0  0  0  0
  -31.5314  -14.8017   20.0196 O   0  0  0  0  0  0  0  0  0  0  0  0
  -21.8542   -8.1649   23.6243 O   0  0  0  0  0  0  0  0  0  0  0  0
  -26.8566  -27.9130   22.7136 O   0  0  0  0  0  0  0  0  0  1  0  0
  -21.0714   -2.7112   23.4029 F   0  0  0  0  0  0  0  0  0  0  0  0
  -22.6377   -6.5335   25.7142 F   0  0  0  0  0  0  0  0  0  0  0  0
  1  2  1  0  0  0  0
  1  5  2  0  0  0  0
  2  6  2  0  0  0  0
  3  8  2  0  0  0  0
  3 16  1  0  0  0  0
  4  9  1  0  0  0  0
  4 16  2  0  0  0  0
  5 18  1  0  0  0  0
  6 20  1  0  0  0  0
  7 10  2  0  0  0  0
  7 19  1  0  0  0  0
  8 24  1  0  0  0  0
  9 24  2  0  0  0  0
 10 25  1  0  0  0  0
 11 12  2  0  0  0  0
 11 26  1  0  0  0  0
 12 27  1  0  0  0  0
 13 21  1  0  0  0  0
 13 25  2  0  0  0  0
 14 22  1  0  0  0  0
 14 23  2  0  0  0  0
 15 27  2  0  0  0  0
 15 28  1  0  0  0  0
 16 29  1  0  0  0  0
 17 29  1  0  0  0  0
 17 32  2  0  0  0  0
 17 33  1  0  0  0  0
 18 20  2  0  0  0  0
 18 38  1  0  0  0  0
 19 21  2  0  0  0  0
 19 39  1  0  0  0  0
 20 52  1  0  0  0  0
 21 40  1  0  0  0  0
 22 30  2  0  0  0  0
 22 58  1  0  0  0  0
 23 31  1  0  0  0  0
 23 66  1  0  0  0  0
 24 87  1  0  0  0  0
 25 88  1  0  0  0  0
 26 28  2  0  0  0  0
 26 87  1  0  0  0  0
 27 89  1  0  0  0  0
 28 90  1  0  0  0  0
 29 70  2  0  0  0  0
 30 57  1  0  0  0  0
 30 71  1  0  0  0  0
 31 59  1  0  0  0  0
 31 71  2  0  0  0  0
 32 72  1  0  0  0  0
 32 75  1  0  0  0  0
 33 76  1  0  0  0  0
 33 82  2  0  0  0  0
 34 53  1  0  0  0  0
 34 77  1  0  0  0  0
 34 83  2  0  0  0  0
 35 67  1  0  0  0  0
 35 73  1  0  0  0  0
 35 84  2  0  0  0  0
 36 68  1  0  0  0  0
 36 78  1  0  0  0  0
 36 85  2  0  0  0  0
 37 74  1  0  0  0  0
 37 79  1  0  0  0  0
 37 86  2  0  0  0  0
 38 41  1  0  0  0  0
 39 53  1  0  0  0  0
 40 73  1  0  0  0  0
 41 43  1  0  0  0  0
 42 44  1  0  0  0  0
 42 48  1  0  0  0  0
 43 52  1  0  0  0  0
 44 54  1  0  0  0  0
 45 50  1  0  0  0  0
 45 55  1  0  0  0  0
 46 56  1  0  0  0  0
 46 57  1  0  0  0  0
 47 56  1  0  0  0  0
 47 57  1  0  0  0  0
 48 74  1  0  0  0  0
 49 54  1  0  0  0  0
 49 74  1  0  0  0  0
 50 80  1  0  0  0  0
 51 55  1  0  0  0  0
 51 80  1  0  0  0  0
 52 77  1  0  0  0  0
 53 73  1  0  0  0  0
 54 72  1  0  0  0  0
 55 79  1  0  0  0  0
 56 88  1  0  0  0  0
 57 60  1  0  0  0  0
 61 68  1  0  0  0  0
 62 69  1  0  0  0  0
 63 69  1  0  0  0  0
 64 69  1  0  0  0  0
 65 81  1  0  0  0  0
 66 80  1  0  0  0  0
 67 69  1  0  0  0  0
 67 78  1  0  0  0  0
 68 81  1  0  0  0  0
 70 72  1  0  0  0  0
M  CHG  2  80   1  81   1
M  ISO  4  37 100  56 101  79 100  88 101
M  END
> <Batch ID>
0170

> <Smiles>
CNC(C)C(=O)NC(C(=O)N1Cc2cc([101O:1][101CH:1]3CC(C)(c4nc(C)c(CN5CCC([100NH:0][100C:0](=O)N6CCCC(n7nc(-c8ccc(Oc9ccc(F)cc9F)cc8)c(C(N)=O)c7N)C6)C5)cc4C)C3)ccc2CC1C(=O)NC1CCCc2ccccc21)C(C)(C)C

> <Shape>
0.309

> <Color>
0.079

> <Negative vol penalty>
0.000

$$$$

  -OEChem-04052322353D

 94104  0     1  0  0  0  0  0999 V2000
  -18.7560  -26.7461   22.1607 C   0  0  0  0  0  0  0  0  0  0  0  0
  -20.0184  -26.8228   21.5812 C   0  0  0  0  0  0  0  0  0  0  0  0
  -24.2302   -9.1652   21.2382 C   0  0  0  0  0  0  0  0  0  0  0  0
  -25.1269  -10.2195   23.2185 C   0  0  0  0  0  0  0  0  0  0  0  0
  -18.3625  -27.6981   23.1002 C   0  0  0  0  0  0  0  0  0  0  0  0
  -20.8877  -27.8522   21.9403 C   0  0  0  0  0  0  0  0  0  0  0  0
  -25.6073  -26.2112   22.7632 C   0  0  0  0  0  0  0  0  0  0  0  0
  -24.1039   -7.9635   21.9351 C   0  0  0  0  0  0  0  0  0  0  0  0
  -25.0006   -9.0178   23.9154 C   0  0  0  0  0  0  0  0  0  0  0  0
  -26.3941  -25.9472   21.6429 C   0  0  0  0  0  0  0  0  0  0  0  0
  -23.2087   -4.7132   23.2948 C   0  0  0  0  0  0  0  0  0  0  0  0
  -22.0196   -3.9994   23.1466 C   0  0  0  0  0  0  0  0  0  0  0  0
  -27.4846  -28.0819   21.9133 C   0  0  0  0  0  0  0  0  0  0  0  0
  -20.7818   -5.8790   24.0253 C   0  0  0  0  0  0  0  0  0  0  0  0
  -24.7417  -10.2932   21.8799 C   0  0  0  0  0  0  0  0  0  0  0  0
  -23.8440  -12.2750   20.5478 C   0  0  0  0  0  0  0  0  0  0  0  0
  -19.2310  -28.7342   23.4781 C   0  0  0  0  0  0  0  0  0  0  0  0
  -25.7459  -27.4192   23.4617 C   0  0  0  0  0  0  0  0  0  0  0  0
  -20.5050  -28.8198   22.8848 C   0  0  0  0  0  0  0  0  0  0  0  0
  -26.7001  -28.3577   23.0437 C   0  0  0  0  0  0  0  0  0  0  0  0
  -32.5737  -22.0228   19.7755 C   0  0  0  0  0  0  0  0  0  0  0  0
  -33.7538  -22.7397   19.5781 C   0  0  0  0  0  0  0  0  0  0  0  0
  -34.9134  -22.0771   19.1756 C   0  0  0  0  0  0  0  0  0  0  0  0
  -34.8929  -20.6975   18.9705 C   0  0  0  0  0  0  0  0  0  0  0  0
  -33.7127  -19.9805   19.1680 C   0  0  0  0  0  0  0  0  0  0  0  0
  -32.5532  -20.6432   19.5705 C   0  0  0  0  0  0  0  0  0  0  0  0
  -24.4891   -7.8899   23.2737 C   0  0  0  0  0  0  0  0  0  0  0  0
  -27.3309  -26.8839   21.2161 C   0  0  0  0  0  0  0  0  0  0  0  0
  -23.1845   -6.0099   23.8084 C   0  0  0  0  0  0  0  0  0  0  0  0
  -20.8061   -4.5823   23.5118 C   0  0  0  0  0  0  0  0  0  0  0  0
  -21.9710   -6.5928   24.1736 C   0  0  0  0  0  0  0  0  0  0  0  0
  -24.8729  -11.5346   21.1604 C   0  0  0  0  0  0  0  0  0  0  0  0
  -24.4813  -13.3633   20.0038 C   0  0  0  0  0  0  0  0  0  0  0  0
  -22.4380  -12.0033   20.4771 C   0  0  0  0  0  0  0  0  0  0  0  0
  -23.8333  -29.8790   24.0902 C   0  0  0  0  0  0  0  0  0  0  0  0
  -26.3288  -30.8498   25.9211 C   0  0  0  0  0  0  0  0  0  0  0  0
  -29.9245  -30.9406   25.6376 C   0  0  0  0  0  0  0  0  0  0  0  0
  -27.9668  -17.4453   20.1833 C   0  0  0  0  0  0  0  0  0  0  0  0
  -18.7435  -29.7673   24.4629 C   0  0  0  0  0  0  0  0  0  0  0  0
  -24.9083  -27.6773   24.6841 C   0  0  0  0  0  0  0  0  0  0  0  0
  -26.9020  -29.6611   23.7708 C   0  0  0  0  0  0  0  0  0  0  0  0
  -19.8641  -30.6102   25.0661 C   0  0  0  0  0  0  0  0  0  0  0  0
  -29.3972  -14.3401   19.3768 C   0  0  0  0  0  0  0  0  0  0  0  0
  -20.8166  -31.0909   23.9760 C   0  0  0  0  0  0  0  0  0  0  0  0
  -28.2579  -13.3818   19.7225 C   0  0  0  0  0  0  0  0  0  0  0  0
  -31.4482  -23.4797   21.5589 C   0  0  0  0  0  0  0  0  0  0  0  0
  -29.5317  -15.4649   20.4045 C   0  0  0  0  0  0  0  0  0  0  0  0
  -30.4414  -19.7403   18.6468 C   0  0  0  0  0  0  0  0  0  0  0  0
  -31.3703  -18.8763   20.8001 C   0  0  0  0  0  0  0  0  0  0  0  0
  -29.0359  -19.4086   19.1411 C   0  0  0  0  0  0  0  0  0  0  0  0
  -29.9491  -18.5720   21.2608 C   0  0  0  0  0  0  0  0  0  0  0  0
  -27.1377  -15.2545   20.9896 C   0  0  0  0  0  0  0  0  0  0  0  0
  -31.3083  -24.9550   21.2452 C   0  0  0  0  0  0  0  0  0  0  0  0
  -31.3162  -22.7460   20.2128 C   0  0  1  0  0  0  0  0  0  0  0  0
  -21.4856  -29.9073   23.2667 C   0  0  1  0  0  0  0  0  0  0  0  0
  -24.7750  -29.1606   25.0148 C   0  0  1  0  0  0  0  0  0  0  0  0
  -26.9407  -14.1466   19.9433 C   0  0  2  0  0  0  0  0  0  0  0  0
  -30.8747  -23.8107   19.1860 C   0  0  1  0  0  0  0  0  0  0  0  0
  -33.7761  -24.2198   19.7979 C   0  0  0  0  0  0  0  0  0  0  0  0
  -36.1794  -22.8460   18.9636 C   0  0  0  0  0  0  0  0  0  0  0  0
  -36.1369  -19.9873   18.5384 C   0  0  0  0  0  0  0  0  0  0  0  0
  -33.6945  -18.5002   18.9474 C   0  0  0  0  0  0  0  0  0  0  0  0
  -29.7501  -23.3303   18.2800 C   0  0  0  0  0  0  0  0  0  0  0  0
  -31.7022  -30.8995   27.4083 C   0  0  0  0  0  0  0  0  0  0  0  0
  -26.2085  -33.8909   25.7034 C   0  0  0  0  0  0  0  0  0  0  0  0
  -28.6958  -33.9398   25.9853 C   0  0  0  0  0  0  0  0  0  0  0  0
  -27.2532  -33.0363   27.8088 C   0  0  0  0  0  0  0  0  0  0  0  0
  -31.2505  -28.5937   24.4158 C   0  0  0  0  0  0  0  0  0  0  0  0
  -30.3574  -26.2949   19.3545 C   0  0  0  0  0  0  0  0  0  0  0  0
  -29.4010  -27.2111   20.0920 C   0  0  0  0  0  0  0  0  0  1  0  0
  -27.5606  -31.6914   25.6901 C   0  0  1  0  0  0  0  0  0  0  0  0
  -30.9179  -30.0791   26.3961 C   0  0  2  0  0  0  0  0  0  0  0  0
  -27.4176  -33.1246   26.2759 C   0  0  0  0  0  0  0  0  0  0  0  0
  -26.0726  -12.1044   21.0189 N   0  0  0  0  0  0  0  0  0  0  0  0
  -25.8017  -13.2142   20.3112 N   0  0  0  0  0  0  0  0  0  0  0  0
  -31.3681  -19.9232   19.7690 N   0  0  0  0  0  0  0  0  0  0  0  0
  -26.0547  -29.8699   24.9565 N   0  0  0  0  0  0  0  0  0  0  0  0
  -28.2425  -16.1381   20.6113 N   0  0  0  0  0  0  0  0  0  0  0  0
  -29.0497  -18.3369   20.1294 N   0  0  0  0  0  0  0  0  0  0  0  0
  -24.0354  -14.4235   19.2971 N   0  0  0  0  0  0  0  0  0  0  0  0
  -21.6093  -12.5020   21.4914 N   0  0  0  0  0  0  0  0  0  0  0  0
  -22.5506  -29.3652   24.0830 N   0  0  0  0  0  0  0  0  0  0  0  0
  -28.6815  -30.9325   26.2343 N   0  0  0  0  0  0  0  0  0  0  0  0
  -30.4004  -24.9671   20.0441 N   0  3  2  0  0  0  0  0  0  0  0  0
  -31.8839  -29.4491   25.4522 N   0  3  0  0  0  0  0  0  0  0  0  0
  -21.9339  -11.3241   19.5508 O   0  0  0  0  0  0  0  0  0  0  0  0
  -24.2401  -30.8301   23.4331 O   0  0  0  0  0  0  0  0  0  0  0  0
  -25.6394  -31.0496   26.9243 O   0  0  0  0  0  0  0  0  0  0  0  0
  -30.2224  -31.5617   24.6198 O   0  0  0  0  0  0  0  0  0  0  0  0
  -26.8237  -17.7961   19.8651 O   0  0  0  0  0  0  0  0  0  0  0  0
  -24.3658   -6.7175   23.9542 O   0  0  0  0  0  0  0  0  0  0  0  0
  -28.1052  -26.6273   20.1146 O   0  0  0  0  0  0  0  0  0  1  0  0
  -19.6641   -3.8973   23.3680 F   0  0  0  0  0  0  0  0  0  0  0  0
  -21.9413   -7.8386   24.6664 F   0  0  0  0  0  0  0  0  0  0  0  0
  1  2  1  0  0  0  0
  1  5  2  0  0  0  0
  2  6  2  0  0  0  0
  3  8  2  0  0  0  0
  3 15  1  0  0  0  0
  4  9  1  0  0  0  0
  4 15  2  0  0  0  0
  5 17  1  0  0  0  0
  6 19  1  0  0  0  0
  7 10  2  0  0  0  0
  7 18  1  0  0  0  0
  8 27  1  0  0  0  0
  9 27  2  0  0  0  0
 10 28  1  0  0  0  0
 11 12  2  0  0  0  0
 11 29  1  0  0  0  0
 12 30  1  0  0  0  0
 13 20  1  0  0  0  0
 13 28  2  0  0  0  0
 14 30  2  0  0  0  0
 14 31  1  0  0  0  0
 15 32  1  0  0  0  0
 16 32  1  0  0  0  0
 16 33  2  0  0  0  0
 16 34  1  0  0  0  0
 17 19  2  0  0  0  0
 17 39  1  0  0  0  0
 18 20  2  0  0  0  0
 18 40  1  0  0  0  0
 19 55  1  0  0  0  0
 20 41  1  0  0  0  0
 21 22  1  0  0  0  0
 21 26  2  0  0  0  0
 21 54  1  0  0  0  0
 22 23  2  0  0  0  0
 22 59  1  0  0  0  0
 23 24  1  0  0  0  0
 23 60  1  0  0  0  0
 24 25  2  0  0  0  0
 24 61  1  0  0  0  0
 25 26  1  0  0  0  0
 25 62  1  0  0  0  0
 26 76  1  0  0  0  0
 27 91  1  0  0  0  0
 28 92  1  0  0  0  0
 29 31  2  0  0  0  0
 29 91  1  0  0  0  0
 30 93  1  0  0  0  0
 31 94  1  0  0  0  0
 32 74  2  0  0  0  0
 33 75  1  0  0  0  0
 33 80  1  0  0  0  0
 34 81  1  0  0  0  0
 34 86  2  0  0  0  0
 35 56  1  0  0  0  0
 35 82  1  0  0  0  0
 35 87  2  0  0  0  0
 36 71  1  0  0  0  0
 36 77  1  0  0  0  0
 36 88  2  0  0  0  0
 37 72  1  0  0  0  0
 37 83  1  0  0  0  0
 37 89  2  0  0  0  0
 38 78  1  0  0  0  0
 38 79  1  0  0  0  0
 38 90  2  0  0  0  0
 39 42  1  0  0  0  0
 40 56  1  0  0  0  0
 41 77  1  0  0  0  0
 42 44  1  0  0  0  0
 43 45  1  0  0  0  0
 43 47  1  0  0  0  0
 44 55  1  0  0  0  0
 45 57  1  0  0  0  0
 46 53  1  0  0  0  0
 46 54  1  0  0  0  0
 47 78  1  0  0  0  0
 48 50  1  0  0  0  0
 48 76  1  0  0  0  0
 49 51  1  0  0  0  0
 49 76  1  0  0  0  0
 50 79  1  0  0  0  0
 51 79  1  0  0  0  0
 52 57  1  0  0  0  0
 52 78  1  0  0  0  0
 53 84  1  0  0  0  0
 54 58  1  0  0  0  0
 55 82  1  0  0  0  0
 56 77  1  0  0  0  0
 57 75  1  0  0  0  0
 58 63  1  0  0  0  0
 58 84  1  0  0  0  0
 64 72  1  0  0  0  0
 65 73  1  0  0  0  0
 66 73  1  0  0  0  0
 67 73  1  0  0  0  0
 68 85  1  0  0  0  0
 69 70  1  0  0  0  0
 69 84  1  0  0  0  0
 70 92  1  0  0  0  0
 71 73  1  0  0  0  0
 71 83  1  0  0  0  0
 72 85  1  0  0  0  0
 74 75  1  0  0  0  0
M  CHG  2  84   1  85   1
M  ISO  4  38 100  70 101  79 100  92 101
M  END
> <Batch ID>
0170

> <Smiles>
CNC(C)C(=O)NC(C(=O)N1Cc2cc([101O:1][101CH2:1]CN3CCC(c4c(C)c(C)c(C)c(C)c4N4CC[100N:0]([100C:0](=O)N5CCCC(n6nc(-c7ccc(Oc8ccc(F)cc8F)cc7)c(C(N)=O)c6N)C5)CC4)C3C)ccc2CC1C(=O)NC1CCCc2ccccc21)C(C)(C)C

> <Shape>
0.314

> <Color>
0.097

> <Negative vol penalty>
0.000

$$$$

  -OEChem-04052322353D

 90101  0     1  0  0  0  0  0999 V2000
  -25.2776  -11.4616   20.9332 C   0  0  0  0  0  0  0  0  0  0  0  0
  -25.0581  -12.3803   21.9533 C   0  0  0  0  0  0  0  0  0  0  0  0
  -29.3817  -17.3109   19.3819 C   0  0  0  0  0  0  0  0  0  0  0  0
  -30.9214  -18.0412   21.0945 C   0  0  0  0  0  0  0  0  0  0  0  0
  -25.2595  -11.8829   19.6052 C   0  0  0  0  0  0  0  0  0  0  0  0
  -24.8085  -13.7182   21.6454 C   0  0  0  0  0  0  0  0  0  0  0  0
  -23.2977  -21.4120   22.9664 C   0  0  0  0  0  0  0  0  0  0  0  0
  -30.0082  -16.0651   19.3498 C   0  0  0  0  0  0  0  0  0  0  0  0
  -31.5479  -16.7954   21.0625 C   0  0  0  0  0  0  0  0  0  0  0  0
  -23.3577  -22.6746   22.3781 C   0  0  0  0  0  0  0  0  0  0  0  0
  -30.9739  -12.5714   19.0740 C   0  0  0  0  0  0  0  0  0  0  0  0
  -30.1619  -11.4374   19.0541 C   0  0  0  0  0  0  0  0  0  0  0  0
  -26.3773  -26.8159   20.5156 C   0  0  0  0  0  0  0  0  0  0  0  0
  -22.0212  -21.8736   20.5366 C   0  0  0  0  0  0  0  0  0  0  0  0
  -29.1950  -12.0927   21.1690 C   0  0  0  0  0  0  0  0  0  0  0  0
  -29.8383  -18.2990   20.2542 C   0  0  0  0  0  0  0  0  0  0  0  0
  -28.1075  -19.9724   21.0979 C   0  0  0  0  0  0  0  0  0  0  0  0
  -25.0219  -13.2291   19.2824 C   0  0  0  0  0  0  0  0  0  0  0  0
  -22.6069  -20.3661   22.3377 C   0  0  0  0  0  0  0  0  0  0  0  0
  -24.7624  -14.1583   20.3102 C   0  0  0  0  0  0  0  0  0  0  0  0
  -27.1665  -27.9094   20.8541 C   0  0  0  0  0  0  0  0  0  0  0  0
  -21.9517  -20.5994   21.1202 C   0  0  0  0  0  0  0  0  0  0  0  0
  -25.0983  -27.0188   20.0092 C   0  0  0  0  0  0  0  0  0  0  0  0
  -31.0913  -15.8074   20.1901 C   0  0  0  0  0  0  0  0  0  0  0  0
  -22.7219  -22.9048   21.1616 C   0  0  0  0  0  0  0  0  0  0  0  0
  -30.8965  -13.4660   20.1414 C   0  0  0  0  0  0  0  0  0  0  0  0
  -29.2725  -11.1981   20.1016 C   0  0  0  0  0  0  0  0  0  0  0  0
  -30.0071  -13.2267   21.1889 C   0  0  0  0  0  0  0  0  0  0  0  0
  -29.1918  -19.5863   20.2874 C   0  0  0  0  0  0  0  0  0  0  0  0
  -24.6589  -28.3245   19.8616 C   0  0  0  0  0  0  0  0  0  0  0  0
  -26.6345  -29.1752   20.6685 C   0  0  0  0  0  0  0  0  0  0  0  0
  -27.8706  -21.2809   20.7540 C   0  0  0  0  0  0  0  0  0  0  0  0
  -27.3795  -19.2159   22.0743 C   0  0  0  0  0  0  0  0  0  0  0  0
  -23.4192  -17.5217   21.1742 C   0  0  0  0  0  0  0  0  0  0  0  0
  -20.2169  -17.2096   20.7623 C   0  0  0  0  0  0  0  0  0  0  0  0
  -17.1858  -18.7260   20.3624 C   0  0  0  0  0  0  0  0  0  0  0  0
  -29.6316  -26.3792   19.5707 C   0  0  0  0  0  0  0  0  0  0  0  0
  -25.0056  -13.6290   17.8280 C   0  0  0  0  0  0  0  0  0  0  0  0
  -22.5291  -19.0170   22.9984 C   0  0  0  0  0  0  0  0  0  0  0  0
  -21.1799  -19.5154   20.4145 C   0  0  0  0  0  0  0  0  0  0  0  0
  -25.1749  -15.1308   17.6225 C   0  0  0  0  0  0  0  0  0  0  0  0
  -29.7592  -26.6279   23.1861 C   0  0  0  0  0  0  0  0  0  0  0  0
  -29.6353  -24.0743   16.9408 C   0  0  0  0  0  0  0  0  0  0  0  0
  -28.5665  -27.5411   22.9322 C   0  0  0  0  0  0  0  0  0  0  0  0
  -24.2110  -15.8904   18.5217 C   0  0  0  0  0  0  0  0  0  0  0  0
  -22.6033  -29.8789   19.6822 C   0  0  0  0  0  0  0  0  0  0  0  0
  -22.1205  -28.5890   20.2680 C   0  0  0  0  0  0  0  0  0  0  0  0
  -24.0165  -24.2093   17.6116 C   0  0  0  0  0  0  0  0  0  0  0  0
  -24.6444  -25.4680   17.0812 C   0  0  0  0  0  0  0  0  0  0  0  0
  -29.4508  -22.7243   17.6311 C   0  0  0  0  0  0  0  0  0  0  0  0
  -30.5541  -24.9781   17.7532 C   0  0  0  0  0  0  0  0  0  0  0  0
  -29.7001  -25.6617   22.0132 C   0  0  0  0  0  0  0  0  0  0  0  0
  -29.8811  -23.8706   19.8635 C   0  0  0  0  0  0  0  0  0  0  0  0
  -28.5578  -27.6948   21.4055 C   0  0  1  0  0  0  0  0  0  0  0  0
  -24.5192  -15.6244   20.0007 C   0  0  1  0  0  0  0  0  0  0  0  0
  -23.2907  -28.5899   19.3220 C   0  0  0  0  0  0  0  0  0  0  0  0
  -22.2305  -17.8876   22.0173 C   0  0  1  0  0  0  0  0  0  0  0  0
  -24.8764  -25.0561   18.5086 C   0  0  0  0  0  0  0  0  0  0  0  0
  -28.9628  -22.9128   19.0771 C   0  0  2  0  0  0  0  0  0  0  0  0
  -27.4354  -30.3865   21.0185 C   0  0  0  0  0  0  0  0  0  0  0  0
  -14.7554  -18.2088   20.0117 C   0  0  0  0  0  0  0  0  0  0  0  0
  -20.7848  -16.5330   17.8417 C   0  0  0  0  0  0  0  0  0  0  0  0
  -18.3689  -16.9630   17.3448 C   0  0  0  0  0  0  0  0  0  0  0  0
  -19.0114  -15.1312   18.9115 C   0  0  0  0  0  0  0  0  0  0  0  0
  -16.4173  -20.0636   22.8881 C   0  0  0  0  0  0  0  0  0  0  0  0
  -23.9449  -24.9195   20.8436 C   0  0  0  0  0  0  0  0  0  1  0  0
  -24.2497  -25.8492   19.6459 C   0  0  1  0  0  0  0  0  0  0  0  0
  -19.2446  -17.5365   19.6547 C   0  0  1  0  0  0  0  0  0  0  0  0
  -15.8451  -18.4904   21.0344 C   0  0  2  0  0  0  0  0  0  0  0  0
  -19.3685  -16.5610   18.4503 C   0  0  0  0  0  0  0  0  0  0  0  0
  -29.6145  -20.5699   19.4887 N   0  0  0  0  0  0  0  0  0  0  0  0
  -25.3967  -29.4119   20.1793 N   0  0  0  0  0  0  0  0  0  0  0  0
  -28.7914  -21.5870   19.7956 N   0  0  0  0  0  0  0  0  0  0  0  0
  -21.1383  -18.2118   21.0975 N   0  0  0  0  0  0  0  0  0  0  0  0
  -30.0787  -25.1275   19.1291 N   0  0  0  0  0  0  0  0  0  0  0  0
  -29.2103  -26.4771   20.9000 N   0  0  0  0  0  0  0  0  0  0  0  0
  -26.9665  -22.1880   21.1810 N   0  0  0  0  0  0  0  0  0  0  0  0
  -27.7543  -17.8851   22.3038 N   0  0  0  0  0  0  0  0  0  0  0  0
  -23.4633  -16.1890   20.8119 N   0  0  0  0  0  0  0  0  0  0  0  0
  -17.9211  -17.5634   20.2680 N   0  0  0  0  0  0  0  0  0  0  0  0
  -15.4465  -19.6867   21.8287 N   0  3  0  0  0  0  0  0  0  0  0  0
  -26.4143  -19.7006   22.7123 O   0  0  0  0  0  0  0  0  0  0  0  0
  -24.2353  -18.3850   20.8734 O   0  0  0  0  0  0  0  0  0  0  0  0
  -20.1563  -16.1083   21.3147 O   0  0  0  0  0  0  0  0  0  0  0  0
  -17.5433  -19.8302   19.9580 O   0  0  0  0  0  0  0  0  0  0  0  0
  -29.6287  -27.3654   18.8229 O   0  0  0  0  0  0  0  0  0  0  0  0
  -31.7028  -14.5918   20.1593 O   0  0  0  0  0  0  0  0  0  0  0  0
  -22.7798  -24.1439   20.5813 O   0  0  0  0  0  0  0  0  0  1  0  0
  -28.4917  -10.1099   20.0816 F   0  0  0  0  0  0  0  0  0  0  0  0
  -29.9274  -14.0832   22.2165 F   0  0  0  0  0  0  0  0  0  0  0  0
  1  2  1  0  0  0  0
  1  5  2  0  0  0  0
  2  6  2  0  0  0  0
  3  8  2  0  0  0  0
  3 16  1  0  0  0  0
  4  9  1  0  0  0  0
  4 16  2  0  0  0  0
  5 18  1  0  0  0  0
  6 20  1  0  0  0  0
  7 10  2  0  0  0  0
  7 19  1  0  0  0  0
  8 24  1  0  0  0  0
  9 24  2  0  0  0  0
 10 25  1  0  0  0  0
 11 12  2  0  0  0  0
 11 26  1  0  0  0  0
 12 27  1  0  0  0  0
 13 21  2  0  0  0  0
 13 23  1  0  0  0  0
 14 22  1  0  0  0  0
 14 25  2  0  0  0  0
 15 27  2  0  0  0  0
 15 28  1  0  0  0  0
 16 29  1  0  0  0  0
 17 29  1  0  0  0  0
 17 32  2  0  0  0  0
 17 33  1  0  0  0  0
 18 20  2  0  0  0  0
 18 38  1  0  0  0  0
 19 22  2  0  0  0  0
 19 39  1  0  0  0  0
 20 55  1  0  0  0  0
 21 31  1  0  0  0  0
 21 54  1  0  0  0  0
 22 40  1  0  0  0  0
 23 30  2  0  0  0  0
 23 67  1  0  0  0  0
 24 87  1  0  0  0  0
 25 88  1  0  0  0  0
 26 28  2  0  0  0  0
 26 87  1  0  0  0  0
 27 89  1  0  0  0  0
 28 90  1  0  0  0  0
 29 71  2  0  0  0  0
 30 56  1  0  0  0  0
 30 72  1  0  0  0  0
 31 60  1  0  0  0  0
 31 72  2  0  0  0  0
 32 73  1  0  0  0  0
 32 77  1  0  0  0  0
 33 78  1  0  0  0  0
 33 82  2  0  0  0  0
 34 57  1  0  0  0  0
 34 79  1  0  0  0  0
 34 83  2  0  0  0  0
 35 68  1  0  0  0  0
 35 74  1  0  0  0  0
 35 84  2  0  0  0  0
 36 69  1  0  0  0  0
 36 80  1  0  0  0  0
 36 85  2  0  0  0  0
 37 75  1  0  0  0  0
 37 76  1  0  0  0  0
 37 86  2  0  0  0  0
 38 41  1  0  0  0  0
 39 57  1  0  0  0  0
 40 74  1  0  0  0  0
 41 45  1  0  0  0  0
 42 44  1  0  0  0  0
 42 52  1  0  0  0  0
 43 50  1  0  0  0  0
 43 51  1  0  0  0  0
 44 54  1  0  0  0  0
 45 55  1  0  0  0  0
 46 47  1  0  0  0  0
 46 56  1  0  0  0  0
 47 56  1  0  0  0  0
 48 49  1  0  0  0  0
 48 58  1  0  0  0  0
 49 58  1  0  0  0  0
 50 59  1  0  0  0  0
 51 75  1  0  0  0  0
 52 76  1  0  0  0  0
 53 59  1  0  0  0  0
 53 75  1  0  0  0  0
 54 76  1  0  0  0  0
 55 79  1  0  0  0  0
 57 74  1  0  0  0  0
 58 67  1  0  0  0  0
 59 73  1  0  0  0  0
 61 69  1  0  0  0  0
 62 70  1  0  0  0  0
 63 70  1  0  0  0  0
 64 70  1  0  0  0  0
 65 81  1  0  0  0  0
 66 67  1  0  0  0  0
 66 88  1  0  0  0  0
 68 70  1  0  0  0  0
 68 80  1  0  0  0  0
 69 81  1  0  0  0  0
 71 73  1  0  0  0  0
M  CHG  1  81   1
M  ISO  4  37 100  66 101  76 100  88 101
M  END
> <Batch ID>
0170

> <Smiles>
CNC(C)C(=O)NC(C(=O)N1Cc2cc([101O:1][101CH2:1]C(c3cc(C4CCC[100N:0]4[100C:0](=O)N4CCCC(n5nc(-c6ccc(Oc7ccc(F)cc7F)cc6)c(C(N)=O)c5N)C4)c(C)nc3C3CC3)C3CC3)ccc2CC1C(=O)NC1CCCc2ccccc21)C(C)(C)C

> <Shape>
0.235

> <Color>
0.075

> <Negative vol penalty>
0.000

$$$$

  -OEChem-04052322352D

  0  0  0     0  0  0  0  0  0999 V2000
M  END
$$$$

  -OEChem-04052322353D

 89100  0     1  0  0  0  0  0999 V2000
  -20.4393  -33.9115   24.4269 C   0  0  0  0  0  0  0  0  0  0  0  0
  -21.7120  -33.5071   24.0372 C   0  0  0  0  0  0  0  0  0  0  0  0
  -25.3272  -12.6143   23.0314 C   0  0  0  0  0  0  0  0  0  0  0  0
  -23.9897  -11.6973   21.2406 C   0  0  0  0  0  0  0  0  0  0  0  0
  -19.4464  -32.9599   24.6561 C   0  0  0  0  0  0  0  0  0  0  0  0
  -21.9930  -32.1506   23.8775 C   0  0  0  0  0  0  0  0  0  0  0  0
  -25.7597  -29.6312   19.7580 C   0  0  0  0  0  0  0  0  0  0  0  0
  -24.6638  -11.7962   23.9458 C   0  0  0  0  0  0  0  0  0  0  0  0
  -23.3263  -10.8791   22.1550 C   0  0  0  0  0  0  0  0  0  0  0  0
  -27.0791  -29.1885   19.8407 C   0  0  0  0  0  0  0  0  0  0  0  0
  -21.5293   -8.2882   23.9651 C   0  0  0  0  0  0  0  0  0  0  0  0
  -21.3329   -6.9518   23.6173 C   0  0  0  0  0  0  0  0  0  0  0  0
  -26.2943  -26.9407   20.2286 C   0  0  0  0  0  0  0  0  0  0  0  0
  -30.2171  -24.0921   20.8378 C   0  0  0  0  0  0  0  0  0  0  0  0
  -23.7233   -6.6451   23.4465 C   0  0  0  0  0  0  0  0  0  0  0  0
  -24.9901  -12.5649   21.6788 C   0  0  0  0  0  0  0  0  0  0  0  0
  -26.8459  -13.1064   20.0143 C   0  0  0  0  0  0  0  0  0  0  0  0
  -19.7126  -31.5917   24.4898 C   0  0  0  0  0  0  0  0  0  0  0  0
  -24.6958  -28.7323   19.9210 C   0  0  0  0  0  0  0  0  0  0  0  0
  -21.0031  -31.1797   24.1060 C   0  0  0  0  0  0  0  0  0  0  0  0
  -24.9622  -27.3740   20.1449 C   0  0  0  0  0  0  0  0  0  0  0  0
  -31.0008  -22.9120   20.8189 C   0  0  0  0  0  0  0  0  0  0  0  0
  -23.6634  -10.9286   23.5077 C   0  0  0  0  0  0  0  0  0  0  0  0
  -27.3466  -27.8436   20.0789 C   0  0  0  0  0  0  0  0  0  0  0  0
  -22.8227   -8.8032   24.0535 C   0  0  0  0  0  0  0  0  0  0  0  0
  -22.4299   -6.1302   23.3580 C   0  0  0  0  0  0  0  0  0  0  0  0
  -23.9197   -7.9815   23.7942 C   0  0  0  0  0  0  0  0  0  0  0  0
  -25.6746  -13.4102   20.7337 C   0  0  0  0  0  0  0  0  0  0  0  0
  -30.9934  -25.0928   21.3793 C   0  0  0  0  0  0  0  0  0  0  0  0
  -32.2321  -23.2275   21.3496 C   0  0  0  0  0  0  0  0  0  0  0  0
  -27.0859  -14.2284   19.2593 C   0  0  0  0  0  0  0  0  0  0  0  0
  -27.6454  -11.9163   20.0271 C   0  0  0  0  0  0  0  0  0  0  0  0
  -22.3022  -28.4416   21.9923 C   0  0  0  0  0  0  0  0  0  0  0  0
  -21.3709  -26.0680   19.9871 C   0  0  0  0  0  0  0  0  0  0  0  0
  -22.2388  -23.7673   17.6206 C   0  0  0  0  0  0  0  0  0  0  0  0
  -27.3617  -19.6571   18.5705 C   0  0  0  0  0  0  0  0  0  0  0  0
  -18.6205  -30.5973   24.7950 C   0  0  0  0  0  0  0  0  0  0  0  0
  -23.2782  -29.2210   19.8023 C   0  0  0  0  0  0  0  0  0  0  0  0
  -23.8558  -26.3650   20.3069 C   0  0  0  0  0  0  0  0  0  0  0  0
  -18.8949  -29.2018   24.2404 C   0  0  0  0  0  0  0  0  0  0  0  0
  -24.2020  -18.2735   18.3470 C   0  0  0  0  0  0  0  0  0  0  0  0
  -20.3252  -28.7745   24.5541 C   0  0  0  0  0  0  0  0  0  0  0  0
  -30.3283  -26.9431   23.0837 C   0  0  0  0  0  0  0  0  0  0  0  0
  -24.3874  -16.8553   18.8862 C   0  0  0  0  0  0  0  0  0  0  0  0
  -33.8433  -26.5552   21.6402 C   0  0  0  0  0  0  0  0  0  0  0  0
  -34.6807  -25.3149   21.6251 C   0  0  0  0  0  0  0  0  0  0  0  0
  -29.0999  -27.7465   22.6224 C   0  0  0  0  0  0  0  0  0  0  0  0
  -29.3769  -20.9895   21.1164 C   0  0  0  0  0  0  0  0  0  0  0  0
  -30.2190  -21.5871   18.8049 C   0  0  0  0  0  0  0  0  0  0  0  0
  -24.9908  -19.2800   19.1765 C   0  0  0  0  0  0  0  0  0  0  0  0
  -28.9137  -19.6346   20.5734 C   0  0  0  0  0  0  0  0  0  0  0  0
  -29.7615  -20.2130   18.3241 C   0  0  0  0  0  0  0  0  0  0  0  0
  -26.6523  -17.5592   19.8058 C   0  0  0  0  0  0  0  0  0  0  0  0
  -30.5574  -21.5547   20.3063 C   0  0  0  0  0  0  0  0  0  0  0  0
  -21.3396  -29.7190   23.8982 C   0  0  1  0  0  0  0  0  0  0  0  0
  -30.5564  -26.5423   21.5935 C   0  0  2  0  0  0  0  0  0  0  0  0
  -22.2715  -28.3084   20.4960 C   0  0  1  0  0  0  0  0  0  0  0  0
  -33.3186  -25.2901   22.2779 C   0  0  0  0  0  0  0  0  0  0  0  0
  -25.8798  -16.4967   18.9976 C   0  0  1  0  0  0  0  0  0  0  0  0
  -29.0214  -26.7985   21.4051 C   0  0  2  0  0  0  0  0  0  1  0  0
  -33.4224  -22.3768   21.5644 C   0  0  0  0  0  0  0  0  0  0  0  0
  -21.2672  -21.9441   16.1961 C   0  0  0  0  0  0  0  0  0  0  0  0
  -21.2799  -24.2226   22.4153 C   0  0  0  0  0  0  0  0  0  0  0  0
  -21.2472  -22.2729   20.8451 C   0  0  0  0  0  0  0  0  0  0  0  0
  -19.3834  -23.9305   20.8114 C   0  0  0  0  0  0  0  0  0  0  0  0
  -22.9834  -25.1649   15.1203 C   0  0  0  0  0  0  0  0  0  0  0  0
  -21.6425  -24.5866   19.8850 C   0  0  1  0  0  0  0  0  0  0  0  0
  -21.6207  -23.4209   16.2780 C   0  0  2  0  0  0  0  0  0  0  0  0
  -20.9093  -23.7723   20.9881 C   0  0  0  0  0  0  0  0  0  0  0  0
  -25.2034  -14.6297   20.4605 N   0  0  0  0  0  0  0  0  0  0  0  0
  -32.2161  -24.5557   21.6870 N   0  0  0  0  0  0  0  0  0  0  0  0
  -26.0830  -15.1022   19.5610 N   0  0  0  0  0  0  0  0  0  0  0  0
  -22.4865  -26.8929   20.1888 N   0  0  0  0  0  0  0  0  0  0  0  0
  -26.4015  -18.9028   19.2615 N   0  0  0  0  0  0  0  0  0  0  0  0
  -28.6466  -19.7173   19.1308 N   0  0  0  0  0  0  0  0  0  0  0  0
  -28.0548  -14.5430   18.3736 N   0  0  0  0  0  0  0  0  0  0  0  0
  -27.2561  -10.8588   20.8605 N   0  0  0  0  0  0  0  0  0  0  0  0
  -21.4659  -29.4241   22.4870 N   0  0  0  0  0  0  0  0  0  0  0  0
  -21.2903  -24.1998   18.5231 N   0  0  0  0  0  0  0  0  0  0  0  0
  -22.5692  -23.7392   15.1735 N   0  3  0  0  0  0  0  0  0  0  0  0
  -28.6838  -11.8006   19.3329 O   0  0  0  0  0  0  0  0  0  0  0  0
  -23.0297  -27.7064   22.6495 O   0  0  0  0  0  0  0  0  0  0  0  0
  -20.2123  -26.4789   19.8842 O   0  0  0  0  0  0  0  0  0  0  0  0
  -23.4420  -23.6610   17.8472 O   0  0  0  0  0  0  0  0  0  0  0  0
  -27.0882  -20.2419   17.5149 O   0  0  0  0  0  0  0  0  0  0  0  0
  -23.0160  -10.1300   24.3997 O   0  0  0  0  0  0  0  0  0  0  0  0
  -28.6357  -27.4082   20.1609 O   0  0  0  0  0  0  0  0  0  1  0  0
  -22.2413   -4.8464   23.0256 F   0  0  0  0  0  0  0  0  0  0  0  0
  -25.1646   -8.4702   23.8787 F   0  0  0  0  0  0  0  0  0  0  0  0
  1  2  1  0  0  0  0
  1  5  2  0  0  0  0
  2  6  2  0  0  0  0
  3  8  2  0  0  0  0
  3 16  1  0  0  0  0
  4  9  1  0  0  0  0
  4 16  2  0  0  0  0
  5 18  1  0  0  0  0
  6 20  1  0  0  0  0
  7 10  2  0  0  0  0
  7 19  1  0  0  0  0
  8 23  1  0  0  0  0
  9 23  2  0  0  0  0
 10 24  1  0  0  0  0
 11 12  2  0  0  0  0
 11 25  1  0  0  0  0
 12 26  1  0  0  0  0
 13 21  1  0  0  0  0
 13 24  2  0  0  0  0
 14 22  1  0  0  0  0
 14 29  2  0  0  0  0
 15 26  2  0  0  0  0
 15 27  1  0  0  0  0
 16 28  1  0  0  0  0
 17 28  1  0  0  0  0
 17 31  2  0  0  0  0
 17 32  1  0  0  0  0
 18 20  2  0  0  0  0
 18 37  1  0  0  0  0
 19 21  2  0  0  0  0
 19 38  1  0  0  0  0
 20 55  1  0  0  0  0
 21 39  1  0  0  0  0
 22 30  2  0  0  0  0
 22 54  1  0  0  0  0
 23 86  1  0  0  0  0
 24 87  1  0  0  0  0
 25 27  2  0  0  0  0
 25 86  1  0  0  0  0
 26 88  1  0  0  0  0
 27 89  1  0  0  0  0
 28 70  2  0  0  0  0
 29 56  1  0  0  0  0
 29 71  1  0  0  0  0
 30 61  1  0  0  0  0
 30 71  1  0  0  0  0
 31 72  1  0  0  0  0
 31 76  1  0  0  0  0
 32 77  1  0  0  0  0
 32 81  2  0  0  0  0
 33 57  1  0  0  0  0
 33 78  1  0  0  0  0
 33 82  2  0  0  0  0
 34 67  1  0  0  0  0
 34 73  1  0  0  0  0
 34 83  2  0  0  0  0
 35 68  1  0  0  0  0
 35 79  1  0  0  0  0
 35 84  2  0  0  0  0
 36 74  1  0  0  0  0
 36 75  1  0  0  0  0
 36 85  2  0  0  0  0
 37 40  1  0  0  0  0
 38 57  1  0  0  0  0
 39 73  1  0  0  0  0
 40 42  1  0  0  0  0
 41 44  1  0  0  0  0
 41 50  1  0  0  0  0
 42 55  1  0  0  0  0
 43 47  1  0  0  0  0
 43 56  1  0  0  0  0
 44 59  1  0  0  0  0
 45 46  1  0  0  0  0
 45 58  1  0  0  0  0
 46 58  1  0  0  0  0
 47 60  1  0  0  0  0
 48 51  1  0  0  0  0
 48 54  1  0  0  0  0
 49 52  1  0  0  0  0
 49 54  1  0  0  0  0
 50 74  1  0  0  0  0
 51 75  1  0  0  0  0
 52 75  1  0  0  0  0
 53 59  1  0  0  0  0
 53 74  1  0  0  0  0
 55 78  1  0  0  0  0
 56 60  1  0  0  0  0
 57 73  1  0  0  0  0
 58 71  1  0  0  0  0
 59 72  1  0  0  0  0
 60 87  1  0  0  0  0
 62 68  1  0  0  0  0
 63 69  1  0  0  0  0
 64 69  1  0  0  0  0
 65 69  1  0  0  0  0
 66 80  1  0  0  0  0
 67 69  1  0  0  0  0
 67 79  1  0  0  0  0
 68 80  1  0  0  0  0
 70 72  1  0  0  0  0
M  CHG  1  80   1
M  ISO  4  36 100  60 101  75 100  87 101
M  END
> <Batch ID>
0170

> <Smiles>
CNC(C)C(=O)NC(C(=O)N1Cc2cc([101O:1][101CH:1]3CCC3c3cc(C4CC[100N:0]([100C:0](=O)N5CCCC(n6nc(-c7ccc(Oc8ccc(F)cc8F)cc7)c(C(N)=O)c6N)C5)CC4)c(C)n3C3CC3)ccc2CC1C(=O)NC1CCCc2ccccc21)C(C)(C)C

> <Shape>
0.223

> <Color>
0.067

> <Negative vol penalty>
0.000

$$$$

  -OEChem-04052322353D

 88 97  0     1  0  0  0  0  0999 V2000
  -28.9402  -36.6621   19.6801 C   0  0  0  0  0  0  0  0  0  0  0  0
  -29.1913  -35.3011   19.5387 C   0  0  0  0  0  0  0  0  0  0  0  0
  -23.3608   -9.4908   19.8368 C   0  0  0  0  0  0  0  0  0  0  0  0
  -23.5636  -10.0007   22.1897 C   0  0  0  0  0  0  0  0  0  0  0  0
  -28.0776  -37.1105   20.6795 C   0  0  0  0  0  0  0  0  0  0  0  0
  -28.5806  -34.3877   20.3972 C   0  0  0  0  0  0  0  0  0  0  0  0
  -26.6854  -28.7315   19.0110 C   0  0  0  0  0  0  0  0  0  0  0  0
  -23.2784   -8.1315   20.1385 C   0  0  0  0  0  0  0  0  0  0  0  0
  -23.4811   -8.6413   22.4914 C   0  0  0  0  0  0  0  0  0  0  0  0
  -27.2615  -27.4763   19.2011 C   0  0  0  0  0  0  0  0  0  0  0  0
  -21.0665   -6.2913   22.7511 C   0  0  0  0  0  0  0  0  0  0  0  0
  -20.2316   -5.9117   23.8020 C   0  0  0  0  0  0  0  0  0  0  0  0
  -25.9909  -27.2077   21.2339 C   0  0  0  0  0  0  0  0  0  0  0  0
  -28.4270  -22.5639   19.1907 C   0  0  0  0  0  0  0  0  0  0  0  0
  -22.1239   -4.9542   24.9594 C   0  0  0  0  0  0  0  0  0  0  0  0
  -23.5035  -10.4254   20.8624 C   0  0  0  0  0  0  0  0  0  0  0  0
  -22.5238  -12.7436   20.4454 C   0  0  0  0  0  0  0  0  0  0  0  0
  -27.4485  -36.2014   21.5446 C   0  0  0  0  0  0  0  0  0  0  0  0
  -25.7643  -29.2397   19.9382 C   0  0  0  0  0  0  0  0  0  0  0  0
  -27.7098  -34.8244   21.4100 C   0  0  0  0  0  0  0  0  0  0  0  0
  -25.4025  -28.4685   21.0519 C   0  0  0  0  0  0  0  0  0  0  0  0
  -28.8936  -23.6730   19.8874 C   0  0  0  0  0  0  0  0  0  0  0  0
  -28.8761  -21.2939   19.5354 C   0  0  0  0  0  0  0  0  0  0  0  0
  -23.3385   -7.7067   21.4657 C   0  0  0  0  0  0  0  0  0  0  0  0
  -26.9165  -26.7153   20.3142 C   0  0  0  0  0  0  0  0  0  0  0  0
  -22.4301   -6.0022   22.8043 C   0  0  0  0  0  0  0  0  0  0  0  0
  -20.7603   -5.2432   24.9062 C   0  0  0  0  0  0  0  0  0  0  0  0
  -22.9588   -5.3337   23.9085 C   0  0  0  0  0  0  0  0  0  0  0  0
  -23.5893  -11.8297   20.5514 C   0  0  0  0  0  0  0  0  0  0  0  0
  -29.8014  -23.4604   20.9123 C   0  0  0  0  0  0  0  0  0  0  0  0
  -29.7848  -21.1877   20.5760 C   0  0  0  0  0  0  0  0  0  0  0  0
  -23.1259  -13.9385   20.1354 C   0  0  0  0  0  0  0  0  0  0  0  0
  -21.1157  -12.5313   20.6123 C   0  0  0  0  0  0  0  0  0  0  0  0
  -25.6807  -31.7695   21.8609 C   0  0  0  0  0  0  0  0  0  0  0  0
  -22.6579  -30.7435   22.4376 C   0  0  0  0  0  0  0  0  0  0  0  0
  -20.4312  -28.1574   22.4615 C   0  0  0  0  0  0  0  0  0  0  0  0
  -28.5502  -16.0058   21.2119 C   0  0  0  0  0  0  0  0  0  0  0  0
  -26.5608  -36.7370   22.6399 C   0  0  0  0  0  0  0  0  0  0  0  0
  -25.1316  -30.5842   19.7047 C   0  0  0  0  0  0  0  0  0  0  0  0
  -24.4034  -28.9601   22.0662 C   0  0  0  0  0  0  0  0  0  0  0  0
  -25.6619  -35.6757   23.2691 C   0  0  0  0  0  0  0  0  0  0  0  0
  -26.9929  -15.7293   17.9567 C   0  0  0  0  0  0  0  0  0  0  0  0
  -26.4626  -34.4160   23.5834 C   0  0  0  0  0  0  0  0  0  0  0  0
  -25.8340  -14.7760   18.2540 C   0  0  0  0  0  0  0  0  0  0  0  0
  -28.2396  -15.3480   18.7495 C   0  0  0  0  0  0  0  0  0  0  0  0
  -26.8744  -14.3150   20.5222 C   0  0  0  0  0  0  0  0  0  0  0  0
  -29.5832  -19.0751   21.9148 C   0  0  0  0  0  0  0  0  0  0  0  0
  -31.4142  -19.2945   20.3362 C   0  0  0  0  0  0  0  0  0  0  0  0
  -27.0470  -33.8008   22.3061 C   0  0  1  0  0  0  0  0  0  0  0  0
  -24.5926  -31.2209   20.9819 C   0  0  1  0  0  0  0  0  0  0  0  0
  -25.5775  -14.6608   19.7683 C   0  0  2  0  0  0  0  0  0  0  0  0
  -30.2685  -17.7129   21.7504 C   0  0  2  0  0  0  0  0  0  0  0  0
  -31.6544  -18.0670   21.2167 C   0  0  2  0  0  0  0  0  0  0  0  0
  -30.3361  -24.6148   21.6949 C   0  0  0  0  0  0  0  0  0  0  0  0
  -28.7542  -20.1473   17.2940 C   0  0  0  0  0  0  0  0  0  0  0  0
  -26.8516  -19.9187   18.9318 C   0  0  0  0  0  0  0  0  0  0  0  0
  -18.0443  -27.6182   23.0177 C   0  0  0  0  0  0  0  0  0  0  0  0
  -23.3421  -30.7927   25.4107 C   0  0  0  0  0  0  0  0  0  0  0  0
  -21.3193  -29.3778   25.8284 C   0  0  0  0  0  0  0  0  0  0  0  0
  -21.0637  -31.6582   24.8501 C   0  0  0  0  0  0  0  0  0  0  0  0
  -19.8452  -27.3417   19.6776 C   0  0  0  0  0  0  0  0  0  0  0  0
  -28.4128  -25.0461   19.5202 C   0  0  0  0  0  0  0  0  0  1  0  0
  -28.3737  -20.1067   18.7863 C   0  0  0  0  0  0  0  0  0  0  0  0
  -22.0200  -29.7994   23.4279 C   0  0  1  0  0  0  0  0  0  0  0  0
  -19.0151  -28.0425   21.9267 C   0  0  2  0  0  0  0  0  0  0  0  0
  -21.9566  -30.3983   24.8613 C   0  0  0  0  0  0  0  0  0  0  0  0
  -24.7782  -12.3956   20.3268 N   0  0  0  0  0  0  0  0  0  0  0  0
  -30.2606  -22.2419   21.2759 N   0  0  0  0  0  0  0  0  0  0  0  0
  -24.4633  -13.6779   20.0766 N   0  0  0  0  0  0  0  0  0  0  0  0
  -30.2336  -19.9301   20.9214 N   0  0  3  0  0  0  0  0  0  0  0  0
  -23.8172  -30.2835   21.7970 N   0  0  0  0  0  0  0  0  0  0  0  0
  -27.9319  -15.2737   20.1847 N   0  0  0  0  0  0  0  0  0  0  0  0
  -22.6364  -15.1763   19.9101 N   0  0  0  0  0  0  0  0  0  0  0  0
  -20.6673  -11.2419   20.9296 N   0  0  0  0  0  0  0  0  0  0  0  0
  -26.0249  -33.0779   21.5799 N   0  0  0  0  0  0  0  0  0  0  0  0
  -20.7196  -29.4419   22.8716 N   0  0  0  0  0  0  0  0  0  0  0  0
  -29.5461  -16.8868   20.8087 N   0  0  0  0  0  0  0  0  0  0  0  0
  -32.5345  -18.4580   22.3556 N   0  3  0  0  0  0  0  0  0  0  0  0
  -18.9563  -27.0371   20.8282 N   0  3  0  0  0  0  0  0  0  0  0  0
  -20.2784  -13.4542   20.4677 O   0  0  0  0  0  0  0  0  0  0  0  0
  -26.1707  -31.0589   22.7308 O   0  0  0  0  0  0  0  0  0  0  0  0
  -22.1425  -31.8456   22.2343 O   0  0  0  0  0  0  0  0  0  0  0  0
  -21.2030  -27.2024   22.5139 O   0  0  0  0  0  0  0  0  0  0  0  0
  -28.2342  -15.8871   22.4007 O   0  0  0  0  0  0  0  0  0  0  0  0
  -23.2578   -6.3804   21.7605 O   0  0  0  0  0  0  0  0  0  0  0  0
  -27.4778  -25.4901   20.5026 O   0  0  0  0  0  0  0  0  0  1  0  0
  -19.9587   -4.8801   25.9160 F   0  0  0  0  0  0  0  0  0  0  0  0
  -24.2681   -5.0543   23.9658 F   0  0  0  0  0  0  0  0  0  0  0  0
  1  2  1  0  0  0  0
  1  5  2  0  0  0  0
  2  6  2  0  0  0  0
  3  8  2  0  0  0  0
  3 16  1  0  0  0  0
  4  9  1  0  0  0  0
  4 16  2  0  0  0  0
  5 18  1  0  0  0  0
  6 20  1  0  0  0  0
  7 10  2  0  0  0  0
  7 19  1  0  0  0  0
  8 24  1  0  0  0  0
  9 24  2  0  0  0  0
 10 25  1  0  0  0  0
 11 12  2  0  0  0  0
 11 26  1  0  0  0  0
 12 27  1  0  0  0  0
 13 21  1  0  0  0  0
 13 25  2  0  0  0  0
 14 22  1  0  0  0  0
 14 23  2  0  0  0  0
 15 27  2  0  0  0  0
 15 28  1  0  0  0  0
 16 29  1  0  0  0  0
 17 29  1  0  0  0  0
 17 32  2  0  0  0  0
 17 33  1  0  0  0  0
 18 20  2  0  0  0  0
 18 38  1  0  0  0  0
 19 21  2  0  0  0  0
 19 39  1  0  0  0  0
 20 49  1  0  0  0  0
 21 40  1  0  0  0  0
 22 30  2  0  0  0  0
 22 62  1  0  0  0  0
 23 31  1  0  0  0  0
 23 63  1  0  0  0  0
 24 85  1  0  0  0  0
 25 86  1  0  0  0  0
 26 28  2  0  0  0  0
 26 85  1  0  0  0  0
 27 87  1  0  0  0  0
 28 88  1  0  0  0  0
 29 67  2  0  0  0  0
 30 54  1  0  0  0  0
 30 68  1  0  0  0  0
 31 68  2  0  0  0  0
 31 70  1  0  0  0  0
 32 69  1  0  0  0  0
 32 73  1  0  0  0  0
 33 74  1  0  0  0  0
 33 80  2  0  0  0  0
 34 50  1  0  0  0  0
 34 75  1  0  0  0  0
 34 81  2  0  0  0  0
 35 64  1  0  0  0  0
 35 71  1  0  0  0  0
 35 82  2  0  0  0  0
 36 65  1  0  0  0  0
 36 76  1  0  0  0  0
 36 83  2  0  0  0  0
 37 72  1  0  0  0  0
 37 77  1  0  0  0  0
 37 84  2  0  0  0  0
 38 41  1  0  0  0  0
 39 50  1  0  0  0  0
 40 71  1  0  0  0  0
 41 43  1  0  0  0  0
 42 44  1  0  0  0  0
 42 45  1  0  0  0  0
 43 49  1  0  0  0  0
 44 51  1  0  0  0  0
 45 72  1  0  0  0  0
 46 51  1  0  0  0  0
 46 72  1  0  0  0  0
 47 52  1  0  0  0  0
 47 70  1  0  0  0  0
 48 53  1  0  0  0  0
 48 70  1  0  0  0  0
 49 75  1  0  0  0  0
 50 71  1  0  0  0  0
 51 69  1  0  0  0  0
 52 53  1  0  0  0  0
 52 77  1  0  0  0  0
 53 78  1  0  0  0  0
 55 63  1  0  0  0  0
 56 63  1  0  0  0  0
 57 65  1  0  0  0  0
 58 66  1  0  0  0  0
 59 66  1  0  0  0  0
 60 66  1  0  0  0  0
 61 79  1  0  0  0  0
 62 86  1  0  0  0  0
 64 66  1  0  0  0  0
 64 76  1  0  0  0  0
 65 79  1  0  0  0  0
 67 69  1  0  0  0  0
M  CHG  2  78   1  79   1
M  ISO  4  37 100  62 101  77 100  86 101
M  END
> <Batch ID>
0170

> <Smiles>
CNC(C)C(=O)NC(C(=O)N1Cc2cc([101O:1][101CH2:1]c3cc(C(C)C)c(N4CC(N)C([100NH:0][100C:0](=O)N5CCCC(n6nc(-c7ccc(Oc8ccc(F)cc8F)cc7)c(C(N)=O)c6N)C5)C4)nc3C)ccc2CC1C(=O)NC1CCCc2ccccc21)C(C)(C)C

> <Shape>
0.327

> <Color>
0.086

> <Negative vol penalty>
0.000

$$$$

  -OEChem-04052322353D

 85 94  0     1  0  0  0  0  0999 V2000
  -39.1709  -28.7766   15.0358 C   0  0  0  0  0  0  0  0  0  0  0  0
  -39.7693  -28.0440   16.0560 C   0  0  0  0  0  0  0  0  0  0  0  0
  -23.1481   -9.8658   19.9678 C   0  0  0  0  0  0  0  0  0  0  0  0
  -23.8206   -9.9694   22.2860 C   0  0  0  0  0  0  0  0  0  0  0  0
  -37.7831  -28.7775   14.9014 C   0  0  0  0  0  0  0  0  0  0  0  0
  -38.9801  -27.3128   16.9430 C   0  0  0  0  0  0  0  0  0  0  0  0
  -39.0571  -21.2928   20.8251 C   0  0  0  0  0  0  0  0  0  0  0  0
  -22.4340   -8.6961   20.2272 C   0  0  0  0  0  0  0  0  0  0  0  0
  -23.1064   -8.7997   22.5454 C   0  0  0  0  0  0  0  0  0  0  0  0
  -38.8516  -20.8509   22.1313 C   0  0  0  0  0  0  0  0  0  0  0  0
  -21.7566   -5.6446   23.7425 C   0  0  0  0  0  0  0  0  0  0  0  0
  -22.3766   -4.6649   24.5180 C   0  0  0  0  0  0  0  0  0  0  0  0
  -36.4690  -20.8630   21.7542 C   0  0  0  0  0  0  0  0  0  0  0  0
  -30.4363  -15.8007   24.2781 C   0  0  0  0  0  0  0  0  0  0  0  0
  -24.1484   -4.4931   22.8845 C   0  0  0  0  0  0  0  0  0  0  0  0
  -23.8415  -10.5025   20.9972 C   0  0  0  0  0  0  0  0  0  0  0  0
  -24.1039  -13.0330   20.8089 C   0  0  0  0  0  0  0  0  0  0  0  0
  -36.9771  -28.0382   15.7814 C   0  0  0  0  0  0  0  0  0  0  0  0
  -37.9678  -21.5341   19.9757 C   0  0  0  0  0  0  0  0  0  0  0  0
  -37.5801  -27.3049   16.8211 C   0  0  0  0  0  0  0  0  0  0  0  0
  -36.6635  -21.3056   20.4368 C   0  0  0  0  0  0  0  0  0  0  0  0
  -32.3501  -17.0790   24.8648 C   0  0  0  0  0  0  0  0  0  0  0  0
  -31.0698  -16.6650   25.1681 C   0  0  0  0  0  0  0  0  0  0  0  0
  -22.4131   -8.1631   21.5160 C   0  0  0  0  0  0  0  0  0  0  0  0
  -37.5573  -20.6387   22.5970 C   0  0  0  0  0  0  0  0  0  0  0  0
  -22.3324   -6.0485   22.5380 C   0  0  0  0  0  0  0  0  0  0  0  0
  -23.5725   -4.0892   24.0890 C   0  0  0  0  0  0  0  0  0  0  0  0
  -23.5283   -5.4728   22.1090 C   0  0  0  0  0  0  0  0  0  0  0  0
  -24.5799  -11.7105   20.7297 C   0  0  0  0  0  0  0  0  0  0  0  0
  -32.9472  -16.6288   23.6934 C   0  0  0  0  0  0  0  0  0  0  0  0
  -31.1209  -15.4038   23.1287 C   0  0  0  0  0  0  0  0  0  0  0  0
  -25.1835  -13.8079   20.4620 C   0  0  0  0  0  0  0  0  0  0  0  0
  -22.8022  -13.5176   21.1644 C   0  0  0  0  0  0  0  0  0  0  0  0
  -36.8191  -24.0875   18.4709 C   0  0  0  0  0  0  0  0  0  0  0  0
  -34.7965  -21.9192   17.1556 C   0  0  0  0  0  0  0  0  0  0  0  0
  -33.2440  -18.8893   17.3927 C   0  0  0  0  0  0  0  0  0  0  0  0
  -30.9266  -14.0003   21.0458 C   0  0  0  0  0  0  0  0  0  0  0  0
  -35.4786  -28.1079   15.6254 C   0  0  0  0  0  0  0  0  0  0  0  0
  -38.2074  -21.9850   18.5609 C   0  0  0  0  0  0  0  0  0  0  0  0
  -35.4609  -21.5303   19.5583 C   0  0  0  0  0  0  0  0  0  0  0  0
  -33.2521  -18.0004   25.6067 C   0  0  0  0  0  0  0  0  0  0  0  0
  -34.3154  -17.2190   23.5429 C   0  0  0  0  0  0  0  0  0  0  0  0
  -34.7361  -27.0064   16.3774 C   0  0  0  0  0  0  0  0  0  0  0  0
  -29.3940  -13.0109   17.9881 C   0  0  0  0  0  0  0  0  0  0  0  0
  -35.2769  -26.8713   17.7973 C   0  0  0  0  0  0  0  0  0  0  0  0
  -27.9495  -12.7036   18.3894 C   0  0  0  0  0  0  0  0  0  0  0  0
  -30.3853  -12.5910   19.0720 C   0  0  0  0  0  0  0  0  0  0  0  0
  -28.6567  -12.8133   20.8132 C   0  0  0  0  0  0  0  0  0  0  0  0
  -36.7594  -26.4793   17.7880 C   0  0  1  0  0  0  0  0  0  0  0  0
  -37.0028  -22.6913   17.9467 C   0  0  1  0  0  0  0  0  0  0  0  0
  -27.6168  -13.2778   19.7805 C   0  0  2  0  0  0  0  0  0  0  0  0
  -30.3757  -17.1212   26.4028 C   0  0  0  0  0  0  0  0  0  0  0  0
  -31.6198  -17.4080   16.1823 C   0  0  0  0  0  0  0  0  0  0  0  0
  -35.5612  -19.7047   26.2038 C   0  0  0  0  0  0  0  0  0  0  0  0
  -37.6117  -17.9713   24.7189 C   0  0  0  0  0  0  0  0  0  0  0  0
  -32.4929  -23.6932   18.0808 C   0  0  0  0  0  0  0  0  0  0  0  0
  -30.9469  -21.7589   17.7114 C   0  0  0  0  0  0  0  0  0  0  0  0
  -32.2112  -22.7272   15.7913 C   0  0  0  0  0  0  0  0  0  0  0  0
  -35.2503  -16.7334   17.0991 C   0  0  0  0  0  0  0  0  0  0  0  0
  -33.4439  -21.3586   17.5232 C   0  0  1  0  0  0  0  0  0  0  0  0
  -33.0846  -17.7581   16.3929 C   0  0  2  0  0  0  0  0  0  0  0  0
  -35.3542  -19.1796   24.7873 C   0  0  1  0  0  0  0  0  0  0  0  0
  -36.6761  -18.9630   24.0363 C   0  0  1  0  0  0  0  0  0  1  0  0
  -32.2961  -22.3820   17.2941 C   0  0  0  0  0  0  0  0  0  0  0  0
  -25.8621  -11.6452   20.3612 N   0  0  0  0  0  0  0  0  0  0  0  0
  -32.3750  -15.8011   22.8045 N   0  0  0  0  0  0  0  0  0  0  0  0
  -26.2009  -12.9364   20.2057 N   0  0  0  0  0  0  0  0  0  0  0  0
  -35.7468  -21.9772   18.1849 N   0  0  0  0  0  0  0  0  0  0  0  0
  -30.0091  -13.1757   20.3609 N   0  0  0  0  0  0  0  0  0  0  0  0
  -25.3524  -15.1429   20.3541 N   0  0  0  0  0  0  0  0  0  0  0  0
  -21.8089  -12.5851   21.4934 N   0  0  0  0  0  0  0  0  0  0  0  0
  -30.4461  -14.5258   22.2448 N   0  0  0  0  0  0  0  0  0  0  0  0
  -36.9073  -25.0684   17.5017 N   0  0  0  0  0  0  0  0  0  0  0  0
  -33.2976  -20.1180   16.7694 N   0  0  0  0  0  0  0  0  0  0  0  0
  -34.6010  -17.8962   24.8859 N   0  3  1  0  0  0  0  0  0  0  0  0
  -33.7950  -16.5390   16.8725 N   0  3  0  0  0  0  0  0  0  0  0  0
  -22.5234  -14.7406   21.1736 O   0  0  0  0  0  0  0  0  0  0  0  0
  -36.6113  -24.2617   19.6659 O   0  0  0  0  0  0  0  0  0  0  0  0
  -35.0047  -22.2853   15.9962 O   0  0  0  0  0  0  0  0  0  0  0  0
  -33.3103  -18.7018   18.6056 O   0  0  0  0  0  0  0  0  0  0  0  0
  -32.0456  -14.2458   20.5880 O   0  0  0  0  0  0  0  0  0  0  0  0
  -21.7161   -7.0218   21.7696 O   0  0  0  0  0  0  0  0  0  0  0  0
  -37.3539  -20.2079   23.8717 O   0  0  0  0  0  0  0  0  0  1  0  0
  -24.1686   -3.1495   24.8346 F   0  0  0  0  0  0  0  0  0  0  0  0
  -24.0869   -5.8576   20.9532 F   0  0  0  0  0  0  0  0  0  0  0  0
  1  2  1  0  0  0  0
  1  5  2  0  0  0  0
  2  6  2  0  0  0  0
  3  8  2  0  0  0  0
  3 16  1  0  0  0  0
  4  9  1  0  0  0  0
  4 16  2  0  0  0  0
  5 18  1  0  0  0  0
  6 20  1  0  0  0  0
  7 10  2  0  0  0  0
  7 19  1  0  0  0  0
  8 24  1  0  0  0  0
  9 24  2  0  0  0  0
 10 25  1  0  0  0  0
 11 12  2  0  0  0  0
 11 26  1  0  0  0  0
 12 27  1  0  0  0  0
 13 21  1  0  0  0  0
 13 25  2  0  0  0  0
 14 23  2  0  0  0  0
 14 31  1  0  0  0  0
 15 27  2  0  0  0  0
 15 28  1  0  0  0  0
 16 29  1  0  0  0  0
 17 29  1  0  0  0  0
 17 32  2  0  0  0  0
 17 33  1  0  0  0  0
 18 20  2  0  0  0  0
 18 38  1  0  0  0  0
 19 21  2  0  0  0  0
 19 39  1  0  0  0  0
 20 49  1  0  0  0  0
 21 40  1  0  0  0  0
 22 23  1  0  0  0  0
 22 30  2  0  0  0  0
 22 41  1  0  0  0  0
 23 52  1  0  0  0  0
 24 82  1  0  0  0  0
 25 83  1  0  0  0  0
 26 28  2  0  0  0  0
 26 82  1  0  0  0  0
 27 84  1  0  0  0  0
 28 85  1  0  0  0  0
 29 65  2  0  0  0  0
 30 42  1  0  0  0  0
 30 66  1  0  0  0  0
 31 66  2  0  0  0  0
 31 72  1  0  0  0  0
 32 67  1  0  0  0  0
 32 70  1  0  0  0  0
 33 71  1  0  0  0  0
 33 77  2  0  0  0  0
 34 50  1  0  0  0  0
 34 73  1  0  0  0  0
 34 78  2  0  0  0  0
 35 60  1  0  0  0  0
 35 68  1  0  0  0  0
 35 79  2  0  0  0  0
 36 61  1  0  0  0  0
 36 74  1  0  0  0  0
 36 80  2  0  0  0  0
 37 69  1  0  0  0  0
 37 72  1  0  0  0  0
 37 81  2  0  0  0  0
 38 43  1  0  0  0  0
 39 50  1  0  0  0  0
 40 68  1  0  0  0  0
 41 75  1  0  0  0  0
 42 75  1  0  0  0  0
 43 45  1  0  0  0  0
 44 46  1  0  0  0  0
 44 47  1  0  0  0  0
 45 49  1  0  0  0  0
 46 51  1  0  0  0  0
 47 69  1  0  0  0  0
 48 51  1  0  0  0  0
 48 69  1  0  0  0  0
 49 73  1  0  0  0  0
 50 68  1  0  0  0  0
 51 67  1  0  0  0  0
 53 61  1  0  0  0  0
 54 62  1  0  0  0  0
 55 63  1  0  0  0  0
 56 64  1  0  0  0  0
 57 64  1  0  0  0  0
 58 64  1  0  0  0  0
 59 76  1  0  0  0  0
 60 64  1  0  0  0  0
 60 74  1  0  0  0  0
 61 76  1  0  0  0  0
 62 63  1  0  0  0  0
 62 75  1  0  0  0  0
 63 83  1  0  0  0  0
 65 67  1  0  0  0  0
M  CHG  2  75   1  76   1
M  ISO  4  37 100  63 101  72 100  83 101
M  END
> <Batch ID>
0170

> <Smiles>
CNC(C)C(=O)NC(C(=O)N1Cc2cc([101O:1][101CH:1](C)C(C)N3Cc4nc([100NH:0][100C:0](=O)N5CCCC(n6nc(-c7ccc(Oc8ccc(F)cc8F)cc7)c(C(N)=O)c6N)C5)cc(C)c4C3)ccc2CC1C(=O)NC1CCCc2ccccc21)C(C)(C)C

> <Shape>
0.157

> <Color>
0.180

> <Negative vol penalty>
0.000

$$$$

  -OEChem-04052322353D

 83 92  0     1  0  0  0  0  0999 V2000
  -18.9914  -32.7376   24.6049 C   0  0  0  0  0  0  0  0  0  0  0  0
  -20.2798  -32.2209   24.5128 C   0  0  0  0  0  0  0  0  0  0  0  0
  -23.1921   -9.8858   21.5712 C   0  0  0  0  0  0  0  0  0  0  0  0
  -23.7519  -11.1901   23.5263 C   0  0  0  0  0  0  0  0  0  0  0  0
  -17.8927  -31.9158   24.3572 C   0  0  0  0  0  0  0  0  0  0  0  0
  -20.4702  -30.8817   24.1742 C   0  0  0  0  0  0  0  0  0  0  0  0
  -25.0362  -26.5981   20.6930 C   0  0  0  0  0  0  0  0  0  0  0  0
  -22.4857   -8.9885   22.3720 C   0  0  0  0  0  0  0  0  0  0  0  0
  -23.0455  -10.2928   24.3272 C   0  0  0  0  0  0  0  0  0  0  0  0
  -25.7702  -25.4276   20.8798 C   0  0  0  0  0  0  0  0  0  0  0  0
  -23.1894   -6.4108   24.4420 C   0  0  0  0  0  0  0  0  0  0  0  0
  -23.3855   -5.0484   24.2160 C   0  0  0  0  0  0  0  0  0  0  0  0
  -23.8001  -24.1221   20.3964 C   0  0  0  0  0  0  0  0  0  0  0  0
  -21.0346   -4.7920   23.7214 C   0  0  0  0  0  0  0  0  0  0  0  0
  -28.6900  -21.3416   20.3862 C   0  0  0  0  0  0  0  0  0  0  0  0
  -23.8253  -10.9866   22.1484 C   0  0  0  0  0  0  0  0  0  0  0  0
  -24.0548  -13.0698   20.6940 C   0  0  0  0  0  0  0  0  0  0  0  0
  -18.0700  -30.5683   24.0060 C   0  0  0  0  0  0  0  0  0  0  0  0
  -23.6736  -26.5394   20.3667 C   0  0  0  0  0  0  0  0  0  0  0  0
  -19.3727  -30.0408   23.9230 C   0  0  0  0  0  0  0  0  0  0  0  0
  -23.0516  -25.2933   20.2035 C   0  0  0  0  0  0  0  0  0  0  0  0
  -27.8595  -21.8249   21.3845 C   0  0  0  0  0  0  0  0  0  0  0  0
  -27.6256  -21.0110   22.4873 C   0  0  0  0  0  0  0  0  0  0  0  0
  -28.2209  -19.7564   22.5571 C   0  0  0  0  0  0  0  0  0  0  0  0
  -22.4123   -9.1919   23.7500 C   0  0  0  0  0  0  0  0  0  0  0  0
  -25.1515  -24.1894   20.7343 C   0  0  0  0  0  0  0  0  0  0  0  0
  -21.9158   -6.9638   24.3078 C   0  0  0  0  0  0  0  0  0  0  0  0
  -22.3082   -4.2391   23.8556 C   0  0  0  0  0  0  0  0  0  0  0  0
  -20.8385   -6.1544   23.9474 C   0  0  0  0  0  0  0  0  0  0  0  0
  -24.5557  -11.9136   21.3217 C   0  0  0  0  0  0  0  0  0  0  0  0
  -29.0351  -19.3656   21.5063 C   0  0  0  0  0  0  0  0  0  0  0  0
  -25.1369  -13.5978   20.0331 C   0  0  0  0  0  0  0  0  0  0  0  0
  -22.7299  -13.6177   20.7073 C   0  0  0  0  0  0  0  0  0  0  0  0
  -20.9894  -27.5199   21.7587 C   0  0  0  0  0  0  0  0  0  0  0  0
  -19.6449  -26.5271   18.9785 C   0  0  0  0  0  0  0  0  0  0  0  0
  -19.8346  -24.5250   16.2213 C   0  0  0  0  0  0  0  0  0  0  0  0
  -30.6009  -15.0105   20.1127 C   0  0  0  0  0  0  0  0  0  0  0  0
  -16.8503  -29.7069   23.7938 C   0  0  0  0  0  0  0  0  0  0  0  0
  -22.9023  -27.8110   20.1424 C   0  0  0  0  0  0  0  0  0  0  0  0
  -21.5962  -25.1759   19.8341 C   0  0  0  0  0  0  0  0  0  0  0  0
  -17.1494  -28.3942   23.0744 C   0  0  0  0  0  0  0  0  0  0  0  0
  -29.6987  -11.6825   19.0913 C   0  0  0  0  0  0  0  0  0  0  0  0
  -18.3742  -27.7189   23.6830 C   0  0  0  0  0  0  0  0  0  0  0  0
  -28.2618  -11.5160   19.5746 C   0  0  0  0  0  0  0  0  0  0  0  0
  -30.5006  -12.5458   20.0561 C   0  0  0  0  0  0  0  0  0  0  0  0
  -28.9449  -16.6762   21.2714 C   0  0  0  0  0  0  0  0  0  0  0  0
  -30.5032  -17.5613   20.1394 C   0  0  0  0  0  0  0  0  0  0  0  0
  -28.4549  -13.7735   20.7356 C   0  0  0  0  0  0  0  0  0  0  0  0
  -19.6208  -28.5995   23.5341 C   0  0  1  0  0  0  0  0  0  0  0  0
  -29.7803  -17.9678   21.4442 C   0  0  0  0  0  0  0  0  0  0  0  0
  -21.3969  -27.6355   20.3170 C   0  0  1  0  0  0  0  0  0  0  0  0
  -27.6089  -12.8873   19.8001 C   0  0  2  0  0  0  0  0  0  0  0  0
  -26.7377  -21.4848   23.5926 C   0  0  0  0  0  0  0  0  0  0  0  0
  -27.9960  -18.8529   23.7215 C   0  0  0  0  0  0  0  0  0  0  0  0
  -18.5674  -23.9056   14.1457 C   0  0  0  0  0  0  0  0  0  0  0  0
  -17.7383  -24.8314   20.6516 C   0  0  0  0  0  0  0  0  0  0  0  0
  -17.1664  -23.5522   18.5768 C   0  0  0  0  0  0  0  0  0  0  0  0
  -16.6714  -25.9934   18.7110 C   0  0  0  0  0  0  0  0  0  0  0  0
  -22.0168  -25.4791   14.4645 C   0  0  0  0  0  0  0  0  0  0  0  0
  -27.2444  -23.1873   21.2556 C   0  0  0  0  0  0  0  0  0  1  0  0
  -19.0687  -25.2261   18.4744 C   0  0  1  0  0  0  0  0  0  0  0  0
  -19.6245  -24.8188   14.7468 C   0  0  2  0  0  0  0  0  0  0  0  0
  -17.6882  -24.9026   19.1123 C   0  0  0  0  0  0  0  0  0  0  0  0
  -29.2860  -20.1286   20.4189 N   0  0  0  0  0  0  0  0  0  0  0  0
  -25.8548  -11.7179   21.0809 N   0  0  0  0  0  0  0  0  0  0  0  0
  -26.1794  -12.7582   20.2945 N   0  0  0  0  0  0  0  0  0  0  0  0
  -20.8831  -26.4479   19.6316 N   0  0  0  0  0  0  0  0  0  0  0  0
  -29.8579  -13.8401   20.3033 N   0  0  0  0  0  0  0  0  0  0  0  0
  -29.9962  -16.2159   20.3804 N   0  0  0  0  0  0  0  0  0  0  0  0
  -25.2887  -14.6936   19.2594 N   0  0  0  0  0  0  0  0  0  0  0  0
  -21.7376  -12.9487   21.4368 N   0  0  0  0  0  0  0  0  0  0  0  0
  -20.1369  -28.5206   22.1843 N   0  0  0  0  0  0  0  0  0  0  0  0
  -19.0457  -25.3265   17.0191 N   0  0  0  0  0  0  0  0  0  0  0  0
  -20.8960  -24.6252   13.9939 N   0  3  0  0  0  0  0  0  0  0  0  0
  -22.4309  -14.6603   20.0772 O   0  0  0  0  0  0  0  0  0  0  0  0
  -21.4157  -26.5907   22.4344 O   0  0  0  0  0  0  0  0  0  0  0  0
  -19.0228  -27.5761   18.7933 O   0  0  0  0  0  0  0  0  0  0  0  0
  -20.6172  -23.6676   16.6248 O   0  0  0  0  0  0  0  0  0  0  0  0
  -31.7821  -14.9812   19.7422 O   0  0  0  0  0  0  0  0  0  0  0  0
  -21.7229   -8.3167   24.5318 O   0  0  0  0  0  0  0  0  0  0  0  0
  -25.8655  -23.0453   20.9166 O   0  0  0  0  0  0  0  0  0  1  0  0
  -22.4969   -2.9311   23.6371 F   0  0  0  0  0  0  0  0  0  0  0  0
  -19.6129   -6.6802   23.8158 F   0  0  0  0  0  0  0  0  0  0  0  0
  1  2  1  0  0  0  0
  1  5  2  0  0  0  0
  2  6  2  0  0  0  0
  3  8  2  0  0  0  0
  3 16  1  0  0  0  0
  4  9  1  0  0  0  0
  4 16  2  0  0  0  0
  5 18  1  0  0  0  0
  6 20  1  0  0  0  0
  7 10  2  0  0  0  0
  7 19  1  0  0  0  0
  8 25  1  0  0  0  0
  9 25  2  0  0  0  0
 10 26  1  0  0  0  0
 11 12  2  0  0  0  0
 11 27  1  0  0  0  0
 12 28  1  0  0  0  0
 13 21  1  0  0  0  0
 13 26  2  0  0  0  0
 14 28  2  0  0  0  0
 14 29  1  0  0  0  0
 15 22  1  0  0  0  0
 15 64  2  0  0  0  0
 16 30  1  0  0  0  0
 17 30  1  0  0  0  0
 17 32  2  0  0  0  0
 17 33  1  0  0  0  0
 18 20  2  0  0  0  0
 18 38  1  0  0  0  0
 19 21  2  0  0  0  0
 19 39  1  0  0  0  0
 20 49  1  0  0  0  0
 21 40  1  0  0  0  0
 22 23  2  0  0  0  0
 22 60  1  0  0  0  0
 23 24  1  0  0  0  0
 23 53  1  0  0  0  0
 24 31  2  0  0  0  0
 24 54  1  0  0  0  0
 25 80  1  0  0  0  0
 26 81  1  0  0  0  0
 27 29  2  0  0  0  0
 27 80  1  0  0  0  0
 28 82  1  0  0  0  0
 29 83  1  0  0  0  0
 30 65  2  0  0  0  0
 31 50  1  0  0  0  0
 31 64  1  0  0  0  0
 32 66  1  0  0  0  0
 32 70  1  0  0  0  0
 33 71  1  0  0  0  0
 33 75  2  0  0  0  0
 34 51  1  0  0  0  0
 34 72  1  0  0  0  0
 34 76  2  0  0  0  0
 35 61  1  0  0  0  0
 35 67  1  0  0  0  0
 35 77  2  0  0  0  0
 36 62  1  0  0  0  0
 36 73  1  0  0  0  0
 36 78  2  0  0  0  0
 37 68  1  0  0  0  0
 37 69  1  0  0  0  0
 37 79  2  0  0  0  0
 38 41  1  0  0  0  0
 39 51  1  0  0  0  0
 40 67  1  0  0  0  0
 41 43  1  0  0  0  0
 42 44  1  0  0  0  0
 42 45  1  0  0  0  0
 43 49  1  0  0  0  0
 44 52  1  0  0  0  0
 45 68  1  0  0  0  0
 46 50  1  0  0  0  0
 46 69  1  0  0  0  0
 47 50  1  0  0  0  0
 47 69  1  0  0  0  0
 48 52  1  0  0  0  0
 48 68  1  0  0  0  0
 49 72  1  0  0  0  0
 51 67  1  0  0  0  0
 52 66  1  0  0  0  0
 55 62  1  0  0  0  0
 56 63  1  0  0  0  0
 57 63  1  0  0  0  0
 58 63  1  0  0  0  0
 59 74  1  0  0  0  0
 60 81  1  0  0  0  0
 61 63  1  0  0  0  0
 61 73  1  0  0  0  0
 62 74  1  0  0  0  0
 65 66  1  0  0  0  0
M  CHG  1  74   1
M  ISO  4  37 100  60 101  69 100  81 101
M  END
> <Batch ID>
0170

> <Smiles>
CNC(C)C(=O)NC(C(=O)N1Cc2cc([101O:1][101CH2:1]c3cnc(C4C[100N:0]([100C:0](=O)N5CCCC(n6nc(-c7ccc(Oc8ccc(F)cc8F)cc7)c(C(N)=O)c6N)C5)C4)c(C)c3C)ccc2CC1C(=O)NC1CCCc2ccccc21)C(C)(C)C

> <Shape>
0.257

> <Color>
0.156

> <Negative vol penalty>
0.000

$$$$

  -OEChem-04052322353D

 89 99  0     1  0  0  0  0  0999 V2000
  -29.1090  -24.3628   23.5536 C   0  0  0  0  0  0  0  0  0  0  0  0
  -27.7667  -24.0986   23.3008 C   0  0  0  0  0  0  0  0  0  0  0  0
  -25.6674  -27.8839   21.7804 C   0  0  0  0  0  0  0  0  0  0  0  0
  -25.1375  -29.2715   19.8750 C   0  0  0  0  0  0  0  0  0  0  0  0
  -30.0980  -23.6459   22.8814 C   0  0  0  0  0  0  0  0  0  0  0  0
  -27.4127  -23.1181   22.3747 C   0  0  0  0  0  0  0  0  0  0  0  0
  -23.6983  -20.1123   24.0520 C   0  0  0  0  0  0  0  0  0  0  0  0
  -26.8636  -27.5045   21.1715 C   0  0  0  0  0  0  0  0  0  0  0  0
  -26.3338  -28.8922   19.2661 C   0  0  0  0  0  0  0  0  0  0  0  0
  -22.3996  -20.6171   24.0031 C   0  0  0  0  0  0  0  0  0  0  0  0
  -29.9447  -28.8157   20.7014 C   0  0  0  0  0  0  0  0  0  0  0  0
  -31.0988  -28.8142   21.4848 C   0  0  0  0  0  0  0  0  0  0  0  0
  -21.9960  -19.3663   21.9803 C   0  0  0  0  0  0  0  0  0  0  0  0
  -13.4224  -22.9267   24.9399 C   0  0  0  0  0  0  0  0  0  0  0  0
  -31.3831  -26.4526   21.0612 C   0  0  0  0  0  0  0  0  0  0  0  0
  -24.8043  -28.7673   21.1321 C   0  0  0  0  0  0  0  0  0  0  0  0
  -23.3606  -30.2567   22.6171 C   0  0  0  0  0  0  0  0  0  0  0  0
  -29.7559  -22.6494   21.9537 C   0  0  0  0  0  0  0  0  0  0  0  0
  -24.1599  -19.2378   23.0577 C   0  0  0  0  0  0  0  0  0  0  0  0
  -28.3980  -22.3882   21.6884 C   0  0  0  0  0  0  0  0  0  0  0  0
  -23.3001  -18.8498   22.0202 C   0  0  0  0  0  0  0  0  0  0  0  0
  -13.9775  -24.1077   25.4199 C   0  0  0  0  0  0  0  0  0  0  0  0
  -27.1968  -28.0087   19.9144 C   0  0  0  0  0  0  0  0  0  0  0  0
  -21.5492  -20.2464   22.9656 C   0  0  0  0  0  0  0  0  0  0  0  0
  -29.5097  -27.6357   20.0981 C   0  0  0  0  0  0  0  0  0  0  0  0
  -14.1389  -22.1426   24.0426 C   0  0  0  0  0  0  0  0  0  0  0  0
  -31.8180  -27.6327   21.6646 C   0  0  0  0  0  0  0  0  0  0  0  0
  -30.2289  -26.4541   20.2779 C   0  0  0  0  0  0  0  0  0  0  0  0
  -23.5682  -29.1591   21.7603 C   0  0  0  0  0  0  0  0  0  0  0  0
  -15.2424  -24.4574   24.9752 C   0  0  0  0  0  0  0  0  0  0  0  0
  -15.3964  -22.5804   23.6594 C   0  0  0  0  0  0  0  0  0  0  0  0
  -22.0272  -30.1926   22.9402 C   0  0  0  0  0  0  0  0  0  0  0  0
  -24.2899  -31.2457   23.0795 C   0  0  0  0  0  0  0  0  0  0  0  0
  -26.4796  -19.3337   20.8867 C   0  0  0  0  0  0  0  0  0  0  0  0
  -25.5723  -16.2660   20.3501 C   0  0  0  0  0  0  0  0  0  0  0  0
  -23.1273  -13.8925   20.5392 C   0  0  0  0  0  0  0  0  0  0  0  0
  -17.6962  -27.1936   24.6111 C   0  0  0  0  0  0  0  0  0  0  0  0
  -30.8601  -21.9336   21.2170 C   0  0  0  0  0  0  0  0  0  0  0  0
  -25.5548  -18.6810   23.1394 C   0  0  0  0  0  0  0  0  0  0  0  0
  -23.7406  -17.8979   20.9394 C   0  0  0  0  0  0  0  0  0  0  0  0
  -30.4007  -20.6518   20.5269 C   0  0  0  0  0  0  0  0  0  0  0  0
  -18.2896  -27.4005   21.0097 C   0  0  0  0  0  0  0  0  0  0  0  0
  -13.8428  -25.3144   27.7001 C   0  0  0  0  0  0  0  0  0  0  0  0
  -12.7097  -24.3373   27.6600 C   0  0  0  0  0  0  0  0  0  0  0  0
  -29.1034  -20.8931   19.7615 C   0  0  0  0  0  0  0  0  0  0  0  0
  -19.7213  -27.9325   20.9638 C   0  0  0  0  0  0  0  0  0  0  0  0
  -18.0742  -26.4686   22.1988 C   0  0  0  0  0  0  0  0  0  0  0  0
  -15.2870  -27.0567   25.1776 C   0  0  0  0  0  0  0  0  0  0  0  0
  -19.8668  -27.6174   23.4716 C   0  0  0  0  0  0  0  0  0  0  0  0
  -13.2130  -24.9527   26.3799 C   0  0  0  0  0  0  0  0  0  0  0  0
  -27.9741  -21.3151   20.7092 C   0  0  1  0  0  0  0  0  0  0  0  0
  -15.8847  -25.7270   25.4674 C   0  0  2  0  0  0  0  0  0  0  0  0
  -26.0864  -18.2011   21.7924 C   0  0  1  0  0  0  0  0  0  0  0  0
  -20.1101  -28.5850   22.3018 C   0  0  1  0  0  0  0  0  0  0  0  0
  -15.9832  -22.1768   21.2334 C   0  0  0  0  0  0  0  0  0  0  0  0
  -22.6696  -11.4876   19.9877 C   0  0  0  0  0  0  0  0  0  0  0  0
  -25.2773  -17.0004   17.4033 C   0  0  0  0  0  0  0  0  0  0  0  0
  -23.9435  -14.9055   17.0865 C   0  0  0  0  0  0  0  0  0  0  0  0
  -26.3231  -14.7677   17.8223 C   0  0  0  0  0  0  0  0  0  0  0  0
  -22.6360  -13.2144   23.3779 C   0  0  0  0  0  0  0  0  0  0  0  0
  -12.3023  -20.6318   24.0279 C   0  0  0  0  0  0  0  0  0  0  0  0
  -18.1514  -20.9175   24.0170 C   0  0  0  0  0  0  0  0  0  0  0  0
  -19.6550  -21.0483   24.1593 C   0  0  0  0  0  0  0  0  0  1  0  0
  -16.2164  -21.7665   22.6852 C   0  0  1  0  0  0  0  0  0  0  0  0
  -24.5691  -15.5902   19.4468 C   0  0  1  0  0  0  0  0  0  0  0  0
  -23.1480  -12.4636   21.0513 C   0  0  2  0  0  0  0  0  0  0  0  0
  -25.0202  -15.5854   17.9589 C   0  0  0  0  0  0  0  0  0  0  0  0
  -22.4558  -28.4496   21.5524 N   0  0  0  0  0  0  0  0  0  0  0  0
  -15.9687  -23.7216   24.1043 N   0  0  0  0  0  0  0  0  0  0  0  0
  -21.5364  -29.1028   22.2832 N   0  0  0  0  0  0  0  0  0  0  0  0
  -25.1157  -17.3857   21.0596 N   0  0  0  0  0  0  0  0  0  0  0  0
  -18.4936  -27.1079   23.4530 N   0  0  0  0  0  0  0  0  0  0  0  0
  -16.4411  -26.6036   24.4692 N   0  0  0  0  0  0  0  0  0  0  0  0
  -21.2384  -30.9627   23.7195 N   0  0  0  0  0  0  0  0  0  0  0  0
  -25.6216  -31.1636   22.6503 N   0  0  0  0  0  0  0  0  0  0  0  0
  -27.4494  -20.1650   21.4138 N   0  0  0  0  0  0  0  0  0  0  0  0
  -24.3446  -14.2622   20.0074 N   0  0  0  0  0  0  0  0  0  0  0  0
  -22.2656  -12.3281   22.2446 N   0  3  0  0  0  0  0  0  0  0  0  0
  -17.6769  -21.8444   22.9587 N   0  3  0  0  0  0  0  0  0  0  0  0
  -23.9532  -32.1652   23.8635 O   0  0  0  0  0  0  0  0  0  0  0  0
  -25.9439  -19.4443   19.7901 O   0  0  0  0  0  0  0  0  0  0  0  0
  -26.7168  -15.8126   20.4288 O   0  0  0  0  0  0  0  0  0  0  0  0
  -22.1298  -14.6079   20.6013 O   0  0  0  0  0  0  0  0  0  0  0  0
  -18.0712  -27.7364   25.6540 O   0  0  0  0  0  0  0  0  0  0  0  0
  -28.3641  -27.6390   19.3200 O   0  0  0  0  0  0  0  0  0  0  0  0
  -13.6063  -20.9884   23.5665 O   0  0  0  0  0  0  0  0  0  0  0  0
  -20.2813  -20.7382   22.9152 O   0  0  0  0  0  0  0  0  0  1  0  0
  -32.9271  -27.6317   22.4156 F   0  0  0  0  0  0  0  0  0  0  0  0
  -29.8166  -25.3176   19.6998 F   0  0  0  0  0  0  0  0  0  0  0  0
  1  2  1  0  0  0  0
  1  5  2  0  0  0  0
  2  6  2  0  0  0  0
  3  8  2  0  0  0  0
  3 16  1  0  0  0  0
  4  9  1  0  0  0  0
  4 16  2  0  0  0  0
  5 18  1  0  0  0  0
  6 20  1  0  0  0  0
  7 10  2  0  0  0  0
  7 19  1  0  0  0  0
  8 23  1  0  0  0  0
  9 23  2  0  0  0  0
 10 24  1  0  0  0  0
 11 12  2  0  0  0  0
 11 25  1  0  0  0  0
 12 27  1  0  0  0  0
 13 21  1  0  0  0  0
 13 24  2  0  0  0  0
 14 22  2  0  0  0  0
 14 26  1  0  0  0  0
 15 27  2  0  0  0  0
 15 28  1  0  0  0  0
 16 29  1  0  0  0  0
 17 29  1  0  0  0  0
 17 32  2  0  0  0  0
 17 33  1  0  0  0  0
 18 20  2  0  0  0  0
 18 38  1  0  0  0  0
 19 21  2  0  0  0  0
 19 39  1  0  0  0  0
 20 51  1  0  0  0  0
 21 40  1  0  0  0  0
 22 30  1  0  0  0  0
 22 50  1  0  0  0  0
 23 85  1  0  0  0  0
 24 87  1  0  0  0  0
 25 28  2  0  0  0  0
 25 85  1  0  0  0  0
 26 31  2  0  0  0  0
 26 86  1  0  0  0  0
 27 88  1  0  0  0  0
 28 89  1  0  0  0  0
 29 68  2  0  0  0  0
 30 52  1  0  0  0  0
 30 69  2  0  0  0  0
 31 64  1  0  0  0  0
 31 69  1  0  0  0  0
 32 70  1  0  0  0  0
 32 74  1  0  0  0  0
 33 75  1  0  0  0  0
 33 80  2  0  0  0  0
 34 53  1  0  0  0  0
 34 76  1  0  0  0  0
 34 81  2  0  0  0  0
 35 65  1  0  0  0  0
 35 71  1  0  0  0  0
 35 82  2  0  0  0  0
 36 66  1  0  0  0  0
 36 77  1  0  0  0  0
 36 83  2  0  0  0  0
 37 72  1  0  0  0  0
 37 73  1  0  0  0  0
 37 84  2  0  0  0  0
 38 41  1  0  0  0  0
 39 53  1  0  0  0  0
 40 71  1  0  0  0  0
 41 45  1  0  0  0  0
 42 46  1  0  0  0  0
 42 47  1  0  0  0  0
 43 44  1  0  0  0  0
 43 50  1  0  0  0  0
 44 50  1  0  0  0  0
 45 51  1  0  0  0  0
 46 54  1  0  0  0  0
 47 72  1  0  0  0  0
 48 52  1  0  0  0  0
 48 73  1  0  0  0  0
 49 54  1  0  0  0  0
 49 72  1  0  0  0  0
 51 76  1  0  0  0  0
 52 73  1  0  0  0  0
 53 71  1  0  0  0  0
 54 70  1  0  0  0  0
 55 64  1  0  0  0  0
 56 66  1  0  0  0  0
 57 67  1  0  0  0  0
 58 67  1  0  0  0  0
 59 67  1  0  0  0  0
 60 78  1  0  0  0  0
 61 86  1  0  0  0  0
 62 63  1  0  0  0  0
 62 79  1  0  0  0  0
 63 87  1  0  0  0  0
 64 79  1  0  0  0  0
 65 67  1  0  0  0  0
 65 77  1  0  0  0  0
 66 78  1  0  0  0  0
 68 70  1  0  0  0  0
M  CHG  2  78   1  79   1
M  ISO  4  37 100  63 101  73 100  87 101
M  END
> <Batch ID>
0170

> <Smiles>
CNC(C)C(=O)NC(C(=O)N1Cc2cc([101O:1][101CH2:1]CNC(C)c3nc(C4C[100N:0]4[100C:0](=O)N4CCCC(n5nc(-c6ccc(Oc7ccc(F)cc7F)cc6)c(C(N)=O)c5N)C4)c(C4CC4)cc3OC)ccc2CC1C(=O)NC1CCCc2ccccc21)C(C)(C)C

> <Shape>
0.198

> <Color>
0.090

> <Negative vol penalty>
0.000

$$$$

  -OEChem-04052322353D

 84 93  0     1  0  0  0  0  0999 V2000
  -30.4628  -25.8386   17.1939 C   0  0  0  0  0  0  0  0  0  0  0  0
  -29.0762  -25.7965   17.2997 C   0  0  0  0  0  0  0  0  0  0  0  0
  -24.5113  -14.0133   22.7928 C   0  0  0  0  0  0  0  0  0  0  0  0
  -25.7815  -15.1521   21.0820 C   0  0  0  0  0  0  0  0  0  0  0  0
  -31.2280  -26.3120   18.2588 C   0  0  0  0  0  0  0  0  0  0  0  0
  -28.4542  -26.2270   18.4712 C   0  0  0  0  0  0  0  0  0  0  0  0
  -23.0531  -29.0756   18.9388 C   0  0  0  0  0  0  0  0  0  0  0  0
  -24.8253  -12.7860   22.2091 C   0  0  0  0  0  0  0  0  0  0  0  0
  -26.0956  -13.9248   20.4983 C   0  0  0  0  0  0  0  0  0  0  0  0
  -21.7734  -28.6154   19.2461 C   0  0  0  0  0  0  0  0  0  0  0  0
  -24.5827  -11.6578   18.4975 C   0  0  0  0  0  0  0  0  0  0  0  0
  -24.4697  -11.5517   17.1113 C   0  0  0  0  0  0  0  0  0  0  0  0
  -16.5109  -25.7990   21.5269 C   0  0  0  0  0  0  0  0  0  0  0  0
  -22.1038  -29.2531   21.5490 C   0  0  0  0  0  0  0  0  0  0  0  0
  -26.8191  -11.0084   16.9614 C   0  0  0  0  0  0  0  0  0  0  0  0
  -15.4303  -26.6082   21.2060 C   0  0  0  0  0  0  0  0  0  0  0  0
  -24.9893  -15.1964   22.2292 C   0  0  0  0  0  0  0  0  0  0  0  0
  -25.3936  -17.1450   23.8252 C   0  0  0  0  0  0  0  0  0  0  0  0
  -30.6145  -26.7575   19.4402 C   0  0  0  0  0  0  0  0  0  0  0  0
  -23.8732  -29.6189   19.9381 C   0  0  0  0  0  0  0  0  0  0  0  0
  -29.2121  -26.7056   19.5534 C   0  0  0  0  0  0  0  0  0  0  0  0
  -23.3924  -29.7219   21.2512 C   0  0  0  0  0  0  0  0  0  0  0  0
  -17.9344  -27.3025   20.2954 C   0  0  0  0  0  0  0  0  0  0  0  0
  -17.7745  -26.1537   21.0644 C   0  0  0  0  0  0  0  0  0  0  0  0
  -25.6175  -12.7417   21.0618 C   0  0  0  0  0  0  0  0  0  0  0  0
  -21.2996  -28.7015   20.5520 C   0  0  0  0  0  0  0  0  0  0  0  0
  -25.8139  -11.4393   19.1157 C   0  0  0  0  0  0  0  0  0  0  0  0
  -25.5879  -11.2269   16.3433 C   0  0  0  0  0  0  0  0  0  0  0  0
  -26.9321  -11.1146   18.3477 C   0  0  0  0  0  0  0  0  0  0  0  0
  -24.6648  -16.4645   22.8314 C   0  0  0  0  0  0  0  0  0  0  0  0
  -16.8177  -28.0736   20.0056 C   0  0  0  0  0  0  0  0  0  0  0  0
  -24.6741  -18.2924   24.0536 C   0  0  0  0  0  0  0  0  0  0  0  0
  -26.6121  -16.7731   24.4830 C   0  0  0  0  0  0  0  0  0  0  0  0
  -26.6873  -28.8450   21.1971 C   0  0  0  0  0  0  0  0  0  0  0  0
  -26.3208  -31.6601   22.7665 C   0  0  0  0  0  0  0  0  0  0  0  0
  -24.2060  -34.0596   23.9568 C   0  0  0  0  0  0  0  0  0  0  0  0
  -21.9235  -22.6119   22.4350 C   0  0  0  0  0  0  0  0  0  0  0  0
  -31.4861  -27.2166   20.5823 C   0  0  0  0  0  0  0  0  0  0  0  0
  -25.2410  -30.1354   19.5849 C   0  0  0  0  0  0  0  0  0  0  0  0
  -24.2257  -30.3156   22.3565 C   0  0  0  0  0  0  0  0  0  0  0  0
  -30.7287  -28.0048   21.6478 C   0  0  0  0  0  0  0  0  0  0  0  0
  -20.0468  -19.6446   22.5460 C   0  0  0  0  0  0  0  0  0  0  0  0
  -29.4287  -27.2955   22.0133 C   0  0  0  0  0  0  0  0  0  0  0  0
  -21.1462  -18.5958   22.7104 C   0  0  0  0  0  0  0  0  0  0  0  0
  -20.4477  -20.7459   21.5632 C   0  0  0  0  0  0  0  0  0  0  0  0
  -19.2206  -25.1259   22.7908 C   0  0  0  0  0  0  0  0  0  0  0  0
  -19.2229  -24.2699   20.4427 C   0  0  0  0  0  0  0  0  0  0  0  0
  -20.6725  -24.6778   22.9361 C   0  0  0  0  0  0  0  0  0  0  0  0
  -20.6769  -23.8490   20.6252 C   0  0  0  0  0  0  0  0  0  0  0  0
  -22.8402  -20.3437   22.0451 C   0  0  0  0  0  0  0  0  0  0  0  0
  -28.4991  -27.1869   20.7985 C   0  0  1  0  0  0  0  0  0  0  0  0
  -26.1834  -30.1986   20.7829 C   0  0  1  0  0  0  0  0  0  0  0  0
  -22.4892  -19.2552   23.0714 C   0  0  2  0  0  0  0  0  0  0  0  0
  -16.8827  -29.3169   19.1928 C   0  0  0  0  0  0  0  0  0  0  0  0
  -24.1973  -36.2220   25.2300 C   0  0  0  0  0  0  0  0  0  0  0  0
  -26.7934  -30.1300   25.3637 C   0  0  0  0  0  0  0  0  0  0  0  0
  -25.8489  -32.0871   26.6071 C   0  0  0  0  0  0  0  0  0  0  0  0
  -27.9216  -32.3588   25.2460 C   0  0  0  0  0  0  0  0  0  0  0  0
  -23.0091  -35.5278   21.6829 C   0  0  0  0  0  0  0  0  0  0  0  0
  -19.2801  -27.7049   19.7876 C   0  0  0  0  0  0  0  0  0  1  0  0
  -25.6979  -32.0810   24.0756 C   0  0  1  0  0  0  0  0  0  0  0  0
  -24.2413  -35.5738   23.8550 C   0  0  2  0  0  0  0  0  0  0  0  0
  -26.5502  -31.6512   25.3029 C   0  0  0  0  0  0  0  0  0  0  0  0
  -23.5665  -17.1245   22.4546 N   0  0  0  0  0  0  0  0  0  0  0  0
  -23.5997  -18.2316   23.2156 N   0  0  0  0  0  0  0  0  0  0  0  0
  -15.6124  -27.7089   20.4637 N   0  3  0  0  0  0  0  0  0  0  0  0
  -18.8719  -25.3434   21.3826 N   0  0  0  0  0  0  0  0  0  0  0  0
  -25.5587  -30.8008   21.9624 N   0  0  0  0  0  0  0  0  0  0  0  0
  -21.7523  -21.3166   21.9245 N   0  0  0  0  0  0  0  0  0  0  0  0
  -20.9929  -23.5816   22.0298 N   0  0  0  0  0  0  0  0  0  0  0  0
  -24.8619  -19.3372   24.8875 N   0  0  0  0  0  0  0  0  0  0  0  0
  -27.2198  -15.5610   24.1285 N   0  0  0  0  0  0  0  0  0  0  0  0
  -27.8432  -28.4526   20.5493 N   0  0  0  0  0  0  0  0  0  0  0  0
  -25.4745  -33.5194   23.9775 N   0  0  0  0  0  0  0  0  0  0  0  0
  -23.0777  -36.0672   23.0654 N   0  3  0  0  0  0  0  0  0  0  0  0
  -27.1374  -17.4866   25.3710 O   0  0  0  0  0  0  0  0  0  0  0  0
  -26.0738  -28.2047   22.0428 O   0  0  0  0  0  0  0  0  0  0  0  0
  -27.4394  -32.0839   22.4652 O   0  0  0  0  0  0  0  0  0  0  0  0
  -23.1581  -33.4202   24.0160 O   0  0  0  0  0  0  0  0  0  0  0  0
  -22.8491  -22.8871   23.2087 O   0  0  0  0  0  0  0  0  0  0  0  0
  -25.9243  -11.5443   20.4921 O   0  0  0  0  0  0  0  0  0  0  0  0
  -20.0423  -28.2492   20.8570 O   0  0  0  0  0  0  0  0  0  1  0  0
  -25.4789  -11.1235   15.0123 F   0  0  0  0  0  0  0  0  0  0  0  0
  -28.1173  -10.9024   18.9360 F   0  0  0  0  0  0  0  0  0  0  0  0
  1  2  1  0  0  0  0
  1  5  2  0  0  0  0
  2  6  2  0  0  0  0
  3  8  2  0  0  0  0
  3 17  1  0  0  0  0
  4  9  1  0  0  0  0
  4 17  2  0  0  0  0
  5 19  1  0  0  0  0
  6 21  1  0  0  0  0
  7 10  2  0  0  0  0
  7 20  1  0  0  0  0
  8 25  1  0  0  0  0
  9 25  2  0  0  0  0
 10 26  1  0  0  0  0
 11 12  2  0  0  0  0
 11 27  1  0  0  0  0
 12 28  1  0  0  0  0
 13 16  1  0  0  0  0
 13 24  2  0  0  0  0
 14 22  1  0  0  0  0
 14 26  2  0  0  0  0
 15 28  2  0  0  0  0
 15 29  1  0  0  0  0
 16 66  2  0  0  0  0
 17 30  1  0  0  0  0
 18 30  1  0  0  0  0
 18 32  2  0  0  0  0
 18 33  1  0  0  0  0
 19 21  2  0  0  0  0
 19 38  1  0  0  0  0
 20 22  2  0  0  0  0
 20 39  1  0  0  0  0
 21 51  1  0  0  0  0
 22 40  1  0  0  0  0
 23 24  1  0  0  0  0
 23 31  2  0  0  0  0
 23 60  1  0  0  0  0
 24 67  1  0  0  0  0
 25 81  1  0  0  0  0
 26 82  1  0  0  0  0
 27 29  2  0  0  0  0
 27 81  1  0  0  0  0
 28 83  1  0  0  0  0
 29 84  1  0  0  0  0
 30 64  2  0  0  0  0
 31 54  1  0  0  0  0
 31 66  1  0  0  0  0
 32 65  1  0  0  0  0
 32 71  1  0  0  0  0
 33 72  1  0  0  0  0
 33 76  2  0  0  0  0
 34 52  1  0  0  0  0
 34 73  1  0  0  0  0
 34 77  2  0  0  0  0
 35 61  1  0  0  0  0
 35 68  1  0  0  0  0
 35 78  2  0  0  0  0
 36 62  1  0  0  0  0
 36 74  1  0  0  0  0
 36 79  2  0  0  0  0
 37 69  1  0  0  0  0
 37 70  1  0  0  0  0
 37 80  2  0  0  0  0
 38 41  1  0  0  0  0
 39 52  1  0  0  0  0
 40 68  1  0  0  0  0
 41 43  1  0  0  0  0
 42 44  1  0  0  0  0
 42 45  1  0  0  0  0
 43 51  1  0  0  0  0
 44 53  1  0  0  0  0
 45 69  1  0  0  0  0
 46 48  1  0  0  0  0
 46 67  1  0  0  0  0
 47 49  1  0  0  0  0
 47 67  1  0  0  0  0
 48 70  1  0  0  0  0
 49 70  1  0  0  0  0
 50 53  1  0  0  0  0
 50 69  1  0  0  0  0
 51 73  1  0  0  0  0
 52 68  1  0  0  0  0
 53 65  1  0  0  0  0
 55 62  1  0  0  0  0
 56 63  1  0  0  0  0
 57 63  1  0  0  0  0
 58 63  1  0  0  0  0
 59 75  1  0  0  0  0
 60 82  1  0  0  0  0
 61 63  1  0  0  0  0
 61 74  1  0  0  0  0
 62 75  1  0  0  0  0
 64 65  1  0  0  0  0
M  CHG  2  66   1  75   1
M  ISO  4  37 100  60 101  70 100  82 101
M  END
> <Batch ID>
0170

> <Smiles>
CNC(C)C(=O)NC(C(=O)N1Cc2cc([101O:1][101CH2:1]c3c(N4CC[100N:0]([100C:0](=O)N5CCCC(n6nc(-c7ccc(Oc8ccc(F)cc8F)cc7)c(C(N)=O)c6N)C5)CC4)ccnc3C)ccc2CC1C(=O)NC1CCCc2ccccc21)C(C)(C)C

> <Shape>
0.237

> <Color>
0.077

> <Negative vol penalty>
0.000

$$$$

  -OEChem-04052322353D

 87 96  0     1  0  0  0  0  0999 V2000
  -28.1700  -33.1463   26.8952 C   0  0  0  0  0  0  0  0  0  0  0  0
  -28.1146  -31.9441   26.1972 C   0  0  0  0  0  0  0  0  0  0  0  0
  -22.9719  -10.3997   21.1954 C   0  0  0  0  0  0  0  0  0  0  0  0
  -24.6974   -8.7309   21.4688 C   0  0  0  0  0  0  0  0  0  0  0  0
  -27.0234  -33.9288   27.0256 C   0  0  0  0  0  0  0  0  0  0  0  0
  -26.9122  -31.5233   25.6300 C   0  0  0  0  0  0  0  0  0  0  0  0
  -27.4950  -29.7817   20.9107 C   0  0  0  0  0  0  0  0  0  0  0  0
  -21.9968   -9.4063   21.2850 C   0  0  0  0  0  0  0  0  0  0  0  0
  -23.7223   -7.7374   21.5585 C   0  0  0  0  0  0  0  0  0  0  0  0
  -28.0060  -28.4926   20.7663 C   0  0  0  0  0  0  0  0  0  0  0  0
  -21.5829   -6.5528   23.8909 C   0  0  0  0  0  0  0  0  0  0  0  0
  -21.7229   -5.5985   24.8984 C   0  0  0  0  0  0  0  0  0  0  0  0
  -25.7731  -27.6545   20.4045 C   0  0  0  0  0  0  0  0  0  0  0  0
  -21.8158   -3.8521   23.2314 C   0  0  0  0  0  0  0  0  0  0  0  0
  -24.3222  -10.0620   21.2872 C   0  0  0  0  0  0  0  0  0  0  0  0
  -25.8839  -11.8335   22.2517 C   0  0  0  0  0  0  0  0  0  0  0  0
  -25.8087  -33.5220   26.4514 C   0  0  0  0  0  0  0  0  0  0  0  0
  -26.1158  -30.0156   20.8137 C   0  0  0  0  0  0  0  0  0  0  0  0
  -25.7481  -32.3005   25.7539 C   0  0  0  0  0  0  0  0  0  0  0  0
  -25.2474  -28.9479   20.5455 C   0  0  0  0  0  0  0  0  0  0  0  0
  -27.3530  -22.9068   21.0856 C   0  0  0  0  0  0  0  0  0  0  0  0
  -28.1700  -23.5070   18.8926 C   0  0  0  0  0  0  0  0  0  0  0  0
  -27.4255  -23.8166   20.0308 C   0  0  0  0  0  0  0  0  0  0  0  0
  -28.0250  -21.6874   21.0023 C   0  0  0  0  0  0  0  0  0  0  0  0
  -28.8420  -22.2875   18.8093 C   0  0  0  0  0  0  0  0  0  0  0  0
  -28.7695  -21.3777   19.8641 C   0  0  0  0  0  0  0  0  0  0  0  0
  -22.3720   -8.0752   21.4666 C   0  0  0  0  0  0  0  0  0  0  0  0
  -27.1448  -27.4283   20.5160 C   0  0  0  0  0  0  0  0  0  0  0  0
  -21.5592   -6.1568   22.5536 C   0  0  0  0  0  0  0  0  0  0  0  0
  -21.8394   -4.2481   24.5687 C   0  0  0  0  0  0  0  0  0  0  0  0
  -21.6757   -4.8065   22.2239 C   0  0  0  0  0  0  0  0  0  0  0  0
  -25.3299  -11.0876   21.1941 C   0  0  0  0  0  0  0  0  0  0  0  0
  -26.7895  -12.6692   21.6450 C   0  0  0  0  0  0  0  0  0  0  0  0
  -25.6050  -11.7761   23.6569 C   0  0  0  0  0  0  0  0  0  0  0  0
  -23.8851  -31.1275   22.7864 C   0  0  0  0  0  0  0  0  0  0  0  0
  -22.0121  -30.9480   20.1440 C   0  0  0  0  0  0  0  0  0  0  0  0
  -21.4370  -29.5355   17.0910 C   0  0  0  0  0  0  0  0  0  0  0  0
  -27.8085  -16.2729   17.4198 C   0  0  0  0  0  0  0  0  0  0  0  0
  -24.5848  -34.3785   26.6593 C   0  0  0  0  0  0  0  0  0  0  0  0
  -25.5831  -31.4161   20.9454 C   0  0  0  0  0  0  0  0  0  0  0  0
  -23.7607  -29.1491   20.4122 C   0  0  0  0  0  0  0  0  0  0  0  0
  -23.4383  -34.0434   25.7086 C   0  0  0  0  0  0  0  0  0  0  0  0
  -28.5917  -12.7217   16.9210 C   0  0  0  0  0  0  0  0  0  0  0  0
  -23.2225  -32.5348   25.6434 C   0  0  0  0  0  0  0  0  0  0  0  0
  -27.8160  -12.0420   18.0502 C   0  0  0  0  0  0  0  0  0  0  0  0
  -29.7673  -17.7572   20.1541 C   0  0  0  0  0  0  0  0  0  0  0  0
  -27.9105  -14.0052   16.4515 C   0  0  0  0  0  0  0  0  0  0  0  0
  -29.0077  -16.5260   19.6712 C   0  0  0  0  0  0  0  0  0  0  0  0
  -26.8357  -14.2863   18.6513 C   0  0  0  0  0  0  0  0  0  0  0  0
  -28.2117  -18.4658   18.5013 C   0  0  0  0  0  0  0  0  0  0  0  0
  -24.4682  -31.8221   25.1033 C   0  0  1  0  0  0  0  0  0  0  0  0
  -24.1098  -31.4605   21.3385 C   0  0  1  0  0  0  0  0  0  0  0  0
  -27.5258  -13.0284   19.1968 C   0  0  1  0  0  0  0  0  0  0  0  0
  -28.7855  -18.8827   19.8471 C   0  0  2  0  0  0  0  0  0  0  0  0
  -26.5535  -23.2390   22.3064 C   0  0  0  0  0  0  0  0  0  0  0  0
  -28.2484  -24.4837   17.7619 C   0  0  0  0  0  0  0  0  0  0  0  0
  -27.9444  -20.7134   22.1362 C   0  0  0  0  0  0  0  0  0  0  0  0
  -29.6407  -21.9587   17.5862 C   0  0  0  0  0  0  0  0  0  0  0  0
  -20.3353  -29.1656   14.8668 C   0  0  0  0  0  0  0  0  0  0  0  0
  -20.0549  -29.2906   21.7969 C   0  0  0  0  0  0  0  0  0  0  0  0
  -18.9719  -28.5654   19.6593 C   0  0  0  0  0  0  0  0  0  0  0  0
  -18.9831  -30.9778   20.2940 C   0  0  0  0  0  0  0  0  0  0  0  0
  -23.1626  -31.5455   15.7716 C   0  0  0  0  0  0  0  0  0  0  0  0
  -26.7047  -25.1249   20.1204 C   0  0  0  0  0  0  0  0  0  1  0  0
  -21.1318  -29.8878   19.5276 C   0  0  1  0  0  0  0  0  0  0  0  0
  -21.0918  -30.1492   15.7461 C   0  0  2  0  0  0  0  0  0  0  0  0
  -19.8132  -29.6760   20.3238 C   0  0  0  0  0  0  0  0  0  0  0  0
  -25.8406  -11.4202   20.0056 N   0  0  0  0  0  0  0  0  0  0  0  0
  -26.7250  -12.3844   20.3127 N   0  0  0  0  0  0  0  0  0  0  0  0
  -23.2877  -30.5359   20.5552 N   0  0  0  0  0  0  0  0  0  0  0  0
  -27.6319  -14.8942   17.5797 N   0  0  0  0  0  0  0  0  0  0  0  0
  -28.2194  -17.0052   18.5329 N   0  0  0  0  0  0  0  0  0  0  0  0
  -27.6265  -13.6125   22.1264 N   0  0  0  0  0  0  0  0  0  0  0  0
  -24.6462  -10.8602   24.1109 N   0  0  0  0  0  0  0  0  0  0  0  0
  -29.4379  -20.1637   19.7810 N   0  0  0  0  0  0  0  0  0  0  0  0
  -24.5476  -31.9631   23.6652 N   0  0  0  0  0  0  0  0  0  0  0  0
  -20.9333  -30.2801   18.1365 N   0  0  0  0  0  0  0  0  0  0  0  0
  -22.3327  -30.5609   15.0308 N   0  3  0  0  0  0  0  0  0  0  0  0
  -26.1769  -12.5265   24.4835 O   0  0  0  0  0  0  0  0  0  0  0  0
  -23.1629  -30.1833   23.0842 O   0  0  0  0  0  0  0  0  0  0  0  0
  -21.5865  -32.1009   20.2500 O   0  0  0  0  0  0  0  0  0  0  0  0
  -22.0851  -28.4972   17.2028 O   0  0  0  0  0  0  0  0  0  0  0  0
  -27.6520  -16.8190   16.3196 O   0  0  0  0  0  0  0  0  0  0  0  0
  -21.4209   -7.1056   21.5544 O   0  0  0  0  0  0  0  0  0  0  0  0
  -27.6445  -26.1596   20.3742 O   0  0  0  0  0  0  0  0  0  1  0  0
  -21.9755   -3.3319   25.5363 F   0  0  0  0  0  0  0  0  0  0  0  0
  -21.6548   -4.4202   20.9408 F   0  0  0  0  0  0  0  0  0  0  0  0
  1  2  1  0  0  0  0
  1  5  2  0  0  0  0
  2  6  2  0  0  0  0
  3  8  2  0  0  0  0
  3 15  1  0  0  0  0
  4  9  1  0  0  0  0
  4 15  2  0  0  0  0
  5 17  1  0  0  0  0
  6 19  1  0  0  0  0
  7 10  2  0  0  0  0
  7 18  1  0  0  0  0
  8 27  1  0  0  0  0
  9 27  2  0  0  0  0
 10 28  1  0  0  0  0
 11 12  2  0  0  0  0
 11 29  1  0  0  0  0
 12 30  1  0  0  0  0
 13 20  1  0  0  0  0
 13 28  2  0  0  0  0
 14 30  2  0  0  0  0
 14 31  1  0  0  0  0
 15 32  1  0  0  0  0
 16 32  1  0  0  0  0
 16 33  2  0  0  0  0
 16 34  1  0  0  0  0
 17 19  2  0  0  0  0
 17 39  1  0  0  0  0
 18 20  2  0  0  0  0
 18 40  1  0  0  0  0
 19 51  1  0  0  0  0
 20 41  1  0  0  0  0
 21 23  1  0  0  0  0
 21 24  2  0  0  0  0
 21 55  1  0  0  0  0
 22 23  2  0  0  0  0
 22 25  1  0  0  0  0
 22 56  1  0  0  0  0
 23 64  1  0  0  0  0
 24 26  1  0  0  0  0
 24 57  1  0  0  0  0
 25 26  2  0  0  0  0
 25 58  1  0  0  0  0
 26 75  1  0  0  0  0
 27 84  1  0  0  0  0
 28 85  1  0  0  0  0
 29 31  2  0  0  0  0
 29 84  1  0  0  0  0
 30 86  1  0  0  0  0
 31 87  1  0  0  0  0
 32 68  2  0  0  0  0
 33 69  1  0  0  0  0
 33 73  1  0  0  0  0
 34 74  1  0  0  0  0
 34 79  2  0  0  0  0
 35 52  1  0  0  0  0
 35 76  1  0  0  0  0
 35 80  2  0  0  0  0
 36 65  1  0  0  0  0
 36 70  1  0  0  0  0
 36 81  2  0  0  0  0
 37 66  1  0  0  0  0
 37 77  1  0  0  0  0
 37 82  2  0  0  0  0
 38 71  1  0  0  0  0
 38 72  1  0  0  0  0
 38 83  2  0  0  0  0
 39 42  1  0  0  0  0
 40 52  1  0  0  0  0
 41 70  1  0  0  0  0
 42 44  1  0  0  0  0
 43 45  1  0  0  0  0
 43 47  1  0  0  0  0
 44 51  1  0  0  0  0
 45 53  1  0  0  0  0
 46 48  1  0  0  0  0
 46 54  1  0  0  0  0
 47 71  1  0  0  0  0
 48 72  1  0  0  0  0
 49 53  1  0  0  0  0
 49 71  1  0  0  0  0
 50 54  1  0  0  0  0
 50 72  1  0  0  0  0
 51 76  1  0  0  0  0
 52 70  1  0  0  0  0
 53 69  1  0  0  0  0
 54 75  1  0  0  0  0
 59 66  1  0  0  0  0
 60 67  1  0  0  0  0
 61 67  1  0  0  0  0
 62 67  1  0  0  0  0
 63 78  1  0  0  0  0
 64 85  1  0  0  0  0
 65 67  1  0  0  0  0
 65 77  1  0  0  0  0
 66 78  1  0  0  0  0
 68 69  1  0  0  0  0
M  CHG  1  78   1
M  ISO  4  38 100  64 101  72 100  85 101
M  END
> <Batch ID>
0170

> <Smiles>
CNC(C)C(=O)NC(C(=O)N1Cc2cc([101O:1][101CH2:1]c3c(C)c(C)c(NC4CC[100N:0]([100C:0](=O)N5CCCC(n6nc(-c7ccc(Oc8ccc(F)cc8F)cc7)c(C(N)=O)c6N)C5)C4)c(C)c3C)ccc2CC1C(=O)NC1CCCc2ccccc21)C(C)(C)C

> <Shape>
0.326

> <Color>
0.113

> <Negative vol penalty>
0.000

$$$$

  -OEChem-04052322353D

 85 94  0     1  0  0  0  0  0999 V2000
  -25.4748  -27.8797    8.7799 C   0  0  0  0  0  0  0  0  0  0  0  0
  -25.5551  -26.9516    9.8132 C   0  0  0  0  0  0  0  0  0  0  0  0
  -23.2576   -9.8371   19.8941 C   0  0  0  0  0  0  0  0  0  0  0  0
  -23.6531   -9.9583   22.2745 C   0  0  0  0  0  0  0  0  0  0  0  0
  -25.8586  -29.2018    9.0006 C   0  0  0  0  0  0  0  0  0  0  0  0
  -26.0202  -27.3449   11.0676 C   0  0  0  0  0  0  0  0  0  0  0  0
  -23.1768  -25.5376   14.8482 C   0  0  0  0  0  0  0  0  0  0  0  0
  -22.5327   -8.6592   20.0745 C   0  0  0  0  0  0  0  0  0  0  0  0
  -22.9281   -8.7803   22.4549 C   0  0  0  0  0  0  0  0  0  0  0  0
  -23.3652  -24.2030   15.2048 C   0  0  0  0  0  0  0  0  0  0  0  0
  -23.4396   -5.4588   22.0851 C   0  0  0  0  0  0  0  0  0  0  0  0
  -23.9789   -4.4889   22.9300 C   0  0  0  0  0  0  0  0  0  0  0  0
  -24.7369  -24.8994   17.0629 C   0  0  0  0  0  0  0  0  0  0  0  0
  -22.0285   -4.6397   24.3479 C   0  0  0  0  0  0  0  0  0  0  0  0
  -24.4150  -17.7517   17.4429 C   0  0  0  0  0  0  0  0  0  0  0  0
  -23.8179  -10.4866   20.9941 C   0  0  0  0  0  0  0  0  0  0  0  0
  -24.0688  -13.0196   20.8244 C   0  0  0  0  0  0  0  0  0  0  0  0
  -26.3195  -29.6137   10.2610 C   0  0  0  0  0  0  0  0  0  0  0  0
  -23.7770  -26.5644   15.5911 C   0  0  0  0  0  0  0  0  0  0  0  0
  -26.4117  -28.6734   11.3049 C   0  0  0  0  0  0  0  0  0  0  0  0
  -24.5525  -26.2463   16.7152 C   0  0  0  0  0  0  0  0  0  0  0  0
  -25.4525  -18.3717   16.7654 C   0  0  0  0  0  0  0  0  0  0  0  0
  -25.2212  -19.6375   16.2385 C   0  0  0  0  0  0  0  0  0  0  0  0
  -23.9770  -20.2361   16.4030 C   0  0  0  0  0  0  0  0  0  0  0  0
  -22.3679   -8.1308   21.3549 C   0  0  0  0  0  0  0  0  0  0  0  0
  -24.1477  -23.8836   16.3106 C   0  0  0  0  0  0  0  0  0  0  0  0
  -22.1948   -6.0193   22.3716 C   0  0  0  0  0  0  0  0  0  0  0  0
  -23.2734   -4.0793   24.0614 C   0  0  0  0  0  0  0  0  0  0  0  0
  -21.4892   -5.6097   23.5030 C   0  0  0  0  0  0  0  0  0  0  0  0
  -24.5673  -11.7032   20.8084 C   0  0  0  0  0  0  0  0  0  0  0  0
  -23.0056  -19.5326   17.0966 C   0  0  0  0  0  0  0  0  0  0  0  0
  -25.1718  -13.8072   20.6019 C   0  0  0  0  0  0  0  0  0  0  0  0
  -22.7285  -13.4886   21.0228 C   0  0  0  0  0  0  0  0  0  0  0  0
  -25.9068  -28.8384   14.9615 C   0  0  0  0  0  0  0  0  0  0  0  0
  -25.1911  -29.8005   17.9756 C   0  0  0  0  0  0  0  0  0  0  0  0
  -24.0124  -28.9873   21.0734 C   0  0  0  0  0  0  0  0  0  0  0  0
  -29.8521  -14.9974   18.0344 C   0  0  0  0  0  0  0  0  0  0  0  0
  -26.7677  -31.0427   10.4386 C   0  0  0  0  0  0  0  0  0  0  0  0
  -23.5421  -28.0001   15.2092 C   0  0  0  0  0  0  0  0  0  0  0  0
  -25.2021  -27.3123   17.5579 C   0  0  0  0  0  0  0  0  0  0  0  0
  -26.8955  -31.4638   11.9003 C   0  0  0  0  0  0  0  0  0  0  0  0
  -30.0948  -12.6756   20.5843 C   0  0  0  0  0  0  0  0  0  0  0  0
  -27.6441  -30.4012   12.6985 C   0  0  0  0  0  0  0  0  0  0  0  0
  -28.6400  -12.3132   20.8831 C   0  0  0  0  0  0  0  0  0  0  0  0
  -27.7636  -18.0390   17.7487 C   0  0  0  0  0  0  0  0  0  0  0  0
  -26.6293  -16.1421   16.5175 C   0  0  0  0  0  0  0  0  0  0  0  0
  -30.3287  -12.8046   19.0834 C   0  0  0  0  0  0  0  0  0  0  0  0
  -29.0954  -17.3067   17.6027 C   0  0  0  0  0  0  0  0  0  0  0  0
  -27.9859  -15.4539   16.3977 C   0  0  0  0  0  0  0  0  0  0  0  0
  -27.9691  -13.4393   18.7046 C   0  0  0  0  0  0  0  0  0  0  0  0
  -26.7892  -17.6695   16.6170 C   0  0  0  0  0  0  0  0  0  0  0  0
  -26.8877  -29.0673   12.6864 C   0  0  1  0  0  0  0  0  0  0  0  0
  -24.6217  -28.9421   15.7332 C   0  0  1  0  0  0  0  0  0  0  0  0
  -27.6748  -13.3064   20.2122 C   0  0  1  0  0  0  0  0  0  0  0  0
  -26.3075  -20.3500   15.4983 C   0  0  0  0  0  0  0  0  0  0  0  0
  -21.6495  -20.1238   17.3042 C   0  0  0  0  0  0  0  0  0  0  0  0
  -23.5819  -29.9760   23.3393 C   0  0  0  0  0  0  0  0  0  0  0  0
  -28.1806  -29.7112   18.5798 C   0  0  0  0  0  0  0  0  0  0  0  0
  -27.6184  -29.7665   21.0189 C   0  0  0  0  0  0  0  0  0  0  0  0
  -26.9786  -31.6782   19.5497 C   0  0  0  0  0  0  0  0  0  0  0  0
  -21.1140  -28.4143   20.9008 C   0  0  0  0  0  0  0  0  0  0  0  0
  -23.6984  -21.5939   15.8510 C   0  0  0  0  0  0  0  0  0  1  0  0
  -25.7270  -29.4903   19.3524 C   0  0  1  0  0  0  0  0  0  0  0  0
  -22.9930  -29.6630   21.9726 C   0  0  2  0  0  0  0  0  0  0  0  0
  -27.1156  -30.1411   19.6084 C   0  0  0  0  0  0  0  0  0  0  0  0
  -23.1932  -18.3015   17.6228 N   0  0  0  0  0  0  0  0  0  0  0  0
  -25.8845  -11.6532   20.5926 N   0  0  0  0  0  0  0  0  0  0  0  0
  -26.2230  -12.9481   20.4709 N   0  0  0  0  0  0  0  0  0  0  0  0
  -24.9479  -28.7010   17.1402 N   0  0  0  0  0  0  0  0  0  0  0  0
  -29.3889  -13.7511   18.4830 N   0  0  0  0  0  0  0  0  0  0  0  0
  -28.8991  -15.8634   17.4734 N   0  0  0  0  0  0  0  0  0  0  0  0
  -25.3354  -15.1439   20.5074 N   0  0  0  0  0  0  0  0  0  0  0  0
  -21.7153  -12.5445   21.2384 N   0  0  0  0  0  0  0  0  0  0  0  0
  -25.7764  -29.1081   13.6126 N   0  0  0  0  0  0  0  0  0  0  0  0
  -24.6919  -29.9005   20.2952 N   0  0  0  0  0  0  0  0  0  0  0  0
  -21.8058  -28.7825   22.1628 N   0  3  0  0  0  0  0  0  0  0  0  0
  -22.4352  -14.7079   20.9929 O   0  0  0  0  0  0  0  0  0  0  0  0
  -26.9405  -28.5374   15.5470 O   0  0  0  0  0  0  0  0  0  0  0  0
  -24.9889  -30.9745   17.6557 O   0  0  0  0  0  0  0  0  0  0  0  0
  -24.1908  -27.7713   21.0650 O   0  0  0  0  0  0  0  0  0  0  0  0
  -31.0422  -15.3212   18.1328 O   0  0  0  0  0  0  0  0  0  0  0  0
  -21.6603   -6.9815   21.5313 O   0  0  0  0  0  0  0  0  0  0  0  0
  -24.3350  -22.5727   16.6629 O   0  0  0  0  0  0  0  0  0  1  0  0
  -23.7907   -3.1467   24.8719 F   0  0  0  0  0  0  0  0  0  0  0  0
  -20.2924   -6.1436   23.7828 F   0  0  0  0  0  0  0  0  0  0  0  0
  1  2  1  0  0  0  0
  1  5  2  0  0  0  0
  2  6  2  0  0  0  0
  3  8  2  0  0  0  0
  3 16  1  0  0  0  0
  4  9  1  0  0  0  0
  4 16  2  0  0  0  0
  5 18  1  0  0  0  0
  6 20  1  0  0  0  0
  7 10  2  0  0  0  0
  7 19  1  0  0  0  0
  8 25  1  0  0  0  0
  9 25  2  0  0  0  0
 10 26  1  0  0  0  0
 11 12  2  0  0  0  0
 11 27  1  0  0  0  0
 12 28  1  0  0  0  0
 13 21  1  0  0  0  0
 13 26  2  0  0  0  0
 14 28  2  0  0  0  0
 14 29  1  0  0  0  0
 15 22  2  0  0  0  0
 15 66  1  0  0  0  0
 16 30  1  0  0  0  0
 17 30  1  0  0  0  0
 17 32  2  0  0  0  0
 17 33  1  0  0  0  0
 18 20  2  0  0  0  0
 18 38  1  0  0  0  0
 19 21  2  0  0  0  0
 19 39  1  0  0  0  0
 20 52  1  0  0  0  0
 21 40  1  0  0  0  0
 22 23  1  0  0  0  0
 22 51  1  0  0  0  0
 23 24  2  0  0  0  0
 23 55  1  0  0  0  0
 24 31  1  0  0  0  0
 24 62  1  0  0  0  0
 25 82  1  0  0  0  0
 26 83  1  0  0  0  0
 27 29  2  0  0  0  0
 27 82  1  0  0  0  0
 28 84  1  0  0  0  0
 29 85  1  0  0  0  0
 30 67  2  0  0  0  0
 31 56  1  0  0  0  0
 31 66  2  0  0  0  0
 32 68  1  0  0  0  0
 32 72  1  0  0  0  0
 33 73  1  0  0  0  0
 33 77  2  0  0  0  0
 34 53  1  0  0  0  0
 34 74  1  0  0  0  0
 34 78  2  0  0  0  0
 35 63  1  0  0  0  0
 35 69  1  0  0  0  0
 35 79  2  0  0  0  0
 36 64  1  0  0  0  0
 36 75  1  0  0  0  0
 36 80  2  0  0  0  0
 37 70  1  0  0  0  0
 37 71  1  0  0  0  0
 37 81  2  0  0  0  0
 38 41  1  0  0  0  0
 39 53  1  0  0  0  0
 40 69  1  0  0  0  0
 41 43  1  0  0  0  0
 42 44  1  0  0  0  0
 42 47  1  0  0  0  0
 43 52  1  0  0  0  0
 44 54  1  0  0  0  0
 45 48  1  0  0  0  0
 45 51  1  0  0  0  0
 46 49  1  0  0  0  0
 46 51  1  0  0  0  0
 47 70  1  0  0  0  0
 48 71  1  0  0  0  0
 49 71  1  0  0  0  0
 50 54  1  0  0  0  0
 50 70  1  0  0  0  0
 52 74  1  0  0  0  0
 53 69  1  0  0  0  0
 54 68  1  0  0  0  0
 57 64  1  0  0  0  0
 58 65  1  0  0  0  0
 59 65  1  0  0  0  0
 60 65  1  0  0  0  0
 61 76  1  0  0  0  0
 62 83  1  0  0  0  0
 63 65  1  0  0  0  0
 63 75  1  0  0  0  0
 64 76  1  0  0  0  0
 67 68  1  0  0  0  0
M  CHG  1  76   1
M  ISO  4  37 100  62 101  71 100  83 101
M  END
> <Batch ID>
0170

> <Smiles>
CNC(C)C(=O)NC(C(=O)N1Cc2cc([101O:1][101CH2:1]c3c(C)ncc(C4CC[100N:0]([100C:0](=O)N5CCCC(n6nc(-c7ccc(Oc8ccc(F)cc8F)cc7)c(C(N)=O)c6N)C5)CC4)c3C)ccc2CC1C(=O)NC1CCCc2ccccc21)C(C)(C)C

> <Shape>
0.195

> <Color>
0.197

> <Negative vol penalty>
0.000

$$$$

  -OEChem-04052322353D

 87 96  0     1  0  0  0  0  0999 V2000
  -26.0342  -11.0802   17.4092 C   0  0  0  0  0  0  0  0  0  0  0  0
  -25.3528  -12.2254   17.0097 C   0  0  0  0  0  0  0  0  0  0  0  0
  -29.5117  -26.4317   18.7709 C   0  0  0  0  0  0  0  0  0  0  0  0
  -29.1835  -25.6380   21.0291 C   0  0  0  0  0  0  0  0  0  0  0  0
  -26.2495  -10.8358   18.7649 C   0  0  0  0  0  0  0  0  0  0  0  0
  -24.8853  -13.1263   17.9658 C   0  0  0  0  0  0  0  0  0  0  0  0
  -23.7266  -20.1276   18.9440 C   0  0  0  0  0  0  0  0  0  0  0  0
  -30.8556  -26.0641   18.8370 C   0  0  0  0  0  0  0  0  0  0  0  0
  -30.5274  -25.2703   21.0952 C   0  0  0  0  0  0  0  0  0  0  0  0
  -22.7214  -21.0075   19.3428 C   0  0  0  0  0  0  0  0  0  0  0  0
  -34.2884  -25.0039   18.2826 C   0  0  0  0  0  0  0  0  0  0  0  0
  -34.8307  -24.3293   17.1889 C   0  0  0  0  0  0  0  0  0  0  0  0
  -23.2207  -20.5216   21.6524 C   0  0  0  0  0  0  0  0  0  0  0  0
  -33.2211  -22.5523   17.4870 C   0  0  0  0  0  0  0  0  0  0  0  0
  -28.6757  -26.2187   19.8670 C   0  0  0  0  0  0  0  0  0  0  0  0
  -26.2091  -25.8056   19.3642 C   0  0  0  0  0  0  0  0  0  0  0  0
  -25.7928  -11.7390   19.7376 C   0  0  0  0  0  0  0  0  0  0  0  0
  -24.4804  -19.4286   19.8979 C   0  0  0  0  0  0  0  0  0  0  0  0
  -25.0934  -12.8931   19.3358 C   0  0  0  0  0  0  0  0  0  0  0  0
  -24.2366  -19.6353   21.2631 C   0  0  0  0  0  0  0  0  0  0  0  0
  -20.3152  -24.5372   22.5404 C   0  0  0  0  0  0  0  0  0  0  0  0
  -20.1447  -23.1689   22.7194 C   0  0  0  0  0  0  0  0  0  0  0  0
  -19.2468  -25.3998   22.7592 C   0  0  0  0  0  0  0  0  0  0  0  0
  -31.3635  -25.4833   19.9991 C   0  0  0  0  0  0  0  0  0  0  0  0
  -22.4664  -21.2025   20.6971 C   0  0  0  0  0  0  0  0  0  0  0  0
  -33.2125  -24.4528   18.9786 C   0  0  0  0  0  0  0  0  0  0  0  0
  -34.2971  -23.1035   16.7910 C   0  0  0  0  0  0  0  0  0  0  0  0
  -32.6789  -23.2270   18.5808 C   0  0  0  0  0  0  0  0  0  0  0  0
  -27.2875  -26.5989   19.7996 C   0  0  0  0  0  0  0  0  0  0  0  0
  -18.8959  -22.7172   23.1148 C   0  0  0  0  0  0  0  0  0  0  0  0
  -18.0382  -24.8482   23.1526 C   0  0  0  0  0  0  0  0  0  0  0  0
  -25.1104  -26.6199   19.4916 C   0  0  0  0  0  0  0  0  0  0  0  0
  -26.2012  -24.4535   18.8873 C   0  0  0  0  0  0  0  0  0  0  0  0
  -24.9166  -16.3598   20.6021 C   0  0  0  0  0  0  0  0  0  0  0  0
  -27.1186  -17.5487   22.6662 C   0  0  0  0  0  0  0  0  0  0  0  0
  -28.2122  -20.1886   24.5321 C   0  0  0  0  0  0  0  0  0  0  0  0
  -22.1050  -30.3192   22.3948 C   0  0  0  0  0  0  0  0  0  0  0  0
  -26.0078  -11.4083   21.1933 C   0  0  0  0  0  0  0  0  0  0  0  0
  -25.5790  -18.5032   19.4518 C   0  0  0  0  0  0  0  0  0  0  0  0
  -25.0311  -18.9245   22.3271 C   0  0  0  0  0  0  0  0  0  0  0  0
  -25.8081  -12.6011   22.1249 C   0  0  0  0  0  0  0  0  0  0  0  0
  -24.7798  -31.5825   20.4135 C   0  0  0  0  0  0  0  0  0  0  0  0
  -24.5269  -13.3482   21.7685 C   0  0  0  0  0  0  0  0  0  0  0  0
  -25.5846  -30.3344   20.0468 C   0  0  0  0  0  0  0  0  0  0  0  0
  -24.2118  -31.4924   21.8282 C   0  0  0  0  0  0  0  0  0  0  0  0
  -24.2259  -29.0296   21.7351 C   0  0  0  0  0  0  0  0  0  0  0  0
  -19.7981  -27.6804   23.6485 C   0  0  0  0  0  0  0  0  0  0  0  0
  -19.1411  -27.4545   21.3225 C   0  0  0  0  0  0  0  0  0  0  0  0
  -24.5926  -13.9066   20.3418 C   0  0  1  0  0  0  0  0  0  0  0  0
  -25.9400  -17.4553   20.5002 C   0  0  1  0  0  0  0  0  0  0  0  0
  -24.7721  -29.0497   20.2972 C   0  0  2  0  0  0  0  0  0  0  0  0
  -20.0674  -29.0036   22.9213 C   0  0  2  0  0  0  0  0  0  0  0  0
  -19.1554  -28.9370   21.6987 C   0  0  2  0  0  0  0  0  0  0  0  0
  -21.6445  -25.0764   22.1145 C   0  0  0  0  0  0  0  0  0  0  0  0
  -18.6528  -21.2584   23.3255 C   0  0  0  0  0  0  0  0  0  0  0  0
  -16.8520  -25.7221   23.4028 C   0  0  0  0  0  0  0  0  0  0  0  0
  -29.7304  -21.5111   26.0299 C   0  0  0  0  0  0  0  0  0  0  0  0
  -25.7194  -15.9712   24.8716 C   0  0  0  0  0  0  0  0  0  0  0  0
  -26.9310  -17.3784   26.5508 C   0  0  0  0  0  0  0  0  0  0  0  0
  -28.2174  -15.9273   24.9818 C   0  0  0  0  0  0  0  0  0  0  0  0
  -29.7433  -21.2531   22.2340 C   0  0  0  0  0  0  0  0  0  0  0  0
  -21.2780  -22.2121   22.4928 C   0  0  0  0  0  0  0  0  0  1  0  0
  -27.0959  -18.0153   24.1017 C   0  0  1  0  0  0  0  0  0  0  0  0
  -29.5880  -20.8111   24.6874 C   0  0  2  0  0  0  0  0  0  0  0  0
  -26.9745  -16.8351   25.1066 C   0  0  0  0  0  0  0  0  0  0  0  0
  -26.9083  -27.8232   20.1753 N   0  0  0  0  0  0  0  0  0  0  0  0
  -17.8345  -23.5245   23.3368 N   0  0  0  0  0  0  0  0  0  0  0  0
  -25.5793  -27.8054   19.9764 N   0  0  0  0  0  0  0  0  0  0  0  0
  -19.3861  -26.7612   22.5873 N   0  0  3  0  0  0  0  0  0  0  0  0
  -26.0904  -18.0252   21.8406 N   0  0  0  0  0  0  0  0  0  0  0  0
  -23.4511  -30.2522   21.9994 N   0  0  0  0  0  0  0  0  0  0  0  0
  -23.7986  -26.4305   19.2351 N   0  0  0  0  0  0  0  0  0  0  0  0
  -27.4181  -23.7615   18.8202 N   0  0  0  0  0  0  0  0  0  0  0  0
  -25.4066  -15.1026   20.3042 N   0  0  0  0  0  0  0  0  0  0  0  0
  -28.2893  -18.8345   24.2835 N   0  0  0  0  0  0  0  0  0  0  0  0
  -21.4556  -29.0979   22.5276 N   0  0  0  0  0  0  0  0  0  0  0  0
  -17.7759  -29.3458   22.0919 N   0  3  0  0  0  0  0  0  0  0  0  0
  -29.8292  -21.8103   23.6084 N   0  3  0  0  0  0  0  0  0  0  0  0
  -25.1484  -23.8815   18.5158 O   0  0  0  0  0  0  0  0  0  0  0  0
  -23.7678  -16.6346   20.9285 O   0  0  0  0  0  0  0  0  0  0  0  0
  -28.0195  -16.7950   22.2894 O   0  0  0  0  0  0  0  0  0  0  0  0
  -27.1729  -20.8379   24.6260 O   0  0  0  0  0  0  0  0  0  0  0  0
  -21.5233  -31.3883   22.6082 O   0  0  0  0  0  0  0  0  0  0  0  0
  -32.6747  -25.1242   20.0638 O   0  0  0  0  0  0  0  0  0  0  0  0
  -21.4854  -22.0603   21.0891 O   0  0  0  0  0  0  0  0  0  1  0  0
  -34.8169  -22.4564   15.7397 F   0  0  0  0  0  0  0  0  0  0  0  0
  -31.6445  -22.6930   19.2448 F   0  0  0  0  0  0  0  0  0  0  0  0
  1  2  1  0  0  0  0
  1  5  2  0  0  0  0
  2  6  2  0  0  0  0
  3  8  2  0  0  0  0
  3 15  1  0  0  0  0
  4  9  1  0  0  0  0
  4 15  2  0  0  0  0
  5 17  1  0  0  0  0
  6 19  1  0  0  0  0
  7 10  2  0  0  0  0
  7 18  1  0  0  0  0
  8 24  1  0  0  0  0
  9 24  2  0  0  0  0
 10 25  1  0  0  0  0
 11 12  2  0  0  0  0
 11 26  1  0  0  0  0
 12 27  1  0  0  0  0
 13 20  1  0  0  0  0
 13 25  2  0  0  0  0
 14 27  2  0  0  0  0
 14 28  1  0  0  0  0
 15 29  1  0  0  0  0
 16 29  1  0  0  0  0
 16 32  2  0  0  0  0
 16 33  1  0  0  0  0
 17 19  2  0  0  0  0
 17 38  1  0  0  0  0
 18 20  2  0  0  0  0
 18 39  1  0  0  0  0
 19 49  1  0  0  0  0
 20 40  1  0  0  0  0
 21 22  2  0  0  0  0
 21 23  1  0  0  0  0
 21 54  1  0  0  0  0
 22 30  1  0  0  0  0
 22 62  1  0  0  0  0
 23 31  2  0  0  0  0
 23 69  1  0  0  0  0
 24 84  1  0  0  0  0
 25 85  1  0  0  0  0
 26 28  2  0  0  0  0
 26 84  1  0  0  0  0
 27 86  1  0  0  0  0
 28 87  1  0  0  0  0
 29 66  2  0  0  0  0
 30 55  1  0  0  0  0
 30 67  2  0  0  0  0
 31 56  1  0  0  0  0
 31 67  1  0  0  0  0
 32 68  1  0  0  0  0
 32 72  1  0  0  0  0
 33 73  1  0  0  0  0
 33 79  2  0  0  0  0
 34 50  1  0  0  0  0
 34 74  1  0  0  0  0
 34 80  2  0  0  0  0
 35 63  1  0  0  0  0
 35 70  1  0  0  0  0
 35 81  2  0  0  0  0
 36 64  1  0  0  0  0
 36 75  1  0  0  0  0
 36 82  2  0  0  0  0
 37 71  1  0  0  0  0
 37 76  1  0  0  0  0
 37 83  2  0  0  0  0
 38 41  1  0  0  0  0
 39 50  1  0  0  0  0
 40 70  1  0  0  0  0
 41 43  1  0  0  0  0
 42 44  1  0  0  0  0
 42 45  1  0  0  0  0
 43 49  1  0  0  0  0
 44 51  1  0  0  0  0
 45 71  1  0  0  0  0
 46 51  1  0  0  0  0
 46 71  1  0  0  0  0
 47 52  1  0  0  0  0
 47 69  1  0  0  0  0
 48 53  1  0  0  0  0
 48 69  1  0  0  0  0
 49 74  1  0  0  0  0
 50 70  1  0  0  0  0
 51 68  1  0  0  0  0
 52 53  1  0  0  0  0
 52 76  1  0  0  0  0
 53 77  1  0  0  0  0
 57 64  1  0  0  0  0
 58 65  1  0  0  0  0
 59 65  1  0  0  0  0
 60 65  1  0  0  0  0
 61 78  1  0  0  0  0
 62 85  1  0  0  0  0
 63 65  1  0  0  0  0
 63 75  1  0  0  0  0
 64 78  1  0  0  0  0
 66 68  1  0  0  0  0
M  CHG  2  77   1  78   1
M  ISO  4  37 100  62 101  76 100  85 101
M  END
> <Batch ID>
0170

> <Smiles>
CNC(C)C(=O)NC(C(=O)N1Cc2cc([101O:1][101CH2:1]c3c(C)nc(C)c(N4CC(N)C([100NH:0][100C:0](=O)N5CCCC(n6nc(-c7ccc(Oc8ccc(F)cc8F)cc7)c(C(N)=O)c6N)C5)C4)c3C)ccc2CC1C(=O)NC1CCCc2ccccc21)C(C)(C)C

> <Shape>
0.181

> <Color>
0.092

> <Negative vol penalty>
0.000

$$$$

  -OEChem-04052322353D

 85 94  0     1  0  0  0  0  0999 V2000
  -24.9138  -11.0627   20.2315 C   0  0  0  0  0  0  0  0  0  0  0  0
  -24.1962  -12.1256   19.6925 C   0  0  0  0  0  0  0  0  0  0  0  0
  -26.5947  -28.8921   21.4315 C   0  0  0  0  0  0  0  0  0  0  0  0
  -25.6144  -27.2323   19.9752 C   0  0  0  0  0  0  0  0  0  0  0  0
  -25.8948  -11.3017   21.1929 C   0  0  0  0  0  0  0  0  0  0  0  0
  -24.4583  -13.4282   20.1155 C   0  0  0  0  0  0  0  0  0  0  0  0
  -24.2119  -18.5208   16.7227 C   0  0  0  0  0  0  0  0  0  0  0  0
  -27.8252  -28.7220   20.7970 C   0  0  0  0  0  0  0  0  0  0  0  0
  -26.8449  -27.0622   19.3407 C   0  0  0  0  0  0  0  0  0  0  0  0
  -23.2327  -19.5018   16.5733 C   0  0  0  0  0  0  0  0  0  0  0  0
  -31.3121  -28.4638   19.7977 C   0  0  0  0  0  0  0  0  0  0  0  0
  -32.4483  -28.3600   20.6000 C   0  0  0  0  0  0  0  0  0  0  0  0
  -24.3584  -20.8667   18.2132 C   0  0  0  0  0  0  0  0  0  0  0  0
  -31.5163  -26.4029   21.6669 C   0  0  0  0  0  0  0  0  0  0  0  0
  -21.0410  -21.5917   19.9976 C   0  0  0  0  0  0  0  0  0  0  0  0
  -25.4893  -28.1472   21.0206 C   0  0  0  0  0  0  0  0  0  0  0  0
  -23.1996  -29.2292   21.3274 C   0  0  0  0  0  0  0  0  0  0  0  0
  -26.1758  -12.6088   21.6209 C   0  0  0  0  0  0  0  0  0  0  0  0
  -25.2676  -18.7009   17.6280 C   0  0  0  0  0  0  0  0  0  0  0  0
  -25.4431  -13.6848   21.0846 C   0  0  0  0  0  0  0  0  0  0  0  0
  -25.3511  -19.8875   18.3704 C   0  0  0  0  0  0  0  0  0  0  0  0
  -20.8440  -20.8039   18.8850 C   0  0  0  0  0  0  0  0  0  0  0  0
  -20.4694  -19.5155   19.3398 C   0  0  0  0  0  0  0  0  0  0  0  0
  -27.9503  -27.8071   19.7516 C   0  0  0  0  0  0  0  0  0  0  0  0
  -23.3042  -20.6737   17.3207 C   0  0  0  0  0  0  0  0  0  0  0  0
  -30.2779  -27.5372   19.9300 C   0  0  0  0  0  0  0  0  0  0  0  0
  -32.5504  -27.3296   21.5346 C   0  0  0  0  0  0  0  0  0  0  0  0
  -30.3800  -26.5067   20.8645 C   0  0  0  0  0  0  0  0  0  0  0  0
  -24.2181  -28.3220   21.6760 C   0  0  0  0  0  0  0  0  0  0  0  0
  -20.4487  -19.5553   20.7165 C   0  0  0  0  0  0  0  0  0  0  0  0
  -22.2080  -29.0036   22.2507 C   0  0  0  0  0  0  0  0  0  0  0  0
  -23.1538  -30.1898   20.2641 C   0  0  0  0  0  0  0  0  0  0  0  0
  -26.2693  -17.1848   20.2361 C   0  0  0  0  0  0  0  0  0  0  0  0
  -28.7437  -19.2719   20.0256 C   0  0  0  0  0  0  0  0  0  0  0  0
  -29.9137  -22.2744   18.9022 C   0  0  0  0  0  0  0  0  0  0  0  0
  -20.6018  -24.4077   25.5159 C   0  0  0  0  0  0  0  0  0  0  0  0
  -27.2126  -12.8132   22.6971 C   0  0  0  0  0  0  0  0  0  0  0  0
  -26.3306  -17.6446   17.7580 C   0  0  0  0  0  0  0  0  0  0  0  0
  -26.4752  -20.1383   19.3409 C   0  0  0  0  0  0  0  0  0  0  0  0
  -27.6885  -14.2586   22.8177 C   0  0  0  0  0  0  0  0  0  0  0  0
  -21.5231  -27.5083   26.7386 C   0  0  0  0  0  0  0  0  0  0  0  0
  -26.4995  -15.2142   22.8140 C   0  0  0  0  0  0  0  0  0  0  0  0
  -22.2230  -28.1718   25.5525 C   0  0  0  0  0  0  0  0  0  0  0  0
  -19.5577  -21.8367   23.0683 C   0  0  0  0  0  0  0  0  0  0  0  0
  -21.9992  -22.3854   22.6957 C   0  0  0  0  0  0  0  0  0  0  0  0
  -21.9083  -26.0372   26.8472 C   0  0  0  0  0  0  0  0  0  0  0  0
  -19.6834  -22.3546   24.4991 C   0  0  0  0  0  0  0  0  0  0  0  0
  -22.0703  -22.8885   24.1346 C   0  0  0  0  0  0  0  0  0  0  0  0
  -22.3282  -25.9008   24.4141 C   0  0  0  0  0  0  0  0  0  0  0  0
  -25.7156  -15.1143   21.4998 C   0  0  1  0  0  0  0  0  0  0  0  0
  -27.0797  -17.7110   19.0853 C   0  0  1  0  0  0  0  0  0  0  0  0
  -21.9648  -27.3903   24.2521 C   0  0  2  0  0  0  0  0  0  0  0  0
  -20.9040  -21.3162   22.5358 C   0  0  0  0  0  0  0  0  0  0  0  0
  -20.1580  -18.3437   18.4954 C   0  0  0  0  0  0  0  0  0  0  0  0
  -20.1264  -18.4966   21.6966 C   0  0  0  0  0  0  0  0  0  0  0  0
  -20.0826  -22.4078   17.0986 C   0  0  0  0  0  0  0  0  0  0  0  0
  -31.5721  -24.0969   18.4268 C   0  0  0  0  0  0  0  0  0  0  0  0
  -28.1677  -20.0527   22.9185 C   0  0  0  0  0  0  0  0  0  0  0  0
  -29.5667  -22.0997   22.5713 C   0  0  0  0  0  0  0  0  0  0  0  0
  -30.5958  -19.8372   22.3598 C   0  0  0  0  0  0  0  0  0  0  0  0
  -30.6607  -21.0756   16.3014 C   0  0  0  0  0  0  0  0  0  0  0  0
  -20.9985  -21.2343   17.4810 C   0  0  1  0  0  0  0  0  0  1  0  0
  -29.0226  -20.6566   20.5583 C   0  0  1  0  0  0  0  0  0  0  0  0
  -31.1894  -22.6478   18.1688 C   0  0  2  0  0  0  0  0  0  0  0  0
  -29.3158  -20.6563   22.0852 C   0  0  0  0  0  0  0  0  0  0  0  0
  -23.9027  -27.5758   22.7380 N   0  0  0  0  0  0  0  0  0  0  0  0
  -20.7975  -20.8223   21.1052 N   0  0  0  0  0  0  0  0  0  0  0  0
  -22.6749  -28.0138   23.0647 N   0  0  0  0  0  0  0  0  0  0  0  0
  -27.4868  -19.0729   19.4371 N   0  0  0  0  0  0  0  0  0  0  0  0
  -21.6551  -25.3316   25.5910 N   0  0  0  0  0  0  0  0  0  0  0  0
  -20.7579  -23.3395   24.6172 N   0  0  0  0  0  0  0  0  0  0  0  0
  -20.9911  -29.5573   22.4376 N   0  0  0  0  0  0  0  0  0  0  0  0
  -24.2581  -30.2908   19.4069 N   0  0  0  0  0  0  0  0  0  0  0  0
  -26.4050  -15.8256   20.4448 N   0  0  0  0  0  0  0  0  0  0  0  0
  -30.1040  -21.1977   19.7422 N   0  0  0  0  0  0  0  0  0  0  0  0
  -31.0162  -22.4618   16.7004 N   0  3  0  0  0  0  0  0  0  0  0  0
  -22.1698  -30.9480   20.0895 O   0  0  0  0  0  0  0  0  0  0  0  0
  -25.5737  -17.9553   20.8874 O   0  0  0  0  0  0  0  0  0  0  0  0
  -29.6119  -18.4008   20.1216 O   0  0  0  0  0  0  0  0  0  0  0  0
  -28.8553  -22.8799   18.7482 O   0  0  0  0  0  0  0  0  0  0  0  0
  -19.5809  -24.5304   26.2040 O   0  0  0  0  0  0  0  0  0  0  0  0
  -29.1508  -27.6411   19.1321 O   0  0  0  0  0  0  0  0  0  0  0  0
  -22.3483  -21.6337   17.1771 O   0  0  0  0  0  0  0  0  0  1  0  0
  -33.6423  -27.2292   22.3039 F   0  0  0  0  0  0  0  0  0  0  0  0
  -29.3902  -25.6129   20.9953 F   0  0  0  0  0  0  0  0  0  0  0  0
  1  2  1  0  0  0  0
  1  5  2  0  0  0  0
  2  6  2  0  0  0  0
  3  8  2  0  0  0  0
  3 16  1  0  0  0  0
  4  9  1  0  0  0  0
  4 16  2  0  0  0  0
  5 18  1  0  0  0  0
  6 20  1  0  0  0  0
  7 10  2  0  0  0  0
  7 19  1  0  0  0  0
  8 24  1  0  0  0  0
  9 24  2  0  0  0  0
 10 25  1  0  0  0  0
 11 12  2  0  0  0  0
 11 26  1  0  0  0  0
 12 27  1  0  0  0  0
 13 21  1  0  0  0  0
 13 25  2  0  0  0  0
 14 27  2  0  0  0  0
 14 28  1  0  0  0  0
 15 22  2  0  0  0  0
 15 67  1  0  0  0  0
 16 29  1  0  0  0  0
 17 29  1  0  0  0  0
 17 31  2  0  0  0  0
 17 32  1  0  0  0  0
 18 20  2  0  0  0  0
 18 37  1  0  0  0  0
 19 21  2  0  0  0  0
 19 38  1  0  0  0  0
 20 50  1  0  0  0  0
 21 39  1  0  0  0  0
 22 23  1  0  0  0  0
 22 62  1  0  0  0  0
 23 30  2  0  0  0  0
 23 54  1  0  0  0  0
 24 82  1  0  0  0  0
 25 83  1  0  0  0  0
 26 28  2  0  0  0  0
 26 82  1  0  0  0  0
 27 84  1  0  0  0  0
 28 85  1  0  0  0  0
 29 66  2  0  0  0  0
 30 55  1  0  0  0  0
 30 67  1  0  0  0  0
 31 68  1  0  0  0  0
 31 72  1  0  0  0  0
 32 73  1  0  0  0  0
 32 77  2  0  0  0  0
 33 51  1  0  0  0  0
 33 74  1  0  0  0  0
 33 78  2  0  0  0  0
 34 63  1  0  0  0  0
 34 69  1  0  0  0  0
 34 79  2  0  0  0  0
 35 64  1  0  0  0  0
 35 75  1  0  0  0  0
 35 80  2  0  0  0  0
 36 70  1  0  0  0  0
 36 71  1  0  0  0  0
 36 81  2  0  0  0  0
 37 40  1  0  0  0  0
 38 51  1  0  0  0  0
 39 69  1  0  0  0  0
 40 42  1  0  0  0  0
 41 43  1  0  0  0  0
 41 46  1  0  0  0  0
 42 50  1  0  0  0  0
 43 52  1  0  0  0  0
 44 47  1  0  0  0  0
 44 53  1  0  0  0  0
 45 48  1  0  0  0  0
 45 53  1  0  0  0  0
 46 70  1  0  0  0  0
 47 71  1  0  0  0  0
 48 71  1  0  0  0  0
 49 52  1  0  0  0  0
 49 70  1  0  0  0  0
 50 74  1  0  0  0  0
 51 69  1  0  0  0  0
 52 68  1  0  0  0  0
 53 67  1  0  0  0  0
 56 62  1  0  0  0  0
 57 64  1  0  0  0  0
 58 65  1  0  0  0  0
 59 65  1  0  0  0  0
 60 65  1  0  0  0  0
 61 76  1  0  0  0  0
 62 83  1  0  0  0  0
 63 65  1  0  0  0  0
 63 75  1  0  0  0  0
 64 76  1  0  0  0  0
 66 68  1  0  0  0  0
M  CHG  1  76   1
M  ISO  4  36 100  62 101  71 100  83 101
M  END
> <Batch ID>
0170

> <Smiles>
CNC(C)C(=O)NC(C(=O)N1Cc2cc([101O:1][101CH:1](C)c3cn(C4CC[100N:0]([100C:0](=O)N5CCCC(n6nc(-c7ccc(Oc8ccc(F)cc8F)cc7)c(C(N)=O)c6N)C5)CC4)c(C)c3C)ccc2CC1C(=O)NC1CCCc2ccccc21)C(C)(C)C

> <Shape>
0.190

> <Color>
0.082

> <Negative vol penalty>
0.000

$$$$

  -OEChem-04052322353D

 82 91  0     1  0  0  0  0  0999 V2000
  -27.7969  -11.5037   22.7500 C   0  0  0  0  0  0  0  0  0  0  0  0
  -28.4306  -12.6918   22.4003 C   0  0  0  0  0  0  0  0  0  0  0  0
  -20.2477  -27.4549   21.5262 C   0  0  0  0  0  0  0  0  0  0  0  0
  -20.1237  -28.5307   23.6859 C   0  0  0  0  0  0  0  0  0  0  0  0
  -26.5534  -11.1908   22.2024 C   0  0  0  0  0  0  0  0  0  0  0  0
  -27.8215  -13.5673   21.5020 C   0  0  0  0  0  0  0  0  0  0  0  0
  -28.0931  -19.6852   21.5658 C   0  0  0  0  0  0  0  0  0  0  0  0
  -18.9959  -26.8785   21.7414 C   0  0  0  0  0  0  0  0  0  0  0  0
  -18.8718  -27.9543   23.9011 C   0  0  0  0  0  0  0  0  0  0  0  0
  -28.8751  -20.5968   20.8577 C   0  0  0  0  0  0  0  0  0  0  0  0
  -15.8036  -26.4787   25.1734 C   0  0  0  0  0  0  0  0  0  0  0  0
  -15.5589  -25.9077   26.4223 C   0  0  0  0  0  0  0  0  0  0  0  0
  -31.4311  -26.4031   18.9827 C   0  0  0  0  0  0  0  0  0  0  0  0
  -27.0917  -20.8740   19.2571 C   0  0  0  0  0  0  0  0  0  0  0  0
  -17.3949  -24.3748   26.0813 C   0  0  0  0  0  0  0  0  0  0  0  0
  -20.8116  -28.2809   22.4985 C   0  0  0  0  0  0  0  0  0  0  0  0
  -22.4718  -29.7495   21.2356 C   0  0  0  0  0  0  0  0  0  0  0  0
  -25.9244  -12.0675   21.3044 C   0  0  0  0  0  0  0  0  0  0  0  0
  -26.8066  -19.3523   21.1180 C   0  0  0  0  0  0  0  0  0  0  0  0
  -26.5691  -13.2653   20.9409 C   0  0  0  0  0  0  0  0  0  0  0  0
  -30.4469  -26.7940   19.8660 C   0  0  0  0  0  0  0  0  0  0  0  0
  -26.2945  -19.9598   19.9626 C   0  0  0  0  0  0  0  0  0  0  0  0
  -31.1388  -25.3652   18.1005 C   0  0  0  0  0  0  0  0  0  0  0  0
  -18.3079  -27.1282   22.9289 C   0  0  0  0  0  0  0  0  0  0  0  0
  -28.3755  -21.1892   19.7016 C   0  0  0  0  0  0  0  0  0  0  0  0
  -16.8440  -25.9977   24.3784 C   0  0  0  0  0  0  0  0  0  0  0  0
  -16.3545  -24.8558   26.8762 C   0  0  0  0  0  0  0  0  0  0  0  0
  -17.6396  -24.9458   24.8324 C   0  0  0  0  0  0  0  0  0  0  0  0
  -22.1050  -28.8762   22.2770 C   0  0  0  0  0  0  0  0  0  0  0  0
  -29.2187  -26.1451   19.8413 C   0  0  0  0  0  0  0  0  0  0  0  0
  -29.8741  -24.7774   18.1531 C   0  0  0  0  0  0  0  0  0  0  0  0
  -23.7963  -30.0269   21.4705 C   0  0  0  0  0  0  0  0  0  0  0  0
  -21.6854  -30.2642   20.1528 C   0  0  0  0  0  0  0  0  0  0  0  0
  -25.3919  -16.6766   20.1471 C   0  0  0  0  0  0  0  0  0  0  0  0
  -22.7430  -18.5488   20.1184 C   0  0  0  0  0  0  0  0  0  0  0  0
  -21.4142  -21.6853   19.9099 C   0  0  0  0  0  0  0  0  0  0  0  0
  -28.9280  -28.2897   22.8190 C   0  0  0  0  0  0  0  0  0  0  0  0
  -24.6018  -11.6641   20.7022 C   0  0  0  0  0  0  0  0  0  0  0  0
  -25.9656  -18.3873   21.9078 C   0  0  0  0  0  0  0  0  0  0  0  0
  -30.4658  -27.8500   20.9130 C   0  0  0  0  0  0  0  0  0  0  0  0
  -24.9118  -19.6517   19.4511 C   0  0  0  0  0  0  0  0  0  0  0  0
  -28.2943  -26.7479   20.8580 C   0  0  0  0  0  0  0  0  0  0  0  0
  -23.8530  -12.8213   20.0461 C   0  0  0  0  0  0  0  0  0  0  0  0
  -26.7169  -29.0856   25.4666 C   0  0  0  0  0  0  0  0  0  0  0  0
  -24.7945  -13.6341   19.1631 C   0  0  0  0  0  0  0  0  0  0  0  0
  -25.3427  -29.1370   24.8053 C   0  0  0  0  0  0  0  0  0  0  0  0
  -27.5683  -27.9804   24.8571 C   0  0  0  0  0  0  0  0  0  0  0  0
  -26.3956  -28.2027   22.6801 C   0  0  0  0  0  0  0  0  0  0  0  0
  -25.9291  -14.2523   19.9889 C   0  0  1  0  0  0  0  0  0  0  0  0
  -24.8661  -17.7337   21.0764 C   0  0  1  0  0  0  0  0  0  0  0  0
  -25.4817  -29.2894   23.2830 C   0  0  1  0  0  0  0  0  0  0  0  0
  -32.1743  -24.9104   17.1290 C   0  0  0  0  0  0  0  0  0  0  0  0
  -19.2159  -22.8951   19.8770 C   0  0  0  0  0  0  0  0  0  0  0  0
  -22.3039  -17.6673   17.2304 C   0  0  0  0  0  0  0  0  0  0  0  0
  -20.7121  -19.5809   16.9617 C   0  0  0  0  0  0  0  0  0  0  0  0
  -20.2243  -17.7778   18.6151 C   0  0  0  0  0  0  0  0  0  0  0  0
  -22.0773  -23.1968   22.3665 C   0  0  0  0  0  0  0  0  0  0  0  0
  -29.5317  -23.6621   17.2189 C   0  0  0  0  0  0  0  0  0  0  0  0
  -28.5636  -22.6481   17.8329 C   0  0  0  0  0  0  0  0  0  1  0  0
  -22.0715  -19.4353   19.0975 C   0  0  1  0  0  0  0  0  0  0  0  0
  -20.3589  -22.3896   20.7434 C   0  0  2  0  0  0  0  0  0  0  0  0
  -21.3548  -18.6199   17.9845 C   0  0  0  0  0  0  0  0  0  0  0  0
  -23.1150  -28.6157   23.1113 N   0  0  0  0  0  0  0  0  0  0  0  0
  -28.8901  -25.1442   19.0093 N   0  0  0  0  0  0  0  0  0  0  0  0
  -24.1295  -29.3296   22.5943 N   0  0  0  0  0  0  0  0  0  0  0  0
  -24.1306  -18.6971   20.2547 N   0  0  0  0  0  0  0  0  0  0  0  0
  -29.1421  -27.7403   21.5526 N   0  0  0  0  0  0  0  0  0  0  0  0
  -27.6697  -28.1072   23.4025 N   0  0  0  0  0  0  0  0  0  0  0  0
  -24.6968  -30.7966   20.8232 N   0  0  0  0  0  0  0  0  0  0  0  0
  -20.9940  -31.4685   20.3425 N   0  0  0  0  0  0  0  0  0  0  0  0
  -25.4551  -15.4153   20.7080 N   0  0  0  0  0  0  0  0  0  0  0  0
  -21.1915  -20.3260   19.8463 N   0  0  0  0  0  0  0  0  0  0  0  0
  -20.9555  -23.5523   21.4598 N   0  3  0  0  0  0  0  0  0  0  0  0
  -21.5853  -29.6652   19.0552 O   0  0  0  0  0  0  0  0  0  0  0  0
  -25.7148  -16.9823   19.0052 O   0  0  0  0  0  0  0  0  0  0  0  0
  -22.0606  -17.7590   20.7758 O   0  0  0  0  0  0  0  0  0  0  0  0
  -22.3412  -22.2818   19.3664 O   0  0  0  0  0  0  0  0  0  0  0  0
  -29.8367  -28.8740   23.4239 O   0  0  0  0  0  0  0  0  0  0  0  0
  -17.0863  -26.5662   23.1391 O   0  0  0  0  0  0  0  0  0  0  0  0
  -29.1422  -22.0851   19.0034 O   0  0  0  0  0  0  0  0  0  1  0  0
  -16.1203  -24.3086   28.0762 F   0  0  0  0  0  0  0  0  0  0  0  0
  -18.6413  -24.4802   24.0736 F   0  0  0  0  0  0  0  0  0  0  0  0
  1  2  1  0  0  0  0
  1  5  2  0  0  0  0
  2  6  2  0  0  0  0
  3  8  2  0  0  0  0
  3 16  1  0  0  0  0
  4  9  1  0  0  0  0
  4 16  2  0  0  0  0
  5 18  1  0  0  0  0
  6 20  1  0  0  0  0
  7 10  2  0  0  0  0
  7 19  1  0  0  0  0
  8 24  1  0  0  0  0
  9 24  2  0  0  0  0
 10 25  1  0  0  0  0
 11 12  2  0  0  0  0
 11 26  1  0  0  0  0
 12 27  1  0  0  0  0
 13 21  2  0  0  0  0
 13 23  1  0  0  0  0
 14 22  1  0  0  0  0
 14 25  2  0  0  0  0
 15 27  2  0  0  0  0
 15 28  1  0  0  0  0
 16 29  1  0  0  0  0
 17 29  1  0  0  0  0
 17 32  2  0  0  0  0
 17 33  1  0  0  0  0
 18 20  2  0  0  0  0
 18 38  1  0  0  0  0
 19 22  2  0  0  0  0
 19 39  1  0  0  0  0
 20 49  1  0  0  0  0
 21 30  1  0  0  0  0
 21 40  1  0  0  0  0
 22 41  1  0  0  0  0
 23 31  2  0  0  0  0
 23 52  1  0  0  0  0
 24 79  1  0  0  0  0
 25 80  1  0  0  0  0
 26 28  2  0  0  0  0
 26 79  1  0  0  0  0
 27 81  1  0  0  0  0
 28 82  1  0  0  0  0
 29 63  2  0  0  0  0
 30 42  1  0  0  0  0
 30 64  2  0  0  0  0
 31 58  1  0  0  0  0
 31 64  1  0  0  0  0
 32 65  1  0  0  0  0
 32 69  1  0  0  0  0
 33 70  1  0  0  0  0
 33 74  2  0  0  0  0
 34 50  1  0  0  0  0
 34 71  1  0  0  0  0
 34 75  2  0  0  0  0
 35 60  1  0  0  0  0
 35 66  1  0  0  0  0
 35 76  2  0  0  0  0
 36 61  1  0  0  0  0
 36 72  1  0  0  0  0
 36 77  2  0  0  0  0
 37 67  1  0  0  0  0
 37 68  1  0  0  0  0
 37 78  2  0  0  0  0
 38 43  1  0  0  0  0
 39 50  1  0  0  0  0
 40 67  1  0  0  0  0
 41 66  1  0  0  0  0
 42 67  1  0  0  0  0
 43 45  1  0  0  0  0
 44 46  1  0  0  0  0
 44 47  1  0  0  0  0
 45 49  1  0  0  0  0
 46 51  1  0  0  0  0
 47 68  1  0  0  0  0
 48 51  1  0  0  0  0
 48 68  1  0  0  0  0
 49 71  1  0  0  0  0
 50 66  1  0  0  0  0
 51 65  1  0  0  0  0
 53 61  1  0  0  0  0
 54 62  1  0  0  0  0
 55 62  1  0  0  0  0
 56 62  1  0  0  0  0
 57 73  1  0  0  0  0
 58 59  1  0  0  0  0
 59 80  1  0  0  0  0
 60 62  1  0  0  0  0
 60 72  1  0  0  0  0
 61 73  1  0  0  0  0
 63 65  1  0  0  0  0
M  CHG  1  73   1
M  ISO  4  37 100  59 101  67 100  80 101
M  END
> <Batch ID>
0170

> <Smiles>
CNC(C)C(=O)NC(C(=O)N1Cc2cc([101O:1][101CH2:1]Cc3nc4c(cc3C)C[100N:0]([100C:0](=O)N3CCCC(n5nc(-c6ccc(Oc7ccc(F)cc7F)cc6)c(C(N)=O)c5N)C3)C4)ccc2CC1C(=O)NC1CCCc2ccccc21)C(C)(C)C

> <Shape>
0.225

> <Color>
0.078

> <Negative vol penalty>
0.000

$$$$

  -OEChem-04052322353D

 87 96  0     1  0  0  0  0  0999 V2000
  -24.4243  -24.1656   33.1071 C   0  0  0  0  0  0  0  0  0  0  0  0
  -25.2927  -23.1778   32.6538 C   0  0  0  0  0  0  0  0  0  0  0  0
  -23.1895   -9.8190   19.9324 C   0  0  0  0  0  0  0  0  0  0  0  0
  -23.5697   -9.9995   22.3115 C   0  0  0  0  0  0  0  0  0  0  0  0
  -23.0653  -24.0898   32.8048 C   0  0  0  0  0  0  0  0  0  0  0  0
  -24.8024  -22.1129   31.8988 C   0  0  0  0  0  0  0  0  0  0  0  0
  -27.6643  -19.2187   27.3229 C   0  0  0  0  0  0  0  0  0  0  0  0
  -22.4234   -8.6724   20.1418 C   0  0  0  0  0  0  0  0  0  0  0  0
  -22.8035   -8.8528   22.5209 C   0  0  0  0  0  0  0  0  0  0  0  0
  -28.3824  -18.0248   27.2718 C   0  0  0  0  0  0  0  0  0  0  0  0
  -23.2043   -5.5061   22.2566 C   0  0  0  0  0  0  0  0  0  0  0  0
  -23.7034   -4.5448   23.1355 C   0  0  0  0  0  0  0  0  0  0  0  0
  -29.6140  -15.8156   23.4701 C   0  0  0  0  0  0  0  0  0  0  0  0
  -31.9170  -16.4514   23.1109 C   0  0  0  0  0  0  0  0  0  0  0  0
  -26.4013  -16.8725   26.5191 C   0  0  0  0  0  0  0  0  0  0  0  0
  -21.7479   -4.8049   24.5304 C   0  0  0  0  0  0  0  0  0  0  0  0
  -23.7627  -10.4825   21.0173 C   0  0  0  0  0  0  0  0  0  0  0  0
  -24.1013  -12.9992   20.7731 C   0  0  0  0  0  0  0  0  0  0  0  0
  -22.5596  -23.0285   32.0376 C   0  0  0  0  0  0  0  0  0  0  0  0
  -26.3043  -19.2465   26.9824 C   0  0  0  0  0  0  0  0  0  0  0  0
  -23.4351  -22.0221   31.5871 C   0  0  0  0  0  0  0  0  0  0  0  0
  -30.9744  -15.6054   23.6954 C   0  0  0  0  0  0  0  0  0  0  0  0
  -25.6688  -18.0686   26.5642 C   0  0  0  0  0  0  0  0  0  0  0  0
  -29.1962  -16.8717   22.6603 C   0  0  0  0  0  0  0  0  0  0  0  0
  -30.1387  -17.7177   22.0759 C   0  0  0  0  0  0  0  0  0  0  0  0
  -31.4992  -17.5075   22.3011 C   0  0  0  0  0  0  0  0  0  0  0  0
  -22.2303   -8.1893   21.4360 C   0  0  0  0  0  0  0  0  0  0  0  0
  -27.7502  -16.8509   26.8727 C   0  0  0  0  0  0  0  0  0  0  0  0
  -21.9771   -6.1169   22.5147 C   0  0  0  0  0  0  0  0  0  0  0  0
  -22.9752   -4.1942   24.2724 C   0  0  0  0  0  0  0  0  0  0  0  0
  -21.2489   -5.7663   23.6515 C   0  0  0  0  0  0  0  0  0  0  0  0
  -24.5547  -11.6667   20.8016 C   0  0  0  0  0  0  0  0  0  0  0  0
  -25.2323  -13.7418   20.5369 C   0  0  0  0  0  0  0  0  0  0  0  0
  -22.7762  -13.5191   20.9450 C   0  0  0  0  0  0  0  0  0  0  0  0
  -23.6192  -19.9593   28.5271 C   0  0  0  0  0  0  0  0  0  0  0  0
  -22.2889  -19.5729   25.5939 C   0  0  0  0  0  0  0  0  0  0  0  0
  -22.4802  -18.1727   22.4875 C   0  0  0  0  0  0  0  0  0  0  0  0
  -31.0478  -12.7519   21.5616 C   0  0  0  0  0  0  0  0  0  0  0  0
  -21.0756  -22.9643   31.7763 C   0  0  0  0  0  0  0  0  0  0  0  0
  -25.5505  -20.5476   27.0170 C   0  0  0  0  0  0  0  0  0  0  0  0
  -24.2156  -18.0489   26.1688 C   0  0  0  0  0  0  0  0  0  0  0  0
  -20.6958  -22.0016   30.6541 C   0  0  0  0  0  0  0  0  0  0  0  0
  -29.5180  -13.4690   18.4276 C   0  0  0  0  0  0  0  0  0  0  0  0
  -21.4257  -20.6726   30.8209 C   0  0  0  0  0  0  0  0  0  0  0  0
  -28.0316  -13.2087   18.6781 C   0  0  0  0  0  0  0  0  0  0  0  0
  -31.0627  -12.4604   25.3458 C   0  0  0  0  0  0  0  0  0  0  0  0
  -30.3999  -12.4797   19.1862 C   0  0  0  0  0  0  0  0  0  0  0  0
  -28.6477  -12.1371   20.8851 C   0  0  0  0  0  0  0  0  0  0  0  0
  -31.4343  -14.4397   24.5863 C   0  0  1  0  0  0  0  0  0  0  0  0
  -22.9452  -20.8644   30.7446 C   0  0  1  0  0  0  0  0  0  0  0  0
  -24.0416  -20.3608   27.1421 C   0  0  1  0  0  0  0  0  0  0  0  0
  -30.4091  -13.8400   25.6064 C   0  0  2  0  0  0  0  0  0  0  0  0
  -27.7197  -13.1448   20.1854 C   0  0  2  0  0  0  0  0  0  0  0  0
  -31.5399  -13.0032   23.9811 C   0  0  2  0  0  0  0  0  0  0  0  0
  -27.7334  -17.0734   22.4339 C   0  0  0  0  0  0  0  0  0  0  0  0
  -29.6863  -18.8490   21.2069 C   0  0  0  0  0  0  0  0  0  0  0  0
  -21.2251  -18.0070   20.3208 C   0  0  0  0  0  0  0  0  0  0  0  0
  -29.8243  -13.3533   27.9844 C   0  0  0  0  0  0  0  0  0  0  0  0
  -20.3464  -17.5979   26.8730 C   0  0  0  0  0  0  0  0  0  0  0  0
  -19.7786  -16.7767   24.5770 C   0  0  0  0  0  0  0  0  0  0  0  0
  -19.3118  -19.1458   25.2032 C   0  0  0  0  0  0  0  0  0  0  0  0
  -24.6902  -19.4350   20.9770 C   0  0  0  0  0  0  0  0  0  0  0  0
  -29.8258  -15.7349   27.1925 C   0  0  0  0  0  0  0  0  0  1  0  0
  -21.7018  -18.4100   24.8311 C   0  0  1  0  0  0  0  0  0  0  0  0
  -22.2876  -18.7638   21.1026 C   0  0  2  0  0  0  0  0  0  0  0  0
  -30.4844  -14.3612   27.0400 C   0  0  2  0  0  0  0  0  0  0  0  0
  -20.3115  -17.9823   25.3803 C   0  0  0  0  0  0  0  0  0  0  0  0
  -25.8711  -11.5656   20.5994 N   0  0  0  0  0  0  0  0  0  0  0  0
  -26.2545  -12.8440   20.4416 N   0  0  0  0  0  0  0  0  0  0  0  0
  -23.5199  -19.3452   26.2253 N   0  0  0  0  0  0  0  0  0  0  0  0
  -30.0545  -12.4687   20.6098 N   0  0  0  0  0  0  0  0  0  0  0  0
  -32.4690  -18.3526   21.7177 N   0  0  0  0  0  0  0  0  0  0  0  0
  -25.4421  -15.0687   20.4035 N   0  0  0  0  0  0  0  0  0  0  0  0
  -21.7297  -12.6169   21.1799 N   0  0  0  0  0  0  0  0  0  0  0  0
  -23.3659  -21.0252   29.3692 N   0  0  0  0  0  0  0  0  0  0  0  0
  -21.6936  -18.8054   23.4268 N   0  0  0  0  0  0  0  0  0  0  0  0
  -30.6346  -12.7266   22.8880 N   0  0  0  0  0  0  0  0  0  0  0  0
  -23.5636  -18.7104   20.3346 N   0  3  0  0  0  0  0  0  0  0  0  0
  -22.5249  -14.7461   20.8755 O   0  0  0  0  0  0  0  0  0  0  0  0
  -23.5284  -18.7705   28.8102 O   0  0  0  0  0  0  0  0  0  0  0  0
  -21.6813  -20.6460   25.6224 O   0  0  0  0  0  0  0  0  0  0  0  0
  -23.2486  -17.2404   22.7129 O   0  0  0  0  0  0  0  0  0  0  0  0
  -32.2152  -13.0135   21.2520 O   0  0  0  0  0  0  0  0  0  0  0  0
  -21.4826   -7.0706   21.6407 O   0  0  0  0  0  0  0  0  0  0  0  0
  -28.4486  -15.6840   26.8225 O   0  0  0  0  0  0  0  0  0  1  0  0
  -23.4538   -3.2699   25.1154 F   0  0  0  0  0  0  0  0  0  0  0  0
  -20.0687   -6.3487   23.9040 F   0  0  0  0  0  0  0  0  0  0  0  0
  1  2  1  0  0  0  0
  1  5  2  0  0  0  0
  2  6  2  0  0  0  0
  3  8  2  0  0  0  0
  3 17  1  0  0  0  0
  4  9  1  0  0  0  0
  4 17  2  0  0  0  0
  5 19  1  0  0  0  0
  6 21  1  0  0  0  0
  7 10  2  0  0  0  0
  7 20  1  0  0  0  0
  8 27  1  0  0  0  0
  9 27  2  0  0  0  0
 10 28  1  0  0  0  0
 11 12  2  0  0  0  0
 11 29  1  0  0  0  0
 12 30  1  0  0  0  0
 13 22  1  0  0  0  0
 13 24  2  0  0  0  0
 14 22  2  0  0  0  0
 14 26  1  0  0  0  0
 15 23  1  0  0  0  0
 15 28  2  0  0  0  0
 16 30  2  0  0  0  0
 16 31  1  0  0  0  0
 17 32  1  0  0  0  0
 18 32  1  0  0  0  0
 18 33  2  0  0  0  0
 18 34  1  0  0  0  0
 19 21  2  0  0  0  0
 19 39  1  0  0  0  0
 20 23  2  0  0  0  0
 20 40  1  0  0  0  0
 21 50  1  0  0  0  0
 22 49  1  0  0  0  0
 23 41  1  0  0  0  0
 24 25  1  0  0  0  0
 24 55  1  0  0  0  0
 25 26  2  0  0  0  0
 25 56  1  0  0  0  0
 26 72  1  0  0  0  0
 27 84  1  0  0  0  0
 28 85  1  0  0  0  0
 29 31  2  0  0  0  0
 29 84  1  0  0  0  0
 30 86  1  0  0  0  0
 31 87  1  0  0  0  0
 32 68  2  0  0  0  0
 33 69  1  0  0  0  0
 33 73  1  0  0  0  0
 34 74  1  0  0  0  0
 34 79  2  0  0  0  0
 35 51  1  0  0  0  0
 35 75  1  0  0  0  0
 35 80  2  0  0  0  0
 36 64  1  0  0  0  0
 36 70  1  0  0  0  0
 36 81  2  0  0  0  0
 37 65  1  0  0  0  0
 37 76  1  0  0  0  0
 37 82  2  0  0  0  0
 38 71  1  0  0  0  0
 38 77  1  0  0  0  0
 38 83  2  0  0  0  0
 39 42  1  0  0  0  0
 40 51  1  0  0  0  0
 41 70  1  0  0  0  0
 42 44  1  0  0  0  0
 43 45  1  0  0  0  0
 43 47  1  0  0  0  0
 44 50  1  0  0  0  0
 45 53  1  0  0  0  0
 46 52  1  0  0  0  0
 46 54  1  0  0  0  0
 47 71  1  0  0  0  0
 48 53  1  0  0  0  0
 48 71  1  0  0  0  0
 49 52  1  0  0  0  0
 49 54  1  0  0  0  0
 50 75  1  0  0  0  0
 51 70  1  0  0  0  0
 52 66  1  0  0  0  0
 53 69  1  0  0  0  0
 54 77  1  0  0  0  0
 57 65  1  0  0  0  0
 58 66  1  0  0  0  0
 59 67  1  0  0  0  0
 60 67  1  0  0  0  0
 61 67  1  0  0  0  0
 62 78  1  0  0  0  0
 63 66  1  0  0  0  0
 63 85  1  0  0  0  0
 64 67  1  0  0  0  0
 64 76  1  0  0  0  0
 65 78  1  0  0  0  0
 68 69  1  0  0  0  0
M  CHG  1  78   1
M  ISO  4  38 100  63 101  77 100  85 101
M  END
> <Batch ID>
0170

> <Smiles>
CNC(C)C(=O)NC(C(=O)N1Cc2cc([101O:1][101CH2:1]C(C)C3CC([100NH:0][100C:0](=O)N4CCCC(n5nc(-c6ccc(Oc7ccc(F)cc7F)cc6)c(C(N)=O)c5N)C4)C3c3cc(C)c(C)c(N)c3)ccc2CC1C(=O)NC1CCCc2ccccc21)C(C)(C)C

> <Shape>
0.167

> <Color>
0.175

> <Negative vol penalty>
0.000

$$$$

  -OEChem-04052322353D

 86 95  0     1  0  0  0  0  0999 V2000
  -29.1075  -25.0878   16.5787 C   0  0  0  0  0  0  0  0  0  0  0  0
  -27.9351  -25.0711   17.3274 C   0  0  0  0  0  0  0  0  0  0  0  0
  -25.5018  -13.0611   21.6221 C   0  0  0  0  0  0  0  0  0  0  0  0
  -25.9744  -12.7897   19.2684 C   0  0  0  0  0  0  0  0  0  0  0  0
  -30.2145  -25.8022   17.0348 C   0  0  0  0  0  0  0  0  0  0  0  0
  -27.8694  -25.7679   18.5335 C   0  0  0  0  0  0  0  0  0  0  0  0
  -23.5749  -28.4070   19.0209 C   0  0  0  0  0  0  0  0  0  0  0  0
  -25.0702  -11.7364   21.6882 C   0  0  0  0  0  0  0  0  0  0  0  0
  -25.5428  -11.4649   19.3345 C   0  0  0  0  0  0  0  0  0  0  0  0
  -22.4286  -27.6976   19.3766 C   0  0  0  0  0  0  0  0  0  0  0  0
  -23.5056   -8.5309   22.3957 C   0  0  0  0  0  0  0  0  0  0  0  0
  -22.3222   -8.2665   23.0851 C   0  0  0  0  0  0  0  0  0  0  0  0
  -22.6978  -28.4206   21.6622 C   0  0  0  0  0  0  0  0  0  0  0  0
  -18.1383  -24.1212   23.2578 C   0  0  0  0  0  0  0  0  0  0  0  0
  -21.1161   -9.7092   21.5682 C   0  0  0  0  0  0  0  0  0  0  0  0
  -25.9539  -13.5878   20.4122 C   0  0  0  0  0  0  0  0  0  0  0  0
  -27.7066  -15.4363   20.5500 C   0  0  0  0  0  0  0  0  0  0  0  0
  -30.1592  -26.5161   18.2423 C   0  0  0  0  0  0  0  0  0  0  0  0
  -24.2987  -29.1207   19.9869 C   0  0  0  0  0  0  0  0  0  0  0  0
  -28.9772  -26.4915   19.0069 C   0  0  0  0  0  0  0  0  0  0  0  0
  -23.8516  -29.1403   21.3157 C   0  0  0  0  0  0  0  0  0  0  0  0
  -19.2848  -24.8986   23.1381 C   0  0  0  0  0  0  0  0  0  0  0  0
  -19.2075  -26.1552   22.5480 C   0  0  0  0  0  0  0  0  0  0  0  0
  -25.0907  -10.9383   20.5445 C   0  0  0  0  0  0  0  0  0  0  0  0
  -21.9915  -27.7020   20.6980 C   0  0  0  0  0  0  0  0  0  0  0  0
  -23.4942   -9.3846   21.2925 C   0  0  0  0  0  0  0  0  0  0  0  0
  -21.1275   -8.8556   22.6714 C   0  0  0  0  0  0  0  0  0  0  0  0
  -22.2995   -9.9737   20.8788 C   0  0  0  0  0  0  0  0  0  0  0  0
  -26.3994  -14.9563   20.3431 C   0  0  0  0  0  0  0  0  0  0  0  0
  -16.9483  -24.6419   22.7754 C   0  0  0  0  0  0  0  0  0  0  0  0
  -17.9697  -26.5848   22.0972 C   0  0  0  0  0  0  0  0  0  0  0  0
  -27.6058  -16.7945   20.3723 C   0  0  0  0  0  0  0  0  0  0  0  0
  -28.9048  -14.7185   20.8738 C   0  0  0  0  0  0  0  0  0  0  0  0
  -27.2527  -28.9590   21.1494 C   0  0  0  0  0  0  0  0  0  0  0  0
  -26.3672  -31.6594   22.7134 C   0  0  0  0  0  0  0  0  0  0  0  0
  -23.8448  -33.5885   23.9634 C   0  0  0  0  0  0  0  0  0  0  0  0
  -24.2443  -21.1276   21.3642 C   0  0  0  0  0  0  0  0  0  0  0  0
  -31.3968  -27.2350   18.7179 C   0  0  0  0  0  0  0  0  0  0  0  0
  -25.5181  -29.9026   19.5819 C   0  0  0  0  0  0  0  0  0  0  0  0
  -24.5814  -29.9074   22.3868 C   0  0  0  0  0  0  0  0  0  0  0  0
  -31.1232  -28.2540   19.8212 C   0  0  0  0  0  0  0  0  0  0  0  0
  -24.3994  -19.7958   18.1168 C   0  0  0  0  0  0  0  0  0  0  0  0
  -30.2201  -27.6512   20.8926 C   0  0  0  0  0  0  0  0  0  0  0  0
  -25.0646  -18.4442   18.3749 C   0  0  0  0  0  0  0  0  0  0  0  0
  -23.3731  -20.1452   19.1960 C   0  0  0  0  0  0  0  0  0  0  0  0
  -22.0065  -22.1896   20.8267 C   0  0  0  0  0  0  0  0  0  0  0  0
  -23.8307  -23.5271   21.8123 C   0  0  0  0  0  0  0  0  0  0  0  0
  -24.5727  -18.7308   20.8329 C   0  0  0  0  0  0  0  0  0  0  0  0
  -21.0895  -22.5693   21.9850 C   0  0  0  0  0  0  0  0  0  0  0  0
  -22.9531  -23.9056   22.9943 C   0  0  0  0  0  0  0  0  0  0  0  0
  -28.8589  -27.2552   20.3080 C   0  0  1  0  0  0  0  0  0  0  0  0
  -26.4671  -30.1744   20.7451 C   0  0  1  0  0  0  0  0  0  0  0  0
  -25.6511  -18.3798   19.7963 C   0  0  1  0  0  0  0  0  0  0  0  0
  -15.6974  -23.8360   22.8882 C   0  0  0  0  0  0  0  0  0  0  0  0
  -17.8234  -27.9261   21.4560 C   0  0  0  0  0  0  0  0  0  0  0  0
  -23.4337  -35.7199   25.2227 C   0  0  0  0  0  0  0  0  0  0  0  0
  -27.2319  -30.2942   25.3015 C   0  0  0  0  0  0  0  0  0  0  0  0
  -25.9470  -32.0318   26.5656 C   0  0  0  0  0  0  0  0  0  0  0  0
  -27.8723  -32.7056   25.1297 C   0  0  0  0  0  0  0  0  0  0  0  0
  -22.2953  -34.7486   21.7246 C   0  0  0  0  0  0  0  0  0  0  0  0
  -20.5883  -24.3594   23.6491 C   0  0  0  0  0  0  0  0  0  0  0  0
  -20.4204  -27.0124   22.4082 C   0  0  0  0  0  0  0  0  0  1  0  0
  -25.7153  -31.9608   24.0413 C   0  0  1  0  0  0  0  0  0  0  0  0
  -23.5640  -35.0761   23.8511 C   0  0  2  0  0  0  0  0  0  0  0  0
  -26.6788  -31.7320   25.2400 C   0  0  0  0  0  0  0  0  0  0  0  0
  -25.5319  -15.9304   20.0560 N   0  0  0  0  0  0  0  0  0  0  0  0
  -16.8341  -25.8580   22.1962 N   0  0  0  0  0  0  0  0  0  0  0  0
  -26.2954  -17.0361   20.0814 N   0  0  0  0  0  0  0  0  0  0  0  0
  -25.7718  -30.6511   21.9424 N   0  0  0  0  0  0  0  0  0  0  0  0
  -23.9665  -20.0303   20.5355 N   0  0  0  0  0  0  0  0  0  0  0  0
  -23.4162  -22.2520   21.2312 N   0  0  0  0  0  0  0  0  0  0  0  0
  -28.5111  -17.7937   20.4381 N   0  0  0  0  0  0  0  0  0  0  0  0
  -28.8309  -13.3266   21.0203 N   0  0  0  0  0  0  0  0  0  0  0  0
  -28.0238  -28.4244   20.1349 N   0  0  0  0  0  0  0  0  0  0  0  0
  -25.1973  -33.3211   23.9422 N   0  0  0  0  0  0  0  0  0  0  0  0
  -21.5086  -23.9048   22.5510 N   0  3  0  0  0  0  0  0  0  0  0  0
  -22.2978  -35.3090   23.1004 N   0  3  0  0  0  0  0  0  0  0  0  0
  -30.0050  -15.2963   21.0449 O   0  0  0  0  0  0  0  0  0  0  0  0
  -27.1668  -28.5384   22.2971 O   0  0  0  0  0  0  0  0  0  0  0  0
  -27.3637  -32.3001   22.3697 O   0  0  0  0  0  0  0  0  0  0  0  0
  -22.9536  -32.7482   24.0640 O   0  0  0  0  0  0  0  0  0  0  0  0
  -25.1778  -21.1039   22.1763 O   0  0  0  0  0  0  0  0  0  0  0  0
  -24.6698   -9.6455   20.6087 O   0  0  0  0  0  0  0  0  0  0  0  0
  -20.8544  -26.9983   21.0539 O   0  0  0  0  0  0  0  0  0  1  0  0
  -19.9909   -8.6003   23.3326 F   0  0  0  0  0  0  0  0  0  0  0  0
  -22.2821  -10.7937   19.8191 F   0  0  0  0  0  0  0  0  0  0  0  0
  1  2  1  0  0  0  0
  1  5  2  0  0  0  0
  2  6  2  0  0  0  0
  3  8  2  0  0  0  0
  3 16  1  0  0  0  0
  4  9  1  0  0  0  0
  4 16  2  0  0  0  0
  5 18  1  0  0  0  0
  6 20  1  0  0  0  0
  7 10  2  0  0  0  0
  7 19  1  0  0  0  0
  8 24  1  0  0  0  0
  9 24  2  0  0  0  0
 10 25  1  0  0  0  0
 11 12  2  0  0  0  0
 11 26  1  0  0  0  0
 12 27  1  0  0  0  0
 13 21  1  0  0  0  0
 13 25  2  0  0  0  0
 14 22  2  0  0  0  0
 14 30  1  0  0  0  0
 15 27  2  0  0  0  0
 15 28  1  0  0  0  0
 16 29  1  0  0  0  0
 17 29  1  0  0  0  0
 17 32  2  0  0  0  0
 17 33  1  0  0  0  0
 18 20  2  0  0  0  0
 18 38  1  0  0  0  0
 19 21  2  0  0  0  0
 19 39  1  0  0  0  0
 20 51  1  0  0  0  0
 21 40  1  0  0  0  0
 22 23  1  0  0  0  0
 22 61  1  0  0  0  0
 23 31  2  0  0  0  0
 23 62  1  0  0  0  0
 24 83  1  0  0  0  0
 25 84  1  0  0  0  0
 26 28  2  0  0  0  0
 26 83  1  0  0  0  0
 27 85  1  0  0  0  0
 28 86  1  0  0  0  0
 29 66  2  0  0  0  0
 30 54  1  0  0  0  0
 30 67  2  0  0  0  0
 31 55  1  0  0  0  0
 31 67  1  0  0  0  0
 32 68  1  0  0  0  0
 32 72  1  0  0  0  0
 33 73  1  0  0  0  0
 33 78  2  0  0  0  0
 34 52  1  0  0  0  0
 34 74  1  0  0  0  0
 34 79  2  0  0  0  0
 35 63  1  0  0  0  0
 35 69  1  0  0  0  0
 35 80  2  0  0  0  0
 36 64  1  0  0  0  0
 36 75  1  0  0  0  0
 36 81  2  0  0  0  0
 37 70  1  0  0  0  0
 37 71  1  0  0  0  0
 37 82  2  0  0  0  0
 38 41  1  0  0  0  0
 39 52  1  0  0  0  0
 40 69  1  0  0  0  0
 41 43  1  0  0  0  0
 42 44  1  0  0  0  0
 42 45  1  0  0  0  0
 43 51  1  0  0  0  0
 44 53  1  0  0  0  0
 45 70  1  0  0  0  0
 46 49  1  0  0  0  0
 46 71  1  0  0  0  0
 47 50  1  0  0  0  0
 47 71  1  0  0  0  0
 48 53  1  0  0  0  0
 48 70  1  0  0  0  0
 49 76  1  0  0  0  0
 50 76  1  0  0  0  0
 51 74  1  0  0  0  0
 52 69  1  0  0  0  0
 53 68  1  0  0  0  0
 56 64  1  0  0  0  0
 57 65  1  0  0  0  0
 58 65  1  0  0  0  0
 59 65  1  0  0  0  0
 60 77  1  0  0  0  0
 61 76  1  0  0  0  0
 62 84  1  0  0  0  0
 63 65  1  0  0  0  0
 63 75  1  0  0  0  0
 64 77  1  0  0  0  0
 66 68  1  0  0  0  0
M  CHG  2  76   1  77   1
M  ISO  4  37 100  62 101  71 100  84 101
M  END
> <Batch ID>
0170

> <Smiles>
CNC(C)C(=O)NC(C(=O)N1Cc2cc([101O:1][101CH2:1]c3c(CN4CC[100N:0]([100C:0](=O)N5CCCC(n6nc(-c7ccc(Oc8ccc(F)cc8F)cc7)c(C(N)=O)c6N)C5)CC4)cc(C)nc3C)ccc2CC1C(=O)NC1CCCc2ccccc21)C(C)(C)C

> <Shape>
0.300

> <Color>
0.081

> <Negative vol penalty>
0.000

$$$$

  -OEChem-04052322353D

 89 99  0     1  0  0  0  0  0999 V2000
  -22.4345   -8.8772   20.7376 C   0  0  0  0  0  0  0  0  0  0  0  0
  -21.8939  -10.1578   20.6800 C   0  0  0  0  0  0  0  0  0  0  0  0
  -28.2606  -27.7434   19.3937 C   0  0  0  0  0  0  0  0  0  0  0  0
  -29.3552  -27.8981   21.5419 C   0  0  0  0  0  0  0  0  0  0  0  0
  -23.7092   -8.6832   21.2682 C   0  0  0  0  0  0  0  0  0  0  0  0
  -22.6273  -11.2450   21.1539 C   0  0  0  0  0  0  0  0  0  0  0  0
  -22.6369  -16.9410   18.9044 C   0  0  0  0  0  0  0  0  0  0  0  0
  -29.2198  -26.8231   18.9712 C   0  0  0  0  0  0  0  0  0  0  0  0
  -30.3144  -26.9777   21.1195 C   0  0  0  0  0  0  0  0  0  0  0  0
  -21.9707  -18.1032   19.2907 C   0  0  0  0  0  0  0  0  0  0  0  0
  -32.4061  -26.8865   17.8453 C   0  0  0  0  0  0  0  0  0  0  0  0
  -32.9518  -27.0581   16.5732 C   0  0  0  0  0  0  0  0  0  0  0  0
  -23.9115  -18.7910   20.5473 C   0  0  0  0  0  0  0  0  0  0  0  0
  -19.9237  -22.2390   17.5841 C   0  0  0  0  0  0  0  0  0  0  0  0
  -19.9891  -21.3228   19.8069 C   0  0  0  0  0  0  0  0  0  0  0  0
  -32.1342  -24.8780   15.9284 C   0  0  0  0  0  0  0  0  0  0  0  0
  -28.3283  -28.2810   20.6791 C   0  0  0  0  0  0  0  0  0  0  0  0
  -27.0511  -30.4850   20.5415 C   0  0  0  0  0  0  0  0  0  0  0  0
  -24.4625   -9.7697   21.7400 C   0  0  0  0  0  0  0  0  0  0  0  0
  -23.9438  -16.6895   19.3463 C   0  0  0  0  0  0  0  0  0  0  0  0
  -23.9127  -11.0651   21.6925 C   0  0  0  0  0  0  0  0  0  0  0  0
  -24.5931  -17.6261   20.1631 C   0  0  0  0  0  0  0  0  0  0  0  0
  -19.3127  -22.0234   18.8144 C   0  0  0  0  0  0  0  0  0  0  0  0
  -30.2467  -26.4402   19.8341 C   0  0  0  0  0  0  0  0  0  0  0  0
  -22.6069  -19.0270   20.1146 C   0  0  0  0  0  0  0  0  0  0  0  0
  -31.7245  -25.7105   18.1590 C   0  0  0  0  0  0  0  0  0  0  0  0
  -32.8158  -26.0539   15.6147 C   0  0  0  0  0  0  0  0  0  0  0  0
  -31.5886  -24.7063   17.2006 C   0  0  0  0  0  0  0  0  0  0  0  0
  -27.3381  -29.2321   21.1159 C   0  0  0  0  0  0  0  0  0  0  0  0
  -21.2019  -21.7375   17.3980 C   0  0  0  0  0  0  0  0  0  0  0  0
  -21.2644  -20.8623   19.5213 C   0  0  0  0  0  0  0  0  0  1  0  0
  -26.0398  -30.9952   21.3182 C   0  0  0  0  0  0  0  0  0  0  0  0
  -27.6456  -31.1298   19.4072 C   0  0  0  0  0  0  0  0  0  0  0  0
  -25.3193  -14.4321   21.1114 C   0  0  0  0  0  0  0  0  0  0  0  0
  -28.0430  -15.9782   20.2670 C   0  0  0  0  0  0  0  0  0  0  0  0
  -29.5309  -18.8691   19.2298 C   0  0  0  0  0  0  0  0  0  0  0  0
  -21.8689  -28.4435   24.7741 C   0  0  0  0  0  0  0  0  0  0  0  0
  -25.8168   -9.5046   22.3483 C   0  0  0  0  0  0  0  0  0  0  0  0
  -24.6584  -15.4438   18.8989 C   0  0  0  0  0  0  0  0  0  0  0  0
  -26.0029  -17.4128   20.6482 C   0  0  0  0  0  0  0  0  0  0  0  0
  -26.6789  -10.7570   22.4850 C   0  0  0  0  0  0  0  0  0  0  0  0
  -24.2999  -30.8456   25.7726 C   0  0  0  0  0  0  0  0  0  0  0  0
  -25.8663  -11.9019   23.0814 C   0  0  0  0  0  0  0  0  0  0  0  0
  -25.3283  -30.8175   24.6405 C   0  0  0  0  0  0  0  0  0  0  0  0
  -16.7841  -25.7928   20.3206 C   0  0  0  0  0  0  0  0  0  0  0  0
  -19.2061  -28.4951   22.7717 C   0  0  0  0  0  0  0  0  0  0  0  0
  -23.7325  -29.4561   26.0541 C   0  0  0  0  0  0  0  0  0  0  0  0
  -16.5697  -24.4922   19.5453 C   0  0  0  0  0  0  0  0  0  0  0  0
  -24.2036  -28.7364   23.7446 C   0  0  0  0  0  0  0  0  0  0  0  0
  -18.7187  -24.3745   20.4573 C   0  0  0  0  0  0  0  0  0  0  0  0
  -18.0138  -27.7086   22.2497 C   0  0  0  0  0  0  0  0  0  0  0  0
  -20.0197  -26.3117   22.3431 C   0  0  0  0  0  0  0  0  0  0  0  0
  -24.6872  -12.2728   22.1739 C   0  0  1  0  0  0  0  0  0  0  0  0
  -25.8015  -15.0448   19.8270 C   0  0  1  0  0  0  0  0  0  0  0  0
  -24.7630  -30.1239   23.3865 C   0  0  2  0  0  0  0  0  0  0  0  0
  -20.1121  -27.4290   23.3633 C   0  0  1  0  0  0  0  0  0  0  0  0
  -18.2772  -25.8158   20.6143 C   0  0  2  0  0  0  0  0  0  0  0  0
  -21.8881  -21.9503   16.0898 C   0  0  0  0  0  0  0  0  0  0  0  0
  -31.7762  -19.8352   18.6617 C   0  0  0  0  0  0  0  0  0  0  0  0
  -28.7180  -16.1502   23.2376 C   0  0  0  0  0  0  0  0  0  0  0  0
  -30.4160  -17.9031   22.6791 C   0  0  0  0  0  0  0  0  0  0  0  0
  -30.6567  -15.5975   21.7577 C   0  0  0  0  0  0  0  0  0  0  0  0
  -28.7045  -19.4548   16.4490 C   0  0  0  0  0  0  0  0  0  0  0  0
  -17.9379  -22.5407   19.0682 C   0  0  0  0  0  0  0  0  0  0  0  0
  -28.8510  -17.1143   20.8462 C   0  0  1  0  0  0  0  0  0  0  0  0
  -30.5323  -19.1457   18.1230 C   0  0  2  0  0  0  0  0  0  0  0  0
  -29.6331  -16.6947   22.1228 C   0  0  0  0  0  0  0  0  0  0  0  0
  -26.5711  -28.9630   22.1757 N   0  0  0  0  0  0  0  0  0  0  0  0
  -21.8904  -21.0523   18.3383 N   0  0  0  0  0  0  0  0  0  0  0  0
  -25.7923  -30.0539   22.2736 N   0  0  0  0  0  0  0  0  0  0  0  0
  -26.6573  -16.1766   20.1887 N   0  0  0  0  0  0  0  0  0  0  0  0
  -23.2113  -28.8540   24.8246 N   0  0  0  0  0  0  0  0  0  0  0  0
  -17.9202  -23.9777   19.2950 N   0  0  1  0  0  0  0  0  0  0  0  0
  -25.3470  -32.1529   21.2704 N   0  0  0  0  0  0  0  0  0  0  0  0
  -28.6727  -30.4653   18.7232 N   0  0  0  0  0  0  0  0  0  0  0  0
  -25.1432  -13.0629   21.0504 N   0  0  0  0  0  0  0  0  0  0  0  0
  -29.6950  -17.6084   19.7637 N   0  0  0  0  0  0  0  0  0  0  0  0
  -21.4544  -27.8888   23.5695 N   0  0  0  0  0  0  0  0  0  0  0  0
  -18.5504  -26.3148   21.9743 N   0  3  2  0  0  0  0  0  0  0  0  0
  -29.9242  -20.0205   17.0810 N   0  3  0  0  0  0  0  0  0  0  0  0
  -27.2881  -32.2687   19.0220 O   0  0  0  0  0  0  0  0  0  0  0  0
  -25.1230  -15.1483   22.0862 O   0  0  0  0  0  0  0  0  0  0  0  0
  -28.6210  -14.9553   19.8910 O   0  0  0  0  0  0  0  0  0  0  0  0
  -28.6898  -19.6907   19.5878 O   0  0  0  0  0  0  0  0  0  0  0  0
  -21.0957  -28.5673   25.7300 O   0  0  0  0  0  0  0  0  0  0  0  0
  -31.1827  -25.5420   19.4222 O   0  0  0  0  0  0  0  0  0  0  0  0
  -21.9586  -20.1619   20.4937 O   0  0  0  0  0  0  0  0  0  1  0  0
  -33.3386  -26.2195   14.3926 F   0  0  0  0  0  0  0  0  0  0  0  0
  -30.9339  -23.5749   17.4957 F   0  0  0  0  0  0  0  0  0  0  0  0
  1  2  1  0  0  0  0
  1  5  2  0  0  0  0
  2  6  2  0  0  0  0
  3  8  2  0  0  0  0
  3 17  1  0  0  0  0
  4  9  1  0  0  0  0
  4 17  2  0  0  0  0
  5 19  1  0  0  0  0
  6 21  1  0  0  0  0
  7 10  2  0  0  0  0
  7 20  1  0  0  0  0
  8 24  1  0  0  0  0
  9 24  2  0  0  0  0
 10 25  1  0  0  0  0
 11 12  2  0  0  0  0
 11 26  1  0  0  0  0
 12 27  1  0  0  0  0
 13 22  1  0  0  0  0
 13 25  2  0  0  0  0
 14 23  1  0  0  0  0
 14 30  2  0  0  0  0
 15 23  2  0  0  0  0
 15 31  1  0  0  0  0
 16 27  2  0  0  0  0
 16 28  1  0  0  0  0
 17 29  1  0  0  0  0
 18 29  1  0  0  0  0
 18 32  2  0  0  0  0
 18 33  1  0  0  0  0
 19 21  2  0  0  0  0
 19 38  1  0  0  0  0
 20 22  2  0  0  0  0
 20 39  1  0  0  0  0
 21 53  1  0  0  0  0
 22 40  1  0  0  0  0
 23 64  1  0  0  0  0
 24 86  1  0  0  0  0
 25 87  1  0  0  0  0
 26 28  2  0  0  0  0
 26 86  1  0  0  0  0
 27 88  1  0  0  0  0
 28 89  1  0  0  0  0
 29 68  2  0  0  0  0
 30 58  1  0  0  0  0
 30 69  1  0  0  0  0
 31 69  2  0  0  0  0
 31 87  1  0  0  0  0
 32 70  1  0  0  0  0
 32 74  1  0  0  0  0
 33 75  1  0  0  0  0
 33 81  2  0  0  0  0
 34 54  1  0  0  0  0
 34 76  1  0  0  0  0
 34 82  2  0  0  0  0
 35 65  1  0  0  0  0
 35 71  1  0  0  0  0
 35 83  2  0  0  0  0
 36 66  1  0  0  0  0
 36 77  1  0  0  0  0
 36 84  2  0  0  0  0
 37 72  1  0  0  0  0
 37 78  1  0  0  0  0
 37 85  2  0  0  0  0
 38 41  1  0  0  0  0
 39 54  1  0  0  0  0
 40 71  1  0  0  0  0
 41 43  1  0  0  0  0
 42 44  1  0  0  0  0
 42 47  1  0  0  0  0
 43 53  1  0  0  0  0
 44 55  1  0  0  0  0
 45 48  1  0  0  0  0
 45 57  1  0  0  0  0
 46 51  1  0  0  0  0
 46 56  1  0  0  0  0
 47 72  1  0  0  0  0
 48 73  1  0  0  0  0
 49 55  1  0  0  0  0
 49 72  1  0  0  0  0
 50 57  1  0  0  0  0
 50 73  1  0  0  0  0
 51 79  1  0  0  0  0
 52 56  1  0  0  0  0
 52 79  1  0  0  0  0
 53 76  1  0  0  0  0
 54 71  1  0  0  0  0
 55 70  1  0  0  0  0
 56 78  1  0  0  0  0
 57 79  1  0  0  0  0
 59 66  1  0  0  0  0
 60 67  1  0  0  0  0
 61 67  1  0  0  0  0
 62 67  1  0  0  0  0
 63 80  1  0  0  0  0
 64 73  1  0  0  0  0
 65 67  1  0  0  0  0
 65 77  1  0  0  0  0
 66 80  1  0  0  0  0
 68 70  1  0  0  0  0
M  CHG  2  79   1  80   1
M  ISO  4  31 101  37 100  78 100  87 101
M  END
> <Batch ID>
0170

> <Smiles>
CNC(C)C(=O)NC(C(=O)N1Cc2cc([101O:1][101c:1]3cc(CN4CCC(N5CCC([100NH:0][100C:0](=O)N6CCCC(n7nc(-c8ccc(Oc9ccc(F)cc9F)cc8)c(C(N)=O)c7N)C6)C5)C4)cc(C)n3)ccc2CC1C(=O)NC1CCCc2ccccc21)C(C)(C)C

> <Shape>
0.258

> <Color>
0.047

> <Negative vol penalty>
0.000

$$$$

  -OEChem-04052322353D

 93103  0     1  0  0  0  0  0999 V2000
  -27.9361  -31.5944   27.7391 C   0  0  0  0  0  0  0  0  0  0  0  0
  -28.0037  -30.6010   26.7674 C   0  0  0  0  0  0  0  0  0  0  0  0
  -23.4870  -10.4515   22.1351 C   0  0  0  0  0  0  0  0  0  0  0  0
  -24.7150   -8.6480   21.0976 C   0  0  0  0  0  0  0  0  0  0  0  0
  -26.7118  -32.1880   28.0434 C   0  0  0  0  0  0  0  0  0  0  0  0
  -26.8468  -30.2000   26.1002 C   0  0  0  0  0  0  0  0  0  0  0  0
  -27.5447  -29.7419   21.1054 C   0  0  0  0  0  0  0  0  0  0  0  0
  -22.3501   -9.6454   22.1908 C   0  0  0  0  0  0  0  0  0  0  0  0
  -23.5781   -7.8418   21.1533 C   0  0  0  0  0  0  0  0  0  0  0  0
  -28.1936  -28.5927   20.6559 C   0  0  0  0  0  0  0  0  0  0  0  0
  -21.9459   -5.9967   23.4668 C   0  0  0  0  0  0  0  0  0  0  0  0
  -22.1059   -4.6828   23.9067 C   0  0  0  0  0  0  0  0  0  0  0  0
  -30.9079  -22.6536   18.1544 C   0  0  0  0  0  0  0  0  0  0  0  0
  -26.0623  -27.6244   20.0734 C   0  0  0  0  0  0  0  0  0  0  0  0
  -29.2283  -23.9656   19.3225 C   0  0  0  0  0  0  0  0  0  0  0  0
  -21.2622   -3.8723   21.7928 C   0  0  0  0  0  0  0  0  0  0  0  0
  -24.6695   -9.9529   21.5884 C   0  0  0  0  0  0  0  0  0  0  0  0
  -26.8493  -10.9068   22.5081 C   0  0  0  0  0  0  0  0  0  0  0  0
  -25.5409  -31.8009   27.3727 C   0  0  0  0  0  0  0  0  0  0  0  0
  -26.1466  -29.8368   21.0523 C   0  0  0  0  0  0  0  0  0  0  0  0
  -25.6055  -30.7881   26.3968 C   0  0  0  0  0  0  0  0  0  0  0  0
  -31.7027  -23.7879   18.0829 C   0  0  0  0  0  0  0  0  0  0  0  0
  -25.3983  -28.7769   20.5205 C   0  0  0  0  0  0  0  0  0  0  0  0
  -31.2640  -25.0082   18.6143 C   0  0  0  0  0  0  0  0  0  0  0  0
  -30.0273  -25.1070   19.2372 C   0  0  0  0  0  0  0  0  0  0  0  0
  -29.6651  -22.7474   18.7834 C   0  0  0  0  0  0  0  0  0  0  0  0
  -22.3956   -8.3405   21.7000 C   0  0  0  0  0  0  0  0  0  0  0  0
  -27.4522  -27.5326   20.1425 C   0  0  0  0  0  0  0  0  0  0  0  0
  -21.4440   -6.2485   22.1899 C   0  0  0  0  0  0  0  0  0  0  0  0
  -21.7641   -3.6206   23.0697 C   0  0  0  0  0  0  0  0  0  0  0  0
  -21.1022   -5.1863   21.3529 C   0  0  0  0  0  0  0  0  0  0  0  0
  -25.8441  -10.7853   21.5301 C   0  0  0  0  0  0  0  0  0  0  0  0
  -27.7353  -11.8133   21.9791 C   0  0  0  0  0  0  0  0  0  0  0  0
  -26.9714  -10.2583   23.7810 C   0  0  0  0  0  0  0  0  0  0  0  0
  -23.8377  -30.1759   23.2104 C   0  0  0  0  0  0  0  0  0  0  0  0
  -21.9545  -30.4398   20.5824 C   0  0  0  0  0  0  0  0  0  0  0  0
  -21.4917  -29.7617   17.2699 C   0  0  0  0  0  0  0  0  0  0  0  0
  -28.9550  -16.4006   19.4742 C   0  0  0  0  0  0  0  0  0  0  0  0
  -24.2327  -32.4381   27.7693 C   0  0  0  0  0  0  0  0  0  0  0  0
  -25.4635  -31.0939   21.5164 C   0  0  0  0  0  0  0  0  0  0  0  0
  -23.8965  -28.8371   20.4228 C   0  0  0  0  0  0  0  0  0  0  0  0
  -23.1157  -32.2198   26.7520 C   0  0  0  0  0  0  0  0  0  0  0  0
  -28.0931  -13.7570   17.3300 C   0  0  0  0  0  0  0  0  0  0  0  0
  -23.0681  -30.7585   26.3169 C   0  0  0  0  0  0  0  0  0  0  0  0
  -27.5058  -12.7466   18.3151 C   0  0  0  0  0  0  0  0  0  0  0  0
  -27.9561  -19.4950   18.1268 C   0  0  0  0  0  0  0  0  0  0  0  0
  -30.1879  -19.6338   19.2962 C   0  0  0  0  0  0  0  0  0  0  0  0
  -27.6684  -15.1897   17.6571 C   0  0  0  0  0  0  0  0  0  0  0  0
  -28.2968  -18.0693   17.6829 C   0  0  0  0  0  0  0  0  0  0  0  0
  -30.4951  -18.2212   18.8070 C   0  0  0  0  0  0  0  0  0  0  0  0
  -27.3658  -14.5860   20.0367 C   0  0  0  0  0  0  0  0  0  0  0  0
  -24.3766  -30.3434   25.6337 C   0  0  1  0  0  0  0  0  0  0  0  0
  -33.0544  -23.9367   17.4490 C   0  0  2  0  0  0  0  0  0  0  0  0
  -24.0008  -30.8758   21.8909 C   0  0  1  0  0  0  0  0  0  0  0  0
  -27.8223  -13.1436   19.7680 C   0  0  1  0  0  0  0  0  0  0  0  0
  -29.2181  -20.3340   18.3408 C   0  0  0  0  0  0  0  0  0  0  0  0
  -32.2860  -26.0956   18.3786 C   0  0  0  0  0  0  0  0  0  0  0  0
  -34.0620  -22.8773   17.8746 C   0  0  0  0  0  0  0  0  0  0  0  0
  -32.6848  -26.8633   19.6452 C   0  0  0  0  0  0  0  0  0  0  0  0
  -31.7980  -27.0475   17.2767 C   0  0  0  0  0  0  0  0  0  0  0  0
  -19.8381  -30.0719   15.4079 C   0  0  0  0  0  0  0  0  0  0  0  0
  -35.4046  -24.9434   16.3516 C   0  0  0  0  0  0  0  0  0  0  0  0
  -35.2462  -27.0767   17.6925 C   0  0  0  0  0  0  0  0  0  0  0  0
  -20.2205  -28.2204   21.7559 C   0  0  0  0  0  0  0  0  0  0  0  0
  -19.1910  -27.9237   19.4930 C   0  0  0  0  0  0  0  0  0  0  0  0
  -18.9438  -30.0933   20.6990 C   0  0  0  0  0  0  0  0  0  0  0  0
  -23.4164  -31.3386   15.6675 C   0  0  0  0  0  0  0  0  0  0  0  0
  -29.5067  -26.3849   19.7988 C   0  0  0  0  0  0  0  0  0  1  0  0
  -21.1879  -29.4710   19.7148 C   0  0  1  0  0  0  0  0  0  0  0  0
  -21.0590  -30.6431   16.1121 C   0  0  2  0  0  0  0  0  0  0  0  0
  -34.4818  -25.9946   16.9470 C   0  0  0  0  0  0  0  0  0  0  0  0
  -19.9140  -28.9249   20.4192 C   0  0  0  0  0  0  0  0  0  0  0  0
  -26.0695  -11.5533   20.4608 N   0  0  0  0  0  0  0  0  0  0  0  0
  -27.2265  -12.1661   20.7638 N   0  0  0  0  0  0  0  0  0  0  0  0
  -23.2744  -30.0850   20.8954 N   0  0  0  0  0  0  0  0  0  0  0  0
  -27.9532  -15.5087   19.0631 N   0  0  0  0  0  0  0  0  0  0  0  0
  -29.2652  -17.4551   18.6025 N   0  0  0  0  0  0  0  0  0  0  0  0
  -28.8921  -12.3351   22.4395 N   0  0  0  0  0  0  0  0  0  0  0  0
  -25.9722   -9.3555   24.1694 N   0  0  0  0  0  0  0  0  0  0  0  0
  -28.8549  -21.6293   18.8721 N   0  0  0  0  0  0  0  0  0  0  0  0
  -24.4169  -30.8398   24.2749 N   0  0  0  0  0  0  0  0  0  0  0  0
  -20.9250  -30.1669   18.4598 N   0  0  0  0  0  0  0  0  0  0  0  0
  -33.5519  -25.3200   17.9101 N   0  3  2  0  0  0  0  0  0  0  0  0
  -22.1605  -30.7677   15.1161 N   0  3  0  0  0  0  0  0  0  0  0  0
  -27.9294  -10.4854   24.5582 O   0  0  0  0  0  0  0  0  0  0  0  0
  -23.2299  -29.1129   23.2594 O   0  0  0  0  0  0  0  0  0  0  0  0
  -21.4050  -31.4768   20.9623 O   0  0  0  0  0  0  0  0  0  0  0  0
  -22.2530  -28.8068   17.1318 O   0  0  0  0  0  0  0  0  0  0  0  0
  -29.5383  -16.2631   20.5567 O   0  0  0  0  0  0  0  0  0  0  0  0
  -21.2864   -7.5535   21.7544 O   0  0  0  0  0  0  0  0  0  0  0  0
  -28.0873  -26.4019   19.7008 O   0  0  0  0  0  0  0  0  0  1  0  0
  -21.9193   -2.3588   23.4917 F   0  0  0  0  0  0  0  0  0  0  0  0
  -20.6206   -5.4219   20.1248 F   0  0  0  0  0  0  0  0  0  0  0  0
  1  2  1  0  0  0  0
  1  5  2  0  0  0  0
  2  6  2  0  0  0  0
  3  8  2  0  0  0  0
  3 17  1  0  0  0  0
  4  9  1  0  0  0  0
  4 17  2  0  0  0  0
  5 19  1  0  0  0  0
  6 21  1  0  0  0  0
  7 10  2  0  0  0  0
  7 20  1  0  0  0  0
  8 27  1  0  0  0  0
  9 27  2  0  0  0  0
 10 28  1  0  0  0  0
 11 12  2  0  0  0  0
 11 29  1  0  0  0  0
 12 30  1  0  0  0  0
 13 22  2  0  0  0  0
 13 26  1  0  0  0  0
 14 23  1  0  0  0  0
 14 28  2  0  0  0  0
 15 25  1  0  0  0  0
 15 26  2  0  0  0  0
 16 30  2  0  0  0  0
 16 31  1  0  0  0  0
 17 32  1  0  0  0  0
 18 32  1  0  0  0  0
 18 33  2  0  0  0  0
 18 34  1  0  0  0  0
 19 21  2  0  0  0  0
 19 39  1  0  0  0  0
 20 23  2  0  0  0  0
 20 40  1  0  0  0  0
 21 52  1  0  0  0  0
 22 24  1  0  0  0  0
 22 53  1  0  0  0  0
 23 41  1  0  0  0  0
 24 25  2  0  0  0  0
 24 57  1  0  0  0  0
 25 68  1  0  0  0  0
 26 80  1  0  0  0  0
 27 90  1  0  0  0  0
 28 91  1  0  0  0  0
 29 31  2  0  0  0  0
 29 90  1  0  0  0  0
 30 92  1  0  0  0  0
 31 93  1  0  0  0  0
 32 73  2  0  0  0  0
 33 74  1  0  0  0  0
 33 78  1  0  0  0  0
 34 79  1  0  0  0  0
 34 85  2  0  0  0  0
 35 54  1  0  0  0  0
 35 81  1  0  0  0  0
 35 86  2  0  0  0  0
 36 69  1  0  0  0  0
 36 75  1  0  0  0  0
 36 87  2  0  0  0  0
 37 70  1  0  0  0  0
 37 82  1  0  0  0  0
 37 88  2  0  0  0  0
 38 76  1  0  0  0  0
 38 77  1  0  0  0  0
 38 89  2  0  0  0  0
 39 42  1  0  0  0  0
 40 54  1  0  0  0  0
 41 75  1  0  0  0  0
 42 44  1  0  0  0  0
 43 45  1  0  0  0  0
 43 48  1  0  0  0  0
 44 52  1  0  0  0  0
 45 55  1  0  0  0  0
 46 49  1  0  0  0  0
 46 56  1  0  0  0  0
 47 50  1  0  0  0  0
 47 56  1  0  0  0  0
 48 76  1  0  0  0  0
 49 77  1  0  0  0  0
 50 77  1  0  0  0  0
 51 55  1  0  0  0  0
 51 76  1  0  0  0  0
 52 81  1  0  0  0  0
 53 58  1  0  0  0  0
 53 83  1  0  0  0  0
 54 75  1  0  0  0  0
 55 74  1  0  0  0  0
 56 80  1  0  0  0  0
 57 59  1  0  0  0  0
 57 60  1  0  0  0  0
 57 83  1  0  0  0  0
 61 70  1  0  0  0  0
 62 71  1  0  0  0  0
 63 71  1  0  0  0  0
 64 72  1  0  0  0  0
 65 72  1  0  0  0  0
 66 72  1  0  0  0  0
 67 84  1  0  0  0  0
 68 91  1  0  0  0  0
 69 72  1  0  0  0  0
 69 82  1  0  0  0  0
 70 84  1  0  0  0  0
 71 83  1  0  0  0  0
 73 74  1  0  0  0  0
M  CHG  2  83   1  84   1
M  ISO  4  38 100  68 101  77 100  91 101
M  END
> <Batch ID>
0170

> <Smiles>
CNC(C)C(=O)NC(C(=O)N1Cc2cc([101O:1][101CH2:1]c3cc(NC4CC[100N:0]([100C:0](=O)N5CCCC(n6nc(-c7ccc(Oc8ccc(F)cc8F)cc7)c(C(N)=O)c6N)C5)CC4)cc4c3C(C)(C)N(C(C)C)C4C)ccc2CC1C(=O)NC1CCCc2ccccc21)C(C)(C)C

> <Shape>
0.310

> <Color>
0.102

> <Negative vol penalty>
0.000

$$$$

  -OEChem-04052322353D

 86 96  0     1  0  0  0  0  0999 V2000
  -18.9521  -33.0852   25.0070 C   0  0  0  0  0  0  0  0  0  0  0  0
  -20.2682  -33.1654   24.5632 C   0  0  0  0  0  0  0  0  0  0  0  0
  -23.4022  -14.5135   20.6771 C   0  0  0  0  0  0  0  0  0  0  0  0
  -25.7910  -14.6878   20.3605 C   0  0  0  0  0  0  0  0  0  0  0  0
  -18.3465  -31.8397   25.1678 C   0  0  0  0  0  0  0  0  0  0  0  0
  -20.9798  -31.9999   24.2810 C   0  0  0  0  0  0  0  0  0  0  0  0
  -28.7675  -24.6640   15.9917 C   0  0  0  0  0  0  0  0  0  0  0  0
  -26.0483  -29.4783   19.8915 C   0  0  0  0  0  0  0  0  0  0  0  0
  -29.3733  -25.5981   16.8320 C   0  0  0  0  0  0  0  0  0  0  0  0
  -23.5699  -13.2522   21.2486 C   0  0  0  0  0  0  0  0  0  0  0  0
  -25.9588  -13.4265   20.9320 C   0  0  0  0  0  0  0  0  0  0  0  0
  -27.2674  -28.8028   19.9294 C   0  0  0  0  0  0  0  0  0  0  0  0
  -24.1116  -10.0893   20.1872 C   0  0  0  0  0  0  0  0  0  0  0  0
  -23.2486   -9.0730   19.7775 C   0  0  0  0  0  0  0  0  0  0  0  0
  -29.2020  -22.9250   17.6117 C   0  0  0  0  0  0  0  0  0  0  0  0
  -26.0930  -26.7093   20.1680 C   0  0  0  0  0  0  0  0  0  0  0  0
  -22.4731   -8.8150   22.0511 C   0  0  0  0  0  0  0  0  0  0  0  0
  -24.5127  -15.2313   20.2330 C   0  0  0  0  0  0  0  0  0  0  0  0
  -24.3378  -17.7752   20.3062 C   0  0  0  0  0  0  0  0  0  0  0  0
  -28.6819  -23.3274   16.3816 C   0  0  0  0  0  0  0  0  0  0  0  0
  -19.0479  -30.6587   24.8781 C   0  0  0  0  0  0  0  0  0  0  0  0
  -24.8407  -28.7743   20.0027 C   0  0  0  0  0  0  0  0  0  0  0  0
  -20.3834  -30.7374   24.4393 C   0  0  0  0  0  0  0  0  0  0  0  0
  -29.8078  -23.8592   18.4520 C   0  0  0  0  0  0  0  0  0  0  0  0
  -24.8599  -27.3779   20.1286 C   0  0  0  0  0  0  0  0  0  0  0  0
  -29.8934  -25.1957   18.0621 C   0  0  0  0  0  0  0  0  0  0  0  0
  -24.8482  -12.7087   21.3761 C   0  0  0  0  0  0  0  0  0  0  0  0
  -27.2899  -27.4184   20.0706 C   0  0  0  0  0  0  0  0  0  0  0  0
  -24.1555  -10.4684   21.5289 C   0  0  0  0  0  0  0  0  0  0  0  0
  -22.4293   -8.4358   20.7094 C   0  0  0  0  0  0  0  0  0  0  0  0
  -23.3362   -9.8313   22.4608 C   0  0  0  0  0  0  0  0  0  0  0  0
  -24.3401  -16.5340   19.6420 C   0  0  0  0  0  0  0  0  0  0  0  0
  -24.1391  -18.6981   19.3085 C   0  0  0  0  0  0  0  0  0  0  0  0
  -24.5007  -18.0678   21.7002 C   0  0  0  0  0  0  0  0  0  0  0  0
  -22.4293  -28.7699   22.0736 C   0  0  0  0  0  0  0  0  0  0  0  0
  -21.0934  -26.7474   19.9179 C   0  0  0  0  0  0  0  0  0  0  0  0
  -21.5416  -24.5011   17.3881 C   0  0  0  0  0  0  0  0  0  0  0  0
  -25.4355  -20.5404   14.1332 C   0  0  0  0  0  0  0  0  0  0  0  0
  -18.3666  -29.3337   25.1124 C   0  0  0  0  0  0  0  0  0  0  0  0
  -23.5334  -29.5150   19.9331 C   0  0  0  0  0  0  0  0  0  0  0  0
  -23.5907  -26.5735   20.2316 C   0  0  0  0  0  0  0  0  0  0  0  0
  -19.0676  -28.1599   24.4334 C   0  0  0  0  0  0  0  0  0  0  0  0
  -22.7944  -18.1256   14.4888 C   0  0  0  0  0  0  0  0  0  0  0  0
  -29.7825  -22.1741   20.4100 C   0  0  0  0  0  0  0  0  0  0  0  0
  -29.5014  -23.5225   20.9958 C   0  0  0  0  0  0  0  0  0  0  0  0
  -20.5709  -28.2175   24.6857 C   0  0  0  0  0  0  0  0  0  0  0  0
  -22.9897  -17.5566   15.8901 C   0  0  0  0  0  0  0  0  0  0  0  0
  -24.1336  -18.4640   13.8476 C   0  0  0  0  0  0  0  0  0  0  0  0
  -27.1144  -21.1530   16.0479 C   0  0  0  0  0  0  0  0  0  0  0  0
  -26.7366  -22.6804   14.6275 C   0  0  0  0  0  0  0  0  0  0  0  0
  -25.1435  -18.9019   16.0707 C   0  0  0  0  0  0  0  0  0  0  0  0
  -27.9933  -22.2656   15.4269 C   0  0  0  0  0  0  0  0  0  0  0  0
  -30.3583  -23.4057   19.7636 C   0  0  0  0  0  0  0  0  0  0  0  0
  -21.1802  -29.4966   24.0991 C   0  0  1  0  0  0  0  0  0  0  0  0
  -22.3785  -28.7499   20.5721 C   0  0  1  0  0  0  0  0  0  0  0  0
  -23.8136  -18.5236   16.7524 C   0  0  2  0  0  0  0  0  0  0  0  0
  -31.7823  -26.8432   18.2849 C   0  0  0  0  0  0  0  0  0  0  0  0
  -20.2632  -22.9850   15.8503 C   0  0  0  0  0  0  0  0  0  0  0  0
  -20.6692  -24.7816   22.2126 C   0  0  0  0  0  0  0  0  0  0  0  0
  -20.2923  -22.9843   20.5109 C   0  0  0  0  0  0  0  0  0  0  0  0
  -18.7545  -24.9458   20.6122 C   0  0  0  0  0  0  0  0  0  0  0  0
  -22.5292  -25.9159   14.9835 C   0  0  0  0  0  0  0  0  0  0  0  0
  -29.5650  -27.3315   19.3834 C   0  0  0  0  0  0  0  0  0  1  0  0
  -30.5382  -26.2151   18.9429 C   0  0  1  0  0  0  0  0  0  0  0  0
  -21.0964  -25.2522   19.7101 C   0  0  1  0  0  0  0  0  0  0  0  0
  -20.8745  -24.3658   16.0312 C   0  0  2  0  0  0  0  0  0  0  0  0
  -20.2272  -24.5060   20.7615 C   0  0  0  0  0  0  0  0  0  0  0  0
  -24.1572  -16.6539   18.3244 N   0  0  0  0  0  0  0  0  0  0  0  0
  -24.0380  -17.9814   18.1525 N   0  0  0  0  0  0  0  0  0  0  0  0
  -22.3380  -27.3440   20.1649 N   0  0  0  0  0  0  0  0  0  0  0  0
  -24.9384  -19.3558   14.6881 N   0  0  0  0  0  0  0  0  0  0  0  0
  -26.2166  -21.3509   14.9228 N   0  0  0  0  0  0  0  0  0  0  0  0
  -24.0426  -20.0446   19.3161 N   0  0  0  0  0  0  0  0  0  0  0  0
  -24.6955  -17.0014   22.5885 N   0  0  0  0  0  0  0  0  0  0  0  0
  -21.3351  -29.3712   22.6656 N   0  0  0  0  0  0  0  0  0  0  0  0
  -20.6837  -25.0312   18.3284 N   0  0  0  0  0  0  0  0  0  0  0  0
  -21.8669  -24.5867   14.9417 N   0  3  0  0  0  0  0  0  0  0  0  0
  -24.4580  -19.2391   22.1472 O   0  0  0  0  0  0  0  0  0  0  0  0
  -23.3895  -28.2750   22.6523 O   0  0  0  0  0  0  0  0  0  0  0  0
  -20.0270  -27.3644   19.8559 O   0  0  0  0  0  0  0  0  0  0  0  0
  -22.7061  -24.1664   17.5941 O   0  0  0  0  0  0  0  0  0  0  0  0
  -25.2142  -20.8534   12.9559 O   0  0  0  0  0  0  0  0  0  0  0  0
  -25.0123  -11.4781   21.9339 O   0  0  0  0  0  0  0  0  0  0  0  0
  -28.4862  -26.7523   20.1088 O   0  0  0  0  0  0  0  0  0  1  0  0
  -21.5994   -7.4609   20.3156 F   0  0  0  0  0  0  0  0  0  0  0  0
  -23.3730  -10.1920   23.7509 F   0  0  0  0  0  0  0  0  0  0  0  0
  1  2  1  0  0  0  0
  1  5  2  0  0  0  0
  2  6  2  0  0  0  0
  3 10  2  0  0  0  0
  3 18  1  0  0  0  0
  4 11  1  0  0  0  0
  4 18  2  0  0  0  0
  5 21  1  0  0  0  0
  6 23  1  0  0  0  0
  7  9  2  0  0  0  0
  7 20  1  0  0  0  0
  8 12  2  0  0  0  0
  8 22  1  0  0  0  0
  9 26  1  0  0  0  0
 10 27  1  0  0  0  0
 11 27  2  0  0  0  0
 12 28  1  0  0  0  0
 13 14  2  0  0  0  0
 13 29  1  0  0  0  0
 14 30  1  0  0  0  0
 15 20  2  0  0  0  0
 15 24  1  0  0  0  0
 16 25  1  0  0  0  0
 16 28  2  0  0  0  0
 17 30  2  0  0  0  0
 17 31  1  0  0  0  0
 18 32  1  0  0  0  0
 19 32  1  0  0  0  0
 19 33  2  0  0  0  0
 19 34  1  0  0  0  0
 20 52  1  0  0  0  0
 21 23  2  0  0  0  0
 21 39  1  0  0  0  0
 22 25  2  0  0  0  0
 22 40  1  0  0  0  0
 23 54  1  0  0  0  0
 24 26  2  0  0  0  0
 24 53  1  0  0  0  0
 25 41  1  0  0  0  0
 26 64  1  0  0  0  0
 27 83  1  0  0  0  0
 28 84  1  0  0  0  0
 29 31  2  0  0  0  0
 29 83  1  0  0  0  0
 30 85  1  0  0  0  0
 31 86  1  0  0  0  0
 32 68  2  0  0  0  0
 33 69  1  0  0  0  0
 33 73  1  0  0  0  0
 34 74  1  0  0  0  0
 34 78  2  0  0  0  0
 35 55  1  0  0  0  0
 35 75  1  0  0  0  0
 35 79  2  0  0  0  0
 36 65  1  0  0  0  0
 36 70  1  0  0  0  0
 36 80  2  0  0  0  0
 37 66  1  0  0  0  0
 37 76  1  0  0  0  0
 37 81  2  0  0  0  0
 38 71  1  0  0  0  0
 38 72  1  0  0  0  0
 38 82  2  0  0  0  0
 39 42  1  0  0  0  0
 40 55  1  0  0  0  0
 41 70  1  0  0  0  0
 42 46  1  0  0  0  0
 43 47  1  0  0  0  0
 43 48  1  0  0  0  0
 44 45  1  0  0  0  0
 44 53  1  0  0  0  0
 45 53  1  0  0  0  0
 46 54  1  0  0  0  0
 47 56  1  0  0  0  0
 48 71  1  0  0  0  0
 49 52  1  0  0  0  0
 49 72  1  0  0  0  0
 50 52  1  0  0  0  0
 50 72  1  0  0  0  0
 51 56  1  0  0  0  0
 51 71  1  0  0  0  0
 54 75  1  0  0  0  0
 55 70  1  0  0  0  0
 56 69  1  0  0  0  0
 57 64  1  0  0  0  0
 58 66  1  0  0  0  0
 59 67  1  0  0  0  0
 60 67  1  0  0  0  0
 61 67  1  0  0  0  0
 62 77  1  0  0  0  0
 63 64  1  0  0  0  0
 63 84  1  0  0  0  0
 65 67  1  0  0  0  0
 65 76  1  0  0  0  0
 66 77  1  0  0  0  0
 68 69  1  0  0  0  0
M  CHG  1  77   1
M  ISO  4  38 100  63 101  72 100  84 101
M  END
> <Batch ID>
0170

> <Smiles>
CNC(C)C(=O)NC(C(=O)N1Cc2cc([101O:1][101CH2:1]C(C)c3ccc(C4C[100N:0]([100C:0](=O)N5CCCC(n6nc(-c7ccc(Oc8ccc(F)cc8F)cc7)c(C(N)=O)c6N)C5)C4)cc3C3CC3)ccc2CC1C(=O)NC1CCCc2ccccc21)C(C)(C)C

> <Shape>
0.216

> <Color>
0.089

> <Negative vol penalty>
0.000

$$$$

  -OEChem-04052322353D

 88 98  0     1  0  0  0  0  0999 V2000
  -23.8183  -30.8091   22.3017 C   0  0  0  0  0  0  0  0  0  0  0  0
  -24.4663  -29.6917   22.8183 C   0  0  0  0  0  0  0  0  0  0  0  0
  -23.1852   -9.6926   19.9770 C   0  0  0  0  0  0  0  0  0  0  0  0
  -23.6435   -9.9906   22.3303 C   0  0  0  0  0  0  0  0  0  0  0  0
  -24.0531  -31.2030   20.9850 C   0  0  0  0  0  0  0  0  0  0  0  0
  -25.3487  -28.9668   22.0181 C   0  0  0  0  0  0  0  0  0  0  0  0
  -30.4683  -26.1292   23.8189 C   0  0  0  0  0  0  0  0  0  0  0  0
  -22.4490   -8.5437   20.2658 C   0  0  0  0  0  0  0  0  0  0  0  0
  -22.9072   -8.8416   22.6192 C   0  0  0  0  0  0  0  0  0  0  0  0
  -30.7431  -24.7983   24.1305 C   0  0  0  0  0  0  0  0  0  0  0  0
  -23.3631   -5.4939   22.4953 C   0  0  0  0  0  0  0  0  0  0  0  0
  -23.9105   -4.5836   23.3993 C   0  0  0  0  0  0  0  0  0  0  0  0
  -31.5544  -24.4468   21.8860 C   0  0  0  0  0  0  0  0  0  0  0  0
  -32.3751  -18.1060   25.2268 C   0  0  0  0  0  0  0  0  0  0  0  0
  -21.9996   -4.8739   24.8488 C   0  0  0  0  0  0  0  0  0  0  0  0
  -23.7826  -10.4161   21.0093 C   0  0  0  0  0  0  0  0  0  0  0  0
  -24.0640  -12.9241   20.6378 C   0  0  0  0  0  0  0  0  0  0  0  0
  -24.9462  -30.4883   20.1713 C   0  0  0  0  0  0  0  0  0  0  0  0
  -30.7248  -26.6268   22.5333 C   0  0  0  0  0  0  0  0  0  0  0  0
  -25.5946  -29.3507   20.6889 C   0  0  0  0  0  0  0  0  0  0  0  0
  -31.2844  -25.7850   21.5615 C   0  0  0  0  0  0  0  0  0  0  0  0
  -31.2238  -18.4442   24.5157 C   0  0  0  0  0  0  0  0  0  0  0  0
  -32.7992  -20.4459   25.6532 C   0  0  0  0  0  0  0  0  0  0  0  0
  -30.8602  -19.7832   24.3733 C   0  0  0  0  0  0  0  0  0  0  0  0
  -31.6479  -20.7842   24.9420 C   0  0  0  0  0  0  0  0  0  0  0  0
  -22.3099   -8.1182   21.5869 C   0  0  0  0  0  0  0  0  0  0  0  0
  -31.2835  -23.9561   23.1631 C   0  0  0  0  0  0  0  0  0  0  0  0
  -22.1339   -6.0943   22.7681 C   0  0  0  0  0  0  0  0  0  0  0  0
  -33.1628  -19.1068   25.7957 C   0  0  0  0  0  0  0  0  0  0  0  0
  -23.2288   -4.2736   24.5761 C   0  0  0  0  0  0  0  0  0  0  0  0
  -21.4522   -5.7843   23.9448 C   0  0  0  0  0  0  0  0  0  0  0  0
  -24.5437  -11.6027   20.7115 C   0  0  0  0  0  0  0  0  0  0  0  0
  -25.1717  -13.6748   20.3279 C   0  0  0  0  0  0  0  0  0  0  0  0
  -22.7358  -13.4281   20.8321 C   0  0  0  0  0  0  0  0  0  0  0  0
  -28.9425  -27.8624   20.2094 C   0  0  0  0  0  0  0  0  0  0  0  0
  -31.8220  -28.3883   18.8116 C   0  0  0  0  0  0  0  0  0  0  0  0
  -35.1134  -27.5268   18.5445 C   0  0  0  0  0  0  0  0  0  0  0  0
  -30.5552  -14.9048   21.1039 C   0  0  0  0  0  0  0  0  0  0  0  0
  -25.1319  -30.9245   18.7395 C   0  0  0  0  0  0  0  0  0  0  0  0
  -30.4476  -28.0718   22.2210 C   0  0  0  0  0  0  0  0  0  0  0  0
  -31.5971  -26.2757   20.1723 C   0  0  0  0  0  0  0  0  0  0  0  0
  -26.3668  -30.3220   18.0745 C   0  0  0  0  0  0  0  0  0  0  0  0
  -29.7878  -12.3024   18.8408 C   0  0  0  0  0  0  0  0  0  0  0  0
  -34.1759  -22.6161   25.3905 C   0  0  0  0  0  0  0  0  0  0  0  0
  -35.1104  -21.5718   25.9164 C   0  0  0  0  0  0  0  0  0  0  0  0
  -26.4482  -28.8251   18.3563 C   0  0  0  0  0  0  0  0  0  0  0  0
  -28.3283  -11.9665   19.1346 C   0  0  0  0  0  0  0  0  0  0  0  0
  -30.4305  -15.9721   24.6109 C   0  0  0  0  0  0  0  0  0  0  0  0
  -30.5348  -12.6374   20.1248 C   0  0  0  0  0  0  0  0  0  0  0  0
  -29.8501  -15.0310   23.5638 C   0  0  0  0  0  0  0  0  0  0  0  0
  -30.7820  -16.9528   22.4772 C   0  0  0  0  0  0  0  0  0  0  0  0
  -28.4548  -13.4747   21.1844 C   0  0  0  0  0  0  0  0  0  0  0  0
  -30.3870  -17.3394   23.9095 C   0  0  2  0  0  0  0  0  0  0  0  0
  -33.6487  -21.5130   26.2667 C   0  0  0  0  0  0  0  0  0  0  0  0
  -26.5778  -28.5531   19.8598 C   0  0  1  0  0  0  0  0  0  0  0  0
  -30.2698  -28.3373   20.7293 C   0  0  1  0  0  0  0  0  0  0  0  0
  -27.6570  -13.1061   19.9166 C   0  0  2  0  0  0  0  0  0  0  0  0
  -29.6244  -20.1434   23.6109 C   0  0  0  0  0  0  0  0  0  0  0  0
  -37.2070  -28.1108   17.2902 C   0  0  0  0  0  0  0  0  0  0  0  0
  -30.7586  -26.9197   16.3575 C   0  0  0  0  0  0  0  0  0  0  0  0
  -33.1190  -26.7001   15.5524 C   0  0  0  0  0  0  0  0  0  0  0  0
  -32.1090  -28.9619   15.8473 C   0  0  0  0  0  0  0  0  0  0  0  0
  -36.5302  -28.2832   21.0303 C   0  0  0  0  0  0  0  0  0  0  0  0
  -34.1352  -18.5173   27.8843 C   0  0  0  0  0  0  0  0  0  0  0  0
  -31.2567  -22.2204   24.7887 C   0  0  0  0  0  0  0  0  0  1  0  0
  -32.7220  -27.6024   17.8889 C   0  0  1  0  0  0  0  0  0  0  0  0
  -36.3774  -28.3675   18.5387 C   0  0  2  0  0  0  0  0  0  0  0  0
  -32.1696  -27.5360   16.4370 C   0  0  0  0  0  0  0  0  0  0  0  0
  -25.8541  -11.5155   20.4679 N   0  0  0  0  0  0  0  0  0  0  0  0
  -26.2072  -12.7916   20.2380 N   0  0  0  0  0  0  0  0  0  0  0  0
  -31.3024  -27.6948   19.9138 N   0  0  0  0  0  0  0  0  0  0  0  0
  -29.8724  -13.7047   20.8768 N   0  0  0  0  0  0  0  0  0  0  0  0
  -30.2907  -15.5916   22.2882 N   0  0  0  0  0  0  0  0  0  0  0  0
  -25.3512  -14.9974   20.1262 N   0  0  0  0  0  0  0  0  0  0  0  0
  -21.7156  -12.5195   21.1451 N   0  0  0  0  0  0  0  0  0  0  0  0
  -27.9328  -28.8011   20.3034 N   0  0  0  0  0  0  0  0  0  0  0  0
  -34.0455  -28.2063   17.9976 N   0  0  0  0  0  0  0  0  0  0  0  0
  -37.2138  -28.0535   19.7315 N   0  3  0  0  0  0  0  0  0  0  0  0
  -22.4588  -14.6459   20.7151 O   0  0  0  0  0  0  0  0  0  0  0  0
  -28.8421  -26.7287   19.7551 O   0  0  0  0  0  0  0  0  0  0  0  0
  -31.5943  -29.5758   18.5674 O   0  0  0  0  0  0  0  0  0  0  0  0
  -35.0778  -26.3805   18.9863 O   0  0  0  0  0  0  0  0  0  0  0  0
  -31.3987  -15.3263   20.3009 O   0  0  0  0  0  0  0  0  0  0  0  0
  -21.5914   -6.9972   21.8692 O   0  0  0  0  0  0  0  0  0  0  0  0
  -34.2839  -18.7554   26.4863 O   0  0  0  0  0  0  0  0  0  0  0  0
  -31.5541  -22.6468   23.4666 O   0  0  0  0  0  0  0  0  0  1  0  0
  -23.7539   -3.3982   25.4434 F   0  0  0  0  0  0  0  0  0  0  0  0
  -20.2704   -6.3570   24.2118 F   0  0  0  0  0  0  0  0  0  0  0  0
  1  2  1  0  0  0  0
  1  5  2  0  0  0  0
  2  6  2  0  0  0  0
  3  8  2  0  0  0  0
  3 16  1  0  0  0  0
  4  9  1  0  0  0  0
  4 16  2  0  0  0  0
  5 18  1  0  0  0  0
  6 20  1  0  0  0  0
  7 10  2  0  0  0  0
  7 19  1  0  0  0  0
  8 26  1  0  0  0  0
  9 26  2  0  0  0  0
 10 27  1  0  0  0  0
 11 12  2  0  0  0  0
 11 28  1  0  0  0  0
 12 30  1  0  0  0  0
 13 21  1  0  0  0  0
 13 27  2  0  0  0  0
 14 22  1  0  0  0  0
 14 29  2  0  0  0  0
 15 30  2  0  0  0  0
 15 31  1  0  0  0  0
 16 32  1  0  0  0  0
 17 32  1  0  0  0  0
 17 33  2  0  0  0  0
 17 34  1  0  0  0  0
 18 20  2  0  0  0  0
 18 39  1  0  0  0  0
 19 21  2  0  0  0  0
 19 40  1  0  0  0  0
 20 55  1  0  0  0  0
 21 41  1  0  0  0  0
 22 24  2  0  0  0  0
 22 53  1  0  0  0  0
 23 25  2  0  0  0  0
 23 29  1  0  0  0  0
 23 54  1  0  0  0  0
 24 25  1  0  0  0  0
 24 58  1  0  0  0  0
 25 65  1  0  0  0  0
 26 84  1  0  0  0  0
 27 86  1  0  0  0  0
 28 31  2  0  0  0  0
 28 84  1  0  0  0  0
 29 85  1  0  0  0  0
 30 87  1  0  0  0  0
 31 88  1  0  0  0  0
 32 69  2  0  0  0  0
 33 70  1  0  0  0  0
 33 74  1  0  0  0  0
 34 75  1  0  0  0  0
 34 79  2  0  0  0  0
 35 56  1  0  0  0  0
 35 76  1  0  0  0  0
 35 80  2  0  0  0  0
 36 66  1  0  0  0  0
 36 71  1  0  0  0  0
 36 81  2  0  0  0  0
 37 67  1  0  0  0  0
 37 77  1  0  0  0  0
 37 82  2  0  0  0  0
 38 72  1  0  0  0  0
 38 73  1  0  0  0  0
 38 83  2  0  0  0  0
 39 42  1  0  0  0  0
 40 56  1  0  0  0  0
 41 71  1  0  0  0  0
 42 46  1  0  0  0  0
 43 47  1  0  0  0  0
 43 49  1  0  0  0  0
 44 45  1  0  0  0  0
 44 54  1  0  0  0  0
 45 54  1  0  0  0  0
 46 55  1  0  0  0  0
 47 57  1  0  0  0  0
 48 50  1  0  0  0  0
 48 53  1  0  0  0  0
 49 72  1  0  0  0  0
 50 73  1  0  0  0  0
 51 53  1  0  0  0  0
 51 73  1  0  0  0  0
 52 57  1  0  0  0  0
 52 72  1  0  0  0  0
 55 76  1  0  0  0  0
 56 71  1  0  0  0  0
 57 70  1  0  0  0  0
 59 67  1  0  0  0  0
 60 68  1  0  0  0  0
 61 68  1  0  0  0  0
 62 68  1  0  0  0  0
 63 78  1  0  0  0  0
 64 85  1  0  0  0  0
 65 86  1  0  0  0  0
 66 68  1  0  0  0  0
 66 77  1  0  0  0  0
 67 78  1  0  0  0  0
 69 70  1  0  0  0  0
M  CHG  1  78   1
M  ISO  4  38 100  65 101  73 100  86 101
M  END
> <Batch ID>
0170

> <Smiles>
CNC(C)C(=O)NC(C(=O)N1Cc2cc([101O:1][101CH2:1]c3c(C)c(C4CC[100N:0]([100C:0](=O)N5CCCC(n6nc(-c7ccc(Oc8ccc(F)cc8F)cc7)c(C(N)=O)c6N)C5)C4)cc(OC)c3C3CC3)ccc2CC1C(=O)NC1CCCc2ccccc21)C(C)(C)C

> <Shape>
0.248

> <Color>
0.226

> <Negative vol penalty>
0.000

$$$$

  -OEChem-04052322353D

 87 97  0     1  0  0  0  0  0999 V2000
  -25.8524  -35.5183   23.5774 C   0  0  0  0  0  0  0  0  0  0  0  0
  -26.4377  -34.2886   23.2936 C   0  0  0  0  0  0  0  0  0  0  0  0
  -29.8700  -11.3471   19.3013 C   0  0  0  0  0  0  0  0  0  0  0  0
  -28.9286  -10.3267   21.2785 C   0  0  0  0  0  0  0  0  0  0  0  0
  -24.5441  -35.5723   24.0566 C   0  0  0  0  0  0  0  0  0  0  0  0
  -25.7155  -33.1121   23.4898 C   0  0  0  0  0  0  0  0  0  0  0  0
  -26.1890  -29.8745   19.6247 C   0  0  0  0  0  0  0  0  0  0  0  0
  -30.6800  -10.2279   19.1093 C   0  0  0  0  0  0  0  0  0  0  0  0
  -29.7385   -9.2074   21.0865 C   0  0  0  0  0  0  0  0  0  0  0  0
  -27.3669  -29.1317   19.5570 C   0  0  0  0  0  0  0  0  0  0  0  0
  -30.3491   -7.0947   17.8820 C   0  0  0  0  0  0  0  0  0  0  0  0
  -30.4399   -6.5740   16.5912 C   0  0  0  0  0  0  0  0  0  0  0  0
  -26.2216  -27.2392   20.5191 C   0  0  0  0  0  0  0  0  0  0  0  0
  -32.8243   -6.9631   16.6019 C   0  0  0  0  0  0  0  0  0  0  0  0
  -29.1283  -23.9660   18.8147 C   0  0  0  0  0  0  0  0  0  0  0  0
  -28.9943  -11.3966   20.3860 C   0  0  0  0  0  0  0  0  0  0  0  0
  -26.8619  -12.7621   20.0766 C   0  0  0  0  0  0  0  0  0  0  0  0
  -23.8022  -34.3964   24.2496 C   0  0  0  0  0  0  0  0  0  0  0  0
  -25.0194  -29.3078   20.1511 C   0  0  0  0  0  0  0  0  0  0  0  0
  -24.3966  -33.1503   23.9732 C   0  0  0  0  0  0  0  0  0  0  0  0
  -25.0295  -27.9761   20.5901 C   0  0  0  0  0  0  0  0  0  0  0  0
  -28.3276  -23.1442   18.0455 C   0  0  0  0  0  0  0  0  0  0  0  0
  -28.1614  -23.7805   16.7946 C   0  0  0  0  0  0  0  0  0  0  0  0
  -30.6142   -9.1581   20.0018 C   0  0  0  0  0  0  0  0  0  0  0  0
  -27.3841  -27.8147   20.0069 C   0  0  0  0  0  0  0  0  0  0  0  0
  -31.4959   -7.5497   18.5328 C   0  0  0  0  0  0  0  0  0  0  0  0
  -31.6775   -6.5081   15.9512 C   0  0  0  0  0  0  0  0  0  0  0  0
  -32.7335   -7.4838   17.8928 C   0  0  0  0  0  0  0  0  0  0  0  0
  -28.1578  -12.5527   20.5852 C   0  0  0  0  0  0  0  0  0  0  0  0
  -28.8678  -24.9620   16.8418 C   0  0  0  0  0  0  0  0  0  0  0  0
  -26.5046  -14.0020   20.5474 C   0  0  0  0  0  0  0  0  0  0  0  0
  -26.0535  -11.9120   19.2524 C   0  0  0  0  0  0  0  0  0  0  0  0
  -23.1378  -29.9456   22.6323 C   0  0  0  0  0  0  0  0  0  0  0  0
  -21.2972  -27.6080   21.3400 C   0  0  0  0  0  0  0  0  0  0  0  0
  -21.1038  -24.8324   19.3638 C   0  0  0  0  0  0  0  0  0  0  0  0
  -27.5513  -19.2598   21.6788 C   0  0  0  0  0  0  0  0  0  0  0  0
  -22.4077  -34.5023   24.8142 C   0  0  0  0  0  0  0  0  0  0  0  0
  -23.7501  -30.1138   20.1925 C   0  0  0  0  0  0  0  0  0  0  0  0
  -23.7954  -27.3146   21.1450 C   0  0  0  0  0  0  0  0  0  0  0  0
  -27.4275  -23.3835   15.5673 C   0  0  0  0  0  0  0  0  0  0  0  0
  -28.9373  -25.9403   15.7300 C   0  0  0  0  0  0  0  0  0  0  0  0
  -21.5815  -33.2306   24.6394 C   0  0  0  0  0  0  0  0  0  0  0  0
  -28.6726  -16.9694   24.0122 C   0  0  0  0  0  0  0  0  0  0  0  0
  -22.3970  -32.0050   25.0390 C   0  0  0  0  0  0  0  0  0  0  0  0
  -28.5354  -15.6254   23.2972 C   0  0  0  0  0  0  0  0  0  0  0  0
  -28.8364  -20.7746   18.7854 C   0  0  0  0  0  0  0  0  0  0  0  0
  -26.7786  -21.9592   19.6639 C   0  0  0  0  0  0  0  0  0  0  0  0
  -29.2012  -18.0400   23.0648 C   0  0  0  0  0  0  0  0  0  0  0  0
  -28.2393  -19.4420   19.2469 C   0  0  0  0  0  0  0  0  0  0  0  0
  -26.2204  -20.6012   20.0794 C   0  0  0  0  0  0  0  0  0  0  0  0
  -28.2265  -16.8832   21.1078 C   0  0  0  0  0  0  0  0  0  0  0  0
  -28.4869  -25.2263   14.4413 C   0  0  0  0  0  0  0  0  0  0  0  0
  -27.7424  -21.8113   18.4726 C   0  0  0  0  0  0  0  0  0  0  0  0
  -23.6369  -31.8534   24.1495 C   0  0  1  0  0  0  0  0  0  0  0  0
  -22.7492  -29.5998   21.2227 C   0  0  1  0  0  0  0  0  0  0  0  0
  -27.6877  -15.7625   22.0201 C   0  0  1  0  0  0  0  0  0  0  0  0
  -19.4719  -23.1187   18.5285 C   0  0  0  0  0  0  0  0  0  0  0  0
  -21.3495  -26.2339   24.0639 C   0  0  0  0  0  0  0  0  0  0  0  0
  -20.5511  -24.1410   22.9457 C   0  0  0  0  0  0  0  0  0  0  0  0
  -19.1282  -26.1897   22.9156 C   0  0  0  0  0  0  0  0  0  0  0  0
  -21.5608  -25.6028   16.5431 C   0  0  0  0  0  0  0  0  0  0  0  0
  -30.2703  -26.1725   18.5307 C   0  0  0  0  0  0  0  0  0  0  0  0
  -29.4429  -27.4017   18.8904 C   0  0  0  0  0  0  0  0  0  1  0  0
  -21.2137  -26.1080   21.4887 C   0  0  1  0  0  0  0  0  0  0  0  0
  -20.1446  -24.4539   18.2498 C   0  0  2  0  0  0  0  0  0  0  0  0
  -20.5845  -25.6809   22.8449 C   0  0  0  0  0  0  0  0  0  0  0  0
  -28.5942  -13.5774   21.3225 N   0  0  0  0  0  0  0  0  0  0  0  0
  -29.4516  -25.0748   18.0692 N   0  0  0  0  0  0  0  0  0  0  0  0
  -27.5668  -14.4427   21.2805 N   0  0  0  0  0  0  0  0  0  0  0  0
  -22.5807  -28.1461   21.1706 N   0  0  0  0  0  0  0  0  0  0  0  0
  -28.3720  -18.1370   21.8637 N   0  0  0  0  0  0  0  0  0  0  0  0
  -27.2978  -19.6513   20.3556 N   0  0  0  0  0  0  0  0  0  0  0  0
  -25.3885  -14.7473   20.4015 N   0  0  0  0  0  0  0  0  0  0  0  0
  -26.5740  -10.6715   18.8590 N   0  0  0  0  0  0  0  0  0  0  0  0
  -23.2713  -31.3015   22.8626 N   0  0  0  0  0  0  0  0  0  0  0  0
  -20.4943  -25.6210   20.3166 N   0  0  0  0  0  0  0  0  0  0  0  0
  -20.8713  -24.3523   16.9527 N   0  3  0  0  0  0  0  0  0  0  0  0
  -24.9101  -12.2495   18.8622 O   0  0  0  0  0  0  0  0  0  0  0  0
  -23.3027  -29.0487   23.4509 O   0  0  0  0  0  0  0  0  0  0  0  0
  -20.2610  -28.2768   21.3659 O   0  0  0  0  0  0  0  0  0  0  0  0
  -22.2755  -24.4621   19.3884 O   0  0  0  0  0  0  0  0  0  0  0  0
  -27.0724  -19.8764   22.6389 O   0  0  0  0  0  0  0  0  0  0  0  0
  -27.2637  -24.4946   14.6550 O   0  0  0  0  0  0  0  0  0  0  0  0
  -31.4043   -8.0657   19.8146 O   0  0  0  0  0  0  0  0  0  0  0  0
  -28.5406  -27.0826   19.9421 O   0  0  0  0  0  0  0  0  0  1  0  0
  -31.7647   -6.0066   14.7122 F   0  0  0  0  0  0  0  0  0  0  0  0
  -33.8389   -7.9183   18.5133 F   0  0  0  0  0  0  0  0  0  0  0  0
  1  2  1  0  0  0  0
  1  5  2  0  0  0  0
  2  6  2  0  0  0  0
  3  8  2  0  0  0  0
  3 16  1  0  0  0  0
  4  9  1  0  0  0  0
  4 16  2  0  0  0  0
  5 18  1  0  0  0  0
  6 20  1  0  0  0  0
  7 10  2  0  0  0  0
  7 19  1  0  0  0  0
  8 24  1  0  0  0  0
  9 24  2  0  0  0  0
 10 25  1  0  0  0  0
 11 12  2  0  0  0  0
 11 26  1  0  0  0  0
 12 27  1  0  0  0  0
 13 21  1  0  0  0  0
 13 25  2  0  0  0  0
 14 27  2  0  0  0  0
 14 28  1  0  0  0  0
 15 22  2  0  0  0  0
 15 68  1  0  0  0  0
 16 29  1  0  0  0  0
 17 29  1  0  0  0  0
 17 31  2  0  0  0  0
 17 32  1  0  0  0  0
 18 20  2  0  0  0  0
 18 37  1  0  0  0  0
 19 21  2  0  0  0  0
 19 38  1  0  0  0  0
 20 54  1  0  0  0  0
 21 39  1  0  0  0  0
 22 23  1  0  0  0  0
 22 53  1  0  0  0  0
 23 30  2  0  0  0  0
 23 40  1  0  0  0  0
 24 84  1  0  0  0  0
 25 85  1  0  0  0  0
 26 28  2  0  0  0  0
 26 84  1  0  0  0  0
 27 86  1  0  0  0  0
 28 87  1  0  0  0  0
 29 67  2  0  0  0  0
 30 41  1  0  0  0  0
 30 68  1  0  0  0  0
 31 69  1  0  0  0  0
 31 73  1  0  0  0  0
 32 74  1  0  0  0  0
 32 78  2  0  0  0  0
 33 55  1  0  0  0  0
 33 75  1  0  0  0  0
 33 79  2  0  0  0  0
 34 64  1  0  0  0  0
 34 70  1  0  0  0  0
 34 80  2  0  0  0  0
 35 65  1  0  0  0  0
 35 76  1  0  0  0  0
 35 81  2  0  0  0  0
 36 71  1  0  0  0  0
 36 72  1  0  0  0  0
 36 82  2  0  0  0  0
 37 42  1  0  0  0  0
 38 55  1  0  0  0  0
 39 70  1  0  0  0  0
 40 83  1  0  0  0  0
 41 52  1  0  0  0  0
 42 44  1  0  0  0  0
 43 45  1  0  0  0  0
 43 48  1  0  0  0  0
 44 54  1  0  0  0  0
 45 56  1  0  0  0  0
 46 49  1  0  0  0  0
 46 53  1  0  0  0  0
 47 50  1  0  0  0  0
 47 53  1  0  0  0  0
 48 71  1  0  0  0  0
 49 72  1  0  0  0  0
 50 72  1  0  0  0  0
 51 56  1  0  0  0  0
 51 71  1  0  0  0  0
 52 83  1  0  0  0  0
 54 75  1  0  0  0  0
 55 70  1  0  0  0  0
 56 69  1  0  0  0  0
 57 65  1  0  0  0  0
 58 66  1  0  0  0  0
 59 66  1  0  0  0  0
 60 66  1  0  0  0  0
 61 77  1  0  0  0  0
 62 63  1  0  0  0  0
 62 68  1  0  0  0  0
 63 85  1  0  0  0  0
 64 66  1  0  0  0  0
 64 76  1  0  0  0  0
 65 77  1  0  0  0  0
 67 69  1  0  0  0  0
M  CHG  1  77   1
M  ISO  4  36 100  63 101  72 100  85 101
M  END
> <Batch ID>
0170

> <Smiles>
CNC(C)C(=O)NC(C(=O)N1Cc2cc([101O:1][101CH2:1]Cn3cc(C4CC[100N:0]([100C:0](=O)N5CCCC(n6nc(-c7ccc(Oc8ccc(F)cc8F)cc7)c(C(N)=O)c6N)C5)CC4)c4c3CCOC4)ccc2CC1C(=O)NC1CCCc2ccccc21)C(C)(C)C

> <Shape>
0.245

> <Color>
0.086

> <Negative vol penalty>
0.000

$$$$

  -OEChem-04052322353D

 87 97  0     1  0  0  0  0  0999 V2000
  -27.2567  -30.6166   22.6899 C   0  0  0  0  0  0  0  0  0  0  0  0
  -27.2010  -29.5333   23.5610 C   0  0  0  0  0  0  0  0  0  0  0  0
  -27.7613  -12.7232   19.0023 C   0  0  0  0  0  0  0  0  0  0  0  0
  -28.3657  -13.4285   21.2326 C   0  0  0  0  0  0  0  0  0  0  0  0
  -26.9337  -30.4451   21.3445 C   0  0  0  0  0  0  0  0  0  0  0  0
  -26.8212  -28.2780   23.0873 C   0  0  0  0  0  0  0  0  0  0  0  0
  -28.9149  -22.8418   24.9770 C   0  0  0  0  0  0  0  0  0  0  0  0
  -29.0884  -12.3738   18.7531 C   0  0  0  0  0  0  0  0  0  0  0  0
  -29.6929  -13.0790   20.9835 C   0  0  0  0  0  0  0  0  0  0  0  0
  -28.4041  -21.8976   25.8665 C   0  0  0  0  0  0  0  0  0  0  0  0
  -32.3530  -14.3934   19.3626 C   0  0  0  0  0  0  0  0  0  0  0  0
  -33.3444  -15.2929   19.7543 C   0  0  0  0  0  0  0  0  0  0  0  0
  -27.4465  -20.6815   24.0162 C   0  0  0  0  0  0  0  0  0  0  0  0
  -22.9109  -17.2407   29.1071 C   0  0  0  0  0  0  0  0  0  0  0  0
  -34.2979  -13.6112   21.2033 C   0  0  0  0  0  0  0  0  0  0  0  0
  -27.3999  -13.2506   20.2420 C   0  0  0  0  0  0  0  0  0  0  0  0
  -25.0190  -12.7900   21.0338 C   0  0  0  0  0  0  0  0  0  0  0  0
  -26.5590  -29.1850   20.8521 C   0  0  0  0  0  0  0  0  0  0  0  0
  -28.6857  -22.7187   23.5990 C   0  0  0  0  0  0  0  0  0  0  0  0
  -26.4916  -28.0897   21.7343 C   0  0  0  0  0  0  0  0  0  0  0  0
  -27.9577  -21.6242   23.1111 C   0  0  0  0  0  0  0  0  0  0  0  0
  -22.9790  -17.7202   27.7990 C   0  0  0  0  0  0  0  0  0  0  0  0
  -21.8414  -18.2506   27.1906 C   0  0  0  0  0  0  0  0  0  0  0  0
  -20.6357  -18.3015   27.8902 C   0  0  0  0  0  0  0  0  0  0  0  0
  -20.5676  -17.8219   29.1983 C   0  0  0  0  0  0  0  0  0  0  0  0
  -30.0542  -12.5517   19.7437 C   0  0  0  0  0  0  0  0  0  0  0  0
  -27.6673  -20.8188   25.3864 C   0  0  0  0  0  0  0  0  0  0  0  0
  -32.3339  -13.1027   19.8914 C   0  0  0  0  0  0  0  0  0  0  0  0
  -34.3169  -14.9018   20.6746 C   0  0  0  0  0  0  0  0  0  0  0  0
  -21.7052  -17.2915   29.8067 C   0  0  0  0  0  0  0  0  0  0  0  0
  -33.3064  -12.7116   20.8117 C   0  0  0  0  0  0  0  0  0  0  0  0
  -26.0292  -13.6123   20.4998 C   0  0  0  0  0  0  0  0  0  0  0  0
  -23.9084  -13.5967   21.0805 C   0  0  0  0  0  0  0  0  0  0  0  0
  -25.0792  -11.4194   21.4504 C   0  0  0  0  0  0  0  0  0  0  0  0
  -27.2058  -24.4794   21.4051 C   0  0  0  0  0  0  0  0  0  0  0  0
  -28.4248  -22.2671   19.3699 C   0  0  0  0  0  0  0  0  0  0  0  0
  -29.6128  -19.1019   18.9044 C   0  0  0  0  0  0  0  0  0  0  0  0
  -21.6550  -18.6074   22.3740 C   0  0  0  0  0  0  0  0  0  0  0  0
  -26.1731  -29.0586   19.3996 C   0  0  0  0  0  0  0  0  0  0  0  0
  -29.2663  -23.7313   22.6503 C   0  0  0  0  0  0  0  0  0  0  0  0
  -27.7008  -21.4353   21.6391 C   0  0  0  0  0  0  0  0  0  0  0  0
  -26.1425  -27.6162   18.9008 C   0  0  0  0  0  0  0  0  0  0  0  0
  -23.0271  -18.1355   19.0835 C   0  0  0  0  0  0  0  0  0  0  0  0
  -25.4019  -26.7242   19.8921 C   0  0  0  0  0  0  0  0  0  0  0  0
  -23.8907  -16.8850   19.2107 C   0  0  0  0  0  0  0  0  0  0  0  0
  -25.5618  -17.6216   27.8630 C   0  0  0  0  0  0  0  0  0  0  0  0
  -23.0544  -18.9487   20.3707 C   0  0  0  0  0  0  0  0  0  0  0  0
  -22.7823  -18.0349   24.6678 C   0  0  0  0  0  0  0  0  0  0  0  0
  -20.7269  -18.5463   24.7514 C   0  0  0  0  0  0  0  0  0  0  0  0
  -23.4361  -16.8994   21.7156 C   0  0  0  0  0  0  0  0  0  0  0  0
  -24.2791  -17.6565   27.0694 C   0  0  2  0  0  0  0  0  0  0  0  0
  -21.9191  -18.7950   25.7038 C   0  0  0  0  0  0  0  0  0  0  0  0
  -26.1081  -26.7071   21.2532 C   0  0  1  0  0  0  0  0  0  0  0  0
  -28.5349  -23.7848   21.3126 C   0  0  1  0  0  0  0  0  0  0  0  0
  -25.1923  -18.8586   27.0998 C   0  0  2  0  0  0  0  0  0  0  0  0
  -23.4566  -16.0540   20.4266 C   0  0  2  0  0  0  0  0  0  0  0  0
  -19.4165  -18.8689   27.2364 C   0  0  0  0  0  0  0  0  0  0  0  0
  -19.2867  -17.8650   29.9659 C   0  0  0  0  0  0  0  0  0  0  0  0
  -30.6586  -17.1599   17.7076 C   0  0  0  0  0  0  0  0  0  0  0  0
  -25.5906  -21.8573   18.3165 C   0  0  0  0  0  0  0  0  0  0  0  0
  -26.3643  -19.7197   17.2675 C   0  0  0  0  0  0  0  0  0  0  0  0
  -27.3641  -21.8907   16.5536 C   0  0  0  0  0  0  0  0  0  0  0  0
  -32.3429  -19.9523   19.6675 C   0  0  0  0  0  0  0  0  0  0  0  0
  -25.9571  -19.2415   25.8797 C   0  0  0  0  0  0  0  0  0  1  0  0
  -27.9513  -20.9423   18.8224 C   0  0  1  0  0  0  0  0  0  0  0  0
  -30.8543  -18.5854   18.1998 C   0  0  2  0  0  0  0  0  0  0  0  0
  -26.8206  -21.1068   17.7680 C   0  0  0  0  0  0  0  0  0  0  0  0
  -25.5984  -14.8468   20.2267 N   0  0  0  0  0  0  0  0  0  0  0  0
  -24.3053  -14.8061   20.5905 N   0  0  0  0  0  0  0  0  0  0  0  0
  -28.2839  -22.4555   20.7521 N   0  0  0  0  0  0  0  0  0  0  0  0
  -22.6786  -18.1462   21.5387 N   0  0  0  0  0  0  0  0  0  0  0  0
  -21.7200  -18.3012   23.7128 N   0  0  0  0  0  0  0  0  0  0  0  0
  -22.6408  -13.3826   21.4925 N   0  0  0  0  0  0  0  0  0  0  0  0
  -26.2988  -10.7387   21.3343 N   0  0  0  0  0  0  0  0  0  0  0  0
  -27.2702  -25.8457   21.2089 N   0  0  0  0  0  0  0  0  0  0  0  0
  -29.1395  -20.2590   18.3228 N   0  0  0  0  0  0  0  0  0  0  0  0
  -32.0220  -18.6069   19.1254 N   0  3  0  0  0  0  0  0  0  0  0  0
  -24.0768  -10.8113   21.8966 O   0  0  0  0  0  0  0  0  0  0  0  0
  -26.1963  -23.8241   21.6359 O   0  0  0  0  0  0  0  0  0  0  0  0
  -28.9086  -23.1012   18.6006 O   0  0  0  0  0  0  0  0  0  0  0  0
  -29.1108  -18.5335   19.8716 O   0  0  0  0  0  0  0  0  0  0  0  0
  -20.7228  -19.2996   21.9437 O   0  0  0  0  0  0  0  0  0  0  0  0
  -31.3493  -12.2106   19.5010 O   0  0  0  0  0  0  0  0  0  0  0  0
  -27.1633  -19.8892   26.2590 O   0  0  0  0  0  0  0  0  0  1  0  0
  -35.2699  -15.7653   21.0494 F   0  0  0  0  0  0  0  0  0  0  0  0
  -21.6502  -16.8269   31.0629 F   0  0  0  0  0  0  0  0  0  0  0  0
  -33.2939  -11.4727   21.3222 F   0  0  0  0  0  0  0  0  0  0  0  0
  1  2  1  0  0  0  0
  1  5  2  0  0  0  0
  2  6  2  0  0  0  0
  3  8  2  0  0  0  0
  3 16  1  0  0  0  0
  4  9  1  0  0  0  0
  4 16  2  0  0  0  0
  5 18  1  0  0  0  0
  6 20  1  0  0  0  0
  7 10  2  0  0  0  0
  7 19  1  0  0  0  0
  8 26  1  0  0  0  0
  9 26  2  0  0  0  0
 10 27  1  0  0  0  0
 11 12  2  0  0  0  0
 11 28  1  0  0  0  0
 12 29  1  0  0  0  0
 13 21  1  0  0  0  0
 13 27  2  0  0  0  0
 14 22  1  0  0  0  0
 14 30  2  0  0  0  0
 15 29  2  0  0  0  0
 15 31  1  0  0  0  0
 16 32  1  0  0  0  0
 17 32  1  0  0  0  0
 17 33  2  0  0  0  0
 17 34  1  0  0  0  0
 18 20  2  0  0  0  0
 18 39  1  0  0  0  0
 19 21  2  0  0  0  0
 19 40  1  0  0  0  0
 20 53  1  0  0  0  0
 21 41  1  0  0  0  0
 22 23  2  0  0  0  0
 22 51  1  0  0  0  0
 23 24  1  0  0  0  0
 23 52  1  0  0  0  0
 24 25  2  0  0  0  0
 24 57  1  0  0  0  0
 25 30  1  0  0  0  0
 25 58  1  0  0  0  0
 26 83  1  0  0  0  0
 27 84  1  0  0  0  0
 28 31  2  0  0  0  0
 28 83  1  0  0  0  0
 29 85  1  0  0  0  0
 30 86  1  0  0  0  0
 31 87  1  0  0  0  0
 32 68  2  0  0  0  0
 33 69  1  0  0  0  0
 33 73  1  0  0  0  0
 34 74  1  0  0  0  0
 34 78  2  0  0  0  0
 35 54  1  0  0  0  0
 35 75  1  0  0  0  0
 35 79  2  0  0  0  0
 36 65  1  0  0  0  0
 36 70  1  0  0  0  0
 36 80  2  0  0  0  0
 37 66  1  0  0  0  0
 37 76  1  0  0  0  0
 37 81  2  0  0  0  0
 38 71  1  0  0  0  0
 38 72  1  0  0  0  0
 38 82  2  0  0  0  0
 39 42  1  0  0  0  0
 40 54  1  0  0  0  0
 41 70  1  0  0  0  0
 42 44  1  0  0  0  0
 43 45  1  0  0  0  0
 43 47  1  0  0  0  0
 44 53  1  0  0  0  0
 45 56  1  0  0  0  0
 46 51  1  0  0  0  0
 46 55  1  0  0  0  0
 47 71  1  0  0  0  0
 48 52  1  0  0  0  0
 48 72  1  0  0  0  0
 49 52  1  0  0  0  0
 49 72  1  0  0  0  0
 50 56  1  0  0  0  0
 50 71  1  0  0  0  0
 51 55  1  0  0  0  0
 53 75  1  0  0  0  0
 54 70  1  0  0  0  0
 55 64  1  0  0  0  0
 56 69  1  0  0  0  0
 59 66  1  0  0  0  0
 60 67  1  0  0  0  0
 61 67  1  0  0  0  0
 62 67  1  0  0  0  0
 63 77  1  0  0  0  0
 64 84  1  0  0  0  0
 65 67  1  0  0  0  0
 65 76  1  0  0  0  0
 66 77  1  0  0  0  0
 68 69  1  0  0  0  0
M  CHG  1  77   1
M  ISO  4  38 100  64 101  72 100  84 101
M  END
> <Batch ID>
0170

> <Smiles>
CNC(C)C(=O)NC(C(=O)N1Cc2cc([101O:1][101CH2:1]C3CC3c3cc(F)c(C)c(C)c3C3C[100N:0]([100C:0](=O)N4CCCC(n5nc(-c6ccc(Oc7ccc(F)cc7F)cc6)c(C(N)=O)c5N)C4)C3)ccc2CC1C(=O)NC1CCCc2ccccc21)C(C)(C)C

> <Shape>
0.181

> <Color>
0.084

> <Negative vol penalty>
0.000

$$$$

  -OEChem-04052322353D

 87 97  0     1  0  0  0  0  0999 V2000
  -30.8196  -24.6901   16.8855 C   0  0  0  0  0  0  0  0  0  0  0  0
  -29.4819  -25.0105   16.6774 C   0  0  0  0  0  0  0  0  0  0  0  0
  -26.4567  -12.8250   20.9766 C   0  0  0  0  0  0  0  0  0  0  0  0
  -25.0910  -14.1411   19.4799 C   0  0  0  0  0  0  0  0  0  0  0  0
  -31.3375  -24.6708   18.1798 C   0  0  0  0  0  0  0  0  0  0  0  0
  -28.6609  -25.3107   17.7639 C   0  0  0  0  0  0  0  0  0  0  0  0
  -24.0628  -29.3535   17.8974 C   0  0  0  0  0  0  0  0  0  0  0  0
  -25.7324  -11.6834   20.6336 C   0  0  0  0  0  0  0  0  0  0  0  0
  -24.3667  -12.9994   19.1369 C   0  0  0  0  0  0  0  0  0  0  0  0
  -22.6816  -29.2075   17.7758 C   0  0  0  0  0  0  0  0  0  0  0  0
  -24.0089   -8.4883   20.4221 C   0  0  0  0  0  0  0  0  0  0  0  0
  -23.6063   -7.6398   21.4533 C   0  0  0  0  0  0  0  0  0  0  0  0
  -22.4797  -29.1729   20.1794 C   0  0  0  0  0  0  0  0  0  0  0  0
  -21.2199  -24.8901   19.8287 C   0  0  0  0  0  0  0  0  0  0  0  0
  -20.2811  -22.6892   20.1081 C   0  0  0  0  0  0  0  0  0  0  0  0
  -22.3469   -9.4459   22.4477 C   0  0  0  0  0  0  0  0  0  0  0  0
  -26.1359  -14.0539   20.3998 C   0  0  0  0  0  0  0  0  0  0  0  0
  -28.0439  -15.7251   20.1267 C   0  0  0  0  0  0  0  0  0  0  0  0
  -30.5248  -24.9803   19.2819 C   0  0  0  0  0  0  0  0  0  0  0  0
  -24.6649  -29.3995   19.1629 C   0  0  0  0  0  0  0  0  0  0  0  0
  -29.1681  -25.2942   19.0743 C   0  0  0  0  0  0  0  0  0  0  0  0
  -23.8684  -29.3221   20.3143 C   0  0  0  0  0  0  0  0  0  0  0  0
  -21.3029  -23.6024   20.3498 C   0  0  0  0  0  0  0  0  0  0  0  0
  -24.6874  -11.7705   19.7138 C   0  0  0  0  0  0  0  0  0  0  0  0
  -21.8901  -29.1143   18.9168 C   0  0  0  0  0  0  0  0  0  0  0  0
  -23.5806   -9.8157   20.4037 C   0  0  0  0  0  0  0  0  0  0  0  0
  -22.7753   -8.1186   22.4661 C   0  0  0  0  0  0  0  0  0  0  0  0
  -22.7496  -10.2945   21.4165 C   0  0  0  0  0  0  0  0  0  0  0  0
  -26.8834  -15.2337   20.7540 C   0  0  0  0  0  0  0  0  0  0  0  0
  -20.1082  -25.2349   19.0732 C   0  0  0  0  0  0  0  0  0  0  0  0
  -19.1931  -23.0897   19.3456 C   0  0  0  0  0  0  0  0  0  0  0  0
  -28.3618  -16.8595   20.8328 C   0  0  0  0  0  0  0  0  0  0  0  0
  -28.7697  -15.2028   19.0059 C   0  0  0  0  0  0  0  0  0  0  0  0
  -26.7884  -27.6043   20.7031 C   0  0  0  0  0  0  0  0  0  0  0  0
  -26.5929  -29.9634   22.9210 C   0  0  0  0  0  0  0  0  0  0  0  0
  -24.7784  -32.5082   24.2916 C   0  0  0  0  0  0  0  0  0  0  0  0
  -25.1128  -20.6472   24.1416 C   0  0  0  0  0  0  0  0  0  0  0  0
  -31.1178  -24.9001   20.6663 C   0  0  0  0  0  0  0  0  0  0  0  0
  -26.1533  -29.5842   19.2773 C   0  0  0  0  0  0  0  0  0  0  0  0
  -24.4638  -29.3866   21.6963 C   0  0  0  0  0  0  0  0  0  0  0  0
  -30.2742  -25.5960   21.7314 C   0  0  0  0  0  0  0  0  0  0  0  0
  -27.9641  -18.7914   25.1918 C   0  0  0  0  0  0  0  0  0  0  0  0
  -28.8057  -25.2099   21.5858 C   0  0  0  0  0  0  0  0  0  0  0  0
  -28.1152  -17.7135   24.1169 C   0  0  0  0  0  0  0  0  0  0  0  0
  -18.6601  -27.3541   18.7765 C   0  0  0  0  0  0  0  0  0  0  0  0
  -26.4963  -19.0932   25.4860 C   0  0  0  0  0  0  0  0  0  0  0  0
  -25.8364  -18.3585   23.2280 C   0  0  0  0  0  0  0  0  0  0  0  0
  -22.5751  -21.9031   21.6940 C   0  0  0  0  0  0  0  0  0  0  0  0
  -23.5185  -24.1199   21.4151 C   0  0  0  0  0  0  0  0  0  0  0  0
  -28.2519  -25.6498   20.2251 C   0  0  1  0  0  0  0  0  0  0  0  0
  -19.9214  -26.5786   18.4757 C   0  0  1  0  0  0  0  0  0  0  0  0
  -26.7144  -29.1023   20.6116 C   0  0  1  0  0  0  0  0  0  0  0  0
  -27.2991  -18.0598   22.8570 C   0  0  2  0  0  0  0  0  0  0  0  0
  -23.7397  -22.0992   22.6701 C   0  0  2  0  0  0  0  0  0  0  0  0
  -24.5715  -23.1635   21.9698 C   0  0  2  0  0  0  0  0  0  0  0  0
  -19.9619  -27.7981   19.3703 C   0  0  1  0  0  0  0  0  0  1  0  0
  -18.0632  -22.1747   19.0413 C   0  0  0  0  0  0  0  0  0  0  0  0
  -24.8649  -34.2290   26.1161 C   0  0  0  0  0  0  0  0  0  0  0  0
  -25.9896  -27.8002   24.9865 C   0  0  0  0  0  0  0  0  0  0  0  0
  -25.1648  -29.5959   26.5238 C   0  0  0  0  0  0  0  0  0  0  0  0
  -27.5448  -29.5923   25.7766 C   0  0  0  0  0  0  0  0  0  0  0  0
  -24.5994  -34.7391   22.3551 C   0  0  0  0  0  0  0  0  0  0  0  0
  -25.7305  -30.2229   24.1326 C   0  0  1  0  0  0  0  0  0  0  0  0
  -25.1558  -33.9335   24.6530 C   0  0  2  0  0  0  0  0  0  0  0  0
  -26.0961  -29.2996   25.3290 C   0  0  0  0  0  0  0  0  0  0  0  0
  -26.4907  -15.9937   21.7798 N   0  0  0  0  0  0  0  0  0  0  0  0
  -27.4096  -16.9740   21.8026 N   0  0  0  0  0  0  0  0  0  0  0  0
  -19.1386  -24.3359   18.8559 N   0  3  0  0  0  0  0  0  0  0  0  0
  -22.3960  -23.2321   21.1034 N   0  0  3  0  0  0  0  0  0  0  0  0
  -25.9244  -29.5615   21.7559 N   0  0  0  0  0  0  0  0  0  0  0  0
  -25.7792  -19.4154   24.2500 N   0  0  0  0  0  0  0  0  0  0  0  0
  -29.3602  -17.7601   20.7126 N   0  0  0  0  0  0  0  0  0  0  0  0
  -28.3056  -14.0283   18.3980 N   0  0  0  0  0  0  0  0  0  0  0  0
  -27.9709  -27.0694   20.2289 N   0  0  0  0  0  0  0  0  0  0  0  0
  -25.8486  -31.6483   24.4200 N   0  0  0  0  0  0  0  0  0  0  0  0
  -24.4635  -20.8757   22.9346 N   0  0  0  0  0  0  0  0  0  0  0  0
  -25.4765  -23.8504   22.9083 N   0  3  0  0  0  0  0  0  0  0  0  0
  -24.3893  -34.9001   23.8169 N   0  3  0  0  0  0  0  0  0  0  0  0
  -29.8086  -15.7520   18.5672 O   0  0  0  0  0  0  0  0  0  0  0  0
  -25.8432  -26.9802   21.1708 O   0  0  0  0  0  0  0  0  0  0  0  0
  -27.8138  -30.1188   23.0032 O   0  0  0  0  0  0  0  0  0  0  0  0
  -23.6464  -32.1889   23.9350 O   0  0  0  0  0  0  0  0  0  0  0  0
  -25.1021  -21.4837   25.0510 O   0  0  0  0  0  0  0  0  0  0  0  0
  -23.9806  -10.6567   19.3788 O   0  0  0  0  0  0  0  0  0  0  0  0
  -20.5418  -28.9711   18.8009 O   0  0  0  0  0  0  0  0  0  1  0  0
  -22.3874   -7.3032   23.4555 F   0  0  0  0  0  0  0  0  0  0  0  0
  -22.3339  -11.5684   21.4036 F   0  0  0  0  0  0  0  0  0  0  0  0
  1  2  1  0  0  0  0
  1  5  2  0  0  0  0
  2  6  2  0  0  0  0
  3  8  2  0  0  0  0
  3 17  1  0  0  0  0
  4  9  1  0  0  0  0
  4 17  2  0  0  0  0
  5 19  1  0  0  0  0
  6 21  1  0  0  0  0
  7 10  2  0  0  0  0
  7 20  1  0  0  0  0
  8 24  1  0  0  0  0
  9 24  2  0  0  0  0
 10 25  1  0  0  0  0
 11 12  2  0  0  0  0
 11 26  1  0  0  0  0
 12 27  1  0  0  0  0
 13 22  1  0  0  0  0
 13 25  2  0  0  0  0
 14 23  2  0  0  0  0
 14 30  1  0  0  0  0
 15 23  1  0  0  0  0
 15 31  2  0  0  0  0
 16 27  2  0  0  0  0
 16 28  1  0  0  0  0
 17 29  1  0  0  0  0
 18 29  1  0  0  0  0
 18 32  2  0  0  0  0
 18 33  1  0  0  0  0
 19 21  2  0  0  0  0
 19 38  1  0  0  0  0
 20 22  2  0  0  0  0
 20 39  1  0  0  0  0
 21 50  1  0  0  0  0
 22 40  1  0  0  0  0
 23 69  1  0  0  0  0
 24 84  1  0  0  0  0
 25 85  1  0  0  0  0
 26 28  2  0  0  0  0
 26 84  1  0  0  0  0
 27 86  1  0  0  0  0
 28 87  1  0  0  0  0
 29 66  2  0  0  0  0
 30 51  1  0  0  0  0
 30 68  2  0  0  0  0
 31 57  1  0  0  0  0
 31 68  1  0  0  0  0
 32 67  1  0  0  0  0
 32 72  1  0  0  0  0
 33 73  1  0  0  0  0
 33 79  2  0  0  0  0
 34 52  1  0  0  0  0
 34 74  1  0  0  0  0
 34 80  2  0  0  0  0
 35 63  1  0  0  0  0
 35 70  1  0  0  0  0
 35 81  2  0  0  0  0
 36 64  1  0  0  0  0
 36 75  1  0  0  0  0
 36 82  2  0  0  0  0
 37 71  1  0  0  0  0
 37 76  1  0  0  0  0
 37 83  2  0  0  0  0
 38 41  1  0  0  0  0
 39 52  1  0  0  0  0
 40 70  1  0  0  0  0
 41 43  1  0  0  0  0
 42 44  1  0  0  0  0
 42 46  1  0  0  0  0
 43 50  1  0  0  0  0
 44 53  1  0  0  0  0
 45 51  1  0  0  0  0
 45 56  1  0  0  0  0
 46 71  1  0  0  0  0
 47 53  1  0  0  0  0
 47 71  1  0  0  0  0
 48 54  1  0  0  0  0
 48 69  1  0  0  0  0
 49 55  1  0  0  0  0
 49 69  1  0  0  0  0
 50 74  1  0  0  0  0
 51 56  1  0  0  0  0
 52 70  1  0  0  0  0
 53 67  1  0  0  0  0
 54 55  1  0  0  0  0
 54 76  1  0  0  0  0
 55 77  1  0  0  0  0
 56 85  1  0  0  0  0
 58 64  1  0  0  0  0
 59 65  1  0  0  0  0
 60 65  1  0  0  0  0
 61 65  1  0  0  0  0
 62 78  1  0  0  0  0
 63 65  1  0  0  0  0
 63 75  1  0  0  0  0
 64 78  1  0  0  0  0
 66 67  1  0  0  0  0
M  CHG  3  68   1  77   1  78   1
M  ISO  4  37 100  56 101  76 100  85 101
M  END
> <Batch ID>
0170

> <Smiles>
CNC(C)C(=O)NC(C(=O)N1Cc2cc([101O:1][101CH:1]3CC3c3cc(N4CC(N)C([100NH:0][100C:0](=O)N5CCCC(n6nc(-c7ccc(Oc8ccc(F)cc8F)cc7)c(C(N)=O)c6N)C5)C4)cc(C)n3)ccc2CC1C(=O)NC1CCCc2ccccc21)C(C)(C)C

> <Shape>
0.233

> <Color>
0.059

> <Negative vol penalty>
0.000

$$$$

  -OEChem-04052322353D

 87 97  0     1  0  0  0  0  0999 V2000
  -28.4942  -37.0224   23.3935 C   0  0  0  0  0  0  0  0  0  0  0  0
  -28.8726  -35.7671   22.9280 C   0  0  0  0  0  0  0  0  0  0  0  0
  -24.5628  -12.0304   24.1785 C   0  0  0  0  0  0  0  0  0  0  0  0
  -24.1469  -14.3831   23.8198 C   0  0  0  0  0  0  0  0  0  0  0  0
  -27.3444  -37.1591   24.1702 C   0  0  0  0  0  0  0  0  0  0  0  0
  -28.1019  -34.6477   23.2399 C   0  0  0  0  0  0  0  0  0  0  0  0
  -27.1122  -29.7548   19.6922 C   0  0  0  0  0  0  0  0  0  0  0  0
  -24.1767  -12.1654   25.5120 C   0  0  0  0  0  0  0  0  0  0  0  0
  -23.7608  -14.5182   25.1533 C   0  0  0  0  0  0  0  0  0  0  0  0
  -27.6944  -28.4885   19.6571 C   0  0  0  0  0  0  0  0  0  0  0  0
  -21.2904  -12.3818   27.2599 C   0  0  0  0  0  0  0  0  0  0  0  0
  -20.4340  -11.4157   27.7879 C   0  0  0  0  0  0  0  0  0  0  0  0
  -25.9011  -27.6327   21.0249 C   0  0  0  0  0  0  0  0  0  0  0  0
  -30.2994  -22.7729   20.8023 C   0  0  0  0  0  0  0  0  0  0  0  0
  -22.0964  -10.8485   29.4468 C   0  0  0  0  0  0  0  0  0  0  0  0
  -24.5480  -13.1392   23.3324 C   0  0  0  0  0  0  0  0  0  0  0  0
  -24.1221  -12.6876   20.8580 C   0  0  0  0  0  0  0  0  0  0  0  0
  -26.5540  -36.0422   24.4837 C   0  0  0  0  0  0  0  0  0  0  0  0
  -25.9239  -29.9724   20.4042 C   0  0  0  0  0  0  0  0  0  0  0  0
  -26.9412  -34.7694   24.0226 C   0  0  0  0  0  0  0  0  0  0  0  0
  -25.3045  -28.9022   21.0654 C   0  0  0  0  0  0  0  0  0  0  0  0
  -29.8926  -24.1022   20.7708 C   0  0  0  0  0  0  0  0  0  0  0  0
  -29.3176  -24.6203   19.6157 C   0  0  0  0  0  0  0  0  0  0  0  0
  -23.7757  -13.4093   25.9994 C   0  0  0  0  0  0  0  0  0  0  0  0
  -27.0904  -27.4278   20.3259 C   0  0  0  0  0  0  0  0  0  0  0  0
  -22.5499  -12.5813   27.8254 C   0  0  0  0  0  0  0  0  0  0  0  0
  -20.8369  -10.6490   28.8813 C   0  0  0  0  0  0  0  0  0  0  0  0
  -22.9528  -11.8147   28.9188 C   0  0  0  0  0  0  0  0  0  0  0  0
  -24.9472  -13.0005   21.9549 C   0  0  0  0  0  0  0  0  0  0  0  0
  -29.1726  -23.7745   18.5279 C   0  0  0  0  0  0  0  0  0  0  0  0
  -30.1102  -22.0098   19.6614 C   0  0  0  0  0  0  0  0  0  0  0  0
  -24.9736  -12.6747   19.7805 C   0  0  0  0  0  0  0  0  0  0  0  0
  -22.7120  -12.4317   20.8169 C   0  0  0  0  0  0  0  0  0  0  0  0
  -25.0936  -31.7788   22.8843 C   0  0  0  0  0  0  0  0  0  0  0  0
  -22.1172  -30.7019   22.1747 C   0  0  0  0  0  0  0  0  0  0  0  0
  -20.1743  -28.2947   20.7334 C   0  0  0  0  0  0  0  0  0  0  0  0
  -30.2167  -15.3337   18.6839 C   0  0  0  0  0  0  0  0  0  0  0  0
  -25.3456  -36.2326   25.3659 C   0  0  0  0  0  0  0  0  0  0  0  0
  -25.2944  -31.3384   20.4101 C   0  0  0  0  0  0  0  0  0  0  0  0
  -24.0173  -29.0788   21.8271 C   0  0  0  0  0  0  0  0  0  0  0  0
  -24.3790  -35.0514   25.3382 C   0  0  0  0  0  0  0  0  0  0  0  0
  -29.5450  -11.8469   18.6303 C   0  0  0  0  0  0  0  0  0  0  0  0
  -25.1386  -33.7365   25.4820 C   0  0  0  0  0  0  0  0  0  0  0  0
  -27.0613  -24.2790   17.1272 C   0  0  0  0  0  0  0  0  0  0  0  0
  -27.8866  -23.3146   16.3340 C   0  0  0  0  0  0  0  0  0  0  0  0
  -28.2139  -11.7174   19.3728 C   0  0  0  0  0  0  0  0  0  0  0  0
  -31.1044  -18.4221   18.8278 C   0  0  0  0  0  0  0  0  0  0  0  0
  -29.0582  -18.9866   18.6353 C   0  0  0  0  0  0  0  0  0  0  0  0
  -30.4290  -12.9317   19.2419 C   0  0  0  0  0  0  0  0  0  0  0  0
  -28.4588  -14.1232   20.1164 C   0  0  0  0  0  0  0  0  0  0  0  0
  -26.1177  -33.5349   24.3190 C   0  0  1  0  0  0  0  0  0  0  0  0
  -28.5595  -24.2868   17.2644 C   0  0  0  0  0  0  0  0  0  0  0  0
  -24.3569  -31.5592   21.5933 C   0  0  1  0  0  0  0  0  0  0  0  0
  -27.5083  -13.0810   19.5022 C   0  0  2  0  0  0  0  0  0  0  0  0
  -30.3875  -19.7723   18.6085 C   0  0  0  0  0  0  0  0  0  0  0  0
  -29.8694  -17.7491   18.1827 C   0  0  0  0  0  0  0  0  0  0  0  0
  -30.0830  -24.9498   21.9851 C   0  0  0  0  0  0  0  0  0  0  0  0
  -17.7748  -27.6702   20.3465 C   0  0  0  0  0  0  0  0  0  0  0  0
  -21.8844  -29.8052   25.0819 C   0  0  0  0  0  0  0  0  0  0  0  0
  -19.9353  -28.3827   24.4142 C   0  0  0  0  0  0  0  0  0  0  0  0
  -19.8186  -30.8601   24.1469 C   0  0  0  0  0  0  0  0  0  0  0  0
  -20.4995  -28.4017   17.7937 C   0  0  0  0  0  0  0  0  0  0  0  0
  -28.8702  -26.0512   19.5558 C   0  0  0  0  0  0  0  0  0  1  0  0
  -21.2837  -29.5129   22.5880 C   0  0  1  0  0  0  0  0  0  0  0  0
  -18.9923  -28.3882   19.7854 C   0  0  2  0  0  0  0  0  0  0  0  0
  -20.7558  -29.6370   24.0451 C   0  0  0  0  0  0  0  0  0  0  0  0
  -26.2249  -13.1737   21.6062 N   0  0  0  0  0  0  0  0  0  0  0  0
  -29.5555  -22.4780   18.5209 N   0  0  0  0  0  0  0  0  0  0  0  0
  -26.2090  -12.9689   20.2780 N   0  0  0  0  0  0  0  0  0  0  0  0
  -23.4440  -30.4347   21.8086 N   0  0  0  0  0  0  0  0  0  0  0  0
  -29.7001  -14.1996   19.3300 N   0  0  0  0  0  0  0  0  0  0  0  0
  -24.7788  -12.4405   18.4653 N   0  0  0  0  0  0  0  0  0  0  0  0
  -21.9878  -12.4857   22.0157 N   0  0  0  0  0  0  0  0  0  0  0  0
  -30.5281  -20.6565   19.7091 N   0  0  0  0  0  0  0  0  0  0  0  0
  -25.4111  -33.1005   23.1331 N   0  0  0  0  0  0  0  0  0  0  0  0
  -20.2356  -29.3797   21.5820 N   0  0  0  0  0  0  0  0  0  0  0  0
  -29.4654  -16.4982   18.8045 N   0  0  0  0  0  0  0  0  0  0  0  0
  -19.3337  -27.7767   18.4699 N   0  3  0  0  0  0  0  0  0  0  0  0
  -22.1147  -12.1469   19.7512 O   0  0  0  0  0  0  0  0  0  0  0  0
  -25.3533  -30.8204   23.6024 O   0  0  0  0  0  0  0  0  0  0  0  0
  -21.6077  -31.8252   22.1699 O   0  0  0  0  0  0  0  0  0  0  0  0
  -20.9622  -27.3514   20.7246 O   0  0  0  0  0  0  0  0  0  0  0  0
  -31.2691  -15.3156   18.0363 O   0  0  0  0  0  0  0  0  0  0  0  0
  -23.3987  -13.5414   27.3006 O   0  0  0  0  0  0  0  0  0  0  0  0
  -27.6569  -26.1909   20.2938 O   0  0  0  0  0  0  0  0  0  1  0  0
  -20.0138   -9.7224   29.3891 F   0  0  0  0  0  0  0  0  0  0  0  0
  -24.1611  -12.0026   29.4670 F   0  0  0  0  0  0  0  0  0  0  0  0
  1  2  1  0  0  0  0
  1  5  2  0  0  0  0
  2  6  2  0  0  0  0
  3  8  2  0  0  0  0
  3 16  1  0  0  0  0
  4  9  1  0  0  0  0
  4 16  2  0  0  0  0
  5 18  1  0  0  0  0
  6 20  1  0  0  0  0
  7 10  2  0  0  0  0
  7 19  1  0  0  0  0
  8 24  1  0  0  0  0
  9 24  2  0  0  0  0
 10 25  1  0  0  0  0
 11 12  2  0  0  0  0
 11 26  1  0  0  0  0
 12 27  1  0  0  0  0
 13 21  1  0  0  0  0
 13 25  2  0  0  0  0
 14 22  2  0  0  0  0
 14 31  1  0  0  0  0
 15 27  2  0  0  0  0
 15 28  1  0  0  0  0
 16 29  1  0  0  0  0
 17 29  1  0  0  0  0
 17 32  2  0  0  0  0
 17 33  1  0  0  0  0
 18 20  2  0  0  0  0
 18 38  1  0  0  0  0
 19 21  2  0  0  0  0
 19 39  1  0  0  0  0
 20 51  1  0  0  0  0
 21 40  1  0  0  0  0
 22 23  1  0  0  0  0
 22 57  1  0  0  0  0
 23 30  2  0  0  0  0
 23 63  1  0  0  0  0
 24 84  1  0  0  0  0
 25 85  1  0  0  0  0
 26 28  2  0  0  0  0
 26 84  1  0  0  0  0
 27 86  1  0  0  0  0
 28 87  1  0  0  0  0
 29 67  2  0  0  0  0
 30 52  1  0  0  0  0
 30 68  1  0  0  0  0
 31 68  2  0  0  0  0
 31 74  1  0  0  0  0
 32 69  1  0  0  0  0
 32 72  1  0  0  0  0
 33 73  1  0  0  0  0
 33 79  2  0  0  0  0
 34 53  1  0  0  0  0
 34 75  1  0  0  0  0
 34 80  2  0  0  0  0
 35 64  1  0  0  0  0
 35 70  1  0  0  0  0
 35 81  2  0  0  0  0
 36 65  1  0  0  0  0
 36 76  1  0  0  0  0
 36 82  2  0  0  0  0
 37 71  1  0  0  0  0
 37 77  1  0  0  0  0
 37 83  2  0  0  0  0
 38 41  1  0  0  0  0
 39 53  1  0  0  0  0
 40 70  1  0  0  0  0
 41 43  1  0  0  0  0
 42 46  1  0  0  0  0
 42 49  1  0  0  0  0
 43 51  1  0  0  0  0
 44 45  1  0  0  0  0
 44 52  1  0  0  0  0
 45 52  1  0  0  0  0
 46 54  1  0  0  0  0
 47 55  1  0  0  0  0
 47 56  1  0  0  0  0
 48 55  1  0  0  0  0
 48 56  1  0  0  0  0
 49 71  1  0  0  0  0
 50 54  1  0  0  0  0
 50 71  1  0  0  0  0
 51 75  1  0  0  0  0
 53 70  1  0  0  0  0
 54 69  1  0  0  0  0
 55 74  1  0  0  0  0
 56 77  1  0  0  0  0
 58 65  1  0  0  0  0
 59 66  1  0  0  0  0
 60 66  1  0  0  0  0
 61 66  1  0  0  0  0
 62 78  1  0  0  0  0
 63 85  1  0  0  0  0
 64 66  1  0  0  0  0
 64 76  1  0  0  0  0
 65 78  1  0  0  0  0
 67 69  1  0  0  0  0
M  CHG  1  78   1
M  ISO  4  37 100  63 101  77 100  85 101
M  END
> <Batch ID>
0170

> <Smiles>
CNC(C)C(=O)NC(C(=O)N1Cc2cc([101O:1][101CH2:1]c3c(C)cc(NC4CC([100NH:0][100C:0](=O)N5CCCC(n6nc(-c7ccc(Oc8ccc(F)cc8F)cc7)c(C(N)=O)c6N)C5)C4)nc3C3CC3)ccc2CC1C(=O)NC1CCCc2ccccc21)C(C)(C)C

> <Shape>
0.294

> <Color>
0.107

> <Negative vol penalty>
0.000

$$$$

  -OEChem-04052322353D

 84 93  0     1  0  0  0  0  0999 V2000
  -21.3034  -29.8632   27.3784 C   0  0  0  0  0  0  0  0  0  0  0  0
  -22.2460  -29.0935   26.7041 C   0  0  0  0  0  0  0  0  0  0  0  0
  -22.9923  -10.5452   21.7282 C   0  0  0  0  0  0  0  0  0  0  0  0
  -24.7400   -8.8821   21.5982 C   0  0  0  0  0  0  0  0  0  0  0  0
  -20.1283  -30.2470   26.7335 C   0  0  0  0  0  0  0  0  0  0  0  0
  -22.0135  -28.7063   25.3849 C   0  0  0  0  0  0  0  0  0  0  0  0
  -26.1848  -28.0636   20.9472 C   0  0  0  0  0  0  0  0  0  0  0  0
  -22.0297   -9.5433   21.6053 C   0  0  0  0  0  0  0  0  0  0  0  0
  -23.7773   -7.8801   21.4753 C   0  0  0  0  0  0  0  0  0  0  0  0
  -26.8426  -26.9472   20.4328 C   0  0  0  0  0  0  0  0  0  0  0  0
  -21.7723   -4.8473   21.4896 C   0  0  0  0  0  0  0  0  0  0  0  0
  -21.9371   -3.6915   22.2528 C   0  0  0  0  0  0  0  0  0  0  0  0
  -25.2067  -26.8049   18.6657 C   0  0  0  0  0  0  0  0  0  0  0  0
  -21.8521   -5.0135   24.2732 C   0  0  0  0  0  0  0  0  0  0  0  0
  -24.3475  -10.2146   21.7246 C   0  0  0  0  0  0  0  0  0  0  0  0
  -25.9048  -11.7468   23.0417 C   0  0  0  0  0  0  0  0  0  0  0  0
  -19.8857  -29.8724   25.4026 C   0  0  0  0  0  0  0  0  0  0  0  0
  -25.0247  -28.5533   20.3299 C   0  0  0  0  0  0  0  0  0  0  0  0
  -20.8335  -29.0844   24.7220 C   0  0  0  0  0  0  0  0  0  0  0  0
  -24.5374  -27.9292   19.1727 C   0  0  0  0  0  0  0  0  0  0  0  0
  -29.9400  -23.6592   17.9850 C   0  0  0  0  0  0  0  0  0  0  0  0
  -28.7687  -23.6356   18.7817 C   0  0  0  0  0  0  0  0  0  0  0  0
  -22.4222   -8.2108   21.4789 C   0  0  0  0  0  0  0  0  0  0  0  0
  -26.3520  -26.3159   19.2935 C   0  0  0  0  0  0  0  0  0  0  0  0
  -21.6474   -6.0863   22.1182 C   0  0  0  0  0  0  0  0  0  0  0  0
  -21.9769   -3.7746   23.6446 C   0  0  0  0  0  0  0  0  0  0  0  0
  -21.6873   -6.1693   23.5100 C   0  0  0  0  0  0  0  0  0  0  0  0
  -25.3424  -11.2492   21.8510 C   0  0  0  0  0  0  0  0  0  0  0  0
  -30.1506  -22.3780   17.5252 C   0  0  0  0  0  0  0  0  0  0  0  0
  -28.2994  -22.3405   18.7847 C   0  0  0  0  0  0  0  0  0  0  0  0
  -26.7916  -12.7099   22.6263 C   0  0  0  0  0  0  0  0  0  0  0  0
  -25.6487  -11.3719   24.4017 C   0  0  0  0  0  0  0  0  0  0  0  0
  -21.9947  -28.9186   21.2182 C   0  0  0  0  0  0  0  0  0  0  0  0
  -21.7379  -30.3998   18.3438 C   0  0  0  0  0  0  0  0  0  0  0  0
  -22.9406  -30.8056   15.1759 C   0  0  0  0  0  0  0  0  0  0  0  0
  -28.0174  -17.0384   19.5939 C   0  0  0  0  0  0  0  0  0  0  0  0
  -18.5795  -30.2713   24.7628 C   0  0  0  0  0  0  0  0  0  0  0  0
  -24.3420  -29.7747   20.8817 C   0  0  0  0  0  0  0  0  0  0  0  0
  -23.3073  -28.4279   18.4609 C   0  0  0  0  0  0  0  0  0  0  0  0
  -18.5794  -30.1352   23.2423 C   0  0  0  0  0  0  0  0  0  0  0  0
  -28.5448  -13.8348   18.0363 C   0  0  0  0  0  0  0  0  0  0  0  0
  -19.1699  -28.7917   22.8266 C   0  0  0  0  0  0  0  0  0  0  0  0
  -27.7649  -12.9168   18.9733 C   0  0  0  0  0  0  0  0  0  0  0  0
  -27.6847  -19.7001   17.0819 C   0  0  0  0  0  0  0  0  0  0  0  0
  -27.8657  -15.1937   17.8532 C   0  0  0  0  0  0  0  0  0  0  0  0
  -27.6316  -18.1990   17.3400 C   0  0  0  0  0  0  0  0  0  0  0  0
  -26.7729  -14.9566   20.0663 C   0  0  0  0  0  0  0  0  0  0  0  0
  -29.0086  -19.2335   19.0151 C   0  0  0  0  0  0  0  0  0  0  0  0
  -20.6287  -28.6655   23.2824 C   0  0  1  0  0  0  0  0  0  0  0  0
  -22.8767  -29.8775   20.4698 C   0  0  1  0  0  0  0  0  0  0  0  0
  -27.4856  -13.6193   20.3115 C   0  0  1  0  0  0  0  0  0  0  0  0
  -29.0000  -20.1070   17.7581 C   0  0  2  0  0  0  0  0  0  0  0  0
  -30.7814  -24.8391   17.6975 C   0  0  0  0  0  0  0  0  0  0  0  0
  -31.2212  -21.8409   16.6585 C   0  0  0  0  0  0  0  0  0  0  0  0
  -27.1172  -21.7566   19.4541 C   0  0  0  0  0  0  0  0  0  0  0  0
  -22.4985  -32.0572   13.0462 C   0  0  0  0  0  0  0  0  0  0  0  0
  -19.4195  -28.5164   17.7210 C   0  0  0  0  0  0  0  0  0  0  0  0
  -19.6484  -29.1449   15.3083 C   0  0  0  0  0  0  0  0  0  0  0  0
  -19.0633  -30.8840   16.9983 C   0  0  0  0  0  0  0  0  0  0  0  0
  -25.5690  -32.1609   15.2906 C   0  0  0  0  0  0  0  0  0  0  0  0
  -28.1622  -24.7853   19.4839 C   0  0  0  0  0  0  0  0  0  1  0  0
  -21.4144  -29.9562   16.9376 C   0  0  1  0  0  0  0  0  0  0  0  0
  -23.2504  -32.0530   14.3681 C   0  0  2  0  0  0  0  0  0  0  0  0
  -19.9085  -29.6146   16.7556 C   0  0  0  0  0  0  0  0  0  0  0  0
  -25.8307  -11.8468   20.7609 N   0  0  0  0  0  0  0  0  0  0  0  0
  -29.1474  -21.5849   18.0179 N   0  0  0  0  0  0  0  0  0  0  0  0
  -26.7093  -12.7300   21.2650 N   0  0  0  0  0  0  0  0  0  0  0  0
  -22.6715  -29.6215   19.0427 N   0  0  0  0  0  0  0  0  0  0  0  0
  -27.5294  -15.8070   19.1428 N   0  0  0  0  0  0  0  0  0  0  0  0
  -28.2769  -18.0248   18.6431 N   0  0  0  0  0  0  0  0  0  0  0  0
  -27.6258  -13.5331   23.2962 N   0  0  0  0  0  0  0  0  0  0  0  0
  -24.7071  -10.3641   24.6509 N   0  0  0  0  0  0  0  0  0  0  0  0
  -21.4989  -29.4203   22.4064 N   0  0  0  0  0  0  0  0  0  0  0  0
  -21.8985  -31.0120   16.0548 N   0  0  0  0  0  0  0  0  0  0  0  0
  -24.7101  -32.1334   14.0788 N   0  3  0  0  0  0  0  0  0  0  0  0
  -26.2253  -11.9260   25.3681 O   0  0  0  0  0  0  0  0  0  0  0  0
  -21.7786  -27.8063   20.7514 O   0  0  0  0  0  0  0  0  0  0  0  0
  -21.1880  -31.4042   18.8026 O   0  0  0  0  0  0  0  0  0  0  0  0
  -23.5586  -29.7522   15.0381 O   0  0  0  0  0  0  0  0  0  0  0  0
  -28.1748  -17.2638   20.8015 O   0  0  0  0  0  0  0  0  0  0  0  0
  -21.4831   -7.2328   21.3591 O   0  0  0  0  0  0  0  0  0  0  0  0
  -26.9952  -25.2198   18.7870 O   0  0  0  0  0  0  0  0  0  1  0  0
  -22.1337   -2.6643   24.3774 F   0  0  0  0  0  0  0  0  0  0  0  0
  -21.5667   -7.3566   24.1196 F   0  0  0  0  0  0  0  0  0  0  0  0
  1  2  1  0  0  0  0
  1  5  2  0  0  0  0
  2  6  2  0  0  0  0
  3  8  2  0  0  0  0
  3 15  1  0  0  0  0
  4  9  1  0  0  0  0
  4 15  2  0  0  0  0
  5 17  1  0  0  0  0
  6 19  1  0  0  0  0
  7 10  2  0  0  0  0
  7 18  1  0  0  0  0
  8 23  1  0  0  0  0
  9 23  2  0  0  0  0
 10 24  1  0  0  0  0
 11 12  2  0  0  0  0
 11 25  1  0  0  0  0
 12 26  1  0  0  0  0
 13 20  1  0  0  0  0
 13 24  2  0  0  0  0
 14 26  2  0  0  0  0
 14 27  1  0  0  0  0
 15 28  1  0  0  0  0
 16 28  1  0  0  0  0
 16 31  2  0  0  0  0
 16 32  1  0  0  0  0
 17 19  2  0  0  0  0
 17 37  1  0  0  0  0
 18 20  2  0  0  0  0
 18 38  1  0  0  0  0
 19 49  1  0  0  0  0
 20 39  1  0  0  0  0
 21 22  1  0  0  0  0
 21 29  2  0  0  0  0
 21 53  1  0  0  0  0
 22 30  2  0  0  0  0
 22 61  1  0  0  0  0
 23 81  1  0  0  0  0
 24 82  1  0  0  0  0
 25 27  2  0  0  0  0
 25 81  1  0  0  0  0
 26 83  1  0  0  0  0
 27 84  1  0  0  0  0
 28 65  2  0  0  0  0
 29 54  1  0  0  0  0
 29 66  1  0  0  0  0
 30 55  1  0  0  0  0
 30 66  1  0  0  0  0
 31 67  1  0  0  0  0
 31 71  1  0  0  0  0
 32 72  1  0  0  0  0
 32 76  2  0  0  0  0
 33 50  1  0  0  0  0
 33 73  1  0  0  0  0
 33 77  2  0  0  0  0
 34 62  1  0  0  0  0
 34 68  1  0  0  0  0
 34 78  2  0  0  0  0
 35 63  1  0  0  0  0
 35 74  1  0  0  0  0
 35 79  2  0  0  0  0
 36 69  1  0  0  0  0
 36 70  1  0  0  0  0
 36 80  2  0  0  0  0
 37 40  1  0  0  0  0
 38 50  1  0  0  0  0
 39 68  1  0  0  0  0
 40 42  1  0  0  0  0
 41 43  1  0  0  0  0
 41 45  1  0  0  0  0
 42 49  1  0  0  0  0
 43 51  1  0  0  0  0
 44 46  1  0  0  0  0
 44 52  1  0  0  0  0
 45 69  1  0  0  0  0
 46 70  1  0  0  0  0
 47 51  1  0  0  0  0
 47 69  1  0  0  0  0
 48 52  1  0  0  0  0
 48 70  1  0  0  0  0
 49 73  1  0  0  0  0
 50 68  1  0  0  0  0
 51 67  1  0  0  0  0
 52 66  1  0  0  0  0
 56 63  1  0  0  0  0
 57 64  1  0  0  0  0
 58 64  1  0  0  0  0
 59 64  1  0  0  0  0
 60 75  1  0  0  0  0
 61 82  1  0  0  0  0
 62 64  1  0  0  0  0
 62 74  1  0  0  0  0
 63 75  1  0  0  0  0
 65 67  1  0  0  0  0
M  CHG  1  75   1
M  ISO  4  36 100  61 101  70 100  82 101
M  END
> <Batch ID>
0170

> <Smiles>
CNC(C)C(=O)NC(C(=O)N1Cc2cc([101O:1][101CH2:1]c3c(C)c(C)n(C4CC[100N:0]([100C:0](=O)N5CCCC(n6nc(-c7ccc(Oc8ccc(F)cc8F)cc7)c(C(N)=O)c6N)C5)C4)c3C)ccc2CC1C(=O)NC1CCCc2ccccc21)C(C)(C)C

> <Shape>
0.266

> <Color>
0.095

> <Negative vol penalty>
0.000

$$$$

  -OEChem-04052322353D

 91101  0     1  0  0  0  0  0999 V2000
  -26.7063  -38.0691   22.8972 C   0  0  0  0  0  0  0  0  0  0  0  0
  -27.5215  -37.0236   22.4755 C   0  0  0  0  0  0  0  0  0  0  0  0
  -23.5208   -9.6160   19.8234 C   0  0  0  0  0  0  0  0  0  0  0  0
  -24.4173   -9.5417   22.0657 C   0  0  0  0  0  0  0  0  0  0  0  0
  -25.4983  -37.7952   23.5371 C   0  0  0  0  0  0  0  0  0  0  0  0
  -27.1295  -35.7035   22.6944 C   0  0  0  0  0  0  0  0  0  0  0  0
  -27.5745  -29.1868   19.7530 C   0  0  0  0  0  0  0  0  0  0  0  0
  -23.0036   -8.3310   19.9875 C   0  0  0  0  0  0  0  0  0  0  0  0
  -23.9000   -8.2568   22.2299 C   0  0  0  0  0  0  0  0  0  0  0  0
  -27.9501  -27.8833   20.0747 C   0  0  0  0  0  0  0  0  0  0  0  0
  -22.5056   -5.0981   23.3686 C   0  0  0  0  0  0  0  0  0  0  0  0
  -21.8466   -4.8114   24.5640 C   0  0  0  0  0  0  0  0  0  0  0  0
  -25.8047  -27.5293   21.1194 C   0  0  0  0  0  0  0  0  0  0  0  0
  -20.2431   -6.5577   24.0989 C   0  0  0  0  0  0  0  0  0  0  0  0
  -24.2277  -10.2213   20.8624 C   0  0  0  0  0  0  0  0  0  0  0  0
  -24.1232  -12.7670   20.9895 C   0  0  0  0  0  0  0  0  0  0  0  0
  -25.0867  -36.4709   23.7553 C   0  0  0  0  0  0  0  0  0  0  0  0
  -26.3131  -29.6758   20.1223 C   0  0  0  0  0  0  0  0  0  0  0  0
  -25.9154  -35.4115   23.3390 C   0  0  0  0  0  0  0  0  0  0  0  0
  -25.4145  -28.8386   20.7989 C   0  0  0  0  0  0  0  0  0  0  0  0
  -23.1932   -7.6514   21.1908 C   0  0  0  0  0  0  0  0  0  0  0  0
  -27.0662  -27.0552   20.7606 C   0  0  0  0  0  0  0  0  0  0  0  0
  -22.0334   -6.1147   22.5383 C   0  0  0  0  0  0  0  0  0  0  0  0
  -20.7153   -5.5411   24.9291 C   0  0  0  0  0  0  0  0  0  0  0  0
  -20.9022   -6.8445   22.9035 C   0  0  0  0  0  0  0  0  0  0  0  0
  -24.7628  -11.5484   20.6932 C   0  0  0  0  0  0  0  0  0  0  0  0
  -25.0445  -13.7288   20.6539 C   0  0  0  0  0  0  0  0  0  0  0  0
  -29.9736  -22.3188   22.5839 C   0  0  0  0  0  0  0  0  0  0  0  0
  -29.7785  -23.7002   22.1903 C   0  0  0  0  0  0  0  0  0  0  0  0
  -29.4012  -21.2868   21.9518 C   0  0  0  0  0  0  0  0  0  0  0  0
  -28.9790  -23.9700   21.1324 C   0  0  0  0  0  0  0  0  0  0  0  0
  -28.5149  -21.5766   20.7788 C   0  0  0  0  0  0  0  0  0  0  0  0
  -22.8134  -13.0080   21.5206 C   0  0  0  0  0  0  0  0  0  0  0  0
  -25.2791  -32.0312   21.9895 C   0  0  0  0  0  0  0  0  0  0  0  0
  -22.3823  -31.1696   20.8111 C   0  0  0  0  0  0  0  0  0  0  0  0
  -20.4304  -28.7501   19.4030 C   0  0  0  0  0  0  0  0  0  0  0  0
  -30.2729  -15.6804   20.6826 C   0  0  0  0  0  0  0  0  0  0  0  0
  -23.7948  -36.2246   24.4935 C   0  0  0  0  0  0  0  0  0  0  0  0
  -25.9130  -31.0756   19.7443 C   0  0  0  0  0  0  0  0  0  0  0  0
  -24.0411  -29.3089   21.2002 C   0  0  0  0  0  0  0  0  0  0  0  0
  -23.2755  -34.7960   24.3524 C   0  0  0  0  0  0  0  0  0  0  0  0
  -29.4064  -13.3673   18.1183 C   0  0  0  0  0  0  0  0  0  0  0  0
  -24.4025  -33.7935   24.5795 C   0  0  0  0  0  0  0  0  0  0  0  0
  -29.6953  -25.7989   23.6368 C   0  0  0  0  0  0  0  0  0  0  0  0
  -30.2653  -24.7005   24.4846 C   0  0  0  0  0  0  0  0  0  0  0  0
  -28.0722  -12.7844   18.5871 C   0  0  0  0  0  0  0  0  0  0  0  0
  -30.3490  -13.6331   19.2900 C   0  0  0  0  0  0  0  0  0  0  0  0
  -28.4453  -13.8823   20.8353 C   0  0  0  0  0  0  0  0  0  0  0  0
  -29.4993  -18.8706   21.3384 C   0  0  0  0  0  0  0  0  0  0  0  0
  -29.8097  -19.5066   23.6505 C   0  0  0  0  0  0  0  0  0  0  0  0
  -25.5130  -33.9661   23.5362 C   0  0  1  0  0  0  0  0  0  0  0  0
  -30.4959  -24.7085   23.0126 C   0  0  0  0  0  0  0  0  0  0  0  0
  -24.7981  -31.6359   20.6220 C   0  0  1  0  0  0  0  0  0  0  0  0
  -27.4403  -13.6495   19.6942 C   0  0  2  0  0  0  0  0  0  0  0  0
  -30.0503  -17.6827   22.1320 C   0  0  1  0  0  0  0  0  0  0  0  0
  -29.5840  -18.0015   23.5452 C   0  0  1  0  0  0  0  0  0  0  0  0
  -18.0945  -28.3305   18.5878 C   0  0  0  0  0  0  0  0  0  0  0  0
  -26.0813  -22.7439   19.5776 C   0  0  0  0  0  0  0  0  0  0  0  0
  -28.0720  -22.5905   18.0415 C   0  0  0  0  0  0  0  0  0  0  0  0
  -21.4233  -30.9167   23.6967 C   0  0  0  0  0  0  0  0  0  0  0  0
  -19.4579  -29.6135   22.8559 C   0  0  0  0  0  0  0  0  0  0  0  0
  -19.7801  -31.9815   22.1408 C   0  0  0  0  0  0  0  0  0  0  0  0
  -21.3641  -28.2181   16.6454 C   0  0  0  0  0  0  0  0  0  0  0  0
  -28.7333  -25.3614   20.6744 C   0  0  0  0  0  0  0  0  0  1  0  0
  -21.3094  -30.1902   21.2218 C   0  0  1  0  0  0  0  0  0  0  0  0
  -19.4967  -28.7790   18.2064 C   0  0  2  0  0  0  0  0  0  0  0  0
  -27.4908  -23.2398   19.2890 C   0  0  0  0  0  0  0  0  0  0  0  0
  -20.5192  -30.6669   22.4731 C   0  0  0  0  0  0  0  0  0  0  0  0
  -25.9951  -11.7178   20.2067 N   0  0  0  0  0  0  0  0  0  0  0  0
  -26.1372  -13.0542   20.1946 N   0  0  0  0  0  0  0  0  0  0  0  0
  -29.5589  -19.9805   22.2899 N   0  0  3  0  0  0  0  0  0  0  0  0
  -28.3522  -22.9276   20.4310 N   0  0  0  0  0  0  0  0  0  0  0  0
  -23.6989  -30.6876   20.8135 N   0  0  0  0  0  0  0  0  0  0  0  0
  -29.6897  -14.4600   20.3037 N   0  0  0  0  0  0  0  0  0  0  0  0
  -25.0184  -15.0774   20.7098 N   0  0  0  0  0  0  0  0  0  0  0  0
  -21.9966  -11.9064   21.8098 N   0  0  0  0  0  0  0  0  0  0  0  0
  -25.1191  -33.3735   22.2760 N   0  0  0  0  0  0  0  0  0  0  0  0
  -20.4821  -29.9718   20.0401 N   0  0  0  0  0  0  0  0  0  0  0  0
  -29.5800  -16.4051   21.6447 N   0  0  0  0  0  0  0  0  0  0  0  0
  -30.3700  -17.2708   24.5550 N   0  3  0  0  0  0  0  0  0  0  0  0
  -20.0026  -27.8778   17.1327 N   0  3  0  0  0  0  0  0  0  0  0  0
  -27.9818  -20.6355   20.1878 O   0  0  0  0  0  0  0  0  0  0  0  0
  -22.3740  -14.1664   21.7170 O   0  0  0  0  0  0  0  0  0  0  0  0
  -25.7584  -31.1809   22.7305 O   0  0  0  0  0  0  0  0  0  0  0  0
  -22.0631  -32.3179   20.4929 O   0  0  0  0  0  0  0  0  0  0  0  0
  -21.0490  -27.7433   19.7411 O   0  0  0  0  0  0  0  0  0  0  0  0
  -31.3297  -16.0961   20.1955 O   0  0  0  0  0  0  0  0  0  0  0  0
  -22.6884   -6.3977   21.3514 O   0  0  0  0  0  0  0  0  0  0  0  0
  -27.4306  -25.7827   21.0764 O   0  0  0  0  0  0  0  0  0  1  0  0
  -20.0816   -5.2646   26.0764 F   0  0  0  0  0  0  0  0  0  0  0  0
  -20.4432   -7.8215   22.1094 F   0  0  0  0  0  0  0  0  0  0  0  0
  1  2  1  0  0  0  0
  1  5  2  0  0  0  0
  2  6  2  0  0  0  0
  3  8  2  0  0  0  0
  3 15  1  0  0  0  0
  4  9  1  0  0  0  0
  4 15  2  0  0  0  0
  5 17  1  0  0  0  0
  6 19  1  0  0  0  0
  7 10  2  0  0  0  0
  7 18  1  0  0  0  0
  8 21  1  0  0  0  0
  9 21  2  0  0  0  0
 10 22  1  0  0  0  0
 11 12  2  0  0  0  0
 11 23  1  0  0  0  0
 12 24  1  0  0  0  0
 13 20  1  0  0  0  0
 13 22  2  0  0  0  0
 14 24  2  0  0  0  0
 14 25  1  0  0  0  0
 15 26  1  0  0  0  0
 16 26  1  0  0  0  0
 16 27  2  0  0  0  0
 16 33  1  0  0  0  0
 17 19  2  0  0  0  0
 17 38  1  0  0  0  0
 18 20  2  0  0  0  0
 18 39  1  0  0  0  0
 19 51  1  0  0  0  0
 20 40  1  0  0  0  0
 21 88  1  0  0  0  0
 22 89  1  0  0  0  0
 23 25  2  0  0  0  0
 23 88  1  0  0  0  0
 24 90  1  0  0  0  0
 25 91  1  0  0  0  0
 26 69  2  0  0  0  0
 27 70  1  0  0  0  0
 27 75  1  0  0  0  0
 28 29  1  0  0  0  0
 28 30  2  0  0  0  0
 29 31  2  0  0  0  0
 29 52  1  0  0  0  0
 30 32  1  0  0  0  0
 30 71  1  0  0  0  0
 31 64  1  0  0  0  0
 31 72  1  0  0  0  0
 32 72  1  0  0  0  0
 32 82  2  0  0  0  0
 33 76  1  0  0  0  0
 33 83  2  0  0  0  0
 34 53  1  0  0  0  0
 34 77  1  0  0  0  0
 34 84  2  0  0  0  0
 35 65  1  0  0  0  0
 35 73  1  0  0  0  0
 35 85  2  0  0  0  0
 36 66  1  0  0  0  0
 36 78  1  0  0  0  0
 36 86  2  0  0  0  0
 37 74  1  0  0  0  0
 37 79  1  0  0  0  0
 37 87  2  0  0  0  0
 38 41  1  0  0  0  0
 39 53  1  0  0  0  0
 40 73  1  0  0  0  0
 41 43  1  0  0  0  0
 42 46  1  0  0  0  0
 42 47  1  0  0  0  0
 43 51  1  0  0  0  0
 44 45  1  0  0  0  0
 44 52  1  0  0  0  0
 45 52  1  0  0  0  0
 46 54  1  0  0  0  0
 47 74  1  0  0  0  0
 48 54  1  0  0  0  0
 48 74  1  0  0  0  0
 49 55  1  0  0  0  0
 49 71  1  0  0  0  0
 50 56  1  0  0  0  0
 50 71  1  0  0  0  0
 51 77  1  0  0  0  0
 53 73  1  0  0  0  0
 54 70  1  0  0  0  0
 55 56  1  0  0  0  0
 55 79  1  0  0  0  0
 56 80  1  0  0  0  0
 57 66  1  0  0  0  0
 58 67  1  0  0  0  0
 59 67  1  0  0  0  0
 60 68  1  0  0  0  0
 61 68  1  0  0  0  0
 62 68  1  0  0  0  0
 63 81  1  0  0  0  0
 64 89  1  0  0  0  0
 65 68  1  0  0  0  0
 65 78  1  0  0  0  0
 66 81  1  0  0  0  0
 67 72  1  0  0  0  0
 69 70  1  0  0  0  0
M  CHG  2  80   1  81   1
M  ISO  4  37 100  64 101  79 100  89 101
M  END
> <Batch ID>
0170

> <Smiles>
CNC(C)C(=O)NC(C(=O)N1Cc2cc([101O:1][101CH2:1]c3c(C4CC4)cc(N4CC(N)C([100NH:0][100C:0](=O)N5CCCC(n6nc(-c7ccc(Oc8ccc(F)cc8F)cc7)c(C(N)=O)c6N)C5)C4)c(=O)n3C(C)C)ccc2CC1C(=O)NC1CCCc2ccccc21)C(C)(C)C

> <Shape>
0.370

> <Color>
0.152

> <Negative vol penalty>
0.000

$$$$

  -OEChem-04052322353D

 91101  0     1  0  0  0  0  0999 V2000
  -18.3946  -25.8074   22.4268 C   0  0  0  0  0  0  0  0  0  0  0  0
  -19.1158  -26.2678   21.3299 C   0  0  0  0  0  0  0  0  0  0  0  0
  -27.8550  -12.4562   18.8114 C   0  0  0  0  0  0  0  0  0  0  0  0
  -28.3854  -12.4353   21.1683 C   0  0  0  0  0  0  0  0  0  0  0  0
  -18.1861  -26.6432   23.5232 C   0  0  0  0  0  0  0  0  0  0  0  0
  -19.6280  -27.5647   21.3282 C   0  0  0  0  0  0  0  0  0  0  0  0
  -24.4099  -27.7628   19.6731 C   0  0  0  0  0  0  0  0  0  0  0  0
  -29.1556  -12.0486   18.5150 C   0  0  0  0  0  0  0  0  0  0  0  0
  -29.6861  -12.0277   20.8720 C   0  0  0  0  0  0  0  0  0  0  0  0
  -24.6104  -27.6896   18.2953 C   0  0  0  0  0  0  0  0  0  0  0  0
  -30.9334   -9.1727   18.5487 C   0  0  0  0  0  0  0  0  0  0  0  0
  -31.0955   -8.1542   17.6096 C   0  0  0  0  0  0  0  0  0  0  0  0
  -24.8725  -30.0861   18.2122 C   0  0  0  0  0  0  0  0  0  0  0  0
  -32.3937   -9.6432   16.2188 C   0  0  0  0  0  0  0  0  0  0  0  0
  -27.4699  -12.6496   20.1380 C   0  0  0  0  0  0  0  0  0  0  0  0
  -25.0117  -12.2469   20.6885 C   0  0  0  0  0  0  0  0  0  0  0  0
  -18.7042  -27.9477   23.5390 C   0  0  0  0  0  0  0  0  0  0  0  0
  -24.4285  -29.0014   20.3302 C   0  0  0  0  0  0  0  0  0  0  0  0
  -19.4251  -28.4192   22.4252 C   0  0  0  0  0  0  0  0  0  0  0  0
  -24.6746  -30.1721   19.5987 C   0  0  0  0  0  0  0  0  0  0  0  0
  -30.0712  -11.8343   19.5454 C   0  0  0  0  0  0  0  0  0  0  0  0
  -24.8388  -28.8516   17.5642 C   0  0  0  0  0  0  0  0  0  0  0  0
  -31.5015  -10.4265   18.3229 C   0  0  0  0  0  0  0  0  0  0  0  0
  -31.8257   -8.3894   16.4446 C   0  0  0  0  0  0  0  0  0  0  0  0
  -32.2316  -10.6617   17.1579 C   0  0  0  0  0  0  0  0  0  0  0  0
  -26.1266  -13.0712   20.4447 C   0  0  0  0  0  0  0  0  0  0  0  0
  -23.9824  -13.1239   20.9288 C   0  0  0  0  0  0  0  0  0  0  0  0
  -24.9152  -10.8164   20.6971 C   0  0  0  0  0  0  0  0  0  0  0  0
  -22.3158  -30.6825   22.0079 C   0  0  0  0  0  0  0  0  0  0  0  0
  -24.8589  -32.6290   22.5242 C   0  0  0  0  0  0  0  0  0  0  0  0
  -27.6026  -33.9465   20.5869 C   0  0  0  0  0  0  0  0  0  0  0  0
  -26.6428  -17.6642   19.8131 C   0  0  0  0  0  0  0  0  0  0  0  0
  -18.4126  -28.8303   24.7267 C   0  0  0  0  0  0  0  0  0  0  0  0
  -24.2371  -29.0608   21.8209 C   0  0  0  0  0  0  0  0  0  0  0  0
  -24.7244  -31.5245   20.2598 C   0  0  0  0  0  0  0  0  0  0  0  0
  -19.3086  -30.0638   24.8036 C   0  0  0  0  0  0  0  0  0  0  0  0
  -24.9791  -16.8700   22.9445 C   0  0  0  0  0  0  0  0  0  0  0  0
  -19.3966  -30.7455   23.4418 C   0  0  0  0  0  0  0  0  0  0  0  0
  -23.7263  -16.1468   22.4618 C   0  0  0  0  0  0  0  0  0  0  0  0
  -28.4094  -26.1675   18.0765 C   0  0  0  0  0  0  0  0  0  0  0  0
  -27.5019  -24.5534   16.3835 C   0  0  0  0  0  0  0  0  0  0  0  0
  -25.3854  -18.0008   22.0034 C   0  0  0  0  0  0  0  0  0  0  0  0
  -27.0439  -20.0404   20.5921 C   0  0  0  0  0  0  0  0  0  0  0  0
  -28.8384  -18.7635   19.4970 C   0  0  0  0  0  0  0  0  0  0  0  0
  -27.2283  -21.1408   19.5403 C   0  0  0  0  0  0  0  0  0  0  0  0
  -28.9712  -19.8649   18.4473 C   0  0  0  0  0  0  0  0  0  0  0  0
  -24.3276  -16.8307   20.0837 C   0  0  0  0  0  0  0  0  0  0  0  0
  -28.3392  -27.2823   17.0387 C   0  0  0  0  0  0  0  0  0  0  0  0
  -27.4376  -25.6761   15.3547 C   0  0  0  0  0  0  0  0  0  0  0  0
  -30.1613  -22.1810   17.4309 C   0  0  0  0  0  0  0  0  0  0  0  0
  -30.0199  -24.6323   16.8829 C   0  0  0  0  0  0  0  0  0  0  0  0
  -20.0178  -29.8113   22.3963 C   0  0  1  0  0  0  0  0  0  0  0  0
  -23.7656  -30.4272   22.3089 C   0  0  1  0  0  0  0  0  0  0  0  0
  -28.4092  -23.6363   18.5939 C   0  0  2  0  0  0  0  0  0  0  0  0
  -23.8062  -15.7031   20.9920 C   0  0  1  0  0  0  0  0  0  0  0  0
  -28.7565  -22.2287   18.0263 C   0  0  2  0  0  0  0  0  0  0  0  0
  -28.5949  -24.7446   17.4793 C   0  0  0  0  0  0  0  0  0  0  0  0
  -29.1892  -23.9477   19.8888 C   0  0  0  0  0  0  0  0  0  0  0  0
  -29.8909  -34.6930   21.2969 C   0  0  0  0  0  0  0  0  0  0  0  0
  -26.0327  -30.4489   14.7849 C   0  0  0  0  0  0  0  0  0  0  0  0
  -23.5935  -35.4018   22.6669 C   0  0  0  0  0  0  0  0  0  0  0  0
  -25.7218  -36.3441   21.7448 C   0  0  0  0  0  0  0  0  0  0  0  0
  -25.7315  -35.1638   23.9424 C   0  0  0  0  0  0  0  0  0  0  0  0
  -28.9211  -32.1111   18.6760 C   0  0  0  0  0  0  0  0  0  0  0  0
  -27.0485  -28.1199   15.0818 C   0  0  0  0  0  0  0  0  0  0  0  0
  -25.4517  -33.8236   21.8169 C   0  0  1  0  0  0  0  0  0  0  0  0
  -29.0661  -33.5608   20.7048 C   0  0  2  0  0  0  0  0  0  0  0  0
  -26.2807  -29.2728   15.7204 C   0  0  2  0  0  0  0  0  0  1  0  0
  -25.1104  -35.1632   22.5286 C   0  0  0  0  0  0  0  0  0  0  0  0
  -25.8332  -14.3719   20.5228 N   0  0  0  0  0  0  0  0  0  0  0  0
  -24.5222  -14.3716   20.8183 N   0  0  0  0  0  0  0  0  0  0  0  0
  -24.5251  -31.5311   21.7185 N   0  0  0  0  0  0  0  0  0  0  0  0
  -25.4941  -17.5415   20.6127 N   0  0  0  0  0  0  0  0  0  0  0  0
  -27.4953  -18.7454   20.0718 N   0  0  0  0  0  0  0  0  0  0  0  0
  -28.6021  -21.1670   19.0198 N   0  0  0  0  0  0  0  0  0  0  0  0
  -22.6772  -12.9419   21.2217 N   0  0  0  0  0  0  0  0  0  0  0  0
  -26.0693  -10.0673   20.4300 N   0  0  0  0  0  0  0  0  0  0  0  0
  -21.4545  -29.7537   22.5602 N   0  0  0  0  0  0  0  0  0  0  0  0
  -26.8812  -33.5585   21.6961 N   0  0  0  0  0  0  0  0  0  0  0  0
  -30.2942  -23.2471   16.3959 N   0  3  0  0  0  0  0  0  0  0  0  0
  -27.2382  -26.9908   16.0572 N   0  3  0  0  0  0  0  0  0  0  0  0
  -29.6230  -33.2252   19.3638 N   0  3  0  0  0  0  0  0  0  0  0  0
  -23.8339  -10.2203   20.9184 O   0  0  0  0  0  0  0  0  0  0  0  0
  -22.0018  -31.6512   21.3264 O   0  0  0  0  0  0  0  0  0  0  0  0
  -24.7044  -32.6657   23.7475 O   0  0  0  0  0  0  0  0  0  0  0  0
  -27.1459  -34.5366   19.6103 O   0  0  0  0  0  0  0  0  0  0  0  0
  -26.9012  -16.8458   18.9211 O   0  0  0  0  0  0  0  0  0  0  0  0
  -31.3403  -11.4364   19.2566 O   0  0  0  0  0  0  0  0  0  0  0  0
  -25.0353  -28.7826   16.2114 O   0  0  0  0  0  0  0  0  0  1  0  0
  -31.9825   -7.4108   15.5436 F   0  0  0  0  0  0  0  0  0  0  0  0
  -32.7807  -11.8639   16.9360 F   0  0  0  0  0  0  0  0  0  0  0  0
  1  2  1  0  0  0  0
  1  5  2  0  0  0  0
  2  6  2  0  0  0  0
  3  8  2  0  0  0  0
  3 15  1  0  0  0  0
  4  9  1  0  0  0  0
  4 15  2  0  0  0  0
  5 17  1  0  0  0  0
  6 19  1  0  0  0  0
  7 10  2  0  0  0  0
  7 18  1  0  0  0  0
  8 21  1  0  0  0  0
  9 21  2  0  0  0  0
 10 22  1  0  0  0  0
 11 12  2  0  0  0  0
 11 23  1  0  0  0  0
 12 24  1  0  0  0  0
 13 20  1  0  0  0  0
 13 22  2  0  0  0  0
 14 24  2  0  0  0  0
 14 25  1  0  0  0  0
 15 26  1  0  0  0  0
 16 26  1  0  0  0  0
 16 27  2  0  0  0  0
 16 28  1  0  0  0  0
 17 19  2  0  0  0  0
 17 33  1  0  0  0  0
 18 20  2  0  0  0  0
 18 34  1  0  0  0  0
 19 52  1  0  0  0  0
 20 35  1  0  0  0  0
 21 88  1  0  0  0  0
 22 89  1  0  0  0  0
 23 25  2  0  0  0  0
 23 88  1  0  0  0  0
 24 90  1  0  0  0  0
 25 91  1  0  0  0  0
 26 70  2  0  0  0  0
 27 71  1  0  0  0  0
 27 76  1  0  0  0  0
 28 77  1  0  0  0  0
 28 83  2  0  0  0  0
 29 53  1  0  0  0  0
 29 78  1  0  0  0  0
 29 84  2  0  0  0  0
 30 66  1  0  0  0  0
 30 72  1  0  0  0  0
 30 85  2  0  0  0  0
 31 67  1  0  0  0  0
 31 79  1  0  0  0  0
 31 86  2  0  0  0  0
 32 73  1  0  0  0  0
 32 74  1  0  0  0  0
 32 87  2  0  0  0  0
 33 36  1  0  0  0  0
 34 53  1  0  0  0  0
 35 72  1  0  0  0  0
 36 38  1  0  0  0  0
 37 39  1  0  0  0  0
 37 42  1  0  0  0  0
 38 52  1  0  0  0  0
 39 55  1  0  0  0  0
 40 48  1  0  0  0  0
 40 57  1  0  0  0  0
 41 49  1  0  0  0  0
 41 57  1  0  0  0  0
 42 73  1  0  0  0  0
 43 45  1  0  0  0  0
 43 74  1  0  0  0  0
 44 46  1  0  0  0  0
 44 74  1  0  0  0  0
 45 75  1  0  0  0  0
 46 75  1  0  0  0  0
 47 55  1  0  0  0  0
 47 73  1  0  0  0  0
 48 81  1  0  0  0  0
 49 81  1  0  0  0  0
 50 56  1  0  0  0  0
 50 80  1  0  0  0  0
 51 57  1  0  0  0  0
 51 80  1  0  0  0  0
 52 78  1  0  0  0  0
 53 72  1  0  0  0  0
 54 56  1  0  0  0  0
 54 57  1  0  0  0  0
 54 58  1  0  0  0  0
 55 71  1  0  0  0  0
 56 75  1  0  0  0  0
 59 67  1  0  0  0  0
 60 68  1  0  0  0  0
 61 69  1  0  0  0  0
 62 69  1  0  0  0  0
 63 69  1  0  0  0  0
 64 82  1  0  0  0  0
 65 68  1  0  0  0  0
 65 81  1  0  0  0  0
 66 69  1  0  0  0  0
 66 79  1  0  0  0  0
 67 82  1  0  0  0  0
 68 89  1  0  0  0  0
 70 71  1  0  0  0  0
M  CHG  3  80   1  81   1  82   1
M  ISO  4  32 100  68 101  74 100  89 101
M  END
> <Batch ID>
0170

> <Smiles>
CNC(C)C(=O)NC(C(=O)N1Cc2cc([101O:1][101CH:1](C)CN3CCC4(CC3)CNCC(N3CC[100N:0]([100C:0](=O)N5CCCC(n6nc(-c7ccc(Oc8ccc(F)cc8F)cc7)c(C(N)=O)c6N)C5)CC3)C4C)ccc2CC1C(=O)NC1CCCc2ccccc21)C(C)(C)C

> <Shape>
0.295

> <Color>
0.085

> <Negative vol penalty>
0.000

$$$$

  -OEChem-04052322353D

 86 96  0     1  0  0  0  0  0999 V2000
  -27.0408  -38.0166   24.4487 C   0  0  0  0  0  0  0  0  0  0  0  0
  -27.7030  -37.1474   23.5877 C   0  0  0  0  0  0  0  0  0  0  0  0
  -22.5181  -13.1833   22.6985 C   0  0  0  0  0  0  0  0  0  0  0  0
  -21.9490  -13.8501   20.4471 C   0  0  0  0  0  0  0  0  0  0  0  0
  -26.1631  -37.5122   25.4073 C   0  0  0  0  0  0  0  0  0  0  0  0
  -27.4887  -35.7730   23.6856 C   0  0  0  0  0  0  0  0  0  0  0  0
  -27.1890  -29.8675   19.6419 C   0  0  0  0  0  0  0  0  0  0  0  0
  -21.2033  -13.4186   23.1005 C   0  0  0  0  0  0  0  0  0  0  0  0
  -20.6342  -14.0853   20.8491 C   0  0  0  0  0  0  0  0  0  0  0  0
  -27.7253  -28.5825   19.5707 C   0  0  0  0  0  0  0  0  0  0  0  0
  -17.0415  -14.5168   21.2020 C   0  0  0  0  0  0  0  0  0  0  0  0
  -16.0173  -14.0422   20.3827 C   0  0  0  0  0  0  0  0  0  0  0  0
  -26.1261  -27.8307   21.2129 C   0  0  0  0  0  0  0  0  0  0  0  0
  -16.8348  -11.7866   20.6673 C   0  0  0  0  0  0  0  0  0  0  0  0
  -22.8910  -13.3991   21.3718 C   0  0  0  0  0  0  0  0  0  0  0  0
  -24.7852  -11.9520   20.4635 C   0  0  0  0  0  0  0  0  0  0  0  0
  -25.9305  -36.1316   25.5107 C   0  0  0  0  0  0  0  0  0  0  0  0
  -26.1226  -30.1466   20.5086 C   0  0  0  0  0  0  0  0  0  0  0  0
  -26.6080  -35.2495   24.6474 C   0  0  0  0  0  0  0  0  0  0  0  0
  -25.5765  -29.1194   21.2913 C   0  0  0  0  0  0  0  0  0  0  0  0
  -30.3085  -22.8201   20.5343 C   0  0  0  0  0  0  0  0  0  0  0  0
  -29.9413  -24.1610   20.5170 C   0  0  0  0  0  0  0  0  0  0  0  0
  -29.2194  -24.6646   19.4406 C   0  0  0  0  0  0  0  0  0  0  0  0
  -20.2614  -13.8695   22.1759 C   0  0  0  0  0  0  0  0  0  0  0  0
  -27.1958  -27.5645   20.3584 C   0  0  0  0  0  0  0  0  0  0  0  0
  -17.9624  -13.6263   21.7539 C   0  0  0  0  0  0  0  0  0  0  0  0
  -15.9139  -12.6771   20.1153 C   0  0  0  0  0  0  0  0  0  0  0  0
  -17.8591  -12.2612   21.4866 C   0  0  0  0  0  0  0  0  0  0  0  0
  -24.2491  -13.1569   20.9560 C   0  0  0  0  0  0  0  0  0  0  0  0
  -29.9324  -22.0308   19.4594 C   0  0  0  0  0  0  0  0  0  0  0  0
  -28.8922  -23.7928   18.4146 C   0  0  0  0  0  0  0  0  0  0  0  0
  -26.1049  -12.2399   20.2142 C   0  0  0  0  0  0  0  0  0  0  0  0
  -24.1474  -10.6858   20.2502 C   0  0  0  0  0  0  0  0  0  0  0  0
  -25.7094  -32.0597   23.0133 C   0  0  0  0  0  0  0  0  0  0  0  0
  -22.6335  -31.0567   22.7792 C   0  0  0  0  0  0  0  0  0  0  0  0
  -20.4376  -28.6674   21.7226 C   0  0  0  0  0  0  0  0  0  0  0  0
  -28.7396  -17.4302   18.9871 C   0  0  0  0  0  0  0  0  0  0  0  0
  -25.0088  -35.6298   26.5939 C   0  0  0  0  0  0  0  0  0  0  0  0
  -25.5379  -31.5318   20.5540 C   0  0  0  0  0  0  0  0  0  0  0  0
  -24.4183  -29.3625   22.2230 C   0  0  0  0  0  0  0  0  0  0  0  0
  -24.5515  -34.1885   26.3851 C   0  0  0  0  0  0  0  0  0  0  0  0
  -29.6742  -15.0517   21.6299 C   0  0  0  0  0  0  0  0  0  0  0  0
  -32.3934  -22.8721   22.0589 C   0  0  0  0  0  0  0  0  0  0  0  0
  -32.3826  -21.5352   21.3861 C   0  0  0  0  0  0  0  0  0  0  0  0
  -25.7365  -33.2999   26.0205 C   0  0  0  0  0  0  0  0  0  0  0  0
  -28.3931  -14.2345   21.7541 C   0  0  0  0  0  0  0  0  0  0  0  0
  -29.4027  -16.5106   21.2617 C   0  0  0  0  0  0  0  0  0  0  0  0
  -29.6079  -19.4903   20.3104 C   0  0  0  0  0  0  0  0  0  0  0  0
  -29.6460  -19.6660   18.1933 C   0  0  0  0  0  0  0  0  0  0  0  0
  -27.2678  -15.8418   20.1765 C   0  0  0  0  0  0  0  0  0  0  0  0
  -31.0826  -22.2406   21.6700 C   0  0  0  0  0  0  0  0  0  0  0  0
  -26.3829  -33.7542   24.7062 C   0  0  1  0  0  0  0  0  0  0  0  0
  -30.2773  -20.4877   19.3362 C   0  0  0  0  0  0  0  0  0  0  0  0
  -24.7880  -31.8216   21.8506 C   0  0  1  0  0  0  0  0  0  0  0  0
  -27.5502  -14.3636   20.4772 C   0  0  2  0  0  0  0  0  0  0  0  0
  -30.3208  -25.0589   21.6512 C   0  0  0  0  0  0  0  0  0  0  0  0
  -28.1196  -24.2765   17.2311 C   0  0  0  0  0  0  0  0  0  0  0  0
  -17.9913  -28.1084   21.7081 C   0  0  0  0  0  0  0  0  0  0  0  0
  -22.7995  -30.2642   25.7211 C   0  0  0  0  0  0  0  0  0  0  0  0
  -20.7363  -28.8843   25.3938 C   0  0  0  0  0  0  0  0  0  0  0  0
  -20.6496  -31.3540   25.0540 C   0  0  0  0  0  0  0  0  0  0  0  0
  -20.3368  -28.6670   18.7648 C   0  0  0  0  0  0  0  0  0  0  0  0
  -28.8072  -26.1065   19.3923 C   0  0  0  0  0  0  0  0  0  1  0  0
  -21.8365  -29.9095   23.3519 C   0  0  1  0  0  0  0  0  0  0  0  0
  -19.1339  -28.7678   20.9515 C   0  0  2  0  0  0  0  0  0  0  0  0
  -21.5286  -30.0985   24.8642 C   0  0  0  0  0  0  0  0  0  0  0  0
  -25.1542  -14.1372   21.0170 N   0  0  0  0  0  0  0  0  0  0  0  0
  -29.2312  -22.4842   18.3962 N   0  0  0  0  0  0  0  0  0  0  0  0
  -26.2725  -13.5487   20.5596 N   0  0  0  0  0  0  0  0  0  0  0  0
  -23.8855  -30.7349   22.2365 N   0  0  0  0  0  0  0  0  0  0  0  0
  -28.5006  -16.6338   20.1120 N   0  0  0  0  0  0  0  0  0  0  0  0
  -29.4559  -18.5963   19.1688 N   0  0  0  0  0  0  0  0  0  0  0  0
  -27.1267  -11.4987   19.7357 N   0  0  0  0  0  0  0  0  0  0  0  0
  -22.7858  -10.5631   20.5588 N   0  0  0  0  0  0  0  0  0  0  0  0
  -25.5919  -33.3162   23.5761 N   0  0  0  0  0  0  0  0  0  0  0  0
  -20.6506  -29.7773   22.5126 N   0  0  0  0  0  0  0  0  0  0  0  0
  -19.2645  -28.1026   19.6243 N   0  3  0  0  0  0  0  0  0  0  0  0
  -24.7705   -9.6879   19.8147 O   0  0  0  0  0  0  0  0  0  0  0  0
  -26.4696  -31.1688   23.3741 O   0  0  0  0  0  0  0  0  0  0  0  0
  -22.1594  -32.1952   22.8058 O   0  0  0  0  0  0  0  0  0  0  0  0
  -21.1900  -27.6994   21.6360 O   0  0  0  0  0  0  0  0  0  0  0  0
  -28.3038  -17.1334   17.8674 O   0  0  0  0  0  0  0  0  0  0  0  0
  -18.9783  -14.0989   22.5678 O   0  0  0  0  0  0  0  0  0  0  0  0
  -27.7177  -26.3096   20.2913 O   0  0  0  0  0  0  0  0  0  1  0  0
  -14.9293  -12.2213   19.3298 F   0  0  0  0  0  0  0  0  0  0  0  0
  -18.7401  -11.4007   22.0149 F   0  0  0  0  0  0  0  0  0  0  0  0
  1  2  1  0  0  0  0
  1  5  2  0  0  0  0
  2  6  2  0  0  0  0
  3  8  2  0  0  0  0
  3 15  1  0  0  0  0
  4  9  1  0  0  0  0
  4 15  2  0  0  0  0
  5 17  1  0  0  0  0
  6 19  1  0  0  0  0
  7 10  2  0  0  0  0
  7 18  1  0  0  0  0
  8 24  1  0  0  0  0
  9 24  2  0  0  0  0
 10 25  1  0  0  0  0
 11 12  2  0  0  0  0
 11 26  1  0  0  0  0
 12 27  1  0  0  0  0
 13 20  1  0  0  0  0
 13 25  2  0  0  0  0
 14 27  2  0  0  0  0
 14 28  1  0  0  0  0
 15 29  1  0  0  0  0
 16 29  1  0  0  0  0
 16 32  2  0  0  0  0
 16 33  1  0  0  0  0
 17 19  2  0  0  0  0
 17 38  1  0  0  0  0
 18 20  2  0  0  0  0
 18 39  1  0  0  0  0
 19 52  1  0  0  0  0
 20 40  1  0  0  0  0
 21 22  1  0  0  0  0
 21 30  2  0  0  0  0
 21 51  1  0  0  0  0
 22 23  2  0  0  0  0
 22 56  1  0  0  0  0
 23 31  1  0  0  0  0
 23 63  1  0  0  0  0
 24 83  1  0  0  0  0
 25 84  1  0  0  0  0
 26 28  2  0  0  0  0
 26 83  1  0  0  0  0
 27 85  1  0  0  0  0
 28 86  1  0  0  0  0
 29 67  2  0  0  0  0
 30 53  1  0  0  0  0
 30 68  1  0  0  0  0
 31 57  1  0  0  0  0
 31 68  2  0  0  0  0
 32 69  1  0  0  0  0
 32 73  1  0  0  0  0
 33 74  1  0  0  0  0
 33 78  2  0  0  0  0
 34 54  1  0  0  0  0
 34 75  1  0  0  0  0
 34 79  2  0  0  0  0
 35 64  1  0  0  0  0
 35 70  1  0  0  0  0
 35 80  2  0  0  0  0
 36 65  1  0  0  0  0
 36 76  1  0  0  0  0
 36 81  2  0  0  0  0
 37 71  1  0  0  0  0
 37 72  1  0  0  0  0
 37 82  2  0  0  0  0
 38 41  1  0  0  0  0
 39 54  1  0  0  0  0
 40 70  1  0  0  0  0
 41 45  1  0  0  0  0
 42 46  1  0  0  0  0
 42 47  1  0  0  0  0
 43 44  1  0  0  0  0
 43 51  1  0  0  0  0
 44 51  1  0  0  0  0
 45 52  1  0  0  0  0
 46 55  1  0  0  0  0
 47 71  1  0  0  0  0
 48 53  1  0  0  0  0
 48 72  1  0  0  0  0
 49 53  1  0  0  0  0
 49 72  1  0  0  0  0
 50 55  1  0  0  0  0
 50 71  1  0  0  0  0
 52 75  1  0  0  0  0
 54 70  1  0  0  0  0
 55 69  1  0  0  0  0
 58 65  1  0  0  0  0
 59 66  1  0  0  0  0
 60 66  1  0  0  0  0
 61 66  1  0  0  0  0
 62 77  1  0  0  0  0
 63 84  1  0  0  0  0
 64 66  1  0  0  0  0
 64 76  1  0  0  0  0
 65 77  1  0  0  0  0
 67 69  1  0  0  0  0
M  CHG  1  77   1
M  ISO  4  37 100  63 101  72 100  84 101
M  END
> <Batch ID>
0170

> <Smiles>
CNC(C)C(=O)NC(C(=O)N1Cc2cc([101O:1][101CH2:1]c3c(C)nc(C4C[100N:0]([100C:0](=O)N5CCCC(n6nc(-c7ccc(Oc8ccc(F)cc8F)cc7)c(C(N)=O)c6N)C5)C4)c(C4CC4)c3C)ccc2CC1C(=O)NC1CCCc2ccccc21)C(C)(C)C

> <Shape>
0.317

> <Color>
0.086

> <Negative vol penalty>
0.000

$$$$

  -OEChem-04052322353D

 84 94  0     1  0  0  0  0  0999 V2000
  -29.5261  -12.5934   20.1454 C   0  0  0  0  0  0  0  0  0  0  0  0
  -29.1811  -13.6687   19.3329 C   0  0  0  0  0  0  0  0  0  0  0  0
  -24.0656  -28.3449   21.4320 C   0  0  0  0  0  0  0  0  0  0  0  0
  -24.0364  -30.7576   21.5561 C   0  0  0  0  0  0  0  0  0  0  0  0
  -28.5328  -11.8816   20.8168 C   0  0  0  0  0  0  0  0  0  0  0  0
  -27.8424  -14.0322   19.1905 C   0  0  0  0  0  0  0  0  0  0  0  0
  -27.1425  -19.0368   19.5196 C   0  0  0  0  0  0  0  0  0  0  0  0
  -22.9202  -28.2902   22.2262 C   0  0  0  0  0  0  0  0  0  0  0  0
  -22.8909  -30.7028   22.3502 C   0  0  0  0  0  0  0  0  0  0  0  0
  -27.4615  -19.7995   18.3970 C   0  0  0  0  0  0  0  0  0  0  0  0
  -19.7961  -27.5280   23.9215 C   0  0  0  0  0  0  0  0  0  0  0  0
  -18.7766  -26.6602   23.5303 C   0  0  0  0  0  0  0  0  0  0  0  0
  -29.7645  -25.7685   18.8171 C   0  0  0  0  0  0  0  0  0  0  0  0
  -25.1261  -19.8851   17.7989 C   0  0  0  0  0  0  0  0  0  0  0  0
  -18.5692  -27.8479   21.4366 C   0  0  0  0  0  0  0  0  0  0  0  0
  -24.6237  -29.5786   21.0971 C   0  0  0  0  0  0  0  0  0  0  0  0
  -25.8657  -29.7089   18.8726 C   0  0  0  0  0  0  0  0  0  0  0  0
  -27.1822  -12.2425   20.6901 C   0  0  0  0  0  0  0  0  0  0  0  0
  -25.8118  -18.6827   19.7848 C   0  0  0  0  0  0  0  0  0  0  0  0
  -26.8300  -13.3237   19.8597 C   0  0  0  0  0  0  0  0  0  0  0  0
  -30.6425  -24.9371   19.5034 C   0  0  0  0  0  0  0  0  0  0  0  0
  -24.7925  -19.1200   18.9269 C   0  0  0  0  0  0  0  0  0  0  0  0
  -28.7726  -25.2132   18.0164 C   0  0  0  0  0  0  0  0  0  0  0  0
  -22.3328  -29.4691   22.6852 C   0  0  0  0  0  0  0  0  0  0  0  0
  -26.4536  -20.2214   17.5349 C   0  0  0  0  0  0  0  0  0  0  0  0
  -20.2021  -28.5558   23.0704 C   0  0  0  0  0  0  0  0  0  0  0  0
  -18.1632  -26.8201   22.2878 C   0  0  0  0  0  0  0  0  0  0  0  0
  -19.5887  -28.7157   21.8279 C   0  0  0  0  0  0  0  0  0  0  0  0
  -25.8073  -29.6358   20.2772 C   0  0  0  0  0  0  0  0  0  0  0  0
  -28.7014  -23.8318   17.9362 C   0  0  0  0  0  0  0  0  0  0  0  0
  -30.4876  -23.5680   19.3568 C   0  0  0  0  0  0  0  0  0  0  0  0
  -27.2086  -29.7408   18.5860 C   0  0  0  0  0  0  0  0  0  0  0  0
  -24.8013  -29.7449   17.9127 C   0  0  0  0  0  0  0  0  0  0  0  0
  -24.2241  -15.9386   20.0151 C   0  0  0  0  0  0  0  0  0  0  0  0
  -21.7923  -17.8735   20.9451 C   0  0  0  0  0  0  0  0  0  0  0  0
  -20.3865  -20.9830   20.9053 C   0  0  0  0  0  0  0  0  0  0  0  0
  -32.0052  -27.7443   21.4617 C   0  0  0  0  0  0  0  0  0  0  0  0
  -26.1398  -11.4137   21.3980 C   0  0  0  0  0  0  0  0  0  0  0  0
  -25.4812  -17.8821   21.0145 C   0  0  0  0  0  0  0  0  0  0  0  0
  -23.3460  -18.7837   19.1780 C   0  0  0  0  0  0  0  0  0  0  0  0
  -24.7777  -12.0967   21.4898 C   0  0  0  0  0  0  0  0  0  0  0  0
  -31.4178  -31.0961   20.4185 C   0  0  0  0  0  0  0  0  0  0  0  0
  -24.3871  -12.6921   20.1409 C   0  0  0  0  0  0  0  0  0  0  0  0
  -29.9115  -31.1203   20.1494 C   0  0  0  0  0  0  0  0  0  0  0  0
  -27.9157  -23.0035   15.6183 C   0  0  0  0  0  0  0  0  0  0  0  0
  -31.7609  -30.2172   21.6189 C   0  0  0  0  0  0  0  0  0  0  0  0
  -31.7441  -25.3065   21.8427 C   0  0  0  0  0  0  0  0  0  0  0  0
  -29.7222  -28.8599   21.2710 C   0  0  0  0  0  0  0  0  0  0  0  0
  -31.7196  -25.5308   20.3727 C   0  0  2  0  0  0  0  0  0  0  0  0
  -25.3911  -13.7639   19.6994 C   0  0  1  0  0  0  0  0  0  0  0  0
  -27.6593  -23.1967   17.0947 C   0  0  1  0  0  0  0  0  0  0  0  0
  -24.1497  -17.1451   20.9076 C   0  0  1  0  0  0  0  0  0  0  0  0
  -29.3446  -29.6929   20.0344 C   0  0  1  0  0  0  0  0  0  0  0  0
  -27.9053  -21.8147   16.5301 C   0  0  1  0  0  0  0  0  0  1  0  0
  -27.8298  -26.1013   17.2799 C   0  0  0  0  0  0  0  0  0  0  0  0
  -31.4010  -22.6252   20.0701 C   0  0  0  0  0  0  0  0  0  0  0  0
  -18.3789  -22.2478   21.7220 C   0  0  0  0  0  0  0  0  0  0  0  0
  -20.0902  -16.5683   18.7749 C   0  0  0  0  0  0  0  0  0  0  0  0
  -18.4769  -18.4703   18.9939 C   0  0  0  0  0  0  0  0  0  0  0  0
  -18.8987  -16.9648   20.9377 C   0  0  0  0  0  0  0  0  0  0  0  0
  -22.0569  -22.8351   22.4986 C   0  0  0  0  0  0  0  0  0  0  0  0
  -20.6832  -18.6126   20.2361 C   0  0  1  0  0  0  0  0  0  0  0  0
  -19.8152  -21.8444   22.0171 C   0  0  2  0  0  0  0  0  0  0  0  0
  -19.5646  -17.6589   19.7296 C   0  0  0  0  0  0  0  0  0  0  0  0
  -27.0168  -29.6219   20.8436 N   0  0  0  0  0  0  0  0  0  0  0  0
  -29.5364  -22.9919   18.5881 N   0  0  0  0  0  0  0  0  0  0  0  0
  -27.8480  -29.6866   19.7895 N   0  0  0  0  0  0  0  0  0  0  0  0
  -23.0742  -17.9934   20.3900 N   0  0  0  0  0  0  0  0  0  0  0  0
  -31.1785  -28.8842   21.4672 N   0  0  0  0  0  0  0  0  0  0  0  0
  -31.3039  -26.5508   21.3001 N   0  0  0  0  0  0  0  0  0  0  0  0
  -27.8930  -29.8095   17.4244 N   0  0  0  0  0  0  0  0  0  0  0  0
  -23.4800  -29.7042   18.3784 N   0  0  0  0  0  0  0  0  0  0  0  0
  -25.1570  -15.0005   20.4139 N   0  0  0  0  0  0  0  0  0  0  0  0
  -20.2189  -19.6389   21.1633 N   0  0  0  0  0  0  0  0  0  0  0  0
  -20.6270  -23.0833   22.1816 N   0  3  0  0  0  0  0  0  0  0  0  0
  -25.0157  -29.7947   16.6778 O   0  0  0  0  0  0  0  0  0  0  0  0
  -23.4885  -15.8637   19.0379 O   0  0  0  0  0  0  0  0  0  0  0  0
  -21.5320  -17.2197   21.9583 O   0  0  0  0  0  0  0  0  0  0  0  0
  -20.9242  -21.4553   19.9061 O   0  0  0  0  0  0  0  0  0  0  0  0
  -33.2323  -27.7954   21.5805 O   0  0  0  0  0  0  0  0  0  0  0  0
  -21.2150  -29.4161   23.4599 O   0  0  0  0  0  0  0  0  0  0  0  0
  -26.7623  -20.9654   16.4380 O   0  0  0  0  0  0  0  0  0  1  0  0
  -17.1852  -25.9857   21.9116 F   0  0  0  0  0  0  0  0  0  0  0  0
  -19.9752  -29.7006   21.0054 F   0  0  0  0  0  0  0  0  0  0  0  0
  1  2  1  0  0  0  0
  1  5  2  0  0  0  0
  2  6  2  0  0  0  0
  3  8  2  0  0  0  0
  3 16  1  0  0  0  0
  4  9  1  0  0  0  0
  4 16  2  0  0  0  0
  5 18  1  0  0  0  0
  6 20  1  0  0  0  0
  7 10  2  0  0  0  0
  7 19  1  0  0  0  0
  8 24  1  0  0  0  0
  9 24  2  0  0  0  0
 10 25  1  0  0  0  0
 11 12  2  0  0  0  0
 11 26  1  0  0  0  0
 12 27  1  0  0  0  0
 13 21  2  0  0  0  0
 13 23  1  0  0  0  0
 14 22  1  0  0  0  0
 14 25  2  0  0  0  0
 15 27  2  0  0  0  0
 15 28  1  0  0  0  0
 16 29  1  0  0  0  0
 17 29  1  0  0  0  0
 17 32  2  0  0  0  0
 17 33  1  0  0  0  0
 18 20  2  0  0  0  0
 18 38  1  0  0  0  0
 19 22  2  0  0  0  0
 19 39  1  0  0  0  0
 20 50  1  0  0  0  0
 21 31  1  0  0  0  0
 21 49  1  0  0  0  0
 22 40  1  0  0  0  0
 23 30  2  0  0  0  0
 23 55  1  0  0  0  0
 24 81  1  0  0  0  0
 25 82  1  0  0  0  0
 26 28  2  0  0  0  0
 26 81  1  0  0  0  0
 27 83  1  0  0  0  0
 28 84  1  0  0  0  0
 29 65  2  0  0  0  0
 30 51  1  0  0  0  0
 30 66  1  0  0  0  0
 31 56  1  0  0  0  0
 31 66  2  0  0  0  0
 32 67  1  0  0  0  0
 32 71  1  0  0  0  0
 33 72  1  0  0  0  0
 33 76  2  0  0  0  0
 34 52  1  0  0  0  0
 34 73  1  0  0  0  0
 34 77  2  0  0  0  0
 35 62  1  0  0  0  0
 35 68  1  0  0  0  0
 35 78  2  0  0  0  0
 36 63  1  0  0  0  0
 36 74  1  0  0  0  0
 36 79  2  0  0  0  0
 37 69  1  0  0  0  0
 37 70  1  0  0  0  0
 37 80  2  0  0  0  0
 38 41  1  0  0  0  0
 39 52  1  0  0  0  0
 40 68  1  0  0  0  0
 41 43  1  0  0  0  0
 42 44  1  0  0  0  0
 42 46  1  0  0  0  0
 43 50  1  0  0  0  0
 44 53  1  0  0  0  0
 45 51  1  0  0  0  0
 45 54  1  0  0  0  0
 46 69  1  0  0  0  0
 47 49  1  0  0  0  0
 47 70  1  0  0  0  0
 48 53  1  0  0  0  0
 48 69  1  0  0  0  0
 49 70  1  0  0  0  0
 50 73  1  0  0  0  0
 51 54  1  0  0  0  0
 52 68  1  0  0  0  0
 53 67  1  0  0  0  0
 54 82  1  0  0  0  0
 57 63  1  0  0  0  0
 58 64  1  0  0  0  0
 59 64  1  0  0  0  0
 60 64  1  0  0  0  0
 61 75  1  0  0  0  0
 62 64  1  0  0  0  0
 62 74  1  0  0  0  0
 63 75  1  0  0  0  0
 65 67  1  0  0  0  0
M  CHG  1  75   1
M  ISO  4  37 100  54 101  70 100  82 101
M  END
> <Batch ID>
0170

> <Smiles>
CNC(C)C(=O)NC(C(=O)N1Cc2cc([101O:1][101CH:1]3CC3c3nc(C)c(C4C[100N:0]4[100C:0](=O)N4CCCC(n5nc(-c6ccc(Oc7ccc(F)cc7F)cc6)c(C(N)=O)c5N)C4)cc3C)ccc2CC1C(=O)NC1CCCc2ccccc21)C(C)(C)C

> <Shape>
0.213

> <Color>
0.076

> <Negative vol penalty>
0.000

$$$$

  -OEChem-04052322353D

 90101  0     1  0  0  0  0  0999 V2000
  -19.6173  -24.1054   21.8700 C   0  0  0  0  0  0  0  0  0  0  0  0
  -20.7754  -24.5349   21.2298 C   0  0  0  0  0  0  0  0  0  0  0  0
  -27.6195  -16.9333   19.0125 C   0  0  0  0  0  0  0  0  0  0  0  0
  -27.8982  -16.9099   21.4122 C   0  0  0  0  0  0  0  0  0  0  0  0
  -18.7398  -25.0385   22.4208 C   0  0  0  0  0  0  0  0  0  0  0  0
  -21.0561  -25.8977   21.1391 C   0  0  0  0  0  0  0  0  0  0  0  0
  -25.8862  -26.9630   22.2256 C   0  0  0  0  0  0  0  0  0  0  0  0
  -26.5197  -16.0837   19.1319 C   0  0  0  0  0  0  0  0  0  0  0  0
  -26.7984  -16.0603   21.5317 C   0  0  0  0  0  0  0  0  0  0  0  0
  -26.8328  -26.7094   21.2340 C   0  0  0  0  0  0  0  0  0  0  0  0
  -23.2527  -16.3403   19.9648 C   0  0  0  0  0  0  0  0  0  0  0  0
  -22.1125  -16.6476   19.2225 C   0  0  0  0  0  0  0  0  0  0  0  0
  -26.8352  -29.0491   20.6464 C   0  0  0  0  0  0  0  0  0  0  0  0
  -31.8650  -24.4023   17.1211 C   0  0  0  0  0  0  0  0  0  0  0  0
  -22.2756  -14.5193   18.0908 C   0  0  0  0  0  0  0  0  0  0  0  0
  -31.7537  -26.0283   15.5675 C   0  0  0  0  0  0  0  0  0  0  0  0
  -28.3088  -17.3464   20.1527 C   0  0  0  0  0  0  0  0  0  0  0  0
  -29.4382  -19.6312   20.0446 C   0  0  0  0  0  0  0  0  0  0  0  0
  -19.0147  -26.4130   22.3452 C   0  0  0  0  0  0  0  0  0  0  0  0
  -25.3981  -28.2619   22.4282 C   0  0  0  0  0  0  0  0  0  0  0  0
  -20.1808  -26.8501   21.6882 C   0  0  0  0  0  0  0  0  0  0  0  0
  -25.8844  -29.3170   21.6430 C   0  0  0  0  0  0  0  0  0  0  0  0
  -31.1836  -25.5846   16.7403 C   0  0  0  0  0  0  0  0  0  0  0  0
  -26.1091  -15.6472   20.3915 C   0  0  0  0  0  0  0  0  0  0  0  0
  -27.3053  -27.7520   20.4422 C   0  0  0  0  0  0  0  0  0  0  0  0
  -23.9044  -15.1224   19.7701 C   0  0  0  0  0  0  0  0  0  0  0  0
  -21.6239  -15.7372   18.2855 C   0  0  0  0  0  0  0  0  0  0  0  0
  -23.4158  -14.2119   18.8331 C   0  0  0  0  0  0  0  0  0  0  0  0
  -29.4453  -18.2236   20.0299 C   0  0  0  0  0  0  0  0  0  0  0  0
  -32.8309  -24.1596   16.1695 C   0  0  0  0  0  0  0  0  0  0  0  0
  -30.7575  -19.9828   19.8957 C   0  0  0  0  0  0  0  0  0  0  0  0
  -28.3374  -20.5398   20.1809 C   0  0  0  0  0  0  0  0  0  0  0  0
  -22.5410  -29.6408   22.2304 C   0  0  0  0  0  0  0  0  0  0  0  0
  -24.1256  -32.2022   23.4349 C   0  0  0  0  0  0  0  0  0  0  0  0
  -27.0920  -33.8340   23.8646 C   0  0  0  0  0  0  0  0  0  0  0  0
  -35.6950  -19.4589   17.6025 C   0  0  0  0  0  0  0  0  0  0  0  0
  -18.0126  -27.3861   22.9140 C   0  0  0  0  0  0  0  0  0  0  0  0
  -24.3970  -28.5235   23.5199 C   0  0  0  0  0  0  0  0  0  0  0  0
  -25.4075  -30.7328   21.8338 C   0  0  0  0  0  0  0  0  0  0  0  0
  -18.5707  -28.7942   23.1034 C   0  0  0  0  0  0  0  0  0  0  0  0
  -34.9673  -17.1995   20.1159 C   0  0  0  0  0  0  0  0  0  0  0  0
  -28.8381  -25.2946   17.5925 C   0  0  0  0  0  0  0  0  0  0  0  0
  -19.3344  -29.2376   21.8596 C   0  0  0  0  0  0  0  0  0  0  0  0
  -33.4632  -17.3693   20.3305 C   0  0  0  0  0  0  0  0  0  0  0  0
  -34.9461  -25.9470   14.1301 C   0  0  0  0  0  0  0  0  0  0  0  0
  -33.8267  -26.6201   13.3996 C   0  0  0  0  0  0  0  0  0  0  0  0
  -28.5546  -25.1611   19.0894 C   0  0  0  0  0  0  0  0  0  0  0  0
  -34.8209  -23.0391   17.2666 C   0  0  0  0  0  0  0  0  0  0  0  0
  -33.1662  -21.6591   15.9406 C   0  0  0  0  0  0  0  0  0  0  0  0
  -35.3154  -17.2382   18.6322 C   0  0  0  0  0  0  0  0  0  0  0  0
  -35.8187  -21.8869   17.1767 C   0  0  0  0  0  0  0  0  0  0  0  0
  -34.2011  -20.5395   15.8790 C   0  0  0  0  0  0  0  0  0  0  0  0
  -33.3517  -18.6587   18.1421 C   0  0  0  0  0  0  0  0  0  0  0  0
  -30.0688  -26.2236   17.4651 C   0  0  1  0  0  0  0  0  0  0  0  0
  -20.5324  -28.3188   21.5911 C   0  0  1  0  0  0  0  0  0  0  0  0
  -33.8440  -23.0338   16.0781 C   0  0  0  0  0  0  0  0  0  0  0  0
  -23.5883  -29.7977   23.2963 C   0  0  1  0  0  0  0  0  0  0  0  0
  -30.4468  -26.5984   18.9219 C   0  0  2  0  0  0  0  0  0  0  0  0
  -33.5930  -25.2791   14.0549 C   0  0  0  0  0  0  0  0  0  0  0  0
  -32.9453  -18.6374   19.6292 C   0  0  1  0  0  0  0  0  0  0  0  0
  -29.1365  -26.4302   19.6970 C   0  0  1  0  0  0  0  0  0  1  0  0
  -31.0744  -27.9825   19.0305 C   0  0  0  0  0  0  0  0  0  0  0  0
  -28.0650  -35.9236   24.8566 C   0  0  0  0  0  0  0  0  0  0  0  0
  -23.0444  -33.8189   21.0839 C   0  0  0  0  0  0  0  0  0  0  0  0
  -24.7658  -35.5666   21.5842 C   0  0  0  0  0  0  0  0  0  0  0  0
  -23.0168  -35.0206   23.2770 C   0  0  0  0  0  0  0  0  0  0  0  0
  -28.7980  -32.2934   25.7288 C   0  0  0  0  0  0  0  0  0  0  0  0
  -24.8801  -33.3679   22.8426 C   0  0  1  0  0  0  0  0  0  0  0  0
  -27.7290  -34.4593   25.0925 C   0  0  2  0  0  0  0  0  0  0  0  0
  -23.9345  -34.4166   22.1918 C   0  0  0  0  0  0  0  0  0  0  0  0
  -30.6718  -17.7156   19.8830 N   0  0  0  0  0  0  0  0  0  0  0  0
  -32.7542  -25.1545   15.2302 N   0  0  0  0  0  0  0  0  0  0  0  0
  -31.4477  -18.8101   19.8040 N   0  0  0  0  0  0  0  0  0  0  0  0
  -24.4235  -30.9367   22.9099 N   0  0  0  0  0  0  0  0  0  0  0  0
  -34.8010  -18.4537   18.0017 N   0  0  0  0  0  0  0  0  0  0  0  0
  -35.1379  -20.6036   17.0091 N   0  0  0  0  0  0  0  0  0  0  0  0
  -31.3829  -21.1777   19.8354 N   0  0  0  0  0  0  0  0  0  0  0  0
  -27.0478  -20.0101   20.3247 N   0  0  0  0  0  0  0  0  0  0  0  0
  -21.6247  -28.6383   22.4851 N   0  0  0  0  0  0  0  0  0  0  0  0
  -25.7156  -33.9000   23.9136 N   0  0  0  0  0  0  0  0  0  0  0  0
  -28.9850  -33.7401   25.4476 N   0  3  0  0  0  0  0  0  0  0  0  0
  -28.4909  -21.7845   20.1587 O   0  0  0  0  0  0  0  0  0  0  0  0
  -22.5616  -30.3760   21.2502 O   0  0  0  0  0  0  0  0  0  0  0  0
  -23.3075  -32.4060   24.3353 O   0  0  0  0  0  0  0  0  0  0  0  0
  -27.7497  -33.3400   22.9515 O   0  0  0  0  0  0  0  0  0  0  0  0
  -36.9157  -19.3456   17.7698 O   0  0  0  0  0  0  0  0  0  0  0  0
  -25.0359  -14.8184   20.5084 O   0  0  0  0  0  0  0  0  0  0  0  0
  -28.2353  -27.5054   19.4663 O   0  0  0  0  0  0  0  0  0  1  0  0
  -20.5281  -16.0318   17.5739 F   0  0  0  0  0  0  0  0  0  0  0  0
  -24.0369  -13.0399   18.6424 F   0  0  0  0  0  0  0  0  0  0  0  0
  1  2  1  0  0  0  0
  1  5  2  0  0  0  0
  2  6  2  0  0  0  0
  3  8  2  0  0  0  0
  3 17  1  0  0  0  0
  4  9  1  0  0  0  0
  4 17  2  0  0  0  0
  5 19  1  0  0  0  0
  6 21  1  0  0  0  0
  7 10  2  0  0  0  0
  7 20  1  0  0  0  0
  8 24  1  0  0  0  0
  9 24  2  0  0  0  0
 10 25  1  0  0  0  0
 11 12  2  0  0  0  0
 11 26  1  0  0  0  0
 12 27  1  0  0  0  0
 13 22  1  0  0  0  0
 13 25  2  0  0  0  0
 14 23  1  0  0  0  0
 14 30  2  0  0  0  0
 15 27  2  0  0  0  0
 15 28  1  0  0  0  0
 16 23  2  0  0  0  0
 16 72  1  0  0  0  0
 17 29  1  0  0  0  0
 18 29  1  0  0  0  0
 18 31  2  0  0  0  0
 18 32  1  0  0  0  0
 19 21  2  0  0  0  0
 19 37  1  0  0  0  0
 20 22  2  0  0  0  0
 20 38  1  0  0  0  0
 21 55  1  0  0  0  0
 22 39  1  0  0  0  0
 23 54  1  0  0  0  0
 24 87  1  0  0  0  0
 25 88  1  0  0  0  0
 26 28  2  0  0  0  0
 26 87  1  0  0  0  0
 27 89  1  0  0  0  0
 28 90  1  0  0  0  0
 29 71  2  0  0  0  0
 30 56  1  0  0  0  0
 30 72  1  0  0  0  0
 31 73  1  0  0  0  0
 31 77  1  0  0  0  0
 32 78  1  0  0  0  0
 32 82  2  0  0  0  0
 33 57  1  0  0  0  0
 33 79  1  0  0  0  0
 33 83  2  0  0  0  0
 34 68  1  0  0  0  0
 34 74  1  0  0  0  0
 34 84  2  0  0  0  0
 35 69  1  0  0  0  0
 35 80  1  0  0  0  0
 35 85  2  0  0  0  0
 36 75  1  0  0  0  0
 36 76  1  0  0  0  0
 36 86  2  0  0  0  0
 37 40  1  0  0  0  0
 38 57  1  0  0  0  0
 39 74  1  0  0  0  0
 40 43  1  0  0  0  0
 41 44  1  0  0  0  0
 41 50  1  0  0  0  0
 42 47  1  0  0  0  0
 42 54  1  0  0  0  0
 43 55  1  0  0  0  0
 44 60  1  0  0  0  0
 45 46  1  0  0  0  0
 45 59  1  0  0  0  0
 46 59  1  0  0  0  0
 47 61  1  0  0  0  0
 48 51  1  0  0  0  0
 48 56  1  0  0  0  0
 49 52  1  0  0  0  0
 49 56  1  0  0  0  0
 50 75  1  0  0  0  0
 51 76  1  0  0  0  0
 52 76  1  0  0  0  0
 53 60  1  0  0  0  0
 53 75  1  0  0  0  0
 54 58  1  0  0  0  0
 55 79  1  0  0  0  0
 57 74  1  0  0  0  0
 58 61  1  0  0  0  0
 58 62  1  0  0  0  0
 59 72  1  0  0  0  0
 60 73  1  0  0  0  0
 61 88  1  0  0  0  0
 63 69  1  0  0  0  0
 64 70  1  0  0  0  0
 65 70  1  0  0  0  0
 66 70  1  0  0  0  0
 67 81  1  0  0  0  0
 68 70  1  0  0  0  0
 68 80  1  0  0  0  0
 69 81  1  0  0  0  0
 71 73  1  0  0  0  0
M  CHG  1  81   1
M  ISO  4  36 100  61 101  76 100  88 101
M  END
> <Batch ID>
0170

> <Smiles>
CNC(C)C(=O)NC(C(=O)N1Cc2cc([101O:1][101CH:1]3CCC(c4cc(C5CC[100N:0]([100C:0](=O)N6CCCC(n7nc(-c8ccc(Oc9ccc(F)cc9F)cc8)c(C(N)=O)c7N)C6)CC5)n(C5CC5)c4)C3C)ccc2CC1C(=O)NC1CCCc2ccccc21)C(C)(C)C

> <Shape>
0.244

> <Color>
0.108

> <Negative vol penalty>
0.000

$$$$

  -OEChem-04052322353D

 90100  0     1  0  0  0  0  0999 V2000
  -30.6508  -34.5671   23.4097 C   0  0  0  0  0  0  0  0  0  0  0  0
  -30.9277  -33.3706   22.7562 C   0  0  0  0  0  0  0  0  0  0  0  0
  -23.2120   -9.8588   19.8856 C   0  0  0  0  0  0  0  0  0  0  0  0
  -24.2686   -9.5225   22.0321 C   0  0  0  0  0  0  0  0  0  0  0  0
  -29.4874  -34.6931   24.1677 C   0  0  0  0  0  0  0  0  0  0  0  0
  -30.0418  -32.2988   22.8614 C   0  0  0  0  0  0  0  0  0  0  0  0
  -28.6931  -28.1416   18.4689 C   0  0  0  0  0  0  0  0  0  0  0  0
  -22.6227   -8.5980   19.9780 C   0  0  0  0  0  0  0  0  0  0  0  0
  -23.6792   -8.2616   22.1246 C   0  0  0  0  0  0  0  0  0  0  0  0
  -29.1312  -26.8429   18.2134 C   0  0  0  0  0  0  0  0  0  0  0  0
  -20.6529   -6.9801   22.9117 C   0  0  0  0  0  0  0  0  0  0  0  0
  -20.0673   -6.6277   24.1276 C   0  0  0  0  0  0  0  0  0  0  0  0
  -27.2439  -25.9720   19.4373 C   0  0  0  0  0  0  0  0  0  0  0  0
  -21.5767   -4.7501   24.3105 C   0  0  0  0  0  0  0  0  0  0  0  0
  -24.0350  -10.3211   20.9126 C   0  0  0  0  0  0  0  0  0  0  0  0
  -24.1133  -12.8456   21.2706 C   0  0  0  0  0  0  0  0  0  0  0  0
  -28.5821  -33.6256   24.2743 C   0  0  0  0  0  0  0  0  0  0  0  0
  -27.5307  -28.3663   19.2206 C   0  0  0  0  0  0  0  0  0  0  0  0
  -28.8659  -32.4102   23.6226 C   0  0  0  0  0  0  0  0  0  0  0  0
  -26.7907  -27.2743   19.6967 C   0  0  0  0  0  0  0  0  0  0  0  0
  -29.3537  -21.3624   19.5932 C   0  0  0  0  0  0  0  0  0  0  0  0
  -29.9577  -20.1564   19.2354 C   0  0  0  0  0  0  0  0  0  0  0  0
  -28.6740  -22.1176   18.6551 C   0  0  0  0  0  0  0  0  0  0  0  0
  -22.8563   -7.7993   21.0975 C   0  0  0  0  0  0  0  0  0  0  0  0
  -28.4078  -25.7579   18.6996 C   0  0  0  0  0  0  0  0  0  0  0  0
  -21.7004   -6.2174   22.3951 C   0  0  0  0  0  0  0  0  0  0  0  0
  -20.5292   -5.5128   24.8270 C   0  0  0  0  0  0  0  0  0  0  0  0
  -22.1623   -5.1025   23.0945 C   0  0  0  0  0  0  0  0  0  0  0  0
  -24.6445  -11.6232   20.8174 C   0  0  0  0  0  0  0  0  0  0  0  0
  -28.6325  -21.6111   17.3651 C   0  0  0  0  0  0  0  0  0  0  0  0
  -29.8562  -19.7327   17.9271 C   0  0  0  0  0  0  0  0  0  0  0  0
  -25.0697  -13.7767   20.9468 C   0  0  0  0  0  0  0  0  0  0  0  0
  -22.8669  -13.1153   21.9259 C   0  0  0  0  0  0  0  0  0  0  0  0
  -26.7927  -29.8401   21.9645 C   0  0  0  0  0  0  0  0  0  0  0  0
  -23.7232  -29.0584   20.9543 C   0  0  0  0  0  0  0  0  0  0  0  0
  -22.4615  -31.1627   23.3248 C   0  0  0  0  0  0  0  0  0  0  0  0
  -28.4992  -15.9185   17.2467 C   0  0  0  0  0  0  0  0  0  0  0  0
  -27.3611  -33.7933   25.1437 C   0  0  0  0  0  0  0  0  0  0  0  0
  -27.0586  -29.7750   19.4592 C   0  0  0  0  0  0  0  0  0  0  0  0
  -25.5352  -27.4625   20.5048 C   0  0  0  0  0  0  0  0  0  0  0  0
  -26.2889  -32.7347   24.8986 C   0  0  0  0  0  0  0  0  0  0  0  0
  -29.8178  -13.2279   19.3590 C   0  0  0  0  0  0  0  0  0  0  0  0
  -26.9136  -31.3441   24.8464 C   0  0  0  0  0  0  0  0  0  0  0  0
  -28.5281  -12.6344   19.9159 C   0  0  0  0  0  0  0  0  0  0  0  0
  -29.9463  -16.6142   14.2969 C   0  0  0  0  0  0  0  0  0  0  0  0
  -30.6389  -20.6509   21.4416 C   0  0  0  0  0  0  0  0  0  0  0  0
  -29.6499  -13.7465   17.9303 C   0  0  0  0  0  0  0  0  0  0  0  0
  -30.0276  -15.3762   15.1954 C   0  0  0  0  0  0  0  0  0  0  0  0
  -27.2284  -14.1020   18.3345 C   0  0  0  0  0  0  0  0  0  0  0  0
  -29.5425  -21.6682   21.0493 C   0  0  2  0  0  0  0  0  0  0  0  0
  -27.9173  -31.2332   23.6924 C   0  0  1  0  0  0  0  0  0  0  0  0
  -26.0937  -29.9042   20.6361 C   0  0  1  0  0  0  0  0  0  0  0  0
  -27.3752  -13.6415   19.7915 C   0  0  1  0  0  0  0  0  0  0  0  0
  -29.6396  -17.4504   15.5486 C   0  0  2  0  0  0  0  0  0  0  0  0
  -30.6206  -19.4882   20.4086 C   0  0  0  0  0  0  0  0  0  0  0  0
  -27.9333  -22.3690   16.2834 C   0  0  0  0  0  0  0  0  0  0  0  0
  -28.2603  -21.5185   21.8574 C   0  0  0  0  0  0  0  0  0  0  0  0
  -29.7876  -18.2996   20.9036 C   0  0  0  0  0  0  0  0  0  0  0  0
  -32.0474  -19.0227   20.0951 C   0  0  0  0  0  0  0  0  0  0  0  0
  -20.3124  -32.2131   24.0834 C   0  0  0  0  0  0  0  0  0  0  0  0
  -23.8605  -31.0171   18.6198 C   0  0  0  0  0  0  0  0  0  0  0  0
  -22.3523  -32.5464   19.9062 C   0  0  0  0  0  0  0  0  0  0  0  0
  -21.5493  -30.2831   19.2316 C   0  0  0  0  0  0  0  0  0  0  0  0
  -22.6290  -29.8646   25.9792 C   0  0  0  0  0  0  0  0  0  0  0  0
  -28.0424  -23.4247   18.9802 C   0  0  0  0  0  0  0  0  0  1  0  0
  -30.7882  -18.2090   16.1839 C   0  0  0  0  0  0  0  0  0  0  0  0
  -23.2656  -30.4903   21.0764 C   0  0  1  0  0  0  0  0  0  0  0  0
  -21.2629  -31.0375   24.2480 C   0  0  2  0  0  0  0  0  0  0  0  0
  -22.7816  -31.0755   19.7196 C   0  0  0  0  0  0  0  0  0  0  0  0
  -25.8451  -11.7619   20.2488 N   0  0  0  0  0  0  0  0  0  0  0  0
  -29.2040  -20.4411   16.9768 N   0  0  0  0  0  0  0  0  0  0  0  0
  -26.0762  -13.0825   20.3424 N   0  0  0  0  0  0  0  0  0  0  0  0
  -25.0716  -28.8498   20.6376 N   0  0  0  0  0  0  0  0  0  0  0  0
  -28.4883  -14.6346   17.8025 N   0  0  0  0  0  0  0  0  0  0  0  0
  -29.3919  -16.1782   16.2307 N   0  0  0  0  0  0  0  0  0  0  0  0
  -25.1394  -15.1133   21.1227 N   0  0  0  0  0  0  0  0  0  0  0  0
  -22.0015  -12.0433   22.1830 N   0  0  0  0  0  0  0  0  0  0  0  0
  -30.4711  -18.5430   17.5356 N   0  0  0  0  0  0  0  0  0  0  0  0
  -27.2234  -31.0666   22.4333 N   0  0  0  0  0  0  0  0  0  0  0  0
  -22.2557  -30.5078   22.1290 N   0  0  0  0  0  0  0  0  0  0  0  0
  -21.7071  -30.9877   25.6697 N   0  3  0  0  0  0  0  0  0  0  0  0
  -22.5233  -14.2750   22.2584 O   0  0  0  0  0  0  0  0  0  0  0  0
  -26.9298  -28.7583   22.5235 O   0  0  0  0  0  0  0  0  0  0  0  0
  -22.9079  -28.1481   21.1270 O   0  0  0  0  0  0  0  0  0  0  0  0
  -23.4771  -31.7829   23.6322 O   0  0  0  0  0  0  0  0  0  0  0  0
  -27.7157  -16.8003   17.6226 O   0  0  0  0  0  0  0  0  0  0  0  0
  -22.2812   -6.5690   21.1882 O   0  0  0  0  0  0  0  0  0  0  0  0
  -28.8357  -24.4810   18.4496 O   0  0  0  0  0  0  0  0  0  1  0  0
  -19.9678   -5.1754   25.9954 F   0  0  0  0  0  0  0  0  0  0  0  0
  -23.1691   -4.3667   22.6038 F   0  0  0  0  0  0  0  0  0  0  0  0
  1  2  1  0  0  0  0
  1  5  2  0  0  0  0
  2  6  2  0  0  0  0
  3  8  2  0  0  0  0
  3 15  1  0  0  0  0
  4  9  1  0  0  0  0
  4 15  2  0  0  0  0
  5 17  1  0  0  0  0
  6 19  1  0  0  0  0
  7 10  2  0  0  0  0
  7 18  1  0  0  0  0
  8 24  1  0  0  0  0
  9 24  2  0  0  0  0
 10 25  1  0  0  0  0
 11 12  2  0  0  0  0
 11 26  1  0  0  0  0
 12 27  1  0  0  0  0
 13 20  1  0  0  0  0
 13 25  2  0  0  0  0
 14 27  2  0  0  0  0
 14 28  1  0  0  0  0
 15 29  1  0  0  0  0
 16 29  1  0  0  0  0
 16 32  2  0  0  0  0
 16 33  1  0  0  0  0
 17 19  2  0  0  0  0
 17 38  1  0  0  0  0
 18 20  2  0  0  0  0
 18 39  1  0  0  0  0
 19 51  1  0  0  0  0
 20 40  1  0  0  0  0
 21 22  1  0  0  0  0
 21 23  2  0  0  0  0
 21 50  1  0  0  0  0
 22 31  2  0  0  0  0
 22 55  1  0  0  0  0
 23 30  1  0  0  0  0
 23 65  1  0  0  0  0
 24 87  1  0  0  0  0
 25 88  1  0  0  0  0
 26 28  2  0  0  0  0
 26 87  1  0  0  0  0
 27 89  1  0  0  0  0
 28 90  1  0  0  0  0
 29 70  2  0  0  0  0
 30 56  1  0  0  0  0
 30 71  2  0  0  0  0
 31 71  1  0  0  0  0
 31 78  1  0  0  0  0
 32 72  1  0  0  0  0
 32 76  1  0  0  0  0
 33 77  1  0  0  0  0
 33 82  2  0  0  0  0
 34 52  1  0  0  0  0
 34 79  1  0  0  0  0
 34 83  2  0  0  0  0
 35 67  1  0  0  0  0
 35 73  1  0  0  0  0
 35 84  2  0  0  0  0
 36 68  1  0  0  0  0
 36 80  1  0  0  0  0
 36 85  2  0  0  0  0
 37 74  1  0  0  0  0
 37 75  1  0  0  0  0
 37 86  2  0  0  0  0
 38 41  1  0  0  0  0
 39 52  1  0  0  0  0
 40 73  1  0  0  0  0
 41 43  1  0  0  0  0
 42 44  1  0  0  0  0
 42 47  1  0  0  0  0
 43 51  1  0  0  0  0
 44 53  1  0  0  0  0
 45 48  1  0  0  0  0
 45 54  1  0  0  0  0
 46 50  1  0  0  0  0
 46 55  1  0  0  0  0
 47 74  1  0  0  0  0
 48 75  1  0  0  0  0
 49 53  1  0  0  0  0
 49 74  1  0  0  0  0
 50 57  1  0  0  0  0
 51 79  1  0  0  0  0
 52 73  1  0  0  0  0
 53 72  1  0  0  0  0
 54 66  1  0  0  0  0
 54 75  1  0  0  0  0
 55 58  1  0  0  0  0
 55 59  1  0  0  0  0
 60 68  1  0  0  0  0
 61 69  1  0  0  0  0
 62 69  1  0  0  0  0
 63 69  1  0  0  0  0
 64 81  1  0  0  0  0
 65 88  1  0  0  0  0
 66 78  1  0  0  0  0
 67 69  1  0  0  0  0
 67 80  1  0  0  0  0
 68 81  1  0  0  0  0
 70 72  1  0  0  0  0
M  CHG  1  81   1
M  ISO  4  37 100  65 101  75 100  88 101
M  END
> <Batch ID>
0170

> <Smiles>
CNC(C)C(=O)NC(C(=O)N1Cc2cc([101O:1][101CH2:1]c3c(C)nc(NCC4CC[100N:0]4[100C:0](=O)N4CCCC(n5nc(-c6ccc(Oc7ccc(F)cc7F)cc6)c(C(N)=O)c5N)C4)c4c3C(C)CC4(C)C)ccc2CC1C(=O)NC1CCCc2ccccc21)C(C)(C)C

> <Shape>
0.325

> <Color>
0.151

> <Negative vol penalty>
0.000

$$$$

  -OEChem-04052322353D

 88 97  0     1  0  0  0  0  0999 V2000
  -17.8383  -21.5452   22.2236 C   0  0  0  0  0  0  0  0  0  0  0  0
  -19.0254  -21.4426   22.9418 C   0  0  0  0  0  0  0  0  0  0  0  0
  -23.0712   -9.8715   19.9462 C   0  0  0  0  0  0  0  0  0  0  0  0
  -23.8322   -9.8837   22.2391 C   0  0  0  0  0  0  0  0  0  0  0  0
  -17.3974  -22.7922   21.7826 C   0  0  0  0  0  0  0  0  0  0  0  0
  -19.7728  -22.5868   23.2184 C   0  0  0  0  0  0  0  0  0  0  0  0
  -21.3965  -22.7346   28.0129 C   0  0  0  0  0  0  0  0  0  0  0  0
  -22.3268   -8.7194   20.1993 C   0  0  0  0  0  0  0  0  0  0  0  0
  -23.0878   -8.7316   22.4924 C   0  0  0  0  0  0  0  0  0  0  0  0
  -22.4991  -21.9450   28.3363 C   0  0  0  0  0  0  0  0  0  0  0  0
  -19.3788   -7.9281   21.6541 C   0  0  0  0  0  0  0  0  0  0  0  0
  -18.0717   -7.8814   21.1696 C   0  0  0  0  0  0  0  0  0  0  0  0
  -23.9254  -23.8844   28.1826 C   0  0  0  0  0  0  0  0  0  0  0  0
  -18.6296   -5.9348   19.8518 C   0  0  0  0  0  0  0  0  0  0  0  0
  -29.3645  -18.2718   23.3779 C   0  0  0  0  0  0  0  0  0  0  0  0
  -23.8240  -10.4537   20.9661 C   0  0  0  0  0  0  0  0  0  0  0  0
  -24.1672  -12.9783   20.8397 C   0  0  0  0  0  0  0  0  0  0  0  0
  -18.1348  -23.9535   22.0623 C   0  0  0  0  0  0  0  0  0  0  0  0
  -21.5520  -24.1053   27.7607 C   0  0  0  0  0  0  0  0  0  0  0  0
  -19.3419  -23.8503   22.7796 C   0  0  0  0  0  0  0  0  0  0  0  0
  -22.8229  -24.6897   27.8587 C   0  0  0  0  0  0  0  0  0  0  0  0
  -30.3914  -17.3513   23.2433 C   0  0  0  0  0  0  0  0  0  0  0  0
  -30.9996  -16.8807   24.4017 C   0  0  0  0  0  0  0  0  0  0  0  0
  -30.5684  -17.3385   25.6418 C   0  0  0  0  0  0  0  0  0  0  0  0
  -22.3350   -8.1495   21.4724 C   0  0  0  0  0  0  0  0  0  0  0  0
  -23.7642  -22.5193   28.4184 C   0  0  0  0  0  0  0  0  0  0  0  0
  -20.3114   -6.9782   21.2374 C   0  0  0  0  0  0  0  0  0  0  0  0
  -17.6970   -6.8847   20.2685 C   0  0  0  0  0  0  0  0  0  0  0  0
  -19.9368   -5.9815   20.3363 C   0  0  0  0  0  0  0  0  0  0  0  0
  -24.5936  -11.6435   20.7050 C   0  0  0  0  0  0  0  0  0  0  0  0
  -29.5338  -18.2597   25.6691 C   0  0  0  0  0  0  0  0  0  0  0  0
  -25.2595  -13.7263   20.4740 C   0  0  0  0  0  0  0  0  0  0  0  0
  -22.8972  -13.4959   21.2580 C   0  0  0  0  0  0  0  0  0  0  0  0
  -21.0491  -25.9965   25.2560 C   0  0  0  0  0  0  0  0  0  0  0  0
  -21.7964  -28.3414   27.3691 C   0  0  0  0  0  0  0  0  0  0  0  0
  -23.3827  -29.2454   30.2524 C   0  0  0  0  0  0  0  0  0  0  0  0
  -30.7440  -14.7427   20.6571 C   0  0  0  0  0  0  0  0  0  0  0  0
  -17.6422  -25.2734   21.5240 C   0  0  0  0  0  0  0  0  0  0  0  0
  -20.3486  -24.9484   27.4393 C   0  0  0  0  0  0  0  0  0  0  0  0
  -23.0401  -26.1603   27.6172 C   0  0  0  0  0  0  0  0  0  0  0  0
  -18.3006  -26.4834   22.1818 C   0  0  0  0  0  0  0  0  0  0  0  0
  -29.6038  -12.3530   18.2768 C   0  0  0  0  0  0  0  0  0  0  0  0
  -19.8117  -26.2911   22.2619 C   0  0  0  0  0  0  0  0  0  0  0  0
  -28.1664  -12.0611   18.7112 C   0  0  0  0  0  0  0  0  0  0  0  0
  -29.7540  -19.9396   27.6210 C   0  0  0  0  0  0  0  0  0  0  0  0
  -30.5217  -12.5762   19.4767 C   0  0  0  0  0  0  0  0  0  0  0  0
  -28.6210  -13.3118   20.8624 C   0  0  0  0  0  0  0  0  0  0  0  0
  -20.1678  -25.0716   23.1208 C   0  0  1  0  0  0  0  0  0  0  0  0
  -29.0404  -18.7763   26.9685 C   0  0  1  0  0  0  0  0  0  0  0  0
  -20.7008  -26.2345   26.6981 C   0  0  1  0  0  0  0  0  0  0  0  0
  -27.6462  -13.1348   19.6857 C   0  0  2  0  0  0  0  0  0  0  0  0
  -28.3961  -20.1446   27.0227 C   0  0  1  0  0  0  0  0  0  0  0  0
  -32.1126  -15.8865   24.3112 C   0  0  0  0  0  0  0  0  0  0  0  0
  -31.2030  -16.8501   26.9010 C   0  0  0  0  0  0  0  0  0  0  0  0
  -30.6113  -17.9696   20.8080 C   0  0  0  0  0  0  0  0  0  0  0  0
  -23.8479  -31.2397   31.7028 C   0  0  0  0  0  0  0  0  0  0  0  0
  -24.8546  -19.4920   29.5755 C   0  0  0  0  0  0  0  0  0  0  0  0
  -23.8882  -29.3056   25.3681 C   0  0  0  0  0  0  0  0  0  0  0  0
  -24.9318  -30.6431   27.2094 C   0  0  0  0  0  0  0  0  0  0  0  0
  -22.5948  -31.1308   26.4861 C   0  0  0  0  0  0  0  0  0  0  0  0
  -21.9821  -28.0373   32.5628 C   0  0  0  0  0  0  0  0  0  0  0  0
  -25.9181  -20.1194   27.3351 C   0  0  0  0  0  0  0  0  0  0  0  0
  -30.8117  -16.8962   21.8887 C   0  0  2  0  0  0  0  0  0  0  0  0
  -23.0713  -29.0247   27.8011 C   0  0  1  0  0  0  0  0  0  0  0  0
  -22.9185  -30.0643   31.4433 C   0  0  2  0  0  0  0  0  0  0  0  0
  -24.7999  -20.3799   28.3392 C   0  0  2  0  0  0  0  0  0  1  0  0
  -23.6181  -29.9980   26.7189 C   0  0  0  0  0  0  0  0  0  0  0  0
  -28.9185  -18.7398   24.5652 N   0  0  0  0  0  0  0  0  0  0  0  0
  -25.8582  -11.5459   20.2863 N   0  0  0  0  0  0  0  0  0  0  0  0
  -26.2357  -12.8289   20.1547 N   0  0  0  0  0  0  0  0  0  0  0  0
  -21.8333  -26.9415   27.2998 N   0  0  0  0  0  0  0  0  0  0  0  0
  -29.9721  -13.6072   20.3604 N   0  0  0  0  0  0  0  0  0  0  0  0
  -25.4707  -15.0575   20.3976 N   0  0  0  0  0  0  0  0  0  0  0  0
  -21.8849  -12.5881   21.5980 N   0  0  0  0  0  0  0  0  0  0  0  0
  -20.0438  -25.3903   24.5271 N   0  0  0  0  0  0  0  0  0  0  0  0
  -22.7807  -29.6584   29.0827 N   0  0  0  0  0  0  0  0  0  0  0  0
  -30.1458  -15.6739   21.4972 N   0  0  0  0  0  0  0  0  0  0  0  0
  -27.2505  -20.3279   27.9547 N   0  3  0  0  0  0  0  0  0  0  0  0
  -22.8772  -29.2181   32.6694 N   0  3  0  0  0  0  0  0  0  0  0  0
  -22.6616  -14.7268   21.3124 O   0  0  0  0  0  0  0  0  0  0  0  0
  -22.1479  -26.3389   24.8353 O   0  0  0  0  0  0  0  0  0  0  0  0
  -20.8022  -29.0241   27.1099 O   0  0  0  0  0  0  0  0  0  0  0  0
  -24.2005  -28.3331   30.3495 O   0  0  0  0  0  0  0  0  0  0  0  0
  -31.8798  -14.9164   20.2025 O   0  0  0  0  0  0  0  0  0  0  0  0
  -21.6086   -7.0254   21.7199 O   0  0  0  0  0  0  0  0  0  0  0  0
  -24.8422  -21.7507   28.7333 O   0  0  0  0  0  0  0  0  0  1  0  0
  -16.4413   -6.8391   19.8045 F   0  0  0  0  0  0  0  0  0  0  0  0
  -20.8280   -5.0655   19.9333 F   0  0  0  0  0  0  0  0  0  0  0  0
  1  2  1  0  0  0  0
  1  5  2  0  0  0  0
  2  6  2  0  0  0  0
  3  8  2  0  0  0  0
  3 16  1  0  0  0  0
  4  9  1  0  0  0  0
  4 16  2  0  0  0  0
  5 18  1  0  0  0  0
  6 20  1  0  0  0  0
  7 10  2  0  0  0  0
  7 19  1  0  0  0  0
  8 25  1  0  0  0  0
  9 25  2  0  0  0  0
 10 26  1  0  0  0  0
 11 12  2  0  0  0  0
 11 27  1  0  0  0  0
 12 28  1  0  0  0  0
 13 21  1  0  0  0  0
 13 26  2  0  0  0  0
 14 28  2  0  0  0  0
 14 29  1  0  0  0  0
 15 22  1  0  0  0  0
 15 68  2  0  0  0  0
 16 30  1  0  0  0  0
 17 30  1  0  0  0  0
 17 32  2  0  0  0  0
 17 33  1  0  0  0  0
 18 20  2  0  0  0  0
 18 38  1  0  0  0  0
 19 21  2  0  0  0  0
 19 39  1  0  0  0  0
 20 48  1  0  0  0  0
 21 40  1  0  0  0  0
 22 23  2  0  0  0  0
 22 63  1  0  0  0  0
 23 24  1  0  0  0  0
 23 53  1  0  0  0  0
 24 31  2  0  0  0  0
 24 54  1  0  0  0  0
 25 85  1  0  0  0  0
 26 86  1  0  0  0  0
 27 29  2  0  0  0  0
 27 85  1  0  0  0  0
 28 87  1  0  0  0  0
 29 88  1  0  0  0  0
 30 69  2  0  0  0  0
 31 49  1  0  0  0  0
 31 68  1  0  0  0  0
 32 70  1  0  0  0  0
 32 73  1  0  0  0  0
 33 74  1  0  0  0  0
 33 80  2  0  0  0  0
 34 50  1  0  0  0  0
 34 75  1  0  0  0  0
 34 81  2  0  0  0  0
 35 64  1  0  0  0  0
 35 71  1  0  0  0  0
 35 82  2  0  0  0  0
 36 65  1  0  0  0  0
 36 76  1  0  0  0  0
 36 83  2  0  0  0  0
 37 72  1  0  0  0  0
 37 77  1  0  0  0  0
 37 84  2  0  0  0  0
 38 41  1  0  0  0  0
 39 50  1  0  0  0  0
 40 71  1  0  0  0  0
 41 43  1  0  0  0  0
 42 44  1  0  0  0  0
 42 46  1  0  0  0  0
 43 48  1  0  0  0  0
 44 51  1  0  0  0  0
 45 49  1  0  0  0  0
 45 52  1  0  0  0  0
 46 72  1  0  0  0  0
 47 51  1  0  0  0  0
 47 72  1  0  0  0  0
 48 75  1  0  0  0  0
 49 52  1  0  0  0  0
 50 71  1  0  0  0  0
 51 70  1  0  0  0  0
 52 78  1  0  0  0  0
 55 63  1  0  0  0  0
 56 65  1  0  0  0  0
 57 66  1  0  0  0  0
 58 67  1  0  0  0  0
 59 67  1  0  0  0  0
 60 67  1  0  0  0  0
 61 79  1  0  0  0  0
 62 66  1  0  0  0  0
 62 78  1  0  0  0  0
 63 77  1  0  0  0  0
 64 67  1  0  0  0  0
 64 76  1  0  0  0  0
 65 79  1  0  0  0  0
 66 86  1  0  0  0  0
 69 70  1  0  0  0  0
M  CHG  2  78   1  79   1
M  ISO  4  37 100  66 101  77 100  86 101
M  END
> <Batch ID>
0170

> <Smiles>
CNC(C)C(=O)NC(C(=O)N1Cc2cc([101O:1][101CH:1](C)CNC3CC3c3ncc(C(C)[100NH:0][100C:0](=O)N4CCCC(n5nc(-c6ccc(Oc7ccc(F)cc7F)cc6)c(C(N)=O)c5N)C4)c(C)c3C)ccc2CC1C(=O)NC1CCCc2ccccc21)C(C)(C)C

> <Shape>
0.180

> <Color>
0.187

> <Negative vol penalty>
0.000

$$$$

  -OEChem-04052322353D

 89 99  0     1  0  0  0  0  0999 V2000
  -19.6716  -23.8444   22.7914 C   0  0  0  0  0  0  0  0  0  0  0  0
  -20.8686  -24.1504   22.1519 C   0  0  0  0  0  0  0  0  0  0  0  0
  -27.5710  -13.1934   19.6550 C   0  0  0  0  0  0  0  0  0  0  0  0
  -29.8751  -13.5912   20.2631 C   0  0  0  0  0  0  0  0  0  0  0  0
  -18.7777  -24.8628   23.1197 C   0  0  0  0  0  0  0  0  0  0  0  0
  -21.1719  -25.4751   21.8393 C   0  0  0  0  0  0  0  0  0  0  0  0
  -25.9490  -26.6982   22.9917 C   0  0  0  0  0  0  0  0  0  0  0  0
  -27.9858  -12.3003   18.6671 C   0  0  0  0  0  0  0  0  0  0  0  0
  -30.2900  -12.6982   19.2752 C   0  0  0  0  0  0  0  0  0  0  0  0
  -26.9450  -26.2707   22.1147 C   0  0  0  0  0  0  0  0  0  0  0  0
  -30.5056   -9.3490   18.8788 C   0  0  0  0  0  0  0  0  0  0  0  0
  -31.4919   -8.4227   19.2176 C   0  0  0  0  0  0  0  0  0  0  0  0
  -32.4292  -23.3691   16.6982 C   0  0  0  0  0  0  0  0  0  0  0  0
  -30.2644  -22.9057   18.3957 C   0  0  0  0  0  0  0  0  0  0  0  0
  -27.0107  -28.4705   21.1267 C   0  0  0  0  0  0  0  0  0  0  0  0
  -32.9278   -9.3215   17.4950 C   0  0  0  0  0  0  0  0  0  0  0  0
  -28.5156  -13.8389   20.4530 C   0  0  0  0  0  0  0  0  0  0  0  0
  -27.7849  -14.4648   22.8156 C   0  0  0  0  0  0  0  0  0  0  0  0
  -19.0746  -26.2016   22.8197 C   0  0  0  0  0  0  0  0  0  0  0  0
  -25.4679  -28.0141   22.9354 C   0  0  0  0  0  0  0  0  0  0  0  0
  -20.2805  -26.5122   22.1627 C   0  0  0  0  0  0  0  0  0  0  0  0
  -32.6023  -22.6163   17.8596 C   0  0  0  0  0  0  0  0  0  0  0  0
  -31.5199  -22.3846   18.7083 C   0  0  0  0  0  0  0  0  0  0  0  0
  -26.0104  -28.9128   22.0058 C   0  0  0  0  0  0  0  0  0  0  0  0
  -31.1737  -23.8903   16.3855 C   0  0  0  0  0  0  0  0  0  0  0  0
  -30.0913  -23.6586   17.2342 C   0  0  0  0  0  0  0  0  0  0  0  0
  -29.3453  -12.0527   18.4772 C   0  0  0  0  0  0  0  0  0  0  0  0
  -27.4739  -27.1561   21.1801 C   0  0  0  0  0  0  0  0  0  0  0  0
  -30.7304  -10.2616   17.8481 C   0  0  0  0  0  0  0  0  0  0  0  0
  -32.7029   -8.4089   18.5257 C   0  0  0  0  0  0  0  0  0  0  0  0
  -31.9415  -10.2478   17.1562 C   0  0  0  0  0  0  0  0  0  0  0  0
  -28.0877  -14.7619   21.4733 C   0  0  0  0  0  0  0  0  0  0  0  0
  -27.4324  -15.6738   23.3638 C   0  0  0  0  0  0  0  0  0  0  0  0
  -27.8194  -13.2083   23.5054 C   0  0  0  0  0  0  0  0  0  0  0  0
  -22.6445  -29.3466   22.3384 C   0  0  0  0  0  0  0  0  0  0  0  0
  -24.1948  -32.0744   23.1619 C   0  0  0  0  0  0  0  0  0  0  0  0
  -27.1546  -33.7461   23.4646 C   0  0  0  0  0  0  0  0  0  0  0  0
  -28.7881  -21.3489   21.7353 C   0  0  0  0  0  0  0  0  0  0  0  0
  -18.0559  -27.2631   23.1516 C   0  0  0  0  0  0  0  0  0  0  0  0
  -24.4121  -28.4672   23.9062 C   0  0  0  0  0  0  0  0  0  0  0  0
  -25.5426  -30.3418   21.9181 C   0  0  0  0  0  0  0  0  0  0  0  0
  -18.6215  -28.6806   23.1221 C   0  0  0  0  0  0  0  0  0  0  0  0
  -25.5418  -19.8993   22.2449 C   0  0  0  0  0  0  0  0  0  0  0  0
  -34.8634  -22.8480   19.0875 C   0  0  0  0  0  0  0  0  0  0  0  0
  -35.1720  -22.7583   17.6257 C   0  0  0  0  0  0  0  0  0  0  0  0
  -19.4579  -28.8955   21.8647 C   0  0  0  0  0  0  0  0  0  0  0  0
  -25.7847  -18.3954   22.1715 C   0  0  0  0  0  0  0  0  0  0  0  0
  -26.4644  -20.6464   21.2913 C   0  0  0  0  0  0  0  0  0  0  0  0
  -31.1941  -22.1144   21.3847 C   0  0  0  0  0  0  0  0  0  0  0  0
  -30.7291  -20.3417   20.3042 C   0  0  0  0  0  0  0  0  0  0  0  0
  -28.1917  -18.8778   21.4970 C   0  0  0  0  0  0  0  0  0  0  0  0
  -33.9531  -22.0672   18.1770 C   0  0  0  0  0  0  0  0  0  0  0  0
  -31.6938  -21.5256   20.0440 C   0  0  0  0  0  0  0  0  0  0  0  0
  -20.6565  -27.9397   21.8293 C   0  0  1  0  0  0  0  0  0  0  0  0
  -23.6339  -29.6849   23.4174 C   0  0  1  0  0  0  0  0  0  0  0  0
  -27.2640  -18.0767   22.4322 C   0  0  2  0  0  0  0  0  0  0  0  0
  -31.0125  -24.6929   15.1365 C   0  0  0  0  0  0  0  0  0  0  0  0
  -27.6603  -23.1232   16.7910 C   0  0  0  0  0  0  0  0  0  0  0  0
  -28.0997  -35.9743   24.1276 C   0  0  0  0  0  0  0  0  0  0  0  0
  -23.2653  -33.2560   20.5067 C   0  0  0  0  0  0  0  0  0  0  0  0
  -24.9799  -35.0585   20.7884 C   0  0  0  0  0  0  0  0  0  0  0  0
  -23.1338  -34.8249   22.4498 C   0  0  0  0  0  0  0  0  0  0  0  0
  -28.7355  -32.5516   25.6630 C   0  0  0  0  0  0  0  0  0  0  0  0
  -29.0959  -26.4175   18.0262 C   0  0  0  0  0  0  0  0  0  0  0  0
  -28.4951  -27.3682   19.0427 C   0  0  0  0  0  0  0  0  0  1  0  0
  -28.7380  -24.2066   16.9204 C   0  0  1  0  0  0  0  0  0  0  0  0
  -24.9959  -33.1151   22.4175 C   0  0  1  0  0  0  0  0  0  0  0  0
  -27.7317  -34.5755   24.5975 C   0  0  2  0  0  0  0  0  0  0  0  0
  -24.1014  -34.0362   21.5407 C   0  0  0  0  0  0  0  0  0  0  0  0
  -27.9402  -16.0580   21.1861 N   0  0  0  0  0  0  0  0  0  0  0  0
  -27.5408  -16.5860   22.3556 N   0  0  0  0  0  0  0  0  0  0  0  0
  -24.5041  -30.7353   22.8847 N   0  0  0  0  0  0  0  0  0  0  0  0
  -27.8742  -20.3125   21.5142 N   0  0  0  0  0  0  0  0  0  0  0  0
  -30.0826  -21.1771   21.3004 N   0  0  0  0  0  0  0  0  0  0  0  0
  -27.0432  -16.0350   24.6050 N   0  0  0  0  0  0  0  0  0  0  0  0
  -28.2043  -12.0649   22.7921 N   0  0  0  0  0  0  0  0  0  0  0  0
  -21.7024  -28.4077   22.7132 N   0  0  0  0  0  0  0  0  0  0  0  0
  -25.7786  -33.8245   23.4238 N   0  0  0  0  0  0  0  0  0  0  0  0
  -28.9568  -33.9256   25.1432 N   0  3  0  0  0  0  0  0  0  0  0  0
  -28.2512  -25.2050   17.9321 N   0  3  0  0  0  0  0  0  0  0  0  0
  -27.5020  -13.1000   24.7141 O   0  0  0  0  0  0  0  0  0  0  0  0
  -22.7285  -29.8978   21.2472 O   0  0  0  0  0  0  0  0  0  0  0  0
  -23.3314  -32.4363   23.9652 O   0  0  0  0  0  0  0  0  0  0  0  0
  -27.8547  -33.0969   22.6907 O   0  0  0  0  0  0  0  0  0  0  0  0
  -28.4529  -22.4106   22.2770 O   0  0  0  0  0  0  0  0  0  0  0  0
  -29.7506  -11.1812   17.5135 O   0  0  0  0  0  0  0  0  0  0  0  0
  -28.4526  -26.7383   20.3163 O   0  0  0  0  0  0  0  0  0  1  0  0
  -33.6506   -7.5203   18.8521 F   0  0  0  0  0  0  0  0  0  0  0  0
  -32.1637  -11.1229   16.1659 F   0  0  0  0  0  0  0  0  0  0  0  0
  1  2  1  0  0  0  0
  1  5  2  0  0  0  0
  2  6  2  0  0  0  0
  3  8  2  0  0  0  0
  3 17  1  0  0  0  0
  4  9  1  0  0  0  0
  4 17  2  0  0  0  0
  5 19  1  0  0  0  0
  6 21  1  0  0  0  0
  7 10  2  0  0  0  0
  7 20  1  0  0  0  0
  8 27  1  0  0  0  0
  9 27  2  0  0  0  0
 10 28  1  0  0  0  0
 11 12  2  0  0  0  0
 11 29  1  0  0  0  0
 12 30  1  0  0  0  0
 13 22  2  0  0  0  0
 13 25  1  0  0  0  0
 14 23  2  0  0  0  0
 14 26  1  0  0  0  0
 15 24  1  0  0  0  0
 15 28  2  0  0  0  0
 16 30  2  0  0  0  0
 16 31  1  0  0  0  0
 17 32  1  0  0  0  0
 18 32  1  0  0  0  0
 18 33  2  0  0  0  0
 18 34  1  0  0  0  0
 19 21  2  0  0  0  0
 19 39  1  0  0  0  0
 20 24  2  0  0  0  0
 20 40  1  0  0  0  0
 21 54  1  0  0  0  0
 22 23  1  0  0  0  0
 22 52  1  0  0  0  0
 23 53  1  0  0  0  0
 24 41  1  0  0  0  0
 25 26  2  0  0  0  0
 25 57  1  0  0  0  0
 26 66  1  0  0  0  0
 27 86  1  0  0  0  0
 28 87  1  0  0  0  0
 29 31  2  0  0  0  0
 29 86  1  0  0  0  0
 30 88  1  0  0  0  0
 31 89  1  0  0  0  0
 32 70  2  0  0  0  0
 33 71  1  0  0  0  0
 33 75  1  0  0  0  0
 34 76  1  0  0  0  0
 34 81  2  0  0  0  0
 35 55  1  0  0  0  0
 35 77  1  0  0  0  0
 35 82  2  0  0  0  0
 36 67  1  0  0  0  0
 36 72  1  0  0  0  0
 36 83  2  0  0  0  0
 37 68  1  0  0  0  0
 37 78  1  0  0  0  0
 37 84  2  0  0  0  0
 38 73  1  0  0  0  0
 38 74  1  0  0  0  0
 38 85  2  0  0  0  0
 39 42  1  0  0  0  0
 40 55  1  0  0  0  0
 41 72  1  0  0  0  0
 42 46  1  0  0  0  0
 43 47  1  0  0  0  0
 43 48  1  0  0  0  0
 44 45  1  0  0  0  0
 44 52  1  0  0  0  0
 45 52  1  0  0  0  0
 46 54  1  0  0  0  0
 47 56  1  0  0  0  0
 48 73  1  0  0  0  0
 49 53  1  0  0  0  0
 49 74  1  0  0  0  0
 50 53  1  0  0  0  0
 50 74  1  0  0  0  0
 51 56  1  0  0  0  0
 51 73  1  0  0  0  0
 54 77  1  0  0  0  0
 55 72  1  0  0  0  0
 56 71  1  0  0  0  0
 58 66  1  0  0  0  0
 59 68  1  0  0  0  0
 60 69  1  0  0  0  0
 61 69  1  0  0  0  0
 62 69  1  0  0  0  0
 63 79  1  0  0  0  0
 64 65  1  0  0  0  0
 64 80  1  0  0  0  0
 65 87  1  0  0  0  0
 66 80  1  0  0  0  0
 67 69  1  0  0  0  0
 67 78  1  0  0  0  0
 68 79  1  0  0  0  0
 70 71  1  0  0  0  0
M  CHG  2  79   1  80   1
M  ISO  4  38 100  65 101  74 100  87 101
M  END
> <Batch ID>
0170

> <Smiles>
CNC(C)C(=O)NC(C(=O)N1Cc2cc([101O:1][101CH2:1]CNC(C)c3cc(C4C[100N:0]([100C:0](=O)N5CCCC(n6nc(-c7ccc(Oc8ccc(F)cc8F)cc7)c(C(N)=O)c6N)C5)C4)c(C4CC4)cc3C)ccc2CC1C(=O)NC1CCCc2ccccc21)C(C)(C)C

> <Shape>
0.242

> <Color>
0.089

> <Negative vol penalty>
0.000

$$$$

  -OEChem-04052322353D

 91101  0     1  0  0  0  0  0999 V2000
  -27.6430  -38.8000   23.7078 C   0  0  0  0  0  0  0  0  0  0  0  0
  -28.3843  -37.6646   24.0188 C   0  0  0  0  0  0  0  0  0  0  0  0
  -29.9982   -8.8938   16.5761 C   0  0  0  0  0  0  0  0  0  0  0  0
  -27.9423   -7.7314   17.0853 C   0  0  0  0  0  0  0  0  0  0  0  0
  -26.2547  -38.7814   23.8356 C   0  0  0  0  0  0  0  0  0  0  0  0
  -27.7377  -36.5101   24.4589 C   0  0  0  0  0  0  0  0  0  0  0  0
  -29.2484  -22.2445   20.4167 C   0  0  0  0  0  0  0  0  0  0  0  0
  -28.4131  -30.2912   20.8867 C   0  0  0  0  0  0  0  0  0  0  0  0
  -28.8443  -23.4363   21.0181 C   0  0  0  0  0  0  0  0  0  0  0  0
  -30.1530   -8.1170   15.4280 C   0  0  0  0  0  0  0  0  0  0  0  0
  -28.0971   -6.9546   15.9372 C   0  0  0  0  0  0  0  0  0  0  0  0
  -28.6617  -29.0160   20.3786 C   0  0  0  0  0  0  0  0  0  0  0  0
  -27.6017   -7.3006   12.6122 C   0  0  0  0  0  0  0  0  0  0  0  0
  -26.4814   -7.1126   11.8029 C   0  0  0  0  0  0  0  0  0  0  0  0
  -27.9197  -22.7763   18.4702 C   0  0  0  0  0  0  0  0  0  0  0  0
  -27.1077  -28.0673   21.9702 C   0  0  0  0  0  0  0  0  0  0  0  0
  -26.6403   -4.7251   12.1377 C   0  0  0  0  0  0  0  0  0  0  0  0
  -28.8928   -8.7010   17.4048 C   0  0  0  0  0  0  0  0  0  0  0  0
  -29.6143   -9.5876   19.6854 C   0  0  0  0  0  0  0  0  0  0  0  0
  -28.7861  -21.9144   19.1426 C   0  0  0  0  0  0  0  0  0  0  0  0
  -25.5900  -37.6230   24.2682 C   0  0  0  0  0  0  0  0  0  0  0  0
  -27.4982  -30.4613   21.9295 C   0  0  0  0  0  0  0  0  0  0  0  0
  -26.3394  -36.4764   24.5938 C   0  0  0  0  0  0  0  0  0  0  0  0
  -26.8453  -29.3437   22.4749 C   0  0  0  0  0  0  0  0  0  0  0  0
  -27.9779  -24.2981   20.3457 C   0  0  0  0  0  0  0  0  0  0  0  0
  -27.5156  -23.9681   19.0717 C   0  0  0  0  0  0  0  0  0  0  0  0
  -29.2025   -7.1474   15.1085 C   0  0  0  0  0  0  0  0  0  0  0  0
  -28.0108  -27.9068   20.9192 C   0  0  0  0  0  0  0  0  0  0  0  0
  -28.2415   -6.2010   13.1842 C   0  0  0  0  0  0  0  0  0  0  0  0
  -26.0006   -5.8248   11.5656 C   0  0  0  0  0  0  0  0  0  0  0  0
  -27.7607   -4.9132   12.9470 C   0  0  0  0  0  0  0  0  0  0  0  0
  -28.7326   -9.5027   18.5913 C   0  0  0  0  0  0  0  0  0  0  0  0
  -29.0129  -10.4760   20.5430 C   0  0  0  0  0  0  0  0  0  0  0  0
  -30.8652   -8.9227   19.9068 C   0  0  0  0  0  0  0  0  0  0  0  0
  -25.7574  -32.8441   24.2463 C   0  0  0  0  0  0  0  0  0  0  0  0
  -23.6716  -30.7748   23.3643 C   0  0  0  0  0  0  0  0  0  0  0  0
  -21.5847  -28.5570   21.8270 C   0  0  0  0  0  0  0  0  0  0  0  0
  -25.0933  -14.9258   19.7144 C   0  0  0  0  0  0  0  0  0  0  0  0
  -24.0918  -37.6657   24.4360 C   0  0  0  0  0  0  0  0  0  0  0  0
  -27.2455  -31.8089   22.5491 C   0  0  0  0  0  0  0  0  0  0  0  0
  -25.8952  -29.5703   23.6190 C   0  0  0  0  0  0  0  0  0  0  0  0
  -23.4522  -36.2844   24.5504 C   0  0  0  0  0  0  0  0  0  0  0  0
  -31.1741  -19.1730   18.8770 C   0  0  0  0  0  0  0  0  0  0  0  0
  -24.7013  -12.0955   21.8385 C   0  0  0  0  0  0  0  0  0  0  0  0
  -30.7505  -20.5119   18.2707 C   0  0  0  0  0  0  0  0  0  0  0  0
  -24.2323  -35.4144   25.5308 C   0  0  0  0  0  0  0  0  0  0  0  0
  -25.7696  -11.1177   21.3459 C   0  0  0  0  0  0  0  0  0  0  0  0
  -29.8993  -18.3433   18.9036 C   0  0  0  0  0  0  0  0  0  0  0  0
  -24.0828  -12.8834   20.6858 C   0  0  0  0  0  0  0  0  0  0  0  0
  -26.1214  -12.6039   19.3294 C   0  0  0  0  0  0  0  0  0  0  0  0
  -27.2399  -18.6795   17.5059 C   0  0  0  0  0  0  0  0  0  0  0  0
  -29.2239  -20.6221   18.4910 C   0  0  1  0  0  0  0  0  0  0  0  0
  -25.6723  -35.1971   25.0506 C   0  0  1  0  0  0  0  0  0  0  0  0
  -25.7883  -31.9989   23.0069 C   0  0  1  0  0  0  0  0  0  0  0  0
  -26.9401  -17.1905   17.3740 C   0  0  1  0  0  0  0  0  0  0  0  0
  -26.8135  -11.8263   20.4620 C   0  0  2  0  0  0  0  0  0  0  0  0
  -26.2287  -16.8790   18.6872 C   0  0  2  0  0  0  0  0  0  0  0  0
  -28.8631  -19.3758   19.3129 C   0  0  1  0  0  0  0  0  0  0  0  0
  -27.0980  -17.6041   19.7124 C   0  0  2  0  0  0  0  0  0  0  0  0
  -26.5871  -24.8751   18.3327 C   0  0  0  0  0  0  0  0  0  0  0  0
  -26.1182  -16.8711   16.1352 C   0  0  0  0  0  0  0  0  0  0  0  0
  -26.3811  -17.9261   21.0125 C   0  0  0  0  0  0  0  0  0  0  0  0
  -19.1811  -27.8394   21.7542 C   0  0  0  0  0  0  0  0  0  0  0  0
  -24.0315  -29.3130   26.0172 C   0  0  0  0  0  0  0  0  0  0  0  0
  -22.0470  -27.9044   25.4290 C   0  0  0  0  0  0  0  0  0  0  0  0
  -21.7866  -30.3700   25.7043 C   0  0  0  0  0  0  0  0  0  0  0  0
  -21.3403  -29.2618   18.9630 C   0  0  0  0  0  0  0  0  0  0  0  0
  -27.5562  -25.5740   21.0134 C   0  0  0  0  0  0  0  0  0  1  0  0
  -22.9790  -29.4696   23.6648 C   0  0  1  0  0  0  0  0  0  0  0  0
  -20.2412  -28.7439   21.1454 C   0  0  2  0  0  0  0  0  0  0  0  0
  -22.7336  -29.2655   25.1864 C   0  0  0  0  0  0  0  0  0  0  0  0
  -27.6531  -10.2755   18.7378 N   0  0  0  0  0  0  0  0  0  0  0  0
  -27.8525  -10.8543   19.9342 N   0  0  0  0  0  0  0  0  0  0  0  0
  -25.0717  -30.7615   23.3596 N   0  0  0  0  0  0  0  0  0  0  0  0
  -25.1258  -13.5323   19.8877 N   0  0  0  0  0  0  0  0  0  0  0  0
  -29.3687  -10.9626   21.7509 N   0  0  0  0  0  0  0  0  0  0  0  0
  -30.8563   -7.6822   20.5590 N   0  0  0  0  0  0  0  0  0  0  0  0
  -25.7100  -34.2029   23.9996 N   0  0  0  0  0  0  0  0  0  0  0  0
  -21.7645  -29.4565   22.8565 N   0  0  0  0  0  0  0  0  0  0  0  0
  -26.1224  -15.4610   18.9495 N   0  0  0  0  0  0  0  0  0  0  0  0
  -27.4797  -18.8961   18.9931 N   0  3  2  0  0  0  0  0  0  0  0  0
  -20.3493  -28.4296   19.6926 N   0  3  0  0  0  0  0  0  0  0  0  0
  -31.9599   -9.4219   19.5518 O   0  0  0  0  0  0  0  0  0  0  0  0
  -25.7737  -32.3043   25.3463 O   0  0  0  0  0  0  0  0  0  0  0  0
  -22.9922  -31.7816   23.1451 O   0  0  0  0  0  0  0  0  0  0  0  0
  -22.3921  -27.6965   21.4832 O   0  0  0  0  0  0  0  0  0  0  0  0
  -24.2153  -15.6407   20.2093 O   0  0  0  0  0  0  0  0  0  0  0  0
  -29.3532   -6.3894   13.9881 O   0  0  0  0  0  0  0  0  0  0  0  0
  -28.2547  -26.6652   20.4154 O   0  0  0  0  0  0  0  0  0  1  0  0
  -24.9238   -5.6445   10.7897 F   0  0  0  0  0  0  0  0  0  0  0  0
  -28.3704   -3.8530   13.4947 F   0  0  0  0  0  0  0  0  0  0  0  0
  1  2  1  0  0  0  0
  1  5  2  0  0  0  0
  2  6  2  0  0  0  0
  3 10  2  0  0  0  0
  3 18  1  0  0  0  0
  4 11  1  0  0  0  0
  4 18  2  0  0  0  0
  5 21  1  0  0  0  0
  6 23  1  0  0  0  0
  7  9  2  0  0  0  0
  7 20  1  0  0  0  0
  8 12  2  0  0  0  0
  8 22  1  0  0  0  0
  9 25  1  0  0  0  0
 10 27  1  0  0  0  0
 11 27  2  0  0  0  0
 12 28  1  0  0  0  0
 13 14  2  0  0  0  0
 13 29  1  0  0  0  0
 14 30  1  0  0  0  0
 15 20  2  0  0  0  0
 15 26  1  0  0  0  0
 16 24  1  0  0  0  0
 16 28  2  0  0  0  0
 17 30  2  0  0  0  0
 17 31  1  0  0  0  0
 18 32  1  0  0  0  0
 19 32  1  0  0  0  0
 19 33  2  0  0  0  0
 19 34  1  0  0  0  0
 20 52  1  0  0  0  0
 21 23  2  0  0  0  0
 21 39  1  0  0  0  0
 22 24  2  0  0  0  0
 22 40  1  0  0  0  0
 23 53  1  0  0  0  0
 24 41  1  0  0  0  0
 25 26  2  0  0  0  0
 25 68  1  0  0  0  0
 26 60  1  0  0  0  0
 27 88  1  0  0  0  0
 28 89  1  0  0  0  0
 29 31  2  0  0  0  0
 29 88  1  0  0  0  0
 30 90  1  0  0  0  0
 31 91  1  0  0  0  0
 32 72  2  0  0  0  0
 33 73  1  0  0  0  0
 33 76  1  0  0  0  0
 34 77  1  0  0  0  0
 34 83  2  0  0  0  0
 35 54  1  0  0  0  0
 35 78  1  0  0  0  0
 35 84  2  0  0  0  0
 36 69  1  0  0  0  0
 36 74  1  0  0  0  0
 36 85  2  0  0  0  0
 37 70  1  0  0  0  0
 37 79  1  0  0  0  0
 37 86  2  0  0  0  0
 38 75  1  0  0  0  0
 38 80  1  0  0  0  0
 38 87  2  0  0  0  0
 39 42  1  0  0  0  0
 40 54  1  0  0  0  0
 41 74  1  0  0  0  0
 42 46  1  0  0  0  0
 43 45  1  0  0  0  0
 43 48  1  0  0  0  0
 44 47  1  0  0  0  0
 44 49  1  0  0  0  0
 45 52  1  0  0  0  0
 46 53  1  0  0  0  0
 47 56  1  0  0  0  0
 48 58  1  0  0  0  0
 49 75  1  0  0  0  0
 50 56  1  0  0  0  0
 50 75  1  0  0  0  0
 51 55  1  0  0  0  0
 51 81  1  0  0  0  0
 52 58  1  0  0  0  0
 53 78  1  0  0  0  0
 54 74  1  0  0  0  0
 55 57  1  0  0  0  0
 55 61  1  0  0  0  0
 56 73  1  0  0  0  0
 57 59  1  0  0  0  0
 57 80  1  0  0  0  0
 58 81  1  0  0  0  0
 59 62  1  0  0  0  0
 59 81  1  0  0  0  0
 63 70  1  0  0  0  0
 64 71  1  0  0  0  0
 65 71  1  0  0  0  0
 66 71  1  0  0  0  0
 67 82  1  0  0  0  0
 68 89  1  0  0  0  0
 69 71  1  0  0  0  0
 69 79  1  0  0  0  0
 70 82  1  0  0  0  0
 72 73  1  0  0  0  0
M  CHG  2  81   1  82   1
M  ISO  4  38 100  68 101  80 100  89 101
M  END
> <Batch ID>
0170

> <Smiles>
CNC(C)C(=O)NC(C(=O)N1Cc2cc([101O:1][101CH2:1]c3ccc(C4CCCC4N4CC(C)C([100NH:0][100C:0](=O)N5CCCC(n6nc(-c7ccc(Oc8ccc(F)cc8F)cc7)c(C(N)=O)c6N)C5)C4C)cc3C)ccc2CC1C(=O)NC1CCCc2ccccc21)C(C)(C)C

> <Shape>
0.246

> <Color>
0.073

> <Negative vol penalty>
0.000

$$$$

  -OEChem-04052322353D

 86 95  0     1  0  0  0  0  0999 V2000
  -30.4373  -27.2865   12.7647 C   0  0  0  0  0  0  0  0  0  0  0  0
  -30.1779  -26.2506   13.6564 C   0  0  0  0  0  0  0  0  0  0  0  0
  -22.9352  -10.0610   19.9419 C   0  0  0  0  0  0  0  0  0  0  0  0
  -23.7476   -9.9080   22.2120 C   0  0  0  0  0  0  0  0  0  0  0  0
  -30.4681  -28.6044   13.2189 C   0  0  0  0  0  0  0  0  0  0  0  0
  -29.9502  -26.5320   15.0030 C   0  0  0  0  0  0  0  0  0  0  0  0
  -26.1461  -23.5813   18.7883 C   0  0  0  0  0  0  0  0  0  0  0  0
  -22.1493   -8.9270   20.1467 C   0  0  0  0  0  0  0  0  0  0  0  0
  -22.9616   -8.7740   22.4169 C   0  0  0  0  0  0  0  0  0  0  0  0
  -26.3569  -22.5874   19.7430 C   0  0  0  0  0  0  0  0  0  0  0  0
  -23.0990   -5.4795   21.6698 C   0  0  0  0  0  0  0  0  0  0  0  0
  -23.6871   -4.3912   22.3141 C   0  0  0  0  0  0  0  0  0  0  0  0
  -26.4706  -24.2734   21.4645 C   0  0  0  0  0  0  0  0  0  0  0  0
  -31.8063  -19.0419   23.0628 C   0  0  0  0  0  0  0  0  0  0  0  0
  -30.0001  -17.4559   22.9799 C   0  0  0  0  0  0  0  0  0  0  0  0
  -22.0345   -4.5380   24.0705 C   0  0  0  0  0  0  0  0  0  0  0  0
  -23.7344  -10.5515   20.9746 C   0  0  0  0  0  0  0  0  0  0  0  0
  -24.1797  -13.0633   20.9854 C   0  0  0  0  0  0  0  0  0  0  0  0
  -30.2311  -28.9028   14.5699 C   0  0  0  0  0  0  0  0  0  0  0  0
  -26.1067  -24.9319   19.1637 C   0  0  0  0  0  0  0  0  0  0  0  0
  -29.9792  -27.8549   15.4759 C   0  0  0  0  0  0  0  0  0  0  0  0
  -26.2565  -25.2824   20.5130 C   0  0  0  0  0  0  0  0  0  0  0  0
  -30.5361  -18.6438   23.4647 C   0  0  0  0  0  0  0  0  0  0  0  0
  -22.1624   -8.2835   21.3842 C   0  0  0  0  0  0  0  0  0  0  0  0
  -26.5221  -22.9336   21.0809 C   0  0  0  0  0  0  0  0  0  0  0  0
  -21.9787   -6.0972   22.2258 C   0  0  0  0  0  0  0  0  0  0  0  0
  -23.1549   -3.9204   23.5144 C   0  0  0  0  0  0  0  0  0  0  0  0
  -21.4464   -5.6264   23.4261 C   0  0  0  0  0  0  0  0  0  0  0  0
  -24.5469  -11.7225   20.7634 C   0  0  0  0  0  0  0  0  0  0  0  0
  -32.4941  -18.2232   22.1817 C   0  0  0  0  0  0  0  0  0  0  0  0
  -30.7687  -16.7083   22.1023 C   0  0  0  0  0  0  0  0  0  0  0  0
  -25.2939  -13.7867   20.6364 C   0  0  0  0  0  0  0  0  0  0  0  0
  -29.4995  -20.8661   23.8542 C   0  0  0  0  0  0  0  0  0  0  0  0
  -28.2012  -21.1185   23.6882 C   0  0  0  0  0  0  0  0  0  0  0  0
  -27.5795  -19.8820   24.1699 C   0  0  0  0  0  0  0  0  0  0  0  0
  -22.9422  -13.6063   21.4644 C   0  0  0  0  0  0  0  0  0  0  0  0
  -27.8377  -27.5051   18.4667 C   0  0  0  0  0  0  0  0  0  0  0  0
  -25.5559  -29.0291   20.1968 C   0  0  0  0  0  0  0  0  0  0  0  0
  -23.1448  -28.8512   22.6055 C   0  0  0  0  0  0  0  0  0  0  0  0
  -30.8019  -14.5965   20.7291 C   0  0  0  0  0  0  0  0  0  0  0  0
  -30.3215  -30.3386   15.0229 C   0  0  0  0  0  0  0  0  0  0  0  0
  -25.8517  -25.9900   18.1256 C   0  0  0  0  0  0  0  0  0  0  0  0
  -26.2023  -26.7163   20.9706 C   0  0  0  0  0  0  0  0  0  0  0  0
  -29.6992  -30.5847   16.3949 C   0  0  0  0  0  0  0  0  0  0  0  0
  -29.5320  -12.3672   18.2604 C   0  0  0  0  0  0  0  0  0  0  0  0
  -30.1534  -29.5181   17.3862 C   0  0  0  0  0  0  0  0  0  0  0  0
  -28.0916  -12.1111   18.7098 C   0  0  0  0  0  0  0  0  0  0  0  0
  -30.4835  -12.4905   19.4491 C   0  0  0  0  0  0  0  0  0  0  0  0
  -28.6414  -13.2135   20.9164 C   0  0  0  0  0  0  0  0  0  0  0  0
  -29.7027  -28.1221   16.9396 C   0  0  1  0  0  0  0  0  0  0  0  0
  -26.3433  -27.3714   18.5471 C   0  0  1  0  0  0  0  0  0  0  0  0
  -27.6351  -13.1467   19.7560 C   0  0  2  0  0  0  0  0  0  0  0  0
  -29.7498  -19.4895   24.4140 C   0  0  2  0  0  0  0  0  0  0  0  0
  -33.8596  -18.6193   21.7282 C   0  0  0  0  0  0  0  0  0  0  0  0
  -26.0930  -19.6993   24.1514 C   0  0  0  0  0  0  0  0  0  0  0  0
  -30.4463  -19.5441   25.7710 C   0  0  0  0  0  0  0  0  0  0  0  0
  -21.4749  -30.2691   23.8297 C   0  0  0  0  0  0  0  0  0  0  0  0
  -27.8049  -30.2198   21.8803 C   0  0  0  0  0  0  0  0  0  0  0  0
  -26.0972  -30.8235   23.6088 C   0  0  0  0  0  0  0  0  0  0  0  0
  -25.9612  -31.8154   21.3240 C   0  0  0  0  0  0  0  0  0  0  0  0
  -20.8708  -27.2456   21.6005 C   0  0  0  0  0  0  0  0  0  0  0  0
  -27.5087  -22.3197   23.1559 C   0  0  0  0  0  0  0  0  0  1  0  0
  -25.3745  -29.3784   21.6542 C   0  0  1  0  0  0  0  0  0  0  0  0
  -21.7135  -29.3560   22.6371 C   0  0  2  0  0  0  0  0  0  0  0  0
  -26.3125  -30.5323   22.1083 C   0  0  0  0  0  0  0  0  0  0  0  0
  -25.7966  -11.5987   20.3084 N   0  0  0  0  0  0  0  0  0  0  0  0
  -32.0063  -17.0625   21.6893 N   0  0  0  0  0  0  0  0  0  0  0  0
  -28.3732  -18.9436   24.6047 N   0  0  0  0  0  0  0  0  0  0  0  0
  -26.2243  -12.8710   20.2415 N   0  0  0  0  0  0  0  0  0  0  0  0
  -25.9569  -27.7150   19.9171 N   0  0  0  0  0  0  0  0  0  0  0  0
  -29.9891  -13.4924   20.3960 N   0  0  0  0  0  0  0  0  0  0  0  0
  -25.5586  -15.1105   20.6316 N   0  0  0  0  0  0  0  0  0  0  0  0
  -21.9009  -12.7217   21.7767 N   0  0  0  0  0  0  0  0  0  0  0  0
  -30.2133  -15.4998   21.6136 N   0  0  0  0  0  0  0  0  0  0  0  0
  -28.2994  -27.9258   17.2341 N   0  0  0  0  0  0  0  0  0  0  0  0
  -23.9538  -29.6577   21.8332 N   0  0  0  0  0  0  0  0  0  0  0  0
  -20.7625  -28.2119   22.7236 N   0  3  0  0  0  0  0  0  0  0  0  0
  -22.7596  -14.8404   21.5956 O   0  0  0  0  0  0  0  0  0  0  0  0
  -28.5212  -27.2472   19.4506 O   0  0  0  0  0  0  0  0  0  0  0  0
  -25.3426  -29.8883   19.3379 O   0  0  0  0  0  0  0  0  0  0  0  0
  -23.5095  -27.8444   23.2087 O   0  0  0  0  0  0  0  0  0  0  0  0
  -31.9260  -14.7449   20.2429 O   0  0  0  0  0  0  0  0  0  0  0  0
  -21.3955   -7.1771   21.5845 O   0  0  0  0  0  0  0  0  0  0  0  0
  -26.7287  -21.9654   22.0147 O   0  0  0  0  0  0  0  0  0  1  0  0
  -23.7188   -2.8742   24.1323 F   0  0  0  0  0  0  0  0  0  0  0  0
  -20.3696   -6.2149   23.9645 F   0  0  0  0  0  0  0  0  0  0  0  0
  1  2  1  0  0  0  0
  1  5  2  0  0  0  0
  2  6  2  0  0  0  0
  3  8  2  0  0  0  0
  3 17  1  0  0  0  0
  4  9  1  0  0  0  0
  4 17  2  0  0  0  0
  5 19  1  0  0  0  0
  6 21  1  0  0  0  0
  7 10  2  0  0  0  0
  7 20  1  0  0  0  0
  8 24  1  0  0  0  0
  9 24  2  0  0  0  0
 10 25  1  0  0  0  0
 11 12  2  0  0  0  0
 11 26  1  0  0  0  0
 12 27  1  0  0  0  0
 13 22  1  0  0  0  0
 13 25  2  0  0  0  0
 14 23  1  0  0  0  0
 14 30  2  0  0  0  0
 15 23  2  0  0  0  0
 15 31  1  0  0  0  0
 16 27  2  0  0  0  0
 16 28  1  0  0  0  0
 17 29  1  0  0  0  0
 18 29  1  0  0  0  0
 18 32  2  0  0  0  0
 18 36  1  0  0  0  0
 19 21  2  0  0  0  0
 19 41  1  0  0  0  0
 20 22  2  0  0  0  0
 20 42  1  0  0  0  0
 21 50  1  0  0  0  0
 22 43  1  0  0  0  0
 23 53  1  0  0  0  0
 24 83  1  0  0  0  0
 25 84  1  0  0  0  0
 26 28  2  0  0  0  0
 26 83  1  0  0  0  0
 27 85  1  0  0  0  0
 28 86  1  0  0  0  0
 29 66  2  0  0  0  0
 30 54  1  0  0  0  0
 30 67  1  0  0  0  0
 31 67  2  0  0  0  0
 31 74  1  0  0  0  0
 32 69  1  0  0  0  0
 32 72  1  0  0  0  0
 33 34  2  0  0  0  0
 33 53  1  0  0  0  0
 34 35  1  0  0  0  0
 34 62  1  0  0  0  0
 35 55  1  0  0  0  0
 35 68  2  0  0  0  0
 36 73  1  0  0  0  0
 36 78  2  0  0  0  0
 37 51  1  0  0  0  0
 37 75  1  0  0  0  0
 37 79  2  0  0  0  0
 38 63  1  0  0  0  0
 38 70  1  0  0  0  0
 38 80  2  0  0  0  0
 39 64  1  0  0  0  0
 39 76  1  0  0  0  0
 39 81  2  0  0  0  0
 40 71  1  0  0  0  0
 40 74  1  0  0  0  0
 40 82  2  0  0  0  0
 41 44  1  0  0  0  0
 42 51  1  0  0  0  0
 43 70  1  0  0  0  0
 44 46  1  0  0  0  0
 45 47  1  0  0  0  0
 45 48  1  0  0  0  0
 46 50  1  0  0  0  0
 47 52  1  0  0  0  0
 48 71  1  0  0  0  0
 49 52  1  0  0  0  0
 49 71  1  0  0  0  0
 50 75  1  0  0  0  0
 51 70  1  0  0  0  0
 52 69  1  0  0  0  0
 53 56  1  0  0  0  0
 53 68  1  0  0  0  0
 57 64  1  0  0  0  0
 58 65  1  0  0  0  0
 59 65  1  0  0  0  0
 60 65  1  0  0  0  0
 61 77  1  0  0  0  0
 62 84  1  0  0  0  0
 63 65  1  0  0  0  0
 63 76  1  0  0  0  0
 64 77  1  0  0  0  0
 66 69  1  0  0  0  0
M  CHG  1  77   1
M  ISO  4  40 100  62 101  74 100  84 101
M  END
> <Batch ID>
0170

> <Smiles>
CNC(C)C(=O)NC(C(=O)N1Cc2cc([101O:1][101CH2:1]C3=CC(C)(c4cc(C)nc([100NH:0][100C:0](=O)N5CCCC(n6nc(-c7ccc(Oc8ccc(F)cc8F)cc7)c(C(N)=O)c6N)C5)c4)N=C3C)ccc2CC1C(=O)NC1CCCc2ccccc21)C(C)(C)C

> <Shape>
0.294

> <Color>
0.214

> <Negative vol penalty>
0.000

$$$$

  -OEChem-04052322353D

 85 94  0     1  0  0  0  0  0999 V2000
  -26.7147  -37.5971   22.4198 C   0  0  0  0  0  0  0  0  0  0  0  0
  -27.3277  -36.4475   21.9320 C   0  0  0  0  0  0  0  0  0  0  0  0
  -26.5164  -12.5595   22.3019 C   0  0  0  0  0  0  0  0  0  0  0  0
  -24.3590  -11.8254   21.4994 C   0  0  0  0  0  0  0  0  0  0  0  0
  -25.7263  -37.4972   23.3981 C   0  0  0  0  0  0  0  0  0  0  0  0
  -26.9534  -35.1972   22.4231 C   0  0  0  0  0  0  0  0  0  0  0  0
  -26.7028  -29.9379   19.2954 C   0  0  0  0  0  0  0  0  0  0  0  0
  -26.4684  -11.5975   23.3107 C   0  0  0  0  0  0  0  0  0  0  0  0
  -24.3111  -10.8633   22.5082 C   0  0  0  0  0  0  0  0  0  0  0  0
  -27.5878  -28.8656   19.1909 C   0  0  0  0  0  0  0  0  0  0  0  0
  -25.6298   -7.8085   23.0992 C   0  0  0  0  0  0  0  0  0  0  0  0
  -25.2204   -6.5224   22.7472 C   0  0  0  0  0  0  0  0  0  0  0  0
  -26.3608  -27.6935   20.9054 C   0  0  0  0  0  0  0  0  0  0  0  0
  -23.3743   -6.6859   24.2972 C   0  0  0  0  0  0  0  0  0  0  0  0
  -25.4616  -12.6735   21.3962 C   0  0  0  0  0  0  0  0  0  0  0  0
  -26.0429  -13.5168   19.0598 C   0  0  0  0  0  0  0  0  0  0  0  0
  -25.3329  -36.2444   23.8944 C   0  0  0  0  0  0  0  0  0  0  0  0
  -25.6448  -29.9004   20.2150 C   0  0  0  0  0  0  0  0  0  0  0  0
  -25.9597  -35.0805   23.4099 C   0  0  0  0  0  0  0  0  0  0  0  0
  -25.4622  -28.7655   21.0179 C   0  0  0  0  0  0  0  0  0  0  0  0
  -31.6213  -23.3164   18.9476 C   0  0  0  0  0  0  0  0  0  0  0  0
  -25.3658  -10.7494   23.4139 C   0  0  0  0  0  0  0  0  0  0  0  0
  -27.4186  -27.7445   19.9980 C   0  0  0  0  0  0  0  0  0  0  0  0
  -24.9115   -8.5333   24.0502 C   0  0  0  0  0  0  0  0  0  0  0  0
  -24.0926   -5.9611   23.3462 C   0  0  0  0  0  0  0  0  0  0  0  0
  -23.7838   -7.9720   24.6492 C   0  0  0  0  0  0  0  0  0  0  0  0
  -25.5103  -13.6675   20.3542 C   0  0  0  0  0  0  0  0  0  0  0  0
  -30.2741  -23.3142   18.6487 C   0  0  0  0  0  0  0  0  0  0  0  0
  -32.1648  -24.5494   19.2450 C   0  0  0  0  0  0  0  0  0  0  0  0
  -25.8478  -14.7388   18.4639 C   0  0  0  0  0  0  0  0  0  0  0  0
  -30.1533  -25.5646   18.9451 C   0  0  0  0  0  0  0  0  0  0  0  0
  -26.6587  -12.3743   18.4506 C   0  0  0  0  0  0  0  0  0  0  0  0
  -24.8117  -31.6315   22.7474 C   0  0  0  0  0  0  0  0  0  0  0  0
  -22.1568  -29.7697   22.6592 C   0  0  0  0  0  0  0  0  0  0  0  0
  -20.7084  -26.8327   21.6986 C   0  0  0  0  0  0  0  0  0  0  0  0
  -25.8836  -20.2178   18.4822 C   0  0  0  0  0  0  0  0  0  0  0  0
  -24.2933  -36.1898   24.9857 C   0  0  0  0  0  0  0  0  0  0  0  0
  -24.6831  -31.0541   20.2967 C   0  0  0  0  0  0  0  0  0  0  0  0
  -24.3303  -28.6673   22.0066 C   0  0  0  0  0  0  0  0  0  0  0  0
  -23.6900  -34.8016   25.1834 C   0  0  0  0  0  0  0  0  0  0  0  0
  -23.1195  -18.7291   19.9285 C   0  0  0  0  0  0  0  0  0  0  0  0
  -24.7877  -33.7430   25.2218 C   0  0  0  0  0  0  0  0  0  0  0  0
  -23.5271  -17.2624   20.0662 C   0  0  0  0  0  0  0  0  0  0  0  0
  -29.0446  -21.2951   19.5615 C   0  0  0  0  0  0  0  0  0  0  0  0
  -28.4273  -22.2318   17.2919 C   0  0  0  0  0  0  0  0  0  0  0  0
  -24.2792  -19.6531   20.2816 C   0  0  0  0  0  0  0  0  0  0  0  0
  -28.3025  -20.0036   19.2059 C   0  0  0  0  0  0  0  0  0  0  0  0
  -27.7248  -20.9134   16.9807 C   0  0  0  0  0  0  0  0  0  0  0  0
  -25.9338  -17.9440   19.6038 C   0  0  0  0  0  0  0  0  0  0  0  0
  -25.5635  -33.7046   23.8997 C   0  0  1  0  0  0  0  0  0  0  0  0
  -29.5656  -22.0172   18.3059 C   0  0  0  0  0  0  0  0  0  0  0  0
  -23.9450  -31.1234   21.6301 C   0  0  1  0  0  0  0  0  0  0  0  0
  -24.7976  -16.9626   19.2511 C   0  0  1  0  0  0  0  0  0  0  0  0
  -32.4338  -22.0703   18.9507 C   0  0  0  0  0  0  0  0  0  0  0  0
  -33.6138  -24.6762   19.5832 C   0  0  0  0  0  0  0  0  0  0  0  0
  -18.5354  -25.5818   21.8011 C   0  0  0  0  0  0  0  0  0  0  0  0
  -22.6903  -29.0875   25.5849 C   0  0  0  0  0  0  0  0  0  0  0  0
  -21.1084  -27.1610   25.3518 C   0  0  0  0  0  0  0  0  0  0  0  0
  -20.2858  -29.4939   25.0302 C   0  0  0  0  0  0  0  0  0  0  0  0
  -20.4686  -26.7757   18.7493 C   0  0  0  0  0  0  0  0  0  0  0  0
  -29.3374  -26.8128   18.9464 C   0  0  0  0  0  0  0  0  0  1  0  0
  -21.7596  -28.4448   23.2640 C   0  0  1  0  0  0  0  0  0  0  0  0
  -19.3966  -26.5399   20.9930 C   0  0  2  0  0  0  0  0  0  0  0  0
  -21.4836  -28.5491   24.7906 C   0  0  0  0  0  0  0  0  0  0  0  0
  -25.0143  -14.8890   20.5687 N   0  0  0  0  0  0  0  0  0  0  0  0
  -29.5069  -24.4239   18.6380 N   0  0  0  0  0  0  0  0  0  0  0  0
  -31.4575  -25.6983   19.2530 N   0  0  0  0  0  0  0  0  0  0  0  0
  -25.2345  -15.5169   19.4012 N   0  0  0  0  0  0  0  0  0  0  0  0
  -23.4203  -29.8237   22.0539 N   0  0  0  0  0  0  0  0  0  0  0  0
  -25.4670  -19.3345   19.4896 N   0  0  0  0  0  0  0  0  0  0  0  0
  -27.2582  -20.2637   18.2053 N   0  0  0  0  0  0  0  0  0  0  0  0
  -26.1429  -15.2129   17.2348 N   0  0  0  0  0  0  0  0  0  0  0  0
  -26.7792  -11.1988   19.2043 N   0  0  0  0  0  0  0  0  0  0  0  0
  -24.8016  -33.0062   22.8867 N   0  0  0  0  0  0  0  0  0  0  0  0
  -20.6251  -27.9634   22.4833 N   0  0  0  0  0  0  0  0  0  0  0  0
  -19.6517  -25.9300   19.6574 N   0  3  0  0  0  0  0  0  0  0  0  0
  -27.1043  -12.4003   17.2783 O   0  0  0  0  0  0  0  0  0  0  0  0
  -25.4417  -30.8351   23.4334 O   0  0  0  0  0  0  0  0  0  0  0  0
  -21.3719  -30.7197   22.7153 O   0  0  0  0  0  0  0  0  0  0  0  0
  -21.7061  -26.1266   21.5697 O   0  0  0  0  0  0  0  0  0  0  0  0
  -25.0755  -20.9235   17.8656 O   0  0  0  0  0  0  0  0  0  0  0  0
  -25.3189   -9.8103   24.3980 O   0  0  0  0  0  0  0  0  0  0  0  0
  -28.2872  -26.6896   19.8978 O   0  0  0  0  0  0  0  0  0  1  0  0
  -23.6987   -4.7266   23.0069 F   0  0  0  0  0  0  0  0  0  0  0  0
  -23.0890   -8.6639   25.5626 F   0  0  0  0  0  0  0  0  0  0  0  0
  1  2  1  0  0  0  0
  1  5  2  0  0  0  0
  2  6  2  0  0  0  0
  3  8  2  0  0  0  0
  3 15  1  0  0  0  0
  4  9  1  0  0  0  0
  4 15  2  0  0  0  0
  5 17  1  0  0  0  0
  6 19  1  0  0  0  0
  7 10  2  0  0  0  0
  7 18  1  0  0  0  0
  8 22  1  0  0  0  0
  9 22  2  0  0  0  0
 10 23  1  0  0  0  0
 11 12  2  0  0  0  0
 11 24  1  0  0  0  0
 12 25  1  0  0  0  0
 13 20  1  0  0  0  0
 13 23  2  0  0  0  0
 14 25  2  0  0  0  0
 14 26  1  0  0  0  0
 15 27  1  0  0  0  0
 16 27  1  0  0  0  0
 16 30  2  0  0  0  0
 16 32  1  0  0  0  0
 17 19  2  0  0  0  0
 17 37  1  0  0  0  0
 18 20  2  0  0  0  0
 18 38  1  0  0  0  0
 19 50  1  0  0  0  0
 20 39  1  0  0  0  0
 21 28  2  0  0  0  0
 21 29  1  0  0  0  0
 21 54  1  0  0  0  0
 22 82  1  0  0  0  0
 23 83  1  0  0  0  0
 24 26  2  0  0  0  0
 24 82  1  0  0  0  0
 25 84  1  0  0  0  0
 26 85  1  0  0  0  0
 27 65  2  0  0  0  0
 28 51  1  0  0  0  0
 28 66  1  0  0  0  0
 29 55  1  0  0  0  0
 29 67  2  0  0  0  0
 30 68  1  0  0  0  0
 30 72  1  0  0  0  0
 31 61  1  0  0  0  0
 31 66  2  0  0  0  0
 31 67  1  0  0  0  0
 32 73  1  0  0  0  0
 32 77  2  0  0  0  0
 33 52  1  0  0  0  0
 33 74  1  0  0  0  0
 33 78  2  0  0  0  0
 34 62  1  0  0  0  0
 34 69  1  0  0  0  0
 34 79  2  0  0  0  0
 35 63  1  0  0  0  0
 35 75  1  0  0  0  0
 35 80  2  0  0  0  0
 36 70  1  0  0  0  0
 36 71  1  0  0  0  0
 36 81  2  0  0  0  0
 37 40  1  0  0  0  0
 38 52  1  0  0  0  0
 39 69  1  0  0  0  0
 40 42  1  0  0  0  0
 41 43  1  0  0  0  0
 41 46  1  0  0  0  0
 42 50  1  0  0  0  0
 43 53  1  0  0  0  0
 44 47  1  0  0  0  0
 44 51  1  0  0  0  0
 45 48  1  0  0  0  0
 45 51  1  0  0  0  0
 46 70  1  0  0  0  0
 47 71  1  0  0  0  0
 48 71  1  0  0  0  0
 49 53  1  0  0  0  0
 49 70  1  0  0  0  0
 50 74  1  0  0  0  0
 52 69  1  0  0  0  0
 53 68  1  0  0  0  0
 56 63  1  0  0  0  0
 57 64  1  0  0  0  0
 58 64  1  0  0  0  0
 59 64  1  0  0  0  0
 60 76  1  0  0  0  0
 61 83  1  0  0  0  0
 62 64  1  0  0  0  0
 62 75  1  0  0  0  0
 63 76  1  0  0  0  0
 65 68  1  0  0  0  0
M  CHG  1  76   1
M  ISO  4  36 100  61 101  71 100  83 101
M  END
> <Batch ID>
0170

> <Smiles>
CNC(C)C(=O)NC(C(=O)N1Cc2cc([101O:1][101CH2:1]c3nc(C)c(C)c(C4CC[100N:0]([100C:0](=O)N5CCCC(n6nc(-c7ccc(Oc8ccc(F)cc8F)cc7)c(C(N)=O)c6N)C5)CC4)n3)ccc2CC1C(=O)NC1CCCc2ccccc21)C(C)(C)C

> <Shape>
0.284

> <Color>
0.077

> <Negative vol penalty>
0.000

$$$$

  -OEChem-04052322353D

 86 95  0     1  0  0  0  0  0999 V2000
  -26.7333  -38.2822   19.3721 C   0  0  0  0  0  0  0  0  0  0  0  0
  -26.9732  -37.0952   18.6872 C   0  0  0  0  0  0  0  0  0  0  0  0
  -24.5054   -8.8332   21.6410 C   0  0  0  0  0  0  0  0  0  0  0  0
  -22.7288   -9.6895   20.2455 C   0  0  0  0  0  0  0  0  0  0  0  0
  -26.6786  -38.2830   20.7653 C   0  0  0  0  0  0  0  0  0  0  0  0
  -27.1595  -35.9085   19.3953 C   0  0  0  0  0  0  0  0  0  0  0  0
  -25.9622  -28.8633   18.8967 C   0  0  0  0  0  0  0  0  0  0  0  0
  -23.5654   -8.1743   22.4334 C   0  0  0  0  0  0  0  0  0  0  0  0
  -21.7888   -9.0305   21.0379 C   0  0  0  0  0  0  0  0  0  0  0  0
  -26.6344  -27.6465   19.0022 C   0  0  0  0  0  0  0  0  0  0  0  0
  -21.7176   -5.3470   22.2752 C   0  0  0  0  0  0  0  0  0  0  0  0
  -21.9844   -4.0258   22.6342 C   0  0  0  0  0  0  0  0  0  0  0  0
  -26.4395  -27.7539   21.4042 C   0  0  0  0  0  0  0  0  0  0  0  0
  -21.9263   -4.6481   24.9680 C   0  0  0  0  0  0  0  0  0  0  0  0
  -24.0871   -9.5908   20.5471 C   0  0  0  0  0  0  0  0  0  0  0  0
  -25.7108   -9.7688   18.5876 C   0  0  0  0  0  0  0  0  0  0  0  0
  -26.8547  -37.0939   21.4904 C   0  0  0  0  0  0  0  0  0  0  0  0
  -25.5325  -29.5411   20.0467 C   0  0  0  0  0  0  0  0  0  0  0  0
  -27.1084  -35.8936   20.7995 C   0  0  0  0  0  0  0  0  0  0  0  0
  -25.7598  -28.9780   21.3105 C   0  0  0  0  0  0  0  0  0  0  0  0
  -28.6141  -23.9786   19.4600 C   0  0  0  0  0  0  0  0  0  0  0  0
  -29.9052  -23.9634   19.9760 C   0  0  0  0  0  0  0  0  0  0  0  0
  -27.9472  -22.7795   19.2349 C   0  0  0  0  0  0  0  0  0  0  0  0
  -22.2071   -8.2729   22.1318 C   0  0  0  0  0  0  0  0  0  0  0  0
  -26.8757  -27.0930   20.2562 C   0  0  0  0  0  0  0  0  0  0  0  0
  -21.5552   -6.3188   23.2626 C   0  0  0  0  0  0  0  0  0  0  0  0
  -22.0887   -3.6764   23.9805 C   0  0  0  0  0  0  0  0  0  0  0  0
  -21.6595   -5.9694   24.6090 C   0  0  0  0  0  0  0  0  0  0  0  0
  -25.0576  -10.2722   19.7285 C   0  0  0  0  0  0  0  0  0  0  0  0
  -30.4805  -22.7326   20.2480 C   0  0  0  0  0  0  0  0  0  0  0  0
  -28.6103  -21.6017   19.5398 C   0  0  0  0  0  0  0  0  0  0  0  0
  -26.5263  -10.7953   18.1780 C   0  0  0  0  0  0  0  0  0  0  0  0
  -25.5912   -8.4878   17.9547 C   0  0  0  0  0  0  0  0  0  0  0  0
  -26.1801  -32.3616   21.3617 C   0  0  0  0  0  0  0  0  0  0  0  0
  -23.8114  -31.5133   23.4091 C   0  0  0  0  0  0  0  0  0  0  0  0
  -21.9923  -29.0171   24.8605 C   0  0  0  0  0  0  0  0  0  0  0  0
  -26.2906  -16.5503   18.6795 C   0  0  0  0  0  0  0  0  0  0  0  0
  -26.8339  -37.1527   22.9973 C   0  0  0  0  0  0  0  0  0  0  0  0
  -24.7851  -30.8397   19.9146 C   0  0  0  0  0  0  0  0  0  0  0  0
  -25.3010  -29.6557   22.5749 C   0  0  0  0  0  0  0  0  0  0  0  0
  -26.6694  -35.7864   23.6579 C   0  0  0  0  0  0  0  0  0  0  0  0
  -28.9416  -14.5646   19.8494 C   0  0  0  0  0  0  0  0  0  0  0  0
  -27.6089  -34.7682   23.0196 C   0  0  0  0  0  0  0  0  0  0  0  0
  -28.3062  -13.1745   19.8418 C   0  0  0  0  0  0  0  0  0  0  0  0
  -27.9689  -15.6366   20.3435 C   0  0  0  0  0  0  0  0  0  0  0  0
  -28.0808  -19.7283   18.0107 C   0  0  0  0  0  0  0  0  0  0  0  0
  -27.6974  -19.5204   20.4715 C   0  0  0  0  0  0  0  0  0  0  0  0
  -26.9348  -18.7498   17.7680 C   0  0  0  0  0  0  0  0  0  0  0  0
  -26.5512  -18.5566   20.1850 C   0  0  0  0  0  0  0  0  0  0  0  0
  -26.0438  -14.2677   19.6100 C   0  0  0  0  0  0  0  0  0  0  0  0
  -27.2909  -34.5815   21.5311 C   0  0  1  0  0  0  0  0  0  0  0  0
  -24.8462  -31.6952   21.1763 C   0  0  1  0  0  0  0  0  0  0  0  0
  -26.9790  -13.1781   19.0628 C   0  0  2  0  0  0  0  0  0  0  0  0
  -30.6463  -25.2334   20.2292 C   0  0  0  0  0  0  0  0  0  0  0  0
  -26.5607  -22.7730   18.6806 C   0  0  0  0  0  0  0  0  0  0  0  0
  -31.8649  -22.6527   20.8032 C   0  0  0  0  0  0  0  0  0  0  0  0
  -20.1517  -28.6314   26.5221 C   0  0  0  0  0  0  0  0  0  0  0  0
  -25.7629  -32.0514   25.6922 C   0  0  0  0  0  0  0  0  0  0  0  0
  -24.2348  -30.7715   27.2072 C   0  0  0  0  0  0  0  0  0  0  0  0
  -23.4312  -32.8579   26.1009 C   0  0  0  0  0  0  0  0  0  0  0  0
  -20.2588  -27.7537   22.8215 C   0  0  0  0  0  0  0  0  0  0  0  0
  -27.9462  -25.2803   19.1498 C   0  0  0  0  0  0  0  0  0  1  0  0
  -23.7473  -30.7648   24.7186 C   0  0  1  0  0  0  0  0  0  0  0  0
  -20.4970  -28.8435   25.0563 C   0  0  2  0  0  0  0  0  0  0  0  0
  -24.3045  -31.5994   25.9062 C   0  0  0  0  0  0  0  0  0  0  0  0
  -25.4263  -11.5213   20.0247 N   0  0  0  0  0  0  0  0  0  0  0  0
  -29.8641  -21.5471   20.0424 N   0  0  0  0  0  0  0  0  0  0  0  0
  -26.3202  -11.8114   19.0640 N   0  0  0  0  0  0  0  0  0  0  0  0
  -27.9458  -20.3896   19.3131 N   0  0  0  0  0  0  0  0  0  0  0  0
  -24.5800  -30.9266   22.3939 N   0  0  0  0  0  0  0  0  0  0  0  0
  -26.7039  -15.5748   19.5991 N   0  0  0  0  0  0  0  0  0  0  0  0
  -26.7303  -17.8637   18.9075 N   0  0  0  0  0  0  0  0  0  0  0  0
  -27.3924  -10.9187   17.1499 N   0  0  0  0  0  0  0  0  0  0  0  0
  -24.7073   -7.5502   18.5060 N   0  0  0  0  0  0  0  0  0  0  0  0
  -26.1237  -33.7423   21.3651 N   0  0  0  0  0  0  0  0  0  0  0  0
  -22.3593  -30.3461   24.8818 N   0  0  0  0  0  0  0  0  0  0  0  0
  -20.0064  -27.6678   24.2830 N   0  3  0  0  0  0  0  0  0  0  0  0
  -26.2608   -8.1779   16.9403 O   0  0  0  0  0  0  0  0  0  0  0  0
  -27.1859  -31.6740   21.4935 O   0  0  0  0  0  0  0  0  0  0  0  0
  -23.1963  -32.5758   23.2892 O   0  0  0  0  0  0  0  0  0  0  0  0
  -22.7587  -28.0685   24.7080 O   0  0  0  0  0  0  0  0  0  0  0  0
  -25.5748  -16.2668   17.7110 O   0  0  0  0  0  0  0  0  0  0  0  0
  -21.2896   -7.6299   22.9047 O   0  0  0  0  0  0  0  0  0  0  0  0
  -27.5370  -25.8970   20.3628 O   0  0  0  0  0  0  0  0  0  1  0  0
  -22.3434   -2.4073   24.3251 F   0  0  0  0  0  0  0  0  0  0  0  0
  -21.5033   -6.8984   25.5621 F   0  0  0  0  0  0  0  0  0  0  0  0
  1  2  1  0  0  0  0
  1  5  2  0  0  0  0
  2  6  2  0  0  0  0
  3  8  2  0  0  0  0
  3 15  1  0  0  0  0
  4  9  1  0  0  0  0
  4 15  2  0  0  0  0
  5 17  1  0  0  0  0
  6 19  1  0  0  0  0
  7 10  2  0  0  0  0
  7 18  1  0  0  0  0
  8 24  1  0  0  0  0
  9 24  2  0  0  0  0
 10 25  1  0  0  0  0
 11 12  2  0  0  0  0
 11 26  1  0  0  0  0
 12 27  1  0  0  0  0
 13 20  1  0  0  0  0
 13 25  2  0  0  0  0
 14 27  2  0  0  0  0
 14 28  1  0  0  0  0
 15 29  1  0  0  0  0
 16 29  1  0  0  0  0
 16 32  2  0  0  0  0
 16 33  1  0  0  0  0
 17 19  2  0  0  0  0
 17 38  1  0  0  0  0
 18 20  2  0  0  0  0
 18 39  1  0  0  0  0
 19 51  1  0  0  0  0
 20 40  1  0  0  0  0
 21 22  1  0  0  0  0
 21 23  2  0  0  0  0
 21 62  1  0  0  0  0
 22 30  2  0  0  0  0
 22 54  1  0  0  0  0
 23 31  1  0  0  0  0
 23 55  1  0  0  0  0
 24 83  1  0  0  0  0
 25 84  1  0  0  0  0
 26 28  2  0  0  0  0
 26 83  1  0  0  0  0
 27 85  1  0  0  0  0
 28 86  1  0  0  0  0
 29 66  2  0  0  0  0
 30 56  1  0  0  0  0
 30 67  1  0  0  0  0
 31 67  2  0  0  0  0
 31 69  1  0  0  0  0
 32 68  1  0  0  0  0
 32 73  1  0  0  0  0
 33 74  1  0  0  0  0
 33 78  2  0  0  0  0
 34 52  1  0  0  0  0
 34 75  1  0  0  0  0
 34 79  2  0  0  0  0
 35 63  1  0  0  0  0
 35 70  1  0  0  0  0
 35 80  2  0  0  0  0
 36 64  1  0  0  0  0
 36 76  1  0  0  0  0
 36 81  2  0  0  0  0
 37 71  1  0  0  0  0
 37 72  1  0  0  0  0
 37 82  2  0  0  0  0
 38 41  1  0  0  0  0
 39 52  1  0  0  0  0
 40 70  1  0  0  0  0
 41 43  1  0  0  0  0
 42 44  1  0  0  0  0
 42 45  1  0  0  0  0
 43 51  1  0  0  0  0
 44 53  1  0  0  0  0
 45 71  1  0  0  0  0
 46 48  1  0  0  0  0
 46 69  1  0  0  0  0
 47 49  1  0  0  0  0
 47 69  1  0  0  0  0
 48 72  1  0  0  0  0
 49 72  1  0  0  0  0
 50 53  1  0  0  0  0
 50 71  1  0  0  0  0
 51 75  1  0  0  0  0
 52 70  1  0  0  0  0
 53 68  1  0  0  0  0
 57 64  1  0  0  0  0
 58 65  1  0  0  0  0
 59 65  1  0  0  0  0
 60 65  1  0  0  0  0
 61 77  1  0  0  0  0
 62 84  1  0  0  0  0
 63 65  1  0  0  0  0
 63 76  1  0  0  0  0
 64 77  1  0  0  0  0
 66 68  1  0  0  0  0
M  CHG  1  77   1
M  ISO  4  37 100  62 101  72 100  84 101
M  END
> <Batch ID>
0170

> <Smiles>
CNC(C)C(=O)NC(C(=O)N1Cc2cc([101O:1][101CH2:1]c3c(C)c(C)nc(N4CC[100N:0]([100C:0](=O)N5CCCC(n6nc(-c7ccc(Oc8ccc(F)cc8F)cc7)c(C(N)=O)c6N)C5)CC4)c3C)ccc2CC1C(=O)NC1CCCc2ccccc21)C(C)(C)C

> <Shape>
0.297

> <Color>
0.106

> <Negative vol penalty>
0.000

$$$$

  -OEChem-04052322353D

 85 95  0     1  0  0  0  0  0999 V2000
  -36.9421  -27.4477   21.8572 C   0  0  0  0  0  0  0  0  0  0  0  0
  -36.3470  -26.2036   21.6740 C   0  0  0  0  0  0  0  0  0  0  0  0
  -23.2376   -9.8147   19.8903 C   0  0  0  0  0  0  0  0  0  0  0  0
  -23.6791   -9.9102   22.2637 C   0  0  0  0  0  0  0  0  0  0  0  0
  -36.1984  -28.6105   21.6608 C   0  0  0  0  0  0  0  0  0  0  0  0
  -35.0075  -26.1217   21.2953 C   0  0  0  0  0  0  0  0  0  0  0  0
  -32.4642  -21.9125   17.6456 C   0  0  0  0  0  0  0  0  0  0  0  0
  -30.0798  -16.6088   21.0202 C   0  0  0  0  0  0  0  0  0  0  0  0
  -22.4791   -8.6593   20.0778 C   0  0  0  0  0  0  0  0  0  0  0  0
  -22.9206   -8.7547   22.4513 C   0  0  0  0  0  0  0  0  0  0  0  0
  -31.7441  -20.7494   17.9148 C   0  0  0  0  0  0  0  0  0  0  0  0
  -20.8021   -6.0336   23.6027 C   0  0  0  0  0  0  0  0  0  0  0  0
  -19.8944   -6.0176   24.6617 C   0  0  0  0  0  0  0  0  0  0  0  0
  -30.5416  -15.4066   21.5444 C   0  0  0  0  0  0  0  0  0  0  0  0
  -29.6816  -21.9701   17.6403 C   0  0  0  0  0  0  0  0  0  0  0  0
  -18.7399   -7.9099   23.7006 C   0  0  0  0  0  0  0  0  0  0  0  0
  -23.8377  -10.4402   20.9833 C   0  0  0  0  0  0  0  0  0  0  0  0
  -24.1655  -12.9649   20.8216 C   0  0  0  0  0  0  0  0  0  0  0  0
  -34.8518  -28.5430   21.2702 C   0  0  0  0  0  0  0  0  0  0  0  0
  -31.7974  -23.1176   17.3820 C   0  0  0  0  0  0  0  0  0  0  0  0
  -34.2447  -27.2847   21.0949 C   0  0  0  0  0  0  0  0  0  0  0  0
  -29.0146  -17.2627   21.6292 C   0  0  0  0  0  0  0  0  0  0  0  0
  -30.3956  -23.1465   17.3655 C   0  0  0  0  0  0  0  0  0  0  0  0
  -22.3206   -8.1293   21.3583 C   0  0  0  0  0  0  0  0  0  0  0  0
  -30.3526  -20.7787   17.9150 C   0  0  0  0  0  0  0  0  0  0  0  0
  -20.6788   -6.9878   22.5928 C   0  0  0  0  0  0  0  0  0  0  0  0
  -18.8633   -6.9557   24.7106 C   0  0  0  0  0  0  0  0  0  0  0  0
  -19.6477   -7.9259   22.6417 C   0  0  0  0  0  0  0  0  0  0  0  0
  -24.6218  -11.6335   20.7901 C   0  0  0  0  0  0  0  0  0  0  0  0
  -29.9089  -14.9043   22.6701 C   0  0  0  0  0  0  0  0  0  0  0  0
  -28.4501  -16.6773   22.7510 C   0  0  0  0  0  0  0  0  0  0  0  0
  -25.2887  -13.7185   20.5832 C   0  0  0  0  0  0  0  0  0  0  0  0
  -22.8444  -13.4748   21.0464 C   0  0  0  0  0  0  0  0  0  0  0  0
  -31.6822  -25.9699   18.7802 C   0  0  0  0  0  0  0  0  0  0  0  0
  -29.9263  -26.7478   16.1660 C   0  0  0  0  0  0  0  0  0  0  0  0
  -27.9185  -25.7074   13.6100 C   0  0  0  0  0  0  0  0  0  0  0  0
  -31.1910  -12.1013   21.3249 C   0  0  0  0  0  0  0  0  0  0  0  0
  -34.0754  -29.8267   21.1158 C   0  0  0  0  0  0  0  0  0  0  0  0
  -32.5886  -24.3575   17.0671 C   0  0  0  0  0  0  0  0  0  0  0  0
  -29.6319  -24.4102   17.0685 C   0  0  0  0  0  0  0  0  0  0  0  0
  -32.7651  -29.6579   20.3510 C   0  0  0  0  0  0  0  0  0  0  0  0
  -29.5020  -13.5801   18.3770 C   0  0  0  0  0  0  0  0  0  0  0  0
  -31.9979  -28.4449   20.8675 C   0  0  0  0  0  0  0  0  0  0  0  0
  -28.0312  -13.2704   18.6383 C   0  0  0  0  0  0  0  0  0  0  0  0
  -31.5272  -13.6249   24.3472 C   0  0  0  0  0  0  0  0  0  0  0  0
  -27.0507  -18.6810   20.7256 C   0  0  0  0  0  0  0  0  0  0  0  0
  -30.4181  -12.5568   19.0386 C   0  0  0  0  0  0  0  0  0  0  0  0
  -32.1388  -12.4073   23.6640 C   0  0  0  0  0  0  0  0  0  0  0  0
  -28.7186  -12.1118   20.7783 C   0  0  0  0  0  0  0  0  0  0  0  0
  -28.5167  -18.5451   21.0757 C   0  0  2  0  0  0  0  0  0  0  0  0
  -32.8010  -27.1550   20.6602 C   0  0  1  0  0  0  0  0  0  0  0  0
  -30.3363  -13.5445   23.3657 C   0  0  2  0  0  0  0  0  0  0  0  0
  -31.8084  -25.6441   17.3188 C   0  0  1  0  0  0  0  0  0  0  0  0
  -28.0710  -18.6022   19.6293 C   0  0  2  0  0  0  0  0  0  0  0  0
  -27.7674  -13.1412   20.1461 C   0  0  2  0  0  0  0  0  0  0  0  0
  -27.3028  -17.3331   23.4473 C   0  0  0  0  0  0  0  0  0  0  0  0
  -26.6049  -26.5782   11.6572 C   0  0  0  0  0  0  0  0  0  0  0  0
  -27.7660  -27.7544   18.0712 C   0  0  0  0  0  0  0  0  0  0  0  0
  -26.1554  -27.7147   16.1548 C   0  0  0  0  0  0  0  0  0  0  0  0
  -28.1531  -29.2064   16.0722 C   0  0  0  0  0  0  0  0  0  0  0  0
  -29.5207  -24.1341   11.6821 C   0  0  0  0  0  0  0  0  0  0  0  0
  -28.3727  -19.8028   18.8002 C   0  0  0  0  0  0  0  0  0  1  0  0
  -28.4588  -26.7101   15.8139 C   0  0  1  0  0  0  0  0  0  0  0  0
  -27.9386  -26.0158   12.1238 C   0  0  2  0  0  0  0  0  0  0  0  0
  -27.6474  -27.8229   16.5356 C   0  0  0  0  0  0  0  0  0  0  0  0
  -25.9327  -11.5432   20.5504 N   0  0  0  0  0  0  0  0  0  0  0  0
  -28.8714  -15.5108   23.2891 N   0  0  0  0  0  0  0  0  0  0  0  0
  -26.3097  -12.8274   20.4291 N   0  0  0  0  0  0  0  0  0  0  0  0
  -30.4505  -25.5977   16.7729 N   0  0  0  0  0  0  0  0  0  0  0  0
  -30.1255  -12.3961   20.4654 N   0  0  0  0  0  0  0  0  0  0  0  0
  -31.1369  -12.5689   22.6177 N   0  0  0  0  0  0  0  0  0  0  0  0
  -25.4928  -15.0499   20.4925 N   0  0  0  0  0  0  0  0  0  0  0  0
  -21.8059  -12.5619   21.2755 N   0  0  0  0  0  0  0  0  0  0  0  0
  -32.7240  -26.7281   19.2796 N   0  0  0  0  0  0  0  0  0  0  0  0
  -28.3868  -26.7669   14.3579 N   0  0  0  0  0  0  0  0  0  0  0  0
  -28.2268  -24.7801   11.3422 N   0  3  0  0  0  0  0  0  0  0  0  0
  -22.5894  -14.7028   21.0278 O   0  0  0  0  0  0  0  0  0  0  0  0
  -30.7108  -25.5647   19.4078 O   0  0  0  0  0  0  0  0  0  0  0  0
  -30.5850  -27.7577   15.9055 O   0  0  0  0  0  0  0  0  0  0  0  0
  -27.5232  -24.6352   14.0625 O   0  0  0  0  0  0  0  0  0  0  0  0
  -32.1784  -11.4605   20.9398 O   0  0  0  0  0  0  0  0  0  0  0  0
  -21.5803   -7.0019   21.5417 O   0  0  0  0  0  0  0  0  0  0  0  0
  -29.6473  -19.6451   18.1781 O   0  0  0  0  0  0  0  0  0  1  0  0
  -17.9907   -6.9392   25.7268 F   0  0  0  0  0  0  0  0  0  0  0  0
  -19.5234   -8.8443   21.6737 F   0  0  0  0  0  0  0  0  0  0  0  0
  1  2  1  0  0  0  0
  1  5  2  0  0  0  0
  2  6  2  0  0  0  0
  3  9  2  0  0  0  0
  3 17  1  0  0  0  0
  4 10  1  0  0  0  0
  4 17  2  0  0  0  0
  5 19  1  0  0  0  0
  6 21  1  0  0  0  0
  7 11  2  0  0  0  0
  7 20  1  0  0  0  0
  8 14  2  0  0  0  0
  8 22  1  0  0  0  0
  9 24  1  0  0  0  0
 10 24  2  0  0  0  0
 11 25  1  0  0  0  0
 12 13  2  0  0  0  0
 12 26  1  0  0  0  0
 13 27  1  0  0  0  0
 14 30  1  0  0  0  0
 15 23  1  0  0  0  0
 15 25  2  0  0  0  0
 16 27  2  0  0  0  0
 16 28  1  0  0  0  0
 17 29  1  0  0  0  0
 18 29  1  0  0  0  0
 18 32  2  0  0  0  0
 18 33  1  0  0  0  0
 19 21  2  0  0  0  0
 19 38  1  0  0  0  0
 20 23  2  0  0  0  0
 20 39  1  0  0  0  0
 21 51  1  0  0  0  0
 22 31  2  0  0  0  0
 22 50  1  0  0  0  0
 23 40  1  0  0  0  0
 24 82  1  0  0  0  0
 25 83  1  0  0  0  0
 26 28  2  0  0  0  0
 26 82  1  0  0  0  0
 27 84  1  0  0  0  0
 28 85  1  0  0  0  0
 29 66  2  0  0  0  0
 30 52  1  0  0  0  0
 30 67  2  0  0  0  0
 31 56  1  0  0  0  0
 31 67  1  0  0  0  0
 32 68  1  0  0  0  0
 32 72  1  0  0  0  0
 33 73  1  0  0  0  0
 33 77  2  0  0  0  0
 34 53  1  0  0  0  0
 34 74  1  0  0  0  0
 34 78  2  0  0  0  0
 35 63  1  0  0  0  0
 35 69  1  0  0  0  0
 35 79  2  0  0  0  0
 36 64  1  0  0  0  0
 36 75  1  0  0  0  0
 36 80  2  0  0  0  0
 37 70  1  0  0  0  0
 37 71  1  0  0  0  0
 37 81  2  0  0  0  0
 38 41  1  0  0  0  0
 39 53  1  0  0  0  0
 40 69  1  0  0  0  0
 41 43  1  0  0  0  0
 42 44  1  0  0  0  0
 42 47  1  0  0  0  0
 43 51  1  0  0  0  0
 44 55  1  0  0  0  0
 45 48  1  0  0  0  0
 45 52  1  0  0  0  0
 46 50  1  0  0  0  0
 46 54  1  0  0  0  0
 47 70  1  0  0  0  0
 48 71  1  0  0  0  0
 49 55  1  0  0  0  0
 49 70  1  0  0  0  0
 50 54  1  0  0  0  0
 51 74  1  0  0  0  0
 52 71  1  0  0  0  0
 53 69  1  0  0  0  0
 54 62  1  0  0  0  0
 55 68  1  0  0  0  0
 57 64  1  0  0  0  0
 58 65  1  0  0  0  0
 59 65  1  0  0  0  0
 60 65  1  0  0  0  0
 61 76  1  0  0  0  0
 62 83  1  0  0  0  0
 63 65  1  0  0  0  0
 63 75  1  0  0  0  0
 64 76  1  0  0  0  0
 66 68  1  0  0  0  0
M  CHG  1  76   1
M  ISO  4  37 100  62 101  71 100  83 101
M  END
> <Batch ID>
0170

> <Smiles>
CNC(C)C(=O)NC(C(=O)N1Cc2cc([101O:1][101CH2:1]C3CC3c3ccc(C4CC[100N:0]4[100C:0](=O)N4CCCC(n5nc(-c6ccc(Oc7ccc(F)cc7F)cc6)c(C(N)=O)c5N)C4)nc3C)ccc2CC1C(=O)NC1CCCc2ccccc21)C(C)(C)C

> <Shape>
0.218

> <Color>
0.200

> <Negative vol penalty>
0.000

$$$$

  -OEChem-04052322353D

 89 99  0     1  0  0  0  0  0999 V2000
  -28.1185  -37.9552   22.0001 C   0  0  0  0  0  0  0  0  0  0  0  0
  -28.5789  -36.7171   21.5634 C   0  0  0  0  0  0  0  0  0  0  0  0
  -25.9943   -8.1700   21.7531 C   0  0  0  0  0  0  0  0  0  0  0  0
  -24.0951   -7.6836   20.3412 C   0  0  0  0  0  0  0  0  0  0  0  0
  -27.1341  -38.0238   22.9850 C   0  0  0  0  0  0  0  0  0  0  0  0
  -28.0558  -35.5468   22.1123 C   0  0  0  0  0  0  0  0  0  0  0  0
  -27.1229  -30.2249   19.2291 C   0  0  0  0  0  0  0  0  0  0  0  0
  -25.6800   -7.0722   22.5541 C   0  0  0  0  0  0  0  0  0  0  0  0
  -23.7808   -6.5858   21.1422 C   0  0  0  0  0  0  0  0  0  0  0  0
  -27.8662  -29.0468   19.1709 C   0  0  0  0  0  0  0  0  0  0  0  0
  -22.2808   -6.0220   24.1193 C   0  0  0  0  0  0  0  0  0  0  0  0
  -20.9458   -5.8464   24.4832 C   0  0  0  0  0  0  0  0  0  0  0  0
  -26.5177  -28.1157   20.9411 C   0  0  0  0  0  0  0  0  0  0  0  0
  -20.9307   -3.6927   23.3883 C   0  0  0  0  0  0  0  0  0  0  0  0
  -25.2018   -8.4758   20.6466 C   0  0  0  0  0  0  0  0  0  0  0  0
  -26.3628   -9.6253   18.6874 C   0  0  0  0  0  0  0  0  0  0  0  0
  -26.5918  -36.8536   23.5394 C   0  0  0  0  0  0  0  0  0  0  0  0
  -26.0767  -30.3615   20.1528 C   0  0  0  0  0  0  0  0  0  0  0  0
  -27.0641  -35.5999   23.1065 C   0  0  0  0  0  0  0  0  0  0  0  0
  -25.7610  -29.2956   21.0073 C   0  0  0  0  0  0  0  0  0  0  0  0
  -28.0802  -22.1833   19.2761 C   0  0  0  0  0  0  0  0  0  0  0  0
  -24.5733   -6.2801   22.2486 C   0  0  0  0  0  0  0  0  0  0  0  0
  -27.5655  -27.9930   20.0289 C   0  0  0  0  0  0  0  0  0  0  0  0
  -22.9408   -5.0331   23.3898 C   0  0  0  0  0  0  0  0  0  0  0  0
  -20.2707   -4.6817   24.1178 C   0  0  0  0  0  0  0  0  0  0  0  0
  -22.2657   -3.8684   23.0243 C   0  0  0  0  0  0  0  0  0  0  0  0
  -25.5256   -9.6100   19.8191 C   0  0  0  0  0  0  0  0  0  0  0  0
  -28.3153  -20.8744   19.6445 C   0  0  0  0  0  0  0  0  0  0  0  0
  -29.1966  -22.9905   19.1957 C   0  0  0  0  0  0  0  0  0  0  0  0
  -26.3427  -10.9314   18.2631 C   0  0  0  0  0  0  0  0  0  0  0  0
  -30.5487  -21.2667   19.8017 C   0  0  0  0  0  0  0  0  0  0  0  0
  -27.0932   -8.5545   18.0745 C   0  0  0  0  0  0  0  0  0  0  0  0
  -25.4887  -32.2953   22.6061 C   0  0  0  0  0  0  0  0  0  0  0  0
  -22.6215  -30.7782   22.6116 C   0  0  0  0  0  0  0  0  0  0  0  0
  -20.8094  -28.0052   21.7909 C   0  0  0  0  0  0  0  0  0  0  0  0
  -26.6653  -16.2508   19.2286 C   0  0  0  0  0  0  0  0  0  0  0  0
  -25.5633  -36.9787   24.6353 C   0  0  0  0  0  0  0  0  0  0  0  0
  -25.2673  -31.6289   20.1847 C   0  0  0  0  0  0  0  0  0  0  0  0
  -24.6346  -29.3844   22.0031 C   0  0  0  0  0  0  0  0  0  0  0  0
  -24.7932  -35.6871   24.8982 C   0  0  0  0  0  0  0  0  0  0  0  0
  -23.4082  -14.8035   19.6161 C   0  0  0  0  0  0  0  0  0  0  0  0
  -26.1900  -23.8816   19.7418 C   0  0  0  0  0  0  0  0  0  0  0  0
  -25.6322  -22.5232   20.0311 C   0  0  0  0  0  0  0  0  0  0  0  0
  -25.7504  -34.5023   24.9815 C   0  0  0  0  0  0  0  0  0  0  0  0
  -23.7436  -13.3144   19.6430 C   0  0  0  0  0  0  0  0  0  0  0  0
  -27.0092  -19.2958   21.1699 C   0  0  0  0  0  0  0  0  0  0  0  0
  -24.4600  -15.6487   20.3376 C   0  0  0  0  0  0  0  0  0  0  0  0
  -26.1241  -18.0860   20.9071 C   0  0  0  0  0  0  0  0  0  0  0  0
  -26.1766  -13.9178   19.8915 C   0  0  0  0  0  0  0  0  0  0  0  0
  -26.7064  -22.6843   18.9871 C   0  0  0  0  0  0  0  0  0  0  0  0
  -26.5036  -34.3077   23.6600 C   0  0  1  0  0  0  0  0  0  0  0  0
  -27.1715  -19.8959   19.7679 C   0  0  2  0  0  0  0  0  0  0  0  0
  -24.5555  -31.8499   21.5159 C   0  0  1  0  0  0  0  0  0  0  0  0
  -25.1646  -13.0667   19.1111 C   0  0  1  0  0  0  0  0  0  0  0  0
  -27.2896  -18.6443   18.8703 C   0  0  2  0  0  0  0  0  0  0  0  0
  -31.9194  -20.7575   20.0939 C   0  0  0  0  0  0  0  0  0  0  0  0
  -26.7132  -18.8874   17.4778 C   0  0  0  0  0  0  0  0  0  0  0  0
  -18.4982  -27.0419   21.9574 C   0  0  0  0  0  0  0  0  0  0  0  0
  -23.0916  -30.1668   25.5637 C   0  0  0  0  0  0  0  0  0  0  0  0
  -21.2796  -28.4448   25.4239 C   0  0  0  0  0  0  0  0  0  0  0  0
  -20.7519  -30.8455   24.9987 C   0  0  0  0  0  0  0  0  0  0  0  0
  -20.5381  -27.8462   18.8481 C   0  0  0  0  0  0  0  0  0  0  0  0
  -29.9940  -25.3528   19.1001 C   0  0  0  0  0  0  0  0  0  0  0  0
  -29.3607  -26.7321   19.0261 C   0  0  0  0  0  0  0  0  0  1  0  0
  -22.0674  -29.5419   23.2776 C   0  0  1  0  0  0  0  0  0  0  0  0
  -19.4650  -27.8475   21.1036 C   0  0  2  0  0  0  0  0  0  0  0  0
  -21.8202  -29.7485   24.7986 C   0  0  0  0  0  0  0  0  0  0  0  0
  -25.0113  -10.8111   20.0963 N   0  0  0  0  0  0  0  0  0  0  0  0
  -29.5412  -20.3805   19.9155 N   0  0  0  0  0  0  0  0  0  0  0  0
  -30.4504  -22.5637   19.4527 N   0  0  0  0  0  0  0  0  0  0  0  0
  -25.5268  -11.5934   19.1327 N   0  0  0  0  0  0  0  0  0  0  0  0
  -23.8764  -30.6464   22.0004 N   0  0  0  0  0  0  0  0  0  0  0  0
  -25.8134  -15.3373   19.8628 N   0  0  0  0  0  0  0  0  0  0  0  0
  -26.5593  -17.5948   19.5981 N   0  0  0  0  0  0  0  0  0  0  0  0
  -26.9436  -11.5668   17.2347 N   0  0  0  0  0  0  0  0  0  0  0  0
  -27.0023   -7.2748   18.6389 N   0  0  0  0  0  0  0  0  0  0  0  0
  -29.0221  -24.3459   18.8223 N   0  0  0  0  0  0  0  0  0  0  0  0
  -25.6515  -33.6653   22.6824 N   0  0  0  0  0  0  0  0  0  0  0  0
  -20.8748  -29.1716   22.5233 N   0  0  0  0  0  0  0  0  0  0  0  0
  -19.6301  -27.1510   19.7964 N   0  3  0  0  0  0  0  0  0  0  0  0
  -27.8183   -8.7307   17.0662 O   0  0  0  0  0  0  0  0  0  0  0  0
  -26.0204  -31.4580   23.3257 O   0  0  0  0  0  0  0  0  0  0  0  0
  -21.9619  -31.8205   22.6267 O   0  0  0  0  0  0  0  0  0  0  0  0
  -21.7099  -27.1748   21.6912 O   0  0  0  0  0  0  0  0  0  0  0  0
  -27.5011  -15.8801   18.3942 O   0  0  0  0  0  0  0  0  0  0  0  0
  -24.2664   -5.2086   23.0299 O   0  0  0  0  0  0  0  0  0  0  0  0
  -28.3040  -26.8197   19.9736 O   0  0  0  0  0  0  0  0  0  1  0  0
  -18.9892   -4.5125   24.4687 F   0  0  0  0  0  0  0  0  0  0  0  0
  -22.8948   -2.9143   22.3245 F   0  0  0  0  0  0  0  0  0  0  0  0
  1  2  1  0  0  0  0
  1  5  2  0  0  0  0
  2  6  2  0  0  0  0
  3  8  2  0  0  0  0
  3 15  1  0  0  0  0
  4  9  1  0  0  0  0
  4 15  2  0  0  0  0
  5 17  1  0  0  0  0
  6 19  1  0  0  0  0
  7 10  2  0  0  0  0
  7 18  1  0  0  0  0
  8 22  1  0  0  0  0
  9 22  2  0  0  0  0
 10 23  1  0  0  0  0
 11 12  2  0  0  0  0
 11 24  1  0  0  0  0
 12 25  1  0  0  0  0
 13 20  1  0  0  0  0
 13 23  2  0  0  0  0
 14 25  2  0  0  0  0
 14 26  1  0  0  0  0
 15 27  1  0  0  0  0
 16 27  1  0  0  0  0
 16 30  2  0  0  0  0
 16 32  1  0  0  0  0
 17 19  2  0  0  0  0
 17 37  1  0  0  0  0
 18 20  2  0  0  0  0
 18 38  1  0  0  0  0
 19 51  1  0  0  0  0
 20 39  1  0  0  0  0
 21 28  1  0  0  0  0
 21 29  2  0  0  0  0
 21 50  1  0  0  0  0
 22 86  1  0  0  0  0
 23 87  1  0  0  0  0
 24 26  2  0  0  0  0
 24 86  1  0  0  0  0
 25 88  1  0  0  0  0
 26 89  1  0  0  0  0
 27 68  2  0  0  0  0
 28 52  1  0  0  0  0
 28 69  2  0  0  0  0
 29 70  1  0  0  0  0
 29 77  1  0  0  0  0
 30 71  1  0  0  0  0
 30 75  1  0  0  0  0
 31 56  1  0  0  0  0
 31 69  1  0  0  0  0
 31 70  2  0  0  0  0
 32 76  1  0  0  0  0
 32 81  2  0  0  0  0
 33 53  1  0  0  0  0
 33 78  1  0  0  0  0
 33 82  2  0  0  0  0
 34 65  1  0  0  0  0
 34 72  1  0  0  0  0
 34 83  2  0  0  0  0
 35 66  1  0  0  0  0
 35 79  1  0  0  0  0
 35 84  2  0  0  0  0
 36 73  1  0  0  0  0
 36 74  1  0  0  0  0
 36 85  2  0  0  0  0
 37 40  1  0  0  0  0
 38 53  1  0  0  0  0
 39 72  1  0  0  0  0
 40 44  1  0  0  0  0
 41 45  1  0  0  0  0
 41 47  1  0  0  0  0
 42 43  1  0  0  0  0
 42 50  1  0  0  0  0
 43 50  1  0  0  0  0
 44 51  1  0  0  0  0
 45 54  1  0  0  0  0
 46 48  1  0  0  0  0
 46 52  1  0  0  0  0
 47 73  1  0  0  0  0
 48 74  1  0  0  0  0
 49 54  1  0  0  0  0
 49 73  1  0  0  0  0
 51 78  1  0  0  0  0
 52 55  1  0  0  0  0
 53 72  1  0  0  0  0
 54 71  1  0  0  0  0
 55 57  1  0  0  0  0
 55 74  1  0  0  0  0
 58 66  1  0  0  0  0
 59 67  1  0  0  0  0
 60 67  1  0  0  0  0
 61 67  1  0  0  0  0
 62 80  1  0  0  0  0
 63 64  1  0  0  0  0
 63 77  1  0  0  0  0
 64 87  1  0  0  0  0
 65 67  1  0  0  0  0
 65 79  1  0  0  0  0
 66 80  1  0  0  0  0
 68 71  1  0  0  0  0
M  CHG  1  80   1
M  ISO  4  36 100  64 101  74 100  87 101
M  END
> <Batch ID>
0170

> <Smiles>
CNC(C)C(=O)NC(C(=O)N1Cc2cc([101O:1][101CH2:1]CNc3nc(C)nc(C4CC[100N:0]([100C:0](=O)N5CCCC(n6nc(-c7ccc(Oc8ccc(F)cc8F)cc7)c(C(N)=O)c6N)C5)C4C)c3C3CC3)ccc2CC1C(=O)NC1CCCc2ccccc21)C(C)(C)C

> <Shape>
0.290

> <Color>
0.094

> <Negative vol penalty>
0.000

$$$$

  -OEChem-04052322353D

 86 96  0     1  0  0  0  0  0999 V2000
  -24.2330  -29.9218   14.5409 C   0  0  0  0  0  0  0  0  0  0  0  0
  -24.9097  -29.0871   15.4246 C   0  0  0  0  0  0  0  0  0  0  0  0
  -23.2746  -10.5126   21.5463 C   0  0  0  0  0  0  0  0  0  0  0  0
  -24.7788   -8.6238   21.4622 C   0  0  0  0  0  0  0  0  0  0  0  0
  -23.9481  -31.2370   14.9057 C   0  0  0  0  0  0  0  0  0  0  0  0
  -25.3029  -29.5675   16.6732 C   0  0  0  0  0  0  0  0  0  0  0  0
  -24.3056  -26.3021   20.4132 C   0  0  0  0  0  0  0  0  0  0  0  0
  -22.1863   -9.6428   21.6150 C   0  0  0  0  0  0  0  0  0  0  0  0
  -23.6905   -7.7540   21.5310 C   0  0  0  0  0  0  0  0  0  0  0  0
  -25.1738  -25.2217   20.5635 C   0  0  0  0  0  0  0  0  0  0  0  0
  -21.6058   -6.5583   23.9069 C   0  0  0  0  0  0  0  0  0  0  0  0
  -21.6977   -5.4755   24.7814 C   0  0  0  0  0  0  0  0  0  0  0  0
  -26.2871  -26.3749   22.3662 C   0  0  0  0  0  0  0  0  0  0  0  0
  -21.4235   -3.9533   22.9254 C   0  0  0  0  0  0  0  0  0  0  0  0
  -29.9705  -21.5857   17.4032 C   0  0  0  0  0  0  0  0  0  0  0  0
  -24.5709  -10.0030   21.4699 C   0  0  0  0  0  0  0  0  0  0  0  0
  -26.4268  -11.4351   22.4762 C   0  0  0  0  0  0  0  0  0  0  0  0
  -24.3295  -31.7308   16.1632 C   0  0  0  0  0  0  0  0  0  0  0  0
  -24.4287  -27.4335   21.2324 C   0  0  0  0  0  0  0  0  0  0  0  0
  -25.0240  -30.8909   17.0546 C   0  0  0  0  0  0  0  0  0  0  0  0
  -25.4176  -27.4673   22.2260 C   0  0  0  0  0  0  0  0  0  0  0  0
  -29.1677  -20.5193   17.7389 C   0  0  0  0  0  0  0  0  0  0  0  0
  -28.5846  -20.8092   18.9964 C   0  0  0  0  0  0  0  0  0  0  0  0
  -22.3942   -8.2636   21.6074 C   0  0  0  0  0  0  0  0  0  0  0  0
  -26.1666  -25.2592   21.5382 C   0  0  0  0  0  0  0  0  0  0  0  0
  -21.4227   -6.3386   22.5416 C   0  0  0  0  0  0  0  0  0  0  0  0
  -21.6066   -4.1730   24.2906 C   0  0  0  0  0  0  0  0  0  0  0  0
  -21.3316   -5.0361   22.0509 C   0  0  0  0  0  0  0  0  0  0  0  0
  -25.6955  -10.9009   21.3983 C   0  0  0  0  0  0  0  0  0  0  0  0
  -29.0477  -22.0482   19.4071 C   0  0  0  0  0  0  0  0  0  0  0  0
  -27.3841  -12.2227   21.8848 C   0  0  0  0  0  0  0  0  0  0  0  0
  -26.2560  -11.2369   23.8859 C   0  0  0  0  0  0  0  0  0  0  0  0
  -25.0519  -30.5097   20.7298 C   0  0  0  0  0  0  0  0  0  0  0  0
  -24.4131  -30.7560   23.9005 C   0  0  0  0  0  0  0  0  0  0  0  0
  -24.2581  -29.2346   26.9515 C   0  0  0  0  0  0  0  0  0  0  0  0
  -28.6541  -16.1335   18.2180 C   0  0  0  0  0  0  0  0  0  0  0  0
  -24.0412  -33.1737   16.4943 C   0  0  0  0  0  0  0  0  0  0  0  0
  -23.4673  -28.5796   21.0753 C   0  0  0  0  0  0  0  0  0  0  0  0
  -25.5788  -28.6501   23.1444 C   0  0  0  0  0  0  0  0  0  0  0  0
  -24.1617  -33.4930   17.9822 C   0  0  0  0  0  0  0  0  0  0  0  0
  -30.0427  -24.7377   19.4729 C   0  0  0  0  0  0  0  0  0  0  0  0
  -28.8158  -12.6311   17.0691 C   0  0  0  0  0  0  0  0  0  0  0  0
  -25.4437  -32.8962   18.5542 C   0  0  0  0  0  0  0  0  0  0  0  0
  -28.0257  -11.9254   18.1671 C   0  0  0  0  0  0  0  0  0  0  0  0
  -29.7634  -24.0253   20.7965 C   0  0  0  0  0  0  0  0  0  0  0  0
  -30.0364  -18.8444   15.9196 C   0  0  0  0  0  0  0  0  0  0  0  0
  -30.6149  -23.7574   18.4553 C   0  0  0  0  0  0  0  0  0  0  0  0
  -28.2807  -14.0348   16.7892 C   0  0  0  0  0  0  0  0  0  0  0  0
  -27.4095  -14.1872   19.1049 C   0  0  0  0  0  0  0  0  0  0  0  0
  -28.9598  -19.2645   16.9034 C   0  0  1  0  0  0  0  0  0  0  0  0
  -25.4451  -31.3679   18.4277 C   0  0  1  0  0  0  0  0  0  0  0  0
  -24.0115  -29.8954   21.6229 C   0  0  1  0  0  0  0  0  0  0  0  0
  -27.9638  -12.7926   19.4338 C   0  0  1  0  0  0  0  0  0  0  0  0
  -29.8319  -18.0439   17.1717 C   0  0  1  0  0  0  0  0  0  0  0  0
  -28.7386  -22.8697   20.6411 C   0  0  2  0  0  0  0  0  0  0  0  0
  -27.6634  -19.9118   19.7261 C   0  0  0  0  0  0  0  0  0  0  0  0
  -28.8093  -21.9915   21.9049 C   0  0  0  0  0  0  0  0  0  0  0  0
  -23.7403  -29.7024   29.3619 C   0  0  0  0  0  0  0  0  0  0  0  0
  -27.1151  -32.1394   24.2099 C   0  0  0  0  0  0  0  0  0  0  0  0
  -26.9669  -31.7245   26.6745 C   0  0  0  0  0  0  0  0  0  0  0  0
  -25.2631  -33.1564   25.5479 C   0  0  0  0  0  0  0  0  0  0  0  0
  -22.0226  -27.2952   26.9680 C   0  0  0  0  0  0  0  0  0  0  0  0
  -27.3113  -23.4406   20.5193 C   0  0  0  0  0  0  0  0  0  1  0  0
  -25.2297  -30.6574   25.1664 C   0  0  1  0  0  0  0  0  0  0  0  0
  -23.1847  -29.2371   28.0249 C   0  0  2  0  0  0  0  0  0  0  0  0
  -26.1421  -31.8978   25.3813 C   0  0  0  0  0  0  0  0  0  0  0  0
  -26.1492  -11.3144   20.2121 N   0  0  0  0  0  0  0  0  0  0  0  0
  -29.8851  -22.5045   18.4140 N   0  0  0  0  0  0  0  0  0  0  0  0
  -27.1759  -12.1168   20.5411 N   0  0  0  0  0  0  0  0  0  0  0  0
  -24.6185  -29.7485   22.9474 N   0  0  0  0  0  0  0  0  0  0  0  0
  -28.1690  -14.8275   18.0238 N   0  0  0  0  0  0  0  0  0  0  0  0
  -28.3751  -12.9886   22.3883 N   0  0  0  0  0  0  0  0  0  0  0  0
  -25.2232  -10.3960   24.3221 N   0  0  0  0  0  0  0  0  0  0  0  0
  -24.6077  -30.7756   19.4486 N   0  0  0  0  0  0  0  0  0  0  0  0
  -24.2794  -30.4202   26.2477 N   0  0  0  0  0  0  0  0  0  0  0  0
  -29.2901  -16.7121   17.1255 N   0  0  0  0  0  0  0  0  0  0  0  0
  -22.6240  -27.8675   28.2000 N   0  3  0  0  0  0  0  0  0  0  0  0
  -26.9871  -11.8023   24.7341 O   0  0  0  0  0  0  0  0  0  0  0  0
  -26.1743  -30.7278   21.1708 O   0  0  0  0  0  0  0  0  0  0  0  0
  -23.6170  -31.6886   23.7655 O   0  0  0  0  0  0  0  0  0  0  0  0
  -25.0056  -28.2781   26.7591 O   0  0  0  0  0  0  0  0  0  0  0  0
  -28.5258  -16.7439   19.2851 O   0  0  0  0  0  0  0  0  0  0  0  0
  -21.3325   -7.4146   21.6746 O   0  0  0  0  0  0  0  0  0  0  0  0
  -27.0158  -24.2062   21.6867 O   0  0  0  0  0  0  0  0  0  1  0  0
  -21.6964   -3.1333   25.1303 F   0  0  0  0  0  0  0  0  0  0  0  0
  -21.1569   -4.8187   20.7401 F   0  0  0  0  0  0  0  0  0  0  0  0
  1  2  1  0  0  0  0
  1  5  2  0  0  0  0
  2  6  2  0  0  0  0
  3  8  2  0  0  0  0
  3 16  1  0  0  0  0
  4  9  1  0  0  0  0
  4 16  2  0  0  0  0
  5 18  1  0  0  0  0
  6 20  1  0  0  0  0
  7 10  2  0  0  0  0
  7 19  1  0  0  0  0
  8 24  1  0  0  0  0
  9 24  2  0  0  0  0
 10 25  1  0  0  0  0
 11 12  2  0  0  0  0
 11 26  1  0  0  0  0
 12 27  1  0  0  0  0
 13 21  1  0  0  0  0
 13 25  2  0  0  0  0
 14 27  2  0  0  0  0
 14 28  1  0  0  0  0
 15 22  2  0  0  0  0
 15 68  1  0  0  0  0
 16 29  1  0  0  0  0
 17 29  1  0  0  0  0
 17 31  2  0  0  0  0
 17 32  1  0  0  0  0
 18 20  2  0  0  0  0
 18 37  1  0  0  0  0
 19 21  2  0  0  0  0
 19 38  1  0  0  0  0
 20 51  1  0  0  0  0
 21 39  1  0  0  0  0
 22 23  1  0  0  0  0
 22 50  1  0  0  0  0
 23 30  2  0  0  0  0
 23 56  1  0  0  0  0
 24 83  1  0  0  0  0
 25 84  1  0  0  0  0
 26 28  2  0  0  0  0
 26 83  1  0  0  0  0
 27 85  1  0  0  0  0
 28 86  1  0  0  0  0
 29 67  2  0  0  0  0
 30 55  1  0  0  0  0
 30 68  1  0  0  0  0
 31 69  1  0  0  0  0
 31 72  1  0  0  0  0
 32 73  1  0  0  0  0
 32 78  2  0  0  0  0
 33 52  1  0  0  0  0
 33 74  1  0  0  0  0
 33 79  2  0  0  0  0
 34 64  1  0  0  0  0
 34 70  1  0  0  0  0
 34 80  2  0  0  0  0
 35 65  1  0  0  0  0
 35 75  1  0  0  0  0
 35 81  2  0  0  0  0
 36 71  1  0  0  0  0
 36 76  1  0  0  0  0
 36 82  2  0  0  0  0
 37 40  1  0  0  0  0
 38 52  1  0  0  0  0
 39 70  1  0  0  0  0
 40 43  1  0  0  0  0
 41 45  1  0  0  0  0
 41 47  1  0  0  0  0
 42 44  1  0  0  0  0
 42 48  1  0  0  0  0
 43 51  1  0  0  0  0
 44 53  1  0  0  0  0
 45 55  1  0  0  0  0
 46 50  1  0  0  0  0
 46 54  1  0  0  0  0
 47 68  1  0  0  0  0
 48 71  1  0  0  0  0
 49 53  1  0  0  0  0
 49 71  1  0  0  0  0
 50 54  1  0  0  0  0
 51 74  1  0  0  0  0
 52 70  1  0  0  0  0
 53 69  1  0  0  0  0
 54 76  1  0  0  0  0
 55 57  1  0  0  0  0
 55 63  1  0  0  0  0
 58 65  1  0  0  0  0
 59 66  1  0  0  0  0
 60 66  1  0  0  0  0
 61 66  1  0  0  0  0
 62 77  1  0  0  0  0
 63 84  1  0  0  0  0
 64 66  1  0  0  0  0
 64 75  1  0  0  0  0
 65 77  1  0  0  0  0
 67 69  1  0  0  0  0
M  CHG  1  77   1
M  ISO  4  36 100  63 101  76 100  84 101
M  END
> <Batch ID>
0170

> <Smiles>
CNC(C)C(=O)NC(C(=O)N1Cc2cc([101O:1][101CH2:1]C3(C)CCCn4cc(C5CC5[100NH:0][100C:0](=O)N5CCCC(n6nc(-c7ccc(Oc8ccc(F)cc8F)cc7)c(C(N)=O)c6N)C5)c(C)c43)ccc2CC1C(=O)NC1CCCc2ccccc21)C(C)(C)C

> <Shape>
0.266

> <Color>
0.090

> <Negative vol penalty>
0.000

$$$$

  -OEChem-04052322353D

 84 93  0     1  0  0  0  0  0999 V2000
  -18.0665  -24.3773   23.8864 C   0  0  0  0  0  0  0  0  0  0  0  0
  -19.4453  -24.1919   23.8897 C   0  0  0  0  0  0  0  0  0  0  0  0
  -24.1882   -9.5819   22.4754 C   0  0  0  0  0  0  0  0  0  0  0  0
  -24.1836   -9.2374   20.0841 C   0  0  0  0  0  0  0  0  0  0  0  0
  -17.5256  -25.5683   23.4042 C   0  0  0  0  0  0  0  0  0  0  0  0
  -20.2840  -25.1972   23.4095 C   0  0  0  0  0  0  0  0  0  0  0  0
  -24.2701  -26.0073   26.4261 C   0  0  0  0  0  0  0  0  0  0  0  0
  -23.1129   -8.7028   22.6042 C   0  0  0  0  0  0  0  0  0  0  0  0
  -23.1083   -8.3582   20.2129 C   0  0  0  0  0  0  0  0  0  0  0  0
  -25.3247  -25.0989   26.3454 C   0  0  0  0  0  0  0  0  0  0  0  0
  -22.6200   -5.3578   22.6344 C   0  0  0  0  0  0  0  0  0  0  0  0
  -22.6792   -4.4060   23.6523 C   0  0  0  0  0  0  0  0  0  0  0  0
  -26.5390  -26.6425   24.9447 C   0  0  0  0  0  0  0  0  0  0  0  0
  -20.6617   -5.3163   24.6210 C   0  0  0  0  0  0  0  0  0  0  0  0
  -24.7235   -9.8492   21.2153 C   0  0  0  0  0  0  0  0  0  0  0  0
  -27.1095  -10.6325   21.6638 C   0  0  0  0  0  0  0  0  0  0  0  0
  -18.3585  -26.5926   22.9268 C   0  0  0  0  0  0  0  0  0  0  0  0
  -24.3376  -27.2376   25.7567 C   0  0  0  0  0  0  0  0  0  0  0  0
  -19.7536  -26.4026   22.9192 C   0  0  0  0  0  0  0  0  0  0  0  0
  -25.4850  -27.5658   25.0206 C   0  0  0  0  0  0  0  0  0  0  0  0
  -22.5730   -8.0910   21.4729 C   0  0  0  0  0  0  0  0  0  0  0  0
  -26.4581  -25.4153   25.6023 C   0  0  0  0  0  0  0  0  0  0  0  0
  -21.5817   -6.2890   22.6099 C   0  0  0  0  0  0  0  0  0  0  0  0
  -21.7001   -4.3852   24.6455 C   0  0  0  0  0  0  0  0  0  0  0  0
  -20.6026   -6.2682   23.6031 C   0  0  0  0  0  0  0  0  0  0  0  0
  -25.8339  -10.7577   21.0816 C   0  0  0  0  0  0  0  0  0  0  0  0
  -27.7935  -11.7434   21.2341 C   0  0  0  0  0  0  0  0  0  0  0  0
  -28.1281  -23.4852   21.3593 C   0  0  0  0  0  0  0  0  0  0  0  0
  -27.6297   -9.6040   22.5166 C   0  0  0  0  0  0  0  0  0  0  0  0
  -22.6519  -28.6319   23.4506 C   0  0  0  0  0  0  0  0  0  0  0  0
  -24.5606  -31.1670   24.1234 C   0  0  0  0  0  0  0  0  0  0  0  0
  -27.5121  -32.3142   25.3959 C   0  0  0  0  0  0  0  0  0  0  0  0
  -28.2324  -17.0033   20.2582 C   0  0  0  0  0  0  0  0  0  0  0  0
  -17.7253  -27.8437   22.3716 C   0  0  0  0  0  0  0  0  0  0  0  0
  -23.2027  -28.2176   25.8756 C   0  0  0  0  0  0  0  0  0  0  0  0
  -25.6154  -28.8819   24.3001 C   0  0  0  0  0  0  0  0  0  0  0  0
  -27.8201  -24.1696   22.6700 C   0  0  0  0  0  0  0  0  0  0  0  0
  -18.7016  -29.0084   22.2279 C   0  0  0  0  0  0  0  0  0  0  0  0
  -26.6403  -15.1789   17.7143 C   0  0  0  0  0  0  0  0  0  0  0  0
  -19.9973  -28.5410   21.5726 C   0  0  0  0  0  0  0  0  0  0  0  0
  -26.3862  -13.8430   18.4120 C   0  0  0  0  0  0  0  0  0  0  0  0
  -26.9170  -20.2577   20.4885 C   0  0  0  0  0  0  0  0  0  0  0  0
  -29.4138  -20.2033   20.8558 C   0  0  0  0  0  0  0  0  0  0  0  0
  -26.3859  -16.3677   18.6427 C   0  0  0  0  0  0  0  0  0  0  0  0
  -27.0583  -19.1117   19.4827 C   0  0  0  0  0  0  0  0  0  0  0  0
  -29.5068  -19.0816   19.8256 C   0  0  0  0  0  0  0  0  0  0  0  0
  -27.7301  -21.7869   22.9544 C   0  0  0  0  0  0  0  0  0  0  0  0
  -26.8747  -14.9634   20.6197 C   0  0  0  0  0  0  0  0  0  0  0  0
  -20.6974  -27.4795   22.4296 C   0  0  1  0  0  0  0  0  0  0  0  0
  -23.1626  -29.2269   24.7324 C   0  0  1  0  0  0  0  0  0  0  0  0
  -28.0458  -23.0699   23.7108 C   0  0  2  0  0  0  0  0  0  0  0  0
  -27.1773  -13.7486   19.7289 C   0  0  1  0  0  0  0  0  0  0  0  0
  -28.1975  -21.0920   20.5797 C   0  0  0  0  0  0  0  0  0  0  0  0
  -28.8036  -34.4324   25.7739 C   0  0  0  0  0  0  0  0  0  0  0  0
  -27.4874  -22.1680   25.9913 C   0  0  0  0  0  0  0  0  0  0  0  0
  -25.2673  -31.2627   21.1566 C   0  0  0  0  0  0  0  0  0  0  0  0
  -27.2195  -32.7177   21.7400 C   0  0  0  0  0  0  0  0  0  0  0  0
  -24.8983  -33.4989   22.2138 C   0  0  0  0  0  0  0  0  0  0  0  0
  -27.5388  -31.9117   28.3278 C   0  0  0  0  0  0  0  0  0  0  0  0
  -25.8996  -31.6582   23.6285 C   0  0  1  0  0  0  0  0  0  0  0  0
  -27.8205  -33.4370   26.3700 C   0  0  2  0  0  0  0  0  0  0  0  0
  -27.2002  -23.2490   24.9597 C   0  0  1  0  0  0  0  0  0  1  0  0
  -25.8182  -32.2587   22.1966 C   0  0  0  0  0  0  0  0  0  0  0  0
  -25.7121  -11.8611   20.3389 N   0  0  0  0  0  0  0  0  0  0  0  0
  -26.9199  -12.4395   20.4515 N   0  0  0  0  0  0  0  0  0  0  0  0
  -28.0682  -22.1138   21.5891 N   0  0  0  0  0  0  0  0  0  0  0  0
  -24.4765  -29.8041   24.4415 N   0  0  0  0  0  0  0  0  0  0  0  0
  -27.1292  -16.2137   19.9011 N   0  0  0  0  0  0  0  0  0  0  0  0
  -28.2613  -18.3165   19.7655 N   0  0  0  0  0  0  0  0  0  0  0  0
  -29.0509  -12.1830   21.4533 N   0  0  0  0  0  0  0  0  0  0  0  0
  -28.2623   -8.5021   21.9251 N   0  0  0  0  0  0  0  0  0  0  0  0
  -21.3801  -28.0999   23.5447 N   0  0  0  0  0  0  0  0  0  0  0  0
  -26.3924  -32.5877   24.6392 N   0  0  0  0  0  0  0  0  0  0  0  0
  -28.4098  -32.8877   27.6237 N   0  3  0  0  0  0  0  0  0  0  0  0
  -28.3387  -24.0668   20.3054 O   0  0  0  0  0  0  0  0  0  0  0  0
  -27.5217   -9.6525   23.7654 O   0  0  0  0  0  0  0  0  0  0  0  0
  -23.3588  -28.6553   22.4499 O   0  0  0  0  0  0  0  0  0  0  0  0
  -23.6259  -31.9647   24.2307 O   0  0  0  0  0  0  0  0  0  0  0  0
  -28.1983  -31.2981   25.3118 O   0  0  0  0  0  0  0  0  0  0  0  0
  -29.1386  -16.5612   20.9756 O   0  0  0  0  0  0  0  0  0  0  0  0
  -21.5239   -7.2329   21.5983 O   0  0  0  0  0  0  0  0  0  0  0  0
  -27.4950  -24.5247   25.5208 O   0  0  0  0  0  0  0  0  0  1  0  0
  -21.7562   -3.4700   25.6220 F   0  0  0  0  0  0  0  0  0  0  0  0
  -19.6020   -7.1595   23.5841 F   0  0  0  0  0  0  0  0  0  0  0  0
  1  2  1  0  0  0  0
  1  5  2  0  0  0  0
  2  6  2  0  0  0  0
  3  8  2  0  0  0  0
  3 15  1  0  0  0  0
  4  9  1  0  0  0  0
  4 15  2  0  0  0  0
  5 17  1  0  0  0  0
  6 19  1  0  0  0  0
  7 10  2  0  0  0  0
  7 18  1  0  0  0  0
  8 21  1  0  0  0  0
  9 21  2  0  0  0  0
 10 22  1  0  0  0  0
 11 12  2  0  0  0  0
 11 23  1  0  0  0  0
 12 24  1  0  0  0  0
 13 20  1  0  0  0  0
 13 22  2  0  0  0  0
 14 24  2  0  0  0  0
 14 25  1  0  0  0  0
 15 26  1  0  0  0  0
 16 26  1  0  0  0  0
 16 27  2  0  0  0  0
 16 29  1  0  0  0  0
 17 19  2  0  0  0  0
 17 34  1  0  0  0  0
 18 20  2  0  0  0  0
 18 35  1  0  0  0  0
 19 49  1  0  0  0  0
 20 36  1  0  0  0  0
 21 81  1  0  0  0  0
 22 82  1  0  0  0  0
 23 25  2  0  0  0  0
 23 81  1  0  0  0  0
 24 83  1  0  0  0  0
 25 84  1  0  0  0  0
 26 64  2  0  0  0  0
 27 65  1  0  0  0  0
 27 70  1  0  0  0  0
 28 37  1  0  0  0  0
 28 66  1  0  0  0  0
 28 75  2  0  0  0  0
 29 71  1  0  0  0  0
 29 76  2  0  0  0  0
 30 50  1  0  0  0  0
 30 72  1  0  0  0  0
 30 77  2  0  0  0  0
 31 60  1  0  0  0  0
 31 67  1  0  0  0  0
 31 78  2  0  0  0  0
 32 61  1  0  0  0  0
 32 73  1  0  0  0  0
 32 79  2  0  0  0  0
 33 68  1  0  0  0  0
 33 69  1  0  0  0  0
 33 80  2  0  0  0  0
 34 38  1  0  0  0  0
 35 50  1  0  0  0  0
 36 67  1  0  0  0  0
 37 51  1  0  0  0  0
 38 40  1  0  0  0  0
 39 41  1  0  0  0  0
 39 44  1  0  0  0  0
 40 49  1  0  0  0  0
 41 52  1  0  0  0  0
 42 45  1  0  0  0  0
 42 53  1  0  0  0  0
 43 46  1  0  0  0  0
 43 53  1  0  0  0  0
 44 68  1  0  0  0  0
 45 69  1  0  0  0  0
 46 69  1  0  0  0  0
 47 51  1  0  0  0  0
 47 66  1  0  0  0  0
 48 52  1  0  0  0  0
 48 68  1  0  0  0  0
 49 72  1  0  0  0  0
 50 67  1  0  0  0  0
 51 62  1  0  0  0  0
 52 65  1  0  0  0  0
 53 66  1  0  0  0  0
 54 61  1  0  0  0  0
 55 62  1  0  0  0  0
 56 63  1  0  0  0  0
 57 63  1  0  0  0  0
 58 63  1  0  0  0  0
 59 74  1  0  0  0  0
 60 63  1  0  0  0  0
 60 73  1  0  0  0  0
 61 74  1  0  0  0  0
 62 82  1  0  0  0  0
 64 65  1  0  0  0  0
M  CHG  1  74   1
M  ISO  4  33 100  62 101  69 100  82 101
M  END
> <Batch ID>
0170

> <Smiles>
CNC(C)C(=O)NC(C(=O)N1Cc2cc([101O:1][101CH:1](C)C3CC(=O)N(C4CC[100N:0]([100C:0](=O)N5CCCC(n6nc(-c7ccc(Oc8ccc(F)cc8F)cc7)c(C(N)=O)c6N)C5)CC4)C3)ccc2CC1C(=O)NC1CCCc2ccccc21)C(C)(C)C

> <Shape>
0.285

> <Color>
0.120

> <Negative vol penalty>
0.000

$$$$

  -OEChem-04052322353D

 88 97  0     1  0  0  0  0  0999 V2000
  -27.1308  -35.9680   20.6654 C   0  0  0  0  0  0  0  0  0  0  0  0
  -27.5683  -34.6474   20.6755 C   0  0  0  0  0  0  0  0  0  0  0  0
  -24.4466   -9.3508   21.7194 C   0  0  0  0  0  0  0  0  0  0  0  0
  -22.6827  -10.3539   20.4082 C   0  0  0  0  0  0  0  0  0  0  0  0
  -26.1198  -36.3728   21.5359 C   0  0  0  0  0  0  0  0  0  0  0  0
  -26.9957  -33.7311   21.5569 C   0  0  0  0  0  0  0  0  0  0  0  0
  -25.9302  -29.3057   19.3375 C   0  0  0  0  0  0  0  0  0  0  0  0
  -23.7190   -8.1628   21.7895 C   0  0  0  0  0  0  0  0  0  0  0  0
  -21.9551   -9.1659   20.4782 C   0  0  0  0  0  0  0  0  0  0  0  0
  -26.9922  -28.4276   19.1259 C   0  0  0  0  0  0  0  0  0  0  0  0
  -21.1046   -6.9439   23.5511 C   0  0  0  0  0  0  0  0  0  0  0  0
  -21.0183   -6.3097   24.7904 C   0  0  0  0  0  0  0  0  0  0  0  0
  -26.3428  -27.1796   21.0855 C   0  0  0  0  0  0  0  0  0  0  0  0
  -22.0778   -4.3478   23.8603 C   0  0  0  0  0  0  0  0  0  0  0  0
  -23.9285  -10.4464   21.0289 C   0  0  0  0  0  0  0  0  0  0  0  0
  -25.6181  -12.0397   19.9734 C   0  0  0  0  0  0  0  0  0  0  0  0
  -25.5278  -35.4588   22.4217 C   0  0  0  0  0  0  0  0  0  0  0  0
  -25.0716  -29.1335   20.4328 C   0  0  0  0  0  0  0  0  0  0  0  0
  -25.9767  -34.1244   22.4410 C   0  0  0  0  0  0  0  0  0  0  0  0
  -25.2691  -28.0554   21.3074 C   0  0  0  0  0  0  0  0  0  0  0  0
  -22.4733   -8.0704   21.1688 C   0  0  0  0  0  0  0  0  0  0  0  0
  -27.2004  -27.3660   20.0016 C   0  0  0  0  0  0  0  0  0  0  0  0
  -21.6774   -6.2800   22.4663 C   0  0  0  0  0  0  0  0  0  0  0  0
  -21.5049   -5.0117   24.9451 C   0  0  0  0  0  0  0  0  0  0  0  0
  -22.1641   -4.9820   22.6209 C   0  0  0  0  0  0  0  0  0  0  0  0
  -24.6794  -11.6740   20.9567 C   0  0  0  0  0  0  0  0  0  0  0  0
  -26.0446  -13.2887   20.3536 C   0  0  0  0  0  0  0  0  0  0  0  0
  -26.0645  -11.3153   18.8194 C   0  0  0  0  0  0  0  0  0  0  0  0
  -24.3228  -30.8662   22.9903 C   0  0  0  0  0  0  0  0  0  0  0  0
  -22.1451  -28.5097   23.4667 C   0  0  0  0  0  0  0  0  0  0  0  0
  -21.2124  -25.2729   22.9193 C   0  0  0  0  0  0  0  0  0  0  0  0
  -24.4147  -18.4435   22.1232 C   0  0  0  0  0  0  0  0  0  0  0  0
  -24.4709  -35.9540   23.3769 C   0  0  0  0  0  0  0  0  0  0  0  0
  -23.9147  -30.0738   20.6320 C   0  0  0  0  0  0  0  0  0  0  0  0
  -24.3637  -27.8148   22.4867 C   0  0  0  0  0  0  0  0  0  0  0  0
  -23.6566  -34.8336   24.0186 C   0  0  0  0  0  0  0  0  0  0  0  0
  -25.3305  -15.8719   24.6311 C   0  0  0  0  0  0  0  0  0  0  0  0
  -24.5765  -33.7254   24.5209 C   0  0  0  0  0  0  0  0  0  0  0  0
  -25.2417  -14.5778   23.8242 C   0  0  0  0  0  0  0  0  0  0  0  0
  -24.7876  -20.7620   19.5694 C   0  0  0  0  0  0  0  0  0  0  0  0
  -26.7079  -19.1209   19.5358 C   0  0  0  0  0  0  0  0  0  0  0  0
  -24.3947  -16.9456   24.0847 C   0  0  0  0  0  0  0  0  0  0  0  0
  -23.8693  -19.6280   20.0173 C   0  0  0  0  0  0  0  0  0  0  0  0
  -25.7537  -18.0216   20.0118 C   0  0  0  0  0  0  0  0  0  0  0  0
  -24.5009  -15.9369   21.8278 C   0  0  0  0  0  0  0  0  0  0  0  0
  -28.9270  -22.6293   19.0713 C   0  0  0  0  0  0  0  0  0  0  0  0
  -27.3169  -23.6334   17.5901 C   0  0  0  0  0  0  0  0  0  0  0  0
  -25.3631  -33.0951   23.3652 C   0  0  1  0  0  0  0  0  0  0  0  0
  -23.4103  -30.1041   22.0714 C   0  0  1  0  0  0  0  0  0  0  0  0
  -25.4648  -14.8499   22.3267 C   0  0  2  0  0  0  0  0  0  0  0  0
  -25.9582  -20.2037   18.7628 C   0  0  0  0  0  0  0  0  0  0  0  0
  -27.9271  -21.5708   19.5516 C   0  0  1  0  0  0  0  0  0  0  0  0
  -26.2328  -22.6088   17.9633 C   0  0  1  0  0  0  0  0  0  0  0  0
  -27.2496  -21.9519   20.8692 C   0  0  0  0  0  0  0  0  0  0  0  0
  -19.4012  -23.6250   23.4682 C   0  0  0  0  0  0  0  0  0  0  0  0
  -24.6433  -23.6014   16.2925 C   0  0  0  0  0  0  0  0  0  0  0  0
  -26.1753  -21.7326   15.6113 C   0  0  0  0  0  0  0  0  0  0  0  0
  -23.2887  -28.1928   26.2777 C   0  0  0  0  0  0  0  0  0  0  0  0
  -22.1341  -25.9760   26.4221 C   0  0  0  0  0  0  0  0  0  0  0  0
  -20.7947  -28.0621   26.1452 C   0  0  0  0  0  0  0  0  0  0  0  0
  -20.5043  -24.9251   20.0669 C   0  0  0  0  0  0  0  0  0  0  0  0
  -29.2320  -24.8972   18.3218 C   0  0  0  0  0  0  0  0  0  0  0  0
  -28.6515  -26.2972   18.4499 C   0  0  0  0  0  0  0  0  0  1  0  0
  -22.1433  -27.1868   24.1939 C   0  0  1  0  0  0  0  0  0  0  0  0
  -19.8939  -24.6659   22.4750 C   0  0  2  0  0  0  0  0  0  0  0  0
  -25.3486  -22.3268   16.7486 C   0  0  0  0  0  0  0  0  0  0  0  0
  -22.1086  -27.3598   25.7387 C   0  0  0  0  0  0  0  0  0  0  0  0
  -24.5187  -12.6145   21.8914 N   0  0  0  0  0  0  0  0  0  0  0  0
  -25.3623  -13.5835   21.4972 N   0  0  0  0  0  0  0  0  0  0  0  0
  -23.2503  -28.7653   22.6426 N   0  0  0  0  0  0  0  0  0  0  0  0
  -24.5924  -17.1532   22.6500 N   0  0  0  0  0  0  0  0  0  0  0  0
  -24.6164  -18.5992   20.7435 N   0  0  0  0  0  0  0  0  0  0  0  0
  -28.2524  -23.8767   18.6946 N   0  0  2  0  0  0  0  0  0  0  0  0
  -26.9330  -14.1526   19.8180 N   0  0  0  0  0  0  0  0  0  0  0  0
  -25.5233  -10.0454   18.5772 N   0  0  0  0  0  0  0  0  0  0  0  0
  -24.5225  -32.1825   22.6202 N   0  0  0  0  0  0  0  0  0  0  0  0
  -21.0230  -26.4250   23.6527 N   0  0  0  0  0  0  0  0  0  0  0  0
  -26.9121  -21.3270   18.4364 N   0  3  2  0  0  0  0  0  0  0  0  0
  -20.0471  -24.0110   21.1451 N   0  3  0  0  0  0  0  0  0  0  0  0
  -26.9301  -11.7735   18.0356 O   0  0  0  0  0  0  0  0  0  0  0  0
  -24.8085  -30.3022   23.9637 O   0  0  0  0  0  0  0  0  0  0  0  0
  -21.1974  -29.2846   23.6184 O   0  0  0  0  0  0  0  0  0  0  0  0
  -22.3015  -24.7727   22.6465 O   0  0  0  0  0  0  0  0  0  0  0  0
  -24.0972  -19.3980   22.8439 O   0  0  0  0  0  0  0  0  0  0  0  0
  -21.7631   -6.9112   21.2367 O   0  0  0  0  0  0  0  0  0  0  0  0
  -28.2440  -26.5016   19.7963 O   0  0  0  0  0  0  0  0  0  1  0  0
  -21.4234   -4.4034   26.1356 F   0  0  0  0  0  0  0  0  0  0  0  0
  -22.7165   -4.3395   21.5827 F   0  0  0  0  0  0  0  0  0  0  0  0
  1  2  1  0  0  0  0
  1  5  2  0  0  0  0
  2  6  2  0  0  0  0
  3  8  2  0  0  0  0
  3 15  1  0  0  0  0
  4  9  1  0  0  0  0
  4 15  2  0  0  0  0
  5 17  1  0  0  0  0
  6 19  1  0  0  0  0
  7 10  2  0  0  0  0
  7 18  1  0  0  0  0
  8 21  1  0  0  0  0
  9 21  2  0  0  0  0
 10 22  1  0  0  0  0
 11 12  2  0  0  0  0
 11 23  1  0  0  0  0
 12 24  1  0  0  0  0
 13 20  1  0  0  0  0
 13 22  2  0  0  0  0
 14 24  2  0  0  0  0
 14 25  1  0  0  0  0
 15 26  1  0  0  0  0
 16 26  1  0  0  0  0
 16 27  2  0  0  0  0
 16 28  1  0  0  0  0
 17 19  2  0  0  0  0
 17 33  1  0  0  0  0
 18 20  2  0  0  0  0
 18 34  1  0  0  0  0
 19 48  1  0  0  0  0
 20 35  1  0  0  0  0
 21 85  1  0  0  0  0
 22 86  1  0  0  0  0
 23 25  2  0  0  0  0
 23 85  1  0  0  0  0
 24 87  1  0  0  0  0
 25 88  1  0  0  0  0
 26 68  2  0  0  0  0
 27 69  1  0  0  0  0
 27 74  1  0  0  0  0
 28 75  1  0  0  0  0
 28 80  2  0  0  0  0
 29 49  1  0  0  0  0
 29 76  1  0  0  0  0
 29 81  2  0  0  0  0
 30 64  1  0  0  0  0
 30 70  1  0  0  0  0
 30 82  2  0  0  0  0
 31 65  1  0  0  0  0
 31 77  1  0  0  0  0
 31 83  2  0  0  0  0
 32 71  1  0  0  0  0
 32 72  1  0  0  0  0
 32 84  2  0  0  0  0
 33 36  1  0  0  0  0
 34 49  1  0  0  0  0
 35 70  1  0  0  0  0
 36 38  1  0  0  0  0
 37 39  1  0  0  0  0
 37 42  1  0  0  0  0
 38 48  1  0  0  0  0
 39 50  1  0  0  0  0
 40 43  1  0  0  0  0
 40 51  1  0  0  0  0
 41 44  1  0  0  0  0
 41 51  1  0  0  0  0
 42 71  1  0  0  0  0
 43 72  1  0  0  0  0
 44 72  1  0  0  0  0
 45 50  1  0  0  0  0
 45 71  1  0  0  0  0
 46 52  1  0  0  0  0
 46 73  1  0  0  0  0
 47 53  1  0  0  0  0
 47 73  1  0  0  0  0
 48 76  1  0  0  0  0
 49 70  1  0  0  0  0
 50 69  1  0  0  0  0
 51 78  1  0  0  0  0
 52 54  1  0  0  0  0
 52 78  1  0  0  0  0
 53 66  1  0  0  0  0
 53 78  1  0  0  0  0
 55 65  1  0  0  0  0
 56 66  1  0  0  0  0
 57 66  1  0  0  0  0
 58 67  1  0  0  0  0
 59 67  1  0  0  0  0
 60 67  1  0  0  0  0
 61 79  1  0  0  0  0
 62 63  1  0  0  0  0
 62 73  1  0  0  0  0
 63 86  1  0  0  0  0
 64 67  1  0  0  0  0
 64 77  1  0  0  0  0
 65 79  1  0  0  0  0
 68 69  1  0  0  0  0
M  CHG  2  78   1  79   1
M  ISO  4  32 100  63 101  72 100  86 101
M  END
> <Batch ID>
0170

> <Smiles>
CNC(C)C(=O)NC(C(=O)N1Cc2cc([101O:1][101CH2:1]CN3CC(C)N(C4CC[100N:0]([100C:0](=O)N5CCCC(n6nc(-c7ccc(Oc8ccc(F)cc8F)cc7)c(C(N)=O)c6N)C5)CC4)C(C(C)C)C3)ccc2CC1C(=O)NC1CCCc2ccccc21)C(C)(C)C

> <Shape>
0.272

> <Color>
0.111

> <Negative vol penalty>
0.000

$$$$

  -OEChem-04052322353D

 83 92  0     1  0  0  0  0  0999 V2000
  -30.5460  -21.3392   15.8713 C   0  0  0  0  0  0  0  0  0  0  0  0
  -29.6061  -21.4355   16.8912 C   0  0  0  0  0  0  0  0  0  0  0  0
  -29.6003  -16.1076   19.8424 C   0  0  0  0  0  0  0  0  0  0  0  0
  -27.6369  -16.1447   21.2499 C   0  0  0  0  0  0  0  0  0  0  0  0
  -31.2645  -22.4677   15.4820 C   0  0  0  0  0  0  0  0  0  0  0  0
  -29.3758  -22.6627   17.5140 C   0  0  0  0  0  0  0  0  0  0  0  0
  -25.6492  -22.8782   20.7186 C   0  0  0  0  0  0  0  0  0  0  0  0
  -29.0626  -15.0421   19.1205 C   0  0  0  0  0  0  0  0  0  0  0  0
  -27.0992  -15.0792   20.5279 C   0  0  0  0  0  0  0  0  0  0  0  0
  -25.6987  -22.2736   21.9739 C   0  0  0  0  0  0  0  0  0  0  0  0
  -25.3678  -12.1353   19.2848 C   0  0  0  0  0  0  0  0  0  0  0  0
  -24.7882  -11.0910   20.0052 C   0  0  0  0  0  0  0  0  0  0  0  0
  -26.0818  -24.4278   22.9897 C   0  0  0  0  0  0  0  0  0  0  0  0
  -26.8023  -19.6660   26.1902 C   0  0  0  0  0  0  0  0  0  0  0  0
  -26.8995  -10.6775   21.1046 C   0  0  0  0  0  0  0  0  0  0  0  0
  -25.0243  -20.5887   28.0431 C   0  0  0  0  0  0  0  0  0  0  0  0
  -28.8874  -16.6589   20.9072 C   0  0  0  0  0  0  0  0  0  0  0  0
  -29.2799  -19.1327   21.3910 C   0  0  0  0  0  0  0  0  0  0  0  0
  -31.0512  -23.7062   16.1094 C   0  0  0  0  0  0  0  0  0  0  0  0
  -25.8268  -24.2631   20.5881 C   0  0  0  0  0  0  0  0  0  0  0  0
  -30.0738  -23.8183   17.1190 C   0  0  0  0  0  0  0  0  0  0  0  0
  -26.0315  -25.0479   21.7319 C   0  0  0  0  0  0  0  0  0  0  0  0
  -25.8323  -20.5852   25.8062 C   0  0  0  0  0  0  0  0  0  0  0  0
  -24.9226  -21.0603   26.7443 C   0  0  0  0  0  0  0  0  0  0  0  0
  -27.8121  -14.5279   19.4632 C   0  0  0  0  0  0  0  0  0  0  0  0
  -25.9179  -23.0479   23.1094 C   0  0  0  0  0  0  0  0  0  0  0  0
  -26.7133  -12.4507   19.4742 C   0  0  0  0  0  0  0  0  0  0  0  0
  -25.5540  -10.3621   20.9151 C   0  0  0  0  0  0  0  0  0  0  0  0
  -27.4791  -11.7218   20.3841 C   0  0  0  0  0  0  0  0  0  0  0  0
  -29.4425  -17.7593   21.6537 C   0  0  0  0  0  0  0  0  0  0  0  0
  -26.8200  -19.2569   27.5139 C   0  0  0  0  0  0  0  0  0  0  0  0
  -29.9992  -19.7589   22.3794 C   0  0  0  0  0  0  0  0  0  0  0  0
  -28.5443  -19.7842   20.3469 C   0  0  0  0  0  0  0  0  0  0  0  0
  -27.9472  -26.1246   19.1244 C   0  0  0  0  0  0  0  0  0  0  0  0
  -25.9398  -28.4910   20.0693 C   0  0  0  0  0  0  0  0  0  0  0  0
  -23.5326  -29.5525   22.2431 C   0  0  0  0  0  0  0  0  0  0  0  0
  -31.5775  -17.7306   27.8653 C   0  0  0  0  0  0  0  0  0  0  0  0
  -31.8511  -24.8970   15.6432 C   0  0  0  0  0  0  0  0  0  0  0  0
  -25.7440  -24.9036   19.2297 C   0  0  0  0  0  0  0  0  0  0  0  0
  -26.2079  -26.5413   21.6479 C   0  0  0  0  0  0  0  0  0  0  0  0
  -31.8582  -26.0405   16.6525 C   0  0  0  0  0  0  0  0  0  0  0  0
  -33.7716  -19.1181   25.2659 C   0  0  0  0  0  0  0  0  0  0  0  0
  -30.4377  -26.3422   17.1060 C   0  0  0  0  0  0  0  0  0  0  0  0
  -32.9051  -19.0007   24.0094 C   0  0  0  0  0  0  0  0  0  0  0  0
  -28.3551  -18.3780   29.4163 C   0  0  0  0  0  0  0  0  0  0  0  0
  -33.4548  -18.0263   26.2864 C   0  0  0  0  0  0  0  0  0  0  0  0
  -29.6446  -17.5726   29.4153 C   0  0  0  0  0  0  0  0  0  0  0  0
  -29.1819  -18.3113   27.1816 C   0  0  0  0  0  0  0  0  0  0  0  0
  -31.1779  -17.7815   25.3791 C   0  0  0  0  0  0  0  0  0  0  0  0
  -29.8282  -25.1360   17.8316 C   0  0  1  0  0  0  0  0  0  0  0  0
  -27.8613  -18.2572   27.9679 C   0  0  2  0  0  0  0  0  0  0  0  0
  -26.4507  -26.2539   19.1617 C   0  0  1  0  0  0  0  0  0  0  0  0
  -31.4089  -18.9134   24.3693 C   0  0  2  0  0  0  0  0  0  0  0  0
  -23.8636  -22.0447   26.3869 C   0  0  0  0  0  0  0  0  0  0  0  0
  -22.1121  -31.5481   22.7882 C   0  0  0  0  0  0  0  0  0  0  0  0
  -28.3514  -29.8557   21.3468 C   0  0  0  0  0  0  0  0  0  0  0  0
  -26.7634  -31.2878   22.6489 C   0  0  0  0  0  0  0  0  0  0  0  0
  -26.7867  -31.4020   20.1571 C   0  0  0  0  0  0  0  0  0  0  0  0
  -21.0304  -28.0529   21.7444 C   0  0  0  0  0  0  0  0  0  0  0  0
  -25.7866  -21.0465   24.3872 C   0  0  0  0  0  0  0  0  0  1  0  0
  -25.8175  -29.3631   21.2954 C   0  0  1  0  0  0  0  0  0  0  0  0
  -22.2007  -30.2432   22.0122 C   0  0  2  0  0  0  0  0  0  0  0  0
  -26.9284  -30.4488   21.3638 C   0  0  0  0  0  0  0  0  0  0  0  0
  -25.9529  -19.6960   28.4536 N   0  0  0  0  0  0  0  0  0  0  0  0
  -30.2054  -17.5260   22.7249 N   0  0  0  0  0  0  0  0  0  0  0  0
  -30.5287  -18.7613   23.1441 N   0  0  0  0  0  0  0  0  0  0  0  0
  -26.1251  -27.1200   20.2966 N   0  0  0  0  0  0  0  0  0  0  0  0
  -32.0205  -17.9763   26.5621 N   0  0  0  0  0  0  0  0  0  0  0  0
  -30.1972  -17.7553   28.0801 N   0  0  0  0  0  0  0  0  0  0  0  0
  -30.2243  -21.0599   22.6603 N   0  0  0  0  0  0  0  0  0  0  0  0
  -27.8620  -18.9905   19.4148 N   0  0  0  0  0  0  0  0  0  0  0  0
  -28.4214  -25.3832   18.0591 N   0  0  0  0  0  0  0  0  0  0  0  0
  -24.4600  -29.8973   21.2826 N   0  0  0  0  0  0  0  0  0  0  0  0
  -21.0788  -29.3625   22.4442 N   0  3  0  0  0  0  0  0  0  0  0  0
  -28.5070  -21.0330   20.2340 O   0  0  0  0  0  0  0  0  0  0  0  0
  -28.6217  -26.6592   19.9967 O   0  0  0  0  0  0  0  0  0  0  0  0
  -25.8664  -29.0063   18.9509 O   0  0  0  0  0  0  0  0  0  0  0  0
  -23.7318  -28.7869   23.1836 O   0  0  0  0  0  0  0  0  0  0  0  0
  -32.3769  -17.5540   28.7931 O   0  0  0  0  0  0  0  0  0  0  0  0
  -27.2871  -13.4883   18.7588 O   0  0  0  0  0  0  0  0  0  0  0  0
  -25.9676  -22.4561   24.3444 O   0  0  0  0  0  0  0  0  0  1  0  0
  -24.9968   -9.3602   21.6079 F   0  0  0  0  0  0  0  0  0  0  0  0
  -28.7719  -12.0210   20.5713 F   0  0  0  0  0  0  0  0  0  0  0  0
  1  2  1  0  0  0  0
  1  5  2  0  0  0  0
  2  6  2  0  0  0  0
  3  8  2  0  0  0  0
  3 17  1  0  0  0  0
  4  9  1  0  0  0  0
  4 17  2  0  0  0  0
  5 19  1  0  0  0  0
  6 21  1  0  0  0  0
  7 10  2  0  0  0  0
  7 20  1  0  0  0  0
  8 25  1  0  0  0  0
  9 25  2  0  0  0  0
 10 26  1  0  0  0  0
 11 12  2  0  0  0  0
 11 27  1  0  0  0  0
 12 28  1  0  0  0  0
 13 22  1  0  0  0  0
 13 26  2  0  0  0  0
 14 23  1  0  0  0  0
 14 31  2  0  0  0  0
 15 28  2  0  0  0  0
 15 29  1  0  0  0  0
 16 24  1  0  0  0  0
 16 64  2  0  0  0  0
 17 30  1  0  0  0  0
 18 30  1  0  0  0  0
 18 32  2  0  0  0  0
 18 33  1  0  0  0  0
 19 21  2  0  0  0  0
 19 38  1  0  0  0  0
 20 22  2  0  0  0  0
 20 39  1  0  0  0  0
 21 50  1  0  0  0  0
 22 40  1  0  0  0  0
 23 24  2  0  0  0  0
 23 60  1  0  0  0  0
 24 54  1  0  0  0  0
 25 80  1  0  0  0  0
 26 81  1  0  0  0  0
 27 29  2  0  0  0  0
 27 80  1  0  0  0  0
 28 82  1  0  0  0  0
 29 83  1  0  0  0  0
 30 65  2  0  0  0  0
 31 51  1  0  0  0  0
 31 64  1  0  0  0  0
 32 66  1  0  0  0  0
 32 70  1  0  0  0  0
 33 71  1  0  0  0  0
 33 75  2  0  0  0  0
 34 52  1  0  0  0  0
 34 72  1  0  0  0  0
 34 76  2  0  0  0  0
 35 61  1  0  0  0  0
 35 67  1  0  0  0  0
 35 77  2  0  0  0  0
 36 62  1  0  0  0  0
 36 73  1  0  0  0  0
 36 78  2  0  0  0  0
 37 68  1  0  0  0  0
 37 69  1  0  0  0  0
 37 79  2  0  0  0  0
 38 41  1  0  0  0  0
 39 52  1  0  0  0  0
 40 67  1  0  0  0  0
 41 43  1  0  0  0  0
 42 44  1  0  0  0  0
 42 46  1  0  0  0  0
 43 50  1  0  0  0  0
 44 53  1  0  0  0  0
 45 47  1  0  0  0  0
 45 51  1  0  0  0  0
 46 68  1  0  0  0  0
 47 69  1  0  0  0  0
 48 51  1  0  0  0  0
 48 69  1  0  0  0  0
 49 53  1  0  0  0  0
 49 68  1  0  0  0  0
 50 72  1  0  0  0  0
 52 67  1  0  0  0  0
 53 66  1  0  0  0  0
 55 62  1  0  0  0  0
 56 63  1  0  0  0  0
 57 63  1  0  0  0  0
 58 63  1  0  0  0  0
 59 74  1  0  0  0  0
 60 81  1  0  0  0  0
 61 63  1  0  0  0  0
 61 73  1  0  0  0  0
 62 74  1  0  0  0  0
 65 66  1  0  0  0  0
M  CHG  1  74   1
M  ISO  4  37 100  60 101  69 100  81 101
M  END
> <Batch ID>
0170

> <Smiles>
CNC(C)C(=O)NC(C(=O)N1Cc2cc([101O:1][101CH2:1]c3cc(C4CC[100N:0]([100C:0](=O)N5CCCC(n6nc(-c7ccc(Oc8ccc(F)cc8F)cc7)c(C(N)=O)c6N)C5)C4)ncc3C)ccc2CC1C(=O)NC1CCCc2ccccc21)C(C)(C)C

> <Shape>
0.207

> <Color>
0.060

> <Negative vol penalty>
0.000

$$$$

  -OEChem-04052322353D

 87 97  0     1  0  0  0  0  0999 V2000
  -27.3213  -37.1458   27.2525 C   0  0  0  0  0  0  0  0  0  0  0  0
  -28.1566  -36.1485   26.7593 C   0  0  0  0  0  0  0  0  0  0  0  0
  -24.5906   -9.0420   22.0474 C   0  0  0  0  0  0  0  0  0  0  0  0
  -23.6054   -9.5809   19.9082 C   0  0  0  0  0  0  0  0  0  0  0  0
  -25.9383  -37.0192   27.1291 C   0  0  0  0  0  0  0  0  0  0  0  0
  -27.6093  -35.0236   26.1433 C   0  0  0  0  0  0  0  0  0  0  0  0
  -28.9652  -30.2948   20.9360 C   0  0  0  0  0  0  0  0  0  0  0  0
  -23.4930   -8.2363   22.3499 C   0  0  0  0  0  0  0  0  0  0  0  0
  -22.5078   -8.7750   20.2107 C   0  0  0  0  0  0  0  0  0  0  0  0
  -29.0313  -28.9189   20.7210 C   0  0  0  0  0  0  0  0  0  0  0  0
  -22.3886   -5.1366   21.5718 C   0  0  0  0  0  0  0  0  0  0  0  0
  -22.6392   -3.8808   22.1247 C   0  0  0  0  0  0  0  0  0  0  0  0
  -29.4693  -24.2982   18.7756 C   0  0  0  0  0  0  0  0  0  0  0  0
  -26.6309  -28.8453   20.4933 C   0  0  0  0  0  0  0  0  0  0  0  0
  -21.3706   -4.4921   24.0879 C   0  0  0  0  0  0  0  0  0  0  0  0
  -24.6468   -9.7144   20.8265 C   0  0  0  0  0  0  0  0  0  0  0  0
  -26.9688  -10.1580   19.8679 C   0  0  0  0  0  0  0  0  0  0  0  0
  -25.3741  -35.8968   26.5027 C   0  0  0  0  0  0  0  0  0  0  0  0
  -27.7284  -30.9557   20.9421 C   0  0  0  0  0  0  0  0  0  0  0  0
  -26.2174  -34.8813   26.0126 C   0  0  0  0  0  0  0  0  0  0  0  0
  -29.3576  -22.9374   18.5127 C   0  0  0  0  0  0  0  0  0  0  0  0
  -26.5521  -30.2301   20.7060 C   0  0  0  0  0  0  0  0  0  0  0  0
  -29.1022  -24.7921   20.0224 C   0  0  0  0  0  0  0  0  0  0  0  0
  -22.4516   -8.1027   21.4316 C   0  0  0  0  0  0  0  0  0  0  0  0
  -27.8638  -28.1935   20.5025 C   0  0  0  0  0  0  0  0  0  0  0  0
  -21.6291   -6.0702   22.2770 C   0  0  0  0  0  0  0  0  0  0  0  0
  -22.1301   -3.5585   23.3827 C   0  0  0  0  0  0  0  0  0  0  0  0
  -21.1201   -5.7479   23.5350 C   0  0  0  0  0  0  0  0  0  0  0  0
  -25.7801  -10.5474   20.5137 C   0  0  0  0  0  0  0  0  0  0  0  0
  -28.6329  -23.8909   20.9645 C   0  0  0  0  0  0  0  0  0  0  0  0
  -28.8771  -22.1192   19.5224 C   0  0  0  0  0  0  0  0  0  0  0  0
  -27.7202  -11.3063   19.8102 C   0  0  0  0  0  0  0  0  0  0  0  0
  -27.3590   -8.8732   19.3651 C   0  0  0  0  0  0  0  0  0  0  0  0
  -26.0837  -32.6174   23.0955 C   0  0  0  0  0  0  0  0  0  0  0  0
  -24.1017  -33.1643   20.5865 C   0  0  0  0  0  0  0  0  0  0  0  0
  -22.9330  -32.1535   17.5437 C   0  0  0  0  0  0  0  0  0  0  0  0
  -28.3648  -16.5555   18.8749 C   0  0  0  0  0  0  0  0  0  0  0  0
  -23.8718  -35.7819   26.4349 C   0  0  0  0  0  0  0  0  0  0  0  0
  -27.6765  -32.4446   21.1489 C   0  0  0  0  0  0  0  0  0  0  0  0
  -25.2011  -30.8955   20.6825 C   0  0  0  0  0  0  0  0  0  0  0  0
  -23.3855  -34.7361   25.4348 C   0  0  0  0  0  0  0  0  0  0  0  0
  -27.0836  -15.7867   22.0540 C   0  0  0  0  0  0  0  0  0  0  0  0
  -29.1161  -22.9943   15.9412 C   0  0  0  0  0  0  0  0  0  0  0  0
  -28.7530  -21.6100   16.3794 C   0  0  0  0  0  0  0  0  0  0  0  0
  -24.1707  -33.4383   25.5952 C   0  0  0  0  0  0  0  0  0  0  0  0
  -26.7205  -14.3115   21.8866 C   0  0  0  0  0  0  0  0  0  0  0  0
  -26.7325  -16.6077   20.8121 C   0  0  0  0  0  0  0  0  0  0  0  0
  -29.8967  -19.8637   19.5538 C   0  0  0  0  0  0  0  0  0  0  0  0
  -27.4228  -20.1481   19.3412 C   0  0  0  0  0  0  0  0  0  0  0  0
  -29.7963  -18.5611   18.7646 C   0  0  0  0  0  0  0  0  0  0  0  0
  -27.3681  -18.8485   18.5458 C   0  0  0  0  0  0  0  0  0  0  0  0
  -26.9396  -14.5954   19.3888 C   0  0  0  0  0  0  0  0  0  0  0  0
  -29.7517  -22.4090   17.1749 C   0  0  0  0  0  0  0  0  0  0  0  0
  -25.6624  -33.6578   25.3160 C   0  0  1  0  0  0  0  0  0  0  0  0
  -26.3186  -32.9319   21.6451 C   0  0  1  0  0  0  0  0  0  0  0  0
  -27.3344  -13.7343   20.5987 C   0  0  2  0  0  0  0  0  0  0  0  0
  -28.2239  -24.3650   22.3207 C   0  0  0  0  0  0  0  0  0  0  0  0
  -21.2883  -32.7844   15.7564 C   0  0  0  0  0  0  0  0  0  0  0  0
  -21.8182  -32.1303   22.3262 C   0  0  0  0  0  0  0  0  0  0  0  0
  -20.4397  -31.8869   20.2504 C   0  0  0  0  0  0  0  0  0  0  0  0
  -21.2528  -34.1395   20.9486 C   0  0  0  0  0  0  0  0  0  0  0  0
  -25.0717  -32.4581   15.5208 C   0  0  0  0  0  0  0  0  0  0  0  0
  -29.2195  -26.2489   20.3104 C   0  0  0  0  0  0  0  0  0  1  0  0
  -22.8963  -32.4664   20.0044 C   0  0  1  0  0  0  0  0  0  0  0  0
  -22.7236  -32.9086   16.2435 C   0  0  2  0  0  0  0  0  0  0  0  0
  -21.6269  -32.6426   20.8847 C   0  0  0  0  0  0  0  0  0  0  0  0
  -25.7723  -11.8419   20.8428 N   0  0  0  0  0  0  0  0  0  0  0  0
  -28.5104  -22.5625   20.7458 N   0  0  0  0  0  0  0  0  0  0  0  0
  -26.9654  -12.2759   20.4021 N   0  0  0  0  0  0  0  0  0  0  0  0
  -28.7622  -20.7473   19.2640 N   0  0  0  0  0  0  0  0  0  0  0  0
  -25.2019  -32.3522   20.8962 N   0  0  0  0  0  0  0  0  0  0  0  0
  -27.3052  -15.9969   19.6051 N   0  0  0  0  0  0  0  0  0  0  0  0
  -28.4763  -17.9547   18.8883 N   0  0  0  0  0  0  0  0  0  0  0  0
  -28.9464  -11.5711   19.3114 N   0  0  0  0  0  0  0  0  0  0  0  0
  -26.4671   -7.8014   19.5067 N   0  0  0  0  0  0  0  0  0  0  0  0
  -25.9042  -33.7328   23.8912 N   0  0  0  0  0  0  0  0  0  0  0  0
  -22.7529  -32.9676   18.6418 N   0  0  0  0  0  0  0  0  0  0  0  0
  -23.6270  -32.3767   15.1843 N   0  3  0  0  0  0  0  0  0  0  0  0
  -28.4724   -8.6777   18.8215 O   0  0  0  0  0  0  0  0  0  0  0  0
  -26.0650  -31.4492   23.4651 O   0  0  0  0  0  0  0  0  0  0  0  0
  -24.0709  -34.3861   20.7535 O   0  0  0  0  0  0  0  0  0  0  0  0
  -23.2233  -30.9598   17.5814 O   0  0  0  0  0  0  0  0  0  0  0  0
  -29.1659  -15.8487   18.2506 O   0  0  0  0  0  0  0  0  0  0  0  0
  -21.3805   -7.3163   21.7264 O   0  0  0  0  0  0  0  0  0  0  0  0
  -27.9258  -26.8413   20.2916 O   0  0  0  0  0  0  0  0  0  1  0  0
  -22.3695   -2.3519   23.9129 F   0  0  0  0  0  0  0  0  0  0  0  0
  -20.3887   -6.6402   24.2167 F   0  0  0  0  0  0  0  0  0  0  0  0
  1  2  1  0  0  0  0
  1  5  2  0  0  0  0
  2  6  2  0  0  0  0
  3  8  2  0  0  0  0
  3 16  1  0  0  0  0
  4  9  1  0  0  0  0
  4 16  2  0  0  0  0
  5 18  1  0  0  0  0
  6 20  1  0  0  0  0
  7 10  2  0  0  0  0
  7 19  1  0  0  0  0
  8 24  1  0  0  0  0
  9 24  2  0  0  0  0
 10 25  1  0  0  0  0
 11 12  2  0  0  0  0
 11 26  1  0  0  0  0
 12 27  1  0  0  0  0
 13 21  2  0  0  0  0
 13 23  1  0  0  0  0
 14 22  1  0  0  0  0
 14 25  2  0  0  0  0
 15 27  2  0  0  0  0
 15 28  1  0  0  0  0
 16 29  1  0  0  0  0
 17 29  1  0  0  0  0
 17 32  2  0  0  0  0
 17 33  1  0  0  0  0
 18 20  2  0  0  0  0
 18 38  1  0  0  0  0
 19 22  2  0  0  0  0
 19 39  1  0  0  0  0
 20 54  1  0  0  0  0
 21 31  1  0  0  0  0
 21 53  1  0  0  0  0
 22 40  1  0  0  0  0
 23 30  2  0  0  0  0
 23 63  1  0  0  0  0
 24 84  1  0  0  0  0
 25 85  1  0  0  0  0
 26 28  2  0  0  0  0
 26 84  1  0  0  0  0
 27 86  1  0  0  0  0
 28 87  1  0  0  0  0
 29 67  2  0  0  0  0
 30 57  1  0  0  0  0
 30 68  1  0  0  0  0
 31 68  2  0  0  0  0
 31 70  1  0  0  0  0
 32 69  1  0  0  0  0
 32 74  1  0  0  0  0
 33 75  1  0  0  0  0
 33 79  2  0  0  0  0
 34 55  1  0  0  0  0
 34 76  1  0  0  0  0
 34 80  2  0  0  0  0
 35 64  1  0  0  0  0
 35 71  1  0  0  0  0
 35 81  2  0  0  0  0
 36 65  1  0  0  0  0
 36 77  1  0  0  0  0
 36 82  2  0  0  0  0
 37 72  1  0  0  0  0
 37 73  1  0  0  0  0
 37 83  2  0  0  0  0
 38 41  1  0  0  0  0
 39 55  1  0  0  0  0
 40 71  1  0  0  0  0
 41 45  1  0  0  0  0
 42 46  1  0  0  0  0
 42 47  1  0  0  0  0
 43 44  1  0  0  0  0
 43 53  1  0  0  0  0
 44 53  1  0  0  0  0
 45 54  1  0  0  0  0
 46 56  1  0  0  0  0
 47 72  1  0  0  0  0
 48 50  1  0  0  0  0
 48 70  1  0  0  0  0
 49 51  1  0  0  0  0
 49 70  1  0  0  0  0
 50 73  1  0  0  0  0
 51 73  1  0  0  0  0
 52 56  1  0  0  0  0
 52 72  1  0  0  0  0
 54 76  1  0  0  0  0
 55 71  1  0  0  0  0
 56 69  1  0  0  0  0
 58 65  1  0  0  0  0
 59 66  1  0  0  0  0
 60 66  1  0  0  0  0
 61 66  1  0  0  0  0
 62 78  1  0  0  0  0
 63 85  1  0  0  0  0
 64 66  1  0  0  0  0
 64 77  1  0  0  0  0
 65 78  1  0  0  0  0
 67 69  1  0  0  0  0
M  CHG  1  78   1
M  ISO  4  37 100  63 101  73 100  85 101
M  END
> <Batch ID>
0170

> <Smiles>
CNC(C)C(=O)NC(C(=O)N1Cc2cc([101O:1][101CH2:1]c3cc(C4CC4)c(N4CC[100N:0]([100C:0](=O)N5CCCC(n6nc(-c7ccc(Oc8ccc(F)cc8F)cc7)c(C(N)=O)c6N)C5)CC4)nc3C)ccc2CC1C(=O)NC1CCCc2ccccc21)C(C)(C)C

> <Shape>
0.282

> <Color>
0.087

> <Negative vol penalty>
0.000

$$$$

  -OEChem-04052322353D

 87 97  0     1  0  0  0  0  0999 V2000
  -19.3892  -24.4303   23.9139 C   0  0  0  0  0  0  0  0  0  0  0  0
  -20.6476  -24.4759   23.3224 C   0  0  0  0  0  0  0  0  0  0  0  0
  -24.2370  -12.2991   19.3773 C   0  0  0  0  0  0  0  0  0  0  0  0
  -25.4412  -13.7195   20.9166 C   0  0  0  0  0  0  0  0  0  0  0  0
  -18.5765  -25.5632   23.9091 C   0  0  0  0  0  0  0  0  0  0  0  0
  -21.0936  -25.6542   22.7247 C   0  0  0  0  0  0  0  0  0  0  0  0
  -25.8828  -26.7592   23.9443 C   0  0  0  0  0  0  0  0  0  0  0  0
  -24.7085  -11.1713   20.0490 C   0  0  0  0  0  0  0  0  0  0  0  0
  -25.9127  -12.5916   21.5884 C   0  0  0  0  0  0  0  0  0  0  0  0
  -26.8872  -26.0527   23.2841 C   0  0  0  0  0  0  0  0  0  0  0  0
  -23.9840   -9.4758   22.8834 C   0  0  0  0  0  0  0  0  0  0  0  0
  -23.0702   -8.4608   23.1665 C   0  0  0  0  0  0  0  0  0  0  0  0
  -24.6976  -22.0038   18.6508 C   0  0  0  0  0  0  0  0  0  0  0  0
  -27.2220  -27.9260   21.8016 C   0  0  0  0  0  0  0  0  0  0  0  0
  -24.3880   -6.9109   21.8632 C   0  0  0  0  0  0  0  0  0  0  0  0
  -24.6034  -13.5732   19.8111 C   0  0  0  0  0  0  0  0  0  0  0  0
  -23.4080  -21.5989   18.3245 C   0  0  0  0  0  0  0  0  0  0  0  0
  -24.3265  -15.0724   17.7657 C   0  0  0  0  0  0  0  0  0  0  0  0
  -19.0166  -26.7587   23.3196 C   0  0  0  0  0  0  0  0  0  0  0  0
  -25.5324  -28.0524   23.5304 C   0  0  0  0  0  0  0  0  0  0  0  0
  -20.2854  -26.8037   22.7109 C   0  0  0  0  0  0  0  0  0  0  0  0
  -25.6340  -22.2025   17.6422 C   0  0  0  0  0  0  0  0  0  0  0  0
  -26.2146  -28.6478   22.4598 C   0  0  0  0  0  0  0  0  0  0  0  0
  -25.5464  -11.3175   21.1546 C   0  0  0  0  0  0  0  0  0  0  0  0
  -27.5550  -26.6349   22.2108 C   0  0  0  0  0  0  0  0  0  0  0  0
  -25.0998   -9.2085   22.0901 C   0  0  0  0  0  0  0  0  0  0  0  0
  -23.2722   -7.1783   22.6565 C   0  0  0  0  0  0  0  0  0  0  0  0
  -25.3018   -7.9261   21.5800 C   0  0  0  0  0  0  0  0  0  0  0  0
  -24.1171  -14.7386   19.1172 C   0  0  0  0  0  0  0  0  0  0  0  0
  -25.2339  -21.9845   16.3337 C   0  0  0  0  0  0  0  0  0  0  0  0
  -23.1075  -21.4078   16.9855 C   0  0  0  0  0  0  0  0  0  0  0  0
  -23.6645  -16.2643   17.5999 C   0  0  0  0  0  0  0  0  0  0  0  0
  -22.4175  -21.3885   19.3882 C   0  0  0  0  0  0  0  0  0  0  0  0
  -25.0543  -14.3680   16.7510 C   0  0  0  0  0  0  0  0  0  0  0  0
  -22.8904  -29.4049   22.3928 C   0  0  0  0  0  0  0  0  0  0  0  0
  -24.6362  -32.1259   22.6580 C   0  0  0  0  0  0  0  0  0  0  0  0
  -26.1587  -35.1764   22.5054 C   0  0  0  0  0  0  0  0  0  0  0  0
  -18.0837  -27.9436   23.2974 C   0  0  0  0  0  0  0  0  0  0  0  0
  -24.4651  -28.8115   24.2701 C   0  0  0  0  0  0  0  0  0  0  0  0
  -25.8901  -30.0413   21.9894 C   0  0  0  0  0  0  0  0  0  0  0  0
  -18.7813  -29.2621   22.9729 C   0  0  0  0  0  0  0  0  0  0  0  0
  -20.4270  -18.6977   20.6289 C   0  0  0  0  0  0  0  0  0  0  0  0
  -19.7116  -29.0933   21.7759 C   0  0  0  0  0  0  0  0  0  0  0  0
  -26.0020  -21.4381   13.9284 C   0  0  0  0  0  0  0  0  0  0  0  0
  -27.1274  -21.0577   14.8390 C   0  0  0  0  0  0  0  0  0  0  0  0
  -21.2344  -17.4536   20.2538 C   0  0  0  0  0  0  0  0  0  0  0  0
  -27.7887  -21.6787   18.9069 C   0  0  0  0  0  0  0  0  0  0  0  0
  -21.3345  -19.8658   21.0064 C   0  0  0  0  0  0  0  0  0  0  0  0
  -23.1620  -18.9609   19.6113 C   0  0  0  0  0  0  0  0  0  0  0  0
  -28.9599  -22.5187   19.3718 C   0  0  0  0  0  0  0  0  0  0  0  0
  -27.1063  -23.9817   18.7300 C   0  0  0  0  0  0  0  0  0  0  0  0
  -27.0343  -22.6421   17.9931 C   0  0  2  0  0  0  0  0  0  0  0  0
  -20.8146  -28.0706   22.0743 C   0  0  1  0  0  0  0  0  0  0  0  0
  -26.2071  -22.1864   15.2176 C   0  0  0  0  0  0  0  0  0  0  0  0
  -23.8375  -29.9248   23.4369 C   0  0  1  0  0  0  0  0  0  0  0  0
  -22.2857  -17.7753   19.1750 C   0  0  1  0  0  0  0  0  0  0  0  0
  -21.7389  -20.9727   16.5729 C   0  0  0  0  0  0  0  0  0  0  0  0
  -26.0027  -37.4005   21.3538 C   0  0  0  0  0  0  0  0  0  0  0  0
  -25.8120  -30.8946   20.1260 C   0  0  0  0  0  0  0  0  0  0  0  0
  -26.5046  -33.1927   19.4137 C   0  0  0  0  0  0  0  0  0  0  0  0
  -24.0873  -32.6603   19.7235 C   0  0  0  0  0  0  0  0  0  0  0  0
  -25.7534  -36.6042   25.0659 C   0  0  0  0  0  0  0  0  0  0  0  0
  -29.2949  -25.0128   19.4828 C   0  0  0  0  0  0  0  0  0  0  0  0
  -28.7227  -26.2321   20.1785 C   0  0  0  0  0  0  0  0  0  1  0  0
  -25.5771  -32.8848   21.7538 C   0  0  1  0  0  0  0  0  0  0  0  0
  -25.5992  -36.5859   22.5730 C   0  0  2  0  0  0  0  0  0  0  0  0
  -25.5039  -32.3974   20.2792 C   0  0  0  0  0  0  0  0  0  0  0  0
  -23.3798  -15.6453   19.7640 N   0  0  0  0  0  0  0  0  0  0  0  0
  -23.9904  -21.5909   15.9782 N   0  0  0  0  0  0  0  0  0  0  0  0
  -23.1203  -16.5607   18.8148 N   0  0  0  0  0  0  0  0  0  0  0  0
  -22.3204  -20.1156   19.9555 N   0  0  0  0  0  0  0  0  0  0  0  0
  -24.8346  -30.7404   22.7408 N   0  0  0  0  0  0  0  0  0  0  0  0
  -23.5007  -17.0774   16.5347 N   0  0  0  0  0  0  0  0  0  0  0  0
  -26.4172  -14.6513   16.5878 N   0  0  0  0  0  0  0  0  0  0  0  0
  -21.8423  -28.6630   22.9033 N   0  0  0  0  0  0  0  0  0  0  0  0
  -25.2633  -34.2984   21.9322 N   0  0  0  0  0  0  0  0  0  0  0  0
  -28.3367  -23.8737   19.6161 N   0  3  2  0  0  0  0  0  0  0  0  0
  -26.0993  -37.2839   23.7910 N   0  3  0  0  0  0  0  0  0  0  0  0
  -21.7315  -22.3632   19.6926 O   0  0  0  0  0  0  0  0  0  0  0  0
  -24.5084  -13.5245   15.9999 O   0  0  0  0  0  0  0  0  0  0  0  0
  -23.0945  -29.6592   21.2115 O   0  0  0  0  0  0  0  0  0  0  0  0
  -23.7620  -32.7407   23.2740 O   0  0  0  0  0  0  0  0  0  0  0  0
  -27.2795  -34.8842   22.9165 O   0  0  0  0  0  0  0  0  0  0  0  0
  -26.0065  -10.2172   21.8105 O   0  0  0  0  0  0  0  0  0  0  0  0
  -28.5353  -25.9473   21.5642 O   0  0  0  0  0  0  0  0  0  1  0  0
  -22.3955   -6.2032   22.9297 F   0  0  0  0  0  0  0  0  0  0  0  0
  -26.3724   -7.6629   20.8183 F   0  0  0  0  0  0  0  0  0  0  0  0
  1  2  1  0  0  0  0
  1  5  2  0  0  0  0
  2  6  2  0  0  0  0
  3  8  2  0  0  0  0
  3 16  1  0  0  0  0
  4  9  1  0  0  0  0
  4 16  2  0  0  0  0
  5 19  1  0  0  0  0
  6 21  1  0  0  0  0
  7 10  2  0  0  0  0
  7 20  1  0  0  0  0
  8 24  1  0  0  0  0
  9 24  2  0  0  0  0
 10 25  1  0  0  0  0
 11 12  2  0  0  0  0
 11 26  1  0  0  0  0
 12 27  1  0  0  0  0
 13 17  2  0  0  0  0
 13 22  1  0  0  0  0
 14 23  1  0  0  0  0
 14 25  2  0  0  0  0
 15 27  2  0  0  0  0
 15 28  1  0  0  0  0
 16 29  1  0  0  0  0
 17 31  1  0  0  0  0
 17 33  1  0  0  0  0
 18 29  1  0  0  0  0
 18 32  2  0  0  0  0
 18 34  1  0  0  0  0
 19 21  2  0  0  0  0
 19 38  1  0  0  0  0
 20 23  2  0  0  0  0
 20 39  1  0  0  0  0
 21 53  1  0  0  0  0
 22 30  2  0  0  0  0
 22 52  1  0  0  0  0
 23 40  1  0  0  0  0
 24 84  1  0  0  0  0
 25 85  1  0  0  0  0
 26 28  2  0  0  0  0
 26 84  1  0  0  0  0
 27 86  1  0  0  0  0
 28 87  1  0  0  0  0
 29 68  2  0  0  0  0
 30 54  1  0  0  0  0
 30 69  1  0  0  0  0
 31 57  1  0  0  0  0
 31 69  2  0  0  0  0
 32 70  1  0  0  0  0
 32 73  1  0  0  0  0
 33 71  1  0  0  0  0
 33 79  2  0  0  0  0
 34 74  1  0  0  0  0
 34 80  2  0  0  0  0
 35 55  1  0  0  0  0
 35 75  1  0  0  0  0
 35 81  2  0  0  0  0
 36 65  1  0  0  0  0
 36 72  1  0  0  0  0
 36 82  2  0  0  0  0
 37 66  1  0  0  0  0
 37 76  1  0  0  0  0
 37 83  2  0  0  0  0
 38 41  1  0  0  0  0
 39 55  1  0  0  0  0
 40 72  1  0  0  0  0
 41 43  1  0  0  0  0
 42 46  1  0  0  0  0
 42 48  1  0  0  0  0
 43 53  1  0  0  0  0
 44 45  1  0  0  0  0
 44 54  1  0  0  0  0
 45 54  1  0  0  0  0
 46 56  1  0  0  0  0
 47 50  1  0  0  0  0
 47 52  1  0  0  0  0
 48 71  1  0  0  0  0
 49 56  1  0  0  0  0
 49 71  1  0  0  0  0
 50 77  1  0  0  0  0
 51 52  1  0  0  0  0
 51 77  1  0  0  0  0
 53 75  1  0  0  0  0
 55 72  1  0  0  0  0
 56 70  1  0  0  0  0
 58 66  1  0  0  0  0
 59 67  1  0  0  0  0
 60 67  1  0  0  0  0
 61 67  1  0  0  0  0
 62 78  1  0  0  0  0
 63 64  1  0  0  0  0
 63 77  1  0  0  0  0
 64 85  1  0  0  0  0
 65 67  1  0  0  0  0
 65 76  1  0  0  0  0
 66 78  1  0  0  0  0
 68 70  1  0  0  0  0
M  CHG  2  77   1  78   1
M  ISO  4  17 100  33 100  64 101  85 101
M  END
> <Batch ID>
0170

> <Smiles>
CNC(C)C(=O)NC(C(=O)N1Cc2cc([101O:1][101CH2:1]CN3CCC(c4c[100c:0]([100C:0](=O)N5CCCC(n6nc(-c7ccc(Oc8ccc(F)cc8F)cc7)c(C(N)=O)c6N)C5)c(C)nc4C4CC4)C3)ccc2CC1C(=O)NC1CCCc2ccccc21)C(C)(C)C

> <Shape>
0.208

> <Color>
0.098

> <Negative vol penalty>
0.000

$$$$

  -OEChem-04052322353D

 85 94  0     1  0  0  0  0  0999 V2000
  -37.2465  -23.2598   18.9971 C   0  0  0  0  0  0  0  0  0  0  0  0
  -36.6806  -22.5919   17.9159 C   0  0  0  0  0  0  0  0  0  0  0  0
  -23.2927   -9.7968   19.8981 C   0  0  0  0  0  0  0  0  0  0  0  0
  -23.7017   -9.9358   22.2751 C   0  0  0  0  0  0  0  0  0  0  0  0
  -36.4383  -23.6958   20.0462 C   0  0  0  0  0  0  0  0  0  0  0  0
  -35.3062  -22.3587   17.8836 C   0  0  0  0  0  0  0  0  0  0  0  0
  -31.6941  -22.3181   12.9383 C   0  0  0  0  0  0  0  0  0  0  0  0
  -22.5566   -8.6282   20.0930 C   0  0  0  0  0  0  0  0  0  0  0  0
  -22.9656   -8.7671   22.4701 C   0  0  0  0  0  0  0  0  0  0  0  0
  -31.1913  -21.2820   12.1524 C   0  0  0  0  0  0  0  0  0  0  0  0
  -20.2666   -5.8063   20.0054 C   0  0  0  0  0  0  0  0  0  0  0  0
  -19.0504   -5.6861   19.3330 C   0  0  0  0  0  0  0  0  0  0  0  0
  -29.1421  -21.3197   13.4246 C   0  0  0  0  0  0  0  0  0  0  0  0
  -18.2338   -7.6629   20.4567 C   0  0  0  0  0  0  0  0  0  0  0  0
  -30.7837  -16.8470   10.6620 C   0  0  0  0  0  0  0  0  0  0  0  0
  -23.8653  -10.4506   20.9891 C   0  0  0  0  0  0  0  0  0  0  0  0
  -24.1414  -12.9792   20.7947 C   0  0  0  0  0  0  0  0  0  0  0  0
  -35.0520  -23.4763   20.0223 C   0  0  0  0  0  0  0  0  0  0  0  0
  -30.9276  -22.8563   13.9819 C   0  0  0  0  0  0  0  0  0  0  0  0
  -34.4789  -22.7910   18.9340 C   0  0  0  0  0  0  0  0  0  0  0  0
  -29.6364  -22.3643   14.2206 C   0  0  0  0  0  0  0  0  0  0  0  0
  -31.9046  -16.2007   11.1345 C   0  0  0  0  0  0  0  0  0  0  0  0
  -31.6569  -15.8578   12.4865 C   0  0  0  0  0  0  0  0  0  0  0  0
  -22.3930   -8.1133   21.3790 C   0  0  0  0  0  0  0  0  0  0  0  0
  -29.9163  -20.7807   12.3974 C   0  0  0  0  0  0  0  0  0  0  0  0
  -20.4664   -6.8547   20.9035 C   0  0  0  0  0  0  0  0  0  0  0  0
  -18.0340   -6.6144   19.5587 C   0  0  0  0  0  0  0  0  0  0  0  0
  -19.4500   -7.7830   21.1291 C   0  0  0  0  0  0  0  0  0  0  0  0
  -24.6263  -11.6575   20.7883 C   0  0  0  0  0  0  0  0  0  0  0  0
  -30.3920  -16.3047   12.7992 C   0  0  0  0  0  0  0  0  0  0  0  0
  -25.2513  -13.7532   20.5593 C   0  0  0  0  0  0  0  0  0  0  0  0
  -22.8071  -13.4638   20.9954 C   0  0  0  0  0  0  0  0  0  0  0  0
  -31.2619  -23.0600   17.1363 C   0  0  0  0  0  0  0  0  0  0  0  0
  -28.5758  -24.8648   16.9133 C   0  0  0  0  0  0  0  0  0  0  0  0
  -25.7586  -25.6624   15.1600 C   0  0  0  0  0  0  0  0  0  0  0  0
  -29.9442  -14.8599   17.9571 C   0  0  0  0  0  0  0  0  0  0  0  0
  -34.2256  -23.9244   21.2017 C   0  0  0  0  0  0  0  0  0  0  0  0
  -31.4739  -23.9917   14.8033 C   0  0  0  0  0  0  0  0  0  0  0  0
  -28.7654  -22.9212   15.3158 C   0  0  0  0  0  0  0  0  0  0  0  0
  -32.7271  -23.9684   20.9139 C   0  0  0  0  0  0  0  0  0  0  0  0
  -30.1605  -12.5650   20.5329 C   0  0  0  0  0  0  0  0  0  0  0  0
  -32.2823  -22.6940   20.2034 C   0  0  0  0  0  0  0  0  0  0  0  0
  -28.7023  -12.2252   20.8402 C   0  0  0  0  0  0  0  0  0  0  0  0
  -29.3397  -14.7504   14.5016 C   0  0  0  0  0  0  0  0  0  0  0  0
  -30.3081  -16.9689   15.2435 C   0  0  0  0  0  0  0  0  0  0  0  0
  -30.3904  -12.6735   19.0300 C   0  0  0  0  0  0  0  0  0  0  0  0
  -28.5821  -14.6620   15.8296 C   0  0  0  0  0  0  0  0  0  0  0  0
  -29.5102  -16.8414   16.5380 C   0  0  0  0  0  0  0  0  0  0  0  0
  -28.0382  -13.3382   18.6514 C   0  0  0  0  0  0  0  0  0  0  0  0
  -32.9887  -22.5411   18.8509 C   0  0  1  0  0  0  0  0  0  0  0  0
  -29.6136  -16.2104   14.0979 C   0  0  0  0  0  0  0  0  0  0  0  0
  -30.8064  -24.1161   16.1695 C   0  0  1  0  0  0  0  0  0  0  0  0
  -27.7471  -13.2230   20.1615 C   0  0  1  0  0  0  0  0  0  0  0  0
  -33.1331  -15.9228   10.3638 C   0  0  0  0  0  0  0  0  0  0  0  0
  -32.5827  -15.1512   13.3958 C   0  0  0  0  0  0  0  0  0  0  0  0
  -23.7381  -27.1481   15.2480 C   0  0  0  0  0  0  0  0  0  0  0  0
  -27.3181  -23.0267   18.9988 C   0  0  0  0  0  0  0  0  0  0  0  0
  -25.0785  -23.9390   18.3508 C   0  0  0  0  0  0  0  0  0  0  0  0
  -26.8117  -25.4562   19.3084 C   0  0  0  0  0  0  0  0  0  0  0  0
  -26.5200  -27.0416   12.6546 C   0  0  0  0  0  0  0  0  0  0  0  0
  -28.5612  -17.5097   11.5782 C   0  0  0  0  0  0  0  0  0  0  0  0
  -28.4991  -18.8764   12.2514 C   0  0  0  0  0  0  0  0  0  1  0  0
  -27.0930  -24.5842   16.9520 C   0  0  1  0  0  0  0  0  0  0  0  0
  -25.1694  -27.0016   14.7553 C   0  0  2  0  0  0  0  0  0  0  0  0
  -26.5922  -24.2395   18.3830 C   0  0  0  0  0  0  0  0  0  0  0  0
  -25.9417  -11.5920   20.5663 N   0  0  0  0  0  0  0  0  0  0  0  0
  -29.8706  -16.9041   11.6825 N   0  0  0  0  0  0  0  0  0  0  0  0
  -26.2929  -12.8821   20.4309 N   0  0  0  0  0  0  0  0  0  0  0  0
  -29.3467  -24.0264   16.0956 N   0  0  0  0  0  0  0  0  0  0  0  0
  -29.4625  -13.6271   18.4223 N   0  0  0  0  0  0  0  0  0  0  0  0
  -29.2689  -15.4379   16.8716 N   0  0  0  0  0  0  0  0  0  0  0  0
  -25.4282  -15.0872   20.4516 N   0  0  0  0  0  0  0  0  0  0  0  0
  -21.7854  -12.5323   21.2250 N   0  0  0  0  0  0  0  0  0  0  0  0
  -32.3837  -23.4093   17.8638 N   0  0  0  0  0  0  0  0  0  0  0  0
  -26.4421  -25.7452   16.3547 N   0  0  0  0  0  0  0  0  0  0  0  0
  -25.1723  -27.1418   13.2716 N   0  3  0  0  0  0  0  0  0  0  0  0
  -22.5262  -14.6857   20.9557 O   0  0  0  0  0  0  0  0  0  0  0  0
  -30.6407  -22.0068   17.2175 O   0  0  0  0  0  0  0  0  0  0  0  0
  -29.0322  -25.7981   17.5783 O   0  0  0  0  0  0  0  0  0  0  0  0
  -25.6227  -24.6438   14.4858 O   0  0  0  0  0  0  0  0  0  0  0  0
  -30.9197  -15.4127   18.4807 O   0  0  0  0  0  0  0  0  0  0  0  0
  -21.6746   -6.9731   21.5697 O   0  0  0  0  0  0  0  0  0  0  0  0
  -29.4199  -19.7619   11.6269 O   0  0  0  0  0  0  0  0  0  1  0  0
  -16.8668   -6.4997   18.9118 F   0  0  0  0  0  0  0  0  0  0  0  0
  -19.6365   -8.7931   21.9899 F   0  0  0  0  0  0  0  0  0  0  0  0
  1  2  1  0  0  0  0
  1  5  2  0  0  0  0
  2  6  2  0  0  0  0
  3  8  2  0  0  0  0
  3 16  1  0  0  0  0
  4  9  1  0  0  0  0
  4 16  2  0  0  0  0
  5 18  1  0  0  0  0
  6 20  1  0  0  0  0
  7 10  2  0  0  0  0
  7 19  1  0  0  0  0
  8 24  1  0  0  0  0
  9 24  2  0  0  0  0
 10 25  1  0  0  0  0
 11 12  2  0  0  0  0
 11 26  1  0  0  0  0
 12 27  1  0  0  0  0
 13 21  1  0  0  0  0
 13 25  2  0  0  0  0
 14 27  2  0  0  0  0
 14 28  1  0  0  0  0
 15 22  2  0  0  0  0
 15 67  1  0  0  0  0
 16 29  1  0  0  0  0
 17 29  1  0  0  0  0
 17 31  2  0  0  0  0
 17 32  1  0  0  0  0
 18 20  2  0  0  0  0
 18 37  1  0  0  0  0
 19 21  2  0  0  0  0
 19 38  1  0  0  0  0
 20 50  1  0  0  0  0
 21 39  1  0  0  0  0
 22 23  1  0  0  0  0
 22 54  1  0  0  0  0
 23 30  2  0  0  0  0
 23 55  1  0  0  0  0
 24 82  1  0  0  0  0
 25 83  1  0  0  0  0
 26 28  2  0  0  0  0
 26 82  1  0  0  0  0
 27 84  1  0  0  0  0
 28 85  1  0  0  0  0
 29 66  2  0  0  0  0
 30 51  1  0  0  0  0
 30 67  1  0  0  0  0
 31 68  1  0  0  0  0
 31 72  1  0  0  0  0
 32 73  1  0  0  0  0
 32 77  2  0  0  0  0
 33 52  1  0  0  0  0
 33 74  1  0  0  0  0
 33 78  2  0  0  0  0
 34 63  1  0  0  0  0
 34 69  1  0  0  0  0
 34 79  2  0  0  0  0
 35 64  1  0  0  0  0
 35 75  1  0  0  0  0
 35 80  2  0  0  0  0
 36 70  1  0  0  0  0
 36 71  1  0  0  0  0
 36 81  2  0  0  0  0
 37 40  1  0  0  0  0
 38 52  1  0  0  0  0
 39 69  1  0  0  0  0
 40 42  1  0  0  0  0
 41 43  1  0  0  0  0
 41 46  1  0  0  0  0
 42 50  1  0  0  0  0
 43 53  1  0  0  0  0
 44 47  1  0  0  0  0
 44 51  1  0  0  0  0
 45 48  1  0  0  0  0
 45 51  1  0  0  0  0
 46 70  1  0  0  0  0
 47 71  1  0  0  0  0
 48 71  1  0  0  0  0
 49 53  1  0  0  0  0
 49 70  1  0  0  0  0
 50 74  1  0  0  0  0
 52 69  1  0  0  0  0
 53 68  1  0  0  0  0
 56 64  1  0  0  0  0
 57 65  1  0  0  0  0
 58 65  1  0  0  0  0
 59 65  1  0  0  0  0
 60 76  1  0  0  0  0
 61 62  1  0  0  0  0
 61 67  1  0  0  0  0
 62 83  1  0  0  0  0
 63 65  1  0  0  0  0
 63 75  1  0  0  0  0
 64 76  1  0  0  0  0
 66 68  1  0  0  0  0
M  CHG  1  76   1
M  ISO  4  36 100  62 101  71 100  83 101
M  END
> <Batch ID>
0170

> <Smiles>
CNC(C)C(=O)NC(C(=O)N1Cc2cc([101O:1][101CH2:1]Cn3cc(C)c(C)c3C3CC[100N:0]([100C:0](=O)N4CCCC(n5nc(-c6ccc(Oc7ccc(F)cc7F)cc6)c(C(N)=O)c5N)C4)CC3)ccc2CC1C(=O)NC1CCCc2ccccc21)C(C)(C)C

> <Shape>
0.139

> <Color>
0.181

> <Negative vol penalty>
0.000

$$$$

  -OEChem-04052322353D

 89100  0     1  0  0  0  0  0999 V2000
  -18.2090  -24.8570   23.8256 C   0  0  0  0  0  0  0  0  0  0  0  0
  -19.4738  -24.5929   23.3099 C   0  0  0  0  0  0  0  0  0  0  0  0
  -22.0895  -15.1415   21.6841 C   0  0  0  0  0  0  0  0  0  0  0  0
  -22.2705  -15.7752   19.3597 C   0  0  0  0  0  0  0  0  0  0  0  0
  -17.6671  -26.1372   23.7185 C   0  0  0  0  0  0  0  0  0  0  0  0
  -20.1971  -25.6087   22.6858 C   0  0  0  0  0  0  0  0  0  0  0  0
  -32.0983  -22.8426   19.3343 C   0  0  0  0  0  0  0  0  0  0  0  0
  -32.0672  -24.2369   19.3519 C   0  0  0  0  0  0  0  0  0  0  0  0
  -26.2689  -26.4012   22.7864 C   0  0  0  0  0  0  0  0  0  0  0  0
  -20.7944  -15.6580   21.7240 C   0  0  0  0  0  0  0  0  0  0  0  0
  -20.9754  -16.2916   19.3996 C   0  0  0  0  0  0  0  0  0  0  0  0
  -27.2732  -26.0708   21.8776 C   0  0  0  0  0  0  0  0  0  0  0  0
  -19.3308  -18.6944   21.9736 C   0  0  0  0  0  0  0  0  0  0  0  0
  -18.9824  -19.4843   23.0692 C   0  0  0  0  0  0  0  0  0  0  0  0
  -31.3942  -22.7976   21.6450 C   0  0  0  0  0  0  0  0  0  0  0  0
  -27.1794  -28.3043   20.9711 C   0  0  0  0  0  0  0  0  0  0  0  0
  -17.2243  -17.9261   23.6335 C   0  0  0  0  0  0  0  0  0  0  0  0
  -22.8276  -15.2002   20.5019 C   0  0  0  0  0  0  0  0  0  0  0  0
  -24.5474  -13.3528   20.1313 C   0  0  0  0  0  0  0  0  0  0  0  0
  -31.7618  -22.1229   20.4808 C   0  0  0  0  0  0  0  0  0  0  0  0
  -18.3881  -27.1715   23.1013 C   0  0  0  0  0  0  0  0  0  0  0  0
  -25.7038  -27.6846   22.7872 C   0  0  0  0  0  0  0  0  0  0  0  0
  -31.6996  -24.9117   20.5161 C   0  0  0  0  0  0  0  0  0  0  0  0
  -19.6638  -26.9036   22.5691 C   0  0  0  0  0  0  0  0  0  0  0  0
  -31.3631  -24.1920   21.6626 C   0  0  0  0  0  0  0  0  0  0  0  0
  -26.1699  -28.6493   21.8827 C   0  0  0  0  0  0  0  0  0  0  0  0
  -20.2374  -16.2330   20.5818 C   0  0  0  0  0  0  0  0  0  0  0  0
  -27.7266  -27.0215   20.9678 C   0  0  0  0  0  0  0  0  0  0  0  0
  -18.6259  -17.5204   21.7080 C   0  0  0  0  0  0  0  0  0  0  0  0
  -17.9292  -19.1002   23.8992 C   0  0  0  0  0  0  0  0  0  0  0  0
  -17.5727  -17.1363   22.5379 C   0  0  0  0  0  0  0  0  0  0  0  0
  -24.1657  -14.6674   20.4602 C   0  0  0  0  0  0  0  0  0  0  0  0
  -25.9167  -13.3561   20.2380 C   0  0  0  0  0  0  0  0  0  0  0  0
  -23.7367  -12.2293   19.7624 C   0  0  0  0  0  0  0  0  0  0  0  0
  -22.7901  -28.8528   22.2877 C   0  0  0  0  0  0  0  0  0  0  0  0
  -24.1786  -31.6434   23.1859 C   0  0  0  0  0  0  0  0  0  0  0  0
  -27.0309  -33.4906   23.5009 C   0  0  0  0  0  0  0  0  0  0  0  0
  -29.7996  -17.8338   19.7288 C   0  0  0  0  0  0  0  0  0  0  0  0
  -17.7414  -28.5274   22.9672 C   0  0  0  0  0  0  0  0  0  0  0  0
  -24.6400  -28.0333   23.7918 C   0  0  0  0  0  0  0  0  0  0  0  0
  -25.6103  -30.0474   21.8562 C   0  0  0  0  0  0  0  0  0  0  0  0
  -18.7272  -29.6412   22.6240 C   0  0  0  0  0  0  0  0  0  0  0  0
  -29.5062  -15.4760   22.5340 C   0  0  0  0  0  0  0  0  0  0  0  0
  -32.0430  -25.3571   23.8659 C   0  0  0  0  0  0  0  0  0  0  0  0
  -31.1677  -24.2019   24.2395 C   0  0  0  0  0  0  0  0  0  0  0  0
  -19.6548  -29.2039   21.4948 C   0  0  0  0  0  0  0  0  0  0  0  0
  -28.0952  -14.9400   22.3191 C   0  0  0  0  0  0  0  0  0  0  0  0
  -29.6486  -16.9354   22.1014 C   0  0  0  0  0  0  0  0  0  0  0  0
  -30.7076  -19.7529   21.2261 C   0  0  0  0  0  0  0  0  0  0  0  0
  -31.3248  -19.7929   19.1935 C   0  0  0  0  0  0  0  0  0  0  0  0
  -27.7739  -16.6443   20.4941 C   0  0  0  0  0  0  0  0  0  0  0  0
  -32.9233  -27.2044   19.9902 C   0  0  0  0  0  0  0  0  0  0  0  0
  -31.7976  -20.5375   20.4591 C   0  0  0  0  0  0  0  0  0  0  0  0
  -31.6738  -26.4658   20.5124 C   0  0  1  0  0  0  0  0  0  0  0  0
  -30.9680  -24.8955   22.9180 C   0  0  0  0  0  0  0  0  0  0  0  0
  -20.4894  -27.9853   21.9070 C   0  0  1  0  0  0  0  0  0  0  0  0
  -23.7764  -29.2151   23.3618 C   0  0  1  0  0  0  0  0  0  0  0  0
  -27.6552  -15.1598   20.8645 C   0  0  2  0  0  0  0  0  0  0  0  0
  -30.9367  -27.1720   19.3463 C   0  0  1  0  0  0  0  0  0  0  0  0
  -27.8443  -35.7497   24.2304 C   0  0  0  0  0  0  0  0  0  0  0  0
  -23.1250  -32.8575   20.5925 C   0  0  0  0  0  0  0  0  0  0  0  0
  -24.7260  -34.7556   20.9123 C   0  0  0  0  0  0  0  0  0  0  0  0
  -22.9307  -34.3437   22.5945 C   0  0  0  0  0  0  0  0  0  0  0  0
  -32.4478  -28.5991   18.0366 C   0  0  0  0  0  0  0  0  0  0  0  0
  -28.7266  -32.3221   25.6266 C   0  0  0  0  0  0  0  0  0  0  0  0
  -29.5704  -27.7522   19.6555 C   0  0  0  0  0  0  0  0  0  1  0  0
  -24.8973  -32.7598   22.4675 C   0  0  1  0  0  0  0  0  0  0  0  0
  -27.5755  -34.3141   24.6541 C   0  0  2  0  0  0  0  0  0  0  0  0
  -23.9292  -33.6523   21.6407 C   0  0  0  0  0  0  0  0  0  0  0  0
  -25.2083  -15.4488   20.7539 N   0  0  0  0  0  0  0  0  0  0  0  0
  -26.2586  -14.6229   20.6101 N   0  0  0  0  0  0  0  0  0  0  0  0
  -24.5674  -30.3379   22.8540 N   0  0  0  0  0  0  0  0  0  0  0  0
  -29.1188  -17.1688   20.7540 N   0  0  0  0  0  0  0  0  0  0  0  0
  -30.6716  -18.8418   20.0885 N   0  0  0  0  0  0  0  0  0  0  0  0
  -26.8497  -12.3988   20.0490 N   0  0  0  0  0  0  0  0  0  0  0  0
  -22.3469  -12.3996   19.7013 N   0  0  0  0  0  0  0  0  0  0  0  0
  -21.5807  -28.3880   22.7680 N   0  0  0  0  0  0  0  0  0  0  0  0
  -25.6522  -33.4814   23.4862 N   0  0  0  0  0  0  0  0  0  0  0  0
  -32.0094  -28.1952   19.3913 N   0  3  2  0  0  0  0  0  0  0  0  0
  -28.8497  -33.7253   25.1546 N   0  3  0  0  0  0  0  0  0  0  0  0
  -24.2289  -11.1033   19.5107 O   0  0  0  0  0  0  0  0  0  0  0  0
  -23.1027  -28.9865   21.1104 O   0  0  0  0  0  0  0  0  0  0  0  0
  -23.3094  -31.9197   24.0165 O   0  0  0  0  0  0  0  0  0  0  0  0
  -27.7561  -32.9162   22.6918 O   0  0  0  0  0  0  0  0  0  0  0  0
  -29.6146  -17.5649   18.5350 O   0  0  0  0  0  0  0  0  0  0  0  0
  -18.9735  -16.7368   20.6204 O   0  0  0  0  0  0  0  0  0  0  0  0
  -28.7136  -26.6990   20.0724 O   0  0  0  0  0  0  0  0  0  1  0  0
  -17.5957  -19.8580   24.9521 F   0  0  0  0  0  0  0  0  0  0  0  0
  -16.8926  -16.0088   22.2884 F   0  0  0  0  0  0  0  0  0  0  0  0
  1  2  1  0  0  0  0
  1  5  2  0  0  0  0
  2  6  2  0  0  0  0
  3 10  2  0  0  0  0
  3 18  1  0  0  0  0
  4 11  1  0  0  0  0
  4 18  2  0  0  0  0
  5 21  1  0  0  0  0
  6 24  1  0  0  0  0
  7  8  2  0  0  0  0
  7 20  1  0  0  0  0
  8 23  1  0  0  0  0
  9 12  2  0  0  0  0
  9 22  1  0  0  0  0
 10 27  1  0  0  0  0
 11 27  2  0  0  0  0
 12 28  1  0  0  0  0
 13 14  2  0  0  0  0
 13 29  1  0  0  0  0
 14 30  1  0  0  0  0
 15 20  2  0  0  0  0
 15 25  1  0  0  0  0
 16 26  1  0  0  0  0
 16 28  2  0  0  0  0
 17 30  2  0  0  0  0
 17 31  1  0  0  0  0
 18 32  1  0  0  0  0
 19 32  1  0  0  0  0
 19 33  2  0  0  0  0
 19 34  1  0  0  0  0
 20 53  1  0  0  0  0
 21 24  2  0  0  0  0
 21 39  1  0  0  0  0
 22 26  2  0  0  0  0
 22 40  1  0  0  0  0
 23 25  2  0  0  0  0
 23 54  1  0  0  0  0
 24 56  1  0  0  0  0
 25 55  1  0  0  0  0
 26 41  1  0  0  0  0
 27 86  1  0  0  0  0
 28 87  1  0  0  0  0
 29 31  2  0  0  0  0
 29 86  1  0  0  0  0
 30 88  1  0  0  0  0
 31 89  1  0  0  0  0
 32 70  2  0  0  0  0
 33 71  1  0  0  0  0
 33 75  1  0  0  0  0
 34 76  1  0  0  0  0
 34 81  2  0  0  0  0
 35 57  1  0  0  0  0
 35 77  1  0  0  0  0
 35 82  2  0  0  0  0
 36 67  1  0  0  0  0
 36 72  1  0  0  0  0
 36 83  2  0  0  0  0
 37 68  1  0  0  0  0
 37 78  1  0  0  0  0
 37 84  2  0  0  0  0
 38 73  1  0  0  0  0
 38 74  1  0  0  0  0
 38 85  2  0  0  0  0
 39 42  1  0  0  0  0
 40 57  1  0  0  0  0
 41 72  1  0  0  0  0
 42 46  1  0  0  0  0
 43 47  1  0  0  0  0
 43 48  1  0  0  0  0
 44 45  1  0  0  0  0
 44 55  1  0  0  0  0
 45 55  1  0  0  0  0
 46 56  1  0  0  0  0
 47 58  1  0  0  0  0
 48 73  1  0  0  0  0
 49 53  1  0  0  0  0
 49 74  1  0  0  0  0
 50 53  1  0  0  0  0
 50 74  1  0  0  0  0
 51 58  1  0  0  0  0
 51 73  1  0  0  0  0
 52 54  1  0  0  0  0
 52 79  1  0  0  0  0
 54 59  1  0  0  0  0
 56 77  1  0  0  0  0
 57 72  1  0  0  0  0
 58 71  1  0  0  0  0
 59 66  1  0  0  0  0
 59 79  1  0  0  0  0
 60 68  1  0  0  0  0
 61 69  1  0  0  0  0
 62 69  1  0  0  0  0
 63 69  1  0  0  0  0
 64 79  1  0  0  0  0
 65 80  1  0  0  0  0
 66 87  1  0  0  0  0
 67 69  1  0  0  0  0
 67 78  1  0  0  0  0
 68 80  1  0  0  0  0
 70 71  1  0  0  0  0
M  CHG  2  79   1  80   1
M  ISO  4  38 100  66 101  74 100  87 101
M  END
> <Batch ID>
0170

> <Smiles>
CNC(C)C(=O)NC(C(=O)N1Cc2cc([101O:1][101CH2:1]C3C(c4ccc(C5C[100N:0]([100C:0](=O)N6CCCC(n7nc(-c8ccc(Oc9ccc(F)cc9F)cc8)c(C(N)=O)c7N)C6)C5)cc4C4CC4)CN3C)ccc2CC1C(=O)NC1CCCc2ccccc21)C(C)(C)C

> <Shape>
0.249

> <Color>
0.085

> <Negative vol penalty>
0.000

$$$$

  -OEChem-04052322353D

 86 95  0     1  0  0  0  0  0999 V2000
  -30.5608  -34.9856   18.8514 C   0  0  0  0  0  0  0  0  0  0  0  0
  -30.5990  -33.6031   19.0017 C   0  0  0  0  0  0  0  0  0  0  0  0
  -23.9713  -15.6994   20.9416 C   0  0  0  0  0  0  0  0  0  0  0  0
  -22.9904  -14.5031   19.0859 C   0  0  0  0  0  0  0  0  0  0  0  0
  -29.6932  -35.7470   19.6333 C   0  0  0  0  0  0  0  0  0  0  0  0
  -29.7701  -32.9812   19.9349 C   0  0  0  0  0  0  0  0  0  0  0  0
  -27.1170  -27.4859   19.4175 C   0  0  0  0  0  0  0  0  0  0  0  0
  -23.1543  -16.7959   20.6667 C   0  0  0  0  0  0  0  0  0  0  0  0
  -22.1733  -15.5997   18.8110 C   0  0  0  0  0  0  0  0  0  0  0  0
  -27.4607  -26.2281   19.9112 C   0  0  0  0  0  0  0  0  0  0  0  0
  -21.0712  -19.7751   20.6757 C   0  0  0  0  0  0  0  0  0  0  0  0
  -20.4346  -20.3952   21.7508 C   0  0  0  0  0  0  0  0  0  0  0  0
  -25.9789  -26.5653   21.7847 C   0  0  0  0  0  0  0  0  0  0  0  0
  -27.1548  -19.7259   18.2783 C   0  0  0  0  0  0  0  0  0  0  0  0
  -28.7783  -20.3103   20.4704 C   0  0  0  0  0  0  0  0  0  0  0  0
  -19.3041  -18.3255   22.2752 C   0  0  0  0  0  0  0  0  0  0  0  0
  -23.8895  -14.5530   20.1512 C   0  0  0  0  0  0  0  0  0  0  0  0
  -24.4450  -12.3364   21.2852 C   0  0  0  0  0  0  0  0  0  0  0  0
  -28.8464  -35.1332   20.5697 C   0  0  0  0  0  0  0  0  0  0  0  0
  -26.2084  -28.2986   20.1105 C   0  0  0  0  0  0  0  0  0  0  0  0
  -28.8913  -33.7353   20.7310 C   0  0  0  0  0  0  0  0  0  0  0  0
  -25.6234  -27.8319   21.2963 C   0  0  0  0  0  0  0  0  0  0  0  0
  -28.3153  -18.9857   18.5037 C   0  0  0  0  0  0  0  0  0  0  0  0
  -29.1270  -19.2778   19.5997 C   0  0  0  0  0  0  0  0  0  0  0  0
  -27.6178  -21.0506   20.2450 C   0  0  0  0  0  0  0  0  0  0  0  0
  -22.2552  -16.7460   19.6014 C   0  0  0  0  0  0  0  0  0  0  0  0
  -26.8938  -25.7688   21.0964 C   0  0  0  0  0  0  0  0  0  0  0  0
  -20.8242  -18.4302   20.4003 C   0  0  0  0  0  0  0  0  0  0  0  0
  -26.8060  -20.7585   19.1489 C   0  0  0  0  0  0  0  0  0  0  0  0
  -19.5511  -19.6704   22.5505 C   0  0  0  0  0  0  0  0  0  0  0  0
  -19.9407  -17.7054   21.2000 C   0  0  0  0  0  0  0  0  0  0  0  0
  -24.7336  -13.4201   20.4343 C   0  0  0  0  0  0  0  0  0  0  0  0
  -25.5586  -11.5359   21.2115 C   0  0  0  0  0  0  0  0  0  0  0  0
  -23.2748  -12.0766   22.0719 C   0  0  0  0  0  0  0  0  0  0  0  0
  -26.3586  -31.1557   21.4955 C   0  0  0  0  0  0  0  0  0  0  0  0
  -23.1686  -30.7070   21.8762 C   0  0  0  0  0  0  0  0  0  0  0  0
  -20.5581  -28.5215   22.1117 C   0  0  0  0  0  0  0  0  0  0  0  0
  -28.2912  -14.1481   17.1536 C   0  0  0  0  0  0  0  0  0  0  0  0
  -27.9593  -36.0024   21.4255 C   0  0  0  0  0  0  0  0  0  0  0  0
  -25.8278  -29.6418   19.5507 C   0  0  0  0  0  0  0  0  0  0  0  0
  -24.6273  -28.6574   22.0676 C   0  0  0  0  0  0  0  0  0  0  0  0
  -26.8448  -35.2308   22.1274 C   0  0  0  0  0  0  0  0  0  0  0  0
  -30.1202  -12.6802   20.2005 C   0  0  0  0  0  0  0  0  0  0  0  0
  -27.3967  -33.9626   22.7707 C   0  0  0  0  0  0  0  0  0  0  0  0
  -28.8915  -12.1331   20.9148 C   0  0  0  0  0  0  0  0  0  0  0  0
  -27.6759  -17.6701   16.4065 C   0  0  0  0  0  0  0  0  0  0  0  0
  -29.7236  -13.8013   19.2442 C   0  0  0  0  0  0  0  0  0  0  0  0
  -28.0071  -16.2670   15.9263 C   0  0  0  0  0  0  0  0  0  0  0  0
  -28.7579  -16.4829   18.1897 C   0  0  0  0  0  0  0  0  0  0  0  0
  -28.1069  -12.0779   18.4647 C   0  0  0  0  0  0  0  0  0  0  0  0
  -28.6720  -17.8749   17.5479 C   0  0  2  0  0  0  0  0  0  0  0  0
  -27.9898  -33.0217   21.7150 C   0  0  1  0  0  0  0  0  0  0  0  0
  -25.2826  -30.5971   20.6079 C   0  0  1  0  0  0  0  0  0  0  0  0
  -27.7953  -11.6961   19.9250 C   0  0  2  0  0  0  0  0  0  0  0  0
  -30.3739  -18.4983   19.8612 C   0  0  0  0  0  0  0  0  0  0  0  0
  -18.0738  -28.4503   22.4594 C   0  0  0  0  0  0  0  0  0  0  0  0
  -23.5708  -31.2696   24.8480 C   0  0  0  0  0  0  0  0  0  0  0  0
  -21.3145  -30.2705   25.2712 C   0  0  0  0  0  0  0  0  0  0  0  0
  -21.5263  -32.3137   23.8559 C   0  0  0  0  0  0  0  0  0  0  0  0
  -20.1098  -27.2416   19.4811 C   0  0  0  0  0  0  0  0  0  0  0  0
  -24.8985  -21.1052   17.7716 C   0  0  0  0  0  0  0  0  0  0  0  0
  -27.2605  -22.1531   21.1865 C   0  0  0  0  0  0  0  0  0  0  0  0
  -27.5843  -23.5417   20.6286 C   0  0  0  0  0  0  0  0  0  1  0  0
  -22.2957  -30.0863   22.9401 C   0  0  1  0  0  0  0  0  0  0  0  0
  -19.1985  -28.4999   21.4369 C   0  0  2  0  0  0  0  0  0  0  0  0
  -22.1971  -30.9700   24.2155 C   0  0  0  0  0  0  0  0  0  0  0  0
  -25.9364  -13.3203   19.8622 N   0  0  0  0  0  0  0  0  0  0  0  0
  -26.4134  -12.1644   20.3546 N   0  0  0  0  0  0  0  0  0  0  0  0
  -24.2922  -29.9663   21.4828 N   0  0  0  0  0  0  0  0  0  0  0  0
  -28.6603  -13.4302   18.3031 N   0  0  0  0  0  0  0  0  0  0  0  0
  -28.4215  -15.5356   17.1235 N   0  0  0  0  0  0  0  0  0  0  0  0
  -25.8802  -10.3627   21.7968 N   0  0  0  0  0  0  0  0  0  0  0  0
  -22.2235  -13.0026   22.0316 N   0  0  0  0  0  0  0  0  0  0  0  0
  -26.9361  -32.3165   21.0174 N   0  0  0  0  0  0  0  0  0  0  0  0
  -21.0122  -29.8091   22.3044 N   0  0  0  0  0  0  0  0  0  0  0  0
  -19.0796  -27.3086   20.5493 N   0  3  0  0  0  0  0  0  0  0  0  0
  -23.1714  -11.0618   22.8019 O   0  0  0  0  0  0  0  0  0  0  0  0
  -26.6428  -30.5773   22.5378 O   0  0  0  0  0  0  0  0  0  0  0  0
  -22.8608  -31.8052   21.4062 O   0  0  0  0  0  0  0  0  0  0  0  0
  -21.1557  -27.4986   22.4388 O   0  0  0  0  0  0  0  0  0  0  0  0
  -27.8268  -13.5537   16.1675 O   0  0  0  0  0  0  0  0  0  0  0  0
  -21.4576  -17.8158   19.3331 O   0  0  0  0  0  0  0  0  0  0  0  0
  -25.6687  -21.4713   18.9147 O   0  0  0  0  0  0  0  0  0  0  0  0
  -27.2304  -24.5332   21.5843 O   0  0  0  0  0  0  0  0  0  1  0  0
  -18.9410  -20.2656   23.5838 F   0  0  0  0  0  0  0  0  0  0  0  0
  -19.7003  -16.4127   20.9411 F   0  0  0  0  0  0  0  0  0  0  0  0
  1  2  1  0  0  0  0
  1  5  2  0  0  0  0
  2  6  2  0  0  0  0
  3  8  2  0  0  0  0
  3 17  1  0  0  0  0
  4  9  1  0  0  0  0
  4 17  2  0  0  0  0
  5 19  1  0  0  0  0
  6 21  1  0  0  0  0
  7 10  2  0  0  0  0
  7 20  1  0  0  0  0
  8 26  1  0  0  0  0
  9 26  2  0  0  0  0
 10 27  1  0  0  0  0
 11 12  2  0  0  0  0
 11 28  1  0  0  0  0
 12 30  1  0  0  0  0
 13 22  1  0  0  0  0
 13 27  2  0  0  0  0
 14 23  2  0  0  0  0
 14 29  1  0  0  0  0
 15 24  2  0  0  0  0
 15 25  1  0  0  0  0
 16 30  2  0  0  0  0
 16 31  1  0  0  0  0
 17 32  1  0  0  0  0
 18 32  1  0  0  0  0
 18 33  2  0  0  0  0
 18 34  1  0  0  0  0
 19 21  2  0  0  0  0
 19 39  1  0  0  0  0
 20 22  2  0  0  0  0
 20 40  1  0  0  0  0
 21 52  1  0  0  0  0
 22 41  1  0  0  0  0
 23 24  1  0  0  0  0
 23 51  1  0  0  0  0
 24 55  1  0  0  0  0
 25 29  2  0  0  0  0
 25 62  1  0  0  0  0
 26 82  1  0  0  0  0
 27 84  1  0  0  0  0
 28 31  2  0  0  0  0
 28 82  1  0  0  0  0
 29 83  1  0  0  0  0
 30 85  1  0  0  0  0
 31 86  1  0  0  0  0
 32 67  2  0  0  0  0
 33 68  1  0  0  0  0
 33 72  1  0  0  0  0
 34 73  1  0  0  0  0
 34 77  2  0  0  0  0
 35 53  1  0  0  0  0
 35 74  1  0  0  0  0
 35 78  2  0  0  0  0
 36 64  1  0  0  0  0
 36 69  1  0  0  0  0
 36 79  2  0  0  0  0
 37 65  1  0  0  0  0
 37 75  1  0  0  0  0
 37 80  2  0  0  0  0
 38 70  1  0  0  0  0
 38 71  1  0  0  0  0
 38 81  2  0  0  0  0
 39 42  1  0  0  0  0
 40 53  1  0  0  0  0
 41 69  1  0  0  0  0
 42 44  1  0  0  0  0
 43 45  1  0  0  0  0
 43 47  1  0  0  0  0
 44 52  1  0  0  0  0
 45 54  1  0  0  0  0
 46 48  1  0  0  0  0
 46 51  1  0  0  0  0
 47 70  1  0  0  0  0
 48 71  1  0  0  0  0
 49 51  1  0  0  0  0
 49 71  1  0  0  0  0
 50 54  1  0  0  0  0
 50 70  1  0  0  0  0
 52 74  1  0  0  0  0
 53 69  1  0  0  0  0
 54 68  1  0  0  0  0
 56 65  1  0  0  0  0
 57 66  1  0  0  0  0
 58 66  1  0  0  0  0
 59 66  1  0  0  0  0
 60 76  1  0  0  0  0
 61 83  1  0  0  0  0
 62 63  1  0  0  0  0
 63 84  1  0  0  0  0
 64 66  1  0  0  0  0
 64 75  1  0  0  0  0
 65 76  1  0  0  0  0
 67 68  1  0  0  0  0
M  CHG  1  76   1
M  ISO  4  38 100  63 101  71 100  84 101
M  END
> <Batch ID>
0170

> <Smiles>
CNC(C)C(=O)NC(C(=O)N1Cc2cc([101O:1][101CH2:1]Cc3cc(C)c(C4CC[100N:0]([100C:0](=O)N5CCCC(n6nc(-c7ccc(Oc8ccc(F)cc8F)cc7)c(C(N)=O)c6N)C5)C4)cc3OC)ccc2CC1C(=O)NC1CCCc2ccccc21)C(C)(C)C

> <Shape>
0.250

> <Color>
0.083

> <Negative vol penalty>
0.000

$$$$

  -OEChem-04052322353D

 88 98  0     1  0  0  0  0  0999 V2000
  -24.6026  -22.7711   26.9780 C   0  0  0  0  0  0  0  0  0  0  0  0
  -25.1329  -23.1363   25.7448 C   0  0  0  0  0  0  0  0  0  0  0  0
  -22.6678  -12.0579   18.8141 C   0  0  0  0  0  0  0  0  0  0  0  0
  -23.3508  -10.1181   20.0821 C   0  0  0  0  0  0  0  0  0  0  0  0
  -23.5198  -23.4734   27.5054 C   0  0  0  0  0  0  0  0  0  0  0  0
  -24.5800  -24.2034   25.0377 C   0  0  0  0  0  0  0  0  0  0  0  0
  -28.1014  -27.3003   23.1263 C   0  0  0  0  0  0  0  0  0  0  0  0
  -21.7288  -11.2826   18.1338 C   0  0  0  0  0  0  0  0  0  0  0  0
  -22.4117   -9.3428   19.4019 C   0  0  0  0  0  0  0  0  0  0  0  0
  -28.7565  -26.8822   21.9688 C   0  0  0  0  0  0  0  0  0  0  0  0
  -19.9455   -6.9309   18.2536 C   0  0  0  0  0  0  0  0  0  0  0  0
  -19.1595   -6.0564   19.0039 C   0  0  0  0  0  0  0  0  0  0  0  0
  -31.2957  -21.1293   17.9522 C   0  0  0  0  0  0  0  0  0  0  0  0
  -29.6146  -22.6729   18.8012 C   0  0  0  0  0  0  0  0  0  0  0  0
  -27.3208  -28.3033   20.6502 C   0  0  0  0  0  0  0  0  0  0  0  0
  -18.2905   -7.9227   20.2685 C   0  0  0  0  0  0  0  0  0  0  0  0
  -23.4789  -11.4756   19.7882 C   0  0  0  0  0  0  0  0  0  0  0  0
  -24.2556  -12.9902   21.6883 C   0  0  0  0  0  0  0  0  0  0  0  0
  -22.9594  -24.5558   26.8089 C   0  0  0  0  0  0  0  0  0  0  0  0
  -27.0421  -28.2163   23.0533 C   0  0  0  0  0  0  0  0  0  0  0  0
  -23.4877  -24.9200   25.5557 C   0  0  0  0  0  0  0  0  0  0  0  0
  -30.1640  -21.3815   18.7324 C   0  0  0  0  0  0  0  0  0  0  0  0
  -31.8470  -22.1807   17.2437 C   0  0  0  0  0  0  0  0  0  0  0  0
  -26.6556  -28.7334   21.8085 C   0  0  0  0  0  0  0  0  0  0  0  0
  -30.1878  -23.7279   18.0890 C   0  0  0  0  0  0  0  0  0  0  0  0
  -31.2980  -23.4524   17.3146 C   0  0  0  0  0  0  0  0  0  0  0  0
  -21.6007   -9.9251   18.4277 C   0  0  0  0  0  0  0  0  0  0  0  0
  -28.3643  -27.3815   20.7303 C   0  0  0  0  0  0  0  0  0  0  0  0
  -19.9040   -8.3013   18.5107 C   0  0  0  0  0  0  0  0  0  0  0  0
  -18.3320   -6.5523   20.0114 C   0  0  0  0  0  0  0  0  0  0  0  0
  -19.0765   -8.7971   19.5181 C   0  0  0  0  0  0  0  0  0  0  0  0
  -24.4495  -12.2759   20.4908 C   0  0  0  0  0  0  0  0  0  0  0  0
  -25.4710  -13.5797   21.9370 C   0  0  0  0  0  0  0  0  0  0  0  0
  -23.0819  -13.1101   22.5030 C   0  0  0  0  0  0  0  0  0  0  0  0
  -23.9541  -28.1390   23.8026 C   0  0  0  0  0  0  0  0  0  0  0  0
  -24.0895  -31.2887   23.0388 C   0  0  0  0  0  0  0  0  0  0  0  0
  -25.6534  -33.7886   21.3208 C   0  0  0  0  0  0  0  0  0  0  0  0
  -29.9828  -16.2657   20.3717 C   0  0  0  0  0  0  0  0  0  0  0  0
  -21.7594  -25.2547   27.3974 C   0  0  0  0  0  0  0  0  0  0  0  0
  -26.3633  -28.6777   24.3138 C   0  0  0  0  0  0  0  0  0  0  0  0
  -33.0615  -22.2172   16.4005 C   0  0  0  0  0  0  0  0  0  0  0  0
  -25.5377  -29.7342   21.6781 C   0  0  0  0  0  0  0  0  0  0  0  0
  -21.4702  -26.6105   26.7583 C   0  0  0  0  0  0  0  0  0  0  0  0
  -29.9906  -12.8564   19.8013 C   0  0  0  0  0  0  0  0  0  0  0  0
  -21.5327  -26.5081   25.2376 C   0  0  0  0  0  0  0  0  0  0  0  0
  -28.5354  -12.4469   20.0271 C   0  0  0  0  0  0  0  0  0  0  0  0
  -28.9996  -19.1344   18.6049 C   0  0  0  0  0  0  0  0  0  0  0  0
  -30.4850  -19.6785   20.5816 C   0  0  0  0  0  0  0  0  0  0  0  0
  -30.0747  -14.1771   19.0449 C   0  0  0  0  0  0  0  0  0  0  0  0
  -28.3881  -17.9836   19.4092 C   0  0  0  0  0  0  0  0  0  0  0  0
  -29.8225  -18.5359   21.3458 C   0  0  0  0  0  0  0  0  0  0  0  0
  -27.8868  -14.9050   19.9402 C   0  0  0  0  0  0  0  0  0  0  0  0
  -32.8545  -23.5810   15.7400 C   0  0  0  0  0  0  0  0  0  0  0  0
  -29.5278  -20.2527   19.5214 C   0  0  0  0  0  0  0  0  0  0  0  0
  -22.9312  -26.0875   24.7700 C   0  0  1  0  0  0  0  0  0  0  0  0
  -24.9593  -29.2230   24.0711 C   0  0  1  0  0  0  0  0  0  0  0  0
  -27.7427  -13.5760   20.7091 C   0  0  1  0  0  0  0  0  0  0  0  0
  -25.5113  -36.2518   20.8626 C   0  0  0  0  0  0  0  0  0  0  0  0
  -21.7645  -30.7962   21.1252 C   0  0  0  0  0  0  0  0  0  0  0  0
  -22.2892  -32.9878   20.0343 C   0  0  0  0  0  0  0  0  0  0  0  0
  -21.6070  -32.9222   22.4329 C   0  0  0  0  0  0  0  0  0  0  0  0
  -28.3164  -34.2819   22.5141 C   0  0  0  0  0  0  0  0  0  0  0  0
  -29.5478  -25.6559   19.5999 C   0  0  0  0  0  0  0  0  0  1  0  0
  -29.6100  -25.0967   18.1669 C   0  0  2  0  0  0  0  0  0  0  0  0
  -23.9020  -32.0911   21.7739 C   0  0  1  0  0  0  0  0  0  0  0  0
  -26.1114  -35.1712   21.7486 C   0  0  2  0  0  0  0  0  0  0  0  0
  -22.4105  -32.1790   21.3435 C   0  0  0  0  0  0  0  0  0  0  0  0
  -25.6903  -12.3991   20.0120 N   0  0  0  0  0  0  0  0  0  0  0  0
  -26.2870  -13.1978   20.9131 N   0  0  0  0  0  0  0  0  0  0  0  0
  -24.9008  -30.1496   22.9388 N   0  0  0  0  0  0  0  0  0  0  0  0
  -29.3068  -15.2220   19.7218 N   0  0  0  0  0  0  0  0  0  0  0  0
  -29.3303  -17.5063   20.4310 N   0  0  0  0  0  0  0  0  0  0  0  0
  -25.9106  -14.3823   22.9295 N   0  0  0  0  0  0  0  0  0  0  0  0
  -21.9187  -12.4391   22.1018 N   0  0  0  0  0  0  0  0  0  0  0  0
  -23.8407  -27.2121   24.8211 N   0  0  0  0  0  0  0  0  0  0  0  0
  -24.5319  -33.3849   22.0140 N   0  0  0  0  0  0  0  0  0  0  0  0
  -28.2192  -25.1843   17.5927 N   0  3  0  0  0  0  0  0  0  0  0  0
  -27.5963  -35.2717   21.6722 N   0  3  0  0  0  0  0  0  0  0  0  0
  -23.0605  -13.8053   23.5469 O   0  0  0  0  0  0  0  0  0  0  0  0
  -23.3265  -28.1442   22.7501 O   0  0  0  0  0  0  0  0  0  0  0  0
  -23.5423  -31.6630   24.0791 O   0  0  0  0  0  0  0  0  0  0  0  0
  -26.2304  -33.1339   20.4554 O   0  0  0  0  0  0  0  0  0  0  0  0
  -31.1029  -16.0994   20.8705 O   0  0  0  0  0  0  0  0  0  0  0  0
  -31.9764  -24.3811   16.5670 O   0  0  0  0  0  0  0  0  0  0  0  0
  -20.6844   -9.1683   17.7643 O   0  0  0  0  0  0  0  0  0  0  0  0
  -29.0058  -26.9719   19.5914 O   0  0  0  0  0  0  0  0  0  1  0  0
  -17.5761   -5.7125   20.7309 F   0  0  0  0  0  0  0  0  0  0  0  0
  -19.0315  -10.1128   19.7690 F   0  0  0  0  0  0  0  0  0  0  0  0
  1  2  1  0  0  0  0
  1  5  2  0  0  0  0
  2  6  2  0  0  0  0
  3  8  2  0  0  0  0
  3 17  1  0  0  0  0
  4  9  1  0  0  0  0
  4 17  2  0  0  0  0
  5 19  1  0  0  0  0
  6 21  1  0  0  0  0
  7 10  2  0  0  0  0
  7 20  1  0  0  0  0
  8 27  1  0  0  0  0
  9 27  2  0  0  0  0
 10 28  1  0  0  0  0
 11 12  2  0  0  0  0
 11 29  1  0  0  0  0
 12 30  1  0  0  0  0
 13 22  1  0  0  0  0
 13 23  2  0  0  0  0
 14 22  2  0  0  0  0
 14 25  1  0  0  0  0
 15 24  1  0  0  0  0
 15 28  2  0  0  0  0
 16 30  2  0  0  0  0
 16 31  1  0  0  0  0
 17 32  1  0  0  0  0
 18 32  1  0  0  0  0
 18 33  2  0  0  0  0
 18 34  1  0  0  0  0
 19 21  2  0  0  0  0
 19 39  1  0  0  0  0
 20 24  2  0  0  0  0
 20 40  1  0  0  0  0
 21 55  1  0  0  0  0
 22 54  1  0  0  0  0
 23 26  1  0  0  0  0
 23 41  1  0  0  0  0
 24 42  1  0  0  0  0
 25 26  2  0  0  0  0
 25 64  1  0  0  0  0
 26 84  1  0  0  0  0
 27 85  1  0  0  0  0
 28 86  1  0  0  0  0
 29 31  2  0  0  0  0
 29 85  1  0  0  0  0
 30 87  1  0  0  0  0
 31 88  1  0  0  0  0
 32 68  2  0  0  0  0
 33 69  1  0  0  0  0
 33 73  1  0  0  0  0
 34 74  1  0  0  0  0
 34 79  2  0  0  0  0
 35 56  1  0  0  0  0
 35 75  1  0  0  0  0
 35 80  2  0  0  0  0
 36 65  1  0  0  0  0
 36 70  1  0  0  0  0
 36 81  2  0  0  0  0
 37 66  1  0  0  0  0
 37 76  1  0  0  0  0
 37 82  2  0  0  0  0
 38 71  1  0  0  0  0
 38 72  1  0  0  0  0
 38 83  2  0  0  0  0
 39 43  1  0  0  0  0
 40 56  1  0  0  0  0
 41 53  1  0  0  0  0
 42 70  1  0  0  0  0
 43 45  1  0  0  0  0
 44 46  1  0  0  0  0
 44 49  1  0  0  0  0
 45 55  1  0  0  0  0
 46 57  1  0  0  0  0
 47 50  1  0  0  0  0
 47 54  1  0  0  0  0
 48 51  1  0  0  0  0
 48 54  1  0  0  0  0
 49 71  1  0  0  0  0
 50 72  1  0  0  0  0
 51 72  1  0  0  0  0
 52 57  1  0  0  0  0
 52 71  1  0  0  0  0
 53 84  1  0  0  0  0
 55 75  1  0  0  0  0
 56 70  1  0  0  0  0
 57 69  1  0  0  0  0
 58 66  1  0  0  0  0
 59 67  1  0  0  0  0
 60 67  1  0  0  0  0
 61 67  1  0  0  0  0
 62 78  1  0  0  0  0
 63 64  1  0  0  0  0
 63 86  1  0  0  0  0
 64 77  1  0  0  0  0
 65 67  1  0  0  0  0
 65 76  1  0  0  0  0
 66 78  1  0  0  0  0
 68 69  1  0  0  0  0
M  CHG  2  77   1  78   1
M  ISO  4  38 100  63 101  72 100  86 101
M  END
> <Batch ID>
0170

> <Smiles>
CNC(C)C(=O)NC(C(=O)N1Cc2cc([101O:1][101CH2:1]C(N)c3cc(C4CC[100N:0]([100C:0](=O)N5CCCC(n6nc(-c7ccc(Oc8ccc(F)cc8F)cc7)c(C(N)=O)c6N)C5)CC4)cc4c3OCC4)ccc2CC1C(=O)NC1CCCc2ccccc21)C(C)(C)C

> <Shape>
0.233

> <Color>
0.078

> <Negative vol penalty>
0.000

$$$$

  -OEChem-04052322353D

 87 96  0     1  0  0  0  0  0999 V2000
  -26.3456  -38.3535   20.9936 C   0  0  0  0  0  0  0  0  0  0  0  0
  -26.9732  -37.3086   20.3231 C   0  0  0  0  0  0  0  0  0  0  0  0
  -23.7070  -10.1962   22.2532 C   0  0  0  0  0  0  0  0  0  0  0  0
  -23.9793   -8.9240   20.2174 C   0  0  0  0  0  0  0  0  0  0  0  0
  -25.6913  -38.1124   22.2010 C   0  0  0  0  0  0  0  0  0  0  0  0
  -26.9478  -36.0220   20.8601 C   0  0  0  0  0  0  0  0  0  0  0  0
  -26.7764  -29.1432   18.8677 C   0  0  0  0  0  0  0  0  0  0  0  0
  -22.3869   -9.7564   22.3515 C   0  0  0  0  0  0  0  0  0  0  0  0
  -22.6592   -8.4841   20.3157 C   0  0  0  0  0  0  0  0  0  0  0  0
  -27.4507  -27.9422   19.0837 C   0  0  0  0  0  0  0  0  0  0  0  0
  -19.0559   -8.6811   23.3329 C   0  0  0  0  0  0  0  0  0  0  0  0
  -18.6077   -8.2485   24.5809 C   0  0  0  0  0  0  0  0  0  0  0  0
  -26.2222  -27.6286   21.1359 C   0  0  0  0  0  0  0  0  0  0  0  0
  -28.8719  -21.8202   20.9599 C   0  0  0  0  0  0  0  0  0  0  0  0
  -20.3091   -6.5332   24.5974 C   0  0  0  0  0  0  0  0  0  0  0  0
  -24.5032   -9.7800   21.1862 C   0  0  0  0  0  0  0  0  0  0  0  0
  -27.0112   -9.6168   21.6226 C   0  0  0  0  0  0  0  0  0  0  0  0
  -25.6495  -36.8203   22.7482 C   0  0  0  0  0  0  0  0  0  0  0  0
  -25.8262  -29.6021   19.7913 C   0  0  0  0  0  0  0  0  0  0  0  0
  -26.2934  -35.7635   22.0766 C   0  0  0  0  0  0  0  0  0  0  0  0
  -25.5354  -28.8344   20.9280 C   0  0  0  0  0  0  0  0  0  0  0  0
  -28.0759  -22.9570   20.8734 C   0  0  0  0  0  0  0  0  0  0  0  0
  -28.3464  -24.0518   21.6866 C   0  0  0  0  0  0  0  0  0  0  0  0
  -21.8630   -8.9004   21.3827 C   0  0  0  0  0  0  0  0  0  0  0  0
  -27.1757  -27.1861   20.2194 C   0  0  0  0  0  0  0  0  0  0  0  0
  -20.1307   -8.0397   22.7171 C   0  0  0  0  0  0  0  0  0  0  0  0
  -19.2342   -7.1746   25.2132 C   0  0  0  0  0  0  0  0  0  0  0  0
  -20.7573   -6.9658   23.3494 C   0  0  0  0  0  0  0  0  0  0  0  0
  -25.8667  -10.2344   21.0838 C   0  0  0  0  0  0  0  0  0  0  0  0
  -29.4159  -23.9604   22.5628 C   0  0  0  0  0  0  0  0  0  0  0  0
  -29.9180  -21.8287   21.8684 C   0  0  0  0  0  0  0  0  0  0  0  0
  -28.0501  -10.4342   21.2498 C   0  0  0  0  0  0  0  0  0  0  0  0
  -27.1252   -8.4119   22.3914 C   0  0  0  0  0  0  0  0  0  0  0  0
  -25.5610  -32.1671   21.6497 C   0  0  0  0  0  0  0  0  0  0  0  0
  -22.6328  -30.9237   22.2840 C   0  0  0  0  0  0  0  0  0  0  0  0
  -20.6158  -28.1731   22.3971 C   0  0  0  0  0  0  0  0  0  0  0  0
  -30.1451  -15.5170   20.8921 C   0  0  0  0  0  0  0  0  0  0  0  0
  -24.9705  -36.6174   24.0795 C   0  0  0  0  0  0  0  0  0  0  0  0
  -25.0882  -30.8865   19.5302 C   0  0  0  0  0  0  0  0  0  0  0  0
  -24.5094  -29.2729   21.9398 C   0  0  0  0  0  0  0  0  0  0  0  0
  -24.6689  -35.1541   24.3927 C   0  0  0  0  0  0  0  0  0  0  0  0
  -28.2272  -14.2781   17.9938 C   0  0  0  0  0  0  0  0  0  0  0  0
  -25.8864  -34.2834   24.0987 C   0  0  0  0  0  0  0  0  0  0  0  0
  -27.4953  -13.0907   18.6123 C   0  0  0  0  0  0  0  0  0  0  0  0
  -28.4207  -15.4169   18.9942 C   0  0  0  0  0  0  0  0  0  0  0  0
  -30.4868  -19.4971   21.1288 C   0  0  0  0  0  0  0  0  0  0  0  0
  -28.3600  -13.8033   20.8749 C   0  0  0  0  0  0  0  0  0  0  0  0
  -31.8319  -20.5375   22.8566 C   0  0  0  0  0  0  0  0  0  0  0  0
  -26.2665  -34.3494   22.6146 C   0  0  1  0  0  0  0  0  0  0  0  0
  -24.5117  -31.5123   20.7965 C   0  0  1  0  0  0  0  0  0  0  0  0
  -31.3809  -18.4384   21.7926 C   0  0  2  0  0  0  0  0  0  0  0  0
  -28.1993  -12.6290   19.8974 C   0  0  1  0  0  0  0  0  0  0  0  0
  -32.5294  -19.2886   22.3259 C   0  0  2  0  0  0  0  0  0  0  0  0
  -26.9407  -22.9781   19.9040 C   0  0  0  0  0  0  0  0  0  0  0  0
  -29.7540  -25.1048   23.4614 C   0  0  0  0  0  0  0  0  0  0  0  0
  -18.2832  -27.4640   22.9918 C   0  0  0  0  0  0  0  0  0  0  0  0
  -23.3362  -31.1040   25.2475 C   0  0  0  0  0  0  0  0  0  0  0  0
  -21.4341  -29.5469   25.7223 C   0  0  0  0  0  0  0  0  0  0  0  0
  -20.9923  -31.7740   24.6890 C   0  0  0  0  0  0  0  0  0  0  0  0
  -20.0720  -27.2415   19.6412 C   0  0  0  0  0  0  0  0  0  0  0  0
  -27.5017  -25.2899   21.6173 C   0  0  0  0  0  0  0  0  0  1  0  0
  -31.8167  -17.3430   20.8335 C   0  0  0  0  0  0  0  0  0  0  0  0
  -22.0792  -29.9590   23.3046 C   0  0  1  0  0  0  0  0  0  0  0  0
  -19.2086  -27.9340   21.8803 C   0  0  2  0  0  0  0  0  0  0  0  0
  -21.9812  -30.5884   24.7230 C   0  0  0  0  0  0  0  0  0  0  0  0
  -26.1513  -11.3576   20.4194 N   0  0  0  0  0  0  0  0  0  0  0  0
  -30.2115  -22.8732   22.6750 N   0  0  0  0  0  0  0  0  0  0  0  0
  -27.4866  -11.4523   20.5383 N   0  0  0  0  0  0  0  0  0  0  0  0
  -30.6985  -20.6950   21.9443 N   0  0  3  0  0  0  0  0  0  0  0  0
  -23.8191  -30.5390   21.6432 N   0  0  0  0  0  0  0  0  0  0  0  0
  -29.0380  -14.9416   20.2425 N   0  0  0  0  0  0  0  0  0  0  0  0
  -29.3816  -10.3744   21.4645 N   0  0  0  0  0  0  0  0  0  0  0  0
  -25.9580   -7.6938   22.6849 N   0  0  0  0  0  0  0  0  0  0  0  0
  -25.3749  -33.5248   21.8274 N   0  0  0  0  0  0  0  0  0  0  0  0
  -20.8061  -29.4865   22.7713 N   0  0  0  0  0  0  0  0  0  0  0  0
  -30.6871  -16.6430   20.2828 N   0  0  0  0  0  0  0  0  0  0  0  0
  -33.2699  -18.5967   23.3968 N   0  3  0  0  0  0  0  0  0  0  0  0
  -19.2194  -26.8986   20.8084 N   0  3  0  0  0  0  0  0  0  0  0  0
  -28.2275   -7.9935   22.8197 O   0  0  0  0  0  0  0  0  0  0  0  0
  -26.4711  -31.4904   22.1138 O   0  0  0  0  0  0  0  0  0  0  0  0
  -22.0309  -31.9765   22.0582 O   0  0  0  0  0  0  0  0  0  0  0  0
  -21.4604  -27.2830   22.4657 O   0  0  0  0  0  0  0  0  0  0  0  0
  -30.6147  -15.0652   21.9423 O   0  0  0  0  0  0  0  0  0  0  0  0
  -20.5751   -8.4709   21.4784 O   0  0  0  0  0  0  0  0  0  0  0  0
  -27.8329  -26.0138   20.4330 O   0  0  0  0  0  0  0  0  0  1  0  0
  -18.8047   -6.7603   26.4123 F   0  0  0  0  0  0  0  0  0  0  0  0
  -21.7911   -6.3465   22.7633 F   0  0  0  0  0  0  0  0  0  0  0  0
  1  2  1  0  0  0  0
  1  5  2  0  0  0  0
  2  6  2  0  0  0  0
  3  8  2  0  0  0  0
  3 16  1  0  0  0  0
  4  9  1  0  0  0  0
  4 16  2  0  0  0  0
  5 18  1  0  0  0  0
  6 20  1  0  0  0  0
  7 10  2  0  0  0  0
  7 19  1  0  0  0  0
  8 24  1  0  0  0  0
  9 24  2  0  0  0  0
 10 25  1  0  0  0  0
 11 12  2  0  0  0  0
 11 26  1  0  0  0  0
 12 27  1  0  0  0  0
 13 21  1  0  0  0  0
 13 25  2  0  0  0  0
 14 22  2  0  0  0  0
 14 31  1  0  0  0  0
 15 27  2  0  0  0  0
 15 28  1  0  0  0  0
 16 29  1  0  0  0  0
 17 29  1  0  0  0  0
 17 32  2  0  0  0  0
 17 33  1  0  0  0  0
 18 20  2  0  0  0  0
 18 38  1  0  0  0  0
 19 21  2  0  0  0  0
 19 39  1  0  0  0  0
 20 49  1  0  0  0  0
 21 40  1  0  0  0  0
 22 23  1  0  0  0  0
 22 54  1  0  0  0  0
 23 30  2  0  0  0  0
 23 61  1  0  0  0  0
 24 84  1  0  0  0  0
 25 85  1  0  0  0  0
 26 28  2  0  0  0  0
 26 84  1  0  0  0  0
 27 86  1  0  0  0  0
 28 87  1  0  0  0  0
 29 66  2  0  0  0  0
 30 55  1  0  0  0  0
 30 67  1  0  0  0  0
 31 67  2  0  0  0  0
 31 69  1  0  0  0  0
 32 68  1  0  0  0  0
 32 72  1  0  0  0  0
 33 73  1  0  0  0  0
 33 79  2  0  0  0  0
 34 50  1  0  0  0  0
 34 74  1  0  0  0  0
 34 80  2  0  0  0  0
 35 63  1  0  0  0  0
 35 70  1  0  0  0  0
 35 81  2  0  0  0  0
 36 64  1  0  0  0  0
 36 75  1  0  0  0  0
 36 82  2  0  0  0  0
 37 71  1  0  0  0  0
 37 76  1  0  0  0  0
 37 83  2  0  0  0  0
 38 41  1  0  0  0  0
 39 50  1  0  0  0  0
 40 70  1  0  0  0  0
 41 43  1  0  0  0  0
 42 44  1  0  0  0  0
 42 45  1  0  0  0  0
 43 49  1  0  0  0  0
 44 52  1  0  0  0  0
 45 71  1  0  0  0  0
 46 51  1  0  0  0  0
 46 69  1  0  0  0  0
 47 52  1  0  0  0  0
 47 71  1  0  0  0  0
 48 53  1  0  0  0  0
 48 69  1  0  0  0  0
 49 74  1  0  0  0  0
 50 70  1  0  0  0  0
 51 53  1  0  0  0  0
 51 62  1  0  0  0  0
 52 68  1  0  0  0  0
 53 77  1  0  0  0  0
 56 64  1  0  0  0  0
 57 65  1  0  0  0  0
 58 65  1  0  0  0  0
 59 65  1  0  0  0  0
 60 78  1  0  0  0  0
 61 85  1  0  0  0  0
 62 76  1  0  0  0  0
 63 65  1  0  0  0  0
 63 75  1  0  0  0  0
 64 78  1  0  0  0  0
 66 68  1  0  0  0  0
M  CHG  2  77   1  78   1
M  ISO  4  37 100  61 101  76 100  85 101
M  END
> <Batch ID>
0170

> <Smiles>
CNC(C)C(=O)NC(C(=O)N1Cc2cc([101O:1][101CH2:1]c3c(C)cc(N4CC(N)C(C[100NH:0][100C:0](=O)N5CCCC(n6nc(-c7ccc(Oc8ccc(F)cc8F)cc7)c(C(N)=O)c6N)C5)C4)nc3C)ccc2CC1C(=O)NC1CCCc2ccccc21)C(C)(C)C

> <Shape>
0.286

> <Color>
0.087

> <Negative vol penalty>
0.000

$$$$

  -OEChem-04052322353D

 87 96  0     1  0  0  0  0  0999 V2000
  -17.1567  -32.6695   18.0441 C   0  0  0  0  0  0  0  0  0  0  0  0
  -18.3454  -32.3239   17.4094 C   0  0  0  0  0  0  0  0  0  0  0  0
  -26.8548  -11.3636   21.0291 C   0  0  0  0  0  0  0  0  0  0  0  0
  -24.6066  -11.3955   20.1451 C   0  0  0  0  0  0  0  0  0  0  0  0
  -17.1877  -33.4184   19.2198 C   0  0  0  0  0  0  0  0  0  0  0  0
  -19.5659  -32.7280   17.9493 C   0  0  0  0  0  0  0  0  0  0  0  0
  -24.5799  -27.9002   19.8052 C   0  0  0  0  0  0  0  0  0  0  0  0
  -26.5921  -10.1442   21.6533 C   0  0  0  0  0  0  0  0  0  0  0  0
  -24.3438  -10.1760   20.7693 C   0  0  0  0  0  0  0  0  0  0  0  0
  -25.6712  -27.0508   19.9890 C   0  0  0  0  0  0  0  0  0  0  0  0
  -24.9935   -6.9060   20.2170 C   0  0  0  0  0  0  0  0  0  0  0  0
  -24.3337   -5.9278   19.4732 C   0  0  0  0  0  0  0  0  0  0  0  0
  -26.9946  -28.9078   20.7941 C   0  0  0  0  0  0  0  0  0  0  0  0
  -22.5347   -5.9151   21.0858 C   0  0  0  0  0  0  0  0  0  0  0  0
  -31.5114  -23.4720   20.1147 C   0  0  0  0  0  0  0  0  0  0  0  0
  -25.8620  -11.9892   20.2750 C   0  0  0  0  0  0  0  0  0  0  0  0
  -26.6448  -13.4482   18.3343 C   0  0  0  0  0  0  0  0  0  0  0  0
  -18.4096  -33.8236   19.7797 C   0  0  0  0  0  0  0  0  0  0  0  0
  -24.6872  -29.2553   20.1301 C   0  0  0  0  0  0  0  0  0  0  0  0
  -19.6132  -33.4841   19.1329 C   0  0  0  0  0  0  0  0  0  0  0  0
  -25.9010  -29.7610   20.6239 C   0  0  0  0  0  0  0  0  0  0  0  0
  -30.4693  -23.9394   20.8991 C   0  0  0  0  0  0  0  0  0  0  0  0
  -30.5824  -25.2161   21.4381 C   0  0  0  0  0  0  0  0  0  0  0  0
  -31.7181  -25.9756   21.1801 C   0  0  0  0  0  0  0  0  0  0  0  0
  -25.3366   -9.5504   21.5234 C   0  0  0  0  0  0  0  0  0  0  0  0
  -26.8756  -27.5534   20.4820 C   0  0  0  0  0  0  0  0  0  0  0  0
  -24.4240   -7.3887   21.3953 C   0  0  0  0  0  0  0  0  0  0  0  0
  -23.1043   -5.4324   19.9075 C   0  0  0  0  0  0  0  0  0  0  0  0
  -23.1946   -6.8933   21.8296 C   0  0  0  0  0  0  0  0  0  0  0  0
  -26.1326  -13.2491   19.6304 C   0  0  0  0  0  0  0  0  0  0  0  0
  -32.7044  -25.4169   20.3833 C   0  0  0  0  0  0  0  0  0  0  0  0
  -26.7164  -14.8132   18.1993 C   0  0  0  0  0  0  0  0  0  0  0  0
  -27.0221  -12.4854   17.3412 C   0  0  0  0  0  0  0  0  0  0  0  0
  -23.0022  -32.6025   20.3121 C   0  0  0  0  0  0  0  0  0  0  0  0
  -24.7181  -32.3301   22.8403 C   0  0  0  0  0  0  0  0  0  0  0  0
  -27.8027  -32.0352   24.2669 C   0  0  0  0  0  0  0  0  0  0  0  0
  -28.0826  -19.7112   20.0635 C   0  0  0  0  0  0  0  0  0  0  0  0
  -18.3909  -34.6722   21.0264 C   0  0  0  0  0  0  0  0  0  0  0  0
  -23.5568  -30.2189   19.8905 C   0  0  0  0  0  0  0  0  0  0  0  0
  -25.9812  -31.2322   20.9273 C   0  0  0  0  0  0  0  0  0  0  0  0
  -19.7406  -34.7415   21.7362 C   0  0  0  0  0  0  0  0  0  0  0  0
  -24.8515  -18.5220   21.0631 C   0  0  0  0  0  0  0  0  0  0  0  0
  -20.8578  -35.0121   20.7335 C   0  0  0  0  0  0  0  0  0  0  0  0
  -24.9514  -17.0426   20.6998 C   0  0  0  0  0  0  0  0  0  0  0  0
  -29.3716  -22.1788   22.3890 C   0  0  0  0  0  0  0  0  0  0  0  0
  -26.1689  -19.0759   21.6095 C   0  0  0  0  0  0  0  0  0  0  0  0
  -28.2749  -21.1502   22.1541 C   0  0  0  0  0  0  0  0  0  0  0  0
  -27.4297  -17.3438   20.3638 C   0  0  0  0  0  0  0  0  0  0  0  0
  -29.2597  -23.0694   21.1454 C   0  0  2  0  0  0  0  0  0  0  0  0
  -20.9580  -33.8826   19.7011 C   0  0  1  0  0  0  0  0  0  0  0  0
  -23.4764  -31.3308   20.9519 C   0  0  1  0  0  0  0  0  0  0  0  0
  -26.1342  -16.7940   19.7497 C   0  0  1  0  0  0  0  0  0  0  0  0
  -28.9520  -22.0541   20.0226 C   0  0  2  0  0  0  0  0  0  0  0  0
  -31.8684  -27.3492   21.7424 C   0  0  0  0  0  0  0  0  0  0  0  0
  -33.9476  -26.1843   20.0720 C   0  0  0  0  0  0  0  0  0  0  0  0
  -28.0829  -22.6653   18.9266 C   0  0  0  0  0  0  0  0  0  0  0  0
  -29.9794  -26.0156   23.7076 C   0  0  0  0  0  0  0  0  0  0  0  0
  -29.5508  -32.0908   26.0665 C   0  0  0  0  0  0  0  0  0  0  0  0
  -24.8018  -35.3026   22.1612 C   0  0  0  0  0  0  0  0  0  0  0  0
  -26.7554  -35.5291   23.7105 C   0  0  0  0  0  0  0  0  0  0  0  0
  -24.5418  -34.7953   24.5963 C   0  0  0  0  0  0  0  0  0  0  0  0
  -27.2285  -29.2458   25.0721 C   0  0  0  0  0  0  0  0  0  0  0  0
  -28.8500  -27.0490   21.7087 C   0  0  0  0  0  0  0  0  0  1  0  0
  -29.4857  -25.7679   22.2918 C   0  0  1  0  0  0  0  0  0  0  0  0
  -25.9009  -33.2008   23.1812 C   0  0  1  0  0  0  0  0  0  0  0  0
  -28.2447  -31.4649   25.6025 C   0  0  2  0  0  0  0  0  0  0  0  0
  -25.5008  -34.6886   23.3906 C   0  0  0  0  0  0  0  0  0  0  0  0
  -32.6301  -24.1803   19.8420 N   0  0  0  0  0  0  0  0  0  0  0  0
  -25.8957  -14.3959   20.2729 N   0  0  0  0  0  0  0  0  0  0  0  0
  -26.2608  -15.3286   19.3769 N   0  0  0  0  0  0  0  0  0  0  0  0
  -24.7516  -31.6733   21.6042 N   0  0  0  0  0  0  0  0  0  0  0  0
  -27.2921  -18.7588   20.7195 N   0  0  0  0  0  0  0  0  0  0  0  0
  -28.2808  -20.9371   20.7054 N   0  0  0  0  0  0  0  0  0  0  0  0
  -27.1241  -15.6108   17.1893 N   0  0  0  0  0  0  0  0  0  0  0  0
  -26.8845  -11.1239   17.6442 N   0  0  0  0  0  0  0  0  0  0  0  0
  -21.6272  -32.7336   20.2724 N   0  0  0  0  0  0  0  0  0  0  0  0
  -26.5405  -32.5854   24.3391 N   0  0  0  0  0  0  0  0  0  0  0  0
  -28.4411  -29.9914   25.4971 N   0  3  0  0  0  0  0  0  0  0  0  0
  -27.4835  -12.8221   16.2244 O   0  0  0  0  0  0  0  0  0  0  0  0
  -23.8226  -33.4072   19.8867 O   0  0  0  0  0  0  0  0  0  0  0  0
  -23.7858  -32.2375   23.6438 O   0  0  0  0  0  0  0  0  0  0  0  0
  -28.5083  -31.9996   23.2612 O   0  0  0  0  0  0  0  0  0  0  0  0
  -28.6106  -19.4677   18.9707 O   0  0  0  0  0  0  0  0  0  0  0  0
  -25.0800   -8.3604   22.1322 O   0  0  0  0  0  0  0  0  0  0  0  0
  -27.9423  -26.7125   20.6643 O   0  0  0  0  0  0  0  0  0  1  0  0
  -22.4700   -4.4941   19.1923 F   0  0  0  0  0  0  0  0  0  0  0  0
  -22.6419   -7.3540   22.9602 F   0  0  0  0  0  0  0  0  0  0  0  0
  1  2  1  0  0  0  0
  1  5  2  0  0  0  0
  2  6  2  0  0  0  0
  3  8  2  0  0  0  0
  3 16  1  0  0  0  0
  4  9  1  0  0  0  0
  4 16  2  0  0  0  0
  5 18  1  0  0  0  0
  6 20  1  0  0  0  0
  7 10  2  0  0  0  0
  7 19  1  0  0  0  0
  8 25  1  0  0  0  0
  9 25  2  0  0  0  0
 10 26  1  0  0  0  0
 11 12  2  0  0  0  0
 11 27  1  0  0  0  0
 12 28  1  0  0  0  0
 13 21  1  0  0  0  0
 13 26  2  0  0  0  0
 14 28  2  0  0  0  0
 14 29  1  0  0  0  0
 15 22  2  0  0  0  0
 15 68  1  0  0  0  0
 16 30  1  0  0  0  0
 17 30  1  0  0  0  0
 17 32  2  0  0  0  0
 17 33  1  0  0  0  0
 18 20  2  0  0  0  0
 18 38  1  0  0  0  0
 19 21  2  0  0  0  0
 19 39  1  0  0  0  0
 20 50  1  0  0  0  0
 21 40  1  0  0  0  0
 22 23  1  0  0  0  0
 22 49  1  0  0  0  0
 23 24  2  0  0  0  0
 23 64  1  0  0  0  0
 24 31  1  0  0  0  0
 24 54  1  0  0  0  0
 25 84  1  0  0  0  0
 26 85  1  0  0  0  0
 27 29  2  0  0  0  0
 27 84  1  0  0  0  0
 28 86  1  0  0  0  0
 29 87  1  0  0  0  0
 30 69  2  0  0  0  0
 31 55  1  0  0  0  0
 31 68  2  0  0  0  0
 32 70  1  0  0  0  0
 32 74  1  0  0  0  0
 33 75  1  0  0  0  0
 33 79  2  0  0  0  0
 34 51  1  0  0  0  0
 34 76  1  0  0  0  0
 34 80  2  0  0  0  0
 35 65  1  0  0  0  0
 35 71  1  0  0  0  0
 35 81  2  0  0  0  0
 36 66  1  0  0  0  0
 36 77  1  0  0  0  0
 36 82  2  0  0  0  0
 37 72  1  0  0  0  0
 37 73  1  0  0  0  0
 37 83  2  0  0  0  0
 38 41  1  0  0  0  0
 39 51  1  0  0  0  0
 40 71  1  0  0  0  0
 41 43  1  0  0  0  0
 42 44  1  0  0  0  0
 42 46  1  0  0  0  0
 43 50  1  0  0  0  0
 44 52  1  0  0  0  0
 45 47  1  0  0  0  0
 45 49  1  0  0  0  0
 46 72  1  0  0  0  0
 47 73  1  0  0  0  0
 48 52  1  0  0  0  0
 48 72  1  0  0  0  0
 49 53  1  0  0  0  0
 50 76  1  0  0  0  0
 51 71  1  0  0  0  0
 52 70  1  0  0  0  0
 53 56  1  0  0  0  0
 53 73  1  0  0  0  0
 57 64  1  0  0  0  0
 58 66  1  0  0  0  0
 59 67  1  0  0  0  0
 60 67  1  0  0  0  0
 61 67  1  0  0  0  0
 62 78  1  0  0  0  0
 63 64  1  0  0  0  0
 63 85  1  0  0  0  0
 65 67  1  0  0  0  0
 65 77  1  0  0  0  0
 66 78  1  0  0  0  0
 69 70  1  0  0  0  0
M  CHG  1  78   1
M  ISO  4  37 100  63 101  73 100  85 101
M  END
> <Batch ID>
0170

> <Smiles>
CNC(C)C(=O)NC(C(=O)N1Cc2cc([101O:1][101CH2:1]C(C)c3c(C4CC[100N:0]([100C:0](=O)N5CCCC(n6nc(-c7ccc(Oc8ccc(F)cc8F)cc7)c(C(N)=O)c6N)C5)C4C)cnc(C)c3C)ccc2CC1C(=O)NC1CCCc2ccccc21)C(C)(C)C

> <Shape>
0.266

> <Color>
0.070

> <Negative vol penalty>
0.000

$$$$

  -OEChem-04052322353D

 85 94  0     1  0  0  0  0  0999 V2000
  -24.5085  -36.7824   17.4390 C   0  0  0  0  0  0  0  0  0  0  0  0
  -24.5950  -35.4849   16.9446 C   0  0  0  0  0  0  0  0  0  0  0  0
  -22.9891  -10.9057   20.9297 C   0  0  0  0  0  0  0  0  0  0  0  0
  -24.1450   -8.9001   21.6213 C   0  0  0  0  0  0  0  0  0  0  0  0
  -25.0634  -37.0928   18.6798 C   0  0  0  0  0  0  0  0  0  0  0  0
  -25.2375  -34.4972   17.6904 C   0  0  0  0  0  0  0  0  0  0  0  0
  -24.9641  -27.4709   19.0589 C   0  0  0  0  0  0  0  0  0  0  0  0
  -21.8636  -10.1467   20.6094 C   0  0  0  0  0  0  0  0  0  0  0  0
  -23.0194   -8.1410   21.3010 C   0  0  0  0  0  0  0  0  0  0  0  0
  -25.7821  -26.3419   19.0636 C   0  0  0  0  0  0  0  0  0  0  0  0
  -20.3243   -5.7189   21.0045 C   0  0  0  0  0  0  0  0  0  0  0  0
  -19.9163   -4.7458   21.9168 C   0  0  0  0  0  0  0  0  0  0  0  0
  -26.6342  -26.9756   21.2296 C   0  0  0  0  0  0  0  0  0  0  0  0
  -19.6114   -6.4519   23.6001 C   0  0  0  0  0  0  0  0  0  0  0  0
  -24.1299  -10.2824   21.4356 C   0  0  0  0  0  0  0  0  0  0  0  0
  -25.5909  -11.6645   23.0050 C   0  0  0  0  0  0  0  0  0  0  0  0
  -25.7045  -36.1062   19.4455 C   0  0  0  0  0  0  0  0  0  0  0  0
  -24.9831  -28.3680   20.1365 C   0  0  0  0  0  0  0  0  0  0  0  0
  -25.8026  -34.7950   18.9421 C   0  0  0  0  0  0  0  0  0  0  0  0
  -25.8136  -28.1139   21.2373 C   0  0  0  0  0  0  0  0  0  0  0  0
  -29.6049  -22.8951   19.1199 C   0  0  0  0  0  0  0  0  0  0  0  0
  -30.0911  -21.5797   19.3719 C   0  0  0  0  0  0  0  0  0  0  0  0
  -21.8787   -8.7643   20.7951 C   0  0  0  0  0  0  0  0  0  0  0  0
  -26.6194  -26.0956   20.1477 C   0  0  0  0  0  0  0  0  0  0  0  0
  -20.3760   -7.0584   21.3900 C   0  0  0  0  0  0  0  0  0  0  0  0
  -19.5598   -5.1123   23.2146 C   0  0  0  0  0  0  0  0  0  0  0  0
  -20.0195   -7.4249   22.6878 C   0  0  0  0  0  0  0  0  0  0  0  0
  -25.2930  -11.0659   21.7661 C   0  0  0  0  0  0  0  0  0  0  0  0
  -28.2317  -22.9641   19.2035 C   0  0  0  0  0  0  0  0  0  0  0  0
  -26.7973  -12.2892   22.8033 C   0  0  0  0  0  0  0  0  0  0  0  0
  -29.0708  -20.6933   19.6388 C   0  0  0  0  0  0  0  0  0  0  0  0
  -24.8438  -11.6565   24.2287 C   0  0  0  0  0  0  0  0  0  0  0  0
  -25.7256  -31.4389   20.4859 C   0  0  0  0  0  0  0  0  0  0  0  0
  -24.6266  -30.9598   23.5001 C   0  0  0  0  0  0  0  0  0  0  0  0
  -23.9941  -28.7691   26.0392 C   0  0  0  0  0  0  0  0  0  0  0  0
  -30.2601  -15.3291   19.8274 C   0  0  0  0  0  0  0  0  0  0  0  0
  -26.3306  -36.5002   20.7599 C   0  0  0  0  0  0  0  0  0  0  0  0
  -24.0751  -29.5671   20.1282 C   0  0  0  0  0  0  0  0  0  0  0  0
  -25.8563  -29.0352   22.4280 C   0  0  0  0  0  0  0  0  0  0  0  0
  -26.6660  -35.3105   21.6556 C   0  0  0  0  0  0  0  0  0  0  0  0
  -30.0814  -11.9762   18.9796 C   0  0  0  0  0  0  0  0  0  0  0  0
  -27.3711  -34.2208   20.8541 C   0  0  0  0  0  0  0  0  0  0  0  0
  -28.8441  -11.4769   19.7249 C   0  0  0  0  0  0  0  0  0  0  0  0
  -29.8397  -13.3595   18.3870 C   0  0  0  0  0  0  0  0  0  0  0  0
  -28.5465  -18.3510   19.0539 C   0  0  0  0  0  0  0  0  0  0  0  0
  -28.3791  -17.0064   19.7567 C   0  0  0  0  0  0  0  0  0  0  0  0
  -28.1894  -13.8982   20.1492 C   0  0  0  0  0  0  0  0  0  0  0  0
  -29.7896  -18.8694   21.1785 C   0  0  0  0  0  0  0  0  0  0  0  0
  -26.4698  -33.6904   19.7325 C   0  0  1  0  0  0  0  0  0  0  0  0
  -24.5537  -30.6855   21.0487 C   0  0  1  0  0  0  0  0  0  0  0  0
  -28.3814  -12.5019   20.7753 C   0  0  1  0  0  0  0  0  0  0  0  0
  -30.4819  -17.5045   21.0026 C   0  0  1  0  0  0  0  0  0  0  0  0
  -30.4738  -24.0570   18.8060 C   0  0  0  0  0  0  0  0  0  0  0  0
  -31.5302  -21.2125   19.3494 C   0  0  0  0  0  0  0  0  0  0  0  0
  -30.8776  -16.9561   22.3779 C   0  0  0  0  0  0  0  0  0  0  0  0
  -23.1316  -28.6787   28.3940 C   0  0  0  0  0  0  0  0  0  0  0  0
  -27.2754  -32.0878   24.5110 C   0  0  0  0  0  0  0  0  0  0  0  0
  -26.7554  -31.1090   26.7559 C   0  0  0  0  0  0  0  0  0  0  0  0
  -25.2624  -32.8539   25.7818 C   0  0  0  0  0  0  0  0  0  0  0  0
  -21.7488  -27.0001   25.2721 C   0  0  0  0  0  0  0  0  0  0  0  0
  -27.3469  -24.1355   19.0142 C   0  0  0  0  0  0  0  0  0  1  0  0
  -25.2441  -30.5216   24.8061 C   0  0  1  0  0  0  0  0  0  0  0  0
  -22.7733  -28.5731   26.9199 C   0  0  2  0  0  0  0  0  0  0  0  0
  -26.1352  -31.6266   25.4406 C   0  0  0  0  0  0  0  0  0  0  0  0
  -26.2344  -11.2903   20.8455 N   0  0  0  0  0  0  0  0  0  0  0  0
  -27.1355  -12.0369   21.5063 N   0  0  0  0  0  0  0  0  0  0  0  0
  -29.1941  -19.3332   19.9250 N   0  0  3  0  0  0  0  0  0  0  0  0
  -24.9545  -30.1975   22.3699 N   0  0  0  0  0  0  0  0  0  0  0  0
  -29.3968  -14.3033   19.4132 N   0  0  0  0  0  0  0  0  0  0  0  0
  -29.6637  -16.5247   20.2699 N   0  0  0  0  0  0  0  0  0  0  0  0
  -27.5913  -13.0242   23.6106 N   0  0  0  0  0  0  0  0  0  0  0  0
  -23.6244  -10.9664   24.2626 N   0  0  0  0  0  0  0  0  0  0  0  0
  -25.4793  -32.7809   20.2675 N   0  0  0  0  0  0  0  0  0  0  0  0
  -24.1397  -30.0848   25.6535 N   0  0  0  0  0  0  0  0  0  0  0  0
  -22.1698  -27.2321   26.6778 N   0  3  0  0  0  0  0  0  0  0  0  0
  -25.2377  -12.2577   25.2568 O   0  0  0  0  0  0  0  0  0  0  0  0
  -26.7760  -30.8468   20.2675 O   0  0  0  0  0  0  0  0  0  0  0  0
  -23.8753  -31.9380   23.4845 O   0  0  0  0  0  0  0  0  0  0  0  0
  -24.7457  -27.8478   25.7279 O   0  0  0  0  0  0  0  0  0  0  0  0
  -31.4892  -15.1873   19.8094 O   0  0  0  0  0  0  0  0  0  0  0  0
  -20.7805   -8.0234   20.4829 O   0  0  0  0  0  0  0  0  0  0  0  0
  -27.4238  -24.9885   20.1545 O   0  0  0  0  0  0  0  0  0  1  0  0
  -19.1666   -4.1780   24.0901 F   0  0  0  0  0  0  0  0  0  0  0  0
  -20.0660   -8.7104   23.0636 F   0  0  0  0  0  0  0  0  0  0  0  0
  -27.5342  -21.4473   19.5846 S   0  0  0  0  0  0  0  0  0  0  0  0
  1  2  1  0  0  0  0
  1  5  2  0  0  0  0
  2  6  2  0  0  0  0
  3  8  2  0  0  0  0
  3 15  1  0  0  0  0
  4  9  1  0  0  0  0
  4 15  2  0  0  0  0
  5 17  1  0  0  0  0
  6 19  1  0  0  0  0
  7 10  2  0  0  0  0
  7 18  1  0  0  0  0
  8 23  1  0  0  0  0
  9 23  2  0  0  0  0
 10 24  1  0  0  0  0
 11 12  2  0  0  0  0
 11 25  1  0  0  0  0
 12 26  1  0  0  0  0
 13 20  1  0  0  0  0
 13 24  2  0  0  0  0
 14 26  2  0  0  0  0
 14 27  1  0  0  0  0
 15 28  1  0  0  0  0
 16 28  1  0  0  0  0
 16 30  2  0  0  0  0
 16 32  1  0  0  0  0
 17 19  2  0  0  0  0
 17 37  1  0  0  0  0
 18 20  2  0  0  0  0
 18 38  1  0  0  0  0
 19 49  1  0  0  0  0
 20 39  1  0  0  0  0
 21 22  1  0  0  0  0
 21 29  2  0  0  0  0
 21 53  1  0  0  0  0
 22 31  2  0  0  0  0
 22 54  1  0  0  0  0
 23 81  1  0  0  0  0
 24 82  1  0  0  0  0
 25 27  2  0  0  0  0
 25 81  1  0  0  0  0
 26 83  1  0  0  0  0
 27 84  1  0  0  0  0
 28 65  2  0  0  0  0
 29 61  1  0  0  0  0
 29 85  1  0  0  0  0
 30 66  1  0  0  0  0
 30 71  1  0  0  0  0
 31 67  1  0  0  0  0
 31 85  1  0  0  0  0
 32 72  1  0  0  0  0
 32 76  2  0  0  0  0
 33 50  1  0  0  0  0
 33 73  1  0  0  0  0
 33 77  2  0  0  0  0
 34 62  1  0  0  0  0
 34 68  1  0  0  0  0
 34 78  2  0  0  0  0
 35 63  1  0  0  0  0
 35 74  1  0  0  0  0
 35 79  2  0  0  0  0
 36 69  1  0  0  0  0
 36 70  1  0  0  0  0
 36 80  2  0  0  0  0
 37 40  1  0  0  0  0
 38 50  1  0  0  0  0
 39 68  1  0  0  0  0
 40 42  1  0  0  0  0
 41 43  1  0  0  0  0
 41 44  1  0  0  0  0
 42 49  1  0  0  0  0
 43 51  1  0  0  0  0
 44 69  1  0  0  0  0
 45 46  1  0  0  0  0
 45 67  1  0  0  0  0
 46 70  1  0  0  0  0
 47 51  1  0  0  0  0
 47 69  1  0  0  0  0
 48 52  1  0  0  0  0
 48 67  1  0  0  0  0
 49 73  1  0  0  0  0
 50 68  1  0  0  0  0
 51 66  1  0  0  0  0
 52 55  1  0  0  0  0
 52 70  1  0  0  0  0
 56 63  1  0  0  0  0
 57 64  1  0  0  0  0
 58 64  1  0  0  0  0
 59 64  1  0  0  0  0
 60 75  1  0  0  0  0
 61 82  1  0  0  0  0
 62 64  1  0  0  0  0
 62 74  1  0  0  0  0
 63 75  1  0  0  0  0
 65 66  1  0  0  0  0
M  CHG  1  75   1
M  ISO  4  36 100  61 101  70 100  82 101
M  END
> <Batch ID>
0170

> <Smiles>
CNC(C)C(=O)NC(C(=O)N1Cc2cc([101O:1][101CH2:1]c3sc(N4CC[100N:0]([100C:0](=O)N5CCCC(n6nc(-c7ccc(Oc8ccc(F)cc8F)cc7)c(C(N)=O)c6N)C5)C(C)C4)c(C)c3C)ccc2CC1C(=O)NC1CCCc2ccccc21)C(C)(C)C

> <Shape>
0.288

> <Color>
0.117

> <Negative vol penalty>
0.000

$$$$

  -OEChem-04052322353D

 88 97  0     1  0  0  0  0  0999 V2000
  -31.2394  -24.6299   14.6042 C   0  0  0  0  0  0  0  0  0  0  0  0
  -29.9096  -24.4759   14.9830 C   0  0  0  0  0  0  0  0  0  0  0  0
  -26.4152  -15.8970   19.4681 C   0  0  0  0  0  0  0  0  0  0  0  0
  -24.1781  -15.4726   20.2759 C   0  0  0  0  0  0  0  0  0  0  0  0
  -32.1948  -24.9963   15.5512 C   0  0  0  0  0  0  0  0  0  0  0  0
  -29.5348  -24.6870   16.3094 C   0  0  0  0  0  0  0  0  0  0  0  0
  -24.2519  -27.0518   18.3104 C   0  0  0  0  0  0  0  0  0  0  0  0
  -19.3047  -28.2608   21.4193 C   0  0  0  0  0  0  0  0  0  0  0  0
  -26.7430  -14.5567   19.6718 C   0  0  0  0  0  0  0  0  0  0  0  0
  -24.5059  -14.1322   20.4794 C   0  0  0  0  0  0  0  0  0  0  0  0
  -23.0852  -26.4633   18.7966 C   0  0  0  0  0  0  0  0  0  0  0  0
  -27.5774  -12.5641   22.2713 C   0  0  0  0  0  0  0  0  0  0  0  0
  -28.7963  -12.2823   22.8881 C   0  0  0  0  0  0  0  0  0  0  0  0
  -19.3032  -29.2707   22.3750 C   0  0  0  0  0  0  0  0  0  0  0  0
  -23.8729  -26.7815   21.0544 C   0  0  0  0  0  0  0  0  0  0  0  0
  -29.4970  -11.0421   20.9367 C   0  0  0  0  0  0  0  0  0  0  0  0
  -25.1327  -16.3550   19.7703 C   0  0  0  0  0  0  0  0  0  0  0  0
  -24.2619  -18.3172   18.3921 C   0  0  0  0  0  0  0  0  0  0  0  0
  -31.8299  -25.2214   16.8879 C   0  0  0  0  0  0  0  0  0  0  0  0
  -25.2443  -27.5004   19.1937 C   0  0  0  0  0  0  0  0  0  0  0  0
  -30.4865  -25.0553   17.2755 C   0  0  0  0  0  0  0  0  0  0  0  0
  -25.0500  -27.3776   20.5770 C   0  0  0  0  0  0  0  0  0  0  0  0
  -19.3428  -26.9304   21.8218 C   0  0  0  0  0  0  0  0  0  0  0  0
  -25.7884  -13.6742   20.1774 C   0  0  0  0  0  0  0  0  0  0  0  0
  -22.8969  -26.3254   20.1687 C   0  0  0  0  0  0  0  0  0  0  0  0
  -27.3182  -12.0849   20.9872 C   0  0  0  0  0  0  0  0  0  0  0  0
  -29.7561  -11.5213   22.2208 C   0  0  0  0  0  0  0  0  0  0  0  0
  -28.2781  -11.3239   20.3199 C   0  0  0  0  0  0  0  0  0  0  0  0
  -24.7936  -17.7397   19.5607 C   0  0  0  0  0  0  0  0  0  0  0  0
  -19.3404  -28.9006   23.7097 C   0  0  0  0  0  0  0  0  0  0  0  0
  -19.3785  -26.6651   23.1813 C   0  0  0  0  0  0  0  0  0  0  0  0
  -24.1199  -19.6480   18.7008 C   0  0  0  0  0  0  0  0  0  0  0  0
  -23.9262  -17.7054   17.1396 C   0  0  0  0  0  0  0  0  0  0  0  0
  -28.2891  -26.7511   19.7144 C   0  0  0  0  0  0  0  0  0  0  0  0
  -28.1575  -29.2758   21.7469 C   0  0  0  0  0  0  0  0  0  0  0  0
  -26.2541  -31.3228   23.7048 C   0  0  0  0  0  0  0  0  0  0  0  0
  -23.4329  -22.5829   23.8744 C   0  0  0  0  0  0  0  0  0  0  0  0
  -32.9061  -25.5697   17.8854 C   0  0  0  0  0  0  0  0  0  0  0  0
  -26.4851  -28.1573   18.6541 C   0  0  0  0  0  0  0  0  0  0  0  0
  -26.0759  -27.8615   21.5679 C   0  0  0  0  0  0  0  0  0  0  0  0
  -32.3630  -26.1398   19.1932 C   0  0  0  0  0  0  0  0  0  0  0  0
  -26.0030  -23.0735   21.4597 C   0  0  0  0  0  0  0  0  0  0  0  0
  -31.1983  -25.2956   19.7006 C   0  0  0  0  0  0  0  0  0  0  0  0
  -25.9365  -21.8142   20.5937 C   0  0  0  0  0  0  0  0  0  0  0  0
  -25.7146  -22.7651   22.9272 C   0  0  0  0  0  0  0  0  0  0  0  0
  -20.6538  -24.5917   23.7991 C   0  0  0  0  0  0  0  0  0  0  0  0
  -24.3847  -20.7854   22.3061 C   0  0  0  0  0  0  0  0  0  0  0  0
  -18.2307  -24.5311   23.8411 C   0  0  0  0  0  0  0  0  0  0  0  0
  -30.0367  -25.2996   18.6996 C   0  0  1  0  0  0  0  0  0  0  0  0
  -27.6575  -28.1118   19.6292 C   0  0  1  0  0  0  0  0  0  0  0  0
  -20.1773  -23.1362   23.9218 C   0  0  2  0  0  0  0  0  0  0  0  0
  -24.6135  -21.0549   20.8090 C   0  0  2  0  0  0  0  0  0  0  0  0
  -18.8011  -23.3098   24.5560 C   0  0  2  0  0  0  0  0  0  0  0  0
  -19.3405  -29.9580   24.7626 C   0  0  0  0  0  0  0  0  0  0  0  0
  -18.0561  -25.8574   19.9444 C   0  0  0  0  0  0  0  0  0  0  0  0
  -26.4338  -33.2715   25.2758 C   0  0  0  0  0  0  0  0  0  0  0  0
  -29.2291  -27.4217   23.9204 C   0  0  0  0  0  0  0  0  0  0  0  0
  -28.4966  -29.1065   25.6213 C   0  0  0  0  0  0  0  0  0  0  0  0
  -30.2209  -29.7175   23.9254 C   0  0  0  0  0  0  0  0  0  0  0  0
  -24.5463  -33.0181   21.9819 C   0  0  0  0  0  0  0  0  0  0  0  0
  -21.1254  -22.2669   24.7314 C   0  0  0  0  0  0  0  0  0  0  0  0
  -20.5765  -25.9036   19.8625 C   0  0  0  0  0  0  0  0  0  1  0  0
  -19.3433  -25.8292   20.7732 C   0  0  1  0  0  0  0  0  0  0  0  0
  -27.8114  -29.4575   23.2051 C   0  0  1  0  0  0  0  0  0  0  0  0
  -26.2093  -32.8345   23.8365 C   0  0  2  0  0  0  0  0  0  0  0  0
  -28.9208  -28.9148   24.1496 C   0  0  0  0  0  0  0  0  0  0  0  0
  -24.9771  -18.6306   20.5387 N   0  0  0  0  0  0  0  0  0  0  0  0
  -19.3782  -27.6193   24.1390 N   0  0  0  0  0  0  0  0  0  0  0  0
  -24.5585  -19.7816   19.9853 N   0  0  0  0  0  0  0  0  0  0  0  0
  -19.4179  -25.3476   23.5851 N   0  0  3  0  0  0  0  0  0  0  0  0
  -27.2752  -28.4911   20.9909 N   0  0  0  0  0  0  0  0  0  0  0  0
  -24.4456  -22.0459   23.0624 N   0  0  0  0  0  0  0  0  0  0  0  0
  -23.6641  -20.7053   17.9960 N   0  0  0  0  0  0  0  0  0  0  0  0
  -24.1352  -16.3274   16.9919 N   0  0  0  0  0  0  0  0  0  0  0  0
  -29.2950  -26.5389   18.7910 N   0  0  0  0  0  0  0  0  0  0  0  0
  -27.5176  -30.8756   23.3812 N   0  0  0  0  0  0  0  0  0  0  0  0
  -22.2598  -21.8413   23.9424 N   0  0  0  0  0  0  0  0  0  0  0  0
  -17.9496  -22.1246   24.3469 N   0  3  0  0  0  0  0  0  0  0  0  0
  -24.8865  -33.3545   23.3884 N   0  3  0  0  0  0  0  0  0  0  0  0
  -23.4704  -18.3642   16.1744 O   0  0  0  0  0  0  0  0  0  0  0  0
  -27.8942  -25.9534   20.5566 O   0  0  0  0  0  0  0  0  0  0  0  0
  -29.1695  -29.8162   21.2937 O   0  0  0  0  0  0  0  0  0  0  0  0
  -25.2678  -30.6097   23.8759 O   0  0  0  0  0  0  0  0  0  0  0  0
  -23.5625  -23.6473   24.4886 O   0  0  0  0  0  0  0  0  0  0  0  0
  -26.1079  -12.3661   20.3759 O   0  0  0  0  0  0  0  0  0  0  0  0
  -21.7594  -25.7507   20.6459 O   0  0  0  0  0  0  0  0  0  1  0  0
  -30.9272  -11.2521   22.8126 F   0  0  0  0  0  0  0  0  0  0  0  0
  -28.0353  -10.8618   19.0857 F   0  0  0  0  0  0  0  0  0  0  0  0
  1  2  1  0  0  0  0
  1  5  2  0  0  0  0
  2  6  2  0  0  0  0
  3  9  2  0  0  0  0
  3 17  1  0  0  0  0
  4 10  1  0  0  0  0
  4 17  2  0  0  0  0
  5 19  1  0  0  0  0
  6 21  1  0  0  0  0
  7 11  2  0  0  0  0
  7 20  1  0  0  0  0
  8 14  2  0  0  0  0
  8 23  1  0  0  0  0
  9 24  1  0  0  0  0
 10 24  2  0  0  0  0
 11 25  1  0  0  0  0
 12 13  2  0  0  0  0
 12 26  1  0  0  0  0
 13 27  1  0  0  0  0
 14 30  1  0  0  0  0
 15 22  1  0  0  0  0
 15 25  2  0  0  0  0
 16 27  2  0  0  0  0
 16 28  1  0  0  0  0
 17 29  1  0  0  0  0
 18 29  1  0  0  0  0
 18 32  2  0  0  0  0
 18 33  1  0  0  0  0
 19 21  2  0  0  0  0
 19 38  1  0  0  0  0
 20 22  2  0  0  0  0
 20 39  1  0  0  0  0
 21 49  1  0  0  0  0
 22 40  1  0  0  0  0
 23 31  2  0  0  0  0
 23 63  1  0  0  0  0
 24 85  1  0  0  0  0
 25 86  1  0  0  0  0
 26 28  2  0  0  0  0
 26 85  1  0  0  0  0
 27 87  1  0  0  0  0
 28 88  1  0  0  0  0
 29 67  2  0  0  0  0
 30 54  1  0  0  0  0
 30 68  2  0  0  0  0
 31 68  1  0  0  0  0
 31 70  1  0  0  0  0
 32 69  1  0  0  0  0
 32 73  1  0  0  0  0
 33 74  1  0  0  0  0
 33 80  2  0  0  0  0
 34 50  1  0  0  0  0
 34 75  1  0  0  0  0
 34 81  2  0  0  0  0
 35 64  1  0  0  0  0
 35 71  1  0  0  0  0
 35 82  2  0  0  0  0
 36 65  1  0  0  0  0
 36 76  1  0  0  0  0
 36 83  2  0  0  0  0
 37 72  1  0  0  0  0
 37 77  1  0  0  0  0
 37 84  2  0  0  0  0
 38 41  1  0  0  0  0
 39 50  1  0  0  0  0
 40 71  1  0  0  0  0
 41 43  1  0  0  0  0
 42 44  1  0  0  0  0
 42 45  1  0  0  0  0
 43 49  1  0  0  0  0
 44 52  1  0  0  0  0
 45 72  1  0  0  0  0
 46 51  1  0  0  0  0
 46 70  1  0  0  0  0
 47 52  1  0  0  0  0
 47 72  1  0  0  0  0
 48 53  1  0  0  0  0
 48 70  1  0  0  0  0
 49 75  1  0  0  0  0
 50 71  1  0  0  0  0
 51 53  1  0  0  0  0
 51 61  1  0  0  0  0
 52 69  1  0  0  0  0
 53 78  1  0  0  0  0
 55 63  1  0  0  0  0
 56 65  1  0  0  0  0
 57 66  1  0  0  0  0
 58 66  1  0  0  0  0
 59 66  1  0  0  0  0
 60 79  1  0  0  0  0
 61 77  1  0  0  0  0
 62 63  1  0  0  0  0
 62 86  1  0  0  0  0
 64 66  1  0  0  0  0
 64 76  1  0  0  0  0
 65 79  1  0  0  0  0
 67 69  1  0  0  0  0
M  CHG  2  78   1  79   1
M  ISO  4  37 100  62 101  77 100  86 101
M  END
> <Batch ID>
0170

> <Smiles>
CNC(C)C(=O)NC(C(=O)N1Cc2cc([101O:1][101CH2:1]C(C)c3ccc(C)nc3N3CC(N)C(C[100NH:0][100C:0](=O)N4CCCC(n5nc(-c6ccc(Oc7ccc(F)cc7F)cc6)c(C(N)=O)c5N)C4)C3)ccc2CC1C(=O)NC1CCCc2ccccc21)C(C)(C)C

> <Shape>
0.212

> <Color>
0.051

> <Negative vol penalty>
0.000

$$$$

  -OEChem-04052322353D

 87 98  0     1  0  0  0  0  0999 V2000
  -35.4404  -33.3060   28.0364 C   0  0  0  0  0  0  0  0  0  0  0  0
  -35.0771  -31.9794   28.2450 C   0  0  0  0  0  0  0  0  0  0  0  0
  -23.0704   -9.8226   20.0372 C   0  0  0  0  0  0  0  0  0  0  0  0
  -23.7033  -10.0451   22.3582 C   0  0  0  0  0  0  0  0  0  0  0  0
  -34.6116  -34.1461   27.2940 C   0  0  0  0  0  0  0  0  0  0  0  0
  -33.8840  -31.4924   27.7122 C   0  0  0  0  0  0  0  0  0  0  0  0
  -32.8397  -25.8499   25.5727 C   0  0  0  0  0  0  0  0  0  0  0  0
  -22.3141   -8.6936   20.3516 C   0  0  0  0  0  0  0  0  0  0  0  0
  -22.9470   -8.9161   22.6726 C   0  0  0  0  0  0  0  0  0  0  0  0
  -32.2410  -24.7268   26.1419 C   0  0  0  0  0  0  0  0  0  0  0  0
  -23.2686   -5.5584   22.4414 C   0  0  0  0  0  0  0  0  0  0  0  0
  -23.8439   -4.6069   23.2835 C   0  0  0  0  0  0  0  0  0  0  0  0
  -30.1512  -25.3156   25.0907 C   0  0  0  0  0  0  0  0  0  0  0  0
  -29.8015  -17.3369   27.2711 C   0  0  0  0  0  0  0  0  0  0  0  0
  -22.0514   -4.9284   24.8712 C   0  0  0  0  0  0  0  0  0  0  0  0
  -23.7651  -10.4984   21.0404 C   0  0  0  0  0  0  0  0  0  0  0  0
  -24.1126  -13.0035   20.7064 C   0  0  0  0  0  0  0  0  0  0  0  0
  -33.4124  -33.6666   26.7437 C   0  0  0  0  0  0  0  0  0  0  0  0
  -32.0946  -26.7217   24.7657 C   0  0  0  0  0  0  0  0  0  0  0  0
  -33.0377  -32.3273   26.9629 C   0  0  0  0  0  0  0  0  0  0  0  0
  -30.7434  -26.4477   24.5103 C   0  0  0  0  0  0  0  0  0  0  0  0
  -29.8950  -16.2541   26.3624 C   0  0  0  0  0  0  0  0  0  0  0  0
  -22.2524   -8.2403   21.6693 C   0  0  0  0  0  0  0  0  0  0  0  0
  -30.8958  -24.4611   25.9033 C   0  0  0  0  0  0  0  0  0  0  0  0
  -22.0847   -6.1950   22.8141 C   0  0  0  0  0  0  0  0  0  0  0  0
  -23.2353   -4.2919   24.4984 C   0  0  0  0  0  0  0  0  0  0  0  0
  -21.4761   -5.8799   24.0291 C   0  0  0  0  0  0  0  0  0  0  0  0
  -24.5469  -11.6644   20.7161 C   0  0  0  0  0  0  0  0  0  0  0  0
  -30.5373  -18.3774   26.7482 C   0  0  0  0  0  0  0  0  0  0  0  0
  -30.6853  -16.6657   25.3120 C   0  0  0  0  0  0  0  0  0  0  0  0
  -25.2229  -13.7219   20.3356 C   0  0  0  0  0  0  0  0  0  0  0  0
  -22.8209  -13.5491   21.0059 C   0  0  0  0  0  0  0  0  0  0  0  0
  -31.2771  -29.7887   24.9360 C   0  0  0  0  0  0  0  0  0  0  0  0
  -30.0798  -29.2316   21.9731 C   0  0  0  0  0  0  0  0  0  0  0  0
  -28.8722  -26.9777   19.7129 C   0  0  0  0  0  0  0  0  0  0  0  0
  -30.7586  -14.6597   20.9151 C   0  0  0  0  0  0  0  0  0  0  0  0
  -32.5260  -34.6250   25.9884 C   0  0  0  0  0  0  0  0  0  0  0  0
  -32.7620  -27.9143   24.1374 C   0  0  0  0  0  0  0  0  0  0  0  0
  -29.9047  -27.3412   23.6347 C   0  0  0  0  0  0  0  0  0  0  0  0
  -31.4616  -33.9318   25.1418 C   0  0  0  0  0  0  0  0  0  0  0  0
  -29.6684  -12.2320   18.4964 C   0  0  0  0  0  0  0  0  0  0  0  0
  -30.7675  -32.8381   25.9475 C   0  0  0  0  0  0  0  0  0  0  0  0
  -28.2244  -11.9337   18.8859 C   0  0  0  0  0  0  0  0  0  0  0  0
  -33.2692  -18.2636   24.2487 C   0  0  0  0  0  0  0  0  0  0  0  0
  -33.1726  -19.4088   25.2073 C   0  0  0  0  0  0  0  0  0  0  0  0
  -29.4864  -20.5534   27.7680 C   0  0  0  0  0  0  0  0  0  0  0  0
  -30.5181  -12.5094   19.7293 C   0  0  0  0  0  0  0  0  0  0  0  0
  -30.0224  -14.8542   23.4211 C   0  0  0  0  0  0  0  0  0  0  0  0
  -31.1453  -16.4829   22.6598 C   0  0  0  0  0  0  0  0  0  0  0  0
  -28.5457  -13.3851   20.9526 C   0  0  0  0  0  0  0  0  0  0  0  0
  -31.7634  -31.7554   26.3803 C   0  0  1  0  0  0  0  0  0  0  0  0
  -30.7209  -19.7606   27.3967 C   0  0  2  0  0  0  0  0  0  0  0  0
  -31.0786  -15.7985   24.0445 C   0  0  0  0  0  0  0  0  0  0  0  0
  -31.7783  -29.0142   23.7500 C   0  0  1  0  0  0  0  0  0  0  0  0
  -30.3240  -20.9874   26.6022 C   0  0  2  0  0  0  0  0  0  0  0  0
  -31.9114  -18.7577   24.6900 C   0  0  0  0  0  0  0  0  0  0  0  0
  -27.6505  -13.0761   19.7362 C   0  0  2  0  0  0  0  0  0  0  0  0
  -29.2580  -14.9319   26.5226 C   0  0  0  0  0  0  0  0  0  0  0  0
  -27.9368  -26.8263   17.3892 C   0  0  0  0  0  0  0  0  0  0  0  0
  -27.4241  -30.3540   22.9716 C   0  0  0  0  0  0  0  0  0  0  0  0
  -26.3172  -29.3195   20.9785 C   0  0  0  0  0  0  0  0  0  0  0  0
  -28.0599  -31.0762   20.6633 C   0  0  0  0  0  0  0  0  0  0  0  0
  -31.0718  -25.2116   18.8177 C   0  0  0  0  0  0  0  0  0  0  0  0
  -31.1411  -22.2302   26.6900 C   0  0  0  0  0  0  0  0  0  1  0  0
  -28.7513  -28.7673   21.4267 C   0  0  1  0  0  0  0  0  0  0  0  0
  -29.1912  -26.7527   18.2459 C   0  0  2  0  0  0  0  0  0  0  0  0
  -27.6532  -29.8633   21.5281 C   0  0  0  0  0  0  0  0  0  0  0  0
  -25.8329  -11.5370   20.3782 N   0  0  0  0  0  0  0  0  0  0  0  0
  -31.0703  -17.9578   25.5574 N   0  0  0  0  0  0  0  0  0  0  0  0
  -26.2160  -12.8052   20.1526 N   0  0  0  0  0  0  0  0  0  0  0  0
  -30.6011  -28.4982   23.0484 N   0  0  0  0  0  0  0  0  0  0  0  0
  -29.9501  -13.5731   20.5632 N   0  0  0  0  0  0  0  0  0  0  0  0
  -30.5376  -15.2694   22.1276 N   0  0  0  0  0  0  0  0  0  0  0  0
  -25.4368  -15.0420   20.1515 N   0  0  0  0  0  0  0  0  0  0  0  0
  -21.7922  -12.6696   21.3700 N   0  0  0  0  0  0  0  0  0  0  0  0
  -32.0640  -30.8734   25.2730 N   0  0  0  0  0  0  0  0  0  0  0  0
  -29.0086  -28.3031   20.0678 N   0  0  0  0  0  0  0  0  0  0  0  0
  -29.8154  -25.4136   18.0510 N   0  3  0  0  0  0  0  0  0  0  0  0
  -22.5817  -14.7785   20.9363 O   0  0  0  0  0  0  0  0  0  0  0  0
  -30.2514  -29.4296   25.5024 O   0  0  0  0  0  0  0  0  0  0  0  0
  -30.6380  -30.2046   21.4599 O   0  0  0  0  0  0  0  0  0  0  0  0
  -28.5321  -26.0692   20.4676 O   0  0  0  0  0  0  0  0  0  0  0  0
  -31.6733  -15.0579   20.1817 O   0  0  0  0  0  0  0  0  0  0  0  0
  -21.5143   -7.1388   21.9766 O   0  0  0  0  0  0  0  0  0  0  0  0
  -30.3088  -23.3659   26.4582 O   0  0  0  0  0  0  0  0  0  1  0  0
  -23.7871   -3.3770   25.3064 F   0  0  0  0  0  0  0  0  0  0  0  0
  -20.3380   -6.4872   24.3921 F   0  0  0  0  0  0  0  0  0  0  0  0
  1  2  1  0  0  0  0
  1  5  2  0  0  0  0
  2  6  2  0  0  0  0
  3  8  2  0  0  0  0
  3 16  1  0  0  0  0
  4  9  1  0  0  0  0
  4 16  2  0  0  0  0
  5 18  1  0  0  0  0
  6 20  1  0  0  0  0
  7 10  2  0  0  0  0
  7 19  1  0  0  0  0
  8 23  1  0  0  0  0
  9 23  2  0  0  0  0
 10 24  1  0  0  0  0
 11 12  2  0  0  0  0
 11 25  1  0  0  0  0
 12 26  1  0  0  0  0
 13 21  1  0  0  0  0
 13 24  2  0  0  0  0
 14 22  1  0  0  0  0
 14 29  2  0  0  0  0
 15 26  2  0  0  0  0
 15 27  1  0  0  0  0
 16 28  1  0  0  0  0
 17 28  1  0  0  0  0
 17 31  2  0  0  0  0
 17 32  1  0  0  0  0
 18 20  2  0  0  0  0
 18 37  1  0  0  0  0
 19 21  2  0  0  0  0
 19 38  1  0  0  0  0
 20 51  1  0  0  0  0
 21 39  1  0  0  0  0
 22 30  2  0  0  0  0
 22 58  1  0  0  0  0
 23 84  1  0  0  0  0
 24 85  1  0  0  0  0
 25 27  2  0  0  0  0
 25 84  1  0  0  0  0
 26 86  1  0  0  0  0
 27 87  1  0  0  0  0
 28 68  2  0  0  0  0
 29 52  1  0  0  0  0
 29 69  1  0  0  0  0
 30 53  1  0  0  0  0
 30 69  1  0  0  0  0
 31 70  1  0  0  0  0
 31 74  1  0  0  0  0
 32 75  1  0  0  0  0
 32 79  2  0  0  0  0
 33 54  1  0  0  0  0
 33 76  1  0  0  0  0
 33 80  2  0  0  0  0
 34 65  1  0  0  0  0
 34 71  1  0  0  0  0
 34 81  2  0  0  0  0
 35 66  1  0  0  0  0
 35 77  1  0  0  0  0
 35 82  2  0  0  0  0
 36 72  1  0  0  0  0
 36 73  1  0  0  0  0
 36 83  2  0  0  0  0
 37 40  1  0  0  0  0
 38 54  1  0  0  0  0
 39 71  1  0  0  0  0
 40 42  1  0  0  0  0
 41 43  1  0  0  0  0
 41 47  1  0  0  0  0
 42 51  1  0  0  0  0
 43 57  1  0  0  0  0
 44 45  1  0  0  0  0
 44 56  1  0  0  0  0
 45 56  1  0  0  0  0
 46 52  1  0  0  0  0
 46 55  1  0  0  0  0
 47 72  1  0  0  0  0
 48 53  1  0  0  0  0
 48 73  1  0  0  0  0
 49 53  1  0  0  0  0
 49 73  1  0  0  0  0
 50 57  1  0  0  0  0
 50 72  1  0  0  0  0
 51 76  1  0  0  0  0
 52 55  1  0  0  0  0
 54 71  1  0  0  0  0
 55 64  1  0  0  0  0
 56 69  1  0  0  0  0
 57 70  1  0  0  0  0
 59 66  1  0  0  0  0
 60 67  1  0  0  0  0
 61 67  1  0  0  0  0
 62 67  1  0  0  0  0
 63 78  1  0  0  0  0
 64 85  1  0  0  0  0
 65 67  1  0  0  0  0
 65 77  1  0  0  0  0
 66 78  1  0  0  0  0
 68 70  1  0  0  0  0
M  CHG  1  78   1
M  ISO  4  36 100  64 101  73 100  85 101
M  END
> <Batch ID>
0170

> <Smiles>
CNC(C)C(=O)NC(C(=O)N1Cc2cc([101O:1][101CH2:1]C3CC3c3cc(C)c(C4C[100N:0]([100C:0](=O)N5CCCC(n6nc(-c7ccc(Oc8ccc(F)cc8F)cc7)c(C(N)=O)c6N)C5)C4)n3C3CC3)ccc2CC1C(=O)NC1CCCc2ccccc21)C(C)(C)C

> <Shape>
0.220

> <Color>
0.213

> <Negative vol penalty>
0.000

$$$$

  -OEChem-04052322353D

 91102  0     1  0  0  0  0  0999 V2000
  -24.9364  -18.4370   18.6876 C   0  0  0  0  0  0  0  0  0  0  0  0
  -24.4450  -19.7096   18.9601 C   0  0  0  0  0  0  0  0  0  0  0  0
  -23.9638  -13.7488   20.1849 C   0  0  0  0  0  0  0  0  0  0  0  0
  -23.6590  -12.3307   22.1171 C   0  0  0  0  0  0  0  0  0  0  0  0
  -26.2421  -18.1038   19.0452 C   0  0  0  0  0  0  0  0  0  0  0  0
  -25.2589  -20.6497   19.5913 C   0  0  0  0  0  0  0  0  0  0  0  0
  -24.9915  -25.2186   17.4237 C   0  0  0  0  0  0  0  0  0  0  0  0
  -25.1207  -13.0450   19.8508 C   0  0  0  0  0  0  0  0  0  0  0  0
  -24.8160  -11.6269   21.7830 C   0  0  0  0  0  0  0  0  0  0  0  0
  -23.8742  -25.9987   17.7183 C   0  0  0  0  0  0  0  0  0  0  0  0
  -28.3531  -11.8504   18.6897 C   0  0  0  0  0  0  0  0  0  0  0  0
  -29.4769  -12.5870   18.3155 C   0  0  0  0  0  0  0  0  0  0  0  0
  -18.9358  -28.3344   23.6577 C   0  0  0  0  0  0  0  0  0  0  0  0
  -25.1749  -27.2445   19.3231 C   0  0  0  0  0  0  0  0  0  0  0  0
  -29.4763  -13.6820   20.4691 C   0  0  0  0  0  0  0  0  0  0  0  0
  -23.2329  -13.3917   21.3181 C   0  0  0  0  0  0  0  0  0  0  0  0
  -20.7221  -13.8375   21.2504 C   0  0  0  0  0  0  0  0  0  0  0  0
  -27.0756  -19.0433   19.6724 C   0  0  0  0  0  0  0  0  0  0  0  0
  -26.2080  -25.4388   18.0855 C   0  0  0  0  0  0  0  0  0  0  0  0
  -26.5766  -20.3283   19.9588 C   0  0  0  0  0  0  0  0  0  0  0  0
  -18.3837  -27.0623   23.5079 C   0  0  0  0  0  0  0  0  0  0  0  0
  -26.3068  -26.4675   19.0332 C   0  0  0  0  0  0  0  0  0  0  0  0
  -20.2031  -28.0240   21.6244 C   0  0  0  0  0  0  0  0  0  0  0  0
  -19.8455  -28.8153   22.7159 C   0  0  0  0  0  0  0  0  0  0  0  0
  -19.6511  -26.7518   21.4746 C   0  0  0  0  0  0  0  0  0  0  0  0
  -18.7414  -26.2709   22.4163 C   0  0  0  0  0  0  0  0  0  0  0  0
  -25.5469  -11.9840   20.6498 C   0  0  0  0  0  0  0  0  0  0  0  0
  -23.9650  -27.0100   18.6703 C   0  0  0  0  0  0  0  0  0  0  0  0
  -27.7909  -12.0295   19.9536 C   0  0  0  0  0  0  0  0  0  0  0  0
  -30.0385  -13.5028   19.2052 C   0  0  0  0  0  0  0  0  0  0  0  0
  -28.3524  -12.9453   20.8433 C   0  0  0  0  0  0  0  0  0  0  0  0
  -22.0380  -14.1187   21.6641 C   0  0  0  0  0  0  0  0  0  0  0  0
  -19.9592  -14.8119   21.8463 C   0  0  0  0  0  0  0  0  0  0  0  0
  -20.2330  -12.7892   20.4033 C   0  0  0  0  0  0  0  0  0  0  0  0
  -28.0644  -23.7103   20.0012 C   0  0  0  0  0  0  0  0  0  0  0  0
  -30.0653  -26.2463   19.7062 C   0  0  0  0  0  0  0  0  0  0  0  0
  -30.4499  -29.5712   19.0397 C   0  0  0  0  0  0  0  0  0  0  0  0
  -18.9387  -19.8904   23.2510 C   0  0  0  0  0  0  0  0  0  0  0  0
  -28.4644  -18.6220   20.0827 C   0  0  0  0  0  0  0  0  0  0  0  0
  -27.4111  -24.6060   17.7370 C   0  0  0  0  0  0  0  0  0  0  0  0
  -27.5953  -26.7577   19.7572 C   0  0  0  0  0  0  0  0  0  0  0  0
  -29.3848  -19.7949   20.4107 C   0  0  0  0  0  0  0  0  0  0  0  0
  -21.1166  -18.1911   25.4185 C   0  0  0  0  0  0  0  0  0  0  0  0
  -16.0511  -26.1120   24.0823 C   0  0  0  0  0  0  0  0  0  0  0  0
  -16.1903  -27.4000   24.8320 C   0  0  0  0  0  0  0  0  0  0  0  0
  -28.6720  -20.7965   21.3137 C   0  0  0  0  0  0  0  0  0  0  0  0
  -21.4506  -16.9456   24.5980 C   0  0  0  0  0  0  0  0  0  0  0  0
  -19.7361  -23.3148   23.0904 C   0  0  0  0  0  0  0  0  0  0  0  0
  -17.2460  -22.9076   23.0597 C   0  0  0  0  0  0  0  0  0  0  0  0
  -22.5242  -29.0231   21.0858 C   0  0  0  0  0  0  0  0  0  0  0  0
  -21.0683  -19.4517   24.5531 C   0  0  0  0  0  0  0  0  0  0  0  0
  -19.9051  -22.1059   24.0154 C   0  0  0  0  0  0  0  0  0  0  0  0
  -17.4603  -21.7284   24.0045 C   0  0  0  0  0  0  0  0  0  0  0  0
  -20.5019  -18.0966   22.5627 C   0  0  0  0  0  0  0  0  0  0  0  0
  -17.4113  -26.5733   24.5314 C   0  0  0  0  0  0  0  0  0  0  0  0
  -21.1785  -28.5429   20.6157 C   0  0  1  0  0  0  0  0  0  0  0  0
  -27.4369  -21.3834   20.6198 C   0  0  1  0  0  0  0  0  0  0  0  0
  -28.4615  -24.5813   18.8431 C   0  0  1  0  0  0  0  0  0  0  0  0
  -20.5003  -16.8053   23.3954 C   0  0  1  0  0  0  0  0  0  0  0  0
  -18.3521  -23.9501   23.2423 C   0  0  0  0  0  0  0  0  0  0  0  0
  -22.4178  -27.7381   20.3231 C   0  0  1  0  0  0  0  0  0  1  0  0
  -20.4200  -30.1819   22.9009 C   0  0  0  0  0  0  0  0  0  0  0  0
  -20.0352  -25.9047   20.3011 C   0  0  0  0  0  0  0  0  0  0  0  0
  -32.1998  -31.3654   18.9132 C   0  0  0  0  0  0  0  0  0  0  0  0
  -30.1532  -26.3720   22.7536 C   0  0  0  0  0  0  0  0  0  0  0  0
  -31.0983  -28.6825   22.5615 C   0  0  0  0  0  0  0  0  0  0  0  0
  -32.3570  -26.7406   21.6303 C   0  0  0  0  0  0  0  0  0  0  0  0
  -29.9000  -30.0672   16.1743 C   0  0  0  0  0  0  0  0  0  0  0  0
  -30.2670  -27.5417   20.4547 C   0  0  1  0  0  0  0  0  0  0  0  0
  -31.4220  -30.3122   18.1395 C   0  0  2  0  0  0  0  0  0  0  0  0
  -30.9439  -27.3277   21.8380 C   0  0  0  0  0  0  0  0  0  0  0  0
  -22.1106  -15.1881   22.4610 N   0  0  0  0  0  0  0  0  0  0  0  0
  -20.8307  -15.5875   22.5529 N   0  0  0  0  0  0  0  0  0  0  0  0
  -28.7419  -25.9120   19.3861 N   0  0  0  0  0  0  0  0  0  0  0  0
  -20.1813  -19.2560   23.3979 N   0  0  0  0  0  0  0  0  0  0  0  0
  -18.7970  -21.1564   23.8387 N   0  0  0  0  0  0  0  0  0  0  0  0
  -18.6347  -15.0725   21.8295 N   0  0  0  0  0  0  0  0  0  0  0  0
  -21.1528  -11.8731   19.8751 N   0  0  0  0  0  0  0  0  0  0  0  0
  -18.1948  -25.0084   22.2691 N   0  0  0  0  0  0  0  0  0  0  0  0
  -27.8286  -22.3924   19.6591 N   0  0  0  0  0  0  0  0  0  0  0  0
  -31.0077  -28.4210   19.5566 N   0  0  0  0  0  0  0  0  0  0  0  0
  -30.6896  -30.9883   17.0316 N   0  3  0  0  0  0  0  0  0  0  0  0
  -19.0185  -12.6782   20.1099 O   0  0  0  0  0  0  0  0  0  0  0  0
  -27.9796  -24.1975   21.1225 O   0  0  0  0  0  0  0  0  0  0  0  0
  -31.0466  -25.5600   19.4100 O   0  0  0  0  0  0  0  0  0  0  0  0
  -29.3109  -29.9744   19.2649 O   0  0  0  0  0  0  0  0  0  0  0  0
  -18.0101  -19.3573   22.6310 O   0  0  0  0  0  0  0  0  0  0  0  0
  -26.6757  -11.2968   20.3240 O   0  0  0  0  0  0  0  0  0  0  0  0
  -22.8736  -27.7741   18.9609 O   0  0  0  0  0  0  0  0  0  1  0  0
  -31.1185  -14.2091   18.8462 F   0  0  0  0  0  0  0  0  0  0  0  0
  -27.8174  -13.1210   22.0594 F   0  0  0  0  0  0  0  0  0  0  0  0
  1  2  1  0  0  0  0
  1  5  2  0  0  0  0
  2  6  2  0  0  0  0
  3  8  2  0  0  0  0
  3 16  1  0  0  0  0
  4  9  1  0  0  0  0
  4 16  2  0  0  0  0
  5 18  1  0  0  0  0
  6 20  1  0  0  0  0
  7 10  2  0  0  0  0
  7 19  1  0  0  0  0
  8 27  1  0  0  0  0
  9 27  2  0  0  0  0
 10 28  1  0  0  0  0
 11 12  2  0  0  0  0
 11 29  1  0  0  0  0
 12 30  1  0  0  0  0
 13 21  1  0  0  0  0
 13 24  2  0  0  0  0
 14 22  1  0  0  0  0
 14 28  2  0  0  0  0
 15 30  2  0  0  0  0
 15 31  1  0  0  0  0
 16 32  1  0  0  0  0
 17 32  1  0  0  0  0
 17 33  2  0  0  0  0
 17 34  1  0  0  0  0
 18 20  2  0  0  0  0
 18 39  1  0  0  0  0
 19 22  2  0  0  0  0
 19 40  1  0  0  0  0
 20 57  1  0  0  0  0
 21 26  2  0  0  0  0
 21 55  1  0  0  0  0
 22 41  1  0  0  0  0
 23 24  1  0  0  0  0
 23 25  2  0  0  0  0
 23 56  1  0  0  0  0
 24 62  1  0  0  0  0
 25 26  1  0  0  0  0
 25 63  1  0  0  0  0
 26 79  1  0  0  0  0
 27 88  1  0  0  0  0
 28 89  1  0  0  0  0
 29 31  2  0  0  0  0
 29 88  1  0  0  0  0
 30 90  1  0  0  0  0
 31 91  1  0  0  0  0
 32 72  2  0  0  0  0
 33 73  1  0  0  0  0
 33 77  1  0  0  0  0
 34 78  1  0  0  0  0
 34 83  2  0  0  0  0
 35 58  1  0  0  0  0
 35 80  1  0  0  0  0
 35 84  2  0  0  0  0
 36 69  1  0  0  0  0
 36 74  1  0  0  0  0
 36 85  2  0  0  0  0
 37 70  1  0  0  0  0
 37 81  1  0  0  0  0
 37 86  2  0  0  0  0
 38 75  1  0  0  0  0
 38 76  1  0  0  0  0
 38 87  2  0  0  0  0
 39 42  1  0  0  0  0
 40 58  1  0  0  0  0
 41 74  1  0  0  0  0
 42 46  1  0  0  0  0
 43 47  1  0  0  0  0
 43 51  1  0  0  0  0
 44 45  1  0  0  0  0
 44 55  1  0  0  0  0
 45 55  1  0  0  0  0
 46 57  1  0  0  0  0
 47 59  1  0  0  0  0
 48 52  1  0  0  0  0
 48 60  1  0  0  0  0
 49 53  1  0  0  0  0
 49 60  1  0  0  0  0
 50 56  1  0  0  0  0
 50 61  1  0  0  0  0
 51 75  1  0  0  0  0
 52 76  1  0  0  0  0
 53 76  1  0  0  0  0
 54 59  1  0  0  0  0
 54 75  1  0  0  0  0
 56 61  1  0  0  0  0
 57 80  1  0  0  0  0
 58 74  1  0  0  0  0
 59 73  1  0  0  0  0
 60 79  1  0  0  0  0
 61 89  1  0  0  0  0
 64 70  1  0  0  0  0
 65 71  1  0  0  0  0
 66 71  1  0  0  0  0
 67 71  1  0  0  0  0
 68 82  1  0  0  0  0
 69 71  1  0  0  0  0
 69 81  1  0  0  0  0
 70 82  1  0  0  0  0
 72 73  1  0  0  0  0
M  CHG  1  82   1
M  ISO  4  38 100  61 101  76 100  89 101
M  END
> <Batch ID>
0170

> <Smiles>
CNC(C)C(=O)NC(C(=O)N1Cc2cc([101O:1][101CH:1]3CC3c3c(C)cc(C4CC4)c(NC4CC[100N:0]([100C:0](=O)N5CCCC(n6nc(-c7ccc(Oc8ccc(F)cc8F)cc7)c(C(N)=O)c6N)C5)CC4)c3C)ccc2CC1C(=O)NC1CCCc2ccccc21)C(C)(C)C

> <Shape>
0.238

> <Color>
0.073

> <Negative vol penalty>
0.000

$$$$
