
  -OEChem-04052322373D

 89 98  0     1  0  0  0  0  0999 V2000
  -23.2742   -6.2721   24.0456 C   0  0  0  0  0  0  0  0  0  0  0  0
  -24.2263   -7.2198   24.4074 C   0  0  0  0  0  0  0  0  0  0  0  0
  -22.8787  -31.3028   22.5868 C   0  0  0  0  0  0  0  0  0  0  0  0
  -23.4816  -31.5085   24.9172 C   0  0  0  0  0  0  0  0  0  0  0  0
  -22.5840   -6.4036   22.8414 C   0  0  0  0  0  0  0  0  0  0  0  0
  -24.4894   -8.2991   23.5646 C   0  0  0  0  0  0  0  0  0  0  0  0
  -26.3789  -15.2061   23.7628 C   0  0  0  0  0  0  0  0  0  0  0  0
  -21.5307  -31.2451   22.9406 C   0  0  0  0  0  0  0  0  0  0  0  0
  -22.1336  -31.4509   25.2711 C   0  0  0  0  0  0  0  0  0  0  0  0
  -27.3233  -16.0802   23.2263 C   0  0  0  0  0  0  0  0  0  0  0  0
  -17.9521  -30.6822   23.2577 C   0  0  0  0  0  0  0  0  0  0  0  0
  -17.1596  -29.7130   22.6428 C   0  0  0  0  0  0  0  0  0  0  0  0
  -26.0129  -16.2474   21.2079 C   0  0  0  0  0  0  0  0  0  0  0  0
  -18.5775  -27.9790   23.5484 C   0  0  0  0  0  0  0  0  0  0  0  0
  -23.8542  -31.4345   23.5751 C   0  0  0  0  0  0  0  0  0  0  0  0
  -25.9999  -32.6454   22.9140 C   0  0  0  0  0  0  0  0  0  0  0  0
  -22.8318   -7.4903   21.9879 C   0  0  0  0  0  0  0  0  0  0  0  0
  -25.2481  -14.8369   23.0204 C   0  0  0  0  0  0  0  0  0  0  0  0
  -23.8027   -8.4446   22.3472 C   0  0  0  0  0  0  0  0  0  0  0  0
  -25.0544  -15.3705   21.7382 C   0  0  0  0  0  0  0  0  0  0  0  0
  -28.7194  -20.1601   19.3485 C   0  0  0  0  0  0  0  0  0  0  0  0
  -28.9394  -18.8277   19.6797 C   0  0  0  0  0  0  0  0  0  0  0  0
  -29.7874  -20.9579   18.9533 C   0  0  0  0  0  0  0  0  0  0  0  0
  -21.1582  -31.3192   24.2827 C   0  0  0  0  0  0  0  0  0  0  0  0
  -27.1419  -16.5987   21.9475 C   0  0  0  0  0  0  0  0  0  0  0  0
  -19.0575  -30.2998   24.0179 C   0  0  0  0  0  0  0  0  0  0  0  0
  -17.4722  -28.3614   22.7882 C   0  0  0  0  0  0  0  0  0  0  0  0
  -19.3701  -28.9483   24.1632 C   0  0  0  0  0  0  0  0  0  0  0  0
  -25.2469  -31.4935   23.2103 C   0  0  0  0  0  0  0  0  0  0  0  0
  -30.2358  -18.3451   19.5999 C   0  0  0  0  0  0  0  0  0  0  0  0
  -31.0458  -20.3800   18.9063 C   0  0  0  0  0  0  0  0  0  0  0  0
  -27.2573  -32.1704   22.6314 C   0  0  0  0  0  0  0  0  0  0  0  0
  -25.5987  -34.0218   22.8958 C   0  0  0  0  0  0  0  0  0  0  0  0
  -24.1098  -12.0970   21.8799 C   0  0  0  0  0  0  0  0  0  0  0  0
  -21.5714  -13.9430   21.0606 C   0  0  0  0  0  0  0  0  0  0  0  0
  -20.3644  -17.0508   20.3317 C   0  0  0  0  0  0  0  0  0  0  0  0
  -29.2832  -27.1729   20.5551 C   0  0  0  0  0  0  0  0  0  0  0  0
  -22.0945   -7.5645   20.6743 C   0  0  0  0  0  0  0  0  0  0  0  0
  -24.2251  -13.9139   23.6238 C   0  0  0  0  0  0  0  0  0  0  0  0
  -23.8471  -15.0215   20.9081 C   0  0  0  0  0  0  0  0  0  0  0  0
  -22.1643   -8.9389   20.0135 C   0  0  0  0  0  0  0  0  0  0  0  0
  -30.2190  -28.5578   23.6431 C   0  0  0  0  0  0  0  0  0  0  0  0
  -23.5945   -9.4688   20.0335 C   0  0  0  0  0  0  0  0  0  0  0  0
  -29.1141  -29.5915   23.8593 C   0  0  0  0  0  0  0  0  0  0  0  0
  -29.5116  -23.6614   20.6260 C   0  0  0  0  0  0  0  0  0  0  0  0
  -30.2523  -24.6262   18.4151 C   0  0  0  0  0  0  0  0  0  0  0  0
  -29.6764  -27.2528   23.0576 C   0  0  0  0  0  0  0  0  0  0  0  0
  -30.0780  -24.8953   21.3346 C   0  0  0  0  0  0  0  0  0  0  0  0
  -30.8271  -25.8232   19.1673 C   0  0  0  0  0  0  0  0  0  0  0  0
  -27.7788  -28.4678   22.0369 C   0  0  0  0  0  0  0  0  0  0  0  0
  -24.0985   -9.6426   21.4713 C   0  0  1  0  0  0  0  0  0  0  0  0
  -23.3710  -13.2033   22.5784 C   0  0  1  0  0  0  0  0  0  0  0  0
  -28.3024  -29.8103   22.5700 C   0  0  1  0  0  0  0  0  0  0  0  0
  -30.2419  -23.3841   19.3099 C   0  0  0  0  0  0  0  0  0  0  0  0
  -30.5335  -16.9215   19.9410 C   0  0  0  0  0  0  0  0  0  0  0  0
  -32.2343  -21.1848   18.4901 C   0  0  0  0  0  0  0  0  0  0  0  0
  -26.7629  -20.6969   20.8444 C   0  0  0  0  0  0  0  0  0  0  0  0
  -26.3700  -20.0357   18.4436 C   0  0  0  0  0  0  0  0  0  0  0  0
  -18.2575  -18.2390   19.6635 C   0  0  0  0  0  0  0  0  0  0  0  0
  -21.8818  -12.8878   18.2146 C   0  0  0  0  0  0  0  0  0  0  0  0
  -20.4269  -14.7693   17.4327 C   0  0  0  0  0  0  0  0  0  0  0  0
  -19.5173  -13.0639   19.0097 C   0  0  0  0  0  0  0  0  0  0  0  0
  -20.3859  -18.7110   22.7817 C   0  0  0  0  0  0  0  0  0  0  0  0
  -27.8143  -17.9453   20.1062 C   0  0  0  0  0  0  0  0  0  1  0  0
  -27.3376  -20.7302   19.4176 C   0  0  0  0  0  0  0  0  0  0  0  0
  -21.1912  -14.7618   19.8507 C   0  0  1  0  0  0  0  0  0  0  0  0
  -19.1358  -17.7950   20.8228 C   0  0  2  0  0  0  0  0  0  0  0  0
  -20.7781  -13.8759   18.6415 C   0  0  0  0  0  0  0  0  0  0  0  0
  -25.9658  -30.3711   23.1239 N   0  0  0  0  0  0  0  0  0  0  0  0
  -31.2985  -19.0896   19.2204 N   0  0  0  0  0  0  0  0  0  0  0  0
  -27.1837  -30.8155   22.7700 N   0  0  0  0  0  0  0  0  0  0  0  0
  -22.8785  -14.1102   21.5396 N   0  0  0  0  0  0  0  0  0  0  0  0
  -28.8764  -27.5158   21.8532 N   0  0  0  0  0  0  0  0  0  0  0  0
  -30.1120  -26.0487   20.4240 N   0  0  0  0  0  0  0  0  0  0  0  0
  -28.4076  -32.7836   22.2804 N   0  0  0  0  0  0  0  0  0  0  0  0
  -24.2695  -34.3345   23.2113 N   0  0  0  0  0  0  0  0  0  0  0  0
  -29.5988  -22.2874   18.6201 N   0  0  0  0  0  0  0  0  0  0  0  0
  -23.5491  -10.8465   22.0573 N   0  0  0  0  0  0  0  0  0  0  0  0
  -20.1552  -15.6884   20.2940 N   0  0  0  0  0  0  0  0  0  0  0  0
  -19.5373  -19.0030   21.5978 N   0  3  0  0  0  0  0  0  0  0  0  0
  -26.3913  -34.9455   22.5923 O   0  0  0  0  0  0  0  0  0  0  0  0
  -25.1132  -12.3587   21.2270 O   0  0  0  0  0  0  0  0  0  0  0  0
  -20.7371  -13.1883   21.5666 O   0  0  0  0  0  0  0  0  0  0  0  0
  -21.4044  -17.6213   20.0098 O   0  0  0  0  0  0  0  0  0  0  0  0
  -28.9266  -27.8323   19.5707 O   0  0  0  0  0  0  0  0  0  0  0  0
  -19.8429  -31.2632   24.6283 O   0  0  0  0  0  0  0  0  0  0  0  0
  -28.0689  -17.4575   21.4175 O   0  0  0  0  0  0  0  0  0  1  0  0
  -16.7101  -27.4307   22.1990 F   0  0  0  0  0  0  0  0  0  0  0  0
  -20.4300  -28.5748   24.8933 F   0  0  0  0  0  0  0  0  0  0  0  0
  1  2  1  0  0  0  0
  1  5  2  0  0  0  0
  2  6  2  0  0  0  0
  3  8  2  0  0  0  0
  3 15  1  0  0  0  0
  4  9  1  0  0  0  0
  4 15  2  0  0  0  0
  5 17  1  0  0  0  0
  6 19  1  0  0  0  0
  7 10  2  0  0  0  0
  7 18  1  0  0  0  0
  8 24  1  0  0  0  0
  9 24  2  0  0  0  0
 10 25  1  0  0  0  0
 11 12  2  0  0  0  0
 11 26  1  0  0  0  0
 12 27  1  0  0  0  0
 13 20  1  0  0  0  0
 13 25  2  0  0  0  0
 14 27  2  0  0  0  0
 14 28  1  0  0  0  0
 15 29  1  0  0  0  0
 16 29  1  0  0  0  0
 16 32  2  0  0  0  0
 16 33  1  0  0  0  0
 17 19  2  0  0  0  0
 17 38  1  0  0  0  0
 18 20  2  0  0  0  0
 18 39  1  0  0  0  0
 19 51  1  0  0  0  0
 20 40  1  0  0  0  0
 21 22  2  0  0  0  0
 21 23  1  0  0  0  0
 21 65  1  0  0  0  0
 22 30  1  0  0  0  0
 22 64  1  0  0  0  0
 23 31  2  0  0  0  0
 23 77  1  0  0  0  0
 24 86  1  0  0  0  0
 25 87  1  0  0  0  0
 26 28  2  0  0  0  0
 26 86  1  0  0  0  0
 27 88  1  0  0  0  0
 28 89  1  0  0  0  0
 29 69  2  0  0  0  0
 30 55  1  0  0  0  0
 30 70  2  0  0  0  0
 31 56  1  0  0  0  0
 31 70  1  0  0  0  0
 32 71  1  0  0  0  0
 32 75  1  0  0  0  0
 33 76  1  0  0  0  0
 33 81  2  0  0  0  0
 34 52  1  0  0  0  0
 34 78  1  0  0  0  0
 34 82  2  0  0  0  0
 35 66  1  0  0  0  0
 35 72  1  0  0  0  0
 35 83  2  0  0  0  0
 36 67  1  0  0  0  0
 36 79  1  0  0  0  0
 36 84  2  0  0  0  0
 37 73  1  0  0  0  0
 37 74  1  0  0  0  0
 37 85  2  0  0  0  0
 38 41  1  0  0  0  0
 39 52  1  0  0  0  0
 40 72  1  0  0  0  0
 41 43  1  0  0  0  0
 42 44  1  0  0  0  0
 42 47  1  0  0  0  0
 43 51  1  0  0  0  0
 44 53  1  0  0  0  0
 45 48  1  0  0  0  0
 45 54  1  0  0  0  0
 46 49  1  0  0  0  0
 46 54  1  0  0  0  0
 47 73  1  0  0  0  0
 48 74  1  0  0  0  0
 49 74  1  0  0  0  0
 50 53  1  0  0  0  0
 50 73  1  0  0  0  0
 51 78  1  0  0  0  0
 52 72  1  0  0  0  0
 53 71  1  0  0  0  0
 54 77  1  0  0  0  0
 57 65  1  0  0  0  0
 58 65  1  0  0  0  0
 59 67  1  0  0  0  0
 60 68  1  0  0  0  0
 61 68  1  0  0  0  0
 62 68  1  0  0  0  0
 63 80  1  0  0  0  0
 64 87  1  0  0  0  0
 66 68  1  0  0  0  0
 66 79  1  0  0  0  0
 67 80  1  0  0  0  0
 69 71  1  0  0  0  0
M  CHG  1  80   1
M  ISO  4  37 100  64 101  74 100  87 101
M  END
> <Batch ID>
0171

> <Smiles>
CNC(C)C(=O)NC(C(=O)N1Cc2cc([101O:1][101CH2:1]c3c(C)nc(C)c(NC4CC[100N:0]([100C:0](=O)N5CCCC(n6nc(-c7ccc(Oc8ccc(F)cc8F)cc7)c(C(N)=O)c6N)C5)CC4)c3C(C)C)ccc2CC1C(=O)NC1CCCc2ccccc21)C(C)(C)C

> <Shape>
0.288

> <Color>
0.054

> <Negative vol penalty>
0.000

$$$$

  -OEChem-04052322373D

 91101  0     1  0  0  0  0  0999 V2000
  -19.6219  -33.3245   18.8330 C   0  0  0  0  0  0  0  0  0  0  0  0
  -19.5854  -31.9547   19.0679 C   0  0  0  0  0  0  0  0  0  0  0  0
  -23.8692   -9.9924   22.1847 C   0  0  0  0  0  0  0  0  0  0  0  0
  -25.1172   -7.9279   22.0532 C   0  0  0  0  0  0  0  0  0  0  0  0
  -20.8266  -34.0153   18.9462 C   0  0  0  0  0  0  0  0  0  0  0  0
  -20.7510  -31.2773   19.4277 C   0  0  0  0  0  0  0  0  0  0  0  0
  -23.6157  -24.7605   20.6731 C   0  0  0  0  0  0  0  0  0  0  0  0
  -22.6784   -9.2823   22.0320 C   0  0  0  0  0  0  0  0  0  0  0  0
  -23.9263   -7.2178   21.9005 C   0  0  0  0  0  0  0  0  0  0  0  0
  -24.6145  -23.8556   20.3161 C   0  0  0  0  0  0  0  0  0  0  0  0
  -21.1911   -4.8235   21.8375 C   0  0  0  0  0  0  0  0  0  0  0  0
  -21.0307   -3.6564   22.5843 C   0  0  0  0  0  0  0  0  0  0  0  0
  -30.8813  -20.3906   19.4137 C   0  0  0  0  0  0  0  0  0  0  0  0
  -26.2323  -25.1732   21.5264 C   0  0  0  0  0  0  0  0  0  0  0  0
  -21.2616   -4.9302   24.6243 C   0  0  0  0  0  0  0  0  0  0  0  0
  -25.0886   -9.3152   22.1952 C   0  0  0  0  0  0  0  0  0  0  0  0
  -26.9715  -10.3654   23.5589 C   0  0  0  0  0  0  0  0  0  0  0  0
  -22.0095  -33.3431   19.2953 C   0  0  0  0  0  0  0  0  0  0  0  0
  -23.9198  -25.8863   21.4521 C   0  0  0  0  0  0  0  0  0  0  0  0
  -21.9720  -31.9609   19.5704 C   0  0  0  0  0  0  0  0  0  0  0  0
  -30.9067  -21.6617   18.8514 C   0  0  0  0  0  0  0  0  0  0  0  0
  -29.9824  -20.1288   20.4488 C   0  0  0  0  0  0  0  0  0  0  0  0
  -25.2347  -26.0882   21.8958 C   0  0  0  0  0  0  0  0  0  0  0  0
  -30.0492  -22.6672   19.3210 C   0  0  0  0  0  0  0  0  0  0  0  0
  -29.1262  -21.1328   20.9177 C   0  0  0  0  0  0  0  0  0  0  0  0
  -29.1586  -22.4106   20.3571 C   0  0  0  0  0  0  0  0  0  0  0  0
  -22.7069   -7.8950   21.8899 C   0  0  0  0  0  0  0  0  0  0  0  0
  -25.9234  -24.0631   20.7409 C   0  0  0  0  0  0  0  0  0  0  0  0
  -21.3868   -6.0439   22.4840 C   0  0  0  0  0  0  0  0  0  0  0  0
  -21.0660   -3.7098   23.9777 C   0  0  0  0  0  0  0  0  0  0  0  0
  -21.4220   -6.0973   23.8773 C   0  0  0  0  0  0  0  0  0  0  0  0
  -26.3191  -10.0482   22.3524 C   0  0  0  0  0  0  0  0  0  0  0  0
  -28.0886  -11.0644   23.1717 C   0  0  0  0  0  0  0  0  0  0  0  0
  -26.6008  -10.0559   24.9089 C   0  0  0  0  0  0  0  0  0  0  0  0
  -23.7332  -29.0632   21.1079 C   0  0  0  0  0  0  0  0  0  0  0  0
  -24.6889  -28.9419   24.2899 C   0  0  0  0  0  0  0  0  0  0  0  0
  -23.8977  -32.2460   24.6011 C   0  0  0  0  0  0  0  0  0  0  0  0
  -30.6618  -14.8077   20.1078 C   0  0  0  0  0  0  0  0  0  0  0  0
  -23.2841  -34.1412   19.4112 C   0  0  0  0  0  0  0  0  0  0  0  0
  -22.8217  -26.8344   21.8516 C   0  0  0  0  0  0  0  0  0  0  0  0
  -25.6113  -27.2782   22.7364 C   0  0  0  0  0  0  0  0  0  0  0  0
  -24.5365  -33.2721   19.3605 C   0  0  0  0  0  0  0  0  0  0  0  0
  -30.1464  -11.7362   18.6082 C   0  0  0  0  0  0  0  0  0  0  0  0
  -24.4013  -32.1086   20.3314 C   0  0  0  0  0  0  0  0  0  0  0  0
  -29.1582  -11.0373   19.5417 C   0  0  0  0  0  0  0  0  0  0  0  0
  -28.9064  -17.8360   20.3635 C   0  0  0  0  0  0  0  0  0  0  0  0
  -31.3367  -18.0681   21.0339 C   0  0  0  0  0  0  0  0  0  0  0  0
  -31.1190  -23.5075   17.3809 C   0  0  0  0  0  0  0  0  0  0  0  0
  -29.7858  -13.2070   18.4341 C   0  0  0  0  0  0  0  0  0  0  0  0
  -28.9016  -16.4226   20.9530 C   0  0  0  0  0  0  0  0  0  0  0  0
  -31.2676  -16.6646   21.6288 C   0  0  0  0  0  0  0  0  0  0  0  0
  -28.7179  -13.2772   20.6641 C   0  0  0  0  0  0  0  0  0  0  0  0
  -29.9498  -18.7361   21.0496 C   0  0  0  0  0  0  0  0  0  0  0  0
  -23.2331  -31.1978   19.9331 C   0  0  1  0  0  0  0  0  0  0  0  0
  -23.3287  -28.2108   22.2772 C   0  0  1  0  0  0  0  0  0  0  0  0
  -29.0402  -11.7848   20.8818 C   0  0  1  0  0  0  0  0  0  0  0  0
  -31.8059  -22.1618   17.7473 C   0  0  0  0  0  0  0  0  0  0  0  0
  -30.2625  -23.9716   18.5925 C   0  0  0  0  0  0  0  0  0  0  0  0
  -28.1656  -20.8254   22.0241 C   0  0  0  0  0  0  0  0  0  0  0  0
  -33.2396  -22.3644   18.2530 C   0  0  0  0  0  0  0  0  0  0  0  0
  -31.8214  -21.2242   16.5321 C   0  0  0  0  0  0  0  0  0  0  0  0
  -31.0087  -24.9802   19.4745 C   0  0  0  0  0  0  0  0  0  0  0  0
  -28.9467  -24.5948   18.1062 C   0  0  0  0  0  0  0  0  0  0  0  0
  -23.6035  -34.4748   25.7160 C   0  0  0  0  0  0  0  0  0  0  0  0
  -22.0266  -27.7415   25.1713 C   0  0  0  0  0  0  0  0  0  0  0  0
  -21.4103  -29.9782   26.1124 C   0  0  0  0  0  0  0  0  0  0  0  0
  -23.3809  -28.7459   27.0183 C   0  0  0  0  0  0  0  0  0  0  0  0
  -26.6944  -33.0295   24.0328 C   0  0  0  0  0  0  0  0  0  0  0  0
  -28.2191  -23.4541   20.8634 C   0  0  0  0  0  0  0  0  0  1  0  0
  -23.5241  -29.7965   24.7232 C   0  0  1  0  0  0  0  0  0  0  0  0
  -24.5898  -33.3833   25.3304 C   0  0  2  0  0  0  0  0  0  0  0  0
  -22.5926  -29.0628   25.7289 C   0  0  0  0  0  0  0  0  0  0  0  0
  -26.9677  -10.5080   21.2791 N   0  0  0  0  0  0  0  0  0  0  0  0
  -28.0392  -11.1214   21.8099 N   0  0  0  0  0  0  0  0  0  0  0  0
  -24.4922  -28.1254   23.1689 N   0  0  0  0  0  0  0  0  0  0  0  0
  -29.6797  -13.8804   19.7284 N   0  0  0  0  0  0  0  0  0  0  0  0
  -30.2568  -15.8542   20.9498 N   0  0  0  0  0  0  0  0  0  0  0  0
  -29.0985  -11.6297   23.8666 N   0  0  0  0  0  0  0  0  0  0  0  0
  -25.4220   -9.3302   25.1284 N   0  0  0  0  0  0  0  0  0  0  0  0
  -23.0069  -30.2324   20.9860 N   0  0  0  0  0  0  0  0  0  0  0  0
  -24.0961  -31.0374   25.2344 N   0  0  0  0  0  0  0  0  0  0  0  0
  -25.6444  -33.9864   24.4672 N   0  3  0  0  0  0  0  0  0  0  0  0
  -27.2858  -10.4264   25.8923 O   0  0  0  0  0  0  0  0  0  0  0  0
  -24.6384  -28.6886   20.3716 O   0  0  0  0  0  0  0  0  0  0  0  0
  -25.7427  -28.9894   24.9305 O   0  0  0  0  0  0  0  0  0  0  0  0
  -23.2431  -32.4135   23.5744 O   0  0  0  0  0  0  0  0  0  0  0  0
  -31.8320  -14.7067   19.7183 O   0  0  0  0  0  0  0  0  0  0  0  0
  -21.5451   -7.2018   21.7410 O   0  0  0  0  0  0  0  0  0  0  0  0
  -26.9070  -23.1749   20.3920 O   0  0  0  0  0  0  0  0  0  1  0  0
  -20.9104   -2.5892   24.6949 F   0  0  0  0  0  0  0  0  0  0  0  0
  -21.6085   -7.2670   24.5041 F   0  0  0  0  0  0  0  0  0  0  0  0
  1  2  1  0  0  0  0
  1  5  2  0  0  0  0
  2  6  2  0  0  0  0
  3  8  2  0  0  0  0
  3 16  1  0  0  0  0
  4  9  1  0  0  0  0
  4 16  2  0  0  0  0
  5 18  1  0  0  0  0
  6 20  1  0  0  0  0
  7 10  2  0  0  0  0
  7 19  1  0  0  0  0
  8 27  1  0  0  0  0
  9 27  2  0  0  0  0
 10 28  1  0  0  0  0
 11 12  2  0  0  0  0
 11 29  1  0  0  0  0
 12 30  1  0  0  0  0
 13 21  2  0  0  0  0
 13 22  1  0  0  0  0
 14 23  1  0  0  0  0
 14 28  2  0  0  0  0
 15 30  2  0  0  0  0
 15 31  1  0  0  0  0
 16 32  1  0  0  0  0
 17 32  1  0  0  0  0
 17 33  2  0  0  0  0
 17 34  1  0  0  0  0
 18 20  2  0  0  0  0
 18 39  1  0  0  0  0
 19 23  2  0  0  0  0
 19 40  1  0  0  0  0
 20 54  1  0  0  0  0
 21 24  1  0  0  0  0
 21 57  1  0  0  0  0
 22 25  2  0  0  0  0
 22 53  1  0  0  0  0
 23 41  1  0  0  0  0
 24 26  2  0  0  0  0
 24 58  1  0  0  0  0
 25 26  1  0  0  0  0
 25 59  1  0  0  0  0
 26 69  1  0  0  0  0
 27 88  1  0  0  0  0
 28 89  1  0  0  0  0
 29 31  2  0  0  0  0
 29 88  1  0  0  0  0
 30 90  1  0  0  0  0
 31 91  1  0  0  0  0
 32 73  2  0  0  0  0
 33 74  1  0  0  0  0
 33 78  1  0  0  0  0
 34 79  1  0  0  0  0
 34 83  2  0  0  0  0
 35 55  1  0  0  0  0
 35 80  1  0  0  0  0
 35 84  2  0  0  0  0
 36 70  1  0  0  0  0
 36 75  1  0  0  0  0
 36 85  2  0  0  0  0
 37 71  1  0  0  0  0
 37 81  1  0  0  0  0
 37 86  2  0  0  0  0
 38 76  1  0  0  0  0
 38 77  1  0  0  0  0
 38 87  2  0  0  0  0
 39 42  1  0  0  0  0
 40 55  1  0  0  0  0
 41 75  1  0  0  0  0
 42 44  1  0  0  0  0
 43 45  1  0  0  0  0
 43 49  1  0  0  0  0
 44 54  1  0  0  0  0
 45 56  1  0  0  0  0
 46 50  1  0  0  0  0
 46 53  1  0  0  0  0
 47 51  1  0  0  0  0
 47 53  1  0  0  0  0
 48 57  1  0  0  0  0
 48 58  1  0  0  0  0
 49 76  1  0  0  0  0
 50 77  1  0  0  0  0
 51 77  1  0  0  0  0
 52 56  1  0  0  0  0
 52 76  1  0  0  0  0
 54 80  1  0  0  0  0
 55 75  1  0  0  0  0
 56 74  1  0  0  0  0
 57 60  1  0  0  0  0
 57 61  1  0  0  0  0
 58 62  1  0  0  0  0
 58 63  1  0  0  0  0
 64 71  1  0  0  0  0
 65 72  1  0  0  0  0
 66 72  1  0  0  0  0
 67 72  1  0  0  0  0
 68 82  1  0  0  0  0
 69 89  1  0  0  0  0
 70 72  1  0  0  0  0
 70 81  1  0  0  0  0
 71 82  1  0  0  0  0
 73 74  1  0  0  0  0
M  CHG  1  82   1
M  ISO  4  38 100  69 101  77 100  89 101
M  END
> <Batch ID>
0171

> <Smiles>
CNC(C)C(=O)NC(C(=O)N1Cc2cc([101O:1][101CH2:1]c3c(C)c(C4CC[100N:0]([100C:0](=O)N5CCCC(n6nc(-c7ccc(Oc8ccc(F)cc8F)cc7)c(C(N)=O)c6N)C5)CC4)cc4c3C(C)(C)CC4(C)C)ccc2CC1C(=O)NC1CCCc2ccccc21)C(C)(C)C

> <Shape>
0.274

> <Color>
0.100

> <Negative vol penalty>
0.000

$$$$

  -OEChem-04052322373D

 82 91  0     1  0  0  0  0  0999 V2000
  -16.4168  -29.0185   23.7832 C   0  0  0  0  0  0  0  0  0  0  0  0
  -17.3708  -28.0405   24.0457 C   0  0  0  0  0  0  0  0  0  0  0  0
  -23.7235   -9.8132   22.3468 C   0  0  0  0  0  0  0  0  0  0  0  0
  -23.5670   -9.5795   19.9472 C   0  0  0  0  0  0  0  0  0  0  0  0
  -16.7356  -30.0989   22.9616 C   0  0  0  0  0  0  0  0  0  0  0  0
  -18.6439  -28.1419   23.4860 C   0  0  0  0  0  0  0  0  0  0  0  0
  -25.4973  -26.5970   24.8860 C   0  0  0  0  0  0  0  0  0  0  0  0
  -22.7843   -8.7945   22.5073 C   0  0  0  0  0  0  0  0  0  0  0  0
  -22.6278   -8.5607   20.1077 C   0  0  0  0  0  0  0  0  0  0  0  0
  -26.5917  -25.9447   24.3199 C   0  0  0  0  0  0  0  0  0  0  0  0
  -20.6966   -6.0091   23.5553 C   0  0  0  0  0  0  0  0  0  0  0  0
  -20.9589   -5.0304   24.5138 C   0  0  0  0  0  0  0  0  0  0  0  0
  -27.0544  -27.8965   22.9799 C   0  0  0  0  0  0  0  0  0  0  0  0
  -22.9914   -4.4360   23.3507 C   0  0  0  0  0  0  0  0  0  0  0  0
  -24.1148  -10.2058   21.0667 C   0  0  0  0  0  0  0  0  0  0  0  0
  -26.4833  -11.1211   20.8223 C   0  0  0  0  0  0  0  0  0  0  0  0
  -18.0163  -30.2186   22.3993 C   0  0  0  0  0  0  0  0  0  0  0  0
  -25.1662  -27.9022   24.4947 C   0  0  0  0  0  0  0  0  0  0  0  0
  -18.9797  -29.2242   22.6550 C   0  0  0  0  0  0  0  0  0  0  0  0
  -25.9568  -28.5641   23.5445 C   0  0  0  0  0  0  0  0  0  0  0  0
  -22.2365   -8.1682   21.3878 C   0  0  0  0  0  0  0  0  0  0  0  0
  -27.3687  -26.5933   23.3646 C   0  0  0  0  0  0  0  0  0  0  0  0
  -21.5816   -6.2013   22.4944 C   0  0  0  0  0  0  0  0  0  0  0  0
  -22.1063   -4.2438   24.4116 C   0  0  0  0  0  0  0  0  0  0  0  0
  -22.7290   -5.4148   22.3921 C   0  0  0  0  0  0  0  0  0  0  0  0
  -25.0845  -11.2584   20.9003 C   0  0  0  0  0  0  0  0  0  0  0  0
  -26.9462  -12.4048   20.6662 C   0  0  0  0  0  0  0  0  0  0  0  0
  -27.2920   -9.9388   20.8851 C   0  0  0  0  0  0  0  0  0  0  0  0
  -22.6464  -29.2578   23.1101 C   0  0  0  0  0  0  0  0  0  0  0  0
  -24.2770  -31.9960   23.7148 C   0  0  0  0  0  0  0  0  0  0  0  0
  -27.2788  -33.5127   24.2941 C   0  0  0  0  0  0  0  0  0  0  0  0
  -27.0155  -17.6349   22.0355 C   0  0  0  0  0  0  0  0  0  0  0  0
  -18.2995  -31.3797   21.4793 C   0  0  0  0  0  0  0  0  0  0  0  0
  -23.9984  -28.6019   25.1345 C   0  0  0  0  0  0  0  0  0  0  0  0
  -25.6556  -29.9729   23.1050 C   0  0  0  0  0  0  0  0  0  0  0  0
  -19.7877  -31.6086   21.2278 C   0  0  0  0  0  0  0  0  0  0  0  0
  -24.5041  -16.7018   19.6646 C   0  0  0  0  0  0  0  0  0  0  0  0
  -20.4844  -30.2894   20.9094 C   0  0  0  0  0  0  0  0  0  0  0  0
  -28.5185  -20.4018   19.4530 C   0  0  0  0  0  0  0  0  0  0  0  0
  -24.5243  -15.1807   19.7914 C   0  0  0  0  0  0  0  0  0  0  0  0
  -29.1481  -19.5555   20.5486 C   0  0  0  0  0  0  0  0  0  0  0  0
  -26.3269  -21.2113   22.0583 C   0  0  0  0  0  0  0  0  0  0  0  0
  -24.7041  -17.4001   21.0113 C   0  0  0  0  0  0  0  0  0  0  0  0
  -25.8402  -19.8564   21.5727 C   0  0  0  0  0  0  0  0  0  0  0  0
  -25.9245  -15.4225   21.8706 C   0  0  0  0  0  0  0  0  0  0  0  0
  -20.3794  -29.3120   22.0863 C   0  0  1  0  0  0  0  0  0  0  0  0
  -23.4473  -29.7431   24.2852 C   0  0  1  0  0  0  0  0  0  0  0  0
  -27.7985  -21.2504   21.6440 C   0  0  2  0  0  0  0  0  0  0  0  0
  -28.0320  -21.6665   20.1721 C   0  0  1  0  0  0  0  0  0  0  0  0
  -25.7966  -14.7117   20.5159 C   0  0  1  0  0  0  0  0  0  0  0  0
  -28.2423  -19.7825   21.7526 C   0  0  1  0  0  0  0  0  0  0  0  0
  -28.2983  -35.7669   24.7143 C   0  0  0  0  0  0  0  0  0  0  0  0
  -23.9756  -32.6810   20.7568 C   0  0  0  0  0  0  0  0  0  0  0  0
  -25.7764  -34.3967   21.0422 C   0  0  0  0  0  0  0  0  0  0  0  0
  -23.6408  -34.6094   22.3136 C   0  0  0  0  0  0  0  0  0  0  0  0
  -28.3005  -32.6851   26.9455 C   0  0  0  0  0  0  0  0  0  0  0  0
  -29.0707  -22.7850   20.0802 C   0  0  0  0  0  0  0  0  0  0  0  0
  -29.4664  -25.1469   20.7896 C   0  0  0  0  0  0  0  0  0  0  0  0
  -28.7838  -26.3150   21.4736 C   0  0  0  0  0  0  0  0  0  1  0  0
  -25.3001  -32.8180   22.9688 C   0  0  1  0  0  0  0  0  0  0  0  0
  -27.7146  -34.5140   25.3486 C   0  0  2  0  0  0  0  0  0  0  0  0
  -24.6780  -33.5990   21.7770 C   0  0  0  0  0  0  0  0  0  0  0  0
  -24.6848  -12.5291   20.8021 N   0  0  0  0  0  0  0  0  0  0  0  0
  -25.8396  -13.2020   20.6608 N   0  0  0  0  0  0  0  0  0  0  0  0
  -24.4997  -30.6123   23.7550 N   0  0  0  0  0  0  0  0  0  0  0  0
  -25.8822  -16.8789   21.7140 N   0  0  0  0  0  0  0  0  0  0  0  0
  -27.0101  -18.9882   21.6939 N   0  0  0  0  0  0  0  0  0  0  0  0
  -28.1878  -12.9181   20.5345 N   0  0  0  0  0  0  0  0  0  0  0  0
  -26.6547   -8.7012   21.0479 N   0  0  0  0  0  0  0  0  0  0  0  0
  -21.3260  -29.6650   23.1225 N   0  0  0  0  0  0  0  0  0  0  0  0
  -25.9485  -33.6644   23.9645 N   0  0  0  0  0  0  0  0  0  0  0  0
  -28.7478  -33.9126   26.2384 N   0  3  0  0  0  0  0  0  0  0  0  0
  -28.5324  -23.9848   20.7510 N   0  3  0  0  0  0  0  0  0  0  0  0
  -28.5438   -9.9803   20.8159 O   0  0  0  0  0  0  0  0  0  0  0  0
  -23.1869  -28.5663   22.2548 O   0  0  0  0  0  0  0  0  0  0  0  0
  -23.3195  -32.5616   24.2485 O   0  0  0  0  0  0  0  0  0  0  0  0
  -28.0431  -32.6817   23.8084 O   0  0  0  0  0  0  0  0  0  0  0  0
  -27.9769  -17.1311   22.6312 O   0  0  0  0  0  0  0  0  0  0  0  0
  -21.3202   -7.1740   21.5440 O   0  0  0  0  0  0  0  0  0  0  0  0
  -28.4448  -25.9541   22.8060 O   0  0  0  0  0  0  0  0  0  1  0  0
  -22.3589   -3.3050   25.3330 F   0  0  0  0  0  0  0  0  0  0  0  0
  -23.5836   -5.5956   21.3758 F   0  0  0  0  0  0  0  0  0  0  0  0
  1  2  1  0  0  0  0
  1  5  2  0  0  0  0
  2  6  2  0  0  0  0
  3  8  2  0  0  0  0
  3 15  1  0  0  0  0
  4  9  1  0  0  0  0
  4 15  2  0  0  0  0
  5 17  1  0  0  0  0
  6 19  1  0  0  0  0
  7 10  2  0  0  0  0
  7 18  1  0  0  0  0
  8 21  1  0  0  0  0
  9 21  2  0  0  0  0
 10 22  1  0  0  0  0
 11 12  2  0  0  0  0
 11 23  1  0  0  0  0
 12 24  1  0  0  0  0
 13 20  1  0  0  0  0
 13 22  2  0  0  0  0
 14 24  2  0  0  0  0
 14 25  1  0  0  0  0
 15 26  1  0  0  0  0
 16 26  1  0  0  0  0
 16 27  2  0  0  0  0
 16 28  1  0  0  0  0
 17 19  2  0  0  0  0
 17 33  1  0  0  0  0
 18 20  2  0  0  0  0
 18 34  1  0  0  0  0
 19 46  1  0  0  0  0
 20 35  1  0  0  0  0
 21 79  1  0  0  0  0
 22 80  1  0  0  0  0
 23 25  2  0  0  0  0
 23 79  1  0  0  0  0
 24 81  1  0  0  0  0
 25 82  1  0  0  0  0
 26 63  2  0  0  0  0
 27 64  1  0  0  0  0
 27 68  1  0  0  0  0
 28 69  1  0  0  0  0
 28 74  2  0  0  0  0
 29 47  1  0  0  0  0
 29 70  1  0  0  0  0
 29 75  2  0  0  0  0
 30 60  1  0  0  0  0
 30 65  1  0  0  0  0
 30 76  2  0  0  0  0
 31 61  1  0  0  0  0
 31 71  1  0  0  0  0
 31 77  2  0  0  0  0
 32 66  1  0  0  0  0
 32 67  1  0  0  0  0
 32 78  2  0  0  0  0
 33 36  1  0  0  0  0
 34 47  1  0  0  0  0
 35 65  1  0  0  0  0
 36 38  1  0  0  0  0
 37 40  1  0  0  0  0
 37 43  1  0  0  0  0
 38 46  1  0  0  0  0
 39 41  1  0  0  0  0
 39 49  1  0  0  0  0
 40 50  1  0  0  0  0
 41 51  1  0  0  0  0
 42 44  1  0  0  0  0
 42 48  1  0  0  0  0
 43 66  1  0  0  0  0
 44 67  1  0  0  0  0
 45 50  1  0  0  0  0
 45 66  1  0  0  0  0
 46 70  1  0  0  0  0
 47 65  1  0  0  0  0
 48 49  1  0  0  0  0
 48 51  1  0  0  0  0
 49 57  1  0  0  0  0
 50 64  1  0  0  0  0
 51 67  1  0  0  0  0
 52 61  1  0  0  0  0
 53 62  1  0  0  0  0
 54 62  1  0  0  0  0
 55 62  1  0  0  0  0
 56 72  1  0  0  0  0
 57 73  1  0  0  0  0
 58 59  1  0  0  0  0
 58 73  1  0  0  0  0
 59 80  1  0  0  0  0
 60 62  1  0  0  0  0
 60 71  1  0  0  0  0
 61 72  1  0  0  0  0
 63 64  1  0  0  0  0
M  CHG  2  72   1  73   1
M  ISO  4  32 100  59 101  67 100  80 101
M  END
> <Batch ID>
0171

> <Smiles>
CNC(C)C(=O)NC(C(=O)N1Cc2cc([101O:1][101CH2:1]CNCC3CCC4C3CC[100N:0]4[100C:0](=O)N3CCCC(n4nc(-c5ccc(Oc6ccc(F)cc6F)cc5)c(C(N)=O)c4N)C3)ccc2CC1C(=O)NC1CCCc2ccccc21)C(C)(C)C

> <Shape>
0.285

> <Color>
0.131

> <Negative vol penalty>
0.000

$$$$

  -OEChem-04052322373D

 90 99  0     1  0  0  0  0  0999 V2000
  -17.7806  -27.2749   25.8291 C   0  0  0  0  0  0  0  0  0  0  0  0
  -18.8323  -26.4243   26.1543 C   0  0  0  0  0  0  0  0  0  0  0  0
  -24.5235   -9.7775   21.7020 C   0  0  0  0  0  0  0  0  0  0  0  0
  -24.7045  -11.0315   23.7592 C   0  0  0  0  0  0  0  0  0  0  0  0
  -17.6865  -27.8052   24.5431 C   0  0  0  0  0  0  0  0  0  0  0  0
  -19.7900  -26.1026   25.1932 C   0  0  0  0  0  0  0  0  0  0  0  0
  -25.7624  -25.1240   26.1309 C   0  0  0  0  0  0  0  0  0  0  0  0
  -24.2162   -8.6279   22.4297 C   0  0  0  0  0  0  0  0  0  0  0  0
  -24.3971   -9.8819   24.4869 C   0  0  0  0  0  0  0  0  0  0  0  0
  -26.5109  -23.9561   26.2709 C   0  0  0  0  0  0  0  0  0  0  0  0
  -21.5203   -7.3158   23.9928 C   0  0  0  0  0  0  0  0  0  0  0  0
  -20.4614   -6.5274   23.5427 C   0  0  0  0  0  0  0  0  0  0  0  0
  -27.0792  -24.0466   23.9283 C   0  0  0  0  0  0  0  0  0  0  0  0
  -25.6671  -21.0348   22.4487 C   0  0  0  0  0  0  0  0  0  0  0  0
  -21.9672   -4.6569   23.2765 C   0  0  0  0  0  0  0  0  0  0  0  0
  -24.7677  -10.9793   22.3667 C   0  0  0  0  0  0  0  0  0  0  0  0
  -24.1823  -13.1224   21.1129 C   0  0  0  0  0  0  0  0  0  0  0  0
  -18.6489  -27.4975   23.5685 C   0  0  0  0  0  0  0  0  0  0  0  0
  -25.6576  -25.7570   24.8840 C   0  0  0  0  0  0  0  0  0  0  0  0
  -19.7080  -26.6282   23.8925 C   0  0  0  0  0  0  0  0  0  0  0  0
  -26.3309  -25.2238   23.7756 C   0  0  0  0  0  0  0  0  0  0  0  0
  -26.8700  -20.4022   22.1348 C   0  0  0  0  0  0  0  0  0  0  0  0
  -27.2373  -20.2250   20.8009 C   0  0  0  0  0  0  0  0  0  0  0  0
  -26.4018  -20.6803   19.7809 C   0  0  0  0  0  0  0  0  0  0  0  0
  -25.1989  -21.3128   20.0949 C   0  0  0  0  0  0  0  0  0  0  0  0
  -24.1530   -8.6801   23.8222 C   0  0  0  0  0  0  0  0  0  0  0  0
  -27.1671  -23.4157   25.1690 C   0  0  0  0  0  0  0  0  0  0  0  0
  -22.8027   -6.7748   24.0848 C   0  0  0  0  0  0  0  0  0  0  0  0
  -24.8315  -21.4900   21.4288 C   0  0  0  0  0  0  0  0  0  0  0  0
  -20.6848   -5.1979   23.1845 C   0  0  0  0  0  0  0  0  0  0  0  0
  -23.0262   -5.4453   23.7266 C   0  0  0  0  0  0  0  0  0  0  0  0
  -25.0858  -12.1670   21.6156 C   0  0  0  0  0  0  0  0  0  0  0  0
  -24.9769  -14.0470   20.4804 C   0  0  0  0  0  0  0  0  0  0  0  0
  -22.7525  -13.1698   21.2092 C   0  0  0  0  0  0  0  0  0  0  0  0
  -23.2633  -26.4324   22.9054 C   0  0  0  0  0  0  0  0  0  0  0  0
  -25.5761  -28.0132   21.2700 C   0  0  0  0  0  0  0  0  0  0  0  0
  -28.8958  -28.3711   20.5642 C   0  0  0  0  0  0  0  0  0  0  0  0
  -29.5253  -17.2781   20.3499 C   0  0  0  0  0  0  0  0  0  0  0  0
  -18.4790  -28.0572   22.1784 C   0  0  0  0  0  0  0  0  0  0  0  0
  -24.8682  -27.0309   24.7553 C   0  0  0  0  0  0  0  0  0  0  0  0
  -26.2668  -25.8762   22.4196 C   0  0  0  0  0  0  0  0  0  0  0  0
  -19.7420  -27.9647   21.3260 C   0  0  0  0  0  0  0  0  0  0  0  0
  -29.8905  -13.8994   19.2882 C   0  0  0  0  0  0  0  0  0  0  0  0
  -20.3626  -26.5759   21.4401 C   0  0  0  0  0  0  0  0  0  0  0  0
  -28.6019  -13.2255   19.7630 C   0  0  0  0  0  0  0  0  0  0  0  0
  -27.6432  -18.4833   23.6855 C   0  0  0  0  0  0  0  0  0  0  0  0
  -30.3757  -14.9525   20.2819 C   0  0  0  0  0  0  0  0  0  0  0  0
  -28.0836  -15.2968   21.1194 C   0  0  0  0  0  0  0  0  0  0  0  0
  -27.7403  -19.9253   23.2365 C   0  0  2  0  0  0  0  0  0  0  0  0
  -20.7802  -26.2753   22.8846 C   0  0  1  0  0  0  0  0  0  0  0  0
  -24.4095  -27.3078   23.3269 C   0  0  1  0  0  0  0  0  0  0  0  0
  -27.1168  -19.5732   24.5711 C   0  0  2  0  0  0  0  0  0  0  0  0
  -27.5248  -14.2662   20.1235 C   0  0  2  0  0  0  0  0  0  0  0  0
  -24.2965  -21.8039   19.0079 C   0  0  0  0  0  0  0  0  0  0  0  0
  -27.8273  -17.4822   26.6504 C   0  0  0  0  0  0  0  0  0  0  0  0
  -30.4767  -29.7235   19.1608 C   0  0  0  0  0  0  0  0  0  0  0  0
  -24.7481  -26.4180   18.8043 C   0  0  0  0  0  0  0  0  0  0  0  0
  -26.9105  -27.0845   17.7328 C   0  0  0  0  0  0  0  0  0  0  0  0
  -25.2452  -28.8298   18.3680 C   0  0  0  0  0  0  0  0  0  0  0  0
  -30.2981  -29.4215   22.9494 C   0  0  0  0  0  0  0  0  0  0  0  0
  -23.3658  -22.2440   23.1431 C   0  0  0  0  0  0  0  0  0  0  0  0
  -28.5285  -19.5480   20.4645 C   0  0  0  0  0  0  0  0  0  0  0  0
  -26.7943  -20.4903   18.3497 C   0  0  0  0  0  0  0  0  0  0  0  0
  -27.4802  -18.9271   26.9840 C   0  0  0  0  0  0  0  0  0  0  0  0
  -27.4740  -21.3456   26.2988 C   0  0  0  0  0  0  0  0  0  1  0  0
  -26.5541  -27.6479   20.1796 C   0  0  1  0  0  0  0  0  0  0  0  0
  -29.7876  -29.5984   20.5108 C   0  0  2  0  0  0  0  0  0  0  0  0
  -27.8321  -19.9180   25.8581 C   0  0  2  0  0  0  0  0  0  0  0  0
  -25.8643  -27.4815   18.7962 C   0  0  0  0  0  0  0  0  0  0  0  0
  -26.3571  -12.4578   21.3271 N   0  0  0  0  0  0  0  0  0  0  0  0
  -26.2581  -13.6063   20.6362 N   0  0  0  0  0  0  0  0  0  0  0  0
  -25.4772  -27.1164   22.3432 N   0  0  0  0  0  0  0  0  0  0  0  0
  -29.3077  -15.9097   20.5802 N   0  0  0  0  0  0  0  0  0  0  0  0
  -24.6976  -15.1859   19.8116 N   0  0  0  0  0  0  0  0  0  0  0  0
  -22.0945  -12.1393   21.8943 N   0  0  0  0  0  0  0  0  0  0  0  0
  -22.0185  -26.9528   23.2041 N   0  0  0  0  0  0  0  0  0  0  0  0
  -27.5971  -28.6677   20.2083 N   0  0  0  0  0  0  0  0  0  0  0  0
  -28.4593  -18.1162   20.6534 N   0  0  0  0  0  0  0  0  0  0  0  0
  -27.5877  -21.6236   17.8040 N   0  3  0  0  0  0  0  0  0  0  0  0
  -30.8352  -29.5239   21.5681 N   0  3  0  0  0  0  0  0  0  0  0  0
  -22.0772  -14.0898   20.6886 O   0  0  0  0  0  0  0  0  0  0  0  0
  -23.4914  -25.3647   22.3489 O   0  0  0  0  0  0  0  0  0  0  0  0
  -24.9292  -29.0593   21.1766 O   0  0  0  0  0  0  0  0  0  0  0  0
  -29.3107  -27.2598   20.8855 O   0  0  0  0  0  0  0  0  0  0  0  0
  -30.5888  -17.7198   19.9017 O   0  0  0  0  0  0  0  0  0  0  0  0
  -23.8528   -7.5586   24.5326 O   0  0  0  0  0  0  0  0  0  0  0  0
  -23.6604  -22.1060   21.7547 O   0  0  0  0  0  0  0  0  0  0  0  0
  -27.8978  -22.2755   25.3028 O   0  0  0  0  0  0  0  0  0  1  0  0
  -19.6675   -4.4405   22.7537 F   0  0  0  0  0  0  0  0  0  0  0  0
  -24.2558   -4.9197   23.8140 F   0  0  0  0  0  0  0  0  0  0  0  0
  1  2  1  0  0  0  0
  1  5  2  0  0  0  0
  2  6  2  0  0  0  0
  3  8  2  0  0  0  0
  3 16  1  0  0  0  0
  4  9  1  0  0  0  0
  4 16  2  0  0  0  0
  5 18  1  0  0  0  0
  6 20  1  0  0  0  0
  7 10  2  0  0  0  0
  7 19  1  0  0  0  0
  8 26  1  0  0  0  0
  9 26  2  0  0  0  0
 10 27  1  0  0  0  0
 11 12  2  0  0  0  0
 11 28  1  0  0  0  0
 12 30  1  0  0  0  0
 13 21  1  0  0  0  0
 13 27  2  0  0  0  0
 14 22  1  0  0  0  0
 14 29  2  0  0  0  0
 15 30  2  0  0  0  0
 15 31  1  0  0  0  0
 16 32  1  0  0  0  0
 17 32  1  0  0  0  0
 17 33  2  0  0  0  0
 17 34  1  0  0  0  0
 18 20  2  0  0  0  0
 18 39  1  0  0  0  0
 19 21  2  0  0  0  0
 19 40  1  0  0  0  0
 20 50  1  0  0  0  0
 21 41  1  0  0  0  0
 22 23  2  0  0  0  0
 22 49  1  0  0  0  0
 23 24  1  0  0  0  0
 23 62  1  0  0  0  0
 24 25  2  0  0  0  0
 24 63  1  0  0  0  0
 25 29  1  0  0  0  0
 25 54  1  0  0  0  0
 26 86  1  0  0  0  0
 27 88  1  0  0  0  0
 28 31  2  0  0  0  0
 28 86  1  0  0  0  0
 29 87  1  0  0  0  0
 30 89  1  0  0  0  0
 31 90  1  0  0  0  0
 32 70  2  0  0  0  0
 33 71  1  0  0  0  0
 33 74  1  0  0  0  0
 34 75  1  0  0  0  0
 34 81  2  0  0  0  0
 35 51  1  0  0  0  0
 35 76  1  0  0  0  0
 35 82  2  0  0  0  0
 36 66  1  0  0  0  0
 36 72  1  0  0  0  0
 36 83  2  0  0  0  0
 37 67  1  0  0  0  0
 37 77  1  0  0  0  0
 37 84  2  0  0  0  0
 38 73  1  0  0  0  0
 38 78  1  0  0  0  0
 38 85  2  0  0  0  0
 39 42  1  0  0  0  0
 40 51  1  0  0  0  0
 41 72  1  0  0  0  0
 42 44  1  0  0  0  0
 43 45  1  0  0  0  0
 43 47  1  0  0  0  0
 44 50  1  0  0  0  0
 45 53  1  0  0  0  0
 46 49  1  0  0  0  0
 46 52  1  0  0  0  0
 47 73  1  0  0  0  0
 48 53  1  0  0  0  0
 48 73  1  0  0  0  0
 49 52  1  0  0  0  0
 50 76  1  0  0  0  0
 51 72  1  0  0  0  0
 52 68  1  0  0  0  0
 53 71  1  0  0  0  0
 55 64  1  0  0  0  0
 56 67  1  0  0  0  0
 57 69  1  0  0  0  0
 58 69  1  0  0  0  0
 59 69  1  0  0  0  0
 60 80  1  0  0  0  0
 61 87  1  0  0  0  0
 62 78  1  0  0  0  0
 63 79  1  0  0  0  0
 64 68  1  0  0  0  0
 65 68  1  0  0  0  0
 65 88  1  0  0  0  0
 66 69  1  0  0  0  0
 66 77  1  0  0  0  0
 67 80  1  0  0  0  0
 70 71  1  0  0  0  0
M  CHG  2  79   1  80   1
M  ISO  4  38 100  65 101  78 100  88 101
M  END
> <Batch ID>
0171

> <Smiles>
CCC(C1CC1c1cc(OC)c(C)c(CN)c1C[100NH:0][100C:0](=O)N1CCCC(n2nc(-c3ccc(Oc4ccc(F)cc4F)cc3)c(C(N)=O)c2N)C1)[101CH2:1][101O:1]c1ccc2c(c1)CN(C(=O)C(NC(=O)C(C)NC)C(C)(C)C)C(C(=O)NC1CCCc3ccccc31)C2

> <Shape>
0.226

> <Color>
0.106

> <Negative vol penalty>
0.000

$$$$

  -OEChem-04052322373D

 96106  0     1  0  0  0  0  0999 V2000
  -34.5302   -2.2587   37.3488 C   0  0  0  0  0  0  0  0  0  0  0  0
  -33.7539   -2.6962   36.2805 C   0  0  0  0  0  0  0  0  0  0  0  0
  -23.1898   -9.8187   19.9313 C   0  0  0  0  0  0  0  0  0  0  0  0
  -23.5644   -9.9996   22.3112 C   0  0  0  0  0  0  0  0  0  0  0  0
  -35.7280   -2.9057   37.6497 C   0  0  0  0  0  0  0  0  0  0  0  0
  -34.1745   -3.7819   35.5131 C   0  0  0  0  0  0  0  0  0  0  0  0
  -33.6555   -2.9644   30.5424 C   0  0  0  0  0  0  0  0  0  0  0  0
  -22.4224   -8.6726   20.1392 C   0  0  0  0  0  0  0  0  0  0  0  0
  -22.7969   -8.8536   22.5191 C   0  0  0  0  0  0  0  0  0  0  0  0
  -32.3746   -3.0912   30.0066 C   0  0  0  0  0  0  0  0  0  0  0  0
  -23.1961   -5.5065   22.2568 C   0  0  0  0  0  0  0  0  0  0  0  0
  -23.6923   -4.5451   23.1372 C   0  0  0  0  0  0  0  0  0  0  0  0
  -32.9328   -5.2987   29.2100 C   0  0  0  0  0  0  0  0  0  0  0  0
  -21.7337   -4.8070   24.5273 C   0  0  0  0  0  0  0  0  0  0  0  0
  -23.7609  -10.4821   21.0173 C   0  0  0  0  0  0  0  0  0  0  0  0
  -24.1018  -12.9985   20.7732 C   0  0  0  0  0  0  0  0  0  0  0  0
  -36.1682   -3.9937   36.8797 C   0  0  0  0  0  0  0  0  0  0  0  0
  -34.5827   -4.0099   30.4253 C   0  0  0  0  0  0  0  0  0  0  0  0
  -35.3787   -4.4449   35.8048 C   0  0  0  0  0  0  0  0  0  0  0  0
  -34.2257   -5.1817   29.7429 C   0  0  0  0  0  0  0  0  0  0  0  0
  -22.2259   -8.1901   21.4331 C   0  0  0  0  0  0  0  0  0  0  0  0
  -32.0122   -4.2595   29.3428 C   0  0  0  0  0  0  0  0  0  0  0  0
  -21.9686   -6.1182   22.5117 C   0  0  0  0  0  0  0  0  0  0  0  0
  -22.9612   -4.1953   24.2724 C   0  0  0  0  0  0  0  0  0  0  0  0
  -21.2375   -5.7684   23.6469 C   0  0  0  0  0  0  0  0  0  0  0  0
  -24.5542  -11.6657   20.8031 C   0  0  0  0  0  0  0  0  0  0  0  0
  -25.2338  -13.7402   20.5395 C   0  0  0  0  0  0  0  0  0  0  0  0
  -22.7766  -13.5194   20.9418 C   0  0  0  0  0  0  0  0  0  0  0  0
  -36.1381   -5.8695   32.4811 C   0  0  0  0  0  0  0  0  0  0  0  0
  -31.0465  -12.6272   21.5818 C   0  0  0  0  0  0  0  0  0  0  0  0
  -37.6320   -6.9200   29.8003 C   0  0  0  0  0  0  0  0  0  0  0  0
  -37.5534   -7.3363   26.4140 C   0  0  0  0  0  0  0  0  0  0  0  0
  -37.4466   -4.6910   37.2724 C   0  0  0  0  0  0  0  0  0  0  0  0
  -35.9691   -3.8470   30.9855 C   0  0  0  0  0  0  0  0  0  0  0  0
  -35.1908   -6.3254   29.5723 C   0  0  0  0  0  0  0  0  0  0  0  0
  -38.0065   -5.5976   36.1793 C   0  0  0  0  0  0  0  0  0  0  0  0
  -29.5235  -13.4838   18.4534 C   0  0  0  0  0  0  0  0  0  0  0  0
  -36.9007   -6.4652   35.5869 C   0  0  0  0  0  0  0  0  0  0  0  0
  -26.8937   -6.8138   28.2269 C   0  0  0  0  0  0  0  0  0  0  0  0
  -26.7296   -5.4275   27.6118 C   0  0  0  0  0  0  0  0  0  0  0  0
  -30.4238  -12.2055   29.5683 C   0  0  0  0  0  0  0  0  0  0  0  0
  -28.0390  -13.2087   18.6896 C   0  0  0  0  0  0  0  0  0  0  0  0
  -31.1307  -13.0856   28.5390 C   0  0  0  0  0  0  0  0  0  0  0  0
  -30.8112  -11.4331   25.8731 C   0  0  0  0  0  0  0  0  0  0  0  0
  -28.5591   -5.8841   29.8740 C   0  0  0  0  0  0  0  0  0  0  0  0
  -30.4021  -12.4841   19.1988 C   0  0  0  0  0  0  0  0  0  0  0  0
  -28.6442  -12.1351   20.9046 C   0  0  0  0  0  0  0  0  0  0  0  0
  -35.8135   -5.6034   34.9336 C   0  0  1  0  0  0  0  0  0  0  0  0
  -36.6645   -5.1777   31.2556 C   0  0  1  0  0  0  0  0  0  0  0  0
  -31.6012  -11.0014   27.1283 C   0  0  2  0  0  0  0  0  0  0  0  0
  -27.2905   -6.7283   29.7033 C   0  0  1  0  0  0  0  0  0  0  0  0
  -27.9949   -4.5690   27.7748 C   0  0  1  0  0  0  0  0  0  0  0  0
  -29.7418  -11.0044   28.9023 C   0  0  1  0  0  0  0  0  0  0  0  0
  -31.3832  -12.7875   25.4296 C   0  0  1  0  0  0  0  0  0  0  0  0
  -28.4060   -4.4788   29.2645 C   0  0  1  0  0  0  0  0  0  0  0  0
  -30.7410  -10.1443   28.0886 C   0  0  2  0  0  0  0  0  0  0  0  0
  -32.5603  -13.0666   26.3828 C   0  0  2  0  0  0  0  0  0  0  0  0
  -27.7218  -13.1414   20.1940 C   0  0  2  0  0  0  0  0  0  0  0  0
  -32.1794  -12.3231   27.6973 C   0  0  1  0  0  0  0  0  0  0  0  0
  -27.7572   -3.1926   27.1468 C   0  0  0  0  0  0  0  0  0  0  0  0
  -31.6158   -9.2390   28.9681 C   0  0  0  0  0  0  0  0  0  0  0  0
  -32.8560  -14.5578   26.5246 C   0  0  0  0  0  0  0  0  0  0  0  0
  -33.4488  -12.0880   28.5359 C   0  0  0  0  0  0  0  0  0  0  0  0
  -38.9035   -8.2598   24.5109 C   0  0  0  0  0  0  0  0  0  0  0  0
  -26.1345   -8.7149   30.6917 C   0  0  0  0  0  0  0  0  0  0  0  0
  -36.8631   -9.7530   30.6328 C   0  0  0  0  0  0  0  0  0  0  0  0
  -37.3746  -10.5028   28.2995 C   0  0  0  0  0  0  0  0  0  0  0  0
  -39.1797   -9.5270   29.7180 C   0  0  0  0  0  0  0  0  0  0  0  0
  -37.7203   -4.6915   25.0964 C   0  0  0  0  0  0  0  0  0  0  0  0
  -30.6115  -12.5643   23.0243 C   0  0  0  0  0  0  0  0  0  0  0  0
  -28.9556  -10.1956   29.9370 C   0  0  0  0  0  0  0  0  0  0  0  0
  -31.7912  -12.7923   23.9609 C   0  0  0  0  0  0  0  0  0  0  0  0
  -29.7055   -3.6942   29.4681 C   0  0  0  0  0  0  0  0  0  1  0  0
  -28.2400   -9.0160   29.2822 C   0  0  0  0  0  0  0  0  0  0  0  0
  -37.3763   -8.0154   28.7934 C   0  0  1  0  0  0  0  0  0  0  0  0
  -38.5769   -7.0254   25.3368 C   0  0  2  0  0  0  0  0  0  0  0  0
  -27.4886   -8.1277   30.2911 C   0  0  2  0  0  0  0  0  0  0  0  0
  -37.6794   -9.4289   29.3657 C   0  0  0  0  0  0  0  0  0  0  0  0
  -25.8710  -11.5636   20.6041 N   0  0  0  0  0  0  0  0  0  0  0  0
  -26.2557  -12.8417   20.4468 N   0  0  0  0  0  0  0  0  0  0  0  0
  -36.5323   -6.1207   30.1431 N   0  0  0  0  0  0  0  0  0  0  0  0
  -30.0547  -12.4334   20.6200 N   0  0  0  0  0  0  0  0  0  0  0  0
  -25.4449  -15.0669   20.4061 N   0  0  0  0  0  0  0  0  0  0  0  0
  -21.7290  -12.6180   21.1744 N   0  0  0  0  0  0  0  0  0  0  0  0
  -36.2554   -5.1269   33.6405 N   0  0  0  0  0  0  0  0  0  0  0  0
  -38.1549   -7.6708   27.6088 N   0  0  0  0  0  0  0  0  0  0  0  0
  -38.0601   -5.9699   24.4204 N   0  3  0  0  0  0  0  0  0  0  0  0
  -22.5264  -14.7465   20.8713 O   0  0  0  0  0  0  0  0  0  0  0  0
  -35.6621   -6.9944   32.3825 O   0  0  0  0  0  0  0  0  0  0  0  0
  -32.2322  -12.8450   21.3195 O   0  0  0  0  0  0  0  0  0  0  0  0
  -38.7673   -6.7744   30.2602 O   0  0  0  0  0  0  0  0  0  0  0  0
  -36.3415   -7.2909   26.2143 O   0  0  0  0  0  0  0  0  0  0  0  0
  -21.4769   -7.0719   21.6364 O   0  0  0  0  0  0  0  0  0  0  0  0
  -30.7503   -4.3873   28.8144 O   0  0  0  0  0  0  0  0  0  1  0  0
  -23.4372   -3.2709   25.1169 F   0  0  0  0  0  0  0  0  0  0  0  0
  -20.0571   -6.3518   23.8965 F   0  0  0  0  0  0  0  0  0  0  0  0
  1  2  1  0  0  0  0
  1  5  2  0  0  0  0
  2  6  2  0  0  0  0
  3  8  2  0  0  0  0
  3 15  1  0  0  0  0
  4  9  1  0  0  0  0
  4 15  2  0  0  0  0
  5 17  1  0  0  0  0
  6 19  1  0  0  0  0
  7 10  2  0  0  0  0
  7 18  1  0  0  0  0
  8 21  1  0  0  0  0
  9 21  2  0  0  0  0
 10 22  1  0  0  0  0
 11 12  2  0  0  0  0
 11 23  1  0  0  0  0
 12 24  1  0  0  0  0
 13 20  1  0  0  0  0
 13 22  2  0  0  0  0
 14 24  2  0  0  0  0
 14 25  1  0  0  0  0
 15 26  1  0  0  0  0
 16 26  1  0  0  0  0
 16 27  2  0  0  0  0
 16 28  1  0  0  0  0
 17 19  2  0  0  0  0
 17 33  1  0  0  0  0
 18 20  2  0  0  0  0
 18 34  1  0  0  0  0
 19 48  1  0  0  0  0
 20 35  1  0  0  0  0
 21 93  1  0  0  0  0
 22 94  1  0  0  0  0
 23 25  2  0  0  0  0
 23 93  1  0  0  0  0
 24 95  1  0  0  0  0
 25 96  1  0  0  0  0
 26 79  2  0  0  0  0
 27 80  1  0  0  0  0
 27 83  1  0  0  0  0
 28 84  1  0  0  0  0
 28 88  2  0  0  0  0
 29 49  1  0  0  0  0
 29 85  1  0  0  0  0
 29 89  2  0  0  0  0
 30 70  1  0  0  0  0
 30 82  1  0  0  0  0
 30 90  2  0  0  0  0
 31 75  1  0  0  0  0
 31 81  1  0  0  0  0
 31 91  2  0  0  0  0
 32 76  1  0  0  0  0
 32 86  1  0  0  0  0
 32 92  2  0  0  0  0
 33 36  1  0  0  0  0
 34 49  1  0  0  0  0
 35 81  1  0  0  0  0
 36 38  1  0  0  0  0
 37 42  1  0  0  0  0
 37 46  1  0  0  0  0
 38 48  1  0  0  0  0
 39 40  1  0  0  0  0
 39 51  1  0  0  0  0
 40 52  1  0  0  0  0
 41 43  1  0  0  0  0
 41 53  1  0  0  0  0
 42 58  1  0  0  0  0
 43 59  1  0  0  0  0
 44 50  1  0  0  0  0
 44 54  1  0  0  0  0
 45 51  1  0  0  0  0
 45 55  1  0  0  0  0
 46 82  1  0  0  0  0
 47 58  1  0  0  0  0
 47 82  1  0  0  0  0
 48 85  1  0  0  0  0
 49 81  1  0  0  0  0
 50 56  1  0  0  0  0
 50 59  1  0  0  0  0
 51 77  1  0  0  0  0
 52 55  1  0  0  0  0
 52 60  1  0  0  0  0
 53 56  1  0  0  0  0
 53 71  1  0  0  0  0
 54 57  1  0  0  0  0
 54 72  1  0  0  0  0
 55 73  1  0  0  0  0
 56 61  1  0  0  0  0
 57 59  1  0  0  0  0
 57 62  1  0  0  0  0
 58 80  1  0  0  0  0
 59 63  1  0  0  0  0
 64 76  1  0  0  0  0
 65 77  1  0  0  0  0
 66 78  1  0  0  0  0
 67 78  1  0  0  0  0
 68 78  1  0  0  0  0
 69 87  1  0  0  0  0
 70 72  1  0  0  0  0
 71 74  1  0  0  0  0
 73 94  1  0  0  0  0
 74 77  1  0  0  0  0
 75 78  1  0  0  0  0
 75 86  1  0  0  0  0
 76 87  1  0  0  0  0
 79 80  1  0  0  0  0
M  CHG  1  87   1
M  ISO  4  30 100  70 100  73 101  94 101
M  END
> <Batch ID>
0171

> <Smiles>
CNC(C)C(=O)NC(C(=O)N1Cc2cc([101O:1][101CH2:1]C3CC(C(C)CCC4CCC5(C)C(C)C(C[100CH2:0][100C:0](=O)N6CCCC(n7nc(-c8ccc(Oc9ccc(F)cc9F)cc8)c(C(N)=O)c7N)C6)CC5C4C)CCC3C)ccc2CC1C(=O)NC1CCCc2ccccc21)C(C)(C)C

> <Shape>
0.133

> <Color>
0.182

> <Negative vol penalty>
0.000

$$$$

  -OEChem-04052322373D

 91100  0     1  0  0  0  0  0999 V2000
  -27.6512  -37.0240   24.5844 C   0  0  0  0  0  0  0  0  0  0  0  0
  -28.2078  -36.1723   23.6355 C   0  0  0  0  0  0  0  0  0  0  0  0
  -22.2947   -7.8250   19.4479 C   0  0  0  0  0  0  0  0  0  0  0  0
  -23.3381   -7.2959   21.5618 C   0  0  0  0  0  0  0  0  0  0  0  0
  -26.7879  -36.5160   25.5543 C   0  0  0  0  0  0  0  0  0  0  0  0
  -27.9021  -34.8120   23.6566 C   0  0  0  0  0  0  0  0  0  0  0  0
  -26.9903  -29.2262   19.2652 C   0  0  0  0  0  0  0  0  0  0  0  0
  -22.2343   -6.4664   19.1377 C   0  0  0  0  0  0  0  0  0  0  0  0
  -23.2776   -5.9373   21.2516 C   0  0  0  0  0  0  0  0  0  0  0  0
  -27.4306  -27.9159   19.0835 C   0  0  0  0  0  0  0  0  0  0  0  0
  -23.0700   -2.3084   21.1735 C   0  0  0  0  0  0  0  0  0  0  0  0
  -22.6335   -1.4340   22.1687 C   0  0  0  0  0  0  0  0  0  0  0  0
  -25.8645  -27.1640   20.7571 C   0  0  0  0  0  0  0  0  0  0  0  0
  -28.4794  -21.8145   17.4528 C   0  0  0  0  0  0  0  0  0  0  0  0
  -20.5213   -2.6026   22.2690 C   0  0  0  0  0  0  0  0  0  0  0  0
  -22.8467   -8.2398   20.6599 C   0  0  0  0  0  0  0  0  0  0  0  0
  -21.9362  -10.4062   21.6525 C   0  0  0  0  0  0  0  0  0  0  0  0
  -26.4639  -35.1504   25.5813 C   0  0  0  0  0  0  0  0  0  0  0  0
  -25.9898  -29.5172   20.2036 C   0  0  0  0  0  0  0  0  0  0  0  0
  -27.0347  -34.2851   24.6285 C   0  0  0  0  0  0  0  0  0  0  0  0
  -25.4114  -28.4784   20.9470 C   0  0  0  0  0  0  0  0  0  0  0  0
  -28.1873  -23.1763   17.5283 C   0  0  0  0  0  0  0  0  0  0  0  0
  -29.3809  -23.3162   19.6242 C   0  0  0  0  0  0  0  0  0  0  0  0
  -28.6380  -23.9272   18.6140 C   0  0  0  0  0  0  0  0  0  0  0  0
  -29.6730  -21.9544   19.5487 C   0  0  0  0  0  0  0  0  0  0  0  0
  -22.7257   -5.5226   20.0396 C   0  0  0  0  0  0  0  0  0  0  0  0
  -26.8697  -26.8849   19.8316 C   0  0  0  0  0  0  0  0  0  0  0  0
  -22.2321   -3.3300   20.7260 C   0  0  0  0  0  0  0  0  0  0  0  0
  -21.3591   -1.5811   22.7165 C   0  0  0  0  0  0  0  0  0  0  0  0
  -20.9578   -3.4770   21.2738 C   0  0  0  0  0  0  0  0  0  0  0  0
  -29.2223  -21.2035   18.4630 C   0  0  0  0  0  0  0  0  0  0  0  0
  -22.9099   -9.6430   20.9807 C   0  0  0  0  0  0  0  0  0  0  0  0
  -22.4689  -11.6711   21.7071 C   0  0  0  0  0  0  0  0  0  0  0  0
  -20.6641  -10.0075   22.1800 C   0  0  0  0  0  0  0  0  0  0  0  0
  -25.8350  -31.2803   22.8440 C   0  0  0  0  0  0  0  0  0  0  0  0
  -22.6883  -30.5040   22.7105 C   0  0  0  0  0  0  0  0  0  0  0  0
  -20.2807  -28.3442   21.6217 C   0  0  0  0  0  0  0  0  0  0  0  0
  -24.9840  -15.8968   19.5427 C   0  0  0  0  0  0  0  0  0  0  0  0
  -25.5631  -34.6396   26.6778 C   0  0  0  0  0  0  0  0  0  0  0  0
  -25.5071  -30.9322   20.3686 C   0  0  0  0  0  0  0  0  0  0  0  0
  -24.3201  -28.7353   21.9527 C   0  0  0  0  0  0  0  0  0  0  0  0
  -24.9957  -33.2496   26.4019 C   0  0  0  0  0  0  0  0  0  0  0  0
  -27.1197  -13.3432   20.6662 C   0  0  0  0  0  0  0  0  0  0  0  0
  -26.0960  -32.3101   25.9186 C   0  0  0  0  0  0  0  0  0  0  0  0
  -26.1308  -12.2024   20.9039 C   0  0  0  0  0  0  0  0  0  0  0  0
  -27.2747  -18.8084   19.7081 C   0  0  0  0  0  0  0  0  0  0  0  0
  -27.8190  -17.4531   17.6513 C   0  0  0  0  0  0  0  0  0  0  0  0
  -26.7931  -14.1288   19.3951 C   0  0  0  0  0  0  0  0  0  0  0  0
  -25.8780  -18.1895   19.7222 C   0  0  0  0  0  0  0  0  0  0  0  0
  -26.4100  -16.8675   17.7007 C   0  0  0  0  0  0  0  0  0  0  0  0
  -24.4113  -13.4868   19.5765 C   0  0  0  0  0  0  0  0  0  0  0  0
  -26.7079  -32.8077   24.6035 C   0  0  1  0  0  0  0  0  0  0  0  0
  -24.8435  -31.1835   21.7191 C   0  0  1  0  0  0  0  0  0  0  0  0
  -24.6799  -12.7148   20.8778 C   0  0  1  0  0  0  0  0  0  0  0  0
  -27.8507  -18.8445   18.2899 C   0  0  0  0  0  0  0  0  0  0  0  0
  -27.3899  -23.8060   16.4332 C   0  0  0  0  0  0  0  0  0  0  0  0
  -29.0266  -23.8898   22.0391 C   0  0  0  0  0  0  0  0  0  0  0  0
  -32.7513  -21.7350   19.5578 C   0  0  0  0  0  0  0  0  0  0  0  0
  -29.6470  -20.2465   21.3853 C   0  0  0  0  0  0  0  0  0  0  0  0
  -17.8032  -27.9529   21.7018 C   0  0  0  0  0  0  0  0  0  0  0  0
  -22.9413  -29.5055   25.5826 C   0  0  0  0  0  0  0  0  0  0  0  0
  -20.7725  -28.2923   25.2781 C   0  0  0  0  0  0  0  0  0  0  0  0
  -20.8436  -30.7796   25.1020 C   0  0  0  0  0  0  0  0  0  0  0  0
  -20.0360  -28.5501   18.6795 C   0  0  0  0  0  0  0  0  0  0  0  0
  -29.8649  -24.1239   20.7874 C   0  0  0  0  0  0  0  0  0  0  0  0
  -28.3242  -25.3880   18.6915 C   0  0  0  0  0  0  0  0  0  1  0  0
  -31.8122  -20.7028   20.1701 C   0  0  0  0  0  0  0  0  0  0  0  0
  -30.4708  -21.3185   20.6458 C   0  0  1  0  0  0  0  0  0  0  0  0
  -21.8414  -29.3769   23.2503 C   0  0  1  0  0  0  0  0  0  0  0  0
  -18.9512  -28.5836   20.9292 C   0  0  2  0  0  0  0  0  0  0  0  0
  -21.6216  -29.4837   24.7858 C   0  0  0  0  0  0  0  0  0  0  0  0
  -23.9800  -10.3629   20.6333 N   0  0  0  0  0  0  0  0  0  0  0  0
  -23.6818  -11.5917   21.0884 N   0  0  0  0  0  0  0  0  0  0  0  0
  -23.8866  -30.1363   22.0823 N   0  0  0  0  0  0  0  0  0  0  0  0
  -25.3894  -14.5617   19.3965 N   0  0  0  0  0  0  0  0  0  0  0  0
  -25.8626  -16.8831   19.0643 N   0  0  0  0  0  0  0  0  0  0  0  0
  -22.0133  -12.8322   22.2233 N   0  0  0  0  0  0  0  0  0  0  0  0
  -20.2716   -8.6695   22.0381 N   0  0  0  0  0  0  0  0  0  0  0  0
  -25.8339  -32.5010   23.4915 N   0  0  0  0  0  0  0  0  0  0  0  0
  -20.6095  -29.3814   22.4686 N   0  0  0  0  0  0  0  0  0  0  0  0
  -18.9698  -28.0023   19.5571 N   0  3  0  0  0  0  0  0  0  0  0  0
  -19.8910  -10.8174   22.7456 O   0  0  0  0  0  0  0  0  0  0  0  0
  -26.5472  -30.3181   23.1060 O   0  0  0  0  0  0  0  0  0  0  0  0
  -22.2974  -31.6673   22.8351 O   0  0  0  0  0  0  0  0  0  0  0  0
  -20.9578  -27.3359   21.4333 O   0  0  0  0  0  0  0  0  0  0  0  0
  -23.9047  -16.1927   20.0703 O   0  0  0  0  0  0  0  0  0  0  0  0
  -22.6666   -4.1968   19.7373 O   0  0  0  0  0  0  0  0  0  0  0  0
  -27.3013  -25.5957   19.6553 O   0  0  0  0  0  0  0  0  0  1  0  0
  -20.9395   -0.7404   23.6711 F   0  0  0  0  0  0  0  0  0  0  0  0
  -20.1479   -4.4558   20.8472 F   0  0  0  0  0  0  0  0  0  0  0  0
  -29.5599  -19.4785   18.3197 S   0  0  0  0  0  0  0  0  0  0  0  0
  1  2  1  0  0  0  0
  1  5  2  0  0  0  0
  2  6  2  0  0  0  0
  3  8  2  0  0  0  0
  3 16  1  0  0  0  0
  4  9  1  0  0  0  0
  4 16  2  0  0  0  0
  5 18  1  0  0  0  0
  6 20  1  0  0  0  0
  7 10  2  0  0  0  0
  7 19  1  0  0  0  0
  8 26  1  0  0  0  0
  9 26  2  0  0  0  0
 10 27  1  0  0  0  0
 11 12  2  0  0  0  0
 11 28  1  0  0  0  0
 12 29  1  0  0  0  0
 13 21  1  0  0  0  0
 13 27  2  0  0  0  0
 14 22  2  0  0  0  0
 14 31  1  0  0  0  0
 15 29  2  0  0  0  0
 15 30  1  0  0  0  0
 16 32  1  0  0  0  0
 17 32  1  0  0  0  0
 17 33  2  0  0  0  0
 17 34  1  0  0  0  0
 18 20  2  0  0  0  0
 18 39  1  0  0  0  0
 19 21  2  0  0  0  0
 19 40  1  0  0  0  0
 20 52  1  0  0  0  0
 21 41  1  0  0  0  0
 22 24  1  0  0  0  0
 22 56  1  0  0  0  0
 23 24  2  0  0  0  0
 23 25  1  0  0  0  0
 23 65  1  0  0  0  0
 24 66  1  0  0  0  0
 25 31  2  0  0  0  0
 25 68  1  0  0  0  0
 26 87  1  0  0  0  0
 27 88  1  0  0  0  0
 28 30  2  0  0  0  0
 28 87  1  0  0  0  0
 29 89  1  0  0  0  0
 30 90  1  0  0  0  0
 31 91  1  0  0  0  0
 32 72  2  0  0  0  0
 33 73  1  0  0  0  0
 33 77  1  0  0  0  0
 34 78  1  0  0  0  0
 34 82  2  0  0  0  0
 35 53  1  0  0  0  0
 35 79  1  0  0  0  0
 35 83  2  0  0  0  0
 36 69  1  0  0  0  0
 36 74  1  0  0  0  0
 36 84  2  0  0  0  0
 37 70  1  0  0  0  0
 37 80  1  0  0  0  0
 37 85  2  0  0  0  0
 38 75  1  0  0  0  0
 38 76  1  0  0  0  0
 38 86  2  0  0  0  0
 39 42  1  0  0  0  0
 40 53  1  0  0  0  0
 41 74  1  0  0  0  0
 42 44  1  0  0  0  0
 43 45  1  0  0  0  0
 43 48  1  0  0  0  0
 44 52  1  0  0  0  0
 45 54  1  0  0  0  0
 46 49  1  0  0  0  0
 46 55  1  0  0  0  0
 47 50  1  0  0  0  0
 47 55  1  0  0  0  0
 48 75  1  0  0  0  0
 49 76  1  0  0  0  0
 50 76  1  0  0  0  0
 51 54  1  0  0  0  0
 51 75  1  0  0  0  0
 52 79  1  0  0  0  0
 53 74  1  0  0  0  0
 54 73  1  0  0  0  0
 55 91  1  0  0  0  0
 57 65  1  0  0  0  0
 58 67  1  0  0  0  0
 59 68  1  0  0  0  0
 60 70  1  0  0  0  0
 61 71  1  0  0  0  0
 62 71  1  0  0  0  0
 63 71  1  0  0  0  0
 64 81  1  0  0  0  0
 66 88  1  0  0  0  0
 67 68  1  0  0  0  0
 69 71  1  0  0  0  0
 69 80  1  0  0  0  0
 70 81  1  0  0  0  0
 72 73  1  0  0  0  0
M  CHG  1  81   1
M  ISO  4  38 100  66 101  76 100  88 101
M  END
> <Batch ID>
0171

> <Smiles>
CCc1c(C(C)CC)c(SC2CC[100N:0]([100C:0](=O)N3CCCC(n4nc(-c5ccc(Oc6ccc(F)cc6F)cc5)c(C(N)=O)c4N)C3)CC2)cc(C)c1[101CH2:1][101O:1]c1ccc2c(c1)CN(C(=O)C(NC(=O)C(C)NC)C(C)(C)C)C(C(=O)NC1CCCc3ccccc31)C2

> <Shape>
0.307

> <Color>
0.072

> <Negative vol penalty>
0.000

$$$$

  -OEChem-04052322373D

 87 96  0     1  0  0  0  0  0999 V2000
  -24.2952   -7.0722   24.5563 C   0  0  0  0  0  0  0  0  0  0  0  0
  -25.4486   -7.8026   24.2886 C   0  0  0  0  0  0  0  0  0  0  0  0
  -22.9554  -29.2226   21.7856 C   0  0  0  0  0  0  0  0  0  0  0  0
  -23.9219  -28.5292   23.8885 C   0  0  0  0  0  0  0  0  0  0  0  0
  -23.1799   -7.2052   23.7303 C   0  0  0  0  0  0  0  0  0  0  0  0
  -25.4877   -8.6656   23.1940 C   0  0  0  0  0  0  0  0  0  0  0  0
  -28.4475  -14.0145   22.8270 C   0  0  0  0  0  0  0  0  0  0  0  0
  -21.7354  -28.6604   22.1609 C   0  0  0  0  0  0  0  0  0  0  0  0
  -22.7018  -27.9670   24.2639 C   0  0  0  0  0  0  0  0  0  0  0  0
  -29.6779  -14.3698   22.2759 C   0  0  0  0  0  0  0  0  0  0  0  0
  -19.1222  -29.4761   24.1455 C   0  0  0  0  0  0  0  0  0  0  0  0
  -17.9671  -30.2252   23.9218 C   0  0  0  0  0  0  0  0  0  0  0  0
  -28.5651  -15.0538   20.2478 C   0  0  0  0  0  0  0  0  0  0  0  0
  -29.5455  -19.8737   21.3174 C   0  0  0  0  0  0  0  0  0  0  0  0
  -17.1094  -28.4759   22.4930 C   0  0  0  0  0  0  0  0  0  0  0  0
  -24.0487  -29.1570   22.6494 C   0  0  0  0  0  0  0  0  0  0  0  0
  -25.7466  -31.0548   22.4958 C   0  0  0  0  0  0  0  0  0  0  0  0
  -23.2020   -8.0776   22.6306 C   0  0  0  0  0  0  0  0  0  0  0  0
  -27.2658  -14.1662   22.0873 C   0  0  0  0  0  0  0  0  0  0  0  0
  -24.3721   -8.8094   22.3517 C   0  0  0  0  0  0  0  0  0  0  0  0
  -27.3208  -14.7020   20.7927 C   0  0  0  0  0  0  0  0  0  0  0  0
  -29.2576  -19.6620   19.9725 C   0  0  0  0  0  0  0  0  0  0  0  0
  -21.6085  -28.0326   23.4000 C   0  0  0  0  0  0  0  0  0  0  0  0
  -29.7372  -14.8868   20.9851 C   0  0  0  0  0  0  0  0  0  0  0  0
  -19.2710  -28.2269   23.5429 C   0  0  0  0  0  0  0  0  0  0  0  0
  -16.9606  -29.7251   23.0956 C   0  0  0  0  0  0  0  0  0  0  0  0
  -18.2646  -27.7268   22.7167 C   0  0  0  0  0  0  0  0  0  0  0  0
  -29.6956  -18.5003   19.3439 C   0  0  0  0  0  0  0  0  0  0  0  0
  -25.3095  -29.7372   22.2620 C   0  0  0  0  0  0  0  0  0  0  0  0
  -30.2701  -18.9107   22.0053 C   0  0  0  0  0  0  0  0  0  0  0  0
  -30.4165  -17.5721   20.0817 C   0  0  0  0  0  0  0  0  0  0  0  0
  -27.0003  -31.1049   21.9371 C   0  0  0  0  0  0  0  0  0  0  0  0
  -25.0790  -32.1367   23.1588 C   0  0  0  0  0  0  0  0  0  0  0  0
  -25.0288  -12.1858   21.0022 C   0  0  0  0  0  0  0  0  0  0  0  0
  -23.5618  -14.9442   20.1297 C   0  0  0  0  0  0  0  0  0  0  0  0
  -23.8469  -18.2487   19.3261 C   0  0  0  0  0  0  0  0  0  0  0  0
  -27.3012  -26.0513   19.4113 C   0  0  0  0  0  0  0  0  0  0  0  0
  -21.9881   -8.1523   21.7388 C   0  0  0  0  0  0  0  0  0  0  0  0
  -25.9438  -13.8032   22.7060 C   0  0  0  0  0  0  0  0  0  0  0  0
  -26.0790  -14.9037   19.9646 C   0  0  0  0  0  0  0  0  0  0  0  0
  -21.9831   -9.3696   20.8176 C   0  0  0  0  0  0  0  0  0  0  0  0
  -29.3157  -27.5132   22.2078 C   0  0  0  0  0  0  0  0  0  0  0  0
  -23.3432   -9.5379   20.1480 C   0  0  0  0  0  0  0  0  0  0  0  0
  -29.5674  -28.9237   21.6795 C   0  0  0  0  0  0  0  0  0  0  0  0
  -26.8949  -22.3867   18.9970 C   0  0  0  0  0  0  0  0  0  0  0  0
  -29.1878  -22.8527   19.9318 C   0  0  0  0  0  0  0  0  0  0  0  0
  -29.1422  -26.5272   21.0614 C   0  0  0  0  0  0  0  0  0  0  0  0
  -26.4277  -23.7460   19.5127 C   0  0  0  0  0  0  0  0  0  0  0  0
  -28.6790  -24.2005   20.4348 C   0  0  0  0  0  0  0  0  0  0  0  0
  -28.2562  -28.3204   19.5957 C   0  0  0  0  0  0  0  0  0  0  0  0
  -24.4448   -9.7744   21.1883 C   0  0  1  0  0  0  0  0  0  0  0  0
  -24.8581  -13.5198   21.6724 C   0  0  1  0  0  0  0  0  0  0  0  0
  -28.4777  -29.3828   20.6911 C   0  0  1  0  0  0  0  0  0  0  0  0
  -28.0464  -21.8382   19.8415 C   0  0  0  0  0  0  0  0  0  0  0  0
  -30.6197  -19.0625   23.4409 C   0  0  0  0  0  0  0  0  0  0  0  0
  -32.3330  -16.4348   18.9085 C   0  0  0  0  0  0  0  0  0  0  0  0
  -23.1090  -20.5780   18.7539 C   0  0  0  0  0  0  0  0  0  0  0  0
  -23.3593  -13.7978   17.3093 C   0  0  0  0  0  0  0  0  0  0  0  0
  -22.8803  -16.1106   16.4787 C   0  0  0  0  0  0  0  0  0  0  0  0
  -21.3197  -15.0172   18.0886 C   0  0  0  0  0  0  0  0  0  0  0  0
  -23.6681  -19.0173   22.1785 C   0  0  0  0  0  0  0  0  0  0  0  0
  -30.9188  -16.3070   19.4874 C   0  0  1  0  0  0  0  0  0  1  0  0
  -23.5756  -15.8199   18.9000 C   0  0  1  0  0  0  0  0  0  0  0  0
  -23.0757  -19.4695   19.7945 C   0  0  2  0  0  0  0  0  0  0  0  0
  -22.8075  -15.1809   17.7088 C   0  0  0  0  0  0  0  0  0  0  0  0
  -26.2121  -29.0033   21.6058 N   0  0  0  0  0  0  0  0  0  0  0  0
  -27.2289  -29.8627   21.4224 N   0  0  0  0  0  0  0  0  0  0  0  0
  -30.6797  -17.8011   21.3755 N   0  3  0  0  0  0  0  0  0  0  0  0
  -24.8110  -14.5278   20.6113 N   0  0  0  0  0  0  0  0  0  0  0  0
  -28.1003  -26.9623   20.1246 N   0  0  0  0  0  0  0  0  0  0  0  0
  -27.5422  -24.6855   19.6397 N   0  0  0  0  0  0  0  0  0  0  0  0
  -27.9184  -32.0898   21.8408 N   0  0  0  0  0  0  0  0  0  0  0  0
  -23.7950  -31.9138   23.6746 N   0  0  0  0  0  0  0  0  0  0  0  0
  -28.5371  -20.6066   19.2633 N   0  0  0  0  0  0  0  0  0  0  0  0
  -24.4084  -11.1416   21.6612 N   0  0  0  0  0  0  0  0  0  0  0  0
  -23.0576  -17.1182   19.3176 N   0  0  0  0  0  0  0  0  0  0  0  0
  -23.6588  -19.9960   21.0609 N   0  3  0  0  0  0  0  0  0  0  0  0
  -25.5989  -33.2723   23.2756 O   0  0  0  0  0  0  0  0  0  0  0  0
  -25.6744  -12.1098   19.9634 O   0  0  0  0  0  0  0  0  0  0  0  0
  -22.4827  -14.6468   20.6481 O   0  0  0  0  0  0  0  0  0  0  0  0
  -25.0301  -18.2943   18.9968 O   0  0  0  0  0  0  0  0  0  0  0  0
  -26.4262  -26.4335   18.6245 O   0  0  0  0  0  0  0  0  0  0  0  0
  -20.4180  -27.4840   23.7667 O   0  0  0  0  0  0  0  0  0  0  0  0
  -30.9394  -15.2346   20.4434 O   0  0  0  0  0  0  0  0  0  1  0  0
  -15.8507  -30.4440   22.8821 F   0  0  0  0  0  0  0  0  0  0  0  0
  -18.4013  -26.5269   22.1360 F   0  0  0  0  0  0  0  0  0  0  0  0
  -29.4273  -18.2792   18.0495 F   0  0  0  0  0  0  0  0  0  0  0  0
  1  2  1  0  0  0  0
  1  5  2  0  0  0  0
  2  6  2  0  0  0  0
  3  8  2  0  0  0  0
  3 16  1  0  0  0  0
  4  9  1  0  0  0  0
  4 16  2  0  0  0  0
  5 18  1  0  0  0  0
  6 20  1  0  0  0  0
  7 10  2  0  0  0  0
  7 19  1  0  0  0  0
  8 23  1  0  0  0  0
  9 23  2  0  0  0  0
 10 24  1  0  0  0  0
 11 12  2  0  0  0  0
 11 25  1  0  0  0  0
 12 26  1  0  0  0  0
 13 21  1  0  0  0  0
 13 24  2  0  0  0  0
 14 22  2  0  0  0  0
 14 30  1  0  0  0  0
 15 26  2  0  0  0  0
 15 27  1  0  0  0  0
 16 29  1  0  0  0  0
 17 29  1  0  0  0  0
 17 32  2  0  0  0  0
 17 33  1  0  0  0  0
 18 20  2  0  0  0  0
 18 38  1  0  0  0  0
 19 21  2  0  0  0  0
 19 39  1  0  0  0  0
 20 51  1  0  0  0  0
 21 40  1  0  0  0  0
 22 28  1  0  0  0  0
 22 74  1  0  0  0  0
 23 83  1  0  0  0  0
 24 84  1  0  0  0  0
 25 27  2  0  0  0  0
 25 83  1  0  0  0  0
 26 85  1  0  0  0  0
 27 86  1  0  0  0  0
 28 31  2  0  0  0  0
 28 87  1  0  0  0  0
 29 66  2  0  0  0  0
 30 55  1  0  0  0  0
 30 68  2  0  0  0  0
 31 62  1  0  0  0  0
 31 68  1  0  0  0  0
 32 67  1  0  0  0  0
 32 72  1  0  0  0  0
 33 73  1  0  0  0  0
 33 78  2  0  0  0  0
 34 52  1  0  0  0  0
 34 75  1  0  0  0  0
 34 79  2  0  0  0  0
 35 63  1  0  0  0  0
 35 69  1  0  0  0  0
 35 80  2  0  0  0  0
 36 64  1  0  0  0  0
 36 76  1  0  0  0  0
 36 81  2  0  0  0  0
 37 70  1  0  0  0  0
 37 71  1  0  0  0  0
 37 82  2  0  0  0  0
 38 41  1  0  0  0  0
 39 52  1  0  0  0  0
 40 69  1  0  0  0  0
 41 43  1  0  0  0  0
 42 44  1  0  0  0  0
 42 47  1  0  0  0  0
 43 51  1  0  0  0  0
 44 53  1  0  0  0  0
 45 48  1  0  0  0  0
 45 54  1  0  0  0  0
 46 49  1  0  0  0  0
 46 54  1  0  0  0  0
 47 70  1  0  0  0  0
 48 71  1  0  0  0  0
 49 71  1  0  0  0  0
 50 53  1  0  0  0  0
 50 70  1  0  0  0  0
 51 75  1  0  0  0  0
 52 69  1  0  0  0  0
 53 67  1  0  0  0  0
 54 74  1  0  0  0  0
 56 62  1  0  0  0  0
 57 64  1  0  0  0  0
 58 65  1  0  0  0  0
 59 65  1  0  0  0  0
 60 65  1  0  0  0  0
 61 77  1  0  0  0  0
 62 84  1  0  0  0  0
 63 65  1  0  0  0  0
 63 76  1  0  0  0  0
 64 77  1  0  0  0  0
 66 67  1  0  0  0  0
M  CHG  2  68   1  77   1
M  ISO  4  37 100  62 101  71 100  84 101
M  END
> <Batch ID>
0171

> <Smiles>
CNC(C)C(=O)NC(C(=O)N1Cc2cc([101O:1][101CH:1](C)c3nc(C)cc(NC4CC[100N:0]([100C:0](=O)N5CCCC(n6nc(-c7ccc(Oc8ccc(F)cc8F)cc7)c(C(N)=O)c6N)C5)CC4)c3F)ccc2CC1C(=O)NC1CCCc2ccccc21)C(C)(C)C

> <Shape>
0.335

> <Color>
0.067

> <Negative vol penalty>
0.000

$$$$

  -OEChem-04052322373D

 87 97  0     1  0  0  0  0  0999 V2000
  -18.2813  -25.1242   23.0651 C   0  0  0  0  0  0  0  0  0  0  0  0
  -19.6092  -25.0783   22.6530 C   0  0  0  0  0  0  0  0  0  0  0  0
  -23.1118  -14.2914   24.2537 C   0  0  0  0  0  0  0  0  0  0  0  0
  -22.8867  -15.6325   22.2567 C   0  0  0  0  0  0  0  0  0  0  0  0
  -17.5960  -26.3384   23.0711 C   0  0  0  0  0  0  0  0  0  0  0  0
  -20.2523  -26.2465   22.2455 C   0  0  0  0  0  0  0  0  0  0  0  0
  -24.9056  -26.6838   24.1952 C   0  0  0  0  0  0  0  0  0  0  0  0
  -22.1340  -15.0627   24.8819 C   0  0  0  0  0  0  0  0  0  0  0  0
  -21.9088  -16.4038   22.8849 C   0  0  0  0  0  0  0  0  0  0  0  0
  -25.9174  -25.9289   23.6034 C   0  0  0  0  0  0  0  0  0  0  0  0
  -21.7887  -18.9259   25.1333 C   0  0  0  0  0  0  0  0  0  0  0  0
  -21.8715  -20.3119   24.9995 C   0  0  0  0  0  0  0  0  0  0  0  0
  -26.6474  -27.8765   22.3815 C   0  0  0  0  0  0  0  0  0  0  0  0
  -19.6949  -20.3407   23.9512 C   0  0  0  0  0  0  0  0  0  0  0  0
  -23.4882  -14.5764   22.9411 C   0  0  0  0  0  0  0  0  0  0  0  0
  -24.3018  -12.6132   21.5299 C   0  0  0  0  0  0  0  0  0  0  0  0
  -18.2339  -27.5237   22.6727 C   0  0  0  0  0  0  0  0  0  0  0  0
  -24.7500  -28.0403   23.8758 C   0  0  0  0  0  0  0  0  0  0  0  0
  -19.5745  -27.4775   22.2449 C   0  0  0  0  0  0  0  0  0  0  0  0
  -25.6344  -28.6470   22.9725 C   0  0  0  0  0  0  0  0  0  0  0  0
  -28.2462  -21.9798   19.0079 C   0  0  0  0  0  0  0  0  0  0  0  0
  -28.7976  -20.9606   19.7762 C   0  0  0  0  0  0  0  0  0  0  0  0
  -28.3669  -21.9421   17.6232 C   0  0  0  0  0  0  0  0  0  0  0  0
  -21.5325  -16.1188   24.1975 C   0  0  0  0  0  0  0  0  0  0  0  0
  -26.7867  -26.5246   22.6942 C   0  0  0  0  0  0  0  0  0  0  0  0
  -20.6591  -18.2473   24.6759 C   0  0  0  0  0  0  0  0  0  0  0  0
  -20.8246  -21.0193   24.4085 C   0  0  0  0  0  0  0  0  0  0  0  0
  -19.6122  -18.9547   24.0849 C   0  0  0  0  0  0  0  0  0  0  0  0
  -24.4987  -13.7804   22.2919 C   0  0  0  0  0  0  0  0  0  0  0  0
  -29.4547  -19.9343   19.1169 C   0  0  0  0  0  0  0  0  0  0  0  0
  -29.0434  -20.8720   17.0602 C   0  0  0  0  0  0  0  0  0  0  0  0
  -25.5647  -12.2422   21.1375 C   0  0  0  0  0  0  0  0  0  0  0  0
  -23.0861  -11.9257   21.2058 C   0  0  0  0  0  0  0  0  0  0  0  0
  -22.4471  -29.7819   22.5464 C   0  0  0  0  0  0  0  0  0  0  0  0
  -24.4027  -32.2510   23.3220 C   0  0  0  0  0  0  0  0  0  0  0  0
  -27.5630  -33.3363   24.0159 C   0  0  0  0  0  0  0  0  0  0  0  0
  -30.6600  -15.4716   20.5285 C   0  0  0  0  0  0  0  0  0  0  0  0
  -17.4380  -28.8046   22.6512 C   0  0  0  0  0  0  0  0  0  0  0  0
  -23.6702  -28.8472   24.5430 C   0  0  0  0  0  0  0  0  0  0  0  0
  -25.5225  -30.1049   22.6112 C   0  0  0  0  0  0  0  0  0  0  0  0
  -18.3040  -30.0584   22.5608 C   0  0  0  0  0  0  0  0  0  0  0  0
  -30.1348  -12.4848   22.4614 C   0  0  0  0  0  0  0  0  0  0  0  0
  -19.3737  -29.8920   21.4861 C   0  0  0  0  0  0  0  0  0  0  0  0
  -28.6204  -12.3990   22.6192 C   0  0  0  0  0  0  0  0  0  0  0  0
  -27.9608  -24.5237   19.3713 C   0  0  0  0  0  0  0  0  0  0  0  0
  -30.6001  -13.9348   22.4580 C   0  0  0  0  0  0  0  0  0  0  0  0
  -29.2315  -17.6666   20.5674 C   0  0  0  0  0  0  0  0  0  0  0  0
  -30.6648  -17.5252   19.0120 C   0  0  0  0  0  0  0  0  0  0  0  0
  -28.4355  -14.6789   21.5015 C   0  0  0  0  0  0  0  0  0  0  0  0
  -27.5326  -23.1019   19.6638 C   0  0  2  0  0  0  0  0  0  0  0  0
  -20.3140  -28.7274   21.8193 C   0  0  1  0  0  0  0  0  0  0  0  0
  -30.1314  -18.7058   19.8557 C   0  0  0  0  0  0  0  0  0  0  0  0
  -23.2833  -30.0949   23.7550 C   0  0  1  0  0  0  0  0  0  0  0  0
  -28.2525  -23.9223   20.7138 C   0  0  2  0  0  0  0  0  0  0  0  0
  -27.9195  -13.2266   21.5323 C   0  0  2  0  0  0  0  0  0  0  0  0
  -28.6915  -20.9610   21.2635 C   0  0  0  0  0  0  0  0  0  0  0  0
  -27.7867  -23.0203   16.7699 C   0  0  0  0  0  0  0  0  0  0  0  0
  -29.2058  -20.7773   15.5783 C   0  0  0  0  0  0  0  0  0  0  0  0
  -28.8541  -35.4146   24.5738 C   0  0  0  0  0  0  0  0  0  0  0  0
  -24.2409  -33.1316   20.4051 C   0  0  0  0  0  0  0  0  0  0  0  0
  -26.2406  -34.5841   20.8053 C   0  0  0  0  0  0  0  0  0  0  0  0
  -24.1282  -34.9979   22.0660 C   0  0  0  0  0  0  0  0  0  0  0  0
  -28.4261  -32.2392   26.6256 C   0  0  0  0  0  0  0  0  0  0  0  0
  -27.5219  -24.3988   21.9219 C   0  0  0  0  0  0  0  0  0  1  0  0
  -25.5346  -32.9752   22.6340 C   0  0  1  0  0  0  0  0  0  0  0  0
  -28.1049  -34.2137   25.1299 C   0  0  2  0  0  0  0  0  0  0  0  0
  -25.0373  -33.8943   21.4827 C   0  0  0  0  0  0  0  0  0  0  0  0
  -25.7853  -14.1280   22.3796 N   0  0  0  0  0  0  0  0  0  0  0  0
  -29.5923  -19.8635   17.7739 N   0  0  0  0  0  0  0  0  0  0  0  0
  -26.4084  -13.1734   21.6678 N   0  0  0  0  0  0  0  0  0  0  0  0
  -24.4466  -30.8501   23.2854 N   0  0  0  0  0  0  0  0  0  0  0  0
  -29.9030  -14.7358   21.4471 N   0  0  0  0  0  0  0  0  0  0  0  0
  -30.1415  -16.6548   20.0578 N   0  0  0  0  0  0  0  0  0  0  0  0
  -26.0247  -11.2136   20.3940 N   0  0  0  0  0  0  0  0  0  0  0  0
  -21.8767  -12.4426   21.6902 N   0  0  0  0  0  0  0  0  0  0  0  0
  -21.2676  -29.1221   22.8340 N   0  0  0  0  0  0  0  0  0  0  0  0
  -26.2686  -33.6751   23.6827 N   0  0  0  0  0  0  0  0  0  0  0  0
  -29.0379  -33.4366   25.9940 N   0  3  0  0  0  0  0  0  0  0  0  0
  -23.0741  -10.8747   20.5211 O   0  0  0  0  0  0  0  0  0  0  0  0
  -22.8421  -30.1158   21.4355 O   0  0  0  0  0  0  0  0  0  0  0  0
  -23.5161  -32.9043   23.8778 O   0  0  0  0  0  0  0  0  0  0  0  0
  -28.2233  -32.4424   23.4911 O   0  0  0  0  0  0  0  0  0  0  0  0
  -31.7819  -15.0993   20.1599 O   0  0  0  0  0  0  0  0  0  0  0  0
  -20.5781  -16.8714   24.8101 O   0  0  0  0  0  0  0  0  0  0  0  0
  -27.7747  -25.7899   22.1146 O   0  0  0  0  0  0  0  0  0  1  0  0
  -20.9036  -22.3504   24.2816 F   0  0  0  0  0  0  0  0  0  0  0  0
  -18.5239  -18.3084   23.6447 F   0  0  0  0  0  0  0  0  0  0  0  0
  1  2  1  0  0  0  0
  1  5  2  0  0  0  0
  2  6  2  0  0  0  0
  3  8  2  0  0  0  0
  3 15  1  0  0  0  0
  4  9  1  0  0  0  0
  4 15  2  0  0  0  0
  5 17  1  0  0  0  0
  6 19  1  0  0  0  0
  7 10  2  0  0  0  0
  7 18  1  0  0  0  0
  8 24  1  0  0  0  0
  9 24  2  0  0  0  0
 10 25  1  0  0  0  0
 11 12  2  0  0  0  0
 11 26  1  0  0  0  0
 12 27  1  0  0  0  0
 13 20  1  0  0  0  0
 13 25  2  0  0  0  0
 14 27  2  0  0  0  0
 14 28  1  0  0  0  0
 15 29  1  0  0  0  0
 16 29  1  0  0  0  0
 16 32  2  0  0  0  0
 16 33  1  0  0  0  0
 17 19  2  0  0  0  0
 17 38  1  0  0  0  0
 18 20  2  0  0  0  0
 18 39  1  0  0  0  0
 19 51  1  0  0  0  0
 20 40  1  0  0  0  0
 21 22  2  0  0  0  0
 21 23  1  0  0  0  0
 21 50  1  0  0  0  0
 22 30  1  0  0  0  0
 22 56  1  0  0  0  0
 23 31  2  0  0  0  0
 23 57  1  0  0  0  0
 24 84  1  0  0  0  0
 25 85  1  0  0  0  0
 26 28  2  0  0  0  0
 26 84  1  0  0  0  0
 27 86  1  0  0  0  0
 28 87  1  0  0  0  0
 29 68  2  0  0  0  0
 30 52  1  0  0  0  0
 30 69  2  0  0  0  0
 31 58  1  0  0  0  0
 31 69  1  0  0  0  0
 32 70  1  0  0  0  0
 32 74  1  0  0  0  0
 33 75  1  0  0  0  0
 33 79  2  0  0  0  0
 34 53  1  0  0  0  0
 34 76  1  0  0  0  0
 34 80  2  0  0  0  0
 35 65  1  0  0  0  0
 35 71  1  0  0  0  0
 35 81  2  0  0  0  0
 36 66  1  0  0  0  0
 36 77  1  0  0  0  0
 36 82  2  0  0  0  0
 37 72  1  0  0  0  0
 37 73  1  0  0  0  0
 37 83  2  0  0  0  0
 38 41  1  0  0  0  0
 39 53  1  0  0  0  0
 40 71  1  0  0  0  0
 41 43  1  0  0  0  0
 42 44  1  0  0  0  0
 42 46  1  0  0  0  0
 43 51  1  0  0  0  0
 44 55  1  0  0  0  0
 45 50  1  0  0  0  0
 45 54  1  0  0  0  0
 46 72  1  0  0  0  0
 47 52  1  0  0  0  0
 47 73  1  0  0  0  0
 48 52  1  0  0  0  0
 48 73  1  0  0  0  0
 49 55  1  0  0  0  0
 49 72  1  0  0  0  0
 50 54  1  0  0  0  0
 51 76  1  0  0  0  0
 53 71  1  0  0  0  0
 54 64  1  0  0  0  0
 55 70  1  0  0  0  0
 59 66  1  0  0  0  0
 60 67  1  0  0  0  0
 61 67  1  0  0  0  0
 62 67  1  0  0  0  0
 63 78  1  0  0  0  0
 64 85  1  0  0  0  0
 65 67  1  0  0  0  0
 65 77  1  0  0  0  0
 66 78  1  0  0  0  0
 68 70  1  0  0  0  0
M  CHG  1  78   1
M  ISO  4  37 100  64 101  73 100  85 101
M  END
> <Batch ID>
0171

> <Smiles>
CNC(C)C(=O)NC(C(=O)N1Cc2cc([101O:1][101CH2:1]C3CC3c3c(C)c(C)nc(C4C[100N:0]([100C:0](=O)N5CCCC(n6nc(-c7ccc(Oc8ccc(F)cc8F)cc7)c(C(N)=O)c6N)C5)C4)c3C)ccc2CC1C(=O)NC1CCCc2ccccc21)C(C)(C)C

> <Shape>
0.247

> <Color>
0.094

> <Negative vol penalty>
0.000

$$$$

  -OEChem-04052322373D

 85 94  0     1  0  0  0  0  0999 V2000
  -27.8306  -33.4328   26.7779 C   0  0  0  0  0  0  0  0  0  0  0  0
  -28.0056  -32.2731   26.0296 C   0  0  0  0  0  0  0  0  0  0  0  0
  -28.0140  -12.7414   19.9530 C   0  0  0  0  0  0  0  0  0  0  0  0
  -30.3339  -13.0270   19.3417 C   0  0  0  0  0  0  0  0  0  0  0  0
  -26.5445  -33.8814   27.0756 C   0  0  0  0  0  0  0  0  0  0  0  0
  -26.8946  -31.5607   25.5796 C   0  0  0  0  0  0  0  0  0  0  0  0
  -27.3244  -30.1320   20.6535 C   0  0  0  0  0  0  0  0  0  0  0  0
  -28.0724  -11.4070   19.5512 C   0  0  0  0  0  0  0  0  0  0  0  0
  -30.3923  -11.6925   18.9399 C   0  0  0  0  0  0  0  0  0  0  0  0
  -28.1260  -29.0322   20.3503 C   0  0  0  0  0  0  0  0  0  0  0  0
  -27.9866   -9.6735   16.6508 C   0  0  0  0  0  0  0  0  0  0  0  0
  -26.9341   -9.1837   15.8777 C   0  0  0  0  0  0  0  0  0  0  0  0
  -26.1635  -27.6322   20.2683 C   0  0  0  0  0  0  0  0  0  0  0  0
  -30.5435  -22.4427   18.9623 C   0  0  0  0  0  0  0  0  0  0  0  0
  -26.4563   -7.5317   17.5747 C   0  0  0  0  0  0  0  0  0  0  0  0
  -29.1448  -13.5514   19.8483 C   0  0  0  0  0  0  0  0  0  0  0  0
  -29.3593  -15.4454   21.5437 C   0  0  0  0  0  0  0  0  0  0  0  0
  -25.4171  -33.1795   26.6208 C   0  0  0  0  0  0  0  0  0  0  0  0
  -25.9349  -29.9882   20.7770 C   0  0  0  0  0  0  0  0  0  0  0  0
  -25.5922  -31.9997   25.8726 C   0  0  0  0  0  0  0  0  0  0  0  0
  -25.3462  -28.7326   20.5684 C   0  0  0  0  0  0  0  0  0  0  0  0
  -30.2381  -23.3306   17.9368 C   0  0  0  0  0  0  0  0  0  0  0  0
  -29.2946  -24.3299   18.1478 C   0  0  0  0  0  0  0  0  0  0  0  0
  -29.2615  -10.8825   19.0447 C   0  0  0  0  0  0  0  0  0  0  0  0
  -27.5457  -27.7817   20.1598 C   0  0  0  0  0  0  0  0  0  0  0  0
  -28.2741   -9.0924   17.8859 C   0  0  0  0  0  0  0  0  0  0  0  0
  -26.1689   -8.1128   16.3396 C   0  0  0  0  0  0  0  0  0  0  0  0
  -27.5089   -8.0215   18.3478 C   0  0  0  0  0  0  0  0  0  0  0  0
  -29.0849  -14.9301   20.2626 C   0  0  0  0  0  0  0  0  0  0  0  0
  -29.8827  -22.5953   20.1705 C   0  0  0  0  0  0  0  0  0  0  0  0
  -28.6895  -24.3979   19.3925 C   0  0  0  0  0  0  0  0  0  0  0  0
  -29.1607  -16.7988   21.4191 C   0  0  0  0  0  0  0  0  0  0  0  0
  -29.7580  -14.7619   22.7393 C   0  0  0  0  0  0  0  0  0  0  0  0
  -23.7527  -30.4357   23.0756 C   0  0  0  0  0  0  0  0  0  0  0  0
  -21.7096  -29.7063   20.5563 C   0  0  0  0  0  0  0  0  0  0  0  0
  -19.0834  -30.8135   22.4318 C   0  0  0  0  0  0  0  0  0  0  0  0
  -29.5161  -20.4138   16.7745 C   0  0  0  0  0  0  0  0  0  0  0  0
  -24.0471  -33.6774   27.0079 C   0  0  0  0  0  0  0  0  0  0  0  0
  -25.0848  -31.1936   21.0750 C   0  0  0  0  0  0  0  0  0  0  0  0
  -23.8601  -28.5271   20.6859 C   0  0  0  0  0  0  0  0  0  0  0  0
  -22.9207  -33.0703   26.1754 C   0  0  0  0  0  0  0  0  0  0  0  0
  -29.6635  -22.4764   13.4572 C   0  0  0  0  0  0  0  0  0  0  0  0
  -26.6298  -19.9974   18.9160 C   0  0  0  0  0  0  0  0  0  0  0  0
  -23.0986  -31.5599   26.0573 C   0  0  0  0  0  0  0  0  0  0  0  0
  -26.9693  -18.6877   19.6295 C   0  0  0  0  0  0  0  0  0  0  0  0
  -30.7839  -21.9148   14.3551 C   0  0  0  0  0  0  0  0  0  0  0  0
  -29.3706  -23.5090   14.5638 C   0  0  0  0  0  0  0  0  0  0  0  0
  -27.0789  -19.9663   17.4578 C   0  0  0  0  0  0  0  0  0  0  0  0
  -28.8638  -18.3497   17.9765 C   0  0  0  0  0  0  0  0  0  0  0  0
  -24.4118  -31.2131   25.3455 C   0  0  1  0  0  0  0  0  0  0  0  0
  -23.7056  -30.8453   21.6308 C   0  0  1  0  0  0  0  0  0  0  0  0
  -28.4572  -18.3279   19.4611 C   0  0  2  0  0  0  0  0  0  0  0  0
  -30.0503  -22.5423   15.5725 C   0  0  0  0  0  0  0  0  0  0  0  0
  -28.9486  -25.2981   17.0670 C   0  0  0  0  0  0  0  0  0  0  0  0
  -30.1861  -21.6613   21.2941 C   0  0  0  0  0  0  0  0  0  0  0  0
  -16.6363  -31.3463   22.2739 C   0  0  0  0  0  0  0  0  0  0  0  0
  -22.3726  -32.3061   19.1048 C   0  0  0  0  0  0  0  0  0  0  0  0
  -20.1394  -33.1887   19.8132 C   0  0  0  0  0  0  0  0  0  0  0  0
  -20.2743  -31.1857   18.3325 C   0  0  0  0  0  0  0  0  0  0  0  0
  -18.3888  -28.7666   24.4533 C   0  0  0  0  0  0  0  0  0  0  0  0
  -30.9326  -23.1884   16.6228 C   0  0  0  0  0  0  0  0  0  0  0  0
  -27.6647  -25.4552   19.6809 C   0  0  0  0  0  0  0  0  0  1  0  0
  -20.9171  -30.9720   20.7684 C   0  0  1  0  0  0  0  0  0  0  0  0
  -17.6717  -30.2818   22.6016 C   0  0  2  0  0  0  0  0  0  0  0  0
  -20.9446  -31.9039   19.5241 C   0  0  0  0  0  0  0  0  0  0  0  0
  -28.7384  -15.8788   19.3886 N   0  0  0  0  0  0  0  0  0  0  0  0
  -28.9603  -23.5535   20.4129 N   0  0  0  0  0  0  0  0  0  0  0  0
  -28.7935  -17.0038   20.1217 N   0  0  0  0  0  0  0  0  0  0  0  0
  -23.0684  -29.7466   20.8938 N   0  0  0  0  0  0  0  0  0  0  0  0
  -28.5088  -19.6369   17.3685 N   0  0  0  0  0  0  0  0  0  0  0  0
  -29.2661  -17.8215   22.2940 N   0  0  0  0  0  0  0  0  0  0  0  0
  -29.9161  -13.3701   22.6921 N   0  0  0  0  0  0  0  0  0  0  0  0
  -24.2765  -31.3990   23.9166 N   0  0  0  0  0  0  0  0  0  0  0  0
  -19.5791  -30.5531   21.1717 N   0  0  0  0  0  0  0  0  0  0  0  0
  -29.1086  -21.6229   16.2208 N   0  0  0  0  0  0  0  0  0  0  0  0
  -17.4537  -29.8303   24.0051 N   0  3  0  0  0  0  0  0  0  0  0  0
  -29.9519  -15.3654   23.8217 O   0  0  0  0  0  0  0  0  0  0  0  0
  -23.3428  -29.3284   23.4034 O   0  0  0  0  0  0  0  0  0  0  0  0
  -21.1436  -28.7104   20.0971 O   0  0  0  0  0  0  0  0  0  0  0  0
  -19.6848  -31.4043   23.3261 O   0  0  0  0  0  0  0  0  0  0  0  0
  -30.7009  -20.0635   16.7412 O   0  0  0  0  0  0  0  0  0  0  0  0
  -29.3189   -9.5804   18.6527 O   0  0  0  0  0  0  0  0  0  0  0  0
  -28.3257  -26.7067   19.8631 O   0  0  0  0  0  0  0  0  0  1  0  0
  -25.1572   -7.6435   15.5977 F   0  0  0  0  0  0  0  0  0  0  0  0
  -27.7796   -7.4599   19.5340 F   0  0  0  0  0  0  0  0  0  0  0  0
  1  2  1  0  0  0  0
  1  5  2  0  0  0  0
  2  6  2  0  0  0  0
  3  8  2  0  0  0  0
  3 16  1  0  0  0  0
  4  9  1  0  0  0  0
  4 16  2  0  0  0  0
  5 18  1  0  0  0  0
  6 20  1  0  0  0  0
  7 10  2  0  0  0  0
  7 19  1  0  0  0  0
  8 24  1  0  0  0  0
  9 24  2  0  0  0  0
 10 25  1  0  0  0  0
 11 12  2  0  0  0  0
 11 26  1  0  0  0  0
 12 27  1  0  0  0  0
 13 21  1  0  0  0  0
 13 25  2  0  0  0  0
 14 22  2  0  0  0  0
 14 30  1  0  0  0  0
 15 27  2  0  0  0  0
 15 28  1  0  0  0  0
 16 29  1  0  0  0  0
 17 29  1  0  0  0  0
 17 32  2  0  0  0  0
 17 33  1  0  0  0  0
 18 20  2  0  0  0  0
 18 38  1  0  0  0  0
 19 21  2  0  0  0  0
 19 39  1  0  0  0  0
 20 50  1  0  0  0  0
 21 40  1  0  0  0  0
 22 23  1  0  0  0  0
 22 61  1  0  0  0  0
 23 31  2  0  0  0  0
 23 54  1  0  0  0  0
 24 82  1  0  0  0  0
 25 83  1  0  0  0  0
 26 28  2  0  0  0  0
 26 82  1  0  0  0  0
 27 84  1  0  0  0  0
 28 85  1  0  0  0  0
 29 66  2  0  0  0  0
 30 55  1  0  0  0  0
 30 67  2  0  0  0  0
 31 62  1  0  0  0  0
 31 67  1  0  0  0  0
 32 68  1  0  0  0  0
 32 71  1  0  0  0  0
 33 72  1  0  0  0  0
 33 77  2  0  0  0  0
 34 51  1  0  0  0  0
 34 73  1  0  0  0  0
 34 78  2  0  0  0  0
 35 63  1  0  0  0  0
 35 69  1  0  0  0  0
 35 79  2  0  0  0  0
 36 64  1  0  0  0  0
 36 74  1  0  0  0  0
 36 80  2  0  0  0  0
 37 70  1  0  0  0  0
 37 75  1  0  0  0  0
 37 81  2  0  0  0  0
 38 41  1  0  0  0  0
 39 51  1  0  0  0  0
 40 69  1  0  0  0  0
 41 44  1  0  0  0  0
 42 46  1  0  0  0  0
 42 47  1  0  0  0  0
 43 45  1  0  0  0  0
 43 48  1  0  0  0  0
 44 50  1  0  0  0  0
 45 52  1  0  0  0  0
 46 53  1  0  0  0  0
 47 53  1  0  0  0  0
 48 70  1  0  0  0  0
 49 52  1  0  0  0  0
 49 70  1  0  0  0  0
 50 73  1  0  0  0  0
 51 69  1  0  0  0  0
 52 68  1  0  0  0  0
 53 61  1  0  0  0  0
 53 75  1  0  0  0  0
 56 64  1  0  0  0  0
 57 65  1  0  0  0  0
 58 65  1  0  0  0  0
 59 65  1  0  0  0  0
 60 76  1  0  0  0  0
 62 83  1  0  0  0  0
 63 65  1  0  0  0  0
 63 74  1  0  0  0  0
 64 76  1  0  0  0  0
 66 68  1  0  0  0  0
M  CHG  1  76   1
M  ISO  4  37 100  62 101  75 100  83 101
M  END
> <Batch ID>
0171

> <Smiles>
CNC(C)C(=O)NC(C(=O)N1Cc2cc([101O:1][101CH2:1]c3nc(C)cc(CC4([100NH:0][100C:0](=O)N5CCCC(n6nc(-c7ccc(Oc8ccc(F)cc8F)cc7)c(C(N)=O)c6N)C5)CCC4)c3C)ccc2CC1C(=O)NC1CCCc2ccccc21)C(C)(C)C

> <Shape>
0.278

> <Color>
0.072

> <Negative vol penalty>
0.000

$$$$

  -OEChem-04052322373D

 87 96  0     1  0  0  0  0  0999 V2000
  -27.6142  -32.2902   26.3149 C   0  0  0  0  0  0  0  0  0  0  0  0
  -27.7426  -30.9945   25.8248 C   0  0  0  0  0  0  0  0  0  0  0  0
  -22.9565  -10.0231   20.0588 C   0  0  0  0  0  0  0  0  0  0  0  0
  -24.1573   -9.3629   22.0485 C   0  0  0  0  0  0  0  0  0  0  0  0
  -26.5149  -33.0664   25.9503 C   0  0  0  0  0  0  0  0  0  0  0  0
  -26.7711  -30.4739   24.9707 C   0  0  0  0  0  0  0  0  0  0  0  0
  -28.7725  -28.0377   21.0078 C   0  0  0  0  0  0  0  0  0  0  0  0
  -22.2328   -8.8314   20.1001 C   0  0  0  0  0  0  0  0  0  0  0  0
  -23.4336   -8.1712   22.0899 C   0  0  0  0  0  0  0  0  0  0  0  0
  -29.2567  -26.7494   21.2307 C   0  0  0  0  0  0  0  0  0  0  0  0
  -20.3613   -7.1574   23.0665 C   0  0  0  0  0  0  0  0  0  0  0  0
  -19.8516   -6.7530   24.3002 C   0  0  0  0  0  0  0  0  0  0  0  0
  -27.2290  -25.8327   20.2994 C   0  0  0  0  0  0  0  0  0  0  0  0
  -21.1381   -4.7126   24.1629 C   0  0  0  0  0  0  0  0  0  0  0  0
  -23.9188  -10.2888   21.0330 C   0  0  0  0  0  0  0  0  0  0  0  0
  -24.3283  -12.7419   21.6008 C   0  0  0  0  0  0  0  0  0  0  0  0
  -25.5344  -32.5584   25.0835 C   0  0  0  0  0  0  0  0  0  0  0  0
  -27.5063  -28.2335   20.4381 C   0  0  0  0  0  0  0  0  0  0  0  0
  -25.6570  -31.2435   24.5952 C   0  0  0  0  0  0  0  0  0  0  0  0
  -26.7322  -27.1245   20.0679 C   0  0  0  0  0  0  0  0  0  0  0  0
  -31.2152  -20.1900   22.1135 C   0  0  0  0  0  0  0  0  0  0  0  0
  -30.9828  -20.6648   20.8357 C   0  0  0  0  0  0  0  0  0  0  0  0
  -30.6615  -22.0115   20.6815 C   0  0  0  0  0  0  0  0  0  0  0  0
  -22.4713   -7.9055   21.1156 C   0  0  0  0  0  0  0  0  0  0  0  0
  -28.4837  -25.6466   20.8791 C   0  0  0  0  0  0  0  0  0  0  0  0
  -21.2593   -6.3393   22.3808 C   0  0  0  0  0  0  0  0  0  0  0  0
  -20.2400   -5.5306   24.8485 C   0  0  0  0  0  0  0  0  0  0  0  0
  -21.6478   -5.1170   22.9291 C   0  0  0  0  0  0  0  0  0  0  0  0
  -24.6671  -11.5194   20.9905 C   0  0  0  0  0  0  0  0  0  0  0  0
  -31.1230  -21.0786   23.1827 C   0  0  0  0  0  0  0  0  0  0  0  0
  -30.5958  -22.8171   21.8174 C   0  0  0  0  0  0  0  0  0  0  0  0
  -25.3547  -13.5900   21.2638 C   0  0  0  0  0  0  0  0  0  0  0  0
  -23.1877  -13.0805   22.4010 C   0  0  0  0  0  0  0  0  0  0  0  0
  -24.8022  -29.6017   21.3973 C   0  0  0  0  0  0  0  0  0  0  0  0
  -23.8692  -28.9911   18.3512 C   0  0  0  0  0  0  0  0  0  0  0  0
  -24.2524  -27.1185   15.5239 C   0  0  0  0  0  0  0  0  0  0  0  0
  -30.8017  -14.6300   20.6364 C   0  0  0  0  0  0  0  0  0  0  0  0
  -24.3396  -33.4183   24.7554 C   0  0  0  0  0  0  0  0  0  0  0  0
  -27.0096  -29.6295   20.1796 C   0  0  0  0  0  0  0  0  0  0  0  0
  -25.3747  -27.2808   19.4346 C   0  0  0  0  0  0  0  0  0  0  0  0
  -31.4482  -20.3965   24.4799 C   0  0  0  0  0  0  0  0  0  0  0  0
  -23.5469  -32.9245   23.5479 C   0  0  0  0  0  0  0  0  0  0  0  0
  -31.2511  -18.9236   24.0901 C   0  0  0  0  0  0  0  0  0  0  0  0
  -29.1196  -13.0408   17.9306 C   0  0  0  0  0  0  0  0  0  0  0  0
  -23.3099  -31.4207   23.6437 C   0  0  0  0  0  0  0  0  0  0  0  0
  -27.7867  -12.5990   18.5374 C   0  0  0  0  0  0  0  0  0  0  0  0
  -30.2653  -12.9141   18.9322 C   0  0  0  0  0  0  0  0  0  0  0  0
  -28.7076  -13.1552   20.8268 C   0  0  0  0  0  0  0  0  0  0  0  0
  -24.6368  -30.6521   23.6468 C   0  0  1  0  0  0  0  0  0  0  0  0
  -25.4905  -29.7119   20.0662 C   0  0  1  0  0  0  0  0  0  0  0  0
  -27.5125  -13.3179   19.8720 C   0  0  2  0  0  0  0  0  0  0  0  0
  -31.5934  -18.8082   22.5790 C   0  0  2  0  0  0  0  0  0  0  0  0
  -31.0400  -19.7727   19.6425 C   0  0  0  0  0  0  0  0  0  0  0  0
  -30.3856  -22.5799   19.3283 C   0  0  0  0  0  0  0  0  0  0  0  0
  -33.0923  -18.5606   22.3656 C   0  0  0  0  0  0  0  0  0  0  0  0
  -23.3207  -26.8284   13.2119 C   0  0  0  0  0  0  0  0  0  0  0  0
  -29.2869  -17.9254   22.1828 C   0  0  0  0  0  0  0  0  0  0  0  0
  -21.4280  -27.5781   19.5148 C   0  0  0  0  0  0  0  0  0  0  0  0
  -21.0617  -26.5176   17.2767 C   0  0  0  0  0  0  0  0  0  0  0  0
  -20.9548  -28.9987   17.5118 C   0  0  0  0  0  0  0  0  0  0  0  0
  -26.8554  -27.7579   14.2692 C   0  0  0  0  0  0  0  0  0  0  0  0
  -30.2469  -24.2707   21.6878 C   0  0  0  0  0  0  0  0  0  1  0  0
  -31.1964  -16.3146   22.4156 C   0  0  0  0  0  0  0  0  0  0  0  0
  -23.1955  -27.8360   17.6506 C   0  0  1  0  0  0  0  0  0  0  0  0
  -24.3782  -27.5134   14.0635 C   0  0  2  0  0  0  0  0  0  0  0  0
  -30.7737  -17.6987   21.9161 C   0  0  2  0  0  0  0  0  0  0  0  0
  -21.6847  -27.7293   18.0022 C   0  0  0  0  0  0  0  0  0  0  0  0
  -25.8187  -11.5813   20.3166 N   0  0  0  0  0  0  0  0  0  0  0  0
  -30.8249  -22.3848   23.0799 N   0  0  0  0  0  0  0  0  0  0  0  0
  -26.2123  -12.8528   20.5015 N   0  0  0  0  0  0  0  0  0  0  0  0
  -24.9303  -28.6660   19.2080 N   0  0  0  0  0  0  0  0  0  0  0  0
  -29.9427  -13.6188   20.1753 N   0  0  0  0  0  0  0  0  0  0  0  0
  -25.5982  -14.8871   21.5481 N   0  0  0  0  0  0  0  0  0  0  0  0
  -22.2285  -12.0895   22.6502 N   0  0  0  0  0  0  0  0  0  0  0  0
  -25.1776  -30.5719   22.3068 N   0  0  0  0  0  0  0  0  0  0  0  0
  -23.4672  -28.0072   16.2274 N   0  0  0  0  0  0  0  0  0  0  0  0
  -30.4189  -15.2516   21.8187 N   0  0  0  0  0  0  0  0  0  0  0  0
  -25.7210  -27.1361   13.5387 N   0  3  0  0  0  0  0  0  0  0  0  0
  -23.0159  -14.2323   22.8671 O   0  0  0  0  0  0  0  0  0  0  0  0
  -23.9897  -28.7038   21.5848 O   0  0  0  0  0  0  0  0  0  0  0  0
  -23.4733  -30.1402   18.1403 O   0  0  0  0  0  0  0  0  0  0  0  0
  -24.7933  -26.1195   15.9927 O   0  0  0  0  0  0  0  0  0  0  0  0
  -31.8306  -14.9583   20.0360 O   0  0  0  0  0  0  0  0  0  0  0  0
  -21.7651   -6.7426   21.1564 O   0  0  0  0  0  0  0  0  0  0  0  0
  -28.9537  -24.3881   21.0962 O   0  0  0  0  0  0  0  0  0  1  0  0
  -19.7516   -5.1430   26.0340 F   0  0  0  0  0  0  0  0  0  0  0  0
  -22.5111   -4.3274   22.2757 F   0  0  0  0  0  0  0  0  0  0  0  0
  1  2  1  0  0  0  0
  1  5  2  0  0  0  0
  2  6  2  0  0  0  0
  3  8  2  0  0  0  0
  3 15  1  0  0  0  0
  4  9  1  0  0  0  0
  4 15  2  0  0  0  0
  5 17  1  0  0  0  0
  6 19  1  0  0  0  0
  7 10  2  0  0  0  0
  7 18  1  0  0  0  0
  8 24  1  0  0  0  0
  9 24  2  0  0  0  0
 10 25  1  0  0  0  0
 11 12  2  0  0  0  0
 11 26  1  0  0  0  0
 12 27  1  0  0  0  0
 13 20  1  0  0  0  0
 13 25  2  0  0  0  0
 14 27  2  0  0  0  0
 14 28  1  0  0  0  0
 15 29  1  0  0  0  0
 16 29  1  0  0  0  0
 16 32  2  0  0  0  0
 16 33  1  0  0  0  0
 17 19  2  0  0  0  0
 17 38  1  0  0  0  0
 18 20  2  0  0  0  0
 18 39  1  0  0  0  0
 19 49  1  0  0  0  0
 20 40  1  0  0  0  0
 21 22  2  0  0  0  0
 21 30  1  0  0  0  0
 21 52  1  0  0  0  0
 22 23  1  0  0  0  0
 22 53  1  0  0  0  0
 23 31  2  0  0  0  0
 23 54  1  0  0  0  0
 24 84  1  0  0  0  0
 25 85  1  0  0  0  0
 26 28  2  0  0  0  0
 26 84  1  0  0  0  0
 27 86  1  0  0  0  0
 28 87  1  0  0  0  0
 29 68  2  0  0  0  0
 30 41  1  0  0  0  0
 30 69  2  0  0  0  0
 31 62  1  0  0  0  0
 31 69  1  0  0  0  0
 32 70  1  0  0  0  0
 32 73  1  0  0  0  0
 33 74  1  0  0  0  0
 33 79  2  0  0  0  0
 34 50  1  0  0  0  0
 34 75  1  0  0  0  0
 34 80  2  0  0  0  0
 35 64  1  0  0  0  0
 35 71  1  0  0  0  0
 35 81  2  0  0  0  0
 36 65  1  0  0  0  0
 36 76  1  0  0  0  0
 36 82  2  0  0  0  0
 37 72  1  0  0  0  0
 37 77  1  0  0  0  0
 37 83  2  0  0  0  0
 38 42  1  0  0  0  0
 39 50  1  0  0  0  0
 40 71  1  0  0  0  0
 41 43  1  0  0  0  0
 42 45  1  0  0  0  0
 43 52  1  0  0  0  0
 44 46  1  0  0  0  0
 44 47  1  0  0  0  0
 45 49  1  0  0  0  0
 46 51  1  0  0  0  0
 47 72  1  0  0  0  0
 48 51  1  0  0  0  0
 48 72  1  0  0  0  0
 49 75  1  0  0  0  0
 50 71  1  0  0  0  0
 51 70  1  0  0  0  0
 52 55  1  0  0  0  0
 52 66  1  0  0  0  0
 56 65  1  0  0  0  0
 57 66  1  0  0  0  0
 58 67  1  0  0  0  0
 59 67  1  0  0  0  0
 60 67  1  0  0  0  0
 61 78  1  0  0  0  0
 62 85  1  0  0  0  0
 63 66  1  0  0  0  0
 63 77  1  0  0  0  0
 64 67  1  0  0  0  0
 64 76  1  0  0  0  0
 65 78  1  0  0  0  0
 68 70  1  0  0  0  0
M  CHG  1  78   1
M  ISO  4  37 100  62 101  77 100  85 101
M  END
> <Batch ID>
0171

> <Smiles>
CNC(C)C(=O)NC(C(=O)N1Cc2cc([101O:1][101CH2:1]c3nc4c(c(C)c3C)C(C)(C(C)C[100NH:0][100C:0](=O)N3CCCC(n5nc(-c6ccc(Oc7ccc(F)cc7F)cc6)c(C(N)=O)c5N)C3)CC4)ccc2CC1C(=O)NC1CCCc2ccccc21)C(C)(C)C

> <Shape>
0.345

> <Color>
0.151

> <Negative vol penalty>
0.000

$$$$

  -OEChem-04052322373D

 86 95  0     1  0  0  0  0  0999 V2000
  -26.8683  -31.8060   27.2914 C   0  0  0  0  0  0  0  0  0  0  0  0
  -27.5130  -30.8040   26.5733 C   0  0  0  0  0  0  0  0  0  0  0  0
  -22.9124  -11.1655   20.9292 C   0  0  0  0  0  0  0  0  0  0  0  0
  -23.8638   -9.0152   21.4843 C   0  0  0  0  0  0  0  0  0  0  0  0
  -25.4959  -31.9986   27.1387 C   0  0  0  0  0  0  0  0  0  0  0  0
  -26.7854  -29.9932   25.7029 C   0  0  0  0  0  0  0  0  0  0  0  0
  -28.7122  -27.6383   20.3880 C   0  0  0  0  0  0  0  0  0  0  0  0
  -21.7120  -10.5450   20.5832 C   0  0  0  0  0  0  0  0  0  0  0  0
  -22.6634   -8.3947   21.1384 C   0  0  0  0  0  0  0  0  0  0  0  0
  -29.2079  -26.3815   20.0438 C   0  0  0  0  0  0  0  0  0  0  0  0
  -18.2795   -9.5639   19.8971 C   0  0  0  0  0  0  0  0  0  0  0  0
  -17.0955  -10.1409   20.3561 C   0  0  0  0  0  0  0  0  0  0  0  0
  -27.0022  -25.7132   19.3315 C   0  0  0  0  0  0  0  0  0  0  0  0
  -17.8340   -9.8419   22.6370 C   0  0  0  0  0  0  0  0  0  0  0  0
  -23.9884  -10.4005   21.3797 C   0  0  0  0  0  0  0  0  0  0  0  0
  -25.5986  -11.5313   23.0033 C   0  0  0  0  0  0  0  0  0  0  0  0
  -24.7528  -31.1960   26.2588 C   0  0  0  0  0  0  0  0  0  0  0  0
  -27.3533  -27.9388   20.2165 C   0  0  0  0  0  0  0  0  0  0  0  0
  -25.4015  -30.1743   25.5393 C   0  0  0  0  0  0  0  0  0  0  0  0
  -26.4922  -26.9754   19.6720 C   0  0  0  0  0  0  0  0  0  0  0  0
  -30.5744  -20.1951   19.2298 C   0  0  0  0  0  0  0  0  0  0  0  0
  -30.2303  -21.4637   19.6832 C   0  0  0  0  0  0  0  0  0  0  0  0
  -30.5795  -22.5820   18.9343 C   0  0  0  0  0  0  0  0  0  0  0  0
  -21.5875   -9.1597   20.6879 C   0  0  0  0  0  0  0  0  0  0  0  0
  -28.3524  -25.4178   19.5181 C   0  0  0  0  0  0  0  0  0  0  0  0
  -19.2408   -9.1258   20.8080 C   0  0  0  0  0  0  0  0  0  0  0  0
  -16.8727  -10.2799   21.7260 C   0  0  0  0  0  0  0  0  0  0  0  0
  -19.0181   -9.2648   22.1779 C   0  0  0  0  0  0  0  0  0  0  0  0
  -25.2288  -11.0408   21.7366 C   0  0  0  0  0  0  0  0  0  0  0  0
  -31.2622  -20.0994   18.0308 C   0  0  0  0  0  0  0  0  0  0  0  0
  -31.2672  -22.3794   17.7487 C   0  0  0  0  0  0  0  0  0  0  0  0
  -26.8606  -12.0411   22.8191 C   0  0  0  0  0  0  0  0  0  0  0  0
  -24.8668  -11.5263   24.2363 C   0  0  0  0  0  0  0  0  0  0  0  0
  -24.9703  -28.7402   22.1614 C   0  0  0  0  0  0  0  0  0  0  0  0
  -23.3508  -29.1373   19.3790 C   0  0  0  0  0  0  0  0  0  0  0  0
  -23.0363  -28.3532   16.0725 C   0  0  0  0  0  0  0  0  0  0  0  0
  -30.5932  -14.8723   19.9777 C   0  0  0  0  0  0  0  0  0  0  0  0
  -23.2631  -31.4110   26.1627 C   0  0  0  0  0  0  0  0  0  0  0  0
  -26.8395  -29.3081   20.5678 C   0  0  0  0  0  0  0  0  0  0  0  0
  -25.0291  -27.2549   19.4491 C   0  0  0  0  0  0  0  0  0  0  0  0
  -22.6305  -30.7536   24.9388 C   0  0  0  0  0  0  0  0  0  0  0  0
  -30.0559  -11.6224   18.9298 C   0  0  0  0  0  0  0  0  0  0  0  0
  -23.1331  -29.3219   24.7822 C   0  0  0  0  0  0  0  0  0  0  0  0
  -28.7823  -11.2088   19.6670 C   0  0  0  0  0  0  0  0  0  0  0  0
  -29.2541  -18.0322   19.2431 C   0  0  0  0  0  0  0  0  0  0  0  0
  -31.4510  -18.1802   20.4927 C   0  0  0  0  0  0  0  0  0  0  0  0
  -29.9514  -13.0559   18.4222 C   0  0  0  0  0  0  0  0  0  0  0  0
  -28.9129  -16.7681   20.0372 C   0  0  0  0  0  0  0  0  0  0  0  0
  -31.0480  -16.9324   21.2730 C   0  0  0  0  0  0  0  0  0  0  0  0
  -28.3840  -13.6551   20.2394 C   0  0  0  0  0  0  0  0  0  0  0  0
  -30.2066  -18.9558   20.0237 C   0  0  0  0  0  0  0  0  0  0  0  0
  -24.6510  -29.2905   24.5669 C   0  0  1  0  0  0  0  0  0  0  0  0
  -25.3369  -29.3333   20.8304 C   0  0  1  0  0  0  0  0  0  0  0  0
  -28.4380  -12.2124   20.7817 C   0  0  1  0  0  0  0  0  0  0  0  0
  -29.4895  -21.6253   20.9723 C   0  0  0  0  0  0  0  0  0  0  0  0
  -31.6589  -18.7637   17.4926 C   0  0  0  0  0  0  0  0  0  0  0  0
  -31.6717  -23.5418   16.9021 C   0  0  0  0  0  0  0  0  0  0  0  0
  -21.5932  -28.8041   14.0696 C   0  0  0  0  0  0  0  0  0  0  0  0
  -21.2132  -27.2721   20.5023 C   0  0  0  0  0  0  0  0  0  0  0  0
  -20.3213  -27.0079   18.1779 C   0  0  0  0  0  0  0  0  0  0  0  0
  -20.3223  -29.2537   19.2637 C   0  0  0  0  0  0  0  0  0  0  0  0
  -25.2946  -29.5317   14.5658 C   0  0  0  0  0  0  0  0  0  0  0  0
  -30.2246  -23.9566   19.3937 C   0  0  0  0  0  0  0  0  0  1  0  0
  -22.5107  -28.2478   18.4947 C   0  0  1  0  0  0  0  0  0  0  0  0
  -22.8318  -29.2238   14.8458 C   0  0  2  0  0  0  0  0  0  0  0  0
  -21.1190  -27.9392   19.1155 C   0  0  0  0  0  0  0  0  0  0  0  0
  -26.1789  -11.2229   20.8157 N   0  0  0  0  0  0  0  0  0  0  0  0
  -31.6188  -21.1627   17.2759 N   0  0  0  0  0  0  0  0  0  0  0  0
  -27.1582  -11.8335   21.5044 N   0  0  0  0  0  0  0  0  0  0  0  0
  -24.5733  -28.6063   19.8142 N   0  0  0  0  0  0  0  0  0  0  0  0
  -29.6198  -13.9771   19.5090 N   0  0  0  0  0  0  0  0  0  0  0  0
  -30.1371  -16.0950   20.4929 N   0  0  0  0  0  0  0  0  0  0  0  0
  -27.7335  -12.6424   23.6550 N   0  0  0  0  0  0  0  0  0  0  0  0
  -23.5837  -10.9627   24.2494 N   0  0  0  0  0  0  0  0  0  0  0  0
  -24.9755  -29.6486   23.2027 N   0  0  0  0  0  0  0  0  0  0  0  0
  -22.4520  -28.9044   17.1932 N   0  0  0  0  0  0  0  0  0  0  0  0
  -24.0103  -29.1261   13.9389 N   0  3  0  0  0  0  0  0  0  0  0  0
  -25.3304  -12.0221   25.2912 O   0  0  0  0  0  0  0  0  0  0  0  0
  -24.7012  -27.5472   22.2378 O   0  0  0  0  0  0  0  0  0  0  0  0
  -22.9408  -30.2645   19.6670 O   0  0  0  0  0  0  0  0  0  0  0  0
  -23.6496  -27.2887   16.0390 O   0  0  0  0  0  0  0  0  0  0  0  0
  -31.7987  -14.5959   19.9392 O   0  0  0  0  0  0  0  0  0  0  0  0
  -20.4162   -8.5539   20.3507 O   0  0  0  0  0  0  0  0  0  0  0  0
  -28.8369  -24.1815   19.1796 O   0  0  0  0  0  0  0  0  0  1  0  0
  -15.7363  -10.8354   22.1666 F   0  0  0  0  0  0  0  0  0  0  0  0
  -19.9384   -8.8469   23.0578 F   0  0  0  0  0  0  0  0  0  0  0  0
  1  2  1  0  0  0  0
  1  5  2  0  0  0  0
  2  6  2  0  0  0  0
  3  8  2  0  0  0  0
  3 15  1  0  0  0  0
  4  9  1  0  0  0  0
  4 15  2  0  0  0  0
  5 17  1  0  0  0  0
  6 19  1  0  0  0  0
  7 10  2  0  0  0  0
  7 18  1  0  0  0  0
  8 24  1  0  0  0  0
  9 24  2  0  0  0  0
 10 25  1  0  0  0  0
 11 12  2  0  0  0  0
 11 26  1  0  0  0  0
 12 27  1  0  0  0  0
 13 20  1  0  0  0  0
 13 25  2  0  0  0  0
 14 27  2  0  0  0  0
 14 28  1  0  0  0  0
 15 29  1  0  0  0  0
 16 29  1  0  0  0  0
 16 32  2  0  0  0  0
 16 33  1  0  0  0  0
 17 19  2  0  0  0  0
 17 38  1  0  0  0  0
 18 20  2  0  0  0  0
 18 39  1  0  0  0  0
 19 52  1  0  0  0  0
 20 40  1  0  0  0  0
 21 22  1  0  0  0  0
 21 30  2  0  0  0  0
 21 51  1  0  0  0  0
 22 23  2  0  0  0  0
 22 55  1  0  0  0  0
 23 31  1  0  0  0  0
 23 63  1  0  0  0  0
 24 83  1  0  0  0  0
 25 84  1  0  0  0  0
 26 28  2  0  0  0  0
 26 83  1  0  0  0  0
 27 85  1  0  0  0  0
 28 86  1  0  0  0  0
 29 67  2  0  0  0  0
 30 56  1  0  0  0  0
 30 68  1  0  0  0  0
 31 57  1  0  0  0  0
 31 68  2  0  0  0  0
 32 69  1  0  0  0  0
 32 73  1  0  0  0  0
 33 74  1  0  0  0  0
 33 78  2  0  0  0  0
 34 53  1  0  0  0  0
 34 75  1  0  0  0  0
 34 79  2  0  0  0  0
 35 64  1  0  0  0  0
 35 70  1  0  0  0  0
 35 80  2  0  0  0  0
 36 65  1  0  0  0  0
 36 76  1  0  0  0  0
 36 81  2  0  0  0  0
 37 71  1  0  0  0  0
 37 72  1  0  0  0  0
 37 82  2  0  0  0  0
 38 41  1  0  0  0  0
 39 53  1  0  0  0  0
 40 70  1  0  0  0  0
 41 43  1  0  0  0  0
 42 44  1  0  0  0  0
 42 47  1  0  0  0  0
 43 52  1  0  0  0  0
 44 54  1  0  0  0  0
 45 48  1  0  0  0  0
 45 51  1  0  0  0  0
 46 49  1  0  0  0  0
 46 51  1  0  0  0  0
 47 71  1  0  0  0  0
 48 72  1  0  0  0  0
 49 72  1  0  0  0  0
 50 54  1  0  0  0  0
 50 71  1  0  0  0  0
 52 75  1  0  0  0  0
 53 70  1  0  0  0  0
 54 69  1  0  0  0  0
 58 65  1  0  0  0  0
 59 66  1  0  0  0  0
 60 66  1  0  0  0  0
 61 66  1  0  0  0  0
 62 77  1  0  0  0  0
 63 84  1  0  0  0  0
 64 66  1  0  0  0  0
 64 76  1  0  0  0  0
 65 77  1  0  0  0  0
 67 69  1  0  0  0  0
M  CHG  1  77   1
M  ISO  4  37 100  63 101  72 100  84 101
M  END
> <Batch ID>
0171

> <Smiles>
CNC(C)C(=O)NC(C(=O)N1Cc2cc([101O:1][101CH2:1]c3c(C)nc(C)c(C4CC[100N:0]([100C:0](=O)N5CCCC(n6nc(-c7ccc(Oc8ccc(F)cc8F)cc7)c(C(N)=O)c6N)C5)CC4)c3C)ccc2CC1C(=O)NC1CCCc2ccccc21)C(C)(C)C

> <Shape>
0.267

> <Color>
0.090

> <Negative vol penalty>
0.000

$$$$

  -OEChem-04052322373D

 87 96  0     1  0  0  0  0  0999 V2000
  -28.2400  -32.2065   27.2743 C   0  0  0  0  0  0  0  0  0  0  0  0
  -28.3872  -31.2085   26.3163 C   0  0  0  0  0  0  0  0  0  0  0  0
  -23.7742   -9.6764   21.3491 C   0  0  0  0  0  0  0  0  0  0  0  0
  -24.2547  -10.7090   23.4798 C   0  0  0  0  0  0  0  0  0  0  0  0
  -26.9694  -32.5429   27.7393 C   0  0  0  0  0  0  0  0  0  0  0  0
  -27.2638  -30.5454   25.8236 C   0  0  0  0  0  0  0  0  0  0  0  0
  -27.3664  -30.0289   20.7870 C   0  0  0  0  0  0  0  0  0  0  0  0
  -23.2313   -8.5725   22.0065 C   0  0  0  0  0  0  0  0  0  0  0  0
  -23.7118   -9.6051   24.1372 C   0  0  0  0  0  0  0  0  0  0  0  0
  -28.1794  -29.0229   20.2665 C   0  0  0  0  0  0  0  0  0  0  0  0
  -20.3342   -7.7724   23.5556 C   0  0  0  0  0  0  0  0  0  0  0  0
  -19.1217   -7.2691   23.0844 C   0  0  0  0  0  0  0  0  0  0  0  0
  -26.2457  -27.6052   20.0021 C   0  0  0  0  0  0  0  0  0  0  0  0
  -20.1751   -5.1388   22.6493 C   0  0  0  0  0  0  0  0  0  0  0  0
  -24.2860  -10.7447   22.0857 C   0  0  0  0  0  0  0  0  0  0  0  0
  -24.1696  -13.0485   20.9965 C   0  0  0  0  0  0  0  0  0  0  0  0
  -25.8290  -31.8903   27.2449 C   0  0  0  0  0  0  0  0  0  0  0  0
  -25.9862  -29.8262   20.9293 C   0  0  0  0  0  0  0  0  0  0  0  0
  -25.9768  -30.8725   26.2834 C   0  0  0  0  0  0  0  0  0  0  0  0
  -25.4170  -28.6111   20.5222 C   0  0  0  0  0  0  0  0  0  0  0  0
  -23.2001   -8.5368   23.4005 C   0  0  0  0  0  0  0  0  0  0  0  0
  -27.6196  -27.8098   19.8767 C   0  0  0  0  0  0  0  0  0  0  0  0
  -21.4672   -6.9590   23.5735 C   0  0  0  0  0  0  0  0  0  0  0  0
  -19.0421   -5.9523   22.6313 C   0  0  0  0  0  0  0  0  0  0  0  0
  -21.3876   -5.6422   23.1205 C   0  0  0  0  0  0  0  0  0  0  0  0
  -24.8475  -11.8851   21.4072 C   0  0  0  0  0  0  0  0  0  0  0  0
  -25.1396  -13.8202   20.4047 C   0  0  0  0  0  0  0  0  0  0  0  0
  -22.7868  -13.4003   21.1373 C   0  0  0  0  0  0  0  0  0  0  0  0
  -23.9692  -29.7665   23.3853 C   0  0  0  0  0  0  0  0  0  0  0  0
  -21.7378  -29.5163   21.0442 C   0  0  0  0  0  0  0  0  0  0  0  0
  -20.9900  -28.6140   17.8390 C   0  0  0  0  0  0  0  0  0  0  0  0
  -30.3622  -15.9396   20.7545 C   0  0  0  0  0  0  0  0  0  0  0  0
  -24.4803  -32.2557   27.8125 C   0  0  0  0  0  0  0  0  0  0  0  0
  -25.1190  -30.9310   21.4675 C   0  0  0  0  0  0  0  0  0  0  0  0
  -23.9378  -28.3509   20.6355 C   0  0  0  0  0  0  0  0  0  0  0  0
  -23.3095  -31.7644   26.9651 C   0  0  0  0  0  0  0  0  0  0  0  0
  -29.8865  -12.7145   19.0615 C   0  0  0  0  0  0  0  0  0  0  0  0
  -23.5171  -30.3083   26.5608 C   0  0  0  0  0  0  0  0  0  0  0  0
  -28.4956  -12.2870   19.5317 C   0  0  0  0  0  0  0  0  0  0  0  0
  -27.9023  -18.5998   20.5066 C   0  0  0  0  0  0  0  0  0  0  0  0
  -30.6041  -13.5683   20.1042 C   0  0  0  0  0  0  0  0  0  0  0  0
  -28.1034  -17.1102   20.7574 C   0  0  0  0  0  0  0  0  0  0  0  0
  -28.5686  -23.0124   21.3202 C   0  0  0  0  0  0  0  0  0  0  0  0
  -28.4447  -14.3092   21.0389 C   0  0  0  0  0  0  0  0  0  0  0  0
  -28.1074  -21.5956   21.6325 C   0  0  0  0  0  0  0  0  0  0  0  0
  -29.4792  -20.7921   19.7302 C   0  0  0  0  0  0  0  0  0  0  0  0
  -24.7803  -30.1476   25.7064 C   0  0  1  0  0  0  0  0  0  0  0  0
  -23.8004  -30.4275   22.0465 C   0  0  1  0  0  0  0  0  0  0  0  0
  -27.6677  -13.5020   19.9895 C   0  0  2  0  0  0  0  0  0  0  0  0
  -28.8276  -19.2107   21.5469 C   0  0  1  0  0  0  0  0  0  0  0  0
  -29.9126  -22.2397   19.4480 C   0  0  1  0  0  0  0  0  0  0  0  0
  -30.0601  -18.3047   21.5096 C   0  0  1  0  0  0  0  0  0  0  0  0
  -30.2178  -22.3550   17.9481 C   0  0  0  0  0  0  0  0  0  0  0  0
  -19.0737  -28.4902   16.2235 C   0  0  0  0  0  0  0  0  0  0  0  0
  -31.2918  -19.6673   23.2212 C   0  0  0  0  0  0  0  0  0  0  0  0
  -29.8820  -17.7197   23.9444 C   0  0  0  0  0  0  0  0  0  0  0  0
  -20.6913  -27.0354   22.4795 C   0  0  0  0  0  0  0  0  0  0  0  0
  -19.4548  -26.4322   20.3878 C   0  0  0  0  0  0  0  0  0  0  0  0
  -18.9141  -28.5517   21.5869 C   0  0  0  0  0  0  0  0  0  0  0  0
  -22.3006  -30.4888   15.9610 C   0  0  0  0  0  0  0  0  0  0  0  0
  -29.2285  -24.5851   19.6388 C   0  0  0  0  0  0  0  0  0  0  0  0
  -27.9990  -25.4793   19.5924 C   0  0  0  0  0  0  0  0  0  1  0  0
  -21.0864  -28.3718   20.3060 C   0  0  1  0  0  0  0  0  0  0  0  0
  -20.2277  -29.3344   16.7415 C   0  0  2  0  0  0  0  0  0  0  0  0
  -30.7899  -18.2732   22.8472 C   0  0  0  0  0  0  0  0  0  0  0  0
  -20.0649  -27.6017   21.1896 C   0  0  0  0  0  0  0  0  0  0  0  0
  -26.1476  -11.9109   21.1021 N   0  0  0  0  0  0  0  0  0  0  0  0
  -26.2944  -13.0999   20.4932 N   0  0  0  0  0  0  0  0  0  0  0  0
  -23.1327  -29.4598   21.1737 N   0  0  0  0  0  0  0  0  0  0  0  0
  -29.7681  -14.6904   20.5313 N   0  0  0  0  0  0  0  0  0  0  0  0
  -29.5190  -16.9913   21.1254 N   0  0  0  0  0  0  0  0  0  0  0  0
  -28.8645  -23.1875   19.8883 N   0  0  2  0  0  0  0  0  0  0  0  0
  -25.1088  -15.0377   19.8224 N   0  0  0  0  0  0  0  0  0  0  0  0
  -21.9275  -12.4920   21.7704 N   0  0  0  0  0  0  0  0  0  0  0  0
  -24.5308  -30.5824   24.3488 N   0  0  0  0  0  0  0  0  0  0  0  0
  -20.5149  -28.9424   19.0910 N   0  0  0  0  0  0  0  0  0  0  0  0
  -29.1742  -20.6299   21.1960 N   0  3  2  0  0  0  0  0  0  0  0  0
  -21.1333  -29.6441   15.5992 N   0  3  0  0  0  0  0  0  0  0  0  0
  -22.3236  -14.4808   20.6996 O   0  0  0  0  0  0  0  0  0  0  0  0
  -23.6147  -28.6029   23.5335 O   0  0  0  0  0  0  0  0  0  0  0  0
  -21.0356  -30.4304   21.4834 O   0  0  0  0  0  0  0  0  0  0  0  0
  -21.9122  -27.8349   17.6084 O   0  0  0  0  0  0  0  0  0  0  0  0
  -31.5774  -16.1139   20.5983 O   0  0  0  0  0  0  0  0  0  0  0  0
  -22.6701   -7.4599   24.0423 O   0  0  0  0  0  0  0  0  0  0  0  0
  -28.4166  -26.8190   19.3653 O   0  0  0  0  0  0  0  0  0  1  0  0
  -17.8773   -5.4686   22.1803 F   0  0  0  0  0  0  0  0  0  0  0  0
  -22.4724   -4.8555   23.1364 F   0  0  0  0  0  0  0  0  0  0  0  0
  1  2  1  0  0  0  0
  1  5  2  0  0  0  0
  2  6  2  0  0  0  0
  3  8  2  0  0  0  0
  3 15  1  0  0  0  0
  4  9  1  0  0  0  0
  4 15  2  0  0  0  0
  5 17  1  0  0  0  0
  6 19  1  0  0  0  0
  7 10  2  0  0  0  0
  7 18  1  0  0  0  0
  8 21  1  0  0  0  0
  9 21  2  0  0  0  0
 10 22  1  0  0  0  0
 11 12  2  0  0  0  0
 11 23  1  0  0  0  0
 12 24  1  0  0  0  0
 13 20  1  0  0  0  0
 13 22  2  0  0  0  0
 14 24  2  0  0  0  0
 14 25  1  0  0  0  0
 15 26  1  0  0  0  0
 16 26  1  0  0  0  0
 16 27  2  0  0  0  0
 16 28  1  0  0  0  0
 17 19  2  0  0  0  0
 17 33  1  0  0  0  0
 18 20  2  0  0  0  0
 18 34  1  0  0  0  0
 19 47  1  0  0  0  0
 20 35  1  0  0  0  0
 21 84  1  0  0  0  0
 22 85  1  0  0  0  0
 23 25  2  0  0  0  0
 23 84  1  0  0  0  0
 24 86  1  0  0  0  0
 25 87  1  0  0  0  0
 26 67  2  0  0  0  0
 27 68  1  0  0  0  0
 27 73  1  0  0  0  0
 28 74  1  0  0  0  0
 28 79  2  0  0  0  0
 29 48  1  0  0  0  0
 29 75  1  0  0  0  0
 29 80  2  0  0  0  0
 30 63  1  0  0  0  0
 30 69  1  0  0  0  0
 30 81  2  0  0  0  0
 31 64  1  0  0  0  0
 31 76  1  0  0  0  0
 31 82  2  0  0  0  0
 32 70  1  0  0  0  0
 32 71  1  0  0  0  0
 32 83  2  0  0  0  0
 33 36  1  0  0  0  0
 34 48  1  0  0  0  0
 35 69  1  0  0  0  0
 36 38  1  0  0  0  0
 37 39  1  0  0  0  0
 37 41  1  0  0  0  0
 38 47  1  0  0  0  0
 39 49  1  0  0  0  0
 40 42  1  0  0  0  0
 40 50  1  0  0  0  0
 41 70  1  0  0  0  0
 42 71  1  0  0  0  0
 43 45  1  0  0  0  0
 43 72  1  0  0  0  0
 44 49  1  0  0  0  0
 44 70  1  0  0  0  0
 45 77  1  0  0  0  0
 46 51  1  0  0  0  0
 46 77  1  0  0  0  0
 47 75  1  0  0  0  0
 48 69  1  0  0  0  0
 49 68  1  0  0  0  0
 50 52  1  0  0  0  0
 50 77  1  0  0  0  0
 51 53  1  0  0  0  0
 51 72  1  0  0  0  0
 52 65  1  0  0  0  0
 52 71  1  0  0  0  0
 54 64  1  0  0  0  0
 55 65  1  0  0  0  0
 56 65  1  0  0  0  0
 57 66  1  0  0  0  0
 58 66  1  0  0  0  0
 59 66  1  0  0  0  0
 60 78  1  0  0  0  0
 61 62  1  0  0  0  0
 61 72  1  0  0  0  0
 62 85  1  0  0  0  0
 63 66  1  0  0  0  0
 63 76  1  0  0  0  0
 64 78  1  0  0  0  0
 67 68  1  0  0  0  0
M  CHG  2  77   1  78   1
M  ISO  4  32 100  62 101  71 100  85 101
M  END
> <Batch ID>
0171

> <Smiles>
CNC(C)C(=O)NC(C(=O)N1Cc2cc([101O:1][101CH2:1]CN3CCN(C4CC[100N:0]([100C:0](=O)N5CCCC(n6nc(-c7ccc(Oc8ccc(F)cc8F)cc7)c(C(N)=O)c6N)C5)C4C(C)C)CC3C)ccc2CC1C(=O)NC1CCCc2ccccc21)C(C)(C)C

> <Shape>
0.378

> <Color>
0.160

> <Negative vol penalty>
0.000

$$$$

  -OEChem-04052322373D

 88 97  0     1  0  0  0  0  0999 V2000
  -33.6992  -27.6457   24.2747 C   0  0  0  0  0  0  0  0  0  0  0  0
  -33.5330  -26.5677   23.4111 C   0  0  0  0  0  0  0  0  0  0  0  0
  -23.3252  -10.2308   22.2458 C   0  0  0  0  0  0  0  0  0  0  0  0
  -23.6118   -9.5467   19.9464 C   0  0  0  0  0  0  0  0  0  0  0  0
  -32.6120  -28.4603   24.5882 C   0  0  0  0  0  0  0  0  0  0  0  0
  -32.2792  -26.3031   22.8613 C   0  0  0  0  0  0  0  0  0  0  0  0
  -32.5084  -25.2663   17.9098 C   0  0  0  0  0  0  0  0  0  0  0  0
  -22.5864   -9.0748   22.4976 C   0  0  0  0  0  0  0  0  0  0  0  0
  -22.8730   -8.3907   20.1983 C   0  0  0  0  0  0  0  0  0  0  0  0
  -32.9298  -23.9881   17.5458 C   0  0  0  0  0  0  0  0  0  0  0  0
  -19.4379   -7.9663   21.9657 C   0  0  0  0  0  0  0  0  0  0  0  0
  -18.2571   -8.0990   22.6962 C   0  0  0  0  0  0  0  0  0  0  0  0
  -30.6332  -23.3363   17.1991 C   0  0  0  0  0  0  0  0  0  0  0  0
  -19.1356   -6.6127   24.3863 C   0  0  0  0  0  0  0  0  0  0  0  0
  -23.8379  -10.4668   20.9701 C   0  0  0  0  0  0  0  0  0  0  0  0
  -24.1679  -12.9934   20.8478 C   0  0  0  0  0  0  0  0  0  0  0  0
  -31.3464  -28.2113   24.0344 C   0  0  0  0  0  0  0  0  0  0  0  0
  -31.1433  -25.5864   17.9318 C   0  0  0  0  0  0  0  0  0  0  0  0
  -31.1737  -27.1144   23.1688 C   0  0  0  0  0  0  0  0  0  0  0  0
  -30.1973  -24.6200   17.5614 C   0  0  0  0  0  0  0  0  0  0  0  0
  -22.3603   -8.1547   21.4739 C   0  0  0  0  0  0  0  0  0  0  0  0
  -31.9920  -23.0221   17.1931 C   0  0  0  0  0  0  0  0  0  0  0  0
  -20.4676   -7.1567   22.4454 C   0  0  0  0  0  0  0  0  0  0  0  0
  -18.1060   -7.4223   23.9065 C   0  0  0  0  0  0  0  0  0  0  0  0
  -20.3164   -6.4799   23.6557 C   0  0  0  0  0  0  0  0  0  0  0  0
  -24.6007  -11.6610   20.7092 C   0  0  0  0  0  0  0  0  0  0  0  0
  -25.2555  -13.7476   20.4804 C   0  0  0  0  0  0  0  0  0  0  0  0
  -30.4641  -19.1745   23.0835 C   0  0  0  0  0  0  0  0  0  0  0  0
  -22.8966  -13.5036   21.2708 C   0  0  0  0  0  0  0  0  0  0  0  0
  -29.0909  -26.5061   20.1780 C   0  0  0  0  0  0  0  0  0  0  0  0
  -27.0769  -26.8297   17.6559 C   0  0  0  0  0  0  0  0  0  0  0  0
  -26.2582  -25.9283   14.4677 C   0  0  0  0  0  0  0  0  0  0  0  0
  -30.7352  -14.7914   20.6496 C   0  0  0  0  0  0  0  0  0  0  0  0
  -30.1906  -29.0913   24.4400 C   0  0  0  0  0  0  0  0  0  0  0  0
  -30.7066  -26.9776   18.3011 C   0  0  0  0  0  0  0  0  0  0  0  0
  -28.7212  -24.9191   17.5491 C   0  0  0  0  0  0  0  0  0  0  0  0
  -28.9781  -28.9664   23.5211 C   0  0  0  0  0  0  0  0  0  0  0  0
  -29.6002  -12.4007   18.2678 C   0  0  0  0  0  0  0  0  0  0  0  0
  -28.6654  -27.4989   23.2465 C   0  0  0  0  0  0  0  0  0  0  0  0
  -28.1656  -12.1007   18.7058 C   0  0  0  0  0  0  0  0  0  0  0  0
  -31.0908  -17.7394   20.5979 C   0  0  0  0  0  0  0  0  0  0  0  0
  -30.5204  -12.6262   19.4654 C   0  0  0  0  0  0  0  0  0  0  0  0
  -28.6201  -13.3494   20.8582 C   0  0  0  0  0  0  0  0  0  0  0  0
  -33.3278  -19.0603   20.6764 C   0  0  0  0  0  0  0  0  0  0  0  0
  -29.8347  -26.8097   22.5329 C   0  0  1  0  0  0  0  0  0  0  0  0
  -29.2611  -27.0415   18.7845 C   0  0  1  0  0  0  0  0  0  0  0  0
  -27.6427  -13.1698   19.6840 C   0  0  2  0  0  0  0  0  0  0  0  0
  -31.1013  -19.9654   21.9144 C   0  0  0  0  0  0  0  0  0  0  0  0
  -29.8764  -17.7670   22.8449 C   0  0  0  0  0  0  0  0  0  0  0  0
  -31.8002  -19.0516   20.8788 C   0  0  2  0  0  0  0  0  0  0  0  0
  -30.7955  -16.9429   21.8852 C   0  0  2  0  0  0  0  0  0  0  0  0
  -29.9854  -20.7804   21.2285 C   0  0  0  0  0  0  0  0  0  0  0  0
  -32.0789  -20.9796   22.5616 C   0  0  0  0  0  0  0  0  0  0  0  0
  -28.4395  -17.9418   22.3036 C   0  0  0  0  0  0  0  0  0  0  0  0
  -29.7377  -17.0676   24.2231 C   0  0  0  0  0  0  0  0  0  0  0  0
  -32.1319  -16.5413   22.5513 C   0  0  0  0  0  0  0  0  0  0  0  0
  -24.5366  -26.3315   12.6871 C   0  0  0  0  0  0  0  0  0  0  0  0
  -25.1076  -25.0496   19.1603 C   0  0  0  0  0  0  0  0  0  0  0  0
  -23.8729  -24.7156   17.0080 C   0  0  0  0  0  0  0  0  0  0  0  0
  -24.0674  -27.0001   17.9908 C   0  0  0  0  0  0  0  0  0  0  0  0
  -28.2799  -27.0056   12.5940 C   0  0  0  0  0  0  0  0  0  0  0  0
  -33.5311  -19.7721   17.5366 C   0  0  0  0  0  0  0  0  0  0  0  0
  -32.3560  -19.2727   18.3635 C   0  0  0  0  0  0  0  0  0  0  0  0
  -33.6047  -21.2904   17.4303 C   0  0  0  0  0  0  0  0  0  1  0  0
  -26.1014  -25.9241   16.9436 C   0  0  1  0  0  0  0  0  0  0  0  0
  -25.8833  -26.7561   13.2517 C   0  0  2  0  0  0  0  0  0  0  0  0
  -24.8149  -25.6658   17.7777 C   0  0  0  0  0  0  0  0  0  0  0  0
  -25.8646  -11.5706   20.2867 N   0  0  0  0  0  0  0  0  0  0  0  0
  -26.2352  -12.8558   20.1565 N   0  0  0  0  0  0  0  0  0  0  0  0
  -28.3436  -26.2919   17.9240 N   0  0  0  0  0  0  0  0  0  0  0  0
  -29.9682  -13.6527   20.3528 N   0  0  0  0  0  0  0  0  0  0  0  0
  -25.4596  -15.0800   20.4061 N   0  0  0  0  0  0  0  0  0  0  0  0
  -21.9132  -13.7359   20.2996 N   0  0  0  0  0  0  0  0  0  0  0  0
  -29.8486  -27.1621   21.1293 N   0  0  0  0  0  0  0  0  0  0  0  0
  -25.8566  -26.5324   15.6404 N   0  0  0  0  0  0  0  0  0  0  0  0
  -30.1347  -15.7179   21.4932 N   0  0  0  0  0  0  0  0  0  0  0  0
  -32.4591  -19.7468   19.7450 N   0  3  2  0  0  0  0  0  0  0  0  0
  -26.9106  -26.6016   12.1832 N   0  3  0  0  0  0  0  0  0  0  0  0
  -30.3303  -19.7116   24.1905 O   0  0  0  0  0  0  0  0  0  0  0  0
  -22.6458  -13.7619   22.4724 O   0  0  0  0  0  0  0  0  0  0  0  0
  -28.3274  -25.5681   20.3758 O   0  0  0  0  0  0  0  0  0  0  0  0
  -26.7301  -27.9746   17.9567 O   0  0  0  0  0  0  0  0  0  0  0  0
  -26.8452  -24.8516   14.3854 O   0  0  0  0  0  0  0  0  0  0  0  0
  -31.8688  -14.9718   20.1920 O   0  0  0  0  0  0  0  0  0  0  0  0
  -21.6396   -7.0265   21.7193 O   0  0  0  0  0  0  0  0  0  0  0  0
  -32.4034  -21.7648   16.8355 O   0  0  0  0  0  0  0  0  0  1  0  0
  -16.9726   -7.5511   24.6087 F   0  0  0  0  0  0  0  0  0  0  0  0
  -21.3026   -5.7017   24.1222 F   0  0  0  0  0  0  0  0  0  0  0  0
  1  2  1  0  0  0  0
  1  5  2  0  0  0  0
  2  6  2  0  0  0  0
  3  8  2  0  0  0  0
  3 15  1  0  0  0  0
  4  9  1  0  0  0  0
  4 15  2  0  0  0  0
  5 17  1  0  0  0  0
  6 19  1  0  0  0  0
  7 10  2  0  0  0  0
  7 18  1  0  0  0  0
  8 21  1  0  0  0  0
  9 21  2  0  0  0  0
 10 22  1  0  0  0  0
 11 12  2  0  0  0  0
 11 23  1  0  0  0  0
 12 24  1  0  0  0  0
 13 20  1  0  0  0  0
 13 22  2  0  0  0  0
 14 24  2  0  0  0  0
 14 25  1  0  0  0  0
 15 26  1  0  0  0  0
 16 26  1  0  0  0  0
 16 27  2  0  0  0  0
 16 29  1  0  0  0  0
 17 19  2  0  0  0  0
 17 34  1  0  0  0  0
 18 20  2  0  0  0  0
 18 35  1  0  0  0  0
 19 45  1  0  0  0  0
 20 36  1  0  0  0  0
 21 85  1  0  0  0  0
 22 86  1  0  0  0  0
 23 25  2  0  0  0  0
 23 85  1  0  0  0  0
 24 87  1  0  0  0  0
 25 88  1  0  0  0  0
 26 68  2  0  0  0  0
 27 69  1  0  0  0  0
 27 72  1  0  0  0  0
 28 48  1  0  0  0  0
 28 49  1  0  0  0  0
 28 79  2  0  0  0  0
 29 73  1  0  0  0  0
 29 80  2  0  0  0  0
 30 46  1  0  0  0  0
 30 74  1  0  0  0  0
 30 81  2  0  0  0  0
 31 65  1  0  0  0  0
 31 70  1  0  0  0  0
 31 82  2  0  0  0  0
 32 66  1  0  0  0  0
 32 75  1  0  0  0  0
 32 83  2  0  0  0  0
 33 71  1  0  0  0  0
 33 76  1  0  0  0  0
 33 84  2  0  0  0  0
 34 37  1  0  0  0  0
 35 46  1  0  0  0  0
 36 70  1  0  0  0  0
 37 39  1  0  0  0  0
 38 40  1  0  0  0  0
 38 42  1  0  0  0  0
 39 45  1  0  0  0  0
 40 47  1  0  0  0  0
 41 50  1  0  0  0  0
 41 51  1  0  0  0  0
 42 71  1  0  0  0  0
 43 47  1  0  0  0  0
 43 71  1  0  0  0  0
 44 50  1  0  0  0  0
 44 77  1  0  0  0  0
 45 74  1  0  0  0  0
 46 70  1  0  0  0  0
 47 69  1  0  0  0  0
 48 50  1  0  0  0  0
 48 52  1  0  0  0  0
 48 53  1  0  0  0  0
 49 51  1  0  0  0  0
 49 54  1  0  0  0  0
 49 55  1  0  0  0  0
 50 77  1  0  0  0  0
 51 56  1  0  0  0  0
 51 76  1  0  0  0  0
 57 66  1  0  0  0  0
 58 67  1  0  0  0  0
 59 67  1  0  0  0  0
 60 67  1  0  0  0  0
 61 78  1  0  0  0  0
 62 63  1  0  0  0  0
 62 64  1  0  0  0  0
 63 77  1  0  0  0  0
 64 86  1  0  0  0  0
 65 67  1  0  0  0  0
 65 75  1  0  0  0  0
 66 78  1  0  0  0  0
 68 69  1  0  0  0  0
M  CHG  2  77   1  78   1
M  ISO  4  33 100  64 101  76 100  86 101
M  END
> <Batch ID>
0171

> <Smiles>
CNC(C)C(=O)NC(C(=O)N1Cc2cc([101O:1][101CH2:1]CCN3CC34CC(C)([100NH:0][100C:0](=O)N3CCCC(n5nc(-c6ccc(Oc7ccc(F)cc7F)cc6)c(C(N)=O)c5N)C3)C(C)(C)C(=O)C4(C)C)ccc2CC1C(=O)NC1CCCc2ccccc21)C(C)(C)C

> <Shape>
0.232

> <Color>
0.154

> <Negative vol penalty>
0.000

$$$$

  -OEChem-04052322373D

 91101  0     1  0  0  0  0  0999 V2000
  -26.3173  -38.0857   22.5885 C   0  0  0  0  0  0  0  0  0  0  0  0
  -26.9961  -37.1570   21.8061 C   0  0  0  0  0  0  0  0  0  0  0  0
  -26.3721  -10.3746   23.0608 C   0  0  0  0  0  0  0  0  0  0  0  0
  -25.4277   -9.0770   21.2550 C   0  0  0  0  0  0  0  0  0  0  0  0
  -25.5868  -37.6603   23.6972 C   0  0  0  0  0  0  0  0  0  0  0  0
  -26.9456  -35.8023   22.1326 C   0  0  0  0  0  0  0  0  0  0  0  0
  -26.9609  -29.3202   19.0832 C   0  0  0  0  0  0  0  0  0  0  0  0
  -25.9254   -9.4235   23.9780 C   0  0  0  0  0  0  0  0  0  0  0  0
  -24.9809   -8.1257   22.1722 C   0  0  0  0  0  0  0  0  0  0  0  0
  -27.6290  -28.0986   19.1532 C   0  0  0  0  0  0  0  0  0  0  0  0
  -22.4236   -7.7796   24.3565 C   0  0  0  0  0  0  0  0  0  0  0  0
  -21.1205   -7.3034   24.2134 C   0  0  0  0  0  0  0  0  0  0  0  0
  -26.2706  -27.4708   21.0452 C   0  0  0  0  0  0  0  0  0  0  0  0
  -21.9715   -5.0603   23.9283 C   0  0  0  0  0  0  0  0  0  0  0  0
  -26.1232  -10.2014   21.6993 C   0  0  0  0  0  0  0  0  0  0  0  0
  -27.8242  -11.2070   20.0859 C   0  0  0  0  0  0  0  0  0  0  0  0
  -25.5194  -36.2986   24.0319 C   0  0  0  0  0  0  0  0  0  0  0  0
  -25.9482  -29.6313   20.0020 C   0  0  0  0  0  0  0  0  0  0  0  0
  -26.2146  -35.3584   23.2477 C   0  0  0  0  0  0  0  0  0  0  0  0
  -25.5893  -28.6960   20.9831 C   0  0  0  0  0  0  0  0  0  0  0  0
  -30.1018  -22.5016   21.2874 C   0  0  0  0  0  0  0  0  0  0  0  0
  -29.0143  -21.8024   20.7045 C   0  0  0  0  0  0  0  0  0  0  0  0
  -25.2298   -8.2990   23.5337 C   0  0  0  0  0  0  0  0  0  0  0  0
  -27.2859  -27.1748   20.1361 C   0  0  0  0  0  0  0  0  0  0  0  0
  -23.5008   -6.8962   24.2854 C   0  0  0  0  0  0  0  0  0  0  0  0
  -20.8944   -5.9437   23.9994 C   0  0  0  0  0  0  0  0  0  0  0  0
  -23.2747   -5.5366   24.0714 C   0  0  0  0  0  0  0  0  0  0  0  0
  -26.5839  -11.1840   20.7514 C   0  0  0  0  0  0  0  0  0  0  0  0
  -29.6638  -23.7882   21.5272 C   0  0  0  0  0  0  0  0  0  0  0  0
  -27.9519  -22.6800   20.6300 C   0  0  0  0  0  0  0  0  0  0  0  0
  -27.7725  -12.3337   19.3022 C   0  0  0  0  0  0  0  0  0  0  0  0
  -28.9247  -10.2917   20.1687 C   0  0  0  0  0  0  0  0  0  0  0  0
  -25.5406  -31.8747   22.2167 C   0  0  0  0  0  0  0  0  0  0  0  0
  -22.5871  -30.5545   22.4532 C   0  0  0  0  0  0  0  0  0  0  0  0
  -20.5891  -27.8250   22.0012 C   0  0  0  0  0  0  0  0  0  0  0  0
  -26.5413  -17.6024   18.4380 C   0  0  0  0  0  0  0  0  0  0  0  0
  -24.7558  -35.8917   25.2672 C   0  0  0  0  0  0  0  0  0  0  0  0
  -25.2188  -30.9425   19.8965 C   0  0  0  0  0  0  0  0  0  0  0  0
  -24.4955  -28.9733   21.9807 C   0  0  0  0  0  0  0  0  0  0  0  0
  -30.4689  -24.8772   22.1222 C   0  0  0  0  0  0  0  0  0  0  0  0
  -24.4459  -34.3981   25.3273 C   0  0  0  0  0  0  0  0  0  0  0  0
  -23.9114  -15.3782   18.1471 C   0  0  0  0  0  0  0  0  0  0  0  0
  -25.6870  -33.5812   24.9823 C   0  0  0  0  0  0  0  0  0  0  0  0
  -24.4637  -14.0827   18.7411 C   0  0  0  0  0  0  0  0  0  0  0  0
  -27.9848  -19.5069   21.0084 C   0  0  0  0  0  0  0  0  0  0  0  0
  -28.7272  -20.2654   18.7099 C   0  0  0  0  0  0  0  0  0  0  0  0
  -24.3474  -16.5851   18.9697 C   0  0  0  0  0  0  0  0  0  0  0  0
  -27.9460  -18.0644   20.4957 C   0  0  0  0  0  0  0  0  0  0  0  0
  -28.6965  -18.8075   18.2603 C   0  0  0  0  0  0  0  0  0  0  0  0
  -26.3959  -15.4180   19.7179 C   0  0  0  0  0  0  0  0  0  0  0  0
  -32.1807  -23.0601   22.5787 C   0  0  0  0  0  0  0  0  0  0  0  0
  -28.9938  -20.3639   20.2229 C   0  0  0  0  0  0  0  0  0  0  0  0
  -31.5072  -22.0738   21.5914 C   0  0  1  0  0  0  0  0  0  0  0  0
  -26.1635  -33.8775   23.5552 C   0  0  1  0  0  0  0  0  0  0  0  0
  -24.5552  -31.3640   21.2039 C   0  0  1  0  0  0  0  0  0  0  0  0
  -25.9903  -14.1627   18.9190 C   0  0  1  0  0  0  0  0  0  0  0  0
  -26.5822  -22.4729   20.1118 C   0  0  0  0  0  0  0  0  0  0  0  0
  -31.5855  -20.6557   22.1559 C   0  0  0  0  0  0  0  0  0  0  0  0
  -18.2281  -27.0371   22.3218 C   0  0  0  0  0  0  0  0  0  0  0  0
  -34.2190  -25.3718   22.4641 C   0  0  0  0  0  0  0  0  0  0  0  0
  -32.6054  -25.1646   24.3949 C   0  0  0  0  0  0  0  0  0  0  0  0
  -23.0922  -30.2674   25.4486 C   0  0  0  0  0  0  0  0  0  0  0  0
  -21.1754  -28.6598   25.5470 C   0  0  0  0  0  0  0  0  0  0  0  0
  -20.7849  -31.0221   24.8473 C   0  0  0  0  0  0  0  0  0  0  0  0
  -20.2355  -27.3371   19.1036 C   0  0  0  0  0  0  0  0  0  0  0  0
  -27.5383  -25.0755   21.2393 C   0  0  0  0  0  0  0  0  0  1  0  0
  -21.9752  -29.4433   23.2716 C   0  0  1  0  0  0  0  0  0  0  0  0
  -19.2209  -27.6730   21.3612 C   0  0  2  0  0  0  0  0  0  0  0  0
  -32.7717  -25.4792   22.9169 C   0  0  0  0  0  0  0  0  0  0  0  0
  -21.7789  -29.8434   24.7612 C   0  0  0  0  0  0  0  0  0  0  0  0
  -25.8014  -12.2143   20.4195 N   0  0  0  0  0  0  0  0  0  0  0  0
  -28.3591  -23.8884   21.1372 N   0  0  0  0  0  0  0  0  0  0  0  0
  -26.5520  -12.8954   19.5370 N   0  0  0  0  0  0  0  0  0  0  0  0
  -23.8160  -30.2718   21.8403 N   0  0  0  0  0  0  0  0  0  0  0  0
  -25.8021  -16.6235   19.1190 N   0  0  0  0  0  0  0  0  0  0  0  0
  -27.7311  -18.0356   19.0423 N   0  0  0  0  0  0  0  0  0  0  0  0
  -28.6524  -12.8890   18.4420 N   0  0  0  0  0  0  0  0  0  0  0  0
  -28.8116   -9.1864   21.0231 N   0  0  0  0  0  0  0  0  0  0  0  0
  -25.3324  -33.1883   22.5915 N   0  0  0  0  0  0  0  0  0  0  0  0
  -20.7438  -29.0632   22.5878 N   0  0  0  0  0  0  0  0  0  0  0  0
  -31.9516  -24.5003   22.1263 N   0  3  2  0  0  0  0  0  0  0  0  0
  -19.3106  -26.8180   20.1439 N   0  3  0  0  0  0  0  0  0  0  0  0
  -29.9836  -10.4582   19.5172 O   0  0  0  0  0  0  0  0  0  0  0  0
  -26.4236  -31.1316   22.6287 O   0  0  0  0  0  0  0  0  0  0  0  0
  -21.9930  -31.6311   22.3552 O   0  0  0  0  0  0  0  0  0  0  0  0
  -21.4344  -26.9330   21.9858 O   0  0  0  0  0  0  0  0  0  0  0  0
  -26.1618  -18.0621   17.3537 O   0  0  0  0  0  0  0  0  0  0  0  0
  -24.7940   -7.3705   24.4284 O   0  0  0  0  0  0  0  0  0  0  0  0
  -27.9412  -25.9742   20.2075 O   0  0  0  0  0  0  0  0  0  1  0  0
  -19.6428   -5.4863   23.8636 F   0  0  0  0  0  0  0  0  0  0  0  0
  -24.3054   -4.6829   24.0033 F   0  0  0  0  0  0  0  0  0  0  0  0
  1  2  1  0  0  0  0
  1  5  2  0  0  0  0
  2  6  2  0  0  0  0
  3  8  2  0  0  0  0
  3 15  1  0  0  0  0
  4  9  1  0  0  0  0
  4 15  2  0  0  0  0
  5 17  1  0  0  0  0
  6 19  1  0  0  0  0
  7 10  2  0  0  0  0
  7 18  1  0  0  0  0
  8 23  1  0  0  0  0
  9 23  2  0  0  0  0
 10 24  1  0  0  0  0
 11 12  2  0  0  0  0
 11 25  1  0  0  0  0
 12 26  1  0  0  0  0
 13 20  1  0  0  0  0
 13 24  2  0  0  0  0
 14 26  2  0  0  0  0
 14 27  1  0  0  0  0
 15 28  1  0  0  0  0
 16 28  1  0  0  0  0
 16 31  2  0  0  0  0
 16 32  1  0  0  0  0
 17 19  2  0  0  0  0
 17 37  1  0  0  0  0
 18 20  2  0  0  0  0
 18 38  1  0  0  0  0
 19 54  1  0  0  0  0
 20 39  1  0  0  0  0
 21 22  1  0  0  0  0
 21 29  2  0  0  0  0
 21 53  1  0  0  0  0
 22 30  2  0  0  0  0
 22 52  1  0  0  0  0
 23 88  1  0  0  0  0
 24 89  1  0  0  0  0
 25 27  2  0  0  0  0
 25 88  1  0  0  0  0
 26 90  1  0  0  0  0
 27 91  1  0  0  0  0
 28 71  2  0  0  0  0
 29 40  1  0  0  0  0
 29 72  1  0  0  0  0
 30 57  1  0  0  0  0
 30 72  1  0  0  0  0
 31 73  1  0  0  0  0
 31 77  1  0  0  0  0
 32 78  1  0  0  0  0
 32 83  2  0  0  0  0
 33 55  1  0  0  0  0
 33 79  1  0  0  0  0
 33 84  2  0  0  0  0
 34 67  1  0  0  0  0
 34 74  1  0  0  0  0
 34 85  2  0  0  0  0
 35 68  1  0  0  0  0
 35 80  1  0  0  0  0
 35 86  2  0  0  0  0
 36 75  1  0  0  0  0
 36 76  1  0  0  0  0
 36 87  2  0  0  0  0
 37 41  1  0  0  0  0
 38 55  1  0  0  0  0
 39 74  1  0  0  0  0
 40 81  1  0  0  0  0
 41 43  1  0  0  0  0
 42 44  1  0  0  0  0
 42 47  1  0  0  0  0
 43 54  1  0  0  0  0
 44 56  1  0  0  0  0
 45 48  1  0  0  0  0
 45 52  1  0  0  0  0
 46 49  1  0  0  0  0
 46 52  1  0  0  0  0
 47 75  1  0  0  0  0
 48 76  1  0  0  0  0
 49 76  1  0  0  0  0
 50 56  1  0  0  0  0
 50 75  1  0  0  0  0
 51 53  1  0  0  0  0
 51 81  1  0  0  0  0
 53 58  1  0  0  0  0
 54 79  1  0  0  0  0
 55 74  1  0  0  0  0
 56 73  1  0  0  0  0
 59 68  1  0  0  0  0
 60 69  1  0  0  0  0
 61 69  1  0  0  0  0
 62 70  1  0  0  0  0
 63 70  1  0  0  0  0
 64 70  1  0  0  0  0
 65 82  1  0  0  0  0
 66 72  1  0  0  0  0
 66 89  1  0  0  0  0
 67 70  1  0  0  0  0
 67 80  1  0  0  0  0
 68 82  1  0  0  0  0
 69 81  1  0  0  0  0
 71 73  1  0  0  0  0
M  CHG  2  81   1  82   1
M  ISO  4  36 100  66 101  76 100  89 101
M  END
> <Batch ID>
0171

> <Smiles>
CNC(C)C(=O)NC(C(=O)N1Cc2cc([101O:1][101CH2:1]n3c(C)c(C4CC[100N:0]([100C:0](=O)N5CCCC(n6nc(-c7ccc(Oc8ccc(F)cc8F)cc7)c(C(N)=O)c6N)C5)CC4)c4c3CN(C(C)C)CC4C)ccc2CC1C(=O)NC1CCCc2ccccc21)C(C)(C)C

> <Shape>
0.310

> <Color>
0.066

> <Negative vol penalty>
0.000

$$$$

  -OEChem-04052322373D

 88 98  0     1  0  0  0  0  0999 V2000
  -31.0167  -35.7410   24.0899 C   0  0  0  0  0  0  0  0  0  0  0  0
  -30.9943  -34.8273   23.0410 C   0  0  0  0  0  0  0  0  0  0  0  0
  -22.9030  -10.0920   20.7955 C   0  0  0  0  0  0  0  0  0  0  0  0
  -24.5637   -8.8672   22.0521 C   0  0  0  0  0  0  0  0  0  0  0  0
  -30.2317  -35.5214   25.2210 C   0  0  0  0  0  0  0  0  0  0  0  0
  -30.1876  -33.6929   23.1231 C   0  0  0  0  0  0  0  0  0  0  0  0
  -26.3043  -29.2945   19.0132 C   0  0  0  0  0  0  0  0  0  0  0  0
  -22.1211   -8.9404   20.7065 C   0  0  0  0  0  0  0  0  0  0  0  0
  -23.7818   -7.7156   21.9631 C   0  0  0  0  0  0  0  0  0  0  0  0
  -26.1472  -27.9370   18.7372 C   0  0  0  0  0  0  0  0  0  0  0  0
  -21.0448   -6.4417   23.4818 C   0  0  0  0  0  0  0  0  0  0  0  0
  -20.8788   -5.6818   24.6396 C   0  0  0  0  0  0  0  0  0  0  0  0
  -24.7730  -27.7020   20.7058 C   0  0  0  0  0  0  0  0  0  0  0  0
  -24.9898  -21.1314   17.7374 C   0  0  0  0  0  0  0  0  0  0  0  0
  -21.8887   -3.7832   23.5384 C   0  0  0  0  0  0  0  0  0  0  0  0
  -24.1244  -10.0554   21.4683 C   0  0  0  0  0  0  0  0  0  0  0  0
  -24.8918  -12.2245   22.5700 C   0  0  0  0  0  0  0  0  0  0  0  0
  -29.4076  -34.3887   25.3129 C   0  0  0  0  0  0  0  0  0  0  0  0
  -25.7050  -29.8647   20.1455 C   0  0  0  0  0  0  0  0  0  0  0  0
  -29.3917  -33.4573   24.2571 C   0  0  0  0  0  0  0  0  0  0  0  0
  -24.9220  -29.0675   20.9926 C   0  0  0  0  0  0  0  0  0  0  0  0
  -24.6524  -23.4210   17.0440 C   0  0  0  0  0  0  0  0  0  0  0  0
  -24.3644  -22.0629   16.9087 C   0  0  0  0  0  0  0  0  0  0  0  0
  -25.5658  -23.8476   18.0081 C   0  0  0  0  0  0  0  0  0  0  0  0
  -26.1912  -22.9160   18.8368 C   0  0  0  0  0  0  0  0  0  0  0  0
  -25.9032  -21.5580   18.7015 C   0  0  0  0  0  0  0  0  0  0  0  0
  -22.5604   -7.7522   21.2902 C   0  0  0  0  0  0  0  0  0  0  0  0
  -25.3838  -27.1399   19.5851 C   0  0  0  0  0  0  0  0  0  0  0  0
  -21.6327   -5.8723   22.3522 C   0  0  0  0  0  0  0  0  0  0  0  0
  -21.3007   -4.3526   24.6680 C   0  0  0  0  0  0  0  0  0  0  0  0
  -22.0547   -4.5431   22.3805 C   0  0  0  0  0  0  0  0  0  0  0  0
  -24.9328  -11.2445   21.5602 C   0  0  0  0  0  0  0  0  0  0  0  0
  -25.8474  -13.1391   22.2000 C   0  0  0  0  0  0  0  0  0  0  0  0
  -24.0639  -12.3012   23.7381 C   0  0  0  0  0  0  0  0  0  0  0  0
  -26.7795  -31.3135   22.7628 C   0  0  0  0  0  0  0  0  0  0  0  0
  -23.6222  -31.8219   23.3060 C   0  0  0  0  0  0  0  0  0  0  0  0
  -20.3953  -30.8583   22.7533 C   0  0  0  0  0  0  0  0  0  0  0  0
  -28.0416  -16.2708   18.0461 C   0  0  0  0  0  0  0  0  0  0  0  0
  -28.6125  -34.1699   26.5757 C   0  0  0  0  0  0  0  0  0  0  0  0
  -25.8621  -31.3362   20.4146 C   0  0  0  0  0  0  0  0  0  0  0  0
  -24.2409  -29.6353   22.2100 C   0  0  0  0  0  0  0  0  0  0  0  0
  -27.5009  -33.1348   26.4239 C   0  0  0  0  0  0  0  0  0  0  0  0
  -29.4270  -12.9232   18.6354 C   0  0  0  0  0  0  0  0  0  0  0  0
  -23.2212  -25.5555   16.7813 C   0  0  0  0  0  0  0  0  0  0  0  0
  -22.4773  -24.4493   16.1007 C   0  0  0  0  0  0  0  0  0  0  0  0
  -28.0233  -31.8906   25.7127 C   0  0  0  0  0  0  0  0  0  0  0  0
  -28.3500  -12.2570   19.4929 C   0  0  0  0  0  0  0  0  0  0  0  0
  -26.7279  -18.4653   20.6871 C   0  0  0  0  0  0  0  0  0  0  0  0
  -28.8386  -13.9632   17.6848 C   0  0  0  0  0  0  0  0  0  0  0  0
  -26.8579  -17.0295   20.1895 C   0  0  0  0  0  0  0  0  0  0  0  0
  -26.9190  -14.3114   19.1906 C   0  0  0  0  0  0  0  0  0  0  0  0
  -27.0919  -18.5410   18.3386 C   0  0  0  0  0  0  0  0  0  0  0  0
  -23.9799  -24.4184   16.1545 C   0  0  0  0  0  0  0  0  0  0  0  0
  -28.5108  -32.2275   24.2983 C   0  0  1  0  0  0  0  0  0  0  0  0
  -25.6305  -31.7042   21.8769 C   0  0  1  0  0  0  0  0  0  0  0  0
  -27.4804  -13.3082   20.2077 C   0  0  1  0  0  0  0  0  0  0  0  0
  -26.2670  -19.2006   19.4334 C   0  0  2  0  0  0  0  0  0  0  0  0
  -23.3909  -21.5777   15.8846 C   0  0  0  0  0  0  0  0  0  0  0  0
  -27.1708  -23.3748   19.8713 C   0  0  0  0  0  0  0  0  0  0  0  0
  -18.0325  -31.4445   23.3625 C   0  0  0  0  0  0  0  0  0  0  0  0
  -24.0191  -30.5559   26.0537 C   0  0  0  0  0  0  0  0  0  0  0  0
  -21.5339  -30.3018   26.2185 C   0  0  0  0  0  0  0  0  0  0  0  0
  -22.5441  -32.5755   26.0388 C   0  0  0  0  0  0  0  0  0  0  0  0
  -19.6795  -31.3989   19.9330 C   0  0  0  0  0  0  0  0  0  0  0  0
  -25.8754  -25.3045   18.1548 C   0  0  0  0  0  0  0  0  0  1  0  0
  -22.5233  -31.0647   24.0117 C   0  0  1  0  0  0  0  0  0  0  0  0
  -19.1603  -31.6502   22.3633 C   0  0  2  0  0  0  0  0  0  0  0  0
  -22.6694  -31.1131   25.5589 C   0  0  0  0  0  0  0  0  0  0  0  0
  -25.8424  -11.5116   20.6192 N   0  0  0  0  0  0  0  0  0  0  0  0
  -26.3817  -12.6698   21.0362 N   0  0  0  0  0  0  0  0  0  0  0  0
  -24.4297  -31.0781   22.4340 N   0  0  0  0  0  0  0  0  0  0  0  0
  -28.0000  -14.9197   18.4076 N   0  0  0  0  0  0  0  0  0  0  0  0
  -27.2702  -17.1629   18.7898 N   0  0  0  0  0  0  0  0  0  0  0  0
  -26.2743  -14.2909   22.7599 N   0  0  0  0  0  0  0  0  0  0  0  0
  -23.1346  -11.2773   23.9668 N   0  0  0  0  0  0  0  0  0  0  0  0
  -26.5155  -20.6156   19.5166 N   0  0  0  0  0  0  0  0  0  0  0  0
  -27.3870  -32.3790   23.3991 N   0  0  0  0  0  0  0  0  0  0  0  0
  -21.2658  -31.6109   23.5129 N   0  0  0  0  0  0  0  0  0  0  0  0
  -18.6785  -31.2288   21.0175 N   0  3  0  0  0  0  0  0  0  0  0  0
  -24.1344  -13.2581   24.5462 O   0  0  0  0  0  0  0  0  0  0  0  0
  -27.0908  -30.1325   22.8628 O   0  0  0  0  0  0  0  0  0  0  0  0
  -23.7545  -33.0304   23.5152 O   0  0  0  0  0  0  0  0  0  0  0  0
  -20.5686  -29.6878   22.4208 O   0  0  0  0  0  0  0  0  0  0  0  0
  -28.7720  -16.6700   17.1295 O   0  0  0  0  0  0  0  0  0  0  0  0
  -21.7975   -6.6283   21.2037 O   0  0  0  0  0  0  0  0  0  0  0  0
  -25.2282  -25.8045   19.3164 O   0  0  0  0  0  0  0  0  0  1  0  0
  -21.1426   -3.6234   25.7804 F   0  0  0  0  0  0  0  0  0  0  0  0
  -22.6212   -3.9910   21.2989 F   0  0  0  0  0  0  0  0  0  0  0  0
  1  2  1  0  0  0  0
  1  5  2  0  0  0  0
  2  6  2  0  0  0  0
  3  8  2  0  0  0  0
  3 16  1  0  0  0  0
  4  9  1  0  0  0  0
  4 16  2  0  0  0  0
  5 18  1  0  0  0  0
  6 20  1  0  0  0  0
  7 10  2  0  0  0  0
  7 19  1  0  0  0  0
  8 27  1  0  0  0  0
  9 27  2  0  0  0  0
 10 28  1  0  0  0  0
 11 12  2  0  0  0  0
 11 29  1  0  0  0  0
 12 30  1  0  0  0  0
 13 21  1  0  0  0  0
 13 28  2  0  0  0  0
 14 23  2  0  0  0  0
 14 26  1  0  0  0  0
 15 30  2  0  0  0  0
 15 31  1  0  0  0  0
 16 32  1  0  0  0  0
 17 32  1  0  0  0  0
 17 33  2  0  0  0  0
 17 34  1  0  0  0  0
 18 20  2  0  0  0  0
 18 39  1  0  0  0  0
 19 21  2  0  0  0  0
 19 40  1  0  0  0  0
 20 54  1  0  0  0  0
 21 41  1  0  0  0  0
 22 23  1  0  0  0  0
 22 24  2  0  0  0  0
 22 53  1  0  0  0  0
 23 58  1  0  0  0  0
 24 25  1  0  0  0  0
 24 65  1  0  0  0  0
 25 26  2  0  0  0  0
 25 59  1  0  0  0  0
 26 76  1  0  0  0  0
 27 85  1  0  0  0  0
 28 86  1  0  0  0  0
 29 31  2  0  0  0  0
 29 85  1  0  0  0  0
 30 87  1  0  0  0  0
 31 88  1  0  0  0  0
 32 69  2  0  0  0  0
 33 70  1  0  0  0  0
 33 74  1  0  0  0  0
 34 75  1  0  0  0  0
 34 80  2  0  0  0  0
 35 55  1  0  0  0  0
 35 77  1  0  0  0  0
 35 81  2  0  0  0  0
 36 66  1  0  0  0  0
 36 71  1  0  0  0  0
 36 82  2  0  0  0  0
 37 67  1  0  0  0  0
 37 78  1  0  0  0  0
 37 83  2  0  0  0  0
 38 72  1  0  0  0  0
 38 73  1  0  0  0  0
 38 84  2  0  0  0  0
 39 42  1  0  0  0  0
 40 55  1  0  0  0  0
 41 71  1  0  0  0  0
 42 46  1  0  0  0  0
 43 47  1  0  0  0  0
 43 49  1  0  0  0  0
 44 45  1  0  0  0  0
 44 53  1  0  0  0  0
 45 53  1  0  0  0  0
 46 54  1  0  0  0  0
 47 56  1  0  0  0  0
 48 50  1  0  0  0  0
 48 57  1  0  0  0  0
 49 72  1  0  0  0  0
 50 73  1  0  0  0  0
 51 56  1  0  0  0  0
 51 72  1  0  0  0  0
 52 57  1  0  0  0  0
 52 73  1  0  0  0  0
 54 77  1  0  0  0  0
 55 71  1  0  0  0  0
 56 70  1  0  0  0  0
 57 76  1  0  0  0  0
 60 67  1  0  0  0  0
 61 68  1  0  0  0  0
 62 68  1  0  0  0  0
 63 68  1  0  0  0  0
 64 79  1  0  0  0  0
 65 86  1  0  0  0  0
 66 68  1  0  0  0  0
 66 78  1  0  0  0  0
 67 79  1  0  0  0  0
 69 70  1  0  0  0  0
M  CHG  1  79   1
M  ISO  4  38 100  65 101  73 100  86 101
M  END
> <Batch ID>
0171

> <Smiles>
CNC(C)C(=O)NC(C(=O)N1Cc2cc([101O:1][101CH2:1]c3c(C)c(NC4CC[100N:0]([100C:0](=O)N5CCCC(n6nc(-c7ccc(Oc8ccc(F)cc8F)cc7)c(C(N)=O)c6N)C5)C4)cc(C)c3C3CC3)ccc2CC1C(=O)NC1CCCc2ccccc21)C(C)(C)C

> <Shape>
0.257

> <Color>
0.119

> <Negative vol penalty>
0.000

$$$$

  -OEChem-04052322373D

 83 92  0     1  0  0  0  0  0999 V2000
  -30.4185  -32.8405   25.2607 C   0  0  0  0  0  0  0  0  0  0  0  0
  -29.8513  -31.6441   24.8338 C   0  0  0  0  0  0  0  0  0  0  0  0
  -23.9714   -9.1733   21.5417 C   0  0  0  0  0  0  0  0  0  0  0  0
  -25.1778  -10.1839   23.3749 C   0  0  0  0  0  0  0  0  0  0  0  0
  -29.6018  -33.9301   25.5602 C   0  0  0  0  0  0  0  0  0  0  0  0
  -28.4669  -31.5362   24.7071 C   0  0  0  0  0  0  0  0  0  0  0  0
  -27.0818  -29.2517   20.4051 C   0  0  0  0  0  0  0  0  0  0  0  0
  -27.4334  -23.0289   18.9802 C   0  0  0  0  0  0  0  0  0  0  0  0
  -23.6690   -8.0748   22.3463 C   0  0  0  0  0  0  0  0  0  0  0  0
  -24.8754   -9.0853   24.1795 C   0  0  0  0  0  0  0  0  0  0  0  0
  -27.1870  -27.8622   20.3596 C   0  0  0  0  0  0  0  0  0  0  0  0
  -21.4718   -7.3151   24.8016 C   0  0  0  0  0  0  0  0  0  0  0  0
  -20.1621   -6.8358   24.7787 C   0  0  0  0  0  0  0  0  0  0  0  0
  -27.3527  -21.6417   18.9335 C   0  0  0  0  0  0  0  0  0  0  0  0
  -24.8202  -27.6751   20.7872 C   0  0  0  0  0  0  0  0  0  0  0  0
  -20.9607   -4.6904   24.0062 C   0  0  0  0  0  0  0  0  0  0  0  0
  -24.7259  -10.2279   22.0560 C   0  0  0  0  0  0  0  0  0  0  0  0
  -24.1287  -12.2377   20.6028 C   0  0  0  0  0  0  0  0  0  0  0  0
  -28.2073  -33.8386   25.4278 C   0  0  0  0  0  0  0  0  0  0  0  0
  -25.8450  -29.8641   20.6532 C   0  0  0  0  0  0  0  0  0  0  0  0
  -27.6306  -32.6252   25.0063 C   0  0  0  0  0  0  0  0  0  0  0  0
  -24.7016  -29.0726   20.8328 C   0  0  0  0  0  0  0  0  0  0  0  0
  -27.3658  -23.6828   20.2055 C   0  0  0  0  0  0  0  0  0  0  0  0
  -24.1210   -8.0308   23.6652 C   0  0  0  0  0  0  0  0  0  0  0  0
  -26.0566  -27.0736   20.5535 C   0  0  0  0  0  0  0  0  0  0  0  0
  -22.5260   -6.4820   24.4267 C   0  0  0  0  0  0  0  0  0  0  0  0
  -19.9066   -5.5235   24.3811 C   0  0  0  0  0  0  0  0  0  0  0  0
  -22.2704   -5.1697   24.0291 C   0  0  0  0  0  0  0  0  0  0  0  0
  -25.0391  -11.3626   21.2252 C   0  0  0  0  0  0  0  0  0  0  0  0
  -27.2060  -20.9598   20.1307 C   0  0  0  0  0  0  0  0  0  0  0  0
  -27.2183  -22.9097   21.3458 C   0  0  0  0  0  0  0  0  0  0  0  0
  -24.9209  -13.1389   19.9346 C   0  0  0  0  0  0  0  0  0  0  0  0
  -22.6952  -12.2359   20.6267 C   0  0  0  0  0  0  0  0  0  0  0  0
  -24.6977  -31.7596   22.9323 C   0  0  0  0  0  0  0  0  0  0  0  0
  -22.1029  -31.8746   20.9891 C   0  0  0  0  0  0  0  0  0  0  0  0
  -20.2640  -30.3999   18.5211 C   0  0  0  0  0  0  0  0  0  0  0  0
  -29.3646  -16.5052   19.7970 C   0  0  0  0  0  0  0  0  0  0  0  0
  -27.3623  -35.0284   25.8085 C   0  0  0  0  0  0  0  0  0  0  0  0
  -25.7434  -31.3647   20.6726 C   0  0  0  0  0  0  0  0  0  0  0  0
  -23.3468  -29.6815   21.0822 C   0  0  0  0  0  0  0  0  0  0  0  0
  -25.9292  -34.9490   25.2889 C   0  0  0  0  0  0  0  0  0  0  0  0
  -29.8653  -13.1101   18.9572 C   0  0  0  0  0  0  0  0  0  0  0  0
  -25.3392  -33.5685   25.5589 C   0  0  0  0  0  0  0  0  0  0  0  0
  -28.6004  -12.4108   19.4474 C   0  0  0  0  0  0  0  0  0  0  0  0
  -27.0029  -18.7500   21.4816 C   0  0  0  0  0  0  0  0  0  0  0  0
  -30.2803  -14.2147   19.9198 C   0  0  0  0  0  0  0  0  0  0  0  0
  -27.3424  -17.3022   21.1534 C   0  0  0  0  0  0  0  0  0  0  0  0
  -28.3422  -18.7435   19.5208 C   0  0  0  0  0  0  0  0  0  0  0  0
  -27.9264  -14.5741   20.6128 C   0  0  0  0  0  0  0  0  0  0  0  0
  -26.1346  -32.4769   24.8327 C   0  0  1  0  0  0  0  0  0  0  0  0
  -27.1166  -19.4498   20.1175 C   0  0  2  0  0  0  0  0  0  0  0  0
  -24.5284  -31.8714   21.4435 C   0  0  1  0  0  0  0  0  0  0  0  0
  -27.4745  -13.4296   19.6823 C   0  0  2  0  0  0  0  0  0  0  0  0
  -27.1432  -23.5574   22.6895 C   0  0  0  0  0  0  0  0  0  0  0  0
  -18.1743  -30.7127   17.1673 C   0  0  0  0  0  0  0  0  0  0  0  0
  -20.4232  -31.0227   23.3896 C   0  0  0  0  0  0  0  0  0  0  0  0
  -18.5772  -30.4383   21.8024 C   0  0  0  0  0  0  0  0  0  0  0  0
  -19.3821  -32.7940   21.9637 C   0  0  0  0  0  0  0  0  0  0  0  0
  -21.7826  -30.4850   15.9823 C   0  0  0  0  0  0  0  0  0  0  0  0
  -27.4504  -25.1689   20.2618 C   0  0  0  0  0  0  0  0  0  1  0  0
  -20.8405  -31.0599   20.8420 C   0  0  1  0  0  0  0  0  0  0  0  0
  -19.6742  -30.9539   17.2367 C   0  0  2  0  0  0  0  0  0  0  0  0
  -19.8315  -31.3169   21.9967 C   0  0  0  0  0  0  0  0  0  0  0  0
  -26.3122  -11.6794   20.9745 N   0  0  0  0  0  0  0  0  0  0  0  0
  -27.1365  -21.5602   21.3400 N   0  0  0  0  0  0  0  0  0  0  0  0
  -26.2075  -12.7634   20.1871 N   0  0  0  0  0  0  0  0  0  0  0  0
  -23.3000  -31.1529   21.0983 N   0  0  0  0  0  0  0  0  0  0  0  0
  -29.1923  -15.1647   20.1592 N   0  0  0  0  0  0  0  0  0  0  0  0
  -28.3293  -17.3954   20.0796 N   0  0  0  0  0  0  0  0  0  0  0  0
  -24.6355  -14.2081   19.1613 N   0  0  0  0  0  0  0  0  0  0  0  0
  -22.0429  -12.9600   21.6340 N   0  0  0  0  0  0  0  0  0  0  0  0
  -25.7880  -32.4489   23.4279 N   0  0  0  0  0  0  0  0  0  0  0  0
  -20.3160  -31.3561   19.5132 N   0  0  0  0  0  0  0  0  0  0  0  0
  -20.3094  -30.3071   16.0538 N   0  3  0  0  0  0  0  0  0  0  0  0
  -22.0130  -11.5974   19.7897 O   0  0  0  0  0  0  0  0  0  0  0  0
  -23.8974  -31.0983   23.5834 O   0  0  0  0  0  0  0  0  0  0  0  0
  -22.0303  -33.1059   20.9992 O   0  0  0  0  0  0  0  0  0  0  0  0
  -20.6375  -29.2345   18.6342 O   0  0  0  0  0  0  0  0  0  0  0  0
  -30.4178  -16.9009   19.2793 O   0  0  0  0  0  0  0  0  0  0  0  0
  -23.8258   -6.9591   24.4507 O   0  0  0  0  0  0  0  0  0  0  0  0
  -26.1572  -25.7081   20.5100 O   0  0  0  0  0  0  0  0  0  1  0  0
  -18.6489   -5.0629   24.3607 F   0  0  0  0  0  0  0  0  0  0  0  0
  -23.2792   -4.3644   23.6690 F   0  0  0  0  0  0  0  0  0  0  0  0
  1  2  1  0  0  0  0
  1  5  2  0  0  0  0
  2  6  2  0  0  0  0
  3  9  2  0  0  0  0
  3 17  1  0  0  0  0
  4 10  1  0  0  0  0
  4 17  2  0  0  0  0
  5 19  1  0  0  0  0
  6 21  1  0  0  0  0
  7 11  2  0  0  0  0
  7 20  1  0  0  0  0
  8 14  2  0  0  0  0
  8 23  1  0  0  0  0
  9 24  1  0  0  0  0
 10 24  2  0  0  0  0
 11 25  1  0  0  0  0
 12 13  2  0  0  0  0
 12 26  1  0  0  0  0
 13 27  1  0  0  0  0
 14 30  1  0  0  0  0
 15 22  1  0  0  0  0
 15 25  2  0  0  0  0
 16 27  2  0  0  0  0
 16 28  1  0  0  0  0
 17 29  1  0  0  0  0
 18 29  1  0  0  0  0
 18 32  2  0  0  0  0
 18 33  1  0  0  0  0
 19 21  2  0  0  0  0
 19 38  1  0  0  0  0
 20 22  2  0  0  0  0
 20 39  1  0  0  0  0
 21 50  1  0  0  0  0
 22 40  1  0  0  0  0
 23 31  2  0  0  0  0
 23 60  1  0  0  0  0
 24 80  1  0  0  0  0
 25 81  1  0  0  0  0
 26 28  2  0  0  0  0
 26 80  1  0  0  0  0
 27 82  1  0  0  0  0
 28 83  1  0  0  0  0
 29 64  2  0  0  0  0
 30 51  1  0  0  0  0
 30 65  2  0  0  0  0
 31 54  1  0  0  0  0
 31 65  1  0  0  0  0
 32 66  1  0  0  0  0
 32 70  1  0  0  0  0
 33 71  1  0  0  0  0
 33 75  2  0  0  0  0
 34 52  1  0  0  0  0
 34 72  1  0  0  0  0
 34 76  2  0  0  0  0
 35 61  1  0  0  0  0
 35 67  1  0  0  0  0
 35 77  2  0  0  0  0
 36 62  1  0  0  0  0
 36 73  1  0  0  0  0
 36 78  2  0  0  0  0
 37 68  1  0  0  0  0
 37 69  1  0  0  0  0
 37 79  2  0  0  0  0
 38 41  1  0  0  0  0
 39 52  1  0  0  0  0
 40 67  1  0  0  0  0
 41 43  1  0  0  0  0
 42 44  1  0  0  0  0
 42 46  1  0  0  0  0
 43 50  1  0  0  0  0
 44 53  1  0  0  0  0
 45 47  1  0  0  0  0
 45 51  1  0  0  0  0
 46 68  1  0  0  0  0
 47 69  1  0  0  0  0
 48 51  1  0  0  0  0
 48 69  1  0  0  0  0
 49 53  1  0  0  0  0
 49 68  1  0  0  0  0
 50 72  1  0  0  0  0
 52 67  1  0  0  0  0
 53 66  1  0  0  0  0
 55 62  1  0  0  0  0
 56 63  1  0  0  0  0
 57 63  1  0  0  0  0
 58 63  1  0  0  0  0
 59 74  1  0  0  0  0
 60 81  1  0  0  0  0
 61 63  1  0  0  0  0
 61 73  1  0  0  0  0
 62 74  1  0  0  0  0
 64 66  1  0  0  0  0
M  CHG  1  74   1
M  ISO  4  37 100  60 101  69 100  81 101
M  END
> <Batch ID>
0171

> <Smiles>
CNC(C)C(=O)NC(C(=O)N1Cc2cc([101O:1][101CH2:1]c3ccc(C4CC[100N:0]([100C:0](=O)N5CCCC(n6nc(-c7ccc(Oc8ccc(F)cc8F)cc7)c(C(N)=O)c6N)C5)C4)nc3C)ccc2CC1C(=O)NC1CCCc2ccccc21)C(C)(C)C

> <Shape>
0.292

> <Color>
0.109

> <Negative vol penalty>
0.000

$$$$

  -OEChem-04052322373D

 85 93  0     1  0  0  0  0  0999 V2000
  -25.0290  -33.2592   22.9515 C   0  0  0  0  0  0  0  0  0  0  0  0
  -25.0365  -32.2571   23.9165 C   0  0  0  0  0  0  0  0  0  0  0  0
  -22.6563  -10.2585   20.2395 C   0  0  0  0  0  0  0  0  0  0  0  0
  -24.3744   -9.4460   21.7311 C   0  0  0  0  0  0  0  0  0  0  0  0
  -25.0333  -32.9225   21.5985 C   0  0  0  0  0  0  0  0  0  0  0  0
  -25.0471  -30.9177   23.5290 C   0  0  0  0  0  0  0  0  0  0  0  0
  -30.3540  -26.5034   25.5887 C   0  0  0  0  0  0  0  0  0  0  0  0
  -21.9498   -9.0672   20.4042 C   0  0  0  0  0  0  0  0  0  0  0  0
  -23.6679   -8.2547   21.8959 C   0  0  0  0  0  0  0  0  0  0  0  0
  -31.2212  -25.5458   26.1152 C   0  0  0  0  0  0  0  0  0  0  0  0
  -19.9135   -7.6785   22.7188 C   0  0  0  0  0  0  0  0  0  0  0  0
  -18.5386   -7.7651   22.9375 C   0  0  0  0  0  0  0  0  0  0  0  0
  -30.1572  -23.8329   24.7802 C   0  0  0  0  0  0  0  0  0  0  0  0
  -18.1388   -6.4715   20.9365 C   0  0  0  0  0  0  0  0  0  0  0  0
  -23.8686  -10.4480   20.9029 C   0  0  0  0  0  0  0  0  0  0  0  0
  -24.1576  -12.9788   21.0413 C   0  0  0  0  0  0  0  0  0  0  0  0
  -25.0537  -31.5784   21.1942 C   0  0  0  0  0  0  0  0  0  0  0  0
  -29.3941  -26.1317   24.6433 C   0  0  0  0  0  0  0  0  0  0  0  0
  -25.0503  -30.5627   22.1693 C   0  0  0  0  0  0  0  0  0  0  0  0
  -29.2941  -24.7900   24.2401 C   0  0  0  0  0  0  0  0  0  0  0  0
  -22.4556   -8.0653   21.2324 C   0  0  0  0  0  0  0  0  0  0  0  0
  -31.1228  -24.2138   25.7121 C   0  0  0  0  0  0  0  0  0  0  0  0
  -20.4010   -6.9885   21.6089 C   0  0  0  0  0  0  0  0  0  0  0  0
  -17.6513   -7.1616   22.0464 C   0  0  0  0  0  0  0  0  0  0  0  0
  -19.5137   -6.3850   20.7178 C   0  0  0  0  0  0  0  0  0  0  0  0
  -24.5992  -11.6782   20.7326 C   0  0  0  0  0  0  0  0  0  0  0  0
  -25.2119  -13.7896   20.6987 C   0  0  0  0  0  0  0  0  0  0  0  0
  -22.9063  -13.4149   21.5889 C   0  0  0  0  0  0  0  0  0  0  0  0
  -26.5932  -27.2127   22.3933 C   0  0  0  0  0  0  0  0  0  0  0  0
  -28.2675  -25.1810   20.8188 C   0  0  0  0  0  0  0  0  0  0  0  0
  -30.3998  -17.0063   23.5892 C   0  0  0  0  0  0  0  0  0  0  0  0
  -29.8629  -23.3712   18.4070 C   0  0  0  0  0  0  0  0  0  0  0  0
  -30.6779  -14.9154   20.6732 C   0  0  0  0  0  0  0  0  0  0  0  0
  -25.0100  -31.2630   19.7200 C   0  0  0  0  0  0  0  0  0  0  0  0
  -28.3989  -27.1183   24.0954 C   0  0  0  0  0  0  0  0  0  0  0  0
  -28.2235  -24.4298   23.2466 C   0  0  0  0  0  0  0  0  0  0  0  0
  -25.3999  -29.8237   19.3932 C   0  0  0  0  0  0  0  0  0  0  0  0
  -29.4382  -12.7775   18.1102 C   0  0  0  0  0  0  0  0  0  0  0  0
  -24.6874  -28.8521   20.3287 C   0  0  0  0  0  0  0  0  0  0  0  0
  -28.0355  -12.4036   18.5925 C   0  0  0  0  0  0  0  0  0  0  0  0
  -31.2780  -19.0649   26.3669 C   0  0  0  0  0  0  0  0  0  0  0  0
  -30.4234  -12.8887   19.2717 C   0  0  0  0  0  0  0  0  0  0  0  0
  -31.0635  -17.6349   25.8847 C   0  0  0  0  0  0  0  0  0  0  0  0
  -32.7105  -17.9493   24.0760 C   0  0  0  0  0  0  0  0  0  0  0  0
  -28.5978  -13.4182   20.8404 C   0  0  0  0  0  0  0  0  0  0  0  0
  -25.0869  -29.0985   21.7885 C   0  0  1  0  0  0  0  0  0  0  0  0
  -28.0308  -26.8507   22.6250 C   0  0  1  0  0  0  0  0  0  0  0  0
  -32.6875  -19.5786   26.0237 C   0  0  1  0  0  0  0  0  0  0  0  0
  -32.9739  -19.4017   24.5115 C   0  0  1  0  0  0  0  0  0  0  0  0
  -27.5563  -13.3490   19.7104 C   0  0  2  0  0  0  0  0  0  0  0  0
  -34.4071  -19.7907   24.1391 C   0  0  0  0  0  0  0  0  0  0  0  0
  -30.3473  -18.1685   21.4001 C   0  0  0  0  0  0  0  0  0  0  0  0
  -29.4302  -22.1097   16.2813 C   0  0  0  0  0  0  0  0  0  0  0  0
  -32.6552  -21.1282   27.9979 C   0  0  0  0  0  0  0  0  0  0  0  0
  -27.0928  -22.8737   22.4314 C   0  0  0  0  0  0  0  0  0  0  0  0
  -27.5685  -21.3674   20.4889 C   0  0  0  0  0  0  0  0  0  0  0  0
  -25.9843  -23.2763   20.2260 C   0  0  0  0  0  0  0  0  0  0  0  0
  -31.6351  -25.1580   16.8496 C   0  0  0  0  0  0  0  0  0  0  0  0
  -31.8213  -21.9409   25.7725 C   0  0  0  0  0  0  0  0  0  1  0  0
  -28.4621  -23.7397   20.4211 C   0  0  1  0  0  0  0  0  0  0  0  0
  -30.7816  -16.9197   22.1331 C   0  0  2  0  0  0  0  0  0  0  0  0
  -29.8144  -23.4486   16.8918 C   0  0  2  0  0  0  0  0  0  0  0  0
  -32.8272  -21.0317   26.4835 C   0  0  2  0  0  0  0  0  0  0  0  0
  -27.2978  -22.8293   20.9039 C   0  0  0  0  0  0  0  0  0  0  0  0
  -25.8374  -11.6592   20.2323 N   0  0  0  0  0  0  0  0  0  0  0  0
  -26.1829  -12.9579   20.2238 N   0  0  0  0  0  0  0  0  0  0  0  0
  -28.1564  -25.4498   22.1884 N   0  0  0  0  0  0  0  0  0  0  0  0
  -31.3622  -17.5183   24.4594 N   0  0  0  0  0  0  0  0  0  0  0  0
  -29.9102  -13.8011   20.2964 N   0  0  0  0  0  0  0  0  0  0  0  0
  -25.3938  -15.1259   20.7603 N   0  0  0  0  0  0  0  0  0  0  0  0
  -21.9334  -12.4501   21.8834 N   0  0  0  0  0  0  0  0  0  0  0  0
  -26.3940  -28.5380   22.0564 N   0  0  0  0  0  0  0  0  0  0  0  0
  -28.6617  -23.7384   18.9759 N   0  0  0  0  0  0  0  0  0  0  0  0
  -30.1153  -15.7323   21.6463 N   0  0  0  0  0  0  0  0  0  0  0  0
  -31.1444  -23.8475   16.3506 N   0  3  0  0  0  0  0  0  0  0  0  0
  -22.6523  -14.6258   21.7951 O   0  0  0  0  0  0  0  0  0  0  0  0
  -25.7274  -26.3534   22.5099 O   0  0  0  0  0  0  0  0  0  0  0  0
  -28.2094  -26.0464   19.9407 O   0  0  0  0  0  0  0  0  0  0  0  0
  -29.2781  -16.6313   23.9406 O   0  0  0  0  0  0  0  0  0  0  0  0
  -30.8649  -23.0166   19.0242 O   0  0  0  0  0  0  0  0  0  0  0  0
  -31.7806  -15.1667   20.1753 O   0  0  0  0  0  0  0  0  0  0  0  0
  -21.7663   -6.9027   21.3936 O   0  0  0  0  0  0  0  0  0  0  0  0
  -31.9755  -23.2849   26.2267 O   0  0  0  0  0  0  0  0  0  1  0  0
  -16.3311   -7.2435   22.2574 F   0  0  0  0  0  0  0  0  0  0  0  0
  -19.9762   -5.7197   19.6504 F   0  0  0  0  0  0  0  0  0  0  0  0
  1  2  1  0  0  0  0
  1  5  2  0  0  0  0
  2  6  2  0  0  0  0
  3  8  2  0  0  0  0
  3 15  1  0  0  0  0
  4  9  1  0  0  0  0
  4 15  2  0  0  0  0
  5 17  1  0  0  0  0
  6 19  1  0  0  0  0
  7 10  2  0  0  0  0
  7 18  1  0  0  0  0
  8 21  1  0  0  0  0
  9 21  2  0  0  0  0
 10 22  1  0  0  0  0
 11 12  2  0  0  0  0
 11 23  1  0  0  0  0
 12 24  1  0  0  0  0
 13 20  1  0  0  0  0
 13 22  2  0  0  0  0
 14 24  2  0  0  0  0
 14 25  1  0  0  0  0
 15 26  1  0  0  0  0
 16 26  1  0  0  0  0
 16 27  2  0  0  0  0
 16 28  1  0  0  0  0
 17 19  2  0  0  0  0
 17 34  1  0  0  0  0
 18 20  2  0  0  0  0
 18 35  1  0  0  0  0
 19 46  1  0  0  0  0
 20 36  1  0  0  0  0
 21 82  1  0  0  0  0
 22 83  1  0  0  0  0
 23 25  2  0  0  0  0
 23 82  1  0  0  0  0
 24 84  1  0  0  0  0
 25 85  1  0  0  0  0
 26 65  2  0  0  0  0
 27 66  1  0  0  0  0
 27 70  1  0  0  0  0
 28 71  1  0  0  0  0
 28 76  2  0  0  0  0
 29 47  1  0  0  0  0
 29 72  1  0  0  0  0
 29 77  2  0  0  0  0
 30 60  1  0  0  0  0
 30 67  1  0  0  0  0
 30 78  2  0  0  0  0
 31 61  1  0  0  0  0
 31 68  1  0  0  0  0
 31 79  2  0  0  0  0
 32 62  1  0  0  0  0
 32 73  1  0  0  0  0
 32 80  2  0  0  0  0
 33 69  1  0  0  0  0
 33 74  1  0  0  0  0
 33 81  2  0  0  0  0
 34 37  1  0  0  0  0
 35 47  1  0  0  0  0
 36 67  1  0  0  0  0
 37 39  1  0  0  0  0
 38 40  1  0  0  0  0
 38 42  1  0  0  0  0
 39 46  1  0  0  0  0
 40 50  1  0  0  0  0
 41 43  1  0  0  0  0
 41 48  1  0  0  0  0
 42 69  1  0  0  0  0
 43 68  1  0  0  0  0
 44 49  1  0  0  0  0
 44 68  1  0  0  0  0
 45 50  1  0  0  0  0
 45 69  1  0  0  0  0
 46 72  1  0  0  0  0
 47 67  1  0  0  0  0
 48 49  1  0  0  0  0
 48 63  1  0  0  0  0
 49 51  1  0  0  0  0
 50 66  1  0  0  0  0
 52 61  1  0  0  0  0
 53 62  1  0  0  0  0
 54 63  1  0  0  0  0
 55 64  1  0  0  0  0
 56 64  1  0  0  0  0
 57 64  1  0  0  0  0
 58 75  1  0  0  0  0
 59 63  1  0  0  0  0
 59 83  1  0  0  0  0
 60 64  1  0  0  0  0
 60 73  1  0  0  0  0
 61 74  1  0  0  0  0
 62 75  1  0  0  0  0
 65 66  1  0  0  0  0
M  CHG  1  75   1
M  ISO  4  33 100  59 101  74 100  83 101
M  END
> <Batch ID>
0171

> <Smiles>
CNC(C)C(=O)NC(C(=O)N1Cc2cc([101O:1][101CH2:1]C(C)C3CCN(C(=O)C(C)[100NH:0][100C:0](=O)N4CCCC(n5nc(-c6ccc(Oc7ccc(F)cc7F)cc6)c(C(N)=O)c5N)C4)CC3C)ccc2CC1C(=O)NC1CCCc2ccccc21)C(C)(C)C

> <Shape>
0.265

> <Color>
0.213

> <Negative vol penalty>
0.000

$$$$

  -OEChem-04052322373D

 88 97  0     1  0  0  0  0  0999 V2000
  -20.4372  -10.4130   23.3615 C   0  0  0  0  0  0  0  0  0  0  0  0
  -21.4382  -11.1481   23.9885 C   0  0  0  0  0  0  0  0  0  0  0  0
  -26.5205  -31.1701   22.4517 C   0  0  0  0  0  0  0  0  0  0  0  0
  -25.8130  -31.9814   20.2888 C   0  0  0  0  0  0  0  0  0  0  0  0
  -20.7087   -9.7433   22.1692 C   0  0  0  0  0  0  0  0  0  0  0  0
  -22.7117  -11.2129   23.4241 C   0  0  0  0  0  0  0  0  0  0  0  0
  -24.6055  -15.9095   23.4363 C   0  0  0  0  0  0  0  0  0  0  0  0
  -26.6740  -32.4839   22.8944 C   0  0  0  0  0  0  0  0  0  0  0  0
  -25.9664  -33.2953   20.7315 C   0  0  0  0  0  0  0  0  0  0  0  0
  -25.1230  -16.3842   24.6407 C   0  0  0  0  0  0  0  0  0  0  0  0
  -24.6871  -34.9930   23.9851 C   0  0  0  0  0  0  0  0  0  0  0  0
  -24.1828  -35.3157   25.2449 C   0  0  0  0  0  0  0  0  0  0  0  0
  -27.3542  -15.8838   23.8722 C   0  0  0  0  0  0  0  0  0  0  0  0
  -26.3987  -35.9498   25.9695 C   0  0  0  0  0  0  0  0  0  0  0  0
  -26.0901  -30.9189   21.1489 C   0  0  0  0  0  0  0  0  0  0  0  0
  -24.7729  -28.7670   20.7717 C   0  0  0  0  0  0  0  0  0  0  0  0
  -21.9835   -9.8078   21.5848 C   0  0  0  0  0  0  0  0  0  0  0  0
  -25.4591  -15.4074   22.4435 C   0  0  0  0  0  0  0  0  0  0  0  0
  -23.0008  -10.5422   22.2235 C   0  0  0  0  0  0  0  0  0  0  0  0
  -26.8452  -15.4057   22.6551 C   0  0  0  0  0  0  0  0  0  0  0  0
  -29.4027  -19.7821   26.5460 C   0  0  0  0  0  0  0  0  0  0  0  0
  -27.9981  -19.7212   26.7209 C   0  0  0  0  0  0  0  0  0  0  0  0
  -26.3969  -33.5465   22.0343 C   0  0  0  0  0  0  0  0  0  0  0  0
  -26.4974  -16.3687   24.8600 C   0  0  0  0  0  0  0  0  0  0  0  0
  -26.0472  -35.1487   23.7175 C   0  0  0  0  0  0  0  0  0  0  0  0
  -25.0385  -35.7941   26.2371 C   0  0  0  0  0  0  0  0  0  0  0  0
  -26.9030  -35.6271   24.7097 C   0  0  0  0  0  0  0  0  0  0  0  0
  -25.9320  -29.5619   20.6909 C   0  0  0  0  0  0  0  0  0  0  0  0
  -29.6683  -20.8515   25.7195 C   0  0  0  0  0  0  0  0  0  0  0  0
  -27.4481  -20.7552   25.9958 C   0  0  0  0  0  0  0  0  0  0  0  0
  -25.1366  -27.5708   20.2031 C   0  0  0  0  0  0  0  0  0  0  0  0
  -23.4828  -29.0819   21.3123 C   0  0  0  0  0  0  0  0  0  0  0  0
  -25.8320  -12.5895   21.0209 C   0  0  0  0  0  0  0  0  0  0  0  0
  -27.9378  -14.2345   19.1819 C   0  0  0  0  0  0  0  0  0  0  0  0
  -30.0293  -16.9121   18.8617 C   0  0  0  0  0  0  0  0  0  0  0  0
  -28.8117  -23.4221   19.5926 C   0  0  0  0  0  0  0  0  0  0  0  0
  -22.2425   -9.0284   20.3198 C   0  0  0  0  0  0  0  0  0  0  0  0
  -24.8870  -14.9238   21.1392 C   0  0  0  0  0  0  0  0  0  0  0  0
  -27.8058  -14.8959   21.6131 C   0  0  0  0  0  0  0  0  0  0  0  0
  -23.5145   -9.4546   19.5914 C   0  0  0  0  0  0  0  0  0  0  0  0
  -29.2209  -26.2745   17.5496 C   0  0  0  0  0  0  0  0  0  0  0  0
  -24.6747   -9.5824   20.5734 C   0  0  0  0  0  0  0  0  0  0  0  0
  -28.3377  -27.3347   18.2017 C   0  0  0  0  0  0  0  0  0  0  0  0
  -28.1182  -21.1604   22.4390 C   0  0  0  0  0  0  0  0  0  0  0  0
  -29.8960  -25.4093   18.6054 C   0  0  0  0  0  0  0  0  0  0  0  0
  -28.3852  -21.4037   20.9618 C   0  0  0  0  0  0  0  0  0  0  0  0
  -28.4811  -23.4943   22.1367 C   0  0  0  0  0  0  0  0  0  0  0  0
  -28.0146  -25.7634   20.1816 C   0  0  0  0  0  0  0  0  0  0  0  0
  -24.3879  -10.6568   21.6293 C   0  0  1  0  0  0  0  0  0  0  0  0
  -25.8110  -13.9588   20.4027 C   0  0  1  0  0  0  0  0  0  0  0  0
  -28.8007  -22.3556   23.1052 C   0  0  1  0  0  0  0  0  0  0  0  0
  -27.3231  -26.6831   19.1541 C   0  0  1  0  0  0  0  0  0  0  0  0
  -30.4009  -18.8692   27.1404 C   0  0  0  0  0  0  0  0  0  0  0  0
  -30.9584  -21.3678   25.2145 C   0  0  0  0  0  0  0  0  0  0  0  0
  -26.0343  -21.1528   25.8244 C   0  0  0  0  0  0  0  0  0  0  0  0
  -26.4837  -19.3795   28.7012 C   0  0  0  0  0  0  0  0  0  0  0  0
  -31.6069  -18.5143   17.7474 C   0  0  0  0  0  0  0  0  0  0  0  0
  -28.9619  -23.8590   25.1351 C   0  0  0  0  0  0  0  0  0  0  0  0
  -30.0124  -12.1069   19.8744 C   0  0  0  0  0  0  0  0  0  0  0  0
  -31.7886  -13.6753   19.0660 C   0  0  0  0  0  0  0  0  0  0  0  0
  -30.0404  -12.8535   17.4877 C   0  0  0  0  0  0  0  0  0  0  0  0
  -27.8059  -18.6057   17.8885 C   0  0  0  0  0  0  0  0  0  0  0  0
  -26.2756  -17.8645   26.6956 C   0  0  0  0  0  0  0  0  0  1  0  0
  -27.2569  -18.7306   27.5286 C   0  0  1  0  0  0  0  0  0  0  0  0
  -29.4135  -14.5424   19.2615 C   0  0  1  0  0  0  0  0  0  0  0  0
  -30.2049  -17.9252   17.7449 C   0  0  2  0  0  0  0  0  0  0  0  0
  -28.3128  -22.6125   24.5197 C   0  0  2  0  0  0  0  0  0  0  0  0
  -30.2958  -13.3024   18.9430 C   0  0  0  0  0  0  0  0  0  0  0  0
  -26.9554  -28.9244   20.1164 N   0  0  0  0  0  0  0  0  0  0  0  0
  -28.4727  -21.4354   25.3911 N   0  0  0  0  0  0  0  0  0  0  0  0
  -26.4407  -27.7162   19.8311 N   0  0  0  0  0  0  0  0  0  0  0  0
  -27.1974  -14.4278   20.3568 N   0  0  0  0  0  0  0  0  0  0  0  0
  -28.9237  -24.8152   19.5247 N   0  0  0  0  0  0  0  0  0  0  0  0
  -28.4691  -22.8539   20.8190 N   0  0  0  0  0  0  0  0  0  0  0  0
  -24.4649  -26.4194   19.9901 N   0  0  0  0  0  0  0  0  0  0  0  0
  -23.2800  -30.3569   21.8578 N   0  0  0  0  0  0  0  0  0  0  0  0
  -24.5941  -11.9777   21.0753 N   0  0  0  0  0  0  0  0  0  0  0  0
  -29.6412  -15.6807   18.3778 N   0  0  0  0  0  0  0  0  0  0  0  0
  -29.2268  -19.0392   17.8976 N   0  3  0  0  0  0  0  0  0  0  0  0
  -22.5428  -28.2514   21.3265 O   0  0  0  0  0  0  0  0  0  0  0  0
  -26.8929  -12.1219   21.4178 O   0  0  0  0  0  0  0  0  0  0  0  0
  -27.4583  -13.8438   18.1147 O   0  0  0  0  0  0  0  0  0  0  0  0
  -30.2211  -17.1848   20.0446 O   0  0  0  0  0  0  0  0  0  0  0  0
  -29.0495  -22.7093   18.6081 O   0  0  0  0  0  0  0  0  0  0  0  0
  -26.5462  -34.8287   22.4660 O   0  0  0  0  0  0  0  0  0  0  0  0
  -27.0085  -16.8339   26.0427 O   0  0  0  0  0  0  0  0  0  1  0  0
  -24.5539  -36.1053   27.4464 F   0  0  0  0  0  0  0  0  0  0  0  0
  -28.2103  -35.7798   24.4581 F   0  0  0  0  0  0  0  0  0  0  0  0
  1  2  1  0  0  0  0
  1  5  2  0  0  0  0
  2  6  2  0  0  0  0
  3  8  2  0  0  0  0
  3 15  1  0  0  0  0
  4  9  1  0  0  0  0
  4 15  2  0  0  0  0
  5 17  1  0  0  0  0
  6 19  1  0  0  0  0
  7 10  2  0  0  0  0
  7 18  1  0  0  0  0
  8 23  1  0  0  0  0
  9 23  2  0  0  0  0
 10 24  1  0  0  0  0
 11 12  2  0  0  0  0
 11 25  1  0  0  0  0
 12 26  1  0  0  0  0
 13 20  1  0  0  0  0
 13 24  2  0  0  0  0
 14 26  2  0  0  0  0
 14 27  1  0  0  0  0
 15 28  1  0  0  0  0
 16 28  1  0  0  0  0
 16 31  2  0  0  0  0
 16 32  1  0  0  0  0
 17 19  2  0  0  0  0
 17 37  1  0  0  0  0
 18 20  2  0  0  0  0
 18 38  1  0  0  0  0
 19 49  1  0  0  0  0
 20 39  1  0  0  0  0
 21 22  1  0  0  0  0
 21 29  2  0  0  0  0
 21 53  1  0  0  0  0
 22 30  2  0  0  0  0
 22 64  1  0  0  0  0
 23 85  1  0  0  0  0
 24 86  1  0  0  0  0
 25 27  2  0  0  0  0
 25 85  1  0  0  0  0
 26 87  1  0  0  0  0
 27 88  1  0  0  0  0
 28 69  2  0  0  0  0
 29 54  1  0  0  0  0
 29 70  1  0  0  0  0
 30 55  1  0  0  0  0
 30 70  1  0  0  0  0
 31 71  1  0  0  0  0
 31 75  1  0  0  0  0
 32 76  1  0  0  0  0
 32 80  2  0  0  0  0
 33 50  1  0  0  0  0
 33 77  1  0  0  0  0
 33 81  2  0  0  0  0
 34 65  1  0  0  0  0
 34 72  1  0  0  0  0
 34 82  2  0  0  0  0
 35 66  1  0  0  0  0
 35 78  1  0  0  0  0
 35 83  2  0  0  0  0
 36 73  1  0  0  0  0
 36 74  1  0  0  0  0
 36 84  2  0  0  0  0
 37 40  1  0  0  0  0
 38 50  1  0  0  0  0
 39 72  1  0  0  0  0
 40 42  1  0  0  0  0
 41 43  1  0  0  0  0
 41 45  1  0  0  0  0
 42 49  1  0  0  0  0
 43 52  1  0  0  0  0
 44 46  1  0  0  0  0
 44 51  1  0  0  0  0
 45 73  1  0  0  0  0
 46 74  1  0  0  0  0
 47 51  1  0  0  0  0
 47 74  1  0  0  0  0
 48 52  1  0  0  0  0
 48 73  1  0  0  0  0
 49 77  1  0  0  0  0
 50 72  1  0  0  0  0
 51 67  1  0  0  0  0
 52 71  1  0  0  0  0
 56 64  1  0  0  0  0
 57 66  1  0  0  0  0
 58 67  1  0  0  0  0
 59 68  1  0  0  0  0
 60 68  1  0  0  0  0
 61 68  1  0  0  0  0
 62 79  1  0  0  0  0
 63 64  1  0  0  0  0
 63 86  1  0  0  0  0
 65 68  1  0  0  0  0
 65 78  1  0  0  0  0
 66 79  1  0  0  0  0
 67 70  1  0  0  0  0
 69 71  1  0  0  0  0
M  CHG  1  79   1
M  ISO  4  36 100  63 101  74 100  86 101
M  END
> <Batch ID>
0171

> <Smiles>
CNC(C)C(=O)NC(C(=O)N1Cc2cc([101O:1][101CH2:1]C(C)c3c(C)c(C)n(C(C)C4CC[100N:0]([100C:0](=O)N5CCCC(n6nc(-c7ccc(Oc8ccc(F)cc8F)cc7)c(C(N)=O)c6N)C5)C4)c3C)ccc2CC1C(=O)NC1CCCc2ccccc21)C(C)(C)C

> <Shape>
0.271

> <Color>
0.085

> <Negative vol penalty>
0.000

$$$$

  -OEChem-04052322373D

 94105  0     1  0  0  0  0  0999 V2000
  -23.0813  -23.2649   23.6194 C   0  0  0  0  0  0  0  0  0  0  0  0
  -24.1967  -23.9433   23.1385 C   0  0  0  0  0  0  0  0  0  0  0  0
  -22.9165  -11.4160   21.3377 C   0  0  0  0  0  0  0  0  0  0  0  0
  -23.8514   -9.1902   21.2441 C   0  0  0  0  0  0  0  0  0  0  0  0
  -21.8071  -23.7979   23.4292 C   0  0  0  0  0  0  0  0  0  0  0  0
  -24.0383  -25.1545   22.4661 C   0  0  0  0  0  0  0  0  0  0  0  0
  -27.3577  -28.6661   23.9815 C   0  0  0  0  0  0  0  0  0  0  0  0
  -21.6603  -10.9019   21.0164 C   0  0  0  0  0  0  0  0  0  0  0  0
  -22.5951   -8.6761   20.9228 C   0  0  0  0  0  0  0  0  0  0  0  0
  -28.6574  -28.5694   23.4864 C   0  0  0  0  0  0  0  0  0  0  0  0
  -19.7372   -7.8912   22.5466 C   0  0  0  0  0  0  0  0  0  0  0  0
  -19.3197   -6.7399   23.2142 C   0  0  0  0  0  0  0  0  0  0  0  0
  -31.1573  -20.7346   19.5403 C   0  0  0  0  0  0  0  0  0  0  0  0
  -28.1573  -30.2766   21.8571 C   0  0  0  0  0  0  0  0  0  0  0  0
  -19.1450   -5.5788   21.1027 C   0  0  0  0  0  0  0  0  0  0  0  0
  -30.3906  -21.6723   21.5871 C   0  0  0  0  0  0  0  0  0  0  0  0
  -24.0121  -10.5602   21.4515 C   0  0  0  0  0  0  0  0  0  0  0  0
  -25.8541  -11.2649   23.0695 C   0  0  0  0  0  0  0  0  0  0  0  0
  -21.6338  -25.0211   22.7626 C   0  0  0  0  0  0  0  0  0  0  0  0
  -26.4432  -29.5625   23.4101 C   0  0  0  0  0  0  0  0  0  0  0  0
  -22.7605  -25.7037   22.2656 C   0  0  0  0  0  0  0  0  0  0  0  0
  -30.6271  -20.5484   20.8122 C   0  0  0  0  0  0  0  0  0  0  0  0
  -31.4309  -22.0208   19.0887 C   0  0  0  0  0  0  0  0  0  0  0  0
  -26.8473  -30.3845   22.3485 C   0  0  0  0  0  0  0  0  0  0  0  0
  -21.4996   -9.5320   20.8090 C   0  0  0  0  0  0  0  0  0  0  0  0
  -29.0565  -29.3726   22.4221 C   0  0  0  0  0  0  0  0  0  0  0  0
  -19.8585   -7.8864   21.1570 C   0  0  0  0  0  0  0  0  0  0  0  0
  -19.0236   -5.5837   22.4923 C   0  0  0  0  0  0  0  0  0  0  0  0
  -19.5625   -6.7302   20.4351 C   0  0  0  0  0  0  0  0  0  0  0  0
  -25.3101  -11.0907   21.7828 C   0  0  0  0  0  0  0  0  0  0  0  0
  -31.1582  -23.0789   19.9407 C   0  0  0  0  0  0  0  0  0  0  0  0
  -27.1006  -11.7968   22.8461 C   0  0  0  0  0  0  0  0  0  0  0  0
  -25.2838  -10.9719   24.3519 C   0  0  0  0  0  0  0  0  0  0  0  0
  -23.6531  -29.2721   21.9151 C   0  0  0  0  0  0  0  0  0  0  0  0
  -23.6829  -32.5128   22.0556 C   0  0  0  0  0  0  0  0  0  0  0  0
  -25.5083  -35.3849   22.3119 C   0  0  0  0  0  0  0  0  0  0  0  0
  -30.5461  -15.1999   20.2832 C   0  0  0  0  0  0  0  0  0  0  0  0
  -20.2332  -25.5342   22.5394 C   0  0  0  0  0  0  0  0  0  0  0  0
  -25.0529  -29.6738   23.9731 C   0  0  0  0  0  0  0  0  0  0  0  0
  -25.9099  -31.3775   21.7131 C   0  0  0  0  0  0  0  0  0  0  0  0
  -20.1800  -27.0080   22.1455 C   0  0  0  0  0  0  0  0  0  0  0  0
  -29.7631  -12.2941   18.5829 C   0  0  0  0  0  0  0  0  0  0  0  0
  -32.7926  -21.1178   17.0877 C   0  0  0  0  0  0  0  0  0  0  0  0
  -33.4929  -22.3509   17.5664 C   0  0  0  0  0  0  0  0  0  0  0  0
  -21.2065  -27.3073   21.0576 C   0  0  0  0  0  0  0  0  0  0  0  0
  -28.5784  -11.7246   19.3630 C   0  0  0  0  0  0  0  0  0  0  0  0
  -29.2411  -18.4513   20.4913 C   0  0  0  0  0  0  0  0  0  0  0  0
  -31.5818  -18.2868   21.4418 C   0  0  0  0  0  0  0  0  0  0  0  0
  -32.4905  -25.0905   20.4505 C   0  0  0  0  0  0  0  0  0  0  0  0
  -29.6477  -13.8076   18.4434 C   0  0  0  0  0  0  0  0  0  0  0  0
  -28.9568  -17.0369   21.0048 C   0  0  0  0  0  0  0  0  0  0  0  0
  -31.2351  -16.8918   21.9540 C   0  0  0  0  0  0  0  0  0  0  0  0
  -28.3446  -13.9677   20.5396 C   0  0  0  0  0  0  0  0  0  0  0  0
  -32.7707  -26.5503   20.1292 C   0  0  0  0  0  0  0  0  0  0  0  0
  -30.4596  -26.8145   19.2110 C   0  0  0  0  0  0  0  0  0  0  0  0
  -30.3173  -19.1583   21.3348 C   0  0  0  0  0  0  0  0  0  0  0  0
  -31.9996  -22.2281   17.7274 C   0  0  0  0  0  0  0  0  0  0  0  0
  -22.6314  -27.0325   21.5530 C   0  0  1  0  0  0  0  0  0  0  0  0
  -31.4308  -24.4832   19.5106 C   0  0  2  0  0  0  0  0  0  0  0  0
  -24.0508  -30.2546   22.9802 C   0  0  1  0  0  0  0  0  0  0  0  0
  -30.1390  -25.3444   19.5111 C   0  0  2  0  0  0  0  0  0  0  0  0
  -28.4139  -12.4373   20.7170 C   0  0  1  0  0  0  0  0  0  0  0  0
  -29.1171  -24.8381   18.4865 C   0  0  0  0  0  0  0  0  0  0  0  0
  -25.2565  -37.8812   22.3606 C   0  0  0  0  0  0  0  0  0  0  0  0
  -23.2252  -32.5230   19.0389 C   0  0  0  0  0  0  0  0  0  0  0  0
  -23.9244  -34.9268   19.0112 C   0  0  0  0  0  0  0  0  0  0  0  0
  -21.9050  -34.2319   20.3001 C   0  0  0  0  0  0  0  0  0  0  0  0
  -26.6762  -35.5660   25.0253 C   0  0  0  0  0  0  0  0  0  0  0  0
  -31.7168  -28.8047   20.0297 C   0  0  0  0  0  0  0  0  0  0  0  0
  -30.5133  -29.5643   20.5521 C   0  0  0  0  0  0  0  0  0  1  0  0
  -24.1997  -33.6167   21.1650 C   0  0  1  0  0  0  0  0  0  0  0  0
  -25.3397  -36.6104   23.1918 C   0  0  2  0  0  0  0  0  0  0  0  0
  -23.3309  -33.8046   19.8893 C   0  0  0  0  0  0  0  0  0  0  0  0
  -30.6434  -22.9373   21.1827 N   0  0  0  0  0  0  0  0  0  0  0  0
  -26.1427  -11.4805   20.8139 N   0  0  0  0  0  0  0  0  0  0  0  0
  -27.2224  -11.9051   21.4920 N   0  0  0  0  0  0  0  0  0  0  0  0
  -24.5591  -31.4447   22.2949 N   0  0  0  0  0  0  0  0  0  0  0  0
  -29.4895  -14.4468   19.7496 N   0  0  0  0  0  0  0  0  0  0  0  0
  -30.2034  -16.2682   21.1257 N   0  0  0  0  0  0  0  0  0  0  0  0
  -28.0932  -12.1780   23.6779 N   0  0  0  0  0  0  0  0  0  0  0  0
  -23.9929  -10.4284   24.4006 N   0  0  0  0  0  0  0  0  0  0  0  0
  -23.0871  -28.1104   22.4045 N   0  0  0  0  0  0  0  0  0  0  0  0
  -24.2951  -34.8068   22.0035 N   0  0  0  0  0  0  0  0  0  0  0  0
  -31.4817  -27.3281   20.1943 N   0  3  2  0  0  0  0  0  0  0  0  0
  -26.4907  -36.7369   24.1299 N   0  3  0  0  0  0  0  0  0  0  0  0
  -25.8943  -11.2010   25.4235 O   0  0  0  0  0  0  0  0  0  0  0  0
  -23.8441  -29.5483   20.7366 O   0  0  0  0  0  0  0  0  0  0  0  0
  -22.5465  -32.5985   22.5275 O   0  0  0  0  0  0  0  0  0  0  0  0
  -26.6062  -34.9830   21.9329 O   0  0  0  0  0  0  0  0  0  0  0  0
  -31.7262  -14.9338   20.0234 O   0  0  0  0  0  0  0  0  0  0  0  0
  -20.2739   -9.0300   20.4957 O   0  0  0  0  0  0  0  0  0  0  0  0
  -30.3335  -29.2791   21.9330 O   0  0  0  0  0  0  0  0  0  1  0  0
  -18.6242   -4.4777   23.1337 F   0  0  0  0  0  0  0  0  0  0  0  0
  -19.6783   -6.7191   19.1000 F   0  0  0  0  0  0  0  0  0  0  0  0
  1  2  1  0  0  0  0
  1  5  2  0  0  0  0
  2  6  2  0  0  0  0
  3  8  2  0  0  0  0
  3 17  1  0  0  0  0
  4  9  1  0  0  0  0
  4 17  2  0  0  0  0
  5 19  1  0  0  0  0
  6 21  1  0  0  0  0
  7 10  2  0  0  0  0
  7 20  1  0  0  0  0
  8 25  1  0  0  0  0
  9 25  2  0  0  0  0
 10 26  1  0  0  0  0
 11 12  2  0  0  0  0
 11 27  1  0  0  0  0
 12 28  1  0  0  0  0
 13 22  2  0  0  0  0
 13 23  1  0  0  0  0
 14 24  1  0  0  0  0
 14 26  2  0  0  0  0
 15 28  2  0  0  0  0
 15 29  1  0  0  0  0
 16 22  1  0  0  0  0
 16 74  2  0  0  0  0
 17 30  1  0  0  0  0
 18 30  1  0  0  0  0
 18 32  2  0  0  0  0
 18 33  1  0  0  0  0
 19 21  2  0  0  0  0
 19 38  1  0  0  0  0
 20 24  2  0  0  0  0
 20 39  1  0  0  0  0
 21 58  1  0  0  0  0
 22 56  1  0  0  0  0
 23 31  2  0  0  0  0
 23 57  1  0  0  0  0
 24 40  1  0  0  0  0
 25 91  1  0  0  0  0
 26 92  1  0  0  0  0
 27 29  2  0  0  0  0
 27 91  1  0  0  0  0
 28 93  1  0  0  0  0
 29 94  1  0  0  0  0
 30 75  2  0  0  0  0
 31 59  1  0  0  0  0
 31 74  1  0  0  0  0
 32 76  1  0  0  0  0
 32 80  1  0  0  0  0
 33 81  1  0  0  0  0
 33 86  2  0  0  0  0
 34 60  1  0  0  0  0
 34 82  1  0  0  0  0
 34 87  2  0  0  0  0
 35 71  1  0  0  0  0
 35 77  1  0  0  0  0
 35 88  2  0  0  0  0
 36 72  1  0  0  0  0
 36 83  1  0  0  0  0
 36 89  2  0  0  0  0
 37 78  1  0  0  0  0
 37 79  1  0  0  0  0
 37 90  2  0  0  0  0
 38 41  1  0  0  0  0
 39 60  1  0  0  0  0
 40 77  1  0  0  0  0
 41 45  1  0  0  0  0
 42 46  1  0  0  0  0
 42 50  1  0  0  0  0
 43 44  1  0  0  0  0
 43 57  1  0  0  0  0
 44 57  1  0  0  0  0
 45 58  1  0  0  0  0
 46 62  1  0  0  0  0
 47 51  1  0  0  0  0
 47 56  1  0  0  0  0
 48 52  1  0  0  0  0
 48 56  1  0  0  0  0
 49 54  1  0  0  0  0
 49 59  1  0  0  0  0
 50 78  1  0  0  0  0
 51 79  1  0  0  0  0
 52 79  1  0  0  0  0
 53 62  1  0  0  0  0
 53 78  1  0  0  0  0
 54 84  1  0  0  0  0
 55 61  1  0  0  0  0
 55 84  1  0  0  0  0
 58 82  1  0  0  0  0
 59 61  1  0  0  0  0
 60 77  1  0  0  0  0
 61 63  1  0  0  0  0
 62 76  1  0  0  0  0
 64 72  1  0  0  0  0
 65 73  1  0  0  0  0
 66 73  1  0  0  0  0
 67 73  1  0  0  0  0
 68 85  1  0  0  0  0
 69 70  1  0  0  0  0
 69 84  1  0  0  0  0
 70 92  1  0  0  0  0
 71 73  1  0  0  0  0
 71 83  1  0  0  0  0
 72 85  1  0  0  0  0
 75 76  1  0  0  0  0
M  CHG  2  84   1  85   1
M  ISO  4  37 100  70 101  79 100  92 101
M  END
> <Batch ID>
0171

> <Smiles>
CNC(C)C(=O)NC(C(=O)N1Cc2cc([101O:1][101CH2:1]CN3CCC(c4ncc(C5CC[100N:0]([100C:0](=O)N6CCCC(n7nc(-c8ccc(Oc9ccc(F)cc9F)cc8)c(C(N)=O)c7N)C6)CC5)cc4C4CC4)C(C)C3)ccc2CC1C(=O)NC1CCCc2ccccc21)C(C)(C)C

> <Shape>
0.278

> <Color>
0.100

> <Negative vol penalty>
0.000

$$$$

  -OEChem-04052322373D

 92102  0     1  0  0  0  0  0999 V2000
  -21.4167  -18.5374   31.6813 C   0  0  0  0  0  0  0  0  0  0  0  0
  -22.5718  -18.2246   30.9718 C   0  0  0  0  0  0  0  0  0  0  0  0
  -22.2753  -27.1464   20.5291 C   0  0  0  0  0  0  0  0  0  0  0  0
  -22.6683  -28.8849   22.1601 C   0  0  0  0  0  0  0  0  0  0  0  0
  -20.1661  -18.3346   31.0994 C   0  0  0  0  0  0  0  0  0  0  0  0
  -22.4768  -17.7077   29.6801 C   0  0  0  0  0  0  0  0  0  0  0  0
  -25.7323  -19.8870   26.4712 C   0  0  0  0  0  0  0  0  0  0  0  0
  -21.0513  -26.8572   21.1322 C   0  0  0  0  0  0  0  0  0  0  0  0
  -21.4443  -28.5957   22.7632 C   0  0  0  0  0  0  0  0  0  0  0  0
  -27.0615  -19.4708   26.5323 C   0  0  0  0  0  0  0  0  0  0  0  0
  -18.1761  -29.2447   22.1987 C   0  0  0  0  0  0  0  0  0  0  0  0
  -17.3563  -30.3187   22.5451 C   0  0  0  0  0  0  0  0  0  0  0  0
  -30.5608  -19.6977   21.4871 C   0  0  0  0  0  0  0  0  0  0  0  0
  -26.6982  -18.0498   24.6171 C   0  0  0  0  0  0  0  0  0  0  0  0
  -17.4379  -29.6342   24.8607 C   0  0  0  0  0  0  0  0  0  0  0  0
  -23.0838  -28.1602   21.0430 C   0  0  0  0  0  0  0  0  0  0  0  0
  -24.5888  -29.3789   19.3825 C   0  0  0  0  0  0  0  0  0  0  0  0
  -20.0559  -17.8240   29.7964 C   0  0  0  0  0  0  0  0  0  0  0  0
  -24.8717  -19.3786   25.4877 C   0  0  0  0  0  0  0  0  0  0  0  0
  -21.2234  -17.4966   29.0807 C   0  0  0  0  0  0  0  0  0  0  0  0
  -31.0812  -18.4953   21.9525 C   0  0  0  0  0  0  0  0  0  0  0  0
  -29.9519  -19.7481   20.2381 C   0  0  0  0  0  0  0  0  0  0  0  0
  -25.3592  -18.4631   24.5442 C   0  0  0  0  0  0  0  0  0  0  0  0
  -20.6358  -27.5818   22.2493 C   0  0  0  0  0  0  0  0  0  0  0  0
  -27.5439  -18.5498   25.6069 C   0  0  0  0  0  0  0  0  0  0  0  0
  -18.6268  -28.3654   23.1833 C   0  0  0  0  0  0  0  0  0  0  0  0
  -16.9872  -30.5135   23.8761 C   0  0  0  0  0  0  0  0  0  0  0  0
  -18.2577  -28.5602   24.5143 C   0  0  0  0  0  0  0  0  0  0  0  0
  -24.3485  -28.4590   20.4207 C   0  0  0  0  0  0  0  0  0  0  0  0
  -30.9682  -17.3808   21.1371 C   0  0  0  0  0  0  0  0  0  0  0  0
  -29.8896  -18.5776   19.4993 C   0  0  0  0  0  0  0  0  0  0  0  0
  -25.9400  -29.2911   19.1519 C   0  0  0  0  0  0  0  0  0  0  0  0
  -23.6727  -30.2363   18.6888 C   0  0  0  0  0  0  0  0  0  0  0  0
  -22.1872  -17.6768   25.5182 C   0  0  0  0  0  0  0  0  0  0  0  0
  -22.2521  -18.2424   22.3247 C   0  0  0  0  0  0  0  0  0  0  0  0
  -24.0950  -18.9935   19.5523 C   0  0  0  0  0  0  0  0  0  0  0  0
  -29.9890  -25.1143   19.9302 C   0  0  0  0  0  0  0  0  0  0  0  0
  -18.6812  -17.5776   29.2271 C   0  0  0  0  0  0  0  0  0  0  0  0
  -23.4477  -19.8580   25.4189 C   0  0  0  0  0  0  0  0  0  0  0  0
  -24.4814  -17.9026   23.4561 C   0  0  0  0  0  0  0  0  0  0  0  0
  -18.6755  -17.3776   27.7137 C   0  0  0  0  0  0  0  0  0  0  0  0
  -30.0627  -28.2703   21.3384 C   0  0  0  0  0  0  0  0  0  0  0  0
  -19.7784  -16.4088   27.2991 C   0  0  0  0  0  0  0  0  0  0  0  0
  -28.6317  -28.7788   21.1655 C   0  0  0  0  0  0  0  0  0  0  0  0
  -28.8446  -21.9353   20.8798 C   0  0  0  0  0  0  0  0  0  0  0  0
  -30.4072  -21.8453   18.8899 C   0  0  0  0  0  0  0  0  0  0  0  0
  -31.3963  -19.4795   24.3216 C   0  0  0  0  0  0  0  0  0  0  0  0
  -30.0744  -26.8004   21.7416 C   0  0  0  0  0  0  0  0  0  0  0  0
  -28.3038  -23.2730   20.3668 C   0  0  0  0  0  0  0  0  0  0  0  0
  -29.8134  -23.1671   18.4116 C   0  0  0  0  0  0  0  0  0  0  0  0
  -27.9127  -26.4036   20.6067 C   0  0  0  0  0  0  0  0  0  0  0  0
  -31.7352  -18.4330   23.2898 C   0  0  1  0  0  0  0  0  0  0  0  0
  -29.3852  -21.0618   19.7334 C   0  0  0  0  0  0  0  0  0  0  0  0
  -21.1620  -16.9573   27.6681 C   0  0  1  0  0  0  0  0  0  0  0  0
  -22.5243  -18.8854   24.6916 C   0  0  1  0  0  0  0  0  0  0  0  0
  -27.8418  -27.8871   20.1911 C   0  0  1  0  0  0  0  0  0  0  0  0
  -30.9443  -18.0581   24.5367 C   0  0  1  0  0  0  0  0  0  0  0  0
  -31.6583  -17.2429   25.5838 C   0  0  0  0  0  0  0  0  0  0  0  0
  -24.5663  -19.5830   17.1590 C   0  0  0  0  0  0  0  0  0  0  0  0
  -22.0029  -15.2295   21.9126 C   0  0  0  0  0  0  0  0  0  0  0  0
  -22.7355  -15.5634   19.5420 C   0  0  0  0  0  0  0  0  0  0  0  0
  -20.6228  -16.6134   20.3524 C   0  0  0  0  0  0  0  0  0  0  0  0
  -28.5962  -17.5034   17.6557 C   0  0  0  0  0  0  0  0  0  0  0  0
  -23.8350  -21.8915   20.0937 C   0  0  0  0  0  0  0  0  0  0  0  0
  -29.4670  -17.7716   24.4442 C   0  0  0  0  0  0  0  0  0  1  0  0
  -31.5085  -16.0616   21.5839 C   0  0  0  0  0  0  0  0  0  0  0  0
  -22.8440  -17.5404   21.1265 C   0  0  1  0  0  0  0  0  0  0  0  0
  -23.8833  -20.0132   18.4479 C   0  0  2  0  0  0  0  0  0  0  0  0
  -22.0676  -16.2456   20.7549 C   0  0  0  0  0  0  0  0  0  0  0  0
  -25.4580  -27.8327   20.8217 N   0  0  0  0  0  0  0  0  0  0  0  0
  -30.3837  -17.3910   19.9181 N   0  0  0  0  0  0  0  0  0  0  0  0
  -26.4085  -28.3599   20.0314 N   0  0  0  0  0  0  0  0  0  0  0  0
  -23.0949  -18.3973   23.4345 N   0  0  0  0  0  0  0  0  0  0  0  0
  -29.3114  -25.9878   20.7942 N   0  0  0  0  0  0  0  0  0  0  0  0
  -29.3064  -23.9538   19.5356 N   0  0  0  0  0  0  0  0  0  0  0  0
  -26.7611  -29.9202   18.2845 N   0  0  0  0  0  0  0  0  0  0  0  0
  -22.3193  -30.2009   19.0515 N   0  0  0  0  0  0  0  0  0  0  0  0
  -29.2701  -18.6241   18.2253 N   0  0  0  0  0  0  0  0  0  0  0  0
  -21.5730  -17.9710   26.7205 N   0  0  0  0  0  0  0  0  0  0  0  0
  -22.8980  -18.5322   20.0579 N   0  0  0  0  0  0  0  0  0  0  0  0
  -24.4347  -21.3372   18.8527 N   0  3  0  0  0  0  0  0  0  0  0  0
  -24.0405  -30.9988   17.7632 O   0  0  0  0  0  0  0  0  0  0  0  0
  -22.4626  -16.5599   25.0958 O   0  0  0  0  0  0  0  0  0  0  0  0
  -21.0872  -18.6451   22.2753 O   0  0  0  0  0  0  0  0  0  0  0  0
  -25.2107  -18.6387   19.9264 O   0  0  0  0  0  0  0  0  0  0  0  0
  -31.1358  -25.3567   19.5337 O   0  0  0  0  0  0  0  0  0  0  0  0
  -19.4413  -27.3001   22.8380 O   0  0  0  0  0  0  0  0  0  0  0  0
  -28.8528  -18.1375   25.6651 O   0  0  0  0  0  0  0  0  0  1  0  0
  -16.2011  -31.5458   24.2087 F   0  0  0  0  0  0  0  0  0  0  0  0
  -18.6885  -27.7194   25.4648 F   0  0  0  0  0  0  0  0  0  0  0  0
  -32.8492  -16.1349   21.7878 F   0  0  0  0  0  0  0  0  0  0  0  0
  -31.3132  -15.1145   20.6305 F   0  0  0  0  0  0  0  0  0  0  0  0
  1  2  1  0  0  0  0
  1  5  2  0  0  0  0
  2  6  2  0  0  0  0
  3  8  2  0  0  0  0
  3 16  1  0  0  0  0
  4  9  1  0  0  0  0
  4 16  2  0  0  0  0
  5 18  1  0  0  0  0
  6 20  1  0  0  0  0
  7 10  2  0  0  0  0
  7 19  1  0  0  0  0
  8 24  1  0  0  0  0
  9 24  2  0  0  0  0
 10 25  1  0  0  0  0
 11 12  2  0  0  0  0
 11 26  1  0  0  0  0
 12 27  1  0  0  0  0
 13 21  2  0  0  0  0
 13 22  1  0  0  0  0
 14 23  1  0  0  0  0
 14 25  2  0  0  0  0
 15 27  2  0  0  0  0
 15 28  1  0  0  0  0
 16 29  1  0  0  0  0
 17 29  1  0  0  0  0
 17 32  2  0  0  0  0
 17 33  1  0  0  0  0
 18 20  2  0  0  0  0
 18 38  1  0  0  0  0
 19 23  2  0  0  0  0
 19 39  1  0  0  0  0
 20 54  1  0  0  0  0
 21 30  1  0  0  0  0
 21 52  1  0  0  0  0
 22 31  2  0  0  0  0
 22 53  1  0  0  0  0
 23 40  1  0  0  0  0
 24 87  1  0  0  0  0
 25 88  1  0  0  0  0
 26 28  2  0  0  0  0
 26 87  1  0  0  0  0
 27 89  1  0  0  0  0
 28 90  1  0  0  0  0
 29 70  2  0  0  0  0
 30 66  1  0  0  0  0
 30 71  2  0  0  0  0
 31 71  1  0  0  0  0
 31 78  1  0  0  0  0
 32 72  1  0  0  0  0
 32 76  1  0  0  0  0
 33 77  1  0  0  0  0
 33 82  2  0  0  0  0
 34 55  1  0  0  0  0
 34 79  1  0  0  0  0
 34 83  2  0  0  0  0
 35 67  1  0  0  0  0
 35 73  1  0  0  0  0
 35 84  2  0  0  0  0
 36 68  1  0  0  0  0
 36 80  1  0  0  0  0
 36 85  2  0  0  0  0
 37 74  1  0  0  0  0
 37 75  1  0  0  0  0
 37 86  2  0  0  0  0
 38 41  1  0  0  0  0
 39 55  1  0  0  0  0
 40 73  1  0  0  0  0
 41 43  1  0  0  0  0
 42 44  1  0  0  0  0
 42 48  1  0  0  0  0
 43 54  1  0  0  0  0
 44 56  1  0  0  0  0
 45 49  1  0  0  0  0
 45 53  1  0  0  0  0
 46 50  1  0  0  0  0
 46 53  1  0  0  0  0
 47 52  1  0  0  0  0
 47 57  1  0  0  0  0
 48 74  1  0  0  0  0
 49 75  1  0  0  0  0
 50 75  1  0  0  0  0
 51 56  1  0  0  0  0
 51 74  1  0  0  0  0
 52 57  1  0  0  0  0
 54 79  1  0  0  0  0
 55 73  1  0  0  0  0
 56 72  1  0  0  0  0
 57 58  1  0  0  0  0
 57 65  1  0  0  0  0
 59 68  1  0  0  0  0
 60 69  1  0  0  0  0
 61 69  1  0  0  0  0
 62 69  1  0  0  0  0
 63 78  1  0  0  0  0
 64 81  1  0  0  0  0
 65 88  1  0  0  0  0
 66 91  1  0  0  0  0
 66 92  1  0  0  0  0
 67 69  1  0  0  0  0
 67 80  1  0  0  0  0
 68 81  1  0  0  0  0
 70 72  1  0  0  0  0
M  CHG  1  81   1
M  ISO  4  37 100  65 101  75 100  88 101
M  END
> <Batch ID>
0171

> <Smiles>
CNc1nc(C(F)F)c(C2CC2(C)[101CH2:1][101O:1]c2ccc3c(c2)CN(C(=O)C(NC(=O)C(C)NC)C(C)(C)C)C(C(=O)NC2CCCc4ccccc42)C3)cc1C1CC[100N:0]([100C:0](=O)N2CCCC(n3nc(-c4ccc(Oc5ccc(F)cc5F)cc4)c(C(N)=O)c3N)C2)CC1

> <Shape>
0.202

> <Color>
0.063

> <Negative vol penalty>
0.000

$$$$

  -OEChem-04052322373D

 88 98  0     1  0  0  0  0  0999 V2000
  -29.2655  -34.9171   26.5900 C   0  0  0  0  0  0  0  0  0  0  0  0
  -28.3649  -33.9674   27.0589 C   0  0  0  0  0  0  0  0  0  0  0  0
  -26.5365  -12.3981   19.6623 C   0  0  0  0  0  0  0  0  0  0  0  0
  -26.0030  -14.1413   21.2477 C   0  0  0  0  0  0  0  0  0  0  0  0
  -29.1061  -35.4530   25.3139 C   0  0  0  0  0  0  0  0  0  0  0  0
  -27.3116  -33.5445   26.2473 C   0  0  0  0  0  0  0  0  0  0  0  0
  -23.8923  -27.4965   26.7903 C   0  0  0  0  0  0  0  0  0  0  0  0
  -25.2770  -11.8324   19.8603 C   0  0  0  0  0  0  0  0  0  0  0  0
  -24.7434  -13.5757   21.4457 C   0  0  0  0  0  0  0  0  0  0  0  0
  -23.1108  -26.3523   26.9517 C   0  0  0  0  0  0  0  0  0  0  0  0
  -23.7557   -9.8870   22.1679 C   0  0  0  0  0  0  0  0  0  0  0  0
  -23.6862   -8.5039   22.3350 C   0  0  0  0  0  0  0  0  0  0  0  0
  -21.7347  -27.0145   25.0767 C   0  0  0  0  0  0  0  0  0  0  0  0
  -22.2668   -8.3399   20.3868 C   0  0  0  0  0  0  0  0  0  0  0  0
  -26.8996  -13.5525   20.3560 C   0  0  0  0  0  0  0  0  0  0  0  0
  -29.4503  -13.5316   20.3843 C   0  0  0  0  0  0  0  0  0  0  0  0
  -28.0428  -35.0451   24.4917 C   0  0  0  0  0  0  0  0  0  0  0  0
  -23.6070  -28.3974   25.7605 C   0  0  0  0  0  0  0  0  0  0  0  0
  -27.1477  -34.0559   24.9473 C   0  0  0  0  0  0  0  0  0  0  0  0
  -22.5217  -28.1560   24.9022 C   0  0  0  0  0  0  0  0  0  0  0  0
  -24.3804  -12.4212   20.7520 C   0  0  0  0  0  0  0  0  0  0  0  0
  -22.0345  -26.1120   26.0972 C   0  0  0  0  0  0  0  0  0  0  0  0
  -23.0806  -10.4965   21.1103 C   0  0  0  0  0  0  0  0  0  0  0  0
  -22.9418   -7.7304   21.4444 C   0  0  0  0  0  0  0  0  0  0  0  0
  -22.3363   -9.7230   20.2197 C   0  0  0  0  0  0  0  0  0  0  0  0
  -28.2007  -14.1370   20.1523 C   0  0  0  0  0  0  0  0  0  0  0  0
  -30.3674  -14.4939   20.0388 C   0  0  0  0  0  0  0  0  0  0  0  0
  -29.7549  -12.2170   20.8687 C   0  0  0  0  0  0  0  0  0  0  0  0
  -24.5284  -31.5829   24.0056 C   0  0  0  0  0  0  0  0  0  0  0  0
  -23.7539  -29.5606   21.8329 C   0  0  0  0  0  0  0  0  0  0  0  0
  -23.9916  -27.8882   19.1779 C   0  0  0  0  0  0  0  0  0  0  0  0
  -28.8284  -18.1584   22.1172 C   0  0  0  0  0  0  0  0  0  0  0  0
  -27.9221  -35.6521   23.1161 C   0  0  0  0  0  0  0  0  0  0  0  0
  -24.3842  -29.6741   25.5875 C   0  0  0  0  0  0  0  0  0  0  0  0
  -22.2309  -29.1702   23.8300 C   0  0  0  0  0  0  0  0  0  0  0  0
  -26.5349  -35.4743   22.5075 C   0  0  0  0  0  0  0  0  0  0  0  0
  -28.1495  -18.4458   18.6761 C   0  0  0  0  0  0  0  0  0  0  0  0
  -26.0989  -34.0213   22.6231 C   0  0  0  0  0  0  0  0  0  0  0  0
  -29.3353  -17.6713   18.0924 C   0  0  0  0  0  0  0  0  0  0  0  0
  -25.6054  -19.2649   23.5866 C   0  0  0  0  0  0  0  0  0  0  0  0
  -26.8999  -21.2913   22.8334 C   0  0  0  0  0  0  0  0  0  0  0  0
  -22.5321  -21.5693   22.4913 C   0  0  0  0  0  0  0  0  0  0  0  0
  -19.1472  -24.4292   25.0658 C   0  0  0  0  0  0  0  0  0  0  0  0
  -28.5423  -19.3076   19.8733 C   0  0  0  0  0  0  0  0  0  0  0  0
  -26.9093  -18.4719   23.6341 C   0  0  0  0  0  0  0  0  0  0  0  0
  -28.1802  -20.4642   22.9017 C   0  0  0  0  0  0  0  0  0  0  0  0
  -24.0327  -21.3351   22.3257 C   0  0  0  0  0  0  0  0  0  0  0  0
  -30.5028  -17.8779   20.3114 C   0  0  0  0  0  0  0  0  0  0  0  0
  -25.9767  -33.6032   24.0939 C   0  0  1  0  0  0  0  0  0  0  0  0
  -24.5470  -30.0864   24.1135 C   0  0  1  0  0  0  0  0  0  0  0  0
  -19.8758  -23.1359   25.3057 C   0  0  2  0  0  0  0  0  0  0  0  0
  -30.1746  -16.9178   19.1489 C   0  0  1  0  0  0  0  0  0  0  0  0
  -25.8515  -20.7594   23.8167 C   0  0  0  0  0  0  0  0  0  0  0  0
  -22.3492  -21.7761   23.9860 C   0  0  2  0  0  0  0  0  0  0  0  0
  -20.6515  -24.4083   25.0923 C   0  0  2  0  0  0  0  0  0  1  0  0
  -23.5550  -21.0856   24.6126 C   0  0  2  0  0  0  0  0  0  0  0  0
  -23.8113  -21.5463   26.0431 C   0  0  0  0  0  0  0  0  0  0  0  0
  -23.4830  -27.3953   16.7704 C   0  0  0  0  0  0  0  0  0  0  0  0
  -18.6376  -21.1770   24.3039 C   0  0  0  0  0  0  0  0  0  0  0  0
  -20.7950  -29.8922   22.4953 C   0  0  0  0  0  0  0  0  0  0  0  0
  -20.2647  -29.1959   20.1497 C   0  0  0  0  0  0  0  0  0  0  0  0
  -21.5925  -31.2666   20.5642 C   0  0  0  0  0  0  0  0  0  0  0  0
  -26.8492  -28.0396   18.4226 C   0  0  0  0  0  0  0  0  0  0  0  0
  -22.6642  -29.0093   20.9486 C   0  0  1  0  0  0  0  0  0  0  0  0
  -24.4466  -28.0617   17.7400 C   0  0  2  0  0  0  0  0  0  0  0  0
  -19.8797  -22.0513   24.2405 C   0  0  2  0  0  0  0  0  0  0  0  0
  -21.3444  -29.8241   21.0564 C   0  0  0  0  0  0  0  0  0  0  0  0
  -28.3103  -15.3871   19.6949 N   0  0  0  0  0  0  0  0  0  0  0  0
  -29.6397  -15.5752   19.6368 N   0  0  0  0  0  0  0  0  0  0  0  0
  -23.4866  -29.6159   23.2062 N   0  0  0  0  0  0  0  0  0  0  0  0
  -29.3043  -18.5218   20.8488 N   0  0  0  0  0  0  0  0  0  0  0  0
  -27.9107  -19.0305   22.7256 N   0  0  0  0  0  0  0  0  0  0  0  0
  -24.6024  -21.5026   23.6686 N   0  0  2  0  0  0  0  0  0  0  0  0
  -31.7173  -14.5123   20.0427 N   0  0  0  0  0  0  0  0  0  0  0  0
  -29.9061  -11.1803   19.9378 N   0  0  0  0  0  0  0  0  0  0  0  0
  -25.7677  -32.1737   24.1625 N   0  0  0  0  0  0  0  0  0  0  0  0
  -23.2220  -28.9508   19.6018 N   0  0  0  0  0  0  0  0  0  0  0  0
  -21.0773  -21.1874   24.4498 N   0  3  0  0  0  0  0  0  0  0  0  0
  -25.7969  -27.4611   17.5480 N   0  3  0  0  0  0  0  0  0  0  0  0
  -29.8727  -11.9656   22.0920 O   0  0  0  0  0  0  0  0  0  0  0  0
  -23.4685  -32.1603   23.7941 O   0  0  0  0  0  0  0  0  0  0  0  0
  -24.8121  -29.9380   21.3220 O   0  0  0  0  0  0  0  0  0  0  0  0
  -24.2862  -26.9063   19.8559 O   0  0  0  0  0  0  0  0  0  0  0  0
  -29.1936  -17.1162   22.6752 O   0  0  0  0  0  0  0  0  0  0  0  0
  -23.1512  -11.8696   20.9453 O   0  0  0  0  0  0  0  0  0  0  0  0
  -21.2674  -24.9743   26.2600 O   0  0  0  0  0  0  0  0  0  1  0  0
  -22.8764   -6.4021   21.6041 F   0  0  0  0  0  0  0  0  0  0  0  0
  -21.6866  -10.3028   19.2011 F   0  0  0  0  0  0  0  0  0  0  0  0
  1  2  1  0  0  0  0
  1  5  2  0  0  0  0
  2  6  2  0  0  0  0
  3  8  2  0  0  0  0
  3 15  1  0  0  0  0
  4  9  1  0  0  0  0
  4 15  2  0  0  0  0
  5 17  1  0  0  0  0
  6 19  1  0  0  0  0
  7 10  2  0  0  0  0
  7 18  1  0  0  0  0
  8 21  1  0  0  0  0
  9 21  2  0  0  0  0
 10 22  1  0  0  0  0
 11 12  2  0  0  0  0
 11 23  1  0  0  0  0
 12 24  1  0  0  0  0
 13 20  1  0  0  0  0
 13 22  2  0  0  0  0
 14 24  2  0  0  0  0
 14 25  1  0  0  0  0
 15 26  1  0  0  0  0
 16 26  1  0  0  0  0
 16 27  2  0  0  0  0
 16 28  1  0  0  0  0
 17 19  2  0  0  0  0
 17 33  1  0  0  0  0
 18 20  2  0  0  0  0
 18 34  1  0  0  0  0
 19 49  1  0  0  0  0
 20 35  1  0  0  0  0
 21 85  1  0  0  0  0
 22 86  1  0  0  0  0
 23 25  2  0  0  0  0
 23 85  1  0  0  0  0
 24 87  1  0  0  0  0
 25 88  1  0  0  0  0
 26 68  2  0  0  0  0
 27 69  1  0  0  0  0
 27 74  1  0  0  0  0
 28 75  1  0  0  0  0
 28 80  2  0  0  0  0
 29 50  1  0  0  0  0
 29 76  1  0  0  0  0
 29 81  2  0  0  0  0
 30 64  1  0  0  0  0
 30 70  1  0  0  0  0
 30 82  2  0  0  0  0
 31 65  1  0  0  0  0
 31 77  1  0  0  0  0
 31 83  2  0  0  0  0
 32 71  1  0  0  0  0
 32 72  1  0  0  0  0
 32 84  2  0  0  0  0
 33 36  1  0  0  0  0
 34 50  1  0  0  0  0
 35 70  1  0  0  0  0
 36 38  1  0  0  0  0
 37 39  1  0  0  0  0
 37 44  1  0  0  0  0
 38 49  1  0  0  0  0
 39 52  1  0  0  0  0
 40 45  1  0  0  0  0
 40 53  1  0  0  0  0
 41 46  1  0  0  0  0
 41 53  1  0  0  0  0
 42 47  1  0  0  0  0
 42 54  1  0  0  0  0
 43 51  1  0  0  0  0
 43 55  1  0  0  0  0
 44 71  1  0  0  0  0
 45 72  1  0  0  0  0
 46 72  1  0  0  0  0
 47 73  1  0  0  0  0
 48 52  1  0  0  0  0
 48 71  1  0  0  0  0
 49 76  1  0  0  0  0
 50 70  1  0  0  0  0
 51 55  1  0  0  0  0
 51 66  1  0  0  0  0
 52 69  1  0  0  0  0
 53 73  1  0  0  0  0
 54 56  1  0  0  0  0
 54 78  1  0  0  0  0
 55 86  1  0  0  0  0
 56 57  1  0  0  0  0
 56 73  1  0  0  0  0
 58 65  1  0  0  0  0
 59 66  1  0  0  0  0
 60 67  1  0  0  0  0
 61 67  1  0  0  0  0
 62 67  1  0  0  0  0
 63 79  1  0  0  0  0
 64 67  1  0  0  0  0
 64 77  1  0  0  0  0
 65 79  1  0  0  0  0
 66 78  1  0  0  0  0
 68 69  1  0  0  0  0
M  CHG  2  78   1  79   1
M  ISO  4  32 100  55 101  72 100  86 101
M  END
> <Batch ID>
0171

> <Smiles>
CNC(C)C(=O)NC(C(=O)N1Cc2cc([101O:1][101CH:1]3CC3C(C)NC3CCN(C4CC[100N:0]([100C:0](=O)N5CCCC(n6nc(-c7ccc(Oc8ccc(F)cc8F)cc7)c(C(N)=O)c6N)C5)CC4)C3C)ccc2CC1C(=O)NC1CCCc2ccccc21)C(C)(C)C

> <Shape>
0.269

> <Color>
0.070

> <Negative vol penalty>
0.000

$$$$

  -OEChem-04052322373D

 86 95  0     1  0  0  0  0  0999 V2000
  -16.4367  -28.9302   23.4173 C   0  0  0  0  0  0  0  0  0  0  0  0
  -17.3466  -28.0484   22.8430 C   0  0  0  0  0  0  0  0  0  0  0  0
  -24.2901   -8.9644   21.5606 C   0  0  0  0  0  0  0  0  0  0  0  0
  -24.4132  -10.6107   23.3245 C   0  0  0  0  0  0  0  0  0  0  0  0
  -16.8806  -30.1404   23.9485 C   0  0  0  0  0  0  0  0  0  0  0  0
  -18.7011  -28.3769   22.7986 C   0  0  0  0  0  0  0  0  0  0  0  0
  -23.4405  -24.5303   23.2966 C   0  0  0  0  0  0  0  0  0  0  0  0
  -23.9127   -7.9959   22.4907 C   0  0  0  0  0  0  0  0  0  0  0  0
  -24.0357   -9.6423   24.2547 C   0  0  0  0  0  0  0  0  0  0  0  0
  -24.2628  -23.9271   22.3460 C   0  0  0  0  0  0  0  0  0  0  0  0
  -22.5666   -5.1747   24.3464 C   0  0  0  0  0  0  0  0  0  0  0  0
  -21.5082   -4.3305   24.0106 C   0  0  0  0  0  0  0  0  0  0  0  0
  -30.0870  -21.4853   19.4630 C   0  0  0  0  0  0  0  0  0  0  0  0
  -27.3296  -21.6604   18.8751 C   0  0  0  0  0  0  0  0  0  0  0  0
  -25.8897  -25.6824   22.6484 C   0  0  0  0  0  0  0  0  0  0  0  0
  -20.0467   -6.2436   23.8077 C   0  0  0  0  0  0  0  0  0  0  0  0
  -24.5404  -10.2718   21.9775 C   0  0  0  0  0  0  0  0  0  0  0  0
  -24.0825  -12.1229   20.2829 C   0  0  0  0  0  0  0  0  0  0  0  0
  -18.2425  -30.4796   23.9192 C   0  0  0  0  0  0  0  0  0  0  0  0
  -23.8323  -25.7220   23.9233 C   0  0  0  0  0  0  0  0  0  0  0  0
  -19.1635  -29.5934   23.3286 C   0  0  0  0  0  0  0  0  0  0  0  0
  -29.3259  -20.3454   19.2590 C   0  0  0  0  0  0  0  0  0  0  0  0
  -27.9560  -20.4254   18.9717 C   0  0  0  0  0  0  0  0  0  0  0  0
  -25.0717  -26.2973   23.6085 C   0  0  0  0  0  0  0  0  0  0  0  0
  -29.4610  -22.7282   19.3594 C   0  0  0  0  0  0  0  0  0  0  0  0
  -28.0921  -22.8152   19.0667 C   0  0  0  0  0  0  0  0  0  0  0  0
  -23.7855   -8.3348   23.8378 C   0  0  0  0  0  0  0  0  0  0  0  0
  -25.4864  -24.5047   22.0197 C   0  0  0  0  0  0  0  0  0  0  0  0
  -22.3651   -6.5533   24.4129 C   0  0  0  0  0  0  0  0  0  0  0  0
  -20.2483   -4.8650   23.7412 C   0  0  0  0  0  0  0  0  0  0  0  0
  -21.1051   -7.0878   24.1435 C   0  0  0  0  0  0  0  0  0  0  0  0
  -24.9308  -11.2725   21.0171 C   0  0  0  0  0  0  0  0  0  0  0  0
  -24.9348  -12.8806   19.5174 C   0  0  0  0  0  0  0  0  0  0  0  0
  -22.6520  -12.2193   20.2921 C   0  0  0  0  0  0  0  0  0  0  0  0
  -22.6701  -28.6778   24.0488 C   0  0  0  0  0  0  0  0  0  0  0  0
  -25.0569  -29.1074   26.2030 C   0  0  0  0  0  0  0  0  0  0  0  0
  -28.0990  -28.1183   27.3923 C   0  0  0  0  0  0  0  0  0  0  0  0
  -29.5838  -15.9188   18.9687 C   0  0  0  0  0  0  0  0  0  0  0  0
  -18.6686  -31.8201   24.4635 C   0  0  0  0  0  0  0  0  0  0  0  0
  -22.9458  -26.3458   24.9661 C   0  0  0  0  0  0  0  0  0  0  0  0
  -29.7816  -18.9205   19.3438 C   0  0  0  0  0  0  0  0  0  0  0  0
  -25.5477  -27.5652   24.2675 C   0  0  0  0  0  0  0  0  0  0  0  0
  -20.1708  -31.9266   24.7130 C   0  0  0  0  0  0  0  0  0  0  0  0
  -29.8920  -12.3869   18.6410 C   0  0  0  0  0  0  0  0  0  0  0  0
  -20.9501  -31.3874   23.5176 C   0  0  0  0  0  0  0  0  0  0  0  0
  -28.5619  -11.8525   19.1750 C   0  0  0  0  0  0  0  0  0  0  0  0
  -30.3629  -13.6115   19.4225 C   0  0  0  0  0  0  0  0  0  0  0  0
  -28.0458  -14.1691   20.0501 C   0  0  0  0  0  0  0  0  0  0  0  0
  -20.6441  -29.9030   23.2838 C   0  0  1  0  0  0  0  0  0  0  0  0
  -23.2148  -27.8340   25.1663 C   0  0  1  0  0  0  0  0  0  0  0  0
  -27.5023  -12.9677   19.2579 C   0  0  2  0  0  0  0  0  0  0  0  0
  -27.3494  -19.0399   18.8390 C   0  0  0  0  0  0  0  0  0  0  0  0
  -28.6548  -18.1843   18.5642 C   0  0  1  0  0  0  0  0  0  0  0  0
  -30.2748  -23.9637   19.5707 C   0  0  0  0  0  0  0  0  0  0  0  0
  -26.2985  -18.9479   17.7243 C   0  0  0  0  0  0  0  0  0  0  0  0
  -26.6765  -18.6848   20.1835 C   0  0  0  0  0  0  0  0  0  0  0  0
  -29.0415  -18.1177   17.0700 C   0  0  0  0  0  0  0  0  0  0  0  0
  -29.8111  -28.6853   29.1371 C   0  0  0  0  0  0  0  0  0  0  0  0
  -25.9665  -31.4927   24.5319 C   0  0  0  0  0  0  0  0  0  0  0  0
  -28.1551  -31.4197   25.7456 C   0  0  0  0  0  0  0  0  0  0  0  0
  -26.0469  -31.8599   27.0043 C   0  0  0  0  0  0  0  0  0  0  0  0
  -27.8339  -25.4670   28.6802 C   0  0  0  0  0  0  0  0  0  0  0  0
  -27.4192  -24.1457   18.9618 C   0  0  0  0  0  0  0  0  0  0  0  0
  -27.1341  -24.7770   20.3265 C   0  0  0  0  0  0  0  0  0  1  0  0
  -26.5031  -29.5336   26.1256 C   0  0  1  0  0  0  0  0  0  0  0  0
  -28.5886  -27.8448   28.8029 C   0  0  2  0  0  0  0  0  0  0  0  0
  -26.6584  -31.0536   25.8378 C   0  0  0  0  0  0  0  0  0  0  0  0
  -26.2228  -11.4708   20.7426 N   0  0  0  0  0  0  0  0  0  0  0  0
  -26.1927  -12.4544   19.8273 N   0  0  0  0  0  0  0  0  0  0  0  0
  -24.6425  -28.1406   25.2760 N   0  0  0  0  0  0  0  0  0  0  0  0
  -29.3126  -14.6319   19.4621 N   0  0  0  0  0  0  0  0  0  0  0  0
  -24.7234  -13.8631   18.6161 N   0  0  0  0  0  0  0  0  0  0  0  0
  -21.9302  -11.3660   21.1378 N   0  0  0  0  0  0  0  0  0  0  0  0
  -21.3622  -29.0829   24.2357 N   0  0  0  0  0  0  0  0  0  0  0  0
  -27.1253  -29.0943   27.3699 N   0  0  0  0  0  0  0  0  0  0  0  0
  -28.5316  -16.8237   19.0379 N   0  0  0  0  0  0  0  0  0  0  0  0
  -28.9505  -26.4072   28.9560 N   0  3  0  0  0  0  0  0  0  0  0  0
  -22.0314  -13.0266   19.5596 O   0  0  0  0  0  0  0  0  0  0  0  0
  -23.3840  -28.9430   23.0887 O   0  0  0  0  0  0  0  0  0  0  0  0
  -24.3239  -29.6084   27.0593 O   0  0  0  0  0  0  0  0  0  0  0  0
  -28.5392  -27.5281   26.4082 O   0  0  0  0  0  0  0  0  0  0  0  0
  -30.6806  -16.2362   18.4963 O   0  0  0  0  0  0  0  0  0  0  0  0
  -23.4170   -7.3901   24.7457 O   0  0  0  0  0  0  0  0  0  0  0  0
  -26.2963  -23.9142   21.0852 O   0  0  0  0  0  0  0  0  0  1  0  0
  -19.2324   -4.0543   23.4172 F   0  0  0  0  0  0  0  0  0  0  0  0
  -20.9057   -8.4115   24.2047 F   0  0  0  0  0  0  0  0  0  0  0  0
  1  2  1  0  0  0  0
  1  5  2  0  0  0  0
  2  6  2  0  0  0  0
  3  8  2  0  0  0  0
  3 17  1  0  0  0  0
  4  9  1  0  0  0  0
  4 17  2  0  0  0  0
  5 19  1  0  0  0  0
  6 21  1  0  0  0  0
  7 10  2  0  0  0  0
  7 20  1  0  0  0  0
  8 27  1  0  0  0  0
  9 27  2  0  0  0  0
 10 28  1  0  0  0  0
 11 12  2  0  0  0  0
 11 29  1  0  0  0  0
 12 30  1  0  0  0  0
 13 22  2  0  0  0  0
 13 25  1  0  0  0  0
 14 23  2  0  0  0  0
 14 26  1  0  0  0  0
 15 24  1  0  0  0  0
 15 28  2  0  0  0  0
 16 30  2  0  0  0  0
 16 31  1  0  0  0  0
 17 32  1  0  0  0  0
 18 32  1  0  0  0  0
 18 33  2  0  0  0  0
 18 34  1  0  0  0  0
 19 21  2  0  0  0  0
 19 39  1  0  0  0  0
 20 24  2  0  0  0  0
 20 40  1  0  0  0  0
 21 49  1  0  0  0  0
 22 23  1  0  0  0  0
 22 41  1  0  0  0  0
 23 52  1  0  0  0  0
 24 42  1  0  0  0  0
 25 26  2  0  0  0  0
 25 54  1  0  0  0  0
 26 63  1  0  0  0  0
 27 83  1  0  0  0  0
 28 84  1  0  0  0  0
 29 31  2  0  0  0  0
 29 83  1  0  0  0  0
 30 85  1  0  0  0  0
 31 86  1  0  0  0  0
 32 68  2  0  0  0  0
 33 69  1  0  0  0  0
 33 72  1  0  0  0  0
 34 73  1  0  0  0  0
 34 78  2  0  0  0  0
 35 50  1  0  0  0  0
 35 74  1  0  0  0  0
 35 79  2  0  0  0  0
 36 65  1  0  0  0  0
 36 70  1  0  0  0  0
 36 80  2  0  0  0  0
 37 66  1  0  0  0  0
 37 75  1  0  0  0  0
 37 81  2  0  0  0  0
 38 71  1  0  0  0  0
 38 76  1  0  0  0  0
 38 82  2  0  0  0  0
 39 43  1  0  0  0  0
 40 50  1  0  0  0  0
 41 53  1  0  0  0  0
 42 70  1  0  0  0  0
 43 45  1  0  0  0  0
 44 46  1  0  0  0  0
 44 47  1  0  0  0  0
 45 49  1  0  0  0  0
 46 51  1  0  0  0  0
 47 71  1  0  0  0  0
 48 51  1  0  0  0  0
 48 71  1  0  0  0  0
 49 74  1  0  0  0  0
 50 70  1  0  0  0  0
 51 69  1  0  0  0  0
 52 53  1  0  0  0  0
 52 55  1  0  0  0  0
 52 56  1  0  0  0  0
 53 57  1  0  0  0  0
 53 76  1  0  0  0  0
 58 66  1  0  0  0  0
 59 67  1  0  0  0  0
 60 67  1  0  0  0  0
 61 67  1  0  0  0  0
 62 77  1  0  0  0  0
 63 64  1  0  0  0  0
 64 84  1  0  0  0  0
 65 67  1  0  0  0  0
 65 75  1  0  0  0  0
 66 77  1  0  0  0  0
 68 69  1  0  0  0  0
M  CHG  1  77   1
M  ISO  4  38 100  64 101  76 100  84 101
M  END
> <Batch ID>
0171

> <Smiles>
CNC(C)C(=O)NC(C(=O)N1Cc2cc([101O:1][101CH2:1]Cc3cc4c(cc3C)CC(C)([100NH:0][100C:0](=O)N3CCCC(n5nc(-c6ccc(Oc7ccc(F)cc7F)cc6)c(C(N)=O)c5N)C3)C4(C)C)ccc2CC1C(=O)NC1CCCc2ccccc21)C(C)(C)C

> <Shape>
0.270

> <Color>
0.112

> <Negative vol penalty>
0.000

$$$$

  -OEChem-04052322373D

 88 97  0     1  0  0  0  0  0999 V2000
  -18.7089  -32.9193   24.8656 C   0  0  0  0  0  0  0  0  0  0  0  0
  -20.0111  -33.0626   24.3976 C   0  0  0  0  0  0  0  0  0  0  0  0
  -23.3183  -14.3776   20.8074 C   0  0  0  0  0  0  0  0  0  0  0  0
  -25.6877  -14.5870   21.2305 C   0  0  0  0  0  0  0  0  0  0  0  0
  -18.1878  -31.6466   25.0947 C   0  0  0  0  0  0  0  0  0  0  0  0
  -20.7935  -31.9331   24.1595 C   0  0  0  0  0  0  0  0  0  0  0  0
  -25.9587  -29.5345   19.8141 C   0  0  0  0  0  0  0  0  0  0  0  0
  -23.3236  -13.1159   21.4021 C   0  0  0  0  0  0  0  0  0  0  0  0
  -25.6930  -13.3253   21.8252 C   0  0  0  0  0  0  0  0  0  0  0  0
  -27.2196  -28.9415   19.8645 C   0  0  0  0  0  0  0  0  0  0  0  0
  -22.7852   -9.6872   22.4872 C   0  0  0  0  0  0  0  0  0  0  0  0
  -22.1014   -8.6595   21.8377 C   0  0  0  0  0  0  0  0  0  0  0  0
  -30.0668  -21.9486   18.5029 C   0  0  0  0  0  0  0  0  0  0  0  0
  -26.1871  -26.7906   20.2206 C   0  0  0  0  0  0  0  0  0  0  0  0
  -30.3978  -22.9095   16.2933 C   0  0  0  0  0  0  0  0  0  0  0  0
  -23.5233   -8.9356   19.9040 C   0  0  0  0  0  0  0  0  0  0  0  0
  -24.5004  -15.1131   20.7215 C   0  0  0  0  0  0  0  0  0  0  0  0
  -24.2735  -17.6540   20.7397 C   0  0  0  0  0  0  0  0  0  0  0  0
  -18.9608  -30.5006   24.8501 C   0  0  0  0  0  0  0  0  0  0  0  0
  -24.8010  -28.7603   19.9777 C   0  0  0  0  0  0  0  0  0  0  0  0
  -20.2826  -30.6439   24.3868 C   0  0  0  0  0  0  0  0  0  0  0  0
  -30.2865  -23.2040   19.0538 C   0  0  0  0  0  0  0  0  0  0  0  0
  -24.9127  -27.3757   20.1692 C   0  0  0  0  0  0  0  0  0  0  0  0
  -30.5583  -24.3028   18.2275 C   0  0  0  0  0  0  0  0  0  0  0  0
  -30.6250  -24.1688   16.8497 C   0  0  0  0  0  0  0  0  0  0  0  0
  -30.1196  -21.8072   17.1142 C   0  0  0  0  0  0  0  0  0  0  0  0
  -24.5109  -12.5897   21.9110 C   0  0  0  0  0  0  0  0  0  0  0  0
  -27.3340  -27.5698   20.0707 C   0  0  0  0  0  0  0  0  0  0  0  0
  -23.8380  -10.3392   21.8451 C   0  0  0  0  0  0  0  0  0  0  0  0
  -22.4704   -8.2837   20.5461 C   0  0  0  0  0  0  0  0  0  0  0  0
  -24.2070   -9.9634   20.5535 C   0  0  0  0  0  0  0  0  0  0  0  0
  -24.4957  -16.4163   20.1068 C   0  0  0  0  0  0  0  0  0  0  0  0
  -24.3730  -18.5790   19.7293 C   0  0  0  0  0  0  0  0  0  0  0  0
  -24.0015  -17.9417   22.1177 C   0  0  0  0  0  0  0  0  0  0  0  0
  -22.4218  -28.7005   22.0846 C   0  0  0  0  0  0  0  0  0  0  0  0
  -21.1929  -26.4945   20.0485 C   0  0  0  0  0  0  0  0  0  0  0  0
  -21.7539  -24.1623   17.6210 C   0  0  0  0  0  0  0  0  0  0  0  0
  -27.2030  -18.5653   14.4528 C   0  0  0  0  0  0  0  0  0  0  0  0
  -18.3703  -29.1473   25.1576 C   0  0  0  0  0  0  0  0  0  0  0  0
  -23.4475  -29.4110   19.8940 C   0  0  0  0  0  0  0  0  0  0  0  0
  -30.7863  -25.5466   19.0299 C   0  0  0  0  0  0  0  0  0  0  0  0
  -23.7000  -26.4971   20.3303 C   0  0  0  0  0  0  0  0  0  0  0  0
  -19.1374  -27.9897   24.5238 C   0  0  0  0  0  0  0  0  0  0  0  0
  -23.7218  -19.0582   15.0137 C   0  0  0  0  0  0  0  0  0  0  0  0
  -20.6369  -28.1561   24.7492 C   0  0  0  0  0  0  0  0  0  0  0  0
  -23.5053  -18.5486   16.4397 C   0  0  0  0  0  0  0  0  0  0  0  0
  -24.7570  -18.2206   14.2662 C   0  0  0  0  0  0  0  0  0  0  0  0
  -25.8354  -17.5657   16.3832 C   0  0  0  0  0  0  0  0  0  0  0  0
  -21.1540  -29.4420   24.0930 C   0  0  1  0  0  0  0  0  0  0  0  0
  -22.3531  -28.6048   20.5867 C   0  0  1  0  0  0  0  0  0  0  0  0
  -24.8409  -18.4128   17.1954 C   0  0  2  0  0  0  0  0  0  0  0  0
  -30.3157  -23.6052   20.5180 C   0  0  0  0  0  0  0  0  0  0  0  0
  -30.1198  -25.1773   20.3893 C   0  0  1  0  0  0  0  0  0  0  0  0
  -30.9310  -25.3298   15.9683 C   0  0  0  0  0  0  0  0  0  0  0  0
  -31.6941  -23.2085   21.0877 C   0  0  0  0  0  0  0  0  0  0  0  0
  -29.2288  -22.9097   21.3505 C   0  0  0  0  0  0  0  0  0  0  0  0
  -30.7710  -25.9773   21.5292 C   0  0  0  0  0  0  0  0  0  0  0  0
  -21.2137  -22.4668   15.8515 C   0  0  0  0  0  0  0  0  0  0  0  0
  -20.9270  -24.6184   22.4401 C   0  0  0  0  0  0  0  0  0  0  0  0
  -20.6461  -22.7206   20.8315 C   0  0  0  0  0  0  0  0  0  0  0  0
  -18.9853  -24.5816   20.8643 C   0  0  0  0  0  0  0  0  0  0  0  0
  -21.6087  -26.2359   15.5143 C   0  0  0  0  0  0  0  0  0  0  0  0
  -28.6262  -25.5906   20.3328 C   0  0  0  0  0  0  0  0  0  1  0  0
  -29.9345  -20.3201   15.1192 C   0  0  0  0  0  0  0  0  0  0  0  0
  -29.6429  -18.8627   14.7956 C   0  0  0  0  0  0  0  0  0  0  0  0
  -21.2905  -24.9943   19.9117 C   0  0  1  0  0  0  0  0  0  0  0  0
  -21.0797  -23.9190   16.2828 C   0  0  2  0  0  0  0  0  0  0  0  0
  -20.4853  -24.2453   21.0108 C   0  0  0  0  0  0  0  0  0  0  0  0
  -24.7193  -16.5403   18.7958 N   0  0  0  0  0  0  0  0  0  0  0  0
  -24.6381  -17.8669   18.5967 N   0  0  0  0  0  0  0  0  0  0  0  0
  -22.3990  -27.1812   20.2472 N   0  0  0  0  0  0  0  0  0  0  0  0
  -26.0005  -18.1324   15.0355 N   0  0  0  0  0  0  0  0  0  0  0  0
  -24.2587  -19.9240   19.7081 N   0  0  0  0  0  0  0  0  0  0  0  0
  -23.9336  -16.8736   23.0225 N   0  0  0  0  0  0  0  0  0  0  0  0
  -29.8964  -20.5407   16.5308 N   0  0  0  0  0  0  0  0  0  0  0  0
  -21.2984  -29.2579   22.6649 N   0  0  0  0  0  0  0  0  0  0  0  0
  -20.8754  -24.6807   18.5487 N   0  0  0  0  0  0  0  0  0  0  0  0
  -28.3337  -18.4530   15.2525 N   0  0  0  0  0  0  0  0  0  0  0  0
  -21.6905  -24.7799   15.2309 N   0  3  0  0  0  0  0  0  0  0  0  0
  -23.8077  -19.1100   22.5313 O   0  0  0  0  0  0  0  0  0  0  0  0
  -23.4194  -28.2969   22.6707 O   0  0  0  0  0  0  0  0  0  0  0  0
  -20.0879  -27.0378   19.9744 O   0  0  0  0  0  0  0  0  0  0  0  0
  -22.9403  -23.9136   17.8241 O   0  0  0  0  0  0  0  0  0  0  0  0
  -27.2636  -19.0233   13.3067 O   0  0  0  0  0  0  0  0  0  0  0  0
  -24.5164  -11.3587   22.4916 O   0  0  0  0  0  0  0  0  0  0  0  0
  -28.5778  -26.9818   20.1215 O   0  0  0  0  0  0  0  0  0  1  0  0
  -21.8147   -7.2958   19.9230 F   0  0  0  0  0  0  0  0  0  0  0  0
  -25.2184  -10.5852   19.9320 F   0  0  0  0  0  0  0  0  0  0  0  0
  1  2  1  0  0  0  0
  1  5  2  0  0  0  0
  2  6  2  0  0  0  0
  3  8  2  0  0  0  0
  3 17  1  0  0  0  0
  4  9  1  0  0  0  0
  4 17  2  0  0  0  0
  5 19  1  0  0  0  0
  6 21  1  0  0  0  0
  7 10  2  0  0  0  0
  7 20  1  0  0  0  0
  8 27  1  0  0  0  0
  9 27  2  0  0  0  0
 10 28  1  0  0  0  0
 11 12  2  0  0  0  0
 11 29  1  0  0  0  0
 12 30  1  0  0  0  0
 13 22  1  0  0  0  0
 13 26  2  0  0  0  0
 14 23  1  0  0  0  0
 14 28  2  0  0  0  0
 15 25  2  0  0  0  0
 15 26  1  0  0  0  0
 16 30  2  0  0  0  0
 16 31  1  0  0  0  0
 17 32  1  0  0  0  0
 18 32  1  0  0  0  0
 18 33  2  0  0  0  0
 18 34  1  0  0  0  0
 19 21  2  0  0  0  0
 19 39  1  0  0  0  0
 20 23  2  0  0  0  0
 20 40  1  0  0  0  0
 21 49  1  0  0  0  0
 22 24  2  0  0  0  0
 22 52  1  0  0  0  0
 23 42  1  0  0  0  0
 24 25  1  0  0  0  0
 24 41  1  0  0  0  0
 25 54  1  0  0  0  0
 26 75  1  0  0  0  0
 27 85  1  0  0  0  0
 28 86  1  0  0  0  0
 29 31  2  0  0  0  0
 29 85  1  0  0  0  0
 30 87  1  0  0  0  0
 31 88  1  0  0  0  0
 32 69  2  0  0  0  0
 33 70  1  0  0  0  0
 33 73  1  0  0  0  0
 34 74  1  0  0  0  0
 34 80  2  0  0  0  0
 35 50  1  0  0  0  0
 35 76  1  0  0  0  0
 35 81  2  0  0  0  0
 36 66  1  0  0  0  0
 36 71  1  0  0  0  0
 36 82  2  0  0  0  0
 37 67  1  0  0  0  0
 37 77  1  0  0  0  0
 37 83  2  0  0  0  0
 38 72  1  0  0  0  0
 38 78  1  0  0  0  0
 38 84  2  0  0  0  0
 39 43  1  0  0  0  0
 40 50  1  0  0  0  0
 41 53  1  0  0  0  0
 42 71  1  0  0  0  0
 43 45  1  0  0  0  0
 44 46  1  0  0  0  0
 44 47  1  0  0  0  0
 45 49  1  0  0  0  0
 46 51  1  0  0  0  0
 47 72  1  0  0  0  0
 48 51  1  0  0  0  0
 48 72  1  0  0  0  0
 49 76  1  0  0  0  0
 50 71  1  0  0  0  0
 51 70  1  0  0  0  0
 52 53  1  0  0  0  0
 52 55  1  0  0  0  0
 52 56  1  0  0  0  0
 53 57  1  0  0  0  0
 53 63  1  0  0  0  0
 58 67  1  0  0  0  0
 59 68  1  0  0  0  0
 60 68  1  0  0  0  0
 61 68  1  0  0  0  0
 62 79  1  0  0  0  0
 63 86  1  0  0  0  0
 64 65  1  0  0  0  0
 64 75  1  0  0  0  0
 65 78  1  0  0  0  0
 66 68  1  0  0  0  0
 66 77  1  0  0  0  0
 67 79  1  0  0  0  0
 69 70  1  0  0  0  0
M  CHG  1  79   1
M  ISO  4  38 100  63 101  78 100  86 101
M  END
> <Batch ID>
0171

> <Smiles>
CNC(C)C(=O)NC(C(=O)N1Cc2cc([101O:1][101CH2:1]C3(C)Cc4c(C)cc(NCC[100NH:0][100C:0](=O)N5CCCC(n6nc(-c7ccc(Oc8ccc(F)cc8F)cc7)c(C(N)=O)c6N)C5)cc4C3(C)C)ccc2CC1C(=O)NC1CCCc2ccccc21)C(C)(C)C

> <Shape>
0.208

> <Color>
0.084

> <Negative vol penalty>
0.000

$$$$

  -OEChem-04052322373D

 87 96  0     1  0  0  0  0  0999 V2000
  -28.0652  -37.4944   23.1985 C   0  0  0  0  0  0  0  0  0  0  0  0
  -28.5137  -36.5040   22.3304 C   0  0  0  0  0  0  0  0  0  0  0  0
  -21.7896  -10.3700   20.7516 C   0  0  0  0  0  0  0  0  0  0  0  0
  -23.5034   -9.8709   22.3797 C   0  0  0  0  0  0  0  0  0  0  0  0
  -27.2892  -37.1509   24.3047 C   0  0  0  0  0  0  0  0  0  0  0  0
  -28.1873  -35.1695   22.5688 C   0  0  0  0  0  0  0  0  0  0  0  0
  -26.7626  -29.0654   19.1008 C   0  0  0  0  0  0  0  0  0  0  0  0
  -21.5135   -9.0086   20.6248 C   0  0  0  0  0  0  0  0  0  0  0  0
  -23.2273   -8.5095   22.2530 C   0  0  0  0  0  0  0  0  0  0  0  0
  -27.1603  -27.7296   19.0638 C   0  0  0  0  0  0  0  0  0  0  0  0
  -20.9020   -6.3266   23.3702 C   0  0  0  0  0  0  0  0  0  0  0  0
  -20.8018   -5.5755   24.5412 C   0  0  0  0  0  0  0  0  0  0  0  0
  -25.7474  -27.2626   20.9624 C   0  0  0  0  0  0  0  0  0  0  0  0
  -22.6267   -4.1765   23.7999 C   0  0  0  0  0  0  0  0  0  0  0  0
  -22.7845  -10.8012   21.6290 C   0  0  0  0  0  0  0  0  0  0  0  0
  -22.4801  -13.1146   22.6599 C   0  0  0  0  0  0  0  0  0  0  0  0
  -26.9450  -35.8125   24.5514 C   0  0  0  0  0  0  0  0  0  0  0  0
  -25.8612  -29.5129   20.0774 C   0  0  0  0  0  0  0  0  0  0  0  0
  -27.4071  -34.8077   23.6801 C   0  0  0  0  0  0  0  0  0  0  0  0
  -25.3379  -28.6040   21.0081 C   0  0  0  0  0  0  0  0  0  0  0  0
  -22.2324   -8.0784   21.3755 C   0  0  0  0  0  0  0  0  0  0  0  0
  -26.6549  -26.8286   19.9964 C   0  0  0  0  0  0  0  0  0  0  0  0
  -21.8644   -6.0027   22.4140 C   0  0  0  0  0  0  0  0  0  0  0  0
  -21.6642   -4.5004   24.7561 C   0  0  0  0  0  0  0  0  0  0  0  0
  -22.7268   -4.9276   22.6288 C   0  0  0  0  0  0  0  0  0  0  0  0
  -23.0705  -12.2073   21.7600 C   0  0  0  0  0  0  0  0  0  0  0  0
  -23.0899  -14.3147   22.3871 C   0  0  0  0  0  0  0  0  0  0  0  0
  -21.4707  -12.8925   23.6537 C   0  0  0  0  0  0  0  0  0  0  0  0
  -25.9898  -31.6250   22.4493 C   0  0  0  0  0  0  0  0  0  0  0  0
  -22.8314  -30.9350   22.7146 C   0  0  0  0  0  0  0  0  0  0  0  0
  -20.2931  -28.7215   22.1630 C   0  0  0  0  0  0  0  0  0  0  0  0
  -25.8205  -16.0902   17.2933 C   0  0  0  0  0  0  0  0  0  0  0  0
  -26.1437  -35.4848   25.7863 C   0  0  0  0  0  0  0  0  0  0  0  0
  -25.4217  -30.9513   20.0872 C   0  0  0  0  0  0  0  0  0  0  0  0
  -24.3519  -29.0297   22.0641 C   0  0  0  0  0  0  0  0  0  0  0  0
  -25.5280  -34.0882   25.7601 C   0  0  0  0  0  0  0  0  0  0  0  0
  -27.1849  -16.1531   20.7435 C   0  0  0  0  0  0  0  0  0  0  0  0
  -26.5605  -33.0580   25.3134 C   0  0  0  0  0  0  0  0  0  0  0  0
  -26.2416  -15.1833   21.4565 C   0  0  0  0  0  0  0  0  0  0  0  0
  -29.3585  -21.4069   18.2818 C   0  0  0  0  0  0  0  0  0  0  0  0
  -27.3546  -15.7709   19.2789 C   0  0  0  0  0  0  0  0  0  0  0  0
  -26.8250  -17.3530   15.4108 C   0  0  0  0  0  0  0  0  0  0  0  0
  -25.1282  -14.7136   19.2213 C   0  0  0  0  0  0  0  0  0  0  0  0
  -26.7899  -18.4505   17.5490 C   0  0  0  0  0  0  0  0  0  0  0  0
  -27.0532  -33.3515   23.8912 C   0  0  1  0  0  0  0  0  0  0  0  0
  -24.8942  -31.4056   21.4447 C   0  0  1  0  0  0  0  0  0  0  0  0
  -27.5131  -18.7129   15.2946 C   0  0  2  0  0  0  0  0  0  0  0  0
  -24.9040  -15.0545   20.7053 C   0  0  1  0  0  0  0  0  0  0  0  0
  -26.8533  -19.4988   16.4376 C   0  0  2  0  0  0  0  0  0  0  0  0
  -28.1434  -22.3112   18.3699 C   0  0  1  0  0  0  0  0  0  0  0  0
  -28.9911  -20.4026   17.1791 C   0  0  2  0  0  0  0  0  0  0  0  0
  -26.9910  -21.4008   17.9697 C   0  0  1  0  0  0  0  0  0  0  0  0
  -27.3441  -19.3550   13.9273 C   0  0  0  0  0  0  0  0  0  0  0  0
  -29.8941  -20.5475   15.9586 C   0  0  0  0  0  0  0  0  0  0  0  0
  -25.7319  -22.1802   17.6060 C   0  0  0  0  0  0  0  0  0  0  0  0
  -17.8279  -28.4213   22.5238 C   0  0  0  0  0  0  0  0  0  0  0  0
  -28.9973  -24.0470   21.5976 C   0  0  0  0  0  0  0  0  0  0  0  0
  -23.3387  -30.3322   25.6623 C   0  0  0  0  0  0  0  0  0  0  0  0
  -21.1296  -29.1561   25.7302 C   0  0  0  0  0  0  0  0  0  0  0  0
  -21.2278  -31.5924   25.2035 C   0  0  0  0  0  0  0  0  0  0  0  0
  -19.7732  -28.5298   19.2558 C   0  0  0  0  0  0  0  0  0  0  0  0
  -28.3520  -25.2479   19.4701 C   0  0  0  0  0  0  0  0  0  1  0  0
  -22.0197  -29.9191   23.4816 C   0  0  1  0  0  0  0  0  0  0  0  0
  -18.9082  -28.9046   21.5688 C   0  0  2  0  0  0  0  0  0  0  0  0
  -28.9001  -23.9641   20.0829 C   0  0  2  0  0  0  0  0  0  0  0  0
  -21.9490  -30.2420   25.0009 C   0  0  0  0  0  0  0  0  0  0  0  0
  -23.9851  -12.7818   20.9742 N   0  0  0  0  0  0  0  0  0  0  0  0
  -23.9738  -14.0631   21.3794 N   0  0  0  0  0  0  0  0  0  0  0  0
  -23.9578  -30.4480   22.0365 N   0  0  0  0  0  0  0  0  0  0  0  0
  -26.0576  -15.6629   18.6048 N   0  0  0  0  0  0  0  0  0  0  0  0
  -26.5360  -17.1953   16.8352 N   0  0  0  0  0  0  0  0  0  0  0  0
  -27.5859  -20.6961   16.8161 N   0  0  2  0  0  0  0  0  0  0  0  0
  -22.9508  -15.5501   22.9133 N   0  0  0  0  0  0  0  0  0  0  0  0
  -20.9521  -11.5989   23.8018 N   0  0  0  0  0  0  0  0  0  0  0  0
  -26.0720  -32.9224   22.9177 N   0  0  0  0  0  0  0  0  0  0  0  0
  -20.7194  -29.8544   22.8233 N   0  0  0  0  0  0  0  0  0  0  0  0
  -27.9788  -22.8433   19.7366 N   0  3  0  0  0  0  0  0  0  0  0  0
  -18.7858  -28.1404   20.2952 N   0  3  0  0  0  0  0  0  0  0  0  0
  -21.0295  -13.8174   24.3773 O   0  0  0  0  0  0  0  0  0  0  0  0
  -26.7065  -30.6864   22.7763 O   0  0  0  0  0  0  0  0  0  0  0  0
  -22.4749  -32.1159   22.7112 O   0  0  0  0  0  0  0  0  0  0  0  0
  -20.9312  -27.6766   22.0555 O   0  0  0  0  0  0  0  0  0  0  0  0
  -24.9726  -15.5388   16.5792 O   0  0  0  0  0  0  0  0  0  0  0  0
  -21.9631   -6.7499   21.2523 O   0  0  0  0  0  0  0  0  0  0  0  0
  -27.0445  -25.5156   19.9627 O   0  0  0  0  0  0  0  0  0  1  0  0
  -21.5689   -3.7801   25.8814 F   0  0  0  0  0  0  0  0  0  0  0  0
  -23.6543   -4.6124   21.7144 F   0  0  0  0  0  0  0  0  0  0  0  0
  1  2  1  0  0  0  0
  1  5  2  0  0  0  0
  2  6  2  0  0  0  0
  3  8  2  0  0  0  0
  3 15  1  0  0  0  0
  4  9  1  0  0  0  0
  4 15  2  0  0  0  0
  5 17  1  0  0  0  0
  6 19  1  0  0  0  0
  7 10  2  0  0  0  0
  7 18  1  0  0  0  0
  8 21  1  0  0  0  0
  9 21  2  0  0  0  0
 10 22  1  0  0  0  0
 11 12  2  0  0  0  0
 11 23  1  0  0  0  0
 12 24  1  0  0  0  0
 13 20  1  0  0  0  0
 13 22  2  0  0  0  0
 14 24  2  0  0  0  0
 14 25  1  0  0  0  0
 15 26  1  0  0  0  0
 16 26  1  0  0  0  0
 16 27  2  0  0  0  0
 16 28  1  0  0  0  0
 17 19  2  0  0  0  0
 17 33  1  0  0  0  0
 18 20  2  0  0  0  0
 18 34  1  0  0  0  0
 19 45  1  0  0  0  0
 20 35  1  0  0  0  0
 21 84  1  0  0  0  0
 22 85  1  0  0  0  0
 23 25  2  0  0  0  0
 23 84  1  0  0  0  0
 24 86  1  0  0  0  0
 25 87  1  0  0  0  0
 26 67  2  0  0  0  0
 27 68  1  0  0  0  0
 27 73  1  0  0  0  0
 28 74  1  0  0  0  0
 28 79  2  0  0  0  0
 29 46  1  0  0  0  0
 29 75  1  0  0  0  0
 29 80  2  0  0  0  0
 30 63  1  0  0  0  0
 30 69  1  0  0  0  0
 30 81  2  0  0  0  0
 31 64  1  0  0  0  0
 31 76  1  0  0  0  0
 31 82  2  0  0  0  0
 32 70  1  0  0  0  0
 32 71  1  0  0  0  0
 32 83  2  0  0  0  0
 33 36  1  0  0  0  0
 34 46  1  0  0  0  0
 35 69  1  0  0  0  0
 36 38  1  0  0  0  0
 37 39  1  0  0  0  0
 37 41  1  0  0  0  0
 38 45  1  0  0  0  0
 39 48  1  0  0  0  0
 40 50  1  0  0  0  0
 40 51  1  0  0  0  0
 41 70  1  0  0  0  0
 42 47  1  0  0  0  0
 42 71  1  0  0  0  0
 43 48  1  0  0  0  0
 43 70  1  0  0  0  0
 44 49  1  0  0  0  0
 44 71  1  0  0  0  0
 45 75  1  0  0  0  0
 46 69  1  0  0  0  0
 47 49  1  0  0  0  0
 47 53  1  0  0  0  0
 48 68  1  0  0  0  0
 49 72  1  0  0  0  0
 50 52  1  0  0  0  0
 50 77  1  0  0  0  0
 51 54  1  0  0  0  0
 51 72  1  0  0  0  0
 52 55  1  0  0  0  0
 52 72  1  0  0  0  0
 56 64  1  0  0  0  0
 57 65  1  0  0  0  0
 58 66  1  0  0  0  0
 59 66  1  0  0  0  0
 60 66  1  0  0  0  0
 61 78  1  0  0  0  0
 62 65  1  0  0  0  0
 62 85  1  0  0  0  0
 63 66  1  0  0  0  0
 63 76  1  0  0  0  0
 64 78  1  0  0  0  0
 65 77  1  0  0  0  0
 67 68  1  0  0  0  0
M  CHG  2  77   1  78   1
M  ISO  4  32 100  62 101  71 100  85 101
M  END
> <Batch ID>
0171

> <Smiles>
CNC(C)C(=O)NC(C(=O)N1Cc2cc([101O:1][101CH2:1]C(C)NC3CC(C)N(C4C[100N:0]([100C:0](=O)N5CCCC(n6nc(-c7ccc(Oc8ccc(F)cc8F)cc7)c(C(N)=O)c6N)C5)CC4C)C3C)ccc2CC1C(=O)NC1CCCc2ccccc21)C(C)(C)C

> <Shape>
0.289

> <Color>
0.093

> <Negative vol penalty>
0.000

$$$$

  -OEChem-04052322373D

 90100  0     1  0  0  0  0  0999 V2000
  -24.0809  -37.7937   18.6252 C   0  0  0  0  0  0  0  0  0  0  0  0
  -24.2685  -36.6030   17.9308 C   0  0  0  0  0  0  0  0  0  0  0  0
  -28.8545   -7.9058   17.7122 C   0  0  0  0  0  0  0  0  0  0  0  0
  -29.1321   -7.1388   19.9864 C   0  0  0  0  0  0  0  0  0  0  0  0
  -24.5920  -37.9353   19.9147 C   0  0  0  0  0  0  0  0  0  0  0  0
  -24.9684  -35.5534   18.5250 C   0  0  0  0  0  0  0  0  0  0  0  0
  -25.1798  -28.3961   18.7351 C   0  0  0  0  0  0  0  0  0  0  0  0
  -29.4176   -6.7190   17.2432 C   0  0  0  0  0  0  0  0  0  0  0  0
  -29.6952   -5.9520   19.5174 C   0  0  0  0  0  0  0  0  0  0  0  0
  -26.0768  -27.3400   18.5802 C   0  0  0  0  0  0  0  0  0  0  0  0
  -31.1124   -4.0419   15.4587 C   0  0  0  0  0  0  0  0  0  0  0  0
  -32.0658   -4.1311   14.4445 C   0  0  0  0  0  0  0  0  0  0  0  0
  -26.8462  -27.6696   20.8426 C   0  0  0  0  0  0  0  0  0  0  0  0
  -31.2349  -22.3978   19.5709 C   0  0  0  0  0  0  0  0  0  0  0  0
  -33.4634   -5.4842   15.8773 C   0  0  0  0  0  0  0  0  0  0  0  0
  -28.7117   -8.1157   19.0838 C   0  0  0  0  0  0  0  0  0  0  0  0
  -26.7691   -9.5957   19.8210 C   0  0  0  0  0  0  0  0  0  0  0  0
  -25.2902  -36.8835   20.5287 C   0  0  0  0  0  0  0  0  0  0  0  0
  -25.1169  -29.1051   19.9433 C   0  0  0  0  0  0  0  0  0  0  0  0
  -25.4905  -35.6816   19.8233 C   0  0  0  0  0  0  0  0  0  0  0  0
  -25.9458  -28.7326   21.0111 C   0  0  0  0  0  0  0  0  0  0  0  0
  -30.8798  -24.7513   19.9856 C   0  0  0  0  0  0  0  0  0  0  0  0
  -31.7316  -23.6988   19.6504 C   0  0  0  0  0  0  0  0  0  0  0  0
  -29.5312  -24.5028   20.2413 C   0  0  0  0  0  0  0  0  0  0  0  0
  -29.0345  -23.2018   20.1617 C   0  0  0  0  0  0  0  0  0  0  0  0
  -29.8379   -5.7421   18.1457 C   0  0  0  0  0  0  0  0  0  0  0  0
  -26.9122  -26.9785   19.6330 C   0  0  0  0  0  0  0  0  0  0  0  0
  -31.3344   -4.6739   16.6822 C   0  0  0  0  0  0  0  0  0  0  0  0
  -29.8863  -22.1493   19.8265 C   0  0  0  0  0  0  0  0  0  0  0  0
  -33.2413   -4.8522   14.6538 C   0  0  0  0  0  0  0  0  0  0  0  0
  -32.5099   -5.3950   16.8915 C   0  0  0  0  0  0  0  0  0  0  0  0
  -28.1306   -9.3417   19.5689 C   0  0  0  0  0  0  0  0  0  0  0  0
  -26.7385  -10.8954   20.2639 C   0  0  0  0  0  0  0  0  0  0  0  0
  -25.6335   -8.7338   19.6685 C   0  0  0  0  0  0  0  0  0  0  0  0
  -25.6306  -32.1217   20.8034 C   0  0  0  0  0  0  0  0  0  0  0  0
  -24.5208  -31.0844   23.6695 C   0  0  0  0  0  0  0  0  0  0  0  0
  -24.0070  -28.4716   25.8040 C   0  0  0  0  0  0  0  0  0  0  0  0
  -28.1462  -16.0689   20.0048 C   0  0  0  0  0  0  0  0  0  0  0  0
  -25.8650  -37.1003   21.9060 C   0  0  0  0  0  0  0  0  0  0  0  0
  -24.1251  -30.2245   20.1034 C   0  0  0  0  0  0  0  0  0  0  0  0
  -25.9029  -29.4487   22.3355 C   0  0  0  0  0  0  0  0  0  0  0  0
  -26.2709  -35.8065   22.6072 C   0  0  0  0  0  0  0  0  0  0  0  0
  -30.4745  -14.0074   21.6331 C   0  0  0  0  0  0  0  0  0  0  0  0
  -30.7671  -27.2240   19.2461 C   0  0  0  0  0  0  0  0  0  0  0  0
  -32.1299  -26.7246   18.8805 C   0  0  0  0  0  0  0  0  0  0  0  0
  -27.0653  -34.9126   21.6603 C   0  0  0  0  0  0  0  0  0  0  0  0
  -29.9614  -12.6167   21.2602 C   0  0  0  0  0  0  0  0  0  0  0  0
  -28.9546  -19.3345   21.5636 C   0  0  0  0  0  0  0  0  0  0  0  0
  -30.6959  -18.8078   19.8028 C   0  0  0  0  0  0  0  0  0  0  0  0
  -30.3902  -14.9833   20.4582 C   0  0  0  0  0  0  0  0  0  0  0  0
  -27.9924  -18.3761   20.8633 C   0  0  0  0  0  0  0  0  0  0  0  0
  -29.6932  -17.8651   19.1413 C   0  0  0  0  0  0  0  0  0  0  0  0
  -28.5333  -13.6808   19.4725 C   0  0  0  0  0  0  0  0  0  0  0  0
  -31.4150  -26.1457   20.0703 C   0  0  0  0  0  0  0  0  0  0  0  0
  -26.2228  -34.5114   20.4435 C   0  0  1  0  0  0  0  0  0  0  0  0
  -24.5072  -31.2083   21.2049 C   0  0  1  0  0  0  0  0  0  0  0  0
  -28.5507  -12.6935   20.6498 C   0  0  1  0  0  0  0  0  0  0  0  0
  -30.0104  -19.9066   20.6169 C   0  0  0  0  0  0  0  0  0  0  0  0
  -33.1800  -23.9356   19.3714 C   0  0  0  0  0  0  0  0  0  0  0  0
  -26.7944  -22.7020   19.1525 C   0  0  0  0  0  0  0  0  0  0  0  0
  -23.1156  -27.9405   28.0888 C   0  0  0  0  0  0  0  0  0  0  0  0
  -27.0649  -32.2115   24.9214 C   0  0  0  0  0  0  0  0  0  0  0  0
  -26.5808  -30.8472   26.9642 C   0  0  0  0  0  0  0  0  0  0  0  0
  -24.9818  -32.6210   26.2433 C   0  0  0  0  0  0  0  0  0  0  0  0
  -21.9075  -26.7016   24.7003 C   0  0  0  0  0  0  0  0  0  0  0  0
  -27.5898  -22.9264   20.4340 C   0  0  0  0  0  0  0  0  0  0  0  0
  -28.6153  -25.6301   20.6011 C   0  0  0  0  0  0  0  0  0  1  0  0
  -25.1471  -30.4829   24.9043 C   0  0  1  0  0  0  0  0  0  0  0  0
  -22.7895  -28.0518   26.6076 C   0  0  2  0  0  0  0  0  0  0  0  0
  -25.9460  -31.5282   25.7328 C   0  0  0  0  0  0  0  0  0  0  0  0
  -28.9087  -10.3955   19.8299 N   0  0  0  0  0  0  0  0  0  0  0  0
  -28.0332  -11.3244   20.2505 N   0  0  0  0  0  0  0  0  0  0  0  0
  -24.9208  -30.5405   22.4407 N   0  0  0  0  0  0  0  0  0  0  0  0
  -29.0377  -14.9922   19.8850 N   0  0  0  0  0  0  0  0  0  0  0  0
  -28.7100  -17.3521   20.1047 N   0  0  0  0  0  0  0  0  0  0  0  0
  -25.7308  -11.7019   20.6597 N   0  0  0  0  0  0  0  0  0  0  0  0
  -25.8431   -7.4288   19.2020 N   0  0  0  0  0  0  0  0  0  0  0  0
  -25.2919  -33.4613   20.7974 N   0  0  0  0  0  0  0  0  0  0  0  0
  -24.0637  -29.8394   25.6395 N   0  0  0  0  0  0  0  0  0  0  0  0
  -22.2881  -26.7300   26.1361 N   0  3  0  0  0  0  0  0  0  0  0  0
  -24.4657   -9.1149   19.9222 O   0  0  0  0  0  0  0  0  0  0  0  0
  -26.7243  -31.6463   20.5213 O   0  0  0  0  0  0  0  0  0  0  0  0
  -23.7013  -31.9983   23.7911 O   0  0  0  0  0  0  0  0  0  0  0  0
  -24.8279  -27.6669   25.3691 O   0  0  0  0  0  0  0  0  0  0  0  0
  -26.9210  -15.8968   20.0250 O   0  0  0  0  0  0  0  0  0  0  0  0
  -30.3873   -4.5838   17.6884 O   0  0  0  0  0  0  0  0  0  0  0  0
  -29.4168  -20.8648   19.7436 O   0  0  0  0  0  0  0  0  0  0  0  0
  -27.7956  -25.9409   19.4832 O   0  0  0  0  0  0  0  0  0  1  0  0
  -34.1575   -4.9365   13.6803 F   0  0  0  0  0  0  0  0  0  0  0  0
  -32.7294   -6.0034   18.0652 F   0  0  0  0  0  0  0  0  0  0  0  0
  1  2  1  0  0  0  0
  1  5  2  0  0  0  0
  2  6  2  0  0  0  0
  3  8  2  0  0  0  0
  3 16  1  0  0  0  0
  4  9  1  0  0  0  0
  4 16  2  0  0  0  0
  5 18  1  0  0  0  0
  6 20  1  0  0  0  0
  7 10  2  0  0  0  0
  7 19  1  0  0  0  0
  8 26  1  0  0  0  0
  9 26  2  0  0  0  0
 10 27  1  0  0  0  0
 11 12  2  0  0  0  0
 11 28  1  0  0  0  0
 12 30  1  0  0  0  0
 13 21  1  0  0  0  0
 13 27  2  0  0  0  0
 14 23  1  0  0  0  0
 14 29  2  0  0  0  0
 15 30  2  0  0  0  0
 15 31  1  0  0  0  0
 16 32  1  0  0  0  0
 17 32  1  0  0  0  0
 17 33  2  0  0  0  0
 17 34  1  0  0  0  0
 18 20  2  0  0  0  0
 18 39  1  0  0  0  0
 19 21  2  0  0  0  0
 19 40  1  0  0  0  0
 20 55  1  0  0  0  0
 21 41  1  0  0  0  0
 22 23  2  0  0  0  0
 22 24  1  0  0  0  0
 22 54  1  0  0  0  0
 23 59  1  0  0  0  0
 24 25  2  0  0  0  0
 24 67  1  0  0  0  0
 25 29  1  0  0  0  0
 25 66  1  0  0  0  0
 26 86  1  0  0  0  0
 27 88  1  0  0  0  0
 28 31  2  0  0  0  0
 28 86  1  0  0  0  0
 29 87  1  0  0  0  0
 30 89  1  0  0  0  0
 31 90  1  0  0  0  0
 32 71  2  0  0  0  0
 33 72  1  0  0  0  0
 33 76  1  0  0  0  0
 34 77  1  0  0  0  0
 34 81  2  0  0  0  0
 35 56  1  0  0  0  0
 35 78  1  0  0  0  0
 35 82  2  0  0  0  0
 36 68  1  0  0  0  0
 36 73  1  0  0  0  0
 36 83  2  0  0  0  0
 37 69  1  0  0  0  0
 37 79  1  0  0  0  0
 37 84  2  0  0  0  0
 38 74  1  0  0  0  0
 38 75  1  0  0  0  0
 38 85  2  0  0  0  0
 39 42  1  0  0  0  0
 40 56  1  0  0  0  0
 41 73  1  0  0  0  0
 42 46  1  0  0  0  0
 43 47  1  0  0  0  0
 43 50  1  0  0  0  0
 44 45  1  0  0  0  0
 44 54  1  0  0  0  0
 45 54  1  0  0  0  0
 46 55  1  0  0  0  0
 47 57  1  0  0  0  0
 48 51  1  0  0  0  0
 48 58  1  0  0  0  0
 49 52  1  0  0  0  0
 49 58  1  0  0  0  0
 50 74  1  0  0  0  0
 51 75  1  0  0  0  0
 52 75  1  0  0  0  0
 53 57  1  0  0  0  0
 53 74  1  0  0  0  0
 55 78  1  0  0  0  0
 56 73  1  0  0  0  0
 57 72  1  0  0  0  0
 58 87  1  0  0  0  0
 60 66  1  0  0  0  0
 61 69  1  0  0  0  0
 62 70  1  0  0  0  0
 63 70  1  0  0  0  0
 64 70  1  0  0  0  0
 65 80  1  0  0  0  0
 67 88  1  0  0  0  0
 68 70  1  0  0  0  0
 68 79  1  0  0  0  0
 69 80  1  0  0  0  0
 71 72  1  0  0  0  0
M  CHG  1  80   1
M  ISO  4  38 100  67 101  75 100  88 101
M  END
> <Batch ID>
0171

> <Smiles>
CCc1c(OC2CC[100N:0]([100C:0](=O)N3CCCC(n4nc(-c5ccc(Oc6ccc(F)cc6F)cc5)c(C(N)=O)c4N)C3)CC2)cc(C)c(C2CC2)c1[101CH2:1][101O:1]c1ccc2c(c1)CN(C(=O)C(NC(=O)C(C)NC)C(C)(C)C)C(C(=O)NC1CCCc3ccccc31)C2

> <Shape>
0.242

> <Color>
0.105

> <Negative vol penalty>
0.000

$$$$

  -OEChem-04052322373D

 85 94  0     1  0  0  0  0  0999 V2000
  -16.5233  -29.8419   24.0784 C   0  0  0  0  0  0  0  0  0  0  0  0
  -16.9046  -28.7267   23.3391 C   0  0  0  0  0  0  0  0  0  0  0  0
  -24.7086   -8.8844   21.9712 C   0  0  0  0  0  0  0  0  0  0  0  0
  -23.6549   -9.2288   19.8245 C   0  0  0  0  0  0  0  0  0  0  0  0
  -17.3312  -30.9781   24.0909 C   0  0  0  0  0  0  0  0  0  0  0  0
  -18.0936  -28.7476   22.6110 C   0  0  0  0  0  0  0  0  0  0  0  0
  -24.2211  -23.9105   22.9003 C   0  0  0  0  0  0  0  0  0  0  0  0
  -23.5374   -8.2991   22.4521 C   0  0  0  0  0  0  0  0  0  0  0  0
  -22.4837   -8.6435   20.3054 C   0  0  0  0  0  0  0  0  0  0  0  0
  -25.4290  -23.2164   22.9722 C   0  0  0  0  0  0  0  0  0  0  0  0
  -21.9761   -5.3078   22.2342 C   0  0  0  0  0  0  0  0  0  0  0  0
  -22.0952   -4.1273   22.9675 C   0  0  0  0  0  0  0  0  0  0  0  0
  -26.6128  -25.1737   22.1876 C   0  0  0  0  0  0  0  0  0  0  0  0
  -21.0623   -5.2036   24.8680 C   0  0  0  0  0  0  0  0  0  0  0  0
  -24.7673   -9.3493   20.6573 C   0  0  0  0  0  0  0  0  0  0  0  0
  -27.0539   -9.3058   19.5271 C   0  0  0  0  0  0  0  0  0  0  0  0
  -18.5356  -31.0094   23.3703 C   0  0  0  0  0  0  0  0  0  0  0  0
  -24.2063  -25.2453   22.4860 C   0  0  0  0  0  0  0  0  0  0  0  0
  -18.9178  -29.8858   22.6128 C   0  0  0  0  0  0  0  0  0  0  0  0
  -25.4074  -25.8779   22.1256 C   0  0  0  0  0  0  0  0  0  0  0  0
  -22.4249   -8.1786   21.6193 C   0  0  0  0  0  0  0  0  0  0  0  0
  -26.6219  -23.8463   22.6165 C   0  0  0  0  0  0  0  0  0  0  0  0
  -21.4002   -6.4363   22.8178 C   0  0  0  0  0  0  0  0  0  0  0  0
  -21.6382   -4.0752   24.2844 C   0  0  0  0  0  0  0  0  0  0  0  0
  -20.9433   -6.3842   24.1346 C   0  0  0  0  0  0  0  0  0  0  0  0
  -25.9767   -9.9545   20.1601 C   0  0  0  0  0  0  0  0  0  0  0  0
  -27.9460  -10.3126   19.2499 C   0  0  0  0  0  0  0  0  0  0  0  0
  -28.4012  -18.9629   25.9142 C   0  0  0  0  0  0  0  0  0  0  0  0
  -27.2321   -7.9173   19.2174 C   0  0  0  0  0  0  0  0  0  0  0  0
  -22.1642  -28.3177   21.8036 C   0  0  0  0  0  0  0  0  0  0  0  0
  -24.7443  -29.2495   23.1767 C   0  0  0  0  0  0  0  0  0  0  0  0
  -27.5164  -29.8183   25.0817 C   0  0  0  0  0  0  0  0  0  0  0  0
  -29.0922  -15.4321   21.6749 C   0  0  0  0  0  0  0  0  0  0  0  0
  -19.3524  -32.2772   23.3764 C   0  0  0  0  0  0  0  0  0  0  0  0
  -22.9212  -26.0131   22.3347 C   0  0  0  0  0  0  0  0  0  0  0  0
  -25.3392  -27.3043   21.6526 C   0  0  0  0  0  0  0  0  0  0  0  0
  -28.4055  -19.8878   27.1079 C   0  0  0  0  0  0  0  0  0  0  0  0
  -20.7824  -32.0829   22.8788 C   0  0  0  0  0  0  0  0  0  0  0  0
  -28.6337  -21.2600   26.4869 C   0  0  0  0  0  0  0  0  0  0  0  0
  -28.1481  -14.9974   18.3201 C   0  0  0  0  0  0  0  0  0  0  0  0
  -20.7935  -31.2604   21.5942 C   0  0  0  0  0  0  0  0  0  0  0  0
  -27.5823  -13.5778   18.3453 C   0  0  0  0  0  0  0  0  0  0  0  0
  -28.0676  -18.5758   22.8761 C   0  0  0  0  0  0  0  0  0  0  0  0
  -30.3346  -17.9030   23.7592 C   0  0  0  0  0  0  0  0  0  0  0  0
  -27.7443  -15.7973   19.5600 C   0  0  0  0  0  0  0  0  0  0  0  0
  -28.3900  -17.8651   21.5585 C   0  0  0  0  0  0  0  0  0  0  0  0
  -30.6204  -17.2328   22.4185 C   0  0  0  0  0  0  0  0  0  0  0  0
  -27.5088  -13.7086   20.8643 C   0  0  0  0  0  0  0  0  0  0  0  0
  -20.2127  -29.8610   21.8300 C   0  0  1  0  0  0  0  0  0  0  0  0
  -23.0644  -27.5046   22.6867 C   0  0  1  0  0  0  0  0  0  0  0  0
  -27.9452  -12.8620   19.6586 C   0  0  1  0  0  0  0  0  0  0  0  0
  -29.3367  -19.0520   23.5877 C   0  0  0  0  0  0  0  0  0  0  0  0
  -29.4823  -20.9630   25.2560 C   0  0  2  0  0  0  0  0  0  0  0  0
  -28.8097  -31.6708   26.1740 C   0  0  0  0  0  0  0  0  0  0  0  0
  -29.8204  -23.3880   24.7199 C   0  0  0  0  0  0  0  0  0  0  0  0
  -25.8722  -30.0586   20.4606 C   0  0  0  0  0  0  0  0  0  0  0  0
  -27.7673  -31.1727   21.6588 C   0  0  0  0  0  0  0  0  0  0  0  0
  -25.4294  -31.9656   22.0168 C   0  0  0  0  0  0  0  0  0  0  0  0
  -27.1069  -28.6706   27.7787 C   0  0  0  0  0  0  0  0  0  0  0  0
  -27.8967  -22.1464   23.6871 C   0  0  0  0  0  0  0  0  0  1  0  0
  -26.1545  -29.7562   23.0091 C   0  0  1  0  0  0  0  0  0  0  0  0
  -27.7184  -30.6265   26.3507 C   0  0  2  0  0  0  0  0  0  0  0  0
  -29.3414  -22.0369   24.1881 C   0  0  2  0  0  0  0  0  0  0  0  0
  -26.3003  -30.7107   21.7904 C   0  0  0  0  0  0  0  0  0  0  0  0
  -26.1654  -11.2715   20.2783 N   0  0  0  0  0  0  0  0  0  0  0  0
  -27.3715  -11.4585   19.7158 N   0  0  0  0  0  0  0  0  0  0  0  0
  -29.0133  -19.6458   24.8615 N   0  0  0  0  0  0  0  0  0  0  0  0
  -24.4112  -28.0704   22.4990 N   0  0  0  0  0  0  0  0  0  0  0  0
  -28.0732  -15.0576   20.7864 N   0  0  0  0  0  0  0  0  0  0  0  0
  -29.3819  -16.8015   21.7702 N   0  0  0  0  0  0  0  0  0  0  0  0
  -29.1581  -10.3207   18.6555 N   0  0  0  0  0  0  0  0  0  0  0  0
  -26.2173   -7.0180   19.5720 N   0  0  0  0  0  0  0  0  0  0  0  0
  -21.1854  -29.0141   22.4866 N   0  0  0  0  0  0  0  0  0  0  0  0
  -26.5271  -30.3559   24.2858 N   0  0  0  0  0  0  0  0  0  0  0  0
  -28.1023  -29.7318   27.4790 N   0  3  0  0  0  0  0  0  0  0  0  0
  -27.9739  -17.8179   25.9263 O   0  0  0  0  0  0  0  0  0  0  0  0
  -28.2680   -7.4844   18.6579 O   0  0  0  0  0  0  0  0  0  0  0  0
  -22.3444  -28.3156   20.5915 O   0  0  0  0  0  0  0  0  0  0  0  0
  -23.9558  -29.8830   23.8840 O   0  0  0  0  0  0  0  0  0  0  0  0
  -28.1734  -28.8129   24.8207 O   0  0  0  0  0  0  0  0  0  0  0  0
  -29.7071  -14.5925   22.3443 O   0  0  0  0  0  0  0  0  0  0  0  0
  -21.2820   -7.6074   22.0882 O   0  0  0  0  0  0  0  0  0  0  0  0
  -27.8065  -23.1593   22.6938 O   0  0  0  0  0  0  0  0  0  1  0  0
  -21.7512   -2.9410   24.9880 F   0  0  0  0  0  0  0  0  0  0  0  0
  -20.3880   -7.4647   24.7003 F   0  0  0  0  0  0  0  0  0  0  0  0
  1  2  1  0  0  0  0
  1  5  2  0  0  0  0
  2  6  2  0  0  0  0
  3  8  2  0  0  0  0
  3 15  1  0  0  0  0
  4  9  1  0  0  0  0
  4 15  2  0  0  0  0
  5 17  1  0  0  0  0
  6 19  1  0  0  0  0
  7 10  2  0  0  0  0
  7 18  1  0  0  0  0
  8 21  1  0  0  0  0
  9 21  2  0  0  0  0
 10 22  1  0  0  0  0
 11 12  2  0  0  0  0
 11 23  1  0  0  0  0
 12 24  1  0  0  0  0
 13 20  1  0  0  0  0
 13 22  2  0  0  0  0
 14 24  2  0  0  0  0
 14 25  1  0  0  0  0
 15 26  1  0  0  0  0
 16 26  1  0  0  0  0
 16 27  2  0  0  0  0
 16 29  1  0  0  0  0
 17 19  2  0  0  0  0
 17 34  1  0  0  0  0
 18 20  2  0  0  0  0
 18 35  1  0  0  0  0
 19 49  1  0  0  0  0
 20 36  1  0  0  0  0
 21 82  1  0  0  0  0
 22 83  1  0  0  0  0
 23 25  2  0  0  0  0
 23 82  1  0  0  0  0
 24 84  1  0  0  0  0
 25 85  1  0  0  0  0
 26 65  2  0  0  0  0
 27 66  1  0  0  0  0
 27 71  1  0  0  0  0
 28 37  1  0  0  0  0
 28 67  1  0  0  0  0
 28 76  2  0  0  0  0
 29 72  1  0  0  0  0
 29 77  2  0  0  0  0
 30 50  1  0  0  0  0
 30 73  1  0  0  0  0
 30 78  2  0  0  0  0
 31 61  1  0  0  0  0
 31 68  1  0  0  0  0
 31 79  2  0  0  0  0
 32 62  1  0  0  0  0
 32 74  1  0  0  0  0
 32 80  2  0  0  0  0
 33 69  1  0  0  0  0
 33 70  1  0  0  0  0
 33 81  2  0  0  0  0
 34 38  1  0  0  0  0
 35 50  1  0  0  0  0
 36 68  1  0  0  0  0
 37 39  1  0  0  0  0
 38 41  1  0  0  0  0
 39 53  1  0  0  0  0
 40 42  1  0  0  0  0
 40 45  1  0  0  0  0
 41 49  1  0  0  0  0
 42 51  1  0  0  0  0
 43 46  1  0  0  0  0
 43 52  1  0  0  0  0
 44 47  1  0  0  0  0
 44 52  1  0  0  0  0
 45 69  1  0  0  0  0
 46 70  1  0  0  0  0
 47 70  1  0  0  0  0
 48 51  1  0  0  0  0
 48 69  1  0  0  0  0
 49 73  1  0  0  0  0
 50 68  1  0  0  0  0
 51 66  1  0  0  0  0
 52 67  1  0  0  0  0
 53 63  1  0  0  0  0
 53 67  1  0  0  0  0
 54 62  1  0  0  0  0
 55 63  1  0  0  0  0
 56 64  1  0  0  0  0
 57 64  1  0  0  0  0
 58 64  1  0  0  0  0
 59 75  1  0  0  0  0
 60 63  1  0  0  0  0
 60 83  1  0  0  0  0
 61 64  1  0  0  0  0
 61 74  1  0  0  0  0
 62 75  1  0  0  0  0
 65 66  1  0  0  0  0
M  CHG  1  75   1
M  ISO  4  33 100  60 101  70 100  83 101
M  END
> <Batch ID>
0171

> <Smiles>
CNC(C)C(=O)NC(C(=O)N1Cc2cc([101O:1][101CH2:1]C(C)C3CCC(=O)N3C3CC[100N:0]([100C:0](=O)N4CCCC(n5nc(-c6ccc(Oc7ccc(F)cc7F)cc6)c(C(N)=O)c5N)C4)CC3)ccc2CC1C(=O)NC1CCCc2ccccc21)C(C)(C)C

> <Shape>
0.248

> <Color>
0.089

> <Negative vol penalty>
0.000

$$$$

  -OEChem-04052322373D

 83 92  0     1  0  0  0  0  0999 V2000
  -30.6569  -26.3230   16.9768 C   0  0  0  0  0  0  0  0  0  0  0  0
  -29.2782  -26.1978   17.1141 C   0  0  0  0  0  0  0  0  0  0  0  0
  -30.1530  -17.0570   22.8819 C   0  0  0  0  0  0  0  0  0  0  0  0
  -29.7986  -14.9703   24.0469 C   0  0  0  0  0  0  0  0  0  0  0  0
  -31.4192  -26.8200   18.0332 C   0  0  0  0  0  0  0  0  0  0  0  0
  -28.6610  -26.5685   18.3083 C   0  0  0  0  0  0  0  0  0  0  0  0
  -23.1165  -29.0864   18.9599 C   0  0  0  0  0  0  0  0  0  0  0  0
  -31.4284  -17.1513   23.4386 C   0  0  0  0  0  0  0  0  0  0  0  0
  -31.0741  -15.0646   24.6036 C   0  0  0  0  0  0  0  0  0  0  0  0
  -21.8736  -28.5462   19.2875 C   0  0  0  0  0  0  0  0  0  0  0  0
  -34.3742  -14.5735   26.0479 C   0  0  0  0  0  0  0  0  0  0  0  0
  -35.1688  -13.4272   26.0483 C   0  0  0  0  0  0  0  0  0  0  0  0
  -22.2226  -29.1580   21.5947 C   0  0  0  0  0  0  0  0  0  0  0  0
  -35.0586  -13.3499   23.6361 C   0  0  0  0  0  0  0  0  0  0  0  0
  -21.2759  -24.7628   21.6320 C   0  0  0  0  0  0  0  0  0  0  0  0
  -29.3381  -15.9665   23.1860 C   0  0  0  0  0  0  0  0  0  0  0  0
  -27.6658  -15.2509   21.3974 C   0  0  0  0  0  0  0  0  0  0  0  0
  -30.8099  -27.2061   19.2375 C   0  0  0  0  0  0  0  0  0  0  0  0
  -23.9278  -29.6576   19.9508 C   0  0  0  0  0  0  0  0  0  0  0  0
  -29.4160  -27.0699   19.3822 C   0  0  0  0  0  0  0  0  0  0  0  0
  -23.4742  -29.7071   21.2767 C   0  0  0  0  0  0  0  0  0  0  0  0
  -20.1032  -24.1230   21.9782 C   0  0  0  0  0  0  0  0  0  0  0  0
  -31.8890  -16.1551   24.2995 C   0  0  0  0  0  0  0  0  0  0  0  0
  -21.4278  -28.5794   20.6055 C   0  0  0  0  0  0  0  0  0  0  0  0
  -33.9217  -15.1081   24.8416 C   0  0  0  0  0  0  0  0  0  0  0  0
  -35.5111  -12.8153   24.8424 C   0  0  0  0  0  0  0  0  0  0  0  0
  -34.2639  -14.4962   23.6357 C   0  0  0  0  0  0  0  0  0  0  0  0
  -28.0203  -15.8689   22.6116 C   0  0  0  0  0  0  0  0  0  0  0  0
  -18.9654  -24.9033   21.9457 C   0  0  0  0  0  0  0  0  0  0  0  0
  -26.3071  -15.4292   21.3052 C   0  0  0  0  0  0  0  0  0  0  0  0
  -20.1670  -26.7168   21.2865 C   0  0  0  0  0  0  0  0  0  1  0  0
  -28.4910  -14.5760   20.4386 C   0  0  0  0  0  0  0  0  0  0  0  0
  -26.8122  -29.0259   21.1278 C   0  0  0  0  0  0  0  0  0  0  0  0
  -26.3212  -31.7841   22.7629 C   0  0  0  0  0  0  0  0  0  0  0  0
  -24.1003  -34.0324   24.0511 C   0  0  0  0  0  0  0  0  0  0  0  0
  -22.1111  -19.1462   21.7192 C   0  0  0  0  0  0  0  0  0  0  0  0
  -31.6810  -27.6935   20.3681 C   0  0  0  0  0  0  0  0  0  0  0  0
  -25.2543  -30.2600   19.5766 C   0  0  0  0  0  0  0  0  0  0  0  0
  -24.2984  -30.3273   22.3742 C   0  0  0  0  0  0  0  0  0  0  0  0
  -30.9053  -28.4154   21.4669 C   0  0  0  0  0  0  0  0  0  0  0  0
  -22.9437  -17.0469   24.7043 C   0  0  0  0  0  0  0  0  0  0  0  0
  -29.6580  -27.6243   21.8479 C   0  0  0  0  0  0  0  0  0  0  0  0
  -24.3470  -16.5662   24.3387 C   0  0  0  0  0  0  0  0  0  0  0  0
  -19.8203  -21.7423   21.1585 C   0  0  0  0  0  0  0  0  0  0  0  0
  -21.3918  -22.2388   23.0802 C   0  0  0  0  0  0  0  0  0  0  0  0
  -22.6398  -18.3999   24.0717 C   0  0  0  0  0  0  0  0  0  0  0  0
  -19.8437  -20.2624   21.5510 C   0  0  0  0  0  0  0  0  0  0  0  0
  -21.3570  -20.7567   23.4419 C   0  0  0  0  0  0  0  0  0  0  0  0
  -24.2103  -17.9440   22.2143 C   0  0  0  0  0  0  0  0  0  0  0  0
  -20.0933  -22.6565   22.3664 C   0  0  0  0  0  0  0  0  0  0  0  0
  -28.7070  -27.4847   20.6532 C   0  0  1  0  0  0  0  0  0  0  0  0
  -26.2205  -30.3554   20.7534 C   0  0  1  0  0  0  0  0  0  0  0  0
  -24.5489  -16.5694   22.8140 C   0  0  1  0  0  0  0  0  0  0  0  0
  -17.6390  -24.3176   22.3016 C   0  0  0  0  0  0  0  0  0  0  0  0
  -23.9970  -36.1659   25.3683 C   0  0  0  0  0  0  0  0  0  0  0  0
  -26.9452  -30.2349   25.3164 C   0  0  0  0  0  0  0  0  0  0  0  0
  -25.9193  -32.1092   26.6213 C   0  0  0  0  0  0  0  0  0  0  0  0
  -27.9388  -32.5278   25.2182 C   0  0  0  0  0  0  0  0  0  0  0  0
  -22.7648  -35.4712   21.8363 C   0  0  0  0  0  0  0  0  0  0  0  0
  -25.7070  -32.1427   24.0945 C   0  0  1  0  0  0  0  0  0  0  0  0
  -24.0450  -35.5478   23.9796 C   0  0  2  0  0  0  0  0  0  0  0  0
  -26.6126  -31.7401   25.2925 C   0  0  0  0  0  0  0  0  0  0  0  0
  -21.3445  -26.0633   21.2796 N   0  0  0  0  0  0  0  0  0  0  0  0
  -26.9713  -16.4002   23.2452 N   0  0  0  0  0  0  0  0  0  0  0  0
  -18.9609  -26.2083   21.6033 N   0  0  0  0  0  0  0  0  0  0  0  0
  -25.9444  -16.1166   22.4260 N   0  0  0  0  0  0  0  0  0  0  0  0
  -25.5908  -30.8973   21.9592 N   0  0  0  0  0  0  0  0  0  0  0  0
  -22.8753  -18.3874   22.6214 N   0  0  0  0  0  0  0  0  0  0  0  0
  -21.0856  -19.9340   22.2634 N   0  0  0  0  0  0  0  0  0  0  0  0
  -25.3991  -15.0636   20.3755 N   0  0  0  0  0  0  0  0  0  0  0  0
  -29.8668  -14.4831   20.6891 N   0  0  0  0  0  0  0  0  0  0  0  0
  -27.9726  -28.7143   20.4454 N   0  0  0  0  0  0  0  0  0  0  0  0
  -25.3981  -33.5671   24.0312 N   0  0  0  0  0  0  0  0  0  0  0  0
  -22.8357  -35.9871   23.2276 N   0  3  0  0  0  0  0  0  0  0  0  0
  -28.0246  -14.0847   19.3829 O   0  0  0  0  0  0  0  0  0  0  0  0
  -26.2578  -28.3347   21.9742 O   0  0  0  0  0  0  0  0  0  0  0  0
  -27.4055  -32.2785   22.4443 O   0  0  0  0  0  0  0  0  0  0  0  0
  -23.0930  -33.3317   24.1215 O   0  0  0  0  0  0  0  0  0  0  0  0
  -22.3303  -19.1176   20.5018 O   0  0  0  0  0  0  0  0  0  0  0  0
  -33.1336  -16.2467   24.8428 O   0  0  0  0  0  0  0  0  0  0  0  0
  -20.2000  -28.0456   20.9322 O   0  0  0  0  0  0  0  0  0  1  0  0
  -36.2754  -11.7154   24.8429 F   0  0  0  0  0  0  0  0  0  0  0  0
  -33.8332  -15.0058   22.4735 F   0  0  0  0  0  0  0  0  0  0  0  0
  1  2  1  0  0  0  0
  1  5  2  0  0  0  0
  2  6  2  0  0  0  0
  3  8  2  0  0  0  0
  3 16  1  0  0  0  0
  4  9  1  0  0  0  0
  4 16  2  0  0  0  0
  5 18  1  0  0  0  0
  6 20  1  0  0  0  0
  7 10  2  0  0  0  0
  7 19  1  0  0  0  0
  8 23  1  0  0  0  0
  9 23  2  0  0  0  0
 10 24  1  0  0  0  0
 11 12  2  0  0  0  0
 11 25  1  0  0  0  0
 12 26  1  0  0  0  0
 13 21  1  0  0  0  0
 13 24  2  0  0  0  0
 14 26  2  0  0  0  0
 14 27  1  0  0  0  0
 15 22  1  0  0  0  0
 15 63  2  0  0  0  0
 16 28  1  0  0  0  0
 17 28  1  0  0  0  0
 17 30  2  0  0  0  0
 17 32  1  0  0  0  0
 18 20  2  0  0  0  0
 18 37  1  0  0  0  0
 19 21  2  0  0  0  0
 19 38  1  0  0  0  0
 20 51  1  0  0  0  0
 21 39  1  0  0  0  0
 22 29  2  0  0  0  0
 22 50  1  0  0  0  0
 23 80  1  0  0  0  0
 24 81  1  0  0  0  0
 25 27  2  0  0  0  0
 25 80  1  0  0  0  0
 26 82  1  0  0  0  0
 27 83  1  0  0  0  0
 28 64  2  0  0  0  0
 29 54  1  0  0  0  0
 29 65  1  0  0  0  0
 30 66  1  0  0  0  0
 30 70  1  0  0  0  0
 31 63  1  0  0  0  0
 31 65  2  0  0  0  0
 31 81  1  0  0  0  0
 32 71  1  0  0  0  0
 32 75  2  0  0  0  0
 33 52  1  0  0  0  0
 33 72  1  0  0  0  0
 33 76  2  0  0  0  0
 34 60  1  0  0  0  0
 34 67  1  0  0  0  0
 34 77  2  0  0  0  0
 35 61  1  0  0  0  0
 35 73  1  0  0  0  0
 35 78  2  0  0  0  0
 36 68  1  0  0  0  0
 36 69  1  0  0  0  0
 36 79  2  0  0  0  0
 37 40  1  0  0  0  0
 38 52  1  0  0  0  0
 39 67  1  0  0  0  0
 40 42  1  0  0  0  0
 41 43  1  0  0  0  0
 41 46  1  0  0  0  0
 42 51  1  0  0  0  0
 43 53  1  0  0  0  0
 44 47  1  0  0  0  0
 44 50  1  0  0  0  0
 45 48  1  0  0  0  0
 45 50  1  0  0  0  0
 46 68  1  0  0  0  0
 47 69  1  0  0  0  0
 48 69  1  0  0  0  0
 49 53  1  0  0  0  0
 49 68  1  0  0  0  0
 51 72  1  0  0  0  0
 52 67  1  0  0  0  0
 53 66  1  0  0  0  0
 55 61  1  0  0  0  0
 56 62  1  0  0  0  0
 57 62  1  0  0  0  0
 58 62  1  0  0  0  0
 59 74  1  0  0  0  0
 60 62  1  0  0  0  0
 60 73  1  0  0  0  0
 61 74  1  0  0  0  0
 64 66  1  0  0  0  0
M  CHG  1  74   1
M  ISO  4  31 101  36 100  69 100  81 101
M  END
> <Batch ID>
0171

> <Smiles>
CNC(C)C(=O)NC(C(=O)N1Cc2cc([101O:1][101c:1]3ncc(C4CC[100N:0]([100C:0](=O)N5CCCC(n6nc(-c7ccc(Oc8ccc(F)cc8F)cc7)c(C(N)=O)c6N)C5)CC4)c(C)n3)ccc2CC1C(=O)NC1CCCc2ccccc21)C(C)(C)C

> <Shape>
0.232

> <Color>
0.095

> <Negative vol penalty>
0.000

$$$$

  -OEChem-04052322373D

 92102  0     1  0  0  0  0  0999 V2000
  -31.2654  -33.6423   33.2460 C   0  0  0  0  0  0  0  0  0  0  0  0
  -31.0361  -32.4201   32.6221 C   0  0  0  0  0  0  0  0  0  0  0  0
  -23.0752   -9.8670   19.9433 C   0  0  0  0  0  0  0  0  0  0  0  0
  -23.8379   -9.8764   22.2357 C   0  0  0  0  0  0  0  0  0  0  0  0
  -31.7746  -34.7132   32.5127 C   0  0  0  0  0  0  0  0  0  0  0  0
  -31.3148  -32.2686   31.2643 C   0  0  0  0  0  0  0  0  0  0  0  0
  -33.3999  -27.2317   28.4737 C   0  0  0  0  0  0  0  0  0  0  0  0
  -22.3326   -8.7133   20.1951 C   0  0  0  0  0  0  0  0  0  0  0  0
  -23.0954   -8.7228   22.4876 C   0  0  0  0  0  0  0  0  0  0  0  0
  -32.7594  -26.2277   27.7488 C   0  0  0  0  0  0  0  0  0  0  0  0
  -19.8687   -7.9226   23.0948 C   0  0  0  0  0  0  0  0  0  0  0  0
  -19.1132   -7.8829   24.2666 C   0  0  0  0  0  0  0  0  0  0  0  0
  -33.3046  -27.3707   25.6956 C   0  0  0  0  0  0  0  0  0  0  0  0
  -20.3573   -5.9471   25.0030 C   0  0  0  0  0  0  0  0  0  0  0  0
  -23.8279  -10.4485   20.9636 C   0  0  0  0  0  0  0  0  0  0  0  0
  -24.1673  -12.9738   20.8412 C   0  0  0  0  0  0  0  0  0  0  0  0
  -32.0687  -34.5720   31.1474 C   0  0  0  0  0  0  0  0  0  0  0  0
  -33.9891  -28.3201   27.8145 C   0  0  0  0  0  0  0  0  0  0  0  0
  -31.8271  -33.3391   30.5117 C   0  0  0  0  0  0  0  0  0  0  0  0
  -33.9542  -28.3858   26.4143 C   0  0  0  0  0  0  0  0  0  0  0  0
  -30.0278  -24.4715   23.1377 C   0  0  0  0  0  0  0  0  0  0  0  0
  -31.3157  -24.3040   23.6344 C   0  0  0  0  0  0  0  0  0  0  0  0
  -29.3521  -23.3854   22.5927 C   0  0  0  0  0  0  0  0  0  0  0  0
  -22.3427   -8.1413   21.4672 C   0  0  0  0  0  0  0  0  0  0  0  0
  -32.7092  -26.2985   26.3597 C   0  0  0  0  0  0  0  0  0  0  0  0
  -20.8684   -6.9745   22.8769 C   0  0  0  0  0  0  0  0  0  0  0  0
  -19.3575   -6.8952   25.2208 C   0  0  0  0  0  0  0  0  0  0  0  0
  -21.1127   -5.9868   23.8311 C   0  0  0  0  0  0  0  0  0  0  0  0
  -24.5956  -11.6398   20.7040 C   0  0  0  0  0  0  0  0  0  0  0  0
  -31.8789  -23.0401   23.5632 C   0  0  0  0  0  0  0  0  0  0  0  0
  -30.0034  -22.1627   22.5679 C   0  0  0  0  0  0  0  0  0  0  0  0
  -25.2584  -13.7240   20.4760 C   0  0  0  0  0  0  0  0  0  0  0  0
  -22.8969  -13.4888   21.2613 C   0  0  0  0  0  0  0  0  0  0  0  0
  -33.5213  -31.4642   27.8160 C   0  0  0  0  0  0  0  0  0  0  0  0
  -36.1714  -31.4668   25.9453 C   0  0  0  0  0  0  0  0  0  0  0  0
  -38.2023  -29.7631   23.7960 C   0  0  0  0  0  0  0  0  0  0  0  0
  -30.7414  -14.7480   20.6566 C   0  0  0  0  0  0  0  0  0  0  0  0
  -32.5732  -35.7718   30.3855 C   0  0  0  0  0  0  0  0  0  0  0  0
  -34.6995  -29.3813   28.6094 C   0  0  0  0  0  0  0  0  0  0  0  0
  -34.5890  -29.5230   25.6577 C   0  0  0  0  0  0  0  0  0  0  0  0
  -33.1942  -35.4196   29.0362 C   0  0  0  0  0  0  0  0  0  0  0  0
  -29.6030  -12.3606   18.2732 C   0  0  0  0  0  0  0  0  0  0  0  0
  -32.3012  -34.4444   28.2758 C   0  0  0  0  0  0  0  0  0  0  0  0
  -28.1663  -12.0660   18.7081 C   0  0  0  0  0  0  0  0  0  0  0  0
  -30.5214  -12.5832   19.4727 C   0  0  0  0  0  0  0  0  0  0  0  0
  -28.6208  -13.3137   20.8611 C   0  0  0  0  0  0  0  0  0  0  0  0
  -29.1038  -19.9226   22.9002 C   0  0  0  0  0  0  0  0  0  0  0  0
  -29.4027  -20.9059   20.5644 C   0  0  0  0  0  0  0  0  0  0  0  0
  -27.1590  -19.7540   20.3353 C   0  0  0  0  0  0  0  0  0  0  0  0
  -32.1401  -33.1283   29.0462 C   0  0  1  0  0  0  0  0  0  0  0  0
  -34.8183  -30.7070   27.8640 C   0  0  1  0  0  0  0  0  0  0  0  0
  -29.0427  -18.3993   20.8564 C   0  0  1  0  0  0  0  0  0  0  0  0
  -27.6453  -13.1373   19.6849 C   0  0  2  0  0  0  0  0  0  0  0  0
  -28.3968  -18.7712   22.1862 C   0  0  2  0  0  0  0  0  0  0  0  0
  -28.6663  -19.6464   20.0443 C   0  0  2  0  0  0  0  0  0  0  0  0
  -29.3727  -25.8149   23.1912 C   0  0  0  0  0  0  0  0  0  0  0  0
  -27.9689  -23.5435   22.0530 C   0  0  0  0  0  0  0  0  0  0  0  0
  -33.2594  -22.7987   24.0803 C   0  0  0  0  0  0  0  0  0  0  0  0
  -28.9176  -19.4812   18.5448 C   0  0  0  0  0  0  0  0  0  0  0  0
  -40.2700  -30.0411   22.4015 C   0  0  0  0  0  0  0  0  0  0  0  0
  -34.5730  -33.0696   23.8993 C   0  0  0  0  0  0  0  0  0  0  0  0
  -36.3165  -32.5006   22.1950 C   0  0  0  0  0  0  0  0  0  0  0  0
  -36.9335  -33.8348   24.2104 C   0  0  0  0  0  0  0  0  0  0  0  0
  -39.6263  -27.6309   25.2742 C   0  0  0  0  0  0  0  0  0  0  0  0
  -32.0703  -25.4564   24.2293 C   0  0  0  0  0  0  0  0  0  1  0  0
  -30.5234  -18.0484   20.9321 C   0  0  0  0  0  0  0  0  0  0  0  0
  -30.8070  -16.8996   21.8918 C   0  0  0  0  0  0  0  0  0  0  0  0
  -36.4329  -31.3694   24.4617 C   0  0  1  0  0  0  0  0  0  0  0  0
  -39.7114  -29.6057   23.7473 C   0  0  2  0  0  0  0  0  0  0  0  0
  -36.0502  -32.6730   23.7057 C   0  0  0  0  0  0  0  0  0  0  0  0
  -25.8600  -11.5448   20.2842 N   0  0  0  0  0  0  0  0  0  0  0  0
  -31.2537  -21.9612   23.0408 N   0  0  0  0  0  0  0  0  0  0  0  0
  -26.2356  -12.8286   20.1544 N   0  0  0  0  0  0  0  0  0  0  0  0
  -29.3221  -21.0515   22.0112 N   0  0  2  0  0  0  0  0  0  0  0  0
  -35.2662  -30.5392   26.4800 N   0  0  0  0  0  0  0  0  0  0  0  0
  -29.9710  -13.6119   20.3586 N   0  0  0  0  0  0  0  0  0  0  0  0
  -25.4675  -15.0556   20.4016 N   0  0  0  0  0  0  0  0  0  0  0  0
  -21.8862  -12.5790   21.6006 N   0  0  0  0  0  0  0  0  0  0  0  0
  -33.3208  -32.3056   28.8936 N   0  0  0  0  0  0  0  0  0  0  0  0
  -37.8327  -30.9845   24.3183 N   0  0  0  0  0  0  0  0  0  0  0  0
  -30.1425  -15.6770   21.4987 N   0  0  0  0  0  0  0  0  0  0  0  0
  -27.0319  -19.2701   21.7547 N   0  3  0  0  0  0  0  0  0  0  0  0
  -40.0915  -28.1830   23.9758 N   0  3  0  0  0  0  0  0  0  0  0  0
  -22.6597  -14.7193   21.3180 O   0  0  0  0  0  0  0  0  0  0  0  0
  -32.7596  -31.2984   26.8705 O   0  0  0  0  0  0  0  0  0  0  0  0
  -36.7545  -32.3295   26.6068 O   0  0  0  0  0  0  0  0  0  0  0  0
  -37.4287  -28.8912   23.4061 O   0  0  0  0  0  0  0  0  0  0  0  0
  -31.8767  -14.9241   20.2014 O   0  0  0  0  0  0  0  0  0  0  0  0
  -21.6181   -7.0157   21.7133 O   0  0  0  0  0  0  0  0  0  0  0  0
  -32.0840  -25.3202   25.6497 O   0  0  0  0  0  0  0  0  0  1  0  0
  -18.6330   -6.8582   26.3468 F   0  0  0  0  0  0  0  0  0  0  0  0
  -22.0726   -5.0740   23.6280 F   0  0  0  0  0  0  0  0  0  0  0  0
  1  2  1  0  0  0  0
  1  5  2  0  0  0  0
  2  6  2  0  0  0  0
  3  8  2  0  0  0  0
  3 15  1  0  0  0  0
  4  9  1  0  0  0  0
  4 15  2  0  0  0  0
  5 17  1  0  0  0  0
  6 19  1  0  0  0  0
  7 10  2  0  0  0  0
  7 18  1  0  0  0  0
  8 24  1  0  0  0  0
  9 24  2  0  0  0  0
 10 25  1  0  0  0  0
 11 12  2  0  0  0  0
 11 26  1  0  0  0  0
 12 27  1  0  0  0  0
 13 20  1  0  0  0  0
 13 25  2  0  0  0  0
 14 27  2  0  0  0  0
 14 28  1  0  0  0  0
 15 29  1  0  0  0  0
 16 29  1  0  0  0  0
 16 32  2  0  0  0  0
 16 33  1  0  0  0  0
 17 19  2  0  0  0  0
 17 38  1  0  0  0  0
 18 20  2  0  0  0  0
 18 39  1  0  0  0  0
 19 50  1  0  0  0  0
 20 40  1  0  0  0  0
 21 22  2  0  0  0  0
 21 23  1  0  0  0  0
 21 56  1  0  0  0  0
 22 30  1  0  0  0  0
 22 65  1  0  0  0  0
 23 31  2  0  0  0  0
 23 57  1  0  0  0  0
 24 89  1  0  0  0  0
 25 90  1  0  0  0  0
 26 28  2  0  0  0  0
 26 89  1  0  0  0  0
 27 91  1  0  0  0  0
 28 92  1  0  0  0  0
 29 71  2  0  0  0  0
 30 58  1  0  0  0  0
 30 72  2  0  0  0  0
 31 72  1  0  0  0  0
 31 74  1  0  0  0  0
 32 73  1  0  0  0  0
 32 77  1  0  0  0  0
 33 78  1  0  0  0  0
 33 84  2  0  0  0  0
 34 51  1  0  0  0  0
 34 79  1  0  0  0  0
 34 85  2  0  0  0  0
 35 68  1  0  0  0  0
 35 75  1  0  0  0  0
 35 86  2  0  0  0  0
 36 69  1  0  0  0  0
 36 80  1  0  0  0  0
 36 87  2  0  0  0  0
 37 76  1  0  0  0  0
 37 81  1  0  0  0  0
 37 88  2  0  0  0  0
 38 41  1  0  0  0  0
 39 51  1  0  0  0  0
 40 75  1  0  0  0  0
 41 43  1  0  0  0  0
 42 44  1  0  0  0  0
 42 45  1  0  0  0  0
 43 50  1  0  0  0  0
 44 53  1  0  0  0  0
 45 76  1  0  0  0  0
 46 53  1  0  0  0  0
 46 76  1  0  0  0  0
 47 54  1  0  0  0  0
 47 74  1  0  0  0  0
 48 55  1  0  0  0  0
 48 74  1  0  0  0  0
 49 55  1  0  0  0  0
 49 82  1  0  0  0  0
 50 79  1  0  0  0  0
 51 75  1  0  0  0  0
 52 54  1  0  0  0  0
 52 55  1  0  0  0  0
 52 66  1  0  0  0  0
 53 73  1  0  0  0  0
 54 82  1  0  0  0  0
 55 59  1  0  0  0  0
 60 69  1  0  0  0  0
 61 70  1  0  0  0  0
 62 70  1  0  0  0  0
 63 70  1  0  0  0  0
 64 83  1  0  0  0  0
 65 90  1  0  0  0  0
 66 67  1  0  0  0  0
 67 81  1  0  0  0  0
 68 70  1  0  0  0  0
 68 80  1  0  0  0  0
 69 83  1  0  0  0  0
 71 73  1  0  0  0  0
M  CHG  2  82   1  83   1
M  ISO  4  37 100  65 101  81 100  90 101
M  END
> <Batch ID>
0171

> <Smiles>
CNC(C)C(=O)NC(C(=O)N1Cc2cc([101O:1][101CH2:1]c3c(C)nc(N4CC5NCC(C)(C4)C5CC[100NH:0][100C:0](=O)N4CCCC(n5nc(-c6ccc(Oc7ccc(F)cc7F)cc6)c(C(N)=O)c5N)C4)c(C)c3C)ccc2CC1C(=O)NC1CCCc2ccccc21)C(C)(C)C

> <Shape>
0.202

> <Color>
0.167

> <Negative vol penalty>
0.000

$$$$

  -OEChem-04052322373D

 94104  0     1  0  0  0  0  0999 V2000
  -19.9023   -7.3333   21.3204 C   0  0  0  0  0  0  0  0  0  0  0  0
  -20.4530   -8.5993   21.4916 C   0  0  0  0  0  0  0  0  0  0  0  0
  -22.1169  -28.8354   21.9332 C   0  0  0  0  0  0  0  0  0  0  0  0
  -23.0952  -30.5384   23.3402 C   0  0  0  0  0  0  0  0  0  0  0  0
  -20.6351   -6.2016   21.6759 C   0  0  0  0  0  0  0  0  0  0  0  0
  -21.7366   -8.7344   22.0195 C   0  0  0  0  0  0  0  0  0  0  0  0
  -24.5435  -12.0888   19.4671 C   0  0  0  0  0  0  0  0  0  0  0  0
  -21.0432  -28.7225   22.8162 C   0  0  0  0  0  0  0  0  0  0  0  0
  -22.0213  -30.4256   24.2233 C   0  0  0  0  0  0  0  0  0  0  0  0
  -24.3060  -13.4395   19.7178 C   0  0  0  0  0  0  0  0  0  0  0  0
  -18.2007  -30.4169   23.5109 C   0  0  0  0  0  0  0  0  0  0  0  0
  -16.9171  -30.3664   22.9675 C   0  0  0  0  0  0  0  0  0  0  0  0
  -26.2257  -13.5000   21.1774 C   0  0  0  0  0  0  0  0  0  0  0  0
  -16.5783  -28.1943   23.9697 C   0  0  0  0  0  0  0  0  0  0  0  0
  -23.1430  -29.7433   22.1952 C   0  0  0  0  0  0  0  0  0  0  0  0
  -24.3541  -30.7193   20.1732 C   0  0  0  0  0  0  0  0  0  0  0  0
  -21.9320   -6.3226   22.1993 C   0  0  0  0  0  0  0  0  0  0  0  0
  -25.6193  -11.4297   20.0793 C   0  0  0  0  0  0  0  0  0  0  0  0
  -22.4869   -7.6034   22.3835 C   0  0  0  0  0  0  0  0  0  0  0  0
  -26.4762  -12.1415   20.9308 C   0  0  0  0  0  0  0  0  0  0  0  0
  -31.5077  -18.7975   21.5220 C   0  0  0  0  0  0  0  0  0  0  0  0
  -30.2952  -18.2341   21.1403 C   0  0  0  0  0  0  0  0  0  0  0  0
  -31.7828  -20.1229   21.2042 C   0  0  0  0  0  0  0  0  0  0  0  0
  -20.9953  -29.5177   23.9613 C   0  0  0  0  0  0  0  0  0  0  0  0
  -25.1454  -14.1446   20.5753 C   0  0  0  0  0  0  0  0  0  0  0  0
  -18.6732  -29.3560   24.2836 C   0  0  0  0  0  0  0  0  0  0  0  0
  -16.1058  -29.2551   23.1969 C   0  0  0  0  0  0  0  0  0  0  0  0
  -17.8620  -28.2448   24.5130 C   0  0  0  0  0  0  0  0  0  0  0  0
  -24.2528  -29.8599   21.2836 C   0  0  0  0  0  0  0  0  0  0  0  0
  -29.3987  -19.0320   20.4479 C   0  0  0  0  0  0  0  0  0  0  0  0
  -30.8198  -20.8362   20.5088 C   0  0  0  0  0  0  0  0  0  0  0  0
  -25.5914  -30.4490   19.6417 C   0  0  0  0  0  0  0  0  0  0  0  0
  -27.9427  -17.9229   18.7998 C   0  0  0  0  0  0  0  0  0  0  0  0
  -28.0849  -18.5056   20.0052 C   0  0  0  0  0  0  0  0  0  0  0  0
  -23.4140  -31.6764   19.6676 C   0  0  0  0  0  0  0  0  0  0  0  0
  -25.9002   -8.9889   22.0960 C   0  0  0  0  0  0  0  0  0  0  0  0
  -29.0691   -9.3955   21.5347 C   0  0  0  0  0  0  0  0  0  0  0  0
  -31.5973  -11.4757   20.5713 C   0  0  0  0  0  0  0  0  0  0  0  0
  -29.0093  -25.7873   19.6075 C   0  0  0  0  0  0  0  0  0  0  0  0
  -22.6673   -5.0725   22.6132 C   0  0  0  0  0  0  0  0  0  0  0  0
  -25.8777   -9.9789   19.7775 C   0  0  0  0  0  0  0  0  0  0  0  0
  -27.6569  -11.4852   21.5971 C   0  0  0  0  0  0  0  0  0  0  0  0
  -26.6456  -17.3721   18.2838 C   0  0  0  0  0  0  0  0  0  0  0  0
  -26.9110  -18.6642   20.9485 C   0  0  0  0  0  0  0  0  0  0  0  0
  -24.1651   -5.2858   22.8162 C   0  0  0  0  0  0  0  0  0  0  0  0
  -25.4296  -17.7510   19.1322 C   0  0  0  0  0  0  0  0  0  0  0  0
  -29.9521  -28.9266   20.8698 C   0  0  0  0  0  0  0  0  0  0  0  0
  -24.4181   -6.5417   23.6441 C   0  0  0  0  0  0  0  0  0  0  0  0
  -28.5955  -29.6157   21.0141 C   0  0  0  0  0  0  0  0  0  0  0  0
  -30.6455  -23.2138   21.2962 C   0  0  0  0  0  0  0  0  0  0  0  0
  -29.8969  -27.4579   21.2939 C   0  0  0  0  0  0  0  0  0  0  0  0
  -30.8477  -24.6915   20.9596 C   0  0  0  0  0  0  0  0  0  0  0  0
  -30.6007  -24.2122   18.5532 C   0  0  0  0  0  0  0  0  0  0  0  0
  -27.4841  -27.3649   20.7563 C   0  0  0  0  0  0  0  0  0  0  0  0
  -23.8858   -7.7899   22.9299 C   0  0  1  0  0  0  0  0  0  0  0  0
  -31.0625  -22.2894   20.1340 C   0  0  2  0  0  0  0  0  0  0  0  0
  -26.6990   -9.2812   20.8574 C   0  0  1  0  0  0  0  0  0  0  0  0
  -30.3678  -22.7151   18.8115 C   0  0  2  0  0  0  0  0  0  0  0  0
  -27.4948  -28.8268   20.2830 C   0  0  1  0  0  0  0  0  0  0  0  0
  -25.7195  -17.7188   20.6470 C   0  0  2  0  0  0  0  0  0  0  0  0
  -32.5122  -17.9819   22.2722 C   0  0  0  0  0  0  0  0  0  0  0  0
  -29.9793  -16.8127   21.4727 C   0  0  0  0  0  0  0  0  0  0  0  0
  -33.0752  -20.7554   21.5987 C   0  0  0  0  0  0  0  0  0  0  0  0
  -30.8753  -21.9095   17.6106 C   0  0  0  0  0  0  0  0  0  0  0  0
  -24.4774  -18.2098   21.4124 C   0  0  0  0  0  0  0  0  0  0  0  0
  -34.0852  -11.5343   20.2485 C   0  0  0  0  0  0  0  0  0  0  0  0
  -29.4548   -9.5671   24.5566 C   0  0  0  0  0  0  0  0  0  0  0  0
  -31.7184  -10.5530   24.1417 C   0  0  0  0  0  0  0  0  0  0  0  0
  -31.2031   -8.2424   23.3554 C   0  0  0  0  0  0  0  0  0  0  0  0
  -31.3254  -12.0795   17.6868 C   0  0  0  0  0  0  0  0  0  0  0  0
  -26.0334  -16.2837   21.1158 C   0  0  0  0  0  0  0  0  0  1  0  0
  -30.1692  -10.2171   22.1622 C   0  0  1  0  0  0  0  0  0  0  0  0
  -32.7380  -11.2863   19.5878 C   0  0  2  0  0  0  0  0  0  0  0  0
  -30.6131   -9.6571   23.5431 C   0  0  0  0  0  0  0  0  0  0  0  0
  -25.3390  -29.1003   21.4486 N   0  0  0  0  0  0  0  0  0  0  0  0
  -29.6306  -20.3232   20.1211 N   0  0  0  0  0  0  0  0  0  0  0  0
  -26.1346  -29.4815   20.4348 N   0  0  0  0  0  0  0  0  0  0  0  0
  -27.8641  -10.0636   21.2754 N   0  0  0  0  0  0  0  0  0  0  0  0
  -28.8071  -26.7568   20.6009 N   0  0  0  0  0  0  0  0  0  0  0  0
  -30.1819  -25.0222   19.6952 N   0  0  0  0  0  0  0  0  0  0  0  0
  -26.2568  -30.9468   18.5778 N   0  0  0  0  0  0  0  0  0  0  0  0
  -22.1904  -31.8276   20.3341 N   0  0  0  0  0  0  0  0  0  0  0  0
  -24.7916   -8.1940   21.8759 N   0  0  0  0  0  0  0  0  0  0  0  0
  -31.2401  -10.2881   21.1740 N   0  0  0  0  0  0  0  0  0  0  0  0
  -32.5959  -12.2286   18.4420 N   0  3  0  0  0  0  0  0  0  0  0  0
  -23.6452  -32.3653   18.6450 O   0  0  0  0  0  0  0  0  0  0  0  0
  -26.2638   -9.4491   23.1720 O   0  0  0  0  0  0  0  0  0  0  0  0
  -29.2740   -8.2066   21.2774 O   0  0  0  0  0  0  0  0  0  0  0  0
  -31.0777  -12.5685   20.7863 O   0  0  0  0  0  0  0  0  0  0  0  0
  -28.1912  -25.6152   18.6952 O   0  0  0  0  0  0  0  0  0  0  0  0
  -19.9476  -29.4080   24.8231 O   0  0  0  0  0  0  0  0  0  0  0  0
  -24.9130  -15.4771   20.8249 O   0  0  0  0  0  0  0  0  0  1  0  0
  -14.8726  -29.2074   22.6763 F   0  0  0  0  0  0  0  0  0  0  0  0
  -18.3100  -27.2231   25.2555 F   0  0  0  0  0  0  0  0  0  0  0  0
  1  2  1  0  0  0  0
  1  5  2  0  0  0  0
  2  6  2  0  0  0  0
  3  8  2  0  0  0  0
  3 15  1  0  0  0  0
  4  9  1  0  0  0  0
  4 15  2  0  0  0  0
  5 17  1  0  0  0  0
  6 19  1  0  0  0  0
  7 10  2  0  0  0  0
  7 18  1  0  0  0  0
  8 24  1  0  0  0  0
  9 24  2  0  0  0  0
 10 25  1  0  0  0  0
 11 12  2  0  0  0  0
 11 26  1  0  0  0  0
 12 27  1  0  0  0  0
 13 20  1  0  0  0  0
 13 25  2  0  0  0  0
 14 27  2  0  0  0  0
 14 28  1  0  0  0  0
 15 29  1  0  0  0  0
 16 29  1  0  0  0  0
 16 32  2  0  0  0  0
 16 35  1  0  0  0  0
 17 19  2  0  0  0  0
 17 40  1  0  0  0  0
 18 20  2  0  0  0  0
 18 41  1  0  0  0  0
 19 55  1  0  0  0  0
 20 42  1  0  0  0  0
 21 22  1  0  0  0  0
 21 23  2  0  0  0  0
 21 61  1  0  0  0  0
 22 30  2  0  0  0  0
 22 62  1  0  0  0  0
 23 31  1  0  0  0  0
 23 63  1  0  0  0  0
 24 91  1  0  0  0  0
 25 92  1  0  0  0  0
 26 28  2  0  0  0  0
 26 91  1  0  0  0  0
 27 93  1  0  0  0  0
 28 94  1  0  0  0  0
 29 75  2  0  0  0  0
 30 34  1  0  0  0  0
 30 76  1  0  0  0  0
 31 56  1  0  0  0  0
 31 76  2  0  0  0  0
 32 77  1  0  0  0  0
 32 81  1  0  0  0  0
 33 34  2  0  0  0  0
 33 43  1  0  0  0  0
 34 44  1  0  0  0  0
 35 82  1  0  0  0  0
 35 86  2  0  0  0  0
 36 57  1  0  0  0  0
 36 83  1  0  0  0  0
 36 87  2  0  0  0  0
 37 72  1  0  0  0  0
 37 78  1  0  0  0  0
 37 88  2  0  0  0  0
 38 73  1  0  0  0  0
 38 84  1  0  0  0  0
 38 89  2  0  0  0  0
 39 79  1  0  0  0  0
 39 80  1  0  0  0  0
 39 90  2  0  0  0  0
 40 45  1  0  0  0  0
 41 57  1  0  0  0  0
 42 78  1  0  0  0  0
 43 46  1  0  0  0  0
 44 60  1  0  0  0  0
 45 48  1  0  0  0  0
 46 60  1  0  0  0  0
 47 49  1  0  0  0  0
 47 51  1  0  0  0  0
 48 55  1  0  0  0  0
 49 59  1  0  0  0  0
 50 52  1  0  0  0  0
 50 56  1  0  0  0  0
 51 79  1  0  0  0  0
 52 80  1  0  0  0  0
 53 58  1  0  0  0  0
 53 80  1  0  0  0  0
 54 59  1  0  0  0  0
 54 79  1  0  0  0  0
 55 83  1  0  0  0  0
 56 58  1  0  0  0  0
 57 78  1  0  0  0  0
 58 64  1  0  0  0  0
 59 77  1  0  0  0  0
 60 65  1  0  0  0  0
 60 71  1  0  0  0  0
 66 73  1  0  0  0  0
 67 74  1  0  0  0  0
 68 74  1  0  0  0  0
 69 74  1  0  0  0  0
 70 85  1  0  0  0  0
 71 92  1  0  0  0  0
 72 74  1  0  0  0  0
 72 84  1  0  0  0  0
 73 85  1  0  0  0  0
 75 77  1  0  0  0  0
M  CHG  1  85   1
M  ISO  4  39 100  71 101  80 100  92 101
M  END
> <Batch ID>
0171

> <Smiles>
CNC(C)C(=O)NC(C(=O)N1Cc2cc([101O:1][101CH2:1]C3(C)CCC=C(c4nc(C5CC[100N:0]([100C:0](=O)N6CCCC(n7nc(-c8ccc(Oc9ccc(F)cc9F)cc8)c(C(N)=O)c7N)C6)CC5C)c(C)c(C)c4C)C3)ccc2CC1C(=O)NC1CCCc2ccccc21)C(C)(C)C

> <Shape>
0.289

> <Color>
0.075

> <Negative vol penalty>
0.000

$$$$

  -OEChem-04052322373D

 86 95  0     1  0  0  0  0  0999 V2000
  -18.9126  -26.1091   23.6149 C   0  0  0  0  0  0  0  0  0  0  0  0
  -19.7907  -26.0832   22.5362 C   0  0  0  0  0  0  0  0  0  0  0  0
  -24.0851   -9.2008   22.4035 C   0  0  0  0  0  0  0  0  0  0  0  0
  -25.0650   -7.7446   20.7433 C   0  0  0  0  0  0  0  0  0  0  0  0
  -18.4644  -27.3297   24.1183 C   0  0  0  0  0  0  0  0  0  0  0  0
  -20.2202  -27.2779   21.9594 C   0  0  0  0  0  0  0  0  0  0  0  0
  -25.2016  -27.3148   21.0486 C   0  0  0  0  0  0  0  0  0  0  0  0
  -22.8486   -8.5833   22.2153 C   0  0  0  0  0  0  0  0  0  0  0  0
  -23.8285   -7.1271   20.5551 C   0  0  0  0  0  0  0  0  0  0  0  0
  -25.6487  -26.6202   19.9254 C   0  0  0  0  0  0  0  0  0  0  0  0
  -19.5155   -7.1486   22.4322 C   0  0  0  0  0  0  0  0  0  0  0  0
  -18.7804   -6.8095   23.5680 C   0  0  0  0  0  0  0  0  0  0  0  0
  -25.7844  -28.6957   18.7035 C   0  0  0  0  0  0  0  0  0  0  0  0
  -20.5844   -5.3840   24.3100 C   0  0  0  0  0  0  0  0  0  0  0  0
  -25.1933   -8.7815   21.6674 C   0  0  0  0  0  0  0  0  0  0  0  0
  -27.4748   -9.0510   22.7764 C   0  0  0  0  0  0  0  0  0  0  0  0
  -18.8962  -28.5401   23.5536 C   0  0  0  0  0  0  0  0  0  0  0  0
  -25.0319  -28.7060   21.0042 C   0  0  0  0  0  0  0  0  0  0  0  0
  -19.7763  -28.5157   22.4548 C   0  0  0  0  0  0  0  0  0  0  0  0
  -25.3375  -29.4058   19.8282 C   0  0  0  0  0  0  0  0  0  0  0  0
  -22.7203   -7.5465   21.2911 C   0  0  0  0  0  0  0  0  0  0  0  0
  -25.9374  -27.3103   18.7517 C   0  0  0  0  0  0  0  0  0  0  0  0
  -20.7851   -6.6053   22.2351 C   0  0  0  0  0  0  0  0  0  0  0  0
  -19.3148   -5.9272   24.5070 C   0  0  0  0  0  0  0  0  0  0  0  0
  -21.3195   -5.7230   23.1741 C   0  0  0  0  0  0  0  0  0  0  0  0
  -26.4707   -9.4193   21.8610 C   0  0  0  0  0  0  0  0  0  0  0  0
  -28.4803   -9.9632   22.5686 C   0  0  0  0  0  0  0  0  0  0  0  0
  -27.4966   -7.9800   23.7294 C   0  0  0  0  0  0  0  0  0  0  0  0
  -22.5614  -30.6765   21.3469 C   0  0  0  0  0  0  0  0  0  0  0  0
  -24.8562  -32.9610   21.1540 C   0  0  0  0  0  0  0  0  0  0  0  0
  -27.9743  -33.8528   20.0915 C   0  0  0  0  0  0  0  0  0  0  0  0
  -28.6136  -15.4180   20.6615 C   0  0  0  0  0  0  0  0  0  0  0  0
  -18.3474  -29.8335   24.1018 C   0  0  0  0  0  0  0  0  0  0  0  0
  -24.5744  -29.4438   22.2325 C   0  0  0  0  0  0  0  0  0  0  0  0
  -25.1915  -30.9020   19.7350 C   0  0  0  0  0  0  0  0  0  0  0  0
  -19.1436  -31.0634   23.6730 C   0  0  0  0  0  0  0  0  0  0  0  0
  -30.3707  -12.7584   19.1841 C   0  0  0  0  0  0  0  0  0  0  0  0
  -19.4342  -31.0160   22.1763 C   0  0  0  0  0  0  0  0  0  0  0  0
  -29.6624  -11.5502   19.7959 C   0  0  0  0  0  0  0  0  0  0  0  0
  -27.9719  -21.5148   19.4357 C   0  0  0  0  0  0  0  0  0  0  0  0
  -27.2941  -20.5018   17.2366 C   0  0  0  0  0  0  0  0  0  0  0  0
  -29.3886  -13.8701   18.8100 C   0  0  0  0  0  0  0  0  0  0  0  0
  -28.8122  -16.7486   18.5134 C   0  0  0  0  0  0  0  0  0  0  0  0
  -29.4623  -17.7437   20.6756 C   0  0  0  0  0  0  0  0  0  0  0  0
  -27.7986  -13.0826   20.5336 C   0  0  0  0  0  0  0  0  0  0  0  0
  -27.1381  -22.7469   19.1210 C   0  0  0  0  0  0  0  0  0  0  0  0
  -27.8264  -17.8878   18.2747 C   0  0  0  0  0  0  0  0  0  0  0  0
  -28.4719  -18.8806   20.4826 C   0  0  0  0  0  0  0  0  0  0  0  0
  -20.2843  -29.7911   21.8179 C   0  0  1  0  0  0  0  0  0  0  0  0
  -23.9463  -30.7978   21.9170 C   0  0  1  0  0  0  0  0  0  0  0  0
  -28.7663  -11.9732   20.9735 C   0  0  1  0  0  0  0  0  0  0  0  0
  -27.4012  -20.2875   18.7410 C   0  0  1  0  0  0  0  0  0  0  0  0
  -26.4585  -21.7459   16.9008 C   0  0  2  0  0  0  0  0  0  0  0  0
  -26.4466  -21.9690   15.3898 C   0  0  0  0  0  0  0  0  0  0  0  0
  -29.5585  -35.7986   20.0465 C   0  0  0  0  0  0  0  0  0  0  0  0
  -28.5275  -25.5980   17.3164 C   0  0  0  0  0  0  0  0  0  0  0  0
  -23.2220  -34.2366   18.9153 C   0  0  0  0  0  0  0  0  0  0  0  0
  -25.2492  -35.5645   18.2866 C   0  0  0  0  0  0  0  0  0  0  0  0
  -24.2152  -35.8605   20.5373 C   0  0  0  0  0  0  0  0  0  0  0  0
  -30.0047  -32.3854   21.6674 C   0  0  0  0  0  0  0  0  0  0  0  0
  -26.3523  -24.2518   17.3186 C   0  0  0  0  0  0  0  0  0  0  0  0
  -25.4968  -33.7407   20.0312 C   0  0  1  0  0  0  0  0  0  0  0  0
  -29.1182  -34.5541   20.8017 C   0  0  2  0  0  0  0  0  0  0  0  0
  -27.1231  -25.4401   17.8844 C   0  0  2  0  0  0  0  0  0  1  0  0
  -24.5468  -34.8221   19.4435 C   0  0  0  0  0  0  0  0  0  0  0  0
  -26.8076  -10.4827   21.1264 N   0  0  0  0  0  0  0  0  0  0  0  0
  -28.0346  -10.7905   21.5800 N   0  0  0  0  0  0  0  0  0  0  0  0
  -24.7349  -31.5776   20.9608 N   0  0  0  0  0  0  0  0  0  0  0  0
  -28.5285  -14.2110   19.9517 N   0  0  0  0  0  0  0  0  0  0  0  0
  -29.0438  -16.5471   19.9488 N   0  0  0  0  0  0  0  0  0  0  0  0
  -29.6934  -10.1305   23.1368 N   0  0  0  0  0  0  0  0  0  0  0  0
  -26.3806   -7.1362   23.8118 N   0  0  0  0  0  0  0  0  0  0  0  0
  -21.6697  -30.0165   22.1708 N   0  0  0  0  0  0  0  0  0  0  0  0
  -26.7478  -34.2699   20.5636 N   0  0  0  0  0  0  0  0  0  0  0  0
  -28.2915  -19.1261   19.0027 N   0  3  0  0  0  0  0  0  0  0  0  0
  -27.0604  -22.9526   17.6195 N   0  3  1  0  0  0  0  0  0  0  0  0
  -30.2891  -33.6405   20.9252 N   0  3  0  0  0  0  0  0  0  0  0  0
  -28.4700   -7.7872   24.4967 O   0  0  0  0  0  0  0  0  0  0  0  0
  -22.3194  -31.1482   20.2421 O   0  0  0  0  0  0  0  0  0  0  0  0
  -24.4840  -33.5563   22.1682 O   0  0  0  0  0  0  0  0  0  0  0  0
  -28.1512  -33.0212   19.2041 O   0  0  0  0  0  0  0  0  0  0  0  0
  -28.3215  -15.4833   21.8623 O   0  0  0  0  0  0  0  0  0  0  0  0
  -21.5140   -6.9435   21.1073 O   0  0  0  0  0  0  0  0  0  0  0  0
  -26.3758  -26.6308   17.6474 O   0  0  0  0  0  0  0  0  0  1  0  0
  -18.6094   -5.6029   25.5984 F   0  0  0  0  0  0  0  0  0  0  0  0
  -22.5391   -5.1988   22.9909 F   0  0  0  0  0  0  0  0  0  0  0  0
  1  2  1  0  0  0  0
  1  5  2  0  0  0  0
  2  6  2  0  0  0  0
  3  8  2  0  0  0  0
  3 15  1  0  0  0  0
  4  9  1  0  0  0  0
  4 15  2  0  0  0  0
  5 17  1  0  0  0  0
  6 19  1  0  0  0  0
  7 10  2  0  0  0  0
  7 18  1  0  0  0  0
  8 21  1  0  0  0  0
  9 21  2  0  0  0  0
 10 22  1  0  0  0  0
 11 12  2  0  0  0  0
 11 23  1  0  0  0  0
 12 24  1  0  0  0  0
 13 20  1  0  0  0  0
 13 22  2  0  0  0  0
 14 24  2  0  0  0  0
 14 25  1  0  0  0  0
 15 26  1  0  0  0  0
 16 26  1  0  0  0  0
 16 27  2  0  0  0  0
 16 28  1  0  0  0  0
 17 19  2  0  0  0  0
 17 33  1  0  0  0  0
 18 20  2  0  0  0  0
 18 34  1  0  0  0  0
 19 49  1  0  0  0  0
 20 35  1  0  0  0  0
 21 83  1  0  0  0  0
 22 84  1  0  0  0  0
 23 25  2  0  0  0  0
 23 83  1  0  0  0  0
 24 85  1  0  0  0  0
 25 86  1  0  0  0  0
 26 66  2  0  0  0  0
 27 67  1  0  0  0  0
 27 71  1  0  0  0  0
 28 72  1  0  0  0  0
 28 78  2  0  0  0  0
 29 50  1  0  0  0  0
 29 73  1  0  0  0  0
 29 79  2  0  0  0  0
 30 62  1  0  0  0  0
 30 68  1  0  0  0  0
 30 80  2  0  0  0  0
 31 63  1  0  0  0  0
 31 74  1  0  0  0  0
 31 81  2  0  0  0  0
 32 69  1  0  0  0  0
 32 70  1  0  0  0  0
 32 82  2  0  0  0  0
 33 36  1  0  0  0  0
 34 50  1  0  0  0  0
 35 68  1  0  0  0  0
 36 38  1  0  0  0  0
 37 39  1  0  0  0  0
 37 42  1  0  0  0  0
 38 49  1  0  0  0  0
 39 51  1  0  0  0  0
 40 46  1  0  0  0  0
 40 52  1  0  0  0  0
 41 52  1  0  0  0  0
 41 53  1  0  0  0  0
 42 69  1  0  0  0  0
 43 47  1  0  0  0  0
 43 70  1  0  0  0  0
 44 48  1  0  0  0  0
 44 70  1  0  0  0  0
 45 51  1  0  0  0  0
 45 69  1  0  0  0  0
 46 76  1  0  0  0  0
 47 75  1  0  0  0  0
 48 75  1  0  0  0  0
 49 73  1  0  0  0  0
 50 68  1  0  0  0  0
 51 67  1  0  0  0  0
 52 75  1  0  0  0  0
 53 54  1  0  0  0  0
 53 76  1  0  0  0  0
 55 63  1  0  0  0  0
 56 64  1  0  0  0  0
 57 65  1  0  0  0  0
 58 65  1  0  0  0  0
 59 65  1  0  0  0  0
 60 77  1  0  0  0  0
 61 64  1  0  0  0  0
 61 76  1  0  0  0  0
 62 65  1  0  0  0  0
 62 74  1  0  0  0  0
 63 77  1  0  0  0  0
 64 84  1  0  0  0  0
 66 67  1  0  0  0  0
M  CHG  3  75   1  76   1  77   1
M  ISO  4  32 100  64 101  70 100  84 101
M  END
> <Batch ID>
0171

> <Smiles>
CNC(C)C(=O)NC(C(=O)N1Cc2cc([101O:1][101CH:1](C)CN3CCC(N4CC[100N:0]([100C:0](=O)N5CCCC(n6nc(-c7ccc(Oc8ccc(F)cc8F)cc7)c(C(N)=O)c6N)C5)CC4)CC3C)ccc2CC1C(=O)NC1CCCc2ccccc21)C(C)(C)C

> <Shape>
0.246

> <Color>
0.096

> <Negative vol penalty>
0.000

$$$$

  -OEChem-04052322373D

 86 95  0     1  0  0  0  0  0999 V2000
  -27.5604  -36.2690   20.8514 C   0  0  0  0  0  0  0  0  0  0  0  0
  -27.9825  -34.9784   20.5488 C   0  0  0  0  0  0  0  0  0  0  0  0
  -23.6752  -10.3733   20.5167 C   0  0  0  0  0  0  0  0  0  0  0  0
  -23.4596  -10.1251   22.9102 C   0  0  0  0  0  0  0  0  0  0  0  0
  -26.6415  -36.4777   21.8790 C   0  0  0  0  0  0  0  0  0  0  0  0
  -27.4868  -33.8958   21.2745 C   0  0  0  0  0  0  0  0  0  0  0  0
  -26.3315  -28.2655   19.1600 C   0  0  0  0  0  0  0  0  0  0  0  0
  -22.8766   -9.2455   20.3278 C   0  0  0  0  0  0  0  0  0  0  0  0
  -22.6609   -8.9973   22.7213 C   0  0  0  0  0  0  0  0  0  0  0  0
  -27.0606  -27.0781   19.2067 C   0  0  0  0  0  0  0  0  0  0  0  0
  -23.1011   -5.7302   21.9709 C   0  0  0  0  0  0  0  0  0  0  0  0
  -23.3650   -4.6099   22.7588 C   0  0  0  0  0  0  0  0  0  0  0  0
  -25.8211  -26.4009   21.1623 C   0  0  0  0  0  0  0  0  0  0  0  0
  -21.1277   -4.7196   23.6641 C   0  0  0  0  0  0  0  0  0  0  0  0
  -23.9668  -10.8132   21.8080 C   0  0  0  0  0  0  0  0  0  0  0  0
  -24.3649  -13.3154   22.1042 C   0  0  0  0  0  0  0  0  0  0  0  0
  -26.1270  -35.3962   22.6113 C   0  0  0  0  0  0  0  0  0  0  0  0
  -25.3476  -28.5349   20.1222 C   0  0  0  0  0  0  0  0  0  0  0  0
  -26.5612  -34.0903   22.3138 C   0  0  0  0  0  0  0  0  0  0  0  0
  -25.0792  -27.5914   21.1241 C   0  0  0  0  0  0  0  0  0  0  0  0
  -30.6447  -22.0002   20.5885 C   0  0  0  0  0  0  0  0  0  0  0  0
  -30.0747  -23.2617   20.4574 C   0  0  0  0  0  0  0  0  0  0  0  0
  -30.2827  -20.9852   19.7098 C   0  0  0  0  0  0  0  0  0  0  0  0
  -22.3694   -8.5575   21.4301 C   0  0  0  0  0  0  0  0  0  0  0  0
  -26.8075  -26.1469   20.2096 C   0  0  0  0  0  0  0  0  0  0  0  0
  -21.8505   -6.3453   22.0296 C   0  0  0  0  0  0  0  0  0  0  0  0
  -22.3783   -4.1046   23.6054 C   0  0  0  0  0  0  0  0  0  0  0  0
  -20.8638   -5.8400   22.8762 C   0  0  0  0  0  0  0  0  0  0  0  0
  -24.7921  -11.9778   22.0038 C   0  0  0  0  0  0  0  0  0  0  0  0
  -29.1550  -23.4552   19.4393 C   0  0  0  0  0  0  0  0  0  0  0  0
  -29.3535  -21.2806   18.7253 C   0  0  0  0  0  0  0  0  0  0  0  0
  -25.5222  -14.0330   22.2837 C   0  0  0  0  0  0  0  0  0  0  0  0
  -23.0403  -13.8606   22.0409 C   0  0  0  0  0  0  0  0  0  0  0  0
  -24.9322  -30.7739   22.3398 C   0  0  0  0  0  0  0  0  0  0  0  0
  -22.0599  -29.3149   22.7185 C   0  0  0  0  0  0  0  0  0  0  0  0
  -20.1782  -26.4887   22.3742 C   0  0  0  0  0  0  0  0  0  0  0  0
  -30.8320  -14.9467   20.5961 C   0  0  0  0  0  0  0  0  0  0  0  0
  -25.1716  -35.6757   23.7444 C   0  0  0  0  0  0  0  0  0  0  0  0
  -24.5514  -29.8085   20.0422 C   0  0  0  0  0  0  0  0  0  0  0  0
  -24.0194  -27.8237   22.1688 C   0  0  0  0  0  0  0  0  0  0  0  0
  -24.4102  -34.4403   24.2179 C   0  0  0  0  0  0  0  0  0  0  0  0
  -30.2399  -12.5064   23.2733 C   0  0  0  0  0  0  0  0  0  0  0  0
  -25.3619  -33.2609   24.3922 C   0  0  0  0  0  0  0  0  0  0  0  0
  -28.7408  -12.2290   23.1532 C   0  0  0  0  0  0  0  0  0  0  0  0
  -29.7568  -18.3334   21.5400 C   0  0  0  0  0  0  0  0  0  0  0  0
  -30.8637  -12.8690   21.9276 C   0  0  0  0  0  0  0  0  0  0  0  0
  -29.4392  -16.8434   21.6125 C   0  0  0  0  0  0  0  0  0  0  0  0
  -28.6930  -13.6888   21.0975 C   0  0  0  0  0  0  0  0  0  0  0  0
  -30.8610  -17.2663   19.7244 C   0  0  0  0  0  0  0  0  0  0  0  0
  -26.0276  -32.8880   23.0620 C   0  0  1  0  0  0  0  0  0  0  0  0
  -23.9279  -30.2081   21.3760 C   0  0  1  0  0  0  0  0  0  0  0  0
  -28.0168  -13.3876   22.4422 C   0  0  1  0  0  0  0  0  0  0  0  0
  -30.0736  -18.5238   20.0607 C   0  0  2  0  0  0  0  0  0  0  0  0
  -31.6425  -21.7415   21.6729 C   0  0  0  0  0  0  0  0  0  0  0  0
  -30.4418  -24.3715   21.3849 C   0  0  0  0  0  0  0  0  0  0  0  0
  -17.8752  -25.5906   22.8067 C   0  0  0  0  0  0  0  0  0  0  0  0
  -22.7133  -29.0768   25.6894 C   0  0  0  0  0  0  0  0  0  0  0  0
  -20.8832  -27.3795   25.8846 C   0  0  0  0  0  0  0  0  0  0  0  0
  -20.3474  -29.7146   25.1894 C   0  0  0  0  0  0  0  0  0  0  0  0
  -19.7181  -25.9608   19.4987 C   0  0  0  0  0  0  0  0  0  0  0  0
  -28.5078  -24.7884   19.2508 C   0  0  0  0  0  0  0  0  0  1  0  0
  -21.5402  -28.1822   23.5705 C   0  0  1  0  0  0  0  0  0  0  0  0
  -18.7915  -26.2658   21.7981 C   0  0  2  0  0  0  0  0  0  0  0  0
  -21.3924  -28.5845   25.0651 C   0  0  0  0  0  0  0  0  0  0  0  0
  -26.1174  -11.8505   22.1105 N   0  0  0  0  0  0  0  0  0  0  0  0
  -28.7784  -22.4938   18.5668 N   0  0  0  0  0  0  0  0  0  0  0  0
  -26.5330  -13.1173   22.2797 N   0  0  0  0  0  0  0  0  0  0  0  0
  -23.2722  -29.0868   22.0519 N   0  0  0  0  0  0  0  0  0  0  0  0
  -30.1240  -13.9535   21.2815 N   0  0  0  0  0  0  0  0  0  0  0  0
  -30.3000  -16.2354   20.5945 N   0  0  0  0  0  0  0  0  0  0  0  0
  -25.7637  -15.3516   22.4429 N   0  0  0  0  0  0  0  0  0  0  0  0
  -21.9646  -12.9822   21.8522 N   0  0  0  0  0  0  0  0  0  0  0  0
  -30.8397  -19.7186   19.8232 N   0  0  0  0  0  0  0  0  0  0  0  0
  -25.1099  -32.1399   22.2298 N   0  0  0  0  0  0  0  0  0  0  0  0
  -20.2991  -27.7376   22.9458 N   0  0  0  0  0  0  0  0  0  0  0  0
  -18.8674  -25.4062   20.5830 N   0  3  0  0  0  0  0  0  0  0  0  0
  -22.8187  -15.0919   22.1322 O   0  0  0  0  0  0  0  0  0  0  0  0
  -25.5025  -30.0268   23.1260 O   0  0  0  0  0  0  0  0  0  0  0  0
  -21.4104  -30.3608   22.6413 O   0  0  0  0  0  0  0  0  0  0  0  0
  -21.0643  -25.6384   22.3256 O   0  0  0  0  0  0  0  0  0  0  0  0
  -31.9161  -14.7038   20.0493 O   0  0  0  0  0  0  0  0  0  0  0  0
  -21.5899   -7.4570   21.2461 O   0  0  0  0  0  0  0  0  0  0  0  0
  -27.5233  -24.9790   20.2583 O   0  0  0  0  0  0  0  0  0  1  0  0
  -22.6313   -3.0278   24.3609 F   0  0  0  0  0  0  0  0  0  0  0  0
  -19.6601   -6.4259   22.9360 F   0  0  0  0  0  0  0  0  0  0  0  0
  -28.8200  -20.1153   17.5754 Cl  0  0  0  0  0  0  0  0  0  0  0  0
  1  2  1  0  0  0  0
  1  5  2  0  0  0  0
  2  6  2  0  0  0  0
  3  8  2  0  0  0  0
  3 15  1  0  0  0  0
  4  9  1  0  0  0  0
  4 15  2  0  0  0  0
  5 17  1  0  0  0  0
  6 19  1  0  0  0  0
  7 10  2  0  0  0  0
  7 18  1  0  0  0  0
  8 24  1  0  0  0  0
  9 24  2  0  0  0  0
 10 25  1  0  0  0  0
 11 12  2  0  0  0  0
 11 26  1  0  0  0  0
 12 27  1  0  0  0  0
 13 20  1  0  0  0  0
 13 25  2  0  0  0  0
 14 27  2  0  0  0  0
 14 28  1  0  0  0  0
 15 29  1  0  0  0  0
 16 29  1  0  0  0  0
 16 32  2  0  0  0  0
 16 33  1  0  0  0  0
 17 19  2  0  0  0  0
 17 38  1  0  0  0  0
 18 20  2  0  0  0  0
 18 39  1  0  0  0  0
 19 50  1  0  0  0  0
 20 40  1  0  0  0  0
 21 22  1  0  0  0  0
 21 23  2  0  0  0  0
 21 54  1  0  0  0  0
 22 30  2  0  0  0  0
 22 55  1  0  0  0  0
 23 31  1  0  0  0  0
 23 73  1  0  0  0  0
 24 82  1  0  0  0  0
 25 83  1  0  0  0  0
 26 28  2  0  0  0  0
 26 82  1  0  0  0  0
 27 84  1  0  0  0  0
 28 85  1  0  0  0  0
 29 65  2  0  0  0  0
 30 61  1  0  0  0  0
 30 66  1  0  0  0  0
 31 66  2  0  0  0  0
 31 86  1  0  0  0  0
 32 67  1  0  0  0  0
 32 71  1  0  0  0  0
 33 72  1  0  0  0  0
 33 77  2  0  0  0  0
 34 51  1  0  0  0  0
 34 74  1  0  0  0  0
 34 78  2  0  0  0  0
 35 62  1  0  0  0  0
 35 68  1  0  0  0  0
 35 79  2  0  0  0  0
 36 63  1  0  0  0  0
 36 75  1  0  0  0  0
 36 80  2  0  0  0  0
 37 69  1  0  0  0  0
 37 70  1  0  0  0  0
 37 81  2  0  0  0  0
 38 41  1  0  0  0  0
 39 51  1  0  0  0  0
 40 68  1  0  0  0  0
 41 43  1  0  0  0  0
 42 44  1  0  0  0  0
 42 46  1  0  0  0  0
 43 50  1  0  0  0  0
 44 52  1  0  0  0  0
 45 47  1  0  0  0  0
 45 53  1  0  0  0  0
 46 69  1  0  0  0  0
 47 70  1  0  0  0  0
 48 52  1  0  0  0  0
 48 69  1  0  0  0  0
 49 53  1  0  0  0  0
 49 70  1  0  0  0  0
 50 74  1  0  0  0  0
 51 68  1  0  0  0  0
 52 67  1  0  0  0  0
 53 73  1  0  0  0  0
 56 63  1  0  0  0  0
 57 64  1  0  0  0  0
 58 64  1  0  0  0  0
 59 64  1  0  0  0  0
 60 76  1  0  0  0  0
 61 83  1  0  0  0  0
 62 64  1  0  0  0  0
 62 75  1  0  0  0  0
 63 76  1  0  0  0  0
 65 67  1  0  0  0  0
M  CHG  1  76   1
M  ISO  4  37 100  61 101  70 100  83 101
M  END
> <Batch ID>
0171

> <Smiles>
CNC(C)C(=O)NC(C(=O)N1Cc2cc([101O:1][101CH2:1]c3nc(Cl)c(NC4CC[100N:0]([100C:0](=O)N5CCCC(n6nc(-c7ccc(Oc8ccc(F)cc8F)cc7)c(C(N)=O)c6N)C5)C4)c(C)c3C)ccc2CC1C(=O)NC1CCCc2ccccc21)C(C)(C)C

> <Shape>
0.349

> <Color>
0.106

> <Negative vol penalty>
0.000

$$$$

  -OEChem-04052322373D

 83 92  0     1  0  0  0  0  0999 V2000
  -14.9263  -23.5483   26.2759 C   0  0  0  0  0  0  0  0  0  0  0  0
  -16.0918  -23.2114   26.9567 C   0  0  0  0  0  0  0  0  0  0  0  0
  -23.0760   -9.8652   19.9435 C   0  0  0  0  0  0  0  0  0  0  0  0
  -23.8345   -9.8780   22.2373 C   0  0  0  0  0  0  0  0  0  0  0  0
  -14.9144  -23.5639   24.8818 C   0  0  0  0  0  0  0  0  0  0  0  0
  -17.2459  -22.8888   26.2437 C   0  0  0  0  0  0  0  0  0  0  0  0
  -24.3802  -23.3967   26.6438 C   0  0  0  0  0  0  0  0  0  0  0  0
  -22.3327   -8.7121   20.1957 C   0  0  0  0  0  0  0  0  0  0  0  0
  -23.0913   -8.7249   22.4895 C   0  0  0  0  0  0  0  0  0  0  0  0
  -25.5235  -22.6047   26.5469 C   0  0  0  0  0  0  0  0  0  0  0  0
  -19.8633   -7.9263   23.0921 C   0  0  0  0  0  0  0  0  0  0  0  0
  -19.1057   -7.8886   24.2626 C   0  0  0  0  0  0  0  0  0  0  0  0
  -25.4074  -22.7421   24.1413 C   0  0  0  0  0  0  0  0  0  0  0  0
  -31.4820  -19.3835   22.7421 C   0  0  0  0  0  0  0  0  0  0  0  0
  -29.7460  -17.7193   22.7095 C   0  0  0  0  0  0  0  0  0  0  0  0
  -20.3480   -5.9537   25.0042 C   0  0  0  0  0  0  0  0  0  0  0  0
  -23.8269  -10.4481   20.9643 C   0  0  0  0  0  0  0  0  0  0  0  0
  -24.1671  -12.9732   20.8386 C   0  0  0  0  0  0  0  0  0  0  0  0
  -16.0716  -23.2507   24.1514 C   0  0  0  0  0  0  0  0  0  0  0  0
  -23.7346  -23.8591   25.4880 C   0  0  0  0  0  0  0  0  0  0  0  0
  -17.2491  -22.8990   24.8385 C   0  0  0  0  0  0  0  0  0  0  0  0
  -24.2576  -23.5419   24.2263 C   0  0  0  0  0  0  0  0  0  0  0  0
  -30.2194  -18.9550   23.1364 C   0  0  0  0  0  0  0  0  0  0  0  0
  -22.3403   -8.1420   21.4687 C   0  0  0  0  0  0  0  0  0  0  0  0
  -26.0356  -22.2748   25.2954 C   0  0  0  0  0  0  0  0  0  0  0  0
  -20.8632   -6.9777   22.8775 C   0  0  0  0  0  0  0  0  0  0  0  0
  -19.3481   -6.9023   25.2187 C   0  0  0  0  0  0  0  0  0  0  0  0
  -21.1056   -5.9914   23.8336 C   0  0  0  0  0  0  0  0  0  0  0  0
  -24.5953  -11.6389   20.7042 C   0  0  0  0  0  0  0  0  0  0  0  0
  -32.2259  -18.5459   21.9269 C   0  0  0  0  0  0  0  0  0  0  0  0
  -30.5676  -16.9562   21.8956 C   0  0  0  0  0  0  0  0  0  0  0  0
  -25.2590  -13.7226   20.4742 C   0  0  0  0  0  0  0  0  0  0  0  0
  -22.8960  -13.4891   21.2556 C   0  0  0  0  0  0  0  0  0  0  0  0
  -20.8486  -23.4571   24.2178 C   0  0  0  0  0  0  0  0  0  0  0  0
  -21.9021  -25.6721   22.0950 C   0  0  0  0  0  0  0  0  0  0  0  0
  -24.5482  -27.1941   20.5691 C   0  0  0  0  0  0  0  0  0  0  0  0
  -30.7243  -14.7723   20.6496 C   0  0  0  0  0  0  0  0  0  0  0  0
  -15.9973  -23.2352   22.6451 C   0  0  0  0  0  0  0  0  0  0  0  0
  -22.5176  -24.7346   25.6101 C   0  0  0  0  0  0  0  0  0  0  0  0
  -23.6134  -24.0300   22.9553 C   0  0  0  0  0  0  0  0  0  0  0  0
  -17.3653  -23.2452   21.9677 C   0  0  0  0  0  0  0  0  0  0  0  0
  -29.6129  -12.3522   18.2863 C   0  0  0  0  0  0  0  0  0  0  0  0
  -28.9841  -19.1883   25.3768 C   0  0  0  0  0  0  0  0  0  0  0  0
  -18.2933  -22.2277   22.6238 C   0  0  0  0  0  0  0  0  0  0  0  0
  -28.1732  -12.0607   18.7157 C   0  0  0  0  0  0  0  0  0  0  0  0
  -27.4585  -19.1110   25.3882 C   0  0  0  0  0  0  0  0  0  0  0  0
  -28.0311  -20.2258   23.3595 C   0  0  0  0  0  0  0  0  0  0  0  0
  -30.5272  -12.5845   19.4879 C   0  0  0  0  0  0  0  0  0  0  0  0
  -28.6190  -13.3108   20.8664 C   0  0  0  0  0  0  0  0  0  0  0  0
  -29.3643  -19.8294   24.0260 C   0  0  2  0  0  0  0  0  0  0  0  0
  -18.5281  -22.5671   24.1006 C   0  0  1  0  0  0  0  0  0  0  0  0
  -21.6454  -24.7232   24.3585 C   0  0  1  0  0  0  0  0  0  0  0  0
  -27.6469  -13.1342   19.6885 C   0  0  2  0  0  0  0  0  0  0  0  0
  -27.0246  -20.2679   24.5013 C   0  0  2  0  0  0  0  0  0  1  0  0
  -33.5852  -18.9736   21.4834 C   0  0  0  0  0  0  0  0  0  0  0  0
  -25.0940  -28.9403   18.8515 C   0  0  0  0  0  0  0  0  0  0  0  0
  -21.1471  -23.7205   19.8744 C   0  0  0  0  0  0  0  0  0  0  0  0
  -22.5535  -25.0715   18.3043 C   0  0  0  0  0  0  0  0  0  0  0  0
  -20.5698  -26.1082   19.4056 C   0  0  0  0  0  0  0  0  0  0  0  0
  -26.0005  -28.8503   22.5456 C   0  0  0  0  0  0  0  0  0  0  0  0
  -22.6377  -25.6253   20.7776 C   0  0  1  0  0  0  0  0  0  0  0  0
  -24.8662  -28.6588   20.3285 C   0  0  2  0  0  0  0  0  0  0  0  0
  -21.7383  -25.1204   19.6142 C   0  0  0  0  0  0  0  0  0  0  0  0
  -25.8605  -11.5430   20.2869 N   0  0  0  0  0  0  0  0  0  0  0  0
  -31.7998  -17.3389   21.4919 N   0  0  0  0  0  0  0  0  0  0  0  0
  -26.2366  -12.8265   20.1558 N   0  0  0  0  0  0  0  0  0  0  0  0
  -22.4221  -24.8779   23.1268 N   0  0  0  0  0  0  0  0  0  0  0  0
  -29.9670  -13.6169   20.3626 N   0  0  0  0  0  0  0  0  0  0  0  0
  -25.4685  -15.0540   20.3982 N   0  0  0  0  0  0  0  0  0  0  0  0
  -21.8846  -12.5801   21.5944 N   0  0  0  0  0  0  0  0  0  0  0  0
  -30.0759  -15.6988   21.4655 N   0  0  0  0  0  0  0  0  0  0  0  0
  -19.4803  -23.6498   24.2253 N   0  0  0  0  0  0  0  0  0  0  0  0
  -23.1894  -26.9599   20.5705 N   0  0  0  0  0  0  0  0  0  0  0  0
  -26.0936  -29.0521   21.0767 N   0  3  0  0  0  0  0  0  0  0  0  0
  -22.6589  -14.7197   21.3100 O   0  0  0  0  0  0  0  0  0  0  0  0
  -21.4320  -22.3850   24.1091 O   0  0  0  0  0  0  0  0  0  0  0  0
  -20.9070  -26.3925   22.2067 O   0  0  0  0  0  0  0  0  0  0  0  0
  -25.4184  -26.3421   20.7352 O   0  0  0  0  0  0  0  0  0  0  0  0
  -31.8536  -14.9407   20.1822 O   0  0  0  0  0  0  0  0  0  0  0  0
  -21.6150   -7.0170   21.7152 O   0  0  0  0  0  0  0  0  0  0  0  0
  -27.1510  -21.5014   25.1980 O   0  0  0  0  0  0  0  0  0  1  0  0
  -18.6215   -6.8671   26.3435 F   0  0  0  0  0  0  0  0  0  0  0  0
  -22.0656   -5.0781   23.6337 F   0  0  0  0  0  0  0  0  0  0  0  0
  1  2  1  0  0  0  0
  1  5  2  0  0  0  0
  2  6  2  0  0  0  0
  3  8  2  0  0  0  0
  3 17  1  0  0  0  0
  4  9  1  0  0  0  0
  4 17  2  0  0  0  0
  5 19  1  0  0  0  0
  6 21  1  0  0  0  0
  7 10  2  0  0  0  0
  7 20  1  0  0  0  0
  8 24  1  0  0  0  0
  9 24  2  0  0  0  0
 10 25  1  0  0  0  0
 11 12  2  0  0  0  0
 11 26  1  0  0  0  0
 12 27  1  0  0  0  0
 13 22  1  0  0  0  0
 13 25  2  0  0  0  0
 14 23  1  0  0  0  0
 14 30  2  0  0  0  0
 15 23  2  0  0  0  0
 15 31  1  0  0  0  0
 16 27  2  0  0  0  0
 16 28  1  0  0  0  0
 17 29  1  0  0  0  0
 18 29  1  0  0  0  0
 18 32  2  0  0  0  0
 18 33  1  0  0  0  0
 19 21  2  0  0  0  0
 19 38  1  0  0  0  0
 20 22  2  0  0  0  0
 20 39  1  0  0  0  0
 21 51  1  0  0  0  0
 22 40  1  0  0  0  0
 23 50  1  0  0  0  0
 24 80  1  0  0  0  0
 25 81  1  0  0  0  0
 26 28  2  0  0  0  0
 26 80  1  0  0  0  0
 27 82  1  0  0  0  0
 28 83  1  0  0  0  0
 29 64  2  0  0  0  0
 30 55  1  0  0  0  0
 30 65  1  0  0  0  0
 31 65  2  0  0  0  0
 31 71  1  0  0  0  0
 32 66  1  0  0  0  0
 32 69  1  0  0  0  0
 33 70  1  0  0  0  0
 33 75  2  0  0  0  0
 34 52  1  0  0  0  0
 34 72  1  0  0  0  0
 34 76  2  0  0  0  0
 35 61  1  0  0  0  0
 35 67  1  0  0  0  0
 35 77  2  0  0  0  0
 36 62  1  0  0  0  0
 36 73  1  0  0  0  0
 36 78  2  0  0  0  0
 37 68  1  0  0  0  0
 37 71  1  0  0  0  0
 37 79  2  0  0  0  0
 38 41  1  0  0  0  0
 39 52  1  0  0  0  0
 40 67  1  0  0  0  0
 41 44  1  0  0  0  0
 42 45  1  0  0  0  0
 42 48  1  0  0  0  0
 43 46  1  0  0  0  0
 43 50  1  0  0  0  0
 44 51  1  0  0  0  0
 45 53  1  0  0  0  0
 46 54  1  0  0  0  0
 47 50  1  0  0  0  0
 47 54  1  0  0  0  0
 48 68  1  0  0  0  0
 49 53  1  0  0  0  0
 49 68  1  0  0  0  0
 51 72  1  0  0  0  0
 52 67  1  0  0  0  0
 53 66  1  0  0  0  0
 54 81  1  0  0  0  0
 56 62  1  0  0  0  0
 57 63  1  0  0  0  0
 58 63  1  0  0  0  0
 59 63  1  0  0  0  0
 60 74  1  0  0  0  0
 61 63  1  0  0  0  0
 61 73  1  0  0  0  0
 62 74  1  0  0  0  0
 64 66  1  0  0  0  0
M  CHG  1  74   1
M  ISO  4  37 100  54 101  71 100  81 101
M  END
> <Batch ID>
0171

> <Smiles>
CNC(C)C(=O)NC(C(=O)N1Cc2cc([101O:1][101CH:1]3CCC(c4cc(C)nc([100NH:0][100C:0](=O)N5CCCC(n6nc(-c7ccc(Oc8ccc(F)cc8F)cc7)c(C(N)=O)c6N)C5)c4)C3)ccc2CC1C(=O)NC1CCCc2ccccc21)C(C)(C)C

> <Shape>
0.212

> <Color>
0.192

> <Negative vol penalty>
0.000

$$$$

  -OEChem-04052322373D

 88 98  0     1  0  0  0  0  0999 V2000
  -30.2187  -33.8959   22.4196 C   0  0  0  0  0  0  0  0  0  0  0  0
  -30.4676  -32.6575   21.8368 C   0  0  0  0  0  0  0  0  0  0  0  0
  -23.3079  -10.1417   22.1091 C   0  0  0  0  0  0  0  0  0  0  0  0
  -24.4072  -11.4129   23.8449 C   0  0  0  0  0  0  0  0  0  0  0  0
  -29.3331  -33.9952   23.4918 C   0  0  0  0  0  0  0  0  0  0  0  0
  -29.8318  -31.5172   22.3267 C   0  0  0  0  0  0  0  0  0  0  0  0
  -27.9488  -26.6732   19.0870 C   0  0  0  0  0  0  0  0  0  0  0  0
  -22.7103   -9.3356   23.0779 C   0  0  0  0  0  0  0  0  0  0  0  0
  -23.8096  -10.6067   24.8137 C   0  0  0  0  0  0  0  0  0  0  0  0
  -28.5149  -25.4196   18.8593 C   0  0  0  0  0  0  0  0  0  0  0  0
  -20.0967   -9.5305   25.2142 C   0  0  0  0  0  0  0  0  0  0  0  0
  -18.7393   -9.2429   25.0710 C   0  0  0  0  0  0  0  0  0  0  0  0
  -31.3366  -19.6015   23.7361 C   0  0  0  0  0  0  0  0  0  0  0  0
  -31.2015  -19.4658   20.9529 C   0  0  0  0  0  0  0  0  0  0  0  0
  -27.1924  -24.5027   20.6565 C   0  0  0  0  0  0  0  0  0  0  0  0
  -19.2503   -6.8839   24.9651 C   0  0  0  0  0  0  0  0  0  0  0  0
  -24.1564  -11.1803   22.4926 C   0  0  0  0  0  0  0  0  0  0  0  0
  -24.2633  -13.2045   20.9437 C   0  0  0  0  0  0  0  0  0  0  0  0
  -28.6787  -32.8570   23.9888 C   0  0  0  0  0  0  0  0  0  0  0  0
  -27.0068  -26.8536   20.1100 C   0  0  0  0  0  0  0  0  0  0  0  0
  -28.9376  -31.6011   23.4074 C   0  0  0  0  0  0  0  0  0  0  0  0
  -31.1182  -20.7604   22.9911 C   0  0  0  0  0  0  0  0  0  0  0  0
  -31.4200  -18.3069   21.6979 C   0  0  0  0  0  0  0  0  0  0  0  0
  -26.6140  -25.7591   20.8934 C   0  0  0  0  0  0  0  0  0  0  0  0
  -31.4875  -18.3748   23.0895 C   0  0  0  0  0  0  0  0  0  0  0  0
  -31.0506  -20.6925   21.5995 C   0  0  0  0  0  0  0  0  0  0  0  0
  -22.9611   -9.5681   24.4302 C   0  0  0  0  0  0  0  0  0  0  0  0
  -28.1388  -24.3347   19.6460 C   0  0  0  0  0  0  0  0  0  0  0  0
  -21.0309   -8.4947   25.2328 C   0  0  0  0  0  0  0  0  0  0  0  0
  -18.3161   -7.9196   24.9465 C   0  0  0  0  0  0  0  0  0  0  0  0
  -20.6076   -7.1715   25.1083 C   0  0  0  0  0  0  0  0  0  0  0  0
  -24.7745  -12.0131   21.4922 C   0  0  0  0  0  0  0  0  0  0  0  0
  -25.2202  -13.6067   20.0443 C   0  0  0  0  0  0  0  0  0  0  0  0
  -23.0334  -13.8868   21.2224 C   0  0  0  0  0  0  0  0  0  0  0  0
  -26.8853  -28.5963   22.7656 C   0  0  0  0  0  0  0  0  0  0  0  0
  -23.8447  -27.4738   22.8983 C   0  0  0  0  0  0  0  0  0  0  0  0
  -21.6075  -25.0559   22.0064 C   0  0  0  0  0  0  0  0  0  0  0  0
  -30.6797  -14.4472   18.8844 C   0  0  0  0  0  0  0  0  0  0  0  0
  -27.7659  -33.0067   25.1801 C   0  0  0  0  0  0  0  0  0  0  0  0
  -26.3857  -28.2065   20.3254 C   0  0  0  0  0  0  0  0  0  0  0  0
  -25.5917  -25.8957   21.9910 C   0  0  0  0  0  0  0  0  0  0  0  0
  -26.8471  -31.8073   25.3980 C   0  0  0  0  0  0  0  0  0  0  0  0
  -29.2555  -11.2142   18.2119 C   0  0  0  0  0  0  0  0  0  0  0  0
  -29.9012  -22.1819   24.7722 C   0  0  0  0  0  0  0  0  0  0  0  0
  -29.7222  -22.8835   23.4622 C   0  0  0  0  0  0  0  0  0  0  0  0
  -27.6345  -30.5053   25.2908 C   0  0  0  0  0  0  0  0  0  0  0  0
  -27.9504  -11.2054   19.0009 C   0  0  0  0  0  0  0  0  0  0  0  0
  -30.3297  -12.0056   18.9460 C   0  0  0  0  0  0  0  0  0  0  0  0
  -30.4856  -15.8465   21.0899 C   0  0  0  0  0  0  0  0  0  0  0  0
  -31.3127  -16.8611   19.4225 C   0  0  0  0  0  0  0  0  0  0  0  0
  -28.6125  -13.4495   20.0044 C   0  0  0  0  0  0  0  0  0  0  0  0
  -30.9585  -22.0611   23.7079 C   0  0  0  0  0  0  0  0  0  0  0  0
  -31.5879  -16.9233   20.9427 C   0  0  0  0  0  0  0  0  0  0  0  0
  -28.2483  -30.3451   23.8946 C   0  0  1  0  0  0  0  0  0  0  0  0
  -25.8173  -28.3863   21.7296 C   0  0  1  0  0  0  0  0  0  0  0  0
  -27.4996  -12.6404   19.3092 C   0  0  2  0  0  0  0  0  0  0  0  0
  -31.7210  -17.1462   23.9050 C   0  0  0  0  0  0  0  0  0  0  0  0
  -19.2052  -24.3912   22.2968 C   0  0  0  0  0  0  0  0  0  0  0  0
  -32.1662  -21.7655   18.8335 C   0  0  0  0  0  0  0  0  0  0  0  0
  -24.4541  -26.5182   25.7312 C   0  0  0  0  0  0  0  0  0  0  0  0
  -22.4157  -25.0700   25.6064 C   0  0  0  0  0  0  0  0  0  0  0  0
  -22.1941  -27.5492   25.4415 C   0  0  0  0  0  0  0  0  0  0  0  0
  -21.0884  -25.2246   19.0976 C   0  0  0  0  0  0  0  0  0  0  0  0
  -30.0208  -23.0806   18.9103 C   0  0  0  0  0  0  0  0  0  1  0  0
  -23.1782  -26.2610   23.5014 C   0  0  1  0  0  0  0  0  0  0  0  0
  -20.2049  -25.1437   21.4325 C   0  0  2  0  0  0  0  0  0  0  0  0
  -30.7545  -21.8343   19.4008 C   0  0  2  0  0  0  0  0  0  0  0  0
  -23.0813  -26.3471   25.0508 C   0  0  0  0  0  0  0  0  0  0  0  0
  -25.9638  -11.6800   20.9836 N   0  0  0  0  0  0  0  0  0  0  0  0
  -26.2078  -12.6681   20.1061 N   0  0  0  0  0  0  0  0  0  0  0  0
  -25.0179  -27.2401   22.1668 N   0  0  0  0  0  0  0  0  0  0  0  0
  -29.8861  -13.3633   19.2764 N   0  0  0  0  0  0  0  0  0  0  0  0
  -30.6845  -15.5705   19.6772 N   0  0  0  0  0  0  0  0  0  0  0  0
  -25.3047  -14.6681   19.2144 N   0  0  0  0  0  0  0  0  0  0  0  0
  -22.1649  -13.3362   22.1747 N   0  0  0  0  0  0  0  0  0  0  0  0
  -30.8312  -21.8549   20.8277 N   0  0  0  0  0  0  0  0  0  0  0  0
  -27.2418  -29.9191   22.9459 N   0  0  0  0  0  0  0  0  0  0  0  0
  -21.8908  -26.1259   22.8287 N   0  0  0  0  0  0  0  0  0  0  0  0
  -20.1696  -24.5640   20.0600 N   0  3  0  0  0  0  0  0  0  0  0  0
  -22.7066  -14.9443   20.6322 O   0  0  0  0  0  0  0  0  0  0  0  0
  -27.3503  -27.6299   23.3584 O   0  0  0  0  0  0  0  0  0  0  0  0
  -23.3391  -28.5867   23.0638 O   0  0  0  0  0  0  0  0  0  0  0  0
  -22.3738  -24.1289   21.7537 O   0  0  0  0  0  0  0  0  0  0  0  0
  -31.3889  -14.4044   17.8703 O   0  0  0  0  0  0  0  0  0  0  0  0
  -22.3780   -8.7818   25.3759 O   0  0  0  0  0  0  0  0  0  0  0  0
  -28.6938  -23.1022   19.4248 O   0  0  0  0  0  0  0  0  0  1  0  0
  -17.0125   -7.6435   24.8105 F   0  0  0  0  0  0  0  0  0  0  0  0
  -21.5003   -6.1722   25.1267 F   0  0  0  0  0  0  0  0  0  0  0  0
  1  2  1  0  0  0  0
  1  5  2  0  0  0  0
  2  6  2  0  0  0  0
  3  8  2  0  0  0  0
  3 17  1  0  0  0  0
  4  9  1  0  0  0  0
  4 17  2  0  0  0  0
  5 19  1  0  0  0  0
  6 21  1  0  0  0  0
  7 10  2  0  0  0  0
  7 20  1  0  0  0  0
  8 27  1  0  0  0  0
  9 27  2  0  0  0  0
 10 28  1  0  0  0  0
 11 12  2  0  0  0  0
 11 29  1  0  0  0  0
 12 30  1  0  0  0  0
 13 22  1  0  0  0  0
 13 25  2  0  0  0  0
 14 23  2  0  0  0  0
 14 26  1  0  0  0  0
 15 24  1  0  0  0  0
 15 28  2  0  0  0  0
 16 30  2  0  0  0  0
 16 31  1  0  0  0  0
 17 32  1  0  0  0  0
 18 32  1  0  0  0  0
 18 33  2  0  0  0  0
 18 34  1  0  0  0  0
 19 21  2  0  0  0  0
 19 39  1  0  0  0  0
 20 24  2  0  0  0  0
 20 40  1  0  0  0  0
 21 54  1  0  0  0  0
 22 26  2  0  0  0  0
 22 52  1  0  0  0  0
 23 25  1  0  0  0  0
 23 53  1  0  0  0  0
 24 41  1  0  0  0  0
 25 57  1  0  0  0  0
 26 76  1  0  0  0  0
 27 85  1  0  0  0  0
 28 86  1  0  0  0  0
 29 31  2  0  0  0  0
 29 85  1  0  0  0  0
 30 87  1  0  0  0  0
 31 88  1  0  0  0  0
 32 69  2  0  0  0  0
 33 70  1  0  0  0  0
 33 74  1  0  0  0  0
 34 75  1  0  0  0  0
 34 80  2  0  0  0  0
 35 55  1  0  0  0  0
 35 77  1  0  0  0  0
 35 81  2  0  0  0  0
 36 65  1  0  0  0  0
 36 71  1  0  0  0  0
 36 82  2  0  0  0  0
 37 66  1  0  0  0  0
 37 78  1  0  0  0  0
 37 83  2  0  0  0  0
 38 72  1  0  0  0  0
 38 73  1  0  0  0  0
 38 84  2  0  0  0  0
 39 42  1  0  0  0  0
 40 55  1  0  0  0  0
 41 71  1  0  0  0  0
 42 46  1  0  0  0  0
 43 47  1  0  0  0  0
 43 48  1  0  0  0  0
 44 45  1  0  0  0  0
 44 52  1  0  0  0  0
 45 52  1  0  0  0  0
 46 54  1  0  0  0  0
 47 56  1  0  0  0  0
 48 72  1  0  0  0  0
 49 53  1  0  0  0  0
 49 73  1  0  0  0  0
 50 53  1  0  0  0  0
 50 73  1  0  0  0  0
 51 56  1  0  0  0  0
 51 72  1  0  0  0  0
 54 77  1  0  0  0  0
 55 71  1  0  0  0  0
 56 70  1  0  0  0  0
 58 66  1  0  0  0  0
 59 67  1  0  0  0  0
 60 68  1  0  0  0  0
 61 68  1  0  0  0  0
 62 68  1  0  0  0  0
 63 79  1  0  0  0  0
 64 67  1  0  0  0  0
 64 86  1  0  0  0  0
 65 68  1  0  0  0  0
 65 78  1  0  0  0  0
 66 79  1  0  0  0  0
 67 76  1  0  0  0  0
 69 70  1  0  0  0  0
M  CHG  1  79   1
M  ISO  4  38 100  64 101  73 100  86 101
M  END
> <Batch ID>
0171

> <Smiles>
CNC(C)C(=O)NC(C(=O)N1Cc2cc([101O:1][101CH2:1]C(C)Nc3cc(C4C[100N:0]([100C:0](=O)N5CCCC(n6nc(-c7ccc(Oc8ccc(F)cc8F)cc7)c(C(N)=O)c6N)C5)C4)c(C)cc3C3CC3)ccc2CC1C(=O)NC1CCCc2ccccc21)C(C)(C)C

> <Shape>
0.221

> <Color>
0.122

> <Negative vol penalty>
0.000

$$$$

  -OEChem-04052322373D

 86 95  0     1  0  0  0  0  0999 V2000
  -19.6238  -28.3196   22.9661 C   0  0  0  0  0  0  0  0  0  0  0  0
  -20.2278  -27.2472   23.6146 C   0  0  0  0  0  0  0  0  0  0  0  0
  -30.0288  -23.7588   20.4168 C   0  0  0  0  0  0  0  0  0  0  0  0
  -27.6566  -23.3102   20.3242 C   0  0  0  0  0  0  0  0  0  0  0  0
  -18.9676  -28.1189   21.7524 C   0  0  0  0  0  0  0  0  0  0  0  0
  -20.1751  -25.9731   23.0502 C   0  0  0  0  0  0  0  0  0  0  0  0
  -24.0133  -19.9503   22.4938 C   0  0  0  0  0  0  0  0  0  0  0  0
  -29.7962  -25.0727   20.0104 C   0  0  0  0  0  0  0  0  0  0  0  0
  -27.4240  -24.6241   19.9178 C   0  0  0  0  0  0  0  0  0  0  0  0
  -23.8956  -18.5757   22.6948 C   0  0  0  0  0  0  0  0  0  0  0  0
  -27.2442  -27.6786   21.3524 C   0  0  0  0  0  0  0  0  0  0  0  0
  -26.2000  -28.3701   21.9665 C   0  0  0  0  0  0  0  0  0  0  0  0
  -22.8025  -18.3625   20.5549 C   0  0  0  0  0  0  0  0  0  0  0  0
  -25.0902  -13.9215   21.4594 C   0  0  0  0  0  0  0  0  0  0  0  0
  -25.1262  -28.6539   19.8210 C   0  0  0  0  0  0  0  0  0  0  0  0
  -28.9590  -22.8775   20.5737 C   0  0  0  0  0  0  0  0  0  0  0  0
  -29.2391  -21.0326   22.3131 C   0  0  0  0  0  0  0  0  0  0  0  0
  -18.9151  -26.8435   21.1681 C   0  0  0  0  0  0  0  0  0  0  0  0
  -23.5159  -20.5439   21.3248 C   0  0  0  0  0  0  0  0  0  0  0  0
  -19.5164  -25.7549   21.8282 C   0  0  0  0  0  0  0  0  0  0  0  0
  -22.9174  -19.7445   20.3404 C   0  0  0  0  0  0  0  0  0  0  0  0
  -23.8214  -13.5065   21.0900 C   0  0  0  0  0  0  0  0  0  0  0  0
  -23.6425  -12.2882   20.4309 C   0  0  0  0  0  0  0  0  0  0  0  0
  -28.4938  -25.5053   19.7609 C   0  0  0  0  0  0  0  0  0  0  0  0
  -23.2876  -17.7820   21.7266 C   0  0  0  0  0  0  0  0  0  0  0  0
  -27.2294  -27.4748   19.9726 C   0  0  0  0  0  0  0  0  0  0  0  0
  -25.1410  -28.8577   21.2008 C   0  0  0  0  0  0  0  0  0  0  0  0
  -26.1704  -27.9624   19.2069 C   0  0  0  0  0  0  0  0  0  0  0  0
  -29.1986  -21.5200   20.9930 C   0  0  0  0  0  0  0  0  0  0  0  0
  -26.1424  -13.0781   21.1359 C   0  0  0  0  0  0  0  0  0  0  0  0
  -24.7525  -11.5146   20.1587 C   0  0  0  0  0  0  0  0  0  0  0  0
  -29.4974  -19.6906   22.1758 C   0  0  0  0  0  0  0  0  0  0  0  0
  -29.0592  -21.7305   23.5526 C   0  0  0  0  0  0  0  0  0  0  0  0
  -21.2889  -22.7204   20.6868 C   0  0  0  0  0  0  0  0  0  0  0  0
  -22.4267  -22.4313   17.6629 C   0  0  0  0  0  0  0  0  0  0  0  0
  -24.0567  -20.5222   15.3509 C   0  0  0  0  0  0  0  0  0  0  0  0
  -28.5804  -14.7895   19.6691 C   0  0  0  0  0  0  0  0  0  0  0  0
  -18.1536  -26.6668   19.8783 C   0  0  0  0  0  0  0  0  0  0  0  0
  -23.6745  -22.0243   21.1112 C   0  0  0  0  0  0  0  0  0  0  0  0
  -22.3853  -20.3300   19.0588 C   0  0  0  0  0  0  0  0  0  0  0  0
  -18.4655  -25.3555   19.1616 C   0  0  0  0  0  0  0  0  0  0  0  0
  -30.9005  -17.0054   18.1252 C   0  0  0  0  0  0  0  0  0  0  0  0
  -18.4377  -24.1899   20.1452 C   0  0  0  0  0  0  0  0  0  0  0  0
  -30.6635  -18.3379   18.8380 C   0  0  0  0  0  0  0  0  0  0  0  0
  -21.5557  -13.3956   20.4054 C   0  0  0  0  0  0  0  0  0  0  0  0
  -29.5993  -16.2302   17.9305 C   0  0  0  0  0  0  0  0  0  0  0  0
  -28.5782  -17.3496   19.8742 C   0  0  0  0  0  0  0  0  0  0  0  0
  -19.5020  -24.3626   21.2355 C   0  0  1  0  0  0  0  0  0  0  0  0
  -22.6719  -22.5948   20.1129 C   0  0  1  0  0  0  0  0  0  0  0  0
  -29.8690  -18.1421   20.1433 C   0  0  2  0  0  0  0  0  0  0  0  0
  -22.5079  -14.2081   21.3302 C   0  0  1  0  0  0  0  0  0  0  0  0
  -22.1952  -12.0029   20.1390 C   0  0  0  0  0  0  0  0  0  0  0  0
  -24.6530  -10.2148   19.4376 C   0  0  0  0  0  0  0  0  0  0  0  0
  -22.0953  -14.1172   22.8045 C   0  0  0  0  0  0  0  0  0  0  0  0
  -21.6436  -10.9251   21.0800 C   0  0  0  0  0  0  0  0  0  0  0  0
  -21.9639  -11.5769   18.6832 C   0  0  0  0  0  0  0  0  0  0  0  0
  -24.8024  -20.5392   12.9548 C   0  0  0  0  0  0  0  0  0  0  0  0
  -19.5594  -21.8929   16.7692 C   0  0  0  0  0  0  0  0  0  0  0  0
  -20.4723  -20.9981   14.6165 C   0  0  0  0  0  0  0  0  0  0  0  0
  -20.8663  -23.3806   15.2417 C   0  0  0  0  0  0  0  0  0  0  0  0
  -26.9053  -20.2757   16.1147 C   0  0  0  0  0  0  0  0  0  0  0  0
  -27.5333  -13.4809   21.4994 C   0  0  0  0  0  0  0  0  0  0  0  0
  -22.5419  -15.6807   20.8993 C   0  0  0  0  0  0  0  0  0  1  0  0
  -22.1023  -21.5541   16.4779 C   0  0  1  0  0  0  0  0  0  0  0  0
  -25.1885  -20.8478   14.3931 C   0  0  2  0  0  0  0  0  0  0  0  0
  -20.7583  -21.9453   15.8012 C   0  0  0  0  0  0  0  0  0  0  0  0
  -29.4142  -20.5653   20.0840 N   0  0  0  0  0  0  0  0  0  0  0  0
  -26.0077  -11.8882   20.4962 N   0  0  0  0  0  0  0  0  0  0  0  0
  -29.5926  -19.4646   20.8342 N   0  0  0  0  0  0  0  0  0  0  0  0
  -22.5584  -21.7834   18.8993 N   0  0  0  0  0  0  0  0  0  0  0  0
  -28.8952  -16.0777   19.2060 N   0  0  0  0  0  0  0  0  0  0  0  0
  -29.6502  -18.6936   23.0731 N   0  0  0  0  0  0  0  0  0  0  0  0
  -28.8011  -23.1074   23.5126 N   0  0  0  0  0  0  0  0  0  0  0  0
  -20.8107  -24.0163   20.7238 N   0  0  0  0  0  0  0  0  0  0  0  0
  -23.2592  -21.6210   15.5916 N   0  0  0  0  0  0  0  0  0  0  0  0
  -27.9184  -14.7341   20.8895 N   0  0  0  0  0  0  0  0  0  0  0  0
  -26.4015  -20.0525   14.7351 N   0  3  0  0  0  0  0  0  0  0  0  0
  -29.1416  -21.1532   24.6632 O   0  0  0  0  0  0  0  0  0  0  0  0
  -20.6988  -21.7158   21.0665 O   0  0  0  0  0  0  0  0  0  0  0  0
  -22.5654  -23.6456   17.4964 O   0  0  0  0  0  0  0  0  0  0  0  0
  -23.8939  -19.4039   15.8340 O   0  0  0  0  0  0  0  0  0  0  0  0
  -28.8729  -13.7644   19.0440 O   0  0  0  0  0  0  0  0  0  0  0  0
  -28.2664  -26.7874   19.3645 O   0  0  0  0  0  0  0  0  0  0  0  0
  -23.1697  -16.4269   21.9224 O   0  0  0  0  0  0  0  0  0  1  0  0
  -24.1376  -29.5204   21.7909 F   0  0  0  0  0  0  0  0  0  0  0  0
  -26.1500  -27.7687   17.8810 F   0  0  0  0  0  0  0  0  0  0  0  0
  1  2  1  0  0  0  0
  1  5  2  0  0  0  0
  2  6  2  0  0  0  0
  3  8  2  0  0  0  0
  3 16  1  0  0  0  0
  4  9  1  0  0  0  0
  4 16  2  0  0  0  0
  5 18  1  0  0  0  0
  6 20  1  0  0  0  0
  7 10  2  0  0  0  0
  7 19  1  0  0  0  0
  8 24  1  0  0  0  0
  9 24  2  0  0  0  0
 10 25  1  0  0  0  0
 11 12  2  0  0  0  0
 11 26  1  0  0  0  0
 12 27  1  0  0  0  0
 13 21  1  0  0  0  0
 13 25  2  0  0  0  0
 14 22  2  0  0  0  0
 14 30  1  0  0  0  0
 15 27  2  0  0  0  0
 15 28  1  0  0  0  0
 16 29  1  0  0  0  0
 17 29  1  0  0  0  0
 17 32  2  0  0  0  0
 17 33  1  0  0  0  0
 18 20  2  0  0  0  0
 18 38  1  0  0  0  0
 19 21  2  0  0  0  0
 19 39  1  0  0  0  0
 20 48  1  0  0  0  0
 21 40  1  0  0  0  0
 22 23  1  0  0  0  0
 22 51  1  0  0  0  0
 23 31  2  0  0  0  0
 23 52  1  0  0  0  0
 24 83  1  0  0  0  0
 25 84  1  0  0  0  0
 26 28  2  0  0  0  0
 26 83  1  0  0  0  0
 27 85  1  0  0  0  0
 28 86  1  0  0  0  0
 29 67  2  0  0  0  0
 30 62  1  0  0  0  0
 30 68  2  0  0  0  0
 31 53  1  0  0  0  0
 31 68  1  0  0  0  0
 32 69  1  0  0  0  0
 32 72  1  0  0  0  0
 33 73  1  0  0  0  0
 33 78  2  0  0  0  0
 34 49  1  0  0  0  0
 34 74  1  0  0  0  0
 34 79  2  0  0  0  0
 35 64  1  0  0  0  0
 35 70  1  0  0  0  0
 35 80  2  0  0  0  0
 36 65  1  0  0  0  0
 36 75  1  0  0  0  0
 36 81  2  0  0  0  0
 37 71  1  0  0  0  0
 37 76  1  0  0  0  0
 37 82  2  0  0  0  0
 38 41  1  0  0  0  0
 39 49  1  0  0  0  0
 40 70  1  0  0  0  0
 41 43  1  0  0  0  0
 42 44  1  0  0  0  0
 42 46  1  0  0  0  0
 43 48  1  0  0  0  0
 44 50  1  0  0  0  0
 45 51  1  0  0  0  0
 45 52  1  0  0  0  0
 46 71  1  0  0  0  0
 47 50  1  0  0  0  0
 47 71  1  0  0  0  0
 48 74  1  0  0  0  0
 49 70  1  0  0  0  0
 50 69  1  0  0  0  0
 51 54  1  0  0  0  0
 51 63  1  0  0  0  0
 52 55  1  0  0  0  0
 52 56  1  0  0  0  0
 57 65  1  0  0  0  0
 58 66  1  0  0  0  0
 59 66  1  0  0  0  0
 60 66  1  0  0  0  0
 61 77  1  0  0  0  0
 62 76  1  0  0  0  0
 63 84  1  0  0  0  0
 64 66  1  0  0  0  0
 64 75  1  0  0  0  0
 65 77  1  0  0  0  0
 67 69  1  0  0  0  0
M  CHG  1  77   1
M  ISO  4  37 100  63 101  76 100  84 101
M  END
> <Batch ID>
0171

> <Smiles>
CNC(C)C(=O)NC(C(=O)N1Cc2cc([101O:1][101CH2:1]C3(C)CC(C)(C)c4c3cc(C[100NH:0][100C:0](=O)N3CCCC(n5nc(-c6ccc(Oc7ccc(F)cc7F)cc6)c(C(N)=O)c5N)C3)nc4C)ccc2CC1C(=O)NC1CCCc2ccccc21)C(C)(C)C

> <Shape>
0.206

> <Color>
0.093

> <Negative vol penalty>
0.000

$$$$

  -OEChem-04052322373D

 88 98  0     1  0  0  0  0  0999 V2000
  -23.9411  -31.8767   24.7869 C   0  0  0  0  0  0  0  0  0  0  0  0
  -23.3910  -30.6007   24.8552 C   0  0  0  0  0  0  0  0  0  0  0  0
  -28.6265  -13.3439   20.9393 C   0  0  0  0  0  0  0  0  0  0  0  0
  -28.3264  -12.2682   18.7969 C   0  0  0  0  0  0  0  0  0  0  0  0
  -24.5799  -32.2977   23.6214 C   0  0  0  0  0  0  0  0  0  0  0  0
  -23.4784  -29.7453   23.7574 C   0  0  0  0  0  0  0  0  0  0  0  0
  -24.1295  -23.6570   23.8768 C   0  0  0  0  0  0  0  0  0  0  0  0
  -30.0069  -13.3562   20.7397 C   0  0  0  0  0  0  0  0  0  0  0  0
  -29.7068  -12.2806   18.5973 C   0  0  0  0  0  0  0  0  0  0  0  0
  -23.2149  -22.6131   23.7447 C   0  0  0  0  0  0  0  0  0  0  0  0
  -33.5836  -13.9975   20.6342 C   0  0  0  0  0  0  0  0  0  0  0  0
  -34.2716  -15.1734   20.9334 C   0  0  0  0  0  0  0  0  0  0  0  0
  -20.0681  -16.4912   21.7984 C   0  0  0  0  0  0  0  0  0  0  0  0
  -20.1214  -18.8113   23.3467 C   0  0  0  0  0  0  0  0  0  0  0  0
  -23.7570  -22.4429   21.4002 C   0  0  0  0  0  0  0  0  0  0  0  0
  -32.9457  -16.3642   19.3021 C   0  0  0  0  0  0  0  0  0  0  0  0
  -27.7862  -12.7998   19.9679 C   0  0  0  0  0  0  0  0  0  0  0  0
  -25.4381  -13.7829   19.8023 C   0  0  0  0  0  0  0  0  0  0  0  0
  -24.6837  -31.4436   22.5121 C   0  0  0  0  0  0  0  0  0  0  0  0
  -24.8580  -24.1097   22.7674 C   0  0  0  0  0  0  0  0  0  0  0  0
  -24.1181  -30.1558   22.5754 C   0  0  0  0  0  0  0  0  0  0  0  0
  -20.0804  -16.4007   23.1903 C   0  0  0  0  0  0  0  0  0  0  0  0
  -20.1092  -18.9018   21.9548 C   0  0  0  0  0  0  0  0  0  0  0  0
  -24.6821  -23.4910   21.5215 C   0  0  0  0  0  0  0  0  0  0  0  0
  -20.1070  -17.5607   23.9644 C   0  0  0  0  0  0  0  0  0  0  0  0
  -20.0826  -17.7417   21.1807 C   0  0  0  0  0  0  0  0  0  0  0  0
  -30.5471  -12.8247   19.5687 C   0  0  0  0  0  0  0  0  0  0  0  0
  -23.0264  -22.0078   22.5056 C   0  0  0  0  0  0  0  0  0  0  0  0
  -32.5767  -14.0049   19.6689 C   0  0  0  0  0  0  0  0  0  0  0  0
  -33.9526  -16.3567   20.2674 C   0  0  0  0  0  0  0  0  0  0  0  0
  -32.2577  -15.1882   19.0029 C   0  0  0  0  0  0  0  0  0  0  0  0
  -26.3602  -12.7861   20.1738 C   0  0  0  0  0  0  0  0  0  0  0  0
  -24.2218  -13.2968   20.2157 C   0  0  0  0  0  0  0  0  0  0  0  0
  -25.6610  -15.0361   19.1423 C   0  0  0  0  0  0  0  0  0  0  0  0
  -25.0675  -26.8632   21.1932 C   0  0  0  0  0  0  0  0  0  0  0  0
  -27.4334  -25.3221   19.5964 C   0  0  0  0  0  0  0  0  0  0  0  0
  -28.8067  -22.3593   18.6051 C   0  0  0  0  0  0  0  0  0  0  0  0
  -20.9590  -10.8184   23.8386 C   0  0  0  0  0  0  0  0  0  0  0  0
  -25.3421  -31.9601   21.2574 C   0  0  0  0  0  0  0  0  0  0  0  0
  -25.8603  -25.2191   22.9323 C   0  0  0  0  0  0  0  0  0  0  0  0
  -25.4543  -23.9263   20.3038 C   0  0  0  0  0  0  0  0  0  0  0  0
  -25.7206  -30.8587   20.2705 C   0  0  0  0  0  0  0  0  0  0  0  0
  -22.8811   -8.7187   21.8769 C   0  0  0  0  0  0  0  0  0  0  0  0
  -24.5629  -29.8819   20.0909 C   0  0  0  0  0  0  0  0  0  0  0  0
  -23.8899   -9.6607   21.2198 C   0  0  0  0  0  0  0  0  0  0  0  0
  -18.9825  -21.1966   21.6283 C   0  0  0  0  0  0  0  0  0  0  0  0
  -19.0601  -20.5544   20.2787 C   0  0  0  0  0  0  0  0  0  0  0  0
  -19.2739  -14.0061   23.0052 C   0  0  0  0  0  0  0  0  0  0  0  0
  -21.4849  -14.5115   24.1263 C   0  0  0  0  0  0  0  0  0  0  0  0
  -22.6601   -9.0886   23.3393 C   0  0  0  0  0  0  0  0  0  0  0  0
  -19.2866  -12.6244   23.6549 C   0  0  0  0  0  0  0  0  0  0  0  0
  -21.4469  -13.1202   24.7517 C   0  0  0  0  0  0  0  0  0  0  0  0
  -23.2225  -11.4548   22.8931 C   0  0  0  0  0  0  0  0  0  0  0  0
  -20.0644  -15.0292   23.8389 C   0  0  0  0  0  0  0  0  0  0  0  0
  -24.2144  -29.1901   21.4143 C   0  0  1  0  0  0  0  0  0  0  0  0
  -26.1726  -25.9413   21.6253 C   0  0  1  0  0  0  0  0  0  0  0  0
  -23.4755  -11.1309   21.4071 C   0  0  1  0  0  0  0  0  0  0  0  0
  -20.1255  -20.2504   21.3144 C   0  0  0  0  0  0  0  0  0  0  0  0
  -20.1183  -17.4885   25.4561 C   0  0  0  0  0  0  0  0  0  0  0  0
  -20.0696  -17.8120   19.6885 C   0  0  0  0  0  0  0  0  0  0  0  0
  -30.7180  -21.4204   17.2775 C   0  0  0  0  0  0  0  0  0  0  0  0
  -25.9916  -26.0528   17.0084 C   0  0  0  0  0  0  0  0  0  0  0  0
  -27.3749  -24.3286   15.8328 C   0  0  0  0  0  0  0  0  0  0  0  0
  -28.4801  -26.2843   16.9174 C   0  0  0  0  0  0  0  0  0  0  0  0
  -29.9041  -20.9488   20.9642 C   0  0  0  0  0  0  0  0  0  0  0  0
  -21.4929  -20.8393   21.1132 C   0  0  0  0  0  0  0  0  0  1  0  0
  -27.5015  -24.4550   18.3625 C   0  0  1  0  0  0  0  0  0  0  0  0
  -30.2335  -21.8435   18.6556 C   0  0  2  0  0  0  0  0  0  0  0  0
  -27.3209  -25.2730   17.0526 C   0  0  0  0  0  0  0  0  0  0  0  0
  -25.7795  -11.7455   20.7770 N   0  0  0  0  0  0  0  0  0  0  0  0
  -24.4794  -12.0858   20.7878 N   0  0  0  0  0  0  0  0  0  0  0  0
  -26.4180  -25.0192   20.5146 N   0  0  0  0  0  0  0  0  0  0  0  0
  -22.2746  -10.4931   23.4752 N   0  0  0  0  0  0  0  0  0  0  0  0
  -20.6505  -12.1845   23.9462 N   0  0  0  0  0  0  0  0  0  0  0  0
  -22.9679  -13.7915   20.1422 N   0  0  0  0  0  0  0  0  0  0  0  0
  -26.9724  -15.3800   18.7868 N   0  0  0  0  0  0  0  0  0  0  0  0
  -25.1704  -28.1430   21.7043 N   0  0  0  0  0  0  0  0  0  0  0  0
  -28.7638  -23.7280   18.4437 N   0  0  0  0  0  0  0  0  0  0  0  0
  -30.3278  -20.6690   19.5680 N   0  3  0  0  0  0  0  0  0  0  0  0
  -24.7271  -15.8348   18.8905 O   0  0  0  0  0  0  0  0  0  0  0  0
  -24.1876  -26.4449   20.4500 O   0  0  0  0  0  0  0  0  0  0  0  0
  -28.2553  -26.2301   19.7436 O   0  0  0  0  0  0  0  0  0  0  0  0
  -27.8280  -21.6213   18.6958 O   0  0  0  0  0  0  0  0  0  0  0  0
  -20.1088   -9.9445   24.0491 O   0  0  0  0  0  0  0  0  0  0  0  0
  -31.8941  -12.8368   19.3735 O   0  0  0  0  0  0  0  0  0  0  0  0
  -22.1259  -20.9801   22.3726 O   0  0  0  0  0  0  0  0  0  1  0  0
  -34.6123  -17.4862   20.5559 F   0  0  0  0  0  0  0  0  0  0  0  0
  -31.2905  -15.2018   18.0754 F   0  0  0  0  0  0  0  0  0  0  0  0
  1  2  1  0  0  0  0
  1  5  2  0  0  0  0
  2  6  2  0  0  0  0
  3  8  2  0  0  0  0
  3 17  1  0  0  0  0
  4  9  1  0  0  0  0
  4 17  2  0  0  0  0
  5 19  1  0  0  0  0
  6 21  1  0  0  0  0
  7 10  2  0  0  0  0
  7 20  1  0  0  0  0
  8 27  1  0  0  0  0
  9 27  2  0  0  0  0
 10 28  1  0  0  0  0
 11 12  2  0  0  0  0
 11 29  1  0  0  0  0
 12 30  1  0  0  0  0
 13 22  2  0  0  0  0
 13 26  1  0  0  0  0
 14 23  1  0  0  0  0
 14 25  2  0  0  0  0
 15 24  1  0  0  0  0
 15 28  2  0  0  0  0
 16 30  2  0  0  0  0
 16 31  1  0  0  0  0
 17 32  1  0  0  0  0
 18 32  1  0  0  0  0
 18 33  2  0  0  0  0
 18 34  1  0  0  0  0
 19 21  2  0  0  0  0
 19 39  1  0  0  0  0
 20 24  2  0  0  0  0
 20 40  1  0  0  0  0
 21 55  1  0  0  0  0
 22 25  1  0  0  0  0
 22 54  1  0  0  0  0
 23 26  2  0  0  0  0
 23 58  1  0  0  0  0
 24 41  1  0  0  0  0
 25 59  1  0  0  0  0
 26 60  1  0  0  0  0
 27 85  1  0  0  0  0
 28 86  1  0  0  0  0
 29 31  2  0  0  0  0
 29 85  1  0  0  0  0
 30 87  1  0  0  0  0
 31 88  1  0  0  0  0
 32 70  2  0  0  0  0
 33 71  1  0  0  0  0
 33 75  1  0  0  0  0
 34 76  1  0  0  0  0
 34 80  2  0  0  0  0
 35 56  1  0  0  0  0
 35 77  1  0  0  0  0
 35 81  2  0  0  0  0
 36 67  1  0  0  0  0
 36 72  1  0  0  0  0
 36 82  2  0  0  0  0
 37 68  1  0  0  0  0
 37 78  1  0  0  0  0
 37 83  2  0  0  0  0
 38 73  1  0  0  0  0
 38 74  1  0  0  0  0
 38 84  2  0  0  0  0
 39 42  1  0  0  0  0
 40 56  1  0  0  0  0
 41 72  1  0  0  0  0
 42 44  1  0  0  0  0
 43 45  1  0  0  0  0
 43 50  1  0  0  0  0
 44 55  1  0  0  0  0
 45 57  1  0  0  0  0
 46 47  1  0  0  0  0
 46 58  1  0  0  0  0
 47 58  1  0  0  0  0
 48 51  1  0  0  0  0
 48 54  1  0  0  0  0
 49 52  1  0  0  0  0
 49 54  1  0  0  0  0
 50 73  1  0  0  0  0
 51 74  1  0  0  0  0
 52 74  1  0  0  0  0
 53 57  1  0  0  0  0
 53 73  1  0  0  0  0
 55 77  1  0  0  0  0
 56 72  1  0  0  0  0
 57 71  1  0  0  0  0
 58 66  1  0  0  0  0
 61 68  1  0  0  0  0
 62 69  1  0  0  0  0
 63 69  1  0  0  0  0
 64 69  1  0  0  0  0
 65 79  1  0  0  0  0
 66 86  1  0  0  0  0
 67 69  1  0  0  0  0
 67 78  1  0  0  0  0
 68 79  1  0  0  0  0
 70 71  1  0  0  0  0
M  CHG  1  79   1
M  ISO  4  38 100  66 101  74 100  86 101
M  END
> <Batch ID>
0171

> <Smiles>
CNC(C)C(=O)NC(C(=O)N1Cc2cc([101O:1][101CH2:1]C3(c4cc(C)c(C5CC[100N:0]([100C:0](=O)N6CCCC(n7nc(-c8ccc(Oc9ccc(F)cc9F)cc8)c(C(N)=O)c7N)C6)CC5)cc4C)CC3)ccc2CC1C(=O)NC1CCCc2ccccc21)C(C)(C)C

> <Shape>
0.190

> <Color>
0.096

> <Negative vol penalty>
0.000

$$$$

  -OEChem-04052322373D

 82 91  0     1  0  0  0  0  0999 V2000
  -27.9903  -35.4775   13.5935 C   0  0  0  0  0  0  0  0  0  0  0  0
  -27.9468  -34.1435   13.9856 C   0  0  0  0  0  0  0  0  0  0  0  0
  -23.9602   -9.7080   22.2796 C   0  0  0  0  0  0  0  0  0  0  0  0
  -24.4113   -9.0231   20.0071 C   0  0  0  0  0  0  0  0  0  0  0  0
  -28.3979  -36.4562   14.4990 C   0  0  0  0  0  0  0  0  0  0  0  0
  -28.3119  -33.7872   15.2834 C   0  0  0  0  0  0  0  0  0  0  0  0
  -25.8968  -29.3060   18.6882 C   0  0  0  0  0  0  0  0  0  0  0  0
  -22.9490   -8.7512   22.3673 C   0  0  0  0  0  0  0  0  0  0  0  0
  -23.4002   -8.0662   20.0947 C   0  0  0  0  0  0  0  0  0  0  0  0
  -26.3109  -28.0011   18.9516 C   0  0  0  0  0  0  0  0  0  0  0  0
  -22.7137   -5.4129   22.8503 C   0  0  0  0  0  0  0  0  0  0  0  0
  -22.6611   -4.6292   24.0029 C   0  0  0  0  0  0  0  0  0  0  0  0
  -27.3475  -28.7493   20.9974 C   0  0  0  0  0  0  0  0  0  0  0  0
  -20.4394   -5.4581   24.4652 C   0  0  0  0  0  0  0  0  0  0  0  0
  -26.7640  -23.1127   20.3720 C   0  0  0  0  0  0  0  0  0  0  0  0
  -24.6913   -9.8441   21.0995 C   0  0  0  0  0  0  0  0  0  0  0  0
  -27.0959  -10.6644   21.3287 C   0  0  0  0  0  0  0  0  0  0  0  0
  -28.7590  -36.1128   15.8114 C   0  0  0  0  0  0  0  0  0  0  0  0
  -26.2149  -30.3461   19.5735 C   0  0  0  0  0  0  0  0  0  0  0  0
  -28.7260  -34.7620   16.2070 C   0  0  0  0  0  0  0  0  0  0  0  0
  -26.9340  -30.0661   20.7442 C   0  0  0  0  0  0  0  0  0  0  0  0
  -27.5364  -24.1235   19.8540 C   0  0  0  0  0  0  0  0  0  0  0  0
  -22.6691   -7.9303   21.2749 C   0  0  0  0  0  0  0  0  0  0  0  0
  -27.0388  -27.7230   20.1049 C   0  0  0  0  0  0  0  0  0  0  0  0
  -21.6292   -6.2194   22.5052 C   0  0  0  0  0  0  0  0  0  0  0  0
  -21.5239   -4.6517   24.8104 C   0  0  0  0  0  0  0  0  0  0  0  0
  -20.4920   -6.2419   23.3126 C   0  0  0  0  0  0  0  0  0  0  0  0
  -25.7355  -10.8327   21.0081 C   0  0  0  0  0  0  0  0  0  0  0  0
  -28.8440  -23.6019   19.8529 C   0  0  0  0  0  0  0  0  0  0  0  0
  -27.6633  -11.8885   21.0715 C   0  0  0  0  0  0  0  0  0  0  0  0
  -27.7851   -9.5051   21.8154 C   0  0  0  0  0  0  0  0  0  0  0  0
  -27.9045  -33.0305   19.3660 C   0  0  0  0  0  0  0  0  0  0  0  0
  -26.7471  -33.5301   22.3549 C   0  0  0  0  0  0  0  0  0  0  0  0
  -25.4787  -32.2001   25.2305 C   0  0  0  0  0  0  0  0  0  0  0  0
  -27.5441  -17.3407   21.6589 C   0  0  0  0  0  0  0  0  0  0  0  0
  -29.2382  -37.2000   16.7405 C   0  0  0  0  0  0  0  0  0  0  0  0
  -25.7378  -31.7438   19.2884 C   0  0  0  0  0  0  0  0  0  0  0  0
  -27.2837  -31.1436   21.7368 C   0  0  0  0  0  0  0  0  0  0  0  0
  -29.2501  -36.7845   18.2093 C   0  0  0  0  0  0  0  0  0  0  0  0
  -25.8543  -15.9424   18.6990 C   0  0  0  0  0  0  0  0  0  0  0  0
  -29.8882  -35.4083   18.3697 C   0  0  0  0  0  0  0  0  0  0  0  0
  -25.7273  -14.4785   19.1045 C   0  0  0  0  0  0  0  0  0  0  0  0
  -25.7498  -16.8910   19.8942 C   0  0  0  0  0  0  0  0  0  0  0  0
  -26.5604  -15.0928   21.3985 C   0  0  0  0  0  0  0  0  0  0  0  0
  -26.9192  -19.5026   20.3105 C   0  0  0  0  0  0  0  0  0  0  0  0
  -29.0907  -34.3389   17.6134 C   0  0  1  0  0  0  0  0  0  0  0  0
  -26.5602  -32.8129   20.0011 C   0  0  1  0  0  0  0  0  0  0  0  0
  -26.7386  -14.1398   20.2087 C   0  0  1  0  0  0  0  0  0  0  0  0
  -27.1654  -20.6956   21.2554 C   0  0  1  0  0  0  0  0  0  0  0  0
  -28.2235  -19.8138   21.9693 C   0  0  1  0  0  0  0  0  0  0  0  0
  -30.0799  -24.2630   19.3987 C   0  0  0  0  0  0  0  0  0  0  0  0
  -28.1225  -19.8101   23.4816 C   0  0  0  0  0  0  0  0  0  0  0  0
  -24.6616  -32.8552   27.5109 C   0  0  0  0  0  0  0  0  0  0  0  0
  -29.6297  -33.9409   23.2671 C   0  0  0  0  0  0  0  0  0  0  0  0
  -28.8517  -33.6417   25.6279 C   0  0  0  0  0  0  0  0  0  0  0  0
  -27.9830  -35.5392   24.2613 C   0  0  0  0  0  0  0  0  0  0  0  0
  -22.7765  -31.1154   24.7010 C   0  0  0  0  0  0  0  0  0  0  0  0
  -27.0854  -25.4509   19.4040 C   0  0  0  0  0  0  0  0  0  1  0  0
  -27.2081  -33.1874   23.7510 C   0  0  1  0  0  0  0  0  0  0  0  0
  -24.2702  -32.5781   26.0677 C   0  0  2  0  0  0  0  0  0  0  0  0
  -28.4134  -34.0571   24.2074 C   0  0  0  0  0  0  0  0  0  0  0  0
  -25.4554  -12.0665   20.5801 N   0  0  0  0  0  0  0  0  0  0  0  0
  -28.9028  -22.3566   20.3324 N   0  0  0  0  0  0  0  0  0  0  0  0
  -27.6225  -22.0873   20.6396 N   0  0  0  0  0  0  0  0  0  0  0  0
  -26.6477  -12.6847   20.6300 N   0  0  0  0  0  0  0  0  0  0  0  0
  -26.8002  -32.4953   21.4103 N   0  0  0  0  0  0  0  0  0  0  0  0
  -26.6438  -16.5012   20.9908 N   0  0  0  0  0  0  0  0  0  0  0  0
  -27.5878  -18.6708   21.3008 N   0  0  0  0  0  0  0  0  0  0  0  0
  -28.9268  -12.3507   21.1823 N   0  0  0  0  0  0  0  0  0  0  0  0
  -27.0507   -8.3299   22.0246 N   0  0  0  0  0  0  0  0  0  0  0  0
  -27.9036  -33.9740   18.3565 N   0  0  0  0  0  0  0  0  0  0  0  0
  -26.0326  -33.2986   24.6078 N   0  0  0  0  0  0  0  0  0  0  0  0
  -23.2668  -31.4763   26.0561 N   0  3  0  0  0  0  0  0  0  0  0  0
  -29.0127   -9.5160   22.0732 O   0  0  0  0  0  0  0  0  0  0  0  0
  -28.8712  -32.3908   19.7635 O   0  0  0  0  0  0  0  0  0  0  0  0
  -26.3478  -34.6719   22.1131 O   0  0  0  0  0  0  0  0  0  0  0  0
  -25.8925  -31.0462   25.1409 O   0  0  0  0  0  0  0  0  0  0  0  0
  -28.2578  -16.9129   22.5756 O   0  0  0  0  0  0  0  0  0  0  0  0
  -21.6827   -6.9963   21.3601 O   0  0  0  0  0  0  0  0  0  0  0  0
  -27.4467  -26.4442   20.3653 O   0  0  0  0  0  0  0  0  0  1  0  0
  -21.4729   -3.8979   25.9164 F   0  0  0  0  0  0  0  0  0  0  0  0
  -19.4465   -7.0138   22.9855 F   0  0  0  0  0  0  0  0  0  0  0  0
  1  2  1  0  0  0  0
  1  5  2  0  0  0  0
  2  6  2  0  0  0  0
  3  8  2  0  0  0  0
  3 16  1  0  0  0  0
  4  9  1  0  0  0  0
  4 16  2  0  0  0  0
  5 18  1  0  0  0  0
  6 20  1  0  0  0  0
  7 10  2  0  0  0  0
  7 19  1  0  0  0  0
  8 23  1  0  0  0  0
  9 23  2  0  0  0  0
 10 24  1  0  0  0  0
 11 12  2  0  0  0  0
 11 25  1  0  0  0  0
 12 26  1  0  0  0  0
 13 21  1  0  0  0  0
 13 24  2  0  0  0  0
 14 26  2  0  0  0  0
 14 27  1  0  0  0  0
 15 22  2  0  0  0  0
 15 64  1  0  0  0  0
 16 28  1  0  0  0  0
 17 28  1  0  0  0  0
 17 30  2  0  0  0  0
 17 31  1  0  0  0  0
 18 20  2  0  0  0  0
 18 36  1  0  0  0  0
 19 21  2  0  0  0  0
 19 37  1  0  0  0  0
 20 46  1  0  0  0  0
 21 38  1  0  0  0  0
 22 29  1  0  0  0  0
 22 58  1  0  0  0  0
 23 79  1  0  0  0  0
 24 80  1  0  0  0  0
 25 27  2  0  0  0  0
 25 79  1  0  0  0  0
 26 81  1  0  0  0  0
 27 82  1  0  0  0  0
 28 62  2  0  0  0  0
 29 51  1  0  0  0  0
 29 63  2  0  0  0  0
 30 65  1  0  0  0  0
 30 69  1  0  0  0  0
 31 70  1  0  0  0  0
 31 74  2  0  0  0  0
 32 47  1  0  0  0  0
 32 71  1  0  0  0  0
 32 75  2  0  0  0  0
 33 59  1  0  0  0  0
 33 66  1  0  0  0  0
 33 76  2  0  0  0  0
 34 60  1  0  0  0  0
 34 72  1  0  0  0  0
 34 77  2  0  0  0  0
 35 67  1  0  0  0  0
 35 68  1  0  0  0  0
 35 78  2  0  0  0  0
 36 39  1  0  0  0  0
 37 47  1  0  0  0  0
 38 66  1  0  0  0  0
 39 41  1  0  0  0  0
 40 42  1  0  0  0  0
 40 43  1  0  0  0  0
 41 46  1  0  0  0  0
 42 48  1  0  0  0  0
 43 67  1  0  0  0  0
 44 48  1  0  0  0  0
 44 67  1  0  0  0  0
 45 49  1  0  0  0  0
 45 68  1  0  0  0  0
 46 71  1  0  0  0  0
 47 66  1  0  0  0  0
 48 65  1  0  0  0  0
 49 50  1  0  0  0  0
 49 64  1  0  0  0  0
 50 52  1  0  0  0  0
 50 68  1  0  0  0  0
 53 60  1  0  0  0  0
 54 61  1  0  0  0  0
 55 61  1  0  0  0  0
 56 61  1  0  0  0  0
 57 73  1  0  0  0  0
 58 80  1  0  0  0  0
 59 61  1  0  0  0  0
 59 72  1  0  0  0  0
 60 73  1  0  0  0  0
 62 65  1  0  0  0  0
 63 64  1  0  0  0  0
M  CHG  1  73   1
M  ISO  4  35 100  58 101  68 100  80 101
M  END
> <Batch ID>
0171

> <Smiles>
CNC(C)C(=O)NC(C(=O)N1Cc2cc([101O:1][101CH2:1]c3cn(C4C[100N:0]([100C:0](=O)N5CCCC(n6nc(-c7ccc(Oc8ccc(F)cc8F)cc7)c(C(N)=O)c6N)C5)C4C)nc3C)ccc2CC1C(=O)NC1CCCc2ccccc21)C(C)(C)C

> <Shape>
0.238

> <Color>
0.110

> <Negative vol penalty>
0.000

$$$$

  -OEChem-04052322373D

 89100  0     1  0  0  0  0  0999 V2000
  -28.0991  -32.1600   27.5595 C   0  0  0  0  0  0  0  0  0  0  0  0
  -28.1649  -31.1395   26.6163 C   0  0  0  0  0  0  0  0  0  0  0  0
  -26.1594  -14.0053   21.6547 C   0  0  0  0  0  0  0  0  0  0  0  0
  -26.0428  -15.1426   19.5264 C   0  0  0  0  0  0  0  0  0  0  0  0
  -26.8654  -32.7109   27.9038 C   0  0  0  0  0  0  0  0  0  0  0  0
  -26.9969  -30.6686   26.0176 C   0  0  0  0  0  0  0  0  0  0  0  0
  -27.4814  -30.0792   21.0113 C   0  0  0  0  0  0  0  0  0  0  0  0
  -24.7737  -13.8464   21.6458 C   0  0  0  0  0  0  0  0  0  0  0  0
  -24.6571  -14.9837   19.5174 C   0  0  0  0  0  0  0  0  0  0  0  0
  -28.1584  -28.9445   20.5663 C   0  0  0  0  0  0  0  0  0  0  0  0
  -22.4375  -12.5290   18.8331 C   0  0  0  0  0  0  0  0  0  0  0  0
  -21.8435  -12.1012   17.6458 C   0  0  0  0  0  0  0  0  0  0  0  0
  -26.0468  -27.8687   20.1159 C   0  0  0  0  0  0  0  0  0  0  0  0
  -20.5327  -14.1294   17.5710 C   0  0  0  0  0  0  0  0  0  0  0  0
  -26.7940  -14.6535   20.5951 C   0  0  0  0  0  0  0  0  0  0  0  0
  -29.1863  -13.9340   20.0786 C   0  0  0  0  0  0  0  0  0  0  0  0
  -25.6827  -32.2532   27.3020 C   0  0  0  0  0  0  0  0  0  0  0  0
  -26.0796  -30.1131   21.0222 C   0  0  0  0  0  0  0  0  0  0  0  0
  -25.7461  -31.2130   26.3551 C   0  0  0  0  0  0  0  0  0  0  0  0
  -25.3544  -29.0060   20.5591 C   0  0  0  0  0  0  0  0  0  0  0  0
  -30.6101  -25.4064   17.8990 C   0  0  0  0  0  0  0  0  0  0  0  0
  -31.0991  -24.1953   17.4222 C   0  0  0  0  0  0  0  0  0  0  0  0
  -30.0609  -25.4742   19.1746 C   0  0  0  0  0  0  0  0  0  0  0  0
  -24.0225  -14.3356   20.5771 C   0  0  0  0  0  0  0  0  0  0  0  0
  -27.4411  -27.8380   20.1213 C   0  0  0  0  0  0  0  0  0  0  0  0
  -22.0791  -13.7569   19.3894 C   0  0  0  0  0  0  0  0  0  0  0  0
  -20.8911  -12.9014   17.0147 C   0  0  0  0  0  0  0  0  0  0  0  0
  -21.1267  -14.5571   18.7583 C   0  0  0  0  0  0  0  0  0  0  0  0
  -28.2254  -14.8184   20.6040 C   0  0  0  0  0  0  0  0  0  0  0  0
  -31.0162  -23.0900   18.2535 C   0  0  0  0  0  0  0  0  0  0  0  0
  -30.0243  -24.3116   19.9274 C   0  0  0  0  0  0  0  0  0  0  0  0
  -30.3904  -14.5423   20.3367 C   0  0  0  0  0  0  0  0  0  0  0  0
  -29.0066  -12.6752   19.4162 C   0  0  0  0  0  0  0  0  0  0  0  0
  -23.8607  -30.4240   23.2769 C   0  0  0  0  0  0  0  0  0  0  0  0
  -21.8479  -30.5230   20.7351 C   0  0  0  0  0  0  0  0  0  0  0  0
  -21.2617  -29.7193   17.4705 C   0  0  0  0  0  0  0  0  0  0  0  0
  -32.6200  -19.9565   20.5572 C   0  0  0  0  0  0  0  0  0  0  0  0
  -24.3678  -32.8470   27.7411 C   0  0  0  0  0  0  0  0  0  0  0  0
  -25.3645  -31.3546   21.4801 C   0  0  0  0  0  0  0  0  0  0  0  0
  -23.8485  -28.9995   20.5315 C   0  0  0  0  0  0  0  0  0  0  0  0
  -23.2153  -32.5489   26.7854 C   0  0  0  0  0  0  0  0  0  0  0  0
  -31.9755  -17.9765   23.4835 C   0  0  0  0  0  0  0  0  0  0  0  0
  -33.0903  -23.5325   15.9157 C   0  0  0  0  0  0  0  0  0  0  0  0
  -32.8386  -24.9896   15.6839 C   0  0  0  0  0  0  0  0  0  0  0  0
  -23.2115  -31.0737   26.3975 C   0  0  0  0  0  0  0  0  0  0  0  0
  -30.9936  -16.9103   23.0086 C   0  0  0  0  0  0  0  0  0  0  0  0
  -29.4645  -27.6082   16.9971 C   0  0  0  0  0  0  0  0  0  0  0  0
  -31.7346  -19.2968   22.7642 C   0  0  0  0  0  0  0  0  0  0  0  0
  -32.9268  -21.1704   18.3369 C   0  0  0  0  0  0  0  0  0  0  0  0
  -30.9594  -20.4011   18.5888 C   0  0  0  0  0  0  0  0  0  0  0  0
  -30.8711  -18.1080   20.7655 C   0  0  0  0  0  0  0  0  0  0  0  0
  -29.5727  -27.4882   15.4813 C   0  0  0  0  0  0  0  0  0  0  0  0
  -31.6956  -24.0833   16.0607 C   0  0  0  0  0  0  0  0  0  0  0  0
  -24.5038  -30.6924   25.6655 C   0  0  1  0  0  0  0  0  0  0  0  0
  -30.6772  -26.6825   17.0086 C   0  0  2  0  0  0  0  0  0  0  0  0
  -31.5341  -21.6342   17.8478 C   0  0  0  0  0  0  0  0  0  0  0  0
  -23.9317  -31.0872   21.9305 C   0  0  1  0  0  0  0  0  0  0  0  0
  -31.0638  -16.7568   21.4825 C   0  0  2  0  0  0  0  0  0  0  0  0
  -29.4459  -24.3230   21.3046 C   0  0  0  0  0  0  0  0  0  0  0  0
  -19.5115  -29.8990   15.6812 C   0  0  0  0  0  0  0  0  0  0  0  0
  -20.2689  -28.2714   22.0568 C   0  0  0  0  0  0  0  0  0  0  0  0
  -19.1494  -27.8585   19.8558 C   0  0  0  0  0  0  0  0  0  0  0  0
  -18.8638  -30.0535   21.0059 C   0  0  0  0  0  0  0  0  0  0  0  0
  -23.0392  -31.3235   15.7310 C   0  0  0  0  0  0  0  0  0  0  0  0
  -29.5256  -26.7677   19.7147 C   0  0  0  0  0  0  0  0  0  1  0  0
  -21.0849  -29.4952   19.9349 C   0  0  1  0  0  0  0  0  0  0  0  0
  -20.7377  -30.5437   16.3086 C   0  0  2  0  0  0  0  0  0  0  0  0
  -19.8701  -28.9187   20.7156 C   0  0  0  0  0  0  0  0  0  0  0  0
  -28.7718  -15.9058   21.1546 N   0  0  0  0  0  0  0  0  0  0  0  0
  -30.4895  -23.1170   19.4983 N   0  0  0  0  0  0  0  0  0  0  0  0
  -30.0892  -15.7086   20.9765 N   0  0  0  0  0  0  0  0  0  0  0  0
  -23.1951  -30.2346   20.9952 N   0  0  0  0  0  0  0  0  0  0  0  0
  -31.7629  -19.1431   21.3067 N   0  0  0  0  0  0  0  0  0  0  0  0
  -32.2296  -20.3147   19.2869 N   0  0  0  0  0  0  0  0  0  0  0  0
  -31.6668  -14.1880   20.0767 N   0  0  0  0  0  0  0  0  0  0  0  0
  -27.7021  -12.1968   19.2329 N   0  0  0  0  0  0  0  0  0  0  0  0
  -24.4592  -31.1459   24.2919 N   0  0  0  0  0  0  0  0  0  0  0  0
  -20.7338  -30.1384   18.6734 N   0  0  0  0  0  0  0  0  0  0  0  0
  -21.7853  -30.6825   15.2578 N   0  3  0  0  0  0  0  0  0  0  0  0
  -29.9751  -11.9869   19.0139 O   0  0  0  0  0  0  0  0  0  0  0  0
  -23.3029  -29.3384   23.3871 O   0  0  0  0  0  0  0  0  0  0  0  0
  -21.2717  -31.5476   21.1092 O   0  0  0  0  0  0  0  0  0  0  0  0
  -22.0569  -28.7934   17.3252 O   0  0  0  0  0  0  0  0  0  0  0  0
  -33.6891  -20.3779   21.0180 O   0  0  0  0  0  0  0  0  0  0  0  0
  -30.5239  -26.4037   15.5953 O   0  0  0  0  0  0  0  0  0  0  0  0
  -22.6703  -14.1805   20.5679 O   0  0  0  0  0  0  0  0  0  0  0  0
  -28.0993  -26.7289   19.6870 O   0  0  0  0  0  0  0  0  0  1  0  0
  -20.3219  -12.4913   15.8737 F   0  0  0  0  0  0  0  0  0  0  0  0
  -20.7792  -15.7382   19.2874 F   0  0  0  0  0  0  0  0  0  0  0  0
  1  2  1  0  0  0  0
  1  5  2  0  0  0  0
  2  6  2  0  0  0  0
  3  8  2  0  0  0  0
  3 15  1  0  0  0  0
  4  9  1  0  0  0  0
  4 15  2  0  0  0  0
  5 17  1  0  0  0  0
  6 19  1  0  0  0  0
  7 10  2  0  0  0  0
  7 18  1  0  0  0  0
  8 24  1  0  0  0  0
  9 24  2  0  0  0  0
 10 25  1  0  0  0  0
 11 12  2  0  0  0  0
 11 26  1  0  0  0  0
 12 27  1  0  0  0  0
 13 20  1  0  0  0  0
 13 25  2  0  0  0  0
 14 27  2  0  0  0  0
 14 28  1  0  0  0  0
 15 29  1  0  0  0  0
 16 29  1  0  0  0  0
 16 32  2  0  0  0  0
 16 33  1  0  0  0  0
 17 19  2  0  0  0  0
 17 38  1  0  0  0  0
 18 20  2  0  0  0  0
 18 39  1  0  0  0  0
 19 54  1  0  0  0  0
 20 40  1  0  0  0  0
 21 22  1  0  0  0  0
 21 23  2  0  0  0  0
 21 55  1  0  0  0  0
 22 30  2  0  0  0  0
 22 53  1  0  0  0  0
 23 31  1  0  0  0  0
 23 65  1  0  0  0  0
 24 86  1  0  0  0  0
 25 87  1  0  0  0  0
 26 28  2  0  0  0  0
 26 86  1  0  0  0  0
 27 88  1  0  0  0  0
 28 89  1  0  0  0  0
 29 69  2  0  0  0  0
 30 56  1  0  0  0  0
 30 70  1  0  0  0  0
 31 59  1  0  0  0  0
 31 70  2  0  0  0  0
 32 71  1  0  0  0  0
 32 75  1  0  0  0  0
 33 76  1  0  0  0  0
 33 80  2  0  0  0  0
 34 57  1  0  0  0  0
 34 77  1  0  0  0  0
 34 81  2  0  0  0  0
 35 66  1  0  0  0  0
 35 72  1  0  0  0  0
 35 82  2  0  0  0  0
 36 67  1  0  0  0  0
 36 78  1  0  0  0  0
 36 83  2  0  0  0  0
 37 73  1  0  0  0  0
 37 74  1  0  0  0  0
 37 84  2  0  0  0  0
 38 41  1  0  0  0  0
 39 57  1  0  0  0  0
 40 72  1  0  0  0  0
 41 45  1  0  0  0  0
 42 46  1  0  0  0  0
 42 48  1  0  0  0  0
 43 44  1  0  0  0  0
 43 53  1  0  0  0  0
 44 53  1  0  0  0  0
 45 54  1  0  0  0  0
 46 58  1  0  0  0  0
 47 52  1  0  0  0  0
 47 55  1  0  0  0  0
 48 73  1  0  0  0  0
 49 56  1  0  0  0  0
 49 74  1  0  0  0  0
 50 56  1  0  0  0  0
 50 74  1  0  0  0  0
 51 58  1  0  0  0  0
 51 73  1  0  0  0  0
 52 85  1  0  0  0  0
 54 77  1  0  0  0  0
 55 85  1  0  0  0  0
 57 72  1  0  0  0  0
 58 71  1  0  0  0  0
 60 67  1  0  0  0  0
 61 68  1  0  0  0  0
 62 68  1  0  0  0  0
 63 68  1  0  0  0  0
 64 79  1  0  0  0  0
 65 87  1  0  0  0  0
 66 68  1  0  0  0  0
 66 78  1  0  0  0  0
 67 79  1  0  0  0  0
 69 71  1  0  0  0  0
M  CHG  1  79   1
M  ISO  4  37 100  65 101  74 100  87 101
M  END
> <Batch ID>
0171

> <Smiles>
CNC(C)C(=O)NC(C(=O)N1Cc2cc([101O:1][101CH2:1]c3c(C)nc(C4C[100N:0]([100C:0](=O)N5CCCC(n6nc(-c7ccc(Oc8ccc(F)cc8F)cc7)c(C(N)=O)c6N)C5)C4)c(C4CC4)c3C3CCO3)ccc2CC1C(=O)NC1CCCc2ccccc21)C(C)(C)C

> <Shape>
0.275

> <Color>
0.086

> <Negative vol penalty>
0.000

$$$$

  -OEChem-04052322373D

 90100  0     1  0  0  0  0  0999 V2000
  -24.9286  -36.9947   25.6197 C   0  0  0  0  0  0  0  0  0  0  0  0
  -25.8557  -36.3675   24.7935 C   0  0  0  0  0  0  0  0  0  0  0  0
  -27.4956  -12.8164   18.5750 C   0  0  0  0  0  0  0  0  0  0  0  0
  -28.1816  -12.9775   20.8860 C   0  0  0  0  0  0  0  0  0  0  0  0
  -23.9542  -36.2397   26.2713 C   0  0  0  0  0  0  0  0  0  0  0  0
  -25.8095  -34.9848   24.6193 C   0  0  0  0  0  0  0  0  0  0  0  0
  -27.0912  -29.9311   19.7067 C   0  0  0  0  0  0  0  0  0  0  0  0
  -28.6568  -12.1021   18.2801 C   0  0  0  0  0  0  0  0  0  0  0  0
  -29.3428  -12.2632   20.5911 C   0  0  0  0  0  0  0  0  0  0  0  0
  -27.7958  -28.7388   19.5465 C   0  0  0  0  0  0  0  0  0  0  0  0
  -29.7911   -8.9363   18.6325 C   0  0  0  0  0  0  0  0  0  0  0  0
  -29.6671   -7.7971   17.8374 C   0  0  0  0  0  0  0  0  0  0  0  0
  -29.7837  -24.4313   17.8653 C   0  0  0  0  0  0  0  0  0  0  0  0
  -26.0191  -27.5462   20.6602 C   0  0  0  0  0  0  0  0  0  0  0  0
  -31.1424   -8.7815   16.1968 C   0  0  0  0  0  0  0  0  0  0  0  0
  -30.8776  -22.5914   18.9020 C   0  0  0  0  0  0  0  0  0  0  0  0
  -27.2580  -13.2542   19.8779 C   0  0  0  0  0  0  0  0  0  0  0  0
  -24.7294  -13.5590   20.0216 C   0  0  0  0  0  0  0  0  0  0  0  0
  -23.8901  -34.8482   26.0974 C   0  0  0  0  0  0  0  0  0  0  0  0
  -25.8481  -29.9416   20.3556 C   0  0  0  0  0  0  0  0  0  0  0  0
  -24.8342  -34.2104   25.2702 C   0  0  0  0  0  0  0  0  0  0  0  0
  -30.3334  -23.1585   17.7609 C   0  0  0  0  0  0  0  0  0  0  0  0
  -25.2995  -28.7396   20.8250 C   0  0  0  0  0  0  0  0  0  0  0  0
  -29.7946  -25.0889   19.0904 C   0  0  0  0  0  0  0  0  0  0  0  0
  -29.5804  -11.8255   19.2881 C   0  0  0  0  0  0  0  0  0  0  0  0
  -27.2611  -27.5465   20.0259 C   0  0  0  0  0  0  0  0  0  0  0  0
  -30.5908   -9.9982   18.2098 C   0  0  0  0  0  0  0  0  0  0  0  0
  -30.3427   -7.7197   16.6195 C   0  0  0  0  0  0  0  0  0  0  0  0
  -31.2664   -9.9208   16.9920 C   0  0  0  0  0  0  0  0  0  0  0  0
  -26.0589  -13.9926   20.1830 C   0  0  0  0  0  0  0  0  0  0  0  0
  -30.3627  -24.4353   20.1720 C   0  0  0  0  0  0  0  0  0  0  0  0
  -23.9682  -14.6185   20.4512 C   0  0  0  0  0  0  0  0  0  0  0  0
  -24.2273  -12.3102   19.5275 C   0  0  0  0  0  0  0  0  0  0  0  0
  -24.7028  -31.3083   22.9870 C   0  0  0  0  0  0  0  0  0  0  0  0
  -21.8923  -30.0774   21.9340 C   0  0  0  0  0  0  0  0  0  0  0  0
  -20.2814  -27.7273   20.0554 C   0  0  0  0  0  0  0  0  0  0  0  0
  -25.8315  -18.1228   18.3618 C   0  0  0  0  0  0  0  0  0  0  0  0
  -22.8483  -34.0686   26.8598 C   0  0  0  0  0  0  0  0  0  0  0  0
  -25.0883  -31.2320   20.4967 C   0  0  0  0  0  0  0  0  0  0  0  0
  -23.9593  -28.6940   21.5108 C   0  0  0  0  0  0  0  0  0  0  0  0
  -22.6351  -32.6540   26.3270 C   0  0  0  0  0  0  0  0  0  0  0  0
  -26.7604  -18.2097   21.7551 C   0  0  0  0  0  0  0  0  0  0  0  0
  -23.9754  -31.9657   26.0887 C   0  0  0  0  0  0  0  0  0  0  0  0
  -25.5243  -17.5739   22.3989 C   0  0  0  0  0  0  0  0  0  0  0  0
  -29.0697  -18.8570   16.7049 C   0  0  0  0  0  0  0  0  0  0  0  0
  -28.0986  -21.0062   17.5921 C   0  0  0  0  0  0  0  0  0  0  0  0
  -26.4064  -19.1528   20.6082 C   0  0  0  0  0  0  0  0  0  0  0  0
  -27.6740  -18.2384   16.7266 C   0  0  0  0  0  0  0  0  0  0  0  0
  -26.7204  -20.3515   17.5908 C   0  0  0  0  0  0  0  0  0  0  0  0
  -24.2537  -17.9992   20.2694 C   0  0  0  0  0  0  0  0  0  0  0  0
  -31.6370  -21.5916   14.6699 C   0  0  0  0  0  0  0  0  0  0  0  0
  -24.8013  -32.7156   25.0365 C   0  0  1  0  0  0  0  0  0  0  0  0
  -30.3367  -22.4160   16.4440 C   0  0  2  0  0  0  0  0  0  0  0  0
  -24.0670  -31.2033   21.6296 C   0  0  1  0  0  0  0  0  0  0  0  0
  -24.5289  -16.9680   21.3838 C   0  0  1  0  0  0  0  0  0  0  0  0
  -29.0045  -20.3774   16.5278 C   0  0  0  0  0  0  0  0  0  0  0  0
  -31.2488  -20.4160   15.5661 C   0  0  1  0  0  0  0  0  0  0  0  0
  -30.4018  -25.0930   21.5127 C   0  0  0  0  0  0  0  0  0  0  0  0
  -32.4699  -19.8050   16.2530 C   0  0  0  0  0  0  0  0  0  0  0  0
  -17.9811  -26.9501   19.4217 C   0  0  0  0  0  0  0  0  0  0  0  0
  -21.5810  -28.7723   24.6744 C   0  0  0  0  0  0  0  0  0  0  0  0
  -19.8227  -27.2867   23.6898 C   0  0  0  0  0  0  0  0  0  0  0  0
  -19.4792  -29.7569   23.7430 C   0  0  0  0  0  0  0  0  0  0  0  0
  -20.7638  -28.2663   17.1856 C   0  0  0  0  0  0  0  0  0  0  0  0
  -29.2089  -26.4535   19.2088 C   0  0  0  0  0  0  0  0  0  1  0  0
  -21.1570  -28.7732   22.1276 C   0  0  1  0  0  0  0  0  0  0  0  0
  -19.1527  -27.8443   19.0471 C   0  0  2  0  0  0  0  0  0  0  0  0
  -20.5362  -28.6481   23.5475 C   0  0  0  0  0  0  0  0  0  0  0  0
  -30.9065  -23.1992   20.1092 N   0  0  0  0  0  0  0  0  0  0  0  0
  -26.1412  -15.2310   20.6766 N   0  0  0  0  0  0  0  0  0  0  0  0
  -24.8536  -15.5847   20.8288 N   0  0  0  0  0  0  0  0  0  0  0  0
  -23.2579  -29.9828   21.6303 N   0  0  0  0  0  0  0  0  0  0  0  0
  -25.4885  -18.5025   19.6679 N   0  0  0  0  0  0  0  0  0  0  0  0
  -26.8133  -18.8901   17.7139 N   0  0  0  0  0  0  0  0  0  0  0  0
  -30.3459  -20.9504   16.6089 N   0  0  1  0  0  0  0  0  0  0  0  0
  -22.6346  -14.8086   20.5389 N   0  0  0  0  0  0  0  0  0  0  0  0
  -24.0032  -11.2716   20.4415 N   0  0  0  0  0  0  0  0  0  0  0  0
  -24.3123  -32.4215   23.7065 N   0  0  0  0  0  0  0  0  0  0  0  0
  -20.1868  -28.6865   21.0414 N   0  0  0  0  0  0  0  0  0  0  0  0
  -31.4987  -22.7752   15.5639 N   0  3  0  0  0  0  0  0  0  0  0  0
  -19.6278  -27.4525   17.6899 N   0  3  0  0  0  0  0  0  0  0  0  0
  -24.0000  -12.1157   18.3093 O   0  0  0  0  0  0  0  0  0  0  0  0
  -25.4882  -30.4426   23.3548 O   0  0  0  0  0  0  0  0  0  0  0  0
  -21.2762  -31.1407   22.0410 O   0  0  0  0  0  0  0  0  0  0  0  0
  -21.1572  -26.8685   19.9783 O   0  0  0  0  0  0  0  0  0  0  0  0
  -25.2998  -17.1542   17.8050 O   0  0  0  0  0  0  0  0  0  0  0  0
  -30.7135  -11.1283   19.0008 O   0  0  0  0  0  0  0  0  0  0  0  0
  -27.9517  -26.3736   19.8704 O   0  0  0  0  0  0  0  0  0  1  0  0
  -30.2247   -6.6249   15.8568 F   0  0  0  0  0  0  0  0  0  0  0  0
  -32.0370  -10.9373   16.5812 F   0  0  0  0  0  0  0  0  0  0  0  0
  1  2  1  0  0  0  0
  1  5  2  0  0  0  0
  2  6  2  0  0  0  0
  3  8  2  0  0  0  0
  3 17  1  0  0  0  0
  4  9  1  0  0  0  0
  4 17  2  0  0  0  0
  5 19  1  0  0  0  0
  6 21  1  0  0  0  0
  7 10  2  0  0  0  0
  7 20  1  0  0  0  0
  8 25  1  0  0  0  0
  9 25  2  0  0  0  0
 10 26  1  0  0  0  0
 11 12  2  0  0  0  0
 11 27  1  0  0  0  0
 12 28  1  0  0  0  0
 13 22  2  0  0  0  0
 13 24  1  0  0  0  0
 14 23  1  0  0  0  0
 14 26  2  0  0  0  0
 15 28  2  0  0  0  0
 15 29  1  0  0  0  0
 16 22  1  0  0  0  0
 16 69  2  0  0  0  0
 17 30  1  0  0  0  0
 18 30  1  0  0  0  0
 18 32  2  0  0  0  0
 18 33  1  0  0  0  0
 19 21  2  0  0  0  0
 19 38  1  0  0  0  0
 20 23  2  0  0  0  0
 20 39  1  0  0  0  0
 21 52  1  0  0  0  0
 22 53  1  0  0  0  0
 23 40  1  0  0  0  0
 24 31  2  0  0  0  0
 24 65  1  0  0  0  0
 25 87  1  0  0  0  0
 26 88  1  0  0  0  0
 27 29  2  0  0  0  0
 27 87  1  0  0  0  0
 28 89  1  0  0  0  0
 29 90  1  0  0  0  0
 30 70  2  0  0  0  0
 31 58  1  0  0  0  0
 31 69  1  0  0  0  0
 32 71  1  0  0  0  0
 32 76  1  0  0  0  0
 33 77  1  0  0  0  0
 33 82  2  0  0  0  0
 34 54  1  0  0  0  0
 34 78  1  0  0  0  0
 34 83  2  0  0  0  0
 35 66  1  0  0  0  0
 35 72  1  0  0  0  0
 35 84  2  0  0  0  0
 36 67  1  0  0  0  0
 36 79  1  0  0  0  0
 36 85  2  0  0  0  0
 37 73  1  0  0  0  0
 37 74  1  0  0  0  0
 37 86  2  0  0  0  0
 38 41  1  0  0  0  0
 39 54  1  0  0  0  0
 40 72  1  0  0  0  0
 41 43  1  0  0  0  0
 42 44  1  0  0  0  0
 42 47  1  0  0  0  0
 43 52  1  0  0  0  0
 44 55  1  0  0  0  0
 45 48  1  0  0  0  0
 45 56  1  0  0  0  0
 46 49  1  0  0  0  0
 46 56  1  0  0  0  0
 47 73  1  0  0  0  0
 48 74  1  0  0  0  0
 49 74  1  0  0  0  0
 50 55  1  0  0  0  0
 50 73  1  0  0  0  0
 51 57  1  0  0  0  0
 51 80  1  0  0  0  0
 52 78  1  0  0  0  0
 53 75  1  0  0  0  0
 53 80  1  0  0  0  0
 54 72  1  0  0  0  0
 55 71  1  0  0  0  0
 56 75  1  0  0  0  0
 57 59  1  0  0  0  0
 57 75  1  0  0  0  0
 60 67  1  0  0  0  0
 61 68  1  0  0  0  0
 62 68  1  0  0  0  0
 63 68  1  0  0  0  0
 64 81  1  0  0  0  0
 65 88  1  0  0  0  0
 66 68  1  0  0  0  0
 66 79  1  0  0  0  0
 67 81  1  0  0  0  0
 70 71  1  0  0  0  0
M  CHG  2  80   1  81   1
M  ISO  4  37 100  65 101  74 100  88 101
M  END
> <Batch ID>
0171

> <Smiles>
CNC(C)C(=O)NC(C(=O)N1Cc2cc([101O:1][101CH2:1]c3cc(C4NCC(C)N4C4CC[100N:0]([100C:0](=O)N5CCCC(n6nc(-c7ccc(Oc8ccc(F)cc8F)cc7)c(C(N)=O)c6N)C5)CC4)cnc3C)ccc2CC1C(=O)NC1CCCc2ccccc21)C(C)(C)C

> <Shape>
0.278

> <Color>
0.081

> <Negative vol penalty>
0.000

$$$$

  -OEChem-04052322373D

 87 96  0     1  0  0  0  0  0999 V2000
  -27.9024  -29.4880   19.5675 C   0  0  0  0  0  0  0  0  0  0  0  0
  -27.6628  -28.2327   20.1174 C   0  0  0  0  0  0  0  0  0  0  0  0
  -24.3377   -8.9749   21.4940 C   0  0  0  0  0  0  0  0  0  0  0  0
  -24.3994  -10.5811   23.2977 C   0  0  0  0  0  0  0  0  0  0  0  0
  -26.9526  -30.4997   19.7023 C   0  0  0  0  0  0  0  0  0  0  0  0
  -26.4735  -27.9888   20.8034 C   0  0  0  0  0  0  0  0  0  0  0  0
  -24.3660  -23.5649   19.5257 C   0  0  0  0  0  0  0  0  0  0  0  0
  -23.9748   -7.9753   22.3966 C   0  0  0  0  0  0  0  0  0  0  0  0
  -24.0365   -9.5815   24.2003 C   0  0  0  0  0  0  0  0  0  0  0  0
  -24.9165  -22.4124   20.0847 C   0  0  0  0  0  0  0  0  0  0  0  0
  -22.6803   -5.0775   24.1693 C   0  0  0  0  0  0  0  0  0  0  0  0
  -21.6474   -4.2153   23.8013 C   0  0  0  0  0  0  0  0  0  0  0  0
  -23.1418  -22.3643   21.7179 C   0  0  0  0  0  0  0  0  0  0  0  0
  -20.1402   -6.0954   23.6266 C   0  0  0  0  0  0  0  0  0  0  0  0
  -24.5501  -10.2778   21.9446 C   0  0  0  0  0  0  0  0  0  0  0  0
  -24.0641  -12.1568   20.2890 C   0  0  0  0  0  0  0  0  0  0  0  0
  -25.7469  -30.2652   20.3820 C   0  0  0  0  0  0  0  0  0  0  0  0
  -23.2035  -24.1329   20.0663 C   0  0  0  0  0  0  0  0  0  0  0  0
  -25.5072  -28.9987   20.9486 C   0  0  0  0  0  0  0  0  0  0  0  0
  -22.5772  -23.5226   21.1624 C   0  0  0  0  0  0  0  0  0  0  0  0
  -23.8241   -8.2786   23.7497 C   0  0  0  0  0  0  0  0  0  0  0  0
  -24.3060  -21.8135   21.1828 C   0  0  0  0  0  0  0  0  0  0  0  0
  -22.4431   -6.4487   24.2660 C   0  0  0  0  0  0  0  0  0  0  0  0
  -20.3774   -4.7242   23.5300 C   0  0  0  0  0  0  0  0  0  0  0  0
  -21.1731   -6.9576   23.9947 C   0  0  0  0  0  0  0  0  0  0  0  0
  -24.9255  -11.3107   21.0128 C   0  0  0  0  0  0  0  0  0  0  0  0
  -24.9053  -12.9538   19.5516 C   0  0  0  0  0  0  0  0  0  0  0  0
  -29.7620  -15.2676   22.5949 C   0  0  0  0  0  0  0  0  0  0  0  0
  -30.2120  -14.1354   23.1624 C   0  0  0  0  0  0  0  0  0  0  0  0
  -22.6316  -12.2170   20.2838 C   0  0  0  0  0  0  0  0  0  0  0  0
  -30.6300  -14.5863   20.3727 C   0  0  0  0  0  0  0  0  0  0  0  0
  -22.4860  -26.9223   21.4110 C   0  0  0  0  0  0  0  0  0  0  0  0
  -19.4661  -25.7407   21.3329 C   0  0  0  0  0  0  0  0  0  0  0  0
  -17.4267  -23.0065   21.2240 C   0  0  0  0  0  0  0  0  0  0  0  0
  -24.7709  -31.4038   20.5429 C   0  0  0  0  0  0  0  0  0  0  0  0
  -22.6073  -25.3612   19.4351 C   0  0  0  0  0  0  0  0  0  0  0  0
  -21.3162  -24.0814   21.7675 C   0  0  0  0  0  0  0  0  0  0  0  0
  -29.0595  -16.3045   23.4279 C   0  0  0  0  0  0  0  0  0  0  0  0
  -23.3735  -30.9537   20.9611 C   0  0  0  0  0  0  0  0  0  0  0  0
  -29.2201  -12.9699   17.5022 C   0  0  0  0  0  0  0  0  0  0  0  0
  -23.4566  -29.9485   22.1055 C   0  0  0  0  0  0  0  0  0  0  0  0
  -27.8939  -12.4136   18.0188 C   0  0  0  0  0  0  0  0  0  0  0  0
  -28.7125  -18.7508   21.5592 C   0  0  0  0  0  0  0  0  0  0  0  0
  -30.3028  -12.9195   18.5757 C   0  0  0  0  0  0  0  0  0  0  0  0
  -28.6019  -13.0507   20.3678 C   0  0  0  0  0  0  0  0  0  0  0  0
  -24.2185  -28.6881   21.6784 C   0  0  1  0  0  0  0  0  0  0  0  0
  -21.7087  -26.1455   20.3863 C   0  0  1  0  0  0  0  0  0  0  0  0
  -28.2509  -19.5262   22.7981 C   0  0  2  0  0  0  0  0  0  0  0  0
  -28.7819  -18.7275   24.0148 C   0  0  1  0  0  0  0  0  0  0  0  0
  -30.6057  -17.0277   20.9889 C   0  0  2  0  0  0  0  0  0  0  0  0
  -27.4726  -13.1116   19.3241 C   0  0  2  0  0  0  0  0  0  0  0  0
  -29.8914  -15.6542   21.1395 C   0  0  2  0  0  0  0  0  0  0  0  0
  -29.8025  -17.6773   23.4297 C   0  0  2  0  0  0  0  0  0  0  0  0
  -30.0876  -18.1674   21.9551 C   0  0  2  0  0  0  0  0  0  0  0  0
  -29.3003  -19.6678   25.1044 C   0  0  0  0  0  0  0  0  0  0  0  0
  -30.6338  -17.4926   19.5165 C   0  0  0  0  0  0  0  0  0  0  0  0
  -31.0881  -17.5172   24.2669 C   0  0  0  0  0  0  0  0  0  0  0  0
  -31.1332  -19.3211   21.9254 C   0  0  0  0  0  0  0  0  0  0  0  0
  -15.0030  -22.3561   21.2094 C   0  0  0  0  0  0  0  0  0  0  0  0
  -19.2927  -26.3287   24.3220 C   0  0  0  0  0  0  0  0  0  0  0  0
  -17.2922  -24.8272   24.4304 C   0  0  0  0  0  0  0  0  0  0  0  0
  -17.2276  -26.8885   23.0271 C   0  0  0  0  0  0  0  0  0  0  0  0
  -17.6725  -21.7042   18.5778 C   0  0  0  0  0  0  0  0  0  0  0  0
  -26.7390  -19.7163   22.8260 C   0  0  0  0  0  0  0  0  0  0  0  0
  -26.2548  -20.5284   21.6374 C   0  0  0  0  0  0  0  0  0  1  0  0
  -18.6161  -24.9163   22.2693 C   0  0  1  0  0  0  0  0  0  0  0  0
  -16.2214  -22.6827   20.3598 C   0  0  2  0  0  0  0  0  0  0  0  0
  -18.1320  -25.7305   23.5022 C   0  0  0  0  0  0  0  0  0  0  0  0
  -26.2151  -11.5479   20.7581 N   0  0  0  0  0  0  0  0  0  0  0  0
  -26.1701  -12.5520   19.8660 N   0  0  0  0  0  0  0  0  0  0  0  0
  -29.8557  -13.5732   19.8070 N   0  0  0  0  0  0  0  0  0  0  0  0
  -20.7754  -25.2873   21.1188 N   0  0  0  0  0  0  0  0  0  0  0  0
  -24.6790  -13.9519   18.6714 N   0  0  0  0  0  0  0  0  0  0  0  0
  -21.9224  -11.3259   21.1007 N   0  0  0  0  0  0  0  0  0  0  0  0
  -23.3723  -27.8351   20.8717 N   0  0  0  0  0  0  0  0  0  0  0  0
  -17.5375  -24.3607   21.4592 N   0  0  0  0  0  0  0  0  0  0  0  0
  -16.5113  -21.5121   19.4843 N   0  3  0  0  0  0  0  0  0  0  0  0
  -21.9988  -13.0258   19.5634 O   0  0  0  0  0  0  0  0  0  0  0  0
  -31.8583  -14.6539   20.2778 O   0  0  0  0  0  0  0  0  0  0  0  0
  -22.2947  -26.7104   22.6027 O   0  0  0  0  0  0  0  0  0  0  0  0
  -18.9837  -26.7460   20.8052 O   0  0  0  0  0  0  0  0  0  0  0  0
  -18.1911  -22.1441   21.6511 O   0  0  0  0  0  0  0  0  0  0  0  0
  -28.5846  -15.6650   20.5723 O   0  0  0  0  0  0  0  0  0  0  0  0
  -23.4698   -7.3034   24.6307 O   0  0  0  0  0  0  0  0  0  0  0  0
  -24.8455  -20.6806   21.7348 O   0  0  0  0  0  0  0  0  0  1  0  0
  -19.3860   -3.8963   23.1751 F   0  0  0  0  0  0  0  0  0  0  0  0
  -20.9395   -8.2741   24.0848 F   0  0  0  0  0  0  0  0  0  0  0  0
  1  2  1  0  0  0  0
  1  5  2  0  0  0  0
  2  6  2  0  0  0  0
  3  8  2  0  0  0  0
  3 15  1  0  0  0  0
  4  9  1  0  0  0  0
  4 15  2  0  0  0  0
  5 17  1  0  0  0  0
  6 19  1  0  0  0  0
  7 10  2  0  0  0  0
  7 18  1  0  0  0  0
  8 21  1  0  0  0  0
  9 21  2  0  0  0  0
 10 22  1  0  0  0  0
 11 12  2  0  0  0  0
 11 23  1  0  0  0  0
 12 24  1  0  0  0  0
 13 20  1  0  0  0  0
 13 22  2  0  0  0  0
 14 24  2  0  0  0  0
 14 25  1  0  0  0  0
 15 26  1  0  0  0  0
 16 26  1  0  0  0  0
 16 27  2  0  0  0  0
 16 30  1  0  0  0  0
 17 19  2  0  0  0  0
 17 35  1  0  0  0  0
 18 20  2  0  0  0  0
 18 36  1  0  0  0  0
 19 46  1  0  0  0  0
 20 37  1  0  0  0  0
 21 84  1  0  0  0  0
 22 85  1  0  0  0  0
 23 25  2  0  0  0  0
 23 84  1  0  0  0  0
 24 86  1  0  0  0  0
 25 87  1  0  0  0  0
 26 69  2  0  0  0  0
 27 70  1  0  0  0  0
 27 73  1  0  0  0  0
 28 29  2  0  0  0  0
 28 38  1  0  0  0  0
 28 52  1  0  0  0  0
 30 74  1  0  0  0  0
 30 78  2  0  0  0  0
 31 52  1  0  0  0  0
 31 71  1  0  0  0  0
 31 79  2  0  0  0  0
 32 47  1  0  0  0  0
 32 75  1  0  0  0  0
 32 80  2  0  0  0  0
 33 66  1  0  0  0  0
 33 72  1  0  0  0  0
 33 81  2  0  0  0  0
 34 67  1  0  0  0  0
 34 76  1  0  0  0  0
 34 82  2  0  0  0  0
 35 39  1  0  0  0  0
 36 47  1  0  0  0  0
 37 72  1  0  0  0  0
 38 53  1  0  0  0  0
 39 41  1  0  0  0  0
 40 42  1  0  0  0  0
 40 44  1  0  0  0  0
 41 46  1  0  0  0  0
 42 51  1  0  0  0  0
 43 48  1  0  0  0  0
 43 54  1  0  0  0  0
 44 71  1  0  0  0  0
 45 51  1  0  0  0  0
 45 71  1  0  0  0  0
 46 75  1  0  0  0  0
 47 72  1  0  0  0  0
 48 49  1  0  0  0  0
 48 64  1  0  0  0  0
 49 53  1  0  0  0  0
 49 55  1  0  0  0  0
 50 52  1  0  0  0  0
 50 54  1  0  0  0  0
 50 56  1  0  0  0  0
 51 70  1  0  0  0  0
 52 83  1  0  0  0  0
 53 54  1  0  0  0  0
 53 57  1  0  0  0  0
 54 58  1  0  0  0  0
 59 67  1  0  0  0  0
 60 68  1  0  0  0  0
 61 68  1  0  0  0  0
 62 68  1  0  0  0  0
 63 77  1  0  0  0  0
 64 65  1  0  0  0  0
 65 85  1  0  0  0  0
 66 68  1  0  0  0  0
 66 76  1  0  0  0  0
 67 77  1  0  0  0  0
 69 70  1  0  0  0  0
M  CHG  1  77   1
M  ISO  4  31 100  52 100  65 101  85 101
M  END
> <Batch ID>
0171

> <Smiles>
C=C1CC2(C)C(C)C(C[101CH2:1][101O:1]c3ccc4c(c3)CN(C(=O)C(NC(=O)C(C)NC)C(C)(C)C)C(C(=O)NC3CCCc5ccccc53)C4)CC2(C)C(C)[100C:0]1(O)[100C:0](=O)N1CCCC(n2nc(-c3ccc(Oc4ccc(F)cc4F)cc3)c(C(N)=O)c2N)C1

> <Shape>
0.255

> <Color>
0.101

> <Negative vol penalty>
0.000

$$$$

  -OEChem-04052322373D

 85 94  0     1  0  0  0  0  0999 V2000
  -28.4650  -32.9697   24.9497 C   0  0  0  0  0  0  0  0  0  0  0  0
  -28.4540  -31.5809   24.8684 C   0  0  0  0  0  0  0  0  0  0  0  0
  -22.6514  -10.2906   20.2671 C   0  0  0  0  0  0  0  0  0  0  0  0
  -24.2085   -9.6804   22.0107 C   0  0  0  0  0  0  0  0  0  0  0  0
  -27.2715  -33.6825   24.8429 C   0  0  0  0  0  0  0  0  0  0  0  0
  -27.2493  -30.9041   24.6813 C   0  0  0  0  0  0  0  0  0  0  0  0
  -27.5956  -27.2493   21.1931 C   0  0  0  0  0  0  0  0  0  0  0  0
  -21.8890   -9.1577   20.5515 C   0  0  0  0  0  0  0  0  0  0  0  0
  -23.4461   -8.5475   22.2951 C   0  0  0  0  0  0  0  0  0  0  0  0
  -28.1987  -26.0538   21.5812 C   0  0  0  0  0  0  0  0  0  0  0  0
  -20.5996   -7.8173   23.9640 C   0  0  0  0  0  0  0  0  0  0  0  0
  -20.3414   -7.5316   25.3046 C   0  0  0  0  0  0  0  0  0  0  0  0
  -30.2143  -20.6951   24.4231 C   0  0  0  0  0  0  0  0  0  0  0  0
  -30.3884  -21.5232   21.7744 C   0  0  0  0  0  0  0  0  0  0  0  0
  -26.0213  -25.0575   21.8740 C   0  0  0  0  0  0  0  0  0  0  0  0
  -21.4565   -5.4017   25.0654 C   0  0  0  0  0  0  0  0  0  0  0  0
  -23.8113  -10.5519   20.9967 C   0  0  0  0  0  0  0  0  0  0  0  0
  -24.1838  -13.0651   20.7674 C   0  0  0  0  0  0  0  0  0  0  0  0
  -26.0527  -33.0147   24.6448 C   0  0  0  0  0  0  0  0  0  0  0  0
  -26.1984  -27.3615   21.1528 C   0  0  0  0  0  0  0  0  0  0  0  0
  -26.0382  -31.6086   24.5731 C   0  0  0  0  0  0  0  0  0  0  0  0
  -30.7321  -19.8127   23.4603 C   0  0  0  0  0  0  0  0  0  0  0  0
  -30.8207  -20.2302   22.1164 C   0  0  0  0  0  0  0  0  0  0  0  0
  -25.4030  -26.2548   21.4825 C   0  0  0  0  0  0  0  0  0  0  0  0
  -29.7880  -21.9732   24.0655 C   0  0  0  0  0  0  0  0  0  0  0  0
  -29.8749  -22.3871   22.7413 C   0  0  0  0  0  0  0  0  0  0  0  0
  -22.2863   -8.2862   21.5655 C   0  0  0  0  0  0  0  0  0  0  0  0
  -27.4116  -24.9585   21.9245 C   0  0  0  0  0  0  0  0  0  0  0  0
  -21.2862   -6.8952   23.1740 C   0  0  0  0  0  0  0  0  0  0  0  0
  -20.7699   -6.3238   25.8553 C   0  0  0  0  0  0  0  0  0  0  0  0
  -21.7147   -5.6874   23.7247 C   0  0  0  0  0  0  0  0  0  0  0  0
  -24.5996  -11.7217   20.7031 C   0  0  0  0  0  0  0  0  0  0  0  0
  -25.2928  -13.7859   20.3971 C   0  0  0  0  0  0  0  0  0  0  0  0
  -30.3736  -17.3621   23.2041 C   0  0  0  0  0  0  0  0  0  0  0  0
  -22.9091  -13.6126   21.1295 C   0  0  0  0  0  0  0  0  0  0  0  0
  -24.0479  -29.1554   22.6564 C   0  0  0  0  0  0  0  0  0  0  0  0
  -21.9912  -27.7346   20.5892 C   0  0  0  0  0  0  0  0  0  0  0  0
  -21.2932  -25.0787   18.5629 C   0  0  0  0  0  0  0  0  0  0  0  0
  -30.7811  -14.7586   20.6759 C   0  0  0  0  0  0  0  0  0  0  0  0
  -31.1784  -18.4419   23.8916 C   0  0  0  0  0  0  0  0  0  0  0  0
  -24.7825  -33.8254   24.5825 C   0  0  0  0  0  0  0  0  0  0  0  0
  -25.5636  -28.6499   20.7063 C   0  0  0  0  0  0  0  0  0  0  0  0
  -31.3802  -19.3367   21.0314 C   0  0  0  0  0  0  0  0  0  0  0  0
  -23.8989  -26.3173   21.4361 C   0  0  0  0  0  0  0  0  0  0  0  0
  -23.5955  -33.0547   24.0102 C   0  0  0  0  0  0  0  0  0  0  0  0
  -30.5591  -18.0633   20.7889 C   0  0  0  0  0  0  0  0  0  0  0  0
  -29.6767  -12.2758   18.3753 C   0  0  0  0  0  0  0  0  0  0  0  0
  -23.5011  -31.6710   24.6452 C   0  0  0  0  0  0  0  0  0  0  0  0
  -28.2258  -12.0170   18.7851 C   0  0  0  0  0  0  0  0  0  0  0  0
  -30.5662  -12.5438   19.5873 C   0  0  0  0  0  0  0  0  0  0  0  0
  -28.6389  -13.3580   20.8898 C   0  0  0  0  0  0  0  0  0  0  0  0
  -24.7546  -30.8399   24.3458 C   0  0  1  0  0  0  0  0  0  0  0  0
  -30.8400  -16.9642   21.8122 C   0  0  2  0  0  0  0  0  0  0  0  0
  -24.1277  -28.8098   21.1963 C   0  0  1  0  0  0  0  0  0  0  0  0
  -27.6923  -13.1378   19.6974 C   0  0  2  0  0  0  0  0  0  0  0  0
  -29.2427  -22.8783   25.1209 C   0  0  0  0  0  0  0  0  0  0  0  0
  -19.5188  -24.1821   17.0315 C   0  0  0  0  0  0  0  0  0  0  0  0
  -20.3167  -26.9242   23.0077 C   0  0  0  0  0  0  0  0  0  0  0  0
  -19.1303  -25.2739   21.5458 C   0  0  0  0  0  0  0  0  0  0  0  0
  -18.9919  -27.7124   21.0385 C   0  0  0  0  0  0  0  0  0  0  0  0
  -23.1208  -25.1136   16.2354 C   0  0  0  0  0  0  0  0  0  0  0  0
  -29.4240  -23.7575   22.3288 C   0  0  0  0  0  0  0  0  0  1  0  0
  -21.1554  -26.4775   20.6071 C   0  0  1  0  0  0  0  0  0  0  0  0
  -20.7919  -25.0080   17.1318 C   0  0  2  0  0  0  0  0  0  0  0  0
  -19.9269  -26.5961   21.5526 C   0  0  0  0  0  0  0  0  0  0  0  0
  -25.8732  -11.5939   20.3217 N   0  0  0  0  0  0  0  0  0  0  0  0
  -26.2673  -12.8662   20.1431 N   0  0  0  0  0  0  0  0  0  0  0  0
  -23.3253  -27.6009   20.9993 N   0  0  0  0  0  0  0  0  0  0  0  0
  -30.0052  -13.6182   20.4101 N   0  0  0  0  0  0  0  0  0  0  0  0
  -25.5196  -15.1103   20.2673 N   0  0  0  0  0  0  0  0  0  0  0  0
  -22.6730  -13.9221   22.4760 N   0  0  0  0  0  0  0  0  0  0  0  0
  -24.7068  -30.3218   22.9953 N   0  0  0  0  0  0  0  0  0  0  0  0
  -20.8146  -26.1941   19.2172 N   0  0  0  0  0  0  0  0  0  0  0  0
  -30.1715  -15.7318   21.4582 N   0  0  0  0  0  0  0  0  0  0  0  0
  -21.8235  -24.3900   16.2516 N   0  3  0  0  0  0  0  0  0  0  0  0
  -29.3675  -16.8912   23.7348 O   0  0  0  0  0  0  0  0  0  0  0  0
  -22.0003  -13.8058   20.2867 O   0  0  0  0  0  0  0  0  0  0  0  0
  -23.4327  -28.4192   23.4188 O   0  0  0  0  0  0  0  0  0  0  0  0
  -21.4811  -28.7947   20.2180 O   0  0  0  0  0  0  0  0  0  0  0  0
  -22.0321  -24.2275   19.0527 O   0  0  0  0  0  0  0  0  0  0  0  0
  -31.9298  -14.9013   20.2434 O   0  0  0  0  0  0  0  0  0  0  0  0
  -21.5425   -7.1807   21.8434 O   0  0  0  0  0  0  0  0  0  0  0  0
  -27.9976  -23.7906   22.3044 O   0  0  0  0  0  0  0  0  0  1  0  0
  -20.5232   -6.0502   27.1431 F   0  0  0  0  0  0  0  0  0  0  0  0
  -22.3758   -4.7981   22.9711 F   0  0  0  0  0  0  0  0  0  0  0  0
  1  2  1  0  0  0  0
  1  5  2  0  0  0  0
  2  6  2  0  0  0  0
  3  8  2  0  0  0  0
  3 17  1  0  0  0  0
  4  9  1  0  0  0  0
  4 17  2  0  0  0  0
  5 19  1  0  0  0  0
  6 21  1  0  0  0  0
  7 10  2  0  0  0  0
  7 20  1  0  0  0  0
  8 27  1  0  0  0  0
  9 27  2  0  0  0  0
 10 28  1  0  0  0  0
 11 12  2  0  0  0  0
 11 29  1  0  0  0  0
 12 30  1  0  0  0  0
 13 22  2  0  0  0  0
 13 25  1  0  0  0  0
 14 23  2  0  0  0  0
 14 26  1  0  0  0  0
 15 24  1  0  0  0  0
 15 28  2  0  0  0  0
 16 30  2  0  0  0  0
 16 31  1  0  0  0  0
 17 32  1  0  0  0  0
 18 32  1  0  0  0  0
 18 33  2  0  0  0  0
 18 35  1  0  0  0  0
 19 21  2  0  0  0  0
 19 41  1  0  0  0  0
 20 24  2  0  0  0  0
 20 42  1  0  0  0  0
 21 52  1  0  0  0  0
 22 23  1  0  0  0  0
 22 40  1  0  0  0  0
 23 43  1  0  0  0  0
 24 44  1  0  0  0  0
 25 26  2  0  0  0  0
 25 56  1  0  0  0  0
 26 62  1  0  0  0  0
 27 82  1  0  0  0  0
 28 83  1  0  0  0  0
 29 31  2  0  0  0  0
 29 82  1  0  0  0  0
 30 84  1  0  0  0  0
 31 85  1  0  0  0  0
 32 66  2  0  0  0  0
 33 67  1  0  0  0  0
 33 70  1  0  0  0  0
 34 40  1  0  0  0  0
 34 53  1  0  0  0  0
 34 76  2  0  0  0  0
 35 71  1  0  0  0  0
 35 77  2  0  0  0  0
 36 54  1  0  0  0  0
 36 72  1  0  0  0  0
 36 78  2  0  0  0  0
 37 63  1  0  0  0  0
 37 68  1  0  0  0  0
 37 79  2  0  0  0  0
 38 64  1  0  0  0  0
 38 73  1  0  0  0  0
 38 80  2  0  0  0  0
 39 69  1  0  0  0  0
 39 74  1  0  0  0  0
 39 81  2  0  0  0  0
 41 45  1  0  0  0  0
 42 54  1  0  0  0  0
 43 46  1  0  0  0  0
 44 68  1  0  0  0  0
 45 48  1  0  0  0  0
 46 53  1  0  0  0  0
 47 49  1  0  0  0  0
 47 50  1  0  0  0  0
 48 52  1  0  0  0  0
 49 55  1  0  0  0  0
 50 69  1  0  0  0  0
 51 55  1  0  0  0  0
 51 69  1  0  0  0  0
 52 72  1  0  0  0  0
 53 74  1  0  0  0  0
 54 68  1  0  0  0  0
 55 67  1  0  0  0  0
 57 64  1  0  0  0  0
 58 65  1  0  0  0  0
 59 65  1  0  0  0  0
 60 65  1  0  0  0  0
 61 75  1  0  0  0  0
 62 83  1  0  0  0  0
 63 65  1  0  0  0  0
 63 73  1  0  0  0  0
 64 75  1  0  0  0  0
 66 67  1  0  0  0  0
M  CHG  1  75   1
M  ISO  4  39 100  62 101  74 100  83 101
M  END
> <Batch ID>
0171

> <Smiles>
CNC(C)C(=O)NC(C(=O)N1Cc2cc([101O:1][101CH2:1]c3cc4c(cc3C)CC(=O)C([100NH:0][100C:0](=O)N3CCCC(n5nc(-c6ccc(Oc7ccc(F)cc7F)cc6)c(C(N)=O)c5N)C3)CC4)ccc2CC1C(=O)NC1CCCc2ccccc21)C(C)(C)C

> <Shape>
0.335

> <Color>
0.189

> <Negative vol penalty>
0.000

$$$$

  -OEChem-04052322373D

 89 99  0     1  0  0  0  0  0999 V2000
  -26.1376  -37.0256   13.9544 C   0  0  0  0  0  0  0  0  0  0  0  0
  -26.0306  -35.6386   13.9690 C   0  0  0  0  0  0  0  0  0  0  0  0
  -22.6222   -9.2681   19.8038 C   0  0  0  0  0  0  0  0  0  0  0  0
  -23.4955   -9.4601   22.0482 C   0  0  0  0  0  0  0  0  0  0  0  0
  -26.8428  -37.6798   14.9637 C   0  0  0  0  0  0  0  0  0  0  0  0
  -26.6296  -34.9049   14.9923 C   0  0  0  0  0  0  0  0  0  0  0  0
  -25.7141  -28.9480   18.8645 C   0  0  0  0  0  0  0  0  0  0  0  0
  -22.5333   -7.8845   19.9568 C   0  0  0  0  0  0  0  0  0  0  0  0
  -23.4066   -8.0765   22.2012 C   0  0  0  0  0  0  0  0  0  0  0  0
  -26.3981  -27.7937   19.2430 C   0  0  0  0  0  0  0  0  0  0  0  0
  -23.0709   -4.6309   23.3119 C   0  0  0  0  0  0  0  0  0  0  0  0
  -22.5342   -4.1426   24.5031 C   0  0  0  0  0  0  0  0  0  0  0  0
  -30.8102  -20.7429   21.8229 C   0  0  0  0  0  0  0  0  0  0  0  0
  -27.5240  -29.0367   20.9770 C   0  0  0  0  0  0  0  0  0  0  0  0
  -20.4648   -5.3027   24.0462 C   0  0  0  0  0  0  0  0  0  0  0  0
  -23.1034  -10.0559   20.8496 C   0  0  0  0  0  0  0  0  0  0  0  0
  -22.2068  -12.4397   20.9955 C   0  0  0  0  0  0  0  0  0  0  0  0
  -27.4426  -36.9545   16.0052 C   0  0  0  0  0  0  0  0  0  0  0  0
  -25.9383  -30.1599   19.5335 C   0  0  0  0  0  0  0  0  0  0  0  0
  -27.3446  -35.5499   16.0158 C   0  0  0  0  0  0  0  0  0  0  0  0
  -29.8826  -19.8278   21.3123 C   0  0  0  0  0  0  0  0  0  0  0  0
  -26.8396  -30.2044   20.6067 C   0  0  0  0  0  0  0  0  0  0  0  0
  -30.6072  -22.1072   21.6655 C   0  0  0  0  0  0  0  0  0  0  0  0
  -22.9255   -7.2887   21.1555 C   0  0  0  0  0  0  0  0  0  0  0  0
  -27.3054  -27.8385   20.2975 C   0  0  0  0  0  0  0  0  0  0  0  0
  -22.3046   -5.4553   22.4878 C   0  0  0  0  0  0  0  0  0  0  0  0
  -21.2311   -4.4784   24.8703 C   0  0  0  0  0  0  0  0  0  0  0  0
  -21.0015   -5.7911   22.8550 C   0  0  0  0  0  0  0  0  0  0  0  0
  -23.1959  -11.4851   20.6920 C   0  0  0  0  0  0  0  0  0  0  0  0
  -28.7630  -20.3340   20.6469 C   0  0  0  0  0  0  0  0  0  0  0  0
  -29.4672  -22.5142   21.0004 C   0  0  0  0  0  0  0  0  0  0  0  0
  -22.7807  -13.6443   20.6700 C   0  0  0  0  0  0  0  0  0  0  0  0
  -20.8871  -12.2541   21.5244 C   0  0  0  0  0  0  0  0  0  0  0  0
  -27.0477  -33.0164   18.6890 C   0  0  0  0  0  0  0  0  0  0  0  0
  -26.2039  -33.8080   21.7194 C   0  0  0  0  0  0  0  0  0  0  0  0
  -25.5849  -32.7844   24.9156 C   0  0  0  0  0  0  0  0  0  0  0  0
  -26.8161  -17.1584   20.6183 C   0  0  0  0  0  0  0  0  0  0  0  0
  -28.2346  -37.7023   17.0483 C   0  0  0  0  0  0  0  0  0  0  0  0
  -25.1725  -31.3902   19.1304 C   0  0  0  0  0  0  0  0  0  0  0  0
  -27.1011  -31.4759   21.3705 C   0  0  0  0  0  0  0  0  0  0  0  0
  -28.5223  -36.8786   18.3010 C   0  0  0  0  0  0  0  0  0  0  0  0
  -27.0250  -14.7071   18.1458 C   0  0  0  0  0  0  0  0  0  0  0  0
  -29.0199  -35.4873   17.9224 C   0  0  0  0  0  0  0  0  0  0  0  0
  -29.0941  -24.3291   19.3030 C   0  0  0  0  0  0  0  0  0  0  0  0
  -25.9578  -13.7160   18.6094 C   0  0  0  0  0  0  0  0  0  0  0  0
  -27.7004  -24.9234   19.0946 C   0  0  0  0  0  0  0  0  0  0  0  0
  -27.8464  -15.2534   19.3151 C   0  0  0  0  0  0  0  0  0  0  0  0
  -29.3225  -17.5468   20.4417 C   0  0  0  0  0  0  0  0  0  0  0  0
  -25.9608  -14.8491   20.8635 C   0  0  0  0  0  0  0  0  0  0  0  0
  -30.0821  -18.3462   21.5084 C   0  0  2  0  0  0  0  0  0  0  0  0
  -27.9595  -34.7209   17.1224 C   0  0  1  0  0  0  0  0  0  0  0  0
  -29.1879  -23.9679   20.8022 C   0  0  1  0  0  0  0  0  0  0  0  0
  -27.7016  -19.4172   20.0725 C   0  0  1  0  0  0  0  0  0  0  0  0
  -25.8605  -32.6860   19.5486 C   0  0  1  0  0  0  0  0  0  0  0  0
  -27.8220  -24.3730   21.4090 C   0  0  2  0  0  0  0  0  0  0  0  0
  -25.0811  -14.3268   19.7171 C   0  0  2  0  0  0  0  0  0  0  0  0
  -27.3144  -25.4662   20.4639 C   0  0  1  0  0  0  0  0  0  1  0  0
  -31.5979  -23.0767   22.2100 C   0  0  0  0  0  0  0  0  0  0  0  0
  -29.6606  -17.9290   22.9216 C   0  0  0  0  0  0  0  0  0  0  0  0
  -27.5683  -19.6170   18.5579 C   0  0  0  0  0  0  0  0  0  0  0  0
  -27.9296  -24.7964   22.8686 C   0  0  0  0  0  0  0  0  0  0  0  0
  -24.9533  -33.6655   27.1788 C   0  0  0  0  0  0  0  0  0  0  0  0
  -29.0479  -34.8429   22.1075 C   0  0  0  0  0  0  0  0  0  0  0  0
  -28.6457  -34.8170   24.5785 C   0  0  0  0  0  0  0  0  0  0  0  0
  -27.2671  -36.2861   23.1076 C   0  0  0  0  0  0  0  0  0  0  0  0
  -23.0927  -31.1891   24.9694 C   0  0  0  0  0  0  0  0  0  0  0  0
  -26.8943  -33.7859   23.0618 C   0  0  1  0  0  0  0  0  0  0  0  0
  -24.4423  -33.0893   25.8675 C   0  0  2  0  0  0  0  0  0  0  0  0
  -27.9605  -34.9093   23.1984 C   0  0  0  0  0  0  0  0  0  0  0  0
  -24.3135  -12.0359   20.2105 N   0  0  0  0  0  0  0  0  0  0  0  0
  -28.5451  -21.6667   20.4942 N   0  0  0  0  0  0  0  0  0  0  0  0
  -24.0300  -13.3495   20.2089 N   0  0  0  0  0  0  0  0  0  0  0  0
  -26.3325  -32.6535   20.9344 N   0  0  0  0  0  0  0  0  0  0  0  0
  -26.9671  -15.7877   20.3640 N   0  0  0  0  0  0  0  0  0  0  0  0
  -27.9224  -17.9843   20.3526 N   0  0  0  0  0  0  0  0  0  0  0  0
  -22.3335  -14.9164   20.7359 N   0  0  0  0  0  0  0  0  0  0  0  0
  -20.4562  -10.9498   21.8028 N   0  0  0  0  0  0  0  0  0  0  0  0
  -26.9316  -34.2112   18.0045 N   0  0  0  0  0  0  0  0  0  0  0  0
  -25.8370  -33.8403   24.0655 N   0  0  0  0  0  0  0  0  0  0  0  0
  -23.6729  -31.8487   26.1674 N   0  3  0  0  0  0  0  0  0  0  0  0
  -20.1070  -13.2150   21.7282 O   0  0  0  0  0  0  0  0  0  0  0  0
  -27.9994  -32.2453   18.6508 O   0  0  0  0  0  0  0  0  0  0  0  0
  -25.5679  -34.8100   21.3829 O   0  0  0  0  0  0  0  0  0  0  0  0
  -26.1953  -31.7178   24.9277 O   0  0  0  0  0  0  0  0  0  0  0  0
  -25.7553  -17.6149   21.0627 O   0  0  0  0  0  0  0  0  0  0  0  0
  -22.8386   -5.9387   21.3051 O   0  0  0  0  0  0  0  0  0  0  0  0
  -27.9797  -26.7055   20.6712 O   0  0  0  0  0  0  0  0  0  1  0  0
  -20.7153   -4.0081   26.0135 F   0  0  0  0  0  0  0  0  0  0  0  0
  -20.2601   -6.5816   22.0669 F   0  0  0  0  0  0  0  0  0  0  0  0
  1  2  1  0  0  0  0
  1  5  2  0  0  0  0
  2  6  2  0  0  0  0
  3  8  2  0  0  0  0
  3 16  1  0  0  0  0
  4  9  1  0  0  0  0
  4 16  2  0  0  0  0
  5 18  1  0  0  0  0
  6 20  1  0  0  0  0
  7 10  2  0  0  0  0
  7 19  1  0  0  0  0
  8 24  1  0  0  0  0
  9 24  2  0  0  0  0
 10 25  1  0  0  0  0
 11 12  2  0  0  0  0
 11 26  1  0  0  0  0
 12 27  1  0  0  0  0
 13 21  2  0  0  0  0
 13 23  1  0  0  0  0
 14 22  1  0  0  0  0
 14 25  2  0  0  0  0
 15 27  2  0  0  0  0
 15 28  1  0  0  0  0
 16 29  1  0  0  0  0
 17 29  1  0  0  0  0
 17 32  2  0  0  0  0
 17 33  1  0  0  0  0
 18 20  2  0  0  0  0
 18 38  1  0  0  0  0
 19 22  2  0  0  0  0
 19 39  1  0  0  0  0
 20 51  1  0  0  0  0
 21 30  1  0  0  0  0
 21 50  1  0  0  0  0
 22 40  1  0  0  0  0
 23 31  2  0  0  0  0
 23 58  1  0  0  0  0
 24 86  1  0  0  0  0
 25 87  1  0  0  0  0
 26 28  2  0  0  0  0
 26 86  1  0  0  0  0
 27 88  1  0  0  0  0
 28 89  1  0  0  0  0
 29 70  2  0  0  0  0
 30 53  1  0  0  0  0
 30 71  2  0  0  0  0
 31 52  1  0  0  0  0
 31 71  1  0  0  0  0
 32 72  1  0  0  0  0
 32 76  1  0  0  0  0
 33 77  1  0  0  0  0
 33 81  2  0  0  0  0
 34 54  1  0  0  0  0
 34 78  1  0  0  0  0
 34 82  2  0  0  0  0
 35 67  1  0  0  0  0
 35 73  1  0  0  0  0
 35 83  2  0  0  0  0
 36 68  1  0  0  0  0
 36 79  1  0  0  0  0
 36 84  2  0  0  0  0
 37 74  1  0  0  0  0
 37 75  1  0  0  0  0
 37 85  2  0  0  0  0
 38 41  1  0  0  0  0
 39 54  1  0  0  0  0
 40 73  1  0  0  0  0
 41 43  1  0  0  0  0
 42 45  1  0  0  0  0
 42 47  1  0  0  0  0
 43 51  1  0  0  0  0
 44 46  1  0  0  0  0
 44 52  1  0  0  0  0
 45 56  1  0  0  0  0
 46 57  1  0  0  0  0
 47 74  1  0  0  0  0
 48 50  1  0  0  0  0
 48 75  1  0  0  0  0
 49 56  1  0  0  0  0
 49 74  1  0  0  0  0
 50 59  1  0  0  0  0
 51 78  1  0  0  0  0
 52 55  1  0  0  0  0
 53 60  1  0  0  0  0
 53 75  1  0  0  0  0
 54 73  1  0  0  0  0
 55 57  1  0  0  0  0
 55 61  1  0  0  0  0
 56 72  1  0  0  0  0
 57 87  1  0  0  0  0
 62 68  1  0  0  0  0
 63 69  1  0  0  0  0
 64 69  1  0  0  0  0
 65 69  1  0  0  0  0
 66 80  1  0  0  0  0
 67 69  1  0  0  0  0
 67 79  1  0  0  0  0
 68 80  1  0  0  0  0
 70 72  1  0  0  0  0
M  CHG  1  80   1
M  ISO  4  37 100  57 101  75 100  87 101
M  END
> <Batch ID>
0171

> <Smiles>
CNC(C)C(=O)NC(C(=O)N1Cc2cc([101O:1][101CH:1]3CCC(c4nc5c(cc4C)C(C)C[100N:0]([100C:0](=O)N4CCCC(n6nc(-c7ccc(Oc8ccc(F)cc8F)cc7)c(C(N)=O)c6N)C4)C5C)C3C)ccc2CC1C(=O)NC1CCCc2ccccc21)C(C)(C)C

> <Shape>
0.277

> <Color>
0.092

> <Negative vol penalty>
0.000

$$$$

  -OEChem-04052322373D

 94106  0     1  0  0  0  0  0999 V2000
  -27.6460  -32.4358   21.5195 C   0  0  0  0  0  0  0  0  0  0  0  0
  -27.9773  -31.3395   22.3093 C   0  0  0  0  0  0  0  0  0  0  0  0
  -20.9229  -16.9242   24.4889 C   0  0  0  0  0  0  0  0  0  0  0  0
  -21.7665  -18.5167   22.8797 C   0  0  0  0  0  0  0  0  0  0  0  0
  -26.4603  -32.4322   20.7860 C   0  0  0  0  0  0  0  0  0  0  0  0
  -27.1224  -30.2393   22.3670 C   0  0  0  0  0  0  0  0  0  0  0  0
  -29.3954  -23.6732   20.4669 C   0  0  0  0  0  0  0  0  0  0  0  0
  -20.8048  -17.9425   25.4348 C   0  0  0  0  0  0  0  0  0  0  0  0
  -21.6484  -19.5350   23.8256 C   0  0  0  0  0  0  0  0  0  0  0  0
  -29.8149  -22.3507   20.3217 C   0  0  0  0  0  0  0  0  0  0  0  0
  -23.3732  -20.6548   26.5093 C   0  0  0  0  0  0  0  0  0  0  0  0
  -24.4390  -21.5450   26.6396 C   0  0  0  0  0  0  0  0  0  0  0  0
  -27.5595  -21.5792   20.7289 C   0  0  0  0  0  0  0  0  0  0  0  0
  -22.9778  -23.3795   26.0595 C   0  0  0  0  0  0  0  0  0  0  0  0
  -21.4038  -17.2113   23.2114 C   0  0  0  0  0  0  0  0  0  0  0  0
  -20.5518  -15.7412   21.3086 C   0  0  0  0  0  0  0  0  0  0  0  0
  -25.5952  -31.3275   20.8272 C   0  0  0  0  0  0  0  0  0  0  0  0
  -28.0517  -23.9548   20.7288 C   0  0  0  0  0  0  0  0  0  0  0  0
  -25.9234  -30.2216   21.6344 C   0  0  0  0  0  0  0  0  0  0  0  0
  -27.1310  -22.9025   20.8631 C   0  0  0  0  0  0  0  0  0  0  0  0
  -29.8067  -15.5986   21.2278 C   0  0  0  0  0  0  0  0  0  0  0  0
  -28.9697  -17.6560   20.2953 C   0  0  0  0  0  0  0  0  0  0  0  0
  -29.2094  -16.8436   21.3995 C   0  0  0  0  0  0  0  0  0  0  0  0
  -21.1676  -19.2479   25.1031 C   0  0  0  0  0  0  0  0  0  0  0  0
  -28.8992  -21.3063   20.4526 C   0  0  0  0  0  0  0  0  0  0  0  0
  -22.1096  -21.1269   26.1540 C   0  0  0  0  0  0  0  0  0  0  0  0
  -24.2413  -22.9074   26.4147 C   0  0  0  0  0  0  0  0  0  0  0  0
  -21.9119  -22.4893   25.9291 C   0  0  0  0  0  0  0  0  0  0  0  0
  -21.5266  -16.1597   22.2340 C   0  0  0  0  0  0  0  0  0  0  0  0
  -30.1522  -15.1941   19.9462 C   0  0  0  0  0  0  0  0  0  0  0  0
  -29.3365  -17.1995   19.0373 C   0  0  0  0  0  0  0  0  0  0  0  0
  -21.1539  -14.7210   20.6134 C   0  0  0  0  0  0  0  0  0  0  0  0
  -19.2211  -16.2309   21.0963 C   0  0  0  0  0  0  0  0  0  0  0  0
  -25.4300  -26.5735   21.3162 C   0  0  0  0  0  0  0  0  0  0  0  0
  -24.1586  -24.4237   19.5352 C   0  0  0  0  0  0  0  0  0  0  0  0
  -23.2692  -22.0560   17.2461 C   0  0  0  0  0  0  0  0  0  0  0  0
  -26.7500  -13.5318   19.4290 C   0  0  0  0  0  0  0  0  0  0  0  0
  -24.3017  -31.3892   20.0540 C   0  0  0  0  0  0  0  0  0  0  0  0
  -27.5668  -25.3612   20.9538 C   0  0  0  0  0  0  0  0  0  0  0  0
  -25.7022  -23.2512   21.1793 C   0  0  0  0  0  0  0  0  0  0  0  0
  -23.6325  -30.0287   19.8766 C   0  0  0  0  0  0  0  0  0  0  0  0
  -24.4601  -11.3090   21.0585 C   0  0  0  0  0  0  0  0  0  0  0  0
  -30.8891  -15.2364   23.5454 C   0  0  0  0  0  0  0  0  0  0  0  0
  -31.4768  -14.2100   22.6281 C   0  0  0  0  0  0  0  0  0  0  0  0
  -23.6111  -29.2679   21.1986 C   0  0  0  0  0  0  0  0  0  0  0  0
  -23.3600  -12.2762   21.4887 C   0  0  0  0  0  0  0  0  0  0  0  0
  -25.8552  -11.9257   21.1793 C   0  0  0  0  0  0  0  0  0  0  0  0
  -28.7744  -12.3725   20.4876 C   0  0  0  0  0  0  0  0  0  0  0  0
  -28.7972  -12.9532   18.1430 C   0  0  0  0  0  0  0  0  0  0  0  0
  -29.3810  -18.4846   23.2929 C   0  0  0  0  0  0  0  0  0  0  0  0
  -24.8890  -14.1932   20.9141 C   0  0  0  0  0  0  0  0  0  0  0  0
  -27.9165  -16.5679   23.5347 C   0  0  0  0  0  0  0  0  0  0  0  0
  -30.0753  -14.7063   22.3960 C   0  0  0  0  0  0  0  0  0  0  0  0
  -25.0339  -28.9992   21.7036 C   0  0  1  0  0  0  0  0  0  0  0  0
  -30.8052  -13.8684   19.6267 C   0  0  0  0  0  0  0  0  0  0  0  0
  -26.1419  -25.6005   20.4230 C   0  0  1  0  0  0  0  0  0  0  0  0
  -30.2028  -12.5473   20.0666 C   0  0  2  0  0  0  0  0  0  0  0  0
  -30.2150  -12.8976   18.6203 C   0  0  1  0  0  0  0  0  0  0  0  0
  -28.9439  -18.3526   24.7599 C   0  0  2  0  0  0  0  0  0  0  0  0
  -23.4812  -13.6092   20.7323 C   0  0  2  0  0  0  0  0  0  0  0  0
  -27.6279  -17.5931   24.6272 C   0  0  2  0  0  0  0  0  0  0  0  0
  -29.1235  -17.9909   17.7966 C   0  0  0  0  0  0  0  0  0  0  0  0
  -28.8152  -19.6930   25.4644 C   0  0  0  0  0  0  0  0  0  0  0  0
  -21.3477  -21.3369   15.8010 C   0  0  0  0  0  0  0  0  0  0  0  0
  -22.7615  -23.2539   21.9814 C   0  0  0  0  0  0  0  0  0  0  0  0
  -21.4381  -21.7923   20.4385 C   0  0  0  0  0  0  0  0  0  0  0  0
  -21.2263  -24.2734   20.2908 C   0  0  0  0  0  0  0  0  0  0  0  0
  -24.8356  -22.4504   14.7662 C   0  0  0  0  0  0  0  0  0  0  0  0
  -28.3299  -18.9969   20.4511 C   0  0  0  0  0  0  0  0  0  1  0  0
  -23.3408  -23.1588   19.4671 C   0  0  1  0  0  0  0  0  0  0  0  0
  -22.6175  -22.1701   15.8798 C   0  0  2  0  0  0  0  0  0  0  0  0
  -22.2201  -23.1189   20.5441 C   0  0  0  0  0  0  0  0  0  0  0  0
  -22.6617  -15.4622   22.1382 N   0  0  0  0  0  0  0  0  0  0  0  0
  -22.4039  -14.5952   21.1443 N   0  0  0  0  0  0  0  0  0  0  0  0
  -29.9102  -15.9963   18.9005 N   0  3  0  0  0  0  0  0  0  0  0  0
  -28.8550  -17.2728   22.6606 N   0  0  3  0  0  0  0  0  0  0  0  0
  -25.2780  -24.4086   20.3762 N   0  0  0  0  0  0  0  0  0  0  0  0
  -25.9211  -13.2326   20.5161 N   0  0  0  0  0  0  0  0  0  0  0  0
  -27.9852  -12.8840   19.3595 N   0  0  0  0  0  0  0  0  0  0  0  0
  -20.7307  -13.9283   19.6060 N   0  0  0  0  0  0  0  0  0  0  0  0
  -18.7608  -17.2841   21.8983 N   0  0  0  0  0  0  0  0  0  0  0  0
  -25.6287  -27.8982   20.9766 N   0  0  0  0  0  0  0  0  0  0  0  0
  -22.8548  -23.0603   18.0951 N   0  0  0  0  0  0  0  0  0  0  0  0
  -27.2481  -16.9332   25.8897 N   0  3  0  0  0  0  0  0  0  0  0  0
  -23.5534  -21.7020   14.8187 N   0  3  0  0  0  0  0  0  0  0  0  0
  -18.4569  -15.7379   20.2323 O   0  0  0  0  0  0  0  0  0  0  0  0
  -24.7489  -26.1545   22.2448 O   0  0  0  0  0  0  0  0  0  0  0  0
  -23.8134  -25.4018   18.8664 O   0  0  0  0  0  0  0  0  0  0  0  0
  -24.0634  -21.1629   17.5327 O   0  0  0  0  0  0  0  0  0  0  0  0
  -26.4203  -14.3769   18.5865 O   0  0  0  0  0  0  0  0  0  0  0  0
  -21.0522  -20.2419   26.0258 O   0  0  0  0  0  0  0  0  0  0  0  0
  -29.3177  -20.0085   20.3041 O   0  0  0  0  0  0  0  0  0  1  0  0
  -25.2646  -23.7624   26.5414 F   0  0  0  0  0  0  0  0  0  0  0  0
  -20.7000  -22.9489   25.5887 F   0  0  0  0  0  0  0  0  0  0  0  0
  1  2  1  0  0  0  0
  1  5  2  0  0  0  0
  2  6  2  0  0  0  0
  3  8  2  0  0  0  0
  3 15  1  0  0  0  0
  4  9  1  0  0  0  0
  4 15  2  0  0  0  0
  5 17  1  0  0  0  0
  6 19  1  0  0  0  0
  7 10  2  0  0  0  0
  7 18  1  0  0  0  0
  8 24  1  0  0  0  0
  9 24  2  0  0  0  0
 10 25  1  0  0  0  0
 11 12  2  0  0  0  0
 11 26  1  0  0  0  0
 12 27  1  0  0  0  0
 13 20  1  0  0  0  0
 13 25  2  0  0  0  0
 14 27  2  0  0  0  0
 14 28  1  0  0  0  0
 15 29  1  0  0  0  0
 16 29  1  0  0  0  0
 16 32  2  0  0  0  0
 16 33  1  0  0  0  0
 17 19  2  0  0  0  0
 17 38  1  0  0  0  0
 18 20  2  0  0  0  0
 18 39  1  0  0  0  0
 19 54  1  0  0  0  0
 20 40  1  0  0  0  0
 21 23  1  0  0  0  0
 21 30  2  0  0  0  0
 21 53  1  0  0  0  0
 22 23  2  0  0  0  0
 22 31  1  0  0  0  0
 22 69  1  0  0  0  0
 23 76  1  0  0  0  0
 24 91  1  0  0  0  0
 25 92  1  0  0  0  0
 26 28  2  0  0  0  0
 26 91  1  0  0  0  0
 27 93  1  0  0  0  0
 28 94  1  0  0  0  0
 29 73  2  0  0  0  0
 30 55  1  0  0  0  0
 30 75  1  0  0  0  0
 31 62  1  0  0  0  0
 31 75  2  0  0  0  0
 32 74  1  0  0  0  0
 32 80  1  0  0  0  0
 33 81  1  0  0  0  0
 33 86  2  0  0  0  0
 34 56  1  0  0  0  0
 34 82  1  0  0  0  0
 34 87  2  0  0  0  0
 35 70  1  0  0  0  0
 35 77  1  0  0  0  0
 35 88  2  0  0  0  0
 36 71  1  0  0  0  0
 36 83  1  0  0  0  0
 36 89  2  0  0  0  0
 37 78  1  0  0  0  0
 37 79  1  0  0  0  0
 37 90  2  0  0  0  0
 38 41  1  0  0  0  0
 39 56  1  0  0  0  0
 40 77  1  0  0  0  0
 41 45  1  0  0  0  0
 42 46  1  0  0  0  0
 42 47  1  0  0  0  0
 43 44  1  0  0  0  0
 43 53  1  0  0  0  0
 44 53  1  0  0  0  0
 45 54  1  0  0  0  0
 46 60  1  0  0  0  0
 47 78  1  0  0  0  0
 48 57  1  0  0  0  0
 48 79  1  0  0  0  0
 49 58  1  0  0  0  0
 49 79  1  0  0  0  0
 50 59  1  0  0  0  0
 50 76  1  0  0  0  0
 51 60  1  0  0  0  0
 51 78  1  0  0  0  0
 52 61  1  0  0  0  0
 52 76  1  0  0  0  0
 54 82  1  0  0  0  0
 55 57  1  0  0  0  0
 55 58  1  0  0  0  0
 56 77  1  0  0  0  0
 57 58  1  0  0  0  0
 59 61  1  0  0  0  0
 59 63  1  0  0  0  0
 60 74  1  0  0  0  0
 61 84  1  0  0  0  0
 64 71  1  0  0  0  0
 65 72  1  0  0  0  0
 66 72  1  0  0  0  0
 67 72  1  0  0  0  0
 68 85  1  0  0  0  0
 69 92  1  0  0  0  0
 70 72  1  0  0  0  0
 70 83  1  0  0  0  0
 71 85  1  0  0  0  0
 73 74  1  0  0  0  0
M  CHG  3  75   1  84   1  85   1
M  ISO  4  37 100  69 101  79 100  92 101
M  END
> <Batch ID>
0171

> <Smiles>
CNC(C)C(=O)NC(C(=O)N1Cc2cc([101O:1][101CH2:1]c3c(C)nc(C4C5C[100N:0]([100C:0](=O)N6CCCC(n7nc(-c8ccc(Oc9ccc(F)cc9F)cc8)c(C(N)=O)c7N)C6)CC54)c(C4CC4)c3N3CC(C)C(N)C3)ccc2CC1C(=O)NC1CCCc2ccccc21)C(C)(C)C

> <Shape>
0.210

> <Color>
0.073

> <Negative vol penalty>
0.000

$$$$

  -OEChem-04052322373D

 84 93  0     1  0  0  0  0  0999 V2000
  -25.8880  -27.6322   20.7245 C   0  0  0  0  0  0  0  0  0  0  0  0
  -26.0612  -26.2584   20.8592 C   0  0  0  0  0  0  0  0  0  0  0  0
  -23.2606   -9.8253   19.9129 C   0  0  0  0  0  0  0  0  0  0  0  0
  -23.7215   -9.9482   22.2813 C   0  0  0  0  0  0  0  0  0  0  0  0
  -24.8778  -28.1290   19.9019 C   0  0  0  0  0  0  0  0  0  0  0  0
  -25.2235  -25.3805   20.1722 C   0  0  0  0  0  0  0  0  0  0  0  0
  -27.7631  -21.5874   17.9796 C   0  0  0  0  0  0  0  0  0  0  0  0
  -22.5168   -8.6633   20.1179 C   0  0  0  0  0  0  0  0  0  0  0  0
  -22.9776   -8.7862   22.4864 C   0  0  0  0  0  0  0  0  0  0  0  0
  -28.1761  -20.5391   18.8009 C   0  0  0  0  0  0  0  0  0  0  0  0
  -23.1211   -5.3769   20.6264 C   0  0  0  0  0  0  0  0  0  0  0  0
  -23.3300   -4.3116   19.7506 C   0  0  0  0  0  0  0  0  0  0  0  0
  -26.2984  -19.2219   18.0537 C   0  0  0  0  0  0  0  0  0  0  0  0
  -21.0067   -4.3965   19.0931 C   0  0  0  0  0  0  0  0  0  0  0  0
  -23.8630  -10.4678   20.9946 C   0  0  0  0  0  0  0  0  0  0  0  0
  -24.1611  -12.9943   20.8064 C   0  0  0  0  0  0  0  0  0  0  0  0
  -24.0335  -27.2568   19.1969 C   0  0  0  0  0  0  0  0  0  0  0  0
  -26.6066  -21.4646   17.1962 C   0  0  0  0  0  0  0  0  0  0  0  0
  -24.2002  -25.8661   19.3404 C   0  0  0  0  0  0  0  0  0  0  0  0
  -25.8743  -20.2691   17.2214 C   0  0  0  0  0  0  0  0  0  0  0  0
  -28.5661  -16.9685   22.3290 C   0  0  0  0  0  0  0  0  0  0  0  0
  -28.8572  -15.8093   23.0394 C   0  0  0  0  0  0  0  0  0  0  0  0
  -29.3143  -17.2936   21.2030 C   0  0  0  0  0  0  0  0  0  0  0  0
  -22.3753   -8.1437   21.4046 C   0  0  0  0  0  0  0  0  0  0  0  0
  -27.4421  -19.3573   18.8402 C   0  0  0  0  0  0  0  0  0  0  0  0
  -21.8549   -5.9519   20.7357 C   0  0  0  0  0  0  0  0  0  0  0  0
  -22.2728   -3.8214   18.9839 C   0  0  0  0  0  0  0  0  0  0  0  0
  -20.7978   -5.4618   19.9690 C   0  0  0  0  0  0  0  0  0  0  0  0
  -24.6320  -11.6678   20.7834 C   0  0  0  0  0  0  0  0  0  0  0  0
  -29.8982  -15.0151   22.5862 C   0  0  0  0  0  0  0  0  0  0  0  0
  -30.3350  -16.4330   20.8322 C   0  0  0  0  0  0  0  0  0  0  0  0
  -25.2737  -13.7581   20.5511 C   0  0  0  0  0  0  0  0  0  0  0  0
  -22.8364  -13.4916   21.0379 C   0  0  0  0  0  0  0  0  0  0  0  0
  -23.8185  -22.9850   17.0587 C   0  0  0  0  0  0  0  0  0  0  0  0
  -23.3599  -21.0973   14.4609 C   0  0  0  0  0  0  0  0  0  0  0  0
  -24.1371  -18.2215   12.7956 C   0  0  0  0  0  0  0  0  0  0  0  0
  -31.2000  -12.2139   21.2562 C   0  0  0  0  0  0  0  0  0  0  0  0
  -22.9253  -27.8404   18.3566 C   0  0  0  0  0  0  0  0  0  0  0  0
  -26.1894  -22.5946   16.2954 C   0  0  0  0  0  0  0  0  0  0  0  0
  -24.6367  -20.0794   16.3842 C   0  0  0  0  0  0  0  0  0  0  0  0
  -22.3202  -26.8450   17.3701 C   0  0  0  0  0  0  0  0  0  0  0  0
  -29.4690  -13.6457   18.3095 C   0  0  0  0  0  0  0  0  0  0  0  0
  -22.0359  -25.5148   18.0606 C   0  0  0  0  0  0  0  0  0  0  0  0
  -28.0041  -13.3221   18.5866 C   0  0  0  0  0  0  0  0  0  0  0  0
  -31.5451  -13.7697   24.2611 C   0  0  0  0  0  0  0  0  0  0  0  0
  -30.4022  -12.6390   18.9726 C   0  0  0  0  0  0  0  0  0  0  0  0
  -32.1644  -12.5526   23.5840 C   0  0  0  0  0  0  0  0  0  0  0  0
  -28.7229  -12.1916   20.7313 C   0  0  0  0  0  0  0  0  0  0  0  0
  -23.3276  -24.8819   18.5920 C   0  0  1  0  0  0  0  0  0  0  0  0
  -30.3468  -13.6667   23.2908 C   0  0  2  0  0  0  0  0  0  0  0  0
  -24.7091  -22.5512   15.9289 C   0  0  1  0  0  0  0  0  0  0  0  0
  -27.7549  -13.2043   20.0977 C   0  0  2  0  0  0  0  0  0  0  0  0
  -27.4521  -17.8610   22.7750 C   0  0  0  0  0  0  0  0  0  0  0  0
  -28.0785  -15.4232   24.2507 C   0  0  0  0  0  0  0  0  0  0  0  0
  -31.1720  -16.7299   19.6309 C   0  0  0  0  0  0  0  0  0  0  0  0
  -23.5724  -16.9353   10.7162 C   0  0  0  0  0  0  0  0  0  0  0  0
  -20.7343  -20.2014   15.7310 C   0  0  0  0  0  0  0  0  0  0  0  0
  -20.6982  -18.2757   14.1315 C   0  0  0  0  0  0  0  0  0  0  0  0
  -20.6139  -20.6143   13.2674 C   0  0  0  0  0  0  0  0  0  0  0  0
  -26.9188  -18.3866   11.7986 C   0  0  0  0  0  0  0  0  0  0  0  0
  -29.0242  -18.5370   20.4150 C   0  0  0  0  0  0  0  0  0  1  0  0
  -22.7774  -19.7244   14.2263 C   0  0  1  0  0  0  0  0  0  0  0  0
  -24.4993  -17.9646   11.3440 C   0  0  2  0  0  0  0  0  0  0  0  0
  -21.2281  -19.7079   14.3564 C   0  0  0  0  0  0  0  0  0  0  0  0
  -25.9417  -11.5899   20.5331 N   0  0  0  0  0  0  0  0  0  0  0  0
  -30.6473  -15.2981   21.4970 N   0  0  0  0  0  0  0  0  0  0  0  0
  -26.3032  -12.8770   20.3964 N   0  0  0  0  0  0  0  0  0  0  0  0
  -24.2659  -21.2155   15.5244 N   0  0  0  0  0  0  0  0  0  0  0  0
  -30.1238  -12.4886   20.4034 N   0  0  0  0  0  0  0  0  0  0  0  0
  -31.1517  -12.6931   22.5450 N   0  0  0  0  0  0  0  0  0  0  0  0
  -25.4620  -15.0907   20.4460 N   0  0  0  0  0  0  0  0  0  0  0  0
  -21.8102  -12.5694   21.2846 N   0  0  0  0  0  0  0  0  0  0  0  0
  -24.0695  -24.2656   17.5131 N   0  0  0  0  0  0  0  0  0  0  0  0
  -23.2725  -19.2878   12.9253 N   0  0  0  0  0  0  0  0  0  0  0  0
  -25.8985  -17.4623   11.2403 N   0  3  0  0  0  0  0  0  0  0  0  0
  -22.5674  -14.7165   21.0100 O   0  0  0  0  0  0  0  0  0  0  0  0
  -22.9658  -22.2153   17.4855 O   0  0  0  0  0  0  0  0  0  0  0  0
  -23.0290  -22.0288   13.7230 O   0  0  0  0  0  0  0  0  0  0  0  0
  -24.5744  -17.5419   13.7216 O   0  0  0  0  0  0  0  0  0  0  0  0
  -32.1912  -11.5804   20.8685 O   0  0  0  0  0  0  0  0  0  0  0  0
  -21.6493   -7.0100   21.6051 O   0  0  0  0  0  0  0  0  0  0  0  0
  -27.8426  -18.3328   19.6414 O   0  0  0  0  0  0  0  0  0  1  0  0
  -22.4740   -2.7994   18.1418 F   0  0  0  0  0  0  0  0  0  0  0  0
  -19.5795   -6.0109   20.0688 F   0  0  0  0  0  0  0  0  0  0  0  0
  1  2  1  0  0  0  0
  1  5  2  0  0  0  0
  2  6  2  0  0  0  0
  3  8  2  0  0  0  0
  3 15  1  0  0  0  0
  4  9  1  0  0  0  0
  4 15  2  0  0  0  0
  5 17  1  0  0  0  0
  6 19  1  0  0  0  0
  7 10  2  0  0  0  0
  7 18  1  0  0  0  0
  8 24  1  0  0  0  0
  9 24  2  0  0  0  0
 10 25  1  0  0  0  0
 11 12  2  0  0  0  0
 11 26  1  0  0  0  0
 12 27  1  0  0  0  0
 13 20  1  0  0  0  0
 13 25  2  0  0  0  0
 14 27  2  0  0  0  0
 14 28  1  0  0  0  0
 15 29  1  0  0  0  0
 16 29  1  0  0  0  0
 16 32  2  0  0  0  0
 16 33  1  0  0  0  0
 17 19  2  0  0  0  0
 17 38  1  0  0  0  0
 18 20  2  0  0  0  0
 18 39  1  0  0  0  0
 19 49  1  0  0  0  0
 20 40  1  0  0  0  0
 21 22  1  0  0  0  0
 21 23  2  0  0  0  0
 21 53  1  0  0  0  0
 22 30  2  0  0  0  0
 22 54  1  0  0  0  0
 23 31  1  0  0  0  0
 23 61  1  0  0  0  0
 24 81  1  0  0  0  0
 25 82  1  0  0  0  0
 26 28  2  0  0  0  0
 26 81  1  0  0  0  0
 27 83  1  0  0  0  0
 28 84  1  0  0  0  0
 29 65  2  0  0  0  0
 30 50  1  0  0  0  0
 30 66  1  0  0  0  0
 31 55  1  0  0  0  0
 31 66  2  0  0  0  0
 32 67  1  0  0  0  0
 32 71  1  0  0  0  0
 33 72  1  0  0  0  0
 33 76  2  0  0  0  0
 34 51  1  0  0  0  0
 34 73  1  0  0  0  0
 34 77  2  0  0  0  0
 35 62  1  0  0  0  0
 35 68  1  0  0  0  0
 35 78  2  0  0  0  0
 36 63  1  0  0  0  0
 36 74  1  0  0  0  0
 36 79  2  0  0  0  0
 37 69  1  0  0  0  0
 37 70  1  0  0  0  0
 37 80  2  0  0  0  0
 38 41  1  0  0  0  0
 39 51  1  0  0  0  0
 40 68  1  0  0  0  0
 41 43  1  0  0  0  0
 42 44  1  0  0  0  0
 42 46  1  0  0  0  0
 43 49  1  0  0  0  0
 44 52  1  0  0  0  0
 45 47  1  0  0  0  0
 45 50  1  0  0  0  0
 46 69  1  0  0  0  0
 47 70  1  0  0  0  0
 48 52  1  0  0  0  0
 48 69  1  0  0  0  0
 49 73  1  0  0  0  0
 50 70  1  0  0  0  0
 51 68  1  0  0  0  0
 52 67  1  0  0  0  0
 56 63  1  0  0  0  0
 57 64  1  0  0  0  0
 58 64  1  0  0  0  0
 59 64  1  0  0  0  0
 60 75  1  0  0  0  0
 61 82  1  0  0  0  0
 62 64  1  0  0  0  0
 62 74  1  0  0  0  0
 63 75  1  0  0  0  0
 65 67  1  0  0  0  0
M  CHG  1  75   1
M  ISO  4  37 100  61 101  70 100  82 101
M  END
> <Batch ID>
0171

> <Smiles>
CNC(C)C(=O)NC(C(=O)N1Cc2cc([101O:1][101CH2:1]c3c(C)nc(C4CC[100N:0]4[100C:0](=O)N4CCCC(n5nc(-c6ccc(Oc7ccc(F)cc7F)cc6)c(C(N)=O)c5N)C4)c(C)c3C)ccc2CC1C(=O)NC1CCCc2ccccc21)C(C)(C)C

> <Shape>
0.197

> <Color>
0.178

> <Negative vol penalty>
0.000

$$$$

  -OEChem-04052322373D

 99111  0     1  0  0  0  0  0999 V2000
  -29.8246  -36.7165   20.9541 C   0  0  0  0  0  0  0  0  0  0  0  0
  -29.5113  -35.7456   20.0083 C   0  0  0  0  0  0  0  0  0  0  0  0
  -24.1583   -9.3045   22.1232 C   0  0  0  0  0  0  0  0  0  0  0  0
  -23.0715   -9.9701   20.0706 C   0  0  0  0  0  0  0  0  0  0  0  0
  -29.7111  -36.4264   22.3131 C   0  0  0  0  0  0  0  0  0  0  0  0
  -29.0852  -34.4837   20.4209 C   0  0  0  0  0  0  0  0  0  0  0  0
  -24.7463  -29.1353   18.4499 C   0  0  0  0  0  0  0  0  0  0  0  0
  -23.3196   -8.1931   22.2069 C   0  0  0  0  0  0  0  0  0  0  0  0
  -22.2329   -8.8587   20.1543 C   0  0  0  0  0  0  0  0  0  0  0  0
  -24.7629  -27.7575   18.2375 C   0  0  0  0  0  0  0  0  0  0  0  0
  -23.1011   -5.1259   20.8005 C   0  0  0  0  0  0  0  0  0  0  0  0
  -23.6812   -3.8988   21.1216 C   0  0  0  0  0  0  0  0  0  0  0  0
  -29.0690  -18.2152   19.8125 C   0  0  0  0  0  0  0  0  0  0  0  0
  -24.5283  -27.3949   20.6108 C   0  0  0  0  0  0  0  0  0  0  0  0
  -22.2873   -3.7547   23.0897 C   0  0  0  0  0  0  0  0  0  0  0  0
  -24.0342  -10.1931   21.0551 C   0  0  0  0  0  0  0  0  0  0  0  0
  -26.1520  -11.4161   20.3294 C   0  0  0  0  0  0  0  0  0  0  0  0
  -29.2742  -35.1633   22.7425 C   0  0  0  0  0  0  0  0  0  0  0  0
  -24.6313  -29.6541   19.7476 C   0  0  0  0  0  0  0  0  0  0  0  0
  -28.9670  -34.1759   21.7870 C   0  0  0  0  0  0  0  0  0  0  0  0
  -28.2978  -19.2704   19.2589 C   0  0  0  0  0  0  0  0  0  0  0  0
  -24.5079  -28.7797   20.8368 C   0  0  0  0  0  0  0  0  0  0  0  0
  -28.8542  -20.5685   19.1608 C   0  0  0  0  0  0  0  0  0  0  0  0
  -30.1396  -20.7546   19.6942 C   0  0  0  0  0  0  0  0  0  0  0  0
  -30.8777  -19.6954   20.2412 C   0  0  0  0  0  0  0  0  0  0  0  0
  -30.3596  -18.4200   20.2962 C   0  0  0  0  0  0  0  0  0  0  0  0
  -22.3569   -7.9702   21.2224 C   0  0  0  0  0  0  0  0  0  0  0  0
  -24.6568  -26.8870   19.3183 C   0  0  0  0  0  0  0  0  0  0  0  0
  -22.1141   -5.6676   21.6241 C   0  0  0  0  0  0  0  0  0  0  0  0
  -23.2743   -3.2131   22.2661 C   0  0  0  0  0  0  0  0  0  0  0  0
  -21.7072   -4.9819   22.7686 C   0  0  0  0  0  0  0  0  0  0  0  0
  -24.8999  -11.3416   20.9684 C   0  0  0  0  0  0  0  0  0  0  0  0
  -26.5636  -12.7110   20.5304 C   0  0  0  0  0  0  0  0  0  0  0  0
  -26.8781  -10.4052   19.6177 C   0  0  0  0  0  0  0  0  0  0  0  0
  -26.4643  -31.4634   21.6105 C   0  0  0  0  0  0  0  0  0  0  0  0
  -23.8811  -31.3798   23.5708 C   0  0  0  0  0  0  0  0  0  0  0  0
  -21.0372  -29.7665   24.5486 C   0  0  0  0  0  0  0  0  0  0  0  0
  -25.5176  -18.1922   20.6176 C   0  0  0  0  0  0  0  0  0  0  0  0
  -29.2124  -34.8812   24.2228 C   0  0  0  0  0  0  0  0  0  0  0  0
  -24.5881  -31.1429   19.9573 C   0  0  0  0  0  0  0  0  0  0  0  0
  -30.9617  -22.0141   19.7390 C   0  0  0  0  0  0  0  0  0  0  0  0
  -28.1166  -21.7652   18.5990 C   0  0  0  0  0  0  0  0  0  0  0  0
  -32.2403  -20.1377   20.6718 C   0  0  0  0  0  0  0  0  0  0  0  0
  -24.3619  -29.2861   22.2477 C   0  0  0  0  0  0  0  0  0  0  0  0
  -28.3950  -33.6403   24.5728 C   0  0  0  0  0  0  0  0  0  0  0  0
  -32.0408  -21.6523   20.7673 C   0  0  0  0  0  0  0  0  0  0  0  0
  -24.7044  -16.3270   23.5394 C   0  0  0  0  0  0  0  0  0  0  0  0
  -28.7756  -32.4764   23.6633 C   0  0  0  0  0  0  0  0  0  0  0  0
  -29.4047  -18.4923   14.9075 C   0  0  0  0  0  0  0  0  0  0  0  0
  -24.7800  -14.8710   23.0767 C   0  0  0  0  0  0  0  0  0  0  0  0
  -29.3513  -18.7315   16.4211 C   0  0  0  0  0  0  0  0  0  0  0  0
  -26.8301  -21.2179   14.8626 C   0  0  0  0  0  0  0  0  0  0  0  0
  -27.1881  -20.4962   13.5626 C   0  0  0  0  0  0  0  0  0  0  0  0
  -26.8449  -18.7098   17.2127 C   0  0  0  0  0  0  0  0  0  0  0  0
  -24.1475  -17.2380   22.4476 C   0  0  0  0  0  0  0  0  0  0  0  0
  -24.9223  -15.6948   20.6892 C   0  0  0  0  0  0  0  0  0  0  0  0
  -28.4777  -32.8033   22.1950 C   0  0  1  0  0  0  0  0  0  0  0  0
  -26.9102  -18.9962   18.7273 C   0  0  1  0  0  0  0  0  0  0  0  0
  -24.9841  -31.5590   21.3706 C   0  0  1  0  0  0  0  0  0  0  0  0
  -27.8606  -18.4924   14.9067 C   0  0  1  0  0  0  0  0  0  0  0  0
  -27.1918  -21.6810   17.3468 C   0  0  2  0  0  0  0  0  0  0  0  0
  -25.5302  -14.7466   21.7369 C   0  0  2  0  0  0  0  0  0  0  0  0
  -27.9068  -19.3699   16.2643 C   0  0  2  0  0  0  0  0  0  0  0  0
  -27.7901  -20.9528   16.0685 C   0  0  1  0  0  0  0  0  0  0  0  0
  -27.0846  -18.9746   13.6758 C   0  0  0  0  0  0  0  0  0  0  0  0
  -31.1413  -17.2799   20.8495 C   0  0  0  0  0  0  0  0  0  0  0  0
  -29.1536  -21.6139   15.7380 C   0  0  0  0  0  0  0  0  0  0  0  0
  -25.6119  -18.5338   13.7980 C   0  0  0  0  0  0  0  0  0  0  0  0
  -27.6612  -18.3185   12.4083 C   0  0  0  0  0  0  0  0  0  0  0  0
  -19.1549  -29.9192   26.2012 C   0  0  0  0  0  0  0  0  0  0  0  0
  -25.7468  -30.4099   25.7817 C   0  0  0  0  0  0  0  0  0  0  0  0
  -23.7274  -29.6857   27.0724 C   0  0  0  0  0  0  0  0  0  0  0  0
  -24.0501  -32.0953   26.5132 C   0  0  0  0  0  0  0  0  0  0  0  0
  -19.0117  -29.9594   22.3993 C   0  0  0  0  0  0  0  0  0  0  0  0
  -26.7112  -23.1337   17.0828 C   0  0  0  0  0  0  0  0  0  0  0  0
  -25.9198  -23.6504   18.2662 C   0  0  0  0  0  0  0  0  0  0  0  0
  -25.4172  -25.0625   17.9959 C   0  0  0  0  0  0  0  0  0  1  0  0
  -23.4115  -30.4727   24.6824 C   0  0  1  0  0  0  0  0  0  0  0  0
  -19.6279  -30.2721   24.7996 C   0  0  2  0  0  0  0  0  0  0  0  0
  -24.2387  -30.6560   25.9862 C   0  0  0  0  0  0  0  0  0  0  0  0
  -24.5397  -12.4971   21.5333 N   0  0  0  0  0  0  0  0  0  0  0  0
  -25.5718  -13.3099   21.2499 N   0  0  0  0  0  0  0  0  0  0  0  0
  -24.3312  -30.7499   22.4018 N   0  0  0  0  0  0  0  0  0  0  0  0
  -24.9039  -17.0730   21.2040 N   0  0  0  0  0  0  0  0  0  0  0  0
  -27.6736  -13.3842   20.1602 N   0  0  0  0  0  0  0  0  0  0  0  0
  -26.3103   -9.1288   19.5053 N   0  0  0  0  0  0  0  0  0  0  0  0
  -27.0624  -32.6689   21.9243 N   0  0  0  0  0  0  0  0  0  0  0  0
  -21.9835  -30.7260   24.8402 N   0  0  0  0  0  0  0  0  0  0  0  0
  -26.2200  -17.9471   19.4441 N   0  0  0  0  0  0  0  0  0  0  0  0
  -18.6800  -29.6721   23.8186 N   0  3  0  0  0  0  0  0  0  0  0  0
  -28.0048  -10.6227   19.1109 O   0  0  0  0  0  0  0  0  0  0  0  0
  -27.0222  -30.3761   21.5192 O   0  0  0  0  0  0  0  0  0  0  0  0
  -23.8430  -32.6023   23.7310 O   0  0  0  0  0  0  0  0  0  0  0  0
  -21.2749  -28.6325   24.1386 O   0  0  0  0  0  0  0  0  0  0  0  0
  -25.4493  -19.3249   21.1068 O   0  0  0  0  0  0  0  0  0  0  0  0
  -21.5385   -6.8856   21.3036 O   0  0  0  0  0  0  0  0  0  0  0  0
  -24.6736  -25.5320   19.1124 O   0  0  0  0  0  0  0  0  0  1  0  0
  -23.8304   -2.0340   22.5735 F   0  0  0  0  0  0  0  0  0  0  0  0
  -20.7586   -5.4967   23.5630 F   0  0  0  0  0  0  0  0  0  0  0  0
  1  2  1  0  0  0  0
  1  5  2  0  0  0  0
  2  6  2  0  0  0  0
  3  8  2  0  0  0  0
  3 16  1  0  0  0  0
  4  9  1  0  0  0  0
  4 16  2  0  0  0  0
  5 18  1  0  0  0  0
  6 20  1  0  0  0  0
  7 10  2  0  0  0  0
  7 19  1  0  0  0  0
  8 27  1  0  0  0  0
  9 27  2  0  0  0  0
 10 28  1  0  0  0  0
 11 12  2  0  0  0  0
 11 29  1  0  0  0  0
 12 30  1  0  0  0  0
 13 21  2  0  0  0  0
 13 26  1  0  0  0  0
 14 22  1  0  0  0  0
 14 28  2  0  0  0  0
 15 30  2  0  0  0  0
 15 31  1  0  0  0  0
 16 32  1  0  0  0  0
 17 32  1  0  0  0  0
 17 33  2  0  0  0  0
 17 34  1  0  0  0  0
 18 20  2  0  0  0  0
 18 39  1  0  0  0  0
 19 22  2  0  0  0  0
 19 40  1  0  0  0  0
 20 57  1  0  0  0  0
 21 23  1  0  0  0  0
 21 58  1  0  0  0  0
 22 44  1  0  0  0  0
 23 24  2  0  0  0  0
 23 42  1  0  0  0  0
 24 25  1  0  0  0  0
 24 41  1  0  0  0  0
 25 26  2  0  0  0  0
 25 43  1  0  0  0  0
 26 66  1  0  0  0  0
 27 96  1  0  0  0  0
 28 97  1  0  0  0  0
 29 31  2  0  0  0  0
 29 96  1  0  0  0  0
 30 98  1  0  0  0  0
 31 99  1  0  0  0  0
 32 81  2  0  0  0  0
 33 82  1  0  0  0  0
 33 85  1  0  0  0  0
 34 86  1  0  0  0  0
 34 91  2  0  0  0  0
 35 59  1  0  0  0  0
 35 87  1  0  0  0  0
 35 92  2  0  0  0  0
 36 78  1  0  0  0  0
 36 83  1  0  0  0  0
 36 93  2  0  0  0  0
 37 79  1  0  0  0  0
 37 88  1  0  0  0  0
 37 94  2  0  0  0  0
 38 84  1  0  0  0  0
 38 89  1  0  0  0  0
 38 95  2  0  0  0  0
 39 45  1  0  0  0  0
 40 59  1  0  0  0  0
 41 46  1  0  0  0  0
 42 61  1  0  0  0  0
 43 46  1  0  0  0  0
 44 83  1  0  0  0  0
 45 48  1  0  0  0  0
 47 50  1  0  0  0  0
 47 55  1  0  0  0  0
 48 57  1  0  0  0  0
 49 51  1  0  0  0  0
 49 60  1  0  0  0  0
 50 62  1  0  0  0  0
 51 63  1  0  0  0  0
 52 53  1  0  0  0  0
 52 64  1  0  0  0  0
 53 65  1  0  0  0  0
 54 58  1  0  0  0  0
 54 63  1  0  0  0  0
 55 84  1  0  0  0  0
 56 62  1  0  0  0  0
 56 84  1  0  0  0  0
 57 87  1  0  0  0  0
 58 89  1  0  0  0  0
 59 83  1  0  0  0  0
 60 63  1  0  0  0  0
 60 65  1  0  0  0  0
 61 64  1  0  0  0  0
 61 75  1  0  0  0  0
 62 82  1  0  0  0  0
 63 64  1  0  0  0  0
 64 67  1  0  0  0  0
 65 68  1  0  0  0  0
 65 69  1  0  0  0  0
 70 79  1  0  0  0  0
 71 80  1  0  0  0  0
 72 80  1  0  0  0  0
 73 80  1  0  0  0  0
 74 90  1  0  0  0  0
 75 76  1  0  0  0  0
 76 77  1  0  0  0  0
 77 97  1  0  0  0  0
 78 80  1  0  0  0  0
 78 88  1  0  0  0  0
 79 90  1  0  0  0  0
 81 82  1  0  0  0  0
M  CHG  1  90   1
M  ISO  4  38 100  77 101  89 100  97 101
M  END
> <Batch ID>
0171

> <Smiles>
CNC(C)C(=O)NC(C(=O)N1Cc2cc([101O:1][101CH2:1]CCC3Cc4c(cc(C)c5c4CCC5)C([100NH:0][100C:0](=O)N4CCCC(n5nc(-c6ccc(Oc7ccc(F)cc7F)cc6)c(C(N)=O)c5N)C4)CC45CCC4C(C)(C)CCC35C)ccc2CC1C(=O)NC1CCCc2ccccc21)C(C)(C)C

> <Shape>
0.262

> <Color>
0.084

> <Negative vol penalty>
0.000

$$$$

  -OEChem-04052322373D

 98110  0     1  0  0  0  0  0999 V2000
  -28.6896  -37.0763   21.6655 C   0  0  0  0  0  0  0  0  0  0  0  0
  -28.5672  -35.7029   21.8502 C   0  0  0  0  0  0  0  0  0  0  0  0
  -23.2058   -9.6817   21.4102 C   0  0  0  0  0  0  0  0  0  0  0  0
  -23.8762  -10.6273   23.5300 C   0  0  0  0  0  0  0  0  0  0  0  0
  -27.6858  -37.9316   22.1181 C   0  0  0  0  0  0  0  0  0  0  0  0
  -27.4414  -35.1840   22.4887 C   0  0  0  0  0  0  0  0  0  0  0  0
  -25.5525  -31.1328   20.1086 C   0  0  0  0  0  0  0  0  0  0  0  0
  -22.5219   -8.6667   22.0793 C   0  0  0  0  0  0  0  0  0  0  0  0
  -23.1922   -9.6123   24.1991 C   0  0  0  0  0  0  0  0  0  0  0  0
  -26.2108  -29.9185   20.2983 C   0  0  0  0  0  0  0  0  0  0  0  0
  -23.2764   -5.7669   23.6431 C   0  0  0  0  0  0  0  0  0  0  0  0
  -23.4392   -4.4616   23.1790 C   0  0  0  0  0  0  0  0  0  0  0  0
  -24.5480  -29.2779   21.9243 C   0  0  0  0  0  0  0  0  0  0  0  0
  -21.0642   -4.3140   22.7612 C   0  0  0  0  0  0  0  0  0  0  0  0
  -23.8830  -10.6620   22.1356 C   0  0  0  0  0  0  0  0  0  0  0  0
  -24.0804  -12.9613   21.0485 C   0  0  0  0  0  0  0  0  0  0  0  0
  -26.5426  -37.4221   22.7539 C   0  0  0  0  0  0  0  0  0  0  0  0
  -24.3911  -31.4338   20.8346 C   0  0  0  0  0  0  0  0  0  0  0  0
  -26.4220  -36.0333   22.9515 C   0  0  0  0  0  0  0  0  0  0  0  0
  -23.8754  -30.4956   21.7402 C   0  0  0  0  0  0  0  0  0  0  0  0
  -22.5151   -8.6320   23.4737 C   0  0  0  0  0  0  0  0  0  0  0  0
  -25.7102  -28.9921   21.2083 C   0  0  0  0  0  0  0  0  0  0  0  0
  -22.0075   -6.3457   23.6665 C   0  0  0  0  0  0  0  0  0  0  0  0
  -22.3331   -3.7352   22.7380 C   0  0  0  0  0  0  0  0  0  0  0  0
  -20.9014   -5.6192   23.2255 C   0  0  0  0  0  0  0  0  0  0  0  0
  -24.5901  -11.7105   21.4451 C   0  0  0  0  0  0  0  0  0  0  0  0
  -25.1397  -13.5853   20.4361 C   0  0  0  0  0  0  0  0  0  0  0  0
  -22.7668  -13.5103   21.2186 C   0  0  0  0  0  0  0  0  0  0  0  0
  -23.5777  -33.6748   22.9369 C   0  0  0  0  0  0  0  0  0  0  0  0
  -20.6425  -32.3229   22.6553 C   0  0  0  0  0  0  0  0  0  0  0  0
  -18.7835  -29.5715   21.8676 C   0  0  0  0  0  0  0  0  0  0  0  0
  -30.5431  -14.9727   20.2813 C   0  0  0  0  0  0  0  0  0  0  0  0
  -25.5062  -38.3896   23.2683 C   0  0  0  0  0  0  0  0  0  0  0  0
  -23.6778  -32.7369   20.5989 C   0  0  0  0  0  0  0  0  0  0  0  0
  -22.6206  -30.7620   22.5295 C   0  0  0  0  0  0  0  0  0  0  0  0
  -24.1699  -37.7307   23.6007 C   0  0  0  0  0  0  0  0  0  0  0  0
  -29.6390  -11.7786   18.9942 C   0  0  0  0  0  0  0  0  0  0  0  0
  -24.3894  -36.4580   24.4124 C   0  0  0  0  0  0  0  0  0  0  0  0
  -26.7691  -22.3562   18.4525 C   0  0  0  0  0  0  0  0  0  0  0  0
  -27.0230  -21.2396   17.4350 C   0  0  0  0  0  0  0  0  0  0  0  0
  -29.0327  -17.5252   18.4685 C   0  0  0  0  0  0  0  0  0  0  0  0
  -28.2058  -11.5769   19.4895 C   0  0  0  0  0  0  0  0  0  0  0  0
  -29.5787  -21.1803   20.9689 C   0  0  0  0  0  0  0  0  0  0  0  0
  -27.3219  -22.2032   21.4234 C   0  0  0  0  0  0  0  0  0  0  0  0
  -28.8401  -18.5364   17.3323 C   0  0  0  0  0  0  0  0  0  0  0  0
  -30.6538  -20.6893   19.9892 C   0  0  0  0  0  0  0  0  0  0  0  0
  -27.7900  -22.8954   22.6978 C   0  0  0  0  0  0  0  0  0  0  0  0
  -28.1309  -24.8913   20.2697 C   0  0  0  0  0  0  0  0  0  0  0  0
  -30.4952  -12.5092   20.0262 C   0  0  0  0  0  0  0  0  0  0  0  0
  -28.5025  -13.5868   20.9965 C   0  0  0  0  0  0  0  0  0  0  0  0
  -25.2042  -35.4305   23.6175 C   0  0  1  0  0  0  0  0  0  0  0  0
  -22.7907  -33.1525   21.7684 C   0  0  1  0  0  0  0  0  0  0  0  0
  -28.2217  -22.1200   19.0006 C   0  0  2  0  0  0  0  0  0  0  0  0
  -28.0737  -20.6607   18.4301 C   0  0  2  0  0  0  0  0  0  0  0  0
  -29.6026  -18.3088   19.6573 C   0  0  2  0  0  0  0  0  0  0  0  0
  -27.9126  -25.3140   21.7317 C   0  0  1  0  0  0  0  0  0  0  0  0
  -27.5858  -12.9038   19.9673 C   0  0  2  0  0  0  0  0  0  0  0  0
  -28.5549  -22.2480   20.4945 C   0  0  2  0  0  0  0  0  0  0  0  0
  -29.3132  -19.9168   17.8625 C   0  0  1  0  0  0  0  0  0  0  0  0
  -30.3207  -19.5300   19.0078 C   0  0  1  0  0  0  0  0  0  0  0  0
  -28.6985  -24.0502   22.2166 C   0  0  2  0  0  0  0  0  0  0  0  0
  -29.0671  -23.7157   20.7132 C   0  0  2  0  0  0  0  0  0  0  0  0
  -29.9616  -20.7179   16.7173 C   0  0  0  0  0  0  0  0  0  0  0  0
  -31.6961  -19.0836   18.4212 C   0  0  0  0  0  0  0  0  0  0  0  0
  -29.8142  -24.3096   23.2254 C   0  0  0  0  0  0  0  0  0  0  0  0
  -30.5092  -24.0058   20.2896 C   0  0  0  0  0  0  0  0  0  0  0  0
  -16.4114  -28.7584   21.7712 C   0  0  0  0  0  0  0  0  0  0  0  0
  -28.2042  -27.0056   23.5447 C   0  0  0  0  0  0  0  0  0  0  0  0
  -30.5663  -18.0632   21.9669 C   0  0  0  0  0  0  0  0  0  0  0  0
  -20.6171  -32.0443   25.6937 C   0  0  0  0  0  0  0  0  0  0  0  0
  -18.7297  -30.4161   25.4589 C   0  0  0  0  0  0  0  0  0  0  0  0
  -18.4434  -32.7734   24.6948 C   0  0  0  0  0  0  0  0  0  0  0  0
  -18.9491  -29.0769   18.9544 C   0  0  0  0  0  0  0  0  0  0  0  0
  -27.7639  -27.7928   21.2025 C   0  0  0  0  0  0  0  0  0  1  0  0
  -19.9081  -31.2060   23.3569 C   0  0  1  0  0  0  0  0  0  0  0  0
  -17.5506  -29.4041   20.9979 C   0  0  2  0  0  0  0  0  0  0  0  0
  -28.4288  -26.7089   22.0582 C   0  0  2  0  0  0  0  0  0  0  0  0
  -30.4356  -17.4333   20.5866 C   0  0  1  0  0  0  0  0  0  0  0  0
  -19.4493  -31.6054   24.7878 C   0  0  0  0  0  0  0  0  0  0  0  0
  -25.8734  -11.5476   21.1124 N   0  0  0  0  0  0  0  0  0  0  0  0
  -26.1790  -12.7044   20.5003 N   0  0  0  0  0  0  0  0  0  0  0  0
  -21.9628  -32.0530   22.2684 N   0  0  0  0  0  0  0  0  0  0  0  0
  -29.8520  -13.7597   20.4363 N   0  0  0  0  0  0  0  0  0  0  0  0
  -25.2743  -14.7960   19.8543 N   0  0  0  0  0  0  0  0  0  0  0  0
  -21.7979  -12.7349   21.8700 N   0  0  0  0  0  0  0  0  0  0  0  0
  -24.3671  -34.7692   22.6394 N   0  0  0  0  0  0  0  0  0  0  0  0
  -18.8199  -30.8119   22.4687 N   0  0  0  0  0  0  0  0  0  0  0  0
  -29.8589  -16.1113   20.6891 N   0  0  0  0  0  0  0  0  0  0  0  0
  -17.8615  -28.5489   19.8177 N   0  3  0  0  0  0  0  0  0  0  0  0
  -22.4568  -14.6479   20.7906 O   0  0  0  0  0  0  0  0  0  0  0  0
  -23.4750  -33.1266   24.0281 O   0  0  0  0  0  0  0  0  0  0  0  0
  -20.0635  -33.3929   22.4515 O   0  0  0  0  0  0  0  0  0  0  0  0
  -19.6278  -28.6887   22.0034 O   0  0  0  0  0  0  0  0  0  0  0  0
  -31.6832  -15.0368   19.8091 O   0  0  0  0  0  0  0  0  0  0  0  0
  -21.8476   -7.6419   24.1268 O   0  0  0  0  0  0  0  0  0  0  0  0
  -26.3557  -27.7979   21.3972 O   0  0  0  0  0  0  0  0  0  1  0  0
  -22.4898   -2.4824   22.2908 F   0  0  0  0  0  0  0  0  0  0  0  0
  -19.6800   -6.1704   23.2443 F   0  0  0  0  0  0  0  0  0  0  0  0
  1  2  1  0  0  0  0
  1  5  2  0  0  0  0
  2  6  2  0  0  0  0
  3  8  2  0  0  0  0
  3 15  1  0  0  0  0
  4  9  1  0  0  0  0
  4 15  2  0  0  0  0
  5 17  1  0  0  0  0
  6 19  1  0  0  0  0
  7 10  2  0  0  0  0
  7 18  1  0  0  0  0
  8 21  1  0  0  0  0
  9 21  2  0  0  0  0
 10 22  1  0  0  0  0
 11 12  2  0  0  0  0
 11 23  1  0  0  0  0
 12 24  1  0  0  0  0
 13 20  1  0  0  0  0
 13 22  2  0  0  0  0
 14 24  2  0  0  0  0
 14 25  1  0  0  0  0
 15 26  1  0  0  0  0
 16 26  1  0  0  0  0
 16 27  2  0  0  0  0
 16 28  1  0  0  0  0
 17 19  2  0  0  0  0
 17 33  1  0  0  0  0
 18 20  2  0  0  0  0
 18 34  1  0  0  0  0
 19 51  1  0  0  0  0
 20 35  1  0  0  0  0
 21 95  1  0  0  0  0
 22 96  1  0  0  0  0
 23 25  2  0  0  0  0
 23 95  1  0  0  0  0
 24 97  1  0  0  0  0
 25 98  1  0  0  0  0
 26 80  2  0  0  0  0
 27 81  1  0  0  0  0
 27 84  1  0  0  0  0
 28 85  1  0  0  0  0
 28 90  2  0  0  0  0
 29 52  1  0  0  0  0
 29 86  1  0  0  0  0
 29 91  2  0  0  0  0
 30 75  1  0  0  0  0
 30 82  1  0  0  0  0
 30 92  2  0  0  0  0
 31 76  1  0  0  0  0
 31 87  1  0  0  0  0
 31 93  2  0  0  0  0
 32 83  1  0  0  0  0
 32 88  1  0  0  0  0
 32 94  2  0  0  0  0
 33 36  1  0  0  0  0
 34 52  1  0  0  0  0
 35 82  1  0  0  0  0
 36 38  1  0  0  0  0
 37 42  1  0  0  0  0
 37 49  1  0  0  0  0
 38 51  1  0  0  0  0
 39 40  1  0  0  0  0
 39 53  1  0  0  0  0
 40 54  1  0  0  0  0
 41 45  1  0  0  0  0
 41 55  1  0  0  0  0
 42 57  1  0  0  0  0
 43 46  1  0  0  0  0
 43 58  1  0  0  0  0
 44 47  1  0  0  0  0
 44 58  1  0  0  0  0
 45 59  1  0  0  0  0
 46 60  1  0  0  0  0
 47 61  1  0  0  0  0
 48 56  1  0  0  0  0
 48 62  1  0  0  0  0
 49 83  1  0  0  0  0
 50 57  1  0  0  0  0
 50 83  1  0  0  0  0
 51 86  1  0  0  0  0
 52 82  1  0  0  0  0
 53 54  1  0  0  0  0
 53 58  1  0  0  0  0
 54 59  1  0  0  0  0
 55 60  1  0  0  0  0
 55 78  1  0  0  0  0
 56 61  1  0  0  0  0
 56 77  1  0  0  0  0
 57 81  1  0  0  0  0
 58 62  1  0  0  0  0
 59 60  1  0  0  0  0
 59 63  1  0  0  0  0
 60 64  1  0  0  0  0
 61 62  1  0  0  0  0
 61 65  1  0  0  0  0
 62 66  1  0  0  0  0
 67 76  1  0  0  0  0
 68 77  1  0  0  0  0
 69 78  1  0  0  0  0
 70 79  1  0  0  0  0
 71 79  1  0  0  0  0
 72 79  1  0  0  0  0
 73 89  1  0  0  0  0
 74 77  1  0  0  0  0
 74 96  1  0  0  0  0
 75 79  1  0  0  0  0
 75 87  1  0  0  0  0
 76 89  1  0  0  0  0
 78 88  1  0  0  0  0
 80 81  1  0  0  0  0
M  CHG  1  89   1
M  ISO  4  32 100  74 101  88 100  96 101
M  END
> <Batch ID>
0171

> <Smiles>
CNC(C)C(=O)NC(C(=O)N1Cc2cc([101O:1][101CH2:1]C(C)C3CC4(C)C3(C)CCC43CCC4(C)C(C(C)[100NH:0][100C:0](=O)N5CCCC(n6nc(-c7ccc(Oc8ccc(F)cc8F)cc7)c(C(N)=O)c6N)C5)CCC4(C)C4CCC43)ccc2CC1C(=O)NC1CCCc2ccccc21)C(C)(C)C

> <Shape>
0.345

> <Color>
0.155

> <Negative vol penalty>
0.000

$$$$

  -OEChem-04052322373D

 84 93  0     1  0  0  0  0  0999 V2000
  -17.7065  -25.5125   20.5520 C   0  0  0  0  0  0  0  0  0  0  0  0
  -19.0413  -25.4521   20.1679 C   0  0  0  0  0  0  0  0  0  0  0  0
  -26.8880  -13.5341   21.7173 C   0  0  0  0  0  0  0  0  0  0  0  0
  -25.0897  -13.7233   20.1150 C   0  0  0  0  0  0  0  0  0  0  0  0
  -17.3225  -26.3539   21.5940 C   0  0  0  0  0  0  0  0  0  0  0  0
  -19.9943  -26.2239   20.8334 C   0  0  0  0  0  0  0  0  0  0  0  0
  -24.7093  -25.4567   19.6570 C   0  0  0  0  0  0  0  0  0  0  0  0
  -26.1903  -12.5253   22.3813 C   0  0  0  0  0  0  0  0  0  0  0  0
  -24.3919  -12.7144   20.7790 C   0  0  0  0  0  0  0  0  0  0  0  0
  -25.2586  -25.8630   18.4418 C   0  0  0  0  0  0  0  0  0  0  0  0
  -24.4703   -9.3410   20.9648 C   0  0  0  0  0  0  0  0  0  0  0  0
  -23.8837   -8.3417   20.1883 C   0  0  0  0  0  0  0  0  0  0  0  0
  -31.9126  -25.2562   17.7424 C   0  0  0  0  0  0  0  0  0  0  0  0
  -29.1544  -24.8507   17.7235 C   0  0  0  0  0  0  0  0  0  0  0  0
  -26.3240  -27.7211   19.5516 C   0  0  0  0  0  0  0  0  0  0  0  0
  -21.7116   -8.9376   21.0622 C   0  0  0  0  0  0  0  0  0  0  0  0
  -26.3377  -14.1332   20.5842 C   0  0  0  0  0  0  0  0  0  0  0  0
  -27.9793  -15.0213   18.8452 C   0  0  0  0  0  0  0  0  0  0  0  0
  -18.2700  -27.1454   22.2639 C   0  0  0  0  0  0  0  0  0  0  0  0
  -24.9547  -26.1869   20.8288 C   0  0  0  0  0  0  0  0  0  0  0  0
  -19.6302  -27.0612   21.9034 C   0  0  0  0  0  0  0  0  0  0  0  0
  -31.3272  -24.4458   18.7250 C   0  0  0  0  0  0  0  0  0  0  0  0
  -29.9368  -24.2256   18.7054 C   0  0  0  0  0  0  0  0  0  0  0  0
  -25.7787  -27.3205   20.7809 C   0  0  0  0  0  0  0  0  0  0  0  0
  -31.1246  -25.8648   16.7660 C   0  0  0  0  0  0  0  0  0  0  0  0
  -29.7465  -25.6648   16.7584 C   0  0  0  0  0  0  0  0  0  0  0  0
  -24.9422  -12.1154   21.9122 C   0  0  0  0  0  0  0  0  0  0  0  0
  -26.0638  -26.9970   18.3884 C   0  0  0  0  0  0  0  0  0  0  0  0
  -23.6775  -10.1386   21.7901 C   0  0  0  0  0  0  0  0  0  0  0  0
  -22.5044   -8.1400   20.2370 C   0  0  0  0  0  0  0  0  0  0  0  0
  -22.2981   -9.9369   21.8388 C   0  0  0  0  0  0  0  0  0  0  0  0
  -27.0577  -15.1758   19.8981 C   0  0  0  0  0  0  0  0  0  0  0  0
  -28.3782  -16.3015   18.5475 C   0  0  0  0  0  0  0  0  0  0  0  0
  -28.4341  -13.8275   18.1944 C   0  0  0  0  0  0  0  0  0  0  0  0
  -23.1449  -27.7845   22.8967 C   0  0  0  0  0  0  0  0  0  0  0  0
  -25.9337  -28.0555   24.5311 C   0  0  0  0  0  0  0  0  0  0  0  0
  -29.4973  -28.5767   24.7465 C   0  0  0  0  0  0  0  0  0  0  0  0
  -30.1994  -21.1806   20.6535 C   0  0  0  0  0  0  0  0  0  0  0  0
  -17.8006  -28.0326   23.3899 C   0  0  0  0  0  0  0  0  0  0  0  0
  -24.3765  -25.7201   22.1365 C   0  0  0  0  0  0  0  0  0  0  0  0
  -32.2018  -23.7785   19.7572 C   0  0  0  0  0  0  0  0  0  0  0  0
  -29.2603  -23.3586   19.7441 C   0  0  0  0  0  0  0  0  0  0  0  0
  -26.0893  -28.1276   22.0140 C   0  0  0  0  0  0  0  0  0  0  0  0
  -18.7985  -29.1331   23.7351 C   0  0  0  0  0  0  0  0  0  0  0  0
  -26.5386  -20.7644   20.0253 C   0  0  0  0  0  0  0  0  0  0  0  0
  -20.1890  -28.5395   23.9047 C   0  0  0  0  0  0  0  0  0  0  0  0
  -26.4319  -19.2439   19.9179 C   0  0  0  0  0  0  0  0  0  0  0  0
  -31.4006  -23.3201   20.9712 C   0  0  0  0  0  0  0  0  0  0  0  0
  -27.6894  -21.1736   20.9366 C   0  0  0  0  0  0  0  0  0  0  0  0
  -28.9122  -19.0856   20.4257 C   0  0  0  0  0  0  0  0  0  0  0  0
  -20.6797  -27.9145   22.5926 C   0  0  1  0  0  0  0  0  0  0  0  0
  -24.2736  -26.8326   23.1754 C   0  0  1  0  0  0  0  0  0  0  0  0
  -27.7761  -18.6259   19.4967 C   0  0  1  0  0  0  0  0  0  0  0  0
  -31.7816  -26.7261   15.7378 C   0  0  0  0  0  0  0  0  0  0  0  0
  -31.0347  -28.5395   26.7295 C   0  0  0  0  0  0  0  0  0  0  0  0
  -25.4628  -31.0696   24.5874 C   0  0  0  0  0  0  0  0  0  0  0  0
  -27.8708  -31.3640   25.2065 C   0  0  0  0  0  0  0  0  0  0  0  0
  -26.3388  -30.1106   26.7245 C   0  0  0  0  0  0  0  0  0  0  0  0
  -31.2459  -26.5406   23.4991 C   0  0  0  0  0  0  0  0  0  0  0  0
  -28.8822  -26.3086   15.7245 C   0  0  0  0  0  0  0  0  0  0  0  0
  -28.6192  -27.8028   15.9645 C   0  0  0  0  0  0  0  0  0  0  0  0
  -27.8530  -28.0770   17.2533 C   0  0  0  0  0  0  0  0  0  1  0  0
  -27.0700  -29.0493   24.5494 C   0  0  1  0  0  0  0  0  0  0  0  0
  -30.4895  -27.7531   25.5476 C   0  0  2  0  0  0  0  0  0  0  0  0
  -26.6784  -30.3845   25.2432 C   0  0  0  0  0  0  0  0  0  0  0  0
  -26.8816  -16.4533   20.2459 N   0  0  0  0  0  0  0  0  0  0  0  0
  -27.6980  -17.1132   19.4069 N   0  0  0  0  0  0  0  0  0  0  0  0
  -25.4954  -27.6344   23.2676 N   0  0  0  0  0  0  0  0  0  0  0  0
  -30.2165  -22.5793   20.5437 N   0  0  0  0  0  0  0  0  0  0  0  0
  -28.9530  -20.5459   20.5287 N   0  0  0  0  0  0  0  0  0  0  0  0
  -29.2409  -16.8007   17.6370 N   0  0  0  0  0  0  0  0  0  0  0  0
  -27.9223  -12.5957   18.6246 N   0  0  0  0  0  0  0  0  0  0  0  0
  -21.9017  -27.1835   22.8459 N   0  0  0  0  0  0  0  0  0  0  0  0
  -28.2011  -28.3648   25.1661 N   0  0  0  0  0  0  0  0  0  0  0  0
  -31.6352  -27.3421   24.6878 N   0  3  0  0  0  0  0  0  0  0  0  0
  -29.2819  -13.8510   17.2702 O   0  0  0  0  0  0  0  0  0  0  0  0
  -23.3841  -28.9762   22.7408 O   0  0  0  0  0  0  0  0  0  0  0  0
  -25.4575  -27.6617   25.5988 O   0  0  0  0  0  0  0  0  0  0  0  0
  -29.8385  -29.3352   23.8416 O   0  0  0  0  0  0  0  0  0  0  0  0
  -31.2379  -20.5335   20.8388 O   0  0  0  0  0  0  0  0  0  0  0  0
  -24.2612  -11.1308   22.5598 O   0  0  0  0  0  0  0  0  0  0  0  0
  -26.6045  -27.3991   17.1951 O   0  0  0  0  0  0  0  0  0  1  0  0
  -21.9411   -7.1814   19.4901 F   0  0  0  0  0  0  0  0  0  0  0  0
  -21.5312  -10.7008   22.6288 F   0  0  0  0  0  0  0  0  0  0  0  0
  1  2  1  0  0  0  0
  1  5  2  0  0  0  0
  2  6  2  0  0  0  0
  3  8  2  0  0  0  0
  3 17  1  0  0  0  0
  4  9  1  0  0  0  0
  4 17  2  0  0  0  0
  5 19  1  0  0  0  0
  6 21  1  0  0  0  0
  7 10  2  0  0  0  0
  7 20  1  0  0  0  0
  8 27  1  0  0  0  0
  9 27  2  0  0  0  0
 10 28  1  0  0  0  0
 11 12  2  0  0  0  0
 11 29  1  0  0  0  0
 12 30  1  0  0  0  0
 13 22  2  0  0  0  0
 13 25  1  0  0  0  0
 14 23  2  0  0  0  0
 14 26  1  0  0  0  0
 15 24  1  0  0  0  0
 15 28  2  0  0  0  0
 16 30  2  0  0  0  0
 16 31  1  0  0  0  0
 17 32  1  0  0  0  0
 18 32  1  0  0  0  0
 18 33  2  0  0  0  0
 18 34  1  0  0  0  0
 19 21  2  0  0  0  0
 19 39  1  0  0  0  0
 20 24  2  0  0  0  0
 20 40  1  0  0  0  0
 21 51  1  0  0  0  0
 22 23  1  0  0  0  0
 22 41  1  0  0  0  0
 23 42  1  0  0  0  0
 24 43  1  0  0  0  0
 25 26  2  0  0  0  0
 25 54  1  0  0  0  0
 26 60  1  0  0  0  0
 27 81  1  0  0  0  0
 28 82  1  0  0  0  0
 29 31  2  0  0  0  0
 29 81  1  0  0  0  0
 30 83  1  0  0  0  0
 31 84  1  0  0  0  0
 32 66  2  0  0  0  0
 33 67  1  0  0  0  0
 33 71  1  0  0  0  0
 34 72  1  0  0  0  0
 34 76  2  0  0  0  0
 35 52  1  0  0  0  0
 35 73  1  0  0  0  0
 35 77  2  0  0  0  0
 36 63  1  0  0  0  0
 36 68  1  0  0  0  0
 36 78  2  0  0  0  0
 37 64  1  0  0  0  0
 37 74  1  0  0  0  0
 37 79  2  0  0  0  0
 38 69  1  0  0  0  0
 38 70  1  0  0  0  0
 38 80  2  0  0  0  0
 39 44  1  0  0  0  0
 40 52  1  0  0  0  0
 41 48  1  0  0  0  0
 42 69  1  0  0  0  0
 43 68  1  0  0  0  0
 44 46  1  0  0  0  0
 45 47  1  0  0  0  0
 45 49  1  0  0  0  0
 46 51  1  0  0  0  0
 47 53  1  0  0  0  0
 48 69  1  0  0  0  0
 49 70  1  0  0  0  0
 50 53  1  0  0  0  0
 50 70  1  0  0  0  0
 51 73  1  0  0  0  0
 52 68  1  0  0  0  0
 53 67  1  0  0  0  0
 55 64  1  0  0  0  0
 56 65  1  0  0  0  0
 57 65  1  0  0  0  0
 58 65  1  0  0  0  0
 59 75  1  0  0  0  0
 60 61  1  0  0  0  0
 61 62  1  0  0  0  0
 62 82  1  0  0  0  0
 63 65  1  0  0  0  0
 63 74  1  0  0  0  0
 64 75  1  0  0  0  0
 66 67  1  0  0  0  0
M  CHG  1  75   1
M  ISO  4  38 100  62 101  69 100  82 101
M  END
> <Batch ID>
0171

> <Smiles>
CNC(C)C(=O)NC(C(=O)N1Cc2cc([101O:1][101CH2:1]CCc3cc4c(cc3C)CC[100N:0]([100C:0](=O)N3CCCC(n5nc(-c6ccc(Oc7ccc(F)cc7F)cc6)c(C(N)=O)c5N)C3)C4)ccc2CC1C(=O)NC1CCCc2ccccc21)C(C)(C)C

> <Shape>
0.281

> <Color>
0.072

> <Negative vol penalty>
0.000

$$$$

  -OEChem-04052322373D

 87 97  0     1  0  0  0  0  0999 V2000
  -31.6872  -28.2300   14.2625 C   0  0  0  0  0  0  0  0  0  0  0  0
  -31.9993  -27.4889   15.3978 C   0  0  0  0  0  0  0  0  0  0  0  0
  -23.0136   -9.9648   19.9454 C   0  0  0  0  0  0  0  0  0  0  0  0
  -23.8049   -9.9102   22.2275 C   0  0  0  0  0  0  0  0  0  0  0  0
  -30.5002  -28.9596   14.2122 C   0  0  0  0  0  0  0  0  0  0  0  0
  -31.1249  -27.4779   16.4839 C   0  0  0  0  0  0  0  0  0  0  0  0
  -30.4165  -22.8281   18.3608 C   0  0  0  0  0  0  0  0  0  0  0  0
  -22.2346   -8.8336   20.1884 C   0  0  0  0  0  0  0  0  0  0  0  0
  -23.0259   -8.7789   22.4705 C   0  0  0  0  0  0  0  0  0  0  0  0
  -31.4228  -22.3100   19.1748 C   0  0  0  0  0  0  0  0  0  0  0  0
  -19.7812   -8.0809   23.1071 C   0  0  0  0  0  0  0  0  0  0  0  0
  -19.0396   -8.0480   24.2880 C   0  0  0  0  0  0  0  0  0  0  0  0
  -30.1343  -22.8937   21.1289 C   0  0  0  0  0  0  0  0  0  0  0  0
  -28.5900  -19.1317   24.3596 C   0  0  0  0  0  0  0  0  0  0  0  0
  -20.2247   -6.0586   24.9769 C   0  0  0  0  0  0  0  0  0  0  0  0
  -23.7988  -10.5031   20.9650 C   0  0  0  0  0  0  0  0  0  0  0  0
  -24.2243  -13.0169   20.8786 C   0  0  0  0  0  0  0  0  0  0  0  0
  -29.6063  -28.9499   15.2945 C   0  0  0  0  0  0  0  0  0  0  0  0
  -29.2645  -23.3938   18.9259 C   0  0  0  0  0  0  0  0  0  0  0  0
  -29.9254  -28.2092   16.4486 C   0  0  0  0  0  0  0  0  0  0  0  0
  -29.1137  -23.4161   20.3197 C   0  0  0  0  0  0  0  0  0  0  0  0
  -29.9560  -19.3859   24.3078 C   0  0  0  0  0  0  0  0  0  0  0  0
  -30.7744  -18.5973   23.5067 C   0  0  0  0  0  0  0  0  0  0  0  0
  -22.2407   -8.2407   21.4510 C   0  0  0  0  0  0  0  0  0  0  0  0
  -31.2831  -22.3453   20.5591 C   0  0  0  0  0  0  0  0  0  0  0  0
  -20.7446   -7.1025   22.8610 C   0  0  0  0  0  0  0  0  0  0  0  0
  -19.2614   -7.0369   25.2229 C   0  0  0  0  0  0  0  0  0  0  0  0
  -20.9663   -6.0914   23.7960 C   0  0  0  0  0  0  0  0  0  0  0  0
  -24.6042  -11.6713   20.7144 C   0  0  0  0  0  0  0  0  0  0  0  0
  -28.0956  -18.0856   23.5974 C   0  0  0  0  0  0  0  0  0  0  0  0
  -30.1822  -17.5750   22.7828 C   0  0  0  0  0  0  0  0  0  0  0  0
  -25.3361  -13.7348   20.5111 C   0  0  0  0  0  0  0  0  0  0  0  0
  -22.9779  -13.5686   21.3235 C   0  0  0  0  0  0  0  0  0  0  0  0
  -27.9367  -26.2817   18.8945 C   0  0  0  0  0  0  0  0  0  0  0  0
  -25.5396  -24.7693   20.4722 C   0  0  0  0  0  0  0  0  0  0  0  0
  -24.5606  -22.1554   22.4359 C   0  0  0  0  0  0  0  0  0  0  0  0
  -30.8533  -14.5656   20.6363 C   0  0  0  0  0  0  0  0  0  0  0  0
  -28.3578  -29.7921   15.2125 C   0  0  0  0  0  0  0  0  0  0  0  0
  -28.1762  -23.9243   18.0334 C   0  0  0  0  0  0  0  0  0  0  0  0
  -27.8872  -23.9940   20.9756 C   0  0  0  0  0  0  0  0  0  0  0  0
  -27.3074  -29.4276   16.2585 C   0  0  0  0  0  0  0  0  0  0  0  0
  -29.6027  -12.2586   18.2300 C   0  0  0  0  0  0  0  0  0  0  0  0
  -31.6350  -20.2189   26.0858 C   0  0  0  0  0  0  0  0  0  0  0  0
  -30.2659  -20.5327   26.6028 C   0  0  0  0  0  0  0  0  0  0  0  0
  -27.9517  -29.2802   17.6333 C   0  0  0  0  0  0  0  0  0  0  0  0
  -28.1622  -12.0066   18.6790 C   0  0  0  0  0  0  0  0  0  0  0  0
  -32.8885  -19.0098   22.0779 C   0  0  0  0  0  0  0  0  0  0  0  0
  -30.5433  -12.4295   19.4209 C   0  0  0  0  0  0  0  0  0  0  0  0
  -28.6867  -13.2023   20.8456 C   0  0  0  0  0  0  0  0  0  0  0  0
  -30.5175  -20.5063   25.1186 C   0  0  0  0  0  0  0  0  0  0  0  0
  -32.2355  -18.8430   23.4307 C   0  0  1  0  0  0  0  0  0  0  0  0
  -28.9907  -28.1524   17.6374 C   0  0  1  0  0  0  0  0  0  0  0  0
  -27.2768  -24.9421   18.7281 C   0  0  1  0  0  0  0  0  0  0  0  0
  -27.6910  -13.0791   19.6795 C   0  0  2  0  0  0  0  0  0  0  0  0
  -32.7914  -20.1980   22.9996 C   0  0  1  0  0  0  0  0  0  0  0  0
  -26.6346  -17.7839   23.6287 C   0  0  0  0  0  0  0  0  0  0  0  0
  -34.0537  -20.6724   23.6722 C   0  0  0  0  0  0  0  0  0  0  0  0
  -23.0006  -20.6410   23.6890 C   0  0  0  0  0  0  0  0  0  0  0  0
  -25.7830  -26.9075   22.6353 C   0  0  0  0  0  0  0  0  0  0  0  0
  -24.4690  -25.4170   24.1585 C   0  0  0  0  0  0  0  0  0  0  0  0
  -23.4346  -26.2723   22.0559 C   0  0  0  0  0  0  0  0  0  0  0  0
  -24.1061  -20.4602   20.0529 C   0  0  0  0  0  0  0  0  0  0  0  0
  -31.0091  -16.6931   21.9048 C   0  0  0  0  0  0  0  0  0  0  0  0
  -31.8643  -21.2989   22.6142 C   0  0  0  0  0  0  0  0  0  1  0  0
  -25.2230  -24.4902   21.9217 C   0  0  1  0  0  0  0  0  0  0  0  0
  -23.3869  -21.1988   22.3280 C   0  0  2  0  0  0  0  0  0  0  0  0
  -24.7515  -25.7625   22.6809 C   0  0  0  0  0  0  0  0  0  0  0  0
  -25.8592  -11.5396   20.2766 N   0  0  0  0  0  0  0  0  0  0  0  0
  -28.8593  -17.2978   22.8075 N   0  0  0  0  0  0  0  0  0  0  0  0
  -26.2775  -12.8116   20.1625 N   0  0  0  0  0  0  0  0  0  0  0  0
  -26.8538  -24.5060   20.0604 N   0  0  0  0  0  0  0  0  0  0  0  0
  -30.0402  -13.4619   20.3302 N   0  0  0  0  0  0  0  0  0  0  0  0
  -25.5905  -15.0594   20.4554 N   0  0  0  0  0  0  0  0  0  0  0  0
  -21.9406  -12.6888   21.6613 N   0  0  0  0  0  0  0  0  0  0  0  0
  -28.3369  -26.8631   17.7066 N   0  0  0  0  0  0  0  0  0  0  0  0
  -24.2546  -23.3991   21.9251 N   0  0  0  0  0  0  0  0  0  0  0  0
  -30.2976  -15.5007   21.5009 N   0  0  0  0  0  0  0  0  0  0  0  0
  -23.7292  -20.0579   21.4324 N   0  3  0  0  0  0  0  0  0  0  0  0
  -22.7843  -14.8054   21.4030 O   0  0  0  0  0  0  0  0  0  0  0  0
  -28.0714  -26.7535   20.0174 O   0  0  0  0  0  0  0  0  0  0  0  0
  -24.6518  -25.1981   19.7310 O   0  0  0  0  0  0  0  0  0  0  0  0
  -25.6398  -21.8329   22.9278 O   0  0  0  0  0  0  0  0  0  0  0  0
  -31.9882  -14.7099   20.1692 O   0  0  0  0  0  0  0  0  0  0  0  0
  -21.4805   -7.1369   21.6885 O   0  0  0  0  0  0  0  0  0  0  0  0
  -32.2640  -21.8408   21.3560 O   0  0  0  0  0  0  0  0  0  1  0  0
  -18.5502   -7.0064   26.3576 F   0  0  0  0  0  0  0  0  0  0  0  0
  -21.8913   -5.1494   23.5657 F   0  0  0  0  0  0  0  0  0  0  0  0
  1  2  1  0  0  0  0
  1  5  2  0  0  0  0
  2  6  2  0  0  0  0
  3  8  2  0  0  0  0
  3 16  1  0  0  0  0
  4  9  1  0  0  0  0
  4 16  2  0  0  0  0
  5 18  1  0  0  0  0
  6 20  1  0  0  0  0
  7 10  2  0  0  0  0
  7 19  1  0  0  0  0
  8 24  1  0  0  0  0
  9 24  2  0  0  0  0
 10 25  1  0  0  0  0
 11 12  2  0  0  0  0
 11 26  1  0  0  0  0
 12 27  1  0  0  0  0
 13 21  1  0  0  0  0
 13 25  2  0  0  0  0
 14 22  2  0  0  0  0
 14 30  1  0  0  0  0
 15 27  2  0  0  0  0
 15 28  1  0  0  0  0
 16 29  1  0  0  0  0
 17 29  1  0  0  0  0
 17 32  2  0  0  0  0
 17 33  1  0  0  0  0
 18 20  2  0  0  0  0
 18 38  1  0  0  0  0
 19 21  2  0  0  0  0
 19 39  1  0  0  0  0
 20 52  1  0  0  0  0
 21 40  1  0  0  0  0
 22 23  1  0  0  0  0
 22 50  1  0  0  0  0
 23 31  2  0  0  0  0
 23 51  1  0  0  0  0
 24 84  1  0  0  0  0
 25 85  1  0  0  0  0
 26 28  2  0  0  0  0
 26 84  1  0  0  0  0
 27 86  1  0  0  0  0
 28 87  1  0  0  0  0
 29 68  2  0  0  0  0
 30 56  1  0  0  0  0
 30 69  2  0  0  0  0
 31 63  1  0  0  0  0
 31 69  1  0  0  0  0
 32 70  1  0  0  0  0
 32 73  1  0  0  0  0
 33 74  1  0  0  0  0
 33 79  2  0  0  0  0
 34 53  1  0  0  0  0
 34 75  1  0  0  0  0
 34 80  2  0  0  0  0
 35 65  1  0  0  0  0
 35 71  1  0  0  0  0
 35 81  2  0  0  0  0
 36 66  1  0  0  0  0
 36 76  1  0  0  0  0
 36 82  2  0  0  0  0
 37 72  1  0  0  0  0
 37 77  1  0  0  0  0
 37 83  2  0  0  0  0
 38 41  1  0  0  0  0
 39 53  1  0  0  0  0
 40 71  1  0  0  0  0
 41 45  1  0  0  0  0
 42 46  1  0  0  0  0
 42 48  1  0  0  0  0
 43 44  1  0  0  0  0
 43 50  1  0  0  0  0
 44 50  1  0  0  0  0
 45 52  1  0  0  0  0
 46 54  1  0  0  0  0
 47 51  1  0  0  0  0
 47 55  1  0  0  0  0
 48 72  1  0  0  0  0
 49 54  1  0  0  0  0
 49 72  1  0  0  0  0
 51 55  1  0  0  0  0
 52 75  1  0  0  0  0
 53 71  1  0  0  0  0
 54 70  1  0  0  0  0
 55 57  1  0  0  0  0
 55 64  1  0  0  0  0
 58 66  1  0  0  0  0
 59 67  1  0  0  0  0
 60 67  1  0  0  0  0
 61 67  1  0  0  0  0
 62 78  1  0  0  0  0
 63 77  1  0  0  0  0
 64 85  1  0  0  0  0
 65 67  1  0  0  0  0
 65 76  1  0  0  0  0
 66 78  1  0  0  0  0
 68 70  1  0  0  0  0
M  CHG  1  78   1
M  ISO  4  37 100  64 101  77 100  85 101
M  END
> <Batch ID>
0171

> <Smiles>
CNC(C)C(=O)NC(C(=O)N1Cc2cc([101O:1][101CH2:1]C3(C)CC3c3c(C4CC4)cc(C)nc3C[100NH:0][100C:0](=O)N3CCCC(n4nc(-c5ccc(Oc6ccc(F)cc6F)cc5)c(C(N)=O)c4N)C3)ccc2CC1C(=O)NC1CCCc2ccccc21)C(C)(C)C

> <Shape>
0.218

> <Color>
0.215

> <Negative vol penalty>
0.000

$$$$

  -OEChem-04052322373D

 88 97  0     1  0  0  0  0  0999 V2000
  -17.8328  -24.1152   23.5482 C   0  0  0  0  0  0  0  0  0  0  0  0
  -19.2078  -23.9066   23.5118 C   0  0  0  0  0  0  0  0  0  0  0  0
  -25.3150  -29.0108   22.0694 C   0  0  0  0  0  0  0  0  0  0  0  0
  -25.0190  -30.6884   20.3562 C   0  0  0  0  0  0  0  0  0  0  0  0
  -16.9749  -23.0526   23.8292 C   0  0  0  0  0  0  0  0  0  0  0  0
  -19.7258  -22.6355   23.7575 C   0  0  0  0  0  0  0  0  0  0  0  0
  -23.3364  -21.3371   20.4526 C   0  0  0  0  0  0  0  0  0  0  0  0
  -24.6678  -29.8359   22.9892 C   0  0  0  0  0  0  0  0  0  0  0  0
  -24.3718  -31.5135   21.2759 C   0  0  0  0  0  0  0  0  0  0  0  0
  -24.6042  -21.8835   20.6473 C   0  0  0  0  0  0  0  0  0  0  0  0
  -22.9608  -34.2109   23.2617 C   0  0  0  0  0  0  0  0  0  0  0  0
  -23.3177  -35.5590   23.2867 C   0  0  0  0  0  0  0  0  0  0  0  0
  -25.3258  -19.8260   21.6794 C   0  0  0  0  0  0  0  0  0  0  0  0
  -25.5934  -34.9467   23.8192 C   0  0  0  0  0  0  0  0  0  0  0  0
  -25.4906  -29.4371   20.7529 C   0  0  0  0  0  0  0  0  0  0  0  0
  -25.5701  -27.6228   18.9613 C   0  0  0  0  0  0  0  0  0  0  0  0
  -17.4821  -21.7658   24.0689 C   0  0  0  0  0  0  0  0  0  0  0  0
  -23.0501  -20.0327   20.8804 C   0  0  0  0  0  0  0  0  0  0  0  0
  -18.8740  -21.5550   24.0433 C   0  0  0  0  0  0  0  0  0  0  0  0
  -24.0543  -19.2645   21.4866 C   0  0  0  0  0  0  0  0  0  0  0  0
  -29.7572  -18.7521   20.7114 C   0  0  0  0  0  0  0  0  0  0  0  0
  -28.4081  -20.0007   22.2623 C   0  0  0  0  0  0  0  0  0  0  0  0
  -24.1962  -31.0872   22.5924 C   0  0  0  0  0  0  0  0  0  0  0  0
  -25.5983  -21.1290   21.2634 C   0  0  0  0  0  0  0  0  0  0  0  0
  -23.9202  -33.2306   23.5156 C   0  0  0  0  0  0  0  0  0  0  0  0
  -28.9776  -19.8663   21.0010 C   0  0  0  0  0  0  0  0  0  0  0  0
  -24.6340  -35.9270   23.5654 C   0  0  0  0  0  0  0  0  0  0  0  0
  -25.2364  -33.5985   23.7943 C   0  0  0  0  0  0  0  0  0  0  0  0
  -26.1596  -28.5855   19.8024 C   0  0  0  0  0  0  0  0  0  0  0  0
  -29.9354  -17.8080   21.7098 C   0  0  0  0  0  0  0  0  0  0  0  0
  -28.6465  -19.0007   23.1912 C   0  0  0  0  0  0  0  0  0  0  0  0
  -26.6228  -27.0910   18.2575 C   0  0  0  0  0  0  0  0  0  0  0  0
  -24.1939  -27.2433   18.8281 C   0  0  0  0  0  0  0  0  0  0  0  0
  -21.0273  -18.7506   22.9704 C   0  0  0  0  0  0  0  0  0  0  0  0
  -22.1458  -15.9606   21.7509 C   0  0  0  0  0  0  0  0  0  0  0  0
  -24.6596  -14.3010   20.1467 C   0  0  0  0  0  0  0  0  0  0  0  0
  -31.5912  -25.0831   17.8778 C   0  0  0  0  0  0  0  0  0  0  0  0
  -16.5184  -20.6585   24.4150 C   0  0  0  0  0  0  0  0  0  0  0  0
  -21.6853  -19.4484   20.6388 C   0  0  0  0  0  0  0  0  0  0  0  0
  -23.8039  -17.8521   21.9458 C   0  0  0  0  0  0  0  0  0  0  0  0
  -17.1253  -19.2630   24.2944 C   0  0  0  0  0  0  0  0  0  0  0  0
  -31.4303  -28.5919   17.8688 C   0  0  0  0  0  0  0  0  0  0  0  0
  -18.4968  -19.2179   24.9604 C   0  0  0  0  0  0  0  0  0  0  0  0
  -29.9859  -28.8315   18.3071 C   0  0  0  0  0  0  0  0  0  0  0  0
  -29.6728  -21.8749   18.0852 C   0  0  0  0  0  0  0  0  0  0  0  0
  -30.2381  -22.7167   20.3878 C   0  0  0  0  0  0  0  0  0  0  0  0
  -32.0821  -27.4471   18.6460 C   0  0  0  0  0  0  0  0  0  0  0  0
  -30.8217  -22.7048   17.5271 C   0  0  0  0  0  0  0  0  0  0  0  0
  -31.3739  -23.5397   19.7913 C   0  0  0  0  0  0  0  0  0  0  0  0
  -29.8674  -26.4223   19.0493 C   0  0  0  0  0  0  0  0  0  0  0  0
  -19.4726  -20.1854   24.2799 C   0  0  1  0  0  0  0  0  0  0  0  0
  -21.3558  -18.2920   21.5777 C   0  0  1  0  0  0  0  0  0  0  0  0
  -29.1671  -27.5298   18.2467 C   0  0  1  0  0  0  0  0  0  0  0  0
  -29.9273  -21.4847   19.5397 C   0  0  0  0  0  0  0  0  0  0  0  0
  -30.3791  -18.5852   19.3658 C   0  0  0  0  0  0  0  0  0  0  0  0
  -30.7620  -16.5900   21.4561 C   0  0  0  0  0  0  0  0  0  0  0  0
  -28.0614  -19.0902   24.5627 C   0  0  0  0  0  0  0  0  0  0  0  0
  -28.3816  -22.3565   23.1527 C   0  0  0  0  0  0  0  0  0  0  0  0
  -25.3021  -12.0192   19.3232 C   0  0  0  0  0  0  0  0  0  0  0  0
  -22.7812  -15.1099   24.6113 C   0  0  0  0  0  0  0  0  0  0  0  0
  -24.2460  -13.3077   23.6760 C   0  0  0  0  0  0  0  0  0  0  0  0
  -21.8011  -13.3081   23.1805 C   0  0  0  0  0  0  0  0  0  0  0  0
  -24.8140  -15.2299   17.3409 C   0  0  0  0  0  0  0  0  0  0  0  0
  -27.5663  -21.1855   22.5974 C   0  0  1  0  0  0  0  0  0  1  0  0
  -23.2889  -15.0315   22.0811 C   0  0  1  0  0  0  0  0  0  0  0  0
  -24.6433  -13.3433   18.9690 C   0  0  2  0  0  0  0  0  0  0  0  0
  -23.0338  -14.2165   23.3804 C   0  0  0  0  0  0  0  0  0  0  0  0
  -27.4841  -28.6628   19.6486 N   0  0  0  0  0  0  0  0  0  0  0  0
  -29.3983  -17.9040   22.9467 N   0  0  0  0  0  0  0  0  0  0  0  0
  -27.7356  -27.7419   18.7027 N   0  0  0  0  0  0  0  0  0  0  0  0
  -22.4517  -17.3276   21.6931 N   0  0  0  0  0  0  0  0  0  0  0  0
  -31.2467  -26.2399   18.5930 N   0  0  0  0  0  0  0  0  0  0  0  0
  -31.1223  -23.8600   18.3856 N   0  0  0  0  0  0  0  0  0  0  0  0
  -26.6959  -26.1347   17.3075 N   0  0  0  0  0  0  0  0  0  0  0  0
  -23.2419  -27.8906   19.6275 N   0  0  0  0  0  0  0  0  0  0  0  0
  -19.9581  -19.6233   23.0378 N   0  0  0  0  0  0  0  0  0  0  0  0
  -23.5043  -14.2113   20.8940 N   0  0  0  0  0  0  0  0  0  0  0  0
  -25.3703  -13.9348   17.8103 N   0  3  0  0  0  0  0  0  0  0  0  0
  -23.8215  -26.3449   18.0358 O   0  0  0  0  0  0  0  0  0  0  0  0
  -21.6937  -18.3417   23.9141 O   0  0  0  0  0  0  0  0  0  0  0  0
  -21.0243  -15.4900   21.5445 O   0  0  0  0  0  0  0  0  0  0  0  0
  -25.6044  -15.0509   20.3824 O   0  0  0  0  0  0  0  0  0  0  0  0
  -32.2781  -25.1362   16.8501 O   0  0  0  0  0  0  0  0  0  0  0  0
  -23.5644  -31.8925   23.4896 O   0  0  0  0  0  0  0  0  0  0  0  0
  -28.7717  -20.8284   20.0475 O   0  0  0  0  0  0  0  0  0  0  0  0
  -26.8400  -21.6617   21.4558 O   0  0  0  0  0  0  0  0  0  1  0  0
  -24.9770  -37.2216   23.5879 F   0  0  0  0  0  0  0  0  0  0  0  0
  -26.1627  -32.6612   24.0378 F   0  0  0  0  0  0  0  0  0  0  0  0
  1  2  1  0  0  0  0
  1  5  2  0  0  0  0
  2  6  2  0  0  0  0
  3  8  2  0  0  0  0
  3 15  1  0  0  0  0
  4  9  1  0  0  0  0
  4 15  2  0  0  0  0
  5 17  1  0  0  0  0
  6 19  1  0  0  0  0
  7 10  2  0  0  0  0
  7 18  1  0  0  0  0
  8 23  1  0  0  0  0
  9 23  2  0  0  0  0
 10 24  1  0  0  0  0
 11 12  2  0  0  0  0
 11 25  1  0  0  0  0
 12 27  1  0  0  0  0
 13 20  1  0  0  0  0
 13 24  2  0  0  0  0
 14 27  2  0  0  0  0
 14 28  1  0  0  0  0
 15 29  1  0  0  0  0
 16 29  1  0  0  0  0
 16 32  2  0  0  0  0
 16 33  1  0  0  0  0
 17 19  2  0  0  0  0
 17 38  1  0  0  0  0
 18 20  2  0  0  0  0
 18 39  1  0  0  0  0
 19 51  1  0  0  0  0
 20 40  1  0  0  0  0
 21 26  1  0  0  0  0
 21 30  2  0  0  0  0
 21 55  1  0  0  0  0
 22 26  2  0  0  0  0
 22 31  1  0  0  0  0
 22 64  1  0  0  0  0
 23 84  1  0  0  0  0
 24 86  1  0  0  0  0
 25 28  2  0  0  0  0
 25 84  1  0  0  0  0
 26 85  1  0  0  0  0
 27 87  1  0  0  0  0
 28 88  1  0  0  0  0
 29 68  2  0  0  0  0
 30 56  1  0  0  0  0
 30 69  1  0  0  0  0
 31 57  1  0  0  0  0
 31 69  2  0  0  0  0
 32 70  1  0  0  0  0
 32 74  1  0  0  0  0
 33 75  1  0  0  0  0
 33 79  2  0  0  0  0
 34 52  1  0  0  0  0
 34 76  1  0  0  0  0
 34 80  2  0  0  0  0
 35 65  1  0  0  0  0
 35 71  1  0  0  0  0
 35 81  2  0  0  0  0
 36 66  1  0  0  0  0
 36 77  1  0  0  0  0
 36 82  2  0  0  0  0
 37 72  1  0  0  0  0
 37 73  1  0  0  0  0
 37 83  2  0  0  0  0
 38 41  1  0  0  0  0
 39 52  1  0  0  0  0
 40 71  1  0  0  0  0
 41 43  1  0  0  0  0
 42 44  1  0  0  0  0
 42 47  1  0  0  0  0
 43 51  1  0  0  0  0
 44 53  1  0  0  0  0
 45 48  1  0  0  0  0
 45 54  1  0  0  0  0
 46 49  1  0  0  0  0
 46 54  1  0  0  0  0
 47 72  1  0  0  0  0
 48 73  1  0  0  0  0
 49 73  1  0  0  0  0
 50 53  1  0  0  0  0
 50 72  1  0  0  0  0
 51 76  1  0  0  0  0
 52 71  1  0  0  0  0
 53 70  1  0  0  0  0
 54 85  1  0  0  0  0
 58 64  1  0  0  0  0
 59 66  1  0  0  0  0
 60 67  1  0  0  0  0
 61 67  1  0  0  0  0
 62 67  1  0  0  0  0
 63 78  1  0  0  0  0
 64 86  1  0  0  0  0
 65 67  1  0  0  0  0
 65 77  1  0  0  0  0
 66 78  1  0  0  0  0
 68 70  1  0  0  0  0
M  CHG  1  78   1
M  ISO  4  37 100  64 101  73 100  86 101
M  END
> <Batch ID>
0171

> <Smiles>
CNC(C)C(=O)NC(C(=O)N1Cc2cc([101O:1][101CH:1](C)c3c(C)nc(C)c(C)c3OC3CC[100N:0]([100C:0](=O)N4CCCC(n5nc(-c6ccc(Oc7ccc(F)cc7F)cc6)c(C(N)=O)c5N)C4)CC3)ccc2CC1C(=O)NC1CCCc2ccccc21)C(C)(C)C

> <Shape>
0.217

> <Color>
0.062

> <Negative vol penalty>
0.000

$$$$

  -OEChem-04052322373D

 84 93  0     1  0  0  0  0  0999 V2000
  -36.8093  -26.0202   21.7985 C   0  0  0  0  0  0  0  0  0  0  0  0
  -35.6259  -25.2975   21.9117 C   0  0  0  0  0  0  0  0  0  0  0  0
  -22.9530  -10.1040   19.7410 C   0  0  0  0  0  0  0  0  0  0  0  0
  -23.8417   -9.7072   21.9523 C   0  0  0  0  0  0  0  0  0  0  0  0
  -36.7663  -27.4023   21.6200 C   0  0  0  0  0  0  0  0  0  0  0  0
  -34.3988  -25.9566   21.8476 C   0  0  0  0  0  0  0  0  0  0  0  0
  -31.0562  -23.5569   18.8959 C   0  0  0  0  0  0  0  0  0  0  0  0
  -22.1706   -8.9543   19.8491 C   0  0  0  0  0  0  0  0  0  0  0  0
  -23.0592   -8.5575   22.0604 C   0  0  0  0  0  0  0  0  0  0  0  0
  -30.4195  -22.4391   19.4333 C   0  0  0  0  0  0  0  0  0  0  0  0
  -19.8363   -7.7940   22.7316 C   0  0  0  0  0  0  0  0  0  0  0  0
  -19.1462   -7.5916   23.9267 C   0  0  0  0  0  0  0  0  0  0  0  0
  -29.7783  -18.3972   23.0099 C   0  0  0  0  0  0  0  0  0  0  0  0
  -28.4745  -23.7839   19.9104 C   0  0  0  0  0  0  0  0  0  0  0  0
  -28.8773  -18.5984   25.2424 C   0  0  0  0  0  0  0  0  0  0  0  0
  -20.3340   -5.5145   24.2609 C   0  0  0  0  0  0  0  0  0  0  0  0
  -23.7886  -10.4804   20.7926 C   0  0  0  0  0  0  0  0  0  0  0  0
  -24.2427  -12.9765   21.0590 C   0  0  0  0  0  0  0  0  0  0  0  0
  -35.5379  -28.0775   21.5440 C   0  0  0  0  0  0  0  0  0  0  0  0
  -30.4099  -24.8011   18.8715 C   0  0  0  0  0  0  0  0  0  0  0  0
  -34.3394  -27.3493   21.6693 C   0  0  0  0  0  0  0  0  0  0  0  0
  -29.0487  -19.1144   23.9579 C   0  0  0  0  0  0  0  0  0  0  0  0
  -29.1042  -24.9154   19.3698 C   0  0  0  0  0  0  0  0  0  0  0  0
  -30.3364  -17.1638   23.3462 C   0  0  0  0  0  0  0  0  0  0  0  0
  -30.1649  -16.6478   24.6308 C   0  0  0  0  0  0  0  0  0  0  0  0
  -22.2237   -8.1811   21.0088 C   0  0  0  0  0  0  0  0  0  0  0  0
  -29.1295  -22.5531   19.9433 C   0  0  0  0  0  0  0  0  0  0  0  0
  -20.7753   -6.8566   22.3011 C   0  0  0  0  0  0  0  0  0  0  0  0
  -19.3950   -6.4519   24.6914 C   0  0  0  0  0  0  0  0  0  0  0  0
  -21.0241   -5.7168   23.0657 C   0  0  0  0  0  0  0  0  0  0  0  0
  -29.4354  -17.3651   25.5789 C   0  0  0  0  0  0  0  0  0  0  0  0
  -24.5975  -11.6676   20.6813 C   0  0  0  0  0  0  0  0  0  0  0  0
  -25.3468  -13.7336   20.7521 C   0  0  0  0  0  0  0  0  0  0  0  0
  -23.0241  -13.4643   21.6358 C   0  0  0  0  0  0  0  0  0  0  0  0
  -30.9811  -27.6511   20.1580 C   0  0  0  0  0  0  0  0  0  0  0  0
  -28.4358  -28.5420   18.3553 C   0  0  0  0  0  0  0  0  0  0  0  0
  -25.5730  -27.6331   16.7350 C   0  0  0  0  0  0  0  0  0  0  0  0
  -30.8746  -14.5009   20.7514 C   0  0  0  0  0  0  0  0  0  0  0  0
  -35.5424  -29.5786   21.3978 C   0  0  0  0  0  0  0  0  0  0  0  0
  -31.1002  -25.9914   18.2640 C   0  0  0  0  0  0  0  0  0  0  0  0
  -28.3591  -26.2241   19.3487 C   0  0  0  0  0  0  0  0  0  0  0  0
  -34.1957  -30.1525   20.9649 C   0  0  0  0  0  0  0  0  0  0  0  0
  -29.4910  -12.5834   18.0895 C   0  0  0  0  0  0  0  0  0  0  0  0
  -33.0659  -29.5424   21.7885 C   0  0  0  0  0  0  0  0  0  0  0  0
  -28.0682  -12.2772   18.5604 C   0  0  0  0  0  0  0  0  0  0  0  0
  -26.9756  -20.6523   23.8099 C   0  0  0  0  0  0  0  0  0  0  0  0
  -30.4844  -12.5702   19.2492 C   0  0  0  0  0  0  0  0  0  0  0  0
  -28.7015  -13.1357   20.8540 C   0  0  0  0  0  0  0  0  0  0  0  0
  -28.4573  -20.4263   23.6005 C   0  0  2  0  0  0  0  0  0  0  0  0
  -32.9883  -28.0252   21.5800 C   0  0  1  0  0  0  0  0  0  0  0  0
  -30.5427  -27.3224   18.7589 C   0  0  1  0  0  0  0  0  0  0  0  0
  -27.5156  -20.5146   22.4176 C   0  0  2  0  0  0  0  0  0  0  0  0
  -27.6548  -13.1929   19.7283 C   0  0  2  0  0  0  0  0  0  0  0  0
  -30.7704  -15.3228   24.9758 C   0  0  0  0  0  0  0  0  0  0  0  0
  -23.6866  -28.5880   15.3833 C   0  0  0  0  0  0  0  0  0  0  0  0
  -27.1883  -29.6728   20.8999 C   0  0  0  0  0  0  0  0  0  0  0  0
  -24.9869  -29.7368   19.7090 C   0  0  0  0  0  0  0  0  0  0  0  0
  -26.8971  -31.1044   18.8700 C   0  0  0  0  0  0  0  0  0  0  0  0
  -26.2614  -25.9708   14.3851 C   0  0  0  0  0  0  0  0  0  0  0  0
  -31.1129  -16.4162   22.3115 C   0  0  0  0  0  0  0  0  0  0  0  0
  -27.5604  -21.6970   21.5120 C   0  0  0  0  0  0  0  0  0  1  0  0
  -26.9420  -28.5947   18.5668 C   0  0  1  0  0  0  0  0  0  0  0  0
  -25.0636  -27.9440   15.3392 C   0  0  2  0  0  0  0  0  0  0  0  0
  -26.5181  -29.7528   19.5137 C   0  0  0  0  0  0  0  0  0  0  0  0
  -25.8305  -11.5939   20.1731 N   0  0  0  0  0  0  0  0  0  0  0  0
  -26.2601  -12.8660   20.2293 N   0  0  0  0  0  0  0  0  0  0  0  0
  -29.0789  -27.3603   18.7502 N   0  0  0  0  0  0  0  0  0  0  0  0
  -30.0347  -13.4599   20.3225 N   0  0  0  0  0  0  0  0  0  0  0  0
  -25.6157  -15.0502   20.8810 N   0  0  0  0  0  0  0  0  0  0  0  0
  -21.9909  -12.5510   21.8862 N   0  0  0  0  0  0  0  0  0  0  0  0
  -32.3521  -27.7206   20.3163 N   0  0  0  0  0  0  0  0  0  0  0  0
  -26.3436  -28.6601   17.2379 N   0  0  0  0  0  0  0  0  0  0  0  0
  -30.3692  -15.3014   21.7685 N   0  0  0  0  0  0  0  0  0  0  0  0
  -24.9727  -26.6953   14.5308 N   0  3  0  0  0  0  0  0  0  0  0  0
  -22.8502  -14.6770   21.9054 O   0  0  0  0  0  0  0  0  0  0  0  0
  -30.1380  -27.8299   21.0291 O   0  0  0  0  0  0  0  0  0  0  0  0
  -29.0098  -29.5107   17.8515 O   0  0  0  0  0  0  0  0  0  0  0  0
  -25.3104  -26.5858   17.3220 O   0  0  0  0  0  0  0  0  0  0  0  0
  -31.9899  -14.7053   20.2603 O   0  0  0  0  0  0  0  0  0  0  0  0
  -21.4602   -7.0593   21.1147 O   0  0  0  0  0  0  0  0  0  0  0  0
  -28.5060  -21.4637   20.4691 O   0  0  0  0  0  0  0  0  0  1  0  0
  -18.7333   -6.2585   25.8398 F   0  0  0  0  0  0  0  0  0  0  0  0
  -21.9258   -4.8133   22.6579 F   0  0  0  0  0  0  0  0  0  0  0  0
  -29.2011  -16.7619   27.1797 Cl  0  0  0  0  0  0  0  0  0  0  0  0
  1  2  1  0  0  0  0
  1  5  2  0  0  0  0
  2  6  2  0  0  0  0
  3  8  2  0  0  0  0
  3 17  1  0  0  0  0
  4  9  1  0  0  0  0
  4 17  2  0  0  0  0
  5 19  1  0  0  0  0
  6 21  1  0  0  0  0
  7 10  2  0  0  0  0
  7 20  1  0  0  0  0
  8 26  1  0  0  0  0
  9 26  2  0  0  0  0
 10 27  1  0  0  0  0
 11 12  2  0  0  0  0
 11 28  1  0  0  0  0
 12 29  1  0  0  0  0
 13 22  2  0  0  0  0
 13 24  1  0  0  0  0
 14 23  1  0  0  0  0
 14 27  2  0  0  0  0
 15 22  1  0  0  0  0
 15 31  2  0  0  0  0
 16 29  2  0  0  0  0
 16 30  1  0  0  0  0
 17 32  1  0  0  0  0
 18 32  1  0  0  0  0
 18 33  2  0  0  0  0
 18 34  1  0  0  0  0
 19 21  2  0  0  0  0
 19 39  1  0  0  0  0
 20 23  2  0  0  0  0
 20 40  1  0  0  0  0
 21 50  1  0  0  0  0
 22 49  1  0  0  0  0
 23 41  1  0  0  0  0
 24 25  2  0  0  0  0
 24 60  1  0  0  0  0
 25 31  1  0  0  0  0
 25 54  1  0  0  0  0
 26 80  1  0  0  0  0
 27 81  1  0  0  0  0
 28 30  2  0  0  0  0
 28 80  1  0  0  0  0
 29 82  1  0  0  0  0
 30 83  1  0  0  0  0
 31 84  1  0  0  0  0
 32 65  2  0  0  0  0
 33 66  1  0  0  0  0
 33 69  1  0  0  0  0
 34 70  1  0  0  0  0
 34 75  2  0  0  0  0
 35 51  1  0  0  0  0
 35 71  1  0  0  0  0
 35 76  2  0  0  0  0
 36 62  1  0  0  0  0
 36 67  1  0  0  0  0
 36 77  2  0  0  0  0
 37 63  1  0  0  0  0
 37 72  1  0  0  0  0
 37 78  2  0  0  0  0
 38 68  1  0  0  0  0
 38 73  1  0  0  0  0
 38 79  2  0  0  0  0
 39 42  1  0  0  0  0
 40 51  1  0  0  0  0
 41 67  1  0  0  0  0
 42 44  1  0  0  0  0
 43 45  1  0  0  0  0
 43 47  1  0  0  0  0
 44 50  1  0  0  0  0
 45 53  1  0  0  0  0
 46 49  1  0  0  0  0
 46 52  1  0  0  0  0
 47 68  1  0  0  0  0
 48 53  1  0  0  0  0
 48 68  1  0  0  0  0
 49 52  1  0  0  0  0
 50 71  1  0  0  0  0
 51 67  1  0  0  0  0
 52 61  1  0  0  0  0
 53 66  1  0  0  0  0
 55 63  1  0  0  0  0
 56 64  1  0  0  0  0
 57 64  1  0  0  0  0
 58 64  1  0  0  0  0
 59 74  1  0  0  0  0
 60 73  1  0  0  0  0
 61 81  1  0  0  0  0
 62 64  1  0  0  0  0
 62 72  1  0  0  0  0
 63 74  1  0  0  0  0
 65 66  1  0  0  0  0
M  CHG  1  74   1
M  ISO  4  38 100  61 101  73 100  81 101
M  END
> <Batch ID>
0171

> <Smiles>
CNC(C)C(=O)NC(C(=O)N1Cc2cc([101O:1][101CH2:1]C3CC3c3cc(Cl)c(C)c(C[100NH:0][100C:0](=O)N4CCCC(n5nc(-c6ccc(Oc7ccc(F)cc7F)cc6)c(C(N)=O)c5N)C4)c3)ccc2CC1C(=O)NC1CCCc2ccccc21)C(C)(C)C

> <Shape>
0.272

> <Color>
0.179

> <Negative vol penalty>
0.000

$$$$

  -OEChem-04052322373D

 86 95  0     1  0  0  0  0  0999 V2000
  -28.4354  -37.1204   19.3634 C   0  0  0  0  0  0  0  0  0  0  0  0
  -28.8416  -35.8255   19.0573 C   0  0  0  0  0  0  0  0  0  0  0  0
  -24.6875   -9.2215   21.7207 C   0  0  0  0  0  0  0  0  0  0  0  0
  -23.5369  -11.0229   22.8468 C   0  0  0  0  0  0  0  0  0  0  0  0
  -27.6334  -37.3526   20.4800 C   0  0  0  0  0  0  0  0  0  0  0  0
  -28.4468  -34.7621   19.8683 C   0  0  0  0  0  0  0  0  0  0  0  0
  -26.7498  -27.8108   19.5265 C   0  0  0  0  0  0  0  0  0  0  0  0
  -24.1453   -8.3093   22.6259 C   0  0  0  0  0  0  0  0  0  0  0  0
  -22.9947  -10.1107   23.7521 C   0  0  0  0  0  0  0  0  0  0  0  0
  -27.0804  -26.5912   20.1155 C   0  0  0  0  0  0  0  0  0  0  0  0
  -21.1952   -6.7276   23.1033 C   0  0  0  0  0  0  0  0  0  0  0  0
  -20.6683   -5.5418   22.5916 C   0  0  0  0  0  0  0  0  0  0  0  0
  -25.6290  -27.1017   21.9734 C   0  0  0  0  0  0  0  0  0  0  0  0
  -22.2471   -4.2723   23.9081 C   0  0  0  0  0  0  0  0  0  0  0  0
  -24.3833  -10.5784   21.8311 C   0  0  0  0  0  0  0  0  0  0  0  0
  -24.3893  -11.9342   19.6703 C   0  0  0  0  0  0  0  0  0  0  0  0
  -27.2205  -36.2903   21.2996 C   0  0  0  0  0  0  0  0  0  0  0  0
  -25.8631  -28.6914   20.1629 C   0  0  0  0  0  0  0  0  0  0  0  0
  -27.6395  -34.9804   20.9976 C   0  0  0  0  0  0  0  0  0  0  0  0
  -25.2867  -28.3308   21.3892 C   0  0  0  0  0  0  0  0  0  0  0  0
  -23.2989   -8.7539   23.6416 C   0  0  0  0  0  0  0  0  0  0  0  0
  -26.5223  -26.2377   21.3405 C   0  0  0  0  0  0  0  0  0  0  0  0
  -22.2480   -6.6858   24.0173 C   0  0  0  0  0  0  0  0  0  0  0  0
  -21.1943   -4.3141   22.9940 C   0  0  0  0  0  0  0  0  0  0  0  0
  -22.7740   -5.4582   24.4197 C   0  0  0  0  0  0  0  0  0  0  0  0
  -24.9436  -11.5213   20.8967 C   0  0  0  0  0  0  0  0  0  0  0  0
  -25.2994  -12.8313   19.1669 C   0  0  0  0  0  0  0  0  0  0  0  0
  -23.1615  -11.5420   19.0423 C   0  0  0  0  0  0  0  0  0  0  0  0
  -26.0760  -31.6474   21.3120 C   0  0  0  0  0  0  0  0  0  0  0  0
  -22.8847  -31.2833   21.7656 C   0  0  0  0  0  0  0  0  0  0  0  0
  -20.2440  -29.1671   22.2071 C   0  0  0  0  0  0  0  0  0  0  0  0
  -28.7486  -17.1654   19.8479 C   0  0  0  0  0  0  0  0  0  0  0  0
  -26.3928  -36.5963   22.5226 C   0  0  0  0  0  0  0  0  0  0  0  0
  -25.4960  -29.9915   19.5016 C   0  0  0  0  0  0  0  0  0  0  0  0
  -24.3139  -29.2318   22.1035 C   0  0  0  0  0  0  0  0  0  0  0  0
  -25.7083  -35.3684   23.1177 C   0  0  0  0  0  0  0  0  0  0  0  0
  -30.0055  -13.9342   20.6579 C   0  0  0  0  0  0  0  0  0  0  0  0
  -26.6919  -34.2072   23.2225 C   0  0  0  0  0  0  0  0  0  0  0  0
  -27.8759  -19.6147   15.9842 C   0  0  0  0  0  0  0  0  0  0  0  0
  -28.5025  -18.2547   16.1165 C   0  0  0  0  0  0  0  0  0  0  0  0
  -26.1088  -21.5259   20.9551 C   0  0  0  0  0  0  0  0  0  0  0  0
  -26.5973  -22.2083   22.2306 C   0  0  0  0  0  0  0  0  0  0  0  0
  -28.7547  -13.0544   20.6971 C   0  0  0  0  0  0  0  0  0  0  0  0
  -28.5089  -21.2465   20.1937 C   0  0  0  0  0  0  0  0  0  0  0  0
  -29.7276  -15.3347   21.1994 C   0  0  0  0  0  0  0  0  0  0  0  0
  -27.3437  -15.1518   20.6016 C   0  0  0  0  0  0  0  0  0  0  0  0
  -27.2114  -33.7977   21.8390 C   0  0  1  0  0  0  0  0  0  0  0  0
  -24.9798  -31.0372   20.4851 C   0  0  1  0  0  0  0  0  0  0  0  0
  -27.3723  -18.6531   17.0247 C   0  0  0  0  0  0  0  0  0  0  0  0
  -27.1500  -20.5554   20.3886 C   0  0  2  0  0  0  0  0  0  0  0  0
  -27.9521  -22.9216   22.0499 C   0  0  1  0  0  0  0  0  0  0  0  0
  -27.5604  -13.7470   20.0135 C   0  0  2  0  0  0  0  0  0  0  0  0
  -29.0366  -21.9584   21.4652 C   0  0  0  0  0  0  0  0  0  0  0  0
  -29.4288  -20.9064   22.5302 C   0  0  0  0  0  0  0  0  0  0  0  0
  -30.3298  -22.7183   21.0993 C   0  0  0  0  0  0  0  0  0  0  0  0
  -17.7637  -29.1650   22.5891 C   0  0  0  0  0  0  0  0  0  0  0  0
  -23.3349  -32.0754   24.6776 C   0  0  0  0  0  0  0  0  0  0  0  0
  -21.0692  -31.1508   25.2067 C   0  0  0  0  0  0  0  0  0  0  0  0
  -21.2939  -33.0703   23.6294 C   0  0  0  0  0  0  0  0  0  0  0  0
  -19.7412  -27.6881   19.6934 C   0  0  0  0  0  0  0  0  0  0  0  0
  -27.7532  -24.2060   21.2280 C   0  0  0  0  0  0  0  0  0  1  0  0
  -22.0165  -30.7644   22.8863 C   0  0  1  0  0  0  0  0  0  0  0  0
  -18.8754  -29.1139   21.5525 C   0  0  2  0  0  0  0  0  0  0  0  0
  -27.6295  -18.9127   18.4864 C   0  0  1  0  0  0  0  0  0  0  0  0
  -26.6604  -19.9563   19.0695 C   0  0  1  0  0  0  0  0  0  0  0  0
  -21.9484  -31.7489   24.0877 C   0  0  0  0  0  0  0  0  0  0  0  0
  -26.1151  -12.1077   21.1565 N   0  0  0  0  0  0  0  0  0  0  0  0
  -26.3045  -12.8983   20.0864 N   0  0  0  0  0  0  0  0  0  0  0  0
  -23.9914  -30.4950   21.4196 N   0  0  0  0  0  0  0  0  0  0  0  0
  -28.5848  -15.9365   20.5083 N   0  0  0  0  0  0  0  0  0  0  0  0
  -25.3300  -13.5614   18.0318 N   0  0  0  0  0  0  0  0  0  0  0  0
  -22.3443  -10.6101   19.6966 N   0  0  0  0  0  0  0  0  0  0  0  0
  -26.2188  -33.0109   21.1390 N   0  0  0  0  0  0  0  0  0  0  0  0
  -20.7205  -30.4583   22.2904 N   0  0  0  0  0  0  0  0  0  0  0  0
  -27.6171  -17.6626   19.2129 N   0  0  0  0  0  0  0  0  0  0  0  0
  -25.3226  -19.3467   19.3146 N   0  3  0  0  0  0  0  0  0  0  0  0
  -18.7263  -27.8575   20.7650 N   0  3  0  0  0  0  0  0  0  0  0  0
  -22.8076  -11.9919   17.9261 O   0  0  0  0  0  0  0  0  0  0  0  0
  -26.7419  -30.9341   22.0534 O   0  0  0  0  0  0  0  0  0  0  0  0
  -22.5878  -32.3452   21.2127 O   0  0  0  0  0  0  0  0  0  0  0  0
  -20.8299  -28.1639   22.6081 O   0  0  0  0  0  0  0  0  0  0  0  0
  -29.8249  -17.7718   19.8214 O   0  0  0  0  0  0  0  0  0  0  0  0
  -22.7695   -7.8640   24.5250 O   0  0  0  0  0  0  0  0  0  0  0  0
  -26.8472  -25.0359   21.9238 O   0  0  0  0  0  0  0  0  0  1  0  0
  -20.6872   -3.1754   22.5037 F   0  0  0  0  0  0  0  0  0  0  0  0
  -23.7847   -5.4117   25.2984 F   0  0  0  0  0  0  0  0  0  0  0  0
  1  2  1  0  0  0  0
  1  5  2  0  0  0  0
  2  6  2  0  0  0  0
  3  8  2  0  0  0  0
  3 15  1  0  0  0  0
  4  9  1  0  0  0  0
  4 15  2  0  0  0  0
  5 17  1  0  0  0  0
  6 19  1  0  0  0  0
  7 10  2  0  0  0  0
  7 18  1  0  0  0  0
  8 21  1  0  0  0  0
  9 21  2  0  0  0  0
 10 22  1  0  0  0  0
 11 12  2  0  0  0  0
 11 23  1  0  0  0  0
 12 24  1  0  0  0  0
 13 20  1  0  0  0  0
 13 22  2  0  0  0  0
 14 24  2  0  0  0  0
 14 25  1  0  0  0  0
 15 26  1  0  0  0  0
 16 26  1  0  0  0  0
 16 27  2  0  0  0  0
 16 28  1  0  0  0  0
 17 19  2  0  0  0  0
 17 33  1  0  0  0  0
 18 20  2  0  0  0  0
 18 34  1  0  0  0  0
 19 47  1  0  0  0  0
 20 35  1  0  0  0  0
 21 83  1  0  0  0  0
 22 84  1  0  0  0  0
 23 25  2  0  0  0  0
 23 83  1  0  0  0  0
 24 85  1  0  0  0  0
 25 86  1  0  0  0  0
 26 67  2  0  0  0  0
 27 68  1  0  0  0  0
 27 71  1  0  0  0  0
 28 72  1  0  0  0  0
 28 78  2  0  0  0  0
 29 48  1  0  0  0  0
 29 73  1  0  0  0  0
 29 79  2  0  0  0  0
 30 62  1  0  0  0  0
 30 69  1  0  0  0  0
 30 80  2  0  0  0  0
 31 63  1  0  0  0  0
 31 74  1  0  0  0  0
 31 81  2  0  0  0  0
 32 70  1  0  0  0  0
 32 75  1  0  0  0  0
 32 82  2  0  0  0  0
 33 36  1  0  0  0  0
 34 48  1  0  0  0  0
 35 69  1  0  0  0  0
 36 38  1  0  0  0  0
 37 43  1  0  0  0  0
 37 45  1  0  0  0  0
 38 47  1  0  0  0  0
 39 40  1  0  0  0  0
 39 49  1  0  0  0  0
 40 49  1  0  0  0  0
 41 42  1  0  0  0  0
 41 50  1  0  0  0  0
 42 51  1  0  0  0  0
 43 52  1  0  0  0  0
 44 50  1  0  0  0  0
 44 53  1  0  0  0  0
 45 70  1  0  0  0  0
 46 52  1  0  0  0  0
 46 70  1  0  0  0  0
 47 73  1  0  0  0  0
 48 69  1  0  0  0  0
 49 64  1  0  0  0  0
 50 65  1  0  0  0  0
 51 53  1  0  0  0  0
 51 61  1  0  0  0  0
 52 68  1  0  0  0  0
 53 54  1  0  0  0  0
 53 55  1  0  0  0  0
 56 63  1  0  0  0  0
 57 66  1  0  0  0  0
 58 66  1  0  0  0  0
 59 66  1  0  0  0  0
 60 77  1  0  0  0  0
 61 84  1  0  0  0  0
 62 66  1  0  0  0  0
 62 74  1  0  0  0  0
 63 77  1  0  0  0  0
 64 65  1  0  0  0  0
 64 75  1  0  0  0  0
 65 76  1  0  0  0  0
 67 68  1  0  0  0  0
M  CHG  2  76   1  77   1
M  ISO  4  32 100  61 101  75 100  84 101
M  END
> <Batch ID>
0171

> <Smiles>
CNC(C)C(=O)NC(C(=O)N1Cc2cc([101O:1][101CH2:1]C3CCC(C(N)C([100NH:0][100C:0](=O)N4CCCC(n5nc(-c6ccc(Oc7ccc(F)cc7F)cc6)c(C(N)=O)c5N)C4)C4CC4)CC3(C)C)ccc2CC1C(=O)NC1CCCc2ccccc21)C(C)(C)C

> <Shape>
0.287

> <Color>
0.080

> <Negative vol penalty>
0.000

$$$$

  -OEChem-04052322373D

 86 95  0     1  0  0  0  0  0999 V2000
  -20.2504  -11.6446   18.2374 C   0  0  0  0  0  0  0  0  0  0  0  0
  -20.6292  -12.9630   18.0056 C   0  0  0  0  0  0  0  0  0  0  0  0
  -19.3062  -28.6604   23.5618 C   0  0  0  0  0  0  0  0  0  0  0  0
  -20.7637  -27.2789   22.2185 C   0  0  0  0  0  0  0  0  0  0  0  0
  -20.9468  -10.8736   19.1672 C   0  0  0  0  0  0  0  0  0  0  0  0
  -21.7040  -13.5116   18.7045 C   0  0  0  0  0  0  0  0  0  0  0  0
  -27.0420  -18.2262   17.9337 C   0  0  0  0  0  0  0  0  0  0  0  0
  -18.1938  -28.0587   22.9736 C   0  0  0  0  0  0  0  0  0  0  0  0
  -19.6512  -26.6771   21.6303 C   0  0  0  0  0  0  0  0  0  0  0  0
  -27.5933  -19.3415   18.5631 C   0  0  0  0  0  0  0  0  0  0  0  0
  -16.4798  -28.2929   20.0699 C   0  0  0  0  0  0  0  0  0  0  0  0
  -15.4380  -29.1229   19.6560 C   0  0  0  0  0  0  0  0  0  0  0  0
  -28.7723  -17.8908   20.0877 C   0  0  0  0  0  0  0  0  0  0  0  0
  -31.0869  -26.9876   20.5885 C   0  0  0  0  0  0  0  0  0  0  0  0
  -28.7808  -27.1394   21.2543 C   0  0  0  0  0  0  0  0  0  0  0  0
  -13.9275  -27.9718   21.1494 C   0  0  0  0  0  0  0  0  0  0  0  0
  -20.5912  -28.2706   23.1842 C   0  0  0  0  0  0  0  0  0  0  0  0
  -22.0798  -28.9021   25.1573 C   0  0  0  0  0  0  0  0  0  0  0  0
  -22.0367  -11.4100   19.8707 C   0  0  0  0  0  0  0  0  0  0  0  0
  -27.3437  -16.9330   18.3843 C   0  0  0  0  0  0  0  0  0  0  0  0
  -22.4148  -12.7474   19.6456 C   0  0  0  0  0  0  0  0  0  0  0  0
  -28.2256  -16.7607   19.4607 C   0  0  0  0  0  0  0  0  0  0  0  0
  -29.9107  -26.3702   20.9991 C   0  0  0  0  0  0  0  0  0  0  0  0
  -18.3663  -27.0670   22.0079 C   0  0  0  0  0  0  0  0  0  0  0  0
  -28.4563  -19.1740   19.6421 C   0  0  0  0  0  0  0  0  0  0  0  0
  -16.2454  -27.3022   21.0235 C   0  0  0  0  0  0  0  0  0  0  0  0
  -14.1619  -28.9624   20.1957 C   0  0  0  0  0  0  0  0  0  0  0  0
  -14.9693  -27.1417   21.5633 C   0  0  0  0  0  0  0  0  0  0  0  0
  -21.7408  -28.8922   23.7910 C   0  0  0  0  0  0  0  0  0  0  0  0
  -31.0814  -28.3661   20.4492 C   0  0  0  0  0  0  0  0  0  0  0  0
  -28.8786  -28.5111   21.0854 C   0  0  0  0  0  0  0  0  0  0  0  0
  -23.2511  -29.6170   25.2153 C   0  0  0  0  0  0  0  0  0  0  0  0
  -21.3970  -28.3172   26.2741 C   0  0  0  0  0  0  0  0  0  0  0  0
  -25.6530  -14.5261   19.5892 C   0  0  0  0  0  0  0  0  0  0  0  0
  -28.4771  -12.9454   19.3700 C   0  0  0  0  0  0  0  0  0  0  0  0
  -31.8833  -13.1047   19.2309 C   0  0  0  0  0  0  0  0  0  0  0  0
  -27.5914  -30.6707   21.2458 C   0  0  0  0  0  0  0  0  0  0  0  0
  -22.7291  -10.5525   20.9004 C   0  0  0  0  0  0  0  0  0  0  0  0
  -26.7618  -15.7395   17.6777 C   0  0  0  0  0  0  0  0  0  0  0  0
  -28.5974  -15.3930   19.9701 C   0  0  0  0  0  0  0  0  0  0  0  0
  -24.0918  -11.0928   21.3262 C   0  0  0  0  0  0  0  0  0  0  0  0
  -25.6265  -33.1032   22.9485 C   0  0  0  0  0  0  0  0  0  0  0  0
  -28.9342  -24.3385   22.2811 C   0  0  0  0  0  0  0  0  0  0  0  0
  -24.0062  -12.5877   21.6172 C   0  0  0  0  0  0  0  0  0  0  0  0
  -28.5861  -22.8989   21.8933 C   0  0  0  0  0  0  0  0  0  0  0  0
  -24.4410  -32.2992   23.4873 C   0  0  0  0  0  0  0  0  0  0  0  0
  -26.0696  -32.6077   21.5731 C   0  0  0  0  0  0  0  0  0  0  0  0
  -25.1611  -30.3639   22.0302 C   0  0  0  0  0  0  0  0  0  0  0  0
  -29.8603  -24.8661   21.1679 C   0  0  1  0  0  0  0  0  0  0  0  0
  -23.5908  -13.3705   20.3658 C   0  0  1  0  0  0  0  0  0  0  0  0
  -26.7340  -14.4857   18.5464 C   0  0  1  0  0  0  0  0  0  0  0  0
  -29.3227  -22.6201   20.5766 C   0  0  2  0  0  0  0  0  0  0  0  0
  -24.7205  -30.7841   23.4419 C   0  0  2  0  0  0  0  0  0  0  0  0
  -29.4832  -24.0178   19.9148 C   0  0  0  0  0  0  0  0  0  0  0  0
  -32.3264  -29.0627   20.0110 C   0  0  0  0  0  0  0  0  0  0  0  0
  -28.1905  -24.4916   19.2227 C   0  0  0  0  0  0  0  0  0  0  0  0
  -30.6160  -24.0058   18.8766 C   0  0  0  0  0  0  0  0  0  0  0  0
  -33.9196  -11.6447   19.0928 C   0  0  0  0  0  0  0  0  0  0  0  0
  -28.1670  -12.2379   22.3218 C   0  0  0  0  0  0  0  0  0  0  0  0
  -30.5965  -11.6340   22.3605 C   0  0  0  0  0  0  0  0  0  0  0  0
  -29.0239  -10.3770   20.8875 C   0  0  0  0  0  0  0  0  0  0  0  0
  -32.7049  -14.2962   16.6493 C   0  0  0  0  0  0  0  0  0  0  0  0
  -28.6333  -21.5432   19.7478 C   0  0  0  0  0  0  0  0  0  1  0  0
  -29.6644  -12.7463   20.2809 C   0  0  1  0  0  0  0  0  0  0  0  0
  -32.8860  -12.4369   18.3073 C   0  0  2  0  0  0  0  0  0  0  0  0
  -29.3546  -11.7748   21.4546 C   0  0  0  0  0  0  0  0  0  0  0  0
  -22.6252  -29.5489   23.0355 N   0  0  0  0  0  0  0  0  0  0  0  0
  -30.0037  -29.1466   20.6880 N   0  0  0  0  0  0  0  0  0  0  0  0
  -23.5314  -29.9782   23.9303 N   0  0  0  0  0  0  0  0  0  0  0  0
  -27.9977  -14.2575   19.2500 N   0  0  0  0  0  0  0  0  0  0  0  0
  -26.3204  -31.1652   21.6074 N   0  0  0  0  0  0  0  0  0  0  0  0
  -24.0582  -29.9658   26.2396 N   0  0  0  0  0  0  0  0  0  0  0  0
  -21.7214  -27.0044   26.6427 N   0  0  0  0  0  0  0  0  0  0  0  0
  -27.7219  -29.2861   21.3485 N   0  0  0  0  0  0  0  0  0  0  0  0
  -24.7148  -13.5190   19.4663 N   0  0  0  0  0  0  0  0  0  0  0  0
  -30.7672  -12.3191   19.4266 N   0  0  0  0  0  0  0  0  0  0  0  0
  -33.5989  -13.4594   17.4905 N   0  3  0  0  0  0  0  0  0  0  0  0
  -20.5133  -28.9344   26.9157 O   0  0  0  0  0  0  0  0  0  0  0  0
  -25.6697  -15.4049   20.4431 O   0  0  0  0  0  0  0  0  0  0  0  0
  -27.9973  -11.9736   18.7809 O   0  0  0  0  0  0  0  0  0  0  0  0
  -32.0729  -14.2109   19.7317 O   0  0  0  0  0  0  0  0  0  0  0  0
  -28.5056  -31.4228   20.8987 O   0  0  0  0  0  0  0  0  0  0  0  0
  -17.2809  -26.4795   21.4340 O   0  0  0  0  0  0  0  0  0  0  0  0
  -28.9952  -20.2609   20.2586 O   0  0  0  0  0  0  0  0  0  1  0  0
  -13.1619  -29.7606   19.7993 F   0  0  0  0  0  0  0  0  0  0  0  0
  -14.7383  -26.1926   22.4806 F   0  0  0  0  0  0  0  0  0  0  0  0
  1  2  1  0  0  0  0
  1  5  2  0  0  0  0
  2  6  2  0  0  0  0
  3  8  2  0  0  0  0
  3 17  1  0  0  0  0
  4  9  1  0  0  0  0
  4 17  2  0  0  0  0
  5 19  1  0  0  0  0
  6 21  1  0  0  0  0
  7 10  2  0  0  0  0
  7 20  1  0  0  0  0
  8 24  1  0  0  0  0
  9 24  2  0  0  0  0
 10 25  1  0  0  0  0
 11 12  2  0  0  0  0
 11 26  1  0  0  0  0
 12 27  1  0  0  0  0
 13 22  1  0  0  0  0
 13 25  2  0  0  0  0
 14 23  1  0  0  0  0
 14 30  2  0  0  0  0
 15 23  2  0  0  0  0
 15 31  1  0  0  0  0
 16 27  2  0  0  0  0
 16 28  1  0  0  0  0
 17 29  1  0  0  0  0
 18 29  1  0  0  0  0
 18 32  2  0  0  0  0
 18 33  1  0  0  0  0
 19 21  2  0  0  0  0
 19 38  1  0  0  0  0
 20 22  2  0  0  0  0
 20 39  1  0  0  0  0
 21 50  1  0  0  0  0
 22 40  1  0  0  0  0
 23 49  1  0  0  0  0
 24 83  1  0  0  0  0
 25 84  1  0  0  0  0
 26 28  2  0  0  0  0
 26 83  1  0  0  0  0
 27 85  1  0  0  0  0
 28 86  1  0  0  0  0
 29 67  2  0  0  0  0
 30 55  1  0  0  0  0
 30 68  1  0  0  0  0
 31 68  2  0  0  0  0
 31 74  1  0  0  0  0
 32 69  1  0  0  0  0
 32 72  1  0  0  0  0
 33 73  1  0  0  0  0
 33 78  2  0  0  0  0
 34 51  1  0  0  0  0
 34 75  1  0  0  0  0
 34 79  2  0  0  0  0
 35 64  1  0  0  0  0
 35 70  1  0  0  0  0
 35 80  2  0  0  0  0
 36 65  1  0  0  0  0
 36 76  1  0  0  0  0
 36 81  2  0  0  0  0
 37 71  1  0  0  0  0
 37 74  1  0  0  0  0
 37 82  2  0  0  0  0
 38 41  1  0  0  0  0
 39 51  1  0  0  0  0
 40 70  1  0  0  0  0
 41 44  1  0  0  0  0
 42 46  1  0  0  0  0
 42 47  1  0  0  0  0
 43 45  1  0  0  0  0
 43 49  1  0  0  0  0
 44 50  1  0  0  0  0
 45 52  1  0  0  0  0
 46 53  1  0  0  0  0
 47 71  1  0  0  0  0
 48 53  1  0  0  0  0
 48 71  1  0  0  0  0
 49 54  1  0  0  0  0
 50 75  1  0  0  0  0
 51 70  1  0  0  0  0
 52 54  1  0  0  0  0
 52 63  1  0  0  0  0
 53 69  1  0  0  0  0
 54 56  1  0  0  0  0
 54 57  1  0  0  0  0
 58 65  1  0  0  0  0
 59 66  1  0  0  0  0
 60 66  1  0  0  0  0
 61 66  1  0  0  0  0
 62 77  1  0  0  0  0
 63 84  1  0  0  0  0
 64 66  1  0  0  0  0
 64 76  1  0  0  0  0
 65 77  1  0  0  0  0
 67 69  1  0  0  0  0
M  CHG  1  77   1
M  ISO  4  37 100  63 101  74 100  84 101
M  END
> <Batch ID>
0171

> <Smiles>
CNC(C)C(=O)NC(C(=O)N1Cc2cc([101O:1][101CH2:1]C3CCC(c4cc(C)nc([100NH:0][100C:0](=O)N5CCCC(n6nc(-c7ccc(Oc8ccc(F)cc8F)cc7)c(C(N)=O)c6N)C5)c4)C3(C)C)ccc2CC1C(=O)NC1CCCc2ccccc21)C(C)(C)C

> <Shape>
0.304

> <Color>
0.068

> <Negative vol penalty>
0.000

$$$$

  -OEChem-04052322373D

 82 91  0     1  0  0  0  0  0999 V2000
  -29.1031  -34.6020   25.8747 C   0  0  0  0  0  0  0  0  0  0  0  0
  -29.2799  -33.4073   25.1842 C   0  0  0  0  0  0  0  0  0  0  0  0
  -24.1248   -9.6645   21.2519 C   0  0  0  0  0  0  0  0  0  0  0  0
  -24.6559  -10.6255   23.4040 C   0  0  0  0  0  0  0  0  0  0  0  0
  -27.8388  -34.9527   26.3465 C   0  0  0  0  0  0  0  0  0  0  0  0
  -28.1925  -32.5621   24.9659 C   0  0  0  0  0  0  0  0  0  0  0  0
  -27.1924  -29.0438   20.0539 C   0  0  0  0  0  0  0  0  0  0  0  0
  -23.6976   -8.4945   21.8798 C   0  0  0  0  0  0  0  0  0  0  0  0
  -24.2286   -9.4555   24.0319 C   0  0  0  0  0  0  0  0  0  0  0  0
  -27.4135  -27.6891   19.8098 C   0  0  0  0  0  0  0  0  0  0  0  0
  -20.9564   -7.4170   23.5404 C   0  0  0  0  0  0  0  0  0  0  0  0
  -19.7559   -6.8518   23.1104 C   0  0  0  0  0  0  0  0  0  0  0  0
  -25.1201  -27.2165   20.3894 C   0  0  0  0  0  0  0  0  0  0  0  0
  -20.9256   -4.8251   22.5090 C   0  0  0  0  0  0  0  0  0  0  0  0
  -24.6040  -10.7300   22.0140 C   0  0  0  0  0  0  0  0  0  0  0  0
  -24.2676  -13.0692   21.0535 C   0  0  0  0  0  0  0  0  0  0  0  0
  -26.7336  -34.1159   26.1254 C   0  0  0  0  0  0  0  0  0  0  0  0
  -25.9343  -29.4944   20.4789 C   0  0  0  0  0  0  0  0  0  0  0  0
  -26.9125  -32.9013   25.4363 C   0  0  0  0  0  0  0  0  0  0  0  0
  -24.8849  -28.5777   20.6358 C   0  0  0  0  0  0  0  0  0  0  0  0
  -23.7494   -8.3900   23.2698 C   0  0  0  0  0  0  0  0  0  0  0  0
  -26.3781  -26.7748   19.9803 C   0  0  0  0  0  0  0  0  0  0  0  0
  -22.1415   -6.6863   23.4547 C   0  0  0  0  0  0  0  0  0  0  0  0
  -19.7405   -5.5559   22.5947 C   0  0  0  0  0  0  0  0  0  0  0  0
  -22.1261   -5.3904   22.9390 C   0  0  0  0  0  0  0  0  0  0  0  0
  -25.0461  -11.9386   21.3660 C   0  0  0  0  0  0  0  0  0  0  0  0
  -25.1467  -13.9354   20.4507 C   0  0  0  0  0  0  0  0  0  0  0  0
  -22.8745  -13.3145   21.2873 C   0  0  0  0  0  0  0  0  0  0  0  0
  -24.8359  -30.9562   23.0789 C   0  0  0  0  0  0  0  0  0  0  0  0
  -22.0769  -31.0666   21.3766 C   0  0  0  0  0  0  0  0  0  0  0  0
  -20.1589  -29.7511   18.8790 C   0  0  0  0  0  0  0  0  0  0  0  0
  -30.1135  -16.4569   20.2181 C   0  0  0  0  0  0  0  0  0  0  0  0
  -25.3955  -34.5149   26.6955 C   0  0  0  0  0  0  0  0  0  0  0  0
  -25.7047  -30.9624   20.7123 C   0  0  0  0  0  0  0  0  0  0  0  0
  -23.5102  -29.0130   21.0707 C   0  0  0  0  0  0  0  0  0  0  0  0
  -24.2233  -33.7421   26.0964 C   0  0  0  0  0  0  0  0  0  0  0  0
  -29.8735  -13.2103   18.7989 C   0  0  0  0  0  0  0  0  0  0  0  0
  -24.5362  -32.2500   26.0485 C   0  0  0  0  0  0  0  0  0  0  0  0
  -28.5341  -12.6815   19.3150 C   0  0  0  0  0  0  0  0  0  0  0  0
  -28.0243  -22.2561   18.0144 C   0  0  0  0  0  0  0  0  0  0  0  0
  -30.5891  -14.0558   19.8502 C   0  0  0  0  0  0  0  0  0  0  0  0
  -28.4494  -14.6302   20.9263 C   0  0  0  0  0  0  0  0  0  0  0  0
  -28.2994  -19.7430   20.9456 C   0  0  0  0  0  0  0  0  0  0  0  0
  -29.4283  -19.4415   19.2204 C   0  0  0  0  0  0  0  0  0  0  0  0
  -25.7528  -31.9697   25.1581 C   0  0  1  0  0  0  0  0  0  0  0  0
  -24.5244  -31.2430   21.6373 C   0  0  1  0  0  0  0  0  0  0  0  0
  -27.2376  -22.6209   19.2454 C   0  0  1  0  0  0  0  0  0  0  0  0
  -27.6629  -13.8184   19.8827 C   0  0  2  0  0  0  0  0  0  0  0  0
  -29.4996  -18.8349   20.6313 C   0  0  0  0  0  0  0  0  0  0  0  0
  -27.6240  -21.1763   18.9949 C   0  0  1  0  0  0  0  0  0  0  0  0
  -26.5391  -20.2168   18.5996 C   0  0  0  0  0  0  0  0  0  0  0  0
  -17.9368  -30.0299   17.7469 C   0  0  0  0  0  0  0  0  0  0  0  0
  -27.1721  -23.2531   21.6609 C   0  0  0  0  0  0  0  0  0  0  0  0
  -20.7001  -29.7497   23.7599 C   0  0  0  0  0  0  0  0  0  0  0  0
  -18.7769  -29.1976   22.2550 C   0  0  0  0  0  0  0  0  0  0  0  0
  -19.3850  -31.5800   22.6760 C   0  0  0  0  0  0  0  0  0  0  0  0
  -21.4301  -30.3136   16.2662 C   0  0  0  0  0  0  0  0  0  0  0  0
  -27.9101  -24.9557   19.9700 C   0  0  0  0  0  0  0  0  0  1  0  0
  -20.8820  -30.1579   21.2170 C   0  0  1  0  0  0  0  0  0  0  0  0
  -19.4102  -30.4063   17.7325 C   0  0  2  0  0  0  0  0  0  0  0  0
  -27.8773  -23.4695   20.3455 C   0  0  2  0  0  0  0  0  0  0  0  0
  -19.9623  -30.1625   22.4706 C   0  0  0  0  0  0  0  0  0  0  0  0
  -26.3215  -12.0715   20.9925 N   0  0  0  0  0  0  0  0  0  0  0  0
  -26.3513  -13.2958   20.4389 N   0  0  0  0  0  0  0  0  0  0  0  0
  -23.3372  -30.4581   21.2926 N   0  0  0  0  0  0  0  0  0  0  0  0
  -29.7083  -15.1185   20.3416 N   0  0  0  0  0  0  0  0  0  0  0  0
  -24.9991  -15.1741   19.9348 N   0  0  0  0  0  0  0  0  0  0  0  0
  -22.1173  -12.3181   21.9182 N   0  0  0  0  0  0  0  0  0  0  0  0
  -25.3805  -32.0276   23.7608 N   0  0  0  0  0  0  0  0  0  0  0  0
  -20.2165  -30.5710   19.9862 N   0  0  0  0  0  0  0  0  0  0  0  0
  -29.2215  -17.4099   20.6987 N   0  0  0  0  0  0  0  0  0  0  0  0
  -28.7180  -20.5965   19.8121 N   0  3  0  0  0  0  0  0  0  0  0  0
  -19.9904  -29.9841   16.4264 N   0  3  0  0  0  0  0  0  0  0  0  0
  -22.3140  -14.3790   20.9319 O   0  0  0  0  0  0  0  0  0  0  0  0
  -24.5982  -29.8455   23.5390 O   0  0  0  0  0  0  0  0  0  0  0  0
  -21.8986  -32.2731   21.5615 O   0  0  0  0  0  0  0  0  0  0  0  0
  -20.6411  -28.6233   18.8015 O   0  0  0  0  0  0  0  0  0  0  0  0
  -31.1900  -16.7874   19.7090 O   0  0  0  0  0  0  0  0  0  0  0  0
  -23.3324   -7.2486   23.8828 O   0  0  0  0  0  0  0  0  0  0  0  0
  -26.5914  -25.4518   19.7433 O   0  0  0  0  0  0  0  0  0  1  0  0
  -18.5873   -5.0126   22.1831 F   0  0  0  0  0  0  0  0  0  0  0  0
  -23.2612   -4.6831   22.8552 F   0  0  0  0  0  0  0  0  0  0  0  0
  1  2  1  0  0  0  0
  1  5  2  0  0  0  0
  2  6  2  0  0  0  0
  3  8  2  0  0  0  0
  3 15  1  0  0  0  0
  4  9  1  0  0  0  0
  4 15  2  0  0  0  0
  5 17  1  0  0  0  0
  6 19  1  0  0  0  0
  7 10  2  0  0  0  0
  7 18  1  0  0  0  0
  8 21  1  0  0  0  0
  9 21  2  0  0  0  0
 10 22  1  0  0  0  0
 11 12  2  0  0  0  0
 11 23  1  0  0  0  0
 12 24  1  0  0  0  0
 13 20  1  0  0  0  0
 13 22  2  0  0  0  0
 14 24  2  0  0  0  0
 14 25  1  0  0  0  0
 15 26  1  0  0  0  0
 16 26  1  0  0  0  0
 16 27  2  0  0  0  0
 16 28  1  0  0  0  0
 17 19  2  0  0  0  0
 17 33  1  0  0  0  0
 18 20  2  0  0  0  0
 18 34  1  0  0  0  0
 19 45  1  0  0  0  0
 20 35  1  0  0  0  0
 21 79  1  0  0  0  0
 22 80  1  0  0  0  0
 23 25  2  0  0  0  0
 23 79  1  0  0  0  0
 24 81  1  0  0  0  0
 25 82  1  0  0  0  0
 26 63  2  0  0  0  0
 27 64  1  0  0  0  0
 27 67  1  0  0  0  0
 28 68  1  0  0  0  0
 28 74  2  0  0  0  0
 29 46  1  0  0  0  0
 29 69  1  0  0  0  0
 29 75  2  0  0  0  0
 30 59  1  0  0  0  0
 30 65  1  0  0  0  0
 30 76  2  0  0  0  0
 31 60  1  0  0  0  0
 31 70  1  0  0  0  0
 31 77  2  0  0  0  0
 32 66  1  0  0  0  0
 32 71  1  0  0  0  0
 32 78  2  0  0  0  0
 33 36  1  0  0  0  0
 34 46  1  0  0  0  0
 35 65  1  0  0  0  0
 36 38  1  0  0  0  0
 37 39  1  0  0  0  0
 37 41  1  0  0  0  0
 38 45  1  0  0  0  0
 39 48  1  0  0  0  0
 40 47  1  0  0  0  0
 40 50  1  0  0  0  0
 41 66  1  0  0  0  0
 42 48  1  0  0  0  0
 42 66  1  0  0  0  0
 43 49  1  0  0  0  0
 43 72  1  0  0  0  0
 44 49  1  0  0  0  0
 44 72  1  0  0  0  0
 45 69  1  0  0  0  0
 46 65  1  0  0  0  0
 47 50  1  0  0  0  0
 47 61  1  0  0  0  0
 48 64  1  0  0  0  0
 49 71  1  0  0  0  0
 50 51  1  0  0  0  0
 50 72  1  0  0  0  0
 52 60  1  0  0  0  0
 53 61  1  0  0  0  0
 54 62  1  0  0  0  0
 55 62  1  0  0  0  0
 56 62  1  0  0  0  0
 57 73  1  0  0  0  0
 58 61  1  0  0  0  0
 58 80  1  0  0  0  0
 59 62  1  0  0  0  0
 59 70  1  0  0  0  0
 60 73  1  0  0  0  0
 63 64  1  0  0  0  0
M  CHG  2  72   1  73   1
M  ISO  4  32 100  58 101  71 100  80 101
M  END
> <Batch ID>
0171

> <Smiles>
CNC(C)C(=O)NC(C(=O)N1Cc2cc([101O:1][101CH2:1]C(C)C3CC3(C)N3CC([100NH:0][100C:0](=O)N4CCCC(n5nc(-c6ccc(Oc7ccc(F)cc7F)cc6)c(C(N)=O)c5N)C4)C3)ccc2CC1C(=O)NC1CCCc2ccccc21)C(C)(C)C

> <Shape>
0.340

> <Color>
0.146

> <Negative vol penalty>
0.000

$$$$

  -OEChem-04052322373D

 85 95  0     1  0  0  0  0  0999 V2000
  -28.9745  -36.8736   20.6172 C   0  0  0  0  0  0  0  0  0  0  0  0
  -29.2198  -35.5972   20.1211 C   0  0  0  0  0  0  0  0  0  0  0  0
  -23.9565   -9.7033   19.7572 C   0  0  0  0  0  0  0  0  0  0  0  0
  -24.4907   -9.7568   22.1128 C   0  0  0  0  0  0  0  0  0  0  0  0
  -28.3562  -37.0315   21.8568 C   0  0  0  0  0  0  0  0  0  0  0  0
  -28.8477  -34.4779   20.8649 C   0  0  0  0  0  0  0  0  0  0  0  0
  -26.8243  -29.1211   18.6934 C   0  0  0  0  0  0  0  0  0  0  0  0
  -23.5182   -8.3855   19.8865 C   0  0  0  0  0  0  0  0  0  0  0  0
  -24.0523   -8.4389   22.2421 C   0  0  0  0  0  0  0  0  0  0  0  0
  -27.4599  -27.9016   18.4641 C   0  0  0  0  0  0  0  0  0  0  0  0
  -21.1018   -6.8101   22.4911 C   0  0  0  0  0  0  0  0  0  0  0  0
  -20.2843   -6.5045   23.5790 C   0  0  0  0  0  0  0  0  0  0  0  0
  -26.7023  -27.1096   20.6130 C   0  0  0  0  0  0  0  0  0  0  0  0
  -21.9178   -4.9032   24.3567 C   0  0  0  0  0  0  0  0  0  0  0  0
  -29.4937  -21.4032   22.2500 C   0  0  0  0  0  0  0  0  0  0  0  0
  -29.8973  -19.5690   20.2705 C   0  0  0  0  0  0  0  0  0  0  0  0
  -24.4428  -10.3890   20.8704 C   0  0  0  0  0  0  0  0  0  0  0  0
  -24.1278  -12.9205   20.8852 C   0  0  0  0  0  0  0  0  0  0  0  0
  -27.9677  -35.9136   22.6118 C   0  0  0  0  0  0  0  0  0  0  0  0
  -26.1309  -29.3483   19.8909 C   0  0  0  0  0  0  0  0  0  0  0  0
  -28.2248  -34.6210   22.1163 C   0  0  0  0  0  0  0  0  0  0  0  0
  -26.0565  -28.3319   20.8540 C   0  0  0  0  0  0  0  0  0  0  0  0
  -30.5952  -19.4174   21.4578 C   0  0  0  0  0  0  0  0  0  0  0  0
  -23.5661   -7.7533   21.1289 C   0  0  0  0  0  0  0  0  0  0  0  0
  -27.4014  -26.8966   19.4252 C   0  0  0  0  0  0  0  0  0  0  0  0
  -22.3274   -6.1623   22.3358 C   0  0  0  0  0  0  0  0  0  0  0  0
  -20.6922   -5.5511   24.5119 C   0  0  0  0  0  0  0  0  0  0  0  0
  -22.7353   -5.2089   23.2686 C   0  0  0  0  0  0  0  0  0  0  0  0
  -30.3838  -20.3562   22.4614 C   0  0  0  0  0  0  0  0  0  0  0  0
  -24.8962  -11.7502   20.7373 C   0  0  0  0  0  0  0  0  0  0  0  0
  -28.8453  -21.4661   21.0271 C   0  0  0  0  0  0  0  0  0  0  0  0
  -25.0154  -13.9445   20.6615 C   0  0  0  0  0  0  0  0  0  0  0  0
  -22.7362  -13.0686   21.1969 C   0  0  0  0  0  0  0  0  0  0  0  0
  -26.4324  -31.3954   22.3038 C   0  0  0  0  0  0  0  0  0  0  0  0
  -23.6522  -30.0437   23.2865 C   0  0  0  0  0  0  0  0  0  0  0  0
  -21.5568  -27.3508   23.2178 C   0  0  0  0  0  0  0  0  0  0  0  0
  -29.9007  -16.2622   21.5891 C   0  0  0  0  0  0  0  0  0  0  0  0
  -27.3450  -36.1342   23.9677 C   0  0  0  0  0  0  0  0  0  0  0  0
  -25.4280  -30.6596   20.1115 C   0  0  0  0  0  0  0  0  0  0  0  0
  -25.3079  -28.5183   22.1475 C   0  0  0  0  0  0  0  0  0  0  0  0
  -26.6433  -34.8979   24.5240 C   0  0  0  0  0  0  0  0  0  0  0  0
  -29.7417  -13.8714   18.8559 C   0  0  0  0  0  0  0  0  0  0  0  0
  -27.5262  -33.6646   24.3620 C   0  0  0  0  0  0  0  0  0  0  0  0
  -28.3901  -13.2031   19.1170 C   0  0  0  0  0  0  0  0  0  0  0  0
  -32.6503  -17.9740   20.5291 C   0  0  0  0  0  0  0  0  0  0  0  0
  -28.0890  -24.0614   21.1299 C   0  0  0  0  0  0  0  0  0  0  0  0
  -27.8063  -23.1849   19.2146 C   0  0  0  0  0  0  0  0  0  0  0  0
  -30.4482  -14.1976   20.1665 C   0  0  0  0  0  0  0  0  0  0  0  0
  -32.3106  -16.4849   20.5611 C   0  0  0  0  0  0  0  0  0  0  0  0
  -28.3173  -14.3819   21.3684 C   0  0  0  0  0  0  0  0  0  0  0  0
  -31.5953  -18.1984   21.6303 C   0  0  2  0  0  0  0  0  0  0  0  0
  -27.8136  -33.3824   22.8824 C   0  0  1  0  0  0  0  0  0  0  0  0
  -27.8085  -22.6056   20.6585 C   0  0  0  0  0  0  0  0  0  0  0  0
  -25.1841  -30.9661   21.5860 C   0  0  1  0  0  0  0  0  0  0  0  0
  -27.5317  -14.0339   20.0896 C   0  0  2  0  0  0  0  0  0  0  0  0
  -27.4263  -24.5521   19.8238 C   0  0  0  0  0  0  0  0  0  1  0  0
  -19.3781  -26.5258   24.1505 C   0  0  0  0  0  0  0  0  0  0  0  0
  -25.0056  -29.5087   25.9683 C   0  0  0  0  0  0  0  0  0  0  0  0
  -23.1706  -27.8880   26.4920 C   0  0  0  0  0  0  0  0  0  0  0  0
  -22.6385  -30.2986   26.1335 C   0  0  0  0  0  0  0  0  0  0  0  0
  -20.3619  -27.1062   20.5213 C   0  0  0  0  0  0  0  0  0  0  0  0
  -23.2850  -28.8643   24.1544 C   0  0  1  0  0  0  0  0  0  0  0  0
  -20.0586  -27.2456   22.9966 C   0  0  2  0  0  0  0  0  0  0  0  0
  -23.5407  -29.1368   25.6636 C   0  0  0  0  0  0  0  0  0  0  0  0
  -29.0247  -20.5727   20.0284 N   0  0  0  0  0  0  0  0  0  0  0  0
  -26.1736  -12.0059   20.4424 N   0  0  0  0  0  0  0  0  0  0  0  0
  -26.2147  -13.3486   20.4030 N   0  0  0  0  0  0  0  0  0  0  0  0
  -24.6424  -29.8203   22.3194 N   0  0  0  0  0  0  0  0  0  0  0  0
  -29.5917  -15.0234   21.0222 N   0  0  0  0  0  0  0  0  0  0  0  0
  -31.1210  -16.8363   21.3148 N   0  0  0  0  0  0  0  0  0  0  0  0
  -24.8792  -15.2876   20.6627 N   0  0  0  0  0  0  0  0  0  0  0  0
  -21.9694  -11.9125   21.3963 N   0  0  0  0  0  0  0  0  0  0  0  0
  -26.6693  -32.7559   22.2558 N   0  0  0  0  0  0  0  0  0  0  0  0
  -21.9003  -28.5362   23.8327 N   0  0  0  0  0  0  0  0  0  0  0  0
  -19.7718  -26.4964   21.7407 N   0  3  0  0  0  0  0  0  0  0  0  0
  -22.1853  -14.1925   21.2796 O   0  0  0  0  0  0  0  0  0  0  0  0
  -27.1282  -30.5547   22.8612 O   0  0  0  0  0  0  0  0  0  0  0  0
  -23.0763  -31.1214   23.4555 O   0  0  0  0  0  0  0  0  0  0  0  0
  -22.3433  -26.4680   22.8823 O   0  0  0  0  0  0  0  0  0  0  0  0
  -29.0816  -16.8622   22.2993 O   0  0  0  0  0  0  0  0  0  0  0  0
  -23.1383   -6.4674   21.2555 O   0  0  0  0  0  0  0  0  0  0  0  0
  -28.0228  -25.7031   19.2038 O   0  0  0  0  0  0  0  0  0  1  0  0
  -19.9077   -5.2588   25.5575 F   0  0  0  0  0  0  0  0  0  0  0  0
  -23.9122   -4.5840   23.1255 F   0  0  0  0  0  0  0  0  0  0  0  0
  -31.2068  -20.2498   23.9724 Cl  0  0  0  0  0  0  0  0  0  0  0  0
  1  2  1  0  0  0  0
  1  5  2  0  0  0  0
  2  6  2  0  0  0  0
  3  8  2  0  0  0  0
  3 17  1  0  0  0  0
  4  9  1  0  0  0  0
  4 17  2  0  0  0  0
  5 19  1  0  0  0  0
  6 21  1  0  0  0  0
  7 10  2  0  0  0  0
  7 20  1  0  0  0  0
  8 24  1  0  0  0  0
  9 24  2  0  0  0  0
 10 25  1  0  0  0  0
 11 12  2  0  0  0  0
 11 26  1  0  0  0  0
 12 27  1  0  0  0  0
 13 22  1  0  0  0  0
 13 25  2  0  0  0  0
 14 27  2  0  0  0  0
 14 28  1  0  0  0  0
 15 29  2  0  0  0  0
 15 31  1  0  0  0  0
 16 23  2  0  0  0  0
 16 65  1  0  0  0  0
 17 30  1  0  0  0  0
 18 30  1  0  0  0  0
 18 32  2  0  0  0  0
 18 33  1  0  0  0  0
 19 21  2  0  0  0  0
 19 38  1  0  0  0  0
 20 22  2  0  0  0  0
 20 39  1  0  0  0  0
 21 52  1  0  0  0  0
 22 40  1  0  0  0  0
 23 29  1  0  0  0  0
 23 51  1  0  0  0  0
 24 81  1  0  0  0  0
 25 82  1  0  0  0  0
 26 28  2  0  0  0  0
 26 81  1  0  0  0  0
 27 83  1  0  0  0  0
 28 84  1  0  0  0  0
 29 85  1  0  0  0  0
 30 66  2  0  0  0  0
 31 53  1  0  0  0  0
 31 65  2  0  0  0  0
 32 67  1  0  0  0  0
 32 71  1  0  0  0  0
 33 72  1  0  0  0  0
 33 76  2  0  0  0  0
 34 54  1  0  0  0  0
 34 73  1  0  0  0  0
 34 77  2  0  0  0  0
 35 62  1  0  0  0  0
 35 68  1  0  0  0  0
 35 78  2  0  0  0  0
 36 63  1  0  0  0  0
 36 74  1  0  0  0  0
 36 79  2  0  0  0  0
 37 69  1  0  0  0  0
 37 70  1  0  0  0  0
 37 80  2  0  0  0  0
 38 41  1  0  0  0  0
 39 54  1  0  0  0  0
 40 68  1  0  0  0  0
 41 43  1  0  0  0  0
 42 44  1  0  0  0  0
 42 48  1  0  0  0  0
 43 52  1  0  0  0  0
 44 55  1  0  0  0  0
 45 49  1  0  0  0  0
 45 51  1  0  0  0  0
 46 53  1  0  0  0  0
 46 56  1  0  0  0  0
 47 53  1  0  0  0  0
 47 56  1  0  0  0  0
 48 69  1  0  0  0  0
 49 70  1  0  0  0  0
 50 55  1  0  0  0  0
 50 69  1  0  0  0  0
 51 70  1  0  0  0  0
 52 73  1  0  0  0  0
 54 68  1  0  0  0  0
 55 67  1  0  0  0  0
 56 82  1  0  0  0  0
 57 63  1  0  0  0  0
 58 64  1  0  0  0  0
 59 64  1  0  0  0  0
 60 64  1  0  0  0  0
 61 75  1  0  0  0  0
 62 64  1  0  0  0  0
 62 74  1  0  0  0  0
 63 75  1  0  0  0  0
 66 67  1  0  0  0  0
M  CHG  1  75   1
M  ISO  4  37 100  56 101  70 100  82 101
M  END
> <Batch ID>
0171

> <Smiles>
CNC(C)C(=O)NC(C(=O)N1Cc2cc([101O:1][101CH:1]3CC(c4cc(Cl)c(C5CC[100N:0]5[100C:0](=O)N5CCCC(n6nc(-c7ccc(Oc8ccc(F)cc8F)cc7)c(C(N)=O)c6N)C5)cn4)C3)ccc2CC1C(=O)NC1CCCc2ccccc21)C(C)(C)C

> <Shape>
0.346

> <Color>
0.159

> <Negative vol penalty>
0.000

$$$$

  -OEChem-04052322373D

 88 97  0     1  0  0  0  0  0999 V2000
  -30.7906  -35.0128   19.5490 C   0  0  0  0  0  0  0  0  0  0  0  0
  -30.3995  -33.7549   19.1018 C   0  0  0  0  0  0  0  0  0  0  0  0
  -24.5381   -8.8309   21.4228 C   0  0  0  0  0  0  0  0  0  0  0  0
  -23.5273  -10.7343   22.5148 C   0  0  0  0  0  0  0  0  0  0  0  0
  -30.5316  -35.3954   20.8644 C   0  0  0  0  0  0  0  0  0  0  0  0
  -29.7501  -32.8782   19.9703 C   0  0  0  0  0  0  0  0  0  0  0  0
  -25.3609  -28.8546   18.5379 C   0  0  0  0  0  0  0  0  0  0  0  0
  -23.9946   -7.9867   22.3910 C   0  0  0  0  0  0  0  0  0  0  0  0
  -22.9837   -9.8901   23.4830 C   0  0  0  0  0  0  0  0  0  0  0  0
  -25.3918  -27.4846   18.2812 C   0  0  0  0  0  0  0  0  0  0  0  0
  -20.9969   -6.5759   23.0667 C   0  0  0  0  0  0  0  0  0  0  0  0
  -20.3913   -5.3968   22.6326 C   0  0  0  0  0  0  0  0  0  0  0  0
  -24.7912  -27.0472   20.5762 C   0  0  0  0  0  0  0  0  0  0  0  0
  -21.9657   -4.1083   23.9358 C   0  0  0  0  0  0  0  0  0  0  0  0
  -24.3045  -10.2047   21.4846 C   0  0  0  0  0  0  0  0  0  0  0  0
  -24.2772  -11.4639   19.2663 C   0  0  0  0  0  0  0  0  0  0  0  0
  -29.8701  -34.5267   21.7467 C   0  0  0  0  0  0  0  0  0  0  0  0
  -25.0551  -29.3317   19.8206 C   0  0  0  0  0  0  0  0  0  0  0  0
  -29.4832  -33.2490   21.2992 C   0  0  0  0  0  0  0  0  0  0  0  0
  -24.7546  -28.4237   20.8460 C   0  0  0  0  0  0  0  0  0  0  0  0
  -23.2174   -8.5163   23.4212 C   0  0  0  0  0  0  0  0  0  0  0  0
  -25.1098  -26.5806   19.3011 C   0  0  0  0  0  0  0  0  0  0  0  0
  -22.0870   -6.5213   23.9353 C   0  0  0  0  0  0  0  0  0  0  0  0
  -20.8756   -4.1630   23.0671 C   0  0  0  0  0  0  0  0  0  0  0  0
  -22.5713   -5.2875   24.3699 C   0  0  0  0  0  0  0  0  0  0  0  0
  -24.8662  -11.0773   20.4850 C   0  0  0  0  0  0  0  0  0  0  0  0
  -25.2054  -12.2920   18.6839 C   0  0  0  0  0  0  0  0  0  0  0  0
  -28.4787  -17.3496   25.7369 C   0  0  0  0  0  0  0  0  0  0  0  0
  -28.2941  -17.0837   24.4314 C   0  0  0  0  0  0  0  0  0  0  0  0
  -27.8227  -17.9251   23.2379 C   0  0  0  0  0  0  0  0  0  0  0  0
  -26.8145  -18.8207   23.3471 C   0  0  0  0  0  0  0  0  0  0  0  0
  -23.0048  -11.1066   18.7104 C   0  0  0  0  0  0  0  0  0  0  0  0
  -26.6042  -31.0434   22.0056 C   0  0  0  0  0  0  0  0  0  0  0  0
  -23.7500  -30.9419   23.5437 C   0  0  0  0  0  0  0  0  0  0  0  0
  -20.7687  -29.3497   24.0167 C   0  0  0  0  0  0  0  0  0  0  0  0
  -29.5991  -15.6962   20.9105 C   0  0  0  0  0  0  0  0  0  0  0  0
  -29.6542  -34.9666   23.1731 C   0  0  0  0  0  0  0  0  0  0  0  0
  -24.9997  -30.8132   20.0746 C   0  0  0  0  0  0  0  0  0  0  0  0
  -24.4005  -28.8852   22.2353 C   0  0  0  0  0  0  0  0  0  0  0  0
  -28.9378  -15.9459   26.0596 C   0  0  0  0  0  0  0  0  0  0  0  0
  -28.7182  -15.6385   24.5648 C   0  0  0  0  0  0  0  0  0  0  0  0
  -28.6275  -34.1213   23.9224 C   0  0  0  0  0  0  0  0  0  0  0  0
  -29.9189  -13.0924   18.5033 C   0  0  0  0  0  0  0  0  0  0  0  0
  -28.8865  -32.6362   23.6896 C   0  0  0  0  0  0  0  0  0  0  0  0
  -28.6071  -12.3156   18.6283 C   0  0  0  0  0  0  0  0  0  0  0  0
  -28.2988  -18.6675   20.8236 C   0  0  0  0  0  0  0  0  0  0  0  0
  -30.4038  -13.6029   19.8584 C   0  0  0  0  0  0  0  0  0  0  0  0
  -28.1016  -13.6168   20.7378 C   0  0  0  0  0  0  0  0  0  0  0  0
  -28.7544  -32.2794   22.2041 C   0  0  1  0  0  0  0  0  0  0  0  0
  -28.6460  -17.7233   21.9790 C   0  0  2  0  0  0  0  0  0  0  0  0
  -25.1797  -31.1743   21.5459 C   0  0  1  0  0  0  0  0  0  0  0  0
  -27.5436  -13.1297   19.3895 C   0  0  2  0  0  0  0  0  0  0  0  0
  -27.6457  -19.9484   21.3297 C   0  0  1  0  0  0  0  0  0  0  0  0
  -26.0553  -19.1156   24.6158 C   0  0  0  0  0  0  0  0  0  0  0  0
  -18.6574  -29.4817   25.3666 C   0  0  0  0  0  0  0  0  0  0  0  0
  -28.4851  -21.2363   19.3557 C   0  0  0  0  0  0  0  0  0  0  0  0
  -25.2415  -29.8642   25.9776 C   0  0  0  0  0  0  0  0  0  0  0  0
  -23.0387  -29.1347   26.9175 C   0  0  0  0  0  0  0  0  0  0  0  0
  -23.4750  -31.5552   26.5012 C   0  0  0  0  0  0  0  0  0  0  0  0
  -25.2858  -18.9005   21.4775 C   0  0  0  0  0  0  0  0  0  0  0  0
  -19.0997  -29.6519   21.5915 C   0  0  0  0  0  0  0  0  0  0  0  0
  -26.1685  -23.1365   19.5862 C   0  0  0  0  0  0  0  0  0  0  0  0
  -26.5941  -22.1886   20.7081 C   0  0  0  0  0  0  0  0  0  0  0  0
  -25.4974  -24.3880   20.1368 C   0  0  0  0  0  0  0  0  0  1  0  0
  -23.1036  -30.0070   24.5372 C   0  0  1  0  0  0  0  0  0  0  0  0
  -19.3445  -29.8725   24.0674 C   0  0  2  0  0  0  0  0  0  0  0  0
  -27.2522  -20.8914   20.1975 C   0  0  2  0  0  0  0  0  0  0  0  0
  -23.7232  -30.1312   25.9578 C   0  0  0  0  0  0  0  0  0  0  0  0
  -26.0750  -11.6154   20.6672 N   0  0  0  0  0  0  0  0  0  0  0  0
  -26.2532  -12.3485   19.5551 N   0  0  0  0  0  0  0  0  0  0  0  0
  -24.3658  -30.3434   22.4354 N   0  0  0  0  0  0  0  0  0  0  0  0
  -29.3490  -14.3681   20.5277 N   0  0  0  0  0  0  0  0  0  0  0  0
  -25.2193  -12.9700   17.5166 N   0  0  0  0  0  0  0  0  0  0  0  0
  -22.1745  -10.2456   19.4410 N   0  0  0  0  0  0  0  0  0  0  0  0
  -27.3598  -32.1867   21.8287 N   0  0  0  0  0  0  0  0  0  0  0  0
  -21.6717  -30.2812   24.4839 N   0  0  0  0  0  0  0  0  0  0  0  0
  -28.5439  -16.3516   21.5332 N   0  0  0  0  0  0  0  0  0  0  0  0
  -26.4329  -19.5917   22.1748 N   0  3  1  0  0  0  0  0  0  0  0  0
  -18.5504  -29.3233   22.9321 N   0  3  0  0  0  0  0  0  0  0  0  0
  -22.6226  -11.5249   17.5913 O   0  0  0  0  0  0  0  0  0  0  0  0
  -26.9888  -29.9840   22.4868 O   0  0  0  0  0  0  0  0  0  0  0  0
  -23.7038  -32.1589   23.7400 O   0  0  0  0  0  0  0  0  0  0  0  0
  -21.0516  -28.2259   23.6074 O   0  0  0  0  0  0  0  0  0  0  0  0
  -30.6806  -16.2582   20.7072 O   0  0  0  0  0  0  0  0  0  0  0  0
  -22.6866   -7.6928   24.3660 O   0  0  0  0  0  0  0  0  0  0  0  0
  -25.1401  -25.2330   19.0516 O   0  0  0  0  0  0  0  0  0  1  0  0
  -20.2930   -3.0308   22.6514 F   0  0  0  0  0  0  0  0  0  0  0  0
  -23.6175   -5.2287   25.2053 F   0  0  0  0  0  0  0  0  0  0  0  0
  1  2  1  0  0  0  0
  1  5  2  0  0  0  0
  2  6  2  0  0  0  0
  3  8  2  0  0  0  0
  3 15  1  0  0  0  0
  4  9  1  0  0  0  0
  4 15  2  0  0  0  0
  5 17  1  0  0  0  0
  6 19  1  0  0  0  0
  7 10  2  0  0  0  0
  7 18  1  0  0  0  0
  8 21  1  0  0  0  0
  9 21  2  0  0  0  0
 10 22  1  0  0  0  0
 11 12  2  0  0  0  0
 11 23  1  0  0  0  0
 12 24  1  0  0  0  0
 13 20  1  0  0  0  0
 13 22  2  0  0  0  0
 14 24  2  0  0  0  0
 14 25  1  0  0  0  0
 15 26  1  0  0  0  0
 16 26  1  0  0  0  0
 16 27  2  0  0  0  0
 16 32  1  0  0  0  0
 17 19  2  0  0  0  0
 17 37  1  0  0  0  0
 18 20  2  0  0  0  0
 18 38  1  0  0  0  0
 19 49  1  0  0  0  0
 20 39  1  0  0  0  0
 21 85  1  0  0  0  0
 22 86  1  0  0  0  0
 23 25  2  0  0  0  0
 23 85  1  0  0  0  0
 24 87  1  0  0  0  0
 25 88  1  0  0  0  0
 26 69  2  0  0  0  0
 27 70  1  0  0  0  0
 27 73  1  0  0  0  0
 28 29  2  0  0  0  0
 28 40  1  0  0  0  0
 29 30  1  0  0  0  0
 29 41  1  0  0  0  0
 30 31  2  0  0  0  0
 30 50  1  0  0  0  0
 31 54  1  0  0  0  0
 31 78  1  0  0  0  0
 32 74  1  0  0  0  0
 32 80  2  0  0  0  0
 33 51  1  0  0  0  0
 33 75  1  0  0  0  0
 33 81  2  0  0  0  0
 34 65  1  0  0  0  0
 34 71  1  0  0  0  0
 34 82  2  0  0  0  0
 35 66  1  0  0  0  0
 35 76  1  0  0  0  0
 35 83  2  0  0  0  0
 36 72  1  0  0  0  0
 36 77  1  0  0  0  0
 36 84  2  0  0  0  0
 37 42  1  0  0  0  0
 38 51  1  0  0  0  0
 39 71  1  0  0  0  0
 40 41  1  0  0  0  0
 42 44  1  0  0  0  0
 43 45  1  0  0  0  0
 43 47  1  0  0  0  0
 44 49  1  0  0  0  0
 45 52  1  0  0  0  0
 46 50  1  0  0  0  0
 46 53  1  0  0  0  0
 47 72  1  0  0  0  0
 48 52  1  0  0  0  0
 48 72  1  0  0  0  0
 49 75  1  0  0  0  0
 50 77  1  0  0  0  0
 51 71  1  0  0  0  0
 52 70  1  0  0  0  0
 53 67  1  0  0  0  0
 53 78  1  0  0  0  0
 55 66  1  0  0  0  0
 56 67  1  0  0  0  0
 57 68  1  0  0  0  0
 58 68  1  0  0  0  0
 59 68  1  0  0  0  0
 60 78  1  0  0  0  0
 61 79  1  0  0  0  0
 62 63  1  0  0  0  0
 62 64  1  0  0  0  0
 63 67  1  0  0  0  0
 64 86  1  0  0  0  0
 65 68  1  0  0  0  0
 65 76  1  0  0  0  0
 66 79  1  0  0  0  0
 69 70  1  0  0  0  0
M  CHG  2  78   1  79   1
M  ISO  4  36 100  64 101  77 100  86 101
M  END
> <Batch ID>
0171

> <Smiles>
CNC(C)C(=O)NC(C(=O)N1Cc2cc([101O:1][101CH2:1]CCC(C)C3CC([100NH:0][100C:0](=O)N4CCCC(n5nc(-c6ccc(Oc7ccc(F)cc7F)cc6)c(C(N)=O)c5N)C4)C(C4=CCC4)=C(C)N3C)ccc2CC1C(=O)NC1CCCc2ccccc21)C(C)(C)C

> <Shape>
0.263

> <Color>
0.098

> <Negative vol penalty>
0.000

$$$$

  -OEChem-04052322373D

 87 97  0     1  0  0  0  0  0999 V2000
  -18.2566  -26.0142   25.8742 C   0  0  0  0  0  0  0  0  0  0  0  0
  -19.4755  -25.9465   25.2070 C   0  0  0  0  0  0  0  0  0  0  0  0
  -23.0901   -9.8386   20.0010 C   0  0  0  0  0  0  0  0  0  0  0  0
  -23.8181   -9.9470   22.3022 C   0  0  0  0  0  0  0  0  0  0  0  0
  -18.2283  -26.2236   27.2524 C   0  0  0  0  0  0  0  0  0  0  0  0
  -20.6668  -26.0894   25.9174 C   0  0  0  0  0  0  0  0  0  0  0  0
  -24.1437  -22.6548   24.5906 C   0  0  0  0  0  0  0  0  0  0  0  0
  -22.3435   -8.6966   20.2910 C   0  0  0  0  0  0  0  0  0  0  0  0
  -23.0715   -8.8050   22.5922 C   0  0  0  0  0  0  0  0  0  0  0  0
  -24.8354  -22.8760   23.4004 C   0  0  0  0  0  0  0  0  0  0  0  0
  -19.8358   -8.0304   23.1844 C   0  0  0  0  0  0  0  0  0  0  0  0
  -19.0627   -8.0409   24.3453 C   0  0  0  0  0  0  0  0  0  0  0  0
  -26.7053  -23.7411   24.6550 C   0  0  0  0  0  0  0  0  0  0  0  0
  -29.6200  -20.5616   19.6735 C   0  0  0  0  0  0  0  0  0  0  0  0
  -20.2950   -6.1391   25.1831 C   0  0  0  0  0  0  0  0  0  0  0  0
  -23.8274  -10.4638   21.0066 C   0  0  0  0  0  0  0  0  0  0  0  0
  -24.1693  -12.9817   20.7808 C   0  0  0  0  0  0  0  0  0  0  0  0
  -19.4202  -26.3595   27.9815 C   0  0  0  0  0  0  0  0  0  0  0  0
  -24.7244  -22.9859   25.8234 C   0  0  0  0  0  0  0  0  0  0  0  0
  -20.6544  -26.3021   27.3064 C   0  0  0  0  0  0  0  0  0  0  0  0
  -26.0200  -23.5208   25.8595 C   0  0  0  0  0  0  0  0  0  0  0  0
  -29.8638  -20.4136   21.0343 C   0  0  0  0  0  0  0  0  0  0  0  0
  -29.4136  -21.3818   21.9249 C   0  0  0  0  0  0  0  0  0  0  0  0
  -22.3342   -8.1798   21.5866 C   0  0  0  0  0  0  0  0  0  0  0  0
  -26.1152  -23.4219   23.4323 C   0  0  0  0  0  0  0  0  0  0  0  0
  -20.8384   -7.0742   23.0227 C   0  0  0  0  0  0  0  0  0  0  0  0
  -19.2923   -7.0953   25.3447 C   0  0  0  0  0  0  0  0  0  0  0  0
  -21.0680   -6.1286   24.0221 C   0  0  0  0  0  0  0  0  0  0  0  0
  -24.5993  -11.6432   20.7076 C   0  0  0  0  0  0  0  0  0  0  0  0
  -28.9271  -21.6869   19.2574 C   0  0  0  0  0  0  0  0  0  0  0  0
  -28.7301  -22.4705   21.4080 C   0  0  0  0  0  0  0  0  0  0  0  0
  -25.2659  -13.7159   20.4001 C   0  0  0  0  0  0  0  0  0  0  0  0
  -22.8928  -13.5138   21.1591 C   0  0  0  0  0  0  0  0  0  0  0  0
  -23.9993  -24.9957   28.1768 C   0  0  0  0  0  0  0  0  0  0  0  0
  -26.5031  -23.5558   29.6534 C   0  0  0  0  0  0  0  0  0  0  0  0
  -29.4168  -21.8022   29.3674 C   0  0  0  0  0  0  0  0  0  0  0  0
  -30.7389  -14.7584   20.6014 C   0  0  0  0  0  0  0  0  0  0  0  0
  -19.3380  -26.6317   29.4627 C   0  0  0  0  0  0  0  0  0  0  0  0
  -23.9757  -22.7163   27.0998 C   0  0  0  0  0  0  0  0  0  0  0  0
  -26.6960  -23.8746   27.1581 C   0  0  0  0  0  0  0  0  0  0  0  0
  -20.6550  -26.3988   30.1987 C   0  0  0  0  0  0  0  0  0  0  0  0
  -29.6452  -12.2602   18.3266 C   0  0  0  0  0  0  0  0  0  0  0  0
  -30.3621  -22.3639   24.1181 C   0  0  0  0  0  0  0  0  0  0  0  0
  -31.0748  -21.0694   23.8797 C   0  0  0  0  0  0  0  0  0  0  0  0
  -21.8112  -27.0439   29.4412 C   0  0  0  0  0  0  0  0  0  0  0  0
  -28.2010  -11.9850   18.7492 C   0  0  0  0  0  0  0  0  0  0  0  0
  -29.8938  -18.0639   22.3785 C   0  0  0  0  0  0  0  0  0  0  0  0
  -30.9539  -17.9854   20.5387 C   0  0  0  0  0  0  0  0  0  0  0  0
  -30.5428  -12.5352   19.5311 C   0  0  0  0  0  0  0  0  0  0  0  0
  -28.6210  -13.3238   20.8544 C   0  0  0  0  0  0  0  0  0  0  0  0
  -30.6534  -19.1382   21.5434 C   0  0  0  0  0  0  0  0  0  0  0  0
  -29.6619  -21.2471   23.3899 C   0  0  0  0  0  0  0  0  0  0  0  0
  -21.9688  -26.4276   28.0459 C   0  0  1  0  0  0  0  0  0  0  0  0
  -24.4608  -23.5687   28.2684 C   0  0  1  0  0  0  0  0  0  0  0  0
  -27.6644  -13.0966   19.6712 C   0  0  2  0  0  0  0  0  0  0  0  0
  -30.8056  -17.0051   21.7221 C   0  0  0  0  0  0  0  0  0  0  0  0
  -28.6475  -21.8784   17.8041 C   0  0  0  0  0  0  0  0  0  0  0  0
  -28.7936  -24.9227   21.9791 C   0  0  0  0  0  0  0  0  0  0  0  0
  -31.2572  -20.8011   30.7488 C   0  0  0  0  0  0  0  0  0  0  0  0
  -27.6781  -26.3363   30.0985 C   0  0  0  0  0  0  0  0  0  0  0  0
  -29.8786  -25.2506   30.5957 C   0  0  0  0  0  0  0  0  0  0  0  0
  -27.9037  -24.7843   32.0466 C   0  0  0  0  0  0  0  0  0  0  0  0
  -28.8270  -19.0732   28.3857 C   0  0  0  0  0  0  0  0  0  0  0  0
  -28.2159  -23.5563   22.3254 C   0  0  1  0  0  0  0  0  0  1  0  0
  -27.9911  -23.8018   29.7187 C   0  0  1  0  0  0  0  0  0  0  0  0
  -29.9159  -20.5556   30.0755 C   0  0  2  0  0  0  0  0  0  0  0  0
  -28.3497  -25.0385   30.5901 C   0  0  0  0  0  0  0  0  0  0  0  0
  -25.8699  -11.5306   20.3114 N   0  0  0  0  0  0  0  0  0  0  0  0
  -28.4742  -22.6487   20.0926 N   0  0  0  0  0  0  0  0  0  0  0  0
  -26.2477  -12.8078   20.1322 N   0  0  0  0  0  0  0  0  0  0  0  0
  -25.9206  -23.5982   28.3787 N   0  0  0  0  0  0  0  0  0  0  0  0
  -29.9782  -13.6036   20.3595 N   0  0  0  0  0  0  0  0  0  0  0  0
  -25.4765  -15.0431   20.2717 N   0  0  0  0  0  0  0  0  0  0  0  0
  -21.8769  -12.6191   21.5218 N   0  0  0  0  0  0  0  0  0  0  0  0
  -22.6259  -25.1411   28.1329 N   0  0  0  0  0  0  0  0  0  0  0  0
  -28.5914  -22.5536   30.1770 N   0  0  0  0  0  0  0  0  0  0  0  0
  -30.1336  -15.7324   21.3886 N   0  0  0  0  0  0  0  0  0  0  0  0
  -30.0755  -19.4368   29.1040 N   0  3  0  0  0  0  0  0  0  0  0  0
  -22.6550  -14.7455   21.1591 O   0  0  0  0  0  0  0  0  0  0  0  0
  -24.8280  -25.8980   28.1496 O   0  0  0  0  0  0  0  0  0  0  0  0
  -25.8817  -23.3271   30.6942 O   0  0  0  0  0  0  0  0  0  0  0  0
  -29.7310  -22.0833   28.2129 O   0  0  0  0  0  0  0  0  0  0  0  0
  -31.8757  -14.9206   20.1445 O   0  0  0  0  0  0  0  0  0  0  0  0
  -21.6056   -7.0656   21.8699 O   0  0  0  0  0  0  0  0  0  0  0  0
  -26.7923  -23.6394   22.2721 O   0  0  0  0  0  0  0  0  0  1  0  0
  -18.5508   -7.1065   26.4602 F   0  0  0  0  0  0  0  0  0  0  0  0
  -22.0306   -5.2083   23.8730 F   0  0  0  0  0  0  0  0  0  0  0  0
  1  2  1  0  0  0  0
  1  5  2  0  0  0  0
  2  6  2  0  0  0  0
  3  8  2  0  0  0  0
  3 16  1  0  0  0  0
  4  9  1  0  0  0  0
  4 16  2  0  0  0  0
  5 18  1  0  0  0  0
  6 20  1  0  0  0  0
  7 10  2  0  0  0  0
  7 19  1  0  0  0  0
  8 24  1  0  0  0  0
  9 24  2  0  0  0  0
 10 25  1  0  0  0  0
 11 12  2  0  0  0  0
 11 26  1  0  0  0  0
 12 27  1  0  0  0  0
 13 21  1  0  0  0  0
 13 25  2  0  0  0  0
 14 22  2  0  0  0  0
 14 30  1  0  0  0  0
 15 27  2  0  0  0  0
 15 28  1  0  0  0  0
 16 29  1  0  0  0  0
 17 29  1  0  0  0  0
 17 32  2  0  0  0  0
 17 33  1  0  0  0  0
 18 20  2  0  0  0  0
 18 38  1  0  0  0  0
 19 21  2  0  0  0  0
 19 39  1  0  0  0  0
 20 53  1  0  0  0  0
 21 40  1  0  0  0  0
 22 23  1  0  0  0  0
 22 51  1  0  0  0  0
 23 31  2  0  0  0  0
 23 52  1  0  0  0  0
 24 84  1  0  0  0  0
 25 85  1  0  0  0  0
 26 28  2  0  0  0  0
 26 84  1  0  0  0  0
 27 86  1  0  0  0  0
 28 87  1  0  0  0  0
 29 68  2  0  0  0  0
 30 57  1  0  0  0  0
 30 69  2  0  0  0  0
 31 64  1  0  0  0  0
 31 69  1  0  0  0  0
 32 70  1  0  0  0  0
 32 73  1  0  0  0  0
 33 74  1  0  0  0  0
 33 79  2  0  0  0  0
 34 54  1  0  0  0  0
 34 75  1  0  0  0  0
 34 80  2  0  0  0  0
 35 65  1  0  0  0  0
 35 71  1  0  0  0  0
 35 81  2  0  0  0  0
 36 66  1  0  0  0  0
 36 76  1  0  0  0  0
 36 82  2  0  0  0  0
 37 72  1  0  0  0  0
 37 77  1  0  0  0  0
 37 83  2  0  0  0  0
 38 41  1  0  0  0  0
 39 54  1  0  0  0  0
 40 71  1  0  0  0  0
 41 45  1  0  0  0  0
 42 46  1  0  0  0  0
 42 49  1  0  0  0  0
 43 44  1  0  0  0  0
 43 52  1  0  0  0  0
 44 52  1  0  0  0  0
 45 53  1  0  0  0  0
 46 55  1  0  0  0  0
 47 51  1  0  0  0  0
 47 56  1  0  0  0  0
 48 51  1  0  0  0  0
 48 56  1  0  0  0  0
 49 72  1  0  0  0  0
 50 55  1  0  0  0  0
 50 72  1  0  0  0  0
 53 75  1  0  0  0  0
 54 71  1  0  0  0  0
 55 70  1  0  0  0  0
 56 77  1  0  0  0  0
 58 64  1  0  0  0  0
 59 66  1  0  0  0  0
 60 67  1  0  0  0  0
 61 67  1  0  0  0  0
 62 67  1  0  0  0  0
 63 78  1  0  0  0  0
 64 85  1  0  0  0  0
 65 67  1  0  0  0  0
 65 76  1  0  0  0  0
 66 78  1  0  0  0  0
 68 70  1  0  0  0  0
M  CHG  1  78   1
M  ISO  4  37 100  64 101  77 100  85 101
M  END
> <Batch ID>
0171

> <Smiles>
CNC(C)C(=O)NC(C(=O)N1Cc2cc([101O:1][101CH:1](C)c3nc(C)cc(C4CC([100NH:0][100C:0](=O)N5CCCC(n6nc(-c7ccc(Oc8ccc(F)cc8F)cc7)c(C(N)=O)c6N)C5)C4)c3C3CC3)ccc2CC1C(=O)NC1CCCc2ccccc21)C(C)(C)C

> <Shape>
0.204

> <Color>
0.193

> <Negative vol penalty>
0.000

$$$$

  -OEChem-04052322373D

 89 99  0     1  0  0  0  0  0999 V2000
  -23.8219  -36.9872   16.6791 C   0  0  0  0  0  0  0  0  0  0  0  0
  -24.2687  -35.6927   16.4342 C   0  0  0  0  0  0  0  0  0  0  0  0
  -23.7488   -9.9884   21.3478 C   0  0  0  0  0  0  0  0  0  0  0  0
  -24.8441   -8.2505   22.6196 C   0  0  0  0  0  0  0  0  0  0  0  0
  -24.0072  -37.5613   17.9360 C   0  0  0  0  0  0  0  0  0  0  0  0
  -24.9021  -34.9719   17.4460 C   0  0  0  0  0  0  0  0  0  0  0  0
  -24.5626  -28.9373   18.4332 C   0  0  0  0  0  0  0  0  0  0  0  0
  -22.6782   -9.1302   21.0972 C   0  0  0  0  0  0  0  0  0  0  0  0
  -23.7734   -7.3924   22.3689 C   0  0  0  0  0  0  0  0  0  0  0  0
  -25.4107  -27.8828   18.0978 C   0  0  0  0  0  0  0  0  0  0  0  0
  -20.6449   -6.9048   23.5502 C   0  0  0  0  0  0  0  0  0  0  0  0
  -20.1482   -6.1610   24.6205 C   0  0  0  0  0  0  0  0  0  0  0  0
  -28.9527  -20.5745   20.2647 C   0  0  0  0  0  0  0  0  0  0  0  0
  -26.4139  -28.0009   20.2884 C   0  0  0  0  0  0  0  0  0  0  0  0
  -20.6663   -4.1173   23.4407 C   0  0  0  0  0  0  0  0  0  0  0  0
  -29.8193  -19.5199   18.3276 C   0  0  0  0  0  0  0  0  0  0  0  0
  -24.8318   -9.5485   22.1090 C   0  0  0  0  0  0  0  0  0  0  0  0
  -26.0831  -11.3193   23.4530 C   0  0  0  0  0  0  0  0  0  0  0  0
  -24.6346  -36.8437   18.9666 C   0  0  0  0  0  0  0  0  0  0  0  0
  -24.6413  -29.5397   19.6970 C   0  0  0  0  0  0  0  0  0  0  0  0
  -25.0972  -35.5374   18.7175 C   0  0  0  0  0  0  0  0  0  0  0  0
  -29.4765  -19.4373   19.6598 C   0  0  0  0  0  0  0  0  0  0  0  0
  -28.7719  -21.7668   19.5420 C   0  0  0  0  0  0  0  0  0  0  0  0
  -25.5639  -29.0612   20.6383 C   0  0  0  0  0  0  0  0  0  0  0  0
  -22.6904   -7.8322   21.6077 C   0  0  0  0  0  0  0  0  0  0  0  0
  -26.3385  -27.4163   19.0244 C   0  0  0  0  0  0  0  0  0  0  0  0
  -21.1522   -6.2548   22.4250 C   0  0  0  0  0  0  0  0  0  0  0  0
  -20.1589   -4.7672   24.5658 C   0  0  0  0  0  0  0  0  0  0  0  0
  -21.1629   -4.8611   22.3703 C   0  0  0  0  0  0  0  0  0  0  0  0
  -25.9384  -10.4343   22.3678 C   0  0  0  0  0  0  0  0  0  0  0  0
  -29.1725  -21.7423   18.1997 C   0  0  0  0  0  0  0  0  0  0  0  0
  -27.2962  -11.9274   23.2408 C   0  0  0  0  0  0  0  0  0  0  0  0
  -25.1999  -11.5694   24.5544 C   0  0  0  0  0  0  0  0  0  0  0  0
  -25.3200  -32.4606   20.7513 C   0  0  0  0  0  0  0  0  0  0  0  0
  -24.4790  -31.1985   23.6187 C   0  0  0  0  0  0  0  0  0  0  0  0
  -24.1146  -28.4198   25.5663 C   0  0  0  0  0  0  0  0  0  0  0  0
  -31.0452  -14.3097   20.0329 C   0  0  0  0  0  0  0  0  0  0  0  0
  -24.8547  -37.5235   20.2948 C   0  0  0  0  0  0  0  0  0  0  0  0
  -23.7011  -30.6586   20.0527 C   0  0  0  0  0  0  0  0  0  0  0  0
  -25.6746  -29.6602   22.0157 C   0  0  0  0  0  0  0  0  0  0  0  0
  -29.0284  -22.9394   17.3065 C   0  0  0  0  0  0  0  0  0  0  0  0
  -25.2000  -36.5563   21.4242 C   0  0  0  0  0  0  0  0  0  0  0  0
  -28.9367  -24.2454   18.0771 C   0  0  0  0  0  0  0  0  0  0  0  0
  -31.0029  -10.8537   19.9821 C   0  0  0  0  0  0  0  0  0  0  0  0
  -26.2670  -35.5650   20.9706 C   0  0  0  0  0  0  0  0  0  0  0  0
  -29.6951  -10.4959   20.6878 C   0  0  0  0  0  0  0  0  0  0  0  0
  -28.8017  -17.0037   19.8696 C   0  0  0  0  0  0  0  0  0  0  0  0
  -31.1371  -17.7292   20.5246 C   0  0  0  0  0  0  0  0  0  0  0  0
  -30.8130  -12.0475   19.0535 C   0  0  0  0  0  0  0  0  0  0  0  0
  -29.0147  -15.6981   20.6411 C   0  0  0  0  0  0  0  0  0  0  0  0
  -31.2848  -16.4231   21.2997 C   0  0  0  0  0  0  0  0  0  0  0  0
  -28.9644  -12.9204   20.4459 C   0  0  0  0  0  0  0  0  0  0  0  0
  -29.6583  -18.1486   20.4395 C   0  0  0  0  0  0  0  0  0  0  0  0
  -25.7666  -34.7145   19.7968 C   0  0  1  0  0  0  0  0  0  0  0  0
  -24.2190  -31.5361   21.1881 C   0  0  1  0  0  0  0  0  0  0  0  0
  -27.8566  -24.1384   19.1613 C   0  0  1  0  0  0  0  0  0  0  0  0
  -29.1010  -11.7208   21.4054 C   0  0  1  0  0  0  0  0  0  0  0  0
  -28.2155  -23.0311   20.2191 C   0  0  0  0  0  0  0  0  0  0  0  0
  -29.2754  -23.5329   21.2278 C   0  0  0  0  0  0  0  0  0  0  0  0
  -26.9242  -22.6853   21.0034 C   0  0  0  0  0  0  0  0  0  0  0  0
  -23.4454  -27.7084   27.8779 C   0  0  0  0  0  0  0  0  0  0  0  0
  -27.1661  -32.1668   24.6921 C   0  0  0  0  0  0  0  0  0  0  0  0
  -26.8552  -30.6393   26.6512 C   0  0  0  0  0  0  0  0  0  0  0  0
  -25.2393  -32.4973   26.2519 C   0  0  0  0  0  0  0  0  0  0  0  0
  -21.8675  -26.7902   24.5397 C   0  0  0  0  0  0  0  0  0  0  0  0
  -27.6005  -25.5342   19.7462 C   0  0  0  0  0  0  0  0  0  1  0  0
  -25.2110  -30.4809   24.7270 C   0  0  1  0  0  0  0  0  0  0  0  0
  -22.9740  -27.9538   26.4530 C   0  0  2  0  0  0  0  0  0  0  0  0
  -26.1174  -31.4358   25.5540 C   0  0  0  0  0  0  0  0  0  0  0  0
  -29.6793  -20.6380   17.5877 N   0  0  0  0  0  0  0  0  0  0  0  0
  -26.9766  -10.4737   21.5284 N   0  0  0  0  0  0  0  0  0  0  0  0
  -27.7852  -11.3908   22.0862 N   0  0  0  0  0  0  0  0  0  0  0  0
  -24.7378  -30.7562   22.3137 N   0  0  0  0  0  0  0  0  0  0  0  0
  -30.2440  -13.1881   19.7711 N   0  0  0  0  0  0  0  0  0  0  0  0
  -30.4451  -15.3722   20.7252 N   0  0  0  0  0  0  0  0  0  0  0  0
  -27.9816  -12.8635   23.9310 N   0  0  0  0  0  0  0  0  0  0  0  0
  -23.9942  -10.8577   24.6188 N   0  0  0  0  0  0  0  0  0  0  0  0
  -24.8753  -33.6766   20.2686 N   0  0  0  0  0  0  0  0  0  0  0  0
  -24.1908  -29.7956   25.5131 N   0  0  0  0  0  0  0  0  0  0  0  0
  -22.3923  -26.6870   25.9257 N   0  3  0  0  0  0  0  0  0  0  0  0
  -25.4643  -12.4112   25.4460 O   0  0  0  0  0  0  0  0  0  0  0  0
  -26.4867  -32.0981   20.8467 O   0  0  0  0  0  0  0  0  0  0  0  0
  -23.7007  -32.1129   23.9011 O   0  0  0  0  0  0  0  0  0  0  0  0
  -24.8654  -27.6413   24.9825 O   0  0  0  0  0  0  0  0  0  0  0  0
  -32.2274  -14.3592   19.6705 O   0  0  0  0  0  0  0  0  0  0  0  0
  -21.6457   -6.9947   21.3635 O   0  0  0  0  0  0  0  0  0  0  0  0
  -27.1767  -26.3768   18.6960 O   0  0  0  0  0  0  0  0  0  1  0  0
  -19.6833   -4.0531   25.5944 F   0  0  0  0  0  0  0  0  0  0  0  0
  -21.6502   -4.2311   21.2926 F   0  0  0  0  0  0  0  0  0  0  0  0
  1  2  1  0  0  0  0
  1  5  2  0  0  0  0
  2  6  2  0  0  0  0
  3  8  2  0  0  0  0
  3 17  1  0  0  0  0
  4  9  1  0  0  0  0
  4 17  2  0  0  0  0
  5 19  1  0  0  0  0
  6 21  1  0  0  0  0
  7 10  2  0  0  0  0
  7 20  1  0  0  0  0
  8 25  1  0  0  0  0
  9 25  2  0  0  0  0
 10 26  1  0  0  0  0
 11 12  2  0  0  0  0
 11 27  1  0  0  0  0
 12 28  1  0  0  0  0
 13 22  2  0  0  0  0
 13 23  1  0  0  0  0
 14 24  1  0  0  0  0
 14 26  2  0  0  0  0
 15 28  2  0  0  0  0
 15 29  1  0  0  0  0
 16 22  1  0  0  0  0
 16 70  2  0  0  0  0
 17 30  1  0  0  0  0
 18 30  1  0  0  0  0
 18 32  2  0  0  0  0
 18 33  1  0  0  0  0
 19 21  2  0  0  0  0
 19 38  1  0  0  0  0
 20 24  2  0  0  0  0
 20 39  1  0  0  0  0
 21 54  1  0  0  0  0
 22 53  1  0  0  0  0
 23 31  2  0  0  0  0
 23 58  1  0  0  0  0
 24 40  1  0  0  0  0
 25 86  1  0  0  0  0
 26 87  1  0  0  0  0
 27 29  2  0  0  0  0
 27 86  1  0  0  0  0
 28 88  1  0  0  0  0
 29 89  1  0  0  0  0
 30 71  2  0  0  0  0
 31 41  1  0  0  0  0
 31 70  1  0  0  0  0
 32 72  1  0  0  0  0
 32 76  1  0  0  0  0
 33 77  1  0  0  0  0
 33 81  2  0  0  0  0
 34 55  1  0  0  0  0
 34 78  1  0  0  0  0
 34 82  2  0  0  0  0
 35 67  1  0  0  0  0
 35 73  1  0  0  0  0
 35 83  2  0  0  0  0
 36 68  1  0  0  0  0
 36 79  1  0  0  0  0
 36 84  2  0  0  0  0
 37 74  1  0  0  0  0
 37 75  1  0  0  0  0
 37 85  2  0  0  0  0
 38 42  1  0  0  0  0
 39 55  1  0  0  0  0
 40 73  1  0  0  0  0
 41 43  1  0  0  0  0
 42 45  1  0  0  0  0
 43 56  1  0  0  0  0
 44 46  1  0  0  0  0
 44 49  1  0  0  0  0
 45 54  1  0  0  0  0
 46 57  1  0  0  0  0
 47 50  1  0  0  0  0
 47 53  1  0  0  0  0
 48 51  1  0  0  0  0
 48 53  1  0  0  0  0
 49 74  1  0  0  0  0
 50 75  1  0  0  0  0
 51 75  1  0  0  0  0
 52 57  1  0  0  0  0
 52 74  1  0  0  0  0
 54 78  1  0  0  0  0
 55 73  1  0  0  0  0
 56 58  1  0  0  0  0
 56 66  1  0  0  0  0
 57 72  1  0  0  0  0
 58 59  1  0  0  0  0
 58 60  1  0  0  0  0
 61 68  1  0  0  0  0
 62 69  1  0  0  0  0
 63 69  1  0  0  0  0
 64 69  1  0  0  0  0
 65 80  1  0  0  0  0
 66 87  1  0  0  0  0
 67 69  1  0  0  0  0
 67 79  1  0  0  0  0
 68 80  1  0  0  0  0
 71 72  1  0  0  0  0
M  CHG  1  80   1
M  ISO  4  37 100  66 101  75 100  87 101
M  END
> <Batch ID>
0171

> <Smiles>
CNC(C)C(=O)NC(C(=O)N1Cc2cc([101O:1][101CH2:1]C3CCc4ncc(C5CC[100N:0]([100C:0](=O)N6CCCC(n7nc(-c8ccc(Oc9ccc(F)cc9F)cc8)c(C(N)=O)c7N)C6)CC5)cc4C3(C)C)ccc2CC1C(=O)NC1CCCc2ccccc21)C(C)(C)C

> <Shape>
0.299

> <Color>
0.109

> <Negative vol penalty>
0.000

$$$$

  -OEChem-04052322373D

 82 91  0     1  0  0  0  0  0999 V2000
  -32.6261  -14.5502   20.1311 C   0  0  0  0  0  0  0  0  0  0  0  0
  -31.7165  -15.5737   19.8853 C   0  0  0  0  0  0  0  0  0  0  0  0
  -25.0739  -31.1514   24.8614 C   0  0  0  0  0  0  0  0  0  0  0  0
  -25.7021  -28.8274   25.0642 C   0  0  0  0  0  0  0  0  0  0  0  0
  -32.2194  -13.2200   20.0359 C   0  0  0  0  0  0  0  0  0  0  0  0
  -30.3998  -15.2676   19.5431 C   0  0  0  0  0  0  0  0  0  0  0  0
  -25.3725  -18.4144   21.0694 C   0  0  0  0  0  0  0  0  0  0  0  0
  -25.8907  -31.4670   25.9471 C   0  0  0  0  0  0  0  0  0  0  0  0
  -26.5190  -29.1429   26.1499 C   0  0  0  0  0  0  0  0  0  0  0  0
  -24.6067  -19.3519   20.3777 C   0  0  0  0  0  0  0  0  0  0  0  0
  -29.5820  -30.4783   26.6551 C   0  0  0  0  0  0  0  0  0  0  0  0
  -30.8592  -29.9186   26.6875 C   0  0  0  0  0  0  0  0  0  0  0  0
  -21.2761  -22.8189   16.1543 C   0  0  0  0  0  0  0  0  0  0  0  0
  -21.3029  -22.8797   18.9812 C   0  0  0  0  0  0  0  0  0  0  0  0
  -23.0872  -17.6040   19.7031 C   0  0  0  0  0  0  0  0  0  0  0  0
  -30.3296  -28.8311   28.7789 C   0  0  0  0  0  0  0  0  0  0  0  0
  -24.9795  -29.8316   24.4200 C   0  0  0  0  0  0  0  0  0  0  0  0
  -24.4986  -29.4842   21.9389 C   0  0  0  0  0  0  0  0  0  0  0  0
  -30.8946  -12.8975   19.7017 C   0  0  0  0  0  0  0  0  0  0  0  0
  -25.0068  -17.0606   21.0740 C   0  0  0  0  0  0  0  0  0  0  0  0
  -29.9754  -13.9318   19.4420 C   0  0  0  0  0  0  0  0  0  0  0  0
  -20.4060  -23.6335   16.8597 C   0  0  0  0  0  0  0  0  0  0  0  0
  -20.4191  -23.6680   18.2608 C   0  0  0  0  0  0  0  0  0  0  0  0
  -23.8486  -16.6517   20.3976 C   0  0  0  0  0  0  0  0  0  0  0  0
  -22.1799  -22.0352   16.8742 C   0  0  0  0  0  0  0  0  0  0  0  0
  -22.1929  -22.0650   18.2774 C   0  0  0  0  0  0  0  0  0  0  0  0
  -26.6133  -30.4628   26.5914 C   0  0  0  0  0  0  0  0  0  0  0  0
  -23.4655  -18.9464   19.6920 C   0  0  0  0  0  0  0  0  0  0  0  0
  -28.6786  -30.2145   27.6846 C   0  0  0  0  0  0  0  0  0  0  0  0
  -31.2330  -29.0949   27.7493 C   0  0  0  0  0  0  0  0  0  0  0  0
  -29.0524  -29.3909   28.7465 C   0  0  0  0  0  0  0  0  0  0  0  0
  -24.1354  -29.5049   23.2989 C   0  0  0  0  0  0  0  0  0  0  0  0
  -23.3499  -29.1155   21.2824 C   0  0  0  0  0  0  0  0  0  0  0  0
  -25.7614  -29.7724   21.3241 C   0  0  0  0  0  0  0  0  0  0  0  0
  -26.3587  -14.3684   20.0601 C   0  0  0  0  0  0  0  0  0  0  0  0
  -23.8083  -12.9959   21.5210 C   0  0  0  0  0  0  0  0  0  0  0  0
  -20.6013  -13.3055   22.6463 C   0  0  0  0  0  0  0  0  0  0  0  0
  -18.8308  -25.8725   20.8289 C   0  0  0  0  0  0  0  0  0  0  0  0
  -30.5137  -11.4446   19.5647 C   0  0  0  0  0  0  0  0  0  0  0  0
  -25.8287  -16.0660   21.8471 C   0  0  0  0  0  0  0  0  0  0  0  0
  -19.3323  -24.5207   16.3114 C   0  0  0  0  0  0  0  0  0  0  0  0
  -23.4016  -15.2135   20.3885 C   0  0  0  0  0  0  0  0  0  0  0  0
  -29.0056  -11.2079   19.5632 C   0  0  0  0  0  0  0  0  0  0  0  0
  -19.0530  -25.4291   17.5189 C   0  0  0  0  0  0  0  0  0  0  0  0
  -18.5884  -28.7259   22.9445 C   0  0  0  0  0  0  0  0  0  0  0  0
  -28.3113  -12.1948   18.6300 C   0  0  0  0  0  0  0  0  0  0  0  0
  -20.0397  -29.1770   23.1179 C   0  0  0  0  0  0  0  0  0  0  0  0
  -18.4734  -27.2042   22.8868 C   0  0  0  0  0  0  0  0  0  0  0  0
  -20.7837  -27.0072   22.0516 C   0  0  0  0  0  0  0  0  0  0  0  0
  -28.5322  -13.6401   19.0924 C   0  0  1  0  0  0  0  0  0  0  0  0
  -19.3458  -24.5836   18.7715 C   0  0  2  0  0  0  0  0  0  0  0  0
  -25.6480  -14.6325   21.3573 C   0  0  1  0  0  0  0  0  0  0  0  0
  -20.9566  -28.5357   22.0590 C   0  0  2  0  0  0  0  0  0  0  0  0
  -23.1284  -21.1580   16.1230 C   0  0  0  0  0  0  0  0  0  0  0  0
  -18.7707  -12.0014   23.7622 C   0  0  0  0  0  0  0  0  0  0  0  0
  -23.2397  -11.5513   18.8942 C   0  0  0  0  0  0  0  0  0  0  0  0
  -20.9428  -11.0435   19.7514 C   0  0  0  0  0  0  0  0  0  0  0  0
  -22.9429  -10.1473   20.9424 C   0  0  0  0  0  0  0  0  0  0  0  0
  -20.5489  -15.1420   24.9666 C   0  0  0  0  0  0  0  0  0  0  0  0
  -23.1583  -21.2158   19.0506 C   0  0  0  0  0  0  0  0  0  1  0  0
  -22.4108  -12.6141   21.0964 C   0  0  1  0  0  0  0  0  0  0  0  0
  -19.9572  -12.9300   23.9686 C   0  0  2  0  0  0  0  0  0  0  0  0
  -22.3933  -11.3659   20.1695 C   0  0  0  0  0  0  0  0  0  0  0  0
  -22.8560  -29.1758   23.4960 N   0  0  0  0  0  0  0  0  0  0  0  0
  -22.4052  -28.9448   22.2512 N   0  0  0  0  0  0  0  0  0  0  0  0
  -24.2420  -14.2777   21.1538 N   0  0  0  0  0  0  0  0  0  0  0  0
  -19.3668  -26.6589   21.8619 N   0  0  0  0  0  0  0  0  0  0  0  0
  -23.0658  -28.9241   19.9766 N   0  0  0  0  0  0  0  0  0  0  0  0
  -26.8371  -30.1356   22.1458 N   0  0  0  0  0  0  0  0  0  0  0  0
  -27.6673  -13.9509   20.2104 N   0  0  0  0  0  0  0  0  0  0  0  0
  -21.6396  -12.4571   22.3248 N   0  0  0  0  0  0  0  0  0  0  0  0
  -19.7457  -25.4005   19.8956 N   0  0  0  0  0  0  0  0  0  0  0  0
  -19.4805  -14.1510   24.6777 N   0  3  0  0  0  0  0  0  0  0  0  0
  -25.9265  -29.7256   20.0815 O   0  0  0  0  0  0  0  0  0  0  0  0
  -25.7634  -14.5300   19.0012 O   0  0  0  0  0  0  0  0  0  0  0  0
  -24.4874  -12.1894   22.1612 O   0  0  0  0  0  0  0  0  0  0  0  0
  -20.2192  -14.2542   21.9648 O   0  0  0  0  0  0  0  0  0  0  0  0
  -17.6255  -25.6147   20.7416 O   0  0  0  0  0  0  0  0  0  0  0  0
  -27.4107  -30.7704   27.6507 O   0  0  0  0  0  0  0  0  0  0  0  0
  -22.7166  -19.8593   19.0156 O   0  0  0  0  0  0  0  0  0  1  0  0
  -32.4590  -28.5562   27.7795 F   0  0  0  0  0  0  0  0  0  0  0  0
  -28.1884  -29.1329   29.7379 F   0  0  0  0  0  0  0  0  0  0  0  0
  1  2  1  0  0  0  0
  1  5  2  0  0  0  0
  2  6  2  0  0  0  0
  3  8  2  0  0  0  0
  3 17  1  0  0  0  0
  4  9  1  0  0  0  0
  4 17  2  0  0  0  0
  5 19  1  0  0  0  0
  6 21  1  0  0  0  0
  7 10  2  0  0  0  0
  7 20  1  0  0  0  0
  8 27  1  0  0  0  0
  9 27  2  0  0  0  0
 10 28  1  0  0  0  0
 11 12  2  0  0  0  0
 11 29  1  0  0  0  0
 12 30  1  0  0  0  0
 13 22  2  0  0  0  0
 13 25  1  0  0  0  0
 14 23  2  0  0  0  0
 14 26  1  0  0  0  0
 15 24  1  0  0  0  0
 15 28  2  0  0  0  0
 16 30  2  0  0  0  0
 16 31  1  0  0  0  0
 17 32  1  0  0  0  0
 18 32  1  0  0  0  0
 18 33  2  0  0  0  0
 18 34  1  0  0  0  0
 19 21  2  0  0  0  0
 19 39  1  0  0  0  0
 20 24  2  0  0  0  0
 20 40  1  0  0  0  0
 21 50  1  0  0  0  0
 22 23  1  0  0  0  0
 22 41  1  0  0  0  0
 23 51  1  0  0  0  0
 24 42  1  0  0  0  0
 25 26  2  0  0  0  0
 25 54  1  0  0  0  0
 26 60  1  0  0  0  0
 27 79  1  0  0  0  0
 28 80  1  0  0  0  0
 29 31  2  0  0  0  0
 29 79  1  0  0  0  0
 30 81  1  0  0  0  0
 31 82  1  0  0  0  0
 32 64  2  0  0  0  0
 33 65  1  0  0  0  0
 33 68  1  0  0  0  0
 34 69  1  0  0  0  0
 34 74  2  0  0  0  0
 35 52  1  0  0  0  0
 35 70  1  0  0  0  0
 35 75  2  0  0  0  0
 36 61  1  0  0  0  0
 36 66  1  0  0  0  0
 36 76  2  0  0  0  0
 37 62  1  0  0  0  0
 37 71  1  0  0  0  0
 37 77  2  0  0  0  0
 38 67  1  0  0  0  0
 38 72  1  0  0  0  0
 38 78  2  0  0  0  0
 39 43  1  0  0  0  0
 40 52  1  0  0  0  0
 41 44  1  0  0  0  0
 42 66  1  0  0  0  0
 43 46  1  0  0  0  0
 44 51  1  0  0  0  0
 45 47  1  0  0  0  0
 45 48  1  0  0  0  0
 46 50  1  0  0  0  0
 47 53  1  0  0  0  0
 48 67  1  0  0  0  0
 49 53  1  0  0  0  0
 49 67  1  0  0  0  0
 50 70  1  0  0  0  0
 51 72  1  0  0  0  0
 52 66  1  0  0  0  0
 53 65  1  0  0  0  0
 55 62  1  0  0  0  0
 56 63  1  0  0  0  0
 57 63  1  0  0  0  0
 58 63  1  0  0  0  0
 59 73  1  0  0  0  0
 60 80  1  0  0  0  0
 61 63  1  0  0  0  0
 61 71  1  0  0  0  0
 62 73  1  0  0  0  0
 64 65  1  0  0  0  0
M  CHG  1  73   1
M  ISO  4  38 100  60 101  72 100  80 101
M  END
> <Batch ID>
0171

> <Smiles>
CNC(C)C(=O)NC(C(=O)N1Cc2cc([101O:1][101CH2:1]c3cc4c(cc3C)CCC4[100NH:0][100C:0](=O)N3CCCC(n4nc(-c5ccc(Oc6ccc(F)cc6F)cc5)c(C(N)=O)c4N)C3)ccc2CC1C(=O)NC1CCCc2ccccc21)C(C)(C)C

> <Shape>
0.233

> <Color>
0.056

> <Negative vol penalty>
0.000

$$$$

  -OEChem-04052322373D

 85 95  0     1  0  0  0  0  0999 V2000
  -21.6378  -12.2724   20.9403 C   0  0  0  0  0  0  0  0  0  0  0  0
  -21.6891  -13.5799   21.4128 C   0  0  0  0  0  0  0  0  0  0  0  0
  -25.5725  -27.6310   18.8498 C   0  0  0  0  0  0  0  0  0  0  0  0
  -25.5643  -27.0865   21.2036 C   0  0  0  0  0  0  0  0  0  0  0  0
  -22.8127  -11.6204   20.5680 C   0  0  0  0  0  0  0  0  0  0  0  0
  -22.9154  -14.2358   21.5143 C   0  0  0  0  0  0  0  0  0  0  0  0
  -22.7343  -18.9778   19.7464 C   0  0  0  0  0  0  0  0  0  0  0  0
  -26.9519  -27.8315   18.9009 C   0  0  0  0  0  0  0  0  0  0  0  0
  -26.9437  -27.2870   21.2548 C   0  0  0  0  0  0  0  0  0  0  0  0
  -22.1579  -19.9431   20.5709 C   0  0  0  0  0  0  0  0  0  0  0  0
  -30.5171  -27.3041   21.9246 C   0  0  0  0  0  0  0  0  0  0  0  0
  -31.2855  -26.3602   22.6057 C   0  0  0  0  0  0  0  0  0  0  0  0
  -21.4676  -23.8733   23.4615 C   0  0  0  0  0  0  0  0  0  0  0  0
  -24.3566  -20.6718   21.2446 C   0  0  0  0  0  0  0  0  0  0  0  0
  -19.2279  -22.9811   23.4827 C   0  0  0  0  0  0  0  0  0  0  0  0
  -30.5105  -24.6402   21.0964 C   0  0  0  0  0  0  0  0  0  0  0  0
  -24.8786  -27.2586   20.0011 C   0  0  0  0  0  0  0  0  0  0  0  0
  -22.7788  -25.8487   19.6686 C   0  0  0  0  0  0  0  0  0  0  0  0
  -24.0529  -12.2720   20.6558 C   0  0  0  0  0  0  0  0  0  0  0  0
  -24.1283  -18.8448   19.6731 C   0  0  0  0  0  0  0  0  0  0  0  0
  -24.1081  -13.5915   21.1440 C   0  0  0  0  0  0  0  0  0  0  0  0
  -21.0643  -24.9209   24.3003 C   0  0  0  0  0  0  0  0  0  0  0  0
  -24.9482  -19.7057   20.4165 C   0  0  0  0  0  0  0  0  0  0  0  0
  -19.7212  -24.9956   24.7541 C   0  0  0  0  0  0  0  0  0  0  0  0
  -20.5507  -22.9081   23.0542 C   0  0  0  0  0  0  0  0  0  0  0  0
  -18.8138  -24.0173   24.3231 C   0  0  0  0  0  0  0  0  0  0  0  0
  -27.6375  -27.6594   20.1034 C   0  0  0  0  0  0  0  0  0  0  0  0
  -22.9690  -20.7884   21.3224 C   0  0  0  0  0  0  0  0  0  0  0  0
  -29.7453  -26.9162   20.8293 C   0  0  0  0  0  0  0  0  0  0  0  0
  -31.2823  -25.0282   22.1917 C   0  0  0  0  0  0  0  0  0  0  0  0
  -29.7421  -25.5842   20.4152 C   0  0  0  0  0  0  0  0  0  0  0  0
  -23.4536  -27.0520   19.9491 C   0  0  0  0  0  0  0  0  0  0  0  0
  -21.4471  -26.1771   19.7407 C   0  0  0  0  0  0  0  0  0  0  0  0
  -23.3084  -24.5503   19.3696 C   0  0  0  0  0  0  0  0  0  0  0  0
  -26.2004  -16.5344   20.3602 C   0  0  0  0  0  0  0  0  0  0  0  0
  -28.3330  -18.5860   19.0316 C   0  0  0  0  0  0  0  0  0  0  0  0
  -29.1414  -21.8007   18.2197 C   0  0  0  0  0  0  0  0  0  0  0  0
  -20.9785  -28.8986   23.7096 C   0  0  0  0  0  0  0  0  0  0  0  0
  -25.3010  -11.5101   20.2863 C   0  0  0  0  0  0  0  0  0  0  0  0
  -24.7349  -17.8162   18.7585 C   0  0  0  0  0  0  0  0  0  0  0  0
  -22.0864  -25.9591   24.7238 C   0  0  0  0  0  0  0  0  0  0  0  0
  -26.4506  -19.6172   20.3578 C   0  0  0  0  0  0  0  0  0  0  0  0
  -26.5191  -12.4045   20.0705 C   0  0  0  0  0  0  0  0  0  0  0  0
  -20.9131  -30.7716   20.8056 C   0  0  0  0  0  0  0  0  0  0  0  0
  -26.6407  -13.4226   21.1999 C   0  0  0  0  0  0  0  0  0  0  0  0
  -20.3411  -29.8194   19.7578 C   0  0  0  0  0  0  0  0  0  0  0  0
  -20.4897  -26.6108   26.5146 C   0  0  0  0  0  0  0  0  0  0  0  0
  -20.1874  -30.6299   22.1355 C   0  0  0  0  0  0  0  0  0  0  0  0
  -19.6041  -28.2713   21.6786 C   0  0  0  0  0  0  0  0  0  0  0  0
  -19.1450  -27.4284   24.7468 C   0  0  0  0  0  0  0  0  0  0  0  0
  -25.4165  -14.3450   21.2452 C   0  0  1  0  0  0  0  0  0  0  0  0
  -26.1566  -17.4293   19.1540 C   0  0  1  0  0  0  0  0  0  0  0  0
  -20.1668  -28.3688   20.2439 C   0  0  2  0  0  0  0  0  0  0  0  0
  -21.4332  -27.1519   25.4404 C   0  0  2  0  0  0  0  0  0  0  0  0
  -19.2949  -26.1788   25.6400 C   0  0  1  0  0  0  0  0  0  0  0  0
  -17.3593  -24.0031   24.6603 C   0  0  0  0  0  0  0  0  0  0  0  0
  -18.0548  -25.9365   26.5000 C   0  0  0  0  0  0  0  0  0  0  0  0
  -30.9675  -23.1690   17.1754 C   0  0  0  0  0  0  0  0  0  0  0  0
  -29.9855  -18.3235   21.5831 C   0  0  0  0  0  0  0  0  0  0  0  0
  -31.2437  -20.3762   20.8964 C   0  0  0  0  0  0  0  0  0  0  0  0
  -31.3232  -18.3312   19.4701 C   0  0  0  0  0  0  0  0  0  0  0  0
  -27.3558  -22.7447   16.0565 C   0  0  0  0  0  0  0  0  0  0  0  0
  -20.9843  -21.7991   22.1563 C   0  0  0  0  0  0  0  0  0  1  0  0
  -29.2030  -19.7064   19.5481 C   0  0  1  0  0  0  0  0  0  0  0  0
  -29.6702  -22.4126   16.9350 C   0  0  2  0  0  0  0  0  0  0  0  0
  -30.4105  -19.1850   20.3772 C   0  0  0  0  0  0  0  0  0  0  0  0
  -22.6195  -28.0688   20.1819 N   0  0  0  0  0  0  0  0  0  0  0  0
  -21.4068  -27.5053   20.0477 N   0  0  0  0  0  0  0  0  0  0  0  0
  -26.9960  -18.5912   19.4537 N   0  0  0  0  0  0  0  0  0  0  0  0
  -20.1969  -29.2459   22.6017 N   0  0  0  0  0  0  0  0  0  0  0  0
  -20.5348  -27.8464   24.5023 N   0  0  0  0  0  0  0  0  0  0  0  0
  -20.3184  -25.4563   19.5708 N   0  0  0  0  0  0  0  0  0  0  0  0
  -24.7001  -24.3879   19.3362 N   0  0  0  0  0  0  0  0  0  0  0  0
  -25.5031  -15.3511   20.2084 N   0  0  0  0  0  0  0  0  0  0  0  0
  -29.5767  -20.5027   18.3842 N   0  0  0  0  0  0  0  0  0  0  0  0
  -28.6723  -23.3606   16.3637 N   0  3  0  0  0  0  0  0  0  0  0  0
  -22.5695  -23.5672   19.1229 O   0  0  0  0  0  0  0  0  0  0  0  0
  -26.8220  -16.8904   21.3544 O   0  0  0  0  0  0  0  0  0  0  0  0
  -28.8199  -17.7415   18.2756 O   0  0  0  0  0  0  0  0  0  0  0  0
  -28.4178  -22.4141   19.0011 O   0  0  0  0  0  0  0  0  0  0  0  0
  -22.0270  -29.5010   23.9735 O   0  0  0  0  0  0  0  0  0  0  0  0
  -28.9836  -27.8547   20.1536 O   0  0  0  0  0  0  0  0  0  0  0  0
  -22.4052  -21.7375   22.1339 O   0  0  0  0  0  0  0  0  0  1  0  0
  -32.0214  -24.1221   22.8449 F   0  0  0  0  0  0  0  0  0  0  0  0
  -29.0036  -25.2057   19.3630 F   0  0  0  0  0  0  0  0  0  0  0  0
  1  2  1  0  0  0  0
  1  5  2  0  0  0  0
  2  6  2  0  0  0  0
  3  8  2  0  0  0  0
  3 17  1  0  0  0  0
  4  9  1  0  0  0  0
  4 17  2  0  0  0  0
  5 19  1  0  0  0  0
  6 21  1  0  0  0  0
  7 10  2  0  0  0  0
  7 20  1  0  0  0  0
  8 27  1  0  0  0  0
  9 27  2  0  0  0  0
 10 28  1  0  0  0  0
 11 12  2  0  0  0  0
 11 29  1  0  0  0  0
 12 30  1  0  0  0  0
 13 22  1  0  0  0  0
 13 25  2  0  0  0  0
 14 23  1  0  0  0  0
 14 28  2  0  0  0  0
 15 25  1  0  0  0  0
 15 26  2  0  0  0  0
 16 30  2  0  0  0  0
 16 31  1  0  0  0  0
 17 32  1  0  0  0  0
 18 32  1  0  0  0  0
 18 33  2  0  0  0  0
 18 34  1  0  0  0  0
 19 21  2  0  0  0  0
 19 39  1  0  0  0  0
 20 23  2  0  0  0  0
 20 40  1  0  0  0  0
 21 51  1  0  0  0  0
 22 24  2  0  0  0  0
 22 41  1  0  0  0  0
 23 42  1  0  0  0  0
 24 26  1  0  0  0  0
 24 55  1  0  0  0  0
 25 63  1  0  0  0  0
 26 56  1  0  0  0  0
 27 82  1  0  0  0  0
 28 83  1  0  0  0  0
 29 31  2  0  0  0  0
 29 82  1  0  0  0  0
 30 84  1  0  0  0  0
 31 85  1  0  0  0  0
 32 67  2  0  0  0  0
 33 68  1  0  0  0  0
 33 72  1  0  0  0  0
 34 73  1  0  0  0  0
 34 77  2  0  0  0  0
 35 52  1  0  0  0  0
 35 74  1  0  0  0  0
 35 78  2  0  0  0  0
 36 64  1  0  0  0  0
 36 69  1  0  0  0  0
 36 79  2  0  0  0  0
 37 65  1  0  0  0  0
 37 75  1  0  0  0  0
 37 80  2  0  0  0  0
 38 70  1  0  0  0  0
 38 71  1  0  0  0  0
 38 81  2  0  0  0  0
 39 43  1  0  0  0  0
 40 52  1  0  0  0  0
 41 54  1  0  0  0  0
 42 69  1  0  0  0  0
 43 45  1  0  0  0  0
 44 46  1  0  0  0  0
 44 48  1  0  0  0  0
 45 51  1  0  0  0  0
 46 53  1  0  0  0  0
 47 54  1  0  0  0  0
 47 55  1  0  0  0  0
 48 70  1  0  0  0  0
 49 53  1  0  0  0  0
 49 70  1  0  0  0  0
 50 55  1  0  0  0  0
 50 71  1  0  0  0  0
 51 74  1  0  0  0  0
 52 69  1  0  0  0  0
 53 68  1  0  0  0  0
 54 71  1  0  0  0  0
 55 57  1  0  0  0  0
 58 65  1  0  0  0  0
 59 66  1  0  0  0  0
 60 66  1  0  0  0  0
 61 66  1  0  0  0  0
 62 76  1  0  0  0  0
 63 83  1  0  0  0  0
 64 66  1  0  0  0  0
 64 75  1  0  0  0  0
 65 76  1  0  0  0  0
 67 68  1  0  0  0  0
M  CHG  1  76   1
M  ISO  4  38 100  63 101  71 100  83 101
M  END
> <Batch ID>
0171

> <Smiles>
CNC(C)C(=O)NC(C(=O)N1Cc2cc([101O:1][101CH2:1]c3cc(C)c4c(c3)CC3CC4(C)C[100N:0]3[100C:0](=O)N3CCCC(n4nc(-c5ccc(Oc6ccc(F)cc6F)cc5)c(C(N)=O)c4N)C3)ccc2CC1C(=O)NC1CCCc2ccccc21)C(C)(C)C

> <Shape>
0.203

> <Color>
0.056

> <Negative vol penalty>
0.000

$$$$

  -OEChem-04052322373D

 85 93  0     1  0  0  0  0  0999 V2000
  -28.3864  -21.4489   29.4683 C   0  0  0  0  0  0  0  0  0  0  0  0
  -28.5846  -22.5286   28.6137 C   0  0  0  0  0  0  0  0  0  0  0  0
  -26.8432  -13.9066   21.6286 C   0  0  0  0  0  0  0  0  0  0  0  0
  -26.6636  -13.8015   19.2215 C   0  0  0  0  0  0  0  0  0  0  0  0
  -27.5537  -20.3995   29.0822 C   0  0  0  0  0  0  0  0  0  0  0  0
  -27.9510  -22.5589   27.3719 C   0  0  0  0  0  0  0  0  0  0  0  0
  -25.8285  -27.5000   24.4415 C   0  0  0  0  0  0  0  0  0  0  0  0
  -26.0760  -12.7468   21.7365 C   0  0  0  0  0  0  0  0  0  0  0  0
  -25.8965  -12.6415   19.3295 C   0  0  0  0  0  0  0  0  0  0  0  0
  -26.3597  -28.2838   23.4181 C   0  0  0  0  0  0  0  0  0  0  0  0
  -23.8619  -10.0134   22.6586 C   0  0  0  0  0  0  0  0  0  0  0  0
  -22.8441   -9.9937   23.6121 C   0  0  0  0  0  0  0  0  0  0  0  0
  -25.1054  -27.0093   21.7991 C   0  0  0  0  0  0  0  0  0  0  0  0
  -21.7890  -11.8757   22.5248 C   0  0  0  0  0  0  0  0  0  0  0  0
  -27.1370  -14.4341   20.3711 C   0  0  0  0  0  0  0  0  0  0  0  0
  -29.3299  -15.7186   20.1505 C   0  0  0  0  0  0  0  0  0  0  0  0
  -26.9019  -20.4215   27.8391 C   0  0  0  0  0  0  0  0  0  0  0  0
  -24.9387  -26.4561   24.1498 C   0  0  0  0  0  0  0  0  0  0  0  0
  -27.1098  -21.5081   26.9683 C   0  0  0  0  0  0  0  0  0  0  0  0
  -24.5623  -26.2153   22.8208 C   0  0  0  0  0  0  0  0  0  0  0  0
  -29.6483  -27.1638   19.7299 C   0  0  0  0  0  0  0  0  0  0  0  0
  -28.6964  -28.0817   19.3004 C   0  0  0  0  0  0  0  0  0  0  0  0
  -25.6027  -12.1142   20.5870 C   0  0  0  0  0  0  0  0  0  0  0  0
  -26.0004  -28.0366   22.0964 C   0  0  0  0  0  0  0  0  0  0  0  0
  -23.8434  -10.9644   21.6382 C   0  0  0  0  0  0  0  0  0  0  0  0
  -29.7525  -25.9306   19.0961 C   0  0  0  0  0  0  0  0  0  0  0  0
  -21.8076  -10.9248   23.5452 C   0  0  0  0  0  0  0  0  0  0  0  0
  -22.8070  -11.8955   21.5714 C   0  0  0  0  0  0  0  0  0  0  0  0
  -27.9290  -15.6325   20.2589 C   0  0  0  0  0  0  0  0  0  0  0  0
  -27.8792  -27.7210   18.2412 C   0  0  0  0  0  0  0  0  0  0  0  0
  -28.8879  -25.6661   18.0462 C   0  0  0  0  0  0  0  0  0  0  0  0
  -29.5860  -17.0657   20.0716 C   0  0  0  0  0  0  0  0  0  0  0  0
  -30.3119  -14.6743   20.1233 C   0  0  0  0  0  0  0  0  0  0  0  0
  -24.9737  -23.3024   24.5453 C   0  0  0  0  0  0  0  0  0  0  0  0
  -21.9222  -23.5247   23.4679 C   0  0  0  0  0  0  0  0  0  0  0  0
  -19.6008  -25.2758   21.6813 C   0  0  0  0  0  0  0  0  0  0  0  0
  -28.5146  -21.9952   17.9505 C   0  0  0  0  0  0  0  0  0  0  0  0
  -26.0485  -19.2417   27.4459 C   0  0  0  0  0  0  0  0  0  0  0  0
  -24.3539  -25.6369   25.2675 C   0  0  0  0  0  0  0  0  0  0  0  0
  -23.5950  -25.1198   22.4566 C   0  0  0  0  0  0  0  0  0  0  0  0
  -25.1185  -19.5278   26.2696 C   0  0  0  0  0  0  0  0  0  0  0  0
  -26.5600  -21.0454   20.8444 C   0  0  0  0  0  0  0  0  0  0  0  0
  -25.8755  -20.2360   25.1506 C   0  0  0  0  0  0  0  0  0  0  0  0
  -26.8628  -19.5488   20.9381 C   0  0  0  0  0  0  0  0  0  0  0  0
  -26.4485  -21.4969   19.3912 C   0  0  0  0  0  0  0  0  0  0  0  0
  -27.9450  -19.6859   18.6468 C   0  0  0  0  0  0  0  0  0  0  0  0
  -26.4204  -21.5891   25.6235 C   0  0  1  0  0  0  0  0  0  0  0  0
  -23.8550  -24.2701   24.8088 C   0  0  1  0  0  0  0  0  0  0  0  0
  -28.0922  -19.1717   20.0904 C   0  0  2  0  0  0  0  0  0  0  0  0
  -30.5588  -27.4956   20.8682 C   0  0  0  0  0  0  0  0  0  0  0  0
  -26.8386  -28.6659   17.7357 C   0  0  0  0  0  0  0  0  0  0  0  0
  -28.5459  -24.4640   15.8554 C   0  0  0  0  0  0  0  0  0  0  0  0
  -17.2025  -25.1874   20.9479 C   0  0  0  0  0  0  0  0  0  0  0  0
  -22.6448  -21.4352   21.3652 C   0  0  0  0  0  0  0  0  0  0  0  0
  -20.5759  -22.0818   20.1123 C   0  0  0  0  0  0  0  0  0  0  0  0
  -20.3935  -21.1283   22.4102 C   0  0  0  0  0  0  0  0  0  0  0  0
  -18.9501  -27.7839   23.1112 C   0  0  0  0  0  0  0  0  0  0  0  0
  -30.2738  -24.0841   20.5013 C   0  0  0  0  0  0  0  0  0  0  0  0
  -28.5591  -29.4283   19.9684 C   0  0  0  0  0  0  0  0  0  0  0  0
  -27.8218  -29.3423   21.3003 C   0  0  0  0  0  0  0  0  0  1  0  0
  -28.9562  -24.3569   17.3304 C   0  0  2  0  0  0  0  0  0  0  0  0
  -21.2618  -23.4839   22.1110 C   0  0  1  0  0  0  0  0  0  0  0  0
  -18.1749  -25.6816   22.0076 C   0  0  2  0  0  0  0  0  0  0  0  0
  -21.2387  -22.0518   21.5060 C   0  0  0  0  0  0  0  0  0  0  0  0
  -27.3365  -16.8296   20.2503 N   0  0  0  0  0  0  0  0  0  0  0  0
  -27.9506  -26.5326   17.6008 N   0  0  0  0  0  0  0  0  0  0  0  0
  -28.3703  -17.6807   20.1356 N   0  0  0  0  0  0  0  0  0  0  0  0
  -23.0553  -24.3422   23.5842 N   0  0  0  0  0  0  0  0  0  0  0  0
  -27.6581  -21.1242   18.6443 N   0  0  0  0  0  0  0  0  0  0  0  0
  -30.7303  -17.7724   19.9547 N   0  0  0  0  0  0  0  0  0  0  0  0
  -29.8765  -13.3453   20.2146 N   0  0  0  0  0  0  0  0  0  0  0  0
  -25.3631  -22.5768   25.6549 N   0  0  0  0  0  0  0  0  0  0  0  0
  -19.9421  -24.0820   22.2811 N   0  0  0  0  0  0  0  0  0  0  0  0
  -28.1686  -23.3403   17.9916 N   0  0  0  0  0  0  0  0  0  0  0  0
  -18.0648  -27.1654   22.0911 N   0  3  0  0  0  0  0  0  0  0  0  0
  -31.5403  -14.9134   20.0375 O   0  0  0  0  0  0  0  0  0  0  0  0
  -25.4476  -23.2190   23.4182 O   0  0  0  0  0  0  0  0  0  0  0  0
  -21.4458  -22.8615   24.3925 O   0  0  0  0  0  0  0  0  0  0  0  0
  -20.3370  -25.9484   20.9629 O   0  0  0  0  0  0  0  0  0  0  0  0
  -29.5172  -21.6037   17.3434 O   0  0  0  0  0  0  0  0  0  0  0  0
  -24.8543  -10.9822   20.6919 O   0  0  0  0  0  0  0  0  0  0  0  0
  -30.6735  -25.0139   19.4943 O   0  0  0  0  0  0  0  0  0  0  0  0
  -26.5179  -28.7998   21.0956 O   0  0  0  0  0  0  0  0  0  1  0  0
  -20.8294  -10.9047   24.4600 F   0  0  0  0  0  0  0  0  0  0  0  0
  -22.7831  -12.8107   20.5927 F   0  0  0  0  0  0  0  0  0  0  0  0
  1  2  1  0  0  0  0
  1  5  2  0  0  0  0
  2  6  2  0  0  0  0
  3  8  2  0  0  0  0
  3 15  1  0  0  0  0
  4  9  1  0  0  0  0
  4 15  2  0  0  0  0
  5 17  1  0  0  0  0
  6 19  1  0  0  0  0
  7 10  2  0  0  0  0
  7 18  1  0  0  0  0
  8 23  1  0  0  0  0
  9 23  2  0  0  0  0
 10 24  1  0  0  0  0
 11 12  2  0  0  0  0
 11 25  1  0  0  0  0
 12 27  1  0  0  0  0
 13 20  1  0  0  0  0
 13 24  2  0  0  0  0
 14 27  2  0  0  0  0
 14 28  1  0  0  0  0
 15 29  1  0  0  0  0
 16 29  1  0  0  0  0
 16 32  2  0  0  0  0
 16 33  1  0  0  0  0
 17 19  2  0  0  0  0
 17 38  1  0  0  0  0
 18 20  2  0  0  0  0
 18 39  1  0  0  0  0
 19 47  1  0  0  0  0
 20 40  1  0  0  0  0
 21 22  2  0  0  0  0
 21 26  1  0  0  0  0
 21 50  1  0  0  0  0
 22 30  1  0  0  0  0
 22 59  1  0  0  0  0
 23 81  1  0  0  0  0
 24 83  1  0  0  0  0
 25 28  2  0  0  0  0
 25 81  1  0  0  0  0
 26 31  2  0  0  0  0
 26 82  1  0  0  0  0
 27 84  1  0  0  0  0
 28 85  1  0  0  0  0
 29 65  2  0  0  0  0
 30 51  1  0  0  0  0
 30 66  2  0  0  0  0
 31 61  1  0  0  0  0
 31 66  1  0  0  0  0
 32 67  1  0  0  0  0
 32 70  1  0  0  0  0
 33 71  1  0  0  0  0
 33 76  2  0  0  0  0
 34 48  1  0  0  0  0
 34 72  1  0  0  0  0
 34 77  2  0  0  0  0
 35 62  1  0  0  0  0
 35 68  1  0  0  0  0
 35 78  2  0  0  0  0
 36 63  1  0  0  0  0
 36 73  1  0  0  0  0
 36 79  2  0  0  0  0
 37 69  1  0  0  0  0
 37 74  1  0  0  0  0
 37 80  2  0  0  0  0
 38 41  1  0  0  0  0
 39 48  1  0  0  0  0
 40 68  1  0  0  0  0
 41 43  1  0  0  0  0
 42 44  1  0  0  0  0
 42 45  1  0  0  0  0
 43 47  1  0  0  0  0
 44 49  1  0  0  0  0
 45 69  1  0  0  0  0
 46 49  1  0  0  0  0
 46 69  1  0  0  0  0
 47 72  1  0  0  0  0
 48 68  1  0  0  0  0
 49 67  1  0  0  0  0
 52 61  1  0  0  0  0
 53 63  1  0  0  0  0
 54 64  1  0  0  0  0
 55 64  1  0  0  0  0
 56 64  1  0  0  0  0
 57 75  1  0  0  0  0
 58 82  1  0  0  0  0
 59 60  1  0  0  0  0
 60 83  1  0  0  0  0
 61 74  1  0  0  0  0
 62 64  1  0  0  0  0
 62 73  1  0  0  0  0
 63 75  1  0  0  0  0
 65 67  1  0  0  0  0
M  CHG  1  75   1
M  ISO  4  37 100  60 101  74 100  83 101
M  END
> <Batch ID>
0171

> <Smiles>
CNC(C)C(=O)NC(C(=O)N1Cc2cc([101O:1][101CH2:1]Cc3c(C)nc(C(C)[100NH:0][100C:0](=O)N4CCCC(n5nc(-c6ccc(Oc7ccc(F)cc7F)cc6)c(C(N)=O)c5N)C4)c(OC)c3C)ccc2CC1C(=O)NC1CCCc2ccccc21)C(C)(C)C

> <Shape>
0.199

> <Color>
0.058

> <Negative vol penalty>
0.000

$$$$

  -OEChem-04052322373D

 89 98  0     1  0  0  0  0  0999 V2000
  -29.2032  -37.1785   23.1676 C   0  0  0  0  0  0  0  0  0  0  0  0
  -29.3706  -36.2198   22.1735 C   0  0  0  0  0  0  0  0  0  0  0  0
  -24.4091   -8.1790   17.0816 C   0  0  0  0  0  0  0  0  0  0  0  0
  -26.1135   -6.9105   18.2317 C   0  0  0  0  0  0  0  0  0  0  0  0
  -28.6685  -36.8144   24.4026 C   0  0  0  0  0  0  0  0  0  0  0  0
  -29.0044  -34.8960   22.4143 C   0  0  0  0  0  0  0  0  0  0  0  0
  -26.3829  -29.1312   19.0660 C   0  0  0  0  0  0  0  0  0  0  0  0
  -24.5715   -7.3747   15.9537 C   0  0  0  0  0  0  0  0  0  0  0  0
  -26.2759   -6.1061   17.1038 C   0  0  0  0  0  0  0  0  0  0  0  0
  -26.6592  -27.7781   18.8751 C   0  0  0  0  0  0  0  0  0  0  0  0
  -24.2824   -5.4273   12.8977 C   0  0  0  0  0  0  0  0  0  0  0  0
  -23.1315   -4.9666   12.2586 C   0  0  0  0  0  0  0  0  0  0  0  0
  -25.6721  -27.2802   21.0192 C   0  0  0  0  0  0  0  0  0  0  0  0
  -22.4568   -3.8394   14.2863 C   0  0  0  0  0  0  0  0  0  0  0  0
  -25.1801   -7.9470   18.2206 C   0  0  0  0  0  0  0  0  0  0  0  0
  -24.1301   -8.5662   20.4616 C   0  0  0  0  0  0  0  0  0  0  0  0
  -28.2866  -35.4874   24.6554 C   0  0  0  0  0  0  0  0  0  0  0  0
  -25.7579  -29.5711   20.2418 C   0  0  0  0  0  0  0  0  0  0  0  0
  -28.4654  -34.5135   23.6544 C   0  0  0  0  0  0  0  0  0  0  0  0
  -25.3867  -28.6391   21.2215 C   0  0  0  0  0  0  0  0  0  0  0  0
  -28.3911  -23.0738   19.1924 C   0  0  0  0  0  0  0  0  0  0  0  0
  -26.5813  -22.8941   17.6021 C   0  0  0  0  0  0  0  0  0  0  0  0
  -27.4018  -23.6760   18.4152 C   0  0  0  0  0  0  0  0  0  0  0  0
  -28.5602  -21.6896   19.1564 C   0  0  0  0  0  0  0  0  0  0  0  0
  -26.7504  -21.5099   17.5661 C   0  0  0  0  0  0  0  0  0  0  0  0
  -27.7398  -20.9077   18.3433 C   0  0  0  0  0  0  0  0  0  0  0  0
  -25.5049   -6.3382   15.9648 C   0  0  0  0  0  0  0  0  0  0  0  0
  -26.3064  -26.8527   19.8530 C   0  0  0  0  0  0  0  0  0  0  0  0
  -24.5207   -5.0941   14.2311 C   0  0  0  0  0  0  0  0  0  0  0  0
  -22.2186   -4.1726   12.9528 C   0  0  0  0  0  0  0  0  0  0  0  0
  -23.6078   -4.3002   14.9254 C   0  0  0  0  0  0  0  0  0  0  0  0
  -25.0132   -8.7779   19.3859 C   0  0  0  0  0  0  0  0  0  0  0  0
  -24.3536   -9.6281   21.3034 C   0  0  0  0  0  0  0  0  0  0  0  0
  -23.1917   -7.5044   20.6802 C   0  0  0  0  0  0  0  0  0  0  0  0
  -26.5713  -31.5133   22.6229 C   0  0  0  0  0  0  0  0  0  0  0  0
  -23.5075  -31.0095   23.5620 C   0  0  0  0  0  0  0  0  0  0  0  0
  -20.7487  -29.0018   23.4920 C   0  0  0  0  0  0  0  0  0  0  0  0
  -26.1934  -15.0500   20.5141 C   0  0  0  0  0  0  0  0  0  0  0  0
  -27.7571  -35.1322   26.0222 C   0  0  0  0  0  0  0  0  0  0  0  0
  -25.4427  -31.0309   20.4207 C   0  0  0  0  0  0  0  0  0  0  0  0
  -24.6955  -29.0575   22.4925 C   0  0  0  0  0  0  0  0  0  0  0  0
  -27.0462  -33.7821   26.0680 C   0  0  0  0  0  0  0  0  0  0  0  0
  -27.7527  -12.7178   22.6271 C   0  0  0  0  0  0  0  0  0  0  0  0
  -27.8718  -32.7194   25.3498 C   0  0  0  0  0  0  0  0  0  0  0  0
  -27.1375  -11.4067   22.1386 C   0  0  0  0  0  0  0  0  0  0  0  0
  -28.5232  -17.3649   19.2538 C   0  0  0  0  0  0  0  0  0  0  0  0
  -26.3034  -18.4365   19.7980 C   0  0  0  0  0  0  0  0  0  0  0  0
  -28.0856  -13.6607   21.4694 C   0  0  0  0  0  0  0  0  0  0  0  0
  -28.3313  -16.4098   20.4353 C   0  0  0  0  0  0  0  0  0  0  0  0
  -26.1708  -17.4815   20.9808 C   0  0  0  0  0  0  0  0  0  0  0  0
  -26.3283  -12.6157   20.0768 C   0  0  0  0  0  0  0  0  0  0  0  0
  -28.0571  -33.0722   23.8690 C   0  0  1  0  0  0  0  0  0  0  0  0
  -25.2663  -31.4292   21.8828 C   0  0  1  0  0  0  0  0  0  0  0  0
  -25.9303  -11.6711   21.2213 C   0  0  1  0  0  0  0  0  0  0  0  0
  -27.7777  -18.6852   19.4663 C   0  0  0  0  0  0  0  0  0  0  0  0
  -29.2707  -23.9128   20.0654 C   0  0  0  0  0  0  0  0  0  0  0  0
  -25.5209  -23.5406   16.7677 C   0  0  0  0  0  0  0  0  0  0  0  0
  -29.6228  -21.0470   19.9923 C   0  0  0  0  0  0  0  0  0  0  0  0
  -24.4815  -20.4783   17.2933 C   0  0  0  0  0  0  0  0  0  0  0  0
  -18.4098  -28.8360   24.3862 C   0  0  0  0  0  0  0  0  0  0  0  0
  -24.6097  -30.1868   26.2857 C   0  0  0  0  0  0  0  0  0  0  0  0
  -22.3877  -29.1513   26.7943 C   0  0  0  0  0  0  0  0  0  0  0  0
  -22.5522  -31.6054   26.3782 C   0  0  0  0  0  0  0  0  0  0  0  0
  -19.5827  -29.0315   20.7720 C   0  0  0  0  0  0  0  0  0  0  0  0
  -25.8683  -20.6738   16.6917 C   0  0  0  0  0  0  0  0  0  0  0  0
  -27.2206  -25.1608   18.4537 C   0  0  0  0  0  0  0  0  0  1  0  0
  -22.8115  -29.9998   24.4424 C   0  0  1  0  0  0  0  0  0  0  0  0
  -19.2846  -29.3104   23.2361 C   0  0  2  0  0  0  0  0  0  0  0  0
  -23.1050  -30.2278   25.9522 C   0  0  0  0  0  0  0  0  0  0  0  0
  -25.7432   -9.8873   19.5288 N   0  0  0  0  0  0  0  0  0  0  0  0
  -25.3191  -10.3822   20.7041 N   0  0  0  0  0  0  0  0  0  0  0  0
  -24.4145  -30.4967   22.6238 N   0  0  0  0  0  0  0  0  0  0  0  0
  -26.9162  -13.8507   20.6000 N   0  0  0  0  0  0  0  0  0  0  0  0
  -26.9037  -16.2387   20.7395 N   0  0  0  0  0  0  0  0  0  0  0  0
  -23.8163   -9.9812   22.4905 N   0  0  0  0  0  0  0  0  0  0  0  0
  -23.0897   -6.4935   19.7148 N   0  0  0  0  0  0  0  0  0  0  0  0
  -27.9073  -19.5347   18.3081 N   0  0  0  0  0  0  0  0  0  0  0  0
  -26.8543  -32.7700   23.1231 N   0  0  0  0  0  0  0  0  0  0  0  0
  -21.3964  -30.0604   24.0930 N   0  0  0  0  0  0  0  0  0  0  0  0
  -18.8242  -28.6393   21.9877 N   0  3  0  0  0  0  0  0  0  0  0  0
  -22.4535   -7.4623   21.6936 O   0  0  0  0  0  0  0  0  0  0  0  0
  -27.2689  -30.5119   22.7333 O   0  0  0  0  0  0  0  0  0  0  0  0
  -23.2505  -32.2084   23.6968 O   0  0  0  0  0  0  0  0  0  0  0  0
  -21.2653  -27.9276   23.1923 O   0  0  0  0  0  0  0  0  0  0  0  0
  -24.9843  -15.0586   20.2511 O   0  0  0  0  0  0  0  0  0  0  0  0
  -25.6635   -5.5530   14.8644 O   0  0  0  0  0  0  0  0  0  0  0  0
  -26.5776  -25.5216   19.6681 O   0  0  0  0  0  0  0  0  0  1  0  0
  -21.1126   -3.7315   12.3394 F   0  0  0  0  0  0  0  0  0  0  0  0
  -23.8307   -3.9777   16.2068 F   0  0  0  0  0  0  0  0  0  0  0  0
  1  2  1  0  0  0  0
  1  5  2  0  0  0  0
  2  6  2  0  0  0  0
  3  8  2  0  0  0  0
  3 15  1  0  0  0  0
  4  9  1  0  0  0  0
  4 15  2  0  0  0  0
  5 17  1  0  0  0  0
  6 19  1  0  0  0  0
  7 10  2  0  0  0  0
  7 18  1  0  0  0  0
  8 27  1  0  0  0  0
  9 27  2  0  0  0  0
 10 28  1  0  0  0  0
 11 12  2  0  0  0  0
 11 29  1  0  0  0  0
 12 30  1  0  0  0  0
 13 20  1  0  0  0  0
 13 28  2  0  0  0  0
 14 30  2  0  0  0  0
 14 31  1  0  0  0  0
 15 32  1  0  0  0  0
 16 32  1  0  0  0  0
 16 33  2  0  0  0  0
 16 34  1  0  0  0  0
 17 19  2  0  0  0  0
 17 39  1  0  0  0  0
 18 20  2  0  0  0  0
 18 40  1  0  0  0  0
 19 52  1  0  0  0  0
 20 41  1  0  0  0  0
 21 23  1  0  0  0  0
 21 24  2  0  0  0  0
 21 56  1  0  0  0  0
 22 23  2  0  0  0  0
 22 25  1  0  0  0  0
 22 57  1  0  0  0  0
 23 66  1  0  0  0  0
 24 26  1  0  0  0  0
 24 58  1  0  0  0  0
 25 26  2  0  0  0  0
 25 65  1  0  0  0  0
 26 77  1  0  0  0  0
 27 86  1  0  0  0  0
 28 87  1  0  0  0  0
 29 31  2  0  0  0  0
 29 86  1  0  0  0  0
 30 88  1  0  0  0  0
 31 89  1  0  0  0  0
 32 70  2  0  0  0  0
 33 71  1  0  0  0  0
 33 75  1  0  0  0  0
 34 76  1  0  0  0  0
 34 81  2  0  0  0  0
 35 53  1  0  0  0  0
 35 78  1  0  0  0  0
 35 82  2  0  0  0  0
 36 67  1  0  0  0  0
 36 72  1  0  0  0  0
 36 83  2  0  0  0  0
 37 68  1  0  0  0  0
 37 79  1  0  0  0  0
 37 84  2  0  0  0  0
 38 73  1  0  0  0  0
 38 74  1  0  0  0  0
 38 85  2  0  0  0  0
 39 42  1  0  0  0  0
 40 53  1  0  0  0  0
 41 72  1  0  0  0  0
 42 44  1  0  0  0  0
 43 45  1  0  0  0  0
 43 48  1  0  0  0  0
 44 52  1  0  0  0  0
 45 54  1  0  0  0  0
 46 49  1  0  0  0  0
 46 55  1  0  0  0  0
 47 50  1  0  0  0  0
 47 55  1  0  0  0  0
 48 73  1  0  0  0  0
 49 74  1  0  0  0  0
 50 74  1  0  0  0  0
 51 54  1  0  0  0  0
 51 73  1  0  0  0  0
 52 78  1  0  0  0  0
 53 72  1  0  0  0  0
 54 71  1  0  0  0  0
 55 77  1  0  0  0  0
 59 65  1  0  0  0  0
 60 68  1  0  0  0  0
 61 69  1  0  0  0  0
 62 69  1  0  0  0  0
 63 69  1  0  0  0  0
 64 80  1  0  0  0  0
 66 87  1  0  0  0  0
 67 69  1  0  0  0  0
 67 79  1  0  0  0  0
 68 80  1  0  0  0  0
 70 71  1  0  0  0  0
M  CHG  1  80   1
M  ISO  4  38 100  66 101  74 100  87 101
M  END
> <Batch ID>
0171

> <Smiles>
CCc1c(C)c([101CH2:1][101O:1]c2ccc3c(c2)CN(C(=O)C(NC(=O)C(C)NC)C(C)(C)C)C(C(=O)NC2CCCc4ccccc42)C3)c(C)c(C)c1NC1CC[100N:0]([100C:0](=O)N2CCCC(n3nc(-c4ccc(Oc5ccc(F)cc5F)cc4)c(C(N)=O)c3N)C2)CC1

> <Shape>
0.239

> <Color>
0.074

> <Negative vol penalty>
0.000

$$$$

  -OEChem-04052322373D

 84 93  0     1  0  0  0  0  0999 V2000
  -28.4491  -24.4865   17.2689 C   0  0  0  0  0  0  0  0  0  0  0  0
  -27.3243  -24.6114   18.0780 C   0  0  0  0  0  0  0  0  0  0  0  0
  -25.1526  -12.9705   21.7846 C   0  0  0  0  0  0  0  0  0  0  0  0
  -26.3609  -12.9888   19.6925 C   0  0  0  0  0  0  0  0  0  0  0  0
  -29.6106  -25.1931   17.5778 C   0  0  0  0  0  0  0  0  0  0  0  0
  -27.3608  -25.4422   19.1973 C   0  0  0  0  0  0  0  0  0  0  0  0
  -23.2183  -28.3252   19.6126 C   0  0  0  0  0  0  0  0  0  0  0  0
  -24.9579  -11.5950   21.6601 C   0  0  0  0  0  0  0  0  0  0  0  0
  -26.1662  -11.6132   19.5680 C   0  0  0  0  0  0  0  0  0  0  0  0
  -22.0666  -27.7172   20.1104 C   0  0  0  0  0  0  0  0  0  0  0  0
  -22.9182   -9.5134   19.9481 C   0  0  0  0  0  0  0  0  0  0  0  0
  -21.6440   -9.0132   20.2159 C   0  0  0  0  0  0  0  0  0  0  0  0
  -20.1361  -24.6771   21.0105 C   0  0  0  0  0  0  0  0  0  0  0  0
  -22.5033  -28.6794   22.2790 C   0  0  0  0  0  0  0  0  0  0  0  0
  -19.1689  -25.6250   19.0130 C   0  0  0  0  0  0  0  0  0  0  0  0
  -22.5549   -7.6379   21.9811 C   0  0  0  0  0  0  0  0  0  0  0  0
  -25.8541  -13.6675   20.8008 C   0  0  0  0  0  0  0  0  0  0  0  0
  -27.1327  -15.7416   21.5563 C   0  0  0  0  0  0  0  0  0  0  0  0
  -29.6583  -26.0405   18.6960 C   0  0  0  0  0  0  0  0  0  0  0  0
  -24.0283  -29.1074   20.4484 C   0  0  0  0  0  0  0  0  0  0  0  0
  -28.5245  -26.1598   19.5223 C   0  0  0  0  0  0  0  0  0  0  0  0
  -20.2316  -23.4245   20.3872 C   0  0  0  0  0  0  0  0  0  0  0  0
  -23.6633  -29.2984   21.7887 C   0  0  0  0  0  0  0  0  0  0  0  0
  -19.7689  -23.2730   19.0680 C   0  0  0  0  0  0  0  0  0  0  0  0
  -19.6087  -25.7715   20.3257 C   0  0  0  0  0  0  0  0  0  0  0  0
  -25.4647  -10.9163   20.5519 C   0  0  0  0  0  0  0  0  0  0  0  0
  -21.7106  -27.8919   21.4445 C   0  0  0  0  0  0  0  0  0  0  0  0
  -24.0108   -9.0758   20.6968 C   0  0  0  0  0  0  0  0  0  0  0  0
  -19.2510  -24.3827   18.3851 C   0  0  0  0  0  0  0  0  0  0  0  0
  -21.4623   -8.0754   21.2324 C   0  0  0  0  0  0  0  0  0  0  0  0
  -23.8291   -8.1381   21.7133 C   0  0  0  0  0  0  0  0  0  0  0  0
  -26.0551  -15.0885   20.9285 C   0  0  0  0  0  0  0  0  0  0  0  0
  -26.8571  -17.0790   21.4079 C   0  0  0  0  0  0  0  0  0  0  0  0
  -28.2801  -15.1888   22.2147 C   0  0  0  0  0  0  0  0  0  0  0  0
  -27.0376  -28.9343   21.4573 C   0  0  0  0  0  0  0  0  0  0  0  0
  -26.3624  -31.8338   22.7455 C   0  0  0  0  0  0  0  0  0  0  0  0
  -24.0032  -34.0120   23.9015 C   0  0  0  0  0  0  0  0  0  0  0  0
  -21.9685  -20.1214   20.8311 C   0  0  0  0  0  0  0  0  0  0  0  0
  -30.9514  -26.7474   19.0166 C   0  0  0  0  0  0  0  0  0  0  0  0
  -25.2529  -29.7783   19.8893 C   0  0  0  0  0  0  0  0  0  0  0  0
  -19.8722  -21.9469   18.3594 C   0  0  0  0  0  0  0  0  0  0  0  0
  -20.7911  -22.2596   21.1619 C   0  0  0  0  0  0  0  0  0  0  0  0
  -24.4880  -30.1451   22.7222 C   0  0  0  0  0  0  0  0  0  0  0  0
  -30.7879  -27.8964   20.0082 C   0  0  0  0  0  0  0  0  0  0  0  0
  -24.6159  -20.1501   18.5145 C   0  0  0  0  0  0  0  0  0  0  0  0
  -29.9265  -27.4630   21.1901 C   0  0  0  0  0  0  0  0  0  0  0  0
  -25.3980  -18.9053   18.9316 C   0  0  0  0  0  0  0  0  0  0  0  0
  -20.0484  -20.7815   19.3271 C   0  0  0  0  0  0  0  0  0  0  0  0
  -23.1043  -19.9247   18.5751 C   0  0  0  0  0  0  0  0  0  0  0  0
  -23.4068  -18.1770   20.2990 C   0  0  0  0  0  0  0  0  0  0  0  0
  -28.5171  -27.0703   20.7310 C   0  0  1  0  0  0  0  0  0  0  0  0
  -26.2809  -30.1331   20.9593 C   0  0  1  0  0  0  0  0  0  0  0  0
  -24.9280  -18.3930   20.3045 C   0  0  1  0  0  0  0  0  0  0  0  0
  -18.1952  -27.2866   21.7573 C   0  0  0  0  0  0  0  0  0  0  0  0
  -23.7587  -36.2893   24.9270 C   0  0  0  0  0  0  0  0  0  0  0  0
  -27.3233  -30.7288   25.4223 C   0  0  0  0  0  0  0  0  0  0  0  0
  -26.1911  -32.6584   26.5462 C   0  0  0  0  0  0  0  0  0  0  0  0
  -28.0530  -33.0714   24.9382 C   0  0  0  0  0  0  0  0  0  0  0  0
  -22.3717  -34.9861   21.6325 C   0  0  0  0  0  0  0  0  0  0  0  0
  -19.7696  -24.5040   16.0671 C   0  0  0  0  0  0  0  0  0  0  0  0
  -19.5132  -27.0975   21.0013 C   0  0  1  0  0  0  0  0  0  1  0  0
  -25.8049  -32.3144   24.0635 C   0  0  1  0  0  0  0  0  0  0  0  0
  -23.7789  -35.4894   23.6338 C   0  0  2  0  0  0  0  0  0  0  0  0
  -26.8284  -32.1757   25.2257 C   0  0  0  0  0  0  0  0  0  0  0  0
  -25.1616  -15.9408   20.4193 N   0  0  0  0  0  0  0  0  0  0  0  0
  -25.6771  -17.1431   20.7270 N   0  0  0  0  0  0  0  0  0  0  0  0
  -25.6796  -30.7751   22.1300 N   0  0  0  0  0  0  0  0  0  0  0  0
  -21.0677  -21.0815   20.3387 N   0  0  0  0  0  0  0  0  0  0  0  0
  -22.7071  -19.3955   19.8860 N   0  0  0  0  0  0  0  0  0  0  0  0
  -27.5115  -18.1946   21.7948 N   0  0  0  0  0  0  0  0  0  0  0  0
  -28.4075  -13.7945   22.2770 N   0  0  0  0  0  0  0  0  0  0  0  0
  -27.7230  -28.2518   20.4704 N   0  0  0  0  0  0  0  0  0  0  0  0
  -25.3395  -33.6784   23.8368 N   0  0  0  0  0  0  0  0  0  0  0  0
  -22.4807  -35.6974   22.9321 N   0  3  0  0  0  0  0  0  0  0  0  0
  -29.1578  -15.9099   22.7469 O   0  0  0  0  0  0  0  0  0  0  0  0
  -27.0034  -28.6505   22.6489 O   0  0  0  0  0  0  0  0  0  0  0  0
  -27.3624  -32.3823   22.2757 O   0  0  0  0  0  0  0  0  0  0  0  0
  -23.0852  -33.2328   24.1473 O   0  0  0  0  0  0  0  0  0  0  0  0
  -22.1008  -19.9255   22.0460 O   0  0  0  0  0  0  0  0  0  0  0  0
  -25.2751   -9.5740   20.4302 O   0  0  0  0  0  0  0  0  0  0  0  0
  -18.8128  -24.2720   17.0979 O   0  0  0  0  0  0  0  0  0  0  0  0
  -20.5841  -27.2973   21.9345 O   0  0  0  0  0  0  0  0  0  1  0  0
  -20.2383   -7.5963   21.4905 F   0  0  0  0  0  0  0  0  0  0  0  0
  -24.8747   -7.7148   22.4366 F   0  0  0  0  0  0  0  0  0  0  0  0
  1  2  1  0  0  0  0
  1  5  2  0  0  0  0
  2  6  2  0  0  0  0
  3  8  2  0  0  0  0
  3 17  1  0  0  0  0
  4  9  1  0  0  0  0
  4 17  2  0  0  0  0
  5 19  1  0  0  0  0
  6 21  1  0  0  0  0
  7 10  2  0  0  0  0
  7 20  1  0  0  0  0
  8 26  1  0  0  0  0
  9 26  2  0  0  0  0
 10 27  1  0  0  0  0
 11 12  2  0  0  0  0
 11 28  1  0  0  0  0
 12 30  1  0  0  0  0
 13 22  2  0  0  0  0
 13 25  1  0  0  0  0
 14 23  1  0  0  0  0
 14 27  2  0  0  0  0
 15 25  2  0  0  0  0
 15 29  1  0  0  0  0
 16 30  2  0  0  0  0
 16 31  1  0  0  0  0
 17 32  1  0  0  0  0
 18 32  1  0  0  0  0
 18 33  2  0  0  0  0
 18 34  1  0  0  0  0
 19 21  2  0  0  0  0
 19 39  1  0  0  0  0
 20 23  2  0  0  0  0
 20 40  1  0  0  0  0
 21 51  1  0  0  0  0
 22 24  1  0  0  0  0
 22 42  1  0  0  0  0
 23 43  1  0  0  0  0
 24 29  2  0  0  0  0
 24 41  1  0  0  0  0
 25 61  1  0  0  0  0
 26 80  1  0  0  0  0
 27 82  1  0  0  0  0
 28 31  2  0  0  0  0
 28 80  1  0  0  0  0
 29 81  1  0  0  0  0
 30 83  1  0  0  0  0
 31 84  1  0  0  0  0
 32 65  2  0  0  0  0
 33 66  1  0  0  0  0
 33 70  1  0  0  0  0
 34 71  1  0  0  0  0
 34 75  2  0  0  0  0
 35 52  1  0  0  0  0
 35 72  1  0  0  0  0
 35 76  2  0  0  0  0
 36 62  1  0  0  0  0
 36 67  1  0  0  0  0
 36 77  2  0  0  0  0
 37 63  1  0  0  0  0
 37 73  1  0  0  0  0
 37 78  2  0  0  0  0
 38 68  1  0  0  0  0
 38 69  1  0  0  0  0
 38 79  2  0  0  0  0
 39 44  1  0  0  0  0
 40 52  1  0  0  0  0
 41 48  1  0  0  0  0
 42 68  1  0  0  0  0
 43 67  1  0  0  0  0
 44 46  1  0  0  0  0
 45 47  1  0  0  0  0
 45 49  1  0  0  0  0
 46 51  1  0  0  0  0
 47 53  1  0  0  0  0
 48 68  1  0  0  0  0
 49 69  1  0  0  0  0
 50 53  1  0  0  0  0
 50 69  1  0  0  0  0
 51 72  1  0  0  0  0
 52 67  1  0  0  0  0
 53 66  1  0  0  0  0
 54 61  1  0  0  0  0
 55 63  1  0  0  0  0
 56 64  1  0  0  0  0
 57 64  1  0  0  0  0
 58 64  1  0  0  0  0
 59 74  1  0  0  0  0
 60 81  1  0  0  0  0
 61 82  1  0  0  0  0
 62 64  1  0  0  0  0
 62 73  1  0  0  0  0
 63 74  1  0  0  0  0
 65 66  1  0  0  0  0
M  CHG  1  74   1
M  ISO  4  38 100  61 101  68 100  82 101
M  END
> <Batch ID>
0171

> <Smiles>
CNC(C)C(=O)NC(C(=O)N1Cc2cc([101O:1][101CH:1](C)c3cc4c(c(OC)c3)CC[100N:0]([100C:0](=O)N3CCCC(n5nc(-c6ccc(Oc7ccc(F)cc7F)cc6)c(C(N)=O)c5N)C3)C4)ccc2CC1C(=O)NC1CCCc2ccccc21)C(C)(C)C

> <Shape>
0.292

> <Color>
0.080

> <Negative vol penalty>
0.000

$$$$

  -OEChem-04052322373D

 97109  0     1  0  0  0  0  0999 V2000
  -26.9954  -37.7283   23.8661 C   0  0  0  0  0  0  0  0  0  0  0  0
  -27.7211  -36.7308   23.2228 C   0  0  0  0  0  0  0  0  0  0  0  0
  -23.7405  -10.5134   22.4432 C   0  0  0  0  0  0  0  0  0  0  0  0
  -24.5530   -8.6491   21.1388 C   0  0  0  0  0  0  0  0  0  0  0  0
  -25.8744  -37.3941   24.6248 C   0  0  0  0  0  0  0  0  0  0  0  0
  -27.3267  -35.3983   23.3388 C   0  0  0  0  0  0  0  0  0  0  0  0
  -27.2143  -29.2668   19.6363 C   0  0  0  0  0  0  0  0  0  0  0  0
  -22.5899   -9.7910   22.7590 C   0  0  0  0  0  0  0  0  0  0  0  0
  -23.4024   -7.9266   21.4547 C   0  0  0  0  0  0  0  0  0  0  0  0
  -27.5946  -27.9306   19.7536 C   0  0  0  0  0  0  0  0  0  0  0  0
  -20.8446   -5.4566   22.2127 C   0  0  0  0  0  0  0  0  0  0  0  0
  -20.9991   -4.1241   22.5950 C   0  0  0  0  0  0  0  0  0  0  0  0
  -25.5954  -27.4796   21.0260 C   0  0  0  0  0  0  0  0  0  0  0  0
  -22.3709   -4.8179   24.4589 C   0  0  0  0  0  0  0  0  0  0  0  0
  -24.7220   -9.9425   21.6330 C   0  0  0  0  0  0  0  0  0  0  0  0
  -27.1219  -10.7147   22.0227 C   0  0  0  0  0  0  0  0  0  0  0  0
  -25.4605  -36.0579   24.7423 C   0  0  0  0  0  0  0  0  0  0  0  0
  -26.0251  -29.7226   20.2232 C   0  0  0  0  0  0  0  0  0  0  0  0
  -26.1999  -35.0458   24.1009 C   0  0  0  0  0  0  0  0  0  0  0  0
  -25.2010  -28.8215   20.9125 C   0  0  0  0  0  0  0  0  0  0  0  0
  -28.8860  -21.1353   20.4866 C   0  0  0  0  0  0  0  0  0  0  0  0
  -29.1137  -21.9753   21.5709 C   0  0  0  0  0  0  0  0  0  0  0  0
  -28.9544  -23.3488   21.4247 C   0  0  0  0  0  0  0  0  0  0  0  0
  -22.4208   -8.4976   22.2648 C   0  0  0  0  0  0  0  0  0  0  0  0
  -26.7866  -27.0374   20.4510 C   0  0  0  0  0  0  0  0  0  0  0  0
  -21.4533   -6.4698   22.9534 C   0  0  0  0  0  0  0  0  0  0  0  0
  -21.7622   -3.8047   23.7181 C   0  0  0  0  0  0  0  0  0  0  0  0
  -22.2164   -6.1504   24.0765 C   0  0  0  0  0  0  0  0  0  0  0  0
  -25.9106  -10.6884   21.3059 C   0  0  0  0  0  0  0  0  0  0  0  0
  -28.5690  -23.8285   20.1832 C   0  0  0  0  0  0  0  0  0  0  0  0
  -28.5035  -21.7140   19.2872 C   0  0  0  0  0  0  0  0  0  0  0  0
  -27.9268  -11.5660   21.3057 C   0  0  0  0  0  0  0  0  0  0  0  0
  -27.4871  -10.0306   23.2287 C   0  0  0  0  0  0  0  0  0  0  0  0
  -25.3052  -31.8538   22.4689 C   0  0  0  0  0  0  0  0  0  0  0  0
  -22.2580  -31.1673   21.5941 C   0  0  0  0  0  0  0  0  0  0  0  0
  -20.0767  -28.9503   20.1889 C   0  0  0  0  0  0  0  0  0  0  0  0
  -28.8276  -16.1586   18.4566 C   0  0  0  0  0  0  0  0  0  0  0  0
  -24.2700  -35.7405   25.6121 C   0  0  0  0  0  0  0  0  0  0  0  0
  -25.6157  -31.1612   20.0648 C   0  0  0  0  0  0  0  0  0  0  0  0
  -23.9044  -29.2562   21.5436 C   0  0  0  0  0  0  0  0  0  0  0  0
  -23.6997  -34.3440   25.3781 C   0  0  0  0  0  0  0  0  0  0  0  0
  -27.3429  -13.5730   16.7076 C   0  0  0  0  0  0  0  0  0  0  0  0
  -24.8203  -33.3098   25.3372 C   0  0  0  0  0  0  0  0  0  0  0  0
  -26.9332  -12.5843   17.7989 C   0  0  0  0  0  0  0  0  0  0  0  0
  -27.7324  -18.8815   20.3811 C   0  0  0  0  0  0  0  0  0  0  0  0
  -30.1638  -19.0902   19.7072 C   0  0  0  0  0  0  0  0  0  0  0  0
  -28.3401  -21.6676   13.9992 C   0  0  0  0  0  0  0  0  0  0  0  0
  -27.1755  -23.5985   15.0964 C   0  0  0  0  0  0  0  0  0  0  0  0
  -25.9312  -21.4582   14.6643 C   0  0  0  0  0  0  0  0  0  0  0  0
  -28.9366  -22.3224   16.3449 C   0  0  0  0  0  0  0  0  0  0  0  0
  -27.6926  -20.1840   15.9136 C   0  0  0  0  0  0  0  0  0  0  0  0
  -26.5255  -22.1135   17.0163 C   0  0  0  0  0  0  0  0  0  0  0  0
  -27.0722  -15.0087   17.1424 C   0  0  0  0  0  0  0  0  0  0  0  0
  -27.9154  -17.3650   20.4896 C   0  0  0  0  0  0  0  0  0  0  0  0
  -30.2959  -17.5773   19.8565 C   0  0  0  0  0  0  0  0  0  0  0  0
  -27.3388  -14.4067   19.5267 C   0  0  0  0  0  0  0  0  0  0  0  0
  -29.0532  -19.6338   20.6242 C   0  0  0  0  0  0  0  0  0  0  0  0
  -25.7892  -33.5916   24.1826 C   0  0  1  0  0  0  0  0  0  0  0  0
  -24.6398  -31.6267   21.1410 C   0  0  1  0  0  0  0  0  0  0  0  0
  -28.5133  -22.8511   14.9647 C   0  0  1  0  0  0  0  0  0  0  0  0
  -27.2659  -20.7058   14.5319 C   0  0  2  0  0  0  0  0  0  0  0  0
  -27.5980  -12.9360   19.1416 C   0  0  1  0  0  0  0  0  0  0  0  0
  -26.0785  -22.6516   15.6366 C   0  0  0  0  0  0  0  0  0  0  0  0
  -27.8680  -21.3580   16.9007 C   0  0  0  0  0  0  0  0  0  0  0  0
  -29.5294  -21.4052   22.8896 C   0  0  0  0  0  0  0  0  0  0  0  0
  -29.1920  -24.2760   22.5693 C   0  0  0  0  0  0  0  0  0  0  0  0
  -24.7482  -23.3995   15.7636 C   0  0  0  0  0  0  0  0  0  0  0  0
  -17.6443  -28.6540   19.6480 C   0  0  0  0  0  0  0  0  0  0  0  0
  -21.6774  -30.5882   24.5330 C   0  0  0  0  0  0  0  0  0  0  0  0
  -19.5858  -29.4135   23.8163 C   0  0  0  0  0  0  0  0  0  0  0  0
  -19.8736  -31.8454   23.3414 C   0  0  0  0  0  0  0  0  0  0  0  0
  -20.6286  -28.7352   17.2893 C   0  0  0  0  0  0  0  0  0  0  0  0
  -28.3816  -25.2944   19.9654 C   0  0  0  0  0  0  0  0  0  1  0  0
  -21.2227  -30.1579   22.0282 C   0  0  1  0  0  0  0  0  0  0  0  0
  -18.9959  -29.1292   19.1381 C   0  0  2  0  0  0  0  0  0  0  0  0
  -20.6152  -30.4932   23.4196 C   0  0  0  0  0  0  0  0  0  0  0  0
  -25.9388  -11.4618   20.2173 N   0  0  0  0  0  0  0  0  0  0  0  0
  -28.3387  -23.0437   19.1069 N   0  0  0  0  0  0  0  0  0  0  0  0
  -27.1776  -11.9820   20.2446 N   0  0  0  0  0  0  0  0  0  0  0  0
  -23.5506  -30.6743   21.3665 N   0  0  0  0  0  0  0  0  0  0  0  0
  -27.7168  -15.3022   18.4223 N   0  0  0  0  0  0  0  0  0  0  0  0
  -29.0142  -16.9116   19.6256 N   0  0  0  0  0  0  0  0  0  0  0  0
  -29.1951  -11.9919   21.4857 N   0  0  0  0  0  0  0  0  0  0  0  0
  -26.5400   -9.1943   23.8354 N   0  0  0  0  0  0  0  0  0  0  0  0
  -28.2669  -20.8640   18.1781 N   0  0  0  0  0  0  0  0  0  0  0  0
  -25.2190  -33.1550   22.9262 N   0  0  0  0  0  0  0  0  0  0  0  0
  -20.2429  -30.0884   20.9495 N   0  0  0  0  0  0  0  0  0  0  0  0
  -19.3339  -28.3547   17.9105 N   0  3  0  0  0  0  0  0  0  0  0  0
  -28.6140  -10.1700   23.7617 O   0  0  0  0  0  0  0  0  0  0  0  0
  -25.8548  -30.9176   23.0373 O   0  0  0  0  0  0  0  0  0  0  0  0
  -21.9300  -32.3482   21.4548 O   0  0  0  0  0  0  0  0  0  0  0  0
  -20.7077  -27.9043   20.3242 O   0  0  0  0  0  0  0  0  0  0  0  0
  -29.6076  -16.2453   17.4999 O   0  0  0  0  0  0  0  0  0  0  0  0
  -21.2983   -7.7923   22.5730 O   0  0  0  0  0  0  0  0  0  0  0  0
  -27.1630  -25.7070   20.5699 O   0  0  0  0  0  0  0  0  0  1  0  0
  -21.9093   -2.5252   24.0860 F   0  0  0  0  0  0  0  0  0  0  0  0
  -22.8026   -7.1196   24.7927 F   0  0  0  0  0  0  0  0  0  0  0  0
  1  2  1  0  0  0  0
  1  5  2  0  0  0  0
  2  6  2  0  0  0  0
  3  8  2  0  0  0  0
  3 15  1  0  0  0  0
  4  9  1  0  0  0  0
  4 15  2  0  0  0  0
  5 17  1  0  0  0  0
  6 19  1  0  0  0  0
  7 10  2  0  0  0  0
  7 18  1  0  0  0  0
  8 24  1  0  0  0  0
  9 24  2  0  0  0  0
 10 25  1  0  0  0  0
 11 12  2  0  0  0  0
 11 26  1  0  0  0  0
 12 27  1  0  0  0  0
 13 20  1  0  0  0  0
 13 25  2  0  0  0  0
 14 27  2  0  0  0  0
 14 28  1  0  0  0  0
 15 29  1  0  0  0  0
 16 29  1  0  0  0  0
 16 32  2  0  0  0  0
 16 33  1  0  0  0  0
 17 19  2  0  0  0  0
 17 38  1  0  0  0  0
 18 20  2  0  0  0  0
 18 39  1  0  0  0  0
 19 58  1  0  0  0  0
 20 40  1  0  0  0  0
 21 22  2  0  0  0  0
 21 31  1  0  0  0  0
 21 57  1  0  0  0  0
 22 23  1  0  0  0  0
 22 65  1  0  0  0  0
 23 30  2  0  0  0  0
 23 66  1  0  0  0  0
 24 94  1  0  0  0  0
 25 95  1  0  0  0  0
 26 28  2  0  0  0  0
 26 94  1  0  0  0  0
 27 96  1  0  0  0  0
 28 97  1  0  0  0  0
 29 77  2  0  0  0  0
 30 73  1  0  0  0  0
 30 78  1  0  0  0  0
 31 78  2  0  0  0  0
 31 85  1  0  0  0  0
 32 79  1  0  0  0  0
 32 83  1  0  0  0  0
 33 84  1  0  0  0  0
 33 89  2  0  0  0  0
 34 59  1  0  0  0  0
 34 86  1  0  0  0  0
 34 90  2  0  0  0  0
 35 74  1  0  0  0  0
 35 80  1  0  0  0  0
 35 91  2  0  0  0  0
 36 75  1  0  0  0  0
 36 87  1  0  0  0  0
 36 92  2  0  0  0  0
 37 81  1  0  0  0  0
 37 82  1  0  0  0  0
 37 93  2  0  0  0  0
 38 41  1  0  0  0  0
 39 59  1  0  0  0  0
 40 80  1  0  0  0  0
 41 43  1  0  0  0  0
 42 44  1  0  0  0  0
 42 53  1  0  0  0  0
 43 58  1  0  0  0  0
 44 62  1  0  0  0  0
 45 54  1  0  0  0  0
 45 57  1  0  0  0  0
 46 55  1  0  0  0  0
 46 57  1  0  0  0  0
 47 60  1  0  0  0  0
 47 61  1  0  0  0  0
 48 60  1  0  0  0  0
 48 63  1  0  0  0  0
 49 61  1  0  0  0  0
 49 63  1  0  0  0  0
 50 60  1  0  0  0  0
 50 64  1  0  0  0  0
 51 61  1  0  0  0  0
 51 64  1  0  0  0  0
 52 63  1  0  0  0  0
 52 64  1  0  0  0  0
 53 81  1  0  0  0  0
 54 82  1  0  0  0  0
 55 82  1  0  0  0  0
 56 62  1  0  0  0  0
 56 81  1  0  0  0  0
 58 86  1  0  0  0  0
 59 80  1  0  0  0  0
 62 79  1  0  0  0  0
 63 67  1  0  0  0  0
 64 85  1  0  0  0  0
 68 75  1  0  0  0  0
 69 76  1  0  0  0  0
 70 76  1  0  0  0  0
 71 76  1  0  0  0  0
 72 88  1  0  0  0  0
 73 95  1  0  0  0  0
 74 76  1  0  0  0  0
 74 87  1  0  0  0  0
 75 88  1  0  0  0  0
 77 79  1  0  0  0  0
M  CHG  1  88   1
M  ISO  4  37 100  73 101  82 100  95 101
M  END
> <Batch ID>
0171

> <Smiles>
CNC(C)C(=O)NC(C(=O)N1Cc2cc([101O:1][101CH2:1]c3nc(NC45CC6CC(CC(C)(C6)C4)C5)c(C4CC[100N:0]([100C:0](=O)N5CCCC(n6nc(-c7ccc(Oc8ccc(F)cc8F)cc7)c(C(N)=O)c6N)C5)CC4)c(C)c3C)ccc2CC1C(=O)NC1CCCc2ccccc21)C(C)(C)C

> <Shape>
0.320

> <Color>
0.086

> <Negative vol penalty>
0.000

$$$$

  -OEChem-04052322373D

 84 93  0     1  0  0  0  0  0999 V2000
  -29.6738  -24.3074   17.5530 C   0  0  0  0  0  0  0  0  0  0  0  0
  -28.4327  -24.3883   18.1765 C   0  0  0  0  0  0  0  0  0  0  0  0
  -27.5857  -16.9556   21.9237 C   0  0  0  0  0  0  0  0  0  0  0  0
  -25.5272  -17.2406   20.6914 C   0  0  0  0  0  0  0  0  0  0  0  0
  -30.7562  -25.0239   18.0617 C   0  0  0  0  0  0  0  0  0  0  0  0
  -28.2738  -25.1851   19.3098 C   0  0  0  0  0  0  0  0  0  0  0  0
  -24.0562  -27.9831   19.1413 C   0  0  0  0  0  0  0  0  0  0  0  0
  -27.6174  -15.6095   21.5593 C   0  0  0  0  0  0  0  0  0  0  0  0
  -25.5590  -15.8945   20.3270 C   0  0  0  0  0  0  0  0  0  0  0  0
  -22.8538  -27.3406   19.4332 C   0  0  0  0  0  0  0  0  0  0  0  0
  -28.4651  -13.7837   18.8426 C   0  0  0  0  0  0  0  0  0  0  0  0
  -29.6802  -13.2602   18.4010 C   0  0  0  0  0  0  0  0  0  0  0  0
  -22.9211  -28.2435   21.6691 C   0  0  0  0  0  0  0  0  0  0  0  0
  -29.6484  -11.6598   20.2106 C   0  0  0  0  0  0  0  0  0  0  0  0
  -19.8570  -24.5646   22.8124 C   0  0  0  0  0  0  0  0  0  0  0  0
  -26.5405  -17.7711   21.4898 C   0  0  0  0  0  0  0  0  0  0  0  0
  -27.0740  -20.2450   21.1691 C   0  0  0  0  0  0  0  0  0  0  0  0
  -30.6081  -25.8374   19.1961 C   0  0  0  0  0  0  0  0  0  0  0  0
  -24.7068  -28.7530   20.1162 C   0  0  0  0  0  0  0  0  0  0  0  0
  -29.3556  -25.9121   19.8349 C   0  0  0  0  0  0  0  0  0  0  0  0
  -24.1303  -28.8968   21.3863 C   0  0  0  0  0  0  0  0  0  0  0  0
  -19.8900  -23.2668   23.2967 C   0  0  0  0  0  0  0  0  0  0  0  0
  -19.4983  -22.3849   22.2433 C   0  0  0  0  0  0  0  0  0  0  0  0
  -26.6041  -15.0790   20.7610 C   0  0  0  0  0  0  0  0  0  0  0  0
  -22.2875  -27.4684   20.6981 C   0  0  0  0  0  0  0  0  0  0  0  0
  -27.8417  -13.2453   19.9683 C   0  0  0  0  0  0  0  0  0  0  0  0
  -30.2719  -12.1982   19.0850 C   0  0  0  0  0  0  0  0  0  0  0  0
  -28.4333  -12.1834   20.6523 C   0  0  0  0  0  0  0  0  0  0  0  0
  -26.5068  -19.1615   21.8663 C   0  0  0  0  0  0  0  0  0  0  0  0
  -19.2396  -23.1799   21.1562 C   0  0  0  0  0  0  0  0  0  0  0  0
  -26.7673  -21.3438   21.9339 C   0  0  0  0  0  0  0  0  0  0  0  0
  -27.8120  -20.2571   19.9399 C   0  0  0  0  0  0  0  0  0  0  0  0
  -27.5217  -28.6005   21.5848 C   0  0  0  0  0  0  0  0  0  0  0  0
  -26.5886  -31.4474   22.8286 C   0  0  0  0  0  0  0  0  0  0  0  0
  -24.0297  -33.5489   23.6549 C   0  0  0  0  0  0  0  0  0  0  0  0
  -22.3990  -22.4834   25.8672 C   0  0  0  0  0  0  0  0  0  0  0  0
  -31.8186  -26.5561   19.7371 C   0  0  0  0  0  0  0  0  0  0  0  0
  -25.9896  -29.4615   19.7772 C   0  0  0  0  0  0  0  0  0  0  0  0
  -24.7785  -29.7285   22.4618 C   0  0  0  0  0  0  0  0  0  0  0  0
  -31.4755  -27.6714   20.7213 C   0  0  0  0  0  0  0  0  0  0  0  0
  -25.9065  -22.6334   26.4601 C   0  0  0  0  0  0  0  0  0  0  0  0
  -30.4477  -27.1875   21.7393 C   0  0  0  0  0  0  0  0  0  0  0  0
  -26.5093  -21.8584   25.2871 C   0  0  0  0  0  0  0  0  0  0  0  0
  -18.4952  -24.5859   19.4037 C   0  0  0  0  0  0  0  0  0  0  0  0
  -24.5893  -22.0173   26.9263 C   0  0  0  0  0  0  0  0  0  0  0  0
  -24.1842  -21.0590   24.6922 C   0  0  0  0  0  0  0  0  0  0  0  0
  -29.1374  -26.7850   21.0517 C   0  0  1  0  0  0  0  0  0  0  0  0
  -26.8275  -29.8009   21.0061 C   0  0  1  0  0  0  0  0  0  0  0  0
  -25.4854  -21.6754   24.1507 C   0  0  2  0  0  0  0  0  0  0  0  0
  -19.2333  -25.4429   20.4658 C   0  0  2  0  0  0  0  0  0  0  0  0
  -18.7940  -23.0820   19.7381 C   0  0  0  0  0  0  0  0  0  0  0  0
  -19.3821  -20.9159   22.3171 C   0  0  0  0  0  0  0  0  0  0  0  0
  -17.5322  -22.2289   19.5926 C   0  0  0  0  0  0  0  0  0  0  0  0
  -19.9116  -22.5253   18.8504 C   0  0  0  0  0  0  0  0  0  0  0  0
  -23.5769  -35.7893   24.6907 C   0  0  0  0  0  0  0  0  0  0  0  0
  -27.1378  -30.2777   25.5927 C   0  0  0  0  0  0  0  0  0  0  0  0
  -25.8006  -32.1526   26.5751 C   0  0  0  0  0  0  0  0  0  0  0  0
  -27.8840  -32.6461   25.2950 C   0  0  0  0  0  0  0  0  0  0  0  0
  -22.7569  -34.5638   21.1833 C   0  0  0  0  0  0  0  0  0  0  0  0
  -20.2593  -22.8741   24.6722 C   0  0  0  0  0  0  0  0  0  0  0  0
  -20.5180  -26.0696   19.9445 C   0  0  0  0  0  0  0  0  0  1  0  0
  -25.8195  -31.8780   24.0542 C   0  0  1  0  0  0  0  0  0  0  0  0
  -23.8187  -35.0296   23.3956 C   0  0  2  0  0  0  0  0  0  0  0  0
  -26.6490  -31.7213   25.3598 C   0  0  0  0  0  0  0  0  0  0  0  0
  -25.8869  -19.5378   22.9879 N   0  0  0  0  0  0  0  0  0  0  0  0
  -19.4772  -24.4724   21.5204 N   0  0  0  0  0  0  0  0  0  0  0  0
  -26.0628  -20.8701   23.0014 N   0  0  0  0  0  0  0  0  0  0  0  0
  -26.0349  -30.3965   22.0837 N   0  0  0  0  0  0  0  0  0  0  0  0
  -23.6621  -21.8724   25.8015 N   0  0  0  0  0  0  0  0  0  0  0  0
  -27.0343  -22.6594   21.7908 N   0  0  0  0  0  0  0  0  0  0  0  0
  -28.0371  -19.0393   19.2837 N   0  0  0  0  0  0  0  0  0  0  0  0
  -28.3691  -27.9602   20.7009 N   0  0  0  0  0  0  0  0  0  0  0  0
  -25.3663  -33.2401   23.7940 N   0  0  0  0  0  0  0  0  0  0  0  0
  -21.5845  -22.3018   24.7562 N   0  0  0  0  0  0  0  0  0  0  0  0
  -22.6435  -35.2369   22.5028 N   0  3  0  0  0  0  0  0  0  0  0  0
  -28.2728  -21.3145   19.4468 O   0  0  0  0  0  0  0  0  0  0  0  0
  -27.3057  -28.2799   22.7477 O   0  0  0  0  0  0  0  0  0  0  0  0
  -27.6382  -32.0270   22.5387 O   0  0  0  0  0  0  0  0  0  0  0  0
  -23.1014  -32.7469   23.7304 O   0  0  0  0  0  0  0  0  0  0  0  0
  -22.0269  -23.1463   26.8413 O   0  0  0  0  0  0  0  0  0  0  0  0
  -26.6350  -13.7657   20.4050 O   0  0  0  0  0  0  0  0  0  0  0  0
  -21.1143  -26.8418   20.9859 O   0  0  0  0  0  0  0  0  0  1  0  0
  -31.4380  -11.6946   18.6599 F   0  0  0  0  0  0  0  0  0  0  0  0
  -27.8385  -11.6612   21.7337 F   0  0  0  0  0  0  0  0  0  0  0  0
  1  2  1  0  0  0  0
  1  5  2  0  0  0  0
  2  6  2  0  0  0  0
  3  8  2  0  0  0  0
  3 16  1  0  0  0  0
  4  9  1  0  0  0  0
  4 16  2  0  0  0  0
  5 18  1  0  0  0  0
  6 20  1  0  0  0  0
  7 10  2  0  0  0  0
  7 19  1  0  0  0  0
  8 24  1  0  0  0  0
  9 24  2  0  0  0  0
 10 25  1  0  0  0  0
 11 12  2  0  0  0  0
 11 26  1  0  0  0  0
 12 27  1  0  0  0  0
 13 21  1  0  0  0  0
 13 25  2  0  0  0  0
 14 27  2  0  0  0  0
 14 28  1  0  0  0  0
 15 22  2  0  0  0  0
 15 66  1  0  0  0  0
 16 29  1  0  0  0  0
 17 29  1  0  0  0  0
 17 31  2  0  0  0  0
 17 32  1  0  0  0  0
 18 20  2  0  0  0  0
 18 37  1  0  0  0  0
 19 21  2  0  0  0  0
 19 38  1  0  0  0  0
 20 47  1  0  0  0  0
 21 39  1  0  0  0  0
 22 23  1  0  0  0  0
 22 60  1  0  0  0  0
 23 30  2  0  0  0  0
 23 52  1  0  0  0  0
 24 81  1  0  0  0  0
 25 82  1  0  0  0  0
 26 28  2  0  0  0  0
 26 81  1  0  0  0  0
 27 83  1  0  0  0  0
 28 84  1  0  0  0  0
 29 65  2  0  0  0  0
 30 51  1  0  0  0  0
 30 66  1  0  0  0  0
 31 67  1  0  0  0  0
 31 70  1  0  0  0  0
 32 71  1  0  0  0  0
 32 76  2  0  0  0  0
 33 48  1  0  0  0  0
 33 72  1  0  0  0  0
 33 77  2  0  0  0  0
 34 62  1  0  0  0  0
 34 68  1  0  0  0  0
 34 78  2  0  0  0  0
 35 63  1  0  0  0  0
 35 73  1  0  0  0  0
 35 79  2  0  0  0  0
 36 69  1  0  0  0  0
 36 74  1  0  0  0  0
 36 80  2  0  0  0  0
 37 40  1  0  0  0  0
 38 48  1  0  0  0  0
 39 68  1  0  0  0  0
 40 42  1  0  0  0  0
 41 43  1  0  0  0  0
 41 45  1  0  0  0  0
 42 47  1  0  0  0  0
 43 49  1  0  0  0  0
 44 50  1  0  0  0  0
 44 51  1  0  0  0  0
 45 69  1  0  0  0  0
 46 49  1  0  0  0  0
 46 69  1  0  0  0  0
 47 72  1  0  0  0  0
 48 68  1  0  0  0  0
 49 67  1  0  0  0  0
 50 61  1  0  0  0  0
 50 66  1  0  0  0  0
 51 53  1  0  0  0  0
 51 54  1  0  0  0  0
 55 63  1  0  0  0  0
 56 64  1  0  0  0  0
 57 64  1  0  0  0  0
 58 64  1  0  0  0  0
 59 75  1  0  0  0  0
 60 74  1  0  0  0  0
 61 82  1  0  0  0  0
 62 64  1  0  0  0  0
 62 73  1  0  0  0  0
 63 75  1  0  0  0  0
 65 67  1  0  0  0  0
M  CHG  1  75   1
M  ISO  4  36 100  61 101  74 100  82 101
M  END
> <Batch ID>
0171

> <Smiles>
CNC(C)C(=O)NC(C(=O)N1Cc2cc([101O:1][101CH2:1]C3CC(C)(C)c4c(C)c(C[100NH:0][100C:0](=O)N5CCCC(n6nc(-c7ccc(Oc8ccc(F)cc8F)cc7)c(C(N)=O)c6N)C5)cn43)ccc2CC1C(=O)NC1CCCc2ccccc21)C(C)(C)C

> <Shape>
0.270

> <Color>
0.067

> <Negative vol penalty>
0.000

$$$$

  -OEChem-04052322373D

 87 96  0     1  0  0  0  0  0999 V2000
  -21.6875  -22.7880   36.9432 C   0  0  0  0  0  0  0  0  0  0  0  0
  -21.8713  -22.5215   35.5902 C   0  0  0  0  0  0  0  0  0  0  0  0
  -23.1027   -9.8619   19.9216 C   0  0  0  0  0  0  0  0  0  0  0  0
  -23.7959   -9.8789   22.2359 C   0  0  0  0  0  0  0  0  0  0  0  0
  -22.7579  -22.6657   37.8282 C   0  0  0  0  0  0  0  0  0  0  0  0
  -23.1259  -22.1334   35.1213 C   0  0  0  0  0  0  0  0  0  0  0  0
  -24.3026  -18.2062   30.5718 C   0  0  0  0  0  0  0  0  0  0  0  0
  -22.3452   -8.7145   20.1568 C   0  0  0  0  0  0  0  0  0  0  0  0
  -23.0384   -8.7315   22.4712 C   0  0  0  0  0  0  0  0  0  0  0  0
  -24.6227  -18.3959   29.2281 C   0  0  0  0  0  0  0  0  0  0  0  0
  -20.9998   -6.0139   23.7663 C   0  0  0  0  0  0  0  0  0  0  0  0
  -20.2097   -5.9819   24.9153 C   0  0  0  0  0  0  0  0  0  0  0  0
  -26.9660  -18.1946   29.7642 C   0  0  0  0  0  0  0  0  0  0  0  0
  -18.9981   -7.9215   24.1362 C   0  0  0  0  0  0  0  0  0  0  0  0
  -23.8281  -10.4441   20.9611 C   0  0  0  0  0  0  0  0  0  0  0  0
  -24.1879  -12.9665   20.8357 C   0  0  0  0  0  0  0  0  0  0  0  0
  -24.0239  -22.2666   37.3715 C   0  0  0  0  0  0  0  0  0  0  0  0
  -25.3141  -18.0198   31.5250 C   0  0  0  0  0  0  0  0  0  0  0  0
  -24.2145  -22.0069   36.0008 C   0  0  0  0  0  0  0  0  0  0  0  0
  -26.6561  -18.0002   31.1189 C   0  0  0  0  0  0  0  0  0  0  0  0
  -22.3131   -8.1493   21.4316 C   0  0  0  0  0  0  0  0  0  0  0  0
  -25.9547  -18.3930   28.8246 C   0  0  0  0  0  0  0  0  0  0  0  0
  -20.7891   -6.9998   22.8022 C   0  0  0  0  0  0  0  0  0  0  0  0
  -19.2088   -6.9356   25.1003 C   0  0  0  0  0  0  0  0  0  0  0  0
  -19.7882   -7.9536   22.9872 C   0  0  0  0  0  0  0  0  0  0  0  0
  -24.6112  -11.6290   20.7185 C   0  0  0  0  0  0  0  0  0  0  0  0
  -25.2944  -13.7075   20.4997 C   0  0  0  0  0  0  0  0  0  0  0  0
  -22.9088  -13.4920   21.2145 C   0  0  0  0  0  0  0  0  0  0  0  0
  -26.2829  -19.6017   34.1062 C   0  0  0  0  0  0  0  0  0  0  0  0
  -28.2372  -17.0378   34.4658 C   0  0  0  0  0  0  0  0  0  0  0  0
  -25.7564  -15.6141   25.3892 C   0  0  0  0  0  0  0  0  0  0  0  0
  -29.8673  -14.4119   33.0188 C   0  0  0  0  0  0  0  0  0  0  0  0
  -30.6607  -14.7767   20.6728 C   0  0  0  0  0  0  0  0  0  0  0  0
  -25.1620  -22.1940   38.3584 C   0  0  0  0  0  0  0  0  0  0  0  0
  -24.9510  -17.7898   32.9664 C   0  0  0  0  0  0  0  0  0  0  0  0
  -27.7783  -17.7839   32.0998 C   0  0  0  0  0  0  0  0  0  0  0  0
  -26.3684  -21.4150   37.8407 C   0  0  0  0  0  0  0  0  0  0  0  0
  -29.6921  -12.3290   18.4313 C   0  0  0  0  0  0  0  0  0  0  0  0
  -26.7136  -21.8480   36.4193 C   0  0  0  0  0  0  0  0  0  0  0  0
  -28.2458  -12.0288   18.8245 C   0  0  0  0  0  0  0  0  0  0  0  0
  -29.0123  -17.9433   21.6637 C   0  0  0  0  0  0  0  0  0  0  0  0
  -28.4867  -16.1758   23.3808 C   0  0  0  0  0  0  0  0  0  0  0  0
  -26.6726  -20.1802   25.0963 C   0  0  0  0  0  0  0  0  0  0  0  0
  -30.5660  -12.5159   19.6663 C   0  0  0  0  0  0  0  0  0  0  0  0
  -30.2395  -17.1408   21.2404 C   0  0  0  0  0  0  0  0  0  0  0  0
  -29.7259  -15.4100   22.9294 C   0  0  0  0  0  0  0  0  0  0  0  0
  -28.6320  -13.2920   20.9979 C   0  0  0  0  0  0  0  0  0  0  0  0
  -25.5543  -21.5595   35.4579 C   0  0  1  0  0  0  0  0  0  0  0  0
  -26.0867  -18.1226   33.9291 C   0  0  1  0  0  0  0  0  0  0  0  0
  -28.6409  -17.6818   23.1290 C   0  0  0  0  0  0  0  0  0  0  0  0
  -27.3650  -18.4295   23.5087 C   0  0  2  0  0  0  0  0  0  0  0  0
  -27.5140  -19.9400   23.8282 C   0  0  2  0  0  0  0  0  0  0  0  0
  -25.7538  -18.9637   25.2025 C   0  0  1  0  0  0  0  0  0  0  0  0
  -27.7002  -13.1011   19.7843 C   0  0  2  0  0  0  0  0  0  0  0  0
  -26.6756  -17.8325   24.7441 C   0  0  1  0  0  0  0  0  0  0  0  0
  -24.9963  -14.4391   24.8695 C   0  0  0  0  0  0  0  0  0  0  0  0
  -28.9338  -20.4659   24.0054 C   0  0  0  0  0  0  0  0  0  0  0  0
  -31.4188  -12.5157   33.5617 C   0  0  0  0  0  0  0  0  0  0  0  0
  -30.5705  -18.9972   34.6301 C   0  0  0  0  0  0  0  0  0  0  0  0
  -32.1218  -17.0765   34.2148 C   0  0  0  0  0  0  0  0  0  0  0  0
  -30.6858  -17.0991   36.2544 C   0  0  0  0  0  0  0  0  0  0  0  0
  -27.8897  -12.3907   32.1455 C   0  0  0  0  0  0  0  0  0  0  0  0
  -25.1938  -18.7705   26.6032 C   0  0  0  0  0  0  0  0  0  1  0  0
  -29.6267  -16.6787   33.9975 C   0  0  1  0  0  0  0  0  0  0  0  0
  -29.9688  -12.9491   33.4120 C   0  0  2  0  0  0  0  0  0  0  0  0
  -30.7304  -17.4689   34.7558 C   0  0  0  0  0  0  0  0  0  0  0  0
  -25.8871  -11.5234   20.3377 N   0  0  0  0  0  0  0  0  0  0  0  0
  -26.2749  -12.8041   20.2126 N   0  0  0  0  0  0  0  0  0  0  0  0
  -27.3726  -17.5699   33.4988 N   0  0  0  0  0  0  0  0  0  0  0  0
  -30.0122  -13.5383   20.5539 N   0  0  0  0  0  0  0  0  0  0  0  0
  -30.0770  -15.7182   21.5366 N   0  0  0  0  0  0  0  0  0  0  0  0
  -25.5145  -15.0373   20.4248 N   0  0  0  0  0  0  0  0  0  0  0  0
  -21.8823  -12.5906   21.5278 N   0  0  0  0  0  0  0  0  0  0  0  0
  -25.5187  -20.1535   35.1166 N   0  0  0  0  0  0  0  0  0  0  0  0
  -25.9686  -16.6150   24.4540 N   0  0  0  0  0  0  0  0  0  0  0  0
  -29.7374  -15.2293   34.1216 N   0  0  0  0  0  0  0  0  0  0  0  0
  -29.3255  -12.0892   32.3787 N   0  3  0  0  0  0  0  0  0  0  0  0
  -22.6781  -14.7242   21.2575 O   0  0  0  0  0  0  0  0  0  0  0  0
  -27.0704  -20.1979   33.3809 O   0  0  0  0  0  0  0  0  0  0  0  0
  -27.9281  -16.8465   35.6446 O   0  0  0  0  0  0  0  0  0  0  0  0
  -26.1287  -15.6246   26.5566 O   0  0  0  0  0  0  0  0  0  0  0  0
  -29.9036  -14.7916   31.8505 O   0  0  0  0  0  0  0  0  0  0  0  0
  -31.6955  -15.0303   20.0435 O   0  0  0  0  0  0  0  0  0  0  0  0
  -21.5738   -7.0298   21.6616 O   0  0  0  0  0  0  0  0  0  0  0  0
  -26.2726  -18.5802   27.5027 O   0  0  0  0  0  0  0  0  0  1  0  0
  -18.4491   -6.9038   26.2030 F   0  0  0  0  0  0  0  0  0  0  0  0
  -19.5803   -8.9024   22.0640 F   0  0  0  0  0  0  0  0  0  0  0  0
  1  2  1  0  0  0  0
  1  5  2  0  0  0  0
  2  6  2  0  0  0  0
  3  8  2  0  0  0  0
  3 15  1  0  0  0  0
  4  9  1  0  0  0  0
  4 15  2  0  0  0  0
  5 17  1  0  0  0  0
  6 19  1  0  0  0  0
  7 10  2  0  0  0  0
  7 18  1  0  0  0  0
  8 21  1  0  0  0  0
  9 21  2  0  0  0  0
 10 22  1  0  0  0  0
 11 12  2  0  0  0  0
 11 23  1  0  0  0  0
 12 24  1  0  0  0  0
 13 20  1  0  0  0  0
 13 22  2  0  0  0  0
 14 24  2  0  0  0  0
 14 25  1  0  0  0  0
 15 26  1  0  0  0  0
 16 26  1  0  0  0  0
 16 27  2  0  0  0  0
 16 28  1  0  0  0  0
 17 19  2  0  0  0  0
 17 34  1  0  0  0  0
 18 20  2  0  0  0  0
 18 35  1  0  0  0  0
 19 48  1  0  0  0  0
 20 36  1  0  0  0  0
 21 84  1  0  0  0  0
 22 85  1  0  0  0  0
 23 25  2  0  0  0  0
 23 84  1  0  0  0  0
 24 86  1  0  0  0  0
 25 87  1  0  0  0  0
 26 67  2  0  0  0  0
 27 68  1  0  0  0  0
 27 72  1  0  0  0  0
 28 73  1  0  0  0  0
 28 78  2  0  0  0  0
 29 49  1  0  0  0  0
 29 74  1  0  0  0  0
 29 79  2  0  0  0  0
 30 64  1  0  0  0  0
 30 69  1  0  0  0  0
 30 80  2  0  0  0  0
 31 56  1  0  0  0  0
 31 75  1  0  0  0  0
 31 81  2  0  0  0  0
 32 65  1  0  0  0  0
 32 76  1  0  0  0  0
 32 82  2  0  0  0  0
 33 70  1  0  0  0  0
 33 71  1  0  0  0  0
 33 83  2  0  0  0  0
 34 37  1  0  0  0  0
 35 49  1  0  0  0  0
 36 69  1  0  0  0  0
 37 39  1  0  0  0  0
 38 40  1  0  0  0  0
 38 44  1  0  0  0  0
 39 48  1  0  0  0  0
 40 54  1  0  0  0  0
 41 45  1  0  0  0  0
 41 50  1  0  0  0  0
 42 46  1  0  0  0  0
 42 50  1  0  0  0  0
 43 52  1  0  0  0  0
 43 53  1  0  0  0  0
 44 70  1  0  0  0  0
 45 71  1  0  0  0  0
 46 71  1  0  0  0  0
 47 54  1  0  0  0  0
 47 70  1  0  0  0  0
 48 74  1  0  0  0  0
 49 69  1  0  0  0  0
 50 51  1  0  0  0  0
 51 52  1  0  0  0  0
 51 55  1  0  0  0  0
 52 57  1  0  0  0  0
 53 55  1  0  0  0  0
 53 63  1  0  0  0  0
 54 68  1  0  0  0  0
 55 75  1  0  0  0  0
 58 65  1  0  0  0  0
 59 66  1  0  0  0  0
 60 66  1  0  0  0  0
 61 66  1  0  0  0  0
 62 77  1  0  0  0  0
 63 85  1  0  0  0  0
 64 66  1  0  0  0  0
 64 76  1  0  0  0  0
 65 77  1  0  0  0  0
 67 68  1  0  0  0  0
M  CHG  1  77   1
M  ISO  4  33 100  63 101  71 100  85 101
M  END
> <Batch ID>
0171

> <Smiles>
CNC(C)C(=O)NC(C(=O)N1Cc2cc([101O:1][101CH2:1]C3CC(C)C(C4CC[100N:0]([100C:0](=O)N5CCCC(n6nc(-c7ccc(Oc8ccc(F)cc8F)cc7)c(C(N)=O)c6N)C5)CC4)C3NC(C)=O)ccc2CC1C(=O)NC1CCCc2ccccc21)C(C)(C)C

> <Shape>
0.160

> <Color>
0.190

> <Negative vol penalty>
0.000

$$$$

  -OEChem-04052322373D

 85 94  0     1  0  0  0  0  0999 V2000
  -29.1125  -36.2644   23.6919 C   0  0  0  0  0  0  0  0  0  0  0  0
  -29.3243  -34.9457   23.3026 C   0  0  0  0  0  0  0  0  0  0  0  0
  -23.1876  -10.5024   21.7468 C   0  0  0  0  0  0  0  0  0  0  0  0
  -24.7386   -8.6738   21.4505 C   0  0  0  0  0  0  0  0  0  0  0  0
  -27.8922  -36.6367   24.2542 C   0  0  0  0  0  0  0  0  0  0  0  0
  -28.3160  -33.9982   23.4763 C   0  0  0  0  0  0  0  0  0  0  0  0
  -27.0564  -29.2501   19.8191 C   0  0  0  0  0  0  0  0  0  0  0  0
  -22.1273   -9.5970   21.7841 C   0  0  0  0  0  0  0  0  0  0  0  0
  -23.6783   -7.7684   21.4879 C   0  0  0  0  0  0  0  0  0  0  0  0
  -27.3891  -27.8980   19.8892 C   0  0  0  0  0  0  0  0  0  0  0  0
  -21.4163   -4.9473   21.8666 C   0  0  0  0  0  0  0  0  0  0  0  0
  -21.5708   -3.7982   22.6420 C   0  0  0  0  0  0  0  0  0  0  0  0
  -25.2591  -27.4338   20.9222 C   0  0  0  0  0  0  0  0  0  0  0  0
  -26.8200  -22.8589   22.3296 C   0  0  0  0  0  0  0  0  0  0  0  0
  -21.8775   -5.1669   24.6092 C   0  0  0  0  0  0  0  0  0  0  0  0
  -24.4933  -10.0408   21.5799 C   0  0  0  0  0  0  0  0  0  0  0  0
  -26.3478  -11.4424   22.6308 C   0  0  0  0  0  0  0  0  0  0  0  0
  -26.8650  -35.6953   24.4259 C   0  0  0  0  0  0  0  0  0  0  0  0
  -25.8250  -29.7066   20.3107 C   0  0  0  0  0  0  0  0  0  0  0  0
  -27.0813  -34.3579   24.0426 C   0  0  0  0  0  0  0  0  0  0  0  0
  -24.9122  -28.7918   20.8547 C   0  0  0  0  0  0  0  0  0  0  0  0
  -26.3814  -23.4051   21.1286 C   0  0  0  0  0  0  0  0  0  0  0  0
  -22.3726   -8.2299   21.6547 C   0  0  0  0  0  0  0  0  0  0  0  0
  -26.4916  -26.9900   20.4435 C   0  0  0  0  0  0  0  0  0  0  0  0
  -21.4925   -6.2063   22.4624 C   0  0  0  0  0  0  0  0  0  0  0  0
  -21.8014   -3.9080   24.0133 C   0  0  0  0  0  0  0  0  0  0  0  0
  -27.3183  -21.5611   22.3558 C   0  0  0  0  0  0  0  0  0  0  0  0
  -21.7230   -6.3160   23.8337 C   0  0  0  0  0  0  0  0  0  0  0  0
  -25.5890  -10.9757   21.5407 C   0  0  0  0  0  0  0  0  0  0  0  0
  -27.3566  -20.8569   21.1632 C   0  0  0  0  0  0  0  0  0  0  0  0
  -26.4618  -22.6185   19.9908 C   0  0  0  0  0  0  0  0  0  0  0  0
  -27.2587  -12.3046   22.0711 C   0  0  0  0  0  0  0  0  0  0  0  0
  -26.2389  -11.1248   24.0247 C   0  0  0  0  0  0  0  0  0  0  0  0
  -24.9320  -31.7196   22.6029 C   0  0  0  0  0  0  0  0  0  0  0  0
  -21.9745  -31.1832   21.3832 C   0  0  0  0  0  0  0  0  0  0  0  0
  -19.8942  -29.1250   19.6274 C   0  0  0  0  0  0  0  0  0  0  0  0
  -28.6701  -16.3121   18.6114 C   0  0  0  0  0  0  0  0  0  0  0  0
  -25.5799  -36.1347   25.0817 C   0  0  0  0  0  0  0  0  0  0  0  0
  -25.4703  -31.1644   20.2033 C   0  0  0  0  0  0  0  0  0  0  0  0
  -23.5689  -29.2280   21.3781 C   0  0  0  0  0  0  0  0  0  0  0  0
  -24.4292  -35.1508   24.8867 C   0  0  0  0  0  0  0  0  0  0  0  0
  -28.4749  -13.1446   17.2413 C   0  0  0  0  0  0  0  0  0  0  0  0
  -24.8935  -33.7245   25.1643 C   0  0  0  0  0  0  0  0  0  0  0  0
  -27.7701  -12.3243   18.3215 C   0  0  0  0  0  0  0  0  0  0  0  0
  -26.8212  -18.4194   20.7229 C   0  0  0  0  0  0  0  0  0  0  0  0
  -29.1508  -19.3034   20.2741 C   0  0  0  0  0  0  0  0  0  0  0  0
  -27.8452  -14.5263   17.1077 C   0  0  0  0  0  0  0  0  0  0  0  0
  -27.3782  -16.9935   20.6820 C   0  0  0  0  0  0  0  0  0  0  0  0
  -29.6556  -17.8633   20.2700 C   0  0  0  0  0  0  0  0  0  0  0  0
  -27.1217  -14.4979   19.4728 C   0  0  0  0  0  0  0  0  0  0  0  0
  -26.0032  -33.3065   24.1919 C   0  0  1  0  0  0  0  0  0  0  0  0
  -27.8930  -19.4378   21.1515 C   0  0  0  0  0  0  0  0  0  0  0  0
  -24.4010  -31.5943   21.2029 C   0  0  1  0  0  0  0  0  0  0  0  0
  -27.7242  -13.0900   19.6556 C   0  0  1  0  0  0  0  0  0  0  0  0
  -26.0057  -23.1531   18.6726 C   0  0  0  0  0  0  0  0  0  0  0  0
  -17.5234  -28.9385   18.8260 C   0  0  0  0  0  0  0  0  0  0  0  0
  -21.0808  -30.4458   24.2059 C   0  0  0  0  0  0  0  0  0  0  0  0
  -19.0451  -29.3829   23.2088 C   0  0  0  0  0  0  0  0  0  0  0  0
  -19.4410  -31.8289   22.9204 C   0  0  0  0  0  0  0  0  0  0  0  0
  -20.7352  -29.0686   16.7904 C   0  0  0  0  0  0  0  0  0  0  0  0
  -25.8471  -24.7952   21.0939 C   0  0  0  0  0  0  0  0  0  1  0  0
  -20.8751  -30.1825   21.6458 C   0  0  1  0  0  0  0  0  0  0  0  0
  -18.9318  -29.4010   18.4863 C   0  0  2  0  0  0  0  0  0  0  0  0
  -20.1365  -30.4518   22.9872 C   0  0  0  0  0  0  0  0  0  0  0  0
  -25.9835  -11.4983   20.3765 N   0  0  0  0  0  0  0  0  0  0  0  0
  -26.9397  -21.3539   19.9771 N   0  0  0  0  0  0  0  0  0  0  0  0
  -27.0000  -12.3023   20.7319 N   0  0  0  0  0  0  0  0  0  0  0  0
  -23.2709  -30.6646   21.2565 N   0  0  0  0  0  0  0  0  0  0  0  0
  -27.8169  -15.2194   18.3955 N   0  0  0  0  0  0  0  0  0  0  0  0
  -28.5989  -16.9362   19.8659 N   0  0  0  0  0  0  0  0  0  0  0  0
  -28.2476  -13.0570   22.5987 N   0  0  0  0  0  0  0  0  0  0  0  0
  -25.2479  -10.2197   24.4284 N   0  0  0  0  0  0  0  0  0  0  0  0
  -25.4430  -32.9684   22.9011 N   0  0  0  0  0  0  0  0  0  0  0  0
  -20.0098  -30.2092   20.4715 N   0  0  0  0  0  0  0  0  0  0  0  0
  -19.3745  -28.6920   17.2524 N   0  3  0  0  0  0  0  0  0  0  0  0
  -26.9874  -11.6413   24.8888 O   0  0  0  0  0  0  0  0  0  0  0  0
  -24.8805  -30.7552   23.3572 O   0  0  0  0  0  0  0  0  0  0  0  0
  -21.6923  -32.3802   21.2868 O   0  0  0  0  0  0  0  0  0  0  0  0
  -20.4815  -28.0535   19.7590 O   0  0  0  0  0  0  0  0  0  0  0  0
  -29.4502  -16.7068   17.7358 O   0  0  0  0  0  0  0  0  0  0  0  0
  -21.3381   -7.3461   21.6913 O   0  0  0  0  0  0  0  0  0  0  0  0
  -26.8161  -25.6610   20.5142 O   0  0  0  0  0  0  0  0  0  1  0  0
  -21.9481   -2.8044   24.7581 F   0  0  0  0  0  0  0  0  0  0  0  0
  -27.7453  -21.0186   23.5026 F   0  0  0  0  0  0  0  0  0  0  0  0
  -21.7960   -7.5227   24.4119 F   0  0  0  0  0  0  0  0  0  0  0  0
  1  2  1  0  0  0  0
  1  5  2  0  0  0  0
  2  6  2  0  0  0  0
  3  8  2  0  0  0  0
  3 16  1  0  0  0  0
  4  9  1  0  0  0  0
  4 16  2  0  0  0  0
  5 18  1  0  0  0  0
  6 20  1  0  0  0  0
  7 10  2  0  0  0  0
  7 19  1  0  0  0  0
  8 23  1  0  0  0  0
  9 23  2  0  0  0  0
 10 24  1  0  0  0  0
 11 12  2  0  0  0  0
 11 25  1  0  0  0  0
 12 26  1  0  0  0  0
 13 21  1  0  0  0  0
 13 24  2  0  0  0  0
 14 22  1  0  0  0  0
 14 27  2  0  0  0  0
 15 26  2  0  0  0  0
 15 28  1  0  0  0  0
 16 29  1  0  0  0  0
 17 29  1  0  0  0  0
 17 32  2  0  0  0  0
 17 33  1  0  0  0  0
 18 20  2  0  0  0  0
 18 38  1  0  0  0  0
 19 21  2  0  0  0  0
 19 39  1  0  0  0  0
 20 51  1  0  0  0  0
 21 40  1  0  0  0  0
 22 31  2  0  0  0  0
 22 61  1  0  0  0  0
 23 81  1  0  0  0  0
 24 82  1  0  0  0  0
 25 28  2  0  0  0  0
 25 81  1  0  0  0  0
 26 83  1  0  0  0  0
 27 30  1  0  0  0  0
 27 84  1  0  0  0  0
 28 85  1  0  0  0  0
 29 65  2  0  0  0  0
 30 52  1  0  0  0  0
 30 66  2  0  0  0  0
 31 55  1  0  0  0  0
 31 66  1  0  0  0  0
 32 67  1  0  0  0  0
 32 71  1  0  0  0  0
 33 72  1  0  0  0  0
 33 76  2  0  0  0  0
 34 53  1  0  0  0  0
 34 73  1  0  0  0  0
 34 77  2  0  0  0  0
 35 62  1  0  0  0  0
 35 68  1  0  0  0  0
 35 78  2  0  0  0  0
 36 63  1  0  0  0  0
 36 74  1  0  0  0  0
 36 79  2  0  0  0  0
 37 69  1  0  0  0  0
 37 70  1  0  0  0  0
 37 80  2  0  0  0  0
 38 41  1  0  0  0  0
 39 53  1  0  0  0  0
 40 68  1  0  0  0  0
 41 43  1  0  0  0  0
 42 44  1  0  0  0  0
 42 47  1  0  0  0  0
 43 51  1  0  0  0  0
 44 54  1  0  0  0  0
 45 48  1  0  0  0  0
 45 52  1  0  0  0  0
 46 49  1  0  0  0  0
 46 52  1  0  0  0  0
 47 69  1  0  0  0  0
 48 70  1  0  0  0  0
 49 70  1  0  0  0  0
 50 54  1  0  0  0  0
 50 69  1  0  0  0  0
 51 73  1  0  0  0  0
 53 68  1  0  0  0  0
 54 67  1  0  0  0  0
 56 63  1  0  0  0  0
 57 64  1  0  0  0  0
 58 64  1  0  0  0  0
 59 64  1  0  0  0  0
 60 75  1  0  0  0  0
 61 82  1  0  0  0  0
 62 64  1  0  0  0  0
 62 74  1  0  0  0  0
 63 75  1  0  0  0  0
 65 67  1  0  0  0  0
M  CHG  1  75   1
M  ISO  4  37 100  61 101  70 100  82 101
M  END
> <Batch ID>
0171

> <Smiles>
CNC(C)C(=O)NC(C(=O)N1Cc2cc([101O:1][101CH2:1]c3cc(F)c(C4CC[100N:0]([100C:0](=O)N5CCCC(n6nc(-c7ccc(Oc8ccc(F)cc8F)cc7)c(C(N)=O)c6N)C5)CC4)nc3C)ccc2CC1C(=O)NC1CCCc2ccccc21)C(C)(C)C

> <Shape>
0.302

> <Color>
0.107

> <Negative vol penalty>
0.000

$$$$

  -OEChem-04052322373D

 89 99  0     1  0  0  0  0  0999 V2000
  -24.5354  -30.7732   27.4271 C   0  0  0  0  0  0  0  0  0  0  0  0
  -25.1302  -29.6934   26.7824 C   0  0  0  0  0  0  0  0  0  0  0  0
  -22.8364  -11.3886   19.0609 C   0  0  0  0  0  0  0  0  0  0  0  0
  -23.0771  -10.1464   21.1191 C   0  0  0  0  0  0  0  0  0  0  0  0
  -24.1800  -31.9084   26.6997 C   0  0  0  0  0  0  0  0  0  0  0  0
  -25.3690  -29.7477   25.4096 C   0  0  0  0  0  0  0  0  0  0  0  0
  -30.0941  -27.2806   22.3943 C   0  0  0  0  0  0  0  0  0  0  0  0
  -21.7933  -10.5470   18.6749 C   0  0  0  0  0  0  0  0  0  0  0  0
  -22.0339   -9.3048   20.7331 C   0  0  0  0  0  0  0  0  0  0  0  0
  -30.2308  -26.0951   21.6733 C   0  0  0  0  0  0  0  0  0  0  0  0
  -18.6565   -9.3985   20.6614 C   0  0  0  0  0  0  0  0  0  0  0  0
  -17.6859   -9.0926   21.6153 C   0  0  0  0  0  0  0  0  0  0  0  0
  -29.7868  -27.2949   19.6281 C   0  0  0  0  0  0  0  0  0  0  0  0
  -26.7115  -18.7057   21.4666 C   0  0  0  0  0  0  0  0  0  0  0  0
  -18.2227   -6.7460   21.4087 C   0  0  0  0  0  0  0  0  0  0  0  0
  -23.4784  -11.1883   20.2830 C   0  0  0  0  0  0  0  0  0  0  0  0
  -24.4564  -13.2539   21.4164 C   0  0  0  0  0  0  0  0  0  0  0  0
  -24.4234  -31.9805   25.3191 C   0  0  0  0  0  0  0  0  0  0  0  0
  -29.7915  -28.4821   21.7377 C   0  0  0  0  0  0  0  0  0  0  0  0
  -25.0153  -30.8844   24.6629 C   0  0  0  0  0  0  0  0  0  0  0  0
  -29.6494  -28.4947   20.3428 C   0  0  0  0  0  0  0  0  0  0  0  0
  -27.6054  -19.2883   20.5767 C   0  0  0  0  0  0  0  0  0  0  0  0
  -27.4886  -20.6421   20.2540 C   0  0  0  0  0  0  0  0  0  0  0  0
  -21.3919   -9.5051   19.5110 C   0  0  0  0  0  0  0  0  0  0  0  0
  -30.0743  -26.1016   20.2903 C   0  0  0  0  0  0  0  0  0  0  0  0
  -19.4101   -8.3783   20.0811 C   0  0  0  0  0  0  0  0  0  0  0  0
  -17.4690   -7.7663   21.9890 C   0  0  0  0  0  0  0  0  0  0  0  0
  -19.1932   -7.0520   20.4547 C   0  0  0  0  0  0  0  0  0  0  0  0
  -24.5565  -12.0570   20.6820 C   0  0  0  0  0  0  0  0  0  0  0  0
  -26.4437  -21.3642   20.8358 C   0  0  0  0  0  0  0  0  0  0  0  0
  -25.7188  -19.5061   22.0018 C   0  0  0  0  0  0  0  0  0  0  0  0
  -25.7519  -13.6951   21.5321 C   0  0  0  0  0  0  0  0  0  0  0  0
  -23.2961  -13.9083   21.9465 C   0  0  0  0  0  0  0  0  0  0  0  0
  -27.3804  -30.5507   21.8436 C   0  0  0  0  0  0  0  0  0  0  0  0
  -29.2798  -32.2700   19.8540 C   0  0  0  0  0  0  0  0  0  0  0  0
  -31.8150  -32.2916   17.5695 C   0  0  0  0  0  0  0  0  0  0  0  0
  -30.7497  -14.6647   19.5330 C   0  0  0  0  0  0  0  0  0  0  0  0
  -23.9786  -33.2097   24.5668 C   0  0  0  0  0  0  0  0  0  0  0  0
  -29.6737  -29.7572   22.5268 C   0  0  0  0  0  0  0  0  0  0  0  0
  -29.3442  -29.7619   19.5881 C   0  0  0  0  0  0  0  0  0  0  0  0
  -28.4240  -21.2722   19.2644 C   0  0  0  0  0  0  0  0  0  0  0  0
  -26.2836  -22.8352   20.5562 C   0  0  0  0  0  0  0  0  0  0  0  0
  -24.6074  -33.3368   23.1816 C   0  0  0  0  0  0  0  0  0  0  0  0
  -30.1319  -11.4022   20.4952 C   0  0  0  0  0  0  0  0  0  0  0  0
  -24.5329  -32.0072   22.4375 C   0  0  0  0  0  0  0  0  0  0  0  0
  -28.6167  -11.3646   20.6943 C   0  0  0  0  0  0  0  0  0  0  0  0
  -29.6468  -17.8606   21.0381 C   0  0  0  0  0  0  0  0  0  0  0  0
  -28.1084  -17.2815   19.1149 C   0  0  0  0  0  0  0  0  0  0  0  0
  -30.5007  -12.2155   19.2595 C   0  0  0  0  0  0  0  0  0  0  0  0
  -30.7198  -16.9686   20.4182 C   0  0  0  0  0  0  0  0  0  0  0  0
  -29.2159  -16.4046   18.5378 C   0  0  0  0  0  0  0  0  0  0  0  0
  -28.4558  -13.5890   19.4735 C   0  0  0  0  0  0  0  0  0  0  0  0
  -26.9352  -23.2734   19.2498 C   0  0  0  0  0  0  0  0  0  0  0  0
  -28.6918  -18.4204   19.9698 C   0  0  0  0  0  0  0  0  0  0  0  0
  -25.3131  -30.9153   23.1795 C   0  0  1  0  0  0  0  0  0  0  0  0
  -28.8566  -30.8290   21.8120 C   0  0  1  0  0  0  0  0  0  0  0  0
  -28.0277  -12.7861   20.7182 C   0  0  1  0  0  0  0  0  0  0  0  0
  -24.7411  -18.9166   22.9628 C   0  0  0  0  0  0  0  0  0  0  0  0
  -33.1196  -33.8422   16.0893 C   0  0  0  0  0  0  0  0  0  0  0  0
  -26.9187  -32.4127   17.9266 C   0  0  0  0  0  0  0  0  0  0  0  0
  -28.5174  -33.1078   16.1295 C   0  0  0  0  0  0  0  0  0  0  0  0
  -28.2139  -34.5404   18.1489 C   0  0  0  0  0  0  0  0  0  0  0  0
  -34.3616  -31.6290   18.9240 C   0  0  0  0  0  0  0  0  0  0  0  0
  -29.1563  -23.3642   18.1025 C   0  0  0  0  0  0  0  0  0  0  0  0
  -29.4450  -24.8254   18.3848 C   0  0  0  0  0  0  0  0  0  1  0  0
  -29.4636  -32.3526   18.3579 C   0  0  1  0  0  0  0  0  0  0  0  0
  -33.0534  -33.1610   17.4474 C   0  0  2  0  0  0  0  0  0  0  0  0
  -28.2822  -33.0790   17.6549 C   0  0  0  0  0  0  0  0  0  0  0  0
  -25.8160  -11.7570   20.3542 N   0  0  0  0  0  0  0  0  0  0  0  0
  -25.5651  -20.8171   21.7120 N   0  0  0  0  0  0  0  0  0  0  0  0
  -26.5193  -12.7717   20.8850 N   0  0  0  0  0  0  0  0  0  0  0  0
  -29.2323  -30.9816   20.4050 N   0  0  0  0  0  0  0  0  0  0  0  0
  -29.9175  -13.5557   19.3174 N   0  0  0  0  0  0  0  0  0  0  0  0
  -30.1279  -15.9232   19.5843 N   0  0  0  0  0  0  0  0  0  0  0  0
  -26.2981  -14.7789   22.1232 N   0  0  0  0  0  0  0  0  0  0  0  0
  -22.0420  -13.3188   21.7365 N   0  0  0  0  0  0  0  0  0  0  0  0
  -26.7343  -31.0659   22.9512 N   0  0  0  0  0  0  0  0  0  0  0  0
  -30.7638  -32.9775   18.1402 N   0  0  0  0  0  0  0  0  0  0  0  0
  -28.3635  -22.7867   19.2401 N   0  3  2  0  0  0  0  0  0  0  0  0
  -34.2835  -32.3376   17.6206 N   0  3  0  0  0  0  0  0  0  0  0  0
  -23.3675  -14.9925   22.5733 O   0  0  0  0  0  0  0  0  0  0  0  0
  -26.8653  -29.9168   20.9300 O   0  0  0  0  0  0  0  0  0  0  0  0
  -29.1890  -33.3104   20.5105 O   0  0  0  0  0  0  0  0  0  0  0  0
  -31.7822  -31.1223   17.1926 O   0  0  0  0  0  0  0  0  0  0  0  0
  -31.9723  -14.5406   19.6767 O   0  0  0  0  0  0  0  0  0  0  0  0
  -20.3739   -8.6838   19.1348 O   0  0  0  0  0  0  0  0  0  0  0  0
  -30.2074  -24.9375   19.5792 O   0  0  0  0  0  0  0  0  0  1  0  0
  -16.5380   -7.4727   22.9062 F   0  0  0  0  0  0  0  0  0  0  0  0
  -19.9149   -6.0677   19.9016 F   0  0  0  0  0  0  0  0  0  0  0  0
  1  2  1  0  0  0  0
  1  5  2  0  0  0  0
  2  6  2  0  0  0  0
  3  8  2  0  0  0  0
  3 16  1  0  0  0  0
  4  9  1  0  0  0  0
  4 16  2  0  0  0  0
  5 18  1  0  0  0  0
  6 20  1  0  0  0  0
  7 10  2  0  0  0  0
  7 19  1  0  0  0  0
  8 24  1  0  0  0  0
  9 24  2  0  0  0  0
 10 25  1  0  0  0  0
 11 12  2  0  0  0  0
 11 26  1  0  0  0  0
 12 27  1  0  0  0  0
 13 21  1  0  0  0  0
 13 25  2  0  0  0  0
 14 22  2  0  0  0  0
 14 31  1  0  0  0  0
 15 27  2  0  0  0  0
 15 28  1  0  0  0  0
 16 29  1  0  0  0  0
 17 29  1  0  0  0  0
 17 32  2  0  0  0  0
 17 33  1  0  0  0  0
 18 20  2  0  0  0  0
 18 38  1  0  0  0  0
 19 21  2  0  0  0  0
 19 39  1  0  0  0  0
 20 55  1  0  0  0  0
 21 40  1  0  0  0  0
 22 23  1  0  0  0  0
 22 54  1  0  0  0  0
 23 30  2  0  0  0  0
 23 41  1  0  0  0  0
 24 86  1  0  0  0  0
 25 87  1  0  0  0  0
 26 28  2  0  0  0  0
 26 86  1  0  0  0  0
 27 88  1  0  0  0  0
 28 89  1  0  0  0  0
 29 69  2  0  0  0  0
 30 42  1  0  0  0  0
 30 70  1  0  0  0  0
 31 58  1  0  0  0  0
 31 70  2  0  0  0  0
 32 71  1  0  0  0  0
 32 75  1  0  0  0  0
 33 76  1  0  0  0  0
 33 81  2  0  0  0  0
 34 56  1  0  0  0  0
 34 77  1  0  0  0  0
 34 82  2  0  0  0  0
 35 66  1  0  0  0  0
 35 72  1  0  0  0  0
 35 83  2  0  0  0  0
 36 67  1  0  0  0  0
 36 78  1  0  0  0  0
 36 84  2  0  0  0  0
 37 73  1  0  0  0  0
 37 74  1  0  0  0  0
 37 85  2  0  0  0  0
 38 43  1  0  0  0  0
 39 56  1  0  0  0  0
 40 72  1  0  0  0  0
 41 79  1  0  0  0  0
 42 53  1  0  0  0  0
 43 45  1  0  0  0  0
 44 46  1  0  0  0  0
 44 49  1  0  0  0  0
 45 55  1  0  0  0  0
 46 57  1  0  0  0  0
 47 50  1  0  0  0  0
 47 54  1  0  0  0  0
 48 51  1  0  0  0  0
 48 54  1  0  0  0  0
 49 73  1  0  0  0  0
 50 74  1  0  0  0  0
 51 74  1  0  0  0  0
 52 57  1  0  0  0  0
 52 73  1  0  0  0  0
 53 79  1  0  0  0  0
 55 77  1  0  0  0  0
 56 72  1  0  0  0  0
 57 71  1  0  0  0  0
 59 67  1  0  0  0  0
 60 68  1  0  0  0  0
 61 68  1  0  0  0  0
 62 68  1  0  0  0  0
 63 80  1  0  0  0  0
 64 65  1  0  0  0  0
 64 79  1  0  0  0  0
 65 87  1  0  0  0  0
 66 68  1  0  0  0  0
 66 78  1  0  0  0  0
 67 80  1  0  0  0  0
 69 71  1  0  0  0  0
M  CHG  2  79   1  80   1
M  ISO  4  37 100  65 101  74 100  87 101
M  END
> <Batch ID>
0171

> <Smiles>
CNC(C)C(=O)NC(C(=O)N1Cc2cc([101O:1][101CH2:1]CN3CCc4nc(C)cc(C5CC[100N:0]([100C:0](=O)N6CCCC(n7nc(-c8ccc(Oc9ccc(F)cc9F)cc8)c(C(N)=O)c7N)C6)CC5)c4C3)ccc2CC1C(=O)NC1CCCc2ccccc21)C(C)(C)C

> <Shape>
0.258

> <Color>
0.090

> <Negative vol penalty>
0.000

$$$$

  -OEChem-04052322373D

 85 94  0     1  0  0  0  0  0999 V2000
  -16.2322  -11.4154   24.8440 C   0  0  0  0  0  0  0  0  0  0  0  0
  -17.4974  -11.9907   24.9047 C   0  0  0  0  0  0  0  0  0  0  0  0
  -23.1361   -9.8715   19.9635 C   0  0  0  0  0  0  0  0  0  0  0  0
  -23.8021   -9.9644   22.2840 C   0  0  0  0  0  0  0  0  0  0  0  0
  -15.1591  -12.1460   24.3354 C   0  0  0  0  0  0  0  0  0  0  0  0
  -17.6904  -13.2968   24.4559 C   0  0  0  0  0  0  0  0  0  0  0  0
  -20.5217  -16.0437   27.6313 C   0  0  0  0  0  0  0  0  0  0  0  0
  -22.4091   -8.7088   20.2186 C   0  0  0  0  0  0  0  0  0  0  0  0
  -23.0750   -8.8017   22.5392 C   0  0  0  0  0  0  0  0  0  0  0  0
  -21.9000  -15.8360   27.5975 C   0  0  0  0  0  0  0  0  0  0  0  0
  -23.4637   -5.4726   22.0954 C   0  0  0  0  0  0  0  0  0  0  0  0
  -24.0727   -4.4839   22.8682 C   0  0  0  0  0  0  0  0  0  0  0  0
  -22.1588  -17.8149   26.2424 C   0  0  0  0  0  0  0  0  0  0  0  0
  -22.3000   -4.6671   24.4995 C   0  0  0  0  0  0  0  0  0  0  0  0
  -23.8326  -10.4993   20.9962 C   0  0  0  0  0  0  0  0  0  0  0  0
  -24.1216  -13.0273   20.8130 C   0  0  0  0  0  0  0  0  0  0  0  0
  -15.3372  -13.4650   23.8890 C   0  0  0  0  0  0  0  0  0  0  0  0
  -19.9496  -17.1343   26.9607 C   0  0  0  0  0  0  0  0  0  0  0  0
  -16.6190  -14.0452   23.9396 C   0  0  0  0  0  0  0  0  0  0  0  0
  -20.7733  -18.0356   26.2714 C   0  0  0  0  0  0  0  0  0  0  0  0
  -27.1650  -17.2093   27.2257 C   0  0  0  0  0  0  0  0  0  0  0  0
  -26.2650  -17.0796   26.1393 C   0  0  0  0  0  0  0  0  0  0  0  0
  -22.3785   -8.1739   21.5065 C   0  0  0  0  0  0  0  0  0  0  0  0
  -22.7184  -16.7200   26.9006 C   0  0  0  0  0  0  0  0  0  0  0  0
  -22.2729   -6.0586   22.5247 C   0  0  0  0  0  0  0  0  0  0  0  0
  -23.4909   -4.0812   24.0703 C   0  0  0  0  0  0  0  0  0  0  0  0
  -21.6910   -5.6558   23.7267 C   0  0  0  0  0  0  0  0  0  0  0  0
  -24.5843  -11.7001   20.7331 C   0  0  0  0  0  0  0  0  0  0  0  0
  -28.3852  -16.7246   26.8092 C   0  0  0  0  0  0  0  0  0  0  0  0
  -26.9626  -16.5194   25.0919 C   0  0  0  0  0  0  0  0  0  0  0  0
  -25.2102  -13.7916   20.4708 C   0  0  0  0  0  0  0  0  0  0  0  0
  -22.8238  -13.5247   21.1650 C   0  0  0  0  0  0  0  0  0  0  0  0
  -17.8671  -17.4632   24.5819 C   0  0  0  0  0  0  0  0  0  0  0  0
  -18.1101  -20.6118   25.3234 C   0  0  0  0  0  0  0  0  0  0  0  0
  -19.9510  -23.1275   26.7123 C   0  0  0  0  0  0  0  0  0  0  0  0
  -30.8469  -14.0571   20.9786 C   0  0  0  0  0  0  0  0  0  0  0  0
  -14.1567  -14.1988   23.3035 C   0  0  0  0  0  0  0  0  0  0  0  0
  -18.4640  -17.3593   27.0291 C   0  0  0  0  0  0  0  0  0  0  0  0
  -20.2107  -19.2332   25.5519 C   0  0  0  0  0  0  0  0  0  0  0  0
  -14.3692  -15.7066   23.1959 C   0  0  0  0  0  0  0  0  0  0  0  0
  -29.4183  -12.9886   18.0163 C   0  0  0  0  0  0  0  0  0  0  0  0
  -15.7383  -16.0114   22.5963 C   0  0  0  0  0  0  0  0  0  0  0  0
  -27.9739  -12.6724   18.4043 C   0  0  0  0  0  0  0  0  0  0  0  0
  -29.6806  -16.5661   23.4352 C   0  0  0  0  0  0  0  0  0  0  0  0
  -29.0331  -14.2581   24.2443 C   0  0  0  0  0  0  0  0  0  0  0  0
  -30.3891  -12.5173   19.0933 C   0  0  0  0  0  0  0  0  0  0  0  0
  -30.7762  -15.9339   22.5802 C   0  0  0  0  0  0  0  0  0  0  0  0
  -30.1439  -13.6786   23.3733 C   0  0  0  0  0  0  0  0  0  0  0  0
  -28.6662  -12.7720   20.8488 C   0  0  0  0  0  0  0  0  0  0  0  0
  -16.8633  -15.4680   23.4854 C   0  0  1  0  0  0  0  0  0  0  0  0
  -17.9357  -18.2144   25.8814 C   0  0  1  0  0  0  0  0  0  0  0  0
  -27.6404  -13.2377   19.7963 C   0  0  2  0  0  0  0  0  0  0  0  0
  -29.3560  -15.7024   24.6663 C   0  0  0  0  0  0  0  0  0  0  0  0
  -26.8552  -17.7631   28.5600 C   0  0  0  0  0  0  0  0  0  0  0  0
  -29.6685  -16.6230   27.5363 C   0  0  0  0  0  0  0  0  0  0  0  0
  -26.5131  -16.1649   23.7286 C   0  0  0  0  0  0  0  0  0  0  0  0
  -19.9040  -25.6006   27.1354 C   0  0  0  0  0  0  0  0  0  0  0  0
  -18.7667  -21.1240   22.3880 C   0  0  0  0  0  0  0  0  0  0  0  0
  -19.6238  -23.3825   23.0460 C   0  0  0  0  0  0  0  0  0  0  0  0
  -17.2268  -22.8023   23.4208 C   0  0  0  0  0  0  0  0  0  0  0  0
  -20.0793  -22.7456   29.6443 C   0  0  0  0  0  0  0  0  0  0  0  0
  -24.8399  -17.4692   26.1297 C   0  0  0  0  0  0  0  0  0  1  0  0
  -19.0003  -21.7484   24.8824 C   0  0  1  0  0  0  0  0  0  0  0  0
  -19.5792  -24.2239   27.6942 C   0  0  2  0  0  0  0  0  0  0  0  0
  -18.6651  -22.2408   23.4462 C   0  0  0  0  0  0  0  0  0  0  0  0
  -25.8669  -11.6223   20.3687 N   0  0  0  0  0  0  0  0  0  0  0  0
  -28.2502  -16.3077   25.5106 N   0  0  0  0  0  0  0  0  0  0  0  0
  -26.2194  -12.9101   20.2164 N   0  0  0  0  0  0  0  0  0  0  0  0
  -18.7516  -19.4067   25.6429 N   0  0  0  0  0  0  0  0  0  0  0  0
  -30.0348  -13.0695   20.4007 N   0  0  0  0  0  0  0  0  0  0  0  0
  -30.4497  -14.5516   22.2319 N   0  0  0  0  0  0  0  0  0  0  0  0
  -25.3931  -15.1250   20.3657 N   0  0  0  0  0  0  0  0  0  0  0  0
  -21.8199  -12.6019   21.4893 N   0  0  0  0  0  0  0  0  0  0  0  0
  -17.0702  -16.3352   24.6254 N   0  0  0  0  0  0  0  0  0  0  0  0
  -18.8860  -22.7785   25.9091 N   0  0  0  0  0  0  0  0  0  0  0  0
  -20.3237  -24.0482   28.9732 N   0  3  0  0  0  0  0  0  0  0  0  0
  -22.5575  -14.7504   21.1754 O   0  0  0  0  0  0  0  0  0  0  0  0
  -18.4899  -17.8773   23.6111 O   0  0  0  0  0  0  0  0  0  0  0  0
  -16.8911  -20.7889   25.3892 O   0  0  0  0  0  0  0  0  0  0  0  0
  -21.0749  -22.6328   26.6604 O   0  0  0  0  0  0  0  0  0  0  0  0
  -31.8618  -14.4774   20.4092 O   0  0  0  0  0  0  0  0  0  0  0  0
  -21.6690   -7.0394   21.7559 O   0  0  0  0  0  0  0  0  0  0  0  0
  -24.0711  -16.5182   26.8652 O   0  0  0  0  0  0  0  0  0  1  0  0
  -24.0750   -3.1307   24.8115 F   0  0  0  0  0  0  0  0  0  0  0  0
  -20.5464   -6.2143   24.1437 F   0  0  0  0  0  0  0  0  0  0  0  0
  1  2  1  0  0  0  0
  1  5  2  0  0  0  0
  2  6  2  0  0  0  0
  3  8  2  0  0  0  0
  3 15  1  0  0  0  0
  4  9  1  0  0  0  0
  4 15  2  0  0  0  0
  5 17  1  0  0  0  0
  6 19  1  0  0  0  0
  7 10  2  0  0  0  0
  7 18  1  0  0  0  0
  8 23  1  0  0  0  0
  9 23  2  0  0  0  0
 10 24  1  0  0  0  0
 11 12  2  0  0  0  0
 11 25  1  0  0  0  0
 12 26  1  0  0  0  0
 13 20  1  0  0  0  0
 13 24  2  0  0  0  0
 14 26  2  0  0  0  0
 14 27  1  0  0  0  0
 15 28  1  0  0  0  0
 16 28  1  0  0  0  0
 16 31  2  0  0  0  0
 16 32  1  0  0  0  0
 17 19  2  0  0  0  0
 17 37  1  0  0  0  0
 18 20  2  0  0  0  0
 18 38  1  0  0  0  0
 19 50  1  0  0  0  0
 20 39  1  0  0  0  0
 21 22  1  0  0  0  0
 21 29  2  0  0  0  0
 21 54  1  0  0  0  0
 22 30  2  0  0  0  0
 22 62  1  0  0  0  0
 23 82  1  0  0  0  0
 24 83  1  0  0  0  0
 25 27  2  0  0  0  0
 25 82  1  0  0  0  0
 26 84  1  0  0  0  0
 27 85  1  0  0  0  0
 28 66  2  0  0  0  0
 29 55  1  0  0  0  0
 29 67  1  0  0  0  0
 30 56  1  0  0  0  0
 30 67  1  0  0  0  0
 31 68  1  0  0  0  0
 31 72  1  0  0  0  0
 32 73  1  0  0  0  0
 32 77  2  0  0  0  0
 33 51  1  0  0  0  0
 33 74  1  0  0  0  0
 33 78  2  0  0  0  0
 34 63  1  0  0  0  0
 34 69  1  0  0  0  0
 34 79  2  0  0  0  0
 35 64  1  0  0  0  0
 35 75  1  0  0  0  0
 35 80  2  0  0  0  0
 36 70  1  0  0  0  0
 36 71  1  0  0  0  0
 36 81  2  0  0  0  0
 37 40  1  0  0  0  0
 38 51  1  0  0  0  0
 39 69  1  0  0  0  0
 40 42  1  0  0  0  0
 41 43  1  0  0  0  0
 41 46  1  0  0  0  0
 42 50  1  0  0  0  0
 43 52  1  0  0  0  0
 44 47  1  0  0  0  0
 44 53  1  0  0  0  0
 45 48  1  0  0  0  0
 45 53  1  0  0  0  0
 46 70  1  0  0  0  0
 47 71  1  0  0  0  0
 48 71  1  0  0  0  0
 49 52  1  0  0  0  0
 49 70  1  0  0  0  0
 50 74  1  0  0  0  0
 51 69  1  0  0  0  0
 52 68  1  0  0  0  0
 53 67  1  0  0  0  0
 57 64  1  0  0  0  0
 58 65  1  0  0  0  0
 59 65  1  0  0  0  0
 60 65  1  0  0  0  0
 61 76  1  0  0  0  0
 62 83  1  0  0  0  0
 63 65  1  0  0  0  0
 63 75  1  0  0  0  0
 64 76  1  0  0  0  0
 66 68  1  0  0  0  0
M  CHG  1  76   1
M  ISO  4  36 100  62 101  71 100  83 101
M  END
> <Batch ID>
0171

> <Smiles>
CNC(C)C(=O)NC(C(=O)N1Cc2cc([101O:1][101CH2:1]c3c(C)c(C)n(C4CC[100N:0]([100C:0](=O)N5CCCC(n6nc(-c7ccc(Oc8ccc(F)cc8F)cc7)c(C(N)=O)c6N)C5)CC4)c3C)ccc2CC1C(=O)NC1CCCc2ccccc21)C(C)(C)C

> <Shape>
0.160

> <Color>
0.205

> <Negative vol penalty>
0.000

$$$$

  -OEChem-04052322373D

 93103  0     1  0  0  0  0  0999 V2000
  -26.5452  -31.9093   15.8881 C   0  0  0  0  0  0  0  0  0  0  0  0
  -26.5090  -30.5376   15.6589 C   0  0  0  0  0  0  0  0  0  0  0  0
  -23.0755   -9.9266   19.8632 C   0  0  0  0  0  0  0  0  0  0  0  0
  -23.9363   -9.7358   22.1126 C   0  0  0  0  0  0  0  0  0  0  0  0
  -27.2384  -32.4130   16.9880 C   0  0  0  0  0  0  0  0  0  0  0  0
  -27.1668  -29.6689   16.5290 C   0  0  0  0  0  0  0  0  0  0  0  0
  -25.3891  -24.0368   18.1495 C   0  0  0  0  0  0  0  0  0  0  0  0
  -22.3649   -8.7386   20.0343 C   0  0  0  0  0  0  0  0  0  0  0  0
  -23.2256   -8.5478   22.2838 C   0  0  0  0  0  0  0  0  0  0  0  0
  -25.7634  -22.7702   17.7029 C   0  0  0  0  0  0  0  0  0  0  0  0
  -20.0426   -7.6245   22.9447 C   0  0  0  0  0  0  0  0  0  0  0  0
  -19.3393   -7.4580   24.1376 C   0  0  0  0  0  0  0  0  0  0  0  0
  -28.3928  -18.0645   19.9313 C   0  0  0  0  0  0  0  0  0  0  0  0
  -27.3374  -22.6002   19.5230 C   0  0  0  0  0  0  0  0  0  0  0  0
  -20.6477   -5.4885   24.6341 C   0  0  0  0  0  0  0  0  0  0  0  0
  -23.8613  -10.4252   20.9023 C   0  0  0  0  0  0  0  0  0  0  0  0
  -24.1509  -12.9575   21.0073 C   0  0  0  0  0  0  0  0  0  0  0  0
  -27.8969  -31.5493   17.8774 C   0  0  0  0  0  0  0  0  0  0  0  0
  -25.9950  -24.6001   19.2818 C   0  0  0  0  0  0  0  0  0  0  0  0
  -27.8705  -30.1616   17.6410 C   0  0  0  0  0  0  0  0  0  0  0  0
  -28.1225  -18.2709   18.5839 C   0  0  0  0  0  0  0  0  0  0  0  0
  -26.9673  -23.8730   19.9834 C   0  0  0  0  0  0  0  0  0  0  0  0
  -29.1080  -18.7896   17.7286 C   0  0  0  0  0  0  0  0  0  0  0  0
  -30.3702  -19.1092   18.2164 C   0  0  0  0  0  0  0  0  0  0  0  0
  -29.6570  -18.3930   20.4236 C   0  0  0  0  0  0  0  0  0  0  0  0
  -30.6393  -18.9123   19.5717 C   0  0  0  0  0  0  0  0  0  0  0  0
  -22.4399   -8.0493   21.2446 C   0  0  0  0  0  0  0  0  0  0  0  0
  -26.7397  -22.0529   18.3880 C   0  0  0  0  0  0  0  0  0  0  0  0
  -21.0485   -6.7230   22.5964 C   0  0  0  0  0  0  0  0  0  0  0  0
  -19.6418   -6.3900   24.9824 C   0  0  0  0  0  0  0  0  0  0  0  0
  -21.3510   -5.6551   23.4411 C   0  0  0  0  0  0  0  0  0  0  0  0
  -24.5961  -11.6520   20.7260 C   0  0  0  0  0  0  0  0  0  0  0  0
  -25.2118  -13.7621   20.6705 C   0  0  0  0  0  0  0  0  0  0  0  0
  -22.8910  -13.4030   21.5267 C   0  0  0  0  0  0  0  0  0  0  0  0
  -27.7612  -27.1857   19.8285 C   0  0  0  0  0  0  0  0  0  0  0  0
  -27.4425  -26.2715   22.9245 C   0  0  0  0  0  0  0  0  0  0  0  0
  -26.8584  -23.7578   25.1576 C   0  0  0  0  0  0  0  0  0  0  0  0
  -30.6788  -14.8824   20.7213 C   0  0  0  0  0  0  0  0  0  0  0  0
  -28.6727  -32.1438   19.0260 C   0  0  0  0  0  0  0  0  0  0  0  0
  -25.5611  -25.9563   19.7663 C   0  0  0  0  0  0  0  0  0  0  0  0
  -27.6337  -24.4245   21.2164 C   0  0  0  0  0  0  0  0  0  0  0  0
  -29.0293  -31.1296   20.1098 C   0  0  0  0  0  0  0  0  0  0  0  0
  -29.4805  -12.7070   18.1701 C   0  0  0  0  0  0  0  0  0  0  0  0
  -32.5469  -20.4720   17.9363 C   0  0  0  0  0  0  0  0  0  0  0  0
  -31.5231  -21.1040   17.0459 C   0  0  0  0  0  0  0  0  0  0  0  0
  -29.5883  -29.8552   19.4852 C   0  0  0  0  0  0  0  0  0  0  0  0
  -28.0693  -12.3416   18.6340 C   0  0  0  0  0  0  0  0  0  0  0  0
  -30.4458  -12.8349   19.3465 C   0  0  0  0  0  0  0  0  0  0  0  0
  -28.5944  -13.3898   20.8755 C   0  0  0  0  0  0  0  0  0  0  0  0
  -31.4561  -19.6275   17.3333 C   0  0  0  0  0  0  0  0  0  0  0  0
  -28.5508  -29.1854   18.5761 C   0  0  1  0  0  0  0  0  0  0  0  0
  -26.6115  -26.6461   20.6313 C   0  0  1  0  0  0  0  0  0  0  0  0
  -27.5722  -13.3044   19.7291 C   0  0  2  0  0  0  0  0  0  0  0  0
  -28.6054  -18.8999   16.2991 C   0  0  0  0  0  0  0  0  0  0  0  0
  -26.8473  -17.9691   17.8369 C   0  0  2  0  0  0  0  0  0  0  0  0
  -27.0255  -18.8708   16.5465 C   0  0  2  0  0  0  0  0  0  0  0  0
  -31.9896  -19.2480   20.1258 C   0  0  0  0  0  0  0  0  0  0  0  0
  -29.1424  -17.6899   15.5042 C   0  0  0  0  0  0  0  0  0  0  0  0
  -29.1059  -20.1751   15.5976 C   0  0  0  0  0  0  0  0  0  0  0  0
  -25.5746  -18.2088   18.6507 C   0  0  0  0  0  0  0  0  0  0  0  0
  -26.4870  -19.1376   14.1204 C   0  0  0  0  0  0  0  0  0  0  0  0
  -26.6981  -23.3095   27.6215 C   0  0  0  0  0  0  0  0  0  0  0  0
  -30.4839  -26.3851   23.1406 C   0  0  0  0  0  0  0  0  0  0  0  0
  -30.3145  -25.0466   25.2495 C   0  0  0  0  0  0  0  0  0  0  0  0
  -29.2624  -27.3047   25.1196 C   0  0  0  0  0  0  0  0  0  0  0  0
  -24.0408  -22.8807   24.9325 C   0  0  0  0  0  0  0  0  0  0  0  0
  -29.9403  -18.1729   21.8747 C   0  0  0  0  0  0  0  0  0  0  0  0
  -26.2506  -18.3126   15.3361 C   0  0  0  0  0  0  0  0  0  0  0  0
  -26.4698  -20.3016   16.8018 C   0  0  0  0  0  0  0  0  0  1  0  0
  -30.7599  -16.9085   22.1521 C   0  0  0  0  0  0  0  0  0  0  0  0
  -28.2187  -25.3767   23.8603 C   0  0  1  0  0  0  0  0  0  0  0  0
  -25.9332  -23.6717   26.3580 C   0  0  2  0  0  0  0  0  0  0  0  0
  -29.5589  -26.0184   24.3182 C   0  0  0  0  0  0  0  0  0  0  0  0
  -25.8427  -11.6243   20.2471 N   0  0  0  0  0  0  0  0  0  0  0  0
  -26.1898  -12.9224   20.2249 N   0  0  0  0  0  0  0  0  0  0  0  0
  -27.1797  -25.7573   21.6469 N   0  0  0  0  0  0  0  0  0  0  0  0
  -29.9163  -13.7632   20.3483 N   0  0  0  0  0  0  0  0  0  0  0  0
  -25.3942  -15.0990   20.7149 N   0  0  0  0  0  0  0  0  0  0  0  0
  -21.9119  -12.4437   21.8191 N   0  0  0  0  0  0  0  0  0  0  0  0
  -27.5697  -28.4741   19.3672 N   0  0  0  0  0  0  0  0  0  0  0  0
  -27.3114  -25.0440   24.9532 N   0  0  0  0  0  0  0  0  0  0  0  0
  -30.1006  -15.7145   21.6721 N   0  0  0  0  0  0  0  0  0  0  0  0
  -24.8847  -22.6373   26.1307 N   0  3  0  0  0  0  0  0  0  0  0  0
  -22.6348  -14.6172   21.7102 O   0  0  0  0  0  0  0  0  0  0  0  0
  -28.7496  -26.4855   19.6427 O   0  0  0  0  0  0  0  0  0  0  0  0
  -27.0764  -27.3828   23.3151 O   0  0  0  0  0  0  0  0  0  0  0  0
  -27.1530  -22.7811   24.4723 O   0  0  0  0  0  0  0  0  0  0  0  0
  -31.7901  -15.1251   20.2384 O   0  0  0  0  0  0  0  0  0  0  0  0
  -26.8966  -16.5783   17.5108 O   0  0  0  0  0  0  0  0  0  0  0  0
  -21.7464   -6.8901   21.4120 O   0  0  0  0  0  0  0  0  0  0  0  0
  -27.1119  -20.8015   17.9484 O   0  0  0  0  0  0  0  0  0  1  0  0
  -18.9674   -6.2312   26.1287 F   0  0  0  0  0  0  0  0  0  0  0  0
  -22.3170   -4.7864   23.1124 F   0  0  0  0  0  0  0  0  0  0  0  0
  1  2  1  0  0  0  0
  1  5  2  0  0  0  0
  2  6  2  0  0  0  0
  3  8  2  0  0  0  0
  3 16  1  0  0  0  0
  4  9  1  0  0  0  0
  4 16  2  0  0  0  0
  5 18  1  0  0  0  0
  6 20  1  0  0  0  0
  7 10  2  0  0  0  0
  7 19  1  0  0  0  0
  8 27  1  0  0  0  0
  9 27  2  0  0  0  0
 10 28  1  0  0  0  0
 11 12  2  0  0  0  0
 11 29  1  0  0  0  0
 12 30  1  0  0  0  0
 13 21  2  0  0  0  0
 13 25  1  0  0  0  0
 14 22  1  0  0  0  0
 14 28  2  0  0  0  0
 15 30  2  0  0  0  0
 15 31  1  0  0  0  0
 16 32  1  0  0  0  0
 17 32  1  0  0  0  0
 17 33  2  0  0  0  0
 17 34  1  0  0  0  0
 18 20  2  0  0  0  0
 18 39  1  0  0  0  0
 19 22  2  0  0  0  0
 19 40  1  0  0  0  0
 20 51  1  0  0  0  0
 21 23  1  0  0  0  0
 21 55  1  0  0  0  0
 22 41  1  0  0  0  0
 23 24  2  0  0  0  0
 23 54  1  0  0  0  0
 24 26  1  0  0  0  0
 24 50  1  0  0  0  0
 25 26  2  0  0  0  0
 25 67  1  0  0  0  0
 26 57  1  0  0  0  0
 27 90  1  0  0  0  0
 28 91  1  0  0  0  0
 29 31  2  0  0  0  0
 29 90  1  0  0  0  0
 30 92  1  0  0  0  0
 31 93  1  0  0  0  0
 32 74  2  0  0  0  0
 33 75  1  0  0  0  0
 33 78  1  0  0  0  0
 34 79  1  0  0  0  0
 34 84  2  0  0  0  0
 35 52  1  0  0  0  0
 35 80  1  0  0  0  0
 35 85  2  0  0  0  0
 36 71  1  0  0  0  0
 36 76  1  0  0  0  0
 36 86  2  0  0  0  0
 37 72  1  0  0  0  0
 37 81  1  0  0  0  0
 37 87  2  0  0  0  0
 38 77  1  0  0  0  0
 38 82  1  0  0  0  0
 38 88  2  0  0  0  0
 39 42  1  0  0  0  0
 40 52  1  0  0  0  0
 41 76  1  0  0  0  0
 42 46  1  0  0  0  0
 43 47  1  0  0  0  0
 43 48  1  0  0  0  0
 44 45  1  0  0  0  0
 44 50  1  0  0  0  0
 45 50  1  0  0  0  0
 46 51  1  0  0  0  0
 47 53  1  0  0  0  0
 48 77  1  0  0  0  0
 49 53  1  0  0  0  0
 49 77  1  0  0  0  0
 51 80  1  0  0  0  0
 52 76  1  0  0  0  0
 53 75  1  0  0  0  0
 54 56  1  0  0  0  0
 54 58  1  0  0  0  0
 54 59  1  0  0  0  0
 55 56  1  0  0  0  0
 55 60  1  0  0  0  0
 55 89  1  0  0  0  0
 56 68  1  0  0  0  0
 56 69  1  0  0  0  0
 61 68  1  0  0  0  0
 62 72  1  0  0  0  0
 63 73  1  0  0  0  0
 64 73  1  0  0  0  0
 65 73  1  0  0  0  0
 66 83  1  0  0  0  0
 67 70  1  0  0  0  0
 69 91  1  0  0  0  0
 70 82  1  0  0  0  0
 71 73  1  0  0  0  0
 71 81  1  0  0  0  0
 72 83  1  0  0  0  0
 74 75  1  0  0  0  0
M  CHG  1  83   1
M  ISO  4  38 100  69 101  82 100  91 101
M  END
> <Batch ID>
0171

> <Smiles>
CCC1([101CH2:1][101O:1]c2ccc3c(c2)CN(C(=O)C(NC(=O)C(C)NC)C(C)(C)C)C(C(=O)NC2CCCc4ccccc42)C3)C(C)(C)c2c(cc(CC[100NH:0][100C:0](=O)N3CCCC(n4nc(-c5ccc(Oc6ccc(F)cc6F)cc5)c(C(N)=O)c4N)C3)c(C)c2C2CC2)C1(C)O

> <Shape>
0.231

> <Color>
0.186

> <Negative vol penalty>
0.000

$$$$

  -OEChem-04052322373D

 83 91  0     1  0  0  0  0  0999 V2000
  -27.9156   -9.8697   20.7016 C   0  0  0  0  0  0  0  0  0  0  0  0
  -28.5949  -11.0606   20.4654 C   0  0  0  0  0  0  0  0  0  0  0  0
  -22.9210  -29.3332   21.8746 C   0  0  0  0  0  0  0  0  0  0  0  0
  -22.4201  -29.1891   19.5155 C   0  0  0  0  0  0  0  0  0  0  0  0
  -26.5223   -9.8619   20.7540 C   0  0  0  0  0  0  0  0  0  0  0  0
  -27.8813  -12.2442   20.2804 C   0  0  0  0  0  0  0  0  0  0  0  0
  -29.5570  -17.8664   22.0379 C   0  0  0  0  0  0  0  0  0  0  0  0
  -21.6628  -29.8882   22.1079 C   0  0  0  0  0  0  0  0  0  0  0  0
  -21.1618  -29.7441   19.7487 C   0  0  0  0  0  0  0  0  0  0  0  0
  -30.1495  -18.9259   21.3522 C   0  0  0  0  0  0  0  0  0  0  0  0
  -18.4449  -31.0091   23.3742 C   0  0  0  0  0  0  0  0  0  0  0  0
  -17.7110  -30.5208   24.4553 C   0  0  0  0  0  0  0  0  0  0  0  0
  -27.9714  -19.8909   20.9731 C   0  0  0  0  0  0  0  0  0  0  0  0
  -31.3738  -24.8851   18.9061 C   0  0  0  0  0  0  0  0  0  0  0  0
  -17.7396  -28.3119   23.4770 C   0  0  0  0  0  0  0  0  0  0  0  0
  -23.2997  -28.9837   20.5783 C   0  0  0  0  0  0  0  0  0  0  0  0
  -24.9421  -27.0455   20.3471 C   0  0  0  0  0  0  0  0  0  0  0  0
  -25.7916  -11.0477   20.5792 C   0  0  0  0  0  0  0  0  0  0  0  0
  -28.1640  -17.8055   22.1871 C   0  0  0  0  0  0  0  0  0  0  0  0
  -26.4769  -12.2520   20.3292 C   0  0  0  0  0  0  0  0  0  0  0  0
  -27.3638  -18.8309   21.6633 C   0  0  0  0  0  0  0  0  0  0  0  0
  -30.6252  -23.9422   19.6016 C   0  0  0  0  0  0  0  0  0  0  0  0
  -29.8754  -23.0039   18.9011 C   0  0  0  0  0  0  0  0  0  0  0  0
  -20.7831  -30.0936   21.0450 C   0  0  0  0  0  0  0  0  0  0  0  0
  -29.3565  -19.9368   20.8171 C   0  0  0  0  0  0  0  0  0  0  0  0
  -18.8260  -30.1488   22.3445 C   0  0  0  0  0  0  0  0  0  0  0  0
  -17.3584  -29.1723   24.5067 C   0  0  0  0  0  0  0  0  0  0  0  0
  -18.4734  -28.8002   22.3959 C   0  0  0  0  0  0  0  0  0  0  0  0
  -24.5995  -28.4109   20.3366 C   0  0  0  0  0  0  0  0  0  0  0  0
  -31.3393  -24.8476   17.5215 C   0  0  0  0  0  0  0  0  0  0  0  0
  -29.9077  -23.0507   17.5167 C   0  0  0  0  0  0  0  0  0  0  0  0
  -26.2856  -27.0264   20.0621 C   0  0  0  0  0  0  0  0  0  0  0  0
  -24.1195  -25.8972   20.5923 C   0  0  0  0  0  0  0  0  0  0  0  0
  -25.8956  -15.7792   21.2641 C   0  0  0  0  0  0  0  0  0  0  0  0
  -23.9979  -17.6877   23.0748 C   0  0  0  0  0  0  0  0  0  0  0  0
  -23.4700  -20.7515   24.4825 C   0  0  0  0  0  0  0  0  0  0  0  0
  -30.6525  -28.8004   17.0740 C   0  0  0  0  0  0  0  0  0  0  0  0
  -24.2850  -10.9813   20.5973 C   0  0  0  0  0  0  0  0  0  0  0  0
  -27.5422  -16.6698   22.9526 C   0  0  0  0  0  0  0  0  0  0  0  0
  -25.8652  -18.8227   21.8137 C   0  0  0  0  0  0  0  0  0  0  0  0
  -23.6172  -12.3440   20.7636 C   0  0  0  0  0  0  0  0  0  0  0  0
  -29.6614  -30.7879   19.8568 C   0  0  0  0  0  0  0  0  0  0  0  0
  -24.2521  -13.3673   19.8274 C   0  0  0  0  0  0  0  0  0  0  0  0
  -28.2824  -30.2383   20.2262 C   0  0  0  0  0  0  0  0  0  0  0  0
  -29.8849  -30.7825   18.3462 C   0  0  0  0  0  0  0  0  0  0  0  0
  -28.2851  -28.9296   18.0615 C   0  0  0  0  0  0  0  0  0  0  0  0
  -25.7391  -13.5608   20.1482 C   0  0  1  0  0  0  0  0  0  0  0  0
  -26.0754  -16.4436   22.5997 C   0  0  1  0  0  0  0  0  0  0  0  0
  -28.0349  -28.8629   19.5779 C   0  0  2  0  0  0  0  0  0  0  0  0
  -30.6411  -23.9603   21.0944 C   0  0  0  0  0  0  0  0  0  0  0  0
  -29.1241  -22.0680   16.7094 C   0  0  0  0  0  0  0  0  0  0  0  0
  -21.8119  -22.0204   25.8745 C   0  0  0  0  0  0  0  0  0  0  0  0
  -22.1800  -17.9770   20.6414 C   0  0  0  0  0  0  0  0  0  0  0  0
  -21.1143  -19.9477   21.7589 C   0  0  0  0  0  0  0  0  0  0  0  0
  -20.9762  -17.6919   22.8149 C   0  0  0  0  0  0  0  0  0  0  0  0
  -25.4454  -21.1923   26.6418 C   0  0  0  0  0  0  0  0  0  0  0  0
  -29.0598  -21.9729   19.6246 C   0  0  0  0  0  0  0  0  0  1  0  0
  -31.2796  -26.7425   15.8366 C   0  0  0  0  0  0  0  0  0  0  0  0
  -32.1315  -25.8434   16.7421 C   0  0  1  0  0  0  0  0  0  0  0  0
  -23.1799  -18.9311   22.8222 C   0  0  1  0  0  0  0  0  0  0  0  0
  -23.0644  -21.1579   25.8877 C   0  0  2  0  0  0  0  0  0  0  0  0
  -21.8907  -18.6364   22.0046 C   0  0  0  0  0  0  0  0  0  0  0  0
  -25.6414  -29.2019   20.0666 N   0  0  0  0  0  0  0  0  0  0  0  0
  -30.6229  -23.9515   16.8063 N   0  0  0  0  0  0  0  0  0  0  0  0
  -26.6518  -28.3308   19.9048 N   0  0  0  0  0  0  0  0  0  0  0  0
  -25.3040  -17.6878   22.5650 N   0  0  0  0  0  0  0  0  0  0  0  0
  -29.6354  -29.4489   17.7936 N   0  0  0  0  0  0  0  0  0  0  0  0
  -27.1776  -26.0213   19.9334 N   0  0  0  0  0  0  0  0  0  0  0  0
  -22.7601  -26.0960   20.8696 N   0  0  0  0  0  0  0  0  0  0  0  0
  -25.8990  -14.3984   21.3175 N   0  0  0  0  0  0  0  0  0  0  0  0
  -22.9346  -19.5309   24.1293 N   0  0  0  0  0  0  0  0  0  0  0  0
  -30.3353  -27.5370   16.5902 N   0  0  0  0  0  0  0  0  0  0  0  0
  -24.1597  -21.9297   26.5402 N   0  3  0  0  0  0  0  0  0  0  0  0
  -24.5798  -24.7303   20.5826 O   0  0  0  0  0  0  0  0  0  0  0  0
  -25.7621  -16.4683   20.2596 O   0  0  0  0  0  0  0  0  0  0  0  0
  -23.4989  -16.7538   23.7075 O   0  0  0  0  0  0  0  0  0  0  0  0
  -24.1869  -21.4488   23.7681 O   0  0  0  0  0  0  0  0  0  0  0  0
  -31.7629  -29.3072   16.8818 O   0  0  0  0  0  0  0  0  0  0  0  0
  -19.5552  -30.6349   21.2723 O   0  0  0  0  0  0  0  0  0  0  0  0
  -29.9323  -20.9717   20.1468 O   0  0  0  0  0  0  0  0  0  1  0  0
  -16.6550  -28.7032   25.5457 F   0  0  0  0  0  0  0  0  0  0  0  0
  -18.8377  -27.9687   21.4102 F   0  0  0  0  0  0  0  0  0  0  0  0
  -32.8979  -26.6717   17.5260 F   0  0  0  0  0  0  0  0  0  0  0  0
  1  2  1  0  0  0  0
  1  5  2  0  0  0  0
  2  6  2  0  0  0  0
  3  8  2  0  0  0  0
  3 16  1  0  0  0  0
  4  9  1  0  0  0  0
  4 16  2  0  0  0  0
  5 18  1  0  0  0  0
  6 20  1  0  0  0  0
  7 10  2  0  0  0  0
  7 19  1  0  0  0  0
  8 24  1  0  0  0  0
  9 24  2  0  0  0  0
 10 25  1  0  0  0  0
 11 12  2  0  0  0  0
 11 26  1  0  0  0  0
 12 27  1  0  0  0  0
 13 21  1  0  0  0  0
 13 25  2  0  0  0  0
 14 22  2  0  0  0  0
 14 30  1  0  0  0  0
 15 27  2  0  0  0  0
 15 28  1  0  0  0  0
 16 29  1  0  0  0  0
 17 29  1  0  0  0  0
 17 32  2  0  0  0  0
 17 33  1  0  0  0  0
 18 20  2  0  0  0  0
 18 38  1  0  0  0  0
 19 21  2  0  0  0  0
 19 39  1  0  0  0  0
 20 47  1  0  0  0  0
 21 40  1  0  0  0  0
 22 23  1  0  0  0  0
 22 50  1  0  0  0  0
 23 31  2  0  0  0  0
 23 57  1  0  0  0  0
 24 79  1  0  0  0  0
 25 80  1  0  0  0  0
 26 28  2  0  0  0  0
 26 79  1  0  0  0  0
 27 81  1  0  0  0  0
 28 82  1  0  0  0  0
 29 63  2  0  0  0  0
 30 59  1  0  0  0  0
 30 64  2  0  0  0  0
 31 51  1  0  0  0  0
 31 64  1  0  0  0  0
 32 65  1  0  0  0  0
 32 68  1  0  0  0  0
 33 69  1  0  0  0  0
 33 74  2  0  0  0  0
 34 48  1  0  0  0  0
 34 70  1  0  0  0  0
 34 75  2  0  0  0  0
 35 60  1  0  0  0  0
 35 66  1  0  0  0  0
 35 76  2  0  0  0  0
 36 61  1  0  0  0  0
 36 71  1  0  0  0  0
 36 77  2  0  0  0  0
 37 67  1  0  0  0  0
 37 72  1  0  0  0  0
 37 78  2  0  0  0  0
 38 41  1  0  0  0  0
 39 48  1  0  0  0  0
 40 66  1  0  0  0  0
 41 43  1  0  0  0  0
 42 44  1  0  0  0  0
 42 45  1  0  0  0  0
 43 47  1  0  0  0  0
 44 49  1  0  0  0  0
 45 67  1  0  0  0  0
 46 49  1  0  0  0  0
 46 67  1  0  0  0  0
 47 70  1  0  0  0  0
 48 66  1  0  0  0  0
 49 65  1  0  0  0  0
 52 61  1  0  0  0  0
 53 62  1  0  0  0  0
 54 62  1  0  0  0  0
 55 62  1  0  0  0  0
 56 73  1  0  0  0  0
 57 80  1  0  0  0  0
 58 59  1  0  0  0  0
 58 72  1  0  0  0  0
 59 83  1  0  0  0  0
 60 62  1  0  0  0  0
 60 71  1  0  0  0  0
 61 73  1  0  0  0  0
 63 65  1  0  0  0  0
M  CHG  1  73   1
M  ISO  4  37 100  57 101  72 100  80 101
M  END
> <Batch ID>
0171

> <Smiles>
CNC(C)C(=O)NC(C(=O)N1Cc2cc([101O:1][101CH2:1]c3c(C)cc(C(F)C[100NH:0][100C:0](=O)N4CCCC(n5nc(-c6ccc(Oc7ccc(F)cc7F)cc6)c(C(N)=O)c5N)C4)nc3C)ccc2CC1C(=O)NC1CCCc2ccccc21)C(C)(C)C

> <Shape>
0.218

> <Color>
0.066

> <Negative vol penalty>
0.000

$$$$

  -OEChem-04052322373D

 90100  0     1  0  0  0  0  0999 V2000
  -20.1734  -25.8462   25.2505 C   0  0  0  0  0  0  0  0  0  0  0  0
  -21.2521  -25.6857   24.3867 C   0  0  0  0  0  0  0  0  0  0  0  0
  -23.8187   -9.6363   22.1740 C   0  0  0  0  0  0  0  0  0  0  0  0
  -25.2039   -7.6872   21.8284 C   0  0  0  0  0  0  0  0  0  0  0  0
  -19.2029  -26.8101   24.9804 C   0  0  0  0  0  0  0  0  0  0  0  0
  -21.3604  -26.4885   23.2517 C   0  0  0  0  0  0  0  0  0  0  0  0
  -26.0503  -28.2756   22.5764 C   0  0  0  0  0  0  0  0  0  0  0  0
  -22.6761   -8.8531   22.0115 C   0  0  0  0  0  0  0  0  0  0  0  0
  -24.0612   -6.9040   21.6659 C   0  0  0  0  0  0  0  0  0  0  0  0
  -26.9937  -27.4010   22.0390 C   0  0  0  0  0  0  0  0  0  0  0  0
  -21.5041   -4.3238   21.5179 C   0  0  0  0  0  0  0  0  0  0  0  0
  -21.4612   -3.0939   22.1743 C   0  0  0  0  0  0  0  0  0  0  0  0
  -29.9259  -20.7317   19.9798 C   0  0  0  0  0  0  0  0  0  0  0  0
  -26.6923  -28.4171   19.8720 C   0  0  0  0  0  0  0  0  0  0  0  0
  -21.6918   -4.2200   24.2994 C   0  0  0  0  0  0  0  0  0  0  0  0
  -25.0827   -9.0534   22.0825 C   0  0  0  0  0  0  0  0  0  0  0  0
  -26.9450  -10.1331   23.4513 C   0  0  0  0  0  0  0  0  0  0  0  0
  -19.3045  -27.6317   23.8466 C   0  0  0  0  0  0  0  0  0  0  0  0
  -25.4117  -29.2219   21.7620 C   0  0  0  0  0  0  0  0  0  0  0  0
  -20.3897  -27.4634   22.9655 C   0  0  0  0  0  0  0  0  0  0  0  0
  -29.1076  -20.3052   21.0199 C   0  0  0  0  0  0  0  0  0  0  0  0
  -25.7430  -29.3042   20.4020 C   0  0  0  0  0  0  0  0  0  0  0  0
  -29.8419  -22.0448   19.5302 C   0  0  0  0  0  0  0  0  0  0  0  0
  -22.7973   -7.4869   21.7574 C   0  0  0  0  0  0  0  0  0  0  0  0
  -27.3127  -27.4697   20.6860 C   0  0  0  0  0  0  0  0  0  0  0  0
  -21.6409   -5.5019   22.2521 C   0  0  0  0  0  0  0  0  0  0  0  0
  -21.5551   -3.0420   23.5651 C   0  0  0  0  0  0  0  0  0  0  0  0
  -21.7347   -5.4500   23.6429 C   0  0  0  0  0  0  0  0  0  0  0  0
  -26.2635   -9.8621   22.2497 C   0  0  0  0  0  0  0  0  0  0  0  0
  -28.9306  -22.8852   20.1491 C   0  0  0  0  0  0  0  0  0  0  0  0
  -28.2293  -21.2235   21.5722 C   0  0  0  0  0  0  0  0  0  0  0  0
  -27.9908  -10.9415   23.0781 C   0  0  0  0  0  0  0  0  0  0  0  0
  -26.6584   -9.6934   24.7856 C   0  0  0  0  0  0  0  0  0  0  0  0
  -28.7834  -24.2727   19.7358 C   0  0  0  0  0  0  0  0  0  0  0  0
  -22.4023  -29.7733   20.8999 C   0  0  0  0  0  0  0  0  0  0  0  0
  -23.6918  -32.4083   19.5155 C   0  0  0  0  0  0  0  0  0  0  0  0
  -26.4453  -33.9365   18.2005 C   0  0  0  0  0  0  0  0  0  0  0  0
  -30.1497  -15.0921   20.2263 C   0  0  0  0  0  0  0  0  0  0  0  0
  -18.2060  -28.6277   23.5712 C   0  0  0  0  0  0  0  0  0  0  0  0
  -24.4159  -30.1759   22.3625 C   0  0  0  0  0  0  0  0  0  0  0  0
  -25.1009  -30.3156   19.4892 C   0  0  0  0  0  0  0  0  0  0  0  0
  -18.5915  -29.6920   22.5470 C   0  0  0  0  0  0  0  0  0  0  0  0
  -29.7883  -12.1157   18.5063 C   0  0  0  0  0  0  0  0  0  0  0  0
  -19.2609  -29.0498   21.3361 C   0  0  0  0  0  0  0  0  0  0  0  0
  -28.8956  -11.2749   19.4186 C   0  0  0  0  0  0  0  0  0  0  0  0
  -25.7224  -22.5368   23.4793 C   0  0  0  0  0  0  0  0  0  0  0  0
  -25.6865  -21.3848   24.4396 C   0  0  0  0  0  0  0  0  0  0  0  0
  -28.1956  -17.9518   20.7929 C   0  0  0  0  0  0  0  0  0  0  0  0
  -30.6307  -18.3126   21.3841 C   0  0  0  0  0  0  0  0  0  0  0  0
  -29.3160  -13.5644   18.4651 C   0  0  0  0  0  0  0  0  0  0  0  0
  -28.3183  -16.5008   21.2667 C   0  0  0  0  0  0  0  0  0  0  0  0
  -30.6888  -16.8662   21.8667 C   0  0  0  0  0  0  0  0  0  0  0  0
  -28.3471  -13.3821   20.7336 C   0  0  0  0  0  0  0  0  0  0  0  0
  -29.2017  -18.8718   21.5077 C   0  0  0  0  0  0  0  0  0  0  0  0
  -20.5552  -28.3319   21.7373 C   0  0  1  0  0  0  0  0  0  0  0  0
  -23.4509  -30.7579   21.3343 C   0  0  1  0  0  0  0  0  0  0  0  0
  -28.7847  -11.9057   20.8180 C   0  0  1  0  0  0  0  0  0  0  0  0
  -26.9391  -21.6726   23.6601 C   0  0  0  0  0  0  0  0  0  0  0  0
  -30.7167  -22.5066   18.4161 C   0  0  0  0  0  0  0  0  0  0  0  0
  -27.1804  -36.0752   17.1129 C   0  0  0  0  0  0  0  0  0  0  0  0
  -22.3566  -31.5408   16.9127 C   0  0  0  0  0  0  0  0  0  0  0  0
  -23.8628  -33.1258   15.6931 C   0  0  0  0  0  0  0  0  0  0  0  0
  -22.2407  -33.9954   17.3770 C   0  0  0  0  0  0  0  0  0  0  0  0
  -28.3778  -34.5099   20.3674 C   0  0  0  0  0  0  0  0  0  0  0  0
  -28.3561  -25.3338   20.7574 C   0  0  0  0  0  0  0  0  0  1  0  0
  -24.2808  -32.7251   18.1621 C   0  0  1  0  0  0  0  0  0  0  0  0
  -27.0336  -35.3180   18.4235 C   0  0  2  0  0  0  0  0  0  0  0  0
  -23.1961  -32.8263   17.0528 C   0  0  0  0  0  0  0  0  0  0  0  0
  -26.8287  -10.4506   21.1923 N   0  0  0  0  0  0  0  0  0  0  0  0
  -28.1192  -22.5070   21.1621 N   0  0  0  0  0  0  0  0  0  0  0  0
  -27.8763  -11.0996   21.7282 N   0  0  0  0  0  0  0  0  0  0  0  0
  -24.1289  -31.2222   20.1222 N   0  0  0  0  0  0  0  0  0  0  0  0
  -29.2203  -14.1260   19.8124 N   0  0  0  0  0  0  0  0  0  0  0  0
  -29.7091  -16.0373   21.1649 N   0  0  0  0  0  0  0  0  0  0  0  0
  -28.9879  -11.5254   23.7762 N   0  0  0  0  0  0  0  0  0  0  0  0
  -25.5456   -8.8668   24.9921 N   0  0  0  0  0  0  0  0  0  0  0  0
  -27.3931  -20.7935   22.6325 N   0  0  0  0  0  0  0  0  0  0  0  0
  -21.6237  -29.2881   21.9332 N   0  0  0  0  0  0  0  0  0  0  0  0
  -25.0731  -33.9377   18.3355 N   0  0  0  0  0  0  0  0  0  0  0  0
  -28.3777  -35.2124   19.0584 N   0  3  0  0  0  0  0  0  0  0  0  0
  -27.3586  -10.0371   25.7680 O   0  0  0  0  0  0  0  0  0  0  0  0
  -29.0005  -24.6189   18.5576 O   0  0  0  0  0  0  0  0  0  0  0  0
  -22.3058  -29.4769   19.7148 O   0  0  0  0  0  0  0  0  0  0  0  0
  -22.8795  -33.1881   20.0191 O   0  0  0  0  0  0  0  0  0  0  0  0
  -27.1339  -32.9552   17.9296 O   0  0  0  0  0  0  0  0  0  0  0  0
  -31.3054  -15.1093   19.7845 O   0  0  0  0  0  0  0  0  0  0  0  0
  -21.6825   -6.7223   21.5990 O   0  0  0  0  0  0  0  0  0  0  0  0
  -28.2412  -26.6090   20.1539 O   0  0  0  0  0  0  0  0  0  1  0  0
  -21.5124   -1.8609   24.1954 F   0  0  0  0  0  0  0  0  0  0  0  0
  -21.8651   -6.5785   24.3537 F   0  0  0  0  0  0  0  0  0  0  0  0
  1  2  1  0  0  0  0
  1  5  2  0  0  0  0
  2  6  2  0  0  0  0
  3  8  2  0  0  0  0
  3 16  1  0  0  0  0
  4  9  1  0  0  0  0
  4 16  2  0  0  0  0
  5 18  1  0  0  0  0
  6 20  1  0  0  0  0
  7 10  2  0  0  0  0
  7 19  1  0  0  0  0
  8 24  1  0  0  0  0
  9 24  2  0  0  0  0
 10 25  1  0  0  0  0
 11 12  2  0  0  0  0
 11 26  1  0  0  0  0
 12 27  1  0  0  0  0
 13 21  2  0  0  0  0
 13 23  1  0  0  0  0
 14 22  1  0  0  0  0
 14 25  2  0  0  0  0
 15 27  2  0  0  0  0
 15 28  1  0  0  0  0
 16 29  1  0  0  0  0
 17 29  1  0  0  0  0
 17 32  2  0  0  0  0
 17 33  1  0  0  0  0
 18 20  2  0  0  0  0
 18 39  1  0  0  0  0
 19 22  2  0  0  0  0
 19 40  1  0  0  0  0
 20 55  1  0  0  0  0
 21 31  1  0  0  0  0
 21 54  1  0  0  0  0
 22 41  1  0  0  0  0
 23 30  2  0  0  0  0
 23 59  1  0  0  0  0
 24 87  1  0  0  0  0
 25 88  1  0  0  0  0
 26 28  2  0  0  0  0
 26 87  1  0  0  0  0
 27 89  1  0  0  0  0
 28 90  1  0  0  0  0
 29 69  2  0  0  0  0
 30 34  1  0  0  0  0
 30 70  1  0  0  0  0
 31 70  2  0  0  0  0
 31 77  1  0  0  0  0
 32 71  1  0  0  0  0
 32 75  1  0  0  0  0
 33 76  1  0  0  0  0
 33 81  2  0  0  0  0
 34 65  1  0  0  0  0
 34 82  2  0  0  0  0
 35 56  1  0  0  0  0
 35 78  1  0  0  0  0
 35 83  2  0  0  0  0
 36 66  1  0  0  0  0
 36 72  1  0  0  0  0
 36 84  2  0  0  0  0
 37 67  1  0  0  0  0
 37 79  1  0  0  0  0
 37 85  2  0  0  0  0
 38 73  1  0  0  0  0
 38 74  1  0  0  0  0
 38 86  2  0  0  0  0
 39 42  1  0  0  0  0
 40 56  1  0  0  0  0
 41 72  1  0  0  0  0
 42 44  1  0  0  0  0
 43 45  1  0  0  0  0
 43 50  1  0  0  0  0
 44 55  1  0  0  0  0
 45 57  1  0  0  0  0
 46 47  1  0  0  0  0
 46 58  1  0  0  0  0
 47 58  1  0  0  0  0
 48 51  1  0  0  0  0
 48 54  1  0  0  0  0
 49 52  1  0  0  0  0
 49 54  1  0  0  0  0
 50 73  1  0  0  0  0
 51 74  1  0  0  0  0
 52 74  1  0  0  0  0
 53 57  1  0  0  0  0
 53 73  1  0  0  0  0
 55 78  1  0  0  0  0
 56 72  1  0  0  0  0
 57 71  1  0  0  0  0
 58 77  1  0  0  0  0
 60 67  1  0  0  0  0
 61 68  1  0  0  0  0
 62 68  1  0  0  0  0
 63 68  1  0  0  0  0
 64 80  1  0  0  0  0
 65 88  1  0  0  0  0
 66 68  1  0  0  0  0
 66 79  1  0  0  0  0
 67 80  1  0  0  0  0
 69 71  1  0  0  0  0
M  CHG  1  80   1
M  ISO  4  38 100  65 101  74 100  88 101
M  END
> <Batch ID>
0171

> <Smiles>
CNC(C)C(=O)NC(C(=O)N1Cc2cc([101O:1][101CH2:1]C(=O)c3nc(NC4CC4)c(C4CC[100N:0]([100C:0](=O)N5CCCC(n6nc(-c7ccc(Oc8ccc(F)cc8F)cc7)c(C(N)=O)c6N)C5)CC4)cc3C)ccc2CC1C(=O)NC1CCCc2ccccc21)C(C)(C)C

> <Shape>
0.300

> <Color>
0.131

> <Negative vol penalty>
0.000

$$$$

  -OEChem-04052322373D

 89 98  0     1  0  0  0  0  0999 V2000
  -29.7765  -12.5982   19.2197 C   0  0  0  0  0  0  0  0  0  0  0  0
  -29.5777  -13.9750   19.2316 C   0  0  0  0  0  0  0  0  0  0  0  0
  -29.0845  -26.1579   19.5226 C   0  0  0  0  0  0  0  0  0  0  0  0
  -27.1309  -24.7491   19.3334 C   0  0  0  0  0  0  0  0  0  0  0  0
  -28.6950  -11.7372   19.4010 C   0  0  0  0  0  0  0  0  0  0  0  0
  -28.2968  -14.4917   19.4238 C   0  0  0  0  0  0  0  0  0  0  0  0
  -24.9160  -20.0909   22.3454 C   0  0  0  0  0  0  0  0  0  0  0  0
  -29.9043  -25.0497   19.3100 C   0  0  0  0  0  0  0  0  0  0  0  0
  -27.9507  -23.6408   19.1207 C   0  0  0  0  0  0  0  0  0  0  0  0
  -23.9798  -21.0721   22.0224 C   0  0  0  0  0  0  0  0  0  0  0  0
  -29.5370  -20.3792   18.8862 C   0  0  0  0  0  0  0  0  0  0  0  0
  -29.2341  -19.2064   19.5778 C   0  0  0  0  0  0  0  0  0  0  0  0
  -22.1991  -19.4903   22.4043 C   0  0  0  0  0  0  0  0  0  0  0  0
  -17.9631  -28.9483   22.8536 C   0  0  0  0  0  0  0  0  0  0  0  0
  -29.5316  -20.3668   21.6759 C   0  0  0  0  0  0  0  0  0  0  0  0
  -27.6977  -26.0077   19.5343 C   0  0  0  0  0  0  0  0  0  0  0  0
  -26.3204  -28.0176   18.7789 C   0  0  0  0  0  0  0  0  0  0  0  0
  -27.4017  -12.2437   19.6052 C   0  0  0  0  0  0  0  0  0  0  0  0
  -24.5006  -18.7968   22.6904 C   0  0  0  0  0  0  0  0  0  0  0  0
  -27.1967  -13.6367   19.6067 C   0  0  0  0  0  0  0  0  0  0  0  0
  -23.1319  -18.4951   22.7338 C   0  0  0  0  0  0  0  0  0  0  0  0
  -19.6665  -26.7525   22.6092 C   0  0  0  0  0  0  0  0  0  0  0  0
  -17.8307  -28.0802   21.7699 C   0  0  0  0  0  0  0  0  0  0  0  0
  -18.9472  -28.7186   23.8151 C   0  0  0  0  0  0  0  0  0  0  0  0
  -18.6823  -26.9823   21.6477 C   0  0  0  0  0  0  0  0  0  0  0  0
  -19.7989  -27.6207   23.6929 C   0  0  0  0  0  0  0  0  0  0  0  0
  -29.3375  -23.7912   19.1090 C   0  0  0  0  0  0  0  0  0  0  0  0
  -22.6212  -20.7711   22.0490 C   0  0  0  0  0  0  0  0  0  0  0  0
  -29.8374  -21.5458   19.5894 C   0  0  0  0  0  0  0  0  0  0  0  0
  -29.2314  -19.2002   20.9727 C   0  0  0  0  0  0  0  0  0  0  0  0
  -29.8346  -21.5396   20.9842 C   0  0  0  0  0  0  0  0  0  0  0  0
  -26.8503  -27.1520   19.7545 C   0  0  0  0  0  0  0  0  0  0  0  0
  -25.5890  -28.9342   19.4941 C   0  0  0  0  0  0  0  0  0  0  0  0
  -26.4752  -27.9950   17.3537 C   0  0  0  0  0  0  0  0  0  0  0  0
  -24.9391  -15.8980   21.4620 C   0  0  0  0  0  0  0  0  0  0  0  0
  -22.0913  -26.2244   20.4733 C   0  0  0  0  0  0  0  0  0  0  0  0
  -23.3868  -14.9507   24.1482 C   0  0  0  0  0  0  0  0  0  0  0  0
  -21.2300  -15.7303   26.6754 C   0  0  0  0  0  0  0  0  0  0  0  0
  -22.9240  -28.7372   24.8522 C   0  0  0  0  0  0  0  0  0  0  0  0
  -26.2564  -11.2732   19.7494 C   0  0  0  0  0  0  0  0  0  0  0  0
  -25.5219  -17.7570   23.0622 C   0  0  0  0  0  0  0  0  0  0  0  0
  -22.6332  -17.1267   23.1173 C   0  0  0  0  0  0  0  0  0  0  0  0
  -24.9902  -11.9059   20.3209 C   0  0  0  0  0  0  0  0  0  0  0  0
  -25.4046  -31.0548   23.7789 C   0  0  0  0  0  0  0  0  0  0  0  0
  -24.6911  -13.2277   19.6208 C   0  0  0  0  0  0  0  0  0  0  0  0
  -26.0086  -30.3955   22.5378 C   0  0  0  0  0  0  0  0  0  0  0  0
  -20.0066  -24.1227   22.1844 C   0  0  0  0  0  0  0  0  0  0  0  0
  -25.0408  -30.0239   24.8451 C   0  0  0  0  0  0  0  0  0  0  0  0
  -24.7757  -28.2690   23.1352 C   0  0  0  0  0  0  0  0  0  0  0  0
  -20.6331  -25.5053   22.4708 C   0  0  1  0  0  0  0  0  0  0  0  0
  -25.8263  -14.2357   19.8370 C   0  0  1  0  0  0  0  0  0  0  0  0
  -25.0081  -16.3298   22.8995 C   0  0  1  0  0  0  0  0  0  0  0  0
  -25.1071  -29.2635   22.0094 C   0  0  2  0  0  0  0  0  0  0  0  0
  -21.0331  -23.9200   21.0565 C   0  0  2  0  0  0  0  0  0  0  0  0
  -16.7698  -28.3492   20.7532 C   0  0  0  0  0  0  0  0  0  0  0  0
  -19.0693  -29.6642   24.9649 C   0  0  0  0  0  0  0  0  0  0  0  0
  -18.5411  -26.0512   20.4857 C   0  0  0  0  0  0  0  0  0  0  0  0
  -22.7080  -25.6660   19.2188 C   0  0  0  0  0  0  0  0  0  0  0  0
  -20.1255  -14.7387   28.6988 C   0  0  0  0  0  0  0  0  0  0  0  0
  -21.4543  -13.4277   22.3438 C   0  0  0  0  0  0  0  0  0  0  0  0
  -19.8795  -13.2670   24.2834 C   0  0  0  0  0  0  0  0  0  0  0  0
  -22.1317  -12.2028   24.4162 C   0  0  0  0  0  0  0  0  0  0  0  0
  -22.5041  -17.7001   28.4798 C   0  0  0  0  0  0  0  0  0  0  0  0
  -20.8542  -27.3739   24.7230 C   0  0  0  0  0  0  0  0  0  0  0  0
  -22.2063  -23.0166   21.3844 C   0  0  0  0  0  0  0  0  0  1  0  0
  -21.9427  -14.7217   24.5239 C   0  0  1  0  0  0  0  0  0  0  0  0
  -21.3197  -15.5220   28.1764 C   0  0  2  0  0  0  0  0  0  0  0  0
  -21.3612  -13.4301   23.8827 C   0  0  0  0  0  0  0  0  0  0  0  0
  -26.4868  -27.4887   20.9948 N   0  0  0  0  0  0  0  0  0  0  0  0
  -25.7206  -28.5761   20.8035 N   0  0  0  0  0  0  0  0  0  0  0  0
  -23.6710  -16.1424   23.4663 N   0  0  0  0  0  0  0  0  0  0  0  0
  -21.3546  -25.3318   21.2067 N   0  0  0  0  0  0  0  0  0  0  0  0
  -24.1837  -28.9791   24.2798 N   0  0  0  0  0  0  0  0  0  0  0  0
  -24.8528  -30.0036   19.1243 N   0  0  0  0  0  0  0  0  0  0  0  0
  -27.2604  -26.9841   16.7829 N   0  0  0  0  0  0  0  0  0  0  0  0
  -25.7425  -14.8149   21.1607 N   0  0  0  0  0  0  0  0  0  0  0  0
  -21.8925  -14.7397   25.9819 N   0  0  0  0  0  0  0  0  0  0  0  0
  -22.1728  -27.7343   24.2516 N   0  0  0  0  0  0  0  0  0  0  0  0
  -21.3645  -16.8351   28.8798 N   0  3  0  0  0  0  0  0  0  0  0  0
  -25.9467  -28.8558   16.6098 O   0  0  0  0  0  0  0  0  0  0  0  0
  -24.2096  -16.5019   20.6842 O   0  0  0  0  0  0  0  0  0  0  0  0
  -22.2696  -27.3992   20.7951 O   0  0  0  0  0  0  0  0  0  0  0  0
  -24.2326  -14.1068   24.4548 O   0  0  0  0  0  0  0  0  0  0  0  0
  -20.6289  -16.6751   26.1688 O   0  0  0  0  0  0  0  0  0  0  0  0
  -22.4979  -29.3719   25.8231 O   0  0  0  0  0  0  0  0  0  0  0  0
  -30.1372  -22.7095   18.9013 O   0  0  0  0  0  0  0  0  0  0  0  0
  -21.7053  -21.7269   21.7334 O   0  0  0  0  0  0  0  0  0  1  0  0
  -28.9389  -18.0743   21.6367 F   0  0  0  0  0  0  0  0  0  0  0  0
  -30.1212  -22.6576   21.6653 F   0  0  0  0  0  0  0  0  0  0  0  0
  1  2  1  0  0  0  0
  1  5  2  0  0  0  0
  2  6  2  0  0  0  0
  3  8  2  0  0  0  0
  3 16  1  0  0  0  0
  4  9  1  0  0  0  0
  4 16  2  0  0  0  0
  5 18  1  0  0  0  0
  6 20  1  0  0  0  0
  7 10  2  0  0  0  0
  7 19  1  0  0  0  0
  8 27  1  0  0  0  0
  9 27  2  0  0  0  0
 10 28  1  0  0  0  0
 11 12  2  0  0  0  0
 11 29  1  0  0  0  0
 12 30  1  0  0  0  0
 13 21  1  0  0  0  0
 13 28  2  0  0  0  0
 14 23  1  0  0  0  0
 14 24  2  0  0  0  0
 15 30  2  0  0  0  0
 15 31  1  0  0  0  0
 16 32  1  0  0  0  0
 17 32  1  0  0  0  0
 17 33  2  0  0  0  0
 17 34  1  0  0  0  0
 18 20  2  0  0  0  0
 18 40  1  0  0  0  0
 19 21  2  0  0  0  0
 19 41  1  0  0  0  0
 20 51  1  0  0  0  0
 21 42  1  0  0  0  0
 22 25  1  0  0  0  0
 22 26  2  0  0  0  0
 22 50  1  0  0  0  0
 23 25  2  0  0  0  0
 23 55  1  0  0  0  0
 24 26  1  0  0  0  0
 24 56  1  0  0  0  0
 25 57  1  0  0  0  0
 26 64  1  0  0  0  0
 27 86  1  0  0  0  0
 28 87  1  0  0  0  0
 29 31  2  0  0  0  0
 29 86  1  0  0  0  0
 30 88  1  0  0  0  0
 31 89  1  0  0  0  0
 32 69  2  0  0  0  0
 33 70  1  0  0  0  0
 33 74  1  0  0  0  0
 34 75  1  0  0  0  0
 34 80  2  0  0  0  0
 35 52  1  0  0  0  0
 35 76  1  0  0  0  0
 35 81  2  0  0  0  0
 36 58  1  0  0  0  0
 36 72  1  0  0  0  0
 36 82  2  0  0  0  0
 37 66  1  0  0  0  0
 37 71  1  0  0  0  0
 37 83  2  0  0  0  0
 38 67  1  0  0  0  0
 38 77  1  0  0  0  0
 38 84  2  0  0  0  0
 39 73  1  0  0  0  0
 39 78  1  0  0  0  0
 39 85  2  0  0  0  0
 40 43  1  0  0  0  0
 41 52  1  0  0  0  0
 42 71  1  0  0  0  0
 43 45  1  0  0  0  0
 44 46  1  0  0  0  0
 44 48  1  0  0  0  0
 45 51  1  0  0  0  0
 46 53  1  0  0  0  0
 47 50  1  0  0  0  0
 47 54  1  0  0  0  0
 48 73  1  0  0  0  0
 49 53  1  0  0  0  0
 49 73  1  0  0  0  0
 50 72  1  0  0  0  0
 51 76  1  0  0  0  0
 52 71  1  0  0  0  0
 53 70  1  0  0  0  0
 54 65  1  0  0  0  0
 54 72  1  0  0  0  0
 59 67  1  0  0  0  0
 60 68  1  0  0  0  0
 61 68  1  0  0  0  0
 62 68  1  0  0  0  0
 63 79  1  0  0  0  0
 64 78  1  0  0  0  0
 65 87  1  0  0  0  0
 66 68  1  0  0  0  0
 66 77  1  0  0  0  0
 67 79  1  0  0  0  0
 69 70  1  0  0  0  0
M  CHG  1  79   1
M  ISO  4  39 100  65 101  78 100  87 101
M  END
> <Batch ID>
0171

> <Smiles>
CNC(C)C(=O)NC(C(=O)N1Cc2cc([101O:1][101CH2:1]C3CC(c4c(C)c(C)cc(C)c4C[100NH:0][100C:0](=O)N4CCCC(n5nc(-c6ccc(Oc7ccc(F)cc7F)cc6)c(C(N)=O)c5N)C4)N3C(C)=O)ccc2CC1C(=O)NC1CCCc2ccccc21)C(C)(C)C

> <Shape>
0.242

> <Color>
0.061

> <Negative vol penalty>
0.000

$$$$

  -OEChem-04052322373D

 84 92  0     1  0  0  0  0  0999 V2000
  -27.7514  -35.3254   24.1516 C   0  0  0  0  0  0  0  0  0  0  0  0
  -28.0193  -34.0030   23.8129 C   0  0  0  0  0  0  0  0  0  0  0  0
  -26.3634  -13.9141   22.9145 C   0  0  0  0  0  0  0  0  0  0  0  0
  -25.4301  -13.8663   20.6865 C   0  0  0  0  0  0  0  0  0  0  0  0
  -26.4721  -35.6918   24.5677 C   0  0  0  0  0  0  0  0  0  0  0  0
  -27.0083  -33.0458   23.8911 C   0  0  0  0  0  0  0  0  0  0  0  0
  -26.8896  -30.0097   19.8398 C   0  0  0  0  0  0  0  0  0  0  0  0
  -25.5476  -12.8432   23.2792 C   0  0  0  0  0  0  0  0  0  0  0  0
  -24.6143  -12.7953   21.0513 C   0  0  0  0  0  0  0  0  0  0  0  0
  -27.8394  -28.9910   19.7796 C   0  0  0  0  0  0  0  0  0  0  0  0
  -24.9296   -9.4573   21.4743 C   0  0  0  0  0  0  0  0  0  0  0  0
  -24.8378   -8.3835   20.5888 C   0  0  0  0  0  0  0  0  0  0  0  0
  -26.1863  -27.4123   20.5505 C   0  0  0  0  0  0  0  0  0  0  0  0
  -22.4554   -8.7396   20.4037 C   0  0  0  0  0  0  0  0  0  0  0  0
  -26.3047  -14.4257   21.6181 C   0  0  0  0  0  0  0  0  0  0  0  0
  -28.4442  -15.4670   20.6985 C   0  0  0  0  0  0  0  0  0  0  0  0
  -25.4424  -34.7405   24.6418 C   0  0  0  0  0  0  0  0  0  0  0  0
  -25.5816  -29.7391   20.2670 C   0  0  0  0  0  0  0  0  0  0  0  0
  -25.7144  -33.3996   24.3099 C   0  0  0  0  0  0  0  0  0  0  0  0
  -25.2211  -28.4289   20.6129 C   0  0  0  0  0  0  0  0  0  0  0  0
  -24.6731  -12.2837   22.3477 C   0  0  0  0  0  0  0  0  0  0  0  0
  -27.4887  -27.6926   20.1377 C   0  0  0  0  0  0  0  0  0  0  0  0
  -23.7842  -10.1722   21.8246 C   0  0  0  0  0  0  0  0  0  0  0  0
  -23.6008   -8.0246   20.0535 C   0  0  0  0  0  0  0  0  0  0  0  0
  -22.5471   -9.8134   21.2893 C   0  0  0  0  0  0  0  0  0  0  0  0
  -27.1468  -15.5324   21.2408 C   0  0  0  0  0  0  0  0  0  0  0  0
  -29.0289  -23.2283   17.9087 C   0  0  0  0  0  0  0  0  0  0  0  0
  -28.8563  -24.5816   18.0988 C   0  0  0  0  0  0  0  0  0  0  0  0
  -26.7496  -24.4363   17.2210 C   0  0  0  0  0  0  0  0  0  0  0  0
  -26.9225  -23.0831   17.0302 C   0  0  0  0  0  0  0  0  0  0  0  0
  -28.8071  -16.7793   20.5174 C   0  0  0  0  0  0  0  0  0  0  0  0
  -29.2494  -14.3225   20.3863 C   0  0  0  0  0  0  0  0  0  0  0  0
  -23.7672  -30.7094   22.6898 C   0  0  0  0  0  0  0  0  0  0  0  0
  -21.4781  -29.0040   21.1492 C   0  0  0  0  0  0  0  0  0  0  0  0
  -20.7102  -26.4849   18.9786 C   0  0  0  0  0  0  0  0  0  0  0  0
  -25.6567  -21.8086   19.7227 C   0  0  0  0  0  0  0  0  0  0  0  0
  -24.0876  -35.1748   25.1425 C   0  0  0  0  0  0  0  0  0  0  0  0
  -24.5616  -30.8440   20.3009 C   0  0  0  0  0  0  0  0  0  0  0  0
  -23.8249  -28.0821   21.0587 C   0  0  0  0  0  0  0  0  0  0  0  0
  -22.9764  -34.1730   24.8392 C   0  0  0  0  0  0  0  0  0  0  0  0
  -28.0366  -21.1562   22.2893 C   0  0  0  0  0  0  0  0  0  0  0  0
  -23.4223  -32.7579   25.1932 C   0  0  0  0  0  0  0  0  0  0  0  0
  -28.1954  -19.6350   22.2627 C   0  0  0  0  0  0  0  0  0  0  0  0
  -26.5972  -21.5784   22.0028 C   0  0  0  0  0  0  0  0  0  0  0  0
  -26.1852  -19.5070   20.7326 C   0  0  0  0  0  0  0  0  0  0  0  0
  -24.6377  -32.3372   24.3582 C   0  0  1  0  0  0  0  0  0  0  0  0
  -23.3967  -30.5531   21.2421 C   0  0  1  0  0  0  0  0  0  0  0  0
  -27.6314  -19.0350   20.9607 C   0  0  2  0  0  0  0  0  0  0  0  0
  -30.2977  -22.5451   18.2891 C   0  0  0  0  0  0  0  0  0  0  0  0
  -25.6159  -26.6400   16.8399 C   0  0  0  0  0  0  0  0  0  0  0  0
  -18.7523  -25.3020   17.9468 C   0  0  0  0  0  0  0  0  0  0  0  0
  -20.9967  -27.5189   23.7707 C   0  0  0  0  0  0  0  0  0  0  0  0
  -19.7640  -25.7689   22.4723 C   0  0  0  0  0  0  0  0  0  0  0  0
  -18.9190  -28.1156   22.5132 C   0  0  0  0  0  0  0  0  0  0  0  0
  -21.5344  -27.2609   16.2441 C   0  0  0  0  0  0  0  0  0  0  0  0
  -25.4805  -25.1191   16.8408 C   0  0  0  0  0  0  0  0  0  0  0  0
  -25.8484  -22.2388   16.4342 C   0  0  0  0  0  0  0  0  0  0  0  0
  -29.9446  -25.4367   18.7011 C   0  0  0  0  0  0  0  0  0  0  0  0
  -24.7312  -21.8776   17.4210 C   0  0  0  0  0  0  0  0  0  0  0  0
  -29.4418  -26.8204   19.0982 C   0  0  0  0  0  0  0  0  0  1  0  0
  -21.0032  -27.5715   21.1894 C   0  0  1  0  0  0  0  0  0  0  0  0
  -19.7616  -26.4294   17.7948 C   0  0  2  0  0  0  0  0  0  0  0  0
  -20.1976  -27.2503   22.4799 C   0  0  0  0  0  0  0  0  0  0  0  0
  -26.7146  -16.7869   21.3943 N   0  0  0  0  0  0  0  0  0  0  0  0
  -28.0651  -22.4547   17.3709 N   0  0  0  0  0  0  0  0  0  0  0  0
  -27.7136  -25.2099   17.7584 N   0  0  0  0  0  0  0  0  0  0  0  0
  -27.7464  -17.5219   20.9459 N   0  0  0  0  0  0  0  0  0  0  0  0
  -22.8650  -29.1982   21.0813 N   0  0  0  0  0  0  0  0  0  0  0  0
  -26.1231  -20.9769   20.7541 N   0  0  0  0  0  0  0  0  0  0  0  0
  -29.9269  -17.3588   20.0351 N   0  0  0  0  0  0  0  0  0  0  0  0
  -28.7232  -13.0475   20.6350 N   0  0  0  0  0  0  0  0  0  0  0  0
  -24.2284  -31.9696   23.0196 N   0  0  0  0  0  0  0  0  0  0  0  0
  -20.2619  -27.3523   19.9522 N   0  0  0  0  0  0  0  0  0  0  0  0
  -25.2318  -21.1579   18.5709 N   0  0  0  0  0  0  0  0  0  0  0  0
  -20.5218  -26.2125   16.5315 N   0  3  0  0  0  0  0  0  0  0  0  0
  -30.4077  -14.4277   19.9165 O   0  0  0  0  0  0  0  0  0  0  0  0
  -23.6424  -29.7577   23.4516 O   0  0  0  0  0  0  0  0  0  0  0  0
  -20.6487  -29.9168   21.1697 O   0  0  0  0  0  0  0  0  0  0  0  0
  -21.7436  -25.8219   19.0358 O   0  0  0  0  0  0  0  0  0  0  0  0
  -25.6265  -23.0402   19.8191 O   0  0  0  0  0  0  0  0  0  0  0  0
  -23.8770  -11.2386   22.7032 O   0  0  0  0  0  0  0  0  0  0  0  0
  -28.4141  -26.6965   20.0804 O   0  0  0  0  0  0  0  0  0  1  0  0
  -23.5131   -6.9944   19.2020 F   0  0  0  0  0  0  0  0  0  0  0  0
  -21.4434  -10.4972   21.6211 F   0  0  0  0  0  0  0  0  0  0  0  0
  1  2  1  0  0  0  0
  1  5  2  0  0  0  0
  2  6  2  0  0  0  0
  3  8  2  0  0  0  0
  3 15  1  0  0  0  0
  4  9  1  0  0  0  0
  4 15  2  0  0  0  0
  5 17  1  0  0  0  0
  6 19  1  0  0  0  0
  7 10  2  0  0  0  0
  7 18  1  0  0  0  0
  8 21  1  0  0  0  0
  9 21  2  0  0  0  0
 10 22  1  0  0  0  0
 11 12  2  0  0  0  0
 11 23  1  0  0  0  0
 12 24  1  0  0  0  0
 13 20  1  0  0  0  0
 13 22  2  0  0  0  0
 14 24  2  0  0  0  0
 14 25  1  0  0  0  0
 15 26  1  0  0  0  0
 16 26  1  0  0  0  0
 16 31  2  0  0  0  0
 16 32  1  0  0  0  0
 17 19  2  0  0  0  0
 17 37  1  0  0  0  0
 18 20  2  0  0  0  0
 18 38  1  0  0  0  0
 19 46  1  0  0  0  0
 20 39  1  0  0  0  0
 21 81  1  0  0  0  0
 22 82  1  0  0  0  0
 23 25  2  0  0  0  0
 23 81  1  0  0  0  0
 24 83  1  0  0  0  0
 25 84  1  0  0  0  0
 26 64  2  0  0  0  0
 27 28  1  0  0  0  0
 27 49  1  0  0  0  0
 27 65  2  0  0  0  0
 28 58  1  0  0  0  0
 28 66  2  0  0  0  0
 29 30  2  0  0  0  0
 29 56  1  0  0  0  0
 29 66  1  0  0  0  0
 30 57  1  0  0  0  0
 30 65  1  0  0  0  0
 31 67  1  0  0  0  0
 31 70  1  0  0  0  0
 32 71  1  0  0  0  0
 32 76  2  0  0  0  0
 33 47  1  0  0  0  0
 33 72  1  0  0  0  0
 33 77  2  0  0  0  0
 34 61  1  0  0  0  0
 34 68  1  0  0  0  0
 34 78  2  0  0  0  0
 35 62  1  0  0  0  0
 35 73  1  0  0  0  0
 35 79  2  0  0  0  0
 36 69  1  0  0  0  0
 36 74  1  0  0  0  0
 36 80  2  0  0  0  0
 37 40  1  0  0  0  0
 38 47  1  0  0  0  0
 39 68  1  0  0  0  0
 40 42  1  0  0  0  0
 41 43  1  0  0  0  0
 41 44  1  0  0  0  0
 42 46  1  0  0  0  0
 43 48  1  0  0  0  0
 44 69  1  0  0  0  0
 45 48  1  0  0  0  0
 45 69  1  0  0  0  0
 46 72  1  0  0  0  0
 47 68  1  0  0  0  0
 48 67  1  0  0  0  0
 50 56  1  0  0  0  0
 51 62  1  0  0  0  0
 52 63  1  0  0  0  0
 53 63  1  0  0  0  0
 54 63  1  0  0  0  0
 55 75  1  0  0  0  0
 57 59  1  0  0  0  0
 58 60  1  0  0  0  0
 59 74  1  0  0  0  0
 60 82  1  0  0  0  0
 61 63  1  0  0  0  0
 61 73  1  0  0  0  0
 62 75  1  0  0  0  0
 64 67  1  0  0  0  0
M  CHG  1  75   1
M  ISO  4  36 100  60 101  74 100  82 101
M  END
> <Batch ID>
0171

> <Smiles>
CCc1nc(C[101CH2:1][101O:1]c2ccc3c(c2)CN(C(=O)C(NC(=O)C(C)NC)C(C)(C)C)C(C(=O)NC2CCCc4ccccc42)C3)c(C)nc1CC[100NH:0][100C:0](=O)N1CCCC(n2nc(-c3ccc(Oc4ccc(F)cc4F)cc3)c(C(N)=O)c2N)C1

> <Shape>
0.286

> <Color>
0.080

> <Negative vol penalty>
0.000

$$$$

  -OEChem-04052322373D

 88 98  0     1  0  0  0  0  0999 V2000
  -29.6339  -33.9442   27.0070 C   0  0  0  0  0  0  0  0  0  0  0  0
  -29.3077  -32.8974   26.1506 C   0  0  0  0  0  0  0  0  0  0  0  0
  -24.6949   -8.7376   21.7824 C   0  0  0  0  0  0  0  0  0  0  0  0
  -23.4941   -9.6172   19.8794 C   0  0  0  0  0  0  0  0  0  0  0  0
  -28.6387  -34.8105   27.4577 C   0  0  0  0  0  0  0  0  0  0  0  0
  -27.9860  -32.7158   25.7453 C   0  0  0  0  0  0  0  0  0  0  0  0
  -27.5863  -31.7829   20.7839 C   0  0  0  0  0  0  0  0  0  0  0  0
  -23.6426   -7.8592   22.0404 C   0  0  0  0  0  0  0  0  0  0  0  0
  -22.4418   -8.7387   20.1373 C   0  0  0  0  0  0  0  0  0  0  0  0
  -27.8885  -30.4921   20.3523 C   0  0  0  0  0  0  0  0  0  0  0  0
  -22.5020   -4.9150   20.8306 C   0  0  0  0  0  0  0  0  0  0  0  0
  -22.8213   -3.5891   21.1231 C   0  0  0  0  0  0  0  0  0  0  0  0
  -25.5334  -29.9772   20.2628 C   0  0  0  0  0  0  0  0  0  0  0  0
  -21.7488   -3.8060   23.2771 C   0  0  0  0  0  0  0  0  0  0  0  0
  -24.6207   -9.6167   20.7019 C   0  0  0  0  0  0  0  0  0  0  0  0
  -26.8296  -10.2907   19.6185 C   0  0  0  0  0  0  0  0  0  0  0  0
  -27.3057  -34.6451   27.0499 C   0  0  0  0  0  0  0  0  0  0  0  0
  -26.2535  -32.1778   20.9689 C   0  0  0  0  0  0  0  0  0  0  0  0
  -26.9718  -33.5799   26.1919 C   0  0  0  0  0  0  0  0  0  0  0  0
  -25.2169  -31.2744   20.6943 C   0  0  0  0  0  0  0  0  0  0  0  0
  -22.5161   -7.8597   21.2179 C   0  0  0  0  0  0  0  0  0  0  0  0
  -26.8621  -29.5881   20.0945 C   0  0  0  0  0  0  0  0  0  0  0  0
  -21.8062   -5.6865   21.7614 C   0  0  0  0  0  0  0  0  0  0  0  0
  -22.4447   -3.0346   22.3463 C   0  0  0  0  0  0  0  0  0  0  0  0
  -21.4296   -5.1320   22.9846 C   0  0  0  0  0  0  0  0  0  0  0  0
  -28.4450  -25.5414   19.8742 C   0  0  0  0  0  0  0  0  0  0  0  0
  -25.7071  -10.5248   20.4352 C   0  0  0  0  0  0  0  0  0  0  0  0
  -28.6620  -26.5989   19.0146 C   0  0  0  0  0  0  0  0  0  0  0  0
  -28.5866  -24.2846   19.3223 C   0  0  0  0  0  0  0  0  0  0  0  0
  -27.5580  -11.4527   19.6948 C   0  0  0  0  0  0  0  0  0  0  0  0
  -29.1004  -25.1773   17.2959 C   0  0  0  0  0  0  0  0  0  0  0  0
  -27.1824   -9.1271   18.8587 C   0  0  0  0  0  0  0  0  0  0  0  0
  -24.5285  -33.1579   23.4524 C   0  0  0  0  0  0  0  0  0  0  0  0
  -22.2611  -33.6514   21.1858 C   0  0  0  0  0  0  0  0  0  0  0  0
  -21.0320  -32.8711   18.0992 C   0  0  0  0  0  0  0  0  0  0  0  0
  -28.0181  -16.8140   19.6339 C   0  0  0  0  0  0  0  0  0  0  0  0
  -26.2569  -35.5784   27.6010 C   0  0  0  0  0  0  0  0  0  0  0  0
  -25.9433  -33.5822   21.4093 C   0  0  0  0  0  0  0  0  0  0  0  0
  -23.7689  -31.6553   20.8578 C   0  0  0  0  0  0  0  0  0  0  0  0
  -24.9419  -35.5424   26.8265 C   0  0  0  0  0  0  0  0  0  0  0  0
  -27.1009  -15.4448   22.7528 C   0  0  0  0  0  0  0  0  0  0  0  0
  -24.5154  -34.1014   26.5656 C   0  0  0  0  0  0  0  0  0  0  0  0
  -26.7359  -14.0136   22.3613 C   0  0  0  0  0  0  0  0  0  0  0  0
  -27.2681  -20.0426   21.3226 C   0  0  0  0  0  0  0  0  0  0  0  0
  -29.9467  -21.4007   19.4740 C   0  0  0  0  0  0  0  0  0  0  0  0
  -26.6200  -16.4634   21.7179 C   0  0  0  0  0  0  0  0  0  0  0  0
  -26.9164  -18.9968   20.2728 C   0  0  0  0  0  0  0  0  0  0  0  0
  -29.1473  -18.9603   19.2046 C   0  0  0  0  0  0  0  0  0  0  0  0
  -26.7008  -14.7392   19.9456 C   0  0  0  0  0  0  0  0  0  0  0  0
  -25.5534  -33.3650   25.7102 C   0  0  1  0  0  0  0  0  0  0  0  0
  -24.5688  -33.7152   22.0576 C   0  0  1  0  0  0  0  0  0  0  0  0
  -28.5069  -20.8384   20.9444 C   0  0  1  0  0  0  0  0  0  0  0  0
  -29.6057  -20.0509   20.1671 C   0  0  2  0  0  0  0  0  0  0  0  0
  -27.2250  -13.6906   20.9385 C   0  0  2  0  0  0  0  0  0  0  0  0
  -28.4825  -21.8283   19.7470 C   0  0  1  0  0  0  0  0  0  0  0  0
  -29.4627  -24.9757   15.8636 C   0  0  0  0  0  0  0  0  0  0  0  0
  -19.1440  -33.4106   16.5366 C   0  0  0  0  0  0  0  0  0  0  0  0
  -20.3773  -31.9491   22.8780 C   0  0  0  0  0  0  0  0  0  0  0  0
  -18.8870  -31.7343   20.8777 C   0  0  0  0  0  0  0  0  0  0  0  0
  -19.3247  -33.9811   21.8693 C   0  0  0  0  0  0  0  0  0  0  0  0
  -22.8848  -33.8775   16.0223 C   0  0  0  0  0  0  0  0  0  0  0  0
  -28.5333  -27.9974   19.5175 C   0  0  0  0  0  0  0  0  0  1  0  0
  -21.1597  -32.8182   20.5761 C   0  0  1  0  0  0  0  0  0  0  0  0
  -20.5689  -33.7464   16.9486 C   0  0  2  0  0  0  0  0  0  0  0  0
  -19.9644  -32.6126   21.5489 C   0  0  0  0  0  0  0  0  0  0  0  0
  -25.7173  -11.7398   20.9898 N   0  0  0  0  0  0  0  0  0  0  0  0
  -28.9924  -26.4526   17.7147 N   0  0  0  0  0  0  0  0  0  0  0  0
  -28.9144  -24.0651   18.0321 N   0  0  0  0  0  0  0  0  0  0  0  0
  -26.8551  -12.2797   20.5208 N   0  0  0  0  0  0  0  0  0  0  0  0
  -23.5170  -33.0379   21.2966 N   0  0  0  0  0  0  0  0  0  0  0  0
  -27.0674  -16.0923   20.3702 N   0  0  0  0  0  0  0  0  0  0  0  0
  -28.0858  -18.2009   19.8623 N   0  0  0  0  0  0  0  0  0  0  0  0
  -28.7249  -11.8374   19.1355 N   0  0  0  0  0  0  0  0  0  0  0  0
  -26.3217   -8.0215   18.8917 N   0  0  0  0  0  0  0  0  0  0  0  0
  -28.3763  -23.1830   20.1586 N   0  0  0  0  0  0  0  0  0  0  0  0
  -25.4269  -33.7485   24.3204 N   0  0  0  0  0  0  0  0  0  0  0  0
  -20.8029  -33.4692   19.3202 N   0  0  0  0  0  0  0  0  0  0  0  0
  -21.4564  -33.5599   15.7660 N   0  3  0  0  0  0  0  0  0  0  0  0
  -28.2379   -9.0635   18.1840 O   0  0  0  0  0  0  0  0  0  0  0  0
  -23.7397  -32.2595   23.7215 O   0  0  0  0  0  0  0  0  0  0  0  0
  -22.0179  -34.8066   21.5437 O   0  0  0  0  0  0  0  0  0  0  0  0
  -21.5423  -31.7656   17.9316 O   0  0  0  0  0  0  0  0  0  0  0  0
  -28.7593  -16.2557   18.8150 O   0  0  0  0  0  0  0  0  0  0  0  0
  -21.4892   -7.0025   21.4692 O   0  0  0  0  0  0  0  0  0  0  0  0
  -27.1563  -28.3186   19.6709 O   0  0  0  0  0  0  0  0  0  1  0  0
  -22.7501   -1.7608   22.6264 F   0  0  0  0  0  0  0  0  0  0  0  0
  -20.7599   -5.8678   23.8824 F   0  0  0  0  0  0  0  0  0  0  0  0
  -28.1190  -25.7271   21.1587 F   0  0  0  0  0  0  0  0  0  0  0  0
  1  2  1  0  0  0  0
  1  5  2  0  0  0  0
  2  6  2  0  0  0  0
  3  8  2  0  0  0  0
  3 15  1  0  0  0  0
  4  9  1  0  0  0  0
  4 15  2  0  0  0  0
  5 17  1  0  0  0  0
  6 19  1  0  0  0  0
  7 10  2  0  0  0  0
  7 18  1  0  0  0  0
  8 21  1  0  0  0  0
  9 21  2  0  0  0  0
 10 22  1  0  0  0  0
 11 12  2  0  0  0  0
 11 23  1  0  0  0  0
 12 24  1  0  0  0  0
 13 20  1  0  0  0  0
 13 22  2  0  0  0  0
 14 24  2  0  0  0  0
 14 25  1  0  0  0  0
 15 27  1  0  0  0  0
 16 27  1  0  0  0  0
 16 30  2  0  0  0  0
 16 32  1  0  0  0  0
 17 19  2  0  0  0  0
 17 37  1  0  0  0  0
 18 20  2  0  0  0  0
 18 38  1  0  0  0  0
 19 50  1  0  0  0  0
 20 39  1  0  0  0  0
 21 84  1  0  0  0  0
 22 85  1  0  0  0  0
 23 25  2  0  0  0  0
 23 84  1  0  0  0  0
 24 86  1  0  0  0  0
 25 87  1  0  0  0  0
 26 28  2  0  0  0  0
 26 29  1  0  0  0  0
 26 88  1  0  0  0  0
 27 66  2  0  0  0  0
 28 62  1  0  0  0  0
 28 67  1  0  0  0  0
 29 68  2  0  0  0  0
 29 75  1  0  0  0  0
 30 69  1  0  0  0  0
 30 73  1  0  0  0  0
 31 56  1  0  0  0  0
 31 67  2  0  0  0  0
 31 68  1  0  0  0  0
 32 74  1  0  0  0  0
 32 79  2  0  0  0  0
 33 51  1  0  0  0  0
 33 76  1  0  0  0  0
 33 80  2  0  0  0  0
 34 63  1  0  0  0  0
 34 70  1  0  0  0  0
 34 81  2  0  0  0  0
 35 64  1  0  0  0  0
 35 77  1  0  0  0  0
 35 82  2  0  0  0  0
 36 71  1  0  0  0  0
 36 72  1  0  0  0  0
 36 83  2  0  0  0  0
 37 40  1  0  0  0  0
 38 51  1  0  0  0  0
 39 70  1  0  0  0  0
 40 42  1  0  0  0  0
 41 43  1  0  0  0  0
 41 46  1  0  0  0  0
 42 50  1  0  0  0  0
 43 54  1  0  0  0  0
 44 47  1  0  0  0  0
 44 52  1  0  0  0  0
 45 53  1  0  0  0  0
 45 55  1  0  0  0  0
 46 71  1  0  0  0  0
 47 72  1  0  0  0  0
 48 53  1  0  0  0  0
 48 72  1  0  0  0  0
 49 54  1  0  0  0  0
 49 71  1  0  0  0  0
 50 76  1  0  0  0  0
 51 70  1  0  0  0  0
 52 53  1  0  0  0  0
 52 55  1  0  0  0  0
 54 69  1  0  0  0  0
 55 75  1  0  0  0  0
 57 64  1  0  0  0  0
 58 65  1  0  0  0  0
 59 65  1  0  0  0  0
 60 65  1  0  0  0  0
 61 78  1  0  0  0  0
 62 85  1  0  0  0  0
 63 65  1  0  0  0  0
 63 77  1  0  0  0  0
 64 78  1  0  0  0  0
 66 69  1  0  0  0  0
M  CHG  1  78   1
M  ISO  4  36 100  62 101  72 100  85 101
M  END
> <Batch ID>
0171

> <Smiles>
CNC(C)C(=O)NC(C(=O)N1Cc2cc([101O:1][101CH2:1]c3nc(C)nc(NC4CC5C[100N:0]([100C:0](=O)N6CCCC(n7nc(-c8ccc(Oc9ccc(F)cc9F)cc8)c(C(N)=O)c7N)C6)CCC54)c3F)ccc2CC1C(=O)NC1CCCc2ccccc21)C(C)(C)C

> <Shape>
0.262

> <Color>
0.085

> <Negative vol penalty>
0.000

$$$$

  -OEChem-04052322373D

 86 95  0     1  0  0  0  0  0999 V2000
  -18.8772  -24.4519   24.3373 C   0  0  0  0  0  0  0  0  0  0  0  0
  -20.1408  -24.2845   23.7797 C   0  0  0  0  0  0  0  0  0  0  0  0
  -23.6072  -14.0961   21.4109 C   0  0  0  0  0  0  0  0  0  0  0  0
  -26.0231  -14.1207   21.4158 C   0  0  0  0  0  0  0  0  0  0  0  0
  -18.2014  -25.6611   24.1793 C   0  0  0  0  0  0  0  0  0  0  0  0
  -20.7288  -25.3260   23.0628 C   0  0  0  0  0  0  0  0  0  0  0  0
  -26.6846  -26.7333   22.8318 C   0  0  0  0  0  0  0  0  0  0  0  0
  -23.6201  -12.7551   21.7944 C   0  0  0  0  0  0  0  0  0  0  0  0
  -26.0360  -12.7796   21.7994 C   0  0  0  0  0  0  0  0  0  0  0  0
  -27.6802  -26.4484   21.8984 C   0  0  0  0  0  0  0  0  0  0  0  0
  -24.1003   -9.7491   20.3254 C   0  0  0  0  0  0  0  0  0  0  0  0
  -23.2375   -8.8775   19.6609 C   0  0  0  0  0  0  0  0  0  0  0  0
  -27.3184  -28.5982   20.8654 C   0  0  0  0  0  0  0  0  0  0  0  0
  -27.6023  -25.2752   17.2273 C   0  0  0  0  0  0  0  0  0  0  0  0
  -22.1552   -8.3518   21.7560 C   0  0  0  0  0  0  0  0  0  0  0  0
  -24.8088  -14.7789   21.2215 C   0  0  0  0  0  0  0  0  0  0  0  0
  -24.7831  -17.2901   21.6693 C   0  0  0  0  0  0  0  0  0  0  0  0
  -18.7855  -26.7213   23.4684 C   0  0  0  0  0  0  0  0  0  0  0  0
  -25.9897  -27.9503   22.7824 C   0  0  0  0  0  0  0  0  0  0  0  0
  -20.0596  -26.5501   22.8940 C   0  0  0  0  0  0  0  0  0  0  0  0
  -26.3162  -28.8971   21.8010 C   0  0  0  0  0  0  0  0  0  0  0  0
  -29.7050  -24.2922   17.8975 C   0  0  0  0  0  0  0  0  0  0  0  0
  -28.9394  -25.4189   17.5975 C   0  0  0  0  0  0  0  0  0  0  0  0
  -27.0307  -24.0048   17.1573 C   0  0  0  0  0  0  0  0  0  0  0  0
  -29.1334  -23.0217   17.8275 C   0  0  0  0  0  0  0  0  0  0  0  0
  -27.7962  -22.8780   17.4573 C   0  0  0  0  0  0  0  0  0  0  0  0
  -24.8344  -12.0968   21.9887 C   0  0  0  0  0  0  0  0  0  0  0  0
  -27.9953  -27.3797   20.9132 C   0  0  0  0  0  0  0  0  0  0  0  0
  -23.9905   -9.9220   21.7052 C   0  0  0  0  0  0  0  0  0  0  0  0
  -22.2650   -8.1788   20.3762 C   0  0  0  0  0  0  0  0  0  0  0  0
  -23.0180   -9.2234   22.4204 C   0  0  0  0  0  0  0  0  0  0  0  0
  -24.7962  -16.1640   20.8247 C   0  0  0  0  0  0  0  0  0  0  0  0
  -24.7748  -18.3627   20.8114 C   0  0  0  0  0  0  0  0  0  0  0  0
  -24.7791  -17.3604   23.1014 C   0  0  0  0  0  0  0  0  0  0  0  0
  -22.9527  -28.7833   22.3507 C   0  0  0  0  0  0  0  0  0  0  0  0
  -24.0790  -31.7520   23.0146 C   0  0  0  0  0  0  0  0  0  0  0  0
  -26.7344  -33.8946   23.0849 C   0  0  0  0  0  0  0  0  0  0  0  0
  -26.6457  -20.9794   16.2666 C   0  0  0  0  0  0  0  0  0  0  0  0
  -17.9966  -27.9934   23.2838 C   0  0  0  0  0  0  0  0  0  0  0  0
  -24.9369  -28.2535   23.8129 C   0  0  0  0  0  0  0  0  0  0  0  0
  -25.6138  -30.2268   21.7171 C   0  0  0  0  0  0  0  0  0  0  0  0
  -18.8468  -29.1768   22.8289 C   0  0  0  0  0  0  0  0  0  0  0  0
  -24.0655  -18.5699   15.8039 C   0  0  0  0  0  0  0  0  0  0  0  0
  -32.0694  -25.1929   17.3759 C   0  0  0  0  0  0  0  0  0  0  0  0
  -32.1939  -23.7083   17.5201 C   0  0  0  0  0  0  0  0  0  0  0  0
  -19.7685  -28.7639   21.6857 C   0  0  0  0  0  0  0  0  0  0  0  0
  -24.0245  -17.8218   17.1383 C   0  0  0  0  0  0  0  0  0  0  0  0
  -25.4916  -18.9517   15.4113 C   0  0  0  0  0  0  0  0  0  0  0  0
  -26.2004  -18.9410   17.7707 C   0  0  0  0  0  0  0  0  0  0  0  0
  -31.1389  -24.4495   18.2942 C   0  0  0  0  0  0  0  0  0  0  0  0
  -20.7410  -27.6649   22.1306 C   0  0  1  0  0  0  0  0  0  0  0  0
  -23.9386  -29.3118   23.3539 C   0  0  1  0  0  0  0  0  0  0  0  0
  -24.7784  -18.5925   18.2398 C   0  0  2  0  0  0  0  0  0  0  0  0
  -25.5957  -23.8833   16.7577 C   0  0  0  0  0  0  0  0  0  0  0  0
  -29.6471  -21.2598   19.5358 C   0  0  0  0  0  0  0  0  0  0  0  0
  -29.5187  -27.4896   16.2904 C   0  0  0  0  0  0  0  0  0  0  0  0
  -27.3376  -36.2666   23.6392 C   0  0  0  0  0  0  0  0  0  0  0  0
  -22.8011  -32.6842   20.4054 C   0  0  0  0  0  0  0  0  0  0  0  0
  -24.2080  -34.7510   20.5359 C   0  0  0  0  0  0  0  0  0  0  0  0
  -22.5346  -34.2686   22.3219 C   0  0  0  0  0  0  0  0  0  0  0  0
  -28.6267  -33.0426   25.1949 C   0  0  0  0  0  0  0  0  0  0  0  0
  -29.9574  -21.8138   18.1501 C   0  0  0  0  0  0  0  0  0  0  0  0
  -28.8286  -27.6927   18.7078 C   0  0  0  0  0  0  0  0  0  1  0  0
  -29.5360  -26.8160   17.6654 C   0  0  1  0  0  0  0  0  0  0  0  0
  -24.6483  -32.8869   22.1979 C   0  0  1  0  0  0  0  0  0  0  0  0
  -27.2367  -34.8413   24.1600 C   0  0  2  0  0  0  0  0  0  0  0  0
  -23.5601  -33.6219   21.3654 C   0  0  0  0  0  0  0  0  0  0  0  0
  -24.7960  -16.4907   19.5296 N   0  0  0  0  0  0  0  0  0  0  0  0
  -24.7827  -17.8343   19.5541 N   0  0  0  0  0  0  0  0  0  0  0  0
  -24.5876  -30.4739   22.7435 N   0  0  0  0  0  0  0  0  0  0  0  0
  -26.1420  -19.6824   16.5012 N   0  0  0  0  0  0  0  0  0  0  0  0
  -24.7615  -19.6968   21.0175 N   0  0  0  0  0  0  0  0  0  0  0  0
  -24.7890  -16.1627   23.8291 N   0  0  0  0  0  0  0  0  0  0  0  0
  -27.2132  -21.5886   17.3852 N   0  0  0  0  0  0  0  0  0  0  0  0
  -21.8185  -28.2304   22.9140 N   0  0  0  0  0  0  0  0  0  0  0  0
  -25.3646  -33.7451   23.1352 N   0  0  0  0  0  0  0  0  0  0  0  0
  -28.5844  -34.4179   24.6347 N   0  3  0  0  0  0  0  0  0  0  0  0
  -24.7503  -18.4528   23.7173 O   0  0  0  0  0  0  0  0  0  0  0  0
  -23.2019  -28.8721   21.1542 O   0  0  0  0  0  0  0  0  0  0  0  0
  -23.2201  -31.9918   23.8669 O   0  0  0  0  0  0  0  0  0  0  0  0
  -27.4821  -33.3456   22.2785 O   0  0  0  0  0  0  0  0  0  0  0  0
  -26.5542  -21.5211   15.1620 O   0  0  0  0  0  0  0  0  0  0  0  0
  -24.8473  -10.7884   22.3632 O   0  0  0  0  0  0  0  0  0  0  0  0
  -28.9662  -27.1039   20.0004 O   0  0  0  0  0  0  0  0  0  1  0  0
  -21.4355   -7.3430   19.7378 F   0  0  0  0  0  0  0  0  0  0  0  0
  -22.9069   -9.3863   23.7459 F   0  0  0  0  0  0  0  0  0  0  0  0
  1  2  1  0  0  0  0
  1  5  2  0  0  0  0
  2  6  2  0  0  0  0
  3  8  2  0  0  0  0
  3 16  1  0  0  0  0
  4  9  1  0  0  0  0
  4 16  2  0  0  0  0
  5 18  1  0  0  0  0
  6 20  1  0  0  0  0
  7 10  2  0  0  0  0
  7 19  1  0  0  0  0
  8 27  1  0  0  0  0
  9 27  2  0  0  0  0
 10 28  1  0  0  0  0
 11 12  2  0  0  0  0
 11 29  1  0  0  0  0
 12 30  1  0  0  0  0
 13 21  1  0  0  0  0
 13 28  2  0  0  0  0
 14 23  2  0  0  0  0
 14 24  1  0  0  0  0
 15 30  2  0  0  0  0
 15 31  1  0  0  0  0
 16 32  1  0  0  0  0
 17 32  1  0  0  0  0
 17 33  2  0  0  0  0
 17 34  1  0  0  0  0
 18 20  2  0  0  0  0
 18 39  1  0  0  0  0
 19 21  2  0  0  0  0
 19 40  1  0  0  0  0
 20 51  1  0  0  0  0
 21 41  1  0  0  0  0
 22 23  1  0  0  0  0
 22 25  2  0  0  0  0
 22 50  1  0  0  0  0
 23 64  1  0  0  0  0
 24 26  2  0  0  0  0
 24 54  1  0  0  0  0
 25 26  1  0  0  0  0
 25 62  1  0  0  0  0
 26 74  1  0  0  0  0
 27 83  1  0  0  0  0
 28 84  1  0  0  0  0
 29 31  2  0  0  0  0
 29 83  1  0  0  0  0
 30 85  1  0  0  0  0
 31 86  1  0  0  0  0
 32 68  2  0  0  0  0
 33 69  1  0  0  0  0
 33 72  1  0  0  0  0
 34 73  1  0  0  0  0
 34 78  2  0  0  0  0
 35 52  1  0  0  0  0
 35 75  1  0  0  0  0
 35 79  2  0  0  0  0
 36 65  1  0  0  0  0
 36 70  1  0  0  0  0
 36 80  2  0  0  0  0
 37 66  1  0  0  0  0
 37 76  1  0  0  0  0
 37 81  2  0  0  0  0
 38 71  1  0  0  0  0
 38 74  1  0  0  0  0
 38 82  2  0  0  0  0
 39 42  1  0  0  0  0
 40 52  1  0  0  0  0
 41 70  1  0  0  0  0
 42 46  1  0  0  0  0
 43 47  1  0  0  0  0
 43 48  1  0  0  0  0
 44 45  1  0  0  0  0
 44 50  1  0  0  0  0
 45 50  1  0  0  0  0
 46 51  1  0  0  0  0
 47 53  1  0  0  0  0
 48 71  1  0  0  0  0
 49 53  1  0  0  0  0
 49 71  1  0  0  0  0
 51 75  1  0  0  0  0
 52 70  1  0  0  0  0
 53 69  1  0  0  0  0
 55 62  1  0  0  0  0
 56 64  1  0  0  0  0
 57 66  1  0  0  0  0
 58 67  1  0  0  0  0
 59 67  1  0  0  0  0
 60 67  1  0  0  0  0
 61 77  1  0  0  0  0
 63 64  1  0  0  0  0
 63 84  1  0  0  0  0
 65 67  1  0  0  0  0
 65 76  1  0  0  0  0
 66 77  1  0  0  0  0
 68 69  1  0  0  0  0
M  CHG  1  77   1
M  ISO  4  38 100  63 101  74 100  84 101
M  END
> <Batch ID>
0171

> <Smiles>
CCc1c([100NH:0][100C:0](=O)N2CCCC(n3nc(-c4ccc(Oc5ccc(F)cc5F)cc4)c(C(N)=O)c3N)C2)c(C)cc(C(C)[101CH2:1][101O:1]c2ccc3c(c2)CN(C(=O)C(NC(=O)C(C)NC)C(C)(C)C)C(C(=O)NC2CCCc4ccccc42)C3)c1C1CC1

> <Shape>
0.237

> <Color>
0.081

> <Negative vol penalty>
0.000

$$$$

  -OEChem-04052322373D

 87 96  0     1  0  0  0  0  0999 V2000
  -26.8699  -31.8062   27.2907 C   0  0  0  0  0  0  0  0  0  0  0  0
  -27.5146  -30.8041   26.5726 C   0  0  0  0  0  0  0  0  0  0  0  0
  -22.9124  -11.1657   20.9291 C   0  0  0  0  0  0  0  0  0  0  0  0
  -23.8638   -9.0154   21.4843 C   0  0  0  0  0  0  0  0  0  0  0  0
  -25.4975  -31.9989   27.1381 C   0  0  0  0  0  0  0  0  0  0  0  0
  -26.7869  -29.9933   25.7022 C   0  0  0  0  0  0  0  0  0  0  0  0
  -28.7132  -27.6382   20.3873 C   0  0  0  0  0  0  0  0  0  0  0  0
  -21.7120  -10.5454   20.5833 C   0  0  0  0  0  0  0  0  0  0  0  0
  -22.6633   -8.3950   21.1385 C   0  0  0  0  0  0  0  0  0  0  0  0
  -29.2089  -26.3814   20.0431 C   0  0  0  0  0  0  0  0  0  0  0  0
  -18.2795   -9.5645   19.8973 C   0  0  0  0  0  0  0  0  0  0  0  0
  -17.0955  -10.1415   20.3564 C   0  0  0  0  0  0  0  0  0  0  0  0
  -27.0031  -25.7132   19.3309 C   0  0  0  0  0  0  0  0  0  0  0  0
  -17.8341   -9.8425   22.6372 C   0  0  0  0  0  0  0  0  0  0  0  0
  -23.9884  -10.4008   21.3796 C   0  0  0  0  0  0  0  0  0  0  0  0
  -25.5988  -11.5314   23.0031 C   0  0  0  0  0  0  0  0  0  0  0  0
  -24.7543  -31.1963   26.2582 C   0  0  0  0  0  0  0  0  0  0  0  0
  -27.3543  -27.9388   20.2158 C   0  0  0  0  0  0  0  0  0  0  0  0
  -25.4030  -30.1746   25.5388 C   0  0  0  0  0  0  0  0  0  0  0  0
  -26.4932  -26.9755   19.6714 C   0  0  0  0  0  0  0  0  0  0  0  0
  -30.5750  -20.1949   19.2292 C   0  0  0  0  0  0  0  0  0  0  0  0
  -30.2309  -21.4635   19.6825 C   0  0  0  0  0  0  0  0  0  0  0  0
  -30.5801  -22.5818   18.9336 C   0  0  0  0  0  0  0  0  0  0  0  0
  -21.5874   -9.1600   20.6880 C   0  0  0  0  0  0  0  0  0  0  0  0
  -28.3532  -25.4177   19.5175 C   0  0  0  0  0  0  0  0  0  0  0  0
  -19.2408   -9.1263   20.8082 C   0  0  0  0  0  0  0  0  0  0  0  0
  -16.8728  -10.2806   21.7263 C   0  0  0  0  0  0  0  0  0  0  0  0
  -19.0181   -9.2654   22.1781 C   0  0  0  0  0  0  0  0  0  0  0  0
  -25.2289  -11.0410   21.7365 C   0  0  0  0  0  0  0  0  0  0  0  0
  -31.2627  -20.0991   18.0302 C   0  0  0  0  0  0  0  0  0  0  0  0
  -31.2678  -22.3791   17.7479 C   0  0  0  0  0  0  0  0  0  0  0  0
  -26.8608  -12.0412   22.8188 C   0  0  0  0  0  0  0  0  0  0  0  0
  -24.8671  -11.5265   24.2361 C   0  0  0  0  0  0  0  0  0  0  0  0
  -24.9715  -28.7404   22.1609 C   0  0  0  0  0  0  0  0  0  0  0  0
  -23.3519  -29.1376   19.3786 C   0  0  0  0  0  0  0  0  0  0  0  0
  -23.0372  -28.3534   16.0721 C   0  0  0  0  0  0  0  0  0  0  0  0
  -30.5934  -14.8721   19.9772 C   0  0  0  0  0  0  0  0  0  0  0  0
  -23.2646  -31.4114   26.1622 C   0  0  0  0  0  0  0  0  0  0  0  0
  -26.8406  -29.3082   20.5671 C   0  0  0  0  0  0  0  0  0  0  0  0
  -25.0301  -27.2550   19.4486 C   0  0  0  0  0  0  0  0  0  0  0  0
  -22.6320  -30.7540   24.9383 C   0  0  0  0  0  0  0  0  0  0  0  0
  -30.0559  -11.6223   18.9294 C   0  0  0  0  0  0  0  0  0  0  0  0
  -23.1345  -29.3223   24.7817 C   0  0  0  0  0  0  0  0  0  0  0  0
  -28.7823  -11.2087   19.6666 C   0  0  0  0  0  0  0  0  0  0  0  0
  -29.2545  -18.0321   19.2426 C   0  0  0  0  0  0  0  0  0  0  0  0
  -31.4515  -18.1800   20.4920 C   0  0  0  0  0  0  0  0  0  0  0  0
  -29.9514  -13.0557   18.4217 C   0  0  0  0  0  0  0  0  0  0  0  0
  -28.9132  -16.7680   20.0367 C   0  0  0  0  0  0  0  0  0  0  0  0
  -31.0484  -16.9322   21.2724 C   0  0  0  0  0  0  0  0  0  0  0  0
  -28.3841  -13.6551   20.2390 C   0  0  0  0  0  0  0  0  0  0  0  0
  -30.2071  -18.9556   20.0231 C   0  0  0  0  0  0  0  0  0  0  0  0
  -24.6524  -29.2908   24.5663 C   0  0  1  0  0  0  0  0  0  0  0  0
  -25.3380  -29.3334   20.8298 C   0  0  1  0  0  0  0  0  0  0  0  0
  -28.4381  -12.2124   20.7814 C   0  0  1  0  0  0  0  0  0  0  0  0
  -31.6593  -18.7634   17.4919 C   0  0  0  0  0  0  0  0  0  0  0  0
  -31.6723  -23.5415   16.9013 C   0  0  0  0  0  0  0  0  0  0  0  0
  -28.0093  -21.2896   20.8318 C   0  0  0  0  0  0  0  0  0  0  0  0
  -21.5939  -28.8043   14.0693 C   0  0  0  0  0  0  0  0  0  0  0  0
  -21.2142  -27.2725   20.5020 C   0  0  0  0  0  0  0  0  0  0  0  0
  -20.3222  -27.0083   18.1776 C   0  0  0  0  0  0  0  0  0  0  0  0
  -20.3234  -29.2541   19.2634 C   0  0  0  0  0  0  0  0  0  0  0  0
  -25.2954  -29.5318   14.5652 C   0  0  0  0  0  0  0  0  0  0  0  0
  -29.4902  -21.6252   20.9717 C   0  0  0  0  0  0  0  0  0  0  0  0
  -30.2254  -23.9564   19.3930 C   0  0  0  0  0  0  0  0  0  1  0  0
  -22.5116  -28.2481   18.4943 C   0  0  1  0  0  0  0  0  0  0  0  0
  -22.8326  -29.2240   14.8454 C   0  0  2  0  0  0  0  0  0  0  0  0
  -21.1200  -27.9395   19.1152 C   0  0  0  0  0  0  0  0  0  0  0  0
  -26.1790  -11.2230   20.8155 N   0  0  0  0  0  0  0  0  0  0  0  0
  -31.6193  -21.1623   17.2752 N   0  0  0  0  0  0  0  0  0  0  0  0
  -27.1583  -11.8336   21.5041 N   0  0  0  0  0  0  0  0  0  0  0  0
  -24.5743  -28.6065   19.8137 N   0  0  0  0  0  0  0  0  0  0  0  0
  -29.6199  -13.9770   19.5086 N   0  0  0  0  0  0  0  0  0  0  0  0
  -30.1375  -16.0948   20.4924 N   0  0  0  0  0  0  0  0  0  0  0  0
  -27.7338  -12.6425   23.6547 N   0  0  0  0  0  0  0  0  0  0  0  0
  -23.5839  -10.9630   24.2493 N   0  0  0  0  0  0  0  0  0  0  0  0
  -24.9768  -29.6488   23.2021 N   0  0  0  0  0  0  0  0  0  0  0  0
  -22.4529  -28.9047   17.1928 N   0  0  0  0  0  0  0  0  0  0  0  0
  -24.0111  -29.1261   13.9384 N   0  3  0  0  0  0  0  0  0  0  0  0
  -25.3308  -12.0223   25.2910 O   0  0  0  0  0  0  0  0  0  0  0  0
  -24.7023  -27.5474   22.2373 O   0  0  0  0  0  0  0  0  0  0  0  0
  -22.9420  -30.2648   19.6666 O   0  0  0  0  0  0  0  0  0  0  0  0
  -23.6504  -27.2888   16.0386 O   0  0  0  0  0  0  0  0  0  0  0  0
  -31.7989  -14.5956   19.9386 O   0  0  0  0  0  0  0  0  0  0  0  0
  -20.4161   -8.5544   20.3508 O   0  0  0  0  0  0  0  0  0  0  0  0
  -28.8376  -24.1814   19.1789 O   0  0  0  0  0  0  0  0  0  1  0  0
  -15.7364  -10.8361   22.1670 F   0  0  0  0  0  0  0  0  0  0  0  0
  -19.9384   -8.8475   23.0579 F   0  0  0  0  0  0  0  0  0  0  0  0
  1  2  1  0  0  0  0
  1  5  2  0  0  0  0
  2  6  2  0  0  0  0
  3  8  2  0  0  0  0
  3 15  1  0  0  0  0
  4  9  1  0  0  0  0
  4 15  2  0  0  0  0
  5 17  1  0  0  0  0
  6 19  1  0  0  0  0
  7 10  2  0  0  0  0
  7 18  1  0  0  0  0
  8 24  1  0  0  0  0
  9 24  2  0  0  0  0
 10 25  1  0  0  0  0
 11 12  2  0  0  0  0
 11 26  1  0  0  0  0
 12 27  1  0  0  0  0
 13 20  1  0  0  0  0
 13 25  2  0  0  0  0
 14 27  2  0  0  0  0
 14 28  1  0  0  0  0
 15 29  1  0  0  0  0
 16 29  1  0  0  0  0
 16 32  2  0  0  0  0
 16 33  1  0  0  0  0
 17 19  2  0  0  0  0
 17 38  1  0  0  0  0
 18 20  2  0  0  0  0
 18 39  1  0  0  0  0
 19 52  1  0  0  0  0
 20 40  1  0  0  0  0
 21 22  1  0  0  0  0
 21 30  2  0  0  0  0
 21 51  1  0  0  0  0
 22 23  2  0  0  0  0
 22 63  1  0  0  0  0
 23 31  1  0  0  0  0
 23 64  1  0  0  0  0
 24 84  1  0  0  0  0
 25 85  1  0  0  0  0
 26 28  2  0  0  0  0
 26 84  1  0  0  0  0
 27 86  1  0  0  0  0
 28 87  1  0  0  0  0
 29 68  2  0  0  0  0
 30 55  1  0  0  0  0
 30 69  1  0  0  0  0
 31 56  1  0  0  0  0
 31 69  2  0  0  0  0
 32 70  1  0  0  0  0
 32 74  1  0  0  0  0
 33 75  1  0  0  0  0
 33 79  2  0  0  0  0
 34 53  1  0  0  0  0
 34 76  1  0  0  0  0
 34 80  2  0  0  0  0
 35 65  1  0  0  0  0
 35 71  1  0  0  0  0
 35 81  2  0  0  0  0
 36 66  1  0  0  0  0
 36 77  1  0  0  0  0
 36 82  2  0  0  0  0
 37 72  1  0  0  0  0
 37 73  1  0  0  0  0
 37 83  2  0  0  0  0
 38 41  1  0  0  0  0
 39 53  1  0  0  0  0
 40 71  1  0  0  0  0
 41 43  1  0  0  0  0
 42 44  1  0  0  0  0
 42 47  1  0  0  0  0
 43 52  1  0  0  0  0
 44 54  1  0  0  0  0
 45 48  1  0  0  0  0
 45 51  1  0  0  0  0
 46 49  1  0  0  0  0
 46 51  1  0  0  0  0
 47 72  1  0  0  0  0
 48 73  1  0  0  0  0
 49 73  1  0  0  0  0
 50 54  1  0  0  0  0
 50 72  1  0  0  0  0
 52 76  1  0  0  0  0
 53 71  1  0  0  0  0
 54 70  1  0  0  0  0
 57 63  1  0  0  0  0
 58 66  1  0  0  0  0
 59 67  1  0  0  0  0
 60 67  1  0  0  0  0
 61 67  1  0  0  0  0
 62 78  1  0  0  0  0
 64 85  1  0  0  0  0
 65 67  1  0  0  0  0
 65 77  1  0  0  0  0
 66 78  1  0  0  0  0
 68 70  1  0  0  0  0
M  CHG  1  78   1
M  ISO  4  37 100  64 101  73 100  85 101
M  END
> <Batch ID>
0171

> <Smiles>
CCc1c(C2CC[100N:0]([100C:0](=O)N3CCCC(n4nc(-c5ccc(Oc6ccc(F)cc6F)cc5)c(C(N)=O)c4N)C3)CC2)c(C)nc(C)c1[101CH2:1][101O:1]c1ccc2c(c1)CN(C(=O)C(NC(=O)C(C)NC)C(C)(C)C)C(C(=O)NC1CCCc3ccccc31)C2

> <Shape>
0.273

> <Color>
0.088

> <Negative vol penalty>
0.000

$$$$

  -OEChem-04052322373D

 82 91  0     1  0  0  0  0  0999 V2000
  -28.2715  -35.0481   22.4570 C   0  0  0  0  0  0  0  0  0  0  0  0
  -28.7045  -34.0574   21.5816 C   0  0  0  0  0  0  0  0  0  0  0  0
  -23.0874   -9.8910   21.3470 C   0  0  0  0  0  0  0  0  0  0  0  0
  -23.9314  -10.6415   23.4827 C   0  0  0  0  0  0  0  0  0  0  0  0
  -27.7071  -34.6960   23.6824 C   0  0  0  0  0  0  0  0  0  0  0  0
  -28.5745  -32.7139   21.9315 C   0  0  0  0  0  0  0  0  0  0  0  0
  -27.3957  -26.2755   19.0205 C   0  0  0  0  0  0  0  0  0  0  0  0
  -22.3652   -8.8835   21.9864 C   0  0  0  0  0  0  0  0  0  0  0  0
  -23.2092   -9.6339   24.1222 C   0  0  0  0  0  0  0  0  0  0  0  0
  -27.9380  -24.9915   18.9904 C   0  0  0  0  0  0  0  0  0  0  0  0
  -20.5827   -5.8887   23.0246 C   0  0  0  0  0  0  0  0  0  0  0  0
  -20.6219   -4.6092   22.4707 C   0  0  0  0  0  0  0  0  0  0  0  0
  -28.7721  -18.5572   19.8143 C   0  0  0  0  0  0  0  0  0  0  0  0
  -26.8754  -24.4997   21.0995 C   0  0  0  0  0  0  0  0  0  0  0  0
  -23.0195   -4.5560   22.7632 C   0  0  0  0  0  0  0  0  0  0  0  0
  -23.8706  -10.7700   22.0952 C   0  0  0  0  0  0  0  0  0  0  0  0
  -24.1817  -13.1182   21.1481 C   0  0  0  0  0  0  0  0  0  0  0  0
  -27.5613  -33.3473   24.0433 C   0  0  0  0  0  0  0  0  0  0  0  0
  -26.5968  -26.6856   20.0975 C   0  0  0  0  0  0  0  0  0  0  0  0
  -28.0089  -32.3434   23.1634 C   0  0  0  0  0  0  0  0  0  0  0  0
  -29.8831  -18.3222   20.6019 C   0  0  0  0  0  0  0  0  0  0  0  0
  -26.3221  -25.7886   21.1396 C   0  0  0  0  0  0  0  0  0  0  0  0
  -28.1052  -19.7669   19.9740 C   0  0  0  0  0  0  0  0  0  0  0  0
  -22.4261   -8.7549   23.3740 C   0  0  0  0  0  0  0  0  0  0  0  0
  -27.6803  -24.1043   20.0313 C   0  0  0  0  0  0  0  0  0  0  0  0
  -21.7619   -6.5020   23.4478 C   0  0  0  0  0  0  0  0  0  0  0  0
  -21.8403   -3.9428   22.3400 C   0  0  0  0  0  0  0  0  0  0  0  0
  -22.9803   -5.8356   23.3171 C   0  0  0  0  0  0  0  0  0  0  0  0
  -24.6173  -11.8107   21.4352 C   0  0  0  0  0  0  0  0  0  0  0  0
  -28.5967  -20.6776   20.9060 C   0  0  0  0  0  0  0  0  0  0  0  0
  -30.3124  -19.2914   21.5078 C   0  0  0  0  0  0  0  0  0  0  0  0
  -25.2519  -13.7064   20.5195 C   0  0  0  0  0  0  0  0  0  0  0  0
  -22.9223  -13.7451   21.4251 C   0  0  0  0  0  0  0  0  0  0  0  0
  -26.8139  -28.9511   22.3166 C   0  0  0  0  0  0  0  0  0  0  0  0
  -23.8288  -27.9403   23.0845 C   0  0  0  0  0  0  0  0  0  0  0  0
  -21.5153  -25.4320   23.0280 C   0  0  0  0  0  0  0  0  0  0  0  0
  -30.7280  -14.7188   20.1562 C   0  0  0  0  0  0  0  0  0  0  0  0
  -26.9886  -33.0164   25.3988 C   0  0  0  0  0  0  0  0  0  0  0  0
  -25.9973  -28.0651   20.1020 C   0  0  0  0  0  0  0  0  0  0  0  0
  -25.4539  -26.1732   22.3088 C   0  0  0  0  0  0  0  0  0  0  0  0
  -26.5437  -31.5624   25.5337 C   0  0  0  0  0  0  0  0  0  0  0  0
  -29.5276  -11.6905   18.7192 C   0  0  0  0  0  0  0  0  0  0  0  0
  -27.6155  -30.6235   24.9891 C   0  0  0  0  0  0  0  0  0  0  0  0
  -28.1103  -11.5568   19.2788 C   0  0  0  0  0  0  0  0  0  0  0  0
  -30.4862  -12.2877   19.7471 C   0  0  0  0  0  0  0  0  0  0  0  0
  -31.6427  -17.4459   21.8978 C   0  0  0  0  0  0  0  0  0  0  0  0
  -28.6296  -13.4341   20.8927 C   0  0  0  0  0  0  0  0  0  0  0  0
  -27.8622  -30.8745   23.4966 C   0  0  1  0  0  0  0  0  0  0  0  0
  -30.8174  -17.1545   20.6237 C   0  0  1  0  0  0  0  0  0  0  0  0
  -25.6195  -28.5479   21.4990 C   0  0  1  0  0  0  0  0  0  0  0  0
  -27.6144  -12.8884   19.8739 C   0  0  2  0  0  0  0  0  0  0  0  0
  -26.8987  -20.0602   19.1492 C   0  0  0  0  0  0  0  0  0  0  0  0
  -19.1794  -24.8896   23.7675 C   0  0  0  0  0  0  0  0  0  0  0  0
  -24.8191  -27.5921   25.9494 C   0  0  0  0  0  0  0  0  0  0  0  0
  -22.7958  -26.1895   26.4045 C   0  0  0  0  0  0  0  0  0  0  0  0
  -22.5312  -28.5819   25.7496 C   0  0  0  0  0  0  0  0  0  0  0  0
  -20.6117  -24.9934   20.2441 C   0  0  0  0  0  0  0  0  0  0  0  0
  -27.9039  -21.9937   21.1043 C   0  0  0  0  0  0  0  0  0  1  0  0
  -23.2600  -26.8949   24.0132 C   0  0  1  0  0  0  0  0  0  0  0  0
  -20.0480  -25.4236   22.6391 C   0  0  2  0  0  0  0  0  0  0  0  0
  -23.3695  -27.3077   25.5082 C   0  0  0  0  0  0  0  0  0  0  0  0
  -25.8667  -11.5812   21.0226 N   0  0  0  0  0  0  0  0  0  0  0  0
  -29.6909  -20.4729   21.6797 N   0  0  0  0  0  0  0  0  0  0  0  0
  -26.2254  -12.7524   20.4698 N   0  0  0  0  0  0  0  0  0  0  0  0
  -31.4631  -18.8589   22.1870 N   0  0  0  0  0  0  0  0  0  0  0  0
  -24.8961  -27.5351   22.2705 N   0  0  0  0  0  0  0  0  0  0  0  0
  -29.9582  -13.5496   20.2712 N   0  0  0  0  0  0  0  0  0  0  0  0
  -25.4457  -14.9413   20.0098 N   0  0  0  0  0  0  0  0  0  0  0  0
  -21.9330  -12.9972   22.0780 N   0  0  0  0  0  0  0  0  0  0  0  0
  -26.8093  -30.2778   22.7030 N   0  0  0  0  0  0  0  0  0  0  0  0
  -21.8956  -26.6457   23.5606 N   0  0  0  0  0  0  0  0  0  0  0  0
  -30.1509  -15.8723   20.6730 N   0  0  0  0  0  0  0  0  0  0  0  0
  -19.8355  -24.5683   21.4374 N   0  3  0  0  0  0  0  0  0  0  0  0
  -22.6757  -14.9280   21.0884 O   0  0  0  0  0  0  0  0  0  0  0  0
  -27.6752  -28.1197   22.5787 O   0  0  0  0  0  0  0  0  0  0  0  0
  -23.3394  -29.0725   23.0762 O   0  0  0  0  0  0  0  0  0  0  0  0
  -22.2498  -24.4580   22.8781 O   0  0  0  0  0  0  0  0  0  0  0  0
  -31.8446  -14.7347   19.6270 O   0  0  0  0  0  0  0  0  0  0  0  0
  -21.7213   -7.7720   23.9983 O   0  0  0  0  0  0  0  0  0  0  0  0
  -28.2089  -22.8506   20.0048 O   0  0  0  0  0  0  0  0  0  1  0  0
  -21.8776   -2.7135   21.8095 F   0  0  0  0  0  0  0  0  0  0  0  0
  -24.1164   -6.4191   23.7230 F   0  0  0  0  0  0  0  0  0  0  0  0
  1  2  1  0  0  0  0
  1  5  2  0  0  0  0
  2  6  2  0  0  0  0
  3  8  2  0  0  0  0
  3 16  1  0  0  0  0
  4  9  1  0  0  0  0
  4 16  2  0  0  0  0
  5 18  1  0  0  0  0
  6 20  1  0  0  0  0
  7 10  2  0  0  0  0
  7 19  1  0  0  0  0
  8 24  1  0  0  0  0
  9 24  2  0  0  0  0
 10 25  1  0  0  0  0
 11 12  2  0  0  0  0
 11 26  1  0  0  0  0
 12 27  1  0  0  0  0
 13 21  2  0  0  0  0
 13 23  1  0  0  0  0
 14 22  1  0  0  0  0
 14 25  2  0  0  0  0
 15 27  2  0  0  0  0
 15 28  1  0  0  0  0
 16 29  1  0  0  0  0
 17 29  1  0  0  0  0
 17 32  2  0  0  0  0
 17 33  1  0  0  0  0
 18 20  2  0  0  0  0
 18 38  1  0  0  0  0
 19 22  2  0  0  0  0
 19 39  1  0  0  0  0
 20 48  1  0  0  0  0
 21 31  1  0  0  0  0
 21 49  1  0  0  0  0
 22 40  1  0  0  0  0
 23 30  2  0  0  0  0
 23 52  1  0  0  0  0
 24 79  1  0  0  0  0
 25 80  1  0  0  0  0
 26 28  2  0  0  0  0
 26 79  1  0  0  0  0
 27 81  1  0  0  0  0
 28 82  1  0  0  0  0
 29 62  2  0  0  0  0
 30 58  1  0  0  0  0
 30 63  1  0  0  0  0
 31 63  2  0  0  0  0
 31 65  1  0  0  0  0
 32 64  1  0  0  0  0
 32 68  1  0  0  0  0
 33 69  1  0  0  0  0
 33 74  2  0  0  0  0
 34 50  1  0  0  0  0
 34 70  1  0  0  0  0
 34 75  2  0  0  0  0
 35 59  1  0  0  0  0
 35 66  1  0  0  0  0
 35 76  2  0  0  0  0
 36 60  1  0  0  0  0
 36 71  1  0  0  0  0
 36 77  2  0  0  0  0
 37 67  1  0  0  0  0
 37 72  1  0  0  0  0
 37 78  2  0  0  0  0
 38 41  1  0  0  0  0
 39 50  1  0  0  0  0
 40 66  1  0  0  0  0
 41 43  1  0  0  0  0
 42 44  1  0  0  0  0
 42 45  1  0  0  0  0
 43 48  1  0  0  0  0
 44 51  1  0  0  0  0
 45 67  1  0  0  0  0
 46 49  1  0  0  0  0
 46 65  1  0  0  0  0
 47 51  1  0  0  0  0
 47 67  1  0  0  0  0
 48 70  1  0  0  0  0
 49 72  1  0  0  0  0
 50 66  1  0  0  0  0
 51 64  1  0  0  0  0
 53 60  1  0  0  0  0
 54 61  1  0  0  0  0
 55 61  1  0  0  0  0
 56 61  1  0  0  0  0
 57 73  1  0  0  0  0
 58 80  1  0  0  0  0
 59 61  1  0  0  0  0
 59 71  1  0  0  0  0
 60 73  1  0  0  0  0
 62 64  1  0  0  0  0
M  CHG  1  73   1
M  ISO  4  37 100  58 101  72 100  80 101
M  END
> <Batch ID>
0171

> <Smiles>
CNC(C)C(=O)NC(C(=O)N1Cc2cc([101O:1][101CH2:1]c3nc4c(cc3C)C([100NH:0][100C:0](=O)N3CCCC(n5nc(-c6ccc(Oc7ccc(F)cc7F)cc6)c(C(N)=O)c5N)C3)CN4)ccc2CC1C(=O)NC1CCCc2ccccc21)C(C)(C)C

> <Shape>
0.316

> <Color>
0.175

> <Negative vol penalty>
0.000

$$$$

  -OEChem-04052322373D

 87 97  0     1  0  0  0  0  0999 V2000
  -29.7561  -33.4716   26.2599 C   0  0  0  0  0  0  0  0  0  0  0  0
  -29.7490  -32.3192   25.4805 C   0  0  0  0  0  0  0  0  0  0  0  0
  -24.6692   -8.7304   20.8942 C   0  0  0  0  0  0  0  0  0  0  0  0
  -22.8979  -10.3138   20.4558 C   0  0  0  0  0  0  0  0  0  0  0  0
  -28.5578  -33.9841   26.7553 C   0  0  0  0  0  0  0  0  0  0  0  0
  -28.5436  -31.6781   25.1970 C   0  0  0  0  0  0  0  0  0  0  0  0
  -27.0608  -28.7443   20.0298 C   0  0  0  0  0  0  0  0  0  0  0  0
  -23.7209   -7.7514   21.1904 C   0  0  0  0  0  0  0  0  0  0  0  0
  -21.9494   -9.3348   20.7520 C   0  0  0  0  0  0  0  0  0  0  0  0
  -27.0659  -27.3938   19.6834 C   0  0  0  0  0  0  0  0  0  0  0  0
  -21.7266   -6.9217   23.7902 C   0  0  0  0  0  0  0  0  0  0  0  0
  -21.9368   -6.1393   24.9257 C   0  0  0  0  0  0  0  0  0  0  0  0
  -24.7188  -27.2529   20.2223 C   0  0  0  0  0  0  0  0  0  0  0  0
  -21.9804   -4.1539   23.5495 C   0  0  0  0  0  0  0  0  0  0  0  0
  -24.2577  -10.0116   20.5269 C   0  0  0  0  0  0  0  0  0  0  0  0
  -25.8019  -11.3075   18.9636 C   0  0  0  0  0  0  0  0  0  0  0  0
  -27.3362  -33.3543   26.4697 C   0  0  0  0  0  0  0  0  0  0  0  0
  -25.8852  -29.3576   20.4862 C   0  0  0  0  0  0  0  0  0  0  0  0
  -27.3280  -32.1819   25.6902 C   0  0  0  0  0  0  0  0  0  0  0  0
  -24.7008  -28.6119   20.5714 C   0  0  0  0  0  0  0  0  0  0  0  0
  -26.8148  -22.2502   19.4960 C   0  0  0  0  0  0  0  0  0  0  0  0
  -26.9658  -23.3657   18.6145 C   0  0  0  0  0  0  0  0  0  0  0  0
  -22.3610   -8.0536   21.1193 C   0  0  0  0  0  0  0  0  0  0  0  0
  -25.8955  -26.6472   19.7823 C   0  0  0  0  0  0  0  0  0  0  0  0
  -21.6432   -6.3202   22.5344 C   0  0  0  0  0  0  0  0  0  0  0  0
  -22.0637   -4.7554   24.8053 C   0  0  0  0  0  0  0  0  0  0  0  0
  -21.7701   -4.9364   22.4141 C   0  0  0  0  0  0  0  0  0  0  0  0
  -25.2369  -11.0235   20.2214 C   0  0  0  0  0  0  0  0  0  0  0  0
  -26.6818  -21.1026   18.7299 C   0  0  0  0  0  0  0  0  0  0  0  0
  -26.9167  -22.8547   17.3434 C   0  0  0  0  0  0  0  0  0  0  0  0
  -26.6691  -12.3453   19.2032 C   0  0  0  0  0  0  0  0  0  0  0  0
  -25.5639  -10.6886   17.6924 C   0  0  0  0  0  0  0  0  0  0  0  0
  -24.9994  -30.7774   23.1886 C   0  0  0  0  0  0  0  0  0  0  0  0
  -22.3168  -31.4562   21.4959 C   0  0  0  0  0  0  0  0  0  0  0  0
  -20.2473  -30.6564   18.9028 C   0  0  0  0  0  0  0  0  0  0  0  0
  -27.8103  -17.2362   21.6269 C   0  0  0  0  0  0  0  0  0  0  0  0
  -26.0714  -33.9188   27.0668 C   0  0  0  0  0  0  0  0  0  0  0  0
  -25.8900  -30.8218   20.8305 C   0  0  0  0  0  0  0  0  0  0  0  0
  -23.4075  -29.2281   21.0364 C   0  0  0  0  0  0  0  0  0  0  0  0
  -24.7990  -33.3912   26.4088 C   0  0  0  0  0  0  0  0  0  0  0  0
  -28.3665  -14.3080   23.5240 C   0  0  0  0  0  0  0  0  0  0  0  0
  -24.8701  -31.8760   26.2478 C   0  0  0  0  0  0  0  0  0  0  0  0
  -27.6244  -13.2166   22.7577 C   0  0  0  0  0  0  0  0  0  0  0  0
  -26.4294  -22.0037   15.1993 C   0  0  0  0  0  0  0  0  0  0  0  0
  -25.2735  -19.3240   19.9959 C   0  0  0  0  0  0  0  0  0  0  0  0
  -26.6865  -20.8300   16.1636 C   0  0  0  0  0  0  0  0  0  0  0  0
  -27.5939  -15.6196   23.4815 C   0  0  0  0  0  0  0  0  0  0  0  0
  -25.6009  -17.9383   20.5359 C   0  0  0  0  0  0  0  0  0  0  0  0
  -27.6350  -19.0763   19.9791 C   0  0  0  0  0  0  0  0  0  0  0  0
  -26.5969  -15.0278   21.2893 C   0  0  0  0  0  0  0  0  0  0  0  0
  -26.0383  -31.4719   25.3402 C   0  0  1  0  0  0  0  0  0  0  0  0
  -26.4971  -19.6543   19.1258 C   0  0  2  0  0  0  0  0  0  0  0  0
  -24.7573  -31.2177   21.7726 C   0  0  1  0  0  0  0  0  0  0  0  0
  -27.3284  -13.6700   21.3197 C   0  0  2  0  0  0  0  0  0  0  0  0
  -26.9868  -23.2817   15.9160 C   0  0  0  0  0  0  0  0  0  0  0  0
  -26.8032  -22.3081   20.9735 C   0  0  0  0  0  0  0  0  0  0  0  0
  -28.4378  -23.5504   15.5023 C   0  0  0  0  0  0  0  0  0  0  0  0
  -26.1130  -24.5017   15.6300 C   0  0  0  0  0  0  0  0  0  0  0  0
  -18.1138  -31.3721   17.7922 C   0  0  0  0  0  0  0  0  0  0  0  0
  -20.7152  -30.2020   23.7701 C   0  0  0  0  0  0  0  0  0  0  0  0
  -18.7490  -30.0800   22.2249 C   0  0  0  0  0  0  0  0  0  0  0  0
  -19.7242  -32.2956   22.8271 C   0  0  0  0  0  0  0  0  0  0  0  0
  -21.6273  -31.2022   16.3422 C   0  0  0  0  0  0  0  0  0  0  0  0
  -27.1410  -24.7792   18.9980 C   0  0  0  0  0  0  0  0  0  1  0  0
  -20.9943  -30.7654   21.2660 C   0  0  1  0  0  0  0  0  0  0  0  0
  -19.6285  -31.5074   17.8086 C   0  0  2  0  0  0  0  0  0  0  0  0
  -20.0703  -30.8234   22.5151 C   0  0  0  0  0  0  0  0  0  0  0  0
  -25.7060  -11.8167   21.1883 N   0  0  0  0  0  0  0  0  0  0  0  0
  -26.7528  -21.5040   17.4451 N   0  0  0  0  0  0  0  0  0  0  0  0
  -26.5748  -12.6093   20.5379 N   0  0  0  0  0  0  0  0  0  0  0  0
  -23.4647  -30.6615   21.3675 N   0  0  0  0  0  0  0  0  0  0  0  0
  -27.2922  -16.0290   22.1086 N   0  0  0  0  0  0  0  0  0  0  0  0
  -27.0537  -17.9445   20.6941 N   0  0  0  0  0  0  0  0  0  0  0  0
  -27.4955  -13.0486   18.4002 N   0  0  0  0  0  0  0  0  0  0  0  0
  -24.6410   -9.6361   17.6240 N   0  0  0  0  0  0  0  0  0  0  0  0
  -25.6989  -31.6934   23.9509 N   0  0  0  0  0  0  0  0  0  0  0  0
  -20.4201  -31.3710   20.0693 N   0  0  0  0  0  0  0  0  0  0  0  0
  -20.1514  -31.0967   16.4748 N   0  3  0  0  0  0  0  0  0  0  0  0
  -26.1644  -11.0472   16.6511 O   0  0  0  0  0  0  0  0  0  0  0  0
  -24.5811  -29.6879   23.5624 O   0  0  0  0  0  0  0  0  0  0  0  0
  -22.3311  -32.6584   21.7721 O   0  0  0  0  0  0  0  0  0  0  0  0
  -20.5440  -29.4749   18.7402 O   0  0  0  0  0  0  0  0  0  0  0  0
  -28.8865  -17.6857   22.0435 O   0  0  0  0  0  0  0  0  0  0  0  0
  -21.4353   -7.0984   21.4080 O   0  0  0  0  0  0  0  0  0  0  0  0
  -25.8979  -25.3221   19.4438 O   0  0  0  0  0  0  0  0  0  1  0  0
  -22.2671   -4.0044   25.8956 F   0  0  0  0  0  0  0  0  0  0  0  0
  -21.6921   -4.3530   21.2102 F   0  0  0  0  0  0  0  0  0  0  0  0
  1  2  1  0  0  0  0
  1  5  2  0  0  0  0
  2  6  2  0  0  0  0
  3  8  2  0  0  0  0
  3 15  1  0  0  0  0
  4  9  1  0  0  0  0
  4 15  2  0  0  0  0
  5 17  1  0  0  0  0
  6 19  1  0  0  0  0
  7 10  2  0  0  0  0
  7 18  1  0  0  0  0
  8 23  1  0  0  0  0
  9 23  2  0  0  0  0
 10 24  1  0  0  0  0
 11 12  2  0  0  0  0
 11 25  1  0  0  0  0
 12 26  1  0  0  0  0
 13 20  1  0  0  0  0
 13 24  2  0  0  0  0
 14 26  2  0  0  0  0
 14 27  1  0  0  0  0
 15 28  1  0  0  0  0
 16 28  1  0  0  0  0
 16 31  2  0  0  0  0
 16 32  1  0  0  0  0
 17 19  2  0  0  0  0
 17 37  1  0  0  0  0
 18 20  2  0  0  0  0
 18 38  1  0  0  0  0
 19 51  1  0  0  0  0
 20 39  1  0  0  0  0
 21 22  1  0  0  0  0
 21 29  2  0  0  0  0
 21 56  1  0  0  0  0
 22 30  2  0  0  0  0
 22 64  1  0  0  0  0
 23 84  1  0  0  0  0
 24 85  1  0  0  0  0
 25 27  2  0  0  0  0
 25 84  1  0  0  0  0
 26 86  1  0  0  0  0
 27 87  1  0  0  0  0
 28 68  2  0  0  0  0
 29 52  1  0  0  0  0
 29 69  1  0  0  0  0
 30 55  1  0  0  0  0
 30 69  1  0  0  0  0
 31 70  1  0  0  0  0
 31 74  1  0  0  0  0
 32 75  1  0  0  0  0
 32 79  2  0  0  0  0
 33 53  1  0  0  0  0
 33 76  1  0  0  0  0
 33 80  2  0  0  0  0
 34 65  1  0  0  0  0
 34 71  1  0  0  0  0
 34 81  2  0  0  0  0
 35 66  1  0  0  0  0
 35 77  1  0  0  0  0
 35 82  2  0  0  0  0
 36 72  1  0  0  0  0
 36 73  1  0  0  0  0
 36 83  2  0  0  0  0
 37 40  1  0  0  0  0
 38 53  1  0  0  0  0
 39 71  1  0  0  0  0
 40 42  1  0  0  0  0
 41 43  1  0  0  0  0
 41 47  1  0  0  0  0
 42 51  1  0  0  0  0
 43 54  1  0  0  0  0
 44 46  1  0  0  0  0
 44 55  1  0  0  0  0
 45 48  1  0  0  0  0
 45 52  1  0  0  0  0
 46 69  1  0  0  0  0
 47 72  1  0  0  0  0
 48 73  1  0  0  0  0
 49 52  1  0  0  0  0
 49 73  1  0  0  0  0
 50 54  1  0  0  0  0
 50 72  1  0  0  0  0
 51 76  1  0  0  0  0
 53 71  1  0  0  0  0
 54 70  1  0  0  0  0
 55 57  1  0  0  0  0
 55 58  1  0  0  0  0
 59 66  1  0  0  0  0
 60 67  1  0  0  0  0
 61 67  1  0  0  0  0
 62 67  1  0  0  0  0
 63 78  1  0  0  0  0
 64 85  1  0  0  0  0
 65 67  1  0  0  0  0
 65 77  1  0  0  0  0
 66 78  1  0  0  0  0
 68 70  1  0  0  0  0
M  CHG  1  78   1
M  ISO  4  36 100  64 101  73 100  85 101
M  END
> <Batch ID>
0171

> <Smiles>
CNC(C)C(=O)NC(C(=O)N1Cc2cc([101O:1][101CH2:1]c3c(C)c(C4CC[100N:0]([100C:0](=O)N5CCCC(n6nc(-c7ccc(Oc8ccc(F)cc8F)cc7)c(C(N)=O)c6N)C5)C4)n4c3C(C)(C)CC4)ccc2CC1C(=O)NC1CCCc2ccccc21)C(C)(C)C

> <Shape>
0.270

> <Color>
0.108

> <Negative vol penalty>
0.000

$$$$

  -OEChem-04052322373D

 85 94  0     1  0  0  0  0  0999 V2000
  -25.4748  -27.8797    8.7799 C   0  0  0  0  0  0  0  0  0  0  0  0
  -25.5551  -26.9516    9.8132 C   0  0  0  0  0  0  0  0  0  0  0  0
  -23.2576   -9.8371   19.8941 C   0  0  0  0  0  0  0  0  0  0  0  0
  -23.6531   -9.9583   22.2745 C   0  0  0  0  0  0  0  0  0  0  0  0
  -25.8586  -29.2018    9.0006 C   0  0  0  0  0  0  0  0  0  0  0  0
  -26.0202  -27.3449   11.0676 C   0  0  0  0  0  0  0  0  0  0  0  0
  -23.1768  -25.5376   14.8482 C   0  0  0  0  0  0  0  0  0  0  0  0
  -22.5327   -8.6592   20.0745 C   0  0  0  0  0  0  0  0  0  0  0  0
  -22.9281   -8.7803   22.4549 C   0  0  0  0  0  0  0  0  0  0  0  0
  -23.3652  -24.2030   15.2048 C   0  0  0  0  0  0  0  0  0  0  0  0
  -23.4396   -5.4588   22.0851 C   0  0  0  0  0  0  0  0  0  0  0  0
  -23.9789   -4.4889   22.9300 C   0  0  0  0  0  0  0  0  0  0  0  0
  -24.7369  -24.8994   17.0629 C   0  0  0  0  0  0  0  0  0  0  0  0
  -22.0285   -4.6397   24.3479 C   0  0  0  0  0  0  0  0  0  0  0  0
  -24.4150  -17.7517   17.4429 C   0  0  0  0  0  0  0  0  0  0  0  0
  -23.8179  -10.4866   20.9941 C   0  0  0  0  0  0  0  0  0  0  0  0
  -24.0688  -13.0196   20.8244 C   0  0  0  0  0  0  0  0  0  0  0  0
  -26.3195  -29.6137   10.2610 C   0  0  0  0  0  0  0  0  0  0  0  0
  -23.7770  -26.5644   15.5911 C   0  0  0  0  0  0  0  0  0  0  0  0
  -26.4117  -28.6734   11.3049 C   0  0  0  0  0  0  0  0  0  0  0  0
  -24.5525  -26.2463   16.7152 C   0  0  0  0  0  0  0  0  0  0  0  0
  -25.4525  -18.3717   16.7654 C   0  0  0  0  0  0  0  0  0  0  0  0
  -25.2212  -19.6375   16.2385 C   0  0  0  0  0  0  0  0  0  0  0  0
  -23.9770  -20.2361   16.4030 C   0  0  0  0  0  0  0  0  0  0  0  0
  -22.3679   -8.1308   21.3549 C   0  0  0  0  0  0  0  0  0  0  0  0
  -24.1477  -23.8836   16.3106 C   0  0  0  0  0  0  0  0  0  0  0  0
  -22.1948   -6.0193   22.3716 C   0  0  0  0  0  0  0  0  0  0  0  0
  -23.2734   -4.0793   24.0614 C   0  0  0  0  0  0  0  0  0  0  0  0
  -21.4892   -5.6097   23.5030 C   0  0  0  0  0  0  0  0  0  0  0  0
  -24.5673  -11.7032   20.8084 C   0  0  0  0  0  0  0  0  0  0  0  0
  -23.0056  -19.5326   17.0966 C   0  0  0  0  0  0  0  0  0  0  0  0
  -25.1718  -13.8072   20.6019 C   0  0  0  0  0  0  0  0  0  0  0  0
  -22.7285  -13.4886   21.0228 C   0  0  0  0  0  0  0  0  0  0  0  0
  -25.9068  -28.8384   14.9615 C   0  0  0  0  0  0  0  0  0  0  0  0
  -25.1911  -29.8005   17.9756 C   0  0  0  0  0  0  0  0  0  0  0  0
  -24.0124  -28.9873   21.0734 C   0  0  0  0  0  0  0  0  0  0  0  0
  -29.8521  -14.9974   18.0344 C   0  0  0  0  0  0  0  0  0  0  0  0
  -26.7677  -31.0427   10.4386 C   0  0  0  0  0  0  0  0  0  0  0  0
  -23.5421  -28.0001   15.2092 C   0  0  0  0  0  0  0  0  0  0  0  0
  -25.2021  -27.3123   17.5579 C   0  0  0  0  0  0  0  0  0  0  0  0
  -26.8955  -31.4638   11.9003 C   0  0  0  0  0  0  0  0  0  0  0  0
  -30.0948  -12.6756   20.5843 C   0  0  0  0  0  0  0  0  0  0  0  0
  -27.6441  -30.4012   12.6985 C   0  0  0  0  0  0  0  0  0  0  0  0
  -28.6400  -12.3132   20.8831 C   0  0  0  0  0  0  0  0  0  0  0  0
  -27.7636  -18.0390   17.7487 C   0  0  0  0  0  0  0  0  0  0  0  0
  -26.6293  -16.1421   16.5175 C   0  0  0  0  0  0  0  0  0  0  0  0
  -30.3287  -12.8046   19.0834 C   0  0  0  0  0  0  0  0  0  0  0  0
  -29.0954  -17.3067   17.6027 C   0  0  0  0  0  0  0  0  0  0  0  0
  -27.9859  -15.4539   16.3977 C   0  0  0  0  0  0  0  0  0  0  0  0
  -27.9691  -13.4393   18.7046 C   0  0  0  0  0  0  0  0  0  0  0  0
  -26.7892  -17.6695   16.6170 C   0  0  0  0  0  0  0  0  0  0  0  0
  -26.8877  -29.0673   12.6864 C   0  0  1  0  0  0  0  0  0  0  0  0
  -24.6217  -28.9421   15.7332 C   0  0  1  0  0  0  0  0  0  0  0  0
  -27.6748  -13.3064   20.2122 C   0  0  1  0  0  0  0  0  0  0  0  0
  -26.3075  -20.3500   15.4983 C   0  0  0  0  0  0  0  0  0  0  0  0
  -21.6495  -20.1238   17.3042 C   0  0  0  0  0  0  0  0  0  0  0  0
  -23.5819  -29.9760   23.3393 C   0  0  0  0  0  0  0  0  0  0  0  0
  -28.1806  -29.7112   18.5798 C   0  0  0  0  0  0  0  0  0  0  0  0
  -27.6184  -29.7665   21.0189 C   0  0  0  0  0  0  0  0  0  0  0  0
  -26.9786  -31.6782   19.5497 C   0  0  0  0  0  0  0  0  0  0  0  0
  -21.1140  -28.4143   20.9008 C   0  0  0  0  0  0  0  0  0  0  0  0
  -23.6984  -21.5939   15.8510 C   0  0  0  0  0  0  0  0  0  1  0  0
  -25.7270  -29.4903   19.3524 C   0  0  1  0  0  0  0  0  0  0  0  0
  -22.9930  -29.6630   21.9726 C   0  0  2  0  0  0  0  0  0  0  0  0
  -27.1156  -30.1411   19.6084 C   0  0  0  0  0  0  0  0  0  0  0  0
  -23.1932  -18.3015   17.6228 N   0  0  0  0  0  0  0  0  0  0  0  0
  -25.8845  -11.6532   20.5926 N   0  0  0  0  0  0  0  0  0  0  0  0
  -26.2230  -12.9481   20.4709 N   0  0  0  0  0  0  0  0  0  0  0  0
  -24.9479  -28.7010   17.1402 N   0  0  0  0  0  0  0  0  0  0  0  0
  -29.3889  -13.7511   18.4830 N   0  0  0  0  0  0  0  0  0  0  0  0
  -28.8991  -15.8634   17.4734 N   0  0  0  0  0  0  0  0  0  0  0  0
  -25.3354  -15.1439   20.5074 N   0  0  0  0  0  0  0  0  0  0  0  0
  -21.7153  -12.5445   21.2384 N   0  0  0  0  0  0  0  0  0  0  0  0
  -25.7764  -29.1081   13.6126 N   0  0  0  0  0  0  0  0  0  0  0  0
  -24.6919  -29.9005   20.2952 N   0  0  0  0  0  0  0  0  0  0  0  0
  -21.8058  -28.7825   22.1628 N   0  3  0  0  0  0  0  0  0  0  0  0
  -22.4352  -14.7079   20.9929 O   0  0  0  0  0  0  0  0  0  0  0  0
  -26.9405  -28.5374   15.5470 O   0  0  0  0  0  0  0  0  0  0  0  0
  -24.9889  -30.9745   17.6557 O   0  0  0  0  0  0  0  0  0  0  0  0
  -24.1908  -27.7713   21.0650 O   0  0  0  0  0  0  0  0  0  0  0  0
  -31.0422  -15.3212   18.1328 O   0  0  0  0  0  0  0  0  0  0  0  0
  -21.6603   -6.9815   21.5313 O   0  0  0  0  0  0  0  0  0  0  0  0
  -24.3350  -22.5727   16.6629 O   0  0  0  0  0  0  0  0  0  1  0  0
  -23.7907   -3.1467   24.8719 F   0  0  0  0  0  0  0  0  0  0  0  0
  -20.2924   -6.1436   23.7828 F   0  0  0  0  0  0  0  0  0  0  0  0
  1  2  1  0  0  0  0
  1  5  2  0  0  0  0
  2  6  2  0  0  0  0
  3  8  2  0  0  0  0
  3 16  1  0  0  0  0
  4  9  1  0  0  0  0
  4 16  2  0  0  0  0
  5 18  1  0  0  0  0
  6 20  1  0  0  0  0
  7 10  2  0  0  0  0
  7 19  1  0  0  0  0
  8 25  1  0  0  0  0
  9 25  2  0  0  0  0
 10 26  1  0  0  0  0
 11 12  2  0  0  0  0
 11 27  1  0  0  0  0
 12 28  1  0  0  0  0
 13 21  1  0  0  0  0
 13 26  2  0  0  0  0
 14 28  2  0  0  0  0
 14 29  1  0  0  0  0
 15 22  2  0  0  0  0
 15 66  1  0  0  0  0
 16 30  1  0  0  0  0
 17 30  1  0  0  0  0
 17 32  2  0  0  0  0
 17 33  1  0  0  0  0
 18 20  2  0  0  0  0
 18 38  1  0  0  0  0
 19 21  2  0  0  0  0
 19 39  1  0  0  0  0
 20 52  1  0  0  0  0
 21 40  1  0  0  0  0
 22 23  1  0  0  0  0
 22 51  1  0  0  0  0
 23 24  2  0  0  0  0
 23 55  1  0  0  0  0
 24 31  1  0  0  0  0
 24 62  1  0  0  0  0
 25 82  1  0  0  0  0
 26 83  1  0  0  0  0
 27 29  2  0  0  0  0
 27 82  1  0  0  0  0
 28 84  1  0  0  0  0
 29 85  1  0  0  0  0
 30 67  2  0  0  0  0
 31 56  1  0  0  0  0
 31 66  2  0  0  0  0
 32 68  1  0  0  0  0
 32 72  1  0  0  0  0
 33 73  1  0  0  0  0
 33 77  2  0  0  0  0
 34 53  1  0  0  0  0
 34 74  1  0  0  0  0
 34 78  2  0  0  0  0
 35 63  1  0  0  0  0
 35 69  1  0  0  0  0
 35 79  2  0  0  0  0
 36 64  1  0  0  0  0
 36 75  1  0  0  0  0
 36 80  2  0  0  0  0
 37 70  1  0  0  0  0
 37 71  1  0  0  0  0
 37 81  2  0  0  0  0
 38 41  1  0  0  0  0
 39 53  1  0  0  0  0
 40 69  1  0  0  0  0
 41 43  1  0  0  0  0
 42 44  1  0  0  0  0
 42 47  1  0  0  0  0
 43 52  1  0  0  0  0
 44 54  1  0  0  0  0
 45 48  1  0  0  0  0
 45 51  1  0  0  0  0
 46 49  1  0  0  0  0
 46 51  1  0  0  0  0
 47 70  1  0  0  0  0
 48 71  1  0  0  0  0
 49 71  1  0  0  0  0
 50 54  1  0  0  0  0
 50 70  1  0  0  0  0
 52 74  1  0  0  0  0
 53 69  1  0  0  0  0
 54 68  1  0  0  0  0
 57 64  1  0  0  0  0
 58 65  1  0  0  0  0
 59 65  1  0  0  0  0
 60 65  1  0  0  0  0
 61 76  1  0  0  0  0
 62 83  1  0  0  0  0
 63 65  1  0  0  0  0
 63 75  1  0  0  0  0
 64 76  1  0  0  0  0
 67 68  1  0  0  0  0
M  CHG  1  76   1
M  ISO  4  37 100  62 101  71 100  83 101
M  END
> <Batch ID>
0171

> <Smiles>
CNC(C)C(=O)NC(C(=O)N1Cc2cc([101O:1][101CH2:1]c3c(C)ncc(C4CC[100N:0]([100C:0](=O)N5CCCC(n6nc(-c7ccc(Oc8ccc(F)cc8F)cc7)c(C(N)=O)c6N)C5)CC4)c3C)ccc2CC1C(=O)NC1CCCc2ccccc21)C(C)(C)C

> <Shape>
0.195

> <Color>
0.197

> <Negative vol penalty>
0.000

$$$$

  -OEChem-04052322373D

 86 95  0     1  0  0  0  0  0999 V2000
  -22.8173  -15.5224   21.5333 C   0  0  0  0  0  0  0  0  0  0  0  0
  -23.9473  -16.2956   21.7792 C   0  0  0  0  0  0  0  0  0  0  0  0
  -26.6174  -12.6394   21.4830 C   0  0  0  0  0  0  0  0  0  0  0  0
  -25.8903  -13.7407   19.4592 C   0  0  0  0  0  0  0  0  0  0  0  0
  -21.8295  -15.9893   20.6672 C   0  0  0  0  0  0  0  0  0  0  0  0
  -24.0908  -17.5359   21.1582 C   0  0  0  0  0  0  0  0  0  0  0  0
  -26.8309  -24.0585   22.2822 C   0  0  0  0  0  0  0  0  0  0  0  0
  -25.3993  -11.9634   21.5527 C   0  0  0  0  0  0  0  0  0  0  0  0
  -24.6722  -13.0647   19.5290 C   0  0  0  0  0  0  0  0  0  0  0  0
  -27.6828  -24.9864   21.6848 C   0  0  0  0  0  0  0  0  0  0  0  0
  -23.9482   -9.2866   20.0825 C   0  0  0  0  0  0  0  0  0  0  0  0
  -23.9796   -7.9219   20.3693 C   0  0  0  0  0  0  0  0  0  0  0  0
  -29.6814  -24.9317   17.7696 C   0  0  0  0  0  0  0  0  0  0  0  0
  -25.8748  -25.7260   20.2694 C   0  0  0  0  0  0  0  0  0  0  0  0
  -22.6526   -8.3079   22.3510 C   0  0  0  0  0  0  0  0  0  0  0  0
  -31.8469  -24.0822   18.1982 C   0  0  0  0  0  0  0  0  0  0  0  0
  -26.8629  -13.5281   20.4362 C   0  0  0  0  0  0  0  0  0  0  0  0
  -29.4047  -13.6586   20.2628 C   0  0  0  0  0  0  0  0  0  0  0  0
  -21.9563  -17.2402   20.0428 C   0  0  0  0  0  0  0  0  0  0  0  0
  -25.4952  -23.9497   21.8695 C   0  0  0  0  0  0  0  0  0  0  0  0
  -23.1043  -18.0194   20.2819 C   0  0  0  0  0  0  0  0  0  0  0  0
  -30.1107  -26.2220   18.1289 C   0  0  0  0  0  0  0  0  0  0  0  0
  -25.0073  -24.7977   20.8650 C   0  0  0  0  0  0  0  0  0  0  0  0
  -30.5487  -23.8475   17.8049 C   0  0  0  0  0  0  0  0  0  0  0  0
  -24.4267  -12.1760   20.5757 C   0  0  0  0  0  0  0  0  0  0  0  0
  -27.2056  -25.8184   20.6762 C   0  0  0  0  0  0  0  0  0  0  0  0
  -23.2690  -10.1619   20.9299 C   0  0  0  0  0  0  0  0  0  0  0  0
  -23.3319   -7.4325   21.5035 C   0  0  0  0  0  0  0  0  0  0  0  0
  -22.6212   -9.6726   22.0642 C   0  0  0  0  0  0  0  0  0  0  0  0
  -28.1208  -14.2271   20.3639 C   0  0  0  0  0  0  0  0  0  0  0  0
  -31.4614  -26.3598   18.4896 C   0  0  0  0  0  0  0  0  0  0  0  0
  -30.2555  -14.7362   20.2266 C   0  0  0  0  0  0  0  0  0  0  0  0
  -29.7934  -12.2797   20.2065 C   0  0  0  0  0  0  0  0  0  0  0  0
  -23.7307  -21.6499   20.5652 C   0  0  0  0  0  0  0  0  0  0  0  0
  -21.3241  -23.7779   21.0148 C   0  0  0  0  0  0  0  0  0  0  0  0
  -20.3688  -27.0302   21.4104 C   0  0  0  0  0  0  0  0  0  0  0  0
  -29.4664  -20.3131   18.4570 C   0  0  0  0  0  0  0  0  0  0  0  0
  -20.8846  -17.6818   19.0778 C   0  0  0  0  0  0  0  0  0  0  0  0
  -24.5820  -22.9620   22.5425 C   0  0  0  0  0  0  0  0  0  0  0  0
  -23.5762  -24.7345   20.3998 C   0  0  0  0  0  0  0  0  0  0  0  0
  -20.9358  -19.1721   18.7510 C   0  0  0  0  0  0  0  0  0  0  0  0
  -30.6250  -19.2676   21.7223 C   0  0  0  0  0  0  0  0  0  0  0  0
  -22.3658  -19.6012   18.4385 C   0  0  0  0  0  0  0  0  0  0  0  0
  -30.2296  -17.7899   21.7266 C   0  0  0  0  0  0  0  0  0  0  0  0
  -29.7085  -28.6394   18.8078 C   0  0  0  0  0  0  0  0  0  0  0  0
  -31.1729  -28.8848   18.4748 C   0  0  0  0  0  0  0  0  0  0  0  0
  -29.5746  -20.1189   21.0150 C   0  0  0  0  0  0  0  0  0  0  0  0
  -28.8711  -18.2096   19.6246 C   0  0  0  0  0  0  0  0  0  0  0  0
  -23.2844  -19.3810   19.6465 C   0  0  1  0  0  0  0  0  0  0  0  0
  -23.3764  -22.5841   21.6874 C   0  0  1  0  0  0  0  0  0  0  0  0
  -29.9036  -17.2929   20.3057 C   0  0  2  0  0  0  0  0  0  0  0  0
  -29.1423  -27.4031   18.0708 C   0  0  1  0  0  0  0  0  0  0  0  0
  -32.0640  -27.7000   18.9011 C   0  0  0  0  0  0  0  0  0  0  0  0
  -28.8788  -27.7533   16.5896 C   0  0  0  0  0  0  0  0  0  0  0  0
  -32.2572  -27.6957   20.4319 C   0  0  0  0  0  0  0  0  0  0  0  0
  -33.4450  -27.8992   18.2385 C   0  0  0  0  0  0  0  0  0  0  0  0
  -18.8402  -28.9709   21.8516 C   0  0  0  0  0  0  0  0  0  0  0  0
  -20.6541  -23.4554   18.0556 C   0  0  0  0  0  0  0  0  0  0  0  0
  -19.2900  -25.5493   18.2078 C   0  0  0  0  0  0  0  0  0  0  0  0
  -18.6666  -23.5550   19.5704 C   0  0  0  0  0  0  0  0  0  0  0  0
  -20.8135  -26.8659   24.3317 C   0  0  0  0  0  0  0  0  0  0  0  0
  -30.0911  -22.4835   17.4294 C   0  0  0  0  0  0  0  0  0  0  0  0
  -27.7886  -27.0694   18.7394 C   0  0  0  0  0  0  0  0  0  1  0  0
  -20.7172  -24.8936   20.1988 C   0  0  1  0  0  0  0  0  0  0  0  0
  -19.4431  -27.6932   22.4144 C   0  0  2  0  0  0  0  0  0  0  0  0
  -19.8595  -24.3634   19.0153 C   0  0  0  0  0  0  0  0  0  0  0  0
  -32.3162  -25.2991   18.5390 N   0  0  0  0  0  0  0  0  0  0  0  0
  -28.1487  -15.5622   20.3904 N   0  0  0  0  0  0  0  0  0  0  0  0
  -29.4605  -15.8416   20.3055 N   0  0  0  0  0  0  0  0  0  0  0  0
  -22.7241  -23.7481   21.0842 N   0  0  0  0  0  0  0  0  0  0  0  0
  -29.3241  -19.6041   19.6614 N   0  0  0  0  0  0  0  0  0  0  0  0
  -31.5986  -14.8366   20.1354 N   0  0  0  0  0  0  0  0  0  0  0  0
  -29.8894  -11.6632   18.9515 N   0  0  0  0  0  0  0  0  0  0  0  0
  -23.0895  -20.4274   20.6271 N   0  0  0  0  0  0  0  0  0  0  0  0
  -19.9837  -25.7344   21.1387 N   0  0  0  0  0  0  0  0  0  0  0  0
  -29.8929  -21.6298   18.5796 N   0  0  0  0  0  0  0  0  0  0  0  0
  -20.1878  -28.0337   23.6595 N   0  3  0  0  0  0  0  0  0  0  0  0
  -30.0322  -11.6094   21.2396 O   0  0  0  0  0  0  0  0  0  0  0  0
  -24.5257  -22.0120   19.7058 O   0  0  0  0  0  0  0  0  0  0  0  0
  -20.5830  -22.9670   21.5760 O   0  0  0  0  0  0  0  0  0  0  0  0
  -21.3346  -27.6057   20.9137 O   0  0  0  0  0  0  0  0  0  0  0  0
  -29.2355  -19.8082   17.3530 O   0  0  0  0  0  0  0  0  0  0  0  0
  -23.2381  -11.5164   20.6434 O   0  0  0  0  0  0  0  0  0  0  0  0
  -28.0445  -26.7347   20.0844 O   0  0  0  0  0  0  0  0  0  1  0  0
  -23.3608   -6.1218   21.7780 F   0  0  0  0  0  0  0  0  0  0  0  0
  -21.9662  -10.5085   22.8815 F   0  0  0  0  0  0  0  0  0  0  0  0
  1  2  1  0  0  0  0
  1  5  2  0  0  0  0
  2  6  2  0  0  0  0
  3  8  2  0  0  0  0
  3 17  1  0  0  0  0
  4  9  1  0  0  0  0
  4 17  2  0  0  0  0
  5 19  1  0  0  0  0
  6 21  1  0  0  0  0
  7 10  2  0  0  0  0
  7 20  1  0  0  0  0
  8 25  1  0  0  0  0
  9 25  2  0  0  0  0
 10 26  1  0  0  0  0
 11 12  2  0  0  0  0
 11 27  1  0  0  0  0
 12 28  1  0  0  0  0
 13 22  1  0  0  0  0
 13 24  2  0  0  0  0
 14 23  1  0  0  0  0
 14 26  2  0  0  0  0
 15 28  2  0  0  0  0
 15 29  1  0  0  0  0
 16 24  1  0  0  0  0
 16 67  2  0  0  0  0
 17 30  1  0  0  0  0
 18 30  1  0  0  0  0
 18 32  2  0  0  0  0
 18 33  1  0  0  0  0
 19 21  2  0  0  0  0
 19 38  1  0  0  0  0
 20 23  2  0  0  0  0
 20 39  1  0  0  0  0
 21 49  1  0  0  0  0
 22 31  2  0  0  0  0
 22 52  1  0  0  0  0
 23 40  1  0  0  0  0
 24 62  1  0  0  0  0
 25 83  1  0  0  0  0
 26 84  1  0  0  0  0
 27 29  2  0  0  0  0
 27 83  1  0  0  0  0
 28 85  1  0  0  0  0
 29 86  1  0  0  0  0
 30 68  2  0  0  0  0
 31 53  1  0  0  0  0
 31 67  1  0  0  0  0
 32 69  1  0  0  0  0
 32 72  1  0  0  0  0
 33 73  1  0  0  0  0
 33 78  2  0  0  0  0
 34 50  1  0  0  0  0
 34 74  1  0  0  0  0
 34 79  2  0  0  0  0
 35 64  1  0  0  0  0
 35 70  1  0  0  0  0
 35 80  2  0  0  0  0
 36 65  1  0  0  0  0
 36 75  1  0  0  0  0
 36 81  2  0  0  0  0
 37 71  1  0  0  0  0
 37 76  1  0  0  0  0
 37 82  2  0  0  0  0
 38 41  1  0  0  0  0
 39 50  1  0  0  0  0
 40 70  1  0  0  0  0
 41 43  1  0  0  0  0
 42 44  1  0  0  0  0
 42 47  1  0  0  0  0
 43 49  1  0  0  0  0
 44 51  1  0  0  0  0
 45 46  1  0  0  0  0
 45 52  1  0  0  0  0
 46 53  1  0  0  0  0
 47 71  1  0  0  0  0
 48 51  1  0  0  0  0
 48 71  1  0  0  0  0
 49 74  1  0  0  0  0
 50 70  1  0  0  0  0
 51 69  1  0  0  0  0
 52 54  1  0  0  0  0
 52 63  1  0  0  0  0
 53 55  1  0  0  0  0
 53 56  1  0  0  0  0
 57 65  1  0  0  0  0
 58 66  1  0  0  0  0
 59 66  1  0  0  0  0
 60 66  1  0  0  0  0
 61 77  1  0  0  0  0
 62 76  1  0  0  0  0
 63 84  1  0  0  0  0
 64 66  1  0  0  0  0
 64 75  1  0  0  0  0
 65 77  1  0  0  0  0
 68 69  1  0  0  0  0
M  CHG  1  77   1
M  ISO  4  37 100  63 101  76 100  84 101
M  END
> <Batch ID>
0171

> <Smiles>
CNC(C)C(=O)NC(C(=O)N1Cc2cc([101O:1][101CH2:1]C3(C)CCC(C)(C)c4ncc(C[100NH:0][100C:0](=O)N5CCCC(n6nc(-c7ccc(Oc8ccc(F)cc8F)cc7)c(C(N)=O)c6N)C5)cc43)ccc2CC1C(=O)NC1CCCc2ccccc21)C(C)(C)C

> <Shape>
0.235

> <Color>
0.065

> <Negative vol penalty>
0.000

$$$$

  -OEChem-04052322373D

 91101  0     1  0  0  0  0  0999 V2000
  -25.4201  -32.1621   24.3930 C   0  0  0  0  0  0  0  0  0  0  0  0
  -24.9311  -30.9465   23.9256 C   0  0  0  0  0  0  0  0  0  0  0  0
  -23.0391   -9.8538   19.9424 C   0  0  0  0  0  0  0  0  0  0  0  0
  -23.8290   -9.8272   22.2255 C   0  0  0  0  0  0  0  0  0  0  0  0
  -26.5086  -32.7632   23.7623 C   0  0  0  0  0  0  0  0  0  0  0  0
  -25.5297  -30.3317   22.8265 C   0  0  0  0  0  0  0  0  0  0  0  0
  -26.2464  -25.3680   23.5285 C   0  0  0  0  0  0  0  0  0  0  0  0
  -22.2923   -8.7015   20.1873 C   0  0  0  0  0  0  0  0  0  0  0  0
  -23.0821   -8.6749   22.4704 C   0  0  0  0  0  0  0  0  0  0  0  0
  -25.1367  -24.5371   23.3798 C   0  0  0  0  0  0  0  0  0  0  0  0
  -19.8578   -7.8865   23.1051 C   0  0  0  0  0  0  0  0  0  0  0  0
  -19.1160   -7.8355   24.2852 C   0  0  0  0  0  0  0  0  0  0  0  0
  -25.8783  -23.9543   21.1595 C   0  0  0  0  0  0  0  0  0  0  0  0
  -29.5298  -18.1883   19.7261 C   0  0  0  0  0  0  0  0  0  0  0  0
  -20.3563   -5.8822   24.9804 C   0  0  0  0  0  0  0  0  0  0  0  0
  -23.8076  -10.4167   20.9615 C   0  0  0  0  0  0  0  0  0  0  0  0
  -24.1616  -12.9413   20.8694 C   0  0  0  0  0  0  0  0  0  0  0  0
  -27.1270  -32.1507   22.6609 C   0  0  0  0  0  0  0  0  0  0  0  0
  -27.1761  -25.5069   22.4880 C   0  0  0  0  0  0  0  0  0  0  0  0
  -26.6267  -30.9258   22.1796 C   0  0  0  0  0  0  0  0  0  0  0  0
  -27.0003  -24.7855   21.2985 C   0  0  0  0  0  0  0  0  0  0  0  0
  -26.9185  -19.0434   20.0902 C   0  0  0  0  0  0  0  0  0  0  0  0
  -27.4559  -18.9252   18.8013 C   0  0  0  0  0  0  0  0  0  0  0  0
  -27.6812  -18.7449   21.2076 C   0  0  0  0  0  0  0  0  0  0  0  0
  -28.7606  -18.5050   18.6047 C   0  0  0  0  0  0  0  0  0  0  0  0
  -28.9941  -18.3076   21.0179 C   0  0  0  0  0  0  0  0  0  0  0  0
  -22.3137   -8.1121   21.4513 C   0  0  0  0  0  0  0  0  0  0  0  0
  -24.9510  -23.8323   22.1941 C   0  0  0  0  0  0  0  0  0  0  0  0
  -20.8488   -6.9353   22.8625 C   0  0  0  0  0  0  0  0  0  0  0  0
  -19.3653   -6.8334   25.2229 C   0  0  0  0  0  0  0  0  0  0  0  0
  -21.0981   -5.9332   23.8001 C   0  0  0  0  0  0  0  0  0  0  0  0
  -24.5797  -11.6066   20.7090 C   0  0  0  0  0  0  0  0  0  0  0  0
  -25.2530  -13.6896   20.5015 C   0  0  0  0  0  0  0  0  0  0  0  0
  -22.8996  -13.4584   21.3116 C   0  0  0  0  0  0  0  0  0  0  0  0
  -28.1826  -27.9250   20.6871 C   0  0  0  0  0  0  0  0  0  0  0  0
  -30.2917  -25.7188   19.5887 C   0  0  0  0  0  0  0  0  0  0  0  0
  -31.0485  -22.4277   19.0963 C   0  0  0  0  0  0  0  0  0  0  0  0
  -30.7443  -14.6769   20.6307 C   0  0  0  0  0  0  0  0  0  0  0  0
  -28.2711  -32.8618   21.9826 C   0  0  0  0  0  0  0  0  0  0  0  0
  -28.3820  -26.3864   22.6742 C   0  0  0  0  0  0  0  0  0  0  0  0
  -26.4624  -19.3519   17.7654 C   0  0  0  0  0  0  0  0  0  0  0  0
  -27.9801  -24.8842   20.1590 C   0  0  0  0  0  0  0  0  0  0  0  0
  -29.0844  -31.9614   21.0562 C   0  0  0  0  0  0  0  0  0  0  0  0
  -25.1497  -19.2650   18.5600 C   0  0  0  0  0  0  0  0  0  0  0  0
  -29.5625  -12.3295   18.2287 C   0  0  0  0  0  0  0  0  0  0  0  0
  -26.5275  -20.2133   22.9934 C   0  0  0  0  0  0  0  0  0  0  0  0
  -27.8240  -19.7533   23.5832 C   0  0  0  0  0  0  0  0  0  0  0  0
  -28.1598  -31.1361   20.1669 C   0  0  0  0  0  0  0  0  0  0  0  0
  -28.1292  -12.0379   18.6767 C   0  0  0  0  0  0  0  0  0  0  0  0
  -30.4965  -12.5299   19.4202 C   0  0  0  0  0  0  0  0  0  0  0  0
  -28.6171  -13.2531   20.8409 C   0  0  0  0  0  0  0  0  0  0  0  0
  -27.1099  -18.8878   22.5787 C   0  0  0  0  0  0  0  0  0  0  0  0
  -27.2647  -30.2157   21.0054 C   0  0  1  0  0  0  0  0  0  0  0  0
  -25.5167  -19.5655   20.0237 C   0  0  1  0  0  0  0  0  0  0  0  0
  -28.9926  -26.8504   21.3554 C   0  0  1  0  0  0  0  0  0  0  0  0
  -27.6266  -13.0990   19.6741 C   0  0  2  0  0  0  0  0  0  0  0  0
  -29.3420  -18.3845   17.2391 C   0  0  0  0  0  0  0  0  0  0  0  0
  -32.4219  -20.4225   18.4714 C   0  0  0  0  0  0  0  0  0  0  0  0
  -22.1940  -18.4405   21.3745 C   0  0  0  0  0  0  0  0  0  0  0  0
  -29.3479  -26.4035   16.7691 C   0  0  0  0  0  0  0  0  0  0  0  0
  -30.4186  -24.2857   15.9714 C   0  0  0  0  0  0  0  0  0  0  0  0
  -31.8177  -26.0807   16.9928 C   0  0  0  0  0  0  0  0  0  0  0  0
  -32.2033  -22.2270   21.8139 C   0  0  0  0  0  0  0  0  0  0  0  0
  -29.8573  -17.9512   22.1855 C   0  0  0  0  0  0  0  0  0  0  0  0
  -23.1150  -20.7683   21.7110 C   0  0  0  0  0  0  0  0  0  0  0  0
  -30.8381  -16.8109   21.8942 C   0  0  0  0  0  0  0  0  0  0  0  0
  -24.0207  -21.8830   21.1989 C   0  0  0  0  0  0  0  0  0  1  0  0
  -30.2936  -24.7061   18.4692 C   0  0  1  0  0  0  0  0  0  0  0  0
  -32.3047  -21.6279   19.3911 C   0  0  2  0  0  0  0  0  0  0  0  0
  -23.1722  -19.4924   20.8687 C   0  0  1  0  0  0  0  0  0  0  0  0
  -30.4498  -25.3684   17.0712 C   0  0  0  0  0  0  0  0  0  0  0  0
  -25.8385  -11.5095   20.2729 N   0  0  0  0  0  0  0  0  0  0  0  0
  -26.2207  -12.7926   20.1561 N   0  0  0  0  0  0  0  0  0  0  0  0
  -29.1398  -25.7620   20.3869 N   0  0  0  0  0  0  0  0  0  0  0  0
  -29.9632  -13.5498   20.3264 N   0  0  0  0  0  0  0  0  0  0  0  0
  -25.4698  -15.0207   20.4428 N   0  0  0  0  0  0  0  0  0  0  0  0
  -21.8872  -12.5503   21.6505 N   0  0  0  0  0  0  0  0  0  0  0  0
  -28.0098  -29.0598   21.4564 N   0  0  0  0  0  0  0  0  0  0  0  0
  -31.3387  -23.7412   18.7933 N   0  0  0  0  0  0  0  0  0  0  0  0
  -30.1613  -15.5980   21.4924 N   0  0  0  0  0  0  0  0  0  0  0  0
  -24.5420  -18.9101   20.9249 N   0  3  0  0  0  0  0  0  0  0  0  0
  -32.2918  -21.1441   20.8007 N   0  3  0  0  0  0  0  0  0  0  0  0
  -22.6709  -14.6894   21.3878 O   0  0  0  0  0  0  0  0  0  0  0  0
  -27.7478  -27.7390   19.5566 O   0  0  0  0  0  0  0  0  0  0  0  0
  -31.2789  -26.4399   19.7535 O   0  0  0  0  0  0  0  0  0  0  0  0
  -29.9228  -21.9355   19.1277 O   0  0  0  0  0  0  0  0  0  0  0  0
  -31.8752  -14.8522   20.1645 O   0  0  0  0  0  0  0  0  0  0  0  0
  -21.5849   -6.9878   21.6907 O   0  0  0  0  0  0  0  0  0  0  0  0
  -23.8684  -23.0212   22.0461 O   0  0  0  0  0  0  0  0  0  1  0  0
  -18.6539   -6.7854   26.3568 F   0  0  0  0  0  0  0  0  0  0  0  0
  -22.0496   -5.0173   23.5732 F   0  0  0  0  0  0  0  0  0  0  0  0
  1  2  1  0  0  0  0
  1  5  2  0  0  0  0
  2  6  2  0  0  0  0
  3  8  2  0  0  0  0
  3 16  1  0  0  0  0
  4  9  1  0  0  0  0
  4 16  2  0  0  0  0
  5 18  1  0  0  0  0
  6 20  1  0  0  0  0
  7 10  2  0  0  0  0
  7 19  1  0  0  0  0
  8 27  1  0  0  0  0
  9 27  2  0  0  0  0
 10 28  1  0  0  0  0
 11 12  2  0  0  0  0
 11 29  1  0  0  0  0
 12 30  1  0  0  0  0
 13 21  1  0  0  0  0
 13 28  2  0  0  0  0
 14 25  2  0  0  0  0
 14 26  1  0  0  0  0
 15 30  2  0  0  0  0
 15 31  1  0  0  0  0
 16 32  1  0  0  0  0
 17 32  1  0  0  0  0
 17 33  2  0  0  0  0
 17 34  1  0  0  0  0
 18 20  2  0  0  0  0
 18 39  1  0  0  0  0
 19 21  2  0  0  0  0
 19 40  1  0  0  0  0
 20 53  1  0  0  0  0
 21 42  1  0  0  0  0
 22 23  2  0  0  0  0
 22 24  1  0  0  0  0
 22 54  1  0  0  0  0
 23 25  1  0  0  0  0
 23 41  1  0  0  0  0
 24 26  2  0  0  0  0
 24 52  1  0  0  0  0
 25 57  1  0  0  0  0
 26 64  1  0  0  0  0
 27 88  1  0  0  0  0
 28 89  1  0  0  0  0
 29 31  2  0  0  0  0
 29 88  1  0  0  0  0
 30 90  1  0  0  0  0
 31 91  1  0  0  0  0
 32 72  2  0  0  0  0
 33 73  1  0  0  0  0
 33 76  1  0  0  0  0
 34 77  1  0  0  0  0
 34 83  2  0  0  0  0
 35 55  1  0  0  0  0
 35 78  1  0  0  0  0
 35 84  2  0  0  0  0
 36 68  1  0  0  0  0
 36 74  1  0  0  0  0
 36 85  2  0  0  0  0
 37 69  1  0  0  0  0
 37 79  1  0  0  0  0
 37 86  2  0  0  0  0
 38 75  1  0  0  0  0
 38 80  1  0  0  0  0
 38 87  2  0  0  0  0
 39 43  1  0  0  0  0
 40 55  1  0  0  0  0
 41 44  1  0  0  0  0
 42 74  1  0  0  0  0
 43 48  1  0  0  0  0
 44 54  1  0  0  0  0
 45 49  1  0  0  0  0
 45 50  1  0  0  0  0
 46 47  1  0  0  0  0
 46 52  1  0  0  0  0
 47 52  1  0  0  0  0
 48 53  1  0  0  0  0
 49 56  1  0  0  0  0
 50 75  1  0  0  0  0
 51 56  1  0  0  0  0
 51 75  1  0  0  0  0
 53 78  1  0  0  0  0
 54 81  1  0  0  0  0
 55 74  1  0  0  0  0
 56 73  1  0  0  0  0
 58 69  1  0  0  0  0
 59 70  1  0  0  0  0
 60 71  1  0  0  0  0
 61 71  1  0  0  0  0
 62 71  1  0  0  0  0
 63 82  1  0  0  0  0
 64 66  1  0  0  0  0
 65 67  1  0  0  0  0
 65 70  1  0  0  0  0
 66 80  1  0  0  0  0
 67 89  1  0  0  0  0
 68 71  1  0  0  0  0
 68 79  1  0  0  0  0
 69 82  1  0  0  0  0
 70 81  1  0  0  0  0
 72 73  1  0  0  0  0
M  CHG  2  81   1  82   1
M  ISO  4  38 100  67 101  80 100  89 101
M  END
> <Batch ID>
0171

> <Smiles>
CNC(C)C(=O)NC(C(=O)N1Cc2cc([101O:1][101CH2:1]CC(C)NC3CCc4c(C)cc(CC[100NH:0][100C:0](=O)N5CCCC(n6nc(-c7ccc(Oc8ccc(F)cc8F)cc7)c(C(N)=O)c6N)C5)c(C5CC5)c43)ccc2CC1C(=O)NC1CCCc2ccccc21)C(C)(C)C

> <Shape>
0.333

> <Color>
0.201

> <Negative vol penalty>
0.000

$$$$

  -OEChem-04052322373D

 89 98  0     1  0  0  0  0  0999 V2000
  -21.7420   -7.6757   24.3464 C   0  0  0  0  0  0  0  0  0  0  0  0
  -22.9806   -8.2098   24.6870 C   0  0  0  0  0  0  0  0  0  0  0  0
  -26.7168  -27.1108   22.4580 C   0  0  0  0  0  0  0  0  0  0  0  0
  -25.3795  -27.4598   20.4763 C   0  0  0  0  0  0  0  0  0  0  0  0
  -21.2600   -7.8107   23.0451 C   0  0  0  0  0  0  0  0  0  0  0  0
  -23.7384   -8.8783   23.7262 C   0  0  0  0  0  0  0  0  0  0  0  0
  -28.3859  -14.2880   23.0534 C   0  0  0  0  0  0  0  0  0  0  0  0
  -25.6971  -27.6514   23.2413 C   0  0  0  0  0  0  0  0  0  0  0  0
  -24.3597  -28.0003   21.2597 C   0  0  0  0  0  0  0  0  0  0  0  0
  -29.6484  -14.5646   22.5305 C   0  0  0  0  0  0  0  0  0  0  0  0
  -21.8923  -26.8594   23.2673 C   0  0  0  0  0  0  0  0  0  0  0  0
  -20.5873  -26.4398   23.0093 C   0  0  0  0  0  0  0  0  0  0  0  0
  -28.6795  -14.8057   20.3346 C   0  0  0  0  0  0  0  0  0  0  0  0
  -19.9518  -28.7184   22.5180 C   0  0  0  0  0  0  0  0  0  0  0  0
  -26.5580  -27.0150   21.0754 C   0  0  0  0  0  0  0  0  0  0  0  0
  -28.9307  -26.9321   20.1421 C   0  0  0  0  0  0  0  0  0  0  0  0
  -22.0080   -8.4895   22.0702 C   0  0  0  0  0  0  0  0  0  0  0  0
  -27.2604  -14.2574   22.2174 C   0  0  0  0  0  0  0  0  0  0  0  0
  -23.2666   -9.0213   22.4102 C   0  0  0  0  0  0  0  0  0  0  0  0
  -27.4035  -14.5310   20.8497 C   0  0  0  0  0  0  0  0  0  0  0  0
  -28.7366  -18.8912   23.3456 C   0  0  0  0  0  0  0  0  0  0  0  0
  -30.0641  -18.9075   23.7734 C   0  0  0  0  0  0  0  0  0  0  0  0
  -28.4434  -18.8735   21.9820 C   0  0  0  0  0  0  0  0  0  0  0  0
  -31.0985  -18.9064   22.8376 C   0  0  0  0  0  0  0  0  0  0  0  0
  -29.4778  -18.8724   21.0462 C   0  0  0  0  0  0  0  0  0  0  0  0
  -30.8053  -18.8888   21.4740 C   0  0  0  0  0  0  0  0  0  0  0  0
  -24.5186  -28.0961   22.6422 C   0  0  0  0  0  0  0  0  0  0  0  0
  -29.7958  -14.8207   21.1705 C   0  0  0  0  0  0  0  0  0  0  0  0
  -22.2270  -28.2085   23.1506 C   0  0  0  0  0  0  0  0  0  0  0  0
  -19.6171  -27.3693   22.6347 C   0  0  0  0  0  0  0  0  0  0  0  0
  -21.2568  -29.1380   22.7759 C   0  0  0  0  0  0  0  0  0  0  0  0
  -27.6112  -26.4573   20.2656 C   0  0  0  0  0  0  0  0  0  0  0  0
  -29.5278  -26.0621   19.2628 C   0  0  0  0  0  0  0  0  0  0  0  0
  -29.5604  -28.0587   20.7665 C   0  0  0  0  0  0  0  0  0  0  0  0
  -25.1403  -12.0382   21.3903 C   0  0  0  0  0  0  0  0  0  0  0  0
  -23.7010  -14.5284   19.8904 C   0  0  0  0  0  0  0  0  0  0  0  0
  -23.9956  -17.6188   18.4729 C   0  0  0  0  0  0  0  0  0  0  0  0
  -28.4152  -20.3719   17.7682 C   0  0  0  0  0  0  0  0  0  0  0  0
  -21.4667   -8.5689   20.6648 C   0  0  0  0  0  0  0  0  0  0  0  0
  -25.9016  -13.9837   22.8015 C   0  0  0  0  0  0  0  0  0  0  0  0
  -26.2239  -14.5303   19.9132 C   0  0  0  0  0  0  0  0  0  0  0  0
  -22.1642   -9.6173   19.8018 C   0  0  0  0  0  0  0  0  0  0  0  0
  -28.5178  -23.1791   15.5806 C   0  0  0  0  0  0  0  0  0  0  0  0
  -34.0905  -16.8124   18.6415 C   0  0  0  0  0  0  0  0  0  0  0  0
  -23.6783   -9.5122   19.9536 C   0  0  0  0  0  0  0  0  0  0  0  0
  -28.4162  -24.3804   16.5221 C   0  0  0  0  0  0  0  0  0  0  0  0
  -33.7096  -15.7678   19.6717 C   0  0  0  0  0  0  0  0  0  0  0  0
  -27.6661  -22.0081   16.0658 C   0  0  0  0  0  0  0  0  0  0  0  0
  -27.8224  -22.7903   18.3977 C   0  0  0  0  0  0  0  0  0  0  0  0
  -32.8242  -17.6302   18.4753 C   0  0  0  0  0  0  0  0  0  0  0  0
  -24.1071   -9.7748   21.4023 C   0  0  1  0  0  0  0  0  0  0  0  0
  -24.9002  -13.4719   21.7706 C   0  0  1  0  0  0  0  0  0  0  0  0
  -28.7081  -23.9766   17.9798 C   0  0  2  0  0  0  0  0  0  0  0  0
  -32.9115  -16.5729   20.6864 C   0  0  2  0  0  0  0  0  0  0  0  0
  -27.6268  -18.8926   24.3494 C   0  0  0  0  0  0  0  0  0  0  0  0
  -30.3783  -18.9264   25.2363 C   0  0  0  0  0  0  0  0  0  0  0  0
  -27.0193  -18.8569   21.5229 C   0  0  0  0  0  0  0  0  0  0  0  0
  -32.5224  -18.9271   23.2969 C   0  0  0  0  0  0  0  0  0  0  0  0
  -23.2674  -19.7685   17.4024 C   0  0  0  0  0  0  0  0  0  0  0  0
  -23.7262  -12.8471   17.3444 C   0  0  0  0  0  0  0  0  0  0  0  0
  -23.2756  -14.9377   16.0426 C   0  0  0  0  0  0  0  0  0  0  0  0
  -21.6161  -14.1350   17.7232 C   0  0  0  0  0  0  0  0  0  0  0  0
  -23.5935  -18.9249   21.0981 C   0  0  0  0  0  0  0  0  0  0  0  0
  -29.1638  -18.8538   19.5832 C   0  0  0  0  0  0  0  0  0  0  0  0
  -31.9183  -18.8893   20.4679 C   0  0  0  0  0  0  0  0  0  0  0  0
  -31.9647  -15.7308   21.5216 C   0  0  0  0  0  0  0  0  0  1  0  0
  -23.7932  -15.1467   18.5163 C   0  0  1  0  0  0  0  0  0  0  0  0
  -23.1734  -18.8845   18.6363 C   0  0  2  0  0  0  0  0  0  0  0  0
  -23.1255  -14.2648   17.4237 C   0  0  0  0  0  0  0  0  0  0  0  0
  -27.3828  -25.3702   19.5240 N   0  0  0  0  0  0  0  0  0  0  0  0
  -28.5669  -25.1547   18.9260 N   0  0  0  0  0  0  0  0  0  0  0  0
  -24.9170  -14.2511   20.5310 N   0  0  0  0  0  0  0  0  0  0  0  0
  -27.9931  -21.6743   17.4542 N   0  0  0  0  0  0  0  0  0  0  0  0
  -30.7756  -25.9926   18.7526 N   0  0  0  0  0  0  0  0  0  0  0  0
  -29.5084  -29.2988   20.1155 N   0  0  0  0  0  0  0  0  0  0  0  0
  -24.0872  -11.1938   21.6860 N   0  0  0  0  0  0  0  0  0  0  0  0
  -23.2261  -16.4858   18.6323 N   0  0  0  0  0  0  0  0  0  0  0  0
  -28.7111  -20.1416   19.1061 N   0  0  0  0  0  0  0  0  0  0  0  0
  -32.1279  -17.5528   19.8237 N   0  3  1  0  0  0  0  0  0  0  0  0
  -23.6527  -19.6654   19.8116 N   0  3  0  0  0  0  0  0  0  0  0  0
  -30.1658  -27.9649   21.8611 O   0  0  0  0  0  0  0  0  0  0  0  0
  -26.2018  -11.7218   20.8660 O   0  0  0  0  0  0  0  0  0  0  0  0
  -22.5910  -14.3066   20.3805 O   0  0  0  0  0  0  0  0  0  0  0  0
  -25.1992  -17.6338   18.2247 O   0  0  0  0  0  0  0  0  0  0  0  0
  -28.5256  -19.4818   16.9182 O   0  0  0  0  0  0  0  0  0  0  0  0
  -23.5233  -28.6234   23.4063 O   0  0  0  0  0  0  0  0  0  0  0  0
  -31.0271  -15.0903   20.6574 O   0  0  0  0  0  0  0  0  0  1  0  0
  -18.3643  -26.9660   22.3855 F   0  0  0  0  0  0  0  0  0  0  0  0
  -21.5727  -30.4352   22.6611 F   0  0  0  0  0  0  0  0  0  0  0  0
  1  2  1  0  0  0  0
  1  5  2  0  0  0  0
  2  6  2  0  0  0  0
  3  8  2  0  0  0  0
  3 15  1  0  0  0  0
  4  9  1  0  0  0  0
  4 15  2  0  0  0  0
  5 17  1  0  0  0  0
  6 19  1  0  0  0  0
  7 10  2  0  0  0  0
  7 18  1  0  0  0  0
  8 27  1  0  0  0  0
  9 27  2  0  0  0  0
 10 28  1  0  0  0  0
 11 12  2  0  0  0  0
 11 29  1  0  0  0  0
 12 30  1  0  0  0  0
 13 20  1  0  0  0  0
 13 28  2  0  0  0  0
 14 30  2  0  0  0  0
 14 31  1  0  0  0  0
 15 32  1  0  0  0  0
 16 32  1  0  0  0  0
 16 33  2  0  0  0  0
 16 34  1  0  0  0  0
 17 19  2  0  0  0  0
 17 39  1  0  0  0  0
 18 20  2  0  0  0  0
 18 40  1  0  0  0  0
 19 51  1  0  0  0  0
 20 41  1  0  0  0  0
 21 22  1  0  0  0  0
 21 23  2  0  0  0  0
 21 55  1  0  0  0  0
 22 24  2  0  0  0  0
 22 56  1  0  0  0  0
 23 25  1  0  0  0  0
 23 57  1  0  0  0  0
 24 26  1  0  0  0  0
 24 58  1  0  0  0  0
 25 26  2  0  0  0  0
 25 64  1  0  0  0  0
 26 65  1  0  0  0  0
 27 86  1  0  0  0  0
 28 87  1  0  0  0  0
 29 31  2  0  0  0  0
 29 86  1  0  0  0  0
 30 88  1  0  0  0  0
 31 89  1  0  0  0  0
 32 70  2  0  0  0  0
 33 71  1  0  0  0  0
 33 74  1  0  0  0  0
 34 75  1  0  0  0  0
 34 81  2  0  0  0  0
 35 52  1  0  0  0  0
 35 76  1  0  0  0  0
 35 82  2  0  0  0  0
 36 67  1  0  0  0  0
 36 72  1  0  0  0  0
 36 83  2  0  0  0  0
 37 68  1  0  0  0  0
 37 77  1  0  0  0  0
 37 84  2  0  0  0  0
 38 73  1  0  0  0  0
 38 78  1  0  0  0  0
 38 85  2  0  0  0  0
 39 42  1  0  0  0  0
 40 52  1  0  0  0  0
 41 72  1  0  0  0  0
 42 45  1  0  0  0  0
 43 46  1  0  0  0  0
 43 48  1  0  0  0  0
 44 47  1  0  0  0  0
 44 50  1  0  0  0  0
 45 51  1  0  0  0  0
 46 53  1  0  0  0  0
 47 54  1  0  0  0  0
 48 73  1  0  0  0  0
 49 53  1  0  0  0  0
 49 73  1  0  0  0  0
 50 79  1  0  0  0  0
 51 76  1  0  0  0  0
 52 72  1  0  0  0  0
 53 71  1  0  0  0  0
 54 66  1  0  0  0  0
 54 79  1  0  0  0  0
 59 68  1  0  0  0  0
 60 69  1  0  0  0  0
 61 69  1  0  0  0  0
 62 69  1  0  0  0  0
 63 80  1  0  0  0  0
 64 78  1  0  0  0  0
 65 79  1  0  0  0  0
 66 87  1  0  0  0  0
 67 69  1  0  0  0  0
 67 77  1  0  0  0  0
 68 80  1  0  0  0  0
 70 71  1  0  0  0  0
M  CHG  2  79   1  80   1
M  ISO  4  38 100  66 101  78 100  87 101
M  END
> <Batch ID>
0171

> <Smiles>
CNC(C)C(=O)NC(C(=O)N1Cc2cc([101O:1][101CH2:1]C3CCCN3Cc3c(C)c(C)c(C)c(C)c3C[100NH:0][100C:0](=O)N3CCCC(n4nc(-c5ccc(Oc6ccc(F)cc6F)cc5)c(C(N)=O)c4N)C3)ccc2CC1C(=O)NC1CCCc2ccccc21)C(C)(C)C

> <Shape>
0.248

> <Color>
0.083

> <Negative vol penalty>
0.000

$$$$

  -OEChem-04052322373D

 87 96  0     1  0  0  0  0  0999 V2000
  -26.6379  -38.0659   22.0807 C   0  0  0  0  0  0  0  0  0  0  0  0
  -27.2543  -37.1048   21.2858 C   0  0  0  0  0  0  0  0  0  0  0  0
  -27.6298   -8.2644   23.7999 C   0  0  0  0  0  0  0  0  0  0  0  0
  -27.6400   -6.9252   21.7891 C   0  0  0  0  0  0  0  0  0  0  0  0
  -25.9799  -37.6848   23.2493 C   0  0  0  0  0  0  0  0  0  0  0  0
  -27.2139  -35.7620   21.6598 C   0  0  0  0  0  0  0  0  0  0  0  0
  -26.9668  -29.1845   18.8330 C   0  0  0  0  0  0  0  0  0  0  0  0
  -26.7325   -7.3735   24.3887 C   0  0  0  0  0  0  0  0  0  0  0  0
  -26.7426   -6.0343   22.3778 C   0  0  0  0  0  0  0  0  0  0  0  0
  -27.6273  -27.9584   18.8986 C   0  0  0  0  0  0  0  0  0  0  0  0
  -24.1770   -3.6013   23.2191 C   0  0  0  0  0  0  0  0  0  0  0  0
  -23.0961   -3.1677   22.4515 C   0  0  0  0  0  0  0  0  0  0  0  0
  -26.3938  -27.4076   20.8971 C   0  0  0  0  0  0  0  0  0  0  0  0
  -29.5309  -23.6025   21.9110 C   0  0  0  0  0  0  0  0  0  0  0  0
  -22.3399   -5.4512   22.2264 C   0  0  0  0  0  0  0  0  0  0  0  0
  -28.0836   -8.0403   22.5001 C   0  0  0  0  0  0  0  0  0  0  0  0
  -30.4161   -8.9050   21.9350 C   0  0  0  0  0  0  0  0  0  0  0  0
  -25.9232  -36.3356   23.6328 C   0  0  0  0  0  0  0  0  0  0  0  0
  -26.0211  -29.5364   19.8068 C   0  0  0  0  0  0  0  0  0  0  0  0
  -26.5557  -35.3627   22.8354 C   0  0  0  0  0  0  0  0  0  0  0  0
  -25.7207  -28.6375   20.8402 C   0  0  0  0  0  0  0  0  0  0  0  0
  -28.4729  -23.7753   21.0255 C   0  0  0  0  0  0  0  0  0  0  0  0
  -26.2889   -6.2585   23.6777 C   0  0  0  0  0  0  0  0  0  0  0  0
  -27.3430  -27.0710   19.9324 C   0  0  0  0  0  0  0  0  0  0  0  0
  -24.3393   -4.9599   23.4904 C   0  0  0  0  0  0  0  0  0  0  0  0
  -30.2989  -22.4451   21.8505 C   0  0  0  0  0  0  0  0  0  0  0  0
  -22.1775   -4.0926   21.9551 C   0  0  0  0  0  0  0  0  0  0  0  0
  -23.4208   -5.8848   22.9941 C   0  0  0  0  0  0  0  0  0  0  0  0
  -29.0101   -8.9605   21.8911 C   0  0  0  0  0  0  0  0  0  0  0  0
  -28.2262  -22.7690   20.1056 C   0  0  0  0  0  0  0  0  0  0  0  0
  -29.9704  -21.4982   20.8938 C   0  0  0  0  0  0  0  0  0  0  0  0
  -30.8257   -9.9966   21.2090 C   0  0  0  0  0  0  0  0  0  0  0  0
  -31.2751   -7.9517   22.5747 C   0  0  0  0  0  0  0  0  0  0  0  0
  -25.7832  -31.8550   21.9680 C   0  0  0  0  0  0  0  0  0  0  0  0
  -22.8407  -30.5759   22.4455 C   0  0  0  0  0  0  0  0  0  0  0  0
  -20.7928  -27.8553   22.2192 C   0  0  0  0  0  0  0  0  0  0  0  0
  -30.5996  -15.1795   19.8333 C   0  0  0  0  0  0  0  0  0  0  0  0
  -25.2409  -35.9775   24.9293 C   0  0  0  0  0  0  0  0  0  0  0  0
  -25.2978  -30.8514   19.7068 C   0  0  0  0  0  0  0  0  0  0  0  0
  -24.6990  -28.9592   21.8990 C   0  0  0  0  0  0  0  0  0  0  0  0
  -24.9226  -34.4902   25.0595 C   0  0  0  0  0  0  0  0  0  0  0  0
  -28.2330  -13.1432   18.2264 C   0  0  0  0  0  0  0  0  0  0  0  0
  -26.1304  -33.6488   24.6595 C   0  0  0  0  0  0  0  0  0  0  0  0
  -28.3346  -11.8563   19.0447 C   0  0  0  0  0  0  0  0  0  0  0  0
  -29.3272  -18.4186   20.3598 C   0  0  0  0  0  0  0  0  0  0  0  0
  -31.7690  -18.4392   19.7234 C   0  0  0  0  0  0  0  0  0  0  0  0
  -28.3025  -14.3907   19.1091 C   0  0  0  0  0  0  0  0  0  0  0  0
  -29.1189  -17.2018   19.4534 C   0  0  0  0  0  0  0  0  0  0  0  0
  -31.5074  -17.2440   18.8111 C   0  0  0  0  0  0  0  0  0  0  0  0
  -29.5866  -13.1443   20.8168 C   0  0  0  0  0  0  0  0  0  0  0  0
  -26.5124  -33.8933   23.1946 C   0  0  1  0  0  0  0  0  0  0  0  0
  -24.7274  -31.3225   21.0410 C   0  0  1  0  0  0  0  0  0  0  0  0
  -29.5783  -11.8748   19.9511 C   0  0  1  0  0  0  0  0  0  0  0  0
  -30.4997  -19.2798   19.8845 C   0  0  0  0  0  0  0  0  0  0  0  0
  -27.1030  -22.9005   19.1298 C   0  0  0  0  0  0  0  0  0  0  0  0
  -18.4519  -27.1044   22.7231 C   0  0  0  0  0  0  0  0  0  0  0  0
  -23.5437  -30.3808   25.4082 C   0  0  0  0  0  0  0  0  0  0  0  0
  -21.6238  -28.7985   25.6881 C   0  0  0  0  0  0  0  0  0  0  0  0
  -21.2080  -31.1410   24.9381 C   0  0  0  0  0  0  0  0  0  0  0  0
  -20.2408  -27.2773   19.3696 C   0  0  0  0  0  0  0  0  0  0  0  0
  -31.5757  -23.3188   23.6566 C   0  0  0  0  0  0  0  0  0  0  0  0
  -27.6464  -25.0131   21.0853 C   0  0  0  0  0  0  0  0  0  1  0  0
  -22.2755  -29.4987   23.3395 C   0  0  1  0  0  0  0  0  0  0  0  0
  -19.3834  -27.6977   21.6776 C   0  0  2  0  0  0  0  0  0  0  0  0
  -22.1834  -29.9492   24.8248 C   0  0  0  0  0  0  0  0  0  0  0  0
  -28.5569  -10.0049   21.1927 N   0  0  0  0  0  0  0  0  0  0  0  0
  -28.9503  -21.6308   20.0166 N   0  0  0  0  0  0  0  0  0  0  0  0
  -29.6846  -10.6158   20.7911 N   0  0  0  0  0  0  0  0  0  0  0  0
  -24.0231  -30.2599   21.7614 N   0  0  0  0  0  0  0  0  0  0  0  0
  -29.4825  -14.3442   19.9837 N   0  0  0  0  0  0  0  0  0  0  0  0
  -30.3734  -16.4532   19.2906 N   0  0  0  0  0  0  0  0  0  0  0  0
  -32.0470  -10.4778   20.8939 N   0  0  0  0  0  0  0  0  0  0  0  0
  -30.6890   -6.8912   23.2789 N   0  0  0  0  0  0  0  0  0  0  0  0
  -30.7341  -20.3461   20.8332 N   0  0  0  0  0  0  0  0  0  0  0  0
  -25.6122  -33.1824   22.3122 N   0  0  0  0  0  0  0  0  0  0  0  0
  -20.9976  -29.1102   22.7527 N   0  0  0  0  0  0  0  0  0  0  0  0
  -19.3835  -26.8026   20.4861 N   0  3  0  0  0  0  0  0  0  0  0  0
  -32.5253   -8.0471   22.5371 O   0  0  0  0  0  0  0  0  0  0  0  0
  -26.6853  -31.1160   22.3444 O   0  0  0  0  0  0  0  0  0  0  0  0
  -22.2509  -31.6552   22.3518 O   0  0  0  0  0  0  0  0  0  0  0  0
  -21.6273  -26.9540   22.1768 O   0  0  0  0  0  0  0  0  0  0  0  0
  -31.7328  -14.8092   20.1647 O   0  0  0  0  0  0  0  0  0  0  0  0
  -25.4134   -5.3888   24.2520 O   0  0  0  0  0  0  0  0  0  0  0  0
  -31.3331  -22.2736   22.7144 O   0  0  0  0  0  0  0  0  0  0  0  0
  -27.9911  -25.8659   19.9996 O   0  0  0  0  0  0  0  0  0  1  0  0
  -21.1405   -3.6762   21.2167 F   0  0  0  0  0  0  0  0  0  0  0  0
  -23.5721   -7.1914   23.2504 F   0  0  0  0  0  0  0  0  0  0  0  0
  1  2  1  0  0  0  0
  1  5  2  0  0  0  0
  2  6  2  0  0  0  0
  3  8  2  0  0  0  0
  3 16  1  0  0  0  0
  4  9  1  0  0  0  0
  4 16  2  0  0  0  0
  5 18  1  0  0  0  0
  6 20  1  0  0  0  0
  7 10  2  0  0  0  0
  7 19  1  0  0  0  0
  8 23  1  0  0  0  0
  9 23  2  0  0  0  0
 10 24  1  0  0  0  0
 11 12  2  0  0  0  0
 11 25  1  0  0  0  0
 12 27  1  0  0  0  0
 13 21  1  0  0  0  0
 13 24  2  0  0  0  0
 14 22  1  0  0  0  0
 14 26  2  0  0  0  0
 15 27  2  0  0  0  0
 15 28  1  0  0  0  0
 16 29  1  0  0  0  0
 17 29  1  0  0  0  0
 17 32  2  0  0  0  0
 17 33  1  0  0  0  0
 18 20  2  0  0  0  0
 18 38  1  0  0  0  0
 19 21  2  0  0  0  0
 19 39  1  0  0  0  0
 20 51  1  0  0  0  0
 21 40  1  0  0  0  0
 22 30  2  0  0  0  0
 22 62  1  0  0  0  0
 23 83  1  0  0  0  0
 24 85  1  0  0  0  0
 25 28  2  0  0  0  0
 25 83  1  0  0  0  0
 26 31  1  0  0  0  0
 26 84  1  0  0  0  0
 27 86  1  0  0  0  0
 28 87  1  0  0  0  0
 29 66  2  0  0  0  0
 30 55  1  0  0  0  0
 30 67  1  0  0  0  0
 31 67  2  0  0  0  0
 31 74  1  0  0  0  0
 32 68  1  0  0  0  0
 32 72  1  0  0  0  0
 33 73  1  0  0  0  0
 33 78  2  0  0  0  0
 34 52  1  0  0  0  0
 34 75  1  0  0  0  0
 34 79  2  0  0  0  0
 35 63  1  0  0  0  0
 35 69  1  0  0  0  0
 35 80  2  0  0  0  0
 36 64  1  0  0  0  0
 36 76  1  0  0  0  0
 36 81  2  0  0  0  0
 37 70  1  0  0  0  0
 37 71  1  0  0  0  0
 37 82  2  0  0  0  0
 38 41  1  0  0  0  0
 39 52  1  0  0  0  0
 40 69  1  0  0  0  0
 41 43  1  0  0  0  0
 42 44  1  0  0  0  0
 42 47  1  0  0  0  0
 43 51  1  0  0  0  0
 44 53  1  0  0  0  0
 45 48  1  0  0  0  0
 45 54  1  0  0  0  0
 46 49  1  0  0  0  0
 46 54  1  0  0  0  0
 47 70  1  0  0  0  0
 48 71  1  0  0  0  0
 49 71  1  0  0  0  0
 50 53  1  0  0  0  0
 50 70  1  0  0  0  0
 51 75  1  0  0  0  0
 52 69  1  0  0  0  0
 53 68  1  0  0  0  0
 54 74  1  0  0  0  0
 56 64  1  0  0  0  0
 57 65  1  0  0  0  0
 58 65  1  0  0  0  0
 59 65  1  0  0  0  0
 60 77  1  0  0  0  0
 61 84  1  0  0  0  0
 62 85  1  0  0  0  0
 63 65  1  0  0  0  0
 63 76  1  0  0  0  0
 64 77  1  0  0  0  0
 66 68  1  0  0  0  0
M  CHG  1  77   1
M  ISO  4  37 100  62 101  71 100  85 101
M  END
> <Batch ID>
0171

> <Smiles>
CNC(C)C(=O)NC(C(=O)N1Cc2cc([101O:1][101CH2:1]c3cc(OC)c(NC4CC[100N:0]([100C:0](=O)N5CCCC(n6nc(-c7ccc(Oc8ccc(F)cc8F)cc7)c(C(N)=O)c6N)C5)CC4)nc3C)ccc2CC1C(=O)NC1CCCc2ccccc21)C(C)(C)C

> <Shape>
0.280

> <Color>
0.089

> <Negative vol penalty>
0.000

$$$$

  -OEChem-04052322373D

 88 98  0     1  0  0  0  0  0999 V2000
  -31.4419  -28.8644   13.8686 C   0  0  0  0  0  0  0  0  0  0  0  0
  -30.1602  -28.3481   14.0302 C   0  0  0  0  0  0  0  0  0  0  0  0
  -23.2305  -10.0309   19.8089 C   0  0  0  0  0  0  0  0  0  0  0  0
  -23.8303   -9.8339   22.1410 C   0  0  0  0  0  0  0  0  0  0  0  0
  -32.3698  -28.7604   14.9040 C   0  0  0  0  0  0  0  0  0  0  0  0
  -29.8060  -27.7264   15.2271 C   0  0  0  0  0  0  0  0  0  0  0  0
  -23.0344  -18.7482   18.7060 C   0  0  0  0  0  0  0  0  0  0  0  0
  -24.2545  -18.1682   18.3524 C   0  0  0  0  0  0  0  0  0  0  0  0
  -24.3194  -27.8291   17.9459 C   0  0  0  0  0  0  0  0  0  0  0  0
  -22.5127   -8.8379   19.8927 C   0  0  0  0  0  0  0  0  0  0  0  0
  -23.1124   -8.6409   22.2248 C   0  0  0  0  0  0  0  0  0  0  0  0
  -23.2630  -26.9195   17.9612 C   0  0  0  0  0  0  0  0  0  0  0  0
  -23.5590   -5.3996   21.3730 C   0  0  0  0  0  0  0  0  0  0  0  0
  -24.1598   -4.3267   22.0314 C   0  0  0  0  0  0  0  0  0  0  0  0
  -24.0769  -26.0184   20.0457 C   0  0  0  0  0  0  0  0  0  0  0  0
  -22.3401   -4.2826   23.6200 C   0  0  0  0  0  0  0  0  0  0  0  0
  -23.8893  -10.5289   20.9331 C   0  0  0  0  0  0  0  0  0  0  0  0
  -24.1485  -13.0624   21.0813 C   0  0  0  0  0  0  0  0  0  0  0  0
  -32.0238  -28.1457   16.1177 C   0  0  0  0  0  0  0  0  0  0  0  0
  -22.8172  -20.0751   18.3740 C   0  0  0  0  0  0  0  0  0  0  0  0
  -25.2703  -27.8330   18.9766 C   0  0  0  0  0  0  0  0  0  0  0  0
  -30.7306  -27.6128   16.2792 C   0  0  0  0  0  0  0  0  0  0  0  0
  -25.2283  -18.9117   17.6673 C   0  0  0  0  0  0  0  0  0  0  0  0
  -25.1430  -26.9308   20.0424 C   0  0  0  0  0  0  0  0  0  0  0  0
  -23.7875  -20.8159   17.6908 C   0  0  0  0  0  0  0  0  0  0  0  0
  -24.9956  -20.2456   17.3258 C   0  0  0  0  0  0  0  0  0  0  0  0
  -22.4537   -8.1429   21.1007 C   0  0  0  0  0  0  0  0  0  0  0  0
  -23.1432  -26.0120   19.0097 C   0  0  0  0  0  0  0  0  0  0  0  0
  -22.3488   -5.9141   21.8381 C   0  0  0  0  0  0  0  0  0  0  0  0
  -23.5504   -3.7682   23.1548 C   0  0  0  0  0  0  0  0  0  0  0  0
  -21.7393   -5.3555   22.9616 C   0  0  0  0  0  0  0  0  0  0  0  0
  -24.6314  -11.7610   20.8470 C   0  0  0  0  0  0  0  0  0  0  0  0
  -25.2357  -13.8751   20.8712 C   0  0  0  0  0  0  0  0  0  0  0  0
  -22.8347  -13.4978   21.4555 C   0  0  0  0  0  0  0  0  0  0  0  0
  -28.4057  -27.3362   19.1377 C   0  0  0  0  0  0  0  0  0  0  0  0
  -27.9968  -28.2412   22.2258 C   0  0  0  0  0  0  0  0  0  0  0  0
  -25.8976  -28.5607   24.8975 C   0  0  0  0  0  0  0  0  0  0  0  0
  -29.6889  -15.4077   18.0902 C   0  0  0  0  0  0  0  0  0  0  0  0
  -33.0755  -28.0148   17.1908 C   0  0  0  0  0  0  0  0  0  0  0  0
  -26.3889  -28.8384   18.9591 C   0  0  0  0  0  0  0  0  0  0  0  0
  -21.5874  -20.8930   18.6130 C   0  0  0  0  0  0  0  0  0  0  0  0
  -23.3017  -22.2018   17.4051 C   0  0  0  0  0  0  0  0  0  0  0  0
  -26.1258  -26.9076   21.1835 C   0  0  0  0  0  0  0  0  0  0  0  0
  -32.5044  -27.6743   18.5649 C   0  0  0  0  0  0  0  0  0  0  0  0
  -30.1281  -12.7668   20.2775 C   0  0  0  0  0  0  0  0  0  0  0  0
  -31.4860  -26.5441   18.4547 C   0  0  0  0  0  0  0  0  0  0  0  0
  -28.7010  -12.3645   20.6499 C   0  0  0  0  0  0  0  0  0  0  0  0
  -27.6122  -18.4557   18.3940 C   0  0  0  0  0  0  0  0  0  0  0  0
  -26.3585  -16.7377   17.0238 C   0  0  0  0  0  0  0  0  0  0  0  0
  -30.2333  -13.0956   18.7926 C   0  0  0  0  0  0  0  0  0  0  0  0
  -28.9196  -17.7524   18.0372 C   0  0  0  0  0  0  0  0  0  0  0  0
  -27.6933  -16.0747   16.6965 C   0  0  0  0  0  0  0  0  0  0  0  0
  -27.8559  -13.7700   18.7071 C   0  0  0  0  0  0  0  0  0  0  0  0
  -26.5407  -18.2385   17.3117 C   0  0  0  0  0  0  0  0  0  0  0  0
  -30.3009  -26.9534   17.5717 C   0  0  1  0  0  0  0  0  0  0  0  0
  -27.5894  -28.4112   19.7979 C   0  0  1  0  0  0  0  0  0  0  0  0
  -22.1267  -22.3238   18.3991 C   0  0  1  0  0  0  0  0  0  0  0  0
  -27.6910  -13.4362   20.2033 C   0  0  1  0  0  0  0  0  0  0  0  0
  -26.0194  -21.0419   16.5899 C   0  0  0  0  0  0  0  0  0  0  0  0
  -25.8604  -29.2956   27.2967 C   0  0  0  0  0  0  0  0  0  0  0  0
  -29.3892  -25.6507   23.0384 C   0  0  0  0  0  0  0  0  0  0  0  0
  -28.4901  -25.9751   25.3525 C   0  0  0  0  0  0  0  0  0  0  0  0
  -30.0535  -27.6563   24.3767 C   0  0  0  0  0  0  0  0  0  0  0  0
  -23.9130  -30.6836   24.3374 C   0  0  0  0  0  0  0  0  0  0  0  0
  -21.0532  -23.2888   17.9211 C   0  0  0  0  0  0  0  0  0  0  0  0
  -21.6037  -24.6923   17.7670 C   0  0  0  0  0  0  0  0  0  1  0  0
  -27.6796  -27.5254   23.5166 C   0  0  1  0  0  0  0  0  0  0  0  0
  -25.6487  -29.7158   25.8505 C   0  0  2  0  0  0  0  0  0  0  0  0
  -28.8855  -26.7008   24.0487 C   0  0  0  0  0  0  0  0  0  0  0  0
  -25.9246  -11.7432   20.5134 N   0  0  0  0  0  0  0  0  0  0  0  0
  -26.2635  -13.0434   20.5365 N   0  0  0  0  0  0  0  0  0  0  0  0
  -27.2058  -27.9061   21.1177 N   0  0  0  0  0  0  0  0  0  0  0  0
  -29.2543  -14.1117   18.4072 N   0  0  0  0  0  0  0  0  0  0  0  0
  -28.6994  -16.3388   17.7342 N   0  0  0  0  0  0  0  0  0  0  0  0
  -25.4031  -15.2128   20.9419 N   0  0  0  0  0  0  0  0  0  0  0  0
  -21.8350  -12.5311   21.6302 N   0  0  0  0  0  0  0  0  0  0  0  0
  -29.3986  -27.8154   18.3047 N   0  0  0  0  0  0  0  0  0  0  0  0
  -27.1989  -28.5459   24.4417 N   0  0  0  0  0  0  0  0  0  0  0  0
  -24.2520  -30.2150   25.7058 N   0  3  0  0  0  0  0  0  0  0  0  0
  -22.5514  -14.7095   21.6138 O   0  0  0  0  0  0  0  0  0  0  0  0
  -28.1544  -26.1592   19.3683 O   0  0  0  0  0  0  0  0  0  0  0  0
  -28.9080  -29.0724   22.2033 O   0  0  0  0  0  0  0  0  0  0  0  0
  -25.0259  -27.7502   24.5912 O   0  0  0  0  0  0  0  0  0  0  0  0
  -30.8860  -15.7181   18.1277 O   0  0  0  0  0  0  0  0  0  0  0  0
  -21.7531   -6.9788   21.1829 O   0  0  0  0  0  0  0  0  0  0  0  0
  -22.1058  -25.1161   19.0268 O   0  0  0  0  0  0  0  0  0  1  0  0
  -24.1267   -2.7369   23.7861 F   0  0  0  0  0  0  0  0  0  0  0  0
  -20.5760   -5.8447   23.4124 F   0  0  0  0  0  0  0  0  0  0  0  0
  1  2  1  0  0  0  0
  1  5  2  0  0  0  0
  2  6  2  0  0  0  0
  3 10  2  0  0  0  0
  3 17  1  0  0  0  0
  4 11  1  0  0  0  0
  4 17  2  0  0  0  0
  5 19  1  0  0  0  0
  6 22  1  0  0  0  0
  7  8  2  0  0  0  0
  7 20  1  0  0  0  0
  8 23  1  0  0  0  0
  9 12  2  0  0  0  0
  9 21  1  0  0  0  0
 10 27  1  0  0  0  0
 11 27  2  0  0  0  0
 12 28  1  0  0  0  0
 13 14  2  0  0  0  0
 13 29  1  0  0  0  0
 14 30  1  0  0  0  0
 15 24  1  0  0  0  0
 15 28  2  0  0  0  0
 16 30  2  0  0  0  0
 16 31  1  0  0  0  0
 17 32  1  0  0  0  0
 18 32  1  0  0  0  0
 18 33  2  0  0  0  0
 18 34  1  0  0  0  0
 19 22  2  0  0  0  0
 19 39  1  0  0  0  0
 20 25  2  0  0  0  0
 20 41  1  0  0  0  0
 21 24  2  0  0  0  0
 21 40  1  0  0  0  0
 22 55  1  0  0  0  0
 23 26  2  0  0  0  0
 23 54  1  0  0  0  0
 24 43  1  0  0  0  0
 25 26  1  0  0  0  0
 25 42  1  0  0  0  0
 26 59  1  0  0  0  0
 27 85  1  0  0  0  0
 28 86  1  0  0  0  0
 29 31  2  0  0  0  0
 29 85  1  0  0  0  0
 30 87  1  0  0  0  0
 31 88  1  0  0  0  0
 32 70  2  0  0  0  0
 33 71  1  0  0  0  0
 33 75  1  0  0  0  0
 34 76  1  0  0  0  0
 34 80  2  0  0  0  0
 35 56  1  0  0  0  0
 35 77  1  0  0  0  0
 35 81  2  0  0  0  0
 36 67  1  0  0  0  0
 36 72  1  0  0  0  0
 36 82  2  0  0  0  0
 37 68  1  0  0  0  0
 37 78  1  0  0  0  0
 37 83  2  0  0  0  0
 38 73  1  0  0  0  0
 38 74  1  0  0  0  0
 38 84  2  0  0  0  0
 39 44  1  0  0  0  0
 40 56  1  0  0  0  0
 41 57  1  0  0  0  0
 42 57  1  0  0  0  0
 43 72  1  0  0  0  0
 44 46  1  0  0  0  0
 45 47  1  0  0  0  0
 45 50  1  0  0  0  0
 46 55  1  0  0  0  0
 47 58  1  0  0  0  0
 48 51  1  0  0  0  0
 48 54  1  0  0  0  0
 49 52  1  0  0  0  0
 49 54  1  0  0  0  0
 50 73  1  0  0  0  0
 51 74  1  0  0  0  0
 52 74  1  0  0  0  0
 53 58  1  0  0  0  0
 53 73  1  0  0  0  0
 55 77  1  0  0  0  0
 56 72  1  0  0  0  0
 57 65  1  0  0  0  0
 58 71  1  0  0  0  0
 60 68  1  0  0  0  0
 61 69  1  0  0  0  0
 62 69  1  0  0  0  0
 63 69  1  0  0  0  0
 64 79  1  0  0  0  0
 65 66  1  0  0  0  0
 66 86  1  0  0  0  0
 67 69  1  0  0  0  0
 67 78  1  0  0  0  0
 68 79  1  0  0  0  0
 70 71  1  0  0  0  0
M  CHG  1  79   1
M  ISO  4  38 100  66 101  74 100  86 101
M  END
> <Batch ID>
0171

> <Smiles>
CNC(C)C(=O)NC(C(=O)N1Cc2cc([101O:1][101CH2:1]CC3Cc4ccc(C5CC[100N:0]([100C:0](=O)N6CCCC(n7nc(-c8ccc(Oc9ccc(F)cc9F)cc8)c(C(N)=O)c7N)C6)CC5)c(C)c4C3)ccc2CC1C(=O)NC1CCCc2ccccc21)C(C)(C)C

> <Shape>
0.217

> <Color>
0.184

> <Negative vol penalty>
0.000

$$$$

  -OEChem-04052322373D

 93105  0     1  0  0  0  0  0999 V2000
  -19.1014  -23.9593   23.3883 C   0  0  0  0  0  0  0  0  0  0  0  0
  -20.4581  -24.0584   23.0968 C   0  0  0  0  0  0  0  0  0  0  0  0
  -24.4963  -10.9084   20.7155 C   0  0  0  0  0  0  0  0  0  0  0  0
  -22.2734  -11.6446   21.3103 C   0  0  0  0  0  0  0  0  0  0  0  0
  -18.2761  -25.0743   23.2476 C   0  0  0  0  0  0  0  0  0  0  0  0
  -20.9901  -25.2723   22.6634 C   0  0  0  0  0  0  0  0  0  0  0  0
  -25.3498  -26.4171   24.9715 C   0  0  0  0  0  0  0  0  0  0  0  0
  -24.1465   -9.5959   21.0327 C   0  0  0  0  0  0  0  0  0  0  0  0
  -21.9236  -10.3321   21.6275 C   0  0  0  0  0  0  0  0  0  0  0  0
  -26.4974  -25.7631   24.5252 C   0  0  0  0  0  0  0  0  0  0  0  0
  -22.3847   -8.1823   24.1958 C   0  0  0  0  0  0  0  0  0  0  0  0
  -21.6829   -7.9673   25.3819 C   0  0  0  0  0  0  0  0  0  0  0  0
  -27.0977  -27.7102   23.2339 C   0  0  0  0  0  0  0  0  0  0  0  0
  -29.2279  -21.9101   18.0476 C   0  0  0  0  0  0  0  0  0  0  0  0
  -19.8519   -7.0149   24.1259 C   0  0  0  0  0  0  0  0  0  0  0  0
  -23.5598  -11.9328   20.8543 C   0  0  0  0  0  0  0  0  0  0  0  0
  -23.7963  -13.9238   19.2771 C   0  0  0  0  0  0  0  0  0  0  0  0
  -18.8001  -26.3049   22.8215 C   0  0  0  0  0  0  0  0  0  0  0  0
  -25.0615  -27.7208   24.5430 C   0  0  0  0  0  0  0  0  0  0  0  0
  -20.1708  -26.4044   22.5156 C   0  0  0  0  0  0  0  0  0  0  0  0
  -25.9471  -28.3795   23.6782 C   0  0  0  0  0  0  0  0  0  0  0  0
  -29.0362  -22.9834   18.9105 C   0  0  0  0  0  0  0  0  0  0  0  0
  -28.9838  -22.7644   20.2826 C   0  0  0  0  0  0  0  0  0  0  0  0
  -22.8602   -9.3078   21.4887 C   0  0  0  0  0  0  0  0  0  0  0  0
  -27.3700  -26.4086   23.6541 C   0  0  0  0  0  0  0  0  0  0  0  0
  -21.8201   -7.8137   22.9747 C   0  0  0  0  0  0  0  0  0  0  0  0
  -20.4166   -7.3836   25.3470 C   0  0  0  0  0  0  0  0  0  0  0  0
  -20.5537   -7.2300   22.9398 C   0  0  0  0  0  0  0  0  0  0  0  0
  -23.9207  -13.2889   20.5274 C   0  0  0  0  0  0  0  0  0  0  0  0
  -29.3607  -20.6475   18.6026 C   0  0  0  0  0  0  0  0  0  0  0  0
  -29.1273  -21.4636   20.7375 C   0  0  0  0  0  0  0  0  0  0  0  0
  -24.2728  -15.1945   19.4884 C   0  0  0  0  0  0  0  0  0  0  0  0
  -23.2947  -13.4108   18.0357 C   0  0  0  0  0  0  0  0  0  0  0  0
  -22.7004  -29.0705   22.8976 C   0  0  0  0  0  0  0  0  0  0  0  0
  -24.2590  -31.8115   23.6596 C   0  0  0  0  0  0  0  0  0  0  0  0
  -27.1838  -33.3312   24.5441 C   0  0  0  0  0  0  0  0  0  0  0  0
  -28.1067  -17.1162   23.7280 C   0  0  0  0  0  0  0  0  0  0  0  0
  -17.8600  -27.4701   22.6391 C   0  0  0  0  0  0  0  0  0  0  0  0
  -23.8333  -28.4223   25.0546 C   0  0  0  0  0  0  0  0  0  0  0  0
  -25.6936  -29.7866   23.2045 C   0  0  0  0  0  0  0  0  0  0  0  0
  -18.5718  -28.8164   22.5339 C   0  0  0  0  0  0  0  0  0  0  0  0
  -24.7550  -18.5078   22.8871 C   0  0  0  0  0  0  0  0  0  0  0  0
  -27.6688  -25.1639   18.6872 C   0  0  0  0  0  0  0  0  0  0  0  0
  -27.8238  -24.6070   17.3066 C   0  0  0  0  0  0  0  0  0  0  0  0
  -19.7508  -28.7230   21.5705 C   0  0  0  0  0  0  0  0  0  0  0  0
  -28.5693  -19.2254   16.5963 C   0  0  0  0  0  0  0  0  0  0  0  0
  -28.6202  -18.3119   17.7808 C   0  0  0  0  0  0  0  0  0  0  0  0
  -24.1370  -17.3381   22.1238 C   0  0  0  0  0  0  0  0  0  0  0  0
  -30.3414  -20.4938   22.7701 C   0  0  0  0  0  0  0  0  0  0  0  0
  -27.9663  -20.1863   22.6262 C   0  0  0  0  0  0  0  0  0  0  0  0
  -25.7394  -18.0210   23.9443 C   0  0  0  0  0  0  0  0  0  0  0  0
  -30.0924  -18.5126   24.4828 C   0  0  0  0  0  0  0  0  0  0  0  0
  -26.2101  -15.9764   22.6455 C   0  0  0  0  0  0  0  0  0  0  0  0
  -28.8898  -24.3554   18.3391 C   0  0  0  0  0  0  0  0  0  0  0  0
  -20.7899  -27.7103   22.0667 C   0  0  1  0  0  0  0  0  0  0  0  0
  -29.5661  -19.4808   17.6959 C   0  0  0  0  0  0  0  0  0  0  0  0
  -29.0793  -21.1596   22.2139 C   0  0  2  0  0  0  0  0  0  0  0  0
  -23.3740  -29.5603   24.1482 C   0  0  1  0  0  0  0  0  0  0  0  0
  -29.8892  -19.9911   24.1403 C   0  0  2  0  0  0  0  0  0  0  0  0
  -25.2301  -16.4235   21.5475 C   0  0  1  0  0  0  0  0  0  0  0  0
  -28.3768  -19.7177   24.0182 C   0  0  2  0  0  0  0  0  0  0  0  0
  -28.1540  -35.5872   25.0604 C   0  0  0  0  0  0  0  0  0  0  0  0
  -30.9034  -24.5187   22.0965 C   0  0  0  0  0  0  0  0  0  0  0  0
  -24.2685  -32.4858   20.6838 C   0  0  0  0  0  0  0  0  0  0  0  0
  -26.0297  -34.2030   21.1497 C   0  0  0  0  0  0  0  0  0  0  0  0
  -23.7729  -34.4196   22.1901 C   0  0  0  0  0  0  0  0  0  0  0  0
  -27.9227  -32.5134   27.2908 C   0  0  0  0  0  0  0  0  0  0  0  0
  -28.9736  -26.1260   21.9207 C   0  0  0  0  0  0  0  0  0  1  0  0
  -25.3545  -32.6311   23.0216 C   0  0  1  0  0  0  0  0  0  0  0  0
  -27.5070  -34.3364   25.6347 C   0  0  2  0  0  0  0  0  0  0  0  0
  -29.6904  -24.9406   21.2778 C   0  0  2  0  0  0  0  0  0  0  0  0
  -24.8605  -33.4077   21.7685 C   0  0  0  0  0  0  0  0  0  0  0  0
  -24.4360  -14.0901   21.4635 N   0  0  0  0  0  0  0  0  0  0  0  0
  -29.3152  -20.3957   19.9301 N   0  0  0  0  0  0  0  0  0  0  0  0
  -24.6397  -15.2415   20.8011 N   0  0  0  0  0  0  0  0  0  0  0  0
  -24.4761  -30.4280   23.7278 N   0  0  0  0  0  0  0  0  0  0  0  0
  -26.7537  -17.1281   23.3741 N   0  0  0  0  0  0  0  0  0  0  0  0
  -28.6965  -18.2986   24.1117 N   0  0  0  0  0  0  0  0  0  0  0  0
  -24.4096  -16.2650   18.6774 N   0  0  0  0  0  0  0  0  0  0  0  0
  -22.8449  -12.0840   17.9941 N   0  0  0  0  0  0  0  0  0  0  0  0
  -28.7903  -23.8319   21.1803 N   0  0  0  0  0  0  0  0  0  0  0  0
  -21.5879  -28.2842   23.1289 N   0  0  0  0  0  0  0  0  0  0  0  0
  -25.8953  -33.4812   24.0767 N   0  0  0  0  0  0  0  0  0  0  0  0
  -28.4415  -33.7386   26.6299 N   0  3  0  0  0  0  0  0  0  0  0  0
  -23.2621  -14.1032   16.9903 O   0  0  0  0  0  0  0  0  0  0  0  0
  -23.1554  -29.3841   21.8039 O   0  0  0  0  0  0  0  0  0  0  0  0
  -23.2509  -32.3787   24.0882 O   0  0  0  0  0  0  0  0  0  0  0  0
  -27.9947  -32.4987   24.1440 O   0  0  0  0  0  0  0  0  0  0  0  0
  -28.7838  -16.0805   23.6713 O   0  0  0  0  0  0  0  0  0  0  0  0
  -22.5184   -8.0271   21.7981 O   0  0  0  0  0  0  0  0  0  0  0  0
  -28.4978  -25.7681   23.2136 O   0  0  0  0  0  0  0  0  0  1  0  0
  -19.7434   -7.1757   26.4862 F   0  0  0  0  0  0  0  0  0  0  0  0
  -20.0066   -6.8727   21.7698 F   0  0  0  0  0  0  0  0  0  0  0  0
  1  2  1  0  0  0  0
  1  5  2  0  0  0  0
  2  6  2  0  0  0  0
  3  8  2  0  0  0  0
  3 16  1  0  0  0  0
  4  9  1  0  0  0  0
  4 16  2  0  0  0  0
  5 18  1  0  0  0  0
  6 20  1  0  0  0  0
  7 10  2  0  0  0  0
  7 19  1  0  0  0  0
  8 24  1  0  0  0  0
  9 24  2  0  0  0  0
 10 25  1  0  0  0  0
 11 12  2  0  0  0  0
 11 26  1  0  0  0  0
 12 27  1  0  0  0  0
 13 21  1  0  0  0  0
 13 25  2  0  0  0  0
 14 22  2  0  0  0  0
 14 30  1  0  0  0  0
 15 27  2  0  0  0  0
 15 28  1  0  0  0  0
 16 29  1  0  0  0  0
 17 29  1  0  0  0  0
 17 32  2  0  0  0  0
 17 33  1  0  0  0  0
 18 20  2  0  0  0  0
 18 38  1  0  0  0  0
 19 21  2  0  0  0  0
 19 39  1  0  0  0  0
 20 55  1  0  0  0  0
 21 40  1  0  0  0  0
 22 23  1  0  0  0  0
 22 54  1  0  0  0  0
 23 31  2  0  0  0  0
 23 81  1  0  0  0  0
 24 90  1  0  0  0  0
 25 91  1  0  0  0  0
 26 28  2  0  0  0  0
 26 90  1  0  0  0  0
 27 92  1  0  0  0  0
 28 93  1  0  0  0  0
 29 73  2  0  0  0  0
 30 56  1  0  0  0  0
 30 74  2  0  0  0  0
 31 57  1  0  0  0  0
 31 74  1  0  0  0  0
 32 75  1  0  0  0  0
 32 79  1  0  0  0  0
 33 80  1  0  0  0  0
 33 85  2  0  0  0  0
 34 58  1  0  0  0  0
 34 82  1  0  0  0  0
 34 86  2  0  0  0  0
 35 69  1  0  0  0  0
 35 76  1  0  0  0  0
 35 87  2  0  0  0  0
 36 70  1  0  0  0  0
 36 83  1  0  0  0  0
 36 88  2  0  0  0  0
 37 77  1  0  0  0  0
 37 78  1  0  0  0  0
 37 89  2  0  0  0  0
 38 41  1  0  0  0  0
 39 58  1  0  0  0  0
 40 76  1  0  0  0  0
 41 45  1  0  0  0  0
 42 48  1  0  0  0  0
 42 51  1  0  0  0  0
 43 44  1  0  0  0  0
 43 54  1  0  0  0  0
 44 54  1  0  0  0  0
 45 55  1  0  0  0  0
 46 47  1  0  0  0  0
 46 56  1  0  0  0  0
 47 56  1  0  0  0  0
 48 60  1  0  0  0  0
 49 57  1  0  0  0  0
 49 59  1  0  0  0  0
 50 57  1  0  0  0  0
 50 61  1  0  0  0  0
 51 77  1  0  0  0  0
 52 59  1  0  0  0  0
 52 78  1  0  0  0  0
 53 60  1  0  0  0  0
 53 77  1  0  0  0  0
 55 82  1  0  0  0  0
 58 76  1  0  0  0  0
 59 61  1  0  0  0  0
 60 75  1  0  0  0  0
 61 78  1  0  0  0  0
 62 70  1  0  0  0  0
 63 71  1  0  0  0  0
 64 72  1  0  0  0  0
 65 72  1  0  0  0  0
 66 72  1  0  0  0  0
 67 84  1  0  0  0  0
 68 71  1  0  0  0  0
 68 91  1  0  0  0  0
 69 72  1  0  0  0  0
 69 83  1  0  0  0  0
 70 84  1  0  0  0  0
 71 81  1  0  0  0  0
 73 75  1  0  0  0  0
M  CHG  1  84   1
M  ISO  4  37 100  68 101  78 100  91 101
M  END
> <Batch ID>
0171

> <Smiles>
CNC(C)C(=O)NC(C(=O)N1Cc2cc([101O:1][101CH2:1]C(C)Nc3c(C4CC4)cc(C4CC4)nc3C3CC4C[100N:0]([100C:0](=O)N5CCCC(n6nc(-c7ccc(Oc8ccc(F)cc8F)cc7)c(C(N)=O)c6N)C5)C4C3)ccc2CC1C(=O)NC1CCCc2ccccc21)C(C)(C)C

> <Shape>
0.253

> <Color>
0.073

> <Negative vol penalty>
0.000

$$$$

  -OEChem-04052322373D

 84 92  0     1  0  0  0  0  0999 V2000
  -21.9856  -11.7606   19.2932 C   0  0  0  0  0  0  0  0  0  0  0  0
  -21.6334  -12.9348   19.9509 C   0  0  0  0  0  0  0  0  0  0  0  0
  -27.5715  -27.0426   23.0287 C   0  0  0  0  0  0  0  0  0  0  0  0
  -28.7935  -26.3433   21.0654 C   0  0  0  0  0  0  0  0  0  0  0  0
  -23.3158  -11.3432   19.2787 C   0  0  0  0  0  0  0  0  0  0  0  0
  -22.6111  -13.6918   20.5955 C   0  0  0  0  0  0  0  0  0  0  0  0
  -22.8119  -19.7926   21.0905 C   0  0  0  0  0  0  0  0  0  0  0  0
  -28.5419  -26.4565   23.8415 C   0  0  0  0  0  0  0  0  0  0  0  0
  -29.7639  -25.7572   21.8781 C   0  0  0  0  0  0  0  0  0  0  0  0
  -22.4424  -20.6633   22.1148 C   0  0  0  0  0  0  0  0  0  0  0  0
  -30.5134  -24.8312   26.4290 C   0  0  0  0  0  0  0  0  0  0  0  0
  -30.0790  -24.0610   27.5077 C   0  0  0  0  0  0  0  0  0  0  0  0
  -24.7252  -20.7068   22.8932 C   0  0  0  0  0  0  0  0  0  0  0  0
  -28.9233  -22.5820   25.9865 C   0  0  0  0  0  0  0  0  0  0  0  0
  -19.4819  -27.6094   21.3388 C   0  0  0  0  0  0  0  0  0  0  0  0
  -27.6973  -26.9860   21.6407 C   0  0  0  0  0  0  0  0  0  0  0  0
  -26.6756  -28.9129   20.3174 C   0  0  0  0  0  0  0  0  0  0  0  0
  -24.3118  -12.1005   19.9152 C   0  0  0  0  0  0  0  0  0  0  0  0
  -24.1411  -19.3632   20.9662 C   0  0  0  0  0  0  0  0  0  0  0  0
  -23.9557  -13.2834   20.5906 C   0  0  0  0  0  0  0  0  0  0  0  0
  -25.1096  -19.8327   21.8649 C   0  0  0  0  0  0  0  0  0  0  0  0
  -29.6381  -25.8139   23.2662 C   0  0  0  0  0  0  0  0  0  0  0  0
  -23.3985  -21.1182   23.0181 C   0  0  0  0  0  0  0  0  0  0  0  0
  -30.1526  -24.4768   25.1289 C   0  0  0  0  0  0  0  0  0  0  0  0
  -29.2840  -22.9364   27.2866 C   0  0  0  0  0  0  0  0  0  0  0  0
  -29.3576  -23.3523   24.9077 C   0  0  0  0  0  0  0  0  0  0  0  0
  -26.6950  -27.5908   20.8006 C   0  0  0  0  0  0  0  0  0  0  0  0
  -20.2568  -26.4940   21.1086 C   0  0  0  0  0  0  0  0  0  0  0  0
  -20.7998  -26.4129   23.3285 C   0  0  0  0  0  0  0  0  0  0  0  0
  -20.0251  -27.5285   23.5587 C   0  0  0  0  0  0  0  0  0  0  0  0
  -25.5242  -28.9894   19.5725 C   0  0  0  0  0  0  0  0  0  0  0  0
  -27.6146  -29.9767   20.5234 C   0  0  0  0  0  0  0  0  0  0  0  0
  -20.3917  -25.9198   19.7636 C   0  0  0  0  0  0  0  0  0  0  0  0
  -25.6105  -16.5478   21.0991 C   0  0  0  0  0  0  0  0  0  0  0  0
  -28.1963  -18.2938   20.2120 C   0  0  0  0  0  0  0  0  0  0  0  0
  -29.7400  -21.3356   20.1046 C   0  0  0  0  0  0  0  0  0  0  0  0
  -25.7290  -11.5843   19.9128 C   0  0  0  0  0  0  0  0  0  0  0  0
  -24.5287  -18.4450   19.8397 C   0  0  0  0  0  0  0  0  0  0  0  0
  -26.5538  -19.4177   21.7626 C   0  0  0  0  0  0  0  0  0  0  0  0
  -26.7620  -12.6390   20.3008 C   0  0  0  0  0  0  0  0  0  0  0  0
  -22.5611  -26.2935   16.9536 C   0  0  0  0  0  0  0  0  0  0  0  0
  -26.3069  -13.4011   21.5413 C   0  0  0  0  0  0  0  0  0  0  0  0
  -23.8729  -26.7742   17.5766 C   0  0  0  0  0  0  0  0  0  0  0  0
  -21.8388  -25.2984   17.8585 C   0  0  0  0  0  0  0  0  0  0  0  0
  -22.9154  -26.2637   19.8620 C   0  0  0  0  0  0  0  0  0  0  0  0
  -24.9914  -14.1447   21.2802 C   0  0  1  0  0  0  0  0  0  0  0  0
  -25.8114  -17.6672   20.1172 C   0  0  1  0  0  0  0  0  0  0  0  0
  -23.6501  -27.3071   19.0044 C   0  0  1  0  0  0  0  0  0  0  0  0
  -18.4412  -28.0767   25.4413 C   0  0  0  0  0  0  0  0  0  0  0  0
  -20.4372  -29.5529   25.0031 C   0  0  0  0  0  0  0  0  0  0  0  0
  -31.8629  -22.4418   19.3517 C   0  0  0  0  0  0  0  0  0  0  0  0
  -24.3956  -25.1469   25.5470 C   0  0  0  0  0  0  0  0  0  0  0  0
  -29.6597  -17.1168   22.6169 C   0  0  0  0  0  0  0  0  0  0  0  0
  -31.3733  -18.9256   22.3714 C   0  0  0  0  0  0  0  0  0  0  0  0
  -31.0342  -17.2734   20.5335 C   0  0  0  0  0  0  0  0  0  0  0  0
  -28.2887  -23.1064   18.2293 C   0  0  0  0  0  0  0  0  0  0  0  0
  -21.5455  -25.7350   24.4400 C   0  0  0  0  0  0  0  0  0  0  0  0
  -24.0311  -22.8875   24.4760 C   0  0  0  0  0  0  0  0  0  1  0  0
  -19.8916  -28.1142   24.9228 C   0  0  0  0  0  0  0  0  0  0  0  0
  -29.2802  -19.0471   20.9447 C   0  0  1  0  0  0  0  0  0  0  0  0
  -30.4366  -22.0723   18.9749 C   0  0  2  0  0  0  0  0  0  0  0  0
  -23.3739  -24.1424   25.0394 C   0  0  2  0  0  0  0  0  0  0  0  0
  -30.3093  -18.0972   21.6200 C   0  0  0  0  0  0  0  0  0  0  0  0
  -19.3521  -28.1467   22.5681 N   0  0  0  0  0  0  0  0  0  0  0  0
  -25.6396  -26.8787   20.3968 N   0  0  0  0  0  0  0  0  0  0  0  0
  -20.9296  -25.8756   22.0992 N   0  0  0  0  0  0  0  0  0  0  0  0
  -24.9463  -27.7566   19.6520 N   0  0  0  0  0  0  0  0  0  0  0  0
  -21.6689  -25.8499   19.2023 N   0  0  0  0  0  0  0  0  0  0  0  0
  -26.8820  -18.5137   20.6479 N   0  0  0  0  0  0  0  0  0  0  0  0
  -24.9599  -29.9902   18.8639 N   0  0  0  0  0  0  0  0  0  0  0  0
  -28.7434  -29.7274   21.3158 N   0  0  0  0  0  0  0  0  0  0  0  0
  -25.2353  -15.3511   20.5189 N   0  0  0  0  0  0  0  0  0  0  0  0
  -29.8636  -19.9684   19.9756 N   0  0  0  0  0  0  0  0  0  0  0  0
  -29.6997  -23.3237   18.6404 N   0  3  0  0  0  0  0  0  0  0  0  0
  -22.5836  -24.7912   23.9533 N   0  3  0  0  0  0  0  0  0  0  0  0
  -27.4487  -31.1194   20.0333 O   0  0  0  0  0  0  0  0  0  0  0  0
  -19.3500  -25.5506   19.2234 O   0  0  0  0  0  0  0  0  0  0  0  0
  -25.7845  -16.7541   22.2945 O   0  0  0  0  0  0  0  0  0  0  0  0
  -28.5039  -17.5437   19.2824 O   0  0  0  0  0  0  0  0  0  0  0  0
  -29.1487  -21.9152   21.0130 O   0  0  0  0  0  0  0  0  0  0  0  0
  -30.5852  -25.2420   24.0589 O   0  0  0  0  0  0  0  0  0  0  0  0
  -23.0404  -21.9675   24.0192 O   0  0  0  0  0  0  0  0  0  1  0  0
  -28.8683  -22.1961   28.3225 F   0  0  0  0  0  0  0  0  0  0  0  0
  -29.0088  -23.0062   23.6610 F   0  0  0  0  0  0  0  0  0  0  0  0
  1  2  1  0  0  0  0
  1  5  2  0  0  0  0
  2  6  2  0  0  0  0
  3  8  2  0  0  0  0
  3 16  1  0  0  0  0
  4  9  1  0  0  0  0
  4 16  2  0  0  0  0
  5 18  1  0  0  0  0
  6 20  1  0  0  0  0
  7 10  2  0  0  0  0
  7 19  1  0  0  0  0
  8 22  1  0  0  0  0
  9 22  2  0  0  0  0
 10 23  1  0  0  0  0
 11 12  2  0  0  0  0
 11 24  1  0  0  0  0
 12 25  1  0  0  0  0
 13 21  1  0  0  0  0
 13 23  2  0  0  0  0
 14 25  2  0  0  0  0
 14 26  1  0  0  0  0
 15 28  1  0  0  0  0
 15 64  2  0  0  0  0
 16 27  1  0  0  0  0
 17 27  1  0  0  0  0
 17 31  2  0  0  0  0
 17 32  1  0  0  0  0
 18 20  2  0  0  0  0
 18 37  1  0  0  0  0
 19 21  2  0  0  0  0
 19 38  1  0  0  0  0
 20 46  1  0  0  0  0
 21 39  1  0  0  0  0
 22 81  1  0  0  0  0
 23 82  1  0  0  0  0
 24 26  2  0  0  0  0
 24 81  1  0  0  0  0
 25 83  1  0  0  0  0
 26 84  1  0  0  0  0
 27 65  2  0  0  0  0
 28 33  1  0  0  0  0
 28 66  2  0  0  0  0
 29 30  2  0  0  0  0
 29 57  1  0  0  0  0
 29 66  1  0  0  0  0
 30 59  1  0  0  0  0
 30 64  1  0  0  0  0
 31 67  1  0  0  0  0
 31 70  1  0  0  0  0
 32 71  1  0  0  0  0
 32 76  2  0  0  0  0
 33 68  1  0  0  0  0
 33 77  2  0  0  0  0
 34 47  1  0  0  0  0
 34 72  1  0  0  0  0
 34 78  2  0  0  0  0
 35 60  1  0  0  0  0
 35 69  1  0  0  0  0
 35 79  2  0  0  0  0
 36 61  1  0  0  0  0
 36 73  1  0  0  0  0
 36 80  2  0  0  0  0
 37 40  1  0  0  0  0
 38 47  1  0  0  0  0
 39 69  1  0  0  0  0
 40 42  1  0  0  0  0
 41 43  1  0  0  0  0
 41 44  1  0  0  0  0
 42 46  1  0  0  0  0
 43 48  1  0  0  0  0
 44 68  1  0  0  0  0
 45 48  1  0  0  0  0
 45 68  1  0  0  0  0
 46 72  1  0  0  0  0
 47 69  1  0  0  0  0
 48 67  1  0  0  0  0
 49 59  1  0  0  0  0
 50 59  1  0  0  0  0
 51 61  1  0  0  0  0
 52 62  1  0  0  0  0
 53 63  1  0  0  0  0
 54 63  1  0  0  0  0
 55 63  1  0  0  0  0
 56 74  1  0  0  0  0
 57 75  1  0  0  0  0
 58 62  1  0  0  0  0
 58 82  1  0  0  0  0
 60 63  1  0  0  0  0
 60 73  1  0  0  0  0
 61 74  1  0  0  0  0
 62 75  1  0  0  0  0
 65 67  1  0  0  0  0
M  CHG  2  74   1  75   1
M  ISO  4  28 100  33 100  58 101  82 101
M  END
> <Batch ID>
0171

> <Smiles>
CNC(C)C(=O)NC(C(=O)N1Cc2cc([101O:1][101CH2:1]C(C)NCc3n[100c:0]([100C:0](=O)N4CCCC(n5nc(-c6ccc(Oc7ccc(F)cc7F)cc6)c(C(N)=O)c5N)C4)cnc3C(C)C)ccc2CC1C(=O)NC1CCCc2ccccc21)C(C)(C)C

> <Shape>
0.208

> <Color>
0.059

> <Negative vol penalty>
0.000

$$$$

  -OEChem-04052322373D

 89 99  0     1  0  0  0  0  0999 V2000
  -27.0107  -37.7895   23.8023 C   0  0  0  0  0  0  0  0  0  0  0  0
  -27.7191  -36.7713   23.1724 C   0  0  0  0  0  0  0  0  0  0  0  0
  -23.6888  -10.5028   22.4911 C   0  0  0  0  0  0  0  0  0  0  0  0
  -24.5056   -8.6571   21.1632 C   0  0  0  0  0  0  0  0  0  0  0  0
  -25.8855  -37.4845   24.5671 C   0  0  0  0  0  0  0  0  0  0  0  0
  -27.3033  -35.4472   23.3079 C   0  0  0  0  0  0  0  0  0  0  0  0
  -27.0860  -29.2662   19.6934 C   0  0  0  0  0  0  0  0  0  0  0  0
  -22.5462   -9.7686   22.8088 C   0  0  0  0  0  0  0  0  0  0  0  0
  -23.3630   -7.9229   21.4810 C   0  0  0  0  0  0  0  0  0  0  0  0
  -27.4447  -27.9259   19.8293 C   0  0  0  0  0  0  0  0  0  0  0  0
  -20.8300   -5.4262   22.2350 C   0  0  0  0  0  0  0  0  0  0  0  0
  -20.9976   -4.0914   22.6037 C   0  0  0  0  0  0  0  0  0  0  0  0
  -25.4403  -27.5256   21.1104 C   0  0  0  0  0  0  0  0  0  0  0  0
  -22.3782   -4.7785   24.4635 C   0  0  0  0  0  0  0  0  0  0  0  0
  -24.6685   -9.9471   21.6682 C   0  0  0  0  0  0  0  0  0  0  0  0
  -27.0653  -10.7341   22.0471 C   0  0  0  0  0  0  0  0  0  0  0  0
  -25.4502  -36.1570   24.7041 C   0  0  0  0  0  0  0  0  0  0  0  0
  -25.9052  -29.7496   20.2752 C   0  0  0  0  0  0  0  0  0  0  0  0
  -26.1721  -35.1240   24.0764 C   0  0  0  0  0  0  0  0  0  0  0  0
  -25.0675  -28.8720   20.9783 C   0  0  0  0  0  0  0  0  0  0  0  0
  -28.9677  -22.0068   21.6847 C   0  0  0  0  0  0  0  0  0  0  0  0
  -28.7880  -23.3750   21.5145 C   0  0  0  0  0  0  0  0  0  0  0  0
  -28.3897  -23.8696   20.2775 C   0  0  0  0  0  0  0  0  0  0  0  0
  -22.3833   -8.4786   22.3038 C   0  0  0  0  0  0  0  0  0  0  0  0
  -26.6233  -27.0559   20.5403 C   0  0  0  0  0  0  0  0  0  0  0  0
  -21.4365   -6.4371   22.9806 C   0  0  0  0  0  0  0  0  0  0  0  0
  -21.7717   -3.7675   23.7179 C   0  0  0  0  0  0  0  0  0  0  0  0
  -22.2106   -6.1132   24.0949 C   0  0  0  0  0  0  0  0  0  0  0  0
  -25.8488  -10.7052   21.3392 C   0  0  0  0  0  0  0  0  0  0  0  0
  -28.7379  -21.1819   20.5954 C   0  0  0  0  0  0  0  0  0  0  0  0
  -28.1859  -22.9614   19.2511 C   0  0  0  0  0  0  0  0  0  0  0  0
  -27.8581  -11.5983   21.3321 C   0  0  0  0  0  0  0  0  0  0  0  0
  -27.4448  -10.0417   23.2438 C   0  0  0  0  0  0  0  0  0  0  0  0
  -25.2232  -31.9240   22.4911 C   0  0  0  0  0  0  0  0  0  0  0  0
  -22.1640  -31.2747   21.6300 C   0  0  0  0  0  0  0  0  0  0  0  0
  -19.9450  -29.0737   20.2593 C   0  0  0  0  0  0  0  0  0  0  0  0
  -28.7022  -16.2240   18.5194 C   0  0  0  0  0  0  0  0  0  0  0  0
  -24.2559  -35.8714   25.5798 C   0  0  0  0  0  0  0  0  0  0  0  0
  -25.5189  -31.1923   20.0968 C   0  0  0  0  0  0  0  0  0  0  0  0
  -23.7791  -29.3366   21.6047 C   0  0  0  0  0  0  0  0  0  0  0  0
  -23.6627  -34.4811   25.3665 C   0  0  0  0  0  0  0  0  0  0  0  0
  -27.2241  -13.6435   16.7575 C   0  0  0  0  0  0  0  0  0  0  0  0
  -30.6591  -21.9597   23.6368 C   0  0  0  0  0  0  0  0  0  0  0  0
  -30.6265  -20.5793   23.0592 C   0  0  0  0  0  0  0  0  0  0  0  0
  -24.7662  -33.4284   25.3390 C   0  0  0  0  0  0  0  0  0  0  0  0
  -26.8303  -12.6415   17.8426 C   0  0  0  0  0  0  0  0  0  0  0  0
  -27.6008  -18.9204   20.4775 C   0  0  0  0  0  0  0  0  0  0  0  0
  -30.0253  -19.1541   19.7873 C   0  0  0  0  0  0  0  0  0  0  0  0
  -26.9457  -15.0729   17.2078 C   0  0  0  0  0  0  0  0  0  0  0  0
  -27.7962  -17.4043   20.5704 C   0  0  0  0  0  0  0  0  0  0  0  0
  -30.1702  -17.6409   19.9215 C   0  0  0  0  0  0  0  0  0  0  0  0
  -27.2350  -14.4508   19.5842 C   0  0  0  0  0  0  0  0  0  0  0  0
  -29.3960  -21.4448   22.9997 C   0  0  0  0  0  0  0  0  0  0  0  0
  -25.7380  -33.6779   24.1793 C   0  0  1  0  0  0  0  0  0  0  0  0
  -28.9176  -19.6805   20.7177 C   0  0  0  0  0  0  0  0  0  0  0  0
  -24.5523  -31.6889   21.1674 C   0  0  1  0  0  0  0  0  0  0  0  0
  -27.5025  -12.9858   19.1835 C   0  0  1  0  0  0  0  0  0  0  0  0
  -27.7602  -23.4332   17.8988 C   0  0  0  0  0  0  0  0  0  0  0  0
  -27.8739  -24.3022   23.6571 C   0  0  0  0  0  0  0  0  0  0  0  0
  -17.5072  -28.8093   19.7257 C   0  0  0  0  0  0  0  0  0  0  0  0
  -21.5784  -30.7470   24.5776 C   0  0  0  0  0  0  0  0  0  0  0  0
  -19.4670  -29.5964   23.8804 C   0  0  0  0  0  0  0  0  0  0  0  0
  -19.7935  -32.0163   23.3704 C   0  0  0  0  0  0  0  0  0  0  0  0
  -20.4890  -28.8084   17.3623 C   0  0  0  0  0  0  0  0  0  0  0  0
  -29.0236  -24.3129   22.6555 C   0  0  0  0  0  0  0  0  0  0  0  0
  -28.1911  -25.3327   20.0628 C   0  0  0  0  0  0  0  0  0  1  0  0
  -21.1131  -30.2886   22.0798 C   0  0  1  0  0  0  0  0  0  0  0  0
  -18.8657  -29.2551   19.2074 C   0  0  2  0  0  0  0  0  0  0  0  0
  -20.5132  -30.6534   23.4670 C   0  0  0  0  0  0  0  0  0  0  0  0
  -25.8628  -11.4888   20.2577 N   0  0  0  0  0  0  0  0  0  0  0  0
  -28.3502  -21.6256   19.3787 N   0  0  0  0  0  0  0  0  0  0  0  0
  -27.0978  -12.0183   20.2806 N   0  0  0  0  0  0  0  0  0  0  0  0
  -23.4482  -30.7576   21.4079 N   0  0  0  0  0  0  0  0  0  0  0  0
  -27.5977  -15.3595   18.4854 N   0  0  0  0  0  0  0  0  0  0  0  0
  -28.8918  -16.9675   19.6940 N   0  0  0  0  0  0  0  0  0  0  0  0
  -29.1245  -12.0323   21.5066 N   0  0  0  0  0  0  0  0  0  0  0  0
  -26.5088   -9.1926   23.8498 N   0  0  0  0  0  0  0  0  0  0  0  0
  -25.1588  -33.2328   22.9299 N   0  0  0  0  0  0  0  0  0  0  0  0
  -20.1307  -30.2196   21.0034 N   0  0  0  0  0  0  0  0  0  0  0  0
  -19.1892  -28.4578   17.9905 N   0  3  0  0  0  0  0  0  0  0  0  0
  -28.5746  -10.1849   23.7697 O   0  0  0  0  0  0  0  0  0  0  0  0
  -25.7584  -30.9872   23.0721 O   0  0  0  0  0  0  0  0  0  0  0  0
  -21.8551  -32.4587   21.4743 O   0  0  0  0  0  0  0  0  0  0  0  0
  -20.5591  -28.0196   20.4087 O   0  0  0  0  0  0  0  0  0  0  0  0
  -29.4742  -16.3256   17.5577 O   0  0  0  0  0  0  0  0  0  0  0  0
  -21.2685   -7.7618   22.6138 O   0  0  0  0  0  0  0  0  0  0  0  0
  -26.9738  -25.7382   20.6760 O   0  0  0  0  0  0  0  0  0  1  0  0
  -21.9313   -2.4858   24.0727 F   0  0  0  0  0  0  0  0  0  0  0  0
  -22.7948   -7.0802   24.8157 F   0  0  0  0  0  0  0  0  0  0  0  0
  1  2  1  0  0  0  0
  1  5  2  0  0  0  0
  2  6  2  0  0  0  0
  3  8  2  0  0  0  0
  3 15  1  0  0  0  0
  4  9  1  0  0  0  0
  4 15  2  0  0  0  0
  5 17  1  0  0  0  0
  6 19  1  0  0  0  0
  7 10  2  0  0  0  0
  7 18  1  0  0  0  0
  8 24  1  0  0  0  0
  9 24  2  0  0  0  0
 10 25  1  0  0  0  0
 11 12  2  0  0  0  0
 11 26  1  0  0  0  0
 12 27  1  0  0  0  0
 13 20  1  0  0  0  0
 13 25  2  0  0  0  0
 14 27  2  0  0  0  0
 14 28  1  0  0  0  0
 15 29  1  0  0  0  0
 16 29  1  0  0  0  0
 16 32  2  0  0  0  0
 16 33  1  0  0  0  0
 17 19  2  0  0  0  0
 17 38  1  0  0  0  0
 18 20  2  0  0  0  0
 18 39  1  0  0  0  0
 19 54  1  0  0  0  0
 20 40  1  0  0  0  0
 21 22  1  0  0  0  0
 21 30  2  0  0  0  0
 21 53  1  0  0  0  0
 22 23  2  0  0  0  0
 22 65  1  0  0  0  0
 23 31  1  0  0  0  0
 23 66  1  0  0  0  0
 24 86  1  0  0  0  0
 25 87  1  0  0  0  0
 26 28  2  0  0  0  0
 26 86  1  0  0  0  0
 27 88  1  0  0  0  0
 28 89  1  0  0  0  0
 29 70  2  0  0  0  0
 30 55  1  0  0  0  0
 30 71  1  0  0  0  0
 31 58  1  0  0  0  0
 31 71  2  0  0  0  0
 32 72  1  0  0  0  0
 32 76  1  0  0  0  0
 33 77  1  0  0  0  0
 33 81  2  0  0  0  0
 34 56  1  0  0  0  0
 34 78  1  0  0  0  0
 34 82  2  0  0  0  0
 35 67  1  0  0  0  0
 35 73  1  0  0  0  0
 35 83  2  0  0  0  0
 36 68  1  0  0  0  0
 36 79  1  0  0  0  0
 36 84  2  0  0  0  0
 37 74  1  0  0  0  0
 37 75  1  0  0  0  0
 37 85  2  0  0  0  0
 38 41  1  0  0  0  0
 39 56  1  0  0  0  0
 40 73  1  0  0  0  0
 41 45  1  0  0  0  0
 42 46  1  0  0  0  0
 42 49  1  0  0  0  0
 43 44  1  0  0  0  0
 43 53  1  0  0  0  0
 44 53  1  0  0  0  0
 45 54  1  0  0  0  0
 46 57  1  0  0  0  0
 47 50  1  0  0  0  0
 47 55  1  0  0  0  0
 48 51  1  0  0  0  0
 48 55  1  0  0  0  0
 49 74  1  0  0  0  0
 50 75  1  0  0  0  0
 51 75  1  0  0  0  0
 52 57  1  0  0  0  0
 52 74  1  0  0  0  0
 54 78  1  0  0  0  0
 56 73  1  0  0  0  0
 57 72  1  0  0  0  0
 59 65  1  0  0  0  0
 60 68  1  0  0  0  0
 61 69  1  0  0  0  0
 62 69  1  0  0  0  0
 63 69  1  0  0  0  0
 64 80  1  0  0  0  0
 66 87  1  0  0  0  0
 67 69  1  0  0  0  0
 67 79  1  0  0  0  0
 68 80  1  0  0  0  0
 70 72  1  0  0  0  0
M  CHG  1  80   1
M  ISO  4  37 100  66 101  75 100  87 101
M  END
> <Batch ID>
0171

> <Smiles>
CCc1c(C2CC2)c(C2CC[100N:0]([100C:0](=O)N3CCCC(n4nc(-c5ccc(Oc6ccc(F)cc6F)cc5)c(C(N)=O)c4N)C3)CC2)nc(C)c1[101CH2:1][101O:1]c1ccc2c(c1)CN(C(=O)C(NC(=O)C(C)NC)C(C)(C)C)C(C(=O)NC1CCCc3ccccc31)C2

> <Shape>
0.324

> <Color>
0.088

> <Negative vol penalty>
0.000

$$$$

  -OEChem-04052322373D

 83 92  0     1  0  0  0  0  0999 V2000
  -29.5052  -10.5613   16.6322 C   0  0  0  0  0  0  0  0  0  0  0  0
  -28.2149  -11.0515   16.4584 C   0  0  0  0  0  0  0  0  0  0  0  0
  -24.2664  -30.1766   19.7933 C   0  0  0  0  0  0  0  0  0  0  0  0
  -24.9045  -29.2416   21.9277 C   0  0  0  0  0  0  0  0  0  0  0  0
  -30.2257  -10.8894   17.7798 C   0  0  0  0  0  0  0  0  0  0  0  0
  -27.6439  -11.8695   17.4328 C   0  0  0  0  0  0  0  0  0  0  0  0
  -16.5960  -18.4803   22.3181 C   0  0  0  0  0  0  0  0  0  0  0  0
  -23.1166  -17.3747   18.1480 C   0  0  0  0  0  0  0  0  0  0  0  0
  -17.6030  -18.0456   21.4593 C   0  0  0  0  0  0  0  0  0  0  0  0
  -24.6206  -31.4480   20.2444 C   0  0  0  0  0  0  0  0  0  0  0  0
  -25.2588  -30.5131   22.3788 C   0  0  0  0  0  0  0  0  0  0  0  0
  -21.9733  -17.7441   18.8553 C   0  0  0  0  0  0  0  0  0  0  0  0
  -23.6877  -33.2685   23.5494 C   0  0  0  0  0  0  0  0  0  0  0  0
  -23.2689  -33.6432   24.8260 C   0  0  0  0  0  0  0  0  0  0  0  0
  -18.6326  -20.2257   21.5761 C   0  0  0  0  0  0  0  0  0  0  0  0
  -23.3416  -18.3093   20.7600 C   0  0  0  0  0  0  0  0  0  0  0  0
  -25.5717  -33.9378   25.4950 C   0  0  0  0  0  0  0  0  0  0  0  0
  -24.4083  -29.0733   20.6350 C   0  0  0  0  0  0  0  0  0  0  0  0
  -24.8699  -26.8285   19.5146 C   0  0  0  0  0  0  0  0  0  0  0  0
  -29.6669  -11.7196   18.7642 C   0  0  0  0  0  0  0  0  0  0  0  0
  -24.3821  -17.4597   18.7462 C   0  0  0  0  0  0  0  0  0  0  0  0
  -16.6015  -19.7912   22.8180 C   0  0  0  0  0  0  0  0  0  0  0  0
  -28.3572  -12.2080   18.5953 C   0  0  0  0  0  0  0  0  0  0  0  0
  -17.6115  -20.6905   22.4234 C   0  0  0  0  0  0  0  0  0  0  0  0
  -24.4996  -17.9427   20.0573 C   0  0  0  0  0  0  0  0  0  0  0  0
  -18.6242  -18.9161   21.0935 C   0  0  0  0  0  0  0  0  0  0  0  0
  -25.1168  -31.6163   21.5371 C   0  0  0  0  0  0  0  0  0  0  0  0
  -22.0854  -18.2088   20.1625 C   0  0  0  0  0  0  0  0  0  0  0  0
  -25.0486  -33.2283   23.2456 C   0  0  0  0  0  0  0  0  0  0  0  0
  -24.2108  -33.9779   25.7988 C   0  0  0  0  0  0  0  0  0  0  0  0
  -25.9905  -33.5630   24.2184 C   0  0  0  0  0  0  0  0  0  0  0  0
  -24.0420  -27.7597   20.1698 C   0  0  0  0  0  0  0  0  0  0  0  0
  -24.0553  -25.7467   19.2852 C   0  0  0  0  0  0  0  0  0  0  0  0
  -26.2517  -26.9320   19.1463 C   0  0  0  0  0  0  0  0  0  0  0  0
  -26.6608  -15.3689   19.4808 C   0  0  0  0  0  0  0  0  0  0  0  0
  -28.3168  -18.0428   20.2744 C   0  0  0  0  0  0  0  0  0  0  0  0
  -28.2450  -21.3183   21.2299 C   0  0  0  0  0  0  0  0  0  0  0  0
  -19.2285  -23.7968   22.0700 C   0  0  0  0  0  0  0  0  0  0  0  0
  -30.4666  -12.0083   20.0100 C   0  0  0  0  0  0  0  0  0  0  0  0
  -25.6080  -17.0826   17.9606 C   0  0  0  0  0  0  0  0  0  0  0  0
  -25.8369  -18.0721   20.7379 C   0  0  0  0  0  0  0  0  0  0  0  0
  -15.5001  -20.2224   23.7425 C   0  0  0  0  0  0  0  0  0  0  0  0
  -29.9294  -13.1857   20.8195 C   0  0  0  0  0  0  0  0  0  0  0  0
  -19.4661  -24.6037   18.5501 C   0  0  0  0  0  0  0  0  0  0  0  0
  -28.4163  -13.0771   20.9800 C   0  0  0  0  0  0  0  0  0  0  0  0
  -20.7579  -25.4222   18.5122 C   0  0  0  0  0  0  0  0  0  0  0  0
  -18.6659  -24.8921   19.8169 C   0  0  0  0  0  0  0  0  0  0  0  0
  -20.7127  -25.4985   21.0484 C   0  0  0  0  0  0  0  0  0  0  0  0
  -27.7127  -13.1182   19.6182 C   0  0  1  0  0  0  0  0  0  0  0  0
  -17.6461  -22.1100   22.9689 C   0  0  2  0  0  0  0  0  0  0  0  0
  -26.7978  -16.7236   18.8455 C   0  0  1  0  0  0  0  0  0  0  0  0
  -21.5779  -25.2350   19.8025 C   0  0  2  0  0  0  0  0  0  0  0  0
  -16.3104  -22.5701   23.5847 C   0  0  2  0  0  0  0  0  0  0  0  0
  -16.4429  -23.8417   24.4166 C   0  0  0  0  0  0  0  0  0  0  0  0
  -29.1268  -23.5983   21.7967 C   0  0  0  0  0  0  0  0  0  0  0  0
  -28.8112  -16.7748   23.0053 C   0  0  0  0  0  0  0  0  0  0  0  0
  -29.4661  -19.0355   23.8589 C   0  0  0  0  0  0  0  0  0  0  0  0
  -30.7858  -17.9629   22.0339 C   0  0  0  0  0  0  0  0  0  0  0  0
  -28.1119  -22.1987   18.4075 C   0  0  0  0  0  0  0  0  0  0  0  0
  -19.7191  -18.4462   20.1815 C   0  0  0  0  0  0  0  0  0  1  0  0
  -28.4793  -18.8668   21.5289 C   0  0  1  0  0  0  0  0  0  0  0  0
  -28.9978  -22.5334   20.7187 C   0  0  2  0  0  0  0  0  0  0  0  0
  -29.3601  -18.1559   22.5949 C   0  0  0  0  0  0  0  0  0  0  0  0
  -22.7970  -27.3090   20.3452 N   0  0  0  0  0  0  0  0  0  0  0  0
  -22.8364  -26.0827   19.7967 N   0  0  0  0  0  0  0  0  0  0  0  0
  -27.0055  -17.6849   19.9305 N   0  0  0  0  0  0  0  0  0  0  0  0
  -19.4982  -24.6772   21.0091 N   0  0  0  0  0  0  0  0  0  0  0  0
  -24.2698  -24.5503   18.6977 N   0  0  0  0  0  0  0  0  0  0  0  0
  -26.9393  -28.1131   19.4572 N   0  0  0  0  0  0  0  0  0  0  0  0
  -27.6524  -14.4761   19.1213 N   0  0  0  0  0  0  0  0  0  0  0  0
  -28.9896  -20.1649   21.1014 N   0  0  0  0  0  0  0  0  0  0  0  0
  -18.0551  -23.0609   21.9592 N   0  0  0  0  0  0  0  0  0  0  0  0
  -15.8100  -21.4809   24.4874 N   0  3  0  0  0  0  0  0  0  0  0  0
  -28.2878  -23.1295   19.5519 N   0  3  0  0  0  0  0  0  0  0  0  0
  -26.8542  -26.0112   18.5442 O   0  0  0  0  0  0  0  0  0  0  0  0
  -25.7256  -15.1502   20.2419 O   0  0  0  0  0  0  0  0  0  0  0  0
  -29.3158  -17.7344   19.6199 O   0  0  0  0  0  0  0  0  0  0  0  0
  -27.1114  -21.3861   21.6999 O   0  0  0  0  0  0  0  0  0  0  0  0
  -19.9808  -23.6717   23.0424 O   0  0  0  0  0  0  0  0  0  0  0  0
  -25.4627  -32.8568   21.9775 O   0  0  0  0  0  0  0  0  0  0  0  0
  -20.9710  -18.5694   20.8553 O   0  0  0  0  0  0  0  0  0  1  0  0
  -23.8084  -34.3392   27.0243 F   0  0  0  0  0  0  0  0  0  0  0  0
  -27.2992  -33.5275   23.9321 F   0  0  0  0  0  0  0  0  0  0  0  0
  1  2  1  0  0  0  0
  1  5  2  0  0  0  0
  2  6  2  0  0  0  0
  3 10  2  0  0  0  0
  3 18  1  0  0  0  0
  4 11  1  0  0  0  0
  4 18  2  0  0  0  0
  5 20  1  0  0  0  0
  6 23  1  0  0  0  0
  7  9  2  0  0  0  0
  7 22  1  0  0  0  0
  8 12  2  0  0  0  0
  8 21  1  0  0  0  0
  9 26  1  0  0  0  0
 10 27  1  0  0  0  0
 11 27  2  0  0  0  0
 12 28  1  0  0  0  0
 13 14  2  0  0  0  0
 13 29  1  0  0  0  0
 14 30  1  0  0  0  0
 15 24  1  0  0  0  0
 15 26  2  0  0  0  0
 16 25  1  0  0  0  0
 16 28  2  0  0  0  0
 17 30  2  0  0  0  0
 17 31  1  0  0  0  0
 18 32  1  0  0  0  0
 19 32  1  0  0  0  0
 19 33  2  0  0  0  0
 19 34  1  0  0  0  0
 20 23  2  0  0  0  0
 20 39  1  0  0  0  0
 21 25  2  0  0  0  0
 21 40  1  0  0  0  0
 22 24  2  0  0  0  0
 22 42  1  0  0  0  0
 23 49  1  0  0  0  0
 24 50  1  0  0  0  0
 25 41  1  0  0  0  0
 26 60  1  0  0  0  0
 27 80  1  0  0  0  0
 28 81  1  0  0  0  0
 29 31  2  0  0  0  0
 29 80  1  0  0  0  0
 30 82  1  0  0  0  0
 31 83  1  0  0  0  0
 32 64  2  0  0  0  0
 33 65  1  0  0  0  0
 33 68  1  0  0  0  0
 34 69  1  0  0  0  0
 34 75  2  0  0  0  0
 35 51  1  0  0  0  0
 35 70  1  0  0  0  0
 35 76  2  0  0  0  0
 36 61  1  0  0  0  0
 36 66  1  0  0  0  0
 36 77  2  0  0  0  0
 37 62  1  0  0  0  0
 37 71  1  0  0  0  0
 37 78  2  0  0  0  0
 38 67  1  0  0  0  0
 38 72  1  0  0  0  0
 38 79  2  0  0  0  0
 39 43  1  0  0  0  0
 40 51  1  0  0  0  0
 41 66  1  0  0  0  0
 42 73  1  0  0  0  0
 43 45  1  0  0  0  0
 44 46  1  0  0  0  0
 44 47  1  0  0  0  0
 45 49  1  0  0  0  0
 46 52  1  0  0  0  0
 47 67  1  0  0  0  0
 48 52  1  0  0  0  0
 48 67  1  0  0  0  0
 49 70  1  0  0  0  0
 50 53  1  0  0  0  0
 50 72  1  0  0  0  0
 51 66  1  0  0  0  0
 52 65  1  0  0  0  0
 53 54  1  0  0  0  0
 53 73  1  0  0  0  0
 55 62  1  0  0  0  0
 56 63  1  0  0  0  0
 57 63  1  0  0  0  0
 58 63  1  0  0  0  0
 59 74  1  0  0  0  0
 60 81  1  0  0  0  0
 61 63  1  0  0  0  0
 61 71  1  0  0  0  0
 62 74  1  0  0  0  0
 64 65  1  0  0  0  0
M  CHG  2  73   1  74   1
M  ISO  4  38 100  60 101  72 100  81 101
M  END
> <Batch ID>
0171

> <Smiles>
CNC(C)C(=O)NC(C(=O)N1Cc2cc([101O:1][101CH2:1]c3ccc4c(c3)C([100NH:0][100C:0](=O)N3CCCC(n5nc(-c6ccc(Oc7ccc(F)cc7F)cc6)c(C(N)=O)c5N)C3)C(C)NC4)ccc2CC1C(=O)NC1CCCc2ccccc21)C(C)(C)C

> <Shape>
0.212

> <Color>
0.057

> <Negative vol penalty>
0.000

$$$$

  -OEChem-04052322373D

 88 98  0     1  0  0  0  0  0999 V2000
  -25.6455  -17.7099   19.8135 C   0  0  0  0  0  0  0  0  0  0  0  0
  -24.8227  -18.8313   19.8428 C   0  0  0  0  0  0  0  0  0  0  0  0
  -24.5276  -13.6502   18.7289 C   0  0  0  0  0  0  0  0  0  0  0  0
  -25.4010  -13.9292   20.9642 C   0  0  0  0  0  0  0  0  0  0  0  0
  -26.9327  -17.7771   20.3449 C   0  0  0  0  0  0  0  0  0  0  0  0
  -25.2864  -20.0204   20.4045 C   0  0  0  0  0  0  0  0  0  0  0  0
  -23.9665  -25.7149   18.5781 C   0  0  0  0  0  0  0  0  0  0  0  0
  -25.8271  -13.5340   18.2356 C   0  0  0  0  0  0  0  0  0  0  0  0
  -26.7005  -13.8129   20.4709 C   0  0  0  0  0  0  0  0  0  0  0  0
  -23.0509  -26.6595   19.0397 C   0  0  0  0  0  0  0  0  0  0  0  0
  -28.7771  -11.3349   19.4870 C   0  0  0  0  0  0  0  0  0  0  0  0
  -29.6634  -10.5162   20.1867 C   0  0  0  0  0  0  0  0  0  0  0  0
  -24.7851  -27.6824   20.3683 C   0  0  0  0  0  0  0  0  0  0  0  0
  -31.1217  -12.4074   20.5524 C   0  0  0  0  0  0  0  0  0  0  0  0
  -18.7274  -26.3455   22.6485 C   0  0  0  0  0  0  0  0  0  0  0  0
  -24.3145  -13.8479   20.0932 C   0  0  0  0  0  0  0  0  0  0  0  0
  -22.1393  -12.9292   21.0587 C   0  0  0  0  0  0  0  0  0  0  0  0
  -27.4158  -18.9704   20.9047 C   0  0  0  0  0  0  0  0  0  0  0  0
  -25.2980  -25.7404   19.0173 C   0  0  0  0  0  0  0  0  0  0  0  0
  -26.5808  -20.1033   20.9451 C   0  0  0  0  0  0  0  0  0  0  0  0
  -25.7163  -26.7386   19.9088 C   0  0  0  0  0  0  0  0  0  0  0  0
  -26.9135  -13.6153   19.1066 C   0  0  0  0  0  0  0  0  0  0  0  0
  -23.4594  -27.6417   19.9372 C   0  0  0  0  0  0  0  0  0  0  0  0
  -29.0631  -12.6899   19.3199 C   0  0  0  0  0  0  0  0  0  0  0  0
  -30.8357  -11.0524   20.7195 C   0  0  0  0  0  0  0  0  0  0  0  0
  -30.2354  -13.2262   19.8526 C   0  0  0  0  0  0  0  0  0  0  0  0
  -22.9724  -13.9686   20.6033 C   0  0  0  0  0  0  0  0  0  0  0  0
  -18.4703  -27.4471   21.8580 C   0  0  0  0  0  0  0  0  0  0  0  0
  -19.9342  -26.3593   23.3175 C   0  0  0  0  0  0  0  0  0  0  0  0
  -20.9783  -13.5593   21.4347 C   0  0  0  0  0  0  0  0  0  0  0  0
  -20.4622  -28.3829   22.4267 C   0  0  0  0  0  0  0  0  0  0  0  0
  -22.3924  -11.5200   21.1352 C   0  0  0  0  0  0  0  0  0  0  0  0
  -27.1667  -23.7379   20.6302 C   0  0  0  0  0  0  0  0  0  0  0  0
  -29.4545  -25.9304   19.9365 C   0  0  0  0  0  0  0  0  0  0  0  0
  -30.2278  -29.1558   19.1331 C   0  0  0  0  0  0  0  0  0  0  0  0
  -19.9081  -19.0704   23.2618 C   0  0  0  0  0  0  0  0  0  0  0  0
  -28.7975  -18.9813   21.5095 C   0  0  0  0  0  0  0  0  0  0  0  0
  -26.2798  -24.7306   18.4892 C   0  0  0  0  0  0  0  0  0  0  0  0
  -27.1393  -26.8218   20.3952 C   0  0  0  0  0  0  0  0  0  0  0  0
  -29.3465  -20.3854   21.7487 C   0  0  0  0  0  0  0  0  0  0  0  0
  -18.3274  -17.4219   20.4544 C   0  0  0  0  0  0  0  0  0  0  0  0
  -28.2935  -21.2638   22.4167 C   0  0  0  0  0  0  0  0  0  0  0  0
  -19.2735  -16.2424   20.2222 C   0  0  0  0  0  0  0  0  0  0  0  0
  -18.3099  -24.1280   25.3807 C   0  0  0  0  0  0  0  0  0  0  0  0
  -19.4427  -23.0296   23.3033 C   0  0  0  0  0  0  0  0  0  0  0  0
  -19.0965  -18.6764   20.8579 C   0  0  0  0  0  0  0  0  0  0  0  0
  -20.9198  -17.3264   21.8205 C   0  0  0  0  0  0  0  0  0  0  0  0
  -27.0566  -21.4183   21.5235 C   0  0  1  0  0  0  0  0  0  0  0  0
  -27.4882  -24.5390   19.4004 C   0  0  1  0  0  0  0  0  0  0  0  0
  -19.4592  -23.1709   25.4273 C   0  0  1  0  0  0  0  0  0  0  0  0
  -19.7225  -22.0543   24.4775 C   0  0  1  0  0  0  0  0  0  0  0  0
  -20.2011  -16.0217   21.4317 C   0  0  2  0  0  0  0  0  0  0  0  0
  -19.3502  -24.1392   24.2950 C   0  0  2  0  0  0  0  0  0  0  0  0
  -17.1903  -27.5223   21.0954 C   0  0  0  0  0  0  0  0  0  0  0  0
  -21.6617  -30.2245   23.6521 C   0  0  0  0  0  0  0  0  0  0  0  0
  -32.1857  -30.6544   18.6663 C   0  0  0  0  0  0  0  0  0  0  0  0
  -30.0842  -26.0330   22.9203 C   0  0  0  0  0  0  0  0  0  0  0  0
  -31.3276  -28.1676   22.5135 C   0  0  0  0  0  0  0  0  0  0  0  0
  -32.0918  -26.0551   21.4291 C   0  0  0  0  0  0  0  0  0  0  0  0
  -29.2761  -29.7391   16.3921 C   0  0  0  0  0  0  0  0  0  0  0  0
  -18.7999  -20.8536   24.5844 C   0  0  0  0  0  0  0  0  0  0  0  0
  -22.7835  -29.0886   21.6995 C   0  0  0  0  0  0  0  0  0  1  0  0
  -21.4447  -29.5368   22.3013 C   0  0  1  0  0  0  0  0  0  0  0  0
  -29.9798  -27.1763   20.6078 C   0  0  1  0  0  0  0  0  0  0  0  0
  -31.1331  -29.7379   18.0625 C   0  0  2  0  0  0  0  0  0  0  0  0
  -30.8435  -26.8555   21.8602 C   0  0  0  0  0  0  0  0  0  0  0  0
  -22.3900  -15.1680   20.6817 N   0  0  0  0  0  0  0  0  0  0  0  0
  -19.3186  -28.4876   21.7235 N   0  0  0  0  0  0  0  0  0  0  0  0
  -20.8289  -27.3654   23.2290 N   0  0  0  0  0  0  0  0  0  0  0  0
  -21.1785  -14.8862   21.1907 N   0  0  0  0  0  0  0  0  0  0  0  0
  -28.0602  -25.8081   19.8550 N   0  0  0  0  0  0  0  0  0  0  0  0
  -19.9459  -18.4037   22.0259 N   0  0  0  0  0  0  0  0  0  0  0  0
  -19.8158  -13.1024   21.9467 N   0  0  0  0  0  0  0  0  0  0  0  0
  -23.6381  -11.0407   20.7075 N   0  0  0  0  0  0  0  0  0  0  0  0
  -20.2366  -25.2466   24.1401 N   0  0  0  0  0  0  0  0  0  0  0  0
  -27.3123  -22.3735   20.4668 N   0  0  0  0  0  0  0  0  0  0  0  0
  -30.6817  -27.9312   19.5753 N   0  0  0  0  0  0  0  0  0  0  0  0
  -18.9621  -20.0822   23.3721 N   0  0  0  0  0  0  0  0  0  0  0  0
  -30.3343  -30.5231   17.0795 N   0  3  0  0  0  0  0  0  0  0  0  0
  -21.5333  -10.7079   21.5546 O   0  0  0  0  0  0  0  0  0  0  0  0
  -26.8141  -24.3150   21.6521 O   0  0  0  0  0  0  0  0  0  0  0  0
  -30.2521  -25.0997   19.4942 O   0  0  0  0  0  0  0  0  0  0  0  0
  -29.2208  -29.7317   19.5392 O   0  0  0  0  0  0  0  0  0  0  0  0
  -20.6586  -18.7817   24.2001 O   0  0  0  0  0  0  0  0  0  0  0  0
  -28.1817  -13.5016   18.6256 O   0  0  0  0  0  0  0  0  0  0  0  0
  -22.5676  -28.5645   20.3899 O   0  0  0  0  0  0  0  0  0  1  0  0
  -31.6860  -10.2664   21.3927 F   0  0  0  0  0  0  0  0  0  0  0  0
  -30.5149  -14.5274   19.6964 F   0  0  0  0  0  0  0  0  0  0  0  0
  1  2  1  0  0  0  0
  1  5  2  0  0  0  0
  2  6  2  0  0  0  0
  3  8  2  0  0  0  0
  3 16  1  0  0  0  0
  4  9  1  0  0  0  0
  4 16  2  0  0  0  0
  5 18  1  0  0  0  0
  6 20  1  0  0  0  0
  7 10  2  0  0  0  0
  7 19  1  0  0  0  0
  8 22  1  0  0  0  0
  9 22  2  0  0  0  0
 10 23  1  0  0  0  0
 11 12  2  0  0  0  0
 11 24  1  0  0  0  0
 12 25  1  0  0  0  0
 13 21  1  0  0  0  0
 13 23  2  0  0  0  0
 14 25  2  0  0  0  0
 14 26  1  0  0  0  0
 15 28  1  0  0  0  0
 15 29  2  0  0  0  0
 16 27  1  0  0  0  0
 17 27  1  0  0  0  0
 17 30  2  0  0  0  0
 17 32  1  0  0  0  0
 18 20  2  0  0  0  0
 18 37  1  0  0  0  0
 19 21  2  0  0  0  0
 19 38  1  0  0  0  0
 20 48  1  0  0  0  0
 21 39  1  0  0  0  0
 22 85  1  0  0  0  0
 23 86  1  0  0  0  0
 24 26  2  0  0  0  0
 24 85  1  0  0  0  0
 25 87  1  0  0  0  0
 26 88  1  0  0  0  0
 27 67  2  0  0  0  0
 28 54  1  0  0  0  0
 28 68  2  0  0  0  0
 29 69  1  0  0  0  0
 29 75  1  0  0  0  0
 30 70  1  0  0  0  0
 30 73  1  0  0  0  0
 31 63  1  0  0  0  0
 31 68  1  0  0  0  0
 31 69  2  0  0  0  0
 32 74  1  0  0  0  0
 32 80  2  0  0  0  0
 33 49  1  0  0  0  0
 33 76  1  0  0  0  0
 33 81  2  0  0  0  0
 34 64  1  0  0  0  0
 34 71  1  0  0  0  0
 34 82  2  0  0  0  0
 35 65  1  0  0  0  0
 35 77  1  0  0  0  0
 35 83  2  0  0  0  0
 36 72  1  0  0  0  0
 36 78  1  0  0  0  0
 36 84  2  0  0  0  0
 37 40  1  0  0  0  0
 38 49  1  0  0  0  0
 39 71  1  0  0  0  0
 40 42  1  0  0  0  0
 41 43  1  0  0  0  0
 41 46  1  0  0  0  0
 42 48  1  0  0  0  0
 43 52  1  0  0  0  0
 44 50  1  0  0  0  0
 44 53  1  0  0  0  0
 45 51  1  0  0  0  0
 45 53  1  0  0  0  0
 46 72  1  0  0  0  0
 47 52  1  0  0  0  0
 47 72  1  0  0  0  0
 48 76  1  0  0  0  0
 49 71  1  0  0  0  0
 50 51  1  0  0  0  0
 50 53  1  0  0  0  0
 51 61  1  0  0  0  0
 52 70  1  0  0  0  0
 53 75  1  0  0  0  0
 55 63  1  0  0  0  0
 56 65  1  0  0  0  0
 57 66  1  0  0  0  0
 58 66  1  0  0  0  0
 59 66  1  0  0  0  0
 60 79  1  0  0  0  0
 61 78  1  0  0  0  0
 62 63  1  0  0  0  0
 62 86  1  0  0  0  0
 64 66  1  0  0  0  0
 64 77  1  0  0  0  0
 65 79  1  0  0  0  0
 67 70  1  0  0  0  0
M  CHG  1  79   1
M  ISO  4  36 100  62 101  78 100  86 101
M  END
> <Batch ID>
0171

> <Smiles>
CNC(C)C(=O)NC(C(=O)N1Cc2cc([101O:1][101CH2:1]C(C)c3nc(C)cc(NC45CC(C[100NH:0][100C:0](=O)N6CCCC(n7nc(-c8ccc(Oc9ccc(F)cc9F)cc8)c(C(N)=O)c7N)C6)C4C5)n3)ccc2CC1C(=O)NC1CCCc2ccccc21)C(C)(C)C

> <Shape>
0.232

> <Color>
0.043

> <Negative vol penalty>
0.000

$$$$

  -OEChem-04052322373D

 86 95  0     1  0  0  0  0  0999 V2000
  -22.1829  -29.3437   13.8669 C   0  0  0  0  0  0  0  0  0  0  0  0
  -22.0404  -29.0976   15.2287 C   0  0  0  0  0  0  0  0  0  0  0  0
  -24.4337  -16.2834   19.7201 C   0  0  0  0  0  0  0  0  0  0  0  0
  -26.3621  -16.9057   18.4044 C   0  0  0  0  0  0  0  0  0  0  0  0
  -23.1603  -28.6692   13.1364 C   0  0  0  0  0  0  0  0  0  0  0  0
  -22.8745  -28.1759   15.8606 C   0  0  0  0  0  0  0  0  0  0  0  0
  -24.6504  -29.8786   20.2869 C   0  0  0  0  0  0  0  0  0  0  0  0
  -24.8648  -14.9569   19.7246 C   0  0  0  0  0  0  0  0  0  0  0  0
  -26.7933  -15.5791   18.4090 C   0  0  0  0  0  0  0  0  0  0  0  0
  -23.7855  -29.8341   21.3795 C   0  0  0  0  0  0  0  0  0  0  0  0
  -28.3661  -13.4802   20.5400 C   0  0  0  0  0  0  0  0  0  0  0  0
  -29.7152  -13.2397   20.8000 C   0  0  0  0  0  0  0  0  0  0  0  0
  -24.8649  -27.8167   22.1439 C   0  0  0  0  0  0  0  0  0  0  0  0
  -19.5193  -29.0526   23.8272 C   0  0  0  0  0  0  0  0  0  0  0  0
  -18.2835  -28.5654   21.8222 C   0  0  0  0  0  0  0  0  0  0  0  0
  -29.9424  -12.1794   18.6411 C   0  0  0  0  0  0  0  0  0  0  0  0
  -25.1824  -17.2578   19.0600 C   0  0  0  0  0  0  0  0  0  0  0  0
  -25.0546  -19.6289   19.9924 C   0  0  0  0  0  0  0  0  0  0  0  0
  -24.0133  -27.7460   13.7615 C   0  0  0  0  0  0  0  0  0  0  0  0
  -25.6236  -28.8849   20.1084 C   0  0  0  0  0  0  0  0  0  0  0  0
  -23.8634  -27.4875   15.1375 C   0  0  0  0  0  0  0  0  0  0  0  0
  -25.7426  -27.8524   21.0496 C   0  0  0  0  0  0  0  0  0  0  0  0
  -18.5204  -29.3861   22.9193 C   0  0  0  0  0  0  0  0  0  0  0  0
  -26.0446  -14.6047   19.0691 C   0  0  0  0  0  0  0  0  0  0  0  0
  -23.8908  -28.8015   22.3067 C   0  0  0  0  0  0  0  0  0  0  0  0
  -27.8051  -13.0702   19.3305 C   0  0  0  0  0  0  0  0  0  0  0  0
  -30.5034  -12.5893   19.8506 C   0  0  0  0  0  0  0  0  0  0  0  0
  -28.5932  -12.4198   18.3811 C   0  0  0  0  0  0  0  0  0  0  0  0
  -24.7373  -18.6282   19.0544 C   0  0  0  0  0  0  0  0  0  0  0  0
  -20.2474  -27.8969   23.5948 C   0  0  0  0  0  0  0  0  0  0  0  0
  -19.0670  -27.4316   21.6794 C   0  0  0  0  0  0  0  0  0  0  0  0
  -24.3896  -20.7436   19.5434 C   0  0  0  0  0  0  0  0  0  0  0  0
  -25.8770  -19.5571   21.1647 C   0  0  0  0  0  0  0  0  0  0  0  0
  -26.2184  -26.7033   17.8745 C   0  0  0  0  0  0  0  0  0  0  0  0
  -28.8836  -26.1798   19.6480 C   0  0  0  0  0  0  0  0  0  0  0  0
  -30.4313  -26.3868   22.6825 C   0  0  0  0  0  0  0  0  0  0  0  0
  -19.5522  -22.8981   17.5851 C   0  0  0  0  0  0  0  0  0  0  0  0
  -25.0237  -27.0064   12.9209 C   0  0  0  0  0  0  0  0  0  0  0  0
  -26.5663  -28.9620   18.9390 C   0  0  0  0  0  0  0  0  0  0  0  0
  -26.7837  -26.7724   20.9146 C   0  0  0  0  0  0  0  0  0  0  0  0
  -26.1143  -26.3221   13.7410 C   0  0  0  0  0  0  0  0  0  0  0  0
  -22.0141  -21.6400   15.1708 C   0  0  0  0  0  0  0  0  0  0  0  0
  -25.5028  -25.5619   14.9136 C   0  0  0  0  0  0  0  0  0  0  0  0
  -22.9379  -20.7877   16.0420 C   0  0  0  0  0  0  0  0  0  0  0  0
  -20.8630  -25.6974   19.5757 C   0  0  0  0  0  0  0  0  0  0  0  0
  -20.5862  -21.6700   15.7108 C   0  0  0  0  0  0  0  0  0  0  0  0
  -21.1777  -24.3498   18.9346 C   0  0  0  0  0  0  0  0  0  0  0  0
  -21.3973  -21.2132   17.9926 C   0  0  0  0  0  0  0  0  0  0  0  0
  -18.8110  -24.5286   19.2979 C   0  0  0  0  0  0  0  0  0  0  0  0
  -24.7655  -26.5133   15.8636 C   0  0  1  0  0  0  0  0  0  0  0  0
  -27.1836  -27.6141   18.5792 C   0  0  1  0  0  0  0  0  0  0  0  0
  -22.8576  -21.2145   17.5196 C   0  0  1  0  0  0  0  0  0  0  0  0
  -19.5470  -25.4142   20.2920 C   0  0  2  0  0  0  0  0  0  0  0  0
  -17.7067  -30.6188   23.1215 C   0  0  0  0  0  0  0  0  0  0  0  0
  -21.0365  -26.1574   25.2329 C   0  0  0  0  0  0  0  0  0  0  0  0
  -32.5955  -25.8444   23.8312 C   0  0  0  0  0  0  0  0  0  0  0  0
  -28.0993  -23.2322   19.7286 C   0  0  0  0  0  0  0  0  0  0  0  0
  -29.7089  -22.9275   21.6219 C   0  0  0  0  0  0  0  0  0  0  0  0
  -30.5404  -23.6531   19.3847 C   0  0  0  0  0  0  0  0  0  0  0  0
  -30.9303  -29.2296   23.3372 C   0  0  0  0  0  0  0  0  0  0  0  0
  -22.7254  -27.4647   23.8912 C   0  0  0  0  0  0  0  0  0  1  0  0
  -21.3272  -27.5080   24.5485 C   0  0  1  0  0  0  0  0  0  0  0  0
  -29.2352  -25.2829   20.8103 C   0  0  1  0  0  0  0  0  0  0  0  0
  -31.8021  -26.9030   23.0810 C   0  0  2  0  0  0  0  0  0  0  0  0
  -29.3750  -23.7930   20.3882 C   0  0  0  0  0  0  0  0  0  0  0  0
  -23.9331  -19.0683   18.0831 N   0  0  0  0  0  0  0  0  0  0  0  0
  -20.0463  -27.0748   22.5405 N   0  0  0  0  0  0  0  0  0  0  0  0
  -23.7394  -20.3578   18.4083 N   0  0  0  0  0  0  0  0  0  0  0  0
  -27.6780  -26.8880   19.7508 N   0  0  0  0  0  0  0  0  0  0  0  0
  -20.5671  -22.0532   17.1226 N   0  0  0  0  0  0  0  0  0  0  0  0
  -19.8656  -23.7787   18.6197 N   0  0  0  0  0  0  0  0  0  0  0  0
  -24.3033  -22.0064   20.0130 N   0  0  0  0  0  0  0  0  0  0  0  0
  -26.4857  -18.3347   21.4800 N   0  0  0  0  0  0  0  0  0  0  0  0
  -18.8191  -26.6219   20.5793 N   0  0  0  0  0  0  0  0  0  0  0  0
  -25.7089  -27.2236   16.7002 N   0  0  0  0  0  0  0  0  0  0  0  0
  -30.4374  -25.8484   21.4131 N   0  0  0  0  0  0  0  0  0  0  0  0
  -31.6699  -28.1006   23.9580 N   0  3  0  0  0  0  0  0  0  0  0  0
  -26.0532  -20.5434   21.9194 O   0  0  0  0  0  0  0  0  0  0  0  0
  -25.9566  -25.6088   18.3595 O   0  0  0  0  0  0  0  0  0  0  0  0
  -29.6539  -26.2547   18.6874 O   0  0  0  0  0  0  0  0  0  0  0  0
  -29.4537  -26.4512   23.4247 O   0  0  0  0  0  0  0  0  0  0  0  0
  -18.4285  -22.8994   17.0652 O   0  0  0  0  0  0  0  0  0  0  0  0
  -26.4657  -13.3104   19.0735 O   0  0  0  0  0  0  0  0  0  0  0  0
  -23.0419  -28.7549   23.3807 O   0  0  0  0  0  0  0  0  0  1  0  0
  -31.7993  -12.3599   20.0998 F   0  0  0  0  0  0  0  0  0  0  0  0
  -28.0601  -12.0247   17.2168 F   0  0  0  0  0  0  0  0  0  0  0  0
  1  2  1  0  0  0  0
  1  5  2  0  0  0  0
  2  6  2  0  0  0  0
  3  8  2  0  0  0  0
  3 17  1  0  0  0  0
  4  9  1  0  0  0  0
  4 17  2  0  0  0  0
  5 19  1  0  0  0  0
  6 21  1  0  0  0  0
  7 10  2  0  0  0  0
  7 20  1  0  0  0  0
  8 24  1  0  0  0  0
  9 24  2  0  0  0  0
 10 25  1  0  0  0  0
 11 12  2  0  0  0  0
 11 26  1  0  0  0  0
 12 27  1  0  0  0  0
 13 22  1  0  0  0  0
 13 25  2  0  0  0  0
 14 23  2  0  0  0  0
 14 30  1  0  0  0  0
 15 23  1  0  0  0  0
 15 31  2  0  0  0  0
 16 27  2  0  0  0  0
 16 28  1  0  0  0  0
 17 29  1  0  0  0  0
 18 29  1  0  0  0  0
 18 32  2  0  0  0  0
 18 33  1  0  0  0  0
 19 21  2  0  0  0  0
 19 38  1  0  0  0  0
 20 22  2  0  0  0  0
 20 39  1  0  0  0  0
 21 50  1  0  0  0  0
 22 40  1  0  0  0  0
 23 54  1  0  0  0  0
 24 83  1  0  0  0  0
 25 84  1  0  0  0  0
 26 28  2  0  0  0  0
 26 83  1  0  0  0  0
 27 85  1  0  0  0  0
 28 86  1  0  0  0  0
 29 66  2  0  0  0  0
 30 62  1  0  0  0  0
 30 67  2  0  0  0  0
 31 67  1  0  0  0  0
 31 74  1  0  0  0  0
 32 68  1  0  0  0  0
 32 72  1  0  0  0  0
 33 73  1  0  0  0  0
 33 78  2  0  0  0  0
 34 51  1  0  0  0  0
 34 75  1  0  0  0  0
 34 79  2  0  0  0  0
 35 63  1  0  0  0  0
 35 69  1  0  0  0  0
 35 80  2  0  0  0  0
 36 64  1  0  0  0  0
 36 76  1  0  0  0  0
 36 81  2  0  0  0  0
 37 70  1  0  0  0  0
 37 71  1  0  0  0  0
 37 82  2  0  0  0  0
 38 41  1  0  0  0  0
 39 51  1  0  0  0  0
 40 69  1  0  0  0  0
 41 43  1  0  0  0  0
 42 44  1  0  0  0  0
 42 46  1  0  0  0  0
 43 50  1  0  0  0  0
 44 52  1  0  0  0  0
 45 47  1  0  0  0  0
 45 53  1  0  0  0  0
 46 70  1  0  0  0  0
 47 71  1  0  0  0  0
 48 52  1  0  0  0  0
 48 70  1  0  0  0  0
 49 53  1  0  0  0  0
 49 71  1  0  0  0  0
 50 75  1  0  0  0  0
 51 69  1  0  0  0  0
 52 68  1  0  0  0  0
 53 74  1  0  0  0  0
 55 62  1  0  0  0  0
 56 64  1  0  0  0  0
 57 65  1  0  0  0  0
 58 65  1  0  0  0  0
 59 65  1  0  0  0  0
 60 77  1  0  0  0  0
 61 62  1  0  0  0  0
 61 84  1  0  0  0  0
 63 65  1  0  0  0  0
 63 76  1  0  0  0  0
 64 77  1  0  0  0  0
 66 68  1  0  0  0  0
M  CHG  1  77   1
M  ISO  4  37 100  61 101  71 100  84 101
M  END
> <Batch ID>
0171

> <Smiles>
CNC(C)C(=O)NC(C(=O)N1Cc2cc([101O:1][101CH2:1]C(C)c3cc(C)cc(NC4CC[100N:0]([100C:0](=O)N5CCCC(n6nc(-c7ccc(Oc8ccc(F)cc8F)cc7)c(C(N)=O)c6N)C5)C4)n3)ccc2CC1C(=O)NC1CCCc2ccccc21)C(C)(C)C

> <Shape>
0.199

> <Color>
0.064

> <Negative vol penalty>
0.000

$$$$

  -OEChem-04052322373D

 89 99  0     1  0  0  0  0  0999 V2000
  -29.5287  -25.2977   16.9698 C   0  0  0  0  0  0  0  0  0  0  0  0
  -28.1584  -25.3296   17.2079 C   0  0  0  0  0  0  0  0  0  0  0  0
  -23.0804  -10.0900   22.3215 C   0  0  0  0  0  0  0  0  0  0  0  0
  -24.0192   -9.5518   20.1614 C   0  0  0  0  0  0  0  0  0  0  0  0
  -30.4143  -25.7720   17.9367 C   0  0  0  0  0  0  0  0  0  0  0  0
  -27.6730  -25.8348   18.4135 C   0  0  0  0  0  0  0  0  0  0  0  0
  -22.4804  -28.9676   19.2679 C   0  0  0  0  0  0  0  0  0  0  0  0
  -22.3383   -8.9093   22.2932 C   0  0  0  0  0  0  0  0  0  0  0  0
  -23.2772   -8.3710   20.1331 C   0  0  0  0  0  0  0  0  0  0  0  0
  -21.2164  -28.5844   19.7140 C   0  0  0  0  0  0  0  0  0  0  0  0
  -22.8741   -5.6167   22.8453 C   0  0  0  0  0  0  0  0  0  0  0  0
  -22.8486   -4.8392   24.0031 C   0  0  0  0  0  0  0  0  0  0  0  0
  -21.7966  -29.2913   21.9462 C   0  0  0  0  0  0  0  0  0  0  0  0
  -19.7863  -24.0668   23.8297 C   0  0  0  0  0  0  0  0  0  0  0  0
  -20.4472   -5.0807   24.1124 C   0  0  0  0  0  0  0  0  0  0  0  0
  -23.9208  -10.4113   21.2555 C   0  0  0  0  0  0  0  0  0  0  0  0
  -25.9837  -11.8087   21.8029 C   0  0  0  0  0  0  0  0  0  0  0  0
  -29.9390  -26.2922   19.1508 C   0  0  0  0  0  0  0  0  0  0  0  0
  -23.4175  -29.5063   20.1613 C   0  0  0  0  0  0  0  0  0  0  0  0
  -28.5531  -26.3153   19.3981 C   0  0  0  0  0  0  0  0  0  0  0  0
  -23.0709  -29.6830   21.5084 C   0  0  0  0  0  0  0  0  0  0  0  0
  -20.8134  -23.2429   24.3526 C   0  0  0  0  0  0  0  0  0  0  0  0
  -22.4367   -8.0498   21.1990 C   0  0  0  0  0  0  0  0  0  0  0  0
  -20.8753  -28.7435   21.0540 C   0  0  0  0  0  0  0  0  0  0  0  0
  -21.6861   -6.1263   22.3211 C   0  0  0  0  0  0  0  0  0  0  0  0
  -21.6352   -4.5712   24.6366 C   0  0  0  0  0  0  0  0  0  0  0  0
  -20.4727   -5.8583   22.9547 C   0  0  0  0  0  0  0  0  0  0  0  0
  -24.6872  -11.6312   21.2839 C   0  0  0  0  0  0  0  0  0  0  0  0
  -20.3542  -24.8699   22.8654 C   0  0  0  0  0  0  0  0  0  0  0  0
  -21.9777  -23.5679   23.6921 C   0  0  0  0  0  0  0  0  0  0  0  0
  -26.2595  -13.1374   21.5908 C   0  0  0  0  0  0  0  0  0  0  0  0
  -26.8603  -10.8576   22.4214 C   0  0  0  0  0  0  0  0  0  0  0  0
  -26.3009  -28.6398   21.1805 C   0  0  0  0  0  0  0  0  0  0  0  0
  -26.2188  -31.5272   22.6566 C   0  0  0  0  0  0  0  0  0  0  0  0
  -24.3425  -34.0734   23.9383 C   0  0  0  0  0  0  0  0  0  0  0  0
  -24.9946  -18.3540   21.6786 C   0  0  0  0  0  0  0  0  0  0  0  0
  -30.9370  -26.7497   20.1848 C   0  0  0  0  0  0  0  0  0  0  0  0
  -24.7674  -29.9395   19.6589 C   0  0  0  0  0  0  0  0  0  0  0  0
  -24.0336  -30.2753   22.5038 C   0  0  0  0  0  0  0  0  0  0  0  0
  -30.3234  -27.6148   21.2827 C   0  0  0  0  0  0  0  0  0  0  0  0
  -23.8313  -16.6196   18.8532 C   0  0  0  0  0  0  0  0  0  0  0  0
  -29.0331  -26.9862   21.7992 C   0  0  0  0  0  0  0  0  0  0  0  0
  -24.0539  -15.1678   19.2758 C   0  0  0  0  0  0  0  0  0  0  0  0
  -18.3546  -26.5426   22.5929 C   0  0  0  0  0  0  0  0  0  0  0  0
  -23.3046  -17.4777   20.0049 C   0  0  0  0  0  0  0  0  0  0  0  0
  -23.1780  -20.0935   21.3644 C   0  0  0  0  0  0  0  0  0  0  0  0
  -25.5346  -20.7698   21.6421 C   0  0  0  0  0  0  0  0  0  0  0  0
  -24.3562  -15.9610   21.6519 C   0  0  0  0  0  0  0  0  0  0  0  0
  -22.7813  -20.9493   22.5630 C   0  0  0  0  0  0  0  0  0  0  0  0
  -25.1794  -21.6129   22.8559 C   0  0  0  0  0  0  0  0  0  0  0  0
  -27.9867  -26.8787   20.6833 C   0  0  1  0  0  0  0  0  0  0  0  0
  -19.6176  -25.9202   22.0330 C   0  0  1  0  0  0  0  0  0  0  0  0
  -25.8229  -30.0005   20.7587 C   0  0  1  0  0  0  0  0  0  0  0  0
  -24.9409  -15.0878   20.5310 C   0  0  1  0  0  0  0  0  0  0  0  0
  -19.6082  -27.3591   22.5147 C   0  0  1  0  0  0  0  0  0  1  0  0
  -22.5075  -24.6678   20.4713 C   0  0  0  0  0  0  0  0  0  0  0  0
  -24.5572  -36.2802   25.1137 C   0  0  0  0  0  0  0  0  0  0  0  0
  -26.8678  -30.0745   25.2602 C   0  0  0  0  0  0  0  0  0  0  0  0
  -26.1397  -32.1224   26.5029 C   0  0  0  0  0  0  0  0  0  0  0  0
  -28.0820  -32.2376   24.9418 C   0  0  0  0  0  0  0  0  0  0  0  0
  -23.0016  -35.5130   21.7273 C   0  0  0  0  0  0  0  0  0  0  0  0
  -20.6577  -22.2264   25.4116 C   0  0  0  0  0  0  0  0  0  0  0  0
  -23.3628  -23.0110   23.8420 C   0  0  0  0  0  0  0  0  0  0  0  0
  -22.6335  -25.1851   21.8939 C   0  0  0  0  0  0  0  0  0  0  0  0
  -25.7452  -32.0282   23.9996 C   0  0  1  0  0  0  0  0  0  0  0  0
  -24.4382  -35.5790   23.7695 C   0  0  2  0  0  0  0  0  0  0  0  0
  -26.6910  -31.6027   25.1580 C   0  0  0  0  0  0  0  0  0  0  0  0
  -24.1748  -12.7571   20.7801 N   0  0  0  0  0  0  0  0  0  0  0  0
  -21.6866  -24.5582   22.7906 N   0  0  0  0  0  0  0  0  0  0  0  0
  -25.1543  -13.6548   20.9816 N   0  0  0  0  0  0  0  0  0  0  0  0
  -25.3435  -30.6776   21.9653 N   0  0  0  0  0  0  0  0  0  0  0  0
  -24.1592  -17.3373   21.1921 N   0  0  0  0  0  0  0  0  0  0  0  0
  -24.5823  -19.6767   21.4589 N   0  0  0  0  0  0  0  0  0  0  0  0
  -27.3370  -13.9019   21.8678 N   0  0  0  0  0  0  0  0  0  0  0  0
  -26.4195   -9.5344   22.5603 N   0  0  0  0  0  0  0  0  0  0  0  0
  -27.3693  -28.1655   20.4437 N   0  0  0  0  0  0  0  0  0  0  0  0
  -25.5806  -33.4712   23.8621 N   0  0  0  0  0  0  0  0  0  0  0  0
  -23.7538  -22.0939   22.7171 N   0  3  0  0  0  0  0  0  0  0  0  0
  -23.2281  -36.1001   23.0730 N   0  3  0  0  0  0  0  0  0  0  0  0
  -27.9943  -11.1754   22.8533 O   0  0  0  0  0  0  0  0  0  0  0  0
  -25.7426  -28.0637   22.1068 O   0  0  0  0  0  0  0  0  0  0  0  0
  -27.3216  -31.8824   22.2332 O   0  0  0  0  0  0  0  0  0  0  0  0
  -23.2765  -33.4904   24.1234 O   0  0  0  0  0  0  0  0  0  0  0  0
  -26.0474  -18.0948   22.2752 O   0  0  0  0  0  0  0  0  0  0  0  0
  -21.7130   -6.8974   21.1712 O   0  0  0  0  0  0  0  0  0  0  0  0
  -19.6397  -28.3689   21.4931 O   0  0  0  0  0  0  0  0  0  1  0  0
  -21.6107   -3.8232   25.7476 F   0  0  0  0  0  0  0  0  0  0  0  0
  -19.3280   -6.3441   22.4551 F   0  0  0  0  0  0  0  0  0  0  0  0
  -21.1812  -22.6658   26.5970 F   0  0  0  0  0  0  0  0  0  0  0  0
  1  2  1  0  0  0  0
  1  5  2  0  0  0  0
  2  6  2  0  0  0  0
  3  8  2  0  0  0  0
  3 16  1  0  0  0  0
  4  9  1  0  0  0  0
  4 16  2  0  0  0  0
  5 18  1  0  0  0  0
  6 20  1  0  0  0  0
  7 10  2  0  0  0  0
  7 19  1  0  0  0  0
  8 23  1  0  0  0  0
  9 23  2  0  0  0  0
 10 24  1  0  0  0  0
 11 12  2  0  0  0  0
 11 25  1  0  0  0  0
 12 26  1  0  0  0  0
 13 21  1  0  0  0  0
 13 24  2  0  0  0  0
 14 22  1  0  0  0  0
 14 29  2  0  0  0  0
 15 26  2  0  0  0  0
 15 27  1  0  0  0  0
 16 28  1  0  0  0  0
 17 28  1  0  0  0  0
 17 31  2  0  0  0  0
 17 32  1  0  0  0  0
 18 20  2  0  0  0  0
 18 37  1  0  0  0  0
 19 21  2  0  0  0  0
 19 38  1  0  0  0  0
 20 51  1  0  0  0  0
 21 39  1  0  0  0  0
 22 30  2  0  0  0  0
 22 62  1  0  0  0  0
 23 85  1  0  0  0  0
 24 86  1  0  0  0  0
 25 27  2  0  0  0  0
 25 85  1  0  0  0  0
 26 87  1  0  0  0  0
 27 88  1  0  0  0  0
 28 68  2  0  0  0  0
 29 52  1  0  0  0  0
 29 69  1  0  0  0  0
 30 63  1  0  0  0  0
 30 69  1  0  0  0  0
 31 70  1  0  0  0  0
 31 74  1  0  0  0  0
 32 75  1  0  0  0  0
 32 80  2  0  0  0  0
 33 53  1  0  0  0  0
 33 76  1  0  0  0  0
 33 81  2  0  0  0  0
 34 65  1  0  0  0  0
 34 71  1  0  0  0  0
 34 82  2  0  0  0  0
 35 66  1  0  0  0  0
 35 77  1  0  0  0  0
 35 83  2  0  0  0  0
 36 72  1  0  0  0  0
 36 73  1  0  0  0  0
 36 84  2  0  0  0  0
 37 40  1  0  0  0  0
 38 53  1  0  0  0  0
 39 71  1  0  0  0  0
 40 42  1  0  0  0  0
 41 43  1  0  0  0  0
 41 45  1  0  0  0  0
 42 51  1  0  0  0  0
 43 54  1  0  0  0  0
 44 52  1  0  0  0  0
 44 55  1  0  0  0  0
 45 72  1  0  0  0  0
 46 49  1  0  0  0  0
 46 73  1  0  0  0  0
 47 50  1  0  0  0  0
 47 73  1  0  0  0  0
 48 54  1  0  0  0  0
 48 72  1  0  0  0  0
 49 78  1  0  0  0  0
 50 78  1  0  0  0  0
 51 76  1  0  0  0  0
 52 55  1  0  0  0  0
 53 71  1  0  0  0  0
 54 70  1  0  0  0  0
 55 86  1  0  0  0  0
 56 64  1  0  0  0  0
 57 66  1  0  0  0  0
 58 67  1  0  0  0  0
 59 67  1  0  0  0  0
 60 67  1  0  0  0  0
 61 79  1  0  0  0  0
 62 89  1  0  0  0  0
 63 78  1  0  0  0  0
 64 69  1  0  0  0  0
 65 67  1  0  0  0  0
 65 77  1  0  0  0  0
 66 79  1  0  0  0  0
 68 70  1  0  0  0  0
M  CHG  2  78   1  79   1
M  ISO  4  36 100  55 101  73 100  86 101
M  END
> <Batch ID>
0171

> <Smiles>
CCn1c(C2C[101CH:1]2[101O:1]c2ccc3c(c2)CN(C(=O)C(NC(=O)C(C)NC)C(C)(C)C)C(C(=O)NC2CCCc4ccccc42)C3)cc(CF)c1CN1CC[100N:0]([100C:0](=O)N2CCCC(n3nc(-c4ccc(Oc5ccc(F)cc5F)cc4)c(C(N)=O)c3N)C2)CC1

> <Shape>
0.322

> <Color>
0.125

> <Negative vol penalty>
0.000

$$$$

  -OEChem-04052322373D

 88 99  0     1  0  0  0  0  0999 V2000
  -16.5092  -25.6678   22.9663 C   0  0  0  0  0  0  0  0  0  0  0  0
  -17.4323  -24.6492   22.7527 C   0  0  0  0  0  0  0  0  0  0  0  0
  -24.4696  -14.5746   23.6940 C   0  0  0  0  0  0  0  0  0  0  0  0
  -23.7691  -15.8391   21.7582 C   0  0  0  0  0  0  0  0  0  0  0  0
  -16.7627  -26.9499   22.4805 C   0  0  0  0  0  0  0  0  0  0  0  0
  -18.6091  -24.9118   22.0522 C   0  0  0  0  0  0  0  0  0  0  0  0
  -25.4919  -22.9471   21.7648 C   0  0  0  0  0  0  0  0  0  0  0  0
  -23.9405  -15.5590   24.5285 C   0  0  0  0  0  0  0  0  0  0  0  0
  -23.2399  -16.8236   22.5928 C   0  0  0  0  0  0  0  0  0  0  0  0
  -26.4467  -22.4981   20.8534 C   0  0  0  0  0  0  0  0  0  0  0  0
  -21.3845  -19.4961   24.2156 C   0  0  0  0  0  0  0  0  0  0  0  0
  -20.1187  -19.9953   23.9093 C   0  0  0  0  0  0  0  0  0  0  0  0
  -26.8149  -24.7696   20.1294 C   0  0  0  0  0  0  0  0  0  0  0  0
  -19.1871  -17.7788   24.1467 C   0  0  0  0  0  0  0  0  0  0  0  0
  -24.3839  -14.7147   22.3087 C   0  0  0  0  0  0  0  0  0  0  0  0
  -24.2677  -12.5626   20.9439 C   0  0  0  0  0  0  0  0  0  0  0  0
  -17.9476  -27.2307   21.7821 C   0  0  0  0  0  0  0  0  0  0  0  0
  -25.1831  -24.3118   21.8579 C   0  0  0  0  0  0  0  0  0  0  0  0
  -18.8781  -26.1985   21.5555 C   0  0  0  0  0  0  0  0  0  0  0  0
  -25.8576  -25.2336   21.0446 C   0  0  0  0  0  0  0  0  0  0  0  0
  -28.5931  -20.7882   16.1198 C   0  0  0  0  0  0  0  0  0  0  0  0
  -28.1901  -20.6619   14.7950 C   0  0  0  0  0  0  0  0  0  0  0  0
  -29.2001  -19.7143   16.7614 C   0  0  0  0  0  0  0  0  0  0  0  0
  -23.3257  -16.6835   23.9780 C   0  0  0  0  0  0  0  0  0  0  0  0
  -27.1063  -23.4091   20.0335 C   0  0  0  0  0  0  0  0  0  0  0  0
  -21.5518  -18.1382   24.4874 C   0  0  0  0  0  0  0  0  0  0  0  0
  -19.0199  -19.1367   23.8748 C   0  0  0  0  0  0  0  0  0  0  0  0
  -20.4530  -17.2796   24.4529 C   0  0  0  0  0  0  0  0  0  0  0  0
  -24.9308  -13.6984   21.4461 C   0  0  0  0  0  0  0  0  0  0  0  0
  -29.3799  -18.5452   16.0399 C   0  0  0  0  0  0  0  0  0  0  0  0
  -28.4153  -19.4504   14.1615 C   0  0  0  0  0  0  0  0  0  0  0  0
  -25.2137  -11.9217   20.1818 C   0  0  0  0  0  0  0  0  0  0  0  0
  -22.9173  -12.1261   21.1479 C   0  0  0  0  0  0  0  0  0  0  0  0
  -22.5668  -26.0562   21.3936 C   0  0  0  0  0  0  0  0  0  0  0  0
  -24.4299  -28.4493   22.5443 C   0  0  0  0  0  0  0  0  0  0  0  0
  -27.5696  -29.6803   23.0679 C   0  0  0  0  0  0  0  0  0  0  0  0
  -30.2152  -14.0002   17.4567 C   0  0  0  0  0  0  0  0  0  0  0  0
  -18.1559  -28.6206   21.2351 C   0  0  0  0  0  0  0  0  0  0  0  0
  -24.1699  -24.7829   22.8648 C   0  0  0  0  0  0  0  0  0  0  0  0
  -25.5771  -26.7114   21.1198 C   0  0  0  0  0  0  0  0  0  0  0  0
  -19.5993  -28.9050   20.8277 C   0  0  0  0  0  0  0  0  0  0  0  0
  -29.9179  -11.2787   19.7886 C   0  0  0  0  0  0  0  0  0  0  0  0
  -28.1322  -22.2788   12.7811 C   0  0  0  0  0  0  0  0  0  0  0  0
  -28.2428  -23.1239   14.0115 C   0  0  0  0  0  0  0  0  0  0  0  0
  -20.1599  -27.7485   20.0061 C   0  0  0  0  0  0  0  0  0  0  0  0
  -28.5761  -11.5142   20.4741 C   0  0  0  0  0  0  0  0  0  0  0  0
  -26.9872  -22.6479   16.9188 C   0  0  0  0  0  0  0  0  0  0  0  0
  -30.5962  -12.6000   19.4523 C   0  0  0  0  0  0  0  0  0  0  0  0
  -29.3084  -16.4418   17.7332 C   0  0  0  0  0  0  0  0  0  0  0  0
  -30.0254  -15.9362   15.8035 C   0  0  0  0  0  0  0  0  0  0  0  0
  -28.3983  -13.7289   19.2312 C   0  0  0  0  0  0  0  0  0  0  0  0
  -28.3778  -22.0616   16.8475 C   0  0  1  0  0  0  0  0  0  0  0  0
  -27.5367  -21.7960   14.0765 C   0  0  0  0  0  0  0  0  0  0  0  0
  -20.1775  -26.4500   20.8217 C   0  0  1  0  0  0  0  0  0  0  0  0
  -30.0532  -17.2392   16.6352 C   0  0  0  0  0  0  0  0  0  0  0  0
  -23.5646  -26.1385   22.5140 C   0  0  1  0  0  0  0  0  0  0  0  0
  -27.6832  -12.4171   19.6109 C   0  0  2  0  0  0  0  0  0  0  0  0
  -27.6024  -22.0492   18.1466 C   0  0  1  0  0  0  0  0  0  1  0  0
  -29.6471  -19.8062   18.1810 C   0  0  0  0  0  0  0  0  0  0  0  0
  -28.0055  -19.2535   12.7384 C   0  0  0  0  0  0  0  0  0  0  0  0
  -28.7731  -31.6775   23.9952 C   0  0  0  0  0  0  0  0  0  0  0  0
  -23.7227  -30.0368   20.0363 C   0  0  0  0  0  0  0  0  0  0  0  0
  -25.6447  -31.5594   20.5426 C   0  0  0  0  0  0  0  0  0  0  0  0
  -23.7439  -31.3769   22.1478 C   0  0  0  0  0  0  0  0  0  0  0  0
  -28.9322  -28.0485   25.1269 C   0  0  0  0  0  0  0  0  0  0  0  0
  -25.3745  -29.4565   21.9340 C   0  0  1  0  0  0  0  0  0  0  0  0
  -28.2195  -30.2933   24.2952 C   0  0  2  0  0  0  0  0  0  0  0  0
  -24.6256  -30.5794   21.1621 C   0  0  0  0  0  0  0  0  0  0  0  0
  -26.2000  -13.7771   21.0376 N   0  0  0  0  0  0  0  0  0  0  0  0
  -29.0018  -18.3849   14.7519 N   0  0  0  0  0  0  0  0  0  0  0  0
  -26.3420  -12.6827   20.2707 N   0  0  0  0  0  0  0  0  0  0  0  0
  -24.5736  -27.1221   22.1157 N   0  0  0  0  0  0  0  0  0  0  0  0
  -29.7299  -13.4796   18.6616 N   0  0  0  0  0  0  0  0  0  0  0  0
  -29.7767  -15.2418   17.0609 N   0  0  0  0  0  0  0  0  0  0  0  0
  -25.1821  -10.7870   19.4511 N   0  0  0  0  0  0  0  0  0  0  0  0
  -22.0794  -12.9029   21.9595 N   0  0  0  0  0  0  0  0  0  0  0  0
  -21.2901  -26.4495   21.7472 N   0  0  0  0  0  0  0  0  0  0  0  0
  -26.2160  -29.9393   23.0235 N   0  0  0  0  0  0  0  0  0  0  0  0
  -29.3386  -29.4329   24.7731 N   0  3  0  0  0  0  0  0  0  0  0  0
  -22.4719  -11.0695   20.6392 O   0  0  0  0  0  0  0  0  0  0  0  0
  -22.9287  -25.6662   20.2897 O   0  0  0  0  0  0  0  0  0  0  0  0
  -23.6001  -28.8251   23.3760 O   0  0  0  0  0  0  0  0  0  0  0  0
  -28.2003  -29.0391   22.2303 O   0  0  0  0  0  0  0  0  0  0  0  0
  -31.0408  -13.3881   16.7662 O   0  0  0  0  0  0  0  0  0  0  0  0
  -22.8091  -17.6442   24.7921 O   0  0  0  0  0  0  0  0  0  0  0  0
  -28.0382  -22.9735   19.1426 O   0  0  0  0  0  0  0  0  0  1  0  0
  -17.8041  -19.6165   23.5822 F   0  0  0  0  0  0  0  0  0  0  0  0
  -20.6072  -15.9743   24.7143 F   0  0  0  0  0  0  0  0  0  0  0  0
  1  2  1  0  0  0  0
  1  5  2  0  0  0  0
  2  6  2  0  0  0  0
  3  8  2  0  0  0  0
  3 15  1  0  0  0  0
  4  9  1  0  0  0  0
  4 15  2  0  0  0  0
  5 17  1  0  0  0  0
  6 19  1  0  0  0  0
  7 10  2  0  0  0  0
  7 18  1  0  0  0  0
  8 24  1  0  0  0  0
  9 24  2  0  0  0  0
 10 25  1  0  0  0  0
 11 12  2  0  0  0  0
 11 26  1  0  0  0  0
 12 27  1  0  0  0  0
 13 20  1  0  0  0  0
 13 25  2  0  0  0  0
 14 27  2  0  0  0  0
 14 28  1  0  0  0  0
 15 29  1  0  0  0  0
 16 29  1  0  0  0  0
 16 32  2  0  0  0  0
 16 33  1  0  0  0  0
 17 19  2  0  0  0  0
 17 38  1  0  0  0  0
 18 20  2  0  0  0  0
 18 39  1  0  0  0  0
 19 54  1  0  0  0  0
 20 40  1  0  0  0  0
 21 22  2  0  0  0  0
 21 23  1  0  0  0  0
 21 52  1  0  0  0  0
 22 31  1  0  0  0  0
 22 53  1  0  0  0  0
 23 30  2  0  0  0  0
 23 59  1  0  0  0  0
 24 85  1  0  0  0  0
 25 86  1  0  0  0  0
 26 28  2  0  0  0  0
 26 85  1  0  0  0  0
 27 87  1  0  0  0  0
 28 88  1  0  0  0  0
 29 69  2  0  0  0  0
 30 55  1  0  0  0  0
 30 70  1  0  0  0  0
 31 60  1  0  0  0  0
 31 70  2  0  0  0  0
 32 71  1  0  0  0  0
 32 75  1  0  0  0  0
 33 76  1  0  0  0  0
 33 80  2  0  0  0  0
 34 56  1  0  0  0  0
 34 77  1  0  0  0  0
 34 81  2  0  0  0  0
 35 66  1  0  0  0  0
 35 72  1  0  0  0  0
 35 82  2  0  0  0  0
 36 67  1  0  0  0  0
 36 78  1  0  0  0  0
 36 83  2  0  0  0  0
 37 73  1  0  0  0  0
 37 74  1  0  0  0  0
 37 84  2  0  0  0  0
 38 41  1  0  0  0  0
 39 56  1  0  0  0  0
 40 72  1  0  0  0  0
 41 45  1  0  0  0  0
 42 46  1  0  0  0  0
 42 48  1  0  0  0  0
 43 44  1  0  0  0  0
 43 53  1  0  0  0  0
 44 53  1  0  0  0  0
 45 54  1  0  0  0  0
 46 57  1  0  0  0  0
 47 52  1  0  0  0  0
 47 58  1  0  0  0  0
 48 73  1  0  0  0  0
 49 55  1  0  0  0  0
 49 74  1  0  0  0  0
 50 55  1  0  0  0  0
 50 74  1  0  0  0  0
 51 57  1  0  0  0  0
 51 73  1  0  0  0  0
 52 58  1  0  0  0  0
 54 77  1  0  0  0  0
 56 72  1  0  0  0  0
 57 71  1  0  0  0  0
 58 86  1  0  0  0  0
 61 67  1  0  0  0  0
 62 68  1  0  0  0  0
 63 68  1  0  0  0  0
 64 68  1  0  0  0  0
 65 79  1  0  0  0  0
 66 68  1  0  0  0  0
 66 78  1  0  0  0  0
 67 79  1  0  0  0  0
 69 71  1  0  0  0  0
M  CHG  1  79   1
M  ISO  4  37 100  58 101  74 100  86 101
M  END
> <Batch ID>
0171

> <Smiles>
CNC(C)C(=O)NC(C(=O)N1Cc2cc([101O:1][101CH:1]3CC3c3c(C)c(C4C[100N:0]([100C:0](=O)N5CCCC(n6nc(-c7ccc(Oc8ccc(F)cc8F)cc7)c(C(N)=O)c6N)C5)C4)nc(C)c3C3CC3)ccc2CC1C(=O)NC1CCCc2ccccc21)C(C)(C)C

> <Shape>
0.191

> <Color>
0.086

> <Negative vol penalty>
0.000

$$$$

  -OEChem-04052322373D

 85 94  0     1  0  0  0  0  0999 V2000
  -27.8651  -37.9233   24.5555 C   0  0  0  0  0  0  0  0  0  0  0  0
  -28.3809  -37.0122   23.6394 C   0  0  0  0  0  0  0  0  0  0  0  0
  -23.2549   -9.9192   22.0252 C   0  0  0  0  0  0  0  0  0  0  0  0
  -24.8182   -8.4613   20.8993 C   0  0  0  0  0  0  0  0  0  0  0  0
  -26.9823  -37.4918   25.5446 C   0  0  0  0  0  0  0  0  0  0  0  0
  -28.0149  -35.6686   23.7126 C   0  0  0  0  0  0  0  0  0  0  0  0
  -26.8445  -29.9659   19.5382 C   0  0  0  0  0  0  0  0  0  0  0  0
  -22.2727   -8.9327   21.9390 C   0  0  0  0  0  0  0  0  0  0  0  0
  -23.8359   -7.4747   20.8131 C   0  0  0  0  0  0  0  0  0  0  0  0
  -27.2255  -28.6313   19.4063 C   0  0  0  0  0  0  0  0  0  0  0  0
  -22.4499   -5.1577   22.8456 C   0  0  0  0  0  0  0  0  0  0  0  0
  -22.8153   -3.8514   23.1706 C   0  0  0  0  0  0  0  0  0  0  0  0
  -25.6314  -28.0143   21.1084 C   0  0  0  0  0  0  0  0  0  0  0  0
  -22.2141   -3.1294   20.9447 C   0  0  0  0  0  0  0  0  0  0  0  0
  -24.5277   -9.6836   21.5053 C   0  0  0  0  0  0  0  0  0  0  0  0
  -26.4696  -10.8909   22.6362 C   0  0  0  0  0  0  0  0  0  0  0  0
  -26.5978  -36.1440   25.6240 C   0  0  0  0  0  0  0  0  0  0  0  0
  -25.8601  -30.3368   20.4655 C   0  0  0  0  0  0  0  0  0  0  0  0
  -27.1272  -35.2184   24.7045 C   0  0  0  0  0  0  0  0  0  0  0  0
  -25.2379  -29.3540   21.2484 C   0  0  0  0  0  0  0  0  0  0  0  0
  -28.7103  -21.8235   19.0776 C   0  0  0  0  0  0  0  0  0  0  0  0
  -29.7480  -22.7012   19.3913 C   0  0  0  0  0  0  0  0  0  0  0  0
  -27.4432  -22.3217   18.7742 C   0  0  0  0  0  0  0  0  0  0  0  0
  -29.5186  -24.0771   19.4017 C   0  0  0  0  0  0  0  0  0  0  0  0
  -27.2138  -23.6975   18.7846 C   0  0  0  0  0  0  0  0  0  0  0  0
  -28.2515  -24.5752   19.0983 C   0  0  0  0  0  0  0  0  0  0  0  0
  -22.5631   -7.7104   21.3329 C   0  0  0  0  0  0  0  0  0  0  0  0
  -26.6210  -27.6556   20.1935 C   0  0  0  0  0  0  0  0  0  0  0  0
  -21.9665   -5.4499   21.5702 C   0  0  0  0  0  0  0  0  0  0  0  0
  -22.6974   -2.8372   22.2202 C   0  0  0  0  0  0  0  0  0  0  0  0
  -21.8486   -4.4358   20.6198 C   0  0  0  0  0  0  0  0  0  0  0  0
  -25.5426  -10.7025   21.5936 C   0  0  0  0  0  0  0  0  0  0  0  0
  -27.2076  -11.9818   22.2465 C   0  0  0  0  0  0  0  0  0  0  0  0
  -26.6477  -10.1464   23.8485 C   0  0  0  0  0  0  0  0  0  0  0  0
  -25.7905  -32.2043   23.0367 C   0  0  0  0  0  0  0  0  0  0  0  0
  -22.6119  -31.5648   22.9352 C   0  0  0  0  0  0  0  0  0  0  0  0
  -20.1079  -29.4747   21.9313 C   0  0  0  0  0  0  0  0  0  0  0  0
  -27.3223  -17.1404   20.3157 C   0  0  0  0  0  0  0  0  0  0  0  0
  -25.6777  -35.7161   26.7398 C   0  0  0  0  0  0  0  0  0  0  0  0
  -25.4414  -31.7772   20.5767 C   0  0  0  0  0  0  0  0  0  0  0  0
  -24.1614  -29.6974   22.2443 C   0  0  0  0  0  0  0  0  0  0  0  0
  -25.0483  -34.3432   26.5176 C   0  0  0  0  0  0  0  0  0  0  0  0
  -27.4398  -14.4110   17.8360 C   0  0  0  0  0  0  0  0  0  0  0  0
  -26.1045  -33.3379   26.0697 C   0  0  0  0  0  0  0  0  0  0  0  0
  -26.9774  -13.2273   18.6804 C   0  0  0  0  0  0  0  0  0  0  0  0
  -29.5308  -19.6972   20.2936 C   0  0  0  0  0  0  0  0  0  0  0  0
  -26.7629  -15.7148   18.2566 C   0  0  0  0  0  0  0  0  0  0  0  0
  -26.4511  -14.8365   20.5535 C   0  0  0  0  0  0  0  0  0  0  0  0
  -28.9554  -20.3472   19.0672 C   0  0  1  0  0  0  0  0  0  0  0  0
  -26.7348  -33.7572   24.7361 C   0  0  1  0  0  0  0  0  0  0  0  0
  -24.7929  -32.1092   21.9171 C   0  0  1  0  0  0  0  0  0  0  0  0
  -27.1575  -13.5253   20.1768 C   0  0  1  0  0  0  0  0  0  0  0  0
  -28.0936  -19.4622   19.9334 C   0  0  1  0  0  0  0  0  0  0  0  0
  -31.1081  -22.1682   19.7172 C   0  0  0  0  0  0  0  0  0  0  0  0
  -26.3288  -21.3811   18.4375 C   0  0  0  0  0  0  0  0  0  0  0  0
  -30.6314  -25.0193   19.7380 C   0  0  0  0  0  0  0  0  0  0  0  0
  -25.8547  -24.2322   18.4589 C   0  0  0  0  0  0  0  0  0  0  0  0
  -17.6156  -29.1977   22.0279 C   0  0  0  0  0  0  0  0  0  0  0  0
  -22.8270  -30.6661   25.8431 C   0  0  0  0  0  0  0  0  0  0  0  0
  -20.6056  -29.5402   25.5866 C   0  0  0  0  0  0  0  0  0  0  0  0
  -20.7871  -32.0133   25.3157 C   0  0  0  0  0  0  0  0  0  0  0  0
  -19.8655  -29.5792   18.9835 C   0  0  0  0  0  0  0  0  0  0  0  0
  -28.0059  -26.0554   19.1086 C   0  0  0  0  0  0  0  0  0  1  0  0
  -21.7169  -30.4980   23.5181 C   0  0  1  0  0  0  0  0  0  0  0  0
  -18.7887  -29.7467   21.2310 C   0  0  2  0  0  0  0  0  0  0  0  0
  -21.5058  -30.6729   25.0486 C   0  0  0  0  0  0  0  0  0  0  0  0
  -25.6773  -11.6016   20.6151 N   0  0  0  0  0  0  0  0  0  0  0  0
  -26.6975  -12.3657   21.0413 N   0  0  0  0  0  0  0  0  0  0  0  0
  -23.7912  -31.1203   22.3207 N   0  0  0  0  0  0  0  0  0  0  0  0
  -26.8921  -15.9493   19.7035 N   0  0  0  0  0  0  0  0  0  0  0  0
  -28.2366  -12.6405   22.8206 N   0  0  0  0  0  0  0  0  0  0  0  0
  -25.8035   -9.0545   24.0921 N   0  0  0  0  0  0  0  0  0  0  0  0
  -25.8453  -33.4477   23.6372 N   0  0  0  0  0  0  0  0  0  0  0  0
  -20.4847  -30.5277   22.7377 N   0  0  0  0  0  0  0  0  0  0  0  0
  -27.6449  -18.1824   19.4537 N   0  0  0  0  0  0  0  0  0  0  0  0
  -18.7781  -29.1133   19.8821 N   0  3  0  0  0  0  0  0  0  0  0  0
  -27.5185  -10.4508   24.6985 O   0  0  0  0  0  0  0  0  0  0  0  0
  -26.4597  -31.2220   23.3348 O   0  0  0  0  0  0  0  0  0  0  0  0
  -22.2737  -32.7483   23.0155 O   0  0  0  0  0  0  0  0  0  0  0  0
  -20.7389  -28.4308   21.7810 O   0  0  0  0  0  0  0  0  0  0  0  0
  -27.4080  -17.2702   21.5419 O   0  0  0  0  0  0  0  0  0  0  0  0
  -21.6049   -6.7474   21.2488 O   0  0  0  0  0  0  0  0  0  0  0  0
  -26.9915  -26.3523   20.0673 O   0  0  0  0  0  0  0  0  0  1  0  0
  -23.0498   -1.5831   22.5320 F   0  0  0  0  0  0  0  0  0  0  0  0
  -21.3860   -4.7106   19.3925 F   0  0  0  0  0  0  0  0  0  0  0  0
  1  2  1  0  0  0  0
  1  5  2  0  0  0  0
  2  6  2  0  0  0  0
  3  8  2  0  0  0  0
  3 15  1  0  0  0  0
  4  9  1  0  0  0  0
  4 15  2  0  0  0  0
  5 17  1  0  0  0  0
  6 19  1  0  0  0  0
  7 10  2  0  0  0  0
  7 18  1  0  0  0  0
  8 27  1  0  0  0  0
  9 27  2  0  0  0  0
 10 28  1  0  0  0  0
 11 12  2  0  0  0  0
 11 29  1  0  0  0  0
 12 30  1  0  0  0  0
 13 20  1  0  0  0  0
 13 28  2  0  0  0  0
 14 30  2  0  0  0  0
 14 31  1  0  0  0  0
 15 32  1  0  0  0  0
 16 32  1  0  0  0  0
 16 33  2  0  0  0  0
 16 34  1  0  0  0  0
 17 19  2  0  0  0  0
 17 39  1  0  0  0  0
 18 20  2  0  0  0  0
 18 40  1  0  0  0  0
 19 50  1  0  0  0  0
 20 41  1  0  0  0  0
 21 22  1  0  0  0  0
 21 23  2  0  0  0  0
 21 49  1  0  0  0  0
 22 24  2  0  0  0  0
 22 54  1  0  0  0  0
 23 25  1  0  0  0  0
 23 55  1  0  0  0  0
 24 26  1  0  0  0  0
 24 56  1  0  0  0  0
 25 26  2  0  0  0  0
 25 57  1  0  0  0  0
 26 63  1  0  0  0  0
 27 82  1  0  0  0  0
 28 83  1  0  0  0  0
 29 31  2  0  0  0  0
 29 82  1  0  0  0  0
 30 84  1  0  0  0  0
 31 85  1  0  0  0  0
 32 67  2  0  0  0  0
 33 68  1  0  0  0  0
 33 71  1  0  0  0  0
 34 72  1  0  0  0  0
 34 77  2  0  0  0  0
 35 51  1  0  0  0  0
 35 73  1  0  0  0  0
 35 78  2  0  0  0  0
 36 64  1  0  0  0  0
 36 69  1  0  0  0  0
 36 79  2  0  0  0  0
 37 65  1  0  0  0  0
 37 74  1  0  0  0  0
 37 80  2  0  0  0  0
 38 70  1  0  0  0  0
 38 75  1  0  0  0  0
 38 81  2  0  0  0  0
 39 42  1  0  0  0  0
 40 51  1  0  0  0  0
 41 69  1  0  0  0  0
 42 44  1  0  0  0  0
 43 45  1  0  0  0  0
 43 47  1  0  0  0  0
 44 50  1  0  0  0  0
 45 52  1  0  0  0  0
 46 49  1  0  0  0  0
 46 53  1  0  0  0  0
 47 70  1  0  0  0  0
 48 52  1  0  0  0  0
 48 70  1  0  0  0  0
 49 53  1  0  0  0  0
 50 73  1  0  0  0  0
 51 69  1  0  0  0  0
 52 68  1  0  0  0  0
 53 75  1  0  0  0  0
 58 65  1  0  0  0  0
 59 66  1  0  0  0  0
 60 66  1  0  0  0  0
 61 66  1  0  0  0  0
 62 76  1  0  0  0  0
 63 83  1  0  0  0  0
 64 66  1  0  0  0  0
 64 74  1  0  0  0  0
 65 76  1  0  0  0  0
 67 68  1  0  0  0  0
M  CHG  1  76   1
M  ISO  4  38 100  63 101  75 100  83 101
M  END
> <Batch ID>
0171

> <Smiles>
CNC(C)C(=O)NC(C(=O)N1Cc2cc([101O:1][101CH2:1]c3c(C)c(C)c(C4CC4[100NH:0][100C:0](=O)N4CCCC(n5nc(-c6ccc(Oc7ccc(F)cc7F)cc6)c(C(N)=O)c5N)C4)c(C)c3C)ccc2CC1C(=O)NC1CCCc2ccccc21)C(C)(C)C

> <Shape>
0.301

> <Color>
0.090

> <Negative vol penalty>
0.000

$$$$

  -OEChem-04052322373D

 88 97  0     1  0  0  0  0  0999 V2000
  -24.1584  -38.0337   23.7022 C   0  0  0  0  0  0  0  0  0  0  0  0
  -24.8902  -37.3948   22.7064 C   0  0  0  0  0  0  0  0  0  0  0  0
  -22.4481  -15.6140   19.3741 C   0  0  0  0  0  0  0  0  0  0  0  0
  -22.9190  -13.8370   17.8065 C   0  0  0  0  0  0  0  0  0  0  0  0
  -23.7912  -37.3360   24.8522 C   0  0  0  0  0  0  0  0  0  0  0  0
  -25.2562  -36.0581   22.8604 C   0  0  0  0  0  0  0  0  0  0  0  0
  -26.3603  -30.0967   19.0448 C   0  0  0  0  0  0  0  0  0  0  0  0
  -21.4511  -16.0973   18.5268 C   0  0  0  0  0  0  0  0  0  0  0  0
  -21.9220  -14.3203   16.9592 C   0  0  0  0  0  0  0  0  0  0  0  0
  -27.3225  -29.1073   18.8469 C   0  0  0  0  0  0  0  0  0  0  0  0
  -18.5502  -14.2054   16.7636 C   0  0  0  0  0  0  0  0  0  0  0  0
  -17.6708  -13.2779   16.2049 C   0  0  0  0  0  0  0  0  0  0  0  0
  -26.5645  -27.9798   20.8402 C   0  0  0  0  0  0  0  0  0  0  0  0
  -18.3750  -13.9433   13.9917 C   0  0  0  0  0  0  0  0  0  0  0  0
  -23.1821  -14.4838   19.0140 C   0  0  0  0  0  0  0  0  0  0  0  0
  -24.0590  -13.5366   21.2143 C   0  0  0  0  0  0  0  0  0  0  0  0
  -24.1445  -35.9874   25.0161 C   0  0  0  0  0  0  0  0  0  0  0  0
  -25.4988  -30.0407   20.1498 C   0  0  0  0  0  0  0  0  0  0  0  0
  -24.8945  -35.3421   24.0143 C   0  0  0  0  0  0  0  0  0  0  0  0
  -25.5906  -28.9683   21.0485 C   0  0  0  0  0  0  0  0  0  0  0  0
  -21.1880  -15.4505   17.3194 C   0  0  0  0  0  0  0  0  0  0  0  0
  -27.4267  -28.0502   19.7462 C   0  0  0  0  0  0  0  0  0  0  0  0
  -19.3419  -15.0019   15.9363 C   0  0  0  0  0  0  0  0  0  0  0  0
  -17.5832  -13.1468   14.8190 C   0  0  0  0  0  0  0  0  0  0  0  0
  -19.2544  -14.8708   14.5503 C   0  0  0  0  0  0  0  0  0  0  0  0
  -24.2126  -13.9844   19.8885 C   0  0  0  0  0  0  0  0  0  0  0  0
  -25.3246  -13.1695   21.6015 C   0  0  0  0  0  0  0  0  0  0  0  0
  -29.6519  -20.7340   20.4762 C   0  0  0  0  0  0  0  0  0  0  0  0
  -22.8779  -13.4594   22.0235 C   0  0  0  0  0  0  0  0  0  0  0  0
  -24.9596  -31.9009   22.6703 C   0  0  0  0  0  0  0  0  0  0  0  0
  -22.5518  -29.7973   23.2181 C   0  0  0  0  0  0  0  0  0  0  0  0
  -22.0871  -26.2236   23.0456 C   0  0  0  0  0  0  0  0  0  0  0  0
  -30.7439  -14.7423   19.9798 C   0  0  0  0  0  0  0  0  0  0  0  0
  -23.7656  -35.2883   26.2976 C   0  0  0  0  0  0  0  0  0  0  0  0
  -24.4486  -31.1015   20.3345 C   0  0  0  0  0  0  0  0  0  0  0  0
  -24.6761  -28.8512   22.2395 C   0  0  0  0  0  0  0  0  0  0  0  0
  -28.8542  -21.5888   21.4227 C   0  0  0  0  0  0  0  0  0  0  0  0
  -29.9490  -21.2534   19.0907 C   0  0  0  0  0  0  0  0  0  0  0  0
  -23.8706  -33.7676   26.2159 C   0  0  0  0  0  0  0  0  0  0  0  0
  -29.4589  -11.5337   19.8535 C   0  0  0  0  0  0  0  0  0  0  0  0
  -25.1902  -33.3575   25.5698 C   0  0  0  0  0  0  0  0  0  0  0  0
  -27.9497  -11.7409   19.9775 C   0  0  0  0  0  0  0  0  0  0  0  0
  -29.8747  -18.0064   19.0068 C   0  0  0  0  0  0  0  0  0  0  0  0
  -31.8842  -17.9622   20.5467 C   0  0  0  0  0  0  0  0  0  0  0  0
  -30.0821  -12.5906   18.9490 C   0  0  0  0  0  0  0  0  0  0  0  0
  -29.2941  -16.8102   19.7678 C   0  0  0  0  0  0  0  0  0  0  0  0
  -31.2463  -16.7865   21.2828 C   0  0  0  0  0  0  0  0  0  0  0  0
  -28.3065  -14.2170   19.5160 C   0  0  0  0  0  0  0  0  0  0  0  0
  -25.2889  -33.8860   24.1337 C   0  0  1  0  0  0  0  0  0  0  0  0
  -23.9637  -31.2177   21.7763 C   0  0  1  0  0  0  0  0  0  0  0  0
  -28.9550  -23.0695   21.0568 C   0  0  2  0  0  0  0  0  0  0  0  0
  -28.4656  -23.3284   19.5984 C   0  0  2  0  0  0  0  0  0  0  0  0
  -30.8404  -18.8386   19.8518 C   0  0  0  0  0  0  0  0  0  0  0  0
  -27.6242  -13.1763   20.4271 C   0  0  1  0  0  0  0  0  0  0  0  0
  -28.8539  -22.2015   18.5572 C   0  0  0  0  0  0  0  0  0  0  0  0
  -30.3483  -23.6267   21.3831 C   0  0  0  0  0  0  0  0  0  0  0  0
  -29.3518  -22.7581   17.2046 C   0  0  0  0  0  0  0  0  0  0  0  0
  -27.5894  -21.3603   18.2401 C   0  0  0  0  0  0  0  0  0  0  0  0
  -20.0133  -24.8649   22.6572 C   0  0  0  0  0  0  0  0  0  0  0  0
  -22.3964  -29.6971   26.2637 C   0  0  0  0  0  0  0  0  0  0  0  0
  -21.6126  -27.3267   26.0762 C   0  0  0  0  0  0  0  0  0  0  0  0
  -20.2508  -29.1704   25.0917 C   0  0  0  0  0  0  0  0  0  0  0  0
  -23.3065  -24.8042   20.7527 C   0  0  0  0  0  0  0  0  0  0  0  0
  -28.7766  -24.7661   19.1569 C   0  0  0  0  0  0  0  0  0  0  0  0
  -28.0573  -25.7746   20.0284 C   0  0  0  0  0  0  0  0  0  1  0  0
  -22.4183  -28.4990   23.9767 C   0  0  1  0  0  0  0  0  0  0  0  0
  -21.2603  -25.4629   22.0247 C   0  0  2  0  0  0  0  0  0  0  0  0
  -21.6943  -28.6813   25.3405 C   0  0  0  0  0  0  0  0  0  0  0  0
  -25.4761  -13.9096   19.4621 N   0  0  0  0  0  0  0  0  0  0  0  0
  -30.0746  -19.5757   20.8662 N   0  0  0  0  0  0  0  0  0  0  0  0
  -26.1280  -13.4106   20.5261 N   0  0  0  0  0  0  0  0  0  0  0  0
  -23.6698  -29.9166   22.3804 N   0  0  0  0  0  0  0  0  0  0  0  0
  -29.7471  -13.9395   19.4052 N   0  0  0  0  0  0  0  0  0  0  0  0
  -30.3638  -16.0261   20.3992 N   0  0  0  0  0  0  0  0  0  0  0  0
  -25.8174  -12.6672   22.7536 N   0  0  0  0  0  0  0  0  0  0  0  0
  -22.1213  -12.2801   21.9905 N   0  0  0  0  0  0  0  0  0  0  0  0
  -24.4948  -33.0711   23.2395 N   0  0  0  0  0  0  0  0  0  0  0  0
  -21.7606  -27.5630   23.0714 N   0  0  0  0  0  0  0  0  0  0  0  0
  -22.0621  -24.3566   21.4295 N   0  3  0  0  0  0  0  0  0  0  0  0
  -22.4955  -14.4142   22.7416 O   0  0  0  0  0  0  0  0  0  0  0  0
  -26.0672  -31.4024   22.8329 O   0  0  0  0  0  0  0  0  0  0  0  0
  -21.6919  -30.6706   23.3579 O   0  0  0  0  0  0  0  0  0  0  0  0
  -22.9349  -25.6830   23.7523 O   0  0  0  0  0  0  0  0  0  0  0  0
  -31.9053  -14.3364   20.1113 O   0  0  0  0  0  0  0  0  0  0  0  0
  -20.2150  -15.9217   16.4924 O   0  0  0  0  0  0  0  0  0  0  0  0
  -28.3723  -27.0765   19.5543 O   0  0  0  0  0  0  0  0  0  1  0  0
  -16.7399  -12.2550   14.2827 F   0  0  0  0  0  0  0  0  0  0  0  0
  -20.0133  -15.6324   13.7505 F   0  0  0  0  0  0  0  0  0  0  0  0
  1  2  1  0  0  0  0
  1  5  2  0  0  0  0
  2  6  2  0  0  0  0
  3  8  2  0  0  0  0
  3 15  1  0  0  0  0
  4  9  1  0  0  0  0
  4 15  2  0  0  0  0
  5 17  1  0  0  0  0
  6 19  1  0  0  0  0
  7 10  2  0  0  0  0
  7 18  1  0  0  0  0
  8 21  1  0  0  0  0
  9 21  2  0  0  0  0
 10 22  1  0  0  0  0
 11 12  2  0  0  0  0
 11 23  1  0  0  0  0
 12 24  1  0  0  0  0
 13 20  1  0  0  0  0
 13 22  2  0  0  0  0
 14 24  2  0  0  0  0
 14 25  1  0  0  0  0
 15 26  1  0  0  0  0
 16 26  1  0  0  0  0
 16 27  2  0  0  0  0
 16 29  1  0  0  0  0
 17 19  2  0  0  0  0
 17 34  1  0  0  0  0
 18 20  2  0  0  0  0
 18 35  1  0  0  0  0
 19 49  1  0  0  0  0
 20 36  1  0  0  0  0
 21 85  1  0  0  0  0
 22 86  1  0  0  0  0
 23 25  2  0  0  0  0
 23 85  1  0  0  0  0
 24 87  1  0  0  0  0
 25 88  1  0  0  0  0
 26 69  2  0  0  0  0
 27 71  1  0  0  0  0
 27 75  1  0  0  0  0
 28 37  1  0  0  0  0
 28 38  1  0  0  0  0
 28 70  2  0  0  0  0
 29 76  1  0  0  0  0
 29 80  2  0  0  0  0
 30 50  1  0  0  0  0
 30 77  1  0  0  0  0
 30 81  2  0  0  0  0
 31 66  1  0  0  0  0
 31 72  1  0  0  0  0
 31 82  2  0  0  0  0
 32 67  1  0  0  0  0
 32 78  1  0  0  0  0
 32 83  2  0  0  0  0
 33 73  1  0  0  0  0
 33 74  1  0  0  0  0
 33 84  2  0  0  0  0
 34 39  1  0  0  0  0
 35 50  1  0  0  0  0
 36 72  1  0  0  0  0
 37 51  1  0  0  0  0
 38 55  1  0  0  0  0
 39 41  1  0  0  0  0
 40 42  1  0  0  0  0
 40 45  1  0  0  0  0
 41 49  1  0  0  0  0
 42 54  1  0  0  0  0
 43 46  1  0  0  0  0
 43 53  1  0  0  0  0
 44 47  1  0  0  0  0
 44 53  1  0  0  0  0
 45 73  1  0  0  0  0
 46 74  1  0  0  0  0
 47 74  1  0  0  0  0
 48 54  1  0  0  0  0
 48 73  1  0  0  0  0
 49 77  1  0  0  0  0
 50 72  1  0  0  0  0
 51 52  1  0  0  0  0
 51 56  1  0  0  0  0
 52 55  1  0  0  0  0
 52 64  1  0  0  0  0
 53 70  1  0  0  0  0
 54 71  1  0  0  0  0
 55 57  1  0  0  0  0
 55 58  1  0  0  0  0
 59 67  1  0  0  0  0
 60 68  1  0  0  0  0
 61 68  1  0  0  0  0
 62 68  1  0  0  0  0
 63 79  1  0  0  0  0
 64 65  1  0  0  0  0
 65 86  1  0  0  0  0
 66 68  1  0  0  0  0
 66 78  1  0  0  0  0
 67 79  1  0  0  0  0
 69 71  1  0  0  0  0
M  CHG  1  79   1
M  ISO  4  33 100  65 101  74 100  86 101
M  END
> <Batch ID>
0171

> <Smiles>
CNC(C)C(=O)NC(C(=O)N1Cc2cc([101O:1][101CH2:1]CC3C(C)CC(NC4CC[100N:0]([100C:0](=O)N5CCCC(n6nc(-c7ccc(Oc8ccc(F)cc8F)cc7)c(C(N)=O)c6N)C5)CC4)=CC3(C)C)ccc2CC1C(=O)NC1CCCc2ccccc21)C(C)(C)C

> <Shape>
0.300

> <Color>
0.105

> <Negative vol penalty>
0.000

$$$$

  -OEChem-04052322373D

 87 96  0     1  0  0  0  0  0999 V2000
  -24.7658   -7.6281   27.5444 C   0  0  0  0  0  0  0  0  0  0  0  0
  -25.5562   -8.6729   27.0764 C   0  0  0  0  0  0  0  0  0  0  0  0
  -23.1759   -9.8610   19.9474 C   0  0  0  0  0  0  0  0  0  0  0  0
  -23.8714   -9.9171   22.2604 C   0  0  0  0  0  0  0  0  0  0  0  0
  -23.3795   -7.7700   27.5888 C   0  0  0  0  0  0  0  0  0  0  0  0
  -24.9607   -9.8600   26.6514 C   0  0  0  0  0  0  0  0  0  0  0  0
  -27.2092  -15.5254   27.2454 C   0  0  0  0  0  0  0  0  0  0  0  0
  -22.4500   -8.6957   20.1939 C   0  0  0  0  0  0  0  0  0  0  0  0
  -23.1455   -8.7518   22.5070 C   0  0  0  0  0  0  0  0  0  0  0  0
  -27.8939  -16.3601   26.3633 C   0  0  0  0  0  0  0  0  0  0  0  0
  -21.1826   -5.9918   23.8291 C   0  0  0  0  0  0  0  0  0  0  0  0
  -20.3952   -5.9487   24.9796 C   0  0  0  0  0  0  0  0  0  0  0  0
  -25.8167  -17.4411   25.7835 C   0  0  0  0  0  0  0  0  0  0  0  0
  -19.1307   -7.8480   24.1854 C   0  0  0  0  0  0  0  0  0  0  0  0
  -23.8867  -10.4717   20.9806 C   0  0  0  0  0  0  0  0  0  0  0  0
  -24.1781  -13.0016   20.8326 C   0  0  0  0  0  0  0  0  0  0  0  0
  -22.7673   -8.9630   27.1732 C   0  0  0  0  0  0  0  0  0  0  0  0
  -25.8193  -15.6351   27.3954 C   0  0  0  0  0  0  0  0  0  0  0  0
  -23.5648  -10.0175   26.6890 C   0  0  0  0  0  0  0  0  0  0  0  0
  -25.1171  -16.6083   26.6701 C   0  0  0  0  0  0  0  0  0  0  0  0
  -31.1085  -18.5557   23.7187 C   0  0  0  0  0  0  0  0  0  0  0  0
  -31.7389  -17.3176   23.7728 C   0  0  0  0  0  0  0  0  0  0  0  0
  -29.9163  -18.6924   23.0164 C   0  0  0  0  0  0  0  0  0  0  0  0
  -22.4347   -8.1412   21.4737 C   0  0  0  0  0  0  0  0  0  0  0  0
  -27.1973  -17.3162   25.6299 C   0  0  0  0  0  0  0  0  0  0  0  0
  -20.9442   -6.9632   22.8567 C   0  0  0  0  0  0  0  0  0  0  0  0
  -19.3692   -6.8767   25.1577 C   0  0  0  0  0  0  0  0  0  0  0  0
  -19.9182   -7.8912   23.0349 C   0  0  0  0  0  0  0  0  0  0  0  0
  -24.6372  -11.6751   20.7265 C   0  0  0  0  0  0  0  0  0  0  0  0
  -31.1411  -16.2560   23.1130 C   0  0  0  0  0  0  0  0  0  0  0  0
  -29.4001  -17.5693   22.3903 C   0  0  0  0  0  0  0  0  0  0  0  0
  -25.2638  -13.7693   20.4883 C   0  0  0  0  0  0  0  0  0  0  0  0
  -22.8858  -13.4958   21.2087 C   0  0  0  0  0  0  0  0  0  0  0  0
  -23.3486  -13.7008   26.8875 C   0  0  0  0  0  0  0  0  0  0  0  0
  -21.6751  -16.1152   28.2630 C   0  0  0  0  0  0  0  0  0  0  0  0
  -21.4729  -19.4371   29.0186 C   0  0  0  0  0  0  0  0  0  0  0  0
  -30.9666  -13.9138   20.9802 C   0  0  0  0  0  0  0  0  0  0  0  0
  -21.2619   -9.0523   27.1952 C   0  0  0  0  0  0  0  0  0  0  0  0
  -25.0992  -14.7452   28.3710 C   0  0  0  0  0  0  0  0  0  0  0  0
  -23.6274  -16.7802   26.8099 C   0  0  0  0  0  0  0  0  0  0  0  0
  -20.7347  -10.4801   27.0783 C   0  0  0  0  0  0  0  0  0  0  0  0
  -31.7900  -12.8078   24.3340 C   0  0  0  0  0  0  0  0  0  0  0  0
  -29.4343  -13.0096   17.9696 C   0  0  0  0  0  0  0  0  0  0  0  0
  -21.4543  -11.2249   25.9583 C   0  0  0  0  0  0  0  0  0  0  0  0
  -31.8862  -14.3120   24.5551 C   0  0  0  0  0  0  0  0  0  0  0  0
  -27.9973  -12.6807   18.3695 C   0  0  0  0  0  0  0  0  0  0  0  0
  -30.4180  -12.5090   19.0198 C   0  0  0  0  0  0  0  0  0  0  0  0
  -30.7731  -12.6965   23.2087 C   0  0  0  0  0  0  0  0  0  0  0  0
  -28.7221  -12.7415   20.8095 C   0  0  0  0  0  0  0  0  0  0  0  0
  -22.9575  -11.3298   26.2425 C   0  0  1  0  0  0  0  0  0  0  0  0
  -31.7787  -14.8853   23.1359 C   0  0  1  0  0  0  0  0  0  0  0  0
  -23.6123  -14.5998   28.0622 C   0  0  1  0  0  0  0  0  0  0  0  0
  -27.6842  -13.2217   19.7745 C   0  0  2  0  0  0  0  0  0  0  0  0
  -31.7112  -19.7364   24.4109 C   0  0  0  0  0  0  0  0  0  0  0  0
  -33.0184  -17.1394   24.5192 C   0  0  0  0  0  0  0  0  0  0  0  0
  -28.1237  -17.6541   21.6189 C   0  0  0  0  0  0  0  0  0  0  0  0
  -19.9685  -21.1200   30.1150 C   0  0  0  0  0  0  0  0  0  0  0  0
  -19.8603  -16.0872   25.8103 C   0  0  0  0  0  0  0  0  0  0  0  0
  -19.0107  -18.3392   26.4995 C   0  0  0  0  0  0  0  0  0  0  0  0
  -18.6652  -16.3683   27.9892 C   0  0  0  0  0  0  0  0  0  0  0  0
  -23.5127  -20.1056   31.0561 C   0  0  0  0  0  0  0  0  0  0  0  0
  -29.2155  -20.0075   22.9396 C   0  0  0  0  0  0  0  0  0  0  0  0
  -28.4569  -20.3946   24.2187 C   0  0  0  0  0  0  0  0  0  0  0  0
  -27.3222  -19.4342   24.5557 C   0  0  0  0  0  0  0  0  0  1  0  0
  -20.9806  -17.3573   27.7591 C   0  0  1  0  0  0  0  0  0  0  0  0
  -21.1295  -20.1573   30.3101 C   0  0  2  0  0  0  0  0  0  0  0  0
  -19.6570  -17.0337   27.0102 C   0  0  0  0  0  0  0  0  0  0  0  0
  -25.9150  -11.6006   20.3446 N   0  0  0  0  0  0  0  0  0  0  0  0
  -29.9837  -16.3502   22.4207 N   0  0  0  0  0  0  0  0  0  0  0  0
  -26.2680  -12.8901   20.2076 N   0  0  0  0  0  0  0  0  0  0  0  0
  -22.9674  -15.8820   27.7718 N   0  0  0  0  0  0  0  0  0  0  0  0
  -30.0889  -13.0227   20.3500 N   0  0  0  0  0  0  0  0  0  0  0  0
  -31.0279  -13.8737   22.3762 N   0  0  0  0  0  0  0  0  0  0  0  0
  -25.4479  -15.1038   20.4014 N   0  0  0  0  0  0  0  0  0  0  0  0
  -21.8844  -12.5699   21.5315 N   0  0  0  0  0  0  0  0  0  0  0  0
  -23.2162  -12.3659   27.2192 N   0  0  0  0  0  0  0  0  0  0  0  0
  -20.8144  -18.2300   28.9163 N   0  0  0  0  0  0  0  0  0  0  0  0
  -22.3050  -20.9317   30.7996 N   0  3  0  0  0  0  0  0  0  0  0  0
  -22.6220  -14.7217   21.2412 O   0  0  0  0  0  0  0  0  0  0  0  0
  -23.2697  -14.1827   25.7635 O   0  0  0  0  0  0  0  0  0  0  0  0
  -21.0951  -15.3828   29.0685 O   0  0  0  0  0  0  0  0  0  0  0  0
  -22.2450  -19.9008   28.1823 O   0  0  0  0  0  0  0  0  0  0  0  0
  -31.6763  -14.6913   20.3293 O   0  0  0  0  0  0  0  0  0  0  0  0
  -21.7263   -7.0042   21.7147 O   0  0  0  0  0  0  0  0  0  0  0  0
  -27.8677  -18.1375   24.7616 O   0  0  0  0  0  0  0  0  0  1  0  0
  -18.6121   -6.8341   26.2619 F   0  0  0  0  0  0  0  0  0  0  0  0
  -19.6835   -8.8259   22.1037 F   0  0  0  0  0  0  0  0  0  0  0  0
  1  2  1  0  0  0  0
  1  5  2  0  0  0  0
  2  6  2  0  0  0  0
  3  8  2  0  0  0  0
  3 15  1  0  0  0  0
  4  9  1  0  0  0  0
  4 15  2  0  0  0  0
  5 17  1  0  0  0  0
  6 19  1  0  0  0  0
  7 10  2  0  0  0  0
  7 18  1  0  0  0  0
  8 24  1  0  0  0  0
  9 24  2  0  0  0  0
 10 25  1  0  0  0  0
 11 12  2  0  0  0  0
 11 26  1  0  0  0  0
 12 27  1  0  0  0  0
 13 20  1  0  0  0  0
 13 25  2  0  0  0  0
 14 27  2  0  0  0  0
 14 28  1  0  0  0  0
 15 29  1  0  0  0  0
 16 29  1  0  0  0  0
 16 32  2  0  0  0  0
 16 33  1  0  0  0  0
 17 19  2  0  0  0  0
 17 38  1  0  0  0  0
 18 20  2  0  0  0  0
 18 39  1  0  0  0  0
 19 50  1  0  0  0  0
 20 40  1  0  0  0  0
 21 22  1  0  0  0  0
 21 23  2  0  0  0  0
 21 54  1  0  0  0  0
 22 30  2  0  0  0  0
 22 55  1  0  0  0  0
 23 31  1  0  0  0  0
 23 62  1  0  0  0  0
 24 84  1  0  0  0  0
 25 85  1  0  0  0  0
 26 28  2  0  0  0  0
 26 84  1  0  0  0  0
 27 86  1  0  0  0  0
 28 87  1  0  0  0  0
 29 68  2  0  0  0  0
 30 51  1  0  0  0  0
 30 69  1  0  0  0  0
 31 56  1  0  0  0  0
 31 69  2  0  0  0  0
 32 70  1  0  0  0  0
 32 74  1  0  0  0  0
 33 75  1  0  0  0  0
 33 79  2  0  0  0  0
 34 52  1  0  0  0  0
 34 76  1  0  0  0  0
 34 80  2  0  0  0  0
 35 65  1  0  0  0  0
 35 71  1  0  0  0  0
 35 81  2  0  0  0  0
 36 66  1  0  0  0  0
 36 77  1  0  0  0  0
 36 82  2  0  0  0  0
 37 72  1  0  0  0  0
 37 73  1  0  0  0  0
 37 83  2  0  0  0  0
 38 41  1  0  0  0  0
 39 52  1  0  0  0  0
 40 71  1  0  0  0  0
 41 44  1  0  0  0  0
 42 45  1  0  0  0  0
 42 48  1  0  0  0  0
 43 46  1  0  0  0  0
 43 47  1  0  0  0  0
 44 50  1  0  0  0  0
 45 51  1  0  0  0  0
 46 53  1  0  0  0  0
 47 72  1  0  0  0  0
 48 73  1  0  0  0  0
 49 53  1  0  0  0  0
 49 72  1  0  0  0  0
 50 76  1  0  0  0  0
 51 73  1  0  0  0  0
 52 71  1  0  0  0  0
 53 70  1  0  0  0  0
 57 66  1  0  0  0  0
 58 67  1  0  0  0  0
 59 67  1  0  0  0  0
 60 67  1  0  0  0  0
 61 78  1  0  0  0  0
 62 63  1  0  0  0  0
 63 64  1  0  0  0  0
 64 85  1  0  0  0  0
 65 67  1  0  0  0  0
 65 77  1  0  0  0  0
 66 78  1  0  0  0  0
 68 70  1  0  0  0  0
M  CHG  1  78   1
M  ISO  4  37 100  64 101  73 100  85 101
M  END
> <Batch ID>
0171

> <Smiles>
CNC(C)C(=O)NC(C(=O)N1Cc2cc([101O:1][101CH2:1]CCc3c(C)nc(C4CCC[100N:0]4[100C:0](=O)N4CCCC(n5nc(-c6ccc(Oc7ccc(F)cc7F)cc6)c(C(N)=O)c5N)C4)c(C)c3C)ccc2CC1C(=O)NC1CCCc2ccccc21)C(C)(C)C

> <Shape>
0.165

> <Color>
0.197

> <Negative vol penalty>
0.000

$$$$

  -OEChem-04052322373D

 92101  0     1  0  0  0  0  0999 V2000
  -19.8603  -28.9304   23.6792 C   0  0  0  0  0  0  0  0  0  0  0  0
  -20.5207  -27.7069   23.7288 C   0  0  0  0  0  0  0  0  0  0  0  0
  -27.7297  -25.8265   21.1679 C   0  0  0  0  0  0  0  0  0  0  0  0
  -29.0680  -26.2639   19.2046 C   0  0  0  0  0  0  0  0  0  0  0  0
  -18.8582  -29.1424   22.7333 C   0  0  0  0  0  0  0  0  0  0  0  0
  -20.1787  -26.6944   22.8332 C   0  0  0  0  0  0  0  0  0  0  0  0
  -23.9453  -22.5625   20.3340 C   0  0  0  0  0  0  0  0  0  0  0  0
  -27.3501  -27.1680   21.2081 C   0  0  0  0  0  0  0  0  0  0  0  0
  -28.6883  -27.6055   19.2447 C   0  0  0  0  0  0  0  0  0  0  0  0
  -24.2288  -21.2360   20.6559 C   0  0  0  0  0  0  0  0  0  0  0  0
  -25.1562  -29.1849   19.6107 C   0  0  0  0  0  0  0  0  0  0  0  0
  -23.8085  -29.4710   19.8286 C   0  0  0  0  0  0  0  0  0  0  0  0
  -22.6250  -20.5004   19.0110 C   0  0  0  0  0  0  0  0  0  0  0  0
  -25.3382  -16.2375   20.4002 C   0  0  0  0  0  0  0  0  0  0  0  0
  -24.3911  -30.6893   21.8320 C   0  0  0  0  0  0  0  0  0  0  0  0
  -28.5887  -25.3744   20.1661 C   0  0  0  0  0  0  0  0  0  0  0  0
  -29.6675  -23.2692   21.1213 C   0  0  0  0  0  0  0  0  0  0  0  0
  -18.5103  -28.1353   21.8193 C   0  0  0  0  0  0  0  0  0  0  0  0
  -22.9900  -22.8687   19.3542 C   0  0  0  0  0  0  0  0  0  0  0  0
  -19.1700  -26.8927   21.8751 C   0  0  0  0  0  0  0  0  0  0  0  0
  -22.3330  -21.8316   18.6767 C   0  0  0  0  0  0  0  0  0  0  0  0
  -24.6426  -13.5915   19.8550 C   0  0  0  0  0  0  0  0  0  0  0  0
  -26.3013  -15.3467   19.9265 C   0  0  0  0  0  0  0  0  0  0  0  0
  -24.0273  -15.8054   20.6015 C   0  0  0  0  0  0  0  0  0  0  0  0
  -25.9535  -14.0237   19.6538 C   0  0  0  0  0  0  0  0  0  0  0  0
  -27.8294  -28.0576   20.2465 C   0  0  0  0  0  0  0  0  0  0  0  0
  -23.5665  -20.2047   19.9964 C   0  0  0  0  0  0  0  0  0  0  0  0
  -26.1213  -29.6509   20.5034 C   0  0  0  0  0  0  0  0  0  0  0  0
  -23.6795  -14.4824   20.3288 C   0  0  0  0  0  0  0  0  0  0  0  0
  -23.4260  -30.2232   20.9392 C   0  0  0  0  0  0  0  0  0  0  0  0
  -25.7388  -30.4031   21.6141 C   0  0  0  0  0  0  0  0  0  0  0  0
  -28.9817  -23.9888   20.1244 C   0  0  0  0  0  0  0  0  0  0  0  0
  -29.7988  -22.0042   20.6028 C   0  0  0  0  0  0  0  0  0  0  0  0
  -30.1432  -23.7054   22.4016 C   0  0  0  0  0  0  0  0  0  0  0  0
  -20.2189  -24.4256   19.3321 C   0  0  0  0  0  0  0  0  0  0  0  0
  -20.4234  -23.9516   16.1297 C   0  0  0  0  0  0  0  0  0  0  0  0
  -21.6873  -22.1118   13.5481 C   0  0  0  0  0  0  0  0  0  0  0  0
  -27.6868  -17.5932   17.9263 C   0  0  0  0  0  0  0  0  0  0  0  0
  -17.3880  -28.3946   20.8458 C   0  0  0  0  0  0  0  0  0  0  0  0
  -22.7150  -24.3044   18.9997 C   0  0  0  0  0  0  0  0  0  0  0  0
  -21.3136  -22.1068   17.6026 C   0  0  0  0  0  0  0  0  0  0  0  0
  -17.3437  -27.4002   19.6884 C   0  0  0  0  0  0  0  0  0  0  0  0
  -28.9397  -20.2532   15.9346 C   0  0  0  0  0  0  0  0  0  0  0  0
  -17.4937  -25.9728   20.2049 C   0  0  0  0  0  0  0  0  0  0  0  0
  -29.1173  -21.4036   16.9270 C   0  0  0  0  0  0  0  0  0  0  0  0
  -23.1138  -12.0156   18.5531 C   0  0  0  0  0  0  0  0  0  0  0  0
  -27.7016  -19.4183   16.2543 C   0  0  0  0  0  0  0  0  0  0  0  0
  -27.8110  -20.0627   18.6289 C   0  0  0  0  0  0  0  0  0  0  0  0
  -18.8444  -25.7783   20.9044 C   0  0  1  0  0  0  0  0  0  0  0  0
  -24.2605  -12.1629   19.5629 C   0  0  2  0  0  0  0  0  0  0  0  0
  -21.3510  -24.5081   18.3476 C   0  0  1  0  0  0  0  0  0  0  0  0
  -29.0778  -20.9003   18.3827 C   0  0  2  0  0  0  0  0  0  0  0  0
  -22.4475  -10.7680   20.4597 C   0  0  1  0  0  0  0  0  0  0  0  0
  -22.4341  -10.6856   18.9230 C   0  0  0  0  0  0  0  0  0  0  0  0
  -26.9879  -13.0694   19.1467 C   0  0  0  0  0  0  0  0  0  0  0  0
  -22.2837   -9.4698   21.2298 C   0  0  0  0  0  0  0  0  0  0  0  0
  -21.0032  -10.6298   18.3770 C   0  0  0  0  0  0  0  0  0  0  0  0
  -23.2273   -9.4930   18.3586 C   0  0  0  0  0  0  0  0  0  0  0  0
  -23.3653  -17.3004   22.5141 C   0  0  0  0  0  0  0  0  0  0  0  0
  -28.5788  -15.6598   20.9640 C   0  0  0  0  0  0  0  0  0  0  0  0
  -21.6463  -21.9423   11.0447 C   0  0  0  0  0  0  0  0  0  0  0  0
  -17.6385  -22.7117   16.2616 C   0  0  0  0  0  0  0  0  0  0  0  0
  -18.0450  -21.7284   13.9953 C   0  0  0  0  0  0  0  0  0  0  0  0
  -18.0234  -24.2051   14.2928 C   0  0  0  0  0  0  0  0  0  0  0  0
  -24.6048  -22.5697   13.3534 C   0  0  0  0  0  0  0  0  0  0  0  0
  -22.7824  -17.9648   20.1519 C   0  0  0  0  0  0  0  0  0  1  0  0
  -22.9920  -16.7916   21.1190 C   0  0  1  0  0  0  0  0  0  0  0  0
  -27.6979  -15.8348   19.7196 C   0  0  2  0  0  0  0  0  0  0  0  0
  -19.9772  -22.8673   15.1788 C   0  0  1  0  0  0  0  0  0  0  0  0
  -22.3630  -22.5249   12.2529 C   0  0  2  0  0  0  0  0  0  0  0  0
  -18.4388  -22.8726   14.9537 C   0  0  0  0  0  0  0  0  0  0  0  0
  -28.6973  -23.2429   19.0536 N   0  0  0  0  0  0  0  0  0  0  0  0
  -29.2070  -22.0415   19.3745 N   0  0  0  0  0  0  0  0  0  0  0  0
  -21.0749  -23.5269   17.2963 N   0  0  0  0  0  0  0  0  0  0  0  0
  -27.7310  -18.9685   17.6484 N   0  0  0  0  0  0  0  0  0  0  0  0
  -30.3617  -20.8747   21.0821 N   0  0  0  0  0  0  0  0  0  0  0  0
  -31.4404  -24.2289   22.4895 N   0  0  0  0  0  0  0  0  0  0  0  0
  -19.9026  -25.6316   19.9281 N   0  0  0  0  0  0  0  0  0  0  0  0
  -20.7600  -23.0452   13.9606 N   0  0  0  0  0  0  0  0  0  0  0  0
  -27.7275  -17.2423   19.2717 N   0  0  0  0  0  0  0  0  0  0  0  0
  -23.7922  -11.3750   20.7737 N   0  3  0  0  0  0  0  0  0  0  0  0
  -23.7767  -22.0538   12.2331 N   0  3  0  0  0  0  0  0  0  0  0  0
  -29.4449  -23.6178   23.4399 O   0  0  0  0  0  0  0  0  0  0  0  0
  -19.6718  -23.3480   19.5349 O   0  0  0  0  0  0  0  0  0  0  0  0
  -20.2083  -25.1323   15.8443 O   0  0  0  0  0  0  0  0  0  0  0  0
  -21.9528  -21.0641   14.1332 O   0  0  0  0  0  0  0  0  0  0  0  0
  -27.6235  -16.7320   17.0422 O   0  0  0  0  0  0  0  0  0  0  0  0
  -22.3966  -14.0619   20.5244 O   0  0  0  0  0  0  0  0  0  0  0  0
  -27.4590  -29.3667   20.2853 O   0  0  0  0  0  0  0  0  0  0  0  0
  -23.8408  -18.9090   20.3091 O   0  0  0  0  0  0  0  0  0  1  0  0
  -22.1319  -30.4992   21.1476 F   0  0  0  0  0  0  0  0  0  0  0  0
  -26.6616  -30.8546   22.4746 F   0  0  0  0  0  0  0  0  0  0  0  0
  1  2  1  0  0  0  0
  1  5  2  0  0  0  0
  2  6  2  0  0  0  0
  3  8  2  0  0  0  0
  3 16  1  0  0  0  0
  4  9  1  0  0  0  0
  4 16  2  0  0  0  0
  5 18  1  0  0  0  0
  6 20  1  0  0  0  0
  7 10  2  0  0  0  0
  7 19  1  0  0  0  0
  8 26  1  0  0  0  0
  9 26  2  0  0  0  0
 10 27  1  0  0  0  0
 11 12  2  0  0  0  0
 11 28  1  0  0  0  0
 12 30  1  0  0  0  0
 13 21  1  0  0  0  0
 13 27  2  0  0  0  0
 14 23  2  0  0  0  0
 14 24  1  0  0  0  0
 15 30  2  0  0  0  0
 15 31  1  0  0  0  0
 16 32  1  0  0  0  0
 17 32  1  0  0  0  0
 17 33  2  0  0  0  0
 17 34  1  0  0  0  0
 18 20  2  0  0  0  0
 18 39  1  0  0  0  0
 19 21  2  0  0  0  0
 19 40  1  0  0  0  0
 20 49  1  0  0  0  0
 21 41  1  0  0  0  0
 22 25  2  0  0  0  0
 22 29  1  0  0  0  0
 22 50  1  0  0  0  0
 23 25  1  0  0  0  0
 23 68  1  0  0  0  0
 24 29  2  0  0  0  0
 24 67  1  0  0  0  0
 25 55  1  0  0  0  0
 26 89  1  0  0  0  0
 27 90  1  0  0  0  0
 28 31  2  0  0  0  0
 28 89  1  0  0  0  0
 29 88  1  0  0  0  0
 30 91  1  0  0  0  0
 31 92  1  0  0  0  0
 32 72  2  0  0  0  0
 33 73  1  0  0  0  0
 33 76  1  0  0  0  0
 34 77  1  0  0  0  0
 34 83  2  0  0  0  0
 35 51  1  0  0  0  0
 35 78  1  0  0  0  0
 35 84  2  0  0  0  0
 36 69  1  0  0  0  0
 36 74  1  0  0  0  0
 36 85  2  0  0  0  0
 37 70  1  0  0  0  0
 37 79  1  0  0  0  0
 37 86  2  0  0  0  0
 38 75  1  0  0  0  0
 38 80  1  0  0  0  0
 38 87  2  0  0  0  0
 39 42  1  0  0  0  0
 40 51  1  0  0  0  0
 41 74  1  0  0  0  0
 42 44  1  0  0  0  0
 43 45  1  0  0  0  0
 43 47  1  0  0  0  0
 44 49  1  0  0  0  0
 45 52  1  0  0  0  0
 46 50  1  0  0  0  0
 46 54  1  0  0  0  0
 47 75  1  0  0  0  0
 48 52  1  0  0  0  0
 48 75  1  0  0  0  0
 49 78  1  0  0  0  0
 50 81  1  0  0  0  0
 51 74  1  0  0  0  0
 52 73  1  0  0  0  0
 53 54  1  0  0  0  0
 53 56  1  0  0  0  0
 53 81  1  0  0  0  0
 54 57  1  0  0  0  0
 54 58  1  0  0  0  0
 59 67  1  0  0  0  0
 60 68  1  0  0  0  0
 61 70  1  0  0  0  0
 62 71  1  0  0  0  0
 63 71  1  0  0  0  0
 64 71  1  0  0  0  0
 65 82  1  0  0  0  0
 66 67  1  0  0  0  0
 66 90  1  0  0  0  0
 68 80  1  0  0  0  0
 69 71  1  0  0  0  0
 69 79  1  0  0  0  0
 70 82  1  0  0  0  0
 72 73  1  0  0  0  0
M  CHG  2  81   1  82   1
M  ISO  4  38 100  66 101  80 100  90 101
M  END
> <Batch ID>
0171

> <Smiles>
CNC(C)C(=O)NC(C(=O)N1Cc2cc([101O:1][101CH2:1]C(C)c3cc(C(C)[100NH:0][100C:0](=O)N4CCCC(n5nc(-c6ccc(Oc7ccc(F)cc7F)cc6)c(C(N)=O)c5N)C4)c(C)c(C4CC(C)(C)C(C)N4)c3O)ccc2CC1C(=O)NC1CCCc2ccccc21)C(C)(C)C

> <Shape>
0.224

> <Color>
0.061

> <Negative vol penalty>
0.000

$$$$
