
  -OEChem-04052322403D

 90100  0     1  0  0  0  0  0999 V2000
  -26.7397  -37.6385   22.1727 C   0  0  0  0  0  0  0  0  0  0  0  0
  -27.3571  -36.4657   21.7499 C   0  0  0  0  0  0  0  0  0  0  0  0
  -26.4754  -13.5541   21.9803 C   0  0  0  0  0  0  0  0  0  0  0  0
  -25.0984  -15.2390   20.9306 C   0  0  0  0  0  0  0  0  0  0  0  0
  -25.7027  -37.5827   23.1030 C   0  0  0  0  0  0  0  0  0  0  0  0
  -26.9385  -35.2364   22.2580 C   0  0  0  0  0  0  0  0  0  0  0  0
  -26.7567  -29.8899   19.2767 C   0  0  0  0  0  0  0  0  0  0  0  0
  -25.3570  -12.7346   22.1321 C   0  0  0  0  0  0  0  0  0  0  0  0
  -23.9799  -14.4195   21.0823 C   0  0  0  0  0  0  0  0  0  0  0  0
  -27.6280  -28.8020   19.2478 C   0  0  0  0  0  0  0  0  0  0  0  0
  -22.9299  -10.0494   22.4700 C   0  0  0  0  0  0  0  0  0  0  0  0
  -23.0647   -8.7007   22.1408 C   0  0  0  0  0  0  0  0  0  0  0  0
  -30.0291  -25.2504   17.8146 C   0  0  0  0  0  0  0  0  0  0  0  0
  -26.2988  -27.7003   20.9326 C   0  0  0  0  0  0  0  0  0  0  0  0
  -32.3370  -26.7758   18.1744 C   0  0  0  0  0  0  0  0  0  0  0  0
  -23.6420   -9.3114   19.8756 C   0  0  0  0  0  0  0  0  0  0  0  0
  -26.3461  -14.8064   21.3796 C   0  0  0  0  0  0  0  0  0  0  0  0
  -28.3842  -15.6931   20.1274 C   0  0  0  0  0  0  0  0  0  0  0  0
  -25.2647  -36.3514   23.6155 C   0  0  0  0  0  0  0  0  0  0  0  0
  -25.6541  -29.8959   20.1431 C   0  0  0  0  0  0  0  0  0  0  0  0
  -25.8956  -35.1642   23.1970 C   0  0  0  0  0  0  0  0  0  0  0  0
  -30.5240  -26.0246   16.7651 C   0  0  0  0  0  0  0  0  0  0  0  0
  -30.6880  -25.2390   19.0439 C   0  0  0  0  0  0  0  0  0  0  0  0
  -25.4135  -28.7884   20.9688 C   0  0  0  0  0  0  0  0  0  0  0  0
  -31.6780  -26.7873   16.9450 C   0  0  0  0  0  0  0  0  0  0  0  0
  -31.8420  -26.0016   19.2238 C   0  0  0  0  0  0  0  0  0  0  0  0
  -24.1092  -13.1673   21.6831 C   0  0  0  0  0  0  0  0  0  0  0  0
  -27.4008  -27.7082   20.0779 C   0  0  0  0  0  0  0  0  0  0  0  0
  -23.1511  -11.0291   21.5021 C   0  0  0  0  0  0  0  0  0  0  0  0
  -23.4208   -8.3317   20.8436 C   0  0  0  0  0  0  0  0  0  0  0  0
  -23.5072  -10.6601   20.2049 C   0  0  0  0  0  0  0  0  0  0  0  0
  -27.5010  -15.6536   21.2230 C   0  0  0  0  0  0  0  0  0  0  0  0
  -29.3047  -16.6556   20.4630 C   0  0  0  0  0  0  0  0  0  0  0  0
  -28.3733  -14.9281   18.9148 C   0  0  0  0  0  0  0  0  0  0  0  0
  -24.7253  -31.7144   22.5792 C   0  0  0  0  0  0  0  0  0  0  0  0
  -22.0479  -29.8906   22.4132 C   0  0  0  0  0  0  0  0  0  0  0  0
  -20.6008  -26.9479   21.4678 C   0  0  0  0  0  0  0  0  0  0  0  0
  -30.5533  -21.6418   22.5259 C   0  0  0  0  0  0  0  0  0  0  0  0
  -24.1717  -36.3450   24.6547 C   0  0  0  0  0  0  0  0  0  0  0  0
  -24.7085  -31.0657   20.1430 C   0  0  0  0  0  0  0  0  0  0  0  0
  -24.2327  -28.7369   21.9023 C   0  0  0  0  0  0  0  0  0  0  0  0
  -23.5368  -34.9725   24.8625 C   0  0  0  0  0  0  0  0  0  0  0  0
  -30.1773  -19.0233   24.8271 C   0  0  0  0  0  0  0  0  0  0  0  0
  -29.5472  -24.7101   14.7671 C   0  0  0  0  0  0  0  0  0  0  0  0
  -30.5570  -25.6622   14.2066 C   0  0  0  0  0  0  0  0  0  0  0  0
  -24.6137  -33.8993   24.9866 C   0  0  0  0  0  0  0  0  0  0  0  0
  -29.4949  -17.9189   24.0240 C   0  0  0  0  0  0  0  0  0  0  0  0
  -28.8427  -23.5878   19.8414 C   0  0  0  0  0  0  0  0  0  0  0  0
  -29.6245  -20.3892   24.4434 C   0  0  0  0  0  0  0  0  0  0  0  0
  -28.7749  -22.4866   20.8973 C   0  0  0  0  0  0  0  0  0  0  0  0
  -29.1099  -19.6004   22.1474 C   0  0  0  0  0  0  0  0  0  0  0  0
  -29.8023  -26.0230   15.4583 C   0  0  0  0  0  0  0  0  0  0  0  0
  -25.4532  -33.8097   23.7065 C   0  0  1  0  0  0  0  0  0  0  0  0
  -23.9067  -31.1860   21.4354 C   0  0  1  0  0  0  0  0  0  0  0  0
  -29.6166  -18.1906   22.5161 C   0  0  2  0  0  0  0  0  0  0  0  0
  -31.0616  -23.2298   20.6609 C   0  0  2  0  0  0  0  0  0  0  0  0
  -30.1275  -24.3834   20.1781 C   0  0  1  0  0  0  0  0  0  0  0  0
  -32.2286  -27.6237   15.8366 C   0  0  0  0  0  0  0  0  0  0  0  0
  -32.5653  -26.0048   20.5305 C   0  0  0  0  0  0  0  0  0  0  0  0
  -31.7729  -22.4416   19.5532 C   0  0  0  0  0  0  0  0  0  0  0  0
  -18.4052  -25.7333   21.4984 C   0  0  0  0  0  0  0  0  0  0  0  0
  -30.0206  -24.6171   22.6884 C   0  0  0  0  0  0  0  0  0  0  0  0
  -22.4250  -29.2886   25.3806 C   0  0  0  0  0  0  0  0  0  0  0  0
  -20.8252  -27.3797   25.1253 C   0  0  0  0  0  0  0  0  0  0  0  0
  -20.0578  -29.7140   24.6950 C   0  0  0  0  0  0  0  0  0  0  0  0
  -20.5060  -26.8062   18.5132 C   0  0  0  0  0  0  0  0  0  0  0  0
  -28.4046  -25.9064   21.2619 C   0  0  0  0  0  0  0  0  0  1  0  0
  -21.5996  -28.5905   23.0359 C   0  0  1  0  0  0  0  0  0  0  0  0
  -19.3208  -26.6537   20.7066 C   0  0  2  0  0  0  0  0  0  0  0  0
  -29.8220  -25.3414   21.3609 C   0  0  2  0  0  0  0  0  0  0  0  0
  -21.2503  -28.7447   24.5431 C   0  0  0  0  0  0  0  0  0  0  0  0
  -27.8310  -16.5219   22.1828 N   0  0  0  0  0  0  0  0  0  0  0  0
  -28.9317  -17.1160   21.6914 N   0  0  0  0  0  0  0  0  0  0  0  0
  -23.3405  -29.9075   21.8703 N   0  0  0  0  0  0  0  0  0  0  0  0
  -29.7172  -20.6265   23.0030 N   0  0  0  0  0  0  0  0  0  0  0  0
  -30.1516  -22.3078   21.3640 N   0  0  0  0  0  0  0  0  0  0  0  0
  -30.3888  -17.1446   19.8241 N   0  0  0  0  0  0  0  0  0  0  0  0
  -27.3563  -13.9814   18.7312 N   0  0  0  0  0  0  0  0  0  0  0  0
  -24.7309  -33.0927   22.6776 N   0  0  0  0  0  0  0  0  0  0  0  0
  -20.4973  -28.1029   22.2140 N   0  0  0  0  0  0  0  0  0  0  0  0
  -19.6316  -26.0003   19.4037 N   0  3  0  0  0  0  0  0  0  0  0  0
  -29.2493  -15.0680   18.0279 O   0  0  0  0  0  0  0  0  0  0  0  0
  -25.3075  -30.9296   23.3187 O   0  0  0  0  0  0  0  0  0  0  0  0
  -21.2769  -30.8534   22.4023 O   0  0  0  0  0  0  0  0  0  0  0  0
  -21.5920  -26.2235   21.4095 O   0  0  0  0  0  0  0  0  0  0  0  0
  -31.5793  -21.9670   23.1366 O   0  0  0  0  0  0  0  0  0  0  0  0
  -23.0177  -12.3677   21.8308 O   0  0  0  0  0  0  0  0  0  0  0  0
  -28.2562  -26.6376   20.0520 O   0  0  0  0  0  0  0  0  0  1  0  0
  -23.5517   -7.0366   20.5279 F   0  0  0  0  0  0  0  0  0  0  0  0
  -23.7222  -11.5969   19.2711 F   0  0  0  0  0  0  0  0  0  0  0  0
  1  2  1  0  0  0  0
  1  5  2  0  0  0  0
  2  6  2  0  0  0  0
  3  8  2  0  0  0  0
  3 17  1  0  0  0  0
  4  9  1  0  0  0  0
  4 17  2  0  0  0  0
  5 19  1  0  0  0  0
  6 21  1  0  0  0  0
  7 10  2  0  0  0  0
  7 20  1  0  0  0  0
  8 27  1  0  0  0  0
  9 27  2  0  0  0  0
 10 28  1  0  0  0  0
 11 12  2  0  0  0  0
 11 29  1  0  0  0  0
 12 30  1  0  0  0  0
 13 22  2  0  0  0  0
 13 23  1  0  0  0  0
 14 24  1  0  0  0  0
 14 28  2  0  0  0  0
 15 25  2  0  0  0  0
 15 26  1  0  0  0  0
 16 30  2  0  0  0  0
 16 31  1  0  0  0  0
 17 32  1  0  0  0  0
 18 32  1  0  0  0  0
 18 33  2  0  0  0  0
 18 34  1  0  0  0  0
 19 21  2  0  0  0  0
 19 39  1  0  0  0  0
 20 24  2  0  0  0  0
 20 40  1  0  0  0  0
 21 53  1  0  0  0  0
 22 25  1  0  0  0  0
 22 52  1  0  0  0  0
 23 26  2  0  0  0  0
 23 57  1  0  0  0  0
 24 41  1  0  0  0  0
 25 58  1  0  0  0  0
 26 59  1  0  0  0  0
 27 87  1  0  0  0  0
 28 88  1  0  0  0  0
 29 31  2  0  0  0  0
 29 87  1  0  0  0  0
 30 89  1  0  0  0  0
 31 90  1  0  0  0  0
 32 72  2  0  0  0  0
 33 73  1  0  0  0  0
 33 77  1  0  0  0  0
 34 78  1  0  0  0  0
 34 82  2  0  0  0  0
 35 54  1  0  0  0  0
 35 79  1  0  0  0  0
 35 83  2  0  0  0  0
 36 68  1  0  0  0  0
 36 74  1  0  0  0  0
 36 84  2  0  0  0  0
 37 69  1  0  0  0  0
 37 80  1  0  0  0  0
 37 85  2  0  0  0  0
 38 75  1  0  0  0  0
 38 76  1  0  0  0  0
 38 86  2  0  0  0  0
 39 42  1  0  0  0  0
 40 54  1  0  0  0  0
 41 74  1  0  0  0  0
 42 46  1  0  0  0  0
 43 47  1  0  0  0  0
 43 49  1  0  0  0  0
 44 45  1  0  0  0  0
 44 52  1  0  0  0  0
 45 52  1  0  0  0  0
 46 53  1  0  0  0  0
 47 55  1  0  0  0  0
 48 50  1  0  0  0  0
 48 57  1  0  0  0  0
 49 75  1  0  0  0  0
 50 76  1  0  0  0  0
 51 55  1  0  0  0  0
 51 75  1  0  0  0  0
 53 79  1  0  0  0  0
 54 74  1  0  0  0  0
 55 73  1  0  0  0  0
 56 57  1  0  0  0  0
 56 60  1  0  0  0  0
 56 76  1  0  0  0  0
 57 70  1  0  0  0  0
 61 69  1  0  0  0  0
 62 70  1  0  0  0  0
 63 71  1  0  0  0  0
 64 71  1  0  0  0  0
 65 71  1  0  0  0  0
 66 81  1  0  0  0  0
 67 70  1  0  0  0  0
 67 88  1  0  0  0  0
 68 71  1  0  0  0  0
 68 80  1  0  0  0  0
 69 81  1  0  0  0  0
 72 73  1  0  0  0  0
M  CHG  1  81   1
M  ISO  4  38 100  67 101  76 100  88 101
M  END
> <Batch ID>
0172

> <Smiles>
CNC(C)C(=O)NC(C(=O)N1Cc2cc([101O:1][101CH2:1]C(C)C3(c4cc(C5CC5)c(C)cc4C)CC[100N:0]([100C:0](=O)N4CCCC(n5nc(-c6ccc(Oc7ccc(F)cc7F)cc6)c(C(N)=O)c5N)C4)C3C)ccc2CC1C(=O)NC1CCCc2ccccc21)C(C)(C)C

> <Shape>
0.327

> <Color>
0.083

> <Negative vol penalty>
0.000

$$$$

  -OEChem-04052322403D

 90100  0     1  0  0  0  0  0999 V2000
  -27.8382  -30.9911   25.4592 C   0  0  0  0  0  0  0  0  0  0  0  0
  -26.9994  -30.0298   24.9044 C   0  0  0  0  0  0  0  0  0  0  0  0
  -28.4922  -25.4878   28.6051 C   0  0  0  0  0  0  0  0  0  0  0  0
  -26.5299  -24.3954   29.4956 C   0  0  0  0  0  0  0  0  0  0  0  0
  -28.9934  -31.3807   24.7828 C   0  0  0  0  0  0  0  0  0  0  0  0
  -27.3148  -29.4584   23.6722 C   0  0  0  0  0  0  0  0  0  0  0  0
  -26.7063  -24.4310   23.6494 C   0  0  0  0  0  0  0  0  0  0  0  0
  -29.3051  -24.5707   29.2712 C   0  0  0  0  0  0  0  0  0  0  0  0
  -27.3428  -23.4782   30.1617 C   0  0  0  0  0  0  0  0  0  0  0  0
  -25.4039  -23.9478   23.5319 C   0  0  0  0  0  0  0  0  0  0  0  0
  -29.2170  -23.3932   32.9743 C   0  0  0  0  0  0  0  0  0  0  0  0
  -28.9094  -23.0999   34.3028 C   0  0  0  0  0  0  0  0  0  0  0  0
  -25.7725  -23.5427   21.1826 C   0  0  0  0  0  0  0  0  0  0  0  0
  -17.4151  -30.9016   23.6670 C   0  0  0  0  0  0  0  0  0  0  0  0
  -28.6017  -20.7759   33.7184 C   0  0  0  0  0  0  0  0  0  0  0  0
  -17.1446  -28.1865   23.6407 C   0  0  0  0  0  0  0  0  0  0  0  0
  -27.1046  -25.4002   28.7173 C   0  0  0  0  0  0  0  0  0  0  0  0
  -26.2500  -27.7458   28.1928 C   0  0  0  0  0  0  0  0  0  0  0  0
  -29.3282  -30.8067   23.5462 C   0  0  0  0  0  0  0  0  0  0  0  0
  -27.5495  -24.4840   22.5302 C   0  0  0  0  0  0  0  0  0  0  0  0
  -28.4749  -29.8417   22.9779 C   0  0  0  0  0  0  0  0  0  0  0  0
  -27.0861  -24.0247   21.2891 C   0  0  0  0  0  0  0  0  0  0  0  0
  -18.5443  -30.1023   23.8059 C   0  0  0  0  0  0  0  0  0  0  0  0
  -18.4150  -28.7179   23.7936 C   0  0  0  0  0  0  0  0  0  0  0  0
  -28.7304  -23.5659   30.0495 C   0  0  0  0  0  0  0  0  0  0  0  0
  -24.9358  -23.5063   22.2978 C   0  0  0  0  0  0  0  0  0  0  0  0
  -29.2169  -22.3779   32.0178 C   0  0  0  0  0  0  0  0  0  0  0  0
  -28.6018  -21.7912   34.6749 C   0  0  0  0  0  0  0  0  0  0  0  0
  -28.9093  -21.0693   32.3899 C   0  0  0  0  0  0  0  0  0  0  0  0
  -26.2644  -26.3476   28.0299 C   0  0  0  0  0  0  0  0  0  0  0  0
  -16.1894  -30.2725   23.5195 C   0  0  0  0  0  0  0  0  0  0  0  0
  -25.2840  -28.1832   27.3198 C   0  0  0  0  0  0  0  0  0  0  0  0
  -27.0393  -28.5751   29.0559 C   0  0  0  0  0  0  0  0  0  0  0  0
  -29.0249  -26.8082   20.9412 C   0  0  0  0  0  0  0  0  0  0  0  0
  -30.3545  -24.3290   19.3261 C   0  0  0  0  0  0  0  0  0  0  0  0
  -29.2508  -21.1692   17.9790 C   0  0  0  0  0  0  0  0  0  0  0  0
  -20.3713  -27.8848   25.0858 C   0  0  0  0  0  0  0  0  0  0  0  0
  -30.5628  -31.2942   22.8301 C   0  0  0  0  0  0  0  0  0  0  0  0
  -28.9606  -24.9830   22.6791 C   0  0  0  0  0  0  0  0  0  0  0  0
  -27.9581  -24.0416   20.0612 C   0  0  0  0  0  0  0  0  0  0  0  0
  -31.0204  -30.3683   21.7060 C   0  0  0  0  0  0  0  0  0  0  0  0
  -22.8258  -25.7623   23.6319 C   0  0  0  0  0  0  0  0  0  0  0  0
  -29.8357  -29.9568   20.8377 C   0  0  0  0  0  0  0  0  0  0  0  0
  -23.9423  -25.8319   24.6731 C   0  0  0  0  0  0  0  0  0  0  0  0
  -21.0143  -26.9217   22.1995 C   0  0  0  0  0  0  0  0  0  0  0  0
  -19.6682  -25.4143   23.7078 C   0  0  0  0  0  0  0  0  0  0  0  0
  -14.0656  -30.8853   22.1784 C   0  0  0  0  0  0  0  0  0  0  0  0
  -21.4412  -25.7188   24.2793 C   0  0  0  0  0  0  0  0  0  0  0  0
  -22.3081  -26.8896   26.2799 C   0  0  0  0  0  0  0  0  0  0  0  0
  -21.2281  -25.7591   21.2391 C   0  0  0  0  0  0  0  0  0  0  0  0
  -19.8900  -24.2590   22.7404 C   0  0  0  0  0  0  0  0  0  0  0  0
  -28.7959  -29.1807   21.6550 C   0  0  1  0  0  0  0  0  0  0  0  0
  -14.9642  -31.1103   23.3696 C   0  0  2  0  0  0  0  0  0  0  0  0
  -29.5635  -25.4712   21.3655 C   0  0  1  0  0  0  0  0  0  0  0  0
  -14.9061  -32.1251   22.2528 C   0  0  2  0  0  0  0  0  0  0  0  0
  -23.7088  -26.9924   25.6565 C   0  0  1  0  0  0  0  0  0  0  0  0
  -19.7160  -26.7641   22.9918 C   0  0  0  0  0  0  0  0  0  0  0  0
  -19.8786  -30.7536   23.9663 C   0  0  0  0  0  0  0  0  0  0  0  0
  -14.2660  -33.4503   22.4855 C   0  0  0  0  0  0  0  0  0  0  0  0
  -30.5179  -19.0456   17.5523 C   0  0  0  0  0  0  0  0  0  0  0  0
  -30.6977  -25.4416   16.5058 C   0  0  0  0  0  0  0  0  0  0  0  0
  -30.3890  -23.1178   15.6266 C   0  0  0  0  0  0  0  0  0  0  0  0
  -32.3180  -23.6384   17.1202 C   0  0  0  0  0  0  0  0  0  0  0  0
  -27.3657  -19.5790   19.6150 C   0  0  0  0  0  0  0  0  0  0  0  0
  -21.5191  -23.2859   21.1237 C   0  0  0  0  0  0  0  0  0  0  0  0
  -23.0196  -23.2136   20.9200 C   0  0  0  0  0  0  0  0  0  1  0  0
  -29.9877  -23.5352   18.0956 C   0  0  1  0  0  0  0  0  0  0  0  0
  -29.5937  -19.7873   18.5055 C   0  0  2  0  0  0  0  0  0  0  0  0
  -30.8282  -23.9452   16.8535 C   0  0  0  0  0  0  0  0  0  0  0  0
  -16.0244  -28.9308   23.5029 N   0  0  0  0  0  0  0  0  0  0  0  0
  -25.3778  -25.9247   27.1248 N   0  0  0  0  0  0  0  0  0  0  0  0
  -24.7972  -27.0640   26.7111 N   0  0  0  0  0  0  0  0  0  0  0  0
  -29.3280  -24.5445   20.2566 N   0  0  0  0  0  0  0  0  0  0  0  0
  -21.2798  -26.8204   25.2387 N   0  0  0  0  0  0  0  0  0  0  0  0
  -24.8119  -29.4122   27.0213 N   0  0  0  0  0  0  0  0  0  0  0  0
  -26.5570  -28.8497   30.3429 N   0  0  0  0  0  0  0  0  0  0  0  0
  -29.2322  -27.8166   21.8629 N   0  0  0  0  0  0  0  0  0  0  0  0
  -30.1133  -22.1292   18.4643 N   0  0  0  0  0  0  0  0  0  0  0  0
  -19.5563  -27.8444   23.9341 N   0  0  0  0  0  0  0  0  0  0  0  0
  -21.1940  -24.4594   22.0066 N   0  3  0  0  0  0  0  0  0  0  0  0
  -28.3547  -18.9785   18.6832 N   0  3  0  0  0  0  0  0  0  0  0  0
  -28.1318  -29.0717   28.6907 O   0  0  0  0  0  0  0  0  0  0  0  0
  -28.4641  -26.9172   19.8570 O   0  0  0  0  0  0  0  0  0  0  0  0
  -31.5109  -24.7367   19.4603 O   0  0  0  0  0  0  0  0  0  0  0  0
  -28.3139  -21.3758   17.2108 O   0  0  0  0  0  0  0  0  0  0  0  0
  -20.2769  -28.7874   25.9263 O   0  0  0  0  0  0  0  0  0  0  0  0
  -29.5233  -22.6706   30.6995 O   0  0  0  0  0  0  0  0  0  0  0  0
  -23.6647  -23.0348   22.1802 O   0  0  0  0  0  0  0  0  0  1  0  0
  -28.3079  -21.5094   35.9510 F   0  0  0  0  0  0  0  0  0  0  0  0
  -28.9088  -20.0894   31.4757 F   0  0  0  0  0  0  0  0  0  0  0  0
  1  2  1  0  0  0  0
  1  5  2  0  0  0  0
  2  6  2  0  0  0  0
  3  8  2  0  0  0  0
  3 17  1  0  0  0  0
  4  9  1  0  0  0  0
  4 17  2  0  0  0  0
  5 19  1  0  0  0  0
  6 21  1  0  0  0  0
  7 10  2  0  0  0  0
  7 20  1  0  0  0  0
  8 25  1  0  0  0  0
  9 25  2  0  0  0  0
 10 26  1  0  0  0  0
 11 12  2  0  0  0  0
 11 27  1  0  0  0  0
 12 28  1  0  0  0  0
 13 22  1  0  0  0  0
 13 26  2  0  0  0  0
 14 23  1  0  0  0  0
 14 31  2  0  0  0  0
 15 28  2  0  0  0  0
 15 29  1  0  0  0  0
 16 24  1  0  0  0  0
 16 70  2  0  0  0  0
 17 30  1  0  0  0  0
 18 30  1  0  0  0  0
 18 32  2  0  0  0  0
 18 33  1  0  0  0  0
 19 21  2  0  0  0  0
 19 38  1  0  0  0  0
 20 22  2  0  0  0  0
 20 39  1  0  0  0  0
 21 52  1  0  0  0  0
 22 40  1  0  0  0  0
 23 24  2  0  0  0  0
 23 58  1  0  0  0  0
 24 79  1  0  0  0  0
 25 87  1  0  0  0  0
 26 88  1  0  0  0  0
 27 29  2  0  0  0  0
 27 87  1  0  0  0  0
 28 89  1  0  0  0  0
 29 90  1  0  0  0  0
 30 71  2  0  0  0  0
 31 53  1  0  0  0  0
 31 70  1  0  0  0  0
 32 72  1  0  0  0  0
 32 75  1  0  0  0  0
 33 76  1  0  0  0  0
 33 82  2  0  0  0  0
 34 54  1  0  0  0  0
 34 77  1  0  0  0  0
 34 83  2  0  0  0  0
 35 67  1  0  0  0  0
 35 73  1  0  0  0  0
 35 84  2  0  0  0  0
 36 68  1  0  0  0  0
 36 78  1  0  0  0  0
 36 85  2  0  0  0  0
 37 74  1  0  0  0  0
 37 79  1  0  0  0  0
 37 86  2  0  0  0  0
 38 41  1  0  0  0  0
 39 54  1  0  0  0  0
 40 73  1  0  0  0  0
 41 43  1  0  0  0  0
 42 44  1  0  0  0  0
 42 48  1  0  0  0  0
 43 52  1  0  0  0  0
 44 56  1  0  0  0  0
 45 50  1  0  0  0  0
 45 57  1  0  0  0  0
 46 51  1  0  0  0  0
 46 57  1  0  0  0  0
 47 53  1  0  0  0  0
 47 55  1  0  0  0  0
 48 74  1  0  0  0  0
 49 56  1  0  0  0  0
 49 74  1  0  0  0  0
 50 80  1  0  0  0  0
 51 80  1  0  0  0  0
 52 77  1  0  0  0  0
 53 55  1  0  0  0  0
 54 73  1  0  0  0  0
 55 59  1  0  0  0  0
 56 72  1  0  0  0  0
 57 79  1  0  0  0  0
 60 68  1  0  0  0  0
 61 69  1  0  0  0  0
 62 69  1  0  0  0  0
 63 69  1  0  0  0  0
 64 81  1  0  0  0  0
 65 66  1  0  0  0  0
 65 80  1  0  0  0  0
 66 88  1  0  0  0  0
 67 69  1  0  0  0  0
 67 78  1  0  0  0  0
 68 81  1  0  0  0  0
 71 72  1  0  0  0  0
M  CHG  2  80   1  81   1
M  ISO  4  37 100  66 101  79 100  88 101
M  END
> <Batch ID>
0172

> <Smiles>
CNC(C)C(=O)NC(C(=O)N1Cc2cc([101O:1][101CH2:1]CN3CCC([100N:0](c4cnc(C5CC5C)cc4C)[100C:0](=O)N4CCCC(n5nc(-c6ccc(Oc7ccc(F)cc7F)cc6)c(C(N)=O)c5N)C4)CC3)ccc2CC1C(=O)NC1CCCc2ccccc21)C(C)(C)C

> <Shape>
0.155

> <Color>
0.038

> <Negative vol penalty>
0.000

$$$$

  -OEChem-04052322403D

 85 95  0     1  0  0  0  0  0999 V2000
  -20.6461  -14.2777   19.5662 C   0  0  0  0  0  0  0  0  0  0  0  0
  -21.1521  -15.5692   19.4596 C   0  0  0  0  0  0  0  0  0  0  0  0
  -18.9012  -24.3923   20.8534 C   0  0  0  0  0  0  0  0  0  0  0  0
  -18.4209  -24.0567   23.1973 C   0  0  0  0  0  0  0  0  0  0  0  0
  -21.3595  -13.3064   20.2673 C   0  0  0  0  0  0  0  0  0  0  0  0
  -22.3714  -15.8904   20.0550 C   0  0  0  0  0  0  0  0  0  0  0  0
  -26.5765  -19.8132   17.9490 C   0  0  0  0  0  0  0  0  0  0  0  0
  -18.6079  -23.0522   20.6014 C   0  0  0  0  0  0  0  0  0  0  0  0
  -18.1275  -22.7166   22.9453 C   0  0  0  0  0  0  0  0  0  0  0  0
  -26.8594  -21.1421   18.2615 C   0  0  0  0  0  0  0  0  0  0  0  0
  -19.8379  -19.8471   22.4241 C   0  0  0  0  0  0  0  0  0  0  0  0
  -20.3654  -18.8935   23.2946 C   0  0  0  0  0  0  0  0  0  0  0  0
  -28.5730  -20.4106   19.7937 C   0  0  0  0  0  0  0  0  0  0  0  0
  -28.3052  -25.3056   20.2792 C   0  0  0  0  0  0  0  0  0  0  0  0
  -18.1300  -18.1649   23.8509 C   0  0  0  0  0  0  0  0  0  0  0  0
  -29.5834  -27.1080   21.1589 C   0  0  0  0  0  0  0  0  0  0  0  0
  -18.8078  -24.8946   22.1514 C   0  0  0  0  0  0  0  0  0  0  0  0
  -18.2163  -27.3651   22.3848 C   0  0  0  0  0  0  0  0  0  0  0  0
  -22.5929  -13.6134   20.8634 C   0  0  0  0  0  0  0  0  0  0  0  0
  -27.2834  -18.7709   18.5656 C   0  0  0  0  0  0  0  0  0  0  0  0
  -23.1014  -14.9227   20.7658 C   0  0  0  0  0  0  0  0  0  0  0  0
  -28.2989  -19.0694   19.4854 C   0  0  0  0  0  0  0  0  0  0  0  0
  -29.3049  -24.4334   20.6954 C   0  0  0  0  0  0  0  0  0  0  0  0
  -28.4394  -26.6699   20.5115 C   0  0  0  0  0  0  0  0  0  0  0  0
  -18.2210  -22.2143   21.6473 C   0  0  0  0  0  0  0  0  0  0  0  0
  -27.8558  -21.4409   19.1862 C   0  0  0  0  0  0  0  0  0  0  0  0
  -18.4565  -19.9598   22.2670 C   0  0  0  0  0  0  0  0  0  0  0  0
  -19.5115  -18.0523   24.0080 C   0  0  0  0  0  0  0  0  0  0  0  0
  -17.6025  -19.1186   22.9803 C   0  0  0  0  0  0  0  0  0  0  0  0
  -19.1112  -26.2787   22.4125 C   0  0  0  0  0  0  0  0  0  0  0  0
  -30.4102  -24.9717   21.3344 C   0  0  0  0  0  0  0  0  0  0  0  0
  -18.9899  -28.4553   22.7003 C   0  0  0  0  0  0  0  0  0  0  0  0
  -16.8114  -27.3868   22.0995 C   0  0  0  0  0  0  0  0  0  0  0  0
  -26.4993  -16.3417   20.4597 C   0  0  0  0  0  0  0  0  0  0  0  0
  -29.6090  -15.5193   20.0409 C   0  0  0  0  0  0  0  0  0  0  0  0
  -32.7889  -16.5009   19.2849 C   0  0  0  0  0  0  0  0  0  0  0  0
  -24.9004  -29.4697   22.1817 C   0  0  0  0  0  0  0  0  0  0  0  0
  -23.3050  -12.5424   21.6511 C   0  0  0  0  0  0  0  0  0  0  0  0
  -26.9845  -17.3434   18.1977 C   0  0  0  0  0  0  0  0  0  0  0  0
  -29.1007  -17.9876   20.1601 C   0  0  0  0  0  0  0  0  0  0  0  0
  -24.7695  -12.8668   21.9344 C   0  0  0  0  0  0  0  0  0  0  0  0
  -22.8961  -29.7217   25.1162 C   0  0  0  0  0  0  0  0  0  0  0  0
  -24.9116  -14.3010   22.4339 C   0  0  0  0  0  0  0  0  0  0  0  0
  -21.6359  -28.9305   24.7792 C   0  0  0  0  0  0  0  0  0  0  0  0
  -25.8148  -28.4877   18.7717 C   0  0  0  0  0  0  0  0  0  0  0  0
  -24.1245  -29.0744   24.4921 C   0  0  0  0  0  0  0  0  0  0  0  0
  -22.7623  -28.1674   22.6246 C   0  0  0  0  0  0  0  0  0  0  0  0
  -27.5255  -29.0117   20.3145 C   0  0  0  0  0  0  0  0  0  0  0  0
  -25.1284  -27.3530   20.7268 C   0  0  0  0  0  0  0  0  0  0  0  0
  -24.4325  -15.3034   21.3769 C   0  0  1  0  0  0  0  0  0  0  0  0
  -27.4161  -16.3472   19.2694 C   0  0  1  0  0  0  0  0  0  0  0  0
  -21.4917  -28.7692   23.2586 C   0  0  1  0  0  0  0  0  0  0  0  0
  -26.0684  -29.4004   19.9691 C   0  0  2  0  0  0  0  0  0  0  0  0
  -26.1405  -27.2143   19.5749 C   0  0  2  0  0  0  0  0  0  0  0  0
  -31.5151  -24.0824   21.8033 C   0  0  0  0  0  0  0  0  0  0  0  0
  -35.1243  -15.6107   19.0599 C   0  0  0  0  0  0  0  0  0  0  0  0
  -29.8636  -15.4258   23.0800 C   0  0  0  0  0  0  0  0  0  0  0  0
  -32.3513  -15.4805   22.8036 C   0  0  0  0  0  0  0  0  0  0  0  0
  -31.0369  -13.5734   21.8775 C   0  0  0  0  0  0  0  0  0  0  0  0
  -32.9278  -17.2614   16.4281 C   0  0  0  0  0  0  0  0  0  0  0  0
  -29.1670  -22.9708   20.4495 C   0  0  0  0  0  0  0  0  0  1  0  0
  -30.9030  -15.8334   20.7521 C   0  0  1  0  0  0  0  0  0  0  0  0
  -33.8233  -15.9218   18.3367 C   0  0  2  0  0  0  0  0  0  0  0  0
  -31.0225  -15.0988   22.1172 C   0  0  0  0  0  0  0  0  0  0  0  0
  -30.5758  -26.2911   21.5779 N   0  0  0  0  0  0  0  0  0  0  0  0
  -20.3580  -26.6455   22.7210 N   0  0  0  0  0  0  0  0  0  0  0  0
  -20.2520  -27.9745   22.8900 N   0  0  0  0  0  0  0  0  0  0  0  0
  -27.4699  -27.5546   20.1120 N   0  0  3  0  0  0  0  0  0  0  0  0
  -28.7667  -16.6073   19.7718 N   0  0  0  0  0  0  0  0  0  0  0  0
  -23.9713  -28.8844   23.0484 N   0  0  0  0  0  0  0  0  0  0  0  0
  -25.1948  -28.8017   20.9979 N   0  0  0  0  0  0  0  0  0  0  0  0
  -18.7068  -29.7688   22.8311 N   0  0  0  0  0  0  0  0  0  0  0  0
  -16.1728  -26.1770   21.7947 N   0  0  0  0  0  0  0  0  0  0  0  0
  -25.4345  -15.4683   20.3458 N   0  0  0  0  0  0  0  0  0  0  0  0
  -31.9726  -15.5215   19.8101 N   0  0  0  0  0  0  0  0  0  0  0  0
  -34.1152  -16.8851   17.2377 N   0  3  0  0  0  0  0  0  0  0  0  0
  -16.1455  -28.4498   22.0984 O   0  0  0  0  0  0  0  0  0  0  0  0
  -26.7408  -17.0745   21.4118 O   0  0  0  0  0  0  0  0  0  0  0  0
  -29.3582  -14.3524   19.7290 O   0  0  0  0  0  0  0  0  0  0  0  0
  -32.7150  -17.7014   19.5376 O   0  0  0  0  0  0  0  0  0  0  0  0
  -25.4789  -30.5246   22.4741 O   0  0  0  0  0  0  0  0  0  0  0  0
  -17.9344  -20.9066   21.4017 O   0  0  0  0  0  0  0  0  0  0  0  0
  -28.1353  -22.7458   19.4956 O   0  0  0  0  0  0  0  0  0  1  0  0
  -20.0182  -17.1355   24.8428 F   0  0  0  0  0  0  0  0  0  0  0  0
  -16.2746  -19.2213   22.8326 F   0  0  0  0  0  0  0  0  0  0  0  0
  1  2  1  0  0  0  0
  1  5  2  0  0  0  0
  2  6  2  0  0  0  0
  3  8  2  0  0  0  0
  3 17  1  0  0  0  0
  4  9  1  0  0  0  0
  4 17  2  0  0  0  0
  5 19  1  0  0  0  0
  6 21  1  0  0  0  0
  7 10  2  0  0  0  0
  7 20  1  0  0  0  0
  8 25  1  0  0  0  0
  9 25  2  0  0  0  0
 10 26  1  0  0  0  0
 11 12  2  0  0  0  0
 11 27  1  0  0  0  0
 12 28  1  0  0  0  0
 13 22  1  0  0  0  0
 13 26  2  0  0  0  0
 14 23  1  0  0  0  0
 14 24  2  0  0  0  0
 15 28  2  0  0  0  0
 15 29  1  0  0  0  0
 16 24  1  0  0  0  0
 16 65  2  0  0  0  0
 17 30  1  0  0  0  0
 18 30  1  0  0  0  0
 18 32  2  0  0  0  0
 18 33  1  0  0  0  0
 19 21  2  0  0  0  0
 19 38  1  0  0  0  0
 20 22  2  0  0  0  0
 20 39  1  0  0  0  0
 21 50  1  0  0  0  0
 22 40  1  0  0  0  0
 23 31  2  0  0  0  0
 23 61  1  0  0  0  0
 24 68  1  0  0  0  0
 25 82  1  0  0  0  0
 26 83  1  0  0  0  0
 27 29  2  0  0  0  0
 27 82  1  0  0  0  0
 28 84  1  0  0  0  0
 29 85  1  0  0  0  0
 30 66  2  0  0  0  0
 31 55  1  0  0  0  0
 31 65  1  0  0  0  0
 32 67  1  0  0  0  0
 32 72  1  0  0  0  0
 33 73  1  0  0  0  0
 33 77  2  0  0  0  0
 34 51  1  0  0  0  0
 34 74  1  0  0  0  0
 34 78  2  0  0  0  0
 35 62  1  0  0  0  0
 35 69  1  0  0  0  0
 35 79  2  0  0  0  0
 36 63  1  0  0  0  0
 36 75  1  0  0  0  0
 36 80  2  0  0  0  0
 37 70  1  0  0  0  0
 37 71  1  0  0  0  0
 37 81  2  0  0  0  0
 38 41  1  0  0  0  0
 39 51  1  0  0  0  0
 40 69  1  0  0  0  0
 41 43  1  0  0  0  0
 42 44  1  0  0  0  0
 42 46  1  0  0  0  0
 43 50  1  0  0  0  0
 44 52  1  0  0  0  0
 45 53  1  0  0  0  0
 45 54  1  0  0  0  0
 46 70  1  0  0  0  0
 47 52  1  0  0  0  0
 47 70  1  0  0  0  0
 48 53  1  0  0  0  0
 48 68  1  0  0  0  0
 49 54  1  0  0  0  0
 49 71  1  0  0  0  0
 50 74  1  0  0  0  0
 51 69  1  0  0  0  0
 52 67  1  0  0  0  0
 53 71  1  0  0  0  0
 54 68  1  0  0  0  0
 56 63  1  0  0  0  0
 57 64  1  0  0  0  0
 58 64  1  0  0  0  0
 59 64  1  0  0  0  0
 60 76  1  0  0  0  0
 61 83  1  0  0  0  0
 62 64  1  0  0  0  0
 62 75  1  0  0  0  0
 63 76  1  0  0  0  0
 66 67  1  0  0  0  0
M  CHG  1  76   1
M  ISO  4  37 100  61 101  71 100  83 101
M  END
> <Batch ID>
0172

> <Smiles>
CNC(C)C(=O)NC(C(=O)N1Cc2cc([101O:1][101CH2:1]c3cc(N4CC5CC4C[100N:0]5[100C:0](=O)N4CCCC(n5nc(-c6ccc(Oc7ccc(F)cc7F)cc6)c(C(N)=O)c5N)C4)cnc3C)ccc2CC1C(=O)NC1CCCc2ccccc21)C(C)(C)C

> <Shape>
0.247

> <Color>
0.082

> <Negative vol penalty>
0.000

$$$$

  -OEChem-04052322403D

 91101  0     1  0  0  0  0  0999 V2000
  -32.1261  -36.0704   15.4186 C   0  0  0  0  0  0  0  0  0  0  0  0
  -31.8895  -34.7095   15.5843 C   0  0  0  0  0  0  0  0  0  0  0  0
  -23.1848   -9.9640   19.8508 C   0  0  0  0  0  0  0  0  0  0  0  0
  -23.9595   -9.8498   22.1364 C   0  0  0  0  0  0  0  0  0  0  0  0
  -32.1019  -36.9206   16.5234 C   0  0  0  0  0  0  0  0  0  0  0  0
  -31.6296  -34.1978   16.8551 C   0  0  0  0  0  0  0  0  0  0  0  0
  -27.8723  -29.5712   18.2632 C   0  0  0  0  0  0  0  0  0  0  0  0
  -22.4978   -8.7624   20.0236 C   0  0  0  0  0  0  0  0  0  0  0  0
  -23.2725   -8.6482   22.3092 C   0  0  0  0  0  0  0  0  0  0  0  0
  -28.1030  -28.2205   18.5204 C   0  0  0  0  0  0  0  0  0  0  0  0
  -20.0897   -7.6587   22.8675 C   0  0  0  0  0  0  0  0  0  0  0  0
  -19.3437   -7.5028   24.0357 C   0  0  0  0  0  0  0  0  0  0  0  0
  -25.7031  -21.5390   22.1756 C   0  0  0  0  0  0  0  0  0  0  0  0
  -28.1273  -28.6816   20.8881 C   0  0  0  0  0  0  0  0  0  0  0  0
  -27.9137  -20.8326   23.7239 C   0  0  0  0  0  0  0  0  0  0  0  0
  -20.6801   -5.5805   24.6325 C   0  0  0  0  0  0  0  0  0  0  0  0
  -23.9157  -10.5076   20.9072 C   0  0  0  0  0  0  0  0  0  0  0  0
  -24.1375  -13.0484   20.9599 C   0  0  0  0  0  0  0  0  0  0  0  0
  -31.8320  -36.4206   17.8070 C   0  0  0  0  0  0  0  0  0  0  0  0
  -27.7780  -30.4906   19.3179 C   0  0  0  0  0  0  0  0  0  0  0  0
  -31.6030  -35.0419   17.9783 C   0  0  0  0  0  0  0  0  0  0  0  0
  -26.6716  -22.4939   22.4852 C   0  0  0  0  0  0  0  0  0  0  0  0
  -27.8928  -30.0430   20.6418 C   0  0  0  0  0  0  0  0  0  0  0  0
  -27.7768  -22.1408   23.2593 C   0  0  0  0  0  0  0  0  0  0  0  0
  -26.9452  -19.8777   23.4143 C   0  0  0  0  0  0  0  0  0  0  0  0
  -25.8399  -20.2309   22.6402 C   0  0  0  0  0  0  0  0  0  0  0  0
  -22.5416   -8.1045   21.2528 C   0  0  0  0  0  0  0  0  0  0  0  0
  -28.2335  -27.7760   19.8328 C   0  0  0  0  0  0  0  0  0  0  0  0
  -21.1309   -6.7755   22.5817 C   0  0  0  0  0  0  0  0  0  0  0  0
  -19.6389   -6.4637   24.9182 C   0  0  0  0  0  0  0  0  0  0  0  0
  -21.4261   -5.7364   23.4642 C   0  0  0  0  0  0  0  0  0  0  0  0
  -24.6261  -11.7485   20.7291 C   0  0  0  0  0  0  0  0  0  0  0  0
  -25.1906  -13.8720   20.6450 C   0  0  0  0  0  0  0  0  0  0  0  0
  -22.8471  -13.4735   21.4181 C   0  0  0  0  0  0  0  0  0  0  0  0
  -29.4264  -33.0579   20.2097 C   0  0  0  0  0  0  0  0  0  0  0  0
  -27.0629  -33.3287   22.4148 C   0  0  0  0  0  0  0  0  0  0  0  0
  -24.6203  -31.8032   24.2459 C   0  0  0  0  0  0  0  0  0  0  0  0
  -30.4959  -15.2202   20.7247 C   0  0  0  0  0  0  0  0  0  0  0  0
  -31.8631  -37.3710   18.9777 C   0  0  0  0  0  0  0  0  0  0  0  0
  -27.5023  -31.9399   19.0249 C   0  0  0  0  0  0  0  0  0  0  0  0
  -27.7794  -30.9864   21.8104 C   0  0  0  0  0  0  0  0  0  0  0  0
  -31.2097  -36.8077   20.2371 C   0  0  0  0  0  0  0  0  0  0  0  0
  -29.5769  -12.8933   18.3383 C   0  0  0  0  0  0  0  0  0  0  0  0
  -31.6856  -35.3812   20.4930 C   0  0  0  0  0  0  0  0  0  0  0  0
  -28.1636  -12.4858   18.7543 C   0  0  0  0  0  0  0  0  0  0  0  0
  -28.7201  -18.2100   22.0030 C   0  0  0  0  0  0  0  0  0  0  0  0
  -28.3508  -16.2953   23.5987 C   0  0  0  0  0  0  0  0  0  0  0  0
  -26.3067  -24.1099   20.5002 C   0  0  0  0  0  0  0  0  0  0  0  0
  -30.4839  -13.0373   19.5551 C   0  0  0  0  0  0  0  0  0  0  0  0
  -29.9717  -17.5095   21.4814 C   0  0  0  0  0  0  0  0  0  0  0  0
  -29.6115  -15.6340   23.0514 C   0  0  0  0  0  0  0  0  0  0  0  0
  -28.5613  -13.6060   21.0027 C   0  0  0  0  0  0  0  0  0  0  0  0
  -26.5044  -23.8884   21.9792 C   0  0  2  0  0  0  0  0  0  0  0  0
  -31.2929  -34.4529   19.3374 C   0  0  1  0  0  0  0  0  0  0  0  0
  -27.9367  -32.8707   20.1529 C   0  0  1  0  0  0  0  0  0  0  0  0
  -28.4163  -17.8218   23.4558 C   0  0  0  0  0  0  0  0  0  0  0  0
  -27.6046  -24.4974   21.1439 C   0  0  2  0  0  0  0  0  0  0  0  0
  -27.5975  -13.4532   19.8089 C   0  0  2  0  0  0  0  0  0  0  0  0
  -28.8269  -23.1445   23.6073 C   0  0  0  0  0  0  0  0  0  0  0  0
  -22.8804  -32.2770   25.9912 C   0  0  0  0  0  0  0  0  0  0  0  0
  -29.2394  -33.4424   24.5503 C   0  0  0  0  0  0  0  0  0  0  0  0
  -27.4827  -32.9583   26.2673 C   0  0  0  0  0  0  0  0  0  0  0  0
  -27.3488  -35.0414   24.9015 C   0  0  0  0  0  0  0  0  0  0  0  0
  -24.0821  -19.3344   21.1131 C   0  0  0  0  0  0  0  0  0  0  0  0
  -22.4226  -30.9692   22.4477 C   0  0  0  0  0  0  0  0  0  0  0  0
  -27.9559  -25.9355   21.3132 C   0  0  0  0  0  0  0  0  0  1  0  0
  -27.1174  -18.4682   23.9314 C   0  0  1  0  0  0  0  0  0  0  0  0
  -26.8449  -32.8138   23.8171 C   0  0  1  0  0  0  0  0  0  0  0  0
  -23.1714  -32.1769   24.5018 C   0  0  2  0  0  0  0  0  0  0  0  0
  -27.7331  -33.5462   24.8621 C   0  0  0  0  0  0  0  0  0  0  0  0
  -25.8911  -11.7417   20.3005 N   0  0  0  0  0  0  0  0  0  0  0  0
  -26.2062  -13.0475   20.2594 N   0  0  0  0  0  0  0  0  0  0  0  0
  -27.5156  -32.3948   21.4722 N   0  0  0  0  0  0  0  0  0  0  0  0
  -29.9096  -13.9598   20.5342 N   0  0  0  0  0  0  0  0  0  0  0  0
  -29.8951  -16.0622   21.6751 N   0  0  0  0  0  0  0  0  0  0  0  0
  -25.3375  -15.2138   20.6630 N   0  0  0  0  0  0  0  0  0  0  0  0
  -21.8814  -12.4964   21.6958 N   0  0  0  0  0  0  0  0  0  0  0  0
  -24.8495  -19.2772   22.3175 N   0  0  0  0  0  0  0  0  0  0  0  0
  -29.8930  -34.0975   19.4280 N   0  0  0  0  0  0  0  0  0  0  0  0
  -25.4123  -32.9184   24.0723 N   0  0  0  0  0  0  0  0  0  0  0  0
  -27.0805  -18.3924   25.4244 N   0  3  0  0  0  0  0  0  0  0  0  0
  -22.2609  -31.1546   23.9128 N   0  3  0  0  0  0  0  0  0  0  0  0
  -22.5536  -14.6847   21.5608 O   0  0  0  0  0  0  0  0  0  0  0  0
  -30.1024  -32.3152   20.9119 O   0  0  0  0  0  0  0  0  0  0  0  0
  -26.8330  -34.5143   22.1634 O   0  0  0  0  0  0  0  0  0  0  0  0
  -25.0110  -30.6386   24.2079 O   0  0  0  0  0  0  0  0  0  0  0  0
  -31.4924  -15.5758   20.0832 O   0  0  0  0  0  0  0  0  0  0  0  0
  -21.8711   -6.9322   21.4219 O   0  0  0  0  0  0  0  0  0  0  0  0
  -28.4610  -26.4484   20.0885 O   0  0  0  0  0  0  0  0  0  1  0  0
  -18.9234   -6.3150   26.0408 F   0  0  0  0  0  0  0  0  0  0  0  0
  -22.4259   -4.8855   23.1956 F   0  0  0  0  0  0  0  0  0  0  0  0
  1  2  1  0  0  0  0
  1  5  2  0  0  0  0
  2  6  2  0  0  0  0
  3  8  2  0  0  0  0
  3 17  1  0  0  0  0
  4  9  1  0  0  0  0
  4 17  2  0  0  0  0
  5 19  1  0  0  0  0
  6 21  1  0  0  0  0
  7 10  2  0  0  0  0
  7 20  1  0  0  0  0
  8 27  1  0  0  0  0
  9 27  2  0  0  0  0
 10 28  1  0  0  0  0
 11 12  2  0  0  0  0
 11 29  1  0  0  0  0
 12 30  1  0  0  0  0
 13 22  2  0  0  0  0
 13 26  1  0  0  0  0
 14 23  1  0  0  0  0
 14 28  2  0  0  0  0
 15 24  2  0  0  0  0
 15 25  1  0  0  0  0
 16 30  2  0  0  0  0
 16 31  1  0  0  0  0
 17 32  1  0  0  0  0
 18 32  1  0  0  0  0
 18 33  2  0  0  0  0
 18 34  1  0  0  0  0
 19 21  2  0  0  0  0
 19 39  1  0  0  0  0
 20 23  2  0  0  0  0
 20 40  1  0  0  0  0
 21 54  1  0  0  0  0
 22 24  1  0  0  0  0
 22 53  1  0  0  0  0
 23 41  1  0  0  0  0
 24 59  1  0  0  0  0
 25 26  2  0  0  0  0
 25 67  1  0  0  0  0
 26 78  1  0  0  0  0
 27 88  1  0  0  0  0
 28 89  1  0  0  0  0
 29 31  2  0  0  0  0
 29 88  1  0  0  0  0
 30 90  1  0  0  0  0
 31 91  1  0  0  0  0
 32 71  2  0  0  0  0
 33 72  1  0  0  0  0
 33 76  1  0  0  0  0
 34 77  1  0  0  0  0
 34 83  2  0  0  0  0
 35 55  1  0  0  0  0
 35 79  1  0  0  0  0
 35 84  2  0  0  0  0
 36 68  1  0  0  0  0
 36 73  1  0  0  0  0
 36 85  2  0  0  0  0
 37 69  1  0  0  0  0
 37 80  1  0  0  0  0
 37 86  2  0  0  0  0
 38 74  1  0  0  0  0
 38 75  1  0  0  0  0
 38 87  2  0  0  0  0
 39 42  1  0  0  0  0
 40 55  1  0  0  0  0
 41 73  1  0  0  0  0
 42 44  1  0  0  0  0
 43 45  1  0  0  0  0
 43 49  1  0  0  0  0
 44 54  1  0  0  0  0
 45 58  1  0  0  0  0
 46 50  1  0  0  0  0
 46 56  1  0  0  0  0
 47 51  1  0  0  0  0
 47 56  1  0  0  0  0
 48 53  1  0  0  0  0
 48 57  1  0  0  0  0
 49 74  1  0  0  0  0
 50 75  1  0  0  0  0
 51 75  1  0  0  0  0
 52 58  1  0  0  0  0
 52 74  1  0  0  0  0
 53 57  1  0  0  0  0
 54 79  1  0  0  0  0
 55 73  1  0  0  0  0
 56 67  1  0  0  0  0
 57 66  1  0  0  0  0
 58 72  1  0  0  0  0
 60 69  1  0  0  0  0
 61 70  1  0  0  0  0
 62 70  1  0  0  0  0
 63 70  1  0  0  0  0
 64 78  1  0  0  0  0
 65 82  1  0  0  0  0
 66 89  1  0  0  0  0
 67 81  1  0  0  0  0
 68 70  1  0  0  0  0
 68 80  1  0  0  0  0
 69 82  1  0  0  0  0
 71 72  1  0  0  0  0
M  CHG  2  81   1  82   1
M  ISO  4  38 100  66 101  75 100  89 101
M  END
> <Batch ID>
0172

> <Smiles>
CNc1cc(C2CC2[101CH2:1][101O:1]c2ccc3c(c2)CN(C(=O)C(NC(=O)C(C)NC)C(C)(C)C)C(C(=O)NC2CCCc4ccccc42)C3)c(C)cc1C(N)C1CC[100N:0]([100C:0](=O)N2CCCC(n3nc(-c4ccc(Oc5ccc(F)cc5F)cc4)c(C(N)=O)c3N)C2)CC1

> <Shape>
0.263

> <Color>
0.218

> <Negative vol penalty>
0.000

$$$$

  -OEChem-04052322403D

 84 93  0     1  0  0  0  0  0999 V2000
  -29.2915  -33.3957   24.5713 C   0  0  0  0  0  0  0  0  0  0  0  0
  -29.1351  -32.0982   24.0946 C   0  0  0  0  0  0  0  0  0  0  0  0
  -24.7424   -8.8467   21.6866 C   0  0  0  0  0  0  0  0  0  0  0  0
  -23.1451  -10.3103   20.6173 C   0  0  0  0  0  0  0  0  0  0  0  0
  -28.1954  -34.0834   25.0904 C   0  0  0  0  0  0  0  0  0  0  0  0
  -27.8825  -31.4871   24.1377 C   0  0  0  0  0  0  0  0  0  0  0  0
  -26.7463  -29.0794   19.8299 C   0  0  0  0  0  0  0  0  0  0  0  0
  -23.7214   -8.3003   22.4641 C   0  0  0  0  0  0  0  0  0  0  0  0
  -22.1240   -9.7638   21.3947 C   0  0  0  0  0  0  0  0  0  0  0  0
  -27.3384  -27.8346   19.6209 C   0  0  0  0  0  0  0  0  0  0  0  0
  -21.2334   -6.0432   22.0792 C   0  0  0  0  0  0  0  0  0  0  0  0
  -21.1915   -4.6553   22.2119 C   0  0  0  0  0  0  0  0  0  0  0  0
  -25.3015  -26.7536   20.3292 C   0  0  0  0  0  0  0  0  0  0  0  0
  -28.1973  -21.5026   18.2251 C   0  0  0  0  0  0  0  0  0  0  0  0
  -21.4327   -4.8769   24.6056 C   0  0  0  0  0  0  0  0  0  0  0  0
  -24.4543   -9.8517   20.7632 C   0  0  0  0  0  0  0  0  0  0  0  0
  -25.9469   -9.9734   18.6981 C   0  0  0  0  0  0  0  0  0  0  0  0
  -26.9266  -33.4839   25.1310 C   0  0  0  0  0  0  0  0  0  0  0  0
  -25.4287  -29.1708   20.3012 C   0  0  0  0  0  0  0  0  0  0  0  0
  -26.7685  -32.1668   24.6590 C   0  0  0  0  0  0  0  0  0  0  0  0
  -24.6941  -28.0007   20.5409 C   0  0  0  0  0  0  0  0  0  0  0  0
  -28.6688  -20.8020   19.3296 C   0  0  0  0  0  0  0  0  0  0  0  0
  -22.4122   -8.7588   22.3181 C   0  0  0  0  0  0  0  0  0  0  0  0
  -26.6170  -26.6714   19.8734 C   0  0  0  0  0  0  0  0  0  0  0  0
  -21.3749   -6.8480   23.2097 C   0  0  0  0  0  0  0  0  0  0  0  0
  -21.2911   -4.0721   23.4750 C   0  0  0  0  0  0  0  0  0  0  0  0
  -27.4476  -22.6588   18.4104 C   0  0  0  0  0  0  0  0  0  0  0  0
  -21.4746   -6.2648   24.4729 C   0  0  0  0  0  0  0  0  0  0  0  0
  -25.5087  -10.4169   19.9602 C   0  0  0  0  0  0  0  0  0  0  0  0
  -28.3656  -21.2952   20.5884 C   0  0  0  0  0  0  0  0  0  0  0  0
  -27.1988  -23.0689   19.7103 C   0  0  0  0  0  0  0  0  0  0  0  0
  -26.9610  -10.8372   18.3636 C   0  0  0  0  0  0  0  0  0  0  0  0
  -25.4791   -8.8784   17.8993 C   0  0  0  0  0  0  0  0  0  0  0  0
  -24.0554  -30.3770   22.9017 C   0  0  0  0  0  0  0  0  0  0  0  0
  -21.3189  -29.6147   21.3355 C   0  0  0  0  0  0  0  0  0  0  0  0
  -19.7675  -27.6909   18.9820 C   0  0  0  0  0  0  0  0  0  0  0  0
  -28.9988  -16.0188   18.0538 C   0  0  0  0  0  0  0  0  0  0  0  0
  -25.7813  -34.2495   25.7447 C   0  0  0  0  0  0  0  0  0  0  0  0
  -24.7955  -30.5211   20.4960 C   0  0  0  0  0  0  0  0  0  0  0  0
  -23.2698  -28.0446   21.0285 C   0  0  0  0  0  0  0  0  0  0  0  0
  -24.4105  -33.6671   25.4099 C   0  0  0  0  0  0  0  0  0  0  0  0
  -29.4082  -14.2862   21.1056 C   0  0  0  0  0  0  0  0  0  0  0  0
  -24.4118  -32.1540   25.6031 C   0  0  0  0  0  0  0  0  0  0  0  0
  -28.4460  -13.1062   21.0004 C   0  0  0  0  0  0  0  0  0  0  0  0
  -30.3014  -19.4408   17.8359 C   0  0  0  0  0  0  0  0  0  0  0  0
  -28.8082  -15.5320   20.4677 C   0  0  0  0  0  0  0  0  0  0  0  0
  -30.6465  -17.9593   17.7641 C   0  0  0  0  0  0  0  0  0  0  0  0
  -28.6591  -18.2509   19.0708 C   0  0  0  0  0  0  0  0  0  0  0  0
  -27.4840  -14.1547   18.8867 C   0  0  0  0  0  0  0  0  0  0  0  0
  -29.4851  -19.5434   19.1345 C   0  0  2  0  0  0  0  0  0  0  0  0
  -25.4206  -31.4790   24.6660 C   0  0  1  0  0  0  0  0  0  0  0  0
  -23.6203  -30.4953   21.4684 C   0  0  1  0  0  0  0  0  0  0  0  0
  -28.0363  -12.8701   19.5385 C   0  0  2  0  0  0  0  0  0  0  0  0
  -28.8452  -20.5835   21.8110 C   0  0  0  0  0  0  0  0  0  0  0  0
  -17.5179  -27.2697   17.9527 C   0  0  0  0  0  0  0  0  0  0  0  0
  -20.4704  -28.0716   23.8273 C   0  0  0  0  0  0  0  0  0  0  0  0
  -18.7318  -26.9233   22.4391 C   0  0  0  0  0  0  0  0  0  0  0  0
  -18.6443  -29.3970   22.7488 C   0  0  0  0  0  0  0  0  0  0  0  0
  -20.7233  -28.4710   16.2919 C   0  0  0  0  0  0  0  0  0  0  0  0
  -26.3970  -24.3046   19.9494 C   0  0  0  0  0  0  0  0  0  1  0  0
  -20.4308  -28.3959   21.2662 C   0  0  1  0  0  0  0  0  0  0  0  0
  -18.8191  -28.0506   17.8526 C   0  0  2  0  0  0  0  0  0  0  0  0
  -19.5968  -28.1958   22.5630 C   0  0  0  0  0  0  0  0  0  0  0  0
  -26.1889  -11.4799   20.3979 N   0  0  0  0  0  0  0  0  0  0  0  0
  -27.6401  -22.4147   20.8080 N   0  0  0  0  0  0  0  0  0  0  0  0
  -27.0648  -11.7114   19.4053 N   0  0  0  0  0  0  0  0  0  0  0  0
  -22.6969  -29.3886   21.2098 N   0  0  0  0  0  0  0  0  0  0  0  0
  -28.3951  -15.2895   19.0842 N   0  0  0  0  0  0  0  0  0  0  0  0
  -29.4903  -17.2885   18.3548 N   0  0  0  0  0  0  0  0  0  0  0  0
  -27.7653  -10.9266   17.2830 N   0  0  0  0  0  0  0  0  0  0  0  0
  -24.4292   -8.0921   18.3930 N   0  0  0  0  0  0  0  0  0  0  0  0
  -24.8868  -31.3971   23.3233 N   0  0  0  0  0  0  0  0  0  0  0  0
  -19.6286  -28.5436   20.0566 N   0  0  0  0  0  0  0  0  0  0  0  0
  -19.4464  -27.7514   16.5343 N   0  3  0  0  0  0  0  0  0  0  0  0
  -25.9882   -8.5955   16.7884 O   0  0  0  0  0  0  0  0  0  0  0  0
  -23.6644  -29.4312   23.5757 O   0  0  0  0  0  0  0  0  0  0  0  0
  -20.8082  -30.7271   21.4883 O   0  0  0  0  0  0  0  0  0  0  0  0
  -20.5504  -26.7456   18.9188 O   0  0  0  0  0  0  0  0  0  0  0  0
  -29.1314  -15.5397   16.9195 O   0  0  0  0  0  0  0  0  0  0  0  0
  -21.4155   -8.2257   23.0765 O   0  0  0  0  0  0  0  0  0  0  0  0
  -27.1967  -25.4466   19.6695 O   0  0  0  0  0  0  0  0  0  1  0  0
  -21.2494   -2.7394   23.6024 F   0  0  0  0  0  0  0  0  0  0  0  0
  -26.9854  -23.3467   17.3592 F   0  0  0  0  0  0  0  0  0  0  0  0
  -21.6095   -7.0327   25.5628 F   0  0  0  0  0  0  0  0  0  0  0  0
  1  2  1  0  0  0  0
  1  5  2  0  0  0  0
  2  6  2  0  0  0  0
  3  8  2  0  0  0  0
  3 16  1  0  0  0  0
  4  9  1  0  0  0  0
  4 16  2  0  0  0  0
  5 18  1  0  0  0  0
  6 20  1  0  0  0  0
  7 10  2  0  0  0  0
  7 19  1  0  0  0  0
  8 23  1  0  0  0  0
  9 23  2  0  0  0  0
 10 24  1  0  0  0  0
 11 12  2  0  0  0  0
 11 25  1  0  0  0  0
 12 26  1  0  0  0  0
 13 21  1  0  0  0  0
 13 24  2  0  0  0  0
 14 22  2  0  0  0  0
 14 27  1  0  0  0  0
 15 26  2  0  0  0  0
 15 28  1  0  0  0  0
 16 29  1  0  0  0  0
 17 29  1  0  0  0  0
 17 32  2  0  0  0  0
 17 33  1  0  0  0  0
 18 20  2  0  0  0  0
 18 38  1  0  0  0  0
 19 21  2  0  0  0  0
 19 39  1  0  0  0  0
 20 51  1  0  0  0  0
 21 40  1  0  0  0  0
 22 30  1  0  0  0  0
 22 50  1  0  0  0  0
 23 80  1  0  0  0  0
 24 81  1  0  0  0  0
 25 28  2  0  0  0  0
 25 80  1  0  0  0  0
 26 82  1  0  0  0  0
 27 31  2  0  0  0  0
 27 83  1  0  0  0  0
 28 84  1  0  0  0  0
 29 64  2  0  0  0  0
 30 54  1  0  0  0  0
 30 65  2  0  0  0  0
 31 60  1  0  0  0  0
 31 65  1  0  0  0  0
 32 66  1  0  0  0  0
 32 70  1  0  0  0  0
 33 71  1  0  0  0  0
 33 75  2  0  0  0  0
 34 52  1  0  0  0  0
 34 72  1  0  0  0  0
 34 76  2  0  0  0  0
 35 61  1  0  0  0  0
 35 67  1  0  0  0  0
 35 77  2  0  0  0  0
 36 62  1  0  0  0  0
 36 73  1  0  0  0  0
 36 78  2  0  0  0  0
 37 68  1  0  0  0  0
 37 69  1  0  0  0  0
 37 79  2  0  0  0  0
 38 41  1  0  0  0  0
 39 52  1  0  0  0  0
 40 67  1  0  0  0  0
 41 43  1  0  0  0  0
 42 44  1  0  0  0  0
 42 46  1  0  0  0  0
 43 51  1  0  0  0  0
 44 53  1  0  0  0  0
 45 47  1  0  0  0  0
 45 50  1  0  0  0  0
 46 68  1  0  0  0  0
 47 69  1  0  0  0  0
 48 50  1  0  0  0  0
 48 69  1  0  0  0  0
 49 53  1  0  0  0  0
 49 68  1  0  0  0  0
 51 72  1  0  0  0  0
 52 67  1  0  0  0  0
 53 66  1  0  0  0  0
 55 62  1  0  0  0  0
 56 63  1  0  0  0  0
 57 63  1  0  0  0  0
 58 63  1  0  0  0  0
 59 74  1  0  0  0  0
 60 81  1  0  0  0  0
 61 63  1  0  0  0  0
 61 73  1  0  0  0  0
 62 74  1  0  0  0  0
 64 66  1  0  0  0  0
M  CHG  1  74   1
M  ISO  4  37 100  60 101  69 100  81 101
M  END
> <Batch ID>
0172

> <Smiles>
CNC(C)C(=O)NC(C(=O)N1Cc2cc([101O:1][101CH2:1]c3nc(C)c(C4CC[100N:0]([100C:0](=O)N5CCCC(n6nc(-c7ccc(Oc8ccc(F)cc8F)cc7)c(C(N)=O)c6N)C5)C4)cc3F)ccc2CC1C(=O)NC1CCCc2ccccc21)C(C)(C)C

> <Shape>
0.332

> <Color>
0.087

> <Negative vol penalty>
0.000

$$$$

  -OEChem-04052322403D

 90100  0     1  0  0  0  0  0999 V2000
  -28.4761  -35.9846   25.2854 C   0  0  0  0  0  0  0  0  0  0  0  0
  -28.8208  -34.7703   24.7005 C   0  0  0  0  0  0  0  0  0  0  0  0
  -26.3453  -11.8064   21.4101 C   0  0  0  0  0  0  0  0  0  0  0  0
  -25.6506  -12.3285   19.1558 C   0  0  0  0  0  0  0  0  0  0  0  0
  -27.1805  -36.1858   25.7596 C   0  0  0  0  0  0  0  0  0  0  0  0
  -27.8704  -33.7560   24.5905 C   0  0  0  0  0  0  0  0  0  0  0  0
  -27.3402  -29.6848   20.0462 C   0  0  0  0  0  0  0  0  0  0  0  0
  -25.0461  -11.4022   21.7169 C   0  0  0  0  0  0  0  0  0  0  0  0
  -24.3513  -11.9242   19.4626 C   0  0  0  0  0  0  0  0  0  0  0  0
  -27.7595  -28.3613   19.9189 C   0  0  0  0  0  0  0  0  0  0  0  0
  -23.0967   -8.6866   21.2086 C   0  0  0  0  0  0  0  0  0  0  0  0
  -22.9386   -7.4947   21.9156 C   0  0  0  0  0  0  0  0  0  0  0  0
  -25.5724  -27.6088   20.6041 C   0  0  0  0  0  0  0  0  0  0  0  0
  -21.8352   -8.6976   23.6968 C   0  0  0  0  0  0  0  0  0  0  0  0
  -26.6476  -12.2696   20.1295 C   0  0  0  0  0  0  0  0  0  0  0  0
  -29.0316  -11.8885   19.3056 C   0  0  0  0  0  0  0  0  0  0  0  0
  -26.2110  -35.1768   25.6465 C   0  0  0  0  0  0  0  0  0  0  0  0
  -26.0349  -29.9808   20.4646 C   0  0  0  0  0  0  0  0  0  0  0  0
  -26.5609  -33.9433   25.0648 C   0  0  0  0  0  0  0  0  0  0  0  0
  -25.1382  -28.9369   20.7335 C   0  0  0  0  0  0  0  0  0  0  0  0
  -24.0491  -11.4611   20.7432 C   0  0  0  0  0  0  0  0  0  0  0  0
  -26.8765  -27.3231   20.2007 C   0  0  0  0  0  0  0  0  0  0  0  0
  -22.6241   -9.8841   21.7457 C   0  0  0  0  0  0  0  0  0  0  0  0
  -22.3078   -7.5002   23.1597 C   0  0  0  0  0  0  0  0  0  0  0  0
  -21.9934   -9.8896   22.9897 C   0  0  0  0  0  0  0  0  0  0  0  0
  -27.9894  -12.6879   19.8122 C   0  0  0  0  0  0  0  0  0  0  0  0
  -30.0936  -12.7499   19.1769 C   0  0  0  0  0  0  0  0  0  0  0  0
  -29.0390  -10.4921   18.9804 C   0  0  0  0  0  0  0  0  0  0  0  0
  -24.7670  -31.4992   22.9527 C   0  0  0  0  0  0  0  0  0  0  0  0
  -21.9981  -31.0383   21.3268 C   0  0  0  0  0  0  0  0  0  0  0  0
  -20.2640  -29.2246   19.0139 C   0  0  0  0  0  0  0  0  0  0  0  0
  -31.2867  -17.8214   21.9615 C   0  0  0  0  0  0  0  0  0  0  0  0
  -24.8366  -35.4237   26.2164 C   0  0  0  0  0  0  0  0  0  0  0  0
  -25.5900  -31.4137   20.5712 C   0  0  0  0  0  0  0  0  0  0  0  0
  -23.7201  -29.2014   21.1665 C   0  0  0  0  0  0  0  0  0  0  0  0
  -23.7856  -34.4325   25.7230 C   0  0  0  0  0  0  0  0  0  0  0  0
  -30.9750  -17.3202   18.4008 C   0  0  0  0  0  0  0  0  0  0  0  0
  -24.3193  -33.0056   25.8009 C   0  0  0  0  0  0  0  0  0  0  0  0
  -29.0667  -23.9378   22.6469 C   0  0  0  0  0  0  0  0  0  0  0  0
  -30.6905  -24.5893   20.8209 C   0  0  0  0  0  0  0  0  0  0  0  0
  -30.2702  -15.9663   18.3219 C   0  0  0  0  0  0  0  0  0  0  0  0
  -27.9156  -24.5015   21.8193 C   0  0  0  0  0  0  0  0  0  0  0  0
  -29.5350  -25.1518   19.9985 C   0  0  0  0  0  0  0  0  0  0  0  0
  -29.7911  -21.0085   22.8210 C   0  0  0  0  0  0  0  0  0  0  0  0
  -30.3966  -22.3578   24.8660 C   0  0  0  0  0  0  0  0  0  0  0  0
  -30.4971  -18.1455   19.5963 C   0  0  0  0  0  0  0  0  0  0  0  0
  -30.2947  -20.1170   21.6970 C   0  0  0  0  0  0  0  0  0  0  0  0
  -32.4873  -19.8675   22.8206 C   0  0  0  0  0  0  0  0  0  0  0  0
  -29.8825  -16.0829   20.8126 C   0  0  0  0  0  0  0  0  0  0  0  0
  -25.5510  -32.8277   24.9049 C   0  0  1  0  0  0  0  0  0  0  0  0
  -24.3946  -31.6006   21.5005 C   0  0  1  0  0  0  0  0  0  0  0  0
  -32.1012  -20.8827   23.9028 C   0  0  2  0  0  0  0  0  0  0  0  0
  -30.2244  -23.4653   21.7566 C   0  0  0  0  0  0  0  0  0  0  0  0
  -31.6499  -20.2817   25.2460 C   0  0  2  0  0  0  0  0  0  0  0  0
  -30.3853  -15.2061   19.6552 C   0  0  1  0  0  0  0  0  0  0  0  0
  -31.0673  -21.5107   25.9486 C   0  0  2  0  0  0  0  0  0  0  0  0
  -28.3835  -25.6164   20.8878 C   0  0  0  0  0  0  0  0  0  1  0  0
  -30.9186  -21.8070   23.5134 C   0  0  1  0  0  0  0  0  0  0  0  0
  -32.7823  -19.6481   26.0474 C   0  0  0  0  0  0  0  0  0  0  0  0
  -18.0088  -29.0625   17.9252 C   0  0  0  0  0  0  0  0  0  0  0  0
  -32.5443  -22.4983   21.7293 C   0  0  0  0  0  0  0  0  0  0  0  0
  -20.8710  -29.7595   23.8575 C   0  0  0  0  0  0  0  0  0  0  0  0
  -19.0312  -28.7892   22.4641 C   0  0  0  0  0  0  0  0  0  0  0  0
  -19.2790  -31.2644   22.6511 C   0  0  0  0  0  0  0  0  0  0  0  0
  -29.4479  -22.2623   27.6954 C   0  0  0  0  0  0  0  0  0  0  0  0
  -21.3971  -29.7235   16.3257 C   0  0  0  0  0  0  0  0  0  0  0  0
  -20.9518  -29.9510   21.2840 C   0  0  1  0  0  0  0  0  0  0  0  0
  -19.4081  -29.6511   17.8348 C   0  0  2  0  0  0  0  0  0  0  0  0
  -31.3860  -22.9558   22.6078 C   0  0  1  0  0  0  0  0  0  0  0  0
  -20.0605  -29.9357   22.5579 C   0  0  0  0  0  0  0  0  0  0  0  0
  -28.3561  -13.9594   19.9931 N   0  0  0  0  0  0  0  0  0  0  0  0
  -29.6406  -13.9655   19.5982 N   0  0  0  0  0  0  0  0  0  0  0  0
  -23.3344  -30.6190   21.2621 N   0  0  0  0  0  0  0  0  0  0  0  0
  -30.5840  -17.3680   20.8363 N   0  0  0  0  0  0  0  0  0  0  0  0
  -31.3515  -19.2181   22.1516 N   0  0  0  0  0  0  0  0  0  0  0  0
  -31.3613  -12.5786   18.7458 N   0  0  0  0  0  0  0  0  0  0  0  0
  -27.8627   -9.7549   19.1730 N   0  0  0  0  0  0  0  0  0  0  0  0
  -25.1537  -32.6987   23.5193 N   0  0  0  0  0  0  0  0  0  0  0  0
  -20.2135  -30.1436   20.0405 N   0  0  0  0  0  0  0  0  0  0  0  0
  -30.0951  -21.1193   26.9905 N   0  3  0  0  0  0  0  0  0  0  0  0
  -20.0261  -29.1997   16.5560 N   0  3  0  0  0  0  0  0  0  0  0  0
  -30.0634   -9.9116   18.5477 O   0  0  0  0  0  0  0  0  0  0  0  0
  -24.7064  -30.4135   23.5176 O   0  0  0  0  0  0  0  0  0  0  0  0
  -21.6426  -32.2168   21.4074 O   0  0  0  0  0  0  0  0  0  0  0  0
  -20.9095  -28.1788   19.0246 O   0  0  0  0  0  0  0  0  0  0  0  0
  -31.8211  -17.0336   22.7522 O   0  0  0  0  0  0  0  0  0  0  0  0
  -22.7812  -11.0665   21.0422 O   0  0  0  0  0  0  0  0  0  0  0  0
  -27.2861  -26.0219   20.0771 O   0  0  0  0  0  0  0  0  0  1  0  0
  -22.1546   -6.3552   23.8378 F   0  0  0  0  0  0  0  0  0  0  0  0
  -21.5362  -11.0367   23.5103 F   0  0  0  0  0  0  0  0  0  0  0  0
  1  2  1  0  0  0  0
  1  5  2  0  0  0  0
  2  6  2  0  0  0  0
  3  8  2  0  0  0  0
  3 15  1  0  0  0  0
  4  9  1  0  0  0  0
  4 15  2  0  0  0  0
  5 17  1  0  0  0  0
  6 19  1  0  0  0  0
  7 10  2  0  0  0  0
  7 18  1  0  0  0  0
  8 21  1  0  0  0  0
  9 21  2  0  0  0  0
 10 22  1  0  0  0  0
 11 12  2  0  0  0  0
 11 23  1  0  0  0  0
 12 24  1  0  0  0  0
 13 20  1  0  0  0  0
 13 22  2  0  0  0  0
 14 24  2  0  0  0  0
 14 25  1  0  0  0  0
 15 26  1  0  0  0  0
 16 26  1  0  0  0  0
 16 27  2  0  0  0  0
 16 28  1  0  0  0  0
 17 19  2  0  0  0  0
 17 33  1  0  0  0  0
 18 20  2  0  0  0  0
 18 34  1  0  0  0  0
 19 50  1  0  0  0  0
 20 35  1  0  0  0  0
 21 87  1  0  0  0  0
 22 88  1  0  0  0  0
 23 25  2  0  0  0  0
 23 87  1  0  0  0  0
 24 89  1  0  0  0  0
 25 90  1  0  0  0  0
 26 71  2  0  0  0  0
 27 72  1  0  0  0  0
 27 76  1  0  0  0  0
 28 77  1  0  0  0  0
 28 82  2  0  0  0  0
 29 51  1  0  0  0  0
 29 78  1  0  0  0  0
 29 83  2  0  0  0  0
 30 67  1  0  0  0  0
 30 73  1  0  0  0  0
 30 84  2  0  0  0  0
 31 68  1  0  0  0  0
 31 79  1  0  0  0  0
 31 85  2  0  0  0  0
 32 74  1  0  0  0  0
 32 75  1  0  0  0  0
 32 86  2  0  0  0  0
 33 36  1  0  0  0  0
 34 51  1  0  0  0  0
 35 73  1  0  0  0  0
 36 38  1  0  0  0  0
 37 41  1  0  0  0  0
 37 46  1  0  0  0  0
 38 50  1  0  0  0  0
 39 42  1  0  0  0  0
 39 53  1  0  0  0  0
 40 43  1  0  0  0  0
 40 53  1  0  0  0  0
 41 55  1  0  0  0  0
 42 57  1  0  0  0  0
 43 57  1  0  0  0  0
 44 47  1  0  0  0  0
 44 58  1  0  0  0  0
 45 56  1  0  0  0  0
 45 58  1  0  0  0  0
 46 74  1  0  0  0  0
 47 75  1  0  0  0  0
 48 52  1  0  0  0  0
 48 75  1  0  0  0  0
 49 55  1  0  0  0  0
 49 74  1  0  0  0  0
 50 78  1  0  0  0  0
 51 73  1  0  0  0  0
 52 54  1  0  0  0  0
 52 58  1  0  0  0  0
 53 69  1  0  0  0  0
 54 56  1  0  0  0  0
 54 59  1  0  0  0  0
 55 72  1  0  0  0  0
 56 80  1  0  0  0  0
 57 88  1  0  0  0  0
 58 69  1  0  0  0  0
 60 68  1  0  0  0  0
 61 69  1  0  0  0  0
 62 70  1  0  0  0  0
 63 70  1  0  0  0  0
 64 70  1  0  0  0  0
 65 80  1  0  0  0  0
 66 81  1  0  0  0  0
 67 70  1  0  0  0  0
 67 79  1  0  0  0  0
 68 81  1  0  0  0  0
 71 72  1  0  0  0  0
M  CHG  2  80   1  81   1
M  ISO  4  32 100  57 101  75 100  88 101
M  END
> <Batch ID>
0172

> <Smiles>
CNC(C)C(=O)NC(C(=O)N1Cc2cc([101O:1][101CH:1]3CCC(C(C)C45CC[100N:0]([100C:0](=O)N6CCCC(n7nc(-c8ccc(Oc9ccc(F)cc9F)cc8)c(C(N)=O)c7N)C6)CC4C(C)C(NC)C5)CC3)ccc2CC1C(=O)NC1CCCc2ccccc21)C(C)(C)C

> <Shape>
0.287

> <Color>
0.065

> <Negative vol penalty>
0.000

$$$$

  -OEChem-04052322403D

 85 94  0     1  0  0  0  0  0999 V2000
  -25.9744  -31.7441   24.0206 C   0  0  0  0  0  0  0  0  0  0  0  0
  -26.3953  -30.4311   24.2056 C   0  0  0  0  0  0  0  0  0  0  0  0
  -23.0008   -9.9886   19.9107 C   0  0  0  0  0  0  0  0  0  0  0  0
  -23.8479   -9.8266   22.1675 C   0  0  0  0  0  0  0  0  0  0  0  0
  -25.2468  -32.0878   22.8820 C   0  0  0  0  0  0  0  0  0  0  0  0
  -26.0879  -29.4607   23.2525 C   0  0  0  0  0  0  0  0  0  0  0  0
  -30.0431  -26.4951   22.1540 C   0  0  0  0  0  0  0  0  0  0  0  0
  -22.2331   -8.8424   20.1165 C   0  0  0  0  0  0  0  0  0  0  0  0
  -23.0801   -8.6804   22.3734 C   0  0  0  0  0  0  0  0  0  0  0  0
  -30.3573  -25.4889   23.0665 C   0  0  0  0  0  0  0  0  0  0  0  0
  -19.8551   -7.9335   23.0531 C   0  0  0  0  0  0  0  0  0  0  0  0
  -19.1427   -7.8386   24.2485 C   0  0  0  0  0  0  0  0  0  0  0  0
  -29.2322  -23.8773   21.6679 C   0  0  0  0  0  0  0  0  0  0  0  0
  -30.0092  -17.4515   22.9144 C   0  0  0  0  0  0  0  0  0  0  0  0
  -20.3532   -5.8245   24.8100 C   0  0  0  0  0  0  0  0  0  0  0  0
  -23.8083  -10.4807   20.9362 C   0  0  0  0  0  0  0  0  0  0  0  0
  -24.2203  -12.9980   20.9632 C   0  0  0  0  0  0  0  0  0  0  0  0
  -24.9387  -31.1232   21.9098 C   0  0  0  0  0  0  0  0  0  0  0  0
  -29.3104  -26.2013   20.9950 C   0  0  0  0  0  0  0  0  0  0  0  0
  -25.3544  -29.7916   22.1005 C   0  0  0  0  0  0  0  0  0  0  0  0
  -28.9121  -24.8811   20.7410 C   0  0  0  0  0  0  0  0  0  0  0  0
  -30.5119  -18.6592   23.4245 C   0  0  0  0  0  0  0  0  0  0  0  0
  -31.7988  -19.0563   23.0187 C   0  0  0  0  0  0  0  0  0  0  0  0
  -22.2727   -8.1883   21.3479 C   0  0  0  0  0  0  0  0  0  0  0  0
  -29.9494  -24.1803   22.8250 C   0  0  0  0  0  0  0  0  0  0  0  0
  -20.8165   -6.9739   22.7360 C   0  0  0  0  0  0  0  0  0  0  0  0
  -19.3918   -6.7842   25.1270 C   0  0  0  0  0  0  0  0  0  0  0  0
  -21.0656   -5.9194   23.6145 C   0  0  0  0  0  0  0  0  0  0  0  0
  -24.6021  -11.6643   20.7239 C   0  0  0  0  0  0  0  0  0  0  0  0
  -32.4763  -18.2465   22.1047 C   0  0  0  0  0  0  0  0  0  0  0  0
  -30.7757  -16.7212   22.0183 C   0  0  0  0  0  0  0  0  0  0  0  0
  -25.3196  -13.7394   20.6047 C   0  0  0  0  0  0  0  0  0  0  0  0
  -22.9827  -13.5201   21.4647 C   0  0  0  0  0  0  0  0  0  0  0  0
  -26.4944  -27.1073   19.8316 C   0  0  0  0  0  0  0  0  0  0  0  0
  -27.4531  -25.4019   17.2441 C   0  0  0  0  0  0  0  0  0  0  0  0
  -29.4153  -22.9123   15.9798 C   0  0  0  0  0  0  0  0  0  0  0  0
  -30.8171  -14.6221   20.6259 C   0  0  0  0  0  0  0  0  0  0  0  0
  -24.1092  -31.5324   20.7185 C   0  0  0  0  0  0  0  0  0  0  0  0
  -29.0025  -27.2932   20.0074 C   0  0  0  0  0  0  0  0  0  0  0  0
  -32.4536  -20.3283   23.4782 C   0  0  0  0  0  0  0  0  0  0  0  0
  -28.1410  -24.5099   19.5016 C   0  0  0  0  0  0  0  0  0  0  0  0
  -24.1473  -30.5229   19.5740 C   0  0  0  0  0  0  0  0  0  0  0  0
  -31.7805  -20.9538   24.6933 C   0  0  0  0  0  0  0  0  0  0  0  0
  -29.5414  -12.3978   18.1557 C   0  0  0  0  0  0  0  0  0  0  0  0
  -23.9433  -29.1072   20.1040 C   0  0  0  0  0  0  0  0  0  0  0  0
  -28.1113  -12.1184   18.6233 C   0  0  0  0  0  0  0  0  0  0  0  0
  -30.5083  -12.5234   19.3318 C   0  0  0  0  0  0  0  0  0  0  0  0
  -28.6781  -13.2087   20.8317 C   0  0  0  0  0  0  0  0  0  0  0  0
  -25.0619  -28.7158   21.0771 C   0  0  1  0  0  0  0  0  0  0  0  0
  -27.8079  -26.9720   19.1146 C   0  0  1  0  0  0  0  0  0  0  0  0
  -30.2503  -20.9497   24.5632 C   0  0  2  0  0  0  0  0  0  0  0  0
  -27.6561  -13.1385   19.6853 C   0  0  2  0  0  0  0  0  0  0  0  0
  -29.7040  -19.4821   24.4392 C   0  0  0  0  0  0  0  0  0  0  0  0
  -33.8316  -18.6284   21.5997 C   0  0  0  0  0  0  0  0  0  0  0  0
  -29.8297  -18.7730   25.8123 C   0  0  0  0  0  0  0  0  0  0  0  0
  -28.1969  -19.5220   24.0860 C   0  0  0  0  0  0  0  0  0  0  0  0
  -29.9529  -21.7246   13.8356 C   0  0  0  0  0  0  0  0  0  0  0  0
  -24.8242  -23.8654   17.4391 C   0  0  0  0  0  0  0  0  0  0  0  0
  -25.8111  -22.1239   15.9353 C   0  0  0  0  0  0  0  0  0  0  0  0
  -25.5152  -24.4593   15.1101 C   0  0  0  0  0  0  0  0  0  0  0  0
  -32.2527  -23.7460   16.0940 C   0  0  0  0  0  0  0  0  0  0  0  0
  -29.8138  -21.8813   23.4184 C   0  0  0  0  0  0  0  0  0  1  0  0
  -27.3250  -23.9635   16.8044 C   0  0  1  0  0  0  0  0  0  0  0  0
  -30.3278  -22.8664   14.7675 C   0  0  2  0  0  0  0  0  0  0  0  0
  -25.8817  -23.6100   16.3466 C   0  0  0  0  0  0  0  0  0  0  0  0
  -25.8465  -11.5613   20.2500 N   0  0  0  0  0  0  0  0  0  0  0  0
  -31.9987  -17.0917   21.5951 N   0  0  0  0  0  0  0  0  0  0  0  0
  -26.2563  -12.8397   20.1884 N   0  0  0  0  0  0  0  0  0  0  0  0
  -27.8588  -25.6139   18.5694 N   0  0  0  0  0  0  0  0  0  0  0  0
  -30.0143  -13.5102   20.2946 N   0  0  0  0  0  0  0  0  0  0  0  0
  -25.5666  -15.0666   20.6081 N   0  0  0  0  0  0  0  0  0  0  0  0
  -21.9579  -12.6190   21.7839 N   0  0  0  0  0  0  0  0  0  0  0  0
  -30.2294  -15.5096   21.5268 N   0  0  0  0  0  0  0  0  0  0  0  0
  -26.2642  -28.3669   20.3511 N   0  0  0  0  0  0  0  0  0  0  0  0
  -28.3439  -23.7571   15.7809 N   0  0  0  0  0  0  0  0  0  0  0  0
  -31.7442  -22.6807   15.1920 N   0  3  0  0  0  0  0  0  0  0  0  0
  -22.7856  -14.7504   21.6096 O   0  0  0  0  0  0  0  0  0  0  0  0
  -25.7446  -26.1409   19.9066 O   0  0  0  0  0  0  0  0  0  0  0  0
  -27.2093  -26.3043   16.4392 O   0  0  0  0  0  0  0  0  0  0  0  0
  -29.6294  -22.2609   16.9998 O   0  0  0  0  0  0  0  0  0  0  0  0
  -31.9320  -14.7899   20.1250 O   0  0  0  0  0  0  0  0  0  0  0  0
  -21.5235   -7.0700   21.5492 O   0  0  0  0  0  0  0  0  0  0  0  0
  -30.2574  -23.1862   23.7237 O   0  0  0  0  0  0  0  0  0  1  0  0
  -18.7087   -6.6940   26.2757 F   0  0  0  0  0  0  0  0  0  0  0  0
  -21.9888   -4.9951   23.3159 F   0  0  0  0  0  0  0  0  0  0  0  0
  1  2  1  0  0  0  0
  1  5  2  0  0  0  0
  2  6  2  0  0  0  0
  3  8  2  0  0  0  0
  3 16  1  0  0  0  0
  4  9  1  0  0  0  0
  4 16  2  0  0  0  0
  5 18  1  0  0  0  0
  6 20  1  0  0  0  0
  7 10  2  0  0  0  0
  7 19  1  0  0  0  0
  8 24  1  0  0  0  0
  9 24  2  0  0  0  0
 10 25  1  0  0  0  0
 11 12  2  0  0  0  0
 11 26  1  0  0  0  0
 12 27  1  0  0  0  0
 13 21  1  0  0  0  0
 13 25  2  0  0  0  0
 14 22  2  0  0  0  0
 14 31  1  0  0  0  0
 15 27  2  0  0  0  0
 15 28  1  0  0  0  0
 16 29  1  0  0  0  0
 17 29  1  0  0  0  0
 17 32  2  0  0  0  0
 17 33  1  0  0  0  0
 18 20  2  0  0  0  0
 18 38  1  0  0  0  0
 19 21  2  0  0  0  0
 19 39  1  0  0  0  0
 20 49  1  0  0  0  0
 21 41  1  0  0  0  0
 22 23  1  0  0  0  0
 22 53  1  0  0  0  0
 23 30  2  0  0  0  0
 23 40  1  0  0  0  0
 24 82  1  0  0  0  0
 25 83  1  0  0  0  0
 26 28  2  0  0  0  0
 26 82  1  0  0  0  0
 27 84  1  0  0  0  0
 28 85  1  0  0  0  0
 29 66  2  0  0  0  0
 30 54  1  0  0  0  0
 30 67  1  0  0  0  0
 31 67  2  0  0  0  0
 31 73  1  0  0  0  0
 32 68  1  0  0  0  0
 32 71  1  0  0  0  0
 33 72  1  0  0  0  0
 33 77  2  0  0  0  0
 34 50  1  0  0  0  0
 34 74  1  0  0  0  0
 34 78  2  0  0  0  0
 35 63  1  0  0  0  0
 35 69  1  0  0  0  0
 35 79  2  0  0  0  0
 36 64  1  0  0  0  0
 36 75  1  0  0  0  0
 36 80  2  0  0  0  0
 37 70  1  0  0  0  0
 37 73  1  0  0  0  0
 37 81  2  0  0  0  0
 38 42  1  0  0  0  0
 39 50  1  0  0  0  0
 40 43  1  0  0  0  0
 41 69  1  0  0  0  0
 42 45  1  0  0  0  0
 43 51  1  0  0  0  0
 44 46  1  0  0  0  0
 44 47  1  0  0  0  0
 45 49  1  0  0  0  0
 46 52  1  0  0  0  0
 47 70  1  0  0  0  0
 48 52  1  0  0  0  0
 48 70  1  0  0  0  0
 49 74  1  0  0  0  0
 50 69  1  0  0  0  0
 51 53  1  0  0  0  0
 51 62  1  0  0  0  0
 52 68  1  0  0  0  0
 53 55  1  0  0  0  0
 53 56  1  0  0  0  0
 57 64  1  0  0  0  0
 58 65  1  0  0  0  0
 59 65  1  0  0  0  0
 60 65  1  0  0  0  0
 61 76  1  0  0  0  0
 62 83  1  0  0  0  0
 63 65  1  0  0  0  0
 63 75  1  0  0  0  0
 64 76  1  0  0  0  0
 66 68  1  0  0  0  0
M  CHG  1  76   1
M  ISO  4  37 100  62 101  73 100  83 101
M  END
> <Batch ID>
0172

> <Smiles>
CNC(C)C(=O)NC(C(=O)N1Cc2cc([101O:1][101CH2:1]C3CCc4c(cc([100NH:0][100C:0](=O)N5CCCC(n6nc(-c7ccc(Oc8ccc(F)cc8F)cc7)c(C(N)=O)c6N)C5)nc4C)C3(C)C)ccc2CC1C(=O)NC1CCCc2ccccc21)C(C)(C)C

> <Shape>
0.298

> <Color>
0.208

> <Negative vol penalty>
0.000

$$$$

  -OEChem-04052322403D

 83 92  0     1  0  0  0  0  0999 V2000
  -28.3911  -37.8945   21.3584 C   0  0  0  0  0  0  0  0  0  0  0  0
  -28.5044  -36.8250   20.4760 C   0  0  0  0  0  0  0  0  0  0  0  0
  -24.6283   -8.8728   21.9100 C   0  0  0  0  0  0  0  0  0  0  0  0
  -24.5429   -8.1074   19.6201 C   0  0  0  0  0  0  0  0  0  0  0  0
  -28.1396  -37.6585   22.7093 C   0  0  0  0  0  0  0  0  0  0  0  0
  -28.3675  -35.5187   20.9442 C   0  0  0  0  0  0  0  0  0  0  0  0
  -25.9832  -29.0785   18.9058 C   0  0  0  0  0  0  0  0  0  0  0  0
  -23.4391   -8.1960   22.1807 C   0  0  0  0  0  0  0  0  0  0  0  0
  -23.3536   -7.4305   19.8907 C   0  0  0  0  0  0  0  0  0  0  0  0
  -26.3991  -27.7498   18.8320 C   0  0  0  0  0  0  0  0  0  0  0  0
  -22.4686   -5.0180   22.8064 C   0  0  0  0  0  0  0  0  0  0  0  0
  -22.4029   -4.2667   23.9798 C   0  0  0  0  0  0  0  0  0  0  0  0
  -26.9311  -21.2893   19.8788 C   0  0  0  0  0  0  0  0  0  0  0  0
  -25.8873  -27.4658   21.1722 C   0  0  0  0  0  0  0  0  0  0  0  0
  -28.4680  -23.1414   21.2897 C   0  0  0  0  0  0  0  0  0  0  0  0
  -20.5508   -5.6183   24.7415 C   0  0  0  0  0  0  0  0  0  0  0  0
  -25.1802   -8.8285   20.6297 C   0  0  0  0  0  0  0  0  0  0  0  0
  -27.7183   -9.0264   20.4679 C   0  0  0  0  0  0  0  0  0  0  0  0
  -27.9900  -36.3491   23.1927 C   0  0  0  0  0  0  0  0  0  0  0  0
  -25.5257  -29.6147   20.1181 C   0  0  0  0  0  0  0  0  0  0  0  0
  -28.1152  -35.2649   22.3031 C   0  0  0  0  0  0  0  0  0  0  0  0
  -28.1976  -20.9348   20.3434 C   0  0  0  0  0  0  0  0  0  0  0  0
  -25.4637  -28.8009   21.2582 C   0  0  0  0  0  0  0  0  0  0  0  0
  -26.4330  -22.5698   20.1196 C   0  0  0  0  0  0  0  0  0  0  0  0
  -28.9661  -21.8608   21.0489 C   0  0  0  0  0  0  0  0  0  0  0  0
  -27.2015  -23.4958   20.8250 C   0  0  0  0  0  0  0  0  0  0  0  0
  -22.8018   -7.4748   21.1710 C   0  0  0  0  0  0  0  0  0  0  0  0
  -26.3540  -26.9441   19.9659 C   0  0  0  0  0  0  0  0  0  0  0  0
  -21.5754   -6.0695   22.6006 C   0  0  0  0  0  0  0  0  0  0  0  0
  -21.4440   -4.5668   24.9473 C   0  0  0  0  0  0  0  0  0  0  0  0
  -20.6166   -6.3697   23.5682 C   0  0  0  0  0  0  0  0  0  0  0  0
  -26.4083   -9.5280   20.3494 C   0  0  0  0  0  0  0  0  0  0  0  0
  -28.5224  -10.0729   20.0873 C   0  0  0  0  0  0  0  0  0  0  0  0
  -28.1682   -7.7305   20.8848 C   0  0  0  0  0  0  0  0  0  0  0  0
  -26.4852  -31.9595   22.0377 C   0  0  0  0  0  0  0  0  0  0  0  0
  -23.7343  -31.2698   23.6123 C   0  0  0  0  0  0  0  0  0  0  0  0
  -21.3010  -28.9871   24.3298 C   0  0  0  0  0  0  0  0  0  0  0  0
  -27.5153  -15.9435   20.2320 C   0  0  0  0  0  0  0  0  0  0  0  0
  -27.7660  -36.1416   24.6696 C   0  0  0  0  0  0  0  0  0  0  0  0
  -25.0554  -31.0423   20.1748 C   0  0  0  0  0  0  0  0  0  0  0  0
  -24.9616  -29.3228   22.5788 C   0  0  0  0  0  0  0  0  0  0  0  0
  -27.2617  -34.7438   25.0188 C   0  0  0  0  0  0  0  0  0  0  0  0
  -28.5764  -13.9506   17.3139 C   0  0  0  0  0  0  0  0  0  0  0  0
  -28.0799  -33.6833   24.2889 C   0  0  0  0  0  0  0  0  0  0  0  0
  -28.2026  -12.5428   17.7686 C   0  0  0  0  0  0  0  0  0  0  0  0
  -29.1748  -18.7131   21.2276 C   0  0  0  0  0  0  0  0  0  0  0  0
  -27.6040  -15.0023   17.8463 C   0  0  0  0  0  0  0  0  0  0  0  0
  -27.0630  -13.5525   19.7827 C   0  0  0  0  0  0  0  0  0  0  0  0
  -28.7115  -19.5594   20.0735 C   0  0  1  0  0  0  0  0  0  0  0  0
  -27.9483  -33.8346   22.7686 C   0  0  1  0  0  0  0  0  0  0  0  0
  -25.0920  -31.6280   21.5830 C   0  0  1  0  0  0  0  0  0  0  0  0
  -28.0575  -12.4870   19.2970 C   0  0  1  0  0  0  0  0  0  0  0  0
  -27.8933  -18.3731   20.5258 C   0  0  1  0  0  0  0  0  0  0  0  0
  -25.0742  -22.9267   19.6129 C   0  0  0  0  0  0  0  0  0  0  0  0
  -30.3248  -21.5054   21.5577 C   0  0  0  0  0  0  0  0  0  0  0  0
  -19.2034  -28.7015   25.6774 C   0  0  0  0  0  0  0  0  0  0  0  0
  -25.4061  -30.9765   26.1478 C   0  0  0  0  0  0  0  0  0  0  0  0
  -23.4697  -29.7922   27.2041 C   0  0  0  0  0  0  0  0  0  0  0  0
  -23.2276  -32.1627   26.4661 C   0  0  0  0  0  0  0  0  0  0  0  0
  -19.6735  -28.4940   21.9075 C   0  0  0  0  0  0  0  0  0  0  0  0
  -26.6869  -24.8787   21.0970 C   0  0  0  0  0  0  0  0  0  1  0  0
  -23.3484  -30.3299   24.7288 C   0  0  1  0  0  0  0  0  0  0  0  0
  -19.7868  -29.0951   24.3292 C   0  0  2  0  0  0  0  0  0  0  0  0
  -23.8743  -30.8057   26.1125 C   0  0  0  0  0  0  0  0  0  0  0  0
  -26.3774  -10.7946   19.9267 N   0  0  0  0  0  0  0  0  0  0  0  0
  -27.6780  -11.0978   19.7763 N   0  0  0  0  0  0  0  0  0  0  0  0
  -24.5189  -30.7269   22.5850 N   0  0  0  0  0  0  0  0  0  0  0  0
  -27.4303  -14.8906   19.3032 N   0  0  0  0  0  0  0  0  0  0  0  0
  -29.8622  -10.2072   19.9916 N   0  0  0  0  0  0  0  0  0  0  0  0
  -27.2089   -6.7730   21.2414 N   0  0  0  0  0  0  0  0  0  0  0  0
  -26.6827  -33.2988   22.3150 N   0  0  0  0  0  0  0  0  0  0  0  0
  -21.8984  -30.1856   24.6581 N   0  0  0  0  0  0  0  0  0  0  0  0
  -27.7836  -17.1999   19.7006 N   0  0  0  0  0  0  0  0  0  0  0  0
  -19.2042  -28.2035   23.2868 N   0  3  0  0  0  0  0  0  0  0  0  0
  -29.3855   -7.4357   20.9551 O   0  0  0  0  0  0  0  0  0  0  0  0
  -27.3188  -31.0662   22.1315 O   0  0  0  0  0  0  0  0  0  0  0  0
  -23.3477  -32.4407   23.6467 O   0  0  0  0  0  0  0  0  0  0  0  0
  -21.8944  -27.9429   24.0689 O   0  0  0  0  0  0  0  0  0  0  0  0
  -27.3582  -15.7793   21.4469 O   0  0  0  0  0  0  0  0  0  0  0  0
  -21.6414   -6.8140   21.4348 O   0  0  0  0  0  0  0  0  0  0  0  0
  -26.7600  -25.6471   19.8968 O   0  0  0  0  0  0  0  0  0  1  0  0
  -21.3800   -3.8443   26.0734 F   0  0  0  0  0  0  0  0  0  0  0  0
  -19.7551   -7.3779   23.3755 F   0  0  0  0  0  0  0  0  0  0  0  0
  1  2  1  0  0  0  0
  1  5  2  0  0  0  0
  2  6  2  0  0  0  0
  3  8  2  0  0  0  0
  3 17  1  0  0  0  0
  4  9  1  0  0  0  0
  4 17  2  0  0  0  0
  5 19  1  0  0  0  0
  6 21  1  0  0  0  0
  7 10  2  0  0  0  0
  7 20  1  0  0  0  0
  8 27  1  0  0  0  0
  9 27  2  0  0  0  0
 10 28  1  0  0  0  0
 11 12  2  0  0  0  0
 11 29  1  0  0  0  0
 12 30  1  0  0  0  0
 13 22  2  0  0  0  0
 13 24  1  0  0  0  0
 14 23  1  0  0  0  0
 14 28  2  0  0  0  0
 15 25  2  0  0  0  0
 15 26  1  0  0  0  0
 16 30  2  0  0  0  0
 16 31  1  0  0  0  0
 17 32  1  0  0  0  0
 18 32  1  0  0  0  0
 18 33  2  0  0  0  0
 18 34  1  0  0  0  0
 19 21  2  0  0  0  0
 19 39  1  0  0  0  0
 20 23  2  0  0  0  0
 20 40  1  0  0  0  0
 21 50  1  0  0  0  0
 22 25  1  0  0  0  0
 22 49  1  0  0  0  0
 23 41  1  0  0  0  0
 24 26  2  0  0  0  0
 24 54  1  0  0  0  0
 25 55  1  0  0  0  0
 26 61  1  0  0  0  0
 27 80  1  0  0  0  0
 28 81  1  0  0  0  0
 29 31  2  0  0  0  0
 29 80  1  0  0  0  0
 30 82  1  0  0  0  0
 31 83  1  0  0  0  0
 32 65  2  0  0  0  0
 33 66  1  0  0  0  0
 33 69  1  0  0  0  0
 34 70  1  0  0  0  0
 34 75  2  0  0  0  0
 35 51  1  0  0  0  0
 35 71  1  0  0  0  0
 35 76  2  0  0  0  0
 36 62  1  0  0  0  0
 36 67  1  0  0  0  0
 36 77  2  0  0  0  0
 37 63  1  0  0  0  0
 37 72  1  0  0  0  0
 37 78  2  0  0  0  0
 38 68  1  0  0  0  0
 38 73  1  0  0  0  0
 38 79  2  0  0  0  0
 39 42  1  0  0  0  0
 40 51  1  0  0  0  0
 41 67  1  0  0  0  0
 42 44  1  0  0  0  0
 43 45  1  0  0  0  0
 43 47  1  0  0  0  0
 44 50  1  0  0  0  0
 45 52  1  0  0  0  0
 46 49  1  0  0  0  0
 46 53  1  0  0  0  0
 47 68  1  0  0  0  0
 48 52  1  0  0  0  0
 48 68  1  0  0  0  0
 49 53  1  0  0  0  0
 50 71  1  0  0  0  0
 51 67  1  0  0  0  0
 52 66  1  0  0  0  0
 53 73  1  0  0  0  0
 56 63  1  0  0  0  0
 57 64  1  0  0  0  0
 58 64  1  0  0  0  0
 59 64  1  0  0  0  0
 60 74  1  0  0  0  0
 61 81  1  0  0  0  0
 62 64  1  0  0  0  0
 62 72  1  0  0  0  0
 63 74  1  0  0  0  0
 65 66  1  0  0  0  0
M  CHG  1  74   1
M  ISO  4  38 100  61 101  73 100  81 101
M  END
> <Batch ID>
0172

> <Smiles>
CNC(C)C(=O)NC(C(=O)N1Cc2cc([101O:1][101CH2:1]c3cc(C)c(C4CC4[100NH:0][100C:0](=O)N4CCCC(n5nc(-c6ccc(Oc7ccc(F)cc7F)cc6)c(C(N)=O)c5N)C4)cc3C)ccc2CC1C(=O)NC1CCCc2ccccc21)C(C)(C)C

> <Shape>
0.279

> <Color>
0.102

> <Negative vol penalty>
0.000

$$$$

  -OEChem-04052322403D

 89 99  0     1  0  0  0  0  0999 V2000
  -32.9270  -30.1221   21.2246 C   0  0  0  0  0  0  0  0  0  0  0  0
  -32.0680  -29.0550   20.9816 C   0  0  0  0  0  0  0  0  0  0  0  0
  -22.8618  -15.4589   20.5370 C   0  0  0  0  0  0  0  0  0  0  0  0
  -22.4779  -13.7646   18.8580 C   0  0  0  0  0  0  0  0  0  0  0  0
  -32.5872  -31.0872   22.1718 C   0  0  0  0  0  0  0  0  0  0  0  0
  -30.8693  -28.9518   21.6865 C   0  0  0  0  0  0  0  0  0  0  0  0
  -26.9559  -27.7629   18.7005 C   0  0  0  0  0  0  0  0  0  0  0  0
  -21.7572  -16.1715   20.0705 C   0  0  0  0  0  0  0  0  0  0  0  0
  -21.3732  -14.4772   18.3915 C   0  0  0  0  0  0  0  0  0  0  0  0
  -26.8337  -26.4296   18.3117 C   0  0  0  0  0  0  0  0  0  0  0  0
  -18.3914  -16.0151   20.3532 C   0  0  0  0  0  0  0  0  0  0  0  0
  -17.5009  -16.5227   21.2992 C   0  0  0  0  0  0  0  0  0  0  0  0
  -25.1594  -26.0926   20.0154 C   0  0  0  0  0  0  0  0  0  0  0  0
  -29.2260  -20.0926   20.0488 C   0  0  0  0  0  0  0  0  0  0  0  0
  -27.3642  -18.7210   20.7485 C   0  0  0  0  0  0  0  0  0  0  0  0
  -17.9303  -18.7625   20.5016 C   0  0  0  0  0  0  0  0  0  0  0  0
  -23.2222  -14.2554   19.9307 C   0  0  0  0  0  0  0  0  0  0  0  0
  -24.3756  -12.5268   21.4102 C   0  0  0  0  0  0  0  0  0  0  0  0
  -31.3793  -31.0010   22.8817 C   0  0  0  0  0  0  0  0  0  0  0  0
  -26.1873  -28.2691   19.7586 C   0  0  0  0  0  0  0  0  0  0  0  0
  -30.5138  -29.9159   22.6451 C   0  0  0  0  0  0  0  0  0  0  0  0
  -25.2719  -27.4333   20.4140 C   0  0  0  0  0  0  0  0  0  0  0  0
  -26.9619  -20.8255   19.6323 C   0  0  0  0  0  0  0  0  0  0  0  0
  -28.3372  -21.0384   19.5379 C   0  0  0  0  0  0  0  0  0  0  0  0
  -26.4754  -19.6668   20.2376 C   0  0  0  0  0  0  0  0  0  0  0  0
  -28.7395  -18.9338   20.6541 C   0  0  0  0  0  0  0  0  0  0  0  0
  -21.0129  -15.6807   18.9978 C   0  0  0  0  0  0  0  0  0  0  0  0
  -25.9374  -25.5935   18.9710 C   0  0  0  0  0  0  0  0  0  0  0  0
  -19.0516  -16.8812   19.4815 C   0  0  0  0  0  0  0  0  0  0  0  0
  -17.2703  -17.8964   21.3733 C   0  0  0  0  0  0  0  0  0  0  0  0
  -18.8210  -18.2549   19.5557 C   0  0  0  0  0  0  0  0  0  0  0  0
  -24.3635  -13.5191   20.4118 C   0  0  0  0  0  0  0  0  0  0  0  0
  -25.6914  -12.1423   21.4961 C   0  0  0  0  0  0  0  0  0  0  0  0
  -23.2942  -11.9996   22.1902 C   0  0  0  0  0  0  0  0  0  0  0  0
  -26.8400  -29.5226   22.6058 C   0  0  0  0  0  0  0  0  0  0  0  0
  -23.6408  -30.0548   22.6713 C   0  0  0  0  0  0  0  0  0  0  0  0
  -20.5365  -29.1914   21.5468 C   0  0  0  0  0  0  0  0  0  0  0  0
  -30.8240  -14.7560   20.3141 C   0  0  0  0  0  0  0  0  0  0  0  0
  -31.0772  -32.0427   23.9297 C   0  0  0  0  0  0  0  0  0  0  0  0
  -26.3116  -29.7165   20.1483 C   0  0  0  0  0  0  0  0  0  0  0  0
  -24.4090  -27.9332   21.5427 C   0  0  0  0  0  0  0  0  0  0  0  0
  -29.6142  -32.0623   24.3651 C   0  0  0  0  0  0  0  0  0  0  0  0
  -29.6832  -11.8104   18.8921 C   0  0  0  0  0  0  0  0  0  0  0  0
  -29.1192  -30.6454   24.6372 C   0  0  0  0  0  0  0  0  0  0  0  0
  -28.1884  -11.8056   19.2103 C   0  0  0  0  0  0  0  0  0  0  0  0
  -24.9487  -22.4054   19.9886 C   0  0  0  0  0  0  0  0  0  0  0  0
  -30.1529  -13.2070   18.5024 C   0  0  0  0  0  0  0  0  0  0  0  0
  -28.3767  -14.2562   19.8679 C   0  0  0  0  0  0  0  0  0  0  0  0
  -30.5537  -18.4224   22.2263 C   0  0  0  0  0  0  0  0  0  0  0  0
  -29.2496  -16.5647   21.1467 C   0  0  0  0  0  0  0  0  0  0  0  0
  -26.0088  -21.8394   19.0837 C   0  0  1  0  0  0  0  0  0  0  0  0
  -29.1930  -29.7826   23.3716 C   0  0  1  0  0  0  0  0  0  0  0  0
  -25.8514  -29.9925   21.5764 C   0  0  1  0  0  0  0  0  0  0  0  0
  -27.8472  -12.8655   20.2724 C   0  0  1  0  0  0  0  0  0  0  0  0
  -31.7579  -17.4850   22.2844 C   0  0  2  0  0  0  0  0  0  0  0  0
  -26.1035  -23.2625   19.5688 C   0  0  1  0  0  0  0  0  0  1  0  0
  -31.3542  -16.0108   22.3950 C   0  0  1  0  0  0  0  0  0  0  0  0
  -28.8858  -22.2695   18.8935 C   0  0  0  0  0  0  0  0  0  0  0  0
  -25.0075  -19.4137   20.3534 C   0  0  0  0  0  0  0  0  0  0  0  0
  -30.7276  -15.6006   23.7327 C   0  0  0  0  0  0  0  0  0  0  0  0
  -18.1116  -29.7816   21.8094 C   0  0  0  0  0  0  0  0  0  0  0  0
  -23.5809  -28.6044   25.3551 C   0  0  0  0  0  0  0  0  0  0  0  0
  -21.0994  -28.3876   25.1036 C   0  0  0  0  0  0  0  0  0  0  0  0
  -22.1444  -30.6484   25.2417 C   0  0  0  0  0  0  0  0  0  0  0  0
  -20.2872  -29.9291   18.6916 C   0  0  0  0  0  0  0  0  0  0  0  0
  -22.4365  -29.2742   23.1397 C   0  0  1  0  0  0  0  0  0  0  0  0
  -19.3868  -30.0306   21.0192 C   0  0  2  0  0  0  0  0  0  0  0  0
  -22.3328  -29.2184   24.6901 C   0  0  0  0  0  0  0  0  0  0  0  0
  -25.5754  -13.7508   19.9002 N   0  0  0  0  0  0  0  0  0  0  0  0
  -26.3613  -12.8985   20.5799 N   0  0  0  0  0  0  0  0  0  0  0  0
  -29.6331  -17.9831   21.1680 N   0  0  1  0  0  0  0  0  0  0  0  0
  -24.5715  -29.3543   21.8910 N   0  0  0  0  0  0  0  0  0  0  0  0
  -29.8072  -14.1873   19.5316 N   0  0  0  0  0  0  0  0  0  0  0  0
  -30.4325  -15.6931   21.2872 N   0  0  0  0  0  0  0  0  0  0  0  0
  -26.3291  -11.2345   22.2654 N   0  0  0  0  0  0  0  0  0  0  0  0
  -22.0055  -12.5065   21.9743 N   0  0  0  0  0  0  0  0  0  0  0  0
  -28.0929  -30.0925   22.4838 N   0  0  0  0  0  0  0  0  0  0  0  0
  -21.2801  -29.8759   22.4848 N   0  0  0  0  0  0  0  0  0  0  0  0
  -32.6165  -17.8808   23.4330 N   0  3  0  0  0  0  0  0  0  0  0  0
  -19.1237  -29.7075   19.5883 N   0  3  0  0  0  0  0  0  0  0  0  0
  -23.4683  -11.1170   23.0644 O   0  0  0  0  0  0  0  0  0  0  0  0
  -26.4914  -28.7048   23.4492 O   0  0  0  0  0  0  0  0  0  0  0  0
  -23.7480  -31.2442   22.9802 O   0  0  0  0  0  0  0  0  0  0  0  0
  -20.7510  -28.0421   21.1678 O   0  0  0  0  0  0  0  0  0  0  0  0
  -32.0108  -14.4455   20.1521 O   0  0  0  0  0  0  0  0  0  0  0  0
  -19.9349  -16.3756   18.5424 O   0  0  0  0  0  0  0  0  0  0  0  0
  -25.8149  -24.2727   18.5885 O   0  0  0  0  0  0  0  0  0  1  0  0
  -16.4138  -18.3835   22.2807 F   0  0  0  0  0  0  0  0  0  0  0  0
  -19.4513  -19.0917   18.7201 F   0  0  0  0  0  0  0  0  0  0  0  0
  1  2  1  0  0  0  0
  1  5  2  0  0  0  0
  2  6  2  0  0  0  0
  3  8  2  0  0  0  0
  3 17  1  0  0  0  0
  4  9  1  0  0  0  0
  4 17  2  0  0  0  0
  5 19  1  0  0  0  0
  6 21  1  0  0  0  0
  7 10  2  0  0  0  0
  7 20  1  0  0  0  0
  8 27  1  0  0  0  0
  9 27  2  0  0  0  0
 10 28  1  0  0  0  0
 11 12  2  0  0  0  0
 11 29  1  0  0  0  0
 12 30  1  0  0  0  0
 13 22  1  0  0  0  0
 13 28  2  0  0  0  0
 14 24  2  0  0  0  0
 14 26  1  0  0  0  0
 15 25  1  0  0  0  0
 15 26  2  0  0  0  0
 16 30  2  0  0  0  0
 16 31  1  0  0  0  0
 17 32  1  0  0  0  0
 18 32  1  0  0  0  0
 18 33  2  0  0  0  0
 18 34  1  0  0  0  0
 19 21  2  0  0  0  0
 19 39  1  0  0  0  0
 20 22  2  0  0  0  0
 20 40  1  0  0  0  0
 21 52  1  0  0  0  0
 22 41  1  0  0  0  0
 23 24  1  0  0  0  0
 23 25  2  0  0  0  0
 23 51  1  0  0  0  0
 24 58  1  0  0  0  0
 25 59  1  0  0  0  0
 26 71  1  0  0  0  0
 27 86  1  0  0  0  0
 28 87  1  0  0  0  0
 29 31  2  0  0  0  0
 29 86  1  0  0  0  0
 30 88  1  0  0  0  0
 31 89  1  0  0  0  0
 32 69  2  0  0  0  0
 33 70  1  0  0  0  0
 33 75  1  0  0  0  0
 34 76  1  0  0  0  0
 34 81  2  0  0  0  0
 35 53  1  0  0  0  0
 35 77  1  0  0  0  0
 35 82  2  0  0  0  0
 36 66  1  0  0  0  0
 36 72  1  0  0  0  0
 36 83  2  0  0  0  0
 37 67  1  0  0  0  0
 37 78  1  0  0  0  0
 37 84  2  0  0  0  0
 38 73  1  0  0  0  0
 38 74  1  0  0  0  0
 38 85  2  0  0  0  0
 39 42  1  0  0  0  0
 40 53  1  0  0  0  0
 41 72  1  0  0  0  0
 42 44  1  0  0  0  0
 43 45  1  0  0  0  0
 43 47  1  0  0  0  0
 44 52  1  0  0  0  0
 45 54  1  0  0  0  0
 46 51  1  0  0  0  0
 46 56  1  0  0  0  0
 47 73  1  0  0  0  0
 48 54  1  0  0  0  0
 48 73  1  0  0  0  0
 49 55  1  0  0  0  0
 49 71  1  0  0  0  0
 50 71  1  0  0  0  0
 50 74  1  0  0  0  0
 51 56  1  0  0  0  0
 52 77  1  0  0  0  0
 53 72  1  0  0  0  0
 54 70  1  0  0  0  0
 55 57  1  0  0  0  0
 55 79  1  0  0  0  0
 56 87  1  0  0  0  0
 57 60  1  0  0  0  0
 57 74  1  0  0  0  0
 61 67  1  0  0  0  0
 62 68  1  0  0  0  0
 63 68  1  0  0  0  0
 64 68  1  0  0  0  0
 65 80  1  0  0  0  0
 66 68  1  0  0  0  0
 66 78  1  0  0  0  0
 67 80  1  0  0  0  0
 69 70  1  0  0  0  0
M  CHG  2  79   1  80   1
M  ISO  4  38 100  56 101  74 100  87 101
M  END
> <Batch ID>
0172

> <Smiles>
CNC(C)C(=O)NC(C(=O)N1Cc2cc([101O:1][101CH:1]3CC3c3c(C)cc(N4CC(N)C(C)[100N:0]([100C:0](=O)N5CCCC(n6nc(-c7ccc(Oc8ccc(F)cc8F)cc7)c(C(N)=O)c6N)C5)C4)cc3C)ccc2CC1C(=O)NC1CCCc2ccccc21)C(C)(C)C

> <Shape>
0.246

> <Color>
0.102

> <Negative vol penalty>
0.000

$$$$

  -OEChem-04052322403D

 85 94  0     1  0  0  0  0  0999 V2000
  -33.3249  -25.5429   18.0763 C   0  0  0  0  0  0  0  0  0  0  0  0
  -32.0430  -25.0027   18.0864 C   0  0  0  0  0  0  0  0  0  0  0  0
  -26.6863  -12.8131   21.7518 C   0  0  0  0  0  0  0  0  0  0  0  0
  -26.0990  -14.1686   19.8400 C   0  0  0  0  0  0  0  0  0  0  0  0
  -33.7097  -26.4407   19.0712 C   0  0  0  0  0  0  0  0  0  0  0  0
  -31.1453  -25.3591   19.0922 C   0  0  0  0  0  0  0  0  0  0  0  0
  -25.0798  -26.0103   18.5519 C   0  0  0  0  0  0  0  0  0  0  0  0
  -25.3987  -12.2768   21.7671 C   0  0  0  0  0  0  0  0  0  0  0  0
  -24.8114  -13.6323   19.8553 C   0  0  0  0  0  0  0  0  0  0  0  0
  -24.0148  -25.1628   18.8542 C   0  0  0  0  0  0  0  0  0  0  0  0
  -23.6588   -9.9268   20.0692 C   0  0  0  0  0  0  0  0  0  0  0  0
  -23.5331   -8.5471   20.2314 C   0  0  0  0  0  0  0  0  0  0  0  0
  -23.7591  -26.2558   20.9895 C   0  0  0  0  0  0  0  0  0  0  0  0
  -22.2495   -8.9010   22.2474 C   0  0  0  0  0  0  0  0  0  0  0  0
  -23.5138  -21.2558   21.6494 C   0  0  0  0  0  0  0  0  0  0  0  0
  -27.0364  -13.7590   20.7882 C   0  0  0  0  0  0  0  0  0  0  0  0
  -29.4855  -13.8185   20.0770 C   0  0  0  0  0  0  0  0  0  0  0  0
  -32.8131  -26.8158   20.0842 C   0  0  0  0  0  0  0  0  0  0  0  0
  -25.5001  -26.9813   19.4722 C   0  0  0  0  0  0  0  0  0  0  0  0
  -31.5189  -26.2618   20.1023 C   0  0  0  0  0  0  0  0  0  0  0  0
  -24.8280  -27.1160   20.6954 C   0  0  0  0  0  0  0  0  0  0  0  0
  -22.2584  -21.6620   21.2683 C   0  0  0  0  0  0  0  0  0  0  0  0
  -24.4613  -12.6864   20.8189 C   0  0  0  0  0  0  0  0  0  0  0  0
  -23.3562  -25.2835   20.0743 C   0  0  0  0  0  0  0  0  0  0  0  0
  -23.0799  -10.7936   20.9962 C   0  0  0  0  0  0  0  0  0  0  0  0
  -22.8285   -8.0342   21.3204 C   0  0  0  0  0  0  0  0  0  0  0  0
  -22.3753  -10.2807   22.0852 C   0  0  0  0  0  0  0  0  0  0  0  0
  -28.3661  -14.3138   20.7722 C   0  0  0  0  0  0  0  0  0  0  0  0
  -21.9263  -20.8167   20.1927 C   0  0  0  0  0  0  0  0  0  0  0  0
  -30.4971  -14.6946   20.3863 C   0  0  0  0  0  0  0  0  0  0  0  0
  -29.6007  -12.6693   19.2274 C   0  0  0  0  0  0  0  0  0  0  0  0
  -28.1905  -27.5425   21.0692 C   0  0  0  0  0  0  0  0  0  0  0  0
  -26.6291  -30.2358   21.9804 C   0  0  0  0  0  0  0  0  0  0  0  0
  -23.6539  -31.8310   22.4808 C   0  0  0  0  0  0  0  0  0  0  0  0
  -27.5886  -18.3055   23.3723 C   0  0  0  0  0  0  0  0  0  0  0  0
  -33.2899  -27.7533   21.1651 C   0  0  0  0  0  0  0  0  0  0  0  0
  -26.6334  -27.9054   19.1199 C   0  0  0  0  0  0  0  0  0  0  0  0
  -25.2273  -28.1557   21.7093 C   0  0  0  0  0  0  0  0  0  0  0  0
  -32.1563  -28.3673   21.9825 C   0  0  0  0  0  0  0  0  0  0  0  0
  -30.4396  -16.3925   24.3535 C   0  0  0  0  0  0  0  0  0  0  0  0
  -31.1520  -27.2949   22.3923 C   0  0  0  0  0  0  0  0  0  0  0  0
  -31.3686  -16.4277   23.1450 C   0  0  0  0  0  0  0  0  0  0  0  0
  -26.3886  -20.2936   20.5857 C   0  0  0  0  0  0  0  0  0  0  0  0
  -29.7030  -17.7148   24.5017 C   0  0  0  0  0  0  0  0  0  0  0  0
  -27.5015  -19.3723   21.0647 C   0  0  0  0  0  0  0  0  0  0  0  0
  -29.7487  -18.0736   22.0412 C   0  0  0  0  0  0  0  0  0  0  0  0
  -30.5085  -26.6429   21.1625 C   0  0  1  0  0  0  0  0  0  0  0  0
  -27.3074  -28.5180   20.3438 C   0  0  1  0  0  0  0  0  0  0  0  0
  -30.6387  -16.8236   21.8514 C   0  0  2  0  0  0  0  0  0  0  0  0
  -25.1335  -19.4449   20.8235 C   0  0  1  0  0  0  0  0  0  0  0  0
  -25.4482  -18.7367   22.1593 C   0  0  1  0  0  0  0  0  0  0  0  0
  -20.6852  -20.8105   19.3987 C   0  0  0  0  0  0  0  0  0  0  0  0
  -24.7937  -17.3599   22.2420 C   0  0  0  0  0  0  0  0  0  0  0  0
  -21.0918  -22.4764   23.3438 C   0  0  0  0  0  0  0  0  0  0  0  0
  -22.6967  -34.0136   23.2667 C   0  0  0  0  0  0  0  0  0  0  0  0
  -27.2271  -29.4552   24.8688 C   0  0  0  0  0  0  0  0  0  0  0  0
  -25.4820  -31.0947   25.6000 C   0  0  0  0  0  0  0  0  0  0  0  0
  -27.5002  -31.8902   24.3684 C   0  0  0  0  0  0  0  0  0  0  0  0
  -22.3610  -32.3381   19.8673 C   0  0  0  0  0  0  0  0  0  0  0  0
  -22.1102  -24.1444   21.7493 C   0  0  0  0  0  0  0  0  0  1  0  0
  -21.4512  -22.7420   21.8605 C   0  0  1  0  0  0  0  0  0  0  0  0
  -25.7138  -30.6065   23.1223 C   0  0  1  0  0  0  0  0  0  0  0  0
  -23.1667  -33.2076   22.0658 C   0  0  2  0  0  0  0  0  0  0  0  0
  -26.4742  -30.7407   24.4718 C   0  0  0  0  0  0  0  0  0  0  0  0
  -28.6403  -15.4187   21.4708 N   0  0  0  0  0  0  0  0  0  0  0  0
  -22.8929  -19.9397   19.9087 N   0  0  0  0  0  0  0  0  0  0  0  0
  -23.8447  -20.2319   20.8114 N   0  0  0  0  0  0  0  0  0  0  0  0
  -29.9437  -15.6249   21.2160 N   0  0  0  0  0  0  0  0  0  0  0  0
  -26.3453  -29.0314   21.3211 N   0  0  0  0  0  0  0  0  0  0  0  0
  -28.9690  -18.0707   23.2874 N   0  0  0  0  0  0  0  0  0  0  0  0
  -26.9162  -18.6531   22.1980 N   0  0  0  0  0  0  0  0  0  0  0  0
  -31.7970  -14.7522   20.0269 N   0  0  0  0  0  0  0  0  0  0  0  0
  -28.4635  -11.8777   19.0164 N   0  0  0  0  0  0  0  0  0  0  0  0
  -29.4917  -27.5090   20.6052 N   0  0  0  0  0  0  0  0  0  0  0  0
  -25.0138  -31.8175   22.7078 N   0  0  0  0  0  0  0  0  0  0  0  0
  -22.0324  -33.0883   21.1067 N   0  3  0  0  0  0  0  0  0  0  0  0
  -30.6841  -12.3445   18.6849 O   0  0  0  0  0  0  0  0  0  0  0  0
  -27.7263  -26.8712   21.9832 O   0  0  0  0  0  0  0  0  0  0  0  0
  -27.5571  -30.9908   21.6798 O   0  0  0  0  0  0  0  0  0  0  0  0
  -22.9025  -30.8653   22.5959 O   0  0  0  0  0  0  0  0  0  0  0  0
  -26.9854  -18.2171   24.4499 O   0  0  0  0  0  0  0  0  0  0  0  0
  -23.2049  -12.1631   20.8334 O   0  0  0  0  0  0  0  0  0  0  0  0
  -22.3099  -24.4517   20.3741 O   0  0  0  0  0  0  0  0  0  1  0  0
  -22.7065   -6.7093   21.4752 F   0  0  0  0  0  0  0  0  0  0  0  0
  -21.8159  -11.1085   22.9784 F   0  0  0  0  0  0  0  0  0  0  0  0
  1  2  1  0  0  0  0
  1  5  2  0  0  0  0
  2  6  2  0  0  0  0
  3  8  2  0  0  0  0
  3 16  1  0  0  0  0
  4  9  1  0  0  0  0
  4 16  2  0  0  0  0
  5 18  1  0  0  0  0
  6 20  1  0  0  0  0
  7 10  2  0  0  0  0
  7 19  1  0  0  0  0
  8 23  1  0  0  0  0
  9 23  2  0  0  0  0
 10 24  1  0  0  0  0
 11 12  2  0  0  0  0
 11 25  1  0  0  0  0
 12 26  1  0  0  0  0
 13 21  1  0  0  0  0
 13 24  2  0  0  0  0
 14 26  2  0  0  0  0
 14 27  1  0  0  0  0
 15 22  2  0  0  0  0
 15 67  1  0  0  0  0
 16 28  1  0  0  0  0
 17 28  1  0  0  0  0
 17 30  2  0  0  0  0
 17 31  1  0  0  0  0
 18 20  2  0  0  0  0
 18 36  1  0  0  0  0
 19 21  2  0  0  0  0
 19 37  1  0  0  0  0
 20 47  1  0  0  0  0
 21 38  1  0  0  0  0
 22 29  1  0  0  0  0
 22 61  1  0  0  0  0
 23 82  1  0  0  0  0
 24 83  1  0  0  0  0
 25 27  2  0  0  0  0
 25 82  1  0  0  0  0
 26 84  1  0  0  0  0
 27 85  1  0  0  0  0
 28 65  2  0  0  0  0
 29 52  1  0  0  0  0
 29 66  2  0  0  0  0
 30 68  1  0  0  0  0
 30 72  1  0  0  0  0
 31 73  1  0  0  0  0
 31 77  2  0  0  0  0
 32 48  1  0  0  0  0
 32 74  1  0  0  0  0
 32 78  2  0  0  0  0
 33 62  1  0  0  0  0
 33 69  1  0  0  0  0
 33 79  2  0  0  0  0
 34 63  1  0  0  0  0
 34 75  1  0  0  0  0
 34 80  2  0  0  0  0
 35 70  1  0  0  0  0
 35 71  1  0  0  0  0
 35 81  2  0  0  0  0
 36 39  1  0  0  0  0
 37 48  1  0  0  0  0
 38 69  1  0  0  0  0
 39 41  1  0  0  0  0
 40 42  1  0  0  0  0
 40 44  1  0  0  0  0
 41 47  1  0  0  0  0
 42 49  1  0  0  0  0
 43 45  1  0  0  0  0
 43 50  1  0  0  0  0
 44 70  1  0  0  0  0
 45 71  1  0  0  0  0
 46 49  1  0  0  0  0
 46 70  1  0  0  0  0
 47 74  1  0  0  0  0
 48 69  1  0  0  0  0
 49 68  1  0  0  0  0
 50 51  1  0  0  0  0
 50 67  1  0  0  0  0
 51 53  1  0  0  0  0
 51 71  1  0  0  0  0
 54 61  1  0  0  0  0
 55 63  1  0  0  0  0
 56 64  1  0  0  0  0
 57 64  1  0  0  0  0
 58 64  1  0  0  0  0
 59 76  1  0  0  0  0
 60 61  1  0  0  0  0
 60 83  1  0  0  0  0
 62 64  1  0  0  0  0
 62 75  1  0  0  0  0
 63 76  1  0  0  0  0
 65 68  1  0  0  0  0
 66 67  1  0  0  0  0
M  CHG  1  76   1
M  ISO  4  35 100  60 101  71 100  83 101
M  END
> <Batch ID>
0172

> <Smiles>
CNC(C)C(=O)NC(C(=O)N1Cc2cc([101O:1][101CH2:1]C(C)c3cn(C4CC[100N:0]([100C:0](=O)N5CCCC(n6nc(-c7ccc(Oc8ccc(F)cc8F)cc7)c(C(N)=O)c6N)C5)C4C)nc3C)ccc2CC1C(=O)NC1CCCc2ccccc21)C(C)(C)C

> <Shape>
0.270

> <Color>
0.073

> <Negative vol penalty>
0.000

$$$$

  -OEChem-04052322403D

 86 95  0     1  0  0  0  0  0999 V2000
  -25.5414  -34.1266   16.0231 C   0  0  0  0  0  0  0  0  0  0  0  0
  -26.0394  -32.8339   15.8962 C   0  0  0  0  0  0  0  0  0  0  0  0
  -23.1084   -9.8885   19.9278 C   0  0  0  0  0  0  0  0  0  0  0  0
  -23.5388   -9.9554   22.3042 C   0  0  0  0  0  0  0  0  0  0  0  0
  -25.4175  -34.7038   17.2862 C   0  0  0  0  0  0  0  0  0  0  0  0
  -26.4148  -32.1179   17.0324 C   0  0  0  0  0  0  0  0  0  0  0  0
  -25.8742  -26.0835   17.9266 C   0  0  0  0  0  0  0  0  0  0  0  0
  -22.2926   -8.7714   20.1070 C   0  0  0  0  0  0  0  0  0  0  0  0
  -22.7230   -8.8383   22.4834 C   0  0  0  0  0  0  0  0  0  0  0  0
  -26.7825  -25.0325   17.8073 C   0  0  0  0  0  0  0  0  0  0  0  0
  -22.9598   -5.4898   22.0802 C   0  0  0  0  0  0  0  0  0  0  0  0
  -23.4282   -4.4718   22.9107 C   0  0  0  0  0  0  0  0  0  0  0  0
  -27.2308  -25.1592   20.1742 C   0  0  0  0  0  0  0  0  0  0  0  0
  -21.5123   -4.7667   24.3528 C   0  0  0  0  0  0  0  0  0  0  0  0
  -23.7316  -10.4804   21.0264 C   0  0  0  0  0  0  0  0  0  0  0  0
  -24.1848  -12.9863   20.8746 C   0  0  0  0  0  0  0  0  0  0  0  0
  -25.7825  -33.9910   18.4391 C   0  0  0  0  0  0  0  0  0  0  0  0
  -25.6451  -26.6885   19.1707 C   0  0  0  0  0  0  0  0  0  0  0  0
  -26.2969  -32.6866   18.3120 C   0  0  0  0  0  0  0  0  0  0  0  0
  -26.3172  -26.2160   20.3070 C   0  0  0  0  0  0  0  0  0  0  0  0
  -22.0998   -8.2463   21.3848 C   0  0  0  0  0  0  0  0  0  0  0  0
  -27.4631  -24.5721   18.9307 C   0  0  0  0  0  0  0  0  0  0  0  0
  -21.7677   -6.1464   22.3860 C   0  0  0  0  0  0  0  0  0  0  0  0
  -22.7045   -4.1102   24.0470 C   0  0  0  0  0  0  0  0  0  0  0  0
  -21.0439   -5.7848   23.5223 C   0  0  0  0  0  0  0  0  0  0  0  0
  -24.5749  -11.6341   20.8419 C   0  0  0  0  0  0  0  0  0  0  0  0
  -30.8562  -22.0776   17.7307 C   0  0  0  0  0  0  0  0  0  0  0  0
  -29.5040  -21.8581   17.5871 C   0  0  0  0  0  0  0  0  0  0  0  0
  -31.2248  -19.8208   17.7112 C   0  0  0  0  0  0  0  0  0  0  0  0
  -29.8724  -19.6011   17.5683 C   0  0  0  0  0  0  0  0  0  0  0  0
  -25.3454  -13.6841   20.6456 C   0  0  0  0  0  0  0  0  0  0  0  0
  -22.8891  -13.5602   21.0927 C   0  0  0  0  0  0  0  0  0  0  0  0
  -26.0388  -29.6144   20.3487 C   0  0  0  0  0  0  0  0  0  0  0  0
  -24.5403  -28.3533   22.9344 C   0  0  0  0  0  0  0  0  0  0  0  0
  -23.7314  -25.5763   24.7458 C   0  0  0  0  0  0  0  0  0  0  0  0
  -29.9781  -14.1278   17.4101 C   0  0  0  0  0  0  0  0  0  0  0  0
  -25.6750  -34.6742   19.7794 C   0  0  0  0  0  0  0  0  0  0  0  0
  -24.6423  -27.8034   19.2874 C   0  0  0  0  0  0  0  0  0  0  0  0
  -26.0918  -26.8180   21.6691 C   0  0  0  0  0  0  0  0  0  0  0  0
  -25.7435  -33.7106   20.9615 C   0  0  0  0  0  0  0  0  0  0  0  0
  -30.1640  -12.1695   20.5430 C   0  0  0  0  0  0  0  0  0  0  0  0
  -26.8924  -32.7237   20.7797 C   0  0  0  0  0  0  0  0  0  0  0  0
  -28.6913  -11.9094   20.8588 C   0  0  0  0  0  0  0  0  0  0  0  0
  -30.4043  -12.3300   19.0444 C   0  0  0  0  0  0  0  0  0  0  0  0
  -29.2836  -17.6471   16.1785 C   0  0  0  0  0  0  0  0  0  0  0  0
  -29.9549  -16.2789   16.2267 C   0  0  0  0  0  0  0  0  0  0  0  0
  -28.0797  -13.0975   18.7175 C   0  0  0  0  0  0  0  0  0  0  0  0
  -28.6129  -16.0787   18.3090 C   0  0  0  0  0  0  0  0  0  0  0  0
  -26.6916  -31.8688   19.5226 C   0  0  1  0  0  0  0  0  0  0  0  0
  -24.8691  -28.6854   20.5114 C   0  0  1  0  0  0  0  0  0  0  0  0
  -27.7947  -12.9862   20.2223 C   0  0  1  0  0  0  0  0  0  0  0  0
  -29.1136  -17.4866   18.6896 C   0  0  2  0  0  0  0  0  0  0  0  0
  -31.4144  -23.4566   17.8225 C   0  0  0  0  0  0  0  0  0  0  0  0
  -32.2009  -18.6953   17.7822 C   0  0  0  0  0  0  0  0  0  0  0  0
  -28.0406  -18.1539   19.5587 C   0  0  0  0  0  0  0  0  0  0  0  0
  -22.5305  -24.8657   26.8315 C   0  0  0  0  0  0  0  0  0  0  0  0
  -26.8875  -29.3364   24.6179 C   0  0  0  0  0  0  0  0  0  0  0  0
  -26.1225  -27.8108   26.4497 C   0  0  0  0  0  0  0  0  0  0  0  0
  -24.6416  -29.6603   25.6693 C   0  0  0  0  0  0  0  0  0  0  0  0
  -21.8029  -23.9341   23.2151 C   0  0  0  0  0  0  0  0  0  0  0  0
  -28.5360  -22.9892   17.5167 C   0  0  0  0  0  0  0  0  0  1  0  0
  -24.9882  -27.6411   24.1879 C   0  0  1  0  0  0  0  0  0  0  0  0
  -22.4134  -25.1063   25.3345 C   0  0  2  0  0  0  0  0  0  0  0  0
  -25.6659  -28.6019   25.2053 C   0  0  0  0  0  0  0  0  0  0  0  0
  -25.8813  -11.4798   20.6101 N   0  0  0  0  0  0  0  0  0  0  0  0
  -31.7410  -21.0629   17.7953 N   0  0  0  0  0  0  0  0  0  0  0  0
  -28.9878  -20.6159   17.5034 N   0  0  0  0  0  0  0  0  0  0  0  0
  -26.3220  -12.7441   20.4951 N   0  0  0  0  0  0  0  0  0  0  0  0
  -29.3996  -18.2925   17.4876 N   0  0  3  0  0  0  0  0  0  0  0  0
  -25.1062  -27.9099   21.7307 N   0  0  0  0  0  0  0  0  0  0  0  0
  -29.5082  -13.3301   18.4638 N   0  0  0  0  0  0  0  0  0  0  0  0
  -29.4606  -15.4293   17.3048 N   0  0  0  0  0  0  0  0  0  0  0  0
  -25.6155  -15.0040   20.5602 N   0  0  0  0  0  0  0  0  0  0  0  0
  -21.8053  -12.6992   21.3125 N   0  0  0  0  0  0  0  0  0  0  0  0
  -25.7176  -30.8274   19.7699 N   0  0  0  0  0  0  0  0  0  0  0  0
  -23.8123  -26.9523   24.7084 N   0  0  0  0  0  0  0  0  0  0  0  0
  -21.9806  -23.8359   24.6868 N   0  3  0  0  0  0  0  0  0  0  0  0
  -22.6952  -14.7994   21.0763 O   0  0  0  0  0  0  0  0  0  0  0  0
  -27.1502  -29.2578   20.7220 O   0  0  0  0  0  0  0  0  0  0  0  0
  -23.7131  -29.2644   23.0194 O   0  0  0  0  0  0  0  0  0  0  0  0
  -24.6035  -24.8004   24.3612 O   0  0  0  0  0  0  0  0  0  0  0  0
  -30.8288  -13.7078   16.6147 O   0  0  0  0  0  0  0  0  0  0  0  0
  -21.3036   -7.1564   21.5601 O   0  0  0  0  0  0  0  0  0  0  0  0
  -28.3567  -23.5399   18.8161 O   0  0  0  0  0  0  0  0  0  1  0  0
  -23.1536   -3.1315   24.8436 F   0  0  0  0  0  0  0  0  0  0  0  0
  -19.8974   -6.4112   23.8206 F   0  0  0  0  0  0  0  0  0  0  0  0
  1  2  1  0  0  0  0
  1  5  2  0  0  0  0
  2  6  2  0  0  0  0
  3  8  2  0  0  0  0
  3 15  1  0  0  0  0
  4  9  1  0  0  0  0
  4 15  2  0  0  0  0
  5 17  1  0  0  0  0
  6 19  1  0  0  0  0
  7 10  2  0  0  0  0
  7 18  1  0  0  0  0
  8 21  1  0  0  0  0
  9 21  2  0  0  0  0
 10 22  1  0  0  0  0
 11 12  2  0  0  0  0
 11 23  1  0  0  0  0
 12 24  1  0  0  0  0
 13 20  1  0  0  0  0
 13 22  2  0  0  0  0
 14 24  2  0  0  0  0
 14 25  1  0  0  0  0
 15 26  1  0  0  0  0
 16 26  1  0  0  0  0
 16 31  2  0  0  0  0
 16 32  1  0  0  0  0
 17 19  2  0  0  0  0
 17 37  1  0  0  0  0
 18 20  2  0  0  0  0
 18 38  1  0  0  0  0
 19 49  1  0  0  0  0
 20 39  1  0  0  0  0
 21 83  1  0  0  0  0
 22 84  1  0  0  0  0
 23 25  2  0  0  0  0
 23 83  1  0  0  0  0
 24 85  1  0  0  0  0
 25 86  1  0  0  0  0
 26 65  2  0  0  0  0
 27 28  2  0  0  0  0
 27 53  1  0  0  0  0
 27 66  1  0  0  0  0
 28 61  1  0  0  0  0
 28 67  1  0  0  0  0
 29 30  1  0  0  0  0
 29 54  1  0  0  0  0
 29 66  2  0  0  0  0
 30 67  2  0  0  0  0
 30 69  1  0  0  0  0
 31 68  1  0  0  0  0
 31 73  1  0  0  0  0
 32 74  1  0  0  0  0
 32 78  2  0  0  0  0
 33 50  1  0  0  0  0
 33 75  1  0  0  0  0
 33 79  2  0  0  0  0
 34 62  1  0  0  0  0
 34 70  1  0  0  0  0
 34 80  2  0  0  0  0
 35 63  1  0  0  0  0
 35 76  1  0  0  0  0
 35 81  2  0  0  0  0
 36 71  1  0  0  0  0
 36 72  1  0  0  0  0
 36 82  2  0  0  0  0
 37 40  1  0  0  0  0
 38 50  1  0  0  0  0
 39 70  1  0  0  0  0
 40 42  1  0  0  0  0
 41 43  1  0  0  0  0
 41 44  1  0  0  0  0
 42 49  1  0  0  0  0
 43 51  1  0  0  0  0
 44 71  1  0  0  0  0
 45 46  1  0  0  0  0
 45 69  1  0  0  0  0
 46 72  1  0  0  0  0
 47 51  1  0  0  0  0
 47 71  1  0  0  0  0
 48 52  1  0  0  0  0
 48 72  1  0  0  0  0
 49 75  1  0  0  0  0
 50 70  1  0  0  0  0
 51 68  1  0  0  0  0
 52 55  1  0  0  0  0
 52 69  1  0  0  0  0
 56 63  1  0  0  0  0
 57 64  1  0  0  0  0
 58 64  1  0  0  0  0
 59 64  1  0  0  0  0
 60 77  1  0  0  0  0
 61 84  1  0  0  0  0
 62 64  1  0  0  0  0
 62 76  1  0  0  0  0
 63 77  1  0  0  0  0
 65 68  1  0  0  0  0
M  CHG  1  77   1
M  ISO  4  36 100  61 101  72 100  84 101
M  END
> <Batch ID>
0172

> <Smiles>
CNC(C)C(=O)NC(C(=O)N1Cc2cc([101O:1][101CH2:1]c3nc(N4CC[100N:0]([100C:0](=O)N5CCCC(n6nc(-c7ccc(Oc8ccc(F)cc8F)cc7)c(C(N)=O)c6N)C5)CC4C)c(C)nc3C)ccc2CC1C(=O)NC1CCCc2ccccc21)C(C)(C)C

> <Shape>
0.256

> <Color>
0.213

> <Negative vol penalty>
0.000

$$$$

  -OEChem-04052322403D

 85 94  0     1  0  0  0  0  0999 V2000
  -28.7839  -33.1174   25.5640 C   0  0  0  0  0  0  0  0  0  0  0  0
  -28.7298  -31.7697   25.2230 C   0  0  0  0  0  0  0  0  0  0  0  0
  -21.8570  -14.2639   20.3166 C   0  0  0  0  0  0  0  0  0  0  0  0
  -22.7956  -13.9874   22.5256 C   0  0  0  0  0  0  0  0  0  0  0  0
  -27.6154  -33.8776   25.5844 C   0  0  0  0  0  0  0  0  0  0  0  0
  -27.5067  -31.1812   24.9033 C   0  0  0  0  0  0  0  0  0  0  0  0
  -27.7835  -28.2360   20.7930 C   0  0  0  0  0  0  0  0  0  0  0  0
  -20.7386  -13.5234   20.6991 C   0  0  0  0  0  0  0  0  0  0  0  0
  -21.6771  -13.2469   22.9082 C   0  0  0  0  0  0  0  0  0  0  0  0
  -28.3428  -26.9691   20.9540 C   0  0  0  0  0  0  0  0  0  0  0  0
  -20.5234  -10.0934   22.5145 C   0  0  0  0  0  0  0  0  0  0  0  0
  -20.7396   -8.9151   23.2290 C   0  0  0  0  0  0  0  0  0  0  0  0
  -29.3120  -20.4824   20.6801 C   0  0  0  0  0  0  0  0  0  0  0  0
  -28.7009  -20.4910   23.0175 C   0  0  0  0  0  0  0  0  0  0  0  0
  -26.1310  -26.0100   21.0384 C   0  0  0  0  0  0  0  0  0  0  0  0
  -19.4523   -9.7973   25.0734 C   0  0  0  0  0  0  0  0  0  0  0  0
  -22.8856  -14.4959   21.2299 C   0  0  0  0  0  0  0  0  0  0  0  0
  -24.2142  -16.6537   20.9365 C   0  0  0  0  0  0  0  0  0  0  0  0
  -26.3787  -33.3005   25.2553 C   0  0  0  0  0  0  0  0  0  0  0  0
  -26.3912  -28.4010   20.7644 C   0  0  0  0  0  0  0  0  0  0  0  0
  -26.3203  -31.9341   24.9206 C   0  0  0  0  0  0  0  0  0  0  0  0
  -29.3656  -19.8966   21.9448 C   0  0  0  0  0  0  0  0  0  0  0  0
  -25.5565  -27.2797   20.8744 C   0  0  0  0  0  0  0  0  0  0  0  0
  -28.5940  -21.6628   20.4880 C   0  0  0  0  0  0  0  0  0  0  0  0
  -27.9293  -22.2572   21.5607 C   0  0  0  0  0  0  0  0  0  0  0  0
  -20.6486  -13.0149   21.9949 C   0  0  0  0  0  0  0  0  0  0  0  0
  -27.5166  -25.8562   21.0796 C   0  0  0  0  0  0  0  0  0  0  0  0
  -19.7716  -11.1237   23.0795 C   0  0  0  0  0  0  0  0  0  0  0  0
  -27.9828  -21.6713   22.8254 C   0  0  0  0  0  0  0  0  0  0  0  0
  -20.2040   -8.7670   24.5084 C   0  0  0  0  0  0  0  0  0  0  0  0
  -19.2361  -10.9756   24.3589 C   0  0  0  0  0  0  0  0  0  0  0  0
  -24.0414  -15.2603   20.8352 C   0  0  0  0  0  0  0  0  0  0  0  0
  -25.4712  -16.8814   20.4318 C   0  0  0  0  0  0  0  0  0  0  0  0
  -23.3186  -17.6529   21.4416 C   0  0  0  0  0  0  0  0  0  0  0  0
  -24.2789  -29.9528   22.5626 C   0  0  0  0  0  0  0  0  0  0  0  0
  -22.2060  -29.0155   20.2503 C   0  0  0  0  0  0  0  0  0  0  0  0
  -21.4511  -26.8119   17.7560 C   0  0  0  0  0  0  0  0  0  0  0  0
  -30.8824  -15.3812   20.3966 C   0  0  0  0  0  0  0  0  0  0  0  0
  -25.1359  -34.1510   25.3373 C   0  0  0  0  0  0  0  0  0  0  0  0
  -25.8039  -29.7710   20.5633 C   0  0  0  0  0  0  0  0  0  0  0  0
  -24.0559  -27.4007   20.8297 C   0  0  0  0  0  0  0  0  0  0  0  0
  -23.9328  -33.5420   24.6217 C   0  0  0  0  0  0  0  0  0  0  0  0
  -28.6436  -13.8350   17.9282 C   0  0  0  0  0  0  0  0  0  0  0  0
  -23.7858  -32.0678   24.9846 C   0  0  0  0  0  0  0  0  0  0  0  0
  -27.2590  -14.1437   18.5037 C   0  0  0  0  0  0  0  0  0  0  0  0
  -31.6388  -18.6481   21.7979 C   0  0  0  0  0  0  0  0  0  0  0  0
  -29.7031  -13.7017   19.0206 C   0  0  0  0  0  0  0  0  0  0  0  0
  -32.0050  -17.1763   21.6932 C   0  0  0  0  0  0  0  0  0  0  0  0
  -29.6501  -17.4252   21.3170 C   0  0  0  0  0  0  0  0  0  0  0  0
  -28.3806  -15.1252   20.5345 C   0  0  0  0  0  0  0  0  0  0  0  0
  -30.1458  -18.6169   22.1532 C   0  0  2  0  0  0  0  0  0  0  0  0
  -25.0161  -31.2656   24.5435 C   0  0  1  0  0  0  0  0  0  0  0  0
  -24.3674  -29.8847   21.0642 C   0  0  1  0  0  0  0  0  0  0  0  0
  -27.3086  -15.3512   19.4603 C   0  0  2  0  0  0  0  0  0  0  0  0
  -28.5532  -22.2709   19.1244 C   0  0  0  0  0  0  0  0  0  0  0  0
  -19.6699  -26.2792   16.0705 C   0  0  0  0  0  0  0  0  0  0  0  0
  -20.4740  -27.8230   22.4612 C   0  0  0  0  0  0  0  0  0  0  0  0
  -19.2554  -26.5173   20.7066 C   0  0  0  0  0  0  0  0  0  0  0  0
  -19.2017  -29.0110   20.6655 C   0  0  0  0  0  0  0  0  0  0  0  0
  -23.3102  -27.2209   15.4899 C   0  0  0  0  0  0  0  0  0  0  0  0
  -28.0729  -23.1839   24.6584 C   0  0  0  0  0  0  0  0  0  0  0  0
  -27.1572  -23.5221   21.3602 C   0  0  0  0  0  0  0  0  0  1  0  0
  -21.3304  -27.8064   20.0256 C   0  0  1  0  0  0  0  0  0  0  0  0
  -20.9672  -27.0279   16.3335 C   0  0  2  0  0  0  0  0  0  0  0  0
  -20.0936  -27.7870   20.9676 C   0  0  0  0  0  0  0  0  0  0  0  0
  -25.1036  -14.6460   20.3076 N   0  0  0  0  0  0  0  0  0  0  0  0
  -25.9559  -15.6582   20.0727 N   0  0  0  0  0  0  0  0  0  0  0  0
  -23.5295  -28.7621   20.6376 N   0  0  0  0  0  0  0  0  0  0  0  0
  -29.6793  -14.8620   19.9088 N   0  0  0  0  0  0  0  0  0  0  0  0
  -30.8014  -16.5275   21.1913 N   0  0  0  0  0  0  0  0  0  0  0  0
  -26.1980  -18.0066   20.2646 N   0  0  0  0  0  0  0  0  0  0  0  0
  -22.0663  -17.2463   21.9219 N   0  0  0  0  0  0  0  0  0  0  0  0
  -24.9700  -31.0119   23.1195 N   0  0  0  0  0  0  0  0  0  0  0  0
  -20.9995  -27.8004   18.6047 N   0  0  0  0  0  0  0  0  0  0  0  0
  -21.9904  -26.5515   15.3603 N   0  3  0  0  0  0  0  0  0  0  0  0
  -23.6135  -18.8721   21.4511 O   0  0  0  0  0  0  0  0  0  0  0  0
  -23.6303  -29.1080   23.1686 O   0  0  0  0  0  0  0  0  0  0  0  0
  -21.7351  -30.1430   20.0812 O   0  0  0  0  0  0  0  0  0  0  0  0
  -22.1559  -25.8594   18.0825 O   0  0  0  0  0  0  0  0  0  0  0  0
  -31.9704  -14.8773   20.0912 O   0  0  0  0  0  0  0  0  0  0  0  0
  -19.5572  -12.2925   22.3685 O   0  0  0  0  0  0  0  0  0  0  0  0
  -27.3390  -22.2370   23.8846 O   0  0  0  0  0  0  0  0  0  0  0  0
  -28.0639  -24.6095   21.2386 O   0  0  0  0  0  0  0  0  0  1  0  0
  -20.4105   -7.6349   25.1938 F   0  0  0  0  0  0  0  0  0  0  0  0
  -18.5121  -11.9614   24.9064 F   0  0  0  0  0  0  0  0  0  0  0  0
  1  2  1  0  0  0  0
  1  5  2  0  0  0  0
  2  6  2  0  0  0  0
  3  8  2  0  0  0  0
  3 17  1  0  0  0  0
  4  9  1  0  0  0  0
  4 17  2  0  0  0  0
  5 19  1  0  0  0  0
  6 21  1  0  0  0  0
  7 10  2  0  0  0  0
  7 20  1  0  0  0  0
  8 26  1  0  0  0  0
  9 26  2  0  0  0  0
 10 27  1  0  0  0  0
 11 12  2  0  0  0  0
 11 28  1  0  0  0  0
 12 30  1  0  0  0  0
 13 22  1  0  0  0  0
 13 24  2  0  0  0  0
 14 22  2  0  0  0  0
 14 29  1  0  0  0  0
 15 23  1  0  0  0  0
 15 27  2  0  0  0  0
 16 30  2  0  0  0  0
 16 31  1  0  0  0  0
 17 32  1  0  0  0  0
 18 32  1  0  0  0  0
 18 33  2  0  0  0  0
 18 34  1  0  0  0  0
 19 21  2  0  0  0  0
 19 39  1  0  0  0  0
 20 23  2  0  0  0  0
 20 40  1  0  0  0  0
 21 52  1  0  0  0  0
 22 51  1  0  0  0  0
 23 41  1  0  0  0  0
 24 25  1  0  0  0  0
 24 55  1  0  0  0  0
 25 29  2  0  0  0  0
 25 62  1  0  0  0  0
 26 81  1  0  0  0  0
 27 83  1  0  0  0  0
 28 31  2  0  0  0  0
 28 81  1  0  0  0  0
 29 82  1  0  0  0  0
 30 84  1  0  0  0  0
 31 85  1  0  0  0  0
 32 66  2  0  0  0  0
 33 67  1  0  0  0  0
 33 71  1  0  0  0  0
 34 72  1  0  0  0  0
 34 76  2  0  0  0  0
 35 53  1  0  0  0  0
 35 73  1  0  0  0  0
 35 77  2  0  0  0  0
 36 63  1  0  0  0  0
 36 68  1  0  0  0  0
 36 78  2  0  0  0  0
 37 64  1  0  0  0  0
 37 74  1  0  0  0  0
 37 79  2  0  0  0  0
 38 69  1  0  0  0  0
 38 70  1  0  0  0  0
 38 80  2  0  0  0  0
 39 42  1  0  0  0  0
 40 53  1  0  0  0  0
 41 68  1  0  0  0  0
 42 44  1  0  0  0  0
 43 45  1  0  0  0  0
 43 47  1  0  0  0  0
 44 52  1  0  0  0  0
 45 54  1  0  0  0  0
 46 48  1  0  0  0  0
 46 51  1  0  0  0  0
 47 69  1  0  0  0  0
 48 70  1  0  0  0  0
 49 51  1  0  0  0  0
 49 70  1  0  0  0  0
 50 54  1  0  0  0  0
 50 69  1  0  0  0  0
 52 73  1  0  0  0  0
 53 68  1  0  0  0  0
 54 67  1  0  0  0  0
 56 64  1  0  0  0  0
 57 65  1  0  0  0  0
 58 65  1  0  0  0  0
 59 65  1  0  0  0  0
 60 75  1  0  0  0  0
 61 82  1  0  0  0  0
 62 83  1  0  0  0  0
 63 65  1  0  0  0  0
 63 74  1  0  0  0  0
 64 75  1  0  0  0  0
 66 67  1  0  0  0  0
M  CHG  1  75   1
M  ISO  4  38 100  62 101  70 100  83 101
M  END
> <Batch ID>
0172

> <Smiles>
CNC(C)C(=O)NC(C(=O)N1Cc2cc([101O:1][101CH2:1]c3c(C)cc(C4CC[100N:0]([100C:0](=O)N5CCCC(n6nc(-c7ccc(Oc8ccc(F)cc8F)cc7)c(C(N)=O)c6N)C5)C4)cc3OC)ccc2CC1C(=O)NC1CCCc2ccccc21)C(C)(C)C

> <Shape>
0.261

> <Color>
0.054

> <Negative vol penalty>
0.000

$$$$

  -OEChem-04052322403D

 86 95  0     1  0  0  0  0  0999 V2000
  -32.6445  -37.2081   20.1357 C   0  0  0  0  0  0  0  0  0  0  0  0
  -32.5200  -35.8910   19.7052 C   0  0  0  0  0  0  0  0  0  0  0  0
  -23.3350   -8.9887   19.4879 C   0  0  0  0  0  0  0  0  0  0  0  0
  -23.2938   -9.9171   21.7180 C   0  0  0  0  0  0  0  0  0  0  0  0
  -32.1756  -37.5756   21.3963 C   0  0  0  0  0  0  0  0  0  0  0  0
  -31.9274  -34.9404   20.5357 C   0  0  0  0  0  0  0  0  0  0  0  0
  -28.4551  -30.1992   18.8122 C   0  0  0  0  0  0  0  0  0  0  0  0
  -28.6436  -19.7059   19.1981 C   0  0  0  0  0  0  0  0  0  0  0  0
  -22.6279   -7.8741   19.9387 C   0  0  0  0  0  0  0  0  0  0  0  0
  -22.5866   -8.8024   22.1689 C   0  0  0  0  0  0  0  0  0  0  0  0
  -28.7404  -28.8478   18.6222 C   0  0  0  0  0  0  0  0  0  0  0  0
  -23.2632   -5.6034   23.0286 C   0  0  0  0  0  0  0  0  0  0  0  0
  -23.6735   -5.0162   24.2254 C   0  0  0  0  0  0  0  0  0  0  0  0
  -28.3856  -18.3450   19.3197 C   0  0  0  0  0  0  0  0  0  0  0  0
  -27.9583  -28.3751   20.8547 C   0  0  0  0  0  0  0  0  0  0  0  0
  -21.4970   -5.4454   25.1823 C   0  0  0  0  0  0  0  0  0  0  0  0
  -23.6679  -10.0102   20.3775 C   0  0  0  0  0  0  0  0  0  0  0  0
  -23.8632  -12.3600   19.4039 C   0  0  0  0  0  0  0  0  0  0  0  0
  -31.5683  -36.6310   22.2387 C   0  0  0  0  0  0  0  0  0  0  0  0
  -27.9286  -30.6511   20.0308 C   0  0  0  0  0  0  0  0  0  0  0  0
  -31.4512  -35.2953   21.8092 C   0  0  0  0  0  0  0  0  0  0  0  0
  -29.8864  -20.2079   19.5675 C   0  0  0  0  0  0  0  0  0  0  0  0
  -27.6649  -29.7323   21.0567 C   0  0  0  0  0  0  0  0  0  0  0  0
  -22.2537   -7.7810   21.2792 C   0  0  0  0  0  0  0  0  0  0  0  0
  -28.4946  -27.9359   19.6445 C   0  0  0  0  0  0  0  0  0  0  0  0
  -21.9697   -6.1116   22.9086 C   0  0  0  0  0  0  0  0  0  0  0  0
  -22.7904   -4.9372   25.3023 C   0  0  0  0  0  0  0  0  0  0  0  0
  -21.0866   -6.0326   23.9854 C   0  0  0  0  0  0  0  0  0  0  0  0
  -24.3988  -11.1616   19.9125 C   0  0  0  0  0  0  0  0  0  0  0  0
  -30.8297  -19.3146   20.0491 C   0  0  0  0  0  0  0  0  0  0  0  0
  -29.3962  -17.5350   19.8122 C   0  0  0  0  0  0  0  0  0  0  0  0
  -24.9622  -13.1279   19.1055 C   0  0  0  0  0  0  0  0  0  0  0  0
  -22.4946  -12.7448   19.2180 C   0  0  0  0  0  0  0  0  0  0  0  0
  -28.9118  -32.6553   22.2937 C   0  0  0  0  0  0  0  0  0  0  0  0
  -25.9545  -32.1144   23.5121 C   0  0  0  0  0  0  0  0  0  0  0  0
  -23.2412  -30.0556   23.7259 C   0  0  0  0  0  0  0  0  0  0  0  0
  -29.9835  -15.1566   20.3993 C   0  0  0  0  0  0  0  0  0  0  0  0
  -31.1194  -37.0651   23.6115 C   0  0  0  0  0  0  0  0  0  0  0  0
  -27.6015  -32.1081   20.2105 C   0  0  0  0  0  0  0  0  0  0  0  0
  -27.0814  -30.1634   22.3767 C   0  0  0  0  0  0  0  0  0  0  0  0
  -30.1659  -36.0787   24.2809 C   0  0  0  0  0  0  0  0  0  0  0  0
  -29.8740  -11.9187   18.9224 C   0  0  0  0  0  0  0  0  0  0  0  0
  -30.6908  -34.6529   24.1448 C   0  0  0  0  0  0  0  0  0  0  0  0
  -28.3958  -11.5317   19.0065 C   0  0  0  0  0  0  0  0  0  0  0  0
  -30.7500  -22.0875   18.0840 C   0  0  0  0  0  0  0  0  0  0  0  0
  -30.3244  -12.7078   20.1505 C   0  0  0  0  0  0  0  0  0  0  0  0
  -28.0253  -13.4960   20.5528 C   0  0  0  0  0  0  0  0  0  0  0  0
  -30.6403  -23.6008   18.0883 C   0  0  0  0  0  0  0  0  0  0  0  0
  -30.1730  -21.6859   19.4394 C   0  0  1  0  0  0  0  0  0  0  0  0
  -30.7919  -34.2406   22.6713 C   0  0  1  0  0  0  0  0  0  0  0  0
  -27.5481  -32.5324   21.6749 C   0  0  1  0  0  0  0  0  0  0  0  0
  -27.5090  -12.7557   19.3082 C   0  0  2  0  0  0  0  0  0  0  0  0
  -28.9391  -22.5906   19.5500 C   0  0  1  0  0  0  0  0  0  0  0  0
  -32.1812  -19.7986   20.4620 C   0  0  0  0  0  0  0  0  0  0  0  0
  -28.4837  -22.8348   20.9806 C   0  0  0  0  0  0  0  0  0  0  0  0
  -20.9950  -29.8651   24.8286 C   0  0  0  0  0  0  0  0  0  0  0  0
  -27.3111  -31.3668   26.1409 C   0  0  0  0  0  0  0  0  0  0  0  0
  -25.1644  -30.3013   26.8651 C   0  0  0  0  0  0  0  0  0  0  0  0
  -25.2420  -32.7491   26.3910 C   0  0  0  0  0  0  0  0  0  0  0  0
  -21.8372  -30.0094   21.1210 C   0  0  0  0  0  0  0  0  0  0  0  0
  -28.3382  -24.6316   18.1757 C   0  0  0  0  0  0  0  0  0  0  0  0
  -28.6727  -26.1095   18.1318 C   0  0  0  0  0  0  0  0  0  1  0  0
  -25.3600  -31.1101   24.4696 C   0  0  1  0  0  0  0  0  0  0  0  0
  -21.7542  -30.3322   23.5964 C   0  0  2  0  0  0  0  0  0  0  0  0
  -25.7822  -31.3736   25.9426 C   0  0  0  0  0  0  0  0  0  0  0  0
  -25.7343  -11.1632   19.9370 N   0  0  0  0  0  0  0  0  0  0  0  0
  -30.6159  -17.9863   20.1814 N   0  0  0  0  0  0  0  0  0  0  0  0
  -26.0470  -12.3720   19.4401 N   0  0  0  0  0  0  0  0  0  0  0  0
  -26.7845  -31.5996   22.5061 N   0  0  0  0  0  0  0  0  0  0  0  0
  -29.4408  -13.8545   20.3719 N   0  0  0  0  0  0  0  0  0  0  0  0
  -25.0967  -14.3692   18.5921 N   0  0  0  0  0  0  0  0  0  0  0  0
  -21.4902  -11.8356   19.5771 N   0  0  0  0  0  0  0  0  0  0  0  0
  -29.1232  -16.1498   19.9322 N   0  0  0  0  0  0  0  0  0  0  0  0
  -29.4845  -33.9045   22.1496 N   0  0  0  0  0  0  0  0  0  0  0  0
  -23.9185  -31.1377   24.2471 N   0  0  0  0  0  0  0  0  0  0  0  0
  -29.4109  -23.9038   18.9278 N   0  3  2  0  0  0  0  0  0  0  0  0
  -21.1980  -29.6279   22.4066 N   0  3  0  0  0  0  0  0  0  0  0  0
  -22.1722  -13.8554   18.7321 O   0  0  0  0  0  0  0  0  0  0  0  0
  -29.4070  -31.6886   22.8612 O   0  0  0  0  0  0  0  0  0  0  0  0
  -25.6866  -33.3109   23.6473 O   0  0  0  0  0  0  0  0  0  0  0  0
  -23.7504  -28.9852   23.4010 O   0  0  0  0  0  0  0  0  0  0  0  0
  -31.1367  -15.3711   20.7816 O   0  0  0  0  0  0  0  0  0  0  0  0
  -21.5636   -6.6936   21.7195 O   0  0  0  0  0  0  0  0  0  0  0  0
  -28.7727  -26.6164   19.4620 O   0  0  0  0  0  0  0  0  0  1  0  0
  -23.1841   -4.3719   26.4510 F   0  0  0  0  0  0  0  0  0  0  0  0
  -19.8424   -6.5180   23.8757 F   0  0  0  0  0  0  0  0  0  0  0  0
  1  2  1  0  0  0  0
  1  5  2  0  0  0  0
  2  6  2  0  0  0  0
  3  9  2  0  0  0  0
  3 17  1  0  0  0  0
  4 10  1  0  0  0  0
  4 17  2  0  0  0  0
  5 19  1  0  0  0  0
  6 21  1  0  0  0  0
  7 11  2  0  0  0  0
  7 20  1  0  0  0  0
  8 14  2  0  0  0  0
  8 22  1  0  0  0  0
  9 24  1  0  0  0  0
 10 24  2  0  0  0  0
 11 25  1  0  0  0  0
 12 13  2  0  0  0  0
 12 26  1  0  0  0  0
 13 27  1  0  0  0  0
 14 31  1  0  0  0  0
 15 23  1  0  0  0  0
 15 25  2  0  0  0  0
 16 27  2  0  0  0  0
 16 28  1  0  0  0  0
 17 29  1  0  0  0  0
 18 29  1  0  0  0  0
 18 32  2  0  0  0  0
 18 33  1  0  0  0  0
 19 21  2  0  0  0  0
 19 38  1  0  0  0  0
 20 23  2  0  0  0  0
 20 39  1  0  0  0  0
 21 50  1  0  0  0  0
 22 30  2  0  0  0  0
 22 49  1  0  0  0  0
 23 40  1  0  0  0  0
 24 83  1  0  0  0  0
 25 84  1  0  0  0  0
 26 28  2  0  0  0  0
 26 83  1  0  0  0  0
 27 85  1  0  0  0  0
 28 86  1  0  0  0  0
 29 66  2  0  0  0  0
 30 54  1  0  0  0  0
 30 67  1  0  0  0  0
 31 67  2  0  0  0  0
 31 73  1  0  0  0  0
 32 68  1  0  0  0  0
 32 71  1  0  0  0  0
 33 72  1  0  0  0  0
 33 78  2  0  0  0  0
 34 51  1  0  0  0  0
 34 74  1  0  0  0  0
 34 79  2  0  0  0  0
 35 63  1  0  0  0  0
 35 69  1  0  0  0  0
 35 80  2  0  0  0  0
 36 64  1  0  0  0  0
 36 75  1  0  0  0  0
 36 81  2  0  0  0  0
 37 70  1  0  0  0  0
 37 73  1  0  0  0  0
 37 82  2  0  0  0  0
 38 41  1  0  0  0  0
 39 51  1  0  0  0  0
 40 69  1  0  0  0  0
 41 43  1  0  0  0  0
 42 44  1  0  0  0  0
 42 46  1  0  0  0  0
 43 50  1  0  0  0  0
 44 52  1  0  0  0  0
 45 48  1  0  0  0  0
 45 49  1  0  0  0  0
 46 70  1  0  0  0  0
 47 52  1  0  0  0  0
 47 70  1  0  0  0  0
 48 76  1  0  0  0  0
 49 53  1  0  0  0  0
 50 74  1  0  0  0  0
 51 69  1  0  0  0  0
 52 68  1  0  0  0  0
 53 55  1  0  0  0  0
 53 76  1  0  0  0  0
 56 64  1  0  0  0  0
 57 65  1  0  0  0  0
 58 65  1  0  0  0  0
 59 65  1  0  0  0  0
 60 77  1  0  0  0  0
 61 62  1  0  0  0  0
 61 76  1  0  0  0  0
 62 84  1  0  0  0  0
 63 65  1  0  0  0  0
 63 75  1  0  0  0  0
 64 77  1  0  0  0  0
 66 68  1  0  0  0  0
M  CHG  2  76   1  77   1
M  ISO  4  37 100  62 101  73 100  84 101
M  END
> <Batch ID>
0172

> <Smiles>
CNC(C)C(=O)NC(C(=O)N1Cc2cc([101O:1][101CH2:1]CN3CCC(c4ccc([100NH:0][100C:0](=O)N5CCCC(n6nc(-c7ccc(Oc8ccc(F)cc8F)cc7)c(C(N)=O)c6N)C5)nc4C)C3C)ccc2CC1C(=O)NC1CCCc2ccccc21)C(C)(C)C

> <Shape>
0.319

> <Color>
0.146

> <Negative vol penalty>
0.000

$$$$

  -OEChem-04052322403D

 86 96  0     1  0  0  0  0  0999 V2000
  -26.7923  -36.7051   24.5018 C   0  0  0  0  0  0  0  0  0  0  0  0
  -27.4466  -35.5866   23.9956 C   0  0  0  0  0  0  0  0  0  0  0  0
  -24.5044   -9.9534   21.6920 C   0  0  0  0  0  0  0  0  0  0  0  0
  -25.0682  -11.3599   23.5738 C   0  0  0  0  0  0  0  0  0  0  0  0
  -25.5084  -36.5801   25.0310 C   0  0  0  0  0  0  0  0  0  0  0  0
  -26.8179  -34.3421   24.0195 C   0  0  0  0  0  0  0  0  0  0  0  0
  -27.3122  -29.8870   19.8466 C   0  0  0  0  0  0  0  0  0  0  0  0
  -24.2803   -8.8837   22.5587 C   0  0  0  0  0  0  0  0  0  0  0  0
  -24.8441  -10.2902   24.4404 C   0  0  0  0  0  0  0  0  0  0  0  0
  -28.0836  -28.7266   19.8003 C   0  0  0  0  0  0  0  0  0  0  0  0
  -23.2103   -5.8812   24.3066 C   0  0  0  0  0  0  0  0  0  0  0  0
  -22.0657   -5.1105   24.1031 C   0  0  0  0  0  0  0  0  0  0  0  0
  -26.2208  -27.4611   20.6649 C   0  0  0  0  0  0  0  0  0  0  0  0
  -20.6885   -7.0664   24.4418 C   0  0  0  0  0  0  0  0  0  0  0  0
  -30.8450  -23.4056   20.3012 C   0  0  0  0  0  0  0  0  0  0  0  0
  -24.8984  -11.1916   22.1996 C   0  0  0  0  0  0  0  0  0  0  0  0
  -24.1915  -13.2522   20.8723 C   0  0  0  0  0  0  0  0  0  0  0  0
  -24.8599  -35.3353   25.0526 C   0  0  0  0  0  0  0  0  0  0  0  0
  -25.9906  -29.8450   20.3134 C   0  0  0  0  0  0  0  0  0  0  0  0
  -25.5247  -34.2002   24.5508 C   0  0  0  0  0  0  0  0  0  0  0  0
  -25.4339  -28.6219   20.7137 C   0  0  0  0  0  0  0  0  0  0  0  0
  -29.1733  -21.7271   20.5128 C   0  0  0  0  0  0  0  0  0  0  0  0
  -28.2169  -22.7330   20.5948 C   0  0  0  0  0  0  0  0  0  0  0  0
  -24.4502   -9.0521   23.9329 C   0  0  0  0  0  0  0  0  0  0  0  0
  -27.5389  -27.5139   20.2122 C   0  0  0  0  0  0  0  0  0  0  0  0
  -23.0940   -7.2446   24.5778 C   0  0  0  0  0  0  0  0  0  0  0  0
  -20.8048   -5.7031   24.1707 C   0  0  0  0  0  0  0  0  0  0  0  0
  -21.8331   -7.8371   24.6454 C   0  0  0  0  0  0  0  0  0  0  0  0
  -30.5147  -22.0614   20.3631 C   0  0  0  0  0  0  0  0  0  0  0  0
  -25.1306  -12.2968   21.3048 C   0  0  0  0  0  0  0  0  0  0  0  0
  -28.6501  -24.0471   20.5227 C   0  0  0  0  0  0  0  0  0  0  0  0
  -24.9034  -14.0813   20.0403 C   0  0  0  0  0  0  0  0  0  0  0  0
  -22.8000  -13.3789   21.1939 C   0  0  0  0  0  0  0  0  0  0  0  0
  -24.4263  -31.1712   22.7420 C   0  0  0  0  0  0  0  0  0  0  0  0
  -21.8493  -29.8115   21.3164 C   0  0  0  0  0  0  0  0  0  0  0  0
  -20.6240  -27.3835   19.2548 C   0  0  0  0  0  0  0  0  0  0  0  0
  -29.5007  -17.0362   18.9306 C   0  0  0  0  0  0  0  0  0  0  0  0
  -23.4907  -35.2409   25.6779 C   0  0  0  0  0  0  0  0  0  0  0  0
  -25.1631  -31.1009   20.3320 C   0  0  0  0  0  0  0  0  0  0  0  0
  -24.0135  -28.5197   21.2040 C   0  0  0  0  0  0  0  0  0  0  0  0
  -22.7468  -33.9557   25.3242 C   0  0  0  0  0  0  0  0  0  0  0  0
  -29.5129  -13.6130   18.0563 C   0  0  0  0  0  0  0  0  0  0  0  0
  -26.0120  -23.0012   21.9141 C   0  0  0  0  0  0  0  0  0  0  0  0
  -26.3377  -21.5403   21.9079 C   0  0  0  0  0  0  0  0  0  0  0  0
  -23.6636  -32.7470   25.4837 C   0  0  0  0  0  0  0  0  0  0  0  0
  -28.3213  -13.0280   18.8093 C   0  0  0  0  0  0  0  0  0  0  0  0
  -29.3650  -19.4283   21.7079 C   0  0  0  0  0  0  0  0  0  0  0  0
  -30.2155  -14.6723   18.8948 C   0  0  0  0  0  0  0  0  0  0  0  0
  -29.0655  -18.0031   21.2630 C   0  0  0  0  0  0  0  0  0  0  0  0
  -29.0994  -19.4437   19.3484 C   0  0  0  0  0  0  0  0  0  0  0  0
  -28.0991  -15.2388   20.0568 C   0  0  0  0  0  0  0  0  0  0  0  0
  -28.7447  -20.2783   20.5872 C   0  0  2  0  0  0  0  0  0  0  0  0
  -26.7686  -22.4080   20.7557 C   0  0  0  0  0  0  0  0  0  0  0  0
  -24.8660  -32.8378   24.5364 C   0  0  1  0  0  0  0  0  0  0  0  0
  -23.9941  -31.0318   21.3097 C   0  0  1  0  0  0  0  0  0  0  0  0
  -27.3637  -14.1429   19.2580 C   0  0  2  0  0  0  0  0  0  0  0  0
  -18.4724  -26.5016   18.3113 C   0  0  0  0  0  0  0  0  0  0  0  0
  -21.2106  -28.5062   23.9994 C   0  0  0  0  0  0  0  0  0  0  0  0
  -19.6755  -26.9392   22.7927 C   0  0  0  0  0  0  0  0  0  0  0  0
  -19.2208  -29.3919   22.7702 C   0  0  0  0  0  0  0  0  0  0  0  0
  -21.4834  -27.9304   16.4761 C   0  0  0  0  0  0  0  0  0  0  0  0
  -27.6703  -25.1720   20.6050 C   0  0  0  0  0  0  0  0  0  1  0  0
  -21.1514  -28.4768   21.4184 C   0  0  1  0  0  0  0  0  0  0  0  0
  -19.6452  -27.4455   18.0961 C   0  0  2  0  0  0  0  0  0  0  0  0
  -20.3420  -28.3305   22.7378 C   0  0  0  0  0  0  0  0  0  0  0  0
  -29.9441  -24.4106   20.3774 N   0  0  0  0  0  0  0  0  0  0  0  0
  -26.3464  -12.4990   20.7899 N   0  0  0  0  0  0  0  0  0  0  0  0
  -26.1760  -13.5910   20.0253 N   0  0  0  0  0  0  0  0  0  0  0  0
  -23.2468  -29.7766   21.2095 N   0  0  0  0  0  0  0  0  0  0  0  0
  -29.2898  -15.7152   19.3409 N   0  0  0  0  0  0  0  0  0  0  0  0
  -29.1290  -18.0576   19.8040 N   0  0  0  0  0  0  0  0  0  0  0  0
  -24.5587  -15.1746   19.3274 N   0  0  0  0  0  0  0  0  0  0  0  0
  -22.2275  -12.4419   22.0649 N   0  0  0  0  0  0  0  0  0  0  0  0
  -24.4769  -32.4775   23.1899 N   0  0  0  0  0  0  0  0  0  0  0  0
  -20.3493  -28.3420   20.2072 N   0  0  0  0  0  0  0  0  0  0  0  0
  -20.3240  -27.0691   16.8239 N   0  3  0  0  0  0  0  0  0  0  0  0
  -22.0816  -14.2863   20.7100 O   0  0  0  0  0  0  0  0  0  0  0  0
  -24.6927  -30.1678   23.3931 O   0  0  0  0  0  0  0  0  0  0  0  0
  -21.1785  -30.8468   21.3240 O   0  0  0  0  0  0  0  0  0  0  0  0
  -21.5384  -26.5642   19.3112 O   0  0  0  0  0  0  0  0  0  0  0  0
  -30.0378  -17.2941   17.8449 O   0  0  0  0  0  0  0  0  0  0  0  0
  -24.2314   -8.0086   24.7789 O   0  0  0  0  0  0  0  0  0  0  0  0
  -28.2952  -26.3717   20.1683 O   0  0  0  0  0  0  0  0  0  1  0  0
  -19.7058   -4.9631   23.9737 F   0  0  0  0  0  0  0  0  0  0  0  0
  -21.7151   -9.1466   24.9044 F   0  0  0  0  0  0  0  0  0  0  0  0
  -31.7547  -20.8743   20.2543 Cl  0  0  0  0  0  0  0  0  0  0  0  0
  1  2  1  0  0  0  0
  1  5  2  0  0  0  0
  2  6  2  0  0  0  0
  3  8  2  0  0  0  0
  3 16  1  0  0  0  0
  4  9  1  0  0  0  0
  4 16  2  0  0  0  0
  5 18  1  0  0  0  0
  6 20  1  0  0  0  0
  7 10  2  0  0  0  0
  7 19  1  0  0  0  0
  8 24  1  0  0  0  0
  9 24  2  0  0  0  0
 10 25  1  0  0  0  0
 11 12  2  0  0  0  0
 11 26  1  0  0  0  0
 12 27  1  0  0  0  0
 13 21  1  0  0  0  0
 13 25  2  0  0  0  0
 14 27  2  0  0  0  0
 14 28  1  0  0  0  0
 15 29  1  0  0  0  0
 15 66  2  0  0  0  0
 16 30  1  0  0  0  0
 17 30  1  0  0  0  0
 17 32  2  0  0  0  0
 17 33  1  0  0  0  0
 18 20  2  0  0  0  0
 18 38  1  0  0  0  0
 19 21  2  0  0  0  0
 19 39  1  0  0  0  0
 20 54  1  0  0  0  0
 21 40  1  0  0  0  0
 22 23  1  0  0  0  0
 22 29  2  0  0  0  0
 22 52  1  0  0  0  0
 23 31  2  0  0  0  0
 23 53  1  0  0  0  0
 24 82  1  0  0  0  0
 25 83  1  0  0  0  0
 26 28  2  0  0  0  0
 26 82  1  0  0  0  0
 27 84  1  0  0  0  0
 28 85  1  0  0  0  0
 29 86  1  0  0  0  0
 30 67  2  0  0  0  0
 31 62  1  0  0  0  0
 31 66  1  0  0  0  0
 32 68  1  0  0  0  0
 32 72  1  0  0  0  0
 33 73  1  0  0  0  0
 33 77  2  0  0  0  0
 34 55  1  0  0  0  0
 34 74  1  0  0  0  0
 34 78  2  0  0  0  0
 35 63  1  0  0  0  0
 35 69  1  0  0  0  0
 35 79  2  0  0  0  0
 36 64  1  0  0  0  0
 36 75  1  0  0  0  0
 36 80  2  0  0  0  0
 37 70  1  0  0  0  0
 37 71  1  0  0  0  0
 37 81  2  0  0  0  0
 38 41  1  0  0  0  0
 39 55  1  0  0  0  0
 40 69  1  0  0  0  0
 41 45  1  0  0  0  0
 42 46  1  0  0  0  0
 42 48  1  0  0  0  0
 43 44  1  0  0  0  0
 43 53  1  0  0  0  0
 44 53  1  0  0  0  0
 45 54  1  0  0  0  0
 46 56  1  0  0  0  0
 47 49  1  0  0  0  0
 47 52  1  0  0  0  0
 48 70  1  0  0  0  0
 49 71  1  0  0  0  0
 50 52  1  0  0  0  0
 50 71  1  0  0  0  0
 51 56  1  0  0  0  0
 51 70  1  0  0  0  0
 54 74  1  0  0  0  0
 55 69  1  0  0  0  0
 56 68  1  0  0  0  0
 57 64  1  0  0  0  0
 58 65  1  0  0  0  0
 59 65  1  0  0  0  0
 60 65  1  0  0  0  0
 61 76  1  0  0  0  0
 62 83  1  0  0  0  0
 63 65  1  0  0  0  0
 63 75  1  0  0  0  0
 64 76  1  0  0  0  0
 67 68  1  0  0  0  0
M  CHG  1  76   1
M  ISO  4  37 100  62 101  71 100  83 101
M  END
> <Batch ID>
0172

> <Smiles>
CNC(C)C(=O)NC(C(=O)N1Cc2cc([101O:1][101CH2:1]c3ncc(Cl)c(C4CC[100N:0]([100C:0](=O)N5CCCC(n6nc(-c7ccc(Oc8ccc(F)cc8F)cc7)c(C(N)=O)c6N)C5)C4)c3C3CC3)ccc2CC1C(=O)NC1CCCc2ccccc21)C(C)(C)C

> <Shape>
0.357

> <Color>
0.116

> <Negative vol penalty>
0.000

$$$$

  -OEChem-04052322403D

 86 96  0     1  0  0  0  0  0999 V2000
  -12.7053  -29.2781   15.4810 C   0  0  0  0  0  0  0  0  0  0  0  0
  -13.1568  -27.9624   15.4543 C   0  0  0  0  0  0  0  0  0  0  0  0
  -23.1767   -9.9184   19.9364 C   0  0  0  0  0  0  0  0  0  0  0  0
  -23.6862   -9.9958   22.2968 C   0  0  0  0  0  0  0  0  0  0  0  0
  -13.6042  -30.3177   15.7156 C   0  0  0  0  0  0  0  0  0  0  0  0
  -14.5078  -27.6858   15.6611 C   0  0  0  0  0  0  0  0  0  0  0  0
  -18.8190  -22.7106   18.4854 C   0  0  0  0  0  0  0  0  0  0  0  0
  -22.3947   -8.7819   20.1424 C   0  0  0  0  0  0  0  0  0  0  0  0
  -22.9042   -8.8592   22.5028 C   0  0  0  0  0  0  0  0  0  0  0  0
  -19.9272  -21.9321   18.1543 C   0  0  0  0  0  0  0  0  0  0  0  0
  -20.5548   -5.6489   19.9921 C   0  0  0  0  0  0  0  0  0  0  0  0
  -20.7044   -4.5866   19.1007 C   0  0  0  0  0  0  0  0  0  0  0  0
  -21.3752  -23.8023   18.6290 C   0  0  0  0  0  0  0  0  0  0  0  0
  -23.0356   -4.4047   19.7086 C   0  0  0  0  0  0  0  0  0  0  0  0
  -24.9334  -18.1529   17.8981 C   0  0  0  0  0  0  0  0  0  0  0  0
  -23.8225  -10.5253   21.0135 C   0  0  0  0  0  0  0  0  0  0  0  0
  -24.2093  -13.0414   20.8485 C   0  0  0  0  0  0  0  0  0  0  0  0
  -14.9653  -30.0529   15.9349 C   0  0  0  0  0  0  0  0  0  0  0  0
  -18.9800  -24.0463   18.8810 C   0  0  0  0  0  0  0  0  0  0  0  0
  -15.4260  -28.7230   15.8974 C   0  0  0  0  0  0  0  0  0  0  0  0
  -20.2676  -24.5948   18.9671 C   0  0  0  0  0  0  0  0  0  0  0  0
  -25.7099  -18.3425   16.7640 C   0  0  0  0  0  0  0  0  0  0  0  0
  -25.2415  -19.2665   15.8524 C   0  0  0  0  0  0  0  0  0  0  0  0
  -24.0462  -19.9479   16.0778 C   0  0  0  0  0  0  0  0  0  0  0  0
  -22.2585   -8.2523   21.4256 C   0  0  0  0  0  0  0  0  0  0  0  0
  -21.2053  -22.4788   18.2233 C   0  0  0  0  0  0  0  0  0  0  0  0
  -21.6456   -6.0892   20.7418 C   0  0  0  0  0  0  0  0  0  0  0  0
  -21.9448   -3.9645   18.9589 C   0  0  0  0  0  0  0  0  0  0  0  0
  -22.8860   -5.4670   20.6000 C   0  0  0  0  0  0  0  0  0  0  0  0
  -24.6308  -11.6991   20.8013 C   0  0  0  0  0  0  0  0  0  0  0  0
  -23.3361  -19.6861   17.2256 C   0  0  0  0  0  0  0  0  0  0  0  0
  -25.3442  -13.7672   20.5806 C   0  0  0  0  0  0  0  0  0  0  0  0
  -22.9083  -13.5838   21.1111 C   0  0  0  0  0  0  0  0  0  0  0  0
  -18.0316  -26.8552   17.7345 C   0  0  0  0  0  0  0  0  0  0  0  0
  -19.3319  -27.9779   20.4860 C   0  0  0  0  0  0  0  0  0  0  0  0
  -21.5506  -27.5226   23.0389 C   0  0  0  0  0  0  0  0  0  0  0  0
  -29.9632  -14.7132   17.8086 C   0  0  0  0  0  0  0  0  0  0  0  0
  -15.9071  -31.2133   16.1374 C   0  0  0  0  0  0  0  0  0  0  0  0
  -17.7765  -24.8647   19.2606 C   0  0  0  0  0  0  0  0  0  0  0  0
  -25.8313  -19.6528   14.5337 C   0  0  0  0  0  0  0  0  0  0  0  0
  -23.7137  -20.8541   14.9412 C   0  0  0  0  0  0  0  0  0  0  0  0
  -20.4958  -26.0175   19.4055 C   0  0  0  0  0  0  0  0  0  0  0  0
  -17.2586  -30.8065   16.7191 C   0  0  0  0  0  0  0  0  0  0  0  0
  -25.0797  -20.9626   14.2449 C   0  0  0  0  0  0  0  0  0  0  0  0
  -30.1888  -12.3589   20.3301 C   0  0  0  0  0  0  0  0  0  0  0  0
  -17.8110  -29.5888   15.9851 C   0  0  0  0  0  0  0  0  0  0  0  0
  -28.7308  -12.0768   20.6929 C   0  0  0  0  0  0  0  0  0  0  0  0
  -28.0406  -17.8707   17.6382 C   0  0  0  0  0  0  0  0  0  0  0  0
  -26.7453  -16.0521   16.4484 C   0  0  0  0  0  0  0  0  0  0  0  0
  -30.3613  -12.4878   18.8208 C   0  0  0  0  0  0  0  0  0  0  0  0
  -29.3205  -17.0655   17.4267 C   0  0  0  0  0  0  0  0  0  0  0  0
  -28.0536  -15.2893   16.2622 C   0  0  0  0  0  0  0  0  0  0  0  0
  -28.0269  -13.2584   18.5547 C   0  0  0  0  0  0  0  0  0  0  0  0
  -26.9963  -17.5670   16.5500 C   0  0  0  0  0  0  0  0  0  0  0  0
  -16.8797  -28.3807   16.1418 C   0  0  1  0  0  0  0  0  0  0  0  0
  -18.0184  -26.3673   19.1556 C   0  0  1  0  0  0  0  0  0  0  0  0
  -27.7943  -13.1289   20.0733 C   0  0  1  0  0  0  0  0  0  0  0  0
  -22.4147  -28.6294   25.1187 C   0  0  0  0  0  0  0  0  0  0  0  0
  -20.9791  -29.8960   18.7779 C   0  0  0  0  0  0  0  0  0  0  0  0
  -22.4615  -30.2770   20.7593 C   0  0  0  0  0  0  0  0  0  0  0  0
  -20.0485  -30.8997   20.8710 C   0  0  0  0  0  0  0  0  0  0  0  0
  -20.6333  -25.2878   24.7488 C   0  0  0  0  0  0  0  0  0  0  0  0
  -22.0430  -20.3743   17.4984 C   0  0  0  0  0  0  0  0  0  1  0  0
  -20.7011  -28.4573   20.9037 C   0  0  1  0  0  0  0  0  0  0  0  0
  -21.3968  -27.6572   24.5431 C   0  0  2  0  0  0  0  0  0  0  0  0
  -21.0435  -29.8563   20.3178 C   0  0  0  0  0  0  0  0  0  0  0  0
  -23.7629  -18.7984   18.1530 N   0  0  0  0  0  0  0  0  0  0  0  0
  -25.9318  -11.5765   20.5250 N   0  0  0  0  0  0  0  0  0  0  0  0
  -26.3377  -12.8512   20.3960 N   0  0  0  0  0  0  0  0  0  0  0  0
  -19.2869  -26.7792   19.7602 N   0  0  0  0  0  0  0  0  0  0  0  0
  -29.4506  -13.4913   18.2701 N   0  0  0  0  0  0  0  0  0  0  0  0
  -29.0366  -15.6367   17.2974 N   0  0  0  0  0  0  0  0  0  0  0  0
  -25.5792  -15.0933   20.4871 N   0  0  0  0  0  0  0  0  0  0  0  0
  -21.8539  -12.6967   21.3670 N   0  0  0  0  0  0  0  0  0  0  0  0
  -17.0461  -27.7804   17.4482 N   0  0  0  0  0  0  0  0  0  0  0  0
  -20.7277  -28.3971   22.3611 N   0  0  0  0  0  0  0  0  0  0  0  0
  -21.5846  -26.3344   25.2034 N   0  3  0  0  0  0  0  0  0  0  0  0
  -22.6840  -14.8179   21.1023 O   0  0  0  0  0  0  0  0  0  0  0  0
  -18.8745  -26.4251   16.9559 O   0  0  0  0  0  0  0  0  0  0  0  0
  -18.3384  -28.6389   20.7986 O   0  0  0  0  0  0  0  0  0  0  0  0
  -22.3260  -26.7243   22.5174 O   0  0  0  0  0  0  0  0  0  0  0  0
  -31.1731  -14.9682   17.8544 O   0  0  0  0  0  0  0  0  0  0  0  0
  -21.4953   -7.1434   21.6270 O   0  0  0  0  0  0  0  0  0  0  0  0
  -22.2960  -21.7162   17.8978 O   0  0  0  0  0  0  0  0  0  1  0  0
  -22.0879   -2.9433   18.1039 F   0  0  0  0  0  0  0  0  0  0  0  0
  -23.9373   -5.8848   21.3184 F   0  0  0  0  0  0  0  0  0  0  0  0
  1  2  1  0  0  0  0
  1  5  2  0  0  0  0
  2  6  2  0  0  0  0
  3  8  2  0  0  0  0
  3 16  1  0  0  0  0
  4  9  1  0  0  0  0
  4 16  2  0  0  0  0
  5 18  1  0  0  0  0
  6 20  1  0  0  0  0
  7 10  2  0  0  0  0
  7 19  1  0  0  0  0
  8 25  1  0  0  0  0
  9 25  2  0  0  0  0
 10 26  1  0  0  0  0
 11 12  2  0  0  0  0
 11 27  1  0  0  0  0
 12 28  1  0  0  0  0
 13 21  1  0  0  0  0
 13 26  2  0  0  0  0
 14 28  2  0  0  0  0
 14 29  1  0  0  0  0
 15 22  1  0  0  0  0
 15 67  2  0  0  0  0
 16 30  1  0  0  0  0
 17 30  1  0  0  0  0
 17 32  2  0  0  0  0
 17 33  1  0  0  0  0
 18 20  2  0  0  0  0
 18 38  1  0  0  0  0
 19 21  2  0  0  0  0
 19 39  1  0  0  0  0
 20 55  1  0  0  0  0
 21 42  1  0  0  0  0
 22 23  2  0  0  0  0
 22 54  1  0  0  0  0
 23 24  1  0  0  0  0
 23 40  1  0  0  0  0
 24 31  2  0  0  0  0
 24 41  1  0  0  0  0
 25 83  1  0  0  0  0
 26 84  1  0  0  0  0
 27 29  2  0  0  0  0
 27 83  1  0  0  0  0
 28 85  1  0  0  0  0
 29 86  1  0  0  0  0
 30 68  2  0  0  0  0
 31 63  1  0  0  0  0
 31 67  1  0  0  0  0
 32 69  1  0  0  0  0
 32 73  1  0  0  0  0
 33 74  1  0  0  0  0
 33 78  2  0  0  0  0
 34 56  1  0  0  0  0
 34 75  1  0  0  0  0
 34 79  2  0  0  0  0
 35 64  1  0  0  0  0
 35 70  1  0  0  0  0
 35 80  2  0  0  0  0
 36 65  1  0  0  0  0
 36 76  1  0  0  0  0
 36 81  2  0  0  0  0
 37 71  1  0  0  0  0
 37 72  1  0  0  0  0
 37 82  2  0  0  0  0
 38 43  1  0  0  0  0
 39 56  1  0  0  0  0
 40 44  1  0  0  0  0
 41 44  1  0  0  0  0
 42 70  1  0  0  0  0
 43 46  1  0  0  0  0
 45 47  1  0  0  0  0
 45 50  1  0  0  0  0
 46 55  1  0  0  0  0
 47 57  1  0  0  0  0
 48 51  1  0  0  0  0
 48 54  1  0  0  0  0
 49 52  1  0  0  0  0
 49 54  1  0  0  0  0
 50 71  1  0  0  0  0
 51 72  1  0  0  0  0
 52 72  1  0  0  0  0
 53 57  1  0  0  0  0
 53 71  1  0  0  0  0
 55 75  1  0  0  0  0
 56 70  1  0  0  0  0
 57 69  1  0  0  0  0
 58 65  1  0  0  0  0
 59 66  1  0  0  0  0
 60 66  1  0  0  0  0
 61 66  1  0  0  0  0
 62 77  1  0  0  0  0
 63 84  1  0  0  0  0
 64 66  1  0  0  0  0
 64 76  1  0  0  0  0
 65 77  1  0  0  0  0
 68 69  1  0  0  0  0
M  CHG  1  77   1
M  ISO  4  37 100  63 101  72 100  84 101
M  END
> <Batch ID>
0172

> <Smiles>
CNC(C)C(=O)NC(C(=O)N1Cc2cc([101O:1][101CH2:1]c3ncc(C4CC[100N:0]([100C:0](=O)N5CCCC(n6nc(-c7ccc(Oc8ccc(F)cc8F)cc7)c(C(N)=O)c6N)C5)CC4)c4c3CCC4)ccc2CC1C(=O)NC1CCCc2ccccc21)C(C)(C)C

> <Shape>
0.167

> <Color>
0.174

> <Negative vol penalty>
0.000

$$$$

  -OEChem-04052322403D

 86 96  0     1  0  0  0  0  0999 V2000
  -27.5219  -35.3973   24.4877 C   0  0  0  0  0  0  0  0  0  0  0  0
  -28.0964  -34.1488   24.2719 C   0  0  0  0  0  0  0  0  0  0  0  0
  -23.0465   -9.8117   19.9155 C   0  0  0  0  0  0  0  0  0  0  0  0
  -23.8778   -9.7375   22.1828 C   0  0  0  0  0  0  0  0  0  0  0  0
  -26.1444  -35.5628   24.3496 C   0  0  0  0  0  0  0  0  0  0  0  0
  -27.2935  -33.0647   23.9191 C   0  0  0  0  0  0  0  0  0  0  0  0
  -28.7750  -28.4517   20.1732 C   0  0  0  0  0  0  0  0  0  0  0  0
  -22.3243   -8.6401   20.1419 C   0  0  0  0  0  0  0  0  0  0  0  0
  -23.1555   -8.5659   22.4093 C   0  0  0  0  0  0  0  0  0  0  0  0
  -29.2264  -27.1550   20.4151 C   0  0  0  0  0  0  0  0  0  0  0  0
  -19.9573   -7.7035   23.0787 C   0  0  0  0  0  0  0  0  0  0  0  0
  -19.2379   -7.6074   24.2698 C   0  0  0  0  0  0  0  0  0  0  0  0
  -26.9639  -26.3390   20.2290 C   0  0  0  0  0  0  0  0  0  0  0  0
  -28.9644  -20.6877   22.5084 C   0  0  0  0  0  0  0  0  0  0  0  0
  -20.5242   -5.6584   24.8895 C   0  0  0  0  0  0  0  0  0  0  0  0
  -23.8233  -10.3604   20.9359 C   0  0  0  0  0  0  0  0  0  0  0  0
  -24.1319  -12.8925   20.9065 C   0  0  0  0  0  0  0  0  0  0  0  0
  -25.3254  -34.4823   23.9853 C   0  0  0  0  0  0  0  0  0  0  0  0
  -27.4109  -28.7038   19.9678 C   0  0  0  0  0  0  0  0  0  0  0  0
  -25.9036  -33.2155   23.7773 C   0  0  0  0  0  0  0  0  0  0  0  0
  -26.4981  -27.6395   19.9821 C   0  0  0  0  0  0  0  0  0  0  0  0
  -28.3313  -21.8997   22.2563 C   0  0  0  0  0  0  0  0  0  0  0  0
  -28.4463  -22.4904   21.0029 C   0  0  0  0  0  0  0  0  0  0  0  0
  -22.3787   -8.0172   21.3888 C   0  0  0  0  0  0  0  0  0  0  0  0
  -28.3205  -26.0988   20.4459 C   0  0  0  0  0  0  0  0  0  0  0  0
  -20.9601   -6.7769   22.7929 C   0  0  0  0  0  0  0  0  0  0  0  0
  -19.5214   -6.5850   25.1753 C   0  0  0  0  0  0  0  0  0  0  0  0
  -21.2435   -5.7545   23.6983 C   0  0  0  0  0  0  0  0  0  0  0  0
  -24.5701  -11.5703   20.7024 C   0  0  0  0  0  0  0  0  0  0  0  0
  -29.1999  -21.8338   20.0433 C   0  0  0  0  0  0  0  0  0  0  0  0
  -29.6947  -20.1118   21.4813 C   0  0  0  0  0  0  0  0  0  0  0  0
  -25.2034  -13.6698   20.5400 C   0  0  0  0  0  0  0  0  0  0  0  0
  -22.8693  -13.3750   21.3847 C   0  0  0  0  0  0  0  0  0  0  0  0
  -25.1952  -30.4169   21.4711 C   0  0  0  0  0  0  0  0  0  0  0  0
  -23.3717  -29.5723   18.9247 C   0  0  0  0  0  0  0  0  0  0  0  0
  -22.7936  -27.3780   16.3757 C   0  0  0  0  0  0  0  0  0  0  0  0
  -30.6702  -14.7618   20.5828 C   0  0  0  0  0  0  0  0  0  0  0  0
  -23.8357  -34.6990   23.8944 C   0  0  0  0  0  0  0  0  0  0  0  0
  -26.9434  -30.1045   19.6816 C   0  0  0  0  0  0  0  0  0  0  0  0
  -25.0259  -27.8542   19.7475 C   0  0  0  0  0  0  0  0  0  0  0  0
  -23.1023  -33.5850   23.1518 C   0  0  0  0  0  0  0  0  0  0  0  0
  -29.4963  -12.4478   18.1581 C   0  0  0  0  0  0  0  0  0  0  0  0
  -27.8641  -23.9587   23.7450 C   0  0  0  0  0  0  0  0  0  0  0  0
  -28.1984  -22.8264   24.6651 C   0  0  0  0  0  0  0  0  0  0  0  0
  -23.5728  -32.2185   23.6400 C   0  0  0  0  0  0  0  0  0  0  0  0
  -28.0755  -12.1199   18.6203 C   0  0  0  0  0  0  0  0  0  0  0  0
  -30.4455  -12.6330   19.3401 C   0  0  0  0  0  0  0  0  0  0  0  0
  -28.5790  -13.2842   20.8093 C   0  0  0  0  0  0  0  0  0  0  0  0
  -29.8821  -17.8952   22.6570 C   0  0  0  0  0  0  0  0  0  0  0  0
  -30.8476  -17.9844   20.7917 C   0  0  0  0  0  0  0  0  0  0  0  0
  -27.5365  -22.5455   23.3422 C   0  0  0  0  0  0  0  0  0  0  0  0
  -25.0691  -32.0210   23.3689 C   0  0  1  0  0  0  0  0  0  0  0  0
  -25.4659  -30.3173   19.9965 C   0  0  1  0  0  0  0  0  0  0  0  0
  -27.5715  -13.1440   19.6553 C   0  0  2  0  0  0  0  0  0  0  0  0
  -30.7678  -16.9081   21.8836 C   0  0  0  0  0  0  0  0  0  0  0  0
  -29.3600  -22.4192   18.6783 C   0  0  0  0  0  0  0  0  0  0  0  0
  -21.2066  -26.9297   14.4842 C   0  0  0  0  0  0  0  0  0  0  0  0
  -21.3029  -28.5302   20.9107 C   0  0  0  0  0  0  0  0  0  0  0  0
  -20.2314  -27.2739   19.0287 C   0  0  0  0  0  0  0  0  0  0  0  0
  -20.3451  -29.7648   18.9581 C   0  0  0  0  0  0  0  0  0  0  0  0
  -24.9443  -27.6294   14.3583 C   0  0  0  0  0  0  0  0  0  0  0  0
  -27.7755  -23.7979   20.7000 C   0  0  0  0  0  0  0  0  0  1  0  0
  -22.4546  -28.4173   18.6027 C   0  0  1  0  0  0  0  0  0  0  0  0
  -22.5066  -27.5995   14.9016 C   0  0  2  0  0  0  0  0  0  0  0  0
  -21.1109  -28.4924   19.3814 C   0  0  0  0  0  0  0  0  0  0  0  0
  -25.8222  -11.5074   20.2418 N   0  0  0  0  0  0  0  0  0  0  0  0
  -29.8294  -20.6556   20.2509 N   0  0  0  0  0  0  0  0  0  0  0  0
  -26.1800  -12.7998   20.1534 N   0  0  0  0  0  0  0  0  0  0  0  0
  -30.3329  -18.8760   21.7525 N   0  0  0  0  0  0  0  0  0  0  0  0
  -24.6170  -29.2427   19.4781 N   0  0  0  0  0  0  0  0  0  0  0  0
  -29.9097  -13.6215   20.2794 N   0  0  0  0  0  0  0  0  0  0  0  0
  -25.3959  -15.0057   20.5139 N   0  0  0  0  0  0  0  0  0  0  0  0
  -21.8790  -12.4402   21.7164 N   0  0  0  0  0  0  0  0  0  0  0  0
  -25.2923  -31.6996   21.9756 N   0  0  0  0  0  0  0  0  0  0  0  0
  -22.3044  -28.4076   17.1515 N   0  0  0  0  0  0  0  0  0  0  0  0
  -30.0927  -15.6591   21.4751 N   0  0  0  0  0  0  0  0  0  0  0  0
  -23.6105  -27.0425   14.0696 N   0  3  0  0  0  0  0  0  0  0  0  0
  -22.6207  -14.5992   21.4985 O   0  0  0  0  0  0  0  0  0  0  0  0
  -24.9173  -29.4050   22.1040 O   0  0  0  0  0  0  0  0  0  0  0  0
  -22.9997  -30.7243   18.6872 O   0  0  0  0  0  0  0  0  0  0  0  0
  -23.3887  -26.3887   16.7972 O   0  0  0  0  0  0  0  0  0  0  0  0
  -31.7834  -14.9759   20.0907 O   0  0  0  0  0  0  0  0  0  0  0  0
  -21.6739   -6.8741   21.6102 O   0  0  0  0  0  0  0  0  0  0  0  0
  -28.7584  -24.8323   20.6824 O   0  0  0  0  0  0  0  0  0  1  0  0
  -18.8315   -6.4938   26.3198 F   0  0  0  0  0  0  0  0  0  0  0  0
  -22.2066   -4.8621   23.4298 F   0  0  0  0  0  0  0  0  0  0  0  0
  1  2  1  0  0  0  0
  1  5  2  0  0  0  0
  2  6  2  0  0  0  0
  3  8  2  0  0  0  0
  3 16  1  0  0  0  0
  4  9  1  0  0  0  0
  4 16  2  0  0  0  0
  5 18  1  0  0  0  0
  6 20  1  0  0  0  0
  7 10  2  0  0  0  0
  7 19  1  0  0  0  0
  8 24  1  0  0  0  0
  9 24  2  0  0  0  0
 10 25  1  0  0  0  0
 11 12  2  0  0  0  0
 11 26  1  0  0  0  0
 12 27  1  0  0  0  0
 13 21  1  0  0  0  0
 13 25  2  0  0  0  0
 14 22  2  0  0  0  0
 14 31  1  0  0  0  0
 15 27  2  0  0  0  0
 15 28  1  0  0  0  0
 16 29  1  0  0  0  0
 17 29  1  0  0  0  0
 17 32  2  0  0  0  0
 17 33  1  0  0  0  0
 18 20  2  0  0  0  0
 18 38  1  0  0  0  0
 19 21  2  0  0  0  0
 19 39  1  0  0  0  0
 20 52  1  0  0  0  0
 21 40  1  0  0  0  0
 22 23  1  0  0  0  0
 22 51  1  0  0  0  0
 23 30  2  0  0  0  0
 23 62  1  0  0  0  0
 24 83  1  0  0  0  0
 25 84  1  0  0  0  0
 26 28  2  0  0  0  0
 26 83  1  0  0  0  0
 27 85  1  0  0  0  0
 28 86  1  0  0  0  0
 29 66  2  0  0  0  0
 30 56  1  0  0  0  0
 30 67  1  0  0  0  0
 31 67  2  0  0  0  0
 31 69  1  0  0  0  0
 32 68  1  0  0  0  0
 32 72  1  0  0  0  0
 33 73  1  0  0  0  0
 33 78  2  0  0  0  0
 34 53  1  0  0  0  0
 34 74  1  0  0  0  0
 34 79  2  0  0  0  0
 35 63  1  0  0  0  0
 35 70  1  0  0  0  0
 35 80  2  0  0  0  0
 36 64  1  0  0  0  0
 36 75  1  0  0  0  0
 36 81  2  0  0  0  0
 37 71  1  0  0  0  0
 37 76  1  0  0  0  0
 37 82  2  0  0  0  0
 38 41  1  0  0  0  0
 39 53  1  0  0  0  0
 40 70  1  0  0  0  0
 41 45  1  0  0  0  0
 42 46  1  0  0  0  0
 42 47  1  0  0  0  0
 43 44  1  0  0  0  0
 43 51  1  0  0  0  0
 44 51  1  0  0  0  0
 45 52  1  0  0  0  0
 46 54  1  0  0  0  0
 47 71  1  0  0  0  0
 48 54  1  0  0  0  0
 48 71  1  0  0  0  0
 49 55  1  0  0  0  0
 49 69  1  0  0  0  0
 50 55  1  0  0  0  0
 50 69  1  0  0  0  0
 52 74  1  0  0  0  0
 53 70  1  0  0  0  0
 54 68  1  0  0  0  0
 55 76  1  0  0  0  0
 57 64  1  0  0  0  0
 58 65  1  0  0  0  0
 59 65  1  0  0  0  0
 60 65  1  0  0  0  0
 61 77  1  0  0  0  0
 62 84  1  0  0  0  0
 63 65  1  0  0  0  0
 63 75  1  0  0  0  0
 64 77  1  0  0  0  0
 66 68  1  0  0  0  0
M  CHG  1  77   1
M  ISO  4  37 100  62 101  76 100  84 101
M  END
> <Batch ID>
0172

> <Smiles>
CNC(C)C(=O)NC(C(=O)N1Cc2cc([101O:1][101CH2:1]c3c(C4CC4)cc(N4CC([100NH:0][100C:0](=O)N5CCCC(n6nc(-c7ccc(Oc8ccc(F)cc8F)cc7)c(C(N)=O)c6N)C5)C4)nc3C)ccc2CC1C(=O)NC1CCCc2ccccc21)C(C)(C)C

> <Shape>
0.375

> <Color>
0.221

> <Negative vol penalty>
0.000

$$$$

  -OEChem-04052322403D

 92103  0     1  0  0  0  0  0999 V2000
  -16.7380  -28.2094   24.0683 C   0  0  0  0  0  0  0  0  0  0  0  0
  -17.4136  -27.8814   22.8972 C   0  0  0  0  0  0  0  0  0  0  0  0
  -27.6921  -10.7555   21.2046 C   0  0  0  0  0  0  0  0  0  0  0  0
  -28.1871  -12.2285   19.3547 C   0  0  0  0  0  0  0  0  0  0  0  0
  -16.9854  -29.4295   24.6960 C   0  0  0  0  0  0  0  0  0  0  0  0
  -18.3362  -28.7739   22.3526 C   0  0  0  0  0  0  0  0  0  0  0  0
  -25.2052  -26.8518   21.3452 C   0  0  0  0  0  0  0  0  0  0  0  0
  -28.9259  -10.1275   21.0347 C   0  0  0  0  0  0  0  0  0  0  0  0
  -29.4210  -11.6006   19.1849 C   0  0  0  0  0  0  0  0  0  0  0  0
  -26.4860  -26.4910   20.9264 C   0  0  0  0  0  0  0  0  0  0  0  0
  -32.4708  -11.6706   20.6390 C   0  0  0  0  0  0  0  0  0  0  0  0
  -33.5881  -12.4825   20.4440 C   0  0  0  0  0  0  0  0  0  0  0  0
  -27.0689  -21.4740   16.1345 C   0  0  0  0  0  0  0  0  0  0  0  0
  -26.8852  -28.7512   20.1646 C   0  0  0  0  0  0  0  0  0  0  0  0
  -33.9728  -11.4381   18.2996 C   0  0  0  0  0  0  0  0  0  0  0  0
  -26.6432  -20.2503   14.1188 C   0  0  0  0  0  0  0  0  0  0  0  0
  -27.3227  -11.8060   20.3645 C   0  0  0  0  0  0  0  0  0  0  0  0
  -24.7740  -11.8615   20.4578 C   0  0  0  0  0  0  0  0  0  0  0  0
  -17.9186  -30.3333   24.1640 C   0  0  0  0  0  0  0  0  0  0  0  0
  -24.7646  -28.1690   21.1891 C   0  0  0  0  0  0  0  0  0  0  0  0
  -18.5954  -30.0078   22.9730 C   0  0  0  0  0  0  0  0  0  0  0  0
  -26.4480  -20.4060   15.4905 C   0  0  0  0  0  0  0  0  0  0  0  0
  -27.8520  -22.3234   15.3775 C   0  0  0  0  0  0  0  0  0  0  0  0
  -25.6078  -29.1214   20.5936 C   0  0  0  0  0  0  0  0  0  0  0  0
  -29.7904  -10.5500   20.0249 C   0  0  0  0  0  0  0  0  0  0  0  0
  -27.3238  -27.4383   20.3373 C   0  0  0  0  0  0  0  0  0  0  0  0
  -32.1045  -10.7424   19.6643 C   0  0  0  0  0  0  0  0  0  0  0  0
  -34.3391  -12.3663   19.2743 C   0  0  0  0  0  0  0  0  0  0  0  0
  -32.8555  -10.6261   18.4946 C   0  0  0  0  0  0  0  0  0  0  0  0
  -26.0480  -12.4548   20.5391 C   0  0  0  0  0  0  0  0  0  0  0  0
  -27.9815  -22.0807   14.0251 C   0  0  0  0  0  0  0  0  0  0  0  0
  -23.8991  -12.8926   20.6985 C   0  0  0  0  0  0  0  0  0  0  0  0
  -24.4135  -10.5001   20.1887 C   0  0  0  0  0  0  0  0  0  0  0  0
  -22.0013  -30.6558   21.6954 C   0  0  0  0  0  0  0  0  0  0  0  0
  -24.6282  -32.0959   22.3556 C   0  0  0  0  0  0  0  0  0  0  0  0
  -27.0560  -34.1360   23.6131 C   0  0  0  0  0  0  0  0  0  0  0  0
  -24.1149  -18.7194   20.0297 C   0  0  0  0  0  0  0  0  0  0  0  0
  -18.1178  -31.6604   24.8523 C   0  0  0  0  0  0  0  0  0  0  0  0
  -23.3704  -28.5878   21.5695 C   0  0  0  0  0  0  0  0  0  0  0  0
  -25.0788  -30.5182   20.4144 C   0  0  0  0  0  0  0  0  0  0  0  0
  -28.8418  -23.1280   13.4143 C   0  0  0  0  0  0  0  0  0  0  0  0
  -19.3858  -32.3892   24.4149 C   0  0  0  0  0  0  0  0  0  0  0  0
  -23.5524  -17.0592   23.0089 C   0  0  0  0  0  0  0  0  0  0  0  0
  -19.5130  -32.3737   22.8949 C   0  0  0  0  0  0  0  0  0  0  0  0
  -23.9998  -15.6271   22.7169 C   0  0  0  0  0  0  0  0  0  0  0  0
  -26.3708  -18.6769   17.3415 C   0  0  0  0  0  0  0  0  0  0  0  0
  -24.3488  -20.1298   16.8833 C   0  0  0  0  0  0  0  0  0  0  0  0
  -29.6141  -23.2980   16.9002 C   0  0  0  0  0  0  0  0  0  0  0  0
  -27.7134  -24.7376   16.0476 C   0  0  0  0  0  0  0  0  0  0  0  0
  -24.5102  -18.0679   22.3855 C   0  0  0  0  0  0  0  0  0  0  0  0
  -25.4773  -17.7232   18.1397 C   0  0  0  0  0  0  0  0  0  0  0  0
  -23.5012  -19.1319   17.6671 C   0  0  0  0  0  0  0  0  0  0  0  0
  -25.1371  -16.4709   20.6038 C   0  0  0  0  0  0  0  0  0  0  0  0
  -30.3856  -24.5588   17.2744 C   0  0  0  0  0  0  0  0  0  0  0  0
  -28.5026  -25.9845   16.4316 C   0  0  0  0  0  0  0  0  0  0  0  0
  -25.5753  -19.4356   16.2640 C   0  0  0  0  0  0  0  0  0  0  0  0
  -19.6218  -30.9388   22.3650 C   0  0  1  0  0  0  0  0  0  0  0  0
  -23.2991  -30.0272   22.1102 C   0  0  1  0  0  0  0  0  0  0  0  0
  -24.1977  -15.4067   21.2068 C   0  0  1  0  0  0  0  0  0  0  0  0
  -28.6285  -23.5408   15.7509 C   0  0  0  0  0  0  0  0  0  0  0  0
  -27.6204  -36.5599   23.9348 C   0  0  0  0  0  0  0  0  0  0  0  0
  -25.3166  -32.3249   19.3929 C   0  0  0  0  0  0  0  0  0  0  0  0
  -26.7115  -34.3294   19.9447 C   0  0  0  0  0  0  0  0  0  0  0  0
  -24.2552  -34.3638   20.3783 C   0  0  0  0  0  0  0  0  0  0  0  0
  -27.1590  -33.8412   26.5562 C   0  0  0  0  0  0  0  0  0  0  0  0
  -30.1183  -26.8966   18.0954 C   0  0  0  0  0  0  0  0  0  0  0  0
  -29.1254  -27.7819   18.8223 C   0  0  0  0  0  0  0  0  0  1  0  0
  -25.7551  -32.9640   21.8557 C   0  0  1  0  0  0  0  0  0  0  0  0
  -26.9851  -35.3249   24.5544 C   0  0  2  0  0  0  0  0  0  0  0  0
  -25.5145  -33.4705   20.4055 C   0  0  0  0  0  0  0  0  0  0  0  0
  -27.4017  -21.0719   13.3550 N   0  0  0  0  0  0  0  0  0  0  0  0
  -25.9920  -13.7614   20.8102 N   0  0  0  0  0  0  0  0  0  0  0  0
  -24.6721  -13.9978   20.9011 N   0  0  0  0  0  0  0  0  0  0  0  0
  -24.3484  -30.9373   21.6208 N   0  0  0  0  0  0  0  0  0  0  0  0
  -24.6744  -17.8231   20.9528 N   0  0  0  0  0  0  0  0  0  0  0  0
  -24.3042  -18.4322   18.6695 N   0  0  0  0  0  0  0  0  0  0  0  0
  -22.5516  -12.9526   20.7543 N   0  0  0  0  0  0  0  0  0  0  0  0
  -24.2069  -10.1143   18.8573 N   0  0  0  0  0  0  0  0  0  0  0  0
  -20.9583  -30.4237   22.5716 N   0  0  0  0  0  0  0  0  0  0  0  0
  -25.9189  -34.0276   22.8407 N   0  0  0  0  0  0  0  0  0  0  0  0
  -29.4123  -25.6672   17.5928 N   0  3  0  0  0  0  0  0  0  0  0  0
  -27.6956  -35.0199   25.8284 N   0  3  0  0  0  0  0  0  0  0  0  0
  -24.2627   -9.6549   21.1033 O   0  0  0  0  0  0  0  0  0  0  0  0
  -21.9491  -31.3052   20.6575 O   0  0  0  0  0  0  0  0  0  0  0  0
  -24.0075  -32.4364   23.3666 O   0  0  0  0  0  0  0  0  0  0  0  0
  -28.0248  -33.3812   23.5651 O   0  0  0  0  0  0  0  0  0  0  0  0
  -23.4826  -19.7172   20.3983 O   0  0  0  0  0  0  0  0  0  0  0  0
  -29.4010  -23.8303   14.5476 O   0  0  0  0  0  0  0  0  0  0  0  0
  -30.9945   -9.9376   19.8590 O   0  0  0  0  0  0  0  0  0  0  0  0
  -28.5836  -27.0778   19.9320 O   0  0  0  0  0  0  0  0  0  1  0  0
  -35.4111  -13.1471   19.0865 F   0  0  0  0  0  0  0  0  0  0  0  0
  -32.5078   -9.7370   17.5542 F   0  0  0  0  0  0  0  0  0  0  0  0
  1  2  1  0  0  0  0
  1  5  2  0  0  0  0
  2  6  2  0  0  0  0
  3  8  2  0  0  0  0
  3 17  1  0  0  0  0
  4  9  1  0  0  0  0
  4 17  2  0  0  0  0
  5 19  1  0  0  0  0
  6 21  1  0  0  0  0
  7 10  2  0  0  0  0
  7 20  1  0  0  0  0
  8 25  1  0  0  0  0
  9 25  2  0  0  0  0
 10 26  1  0  0  0  0
 11 12  2  0  0  0  0
 11 27  1  0  0  0  0
 12 28  1  0  0  0  0
 13 22  2  0  0  0  0
 13 23  1  0  0  0  0
 14 24  1  0  0  0  0
 14 26  2  0  0  0  0
 15 28  2  0  0  0  0
 15 29  1  0  0  0  0
 16 22  1  0  0  0  0
 16 71  2  0  0  0  0
 17 30  1  0  0  0  0
 18 30  1  0  0  0  0
 18 32  2  0  0  0  0
 18 33  1  0  0  0  0
 19 21  2  0  0  0  0
 19 38  1  0  0  0  0
 20 24  2  0  0  0  0
 20 39  1  0  0  0  0
 21 57  1  0  0  0  0
 22 56  1  0  0  0  0
 23 31  2  0  0  0  0
 23 60  1  0  0  0  0
 24 40  1  0  0  0  0
 25 89  1  0  0  0  0
 26 90  1  0  0  0  0
 27 29  2  0  0  0  0
 27 89  1  0  0  0  0
 28 91  1  0  0  0  0
 29 92  1  0  0  0  0
 30 72  2  0  0  0  0
 31 41  1  0  0  0  0
 31 71  1  0  0  0  0
 32 73  1  0  0  0  0
 32 77  1  0  0  0  0
 33 78  1  0  0  0  0
 33 83  2  0  0  0  0
 34 58  1  0  0  0  0
 34 79  1  0  0  0  0
 34 84  2  0  0  0  0
 35 68  1  0  0  0  0
 35 74  1  0  0  0  0
 35 85  2  0  0  0  0
 36 69  1  0  0  0  0
 36 80  1  0  0  0  0
 36 86  2  0  0  0  0
 37 75  1  0  0  0  0
 37 76  1  0  0  0  0
 37 87  2  0  0  0  0
 38 42  1  0  0  0  0
 39 58  1  0  0  0  0
 40 74  1  0  0  0  0
 41 88  1  0  0  0  0
 42 44  1  0  0  0  0
 43 45  1  0  0  0  0
 43 50  1  0  0  0  0
 44 57  1  0  0  0  0
 45 59  1  0  0  0  0
 46 51  1  0  0  0  0
 46 56  1  0  0  0  0
 47 52  1  0  0  0  0
 47 56  1  0  0  0  0
 48 54  1  0  0  0  0
 48 60  1  0  0  0  0
 49 55  1  0  0  0  0
 49 60  1  0  0  0  0
 50 75  1  0  0  0  0
 51 76  1  0  0  0  0
 52 76  1  0  0  0  0
 53 59  1  0  0  0  0
 53 75  1  0  0  0  0
 54 81  1  0  0  0  0
 55 81  1  0  0  0  0
 57 79  1  0  0  0  0
 58 74  1  0  0  0  0
 59 73  1  0  0  0  0
 60 88  1  0  0  0  0
 61 69  1  0  0  0  0
 62 70  1  0  0  0  0
 63 70  1  0  0  0  0
 64 70  1  0  0  0  0
 65 82  1  0  0  0  0
 66 67  1  0  0  0  0
 66 81  1  0  0  0  0
 67 90  1  0  0  0  0
 68 70  1  0  0  0  0
 68 80  1  0  0  0  0
 69 82  1  0  0  0  0
 72 73  1  0  0  0  0
M  CHG  2  81   1  82   1
M  ISO  4  37 100  67 101  76 100  90 101
M  END
> <Batch ID>
0172

> <Smiles>
CNC(C)C(=O)NC(C(=O)N1Cc2cc([101O:1][101CH2:1]CN3CCC4(CC3)OCc3ncc(C5CC[100N:0]([100C:0](=O)N6CCCC(n7nc(-c8ccc(Oc9ccc(F)cc9F)cc8)c(C(N)=O)c7N)C6)CC5)cc34)ccc2CC1C(=O)NC1CCCc2ccccc21)C(C)(C)C

> <Shape>
0.236

> <Color>
0.094

> <Negative vol penalty>
0.000

$$$$

  -OEChem-04052322403D

 88 97  0     1  0  0  0  0  0999 V2000
  -29.1814  -30.6270   26.8101 C   0  0  0  0  0  0  0  0  0  0  0  0
  -29.0598  -29.4926   26.0139 C   0  0  0  0  0  0  0  0  0  0  0  0
  -23.0793  -10.7300   21.1920 C   0  0  0  0  0  0  0  0  0  0  0  0
  -24.1877   -8.6040   21.4899 C   0  0  0  0  0  0  0  0  0  0  0  0
  -28.0981  -31.4918   26.9595 C   0  0  0  0  0  0  0  0  0  0  0  0
  -27.8543  -29.2219   25.3675 C   0  0  0  0  0  0  0  0  0  0  0  0
  -28.5081  -27.8137   20.5473 C   0  0  0  0  0  0  0  0  0  0  0  0
  -21.8955  -10.0675   20.8676 C   0  0  0  0  0  0  0  0  0  0  0  0
  -23.0038   -7.9414   21.1655 C   0  0  0  0  0  0  0  0  0  0  0  0
  -28.9178  -26.5010   20.3174 C   0  0  0  0  0  0  0  0  0  0  0  0
  -20.1778   -5.6890   20.7674 C   0  0  0  0  0  0  0  0  0  0  0  0
  -19.7981   -4.6100   21.5655 C   0  0  0  0  0  0  0  0  0  0  0  0
  -26.6427  -25.8877   19.8009 C   0  0  0  0  0  0  0  0  0  0  0  0
  -19.7154   -6.0645   23.4928 C   0  0  0  0  0  0  0  0  0  0  0  0
  -24.2254   -9.9983   21.5031 C   0  0  0  0  0  0  0  0  0  0  0  0
  -25.8754  -11.0837   23.1177 C   0  0  0  0  0  0  0  0  0  0  0  0
  -26.8817  -31.2367   26.3068 C   0  0  0  0  0  0  0  0  0  0  0  0
  -27.1585  -28.1714   20.4161 C   0  0  0  0  0  0  0  0  0  0  0  0
  -26.7532  -30.0835   25.5094 C   0  0  0  0  0  0  0  0  0  0  0  0
  -26.2188  -27.2061   20.0272 C   0  0  0  0  0  0  0  0  0  0  0  0
  -30.6629  -20.6026   18.6193 C   0  0  0  0  0  0  0  0  0  0  0  0
  -30.6415  -22.0075   18.4376 C   0  0  0  0  0  0  0  0  0  0  0  0
  -21.8578   -8.6732   20.8544 C   0  0  0  0  0  0  0  0  0  0  0  0
  -27.9846  -25.5372   19.9470 C   0  0  0  0  0  0  0  0  0  0  0  0
  -20.3264   -6.9559   21.3320 C   0  0  0  0  0  0  0  0  0  0  0  0
  -19.5668   -4.7977   22.9281 C   0  0  0  0  0  0  0  0  0  0  0  0
  -20.0952   -7.1436   22.6947 C   0  0  0  0  0  0  0  0  0  0  0  0
  -25.4488  -10.6821   21.8377 C   0  0  0  0  0  0  0  0  0  0  0  0
  -30.0814  -20.3367   19.8393 C   0  0  0  0  0  0  0  0  0  0  0  0
  -30.0477  -22.5573   19.5523 C   0  0  0  0  0  0  0  0  0  0  0  0
  -27.0907  -11.6859   22.9013 C   0  0  0  0  0  0  0  0  0  0  0  0
  -25.2309  -10.9263   24.3887 C   0  0  0  0  0  0  0  0  0  0  0  0
  -24.9384  -29.3110   22.3849 C   0  0  0  0  0  0  0  0  0  0  0  0
  -23.1801  -29.5004   19.6655 C   0  0  0  0  0  0  0  0  0  0  0  0
  -22.6316  -28.3868   16.4866 C   0  0  0  0  0  0  0  0  0  0  0  0
  -30.4537  -14.9808   20.0989 C   0  0  0  0  0  0  0  0  0  0  0  0
  -25.7238  -32.1754   26.5364 C   0  0  0  0  0  0  0  0  0  0  0  0
  -26.7369  -29.5975   20.6416 C   0  0  0  0  0  0  0  0  0  0  0  0
  -24.7613  -27.5434   19.8529 C   0  0  0  0  0  0  0  0  0  0  0  0
  -24.5986  -32.0154   25.5173 C   0  0  0  0  0  0  0  0  0  0  0  0
  -30.0317  -11.8068   18.7966 C   0  0  0  0  0  0  0  0  0  0  0  0
  -24.2631  -30.5405   25.3199 C   0  0  0  0  0  0  0  0  0  0  0  0
  -28.8371  -11.2518   19.5720 C   0  0  0  0  0  0  0  0  0  0  0  0
  -28.8902  -18.1023   19.7396 C   0  0  0  0  0  0  0  0  0  0  0  0
  -31.1553  -18.2788   20.8566 C   0  0  0  0  0  0  0  0  0  0  0  0
  -29.8115  -13.2695   18.4286 C   0  0  0  0  0  0  0  0  0  0  0  0
  -28.6764  -16.7551   20.4358 C   0  0  0  0  0  0  0  0  0  0  0  0
  -30.8781  -16.9452   21.5444 C   0  0  0  0  0  0  0  0  0  0  0  0
  -28.3403  -13.6094   20.3878 C   0  0  0  0  0  0  0  0  0  0  0  0
  -25.4697  -29.7687   24.7721 C   0  0  1  0  0  0  0  0  0  0  0  0
  -29.8397  -19.0126   20.5391 C   0  0  0  0  0  0  0  0  0  0  0  0
  -25.2557  -29.7364   20.9792 C   0  0  1  0  0  0  0  0  0  0  0  0
  -28.5132  -12.1313   20.7926 C   0  0  1  0  0  0  0  0  0  0  0  0
  -31.2067  -19.6044   17.6754 C   0  0  0  0  0  0  0  0  0  0  0  0
  -31.1623  -22.7490   17.2707 C   0  0  0  0  0  0  0  0  0  0  0  0
  -21.0979  -28.7029   14.5257 C   0  0  0  0  0  0  0  0  0  0  0  0
  -29.3057  -21.7564   24.2179 C   0  0  0  0  0  0  0  0  0  0  0  0
  -31.1314  -22.6379   22.7497 C   0  0  0  0  0  0  0  0  0  0  0  0
  -21.0200  -27.8912   21.0988 C   0  0  0  0  0  0  0  0  0  0  0  0
  -19.9803  -27.4316   18.8681 C   0  0  0  0  0  0  0  0  0  0  0  0
  -20.1600  -29.7768   19.6990 C   0  0  0  0  0  0  0  0  0  0  0  0
  -24.8544  -29.2666   14.7418 C   0  0  0  0  0  0  0  0  0  0  0  0
  -29.7737  -23.9714   19.8866 C   0  0  0  0  0  0  0  0  0  1  0  0
  -29.0665  -21.6894   21.6844 C   0  0  0  0  0  0  0  0  0  0  0  0
  -22.2450  -28.5711   18.9301 C   0  0  1  0  0  0  0  0  0  0  0  0
  -22.3999  -29.1316   15.1843 C   0  0  2  0  0  0  0  0  0  0  0  0
  -30.0293  -21.5848   22.8805 C   0  0  0  0  0  0  0  0  0  0  0  0
  -20.8784  -28.4106   19.6541 C   0  0  0  0  0  0  0  0  0  0  0  0
  -26.3219  -11.0024   20.8790 N   0  0  0  0  0  0  0  0  0  0  0  0
  -29.7116  -21.5324   20.3977 N   0  0  0  0  0  0  0  0  0  0  0  0
  -27.3094  -11.6117   21.5571 N   0  0  0  0  0  0  0  0  0  0  0  0
  -24.3974  -28.9499   20.0910 N   0  0  0  0  0  0  0  0  0  0  0  0
  -29.5031  -14.0703   19.6132 N   0  0  0  0  0  0  0  0  0  0  0  0
  -29.9652  -16.1232   20.7505 N   0  0  0  0  0  0  0  0  0  0  0  0
  -27.9829  -12.2666   23.7316 N   0  0  0  0  0  0  0  0  0  0  0  0
  -23.9859  -10.2841   24.4315 N   0  0  0  0  0  0  0  0  0  0  0  0
  -25.6261  -30.0152   23.3546 N   0  0  0  0  0  0  0  0  0  0  0  0
  -22.1433  -29.0871   17.5693 N   0  0  0  0  0  0  0  0  0  0  0  0
  -23.5164  -28.8703   14.2323 N   0  3  0  0  0  0  0  0  0  0  0  0
  -25.7362  -11.3574   25.4528 O   0  0  0  0  0  0  0  0  0  0  0  0
  -24.1284  -28.4114   22.5755 O   0  0  0  0  0  0  0  0  0  0  0  0
  -22.8459  -30.6736   19.8493 O   0  0  0  0  0  0  0  0  0  0  0  0
  -23.1868  -27.2915   16.5378 O   0  0  0  0  0  0  0  0  0  0  0  0
  -31.6676  -14.7848   19.9596 O   0  0  0  0  0  0  0  0  0  0  0  0
  -20.7027   -8.0263   20.5381 O   0  0  0  0  0  0  0  0  0  0  0  0
  -28.3839  -24.2480   19.7214 O   0  0  0  0  0  0  0  0  0  1  0  0
  -19.2007   -3.7617   23.6941 F   0  0  0  0  0  0  0  0  0  0  0  0
  -20.2352   -8.3586   23.2425 F   0  0  0  0  0  0  0  0  0  0  0  0
  1  2  1  0  0  0  0
  1  5  2  0  0  0  0
  2  6  2  0  0  0  0
  3  8  2  0  0  0  0
  3 15  1  0  0  0  0
  4  9  1  0  0  0  0
  4 15  2  0  0  0  0
  5 17  1  0  0  0  0
  6 19  1  0  0  0  0
  7 10  2  0  0  0  0
  7 18  1  0  0  0  0
  8 23  1  0  0  0  0
  9 23  2  0  0  0  0
 10 24  1  0  0  0  0
 11 12  2  0  0  0  0
 11 25  1  0  0  0  0
 12 26  1  0  0  0  0
 13 20  1  0  0  0  0
 13 24  2  0  0  0  0
 14 26  2  0  0  0  0
 14 27  1  0  0  0  0
 15 28  1  0  0  0  0
 16 28  1  0  0  0  0
 16 31  2  0  0  0  0
 16 32  1  0  0  0  0
 17 19  2  0  0  0  0
 17 37  1  0  0  0  0
 18 20  2  0  0  0  0
 18 38  1  0  0  0  0
 19 50  1  0  0  0  0
 20 39  1  0  0  0  0
 21 22  1  0  0  0  0
 21 29  2  0  0  0  0
 21 54  1  0  0  0  0
 22 30  2  0  0  0  0
 22 55  1  0  0  0  0
 23 85  1  0  0  0  0
 24 86  1  0  0  0  0
 25 27  2  0  0  0  0
 25 85  1  0  0  0  0
 26 87  1  0  0  0  0
 27 88  1  0  0  0  0
 28 69  2  0  0  0  0
 29 51  1  0  0  0  0
 29 70  1  0  0  0  0
 30 63  1  0  0  0  0
 30 70  1  0  0  0  0
 31 71  1  0  0  0  0
 31 75  1  0  0  0  0
 32 76  1  0  0  0  0
 32 80  2  0  0  0  0
 33 52  1  0  0  0  0
 33 77  1  0  0  0  0
 33 81  2  0  0  0  0
 34 65  1  0  0  0  0
 34 72  1  0  0  0  0
 34 82  2  0  0  0  0
 35 66  1  0  0  0  0
 35 78  1  0  0  0  0
 35 83  2  0  0  0  0
 36 73  1  0  0  0  0
 36 74  1  0  0  0  0
 36 84  2  0  0  0  0
 37 40  1  0  0  0  0
 38 52  1  0  0  0  0
 39 72  1  0  0  0  0
 40 42  1  0  0  0  0
 41 43  1  0  0  0  0
 41 46  1  0  0  0  0
 42 50  1  0  0  0  0
 43 53  1  0  0  0  0
 44 47  1  0  0  0  0
 44 51  1  0  0  0  0
 45 48  1  0  0  0  0
 45 51  1  0  0  0  0
 46 73  1  0  0  0  0
 47 74  1  0  0  0  0
 48 74  1  0  0  0  0
 49 53  1  0  0  0  0
 49 73  1  0  0  0  0
 50 77  1  0  0  0  0
 52 72  1  0  0  0  0
 53 71  1  0  0  0  0
 56 66  1  0  0  0  0
 57 67  1  0  0  0  0
 58 67  1  0  0  0  0
 59 68  1  0  0  0  0
 60 68  1  0  0  0  0
 61 68  1  0  0  0  0
 62 79  1  0  0  0  0
 63 86  1  0  0  0  0
 64 67  1  0  0  0  0
 64 70  1  0  0  0  0
 65 68  1  0  0  0  0
 65 78  1  0  0  0  0
 66 79  1  0  0  0  0
 69 71  1  0  0  0  0
M  CHG  1  79   1
M  ISO  4  36 100  63 101  74 100  86 101
M  END
> <Batch ID>
0172

> <Smiles>
CNC(C)C(=O)NC(C(=O)N1Cc2cc([101O:1][101CH2:1]c3c(C)c(C)c(C4CC[100N:0]([100C:0](=O)N5CCCC(n6nc(-c7ccc(Oc8ccc(F)cc8F)cc7)c(C(N)=O)c6N)C5)CC4)n3CC(C)C)ccc2CC1C(=O)NC1CCCc2ccccc21)C(C)(C)C

> <Shape>
0.299

> <Color>
0.093

> <Negative vol penalty>
0.000

$$$$

  -OEChem-04052322403D

 89 99  0     1  0  0  0  0  0999 V2000
  -18.1972  -33.1288   24.5703 C   0  0  0  0  0  0  0  0  0  0  0  0
  -19.5773  -33.0226   24.7095 C   0  0  0  0  0  0  0  0  0  0  0  0
  -27.0496  -12.7731   18.1008 C   0  0  0  0  0  0  0  0  0  0  0  0
  -27.0419  -11.5784   20.2008 C   0  0  0  0  0  0  0  0  0  0  0  0
  -17.4568  -32.0356   24.1222 C   0  0  0  0  0  0  0  0  0  0  0  0
  -20.2178  -31.8228   24.4018 C   0  0  0  0  0  0  0  0  0  0  0  0
  -26.3871  -29.3012   21.7755 C   0  0  0  0  0  0  0  0  0  0  0  0
  -28.0393  -11.9173   17.6175 C   0  0  0  0  0  0  0  0  0  0  0  0
  -28.0316  -10.7225   19.7174 C   0  0  0  0  0  0  0  0  0  0  0  0
  -27.3970  -28.3909   22.0840 C   0  0  0  0  0  0  0  0  0  0  0  0
  -30.3109   -9.8229   15.7023 C   0  0  0  0  0  0  0  0  0  0  0  0
  -30.1593   -9.3205   14.4099 C   0  0  0  0  0  0  0  0  0  0  0  0
  -26.0253  -26.5935   21.2430 C   0  0  0  0  0  0  0  0  0  0  0  0
  -29.3049  -23.7661   20.3679 C   0  0  0  0  0  0  0  0  0  0  0  0
  -28.0745   -8.2851   15.0570 C   0  0  0  0  0  0  0  0  0  0  0  0
  -26.5509  -12.6037   19.3925 C   0  0  0  0  0  0  0  0  0  0  0  0
  -24.1350  -13.3190   19.7916 C   0  0  0  0  0  0  0  0  0  0  0  0
  -18.0896  -30.8248   23.7996 C   0  0  0  0  0  0  0  0  0  0  0  0
  -25.1824  -28.8624   21.2075 C   0  0  0  0  0  0  0  0  0  0  0  0
  -19.4850  -30.7120   23.9503 C   0  0  0  0  0  0  0  0  0  0  0  0
  -25.0028  -27.5006   20.9259 C   0  0  0  0  0  0  0  0  0  0  0  0
  -29.0552  -23.1980   19.1251 C   0  0  0  0  0  0  0  0  0  0  0  0
  -29.6942  -23.6882   17.9794 C   0  0  0  0  0  0  0  0  0  0  0  0
  -28.5303  -10.8920   18.4258 C   0  0  0  0  0  0  0  0  0  0  0  0
  -27.2151  -27.0364   21.8204 C   0  0  0  0  0  0  0  0  0  0  0  0
  -29.3443   -9.5564   16.6720 C   0  0  0  0  0  0  0  0  0  0  0  0
  -29.0411   -8.5516   14.0873 C   0  0  0  0  0  0  0  0  0  0  0  0
  -28.2261   -8.7875   16.3494 C   0  0  0  0  0  0  0  0  0  0  0  0
  -25.5289  -13.4878   19.8925 C   0  0  0  0  0  0  0  0  0  0  0  0
  -30.5795  -24.7595   18.1440 C   0  0  0  0  0  0  0  0  0  0  0  0
  -30.1955  -24.8204   20.4260 C   0  0  0  0  0  0  0  0  0  0  0  0
  -23.6092  -14.4223   20.4184 C   0  0  0  0  0  0  0  0  0  0  0  0
  -23.3826  -12.2596   19.1856 C   0  0  0  0  0  0  0  0  0  0  0  0
  -22.1313  -28.9187   22.0972 C   0  0  0  0  0  0  0  0  0  0  0  0
  -21.6439  -27.7446   19.1129 C   0  0  0  0  0  0  0  0  0  0  0  0
  -22.8963  -26.0602   16.4219 C   0  0  0  0  0  0  0  0  0  0  0  0
  -25.5127  -19.8802   21.4350 C   0  0  0  0  0  0  0  0  0  0  0  0
  -17.2417  -29.6560   23.3643 C   0  0  0  0  0  0  0  0  0  0  0  0
  -24.1134  -29.8604   20.8559 C   0  0  0  0  0  0  0  0  0  0  0  0
  -23.7361  -26.9809   20.2982 C   0  0  0  0  0  0  0  0  0  0  0  0
  -31.2622  -25.4028   16.9666 C   0  0  0  0  0  0  0  0  0  0  0  0
  -18.0411  -28.5368   22.7019 C   0  0  0  0  0  0  0  0  0  0  0  0
  -31.2749  -24.5312   15.7152 C   0  0  0  0  0  0  0  0  0  0  0  0
  -24.5671  -17.5997   23.8544 C   0  0  0  0  0  0  0  0  0  0  0  0
  -29.8907  -23.9416   15.4675 C   0  0  0  0  0  0  0  0  0  0  0  0
  -19.2900  -28.2179   23.5176 C   0  0  0  0  0  0  0  0  0  0  0  0
  -24.5649  -16.2632   23.1128 C   0  0  0  0  0  0  0  0  0  0  0  0
  -28.5109  -20.8426   19.8849 C   0  0  0  0  0  0  0  0  0  0  0  0
  -26.6449  -22.5096   19.4990 C   0  0  0  0  0  0  0  0  0  0  0  0
  -25.7622  -18.4509   23.4414 C   0  0  0  0  0  0  0  0  0  0  0  0
  -27.4790  -19.7117   19.8456 C   0  0  0  0  0  0  0  0  0  0  0  0
  -25.6643  -21.3418   19.4427 C   0  0  0  0  0  0  0  0  0  0  0  0
  -25.8428  -17.3756   21.2154 C   0  0  0  0  0  0  0  0  0  0  0  0
  -28.0521  -22.0615   19.0643 C   0  0  0  0  0  0  0  0  0  0  0  0
  -29.4394  -23.0450   16.6330 C   0  0  1  0  0  0  0  0  0  0  0  0
  -20.2189  -29.4350   23.6028 C   0  0  1  0  0  0  0  0  0  0  0  0
  -22.7246  -29.2374   20.7540 C   0  0  1  0  0  0  0  0  0  0  0  0
  -24.6484  -16.4751   21.5908 C   0  0  1  0  0  0  0  0  0  0  0  0
  -30.1098  -21.6671   16.5603 C   0  0  0  0  0  0  0  0  0  0  0  0
  -22.2486  -25.2218   14.1470 C   0  0  0  0  0  0  0  0  0  0  0  0
  -20.0819  -25.4622   20.4015 C   0  0  0  0  0  0  0  0  0  0  0  0
  -20.2854  -24.2003   18.2487 C   0  0  0  0  0  0  0  0  0  0  0  0
  -19.0614  -26.3731   18.3078 C   0  0  0  0  0  0  0  0  0  0  0  0
  -24.9550  -27.7222   15.0957 C   0  0  0  0  0  0  0  0  0  0  0  0
  -30.4901  -25.4601   21.7415 C   0  0  0  0  0  0  0  0  0  0  0  0
  -29.5433  -26.6189   22.0673 C   0  0  0  0  0  0  0  0  0  1  0  0
  -21.5820  -26.3646   18.5038 C   0  0  1  0  0  0  0  0  0  0  0  0
  -22.8621  -26.3682   14.9358 C   0  0  2  0  0  0  0  0  0  0  0  0
  -20.2759  -25.6093   18.8791 C   0  0  0  0  0  0  0  0  0  0  0  0
  -25.8674  -14.6101   20.5328 N   0  0  0  0  0  0  0  0  0  0  0  0
  -30.8315  -25.3313   19.3497 N   0  0  0  0  0  0  0  0  0  0  0  0
  -24.6786  -15.1565   20.8399 N   0  0  0  0  0  0  0  0  0  0  0  0
  -22.7179  -27.9952   19.9787 N   0  0  0  0  0  0  0  0  0  0  0  0
  -25.8083  -18.6259   21.9899 N   0  0  0  0  0  0  0  0  0  0  0  0
  -26.1500  -20.2081   20.2289 N   0  0  0  0  0  0  0  0  0  0  0  0
  -22.3412  -14.8265   20.6444 N   0  0  0  0  0  0  0  0  0  0  0  0
  -24.0808  -11.2026   18.5859 N   0  0  0  0  0  0  0  0  0  0  0  0
  -20.9571  -29.5948   22.3683 N   0  0  0  0  0  0  0  0  0  0  0  0
  -21.7784  -26.5424   17.0692 N   0  0  0  0  0  0  0  0  0  0  0  0
  -24.2416  -26.6054   14.4242 N   0  3  0  0  0  0  0  0  0  0  0  0
  -22.1284  -12.2588   19.1617 O   0  0  0  0  0  0  0  0  0  0  0  0
  -22.6963  -28.1176   22.8325 O   0  0  0  0  0  0  0  0  0  0  0  0
  -20.7754  -28.5720   18.8252 O   0  0  0  0  0  0  0  0  0  0  0  0
  -23.8203  -25.4495   16.9545 O   0  0  0  0  0  0  0  0  0  0  0  0
  -24.7255  -20.6613   21.9839 O   0  0  0  0  0  0  0  0  0  0  0  0
  -29.4959  -10.0565   17.9544 O   0  0  0  0  0  0  0  0  0  0  0  0
  -28.2058  -26.1394   22.1233 O   0  0  0  0  0  0  0  0  0  1  0  0
  -28.8949   -8.0705   12.8458 F   0  0  0  0  0  0  0  0  0  0  0  0
  -27.2936   -8.5291   17.2765 F   0  0  0  0  0  0  0  0  0  0  0  0
  1  2  1  0  0  0  0
  1  5  2  0  0  0  0
  2  6  2  0  0  0  0
  3  8  2  0  0  0  0
  3 16  1  0  0  0  0
  4  9  1  0  0  0  0
  4 16  2  0  0  0  0
  5 18  1  0  0  0  0
  6 20  1  0  0  0  0
  7 10  2  0  0  0  0
  7 19  1  0  0  0  0
  8 24  1  0  0  0  0
  9 24  2  0  0  0  0
 10 25  1  0  0  0  0
 11 12  2  0  0  0  0
 11 26  1  0  0  0  0
 12 27  1  0  0  0  0
 13 21  1  0  0  0  0
 13 25  2  0  0  0  0
 14 22  2  0  0  0  0
 14 31  1  0  0  0  0
 15 27  2  0  0  0  0
 15 28  1  0  0  0  0
 16 29  1  0  0  0  0
 17 29  1  0  0  0  0
 17 32  2  0  0  0  0
 17 33  1  0  0  0  0
 18 20  2  0  0  0  0
 18 38  1  0  0  0  0
 19 21  2  0  0  0  0
 19 39  1  0  0  0  0
 20 56  1  0  0  0  0
 21 40  1  0  0  0  0
 22 23  1  0  0  0  0
 22 54  1  0  0  0  0
 23 30  2  0  0  0  0
 23 55  1  0  0  0  0
 24 86  1  0  0  0  0
 25 87  1  0  0  0  0
 26 28  2  0  0  0  0
 26 86  1  0  0  0  0
 27 88  1  0  0  0  0
 28 89  1  0  0  0  0
 29 70  2  0  0  0  0
 30 41  1  0  0  0  0
 30 71  1  0  0  0  0
 31 65  1  0  0  0  0
 31 71  2  0  0  0  0
 32 72  1  0  0  0  0
 32 76  1  0  0  0  0
 33 77  1  0  0  0  0
 33 81  2  0  0  0  0
 34 57  1  0  0  0  0
 34 78  1  0  0  0  0
 34 82  2  0  0  0  0
 35 67  1  0  0  0  0
 35 73  1  0  0  0  0
 35 83  2  0  0  0  0
 36 68  1  0  0  0  0
 36 79  1  0  0  0  0
 36 84  2  0  0  0  0
 37 74  1  0  0  0  0
 37 75  1  0  0  0  0
 37 85  2  0  0  0  0
 38 42  1  0  0  0  0
 39 57  1  0  0  0  0
 40 73  1  0  0  0  0
 41 43  1  0  0  0  0
 42 46  1  0  0  0  0
 43 45  1  0  0  0  0
 44 47  1  0  0  0  0
 44 50  1  0  0  0  0
 45 55  1  0  0  0  0
 46 56  1  0  0  0  0
 47 58  1  0  0  0  0
 48 51  1  0  0  0  0
 48 54  1  0  0  0  0
 49 52  1  0  0  0  0
 49 54  1  0  0  0  0
 50 74  1  0  0  0  0
 51 75  1  0  0  0  0
 52 75  1  0  0  0  0
 53 58  1  0  0  0  0
 53 74  1  0  0  0  0
 55 59  1  0  0  0  0
 56 78  1  0  0  0  0
 57 73  1  0  0  0  0
 58 72  1  0  0  0  0
 60 68  1  0  0  0  0
 61 69  1  0  0  0  0
 62 69  1  0  0  0  0
 63 69  1  0  0  0  0
 64 80  1  0  0  0  0
 65 66  1  0  0  0  0
 66 87  1  0  0  0  0
 67 69  1  0  0  0  0
 67 79  1  0  0  0  0
 68 80  1  0  0  0  0
 70 72  1  0  0  0  0
M  CHG  1  80   1
M  ISO  4  37 100  66 101  75 100  87 101
M  END
> <Batch ID>
0172

> <Smiles>
CNC(C)C(=O)NC(C(=O)N1Cc2cc([101O:1][101CH2:1]Cc3cc(C4CC[100N:0]([100C:0](=O)N5CCCC(n6nc(-c7ccc(Oc8ccc(F)cc8F)cc7)c(C(N)=O)c6N)C5)CC4)c4c(n3)CCCC4C)ccc2CC1C(=O)NC1CCCc2ccccc21)C(C)(C)C

> <Shape>
0.218

> <Color>
0.082

> <Negative vol penalty>
0.000

$$$$

  -OEChem-04052322403D

 88 97  0     1  0  0  0  0  0999 V2000
  -16.2548  -21.3369   32.9341 C   0  0  0  0  0  0  0  0  0  0  0  0
  -17.4640  -21.0639   32.3027 C   0  0  0  0  0  0  0  0  0  0  0  0
  -23.0845   -9.8265   20.1488 C   0  0  0  0  0  0  0  0  0  0  0  0
  -23.7352  -10.1148   22.4576 C   0  0  0  0  0  0  0  0  0  0  0  0
  -15.1533  -21.7438   32.1823 C   0  0  0  0  0  0  0  0  0  0  0  0
  -17.5722  -21.1967   30.9188 C   0  0  0  0  0  0  0  0  0  0  0  0
  -22.4846  -23.0599   27.7720 C   0  0  0  0  0  0  0  0  0  0  0  0
  -22.3188   -8.7158   20.5033 C   0  0  0  0  0  0  0  0  0  0  0  0
  -22.9695   -9.0041   22.8121 C   0  0  0  0  0  0  0  0  0  0  0  0
  -23.4819  -22.3633   27.0909 C   0  0  0  0  0  0  0  0  0  0  0  0
  -19.7091   -8.2984   23.3528 C   0  0  0  0  0  0  0  0  0  0  0  0
  -18.8973   -8.4065   24.4819 C   0  0  0  0  0  0  0  0  0  0  0  0
  -22.2715  -22.6618   25.0257 C   0  0  0  0  0  0  0  0  0  0  0  0
  -20.0842   -6.5708   25.5109 C   0  0  0  0  0  0  0  0  0  0  0  0
  -23.7928  -10.5260   21.1260 C   0  0  0  0  0  0  0  0  0  0  0  0
  -24.1637  -13.0156   20.7115 C   0  0  0  0  0  0  0  0  0  0  0  0
  -15.2508  -21.8909   30.7896 C   0  0  0  0  0  0  0  0  0  0  0  0
  -21.3660  -23.5541   27.0857 C   0  0  0  0  0  0  0  0  0  0  0  0
  -16.4706  -21.6046   30.1475 C   0  0  0  0  0  0  0  0  0  0  0  0
  -21.2627  -23.3665   25.7000 C   0  0  0  0  0  0  0  0  0  0  0  0
  -26.1467  -19.0434   24.4030 C   0  0  0  0  0  0  0  0  0  0  0  0
  -26.4176  -20.3104   24.9076 C   0  0  0  0  0  0  0  0  0  0  0  0
  -27.0641  -18.4262   23.5599 C   0  0  0  0  0  0  0  0  0  0  0  0
  -22.2613   -8.3046   21.8349 C   0  0  0  0  0  0  0  0  0  0  0  0
  -23.3740  -22.1616   25.7180 C   0  0  0  0  0  0  0  0  0  0  0  0
  -20.7084   -7.3265   23.3026 C   0  0  0  0  0  0  0  0  0  0  0  0
  -19.0849   -7.5427   25.5610 C   0  0  0  0  0  0  0  0  0  0  0  0
  -20.8960   -6.4628   24.3817 C   0  0  0  0  0  0  0  0  0  0  0  0
  -24.5844  -11.6731   20.7603 C   0  0  0  0  0  0  0  0  0  0  0  0
  -27.6106  -20.9128   24.5419 C   0  0  0  0  0  0  0  0  0  0  0  0
  -28.2281  -19.1130   23.2544 C   0  0  0  0  0  0  0  0  0  0  0  0
  -25.2788  -13.7105   20.3113 C   0  0  0  0  0  0  0  0  0  0  0  0
  -22.8798  -13.5838   21.0019 C   0  0  0  0  0  0  0  0  0  0  0  0
  -18.2340  -23.0313   27.2306 C   0  0  0  0  0  0  0  0  0  0  0  0
  -18.1230  -25.4628   25.0864 C   0  0  0  0  0  0  0  0  0  0  0  0
  -19.7231  -27.2800   22.6813 C   0  0  0  0  0  0  0  0  0  0  0  0
  -30.7569  -14.7257   20.6355 C   0  0  0  0  0  0  0  0  0  0  0  0
  -14.0198  -22.2877   30.0137 C   0  0  0  0  0  0  0  0  0  0  0  0
  -20.3121  -24.3266   27.8305 C   0  0  0  0  0  0  0  0  0  0  0  0
  -20.0918  -23.8946   24.9134 C   0  0  0  0  0  0  0  0  0  0  0  0
  -14.3215  -22.7654   28.5956 C   0  0  0  0  0  0  0  0  0  0  0  0
  -29.7109  -12.0679   18.5098 C   0  0  0  0  0  0  0  0  0  0  0  0
  -15.2945  -21.8134   27.9072 C   0  0  0  0  0  0  0  0  0  0  0  0
  -28.2519  -11.8352   18.9061 C   0  0  0  0  0  0  0  0  0  0  0  0
  -30.5723  -12.4326   19.7168 C   0  0  0  0  0  0  0  0  0  0  0  0
  -28.6142  -13.3364   20.9095 C   0  0  0  0  0  0  0  0  0  0  0  0
  -30.2306  -17.6481   22.8802 C   0  0  0  0  0  0  0  0  0  0  0  0
  -29.1338  -18.6500   20.9604 C   0  0  0  0  0  0  0  0  0  0  0  0
  -16.6343  -21.7609   28.6512 C   0  0  1  0  0  0  0  0  0  0  0  0
  -18.9641  -24.3396   27.1163 C   0  0  1  0  0  0  0  0  0  0  0  0
  -27.6951  -13.0208   19.7170 C   0  0  2  0  0  0  0  0  0  0  0  0
  -30.7846  -17.0126   21.5990 C   0  0  2  0  0  0  0  0  0  0  0  0
  -30.4654  -18.0416   20.5173 C   0  0  2  0  0  0  0  0  0  0  0  0
  -24.8738  -18.3479   24.7672 C   0  0  0  0  0  0  0  0  0  0  0  0
  -27.9566  -22.2734   25.0521 C   0  0  0  0  0  0  0  0  0  0  0  0
  -27.0291  -15.9646   24.0352 C   0  0  0  0  0  0  0  0  0  0  0  0
  -19.3624  -29.1791   21.0810 C   0  0  0  0  0  0  0  0  0  0  0  0
  -16.4995  -23.6229   23.2727 C   0  0  0  0  0  0  0  0  0  0  0  0
  -16.9839  -25.1818   21.3745 C   0  0  0  0  0  0  0  0  0  0  0  0
  -15.6924  -25.9888   23.3502 C   0  0  0  0  0  0  0  0  0  0  0  0
  -21.8638  -28.8948   23.9338 C   0  0  0  0  0  0  0  0  0  0  0  0
  -26.7927  -17.0663   23.0063 C   0  0  0  0  0  0  0  0  0  0  0  0
  -25.4479  -21.0021   25.8201 C   0  0  0  0  0  0  0  0  0  1  0  0
  -18.1740  -25.5638   23.5810 C   0  0  1  0  0  0  0  0  0  0  0  0
  -19.8465  -28.7776   22.4657 C   0  0  2  0  0  0  0  0  0  0  0  0
  -16.8587  -25.0776   22.9095 C   0  0  0  0  0  0  0  0  0  0  0  0
  -25.8666  -11.5217   20.4183 N   0  0  0  0  0  0  0  0  0  0  0  0
  -28.5261  -20.3447   23.7254 N   0  0  0  0  0  0  0  0  0  0  0  0
  -26.2613  -12.7782   20.1507 N   0  0  0  0  0  0  0  0  0  0  0  0
  -29.1416  -18.5081   22.4165 N   0  0  3  0  0  0  0  0  0  0  0  0
  -19.0842  -24.6380   25.6877 N   0  0  0  0  0  0  0  0  0  0  0  0
  -29.9903  -13.5648   20.4415 N   0  0  0  0  0  0  0  0  0  0  0  0
  -25.5050  -15.0219   20.0845 N   0  0  0  0  0  0  0  0  0  0  0  0
  -21.8445  -12.7270   21.3999 N   0  0  0  0  0  0  0  0  0  0  0  0
  -17.4270  -22.9332   28.3480 N   0  0  0  0  0  0  0  0  0  0  0  0
  -18.5247  -26.9468   23.2763 N   0  0  0  0  0  0  0  0  0  0  0  0
  -30.1275  -15.7538   21.3266 N   0  0  0  0  0  0  0  0  0  0  0  0
  -31.5082  -19.1079   20.5303 N   0  3  0  0  0  0  0  0  0  0  0  0
  -21.2665  -29.2064   22.6098 N   0  3  0  0  0  0  0  0  0  0  0  0
  -22.6527  -14.8129   20.8954 O   0  0  0  0  0  0  0  0  0  0  0  0
  -18.3901  -22.1749   26.3682 O   0  0  0  0  0  0  0  0  0  0  0  0
  -17.2664  -26.0980   25.7064 O   0  0  0  0  0  0  0  0  0  0  0  0
  -20.6003  -26.4850   22.3514 O   0  0  0  0  0  0  0  0  0  0  0  0
  -31.9147  -14.8396   20.2188 O   0  0  0  0  0  0  0  0  0  0  0  0
  -21.5140   -7.2210   22.1812 O   0  0  0  0  0  0  0  0  0  0  0  0
  -24.3457  -21.4814   25.0509 O   0  0  0  0  0  0  0  0  0  1  0  0
  -18.3063   -7.6476   26.6459 F   0  0  0  0  0  0  0  0  0  0  0  0
  -21.8551   -5.5278   24.3398 F   0  0  0  0  0  0  0  0  0  0  0  0
  1  2  1  0  0  0  0
  1  5  2  0  0  0  0
  2  6  2  0  0  0  0
  3  8  2  0  0  0  0
  3 15  1  0  0  0  0
  4  9  1  0  0  0  0
  4 15  2  0  0  0  0
  5 17  1  0  0  0  0
  6 19  1  0  0  0  0
  7 10  2  0  0  0  0
  7 18  1  0  0  0  0
  8 24  1  0  0  0  0
  9 24  2  0  0  0  0
 10 25  1  0  0  0  0
 11 12  2  0  0  0  0
 11 26  1  0  0  0  0
 12 27  1  0  0  0  0
 13 20  1  0  0  0  0
 13 25  2  0  0  0  0
 14 27  2  0  0  0  0
 14 28  1  0  0  0  0
 15 29  1  0  0  0  0
 16 29  1  0  0  0  0
 16 32  2  0  0  0  0
 16 33  1  0  0  0  0
 17 19  2  0  0  0  0
 17 38  1  0  0  0  0
 18 20  2  0  0  0  0
 18 39  1  0  0  0  0
 19 49  1  0  0  0  0
 20 40  1  0  0  0  0
 21 22  1  0  0  0  0
 21 23  2  0  0  0  0
 21 54  1  0  0  0  0
 22 30  2  0  0  0  0
 22 63  1  0  0  0  0
 23 31  1  0  0  0  0
 23 62  1  0  0  0  0
 24 85  1  0  0  0  0
 25 86  1  0  0  0  0
 26 28  2  0  0  0  0
 26 85  1  0  0  0  0
 27 87  1  0  0  0  0
 28 88  1  0  0  0  0
 29 67  2  0  0  0  0
 30 55  1  0  0  0  0
 30 68  1  0  0  0  0
 31 68  2  0  0  0  0
 31 70  1  0  0  0  0
 32 69  1  0  0  0  0
 32 73  1  0  0  0  0
 33 74  1  0  0  0  0
 33 80  2  0  0  0  0
 34 50  1  0  0  0  0
 34 75  1  0  0  0  0
 34 81  2  0  0  0  0
 35 64  1  0  0  0  0
 35 71  1  0  0  0  0
 35 82  2  0  0  0  0
 36 65  1  0  0  0  0
 36 76  1  0  0  0  0
 36 83  2  0  0  0  0
 37 72  1  0  0  0  0
 37 77  1  0  0  0  0
 37 84  2  0  0  0  0
 38 41  1  0  0  0  0
 39 50  1  0  0  0  0
 40 71  1  0  0  0  0
 41 43  1  0  0  0  0
 42 44  1  0  0  0  0
 42 45  1  0  0  0  0
 43 49  1  0  0  0  0
 44 51  1  0  0  0  0
 45 72  1  0  0  0  0
 46 51  1  0  0  0  0
 46 72  1  0  0  0  0
 47 52  1  0  0  0  0
 47 70  1  0  0  0  0
 48 53  1  0  0  0  0
 48 70  1  0  0  0  0
 49 75  1  0  0  0  0
 50 71  1  0  0  0  0
 51 69  1  0  0  0  0
 52 53  1  0  0  0  0
 52 77  1  0  0  0  0
 53 78  1  0  0  0  0
 56 62  1  0  0  0  0
 57 65  1  0  0  0  0
 58 66  1  0  0  0  0
 59 66  1  0  0  0  0
 60 66  1  0  0  0  0
 61 79  1  0  0  0  0
 63 86  1  0  0  0  0
 64 66  1  0  0  0  0
 64 76  1  0  0  0  0
 65 79  1  0  0  0  0
 67 69  1  0  0  0  0
M  CHG  2  78   1  79   1
M  ISO  4  37 100  63 101  77 100  86 101
M  END
> <Batch ID>
0172

> <Smiles>
CCc1c(N2CC(N)C([100NH:0][100C:0](=O)N3CCCC(n4nc(-c5ccc(Oc6ccc(F)cc6F)cc5)c(C(N)=O)c4N)C3)C2)nc(C)c([101CH2:1][101O:1]c2ccc3c(c2)CN(C(=O)C(NC(=O)C(C)NC)C(C)(C)C)C(C(=O)NC2CCCc4ccccc42)C3)c1C

> <Shape>
0.219

> <Color>
0.188

> <Negative vol penalty>
0.000

$$$$

  -OEChem-04052322403D

 84 93  0     1  0  0  0  0  0999 V2000
  -32.2725  -33.0489   23.3892 C   0  0  0  0  0  0  0  0  0  0  0  0
  -31.8404  -31.9608   22.6378 C   0  0  0  0  0  0  0  0  0  0  0  0
  -23.1118  -10.1196   19.8920 C   0  0  0  0  0  0  0  0  0  0  0  0
  -24.0829   -9.6079   22.0442 C   0  0  0  0  0  0  0  0  0  0  0  0
  -31.5243  -33.4798   24.4839 C   0  0  0  0  0  0  0  0  0  0  0  0
  -30.6603  -31.3022   22.9813 C   0  0  0  0  0  0  0  0  0  0  0  0
  -26.6326  -28.7275   19.1531 C   0  0  0  0  0  0  0  0  0  0  0  0
  -22.4154   -8.9113   19.9189 C   0  0  0  0  0  0  0  0  0  0  0  0
  -23.3865   -8.3996   22.0712 C   0  0  0  0  0  0  0  0  0  0  0  0
  -26.4378  -27.4089   18.7444 C   0  0  0  0  0  0  0  0  0  0  0  0
  -20.2438   -7.3523   22.7399 C   0  0  0  0  0  0  0  0  0  0  0  0
  -19.6007   -7.0031   23.9273 C   0  0  0  0  0  0  0  0  0  0  0  0
  -24.7304  -27.1457   20.4280 C   0  0  0  0  0  0  0  0  0  0  0  0
  -26.6933  -22.4474   17.6870 C   0  0  0  0  0  0  0  0  0  0  0  0
  -20.9402   -4.9969   24.0628 C   0  0  0  0  0  0  0  0  0  0  0  0
  -24.1615  -21.7892   16.9108 C   0  0  0  0  0  0  0  0  0  0  0  0
  -23.9456  -10.4679   20.9546 C   0  0  0  0  0  0  0  0  0  0  0  0
  -24.2292  -12.9600   21.4201 C   0  0  0  0  0  0  0  0  0  0  0  0
  -30.3294  -32.8321   24.8353 C   0  0  0  0  0  0  0  0  0  0  0  0
  -25.8842  -29.2627   20.2113 C   0  0  0  0  0  0  0  0  0  0  0  0
  -29.8961  -31.7240   24.0826 C   0  0  0  0  0  0  0  0  0  0  0  0
  -24.9158  -28.4722   20.8466 C   0  0  0  0  0  0  0  0  0  0  0  0
  -25.7291  -23.4444   17.5885 C   0  0  0  0  0  0  0  0  0  0  0  0
  -24.4367  -23.1173   17.1937 C   0  0  0  0  0  0  0  0  0  0  0  0
  -22.5527   -8.0514   21.0085 C   0  0  0  0  0  0  0  0  0  0  0  0
  -25.4886  -26.6169   19.3837 C   0  0  0  0  0  0  0  0  0  0  0  0
  -21.2351   -6.5238   22.2138 C   0  0  0  0  0  0  0  0  0  0  0  0
  -19.9489   -5.8254   24.5888 C   0  0  0  0  0  0  0  0  0  0  0  0
  -21.5833   -5.3462   22.8753 C   0  0  0  0  0  0  0  0  0  0  0  0
  -24.6656  -11.7156   20.9271 C   0  0  0  0  0  0  0  0  0  0  0  0
  -26.3170  -21.1492   17.3823 C   0  0  0  0  0  0  0  0  0  0  0  0
  -25.2689  -13.8177   21.1558 C   0  0  0  0  0  0  0  0  0  0  0  0
  -22.9945  -13.3093   22.0597 C   0  0  0  0  0  0  0  0  0  0  0  0
  -26.5800  -30.4376   23.0817 C   0  0  0  0  0  0  0  0  0  0  0  0
  -23.4162  -31.1523   23.1262 C   0  0  0  0  0  0  0  0  0  0  0  0
  -20.2785  -30.4845   21.9618 C   0  0  0  0  0  0  0  0  0  0  0  0
  -29.0393  -15.6592   17.3782 C   0  0  0  0  0  0  0  0  0  0  0  0
  -29.5792  -33.3046   26.0554 C   0  0  0  0  0  0  0  0  0  0  0  0
  -26.0876  -30.6951   20.6226 C   0  0  0  0  0  0  0  0  0  0  0  0
  -24.0721  -29.0055   21.9745 C   0  0  0  0  0  0  0  0  0  0  0  0
  -28.1453  -32.7858   26.1276 C   0  0  0  0  0  0  0  0  0  0  0  0
  -29.9962  -12.9068   19.6101 C   0  0  0  0  0  0  0  0  0  0  0  0
  -28.1027  -31.2910   25.8267 C   0  0  0  0  0  0  0  0  0  0  0  0
  -28.6494  -12.4265   20.1524 C   0  0  0  0  0  0  0  0  0  0  0  0
  -26.4355  -18.0476   18.3943 C   0  0  0  0  0  0  0  0  0  0  0  0
  -29.8719  -13.4875   18.2034 C   0  0  0  0  0  0  0  0  0  0  0  0
  -26.7580  -16.5890   18.0868 C   0  0  0  0  0  0  0  0  0  0  0  0
  -27.5087  -14.0590   18.6054 C   0  0  0  0  0  0  0  0  0  0  0  0
  -28.3536  -18.0087   16.9896 C   0  0  0  0  0  0  0  0  0  0  0  0
  -28.6084  -30.9990   24.4088 C   0  0  1  0  0  0  0  0  0  0  0  0
  -25.6301  -30.9776   22.0503 C   0  0  1  0  0  0  0  0  0  0  0  0
  -27.5816  -13.5312   20.0449 C   0  0  1  0  0  0  0  0  0  0  0  0
  -27.0558  -18.7726   17.2050 C   0  0  2  0  0  0  0  0  0  0  0  0
  -23.3658  -24.1451   17.0717 C   0  0  0  0  0  0  0  0  0  0  0  0
  -17.8891  -31.2098   22.2110 C   0  0  0  0  0  0  0  0  0  0  0  0
  -23.2468  -29.6712   25.7884 C   0  0  0  0  0  0  0  0  0  0  0  0
  -20.7595  -29.6012   25.5117 C   0  0  0  0  0  0  0  0  0  0  0  0
  -21.9314  -31.7960   25.6912 C   0  0  0  0  0  0  0  0  0  0  0  0
  -20.0999  -31.2742   19.1151 C   0  0  0  0  0  0  0  0  0  0  0  0
  -26.1018  -24.8538   17.9102 C   0  0  0  0  0  0  0  0  0  1  0  0
  -22.1645  -30.4360   23.5726 C   0  0  1  0  0  0  0  0  0  0  0  0
  -19.1842  -31.3957   21.4358 C   0  0  2  0  0  0  0  0  0  0  0  0
  -22.0427  -30.3652   25.1210 C   0  0  0  0  0  0  0  0  0  0  0  0
  -25.0716  -20.7931   16.9953 N   0  0  0  0  0  0  0  0  0  0  0  0
  -25.8872  -11.7734   20.3902 N   0  0  0  0  0  0  0  0  0  0  0  0
  -26.2274  -13.0644   20.5441 N   0  0  0  0  0  0  0  0  0  0  0  0
  -24.3127  -30.4100   22.3444 N   0  0  0  0  0  0  0  0  0  0  0  0
  -28.8274  -14.5105   18.1485 N   0  0  0  0  0  0  0  0  0  0  0  0
  -28.0462  -16.6377   17.3902 N   0  0  0  0  0  0  0  0  0  0  0  0
  -25.4476  -15.1353   21.3892 N   0  0  0  0  0  0  0  0  0  0  0  0
  -22.0351  -12.3061   22.2533 N   0  0  0  0  0  0  0  0  0  0  0  0
  -27.2903  -20.1646   17.4851 N   0  0  0  0  0  0  0  0  0  0  0  0
  -27.5876  -31.3155   23.4330 N   0  0  0  0  0  0  0  0  0  0  0  0
  -21.0510  -31.1122   22.9159 N   0  0  0  0  0  0  0  0  0  0  0  0
  -18.9169  -31.1078   19.9982 N   0  3  0  0  0  0  0  0  0  0  0  0
  -22.7426  -14.4800   22.4333 O   0  0  0  0  0  0  0  0  0  0  0  0
  -26.4103  -29.3086   23.5270 O   0  0  0  0  0  0  0  0  0  0  0  0
  -23.5886  -32.3292   23.4528 O   0  0  0  0  0  0  0  0  0  0  0  0
  -20.4303  -29.3300   21.5684 O   0  0  0  0  0  0  0  0  0  0  0  0
  -30.0902  -15.8251   16.7447 O   0  0  0  0  0  0  0  0  0  0  0  0
  -21.8732   -6.8723   21.0353 O   0  0  0  0  0  0  0  0  0  0  0  0
  -25.2955  -25.3202   18.9844 O   0  0  0  0  0  0  0  0  0  1  0  0
  -19.3323   -5.4909   25.7299 F   0  0  0  0  0  0  0  0  0  0  0  0
  -22.5357   -4.5469   22.3754 F   0  0  0  0  0  0  0  0  0  0  0  0
  1  2  1  0  0  0  0
  1  5  2  0  0  0  0
  2  6  2  0  0  0  0
  3  8  2  0  0  0  0
  3 17  1  0  0  0  0
  4  9  1  0  0  0  0
  4 17  2  0  0  0  0
  5 19  1  0  0  0  0
  6 21  1  0  0  0  0
  7 10  2  0  0  0  0
  7 20  1  0  0  0  0
  8 25  1  0  0  0  0
  9 25  2  0  0  0  0
 10 26  1  0  0  0  0
 11 12  2  0  0  0  0
 11 27  1  0  0  0  0
 12 28  1  0  0  0  0
 13 22  1  0  0  0  0
 13 26  2  0  0  0  0
 14 23  1  0  0  0  0
 14 31  2  0  0  0  0
 15 28  2  0  0  0  0
 15 29  1  0  0  0  0
 16 24  1  0  0  0  0
 16 64  2  0  0  0  0
 17 30  1  0  0  0  0
 18 30  1  0  0  0  0
 18 32  2  0  0  0  0
 18 33  1  0  0  0  0
 19 21  2  0  0  0  0
 19 38  1  0  0  0  0
 20 22  2  0  0  0  0
 20 39  1  0  0  0  0
 21 50  1  0  0  0  0
 22 40  1  0  0  0  0
 23 24  2  0  0  0  0
 23 60  1  0  0  0  0
 24 54  1  0  0  0  0
 25 81  1  0  0  0  0
 26 82  1  0  0  0  0
 27 29  2  0  0  0  0
 27 81  1  0  0  0  0
 28 83  1  0  0  0  0
 29 84  1  0  0  0  0
 30 65  2  0  0  0  0
 31 64  1  0  0  0  0
 31 72  1  0  0  0  0
 32 66  1  0  0  0  0
 32 70  1  0  0  0  0
 33 71  1  0  0  0  0
 33 76  2  0  0  0  0
 34 51  1  0  0  0  0
 34 73  1  0  0  0  0
 34 77  2  0  0  0  0
 35 61  1  0  0  0  0
 35 67  1  0  0  0  0
 35 78  2  0  0  0  0
 36 62  1  0  0  0  0
 36 74  1  0  0  0  0
 36 79  2  0  0  0  0
 37 68  1  0  0  0  0
 37 69  1  0  0  0  0
 37 80  2  0  0  0  0
 38 41  1  0  0  0  0
 39 51  1  0  0  0  0
 40 67  1  0  0  0  0
 41 43  1  0  0  0  0
 42 44  1  0  0  0  0
 42 46  1  0  0  0  0
 43 50  1  0  0  0  0
 44 52  1  0  0  0  0
 45 47  1  0  0  0  0
 45 53  1  0  0  0  0
 46 68  1  0  0  0  0
 47 69  1  0  0  0  0
 48 52  1  0  0  0  0
 48 68  1  0  0  0  0
 49 53  1  0  0  0  0
 49 69  1  0  0  0  0
 50 73  1  0  0  0  0
 51 67  1  0  0  0  0
 52 66  1  0  0  0  0
 53 72  1  0  0  0  0
 55 62  1  0  0  0  0
 56 63  1  0  0  0  0
 57 63  1  0  0  0  0
 58 63  1  0  0  0  0
 59 75  1  0  0  0  0
 60 82  1  0  0  0  0
 61 63  1  0  0  0  0
 61 74  1  0  0  0  0
 62 75  1  0  0  0  0
 65 66  1  0  0  0  0
M  CHG  1  75   1
M  ISO  4  37 100  60 101  69 100  82 101
M  END
> <Batch ID>
0172

> <Smiles>
CNC(C)C(=O)NC(C(=O)N1Cc2cc([101O:1][101CH2:1]c3cc(NC4CC[100N:0]([100C:0](=O)N5CCCC(n6nc(-c7ccc(Oc8ccc(F)cc8F)cc7)c(C(N)=O)c6N)C5)C4)ncc3C)ccc2CC1C(=O)NC1CCCc2ccccc21)C(C)(C)C

> <Shape>
0.259

> <Color>
0.168

> <Negative vol penalty>
0.000

$$$$

  -OEChem-04052322403D

 86 95  0     1  0  0  0  0  0999 V2000
  -26.0075  -34.8029   27.7699 C   0  0  0  0  0  0  0  0  0  0  0  0
  -25.8281  -35.0445   26.4125 C   0  0  0  0  0  0  0  0  0  0  0  0
  -23.7224  -17.3429   21.5467 C   0  0  0  0  0  0  0  0  0  0  0  0
  -23.9500  -17.3716   19.1416 C   0  0  0  0  0  0  0  0  0  0  0  0
  -26.5296  -33.5827   28.1937 C   0  0  0  0  0  0  0  0  0  0  0  0
  -26.1595  -34.0616   25.4793 C   0  0  0  0  0  0  0  0  0  0  0  0
  -26.6798  -28.9274   18.9393 C   0  0  0  0  0  0  0  0  0  0  0  0
  -23.0301  -18.5527   21.4957 C   0  0  0  0  0  0  0  0  0  0  0  0
  -23.2577  -18.5814   19.0906 C   0  0  0  0  0  0  0  0  0  0  0  0
  -26.9582  -27.5710   18.7771 C   0  0  0  0  0  0  0  0  0  0  0  0
  -21.5159  -21.8155   22.0293 C   0  0  0  0  0  0  0  0  0  0  0  0
  -21.8634  -22.8027   22.9514 C   0  0  0  0  0  0  0  0  0  0  0  0
  -25.6542  -27.0742   20.7448 C   0  0  0  0  0  0  0  0  0  0  0  0
  -24.1168  -22.8230   22.0803 C   0  0  0  0  0  0  0  0  0  0  0  0
  -24.1824  -16.7523   20.3697 C   0  0  0  0  0  0  0  0  0  0  0  0
  -24.3521  -14.2070   20.3545 C   0  0  0  0  0  0  0  0  0  0  0  0
  -26.8790  -32.5896   27.2638 C   0  0  0  0  0  0  0  0  0  0  0  0
  -25.8943  -29.3693   20.0136 C   0  0  0  0  0  0  0  0  0  0  0  0
  -26.6654  -32.8145   25.8886 C   0  0  0  0  0  0  0  0  0  0  0  0
  -25.3652  -28.4365   20.9170 C   0  0  0  0  0  0  0  0  0  0  0  0
  -28.0025  -21.4201   17.2063 C   0  0  0  0  0  0  0  0  0  0  0  0
  -27.8606  -22.8030   17.1769 C   0  0  0  0  0  0  0  0  0  0  0  0
  -27.9697  -20.7493   18.4238 C   0  0  0  0  0  0  0  0  0  0  0  0
  -22.7977  -19.1720   20.2676 C   0  0  0  0  0  0  0  0  0  0  0  0
  -26.4478  -26.6444   19.6815 C   0  0  0  0  0  0  0  0  0  0  0  0
  -22.4688  -21.3320   21.1328 C   0  0  0  0  0  0  0  0  0  0  0  0
  -23.1638  -23.3065   22.9769 C   0  0  0  0  0  0  0  0  0  0  0  0
  -23.7693  -21.8358   21.1582 C   0  0  0  0  0  0  0  0  0  0  0  0
  -24.8980  -15.5028   20.4218 C   0  0  0  0  0  0  0  0  0  0  0  0
  -27.6896  -23.4632   18.3829 C   0  0  0  0  0  0  0  0  0  0  0  0
  -27.7940  -21.5015   19.5741 C   0  0  0  0  0  0  0  0  0  0  0  0
  -25.4384  -13.3715   20.4465 C   0  0  0  0  0  0  0  0  0  0  0  0
  -22.9852  -13.7953   20.2206 C   0  0  0  0  0  0  0  0  0  0  0  0
  -26.3769  -31.2768   22.5100 C   0  0  0  0  0  0  0  0  0  0  0  0
  -23.1993  -30.8224   22.9772 C   0  0  0  0  0  0  0  0  0  0  0  0
  -20.8786  -28.0659   22.7955 C   0  0  0  0  0  0  0  0  0  0  0  0
  -29.4275  -17.1853   20.4952 C   0  0  0  0  0  0  0  0  0  0  0  0
  -27.4328  -31.2841   27.7780 C   0  0  0  0  0  0  0  0  0  0  0  0
  -25.5810  -30.8332   20.1593 C   0  0  0  0  0  0  0  0  0  0  0  0
  -24.4996  -28.8574   22.0755 C   0  0  0  0  0  0  0  0  0  0  0  0
  -28.1636  -30.4843   26.7044 C   0  0  0  0  0  0  0  0  0  0  0  0
  -28.6910  -14.6980   22.9525 C   0  0  0  0  0  0  0  0  0  0  0  0
  -31.3428  -17.7188   17.4626 C   0  0  0  0  0  0  0  0  0  0  0  0
  -27.3021  -30.3837   25.4545 C   0  0  0  0  0  0  0  0  0  0  0  0
  -28.3472  -13.4471   22.1515 C   0  0  0  0  0  0  0  0  0  0  0  0
  -30.3024  -18.8154   17.2831 C   0  0  0  0  0  0  0  0  0  0  0  0
  -29.7848  -15.4950   22.2586 C   0  0  0  0  0  0  0  0  0  0  0  0
  -30.5957  -16.6842   18.2899 C   0  0  0  0  0  0  0  0  0  0  0  0
  -29.0066  -14.7158   20.0285 C   0  0  0  0  0  0  0  0  0  0  0  0
  -27.0473  -31.7718   24.8536 C   0  0  1  0  0  0  0  0  0  0  0  0
  -25.1956  -31.2229   21.5830 C   0  0  1  0  0  0  0  0  0  0  0  0
  -27.9850  -13.7633   20.6915 C   0  0  2  0  0  0  0  0  0  0  0  0
  -29.5791  -18.8380   18.6325 C   0  0  1  0  0  0  0  0  0  0  0  0
  -28.1922  -20.6572   15.9341 C   0  0  0  0  0  0  0  0  0  0  0  0
  -27.8905  -23.5506   15.8861 C   0  0  0  0  0  0  0  0  0  0  0  0
  -27.7527  -20.8377   20.9117 C   0  0  0  0  0  0  0  0  0  0  0  0
  -18.4114  -28.0377   22.3374 C   0  0  0  0  0  0  0  0  0  0  0  0
  -22.9280  -30.8850   26.0157 C   0  0  0  0  0  0  0  0  0  0  0  0
  -20.9913  -29.3124   25.8055 C   0  0  0  0  0  0  0  0  0  0  0  0
  -20.8732  -31.5790   24.7704 C   0  0  0  0  0  0  0  0  0  0  0  0
  -21.1997  -26.1655   20.5495 C   0  0  0  0  0  0  0  0  0  0  0  0
  -28.1204  -19.2529   18.4893 C   0  0  0  0  0  0  0  0  0  0  0  0
  -27.5315  -24.9482   18.4149 C   0  0  0  0  0  0  0  0  0  1  0  0
  -22.3626  -29.8188   23.7333 C   0  0  1  0  0  0  0  0  0  0  0  0
  -19.8010  -27.8527   21.7478 C   0  0  2  0  0  0  0  0  0  0  0  0
  -21.8142  -30.3919   25.0705 C   0  0  0  0  0  0  0  0  0  0  0  0
  -26.2278  -15.4962   20.5471 N   0  0  0  0  0  0  0  0  0  0  0  0
  -27.6526  -22.8459   19.5851 N   0  0  0  0  0  0  0  0  0  0  0  0
  -26.5265  -14.1860   20.5593 N   0  0  0  0  0  0  0  0  0  0  0  0
  -24.2270  -30.3005   22.1790 N   0  0  0  0  0  0  0  0  0  0  0  0
  -29.4235  -15.8371   20.8827 N   0  0  0  0  0  0  0  0  0  0  0  0
  -29.7294  -17.4776   19.1632 N   0  0  0  0  0  0  0  0  0  0  0  0
  -25.5593  -12.0270   20.4411 N   0  0  0  0  0  0  0  0  0  0  0  0
  -21.9947  -14.7835   20.1394 N   0  0  0  0  0  0  0  0  0  0  0  0
  -26.0624  -31.6570   23.8007 N   0  0  0  0  0  0  0  0  0  0  0  0
  -21.3288  -29.3691   22.8073 N   0  0  0  0  0  0  0  0  0  0  0  0
  -19.8925  -26.4765   21.1831 N   0  3  0  0  0  0  0  0  0  0  0  0
  -22.6506  -12.5867   20.1909 O   0  0  0  0  0  0  0  0  0  0  0  0
  -27.4911  -30.9929   22.0860 O   0  0  0  0  0  0  0  0  0  0  0  0
  -22.9456  -32.0248   23.0851 O   0  0  0  0  0  0  0  0  0  0  0  0
  -21.2782  -27.1671   23.5325 O   0  0  0  0  0  0  0  0  0  0  0  0
  -29.1821  -18.0889   21.3054 O   0  0  0  0  0  0  0  0  0  0  0  0
  -22.1220  -20.3524   20.2174 O   0  0  0  0  0  0  0  0  0  0  0  0
  -26.7205  -25.3104   19.5248 O   0  0  0  0  0  0  0  0  0  1  0  0
  -23.4970  -24.2556   23.8614 F   0  0  0  0  0  0  0  0  0  0  0  0
  -24.6888  -21.3761   20.2986 F   0  0  0  0  0  0  0  0  0  0  0  0
  1  2  1  0  0  0  0
  1  5  2  0  0  0  0
  2  6  2  0  0  0  0
  3  8  2  0  0  0  0
  3 15  1  0  0  0  0
  4  9  1  0  0  0  0
  4 15  2  0  0  0  0
  5 17  1  0  0  0  0
  6 19  1  0  0  0  0
  7 10  2  0  0  0  0
  7 18  1  0  0  0  0
  8 24  1  0  0  0  0
  9 24  2  0  0  0  0
 10 25  1  0  0  0  0
 11 12  2  0  0  0  0
 11 26  1  0  0  0  0
 12 27  1  0  0  0  0
 13 20  1  0  0  0  0
 13 25  2  0  0  0  0
 14 27  2  0  0  0  0
 14 28  1  0  0  0  0
 15 29  1  0  0  0  0
 16 29  1  0  0  0  0
 16 32  2  0  0  0  0
 16 33  1  0  0  0  0
 17 19  2  0  0  0  0
 17 38  1  0  0  0  0
 18 20  2  0  0  0  0
 18 39  1  0  0  0  0
 19 50  1  0  0  0  0
 20 40  1  0  0  0  0
 21 22  1  0  0  0  0
 21 23  2  0  0  0  0
 21 54  1  0  0  0  0
 22 30  2  0  0  0  0
 22 55  1  0  0  0  0
 23 31  1  0  0  0  0
 23 62  1  0  0  0  0
 24 83  1  0  0  0  0
 25 84  1  0  0  0  0
 26 28  2  0  0  0  0
 26 83  1  0  0  0  0
 27 85  1  0  0  0  0
 28 86  1  0  0  0  0
 29 67  2  0  0  0  0
 30 63  1  0  0  0  0
 30 68  1  0  0  0  0
 31 56  1  0  0  0  0
 31 68  2  0  0  0  0
 32 69  1  0  0  0  0
 32 73  1  0  0  0  0
 33 74  1  0  0  0  0
 33 78  2  0  0  0  0
 34 51  1  0  0  0  0
 34 75  1  0  0  0  0
 34 79  2  0  0  0  0
 35 64  1  0  0  0  0
 35 70  1  0  0  0  0
 35 80  2  0  0  0  0
 36 65  1  0  0  0  0
 36 76  1  0  0  0  0
 36 81  2  0  0  0  0
 37 71  1  0  0  0  0
 37 72  1  0  0  0  0
 37 82  2  0  0  0  0
 38 41  1  0  0  0  0
 39 51  1  0  0  0  0
 40 70  1  0  0  0  0
 41 44  1  0  0  0  0
 42 45  1  0  0  0  0
 42 47  1  0  0  0  0
 43 46  1  0  0  0  0
 43 48  1  0  0  0  0
 44 50  1  0  0  0  0
 45 52  1  0  0  0  0
 46 53  1  0  0  0  0
 47 71  1  0  0  0  0
 48 72  1  0  0  0  0
 49 52  1  0  0  0  0
 49 71  1  0  0  0  0
 50 75  1  0  0  0  0
 51 70  1  0  0  0  0
 52 69  1  0  0  0  0
 53 62  1  0  0  0  0
 53 72  1  0  0  0  0
 57 65  1  0  0  0  0
 58 66  1  0  0  0  0
 59 66  1  0  0  0  0
 60 66  1  0  0  0  0
 61 77  1  0  0  0  0
 63 84  1  0  0  0  0
 64 66  1  0  0  0  0
 64 76  1  0  0  0  0
 65 77  1  0  0  0  0
 67 69  1  0  0  0  0
M  CHG  1  77   1
M  ISO  4  37 100  63 101  72 100  84 101
M  END
> <Batch ID>
0172

> <Smiles>
CNC(C)C(=O)NC(C(=O)N1Cc2cc([101O:1][101CH2:1]c3nc(C)c(CC4CCC[100N:0]4[100C:0](=O)N4CCCC(n5nc(-c6ccc(Oc7ccc(F)cc7F)cc6)c(C(N)=O)c5N)C4)c(C)c3C)ccc2CC1C(=O)NC1CCCc2ccccc21)C(C)(C)C

> <Shape>
0.279

> <Color>
0.085

> <Negative vol penalty>
0.000

$$$$

  -OEChem-04052322403D

 85 94  0     1  0  0  0  0  0999 V2000
  -25.4748  -27.8797    8.7799 C   0  0  0  0  0  0  0  0  0  0  0  0
  -25.5551  -26.9516    9.8132 C   0  0  0  0  0  0  0  0  0  0  0  0
  -23.2576   -9.8371   19.8941 C   0  0  0  0  0  0  0  0  0  0  0  0
  -23.6531   -9.9583   22.2745 C   0  0  0  0  0  0  0  0  0  0  0  0
  -25.8586  -29.2018    9.0006 C   0  0  0  0  0  0  0  0  0  0  0  0
  -26.0202  -27.3449   11.0676 C   0  0  0  0  0  0  0  0  0  0  0  0
  -23.1768  -25.5376   14.8482 C   0  0  0  0  0  0  0  0  0  0  0  0
  -22.5327   -8.6592   20.0745 C   0  0  0  0  0  0  0  0  0  0  0  0
  -22.9281   -8.7803   22.4549 C   0  0  0  0  0  0  0  0  0  0  0  0
  -23.3652  -24.2030   15.2048 C   0  0  0  0  0  0  0  0  0  0  0  0
  -23.4396   -5.4588   22.0851 C   0  0  0  0  0  0  0  0  0  0  0  0
  -23.9789   -4.4889   22.9300 C   0  0  0  0  0  0  0  0  0  0  0  0
  -24.7369  -24.8994   17.0629 C   0  0  0  0  0  0  0  0  0  0  0  0
  -22.0285   -4.6397   24.3479 C   0  0  0  0  0  0  0  0  0  0  0  0
  -24.4150  -17.7517   17.4429 C   0  0  0  0  0  0  0  0  0  0  0  0
  -23.8179  -10.4866   20.9941 C   0  0  0  0  0  0  0  0  0  0  0  0
  -24.0688  -13.0196   20.8244 C   0  0  0  0  0  0  0  0  0  0  0  0
  -26.3195  -29.6137   10.2610 C   0  0  0  0  0  0  0  0  0  0  0  0
  -23.7770  -26.5644   15.5911 C   0  0  0  0  0  0  0  0  0  0  0  0
  -26.4117  -28.6734   11.3049 C   0  0  0  0  0  0  0  0  0  0  0  0
  -24.5525  -26.2463   16.7152 C   0  0  0  0  0  0  0  0  0  0  0  0
  -25.4525  -18.3717   16.7654 C   0  0  0  0  0  0  0  0  0  0  0  0
  -25.2212  -19.6375   16.2385 C   0  0  0  0  0  0  0  0  0  0  0  0
  -23.9770  -20.2361   16.4030 C   0  0  0  0  0  0  0  0  0  0  0  0
  -22.3679   -8.1308   21.3549 C   0  0  0  0  0  0  0  0  0  0  0  0
  -24.1477  -23.8836   16.3106 C   0  0  0  0  0  0  0  0  0  0  0  0
  -22.1948   -6.0193   22.3716 C   0  0  0  0  0  0  0  0  0  0  0  0
  -23.2734   -4.0793   24.0614 C   0  0  0  0  0  0  0  0  0  0  0  0
  -21.4892   -5.6097   23.5030 C   0  0  0  0  0  0  0  0  0  0  0  0
  -24.5673  -11.7032   20.8084 C   0  0  0  0  0  0  0  0  0  0  0  0
  -23.0056  -19.5326   17.0966 C   0  0  0  0  0  0  0  0  0  0  0  0
  -25.1718  -13.8072   20.6019 C   0  0  0  0  0  0  0  0  0  0  0  0
  -22.7285  -13.4886   21.0228 C   0  0  0  0  0  0  0  0  0  0  0  0
  -25.9068  -28.8384   14.9615 C   0  0  0  0  0  0  0  0  0  0  0  0
  -25.1911  -29.8005   17.9756 C   0  0  0  0  0  0  0  0  0  0  0  0
  -24.0124  -28.9873   21.0734 C   0  0  0  0  0  0  0  0  0  0  0  0
  -29.8521  -14.9974   18.0344 C   0  0  0  0  0  0  0  0  0  0  0  0
  -26.7677  -31.0427   10.4386 C   0  0  0  0  0  0  0  0  0  0  0  0
  -23.5421  -28.0001   15.2092 C   0  0  0  0  0  0  0  0  0  0  0  0
  -25.2021  -27.3123   17.5579 C   0  0  0  0  0  0  0  0  0  0  0  0
  -26.8955  -31.4638   11.9003 C   0  0  0  0  0  0  0  0  0  0  0  0
  -30.0948  -12.6756   20.5843 C   0  0  0  0  0  0  0  0  0  0  0  0
  -27.6441  -30.4012   12.6985 C   0  0  0  0  0  0  0  0  0  0  0  0
  -28.6400  -12.3132   20.8831 C   0  0  0  0  0  0  0  0  0  0  0  0
  -27.7636  -18.0390   17.7487 C   0  0  0  0  0  0  0  0  0  0  0  0
  -26.6293  -16.1421   16.5175 C   0  0  0  0  0  0  0  0  0  0  0  0
  -30.3287  -12.8046   19.0834 C   0  0  0  0  0  0  0  0  0  0  0  0
  -29.0954  -17.3067   17.6027 C   0  0  0  0  0  0  0  0  0  0  0  0
  -27.9859  -15.4539   16.3977 C   0  0  0  0  0  0  0  0  0  0  0  0
  -27.9691  -13.4393   18.7046 C   0  0  0  0  0  0  0  0  0  0  0  0
  -26.7892  -17.6695   16.6170 C   0  0  0  0  0  0  0  0  0  0  0  0
  -26.8877  -29.0673   12.6864 C   0  0  1  0  0  0  0  0  0  0  0  0
  -24.6217  -28.9421   15.7332 C   0  0  1  0  0  0  0  0  0  0  0  0
  -27.6748  -13.3064   20.2122 C   0  0  1  0  0  0  0  0  0  0  0  0
  -26.3075  -20.3500   15.4983 C   0  0  0  0  0  0  0  0  0  0  0  0
  -21.6495  -20.1238   17.3042 C   0  0  0  0  0  0  0  0  0  0  0  0
  -23.5819  -29.9760   23.3393 C   0  0  0  0  0  0  0  0  0  0  0  0
  -28.1806  -29.7112   18.5798 C   0  0  0  0  0  0  0  0  0  0  0  0
  -27.6184  -29.7665   21.0189 C   0  0  0  0  0  0  0  0  0  0  0  0
  -26.9786  -31.6782   19.5497 C   0  0  0  0  0  0  0  0  0  0  0  0
  -21.1140  -28.4143   20.9008 C   0  0  0  0  0  0  0  0  0  0  0  0
  -23.6984  -21.5939   15.8510 C   0  0  0  0  0  0  0  0  0  1  0  0
  -25.7270  -29.4903   19.3524 C   0  0  1  0  0  0  0  0  0  0  0  0
  -22.9930  -29.6630   21.9726 C   0  0  2  0  0  0  0  0  0  0  0  0
  -27.1156  -30.1411   19.6084 C   0  0  0  0  0  0  0  0  0  0  0  0
  -23.1932  -18.3015   17.6228 N   0  0  0  0  0  0  0  0  0  0  0  0
  -25.8845  -11.6532   20.5926 N   0  0  0  0  0  0  0  0  0  0  0  0
  -26.2230  -12.9481   20.4709 N   0  0  0  0  0  0  0  0  0  0  0  0
  -24.9479  -28.7010   17.1402 N   0  0  0  0  0  0  0  0  0  0  0  0
  -29.3889  -13.7511   18.4830 N   0  0  0  0  0  0  0  0  0  0  0  0
  -28.8991  -15.8634   17.4734 N   0  0  0  0  0  0  0  0  0  0  0  0
  -25.3354  -15.1439   20.5074 N   0  0  0  0  0  0  0  0  0  0  0  0
  -21.7153  -12.5445   21.2384 N   0  0  0  0  0  0  0  0  0  0  0  0
  -25.7764  -29.1081   13.6126 N   0  0  0  0  0  0  0  0  0  0  0  0
  -24.6919  -29.9005   20.2952 N   0  0  0  0  0  0  0  0  0  0  0  0
  -21.8058  -28.7825   22.1628 N   0  3  0  0  0  0  0  0  0  0  0  0
  -22.4352  -14.7079   20.9929 O   0  0  0  0  0  0  0  0  0  0  0  0
  -26.9405  -28.5374   15.5470 O   0  0  0  0  0  0  0  0  0  0  0  0
  -24.9889  -30.9745   17.6557 O   0  0  0  0  0  0  0  0  0  0  0  0
  -24.1908  -27.7713   21.0650 O   0  0  0  0  0  0  0  0  0  0  0  0
  -31.0422  -15.3212   18.1328 O   0  0  0  0  0  0  0  0  0  0  0  0
  -21.6603   -6.9815   21.5313 O   0  0  0  0  0  0  0  0  0  0  0  0
  -24.3350  -22.5727   16.6629 O   0  0  0  0  0  0  0  0  0  1  0  0
  -23.7907   -3.1467   24.8719 F   0  0  0  0  0  0  0  0  0  0  0  0
  -20.2924   -6.1436   23.7828 F   0  0  0  0  0  0  0  0  0  0  0  0
  1  2  1  0  0  0  0
  1  5  2  0  0  0  0
  2  6  2  0  0  0  0
  3  8  2  0  0  0  0
  3 16  1  0  0  0  0
  4  9  1  0  0  0  0
  4 16  2  0  0  0  0
  5 18  1  0  0  0  0
  6 20  1  0  0  0  0
  7 10  2  0  0  0  0
  7 19  1  0  0  0  0
  8 25  1  0  0  0  0
  9 25  2  0  0  0  0
 10 26  1  0  0  0  0
 11 12  2  0  0  0  0
 11 27  1  0  0  0  0
 12 28  1  0  0  0  0
 13 21  1  0  0  0  0
 13 26  2  0  0  0  0
 14 28  2  0  0  0  0
 14 29  1  0  0  0  0
 15 22  2  0  0  0  0
 15 66  1  0  0  0  0
 16 30  1  0  0  0  0
 17 30  1  0  0  0  0
 17 32  2  0  0  0  0
 17 33  1  0  0  0  0
 18 20  2  0  0  0  0
 18 38  1  0  0  0  0
 19 21  2  0  0  0  0
 19 39  1  0  0  0  0
 20 52  1  0  0  0  0
 21 40  1  0  0  0  0
 22 23  1  0  0  0  0
 22 51  1  0  0  0  0
 23 24  2  0  0  0  0
 23 55  1  0  0  0  0
 24 31  1  0  0  0  0
 24 62  1  0  0  0  0
 25 82  1  0  0  0  0
 26 83  1  0  0  0  0
 27 29  2  0  0  0  0
 27 82  1  0  0  0  0
 28 84  1  0  0  0  0
 29 85  1  0  0  0  0
 30 67  2  0  0  0  0
 31 56  1  0  0  0  0
 31 66  2  0  0  0  0
 32 68  1  0  0  0  0
 32 72  1  0  0  0  0
 33 73  1  0  0  0  0
 33 77  2  0  0  0  0
 34 53  1  0  0  0  0
 34 74  1  0  0  0  0
 34 78  2  0  0  0  0
 35 63  1  0  0  0  0
 35 69  1  0  0  0  0
 35 79  2  0  0  0  0
 36 64  1  0  0  0  0
 36 75  1  0  0  0  0
 36 80  2  0  0  0  0
 37 70  1  0  0  0  0
 37 71  1  0  0  0  0
 37 81  2  0  0  0  0
 38 41  1  0  0  0  0
 39 53  1  0  0  0  0
 40 69  1  0  0  0  0
 41 43  1  0  0  0  0
 42 44  1  0  0  0  0
 42 47  1  0  0  0  0
 43 52  1  0  0  0  0
 44 54  1  0  0  0  0
 45 48  1  0  0  0  0
 45 51  1  0  0  0  0
 46 49  1  0  0  0  0
 46 51  1  0  0  0  0
 47 70  1  0  0  0  0
 48 71  1  0  0  0  0
 49 71  1  0  0  0  0
 50 54  1  0  0  0  0
 50 70  1  0  0  0  0
 52 74  1  0  0  0  0
 53 69  1  0  0  0  0
 54 68  1  0  0  0  0
 57 64  1  0  0  0  0
 58 65  1  0  0  0  0
 59 65  1  0  0  0  0
 60 65  1  0  0  0  0
 61 76  1  0  0  0  0
 62 83  1  0  0  0  0
 63 65  1  0  0  0  0
 63 75  1  0  0  0  0
 64 76  1  0  0  0  0
 67 68  1  0  0  0  0
M  CHG  1  76   1
M  ISO  4  37 100  62 101  71 100  83 101
M  END
> <Batch ID>
0172

> <Smiles>
CNC(C)C(=O)NC(C(=O)N1Cc2cc([101O:1][101CH2:1]c3c(C)ncc(C4CC[100N:0]([100C:0](=O)N5CCCC(n6nc(-c7ccc(Oc8ccc(F)cc8F)cc7)c(C(N)=O)c6N)C5)CC4)c3C)ccc2CC1C(=O)NC1CCCc2ccccc21)C(C)(C)C

> <Shape>
0.195

> <Color>
0.197

> <Negative vol penalty>
0.000

$$$$

  -OEChem-04052322403D

 93104  0     1  0  0  0  0  0999 V2000
  -19.7603  -29.0339   27.0596 C   0  0  0  0  0  0  0  0  0  0  0  0
  -20.8545  -28.3762   26.5068 C   0  0  0  0  0  0  0  0  0  0  0  0
  -22.9925  -10.4400   21.4776 C   0  0  0  0  0  0  0  0  0  0  0  0
  -24.7485   -8.8126   21.8015 C   0  0  0  0  0  0  0  0  0  0  0  0
  -18.8371  -29.6680   26.2292 C   0  0  0  0  0  0  0  0  0  0  0  0
  -21.0255  -28.3512   25.1231 C   0  0  0  0  0  0  0  0  0  0  0  0
  -26.3312  -28.4673   22.0667 C   0  0  0  0  0  0  0  0  0  0  0  0
  -22.0612   -9.4096   21.3491 C   0  0  0  0  0  0  0  0  0  0  0  0
  -23.8172   -7.7822   21.6732 C   0  0  0  0  0  0  0  0  0  0  0  0
  -27.1024  -27.4604   21.4879 C   0  0  0  0  0  0  0  0  0  0  0  0
  -21.8437   -4.7310   21.7902 C   0  0  0  0  0  0  0  0  0  0  0  0
  -21.9048   -3.6825   22.7080 C   0  0  0  0  0  0  0  0  0  0  0  0
  -30.0120  -22.6753   16.9303 C   0  0  0  0  0  0  0  0  0  0  0  0
  -30.4187  -26.2518   17.8118 C   0  0  0  0  0  0  0  0  0  0  0  0
  -26.0719  -27.9066   19.3529 C   0  0  0  0  0  0  0  0  0  0  0  0
  -21.5308   -5.2423   24.5147 C   0  0  0  0  0  0  0  0  0  0  0  0
  -30.6059  -23.9256   17.1698 C   0  0  0  0  0  0  0  0  0  0  0  0
  -29.8079  -25.0142   17.5783 C   0  0  0  0  0  0  0  0  0  0  0  0
  -24.3362  -10.1415   21.7037 C   0  0  0  0  0  0  0  0  0  0  0  0
  -25.6861  -11.8591   23.0210 C   0  0  0  0  0  0  0  0  0  0  0  0
  -19.0020  -29.6590   24.8352 C   0  0  0  0  0  0  0  0  0  0  0  0
  -25.4150  -29.1953   21.2940 C   0  0  0  0  0  0  0  0  0  0  0  0
  -20.1029  -28.9846   24.2732 C   0  0  0  0  0  0  0  0  0  0  0  0
  -25.2920  -28.9240   19.9238 C   0  0  0  0  0  0  0  0  0  0  0  0
  -28.4255  -24.8258   17.7391 C   0  0  0  0  0  0  0  0  0  0  0  0
  -27.8460  -23.5788   17.4984 C   0  0  0  0  0  0  0  0  0  0  0  0
  -28.6375  -22.5060   17.0949 C   0  0  0  0  0  0  0  0  0  0  0  0
  -22.4735   -8.0807   21.4470 C   0  0  0  0  0  0  0  0  0  0  0  0
  -26.9708  -27.1780   20.1314 C   0  0  0  0  0  0  0  0  0  0  0  0
  -21.6262   -6.0352   22.2346 C   0  0  0  0  0  0  0  0  0  0  0  0
  -21.7484   -3.9382   24.0703 C   0  0  0  0  0  0  0  0  0  0  0  0
  -21.4698   -6.2909   23.5968 C   0  0  0  0  0  0  0  0  0  0  0  0
  -25.2988  -11.2055   21.8359 C   0  0  0  0  0  0  0  0  0  0  0  0
  -31.7894  -26.3572   17.6309 C   0  0  0  0  0  0  0  0  0  0  0  0
  -31.9757  -24.1509   17.0205 C   0  0  0  0  0  0  0  0  0  0  0  0
  -26.6181  -12.7826   22.6150 C   0  0  0  0  0  0  0  0  0  0  0  0
  -25.2431  -11.6500   24.3685 C   0  0  0  0  0  0  0  0  0  0  0  0
  -22.2617  -29.5936   21.3371 C   0  0  0  0  0  0  0  0  0  0  0  0
  -22.8949  -31.7598   19.0070 C   0  0  0  0  0  0  0  0  0  0  0  0
  -24.9979  -32.8329   16.5427 C   0  0  0  0  0  0  0  0  0  0  0  0
  -28.4154  -16.6365   19.3403 C   0  0  0  0  0  0  0  0  0  0  0  0
  -17.9524  -30.3179   23.9757 C   0  0  0  0  0  0  0  0  0  0  0  0
  -24.6098  -30.2963   21.9278 C   0  0  0  0  0  0  0  0  0  0  0  0
  -24.3376  -29.6904   19.0462 C   0  0  0  0  0  0  0  0  0  0  0  0
  -18.4079  -30.5647   22.5398 C   0  0  0  0  0  0  0  0  0  0  0  0
  -28.9784  -13.3681   18.1871 C   0  0  0  0  0  0  0  0  0  0  0  0
  -19.0831  -29.3201   21.9725 C   0  0  0  0  0  0  0  0  0  0  0  0
  -33.5905  -27.7456   18.8565 C   0  0  0  0  0  0  0  0  0  0  0  0
  -32.2655  -28.3421   19.2157 C   0  0  0  0  0  0  0  0  0  0  0  0
  -28.0959  -12.5559   19.1346 C   0  0  0  0  0  0  0  0  0  0  0  0
  -27.8793  -18.8472   16.6545 C   0  0  0  0  0  0  0  0  0  0  0  0
  -29.2379  -19.8967   18.5040 C   0  0  0  0  0  0  0  0  0  0  0  0
  -28.3026  -14.6682   17.7476 C   0  0  0  0  0  0  0  0  0  0  0  0
  -28.5379  -17.4986   16.9594 C   0  0  0  0  0  0  0  0  0  0  0  0
  -29.8879  -18.5385   18.7526 C   0  0  0  0  0  0  0  0  0  0  0  0
  -26.9502  -14.6975   19.8186 C   0  0  0  0  0  0  0  0  0  0  0  0
  -20.3362  -28.9566   22.7783 C   0  0  1  0  0  0  0  0  0  0  0  0
  -32.4476  -27.6734   17.8790 C   0  0  0  0  0  0  0  0  0  0  0  0
  -23.3371  -30.6270   21.1543 C   0  0  1  0  0  0  0  0  0  0  0  0
  -27.6263  -13.4133   20.3233 C   0  0  1  0  0  0  0  0  0  0  0  0
  -28.7852  -20.0169   17.0465 C   0  0  0  0  0  0  0  0  0  0  0  0
  -26.3705  -23.3929   17.6740 C   0  0  0  0  0  0  0  0  0  0  0  0
  -32.8999  -23.0555   16.5916 C   0  0  0  0  0  0  0  0  0  0  0  0
  -25.2284  -34.6087   14.7846 C   0  0  0  0  0  0  0  0  0  0  0  0
  -20.8529  -30.3022   17.2705 C   0  0  0  0  0  0  0  0  0  0  0  0
  -21.8023  -31.4881   15.2805 C   0  0  0  0  0  0  0  0  0  0  0  0
  -20.7531  -32.7970   17.1268 C   0  0  0  0  0  0  0  0  0  0  0  0
  -27.4833  -33.8802   17.7613 C   0  0  0  0  0  0  0  0  0  0  0  0
  -27.5394  -25.9562   18.1718 C   0  0  0  0  0  0  0  0  0  1  0  0
  -23.0047  -31.7100   17.5022 C   0  0  1  0  0  0  0  0  0  0  0  0
  -25.5481  -34.2097   16.2169 C   0  0  2  0  0  0  0  0  0  0  0  0
  -21.6199  -31.5584   16.8117 C   0  0  0  0  0  0  0  0  0  0  0  0
  -25.9328  -11.6742   20.7577 N   0  0  0  0  0  0  0  0  0  0  0  0
  -32.5843  -25.3381   17.2410 N   0  0  0  0  0  0  0  0  0  0  0  0
  -26.7278  -12.6322   21.2639 N   0  0  0  0  0  0  0  0  0  0  0  0
  -23.5678  -30.7530   19.7138 N   0  0  0  0  0  0  0  0  0  0  0  0
  -27.8363  -15.4321   18.9132 N   0  0  0  0  0  0  0  0  0  0  0  0
  -28.9977  -17.4474   18.3547 N   0  0  0  0  0  0  0  0  0  0  0  0
  -27.3462  -13.7007   23.2854 N   0  0  0  0  0  0  0  0  0  0  0  0
  -24.2804  -10.6603   24.6094 N   0  0  0  0  0  0  0  0  0  0  0  0
  -28.0783  -21.2638   16.8531 N   0  0  0  0  0  0  0  0  0  0  0  0
  -21.4367  -29.8258   22.4210 N   0  0  0  0  0  0  0  0  0  0  0  0
  -23.7418  -32.9053   17.1069 N   0  0  0  0  0  0  0  0  0  0  0  0
  -27.0280  -34.2307   16.3913 N   0  3  0  0  0  0  0  0  0  0  0  0
  -25.6758  -12.3321   25.3283 O   0  0  0  0  0  0  0  0  0  0  0  0
  -22.1853  -28.6559   20.5519 O   0  0  0  0  0  0  0  0  0  0  0  0
  -22.2423  -32.6630   19.5362 O   0  0  0  0  0  0  0  0  0  0  0  0
  -25.6186  -31.7967   16.3158 O   0  0  0  0  0  0  0  0  0  0  0  0
  -28.4123  -16.9681   20.5324 O   0  0  0  0  0  0  0  0  0  0  0  0
  -21.5650   -7.0749   21.3220 O   0  0  0  0  0  0  0  0  0  0  0  0
  -27.7278  -26.1875   19.5596 O   0  0  0  0  0  0  0  0  0  1  0  0
  -21.8056   -2.9310   24.9515 F   0  0  0  0  0  0  0  0  0  0  0  0
  -21.2594   -7.5415   24.0296 F   0  0  0  0  0  0  0  0  0  0  0  0
  1  2  1  0  0  0  0
  1  5  2  0  0  0  0
  2  6  2  0  0  0  0
  3  8  2  0  0  0  0
  3 19  1  0  0  0  0
  4  9  1  0  0  0  0
  4 19  2  0  0  0  0
  5 21  1  0  0  0  0
  6 23  1  0  0  0  0
  7 10  2  0  0  0  0
  7 22  1  0  0  0  0
  8 28  1  0  0  0  0
  9 28  2  0  0  0  0
 10 29  1  0  0  0  0
 11 12  2  0  0  0  0
 11 30  1  0  0  0  0
 12 31  1  0  0  0  0
 13 17  2  0  0  0  0
 13 27  1  0  0  0  0
 14 18  1  0  0  0  0
 14 34  2  0  0  0  0
 15 24  1  0  0  0  0
 15 29  2  0  0  0  0
 16 31  2  0  0  0  0
 16 32  1  0  0  0  0
 17 18  1  0  0  0  0
 17 35  1  0  0  0  0
 18 25  2  0  0  0  0
 19 33  1  0  0  0  0
 20 33  1  0  0  0  0
 20 36  2  0  0  0  0
 20 37  1  0  0  0  0
 21 23  2  0  0  0  0
 21 42  1  0  0  0  0
 22 24  2  0  0  0  0
 22 43  1  0  0  0  0
 23 57  1  0  0  0  0
 24 44  1  0  0  0  0
 25 26  1  0  0  0  0
 25 69  1  0  0  0  0
 26 27  2  0  0  0  0
 26 62  1  0  0  0  0
 27 81  1  0  0  0  0
 28 90  1  0  0  0  0
 29 91  1  0  0  0  0
 30 32  2  0  0  0  0
 30 90  1  0  0  0  0
 31 92  1  0  0  0  0
 32 93  1  0  0  0  0
 33 73  2  0  0  0  0
 34 58  1  0  0  0  0
 34 74  1  0  0  0  0
 35 63  1  0  0  0  0
 35 74  2  0  0  0  0
 36 75  1  0  0  0  0
 36 79  1  0  0  0  0
 37 80  1  0  0  0  0
 37 85  2  0  0  0  0
 38 59  1  0  0  0  0
 38 82  1  0  0  0  0
 38 86  2  0  0  0  0
 39 70  1  0  0  0  0
 39 76  1  0  0  0  0
 39 87  2  0  0  0  0
 40 71  1  0  0  0  0
 40 83  1  0  0  0  0
 40 88  2  0  0  0  0
 41 77  1  0  0  0  0
 41 78  1  0  0  0  0
 41 89  2  0  0  0  0
 42 45  1  0  0  0  0
 43 59  1  0  0  0  0
 44 76  1  0  0  0  0
 45 47  1  0  0  0  0
 46 50  1  0  0  0  0
 46 53  1  0  0  0  0
 47 57  1  0  0  0  0
 48 49  1  0  0  0  0
 48 58  1  0  0  0  0
 49 58  1  0  0  0  0
 50 60  1  0  0  0  0
 51 54  1  0  0  0  0
 51 61  1  0  0  0  0
 52 55  1  0  0  0  0
 52 61  1  0  0  0  0
 53 77  1  0  0  0  0
 54 78  1  0  0  0  0
 55 78  1  0  0  0  0
 56 60  1  0  0  0  0
 56 77  1  0  0  0  0
 57 82  1  0  0  0  0
 59 76  1  0  0  0  0
 60 75  1  0  0  0  0
 61 81  1  0  0  0  0
 64 71  1  0  0  0  0
 65 72  1  0  0  0  0
 66 72  1  0  0  0  0
 67 72  1  0  0  0  0
 68 84  1  0  0  0  0
 69 91  1  0  0  0  0
 70 72  1  0  0  0  0
 70 83  1  0  0  0  0
 71 84  1  0  0  0  0
 73 75  1  0  0  0  0
M  CHG  1  84   1
M  ISO  4  41 100  69 101  78 100  91 101
M  END
> <Batch ID>
0172

> <Smiles>
CNC(C)C(=O)NC(C(=O)N1Cc2cc([101O:1][101CH2:1]c3c(C)c(NC4CC[100N:0]([100C:0](=O)N5CCCC(n6nc(-c7ccc(Oc8ccc(F)cc8F)cc7)c(C(N)=O)c6N)C5)CC4)cc4c(C)nc(C5CC5)cc34)ccc2CC1C(=O)NC1CCCc2ccccc21)C(C)(C)C

> <Shape>
0.277

> <Color>
0.126

> <Negative vol penalty>
0.000

$$$$

  -OEChem-04052322403D

 89100  0     1  0  0  0  0  0999 V2000
  -26.4198  -31.8802   26.0163 C   0  0  0  0  0  0  0  0  0  0  0  0
  -26.8716  -32.3345   24.7825 C   0  0  0  0  0  0  0  0  0  0  0  0
  -22.6728  -10.1269   20.1797 C   0  0  0  0  0  0  0  0  0  0  0  0
  -24.3217   -9.4201   21.7979 C   0  0  0  0  0  0  0  0  0  0  0  0
  -26.5027  -30.5249   26.3287 C   0  0  0  0  0  0  0  0  0  0  0  0
  -27.3956  -31.4322   23.8561 C   0  0  0  0  0  0  0  0  0  0  0  0
  -29.7540  -27.2316   17.0594 C   0  0  0  0  0  0  0  0  0  0  0  0
  -21.9582   -8.9481   20.3929 C   0  0  0  0  0  0  0  0  0  0  0  0
  -23.6072   -8.2412   22.0111 C   0  0  0  0  0  0  0  0  0  0  0  0
  -29.8436  -25.8817   16.7227 C   0  0  0  0  0  0  0  0  0  0  0  0
  -20.8592   -7.2710   23.7221 C   0  0  0  0  0  0  0  0  0  0  0  0
  -20.6680   -6.8604   25.0414 C   0  0  0  0  0  0  0  0  0  0  0  0
  -30.7754  -21.5405   22.5588 C   0  0  0  0  0  0  0  0  0  0  0  0
  -27.7696  -25.4614   17.8808 C   0  0  0  0  0  0  0  0  0  0  0  0
  -21.8361   -4.7990   24.5690 C   0  0  0  0  0  0  0  0  0  0  0  0
  -23.8546  -10.3629   20.8822 C   0  0  0  0  0  0  0  0  0  0  0  0
  -30.8301  -22.8587   22.1296 C   0  0  0  0  0  0  0  0  0  0  0  0
  -24.1401  -12.8978   20.8622 C   0  0  0  0  0  0  0  0  0  0  0  0
  -27.0396  -29.6080   25.4100 C   0  0  0  0  0  0  0  0  0  0  0  0
  -28.6753  -27.7055   17.8198 C   0  0  0  0  0  0  0  0  0  0  0  0
  -27.4657  -30.0570   24.1434 C   0  0  0  0  0  0  0  0  0  0  0  0
  -27.6673  -26.8183   18.2236 C   0  0  0  0  0  0  0  0  0  0  0  0
  -30.7150  -23.1869   20.7824 C   0  0  0  0  0  0  0  0  0  0  0  0
  -22.4254   -8.0053   21.3086 C   0  0  0  0  0  0  0  0  0  0  0  0
  -28.8528  -24.9958   17.1359 C   0  0  0  0  0  0  0  0  0  0  0  0
  -21.5387   -6.4456   22.8262 C   0  0  0  0  0  0  0  0  0  0  0  0
  -21.1565   -5.6244   25.4648 C   0  0  0  0  0  0  0  0  0  0  0  0
  -22.0271   -5.2096   23.2497 C   0  0  0  0  0  0  0  0  0  0  0  0
  -24.5934  -11.5801   20.6620 C   0  0  0  0  0  0  0  0  0  0  0  0
  -30.5399  -22.1408   19.8912 C   0  0  0  0  0  0  0  0  0  0  0  0
  -30.6130  -20.5733   21.5810 C   0  0  0  0  0  0  0  0  0  0  0  0
  -25.2095  -13.6857   20.5130 C   0  0  0  0  0  0  0  0  0  0  0  0
  -30.9709  -23.9624   23.0840 C   0  0  0  0  0  0  0  0  0  0  0  0
  -22.8662  -13.3676   21.3228 C   0  0  0  0  0  0  0  0  0  0  0  0
  -28.3737  -29.0934   20.6635 C   0  0  0  0  0  0  0  0  0  0  0  0
  -25.2681  -29.3657   19.7672 C   0  0  0  0  0  0  0  0  0  0  0  0
  -22.8146  -27.3026   18.1114 C   0  0  0  0  0  0  0  0  0  0  0  0
  -30.6726  -14.8171   20.6551 C   0  0  0  0  0  0  0  0  0  0  0  0
  -27.0984  -28.1513   25.7970 C   0  0  0  0  0  0  0  0  0  0  0  0
  -28.5795  -29.1694   18.1520 C   0  0  0  0  0  0  0  0  0  0  0  0
  -30.7012  -24.6273   20.3847 C   0  0  0  0  0  0  0  0  0  0  0  0
  -26.4783  -27.2803   19.0244 C   0  0  0  0  0  0  0  0  0  0  0  0
  -28.0682  -27.3466   24.9377 C   0  0  0  0  0  0  0  0  0  0  0  0
  -29.5458  -12.5089   18.1895 C   0  0  0  0  0  0  0  0  0  0  0  0
  -27.8095  -27.6232   23.4642 C   0  0  0  0  0  0  0  0  0  0  0  0
  -28.1226  -12.1658   18.6330 C   0  0  0  0  0  0  0  0  0  0  0  0
  -30.2764  -17.3640   23.3673 C   0  0  0  0  0  0  0  0  0  0  0  0
  -29.6465  -21.4008   17.5825 C   0  0  0  0  0  0  0  0  0  0  0  0
  -31.5720  -25.4358   21.3428 C   0  0  0  0  0  0  0  0  0  0  0  0
  -30.4784  -12.7001   19.3836 C   0  0  0  0  0  0  0  0  0  0  0  0
  -30.6773  -18.8388   23.3921 C   0  0  0  0  0  0  0  0  0  0  0  0
  -28.5853  -13.3308   20.8301 C   0  0  0  0  0  0  0  0  0  0  0  0
  -30.3752  -18.1209   21.1006 C   0  0  0  0  0  0  0  0  0  0  0  0
  -28.0675  -29.0983   23.1319 C   0  0  1  0  0  0  0  0  0  0  0  0
  -30.3741  -22.4076   18.4425 C   0  0  1  0  0  0  0  0  0  0  0  0
  -27.7017  -29.4500   19.3677 C   0  0  1  0  0  0  0  0  0  0  0  0
  -27.5952  -13.1836   19.6621 C   0  0  2  0  0  0  0  0  0  0  0  0
  -30.7134  -16.9156   21.9795 C   0  0  2  0  0  0  0  0  0  0  0  0
  -28.9952  -22.7122   17.8994 C   0  0  1  0  0  0  0  0  0  1  0  0
  -20.8032  -27.9340   16.7501 C   0  0  0  0  0  0  0  0  0  0  0  0
  -23.7575  -29.0918   22.4041 C   0  0  0  0  0  0  0  0  0  0  0  0
  -21.8564  -28.0774   21.1293 C   0  0  0  0  0  0  0  0  0  0  0  0
  -22.5660  -30.4209   20.6524 C   0  0  0  0  0  0  0  0  0  0  0  0
  -23.7286  -25.6937   15.8016 C   0  0  0  0  0  0  0  0  0  0  0  0
  -24.0360  -28.5043   19.9054 C   0  0  1  0  0  0  0  0  0  0  0  0
  -22.2593  -27.4969   16.7120 C   0  0  2  0  0  0  0  0  0  0  0  0
  -23.0800  -29.0122   21.0215 C   0  0  0  0  0  0  0  0  0  0  0  0
  -25.8527  -11.5297   20.2197 N   0  0  0  0  0  0  0  0  0  0  0  0
  -30.4946  -20.8382   20.2576 N   0  0  0  0  0  0  0  0  0  0  0  0
  -31.2637  -25.1764   22.7579 N   0  0  0  0  0  0  0  0  0  0  0  0
  -26.1998  -12.8255   20.1390 N   0  0  0  0  0  0  0  0  0  0  0  0
  -30.5663  -19.2598   21.9970 N   0  0  3  0  0  0  0  0  0  0  0  0
  -26.4330  -28.7199   19.3295 N   0  0  0  0  0  0  0  0  0  0  0  0
  -29.9211  -13.6786   20.3205 N   0  0  0  0  0  0  0  0  0  0  0  0
  -25.3901  -15.0233   20.4923 N   0  0  0  0  0  0  0  0  0  0  0  0
  -21.8799  -12.4230   21.6381 N   0  0  0  0  0  0  0  0  0  0  0  0
  -27.6134  -29.3653   21.7849 N   0  0  0  0  0  0  0  0  0  0  0  0
  -23.4289  -28.4446   18.5801 N   0  0  0  0  0  0  0  0  0  0  0  0
  -30.0681  -15.6968   21.5448 N   0  0  0  0  0  0  0  0  0  0  0  0
  -22.3485  -26.2262   15.9383 N   0  3  0  0  0  0  0  0  0  0  0  0
  -22.6046  -14.5892   21.4353 O   0  0  0  0  0  0  0  0  0  0  0  0
  -29.4980  -28.6063   20.6470 O   0  0  0  0  0  0  0  0  0  0  0  0
  -25.1976  -30.5687   20.0308 O   0  0  0  0  0  0  0  0  0  0  0  0
  -22.7102  -26.2449   18.7286 O   0  0  0  0  0  0  0  0  0  0  0  0
  -31.7966  -15.0363   20.1909 O   0  0  0  0  0  0  0  0  0  0  0  0
  -21.7283   -6.8550   21.5170 O   0  0  0  0  0  0  0  0  0  0  0  0
  -28.9382  -23.6775   16.8092 O   0  0  0  0  0  0  0  0  0  1  0  0
  -20.9742   -5.2309   26.7321 F   0  0  0  0  0  0  0  0  0  0  0  0
  -22.6818   -4.4128   22.3939 F   0  0  0  0  0  0  0  0  0  0  0  0
  1  2  1  0  0  0  0
  1  5  2  0  0  0  0
  2  6  2  0  0  0  0
  3  8  2  0  0  0  0
  3 16  1  0  0  0  0
  4  9  1  0  0  0  0
  4 16  2  0  0  0  0
  5 19  1  0  0  0  0
  6 21  1  0  0  0  0
  7 10  2  0  0  0  0
  7 20  1  0  0  0  0
  8 24  1  0  0  0  0
  9 24  2  0  0  0  0
 10 25  1  0  0  0  0
 11 12  2  0  0  0  0
 11 26  1  0  0  0  0
 12 27  1  0  0  0  0
 13 17  2  0  0  0  0
 13 31  1  0  0  0  0
 14 22  1  0  0  0  0
 14 25  2  0  0  0  0
 15 27  2  0  0  0  0
 15 28  1  0  0  0  0
 16 29  1  0  0  0  0
 17 23  1  0  0  0  0
 17 33  1  0  0  0  0
 18 29  1  0  0  0  0
 18 32  2  0  0  0  0
 18 34  1  0  0  0  0
 19 21  2  0  0  0  0
 19 39  1  0  0  0  0
 20 22  2  0  0  0  0
 20 40  1  0  0  0  0
 21 54  1  0  0  0  0
 22 42  1  0  0  0  0
 23 30  2  0  0  0  0
 23 41  1  0  0  0  0
 24 86  1  0  0  0  0
 25 87  1  0  0  0  0
 26 28  2  0  0  0  0
 26 86  1  0  0  0  0
 27 88  1  0  0  0  0
 28 89  1  0  0  0  0
 29 68  2  0  0  0  0
 30 55  1  0  0  0  0
 30 69  1  0  0  0  0
 31 69  2  0  0  0  0
 31 72  1  0  0  0  0
 32 71  1  0  0  0  0
 32 75  1  0  0  0  0
 33 70  2  0  0  0  0
 34 76  1  0  0  0  0
 34 81  2  0  0  0  0
 35 56  1  0  0  0  0
 35 77  1  0  0  0  0
 35 82  2  0  0  0  0
 36 65  1  0  0  0  0
 36 73  1  0  0  0  0
 36 83  2  0  0  0  0
 37 66  1  0  0  0  0
 37 78  1  0  0  0  0
 37 84  2  0  0  0  0
 38 74  1  0  0  0  0
 38 79  1  0  0  0  0
 38 85  2  0  0  0  0
 39 43  1  0  0  0  0
 40 56  1  0  0  0  0
 41 49  1  0  0  0  0
 42 73  1  0  0  0  0
 43 45  1  0  0  0  0
 44 46  1  0  0  0  0
 44 50  1  0  0  0  0
 45 54  1  0  0  0  0
 46 57  1  0  0  0  0
 47 51  1  0  0  0  0
 47 58  1  0  0  0  0
 48 55  1  0  0  0  0
 48 59  1  0  0  0  0
 49 70  1  0  0  0  0
 50 74  1  0  0  0  0
 51 72  1  0  0  0  0
 52 57  1  0  0  0  0
 52 74  1  0  0  0  0
 53 58  1  0  0  0  0
 53 72  1  0  0  0  0
 54 77  1  0  0  0  0
 55 59  1  0  0  0  0
 56 73  1  0  0  0  0
 57 71  1  0  0  0  0
 58 79  1  0  0  0  0
 59 87  1  0  0  0  0
 60 66  1  0  0  0  0
 61 67  1  0  0  0  0
 62 67  1  0  0  0  0
 63 67  1  0  0  0  0
 64 80  1  0  0  0  0
 65 67  1  0  0  0  0
 65 78  1  0  0  0  0
 66 80  1  0  0  0  0
 68 71  1  0  0  0  0
M  CHG  1  80   1
M  ISO  4  38 100  59 101  79 100  87 101
M  END
> <Batch ID>
0172

> <Smiles>
CNC(C)C(=O)NC(C(=O)N1Cc2cc([101O:1][101CH:1]3CC3c3nc(N4CCC([100NH:0][100C:0](=O)N5CCCC(n6nc(-c7ccc(Oc8ccc(F)cc8F)cc7)c(C(N)=O)c6N)C5)C4)cc4c3CCN=C4)ccc2CC1C(=O)NC1CCCc2ccccc21)C(C)(C)C

> <Shape>
0.374

> <Color>
0.193

> <Negative vol penalty>
0.000

$$$$

  -OEChem-04052322403D

 89100  0     1  0  0  0  0  0999 V2000
  -21.9264  -31.0495   14.2797 C   0  0  0  0  0  0  0  0  0  0  0  0
  -23.0489  -30.4730   14.8654 C   0  0  0  0  0  0  0  0  0  0  0  0
  -23.7824   -9.8862   22.1304 C   0  0  0  0  0  0  0  0  0  0  0  0
  -25.1119   -7.8873   21.8585 C   0  0  0  0  0  0  0  0  0  0  0  0
  -21.3976  -32.2294   14.8014 C   0  0  0  0  0  0  0  0  0  0  0  0
  -23.6441  -31.0768   15.9725 C   0  0  0  0  0  0  0  0  0  0  0  0
  -24.8096  -27.7492   19.6076 C   0  0  0  0  0  0  0  0  0  0  0  0
  -22.6198   -9.1382   21.9446 C   0  0  0  0  0  0  0  0  0  0  0  0
  -23.9493   -7.1393   21.6727 C   0  0  0  0  0  0  0  0  0  0  0  0
  -25.9560  -26.9779   19.4210 C   0  0  0  0  0  0  0  0  0  0  0  0
  -21.3135   -4.6422   21.4855 C   0  0  0  0  0  0  0  0  0  0  0  0
  -21.2097   -3.4254   22.1594 C   0  0  0  0  0  0  0  0  0  0  0  0
  -29.0781  -22.7168   21.3191 C   0  0  0  0  0  0  0  0  0  0  0  0
  -29.7896  -20.6029   19.6434 C   0  0  0  0  0  0  0  0  0  0  0  0
  -27.1782  -28.4501   20.8900 C   0  0  0  0  0  0  0  0  0  0  0  0
  -21.4125   -4.5786   24.2728 C   0  0  0  0  0  0  0  0  0  0  0  0
  -25.0284   -9.2608   22.0873 C   0  0  0  0  0  0  0  0  0  0  0  0
  -26.8828  -10.3015   23.4964 C   0  0  0  0  0  0  0  0  0  0  0  0
  -21.9809  -32.8427   15.9214 C   0  0  0  0  0  0  0  0  0  0  0  0
  -24.8419  -28.8849   20.4295 C   0  0  0  0  0  0  0  0  0  0  0  0
  -23.1235  -32.2667   16.5088 C   0  0  0  0  0  0  0  0  0  0  0  0
  -29.1001  -21.4125   21.8129 C   0  0  0  0  0  0  0  0  0  0  0  0
  -29.4118  -22.9643   19.9875 C   0  0  0  0  0  0  0  0  0  0  0  0
  -29.4559  -20.3555   20.9750 C   0  0  0  0  0  0  0  0  0  0  0  0
  -26.0303  -29.2327   21.0874 C   0  0  0  0  0  0  0  0  0  0  0  0
  -29.7675  -21.9073   19.1497 C   0  0  0  0  0  0  0  0  0  0  0  0
  -22.7032   -7.7648   21.7158 C   0  0  0  0  0  0  0  0  0  0  0  0
  -27.1413  -27.3300   20.0599 C   0  0  0  0  0  0  0  0  0  0  0  0
  -21.4669   -5.8272   22.2052 C   0  0  0  0  0  0  0  0  0  0  0  0
  -21.2592   -3.3936   23.5531 C   0  0  0  0  0  0  0  0  0  0  0  0
  -21.5164   -5.7954   23.5988 C   0  0  0  0  0  0  0  0  0  0  0  0
  -26.2298  -10.0330   22.2786 C   0  0  0  0  0  0  0  0  0  0  0  0
  -27.9659  -11.0689   23.1434 C   0  0  0  0  0  0  0  0  0  0  0  0
  -26.5411   -9.8937   24.8278 C   0  0  0  0  0  0  0  0  0  0  0  0
  -24.3678  -31.9953   19.9774 C   0  0  0  0  0  0  0  0  0  0  0  0
  -24.6728  -32.1141   23.2046 C   0  0  0  0  0  0  0  0  0  0  0  0
  -25.8920  -30.6855   26.0541 C   0  0  0  0  0  0  0  0  0  0  0  0
  -30.3478  -15.0986   20.2958 C   0  0  0  0  0  0  0  0  0  0  0  0
  -21.4020  -34.1428   16.4207 C   0  0  0  0  0  0  0  0  0  0  0  0
  -23.5898  -29.6910   20.6416 C   0  0  0  0  0  0  0  0  0  0  0  0
  -26.1122  -30.4309   21.9963 C   0  0  0  0  0  0  0  0  0  0  0  0
  -21.8682  -34.5176   17.8252 C   0  0  0  0  0  0  0  0  0  0  0  0
  -29.9405  -12.1074   18.6119 C   0  0  0  0  0  0  0  0  0  0  0  0
  -27.3227  -20.7980   23.5840 C   0  0  0  0  0  0  0  0  0  0  0  0
  -27.8430  -22.1541   23.9454 C   0  0  0  0  0  0  0  0  0  0  0  0
  -23.3779  -34.3402   17.9516 C   0  0  0  0  0  0  0  0  0  0  0  0
  -28.9928  -11.3116   19.5091 C   0  0  0  0  0  0  0  0  0  0  0  0
  -28.4735  -18.0298   20.7565 C   0  0  0  0  0  0  0  0  0  0  0  0
  -30.9000  -18.3204   21.4175 C   0  0  0  0  0  0  0  0  0  0  0  0
  -28.5509  -24.6889   18.2670 C   0  0  0  0  0  0  0  0  0  0  0  0
  -29.5181  -13.5699   18.5335 C   0  0  0  0  0  0  0  0  0  0  0  0
  -28.5333  -16.5836   21.2565 C   0  0  0  0  0  0  0  0  0  0  0  0
  -30.8952  -16.8811   21.9242 C   0  0  0  0  0  0  0  0  0  0  0  0
  -28.4747  -13.4573   20.7733 C   0  0  0  0  0  0  0  0  0  0  0  0
  -28.7403  -21.1713   23.2416 C   0  0  0  0  0  0  0  0  0  0  0  0
  -29.3817  -24.3682   19.4812 C   0  0  1  0  0  0  0  0  0  0  0  0
  -29.4873  -18.9281   21.4878 C   0  0  0  0  0  0  0  0  0  0  0  0
  -23.7825  -32.8784   17.7261 C   0  0  1  0  0  0  0  0  0  0  0  0
  -23.8694  -31.1212   21.0932 C   0  0  1  0  0  0  0  0  0  0  0  0
  -28.8602  -11.9689   20.8943 C   0  0  1  0  0  0  0  0  0  0  0  0
  -28.1089  -25.1653   19.6168 C   0  0  1  0  0  0  0  0  0  1  0  0
  -30.1283  -22.1465   17.7199 C   0  0  0  0  0  0  0  0  0  0  0  0
  -26.0137  -31.0343   28.5362 C   0  0  0  0  0  0  0  0  0  0  0  0
  -26.8215  -34.2420   22.7979 C   0  0  0  0  0  0  0  0  0  0  0  0
  -27.5503  -33.8585   25.1622 C   0  0  0  0  0  0  0  0  0  0  0  0
  -25.2487  -34.6957   24.6886 C   0  0  0  0  0  0  0  0  0  0  0  0
  -24.4262  -28.1722   26.5960 C   0  0  0  0  0  0  0  0  0  0  0  0
  -25.8252  -32.2907   24.1638 C   0  0  1  0  0  0  0  0  0  0  0  0
  -25.2399  -30.3948   27.3938 C   0  0  2  0  0  0  0  0  0  0  0  0
  -26.3607  -33.7502   24.1845 C   0  0  0  0  0  0  0  0  0  0  0  0
  -26.8463  -10.5851   21.2302 N   0  0  0  0  0  0  0  0  0  0  0  0
  -27.8981  -11.2082   21.7883 N   0  0  0  0  0  0  0  0  0  0  0  0
  -24.8629  -31.1910   22.1666 N   0  0  0  0  0  0  0  0  0  0  0  0
  -29.3999  -14.1567   19.8682 N   0  0  0  0  0  0  0  0  0  0  0  0
  -29.9104  -16.0732   21.2053 N   0  0  0  0  0  0  0  0  0  0  0  0
  -28.9600  -11.6314   23.8629 N   0  0  0  0  0  0  0  0  0  0  0  0
  -25.3956   -9.1075   25.0125 N   0  0  0  0  0  0  0  0  0  0  0  0
  -23.5008  -32.0883   18.9054 N   0  0  0  0  0  0  0  0  0  0  0  0
  -25.3565  -31.8077   25.4582 N   0  0  0  0  0  0  0  0  0  0  0  0
  -25.1789  -28.9250   27.6321 N   0  3  0  0  0  0  0  0  0  0  0  0
  -27.2220  -10.2305   25.8260 O   0  0  0  0  0  0  0  0  0  0  0  0
  -25.4576  -32.5459   20.0819 O   0  0  0  0  0  0  0  0  0  0  0  0
  -23.6394  -32.7659   23.3744 O   0  0  0  0  0  0  0  0  0  0  0  0
  -26.7894  -29.9890   25.5850 O   0  0  0  0  0  0  0  0  0  0  0  0
  -31.5164  -15.0706   19.8899 O   0  0  0  0  0  0  0  0  0  0  0  0
  -21.5690   -7.0346   21.5347 O   0  0  0  0  0  0  0  0  0  0  0  0
  -28.2780  -26.5684   19.8764 O   0  0  0  0  0  0  0  0  0  1  0  0
  -21.1580   -2.2252   24.2002 F   0  0  0  0  0  0  0  0  0  0  0  0
  -21.6624   -6.9307   24.2957 F   0  0  0  0  0  0  0  0  0  0  0  0
  1  2  1  0  0  0  0
  1  5  2  0  0  0  0
  2  6  2  0  0  0  0
  3  8  2  0  0  0  0
  3 17  1  0  0  0  0
  4  9  1  0  0  0  0
  4 17  2  0  0  0  0
  5 19  1  0  0  0  0
  6 21  1  0  0  0  0
  7 10  2  0  0  0  0
  7 20  1  0  0  0  0
  8 27  1  0  0  0  0
  9 27  2  0  0  0  0
 10 28  1  0  0  0  0
 11 12  2  0  0  0  0
 11 29  1  0  0  0  0
 12 30  1  0  0  0  0
 13 22  2  0  0  0  0
 13 23  1  0  0  0  0
 14 24  2  0  0  0  0
 14 26  1  0  0  0  0
 15 25  1  0  0  0  0
 15 28  2  0  0  0  0
 16 30  2  0  0  0  0
 16 31  1  0  0  0  0
 17 32  1  0  0  0  0
 18 32  1  0  0  0  0
 18 33  2  0  0  0  0
 18 34  1  0  0  0  0
 19 21  2  0  0  0  0
 19 39  1  0  0  0  0
 20 25  2  0  0  0  0
 20 40  1  0  0  0  0
 21 58  1  0  0  0  0
 22 24  1  0  0  0  0
 22 55  1  0  0  0  0
 23 26  2  0  0  0  0
 23 56  1  0  0  0  0
 24 57  1  0  0  0  0
 25 41  1  0  0  0  0
 26 62  1  0  0  0  0
 27 86  1  0  0  0  0
 28 87  1  0  0  0  0
 29 31  2  0  0  0  0
 29 86  1  0  0  0  0
 30 88  1  0  0  0  0
 31 89  1  0  0  0  0
 32 71  2  0  0  0  0
 33 72  1  0  0  0  0
 33 76  1  0  0  0  0
 34 77  1  0  0  0  0
 34 81  2  0  0  0  0
 35 59  1  0  0  0  0
 35 78  1  0  0  0  0
 35 82  2  0  0  0  0
 36 68  1  0  0  0  0
 36 73  1  0  0  0  0
 36 83  2  0  0  0  0
 37 69  1  0  0  0  0
 37 79  1  0  0  0  0
 37 84  2  0  0  0  0
 38 74  1  0  0  0  0
 38 75  1  0  0  0  0
 38 85  2  0  0  0  0
 39 42  1  0  0  0  0
 40 59  1  0  0  0  0
 41 73  1  0  0  0  0
 42 46  1  0  0  0  0
 43 47  1  0  0  0  0
 43 51  1  0  0  0  0
 44 45  1  0  0  0  0
 44 55  1  0  0  0  0
 45 55  1  0  0  0  0
 46 58  1  0  0  0  0
 47 60  1  0  0  0  0
 48 52  1  0  0  0  0
 48 57  1  0  0  0  0
 49 53  1  0  0  0  0
 49 57  1  0  0  0  0
 50 56  1  0  0  0  0
 50 61  1  0  0  0  0
 51 74  1  0  0  0  0
 52 75  1  0  0  0  0
 53 75  1  0  0  0  0
 54 60  1  0  0  0  0
 54 74  1  0  0  0  0
 56 61  1  0  0  0  0
 58 78  1  0  0  0  0
 59 73  1  0  0  0  0
 60 72  1  0  0  0  0
 61 87  1  0  0  0  0
 63 69  1  0  0  0  0
 64 70  1  0  0  0  0
 65 70  1  0  0  0  0
 66 70  1  0  0  0  0
 67 80  1  0  0  0  0
 68 70  1  0  0  0  0
 68 79  1  0  0  0  0
 69 80  1  0  0  0  0
 71 72  1  0  0  0  0
M  CHG  1  80   1
M  ISO  4  38 100  61 101  75 100  87 101
M  END
> <Batch ID>
0172

> <Smiles>
CNC(C)C(=O)NC(C(=O)N1Cc2cc([101O:1][101CH:1]3CC3c3cc(C4CC4)c(C4CC[100N:0]([100C:0](=O)N5CCCC(n6nc(-c7ccc(Oc8ccc(F)cc8F)cc7)c(C(N)=O)c6N)C5)CC4)cc3C)ccc2CC1C(=O)NC1CCCc2ccccc21)C(C)(C)C

> <Shape>
0.338

> <Color>
0.144

> <Negative vol penalty>
0.000

$$$$

  -OEChem-04052322403D

 92102  0     1  0  0  0  0  0999 V2000
  -18.8495  -22.9897   32.3969 C   0  0  0  0  0  0  0  0  0  0  0  0
  -19.0760  -23.8379   31.3176 C   0  0  0  0  0  0  0  0  0  0  0  0
  -26.4921  -12.1828   19.5618 C   0  0  0  0  0  0  0  0  0  0  0  0
  -25.7860  -13.9533   21.0463 C   0  0  0  0  0  0  0  0  0  0  0  0
  -19.4561  -21.7349   32.4351 C   0  0  0  0  0  0  0  0  0  0  0  0
  -19.9100  -23.4321   30.2764 C   0  0  0  0  0  0  0  0  0  0  0  0
  -19.3010  -24.7789   24.3333 C   0  0  0  0  0  0  0  0  0  0  0  0
  -25.3080  -11.4928   19.8215 C   0  0  0  0  0  0  0  0  0  0  0  0
  -24.6019  -13.2634   21.3060 C   0  0  0  0  0  0  0  0  0  0  0  0
  -19.9046  -25.7392   23.5225 C   0  0  0  0  0  0  0  0  0  0  0  0
  -24.0503   -9.5412   22.2778 C   0  0  0  0  0  0  0  0  0  0  0  0
  -24.1409   -8.1727   22.5323 C   0  0  0  0  0  0  0  0  0  0  0  0
  -21.5226  -24.1027   22.7992 C   0  0  0  0  0  0  0  0  0  0  0  0
  -28.0388  -29.1563   20.5925 C   0  0  0  0  0  0  0  0  0  0  0  0
  -26.4975  -27.3190   20.4103 C   0  0  0  0  0  0  0  0  0  0  0  0
  -22.7221   -7.7248   20.6287 C   0  0  0  0  0  0  0  0  0  0  0  0
  -26.7311  -13.4130   20.1743 C   0  0  0  0  0  0  0  0  0  0  0  0
  -29.2679  -13.6814   20.1496 C   0  0  0  0  0  0  0  0  0  0  0  0
  -20.2903  -21.3097   31.3892 C   0  0  0  0  0  0  0  0  0  0  0  0
  -19.8112  -23.4740   24.3915 C   0  0  0  0  0  0  0  0  0  0  0  0
  -20.5293  -22.1709   30.3013 C   0  0  0  0  0  0  0  0  0  0  0  0
  -20.9221  -23.1270   23.6095 C   0  0  0  0  0  0  0  0  0  0  0  0
  -26.7631  -28.6342   20.7749 C   0  0  0  0  0  0  0  0  0  0  0  0
  -24.3629  -12.0331   20.6936 C   0  0  0  0  0  0  0  0  0  0  0  0
  -21.0173  -25.4019   22.7575 C   0  0  0  0  0  0  0  0  0  0  0  0
  -23.2955  -10.0014   21.1988 C   0  0  0  0  0  0  0  0  0  0  0  0
  -23.4769   -7.2645   21.7078 C   0  0  0  0  0  0  0  0  0  0  0  0
  -22.6315   -9.0932   20.3743 C   0  0  0  0  0  0  0  0  0  0  0  0
  -27.9544  -14.1259   19.9068 C   0  0  0  0  0  0  0  0  0  0  0  0
  -29.0062  -28.3286   20.0459 C   0  0  0  0  0  0  0  0  0  0  0  0
  -27.5339  -26.5736   19.8716 C   0  0  0  0  0  0  0  0  0  0  0  0
  -30.0647  -14.7166   19.7253 C   0  0  0  0  0  0  0  0  0  0  0  0
  -29.7267  -12.4433   20.7085 C   0  0  0  0  0  0  0  0  0  0  0  0
  -21.0517  -21.6507   26.6806 C   0  0  0  0  0  0  0  0  0  0  0  0
  -20.9877  -19.3786   24.3664 C   0  0  0  0  0  0  0  0  0  0  0  0
  -20.9555  -18.6357   21.0357 C   0  0  0  0  0  0  0  0  0  0  0  0
  -29.3250  -20.4315   19.2981 C   0  0  0  0  0  0  0  0  0  0  0  0
  -20.9614  -19.9633   31.4975 C   0  0  0  0  0  0  0  0  0  0  0  0
  -19.1324  -22.4427   25.2507 C   0  0  0  0  0  0  0  0  0  0  0  0
  -21.4961  -21.7346   23.6209 C   0  0  0  0  0  0  0  0  0  0  0  0
  -21.5333  -19.4597   30.1748 C   0  0  0  0  0  0  0  0  0  0  0  0
  -30.1682  -18.3383   16.6079 C   0  0  0  0  0  0  0  0  0  0  0  0
  -22.3155  -20.5668   29.4753 C   0  0  0  0  0  0  0  0  0  0  0  0
  -29.8218  -16.9617   17.1746 C   0  0  0  0  0  0  0  0  0  0  0  0
  -27.5156  -23.2406   18.1922 C   0  0  0  0  0  0  0  0  0  0  0  0
  -29.1366  -23.8107   20.0402 C   0  0  0  0  0  0  0  0  0  0  0  0
  -25.5728  -31.0472   21.0090 C   0  0  0  0  0  0  0  0  0  0  0  0
  -29.1308  -19.3944   16.9937 C   0  0  0  0  0  0  0  0  0  0  0  0
  -28.5046  -22.1938   17.6709 C   0  0  0  0  0  0  0  0  0  0  0  0
  -30.1019  -22.7765   19.4678 C   0  0  0  0  0  0  0  0  0  0  0  0
  -28.5281  -18.1033   19.0157 C   0  0  0  0  0  0  0  0  0  0  0  0
  -25.6145  -29.5363   21.3970 C   0  0  1  0  0  0  0  0  0  0  0  0
  -21.4079  -21.7567   29.1409 C   0  0  1  0  0  0  0  0  0  0  0  0
  -20.0477  -21.2812   25.6256 C   0  0  1  0  0  0  0  0  0  0  0  0
  -24.0300  -30.9699   21.1159 C   0  0  2  0  0  0  0  0  0  0  0  0
  -29.5829  -17.0336   18.6933 C   0  0  1  0  0  0  0  0  0  0  0  0
  -28.2319  -24.3686   18.9384 C   0  0  0  0  0  0  0  0  0  0  0  0
  -24.1731  -29.4573   20.8014 C   0  0  2  0  0  0  0  0  0  0  0  0
  -30.3865  -28.8556   19.8360 C   0  0  0  0  0  0  0  0  0  0  0  0
  -23.2448  -31.7958   20.1168 C   0  0  0  0  0  0  0  0  0  0  0  0
  -20.9417  -16.6896   19.4514 C   0  0  0  0  0  0  0  0  0  0  0  0
  -23.9528  -18.9135   24.9157 C   0  0  0  0  0  0  0  0  0  0  0  0
  -24.0954  -17.6982   22.7314 C   0  0  0  0  0  0  0  0  0  0  0  0
  -22.6209  -16.8293   24.5462 C   0  0  0  0  0  0  0  0  0  0  0  0
  -18.3584  -19.4508   19.8739 C   0  0  0  0  0  0  0  0  0  0  0  0
  -21.8568  -28.5643   21.0812 C   0  0  0  0  0  0  0  0  0  0  0  0
  -21.0387  -27.6444   21.9658 C   0  0  0  0  0  0  0  0  0  1  0  0
  -21.9445  -18.9184   23.2932 C   0  0  1  0  0  0  0  0  0  0  0  0
  -20.0923  -17.6872   20.2235 C   0  0  2  0  0  0  0  0  0  0  0  0
  -23.1440  -18.1167   23.8727 C   0  0  0  0  0  0  0  0  0  0  0  0
  -27.9147  -15.3484   19.3701 N   0  0  0  0  0  0  0  0  0  0  0  0
  -28.7859  -27.0461   19.6794 N   0  0  0  0  0  0  0  0  0  0  0  0
  -29.2131  -15.6808   19.2722 N   0  0  0  0  0  0  0  0  0  0  0  0
  -20.8011  -20.7634   24.4818 N   0  0  0  0  0  0  0  0  0  0  0  0
  -28.9074  -19.3980   18.4462 N   0  0  0  0  0  0  0  0  0  0  0  0
  -29.3818  -21.7225   18.7523 N   0  0  0  0  0  0  0  0  0  0  0  0
  -31.4036  -14.8870   19.6994 N   0  0  0  0  0  0  0  0  0  0  0  0
  -29.8993  -12.3604   22.0969 N   0  0  0  0  0  0  0  0  0  0  0  0
  -27.2547  -25.2667   19.5134 N   0  0  0  0  0  0  0  0  0  0  0  0
  -20.6024  -21.4658   27.9743 N   0  0  0  0  0  0  0  0  0  0  0  0
  -21.1445  -18.1789   22.3228 N   0  0  0  0  0  0  0  0  0  0  0  0
  -23.2611  -28.6178   21.5900 N   0  3  0  0  0  0  0  0  0  0  0  0
  -19.2605  -18.4492   19.2495 N   0  3  0  0  0  0  0  0  0  0  0  0
  -29.9920  -11.4455   19.9962 O   0  0  0  0  0  0  0  0  0  0  0  0
  -22.1531  -22.0709   26.3458 O   0  0  0  0  0  0  0  0  0  0  0  0
  -20.4211  -18.5398   25.0715 O   0  0  0  0  0  0  0  0  0  0  0  0
  -21.4191  -19.6758   20.5733 O   0  0  0  0  0  0  0  0  0  0  0  0
  -29.6293  -20.2137   20.4775 O   0  0  0  0  0  0  0  0  0  0  0  0
  -23.2072  -11.3603   20.9470 O   0  0  0  0  0  0  0  0  0  0  0  0
  -21.6130  -26.3441   21.9600 O   0  0  0  0  0  0  0  0  0  1  0  0
  -23.5652   -5.9504   21.9514 F   0  0  0  0  0  0  0  0  0  0  0  0
  -21.9059   -9.5293   19.3355 F   0  0  0  0  0  0  0  0  0  0  0  0
  1  2  1  0  0  0  0
  1  5  2  0  0  0  0
  2  6  2  0  0  0  0
  3  8  2  0  0  0  0
  3 17  1  0  0  0  0
  4  9  1  0  0  0  0
  4 17  2  0  0  0  0
  5 19  1  0  0  0  0
  6 21  1  0  0  0  0
  7 10  2  0  0  0  0
  7 20  1  0  0  0  0
  8 24  1  0  0  0  0
  9 24  2  0  0  0  0
 10 25  1  0  0  0  0
 11 12  2  0  0  0  0
 11 26  1  0  0  0  0
 12 27  1  0  0  0  0
 13 22  1  0  0  0  0
 13 25  2  0  0  0  0
 14 23  1  0  0  0  0
 14 30  2  0  0  0  0
 15 23  2  0  0  0  0
 15 31  1  0  0  0  0
 16 27  2  0  0  0  0
 16 28  1  0  0  0  0
 17 29  1  0  0  0  0
 18 29  1  0  0  0  0
 18 32  2  0  0  0  0
 18 33  1  0  0  0  0
 19 21  2  0  0  0  0
 19 38  1  0  0  0  0
 20 22  2  0  0  0  0
 20 39  1  0  0  0  0
 21 53  1  0  0  0  0
 22 40  1  0  0  0  0
 23 52  1  0  0  0  0
 24 89  1  0  0  0  0
 25 90  1  0  0  0  0
 26 28  2  0  0  0  0
 26 89  1  0  0  0  0
 27 91  1  0  0  0  0
 28 92  1  0  0  0  0
 29 71  2  0  0  0  0
 30 59  1  0  0  0  0
 30 72  1  0  0  0  0
 31 72  2  0  0  0  0
 31 79  1  0  0  0  0
 32 73  1  0  0  0  0
 32 77  1  0  0  0  0
 33 78  1  0  0  0  0
 33 84  2  0  0  0  0
 34 54  1  0  0  0  0
 34 80  1  0  0  0  0
 34 85  2  0  0  0  0
 35 68  1  0  0  0  0
 35 74  1  0  0  0  0
 35 86  2  0  0  0  0
 36 69  1  0  0  0  0
 36 81  1  0  0  0  0
 36 87  2  0  0  0  0
 37 75  1  0  0  0  0
 37 76  1  0  0  0  0
 37 88  2  0  0  0  0
 38 41  1  0  0  0  0
 39 54  1  0  0  0  0
 40 74  1  0  0  0  0
 41 43  1  0  0  0  0
 42 44  1  0  0  0  0
 42 48  1  0  0  0  0
 43 53  1  0  0  0  0
 44 56  1  0  0  0  0
 45 49  1  0  0  0  0
 45 57  1  0  0  0  0
 46 50  1  0  0  0  0
 46 57  1  0  0  0  0
 47 52  1  0  0  0  0
 47 55  1  0  0  0  0
 48 75  1  0  0  0  0
 49 76  1  0  0  0  0
 50 76  1  0  0  0  0
 51 56  1  0  0  0  0
 51 75  1  0  0  0  0
 52 58  1  0  0  0  0
 53 80  1  0  0  0  0
 54 74  1  0  0  0  0
 55 58  1  0  0  0  0
 55 60  1  0  0  0  0
 56 73  1  0  0  0  0
 57 79  1  0  0  0  0
 58 82  1  0  0  0  0
 61 69  1  0  0  0  0
 62 70  1  0  0  0  0
 63 70  1  0  0  0  0
 64 70  1  0  0  0  0
 65 83  1  0  0  0  0
 66 67  1  0  0  0  0
 66 82  1  0  0  0  0
 67 90  1  0  0  0  0
 68 70  1  0  0  0  0
 68 81  1  0  0  0  0
 69 83  1  0  0  0  0
 71 73  1  0  0  0  0
M  CHG  2  82   1  83   1
M  ISO  4  37 100  67 101  76 100  90 101
M  END
> <Batch ID>
0172

> <Smiles>
CNC(C)C(=O)NC(C(=O)N1Cc2cc([101O:1][101CH2:1]CNC3C(C)CC3c3cc(C)nc(NC4CC[100N:0]([100C:0](=O)N5CCCC(n6nc(-c7ccc(Oc8ccc(F)cc8F)cc7)c(C(N)=O)c6N)C5)CC4)c3)ccc2CC1C(=O)NC1CCCc2ccccc21)C(C)(C)C

> <Shape>
0.241

> <Color>
0.085

> <Negative vol penalty>
0.000

$$$$

  -OEChem-04052322403D

 86 95  0     1  0  0  0  0  0999 V2000
  -28.3406  -36.4548   20.1462 C   0  0  0  0  0  0  0  0  0  0  0  0
  -28.7964  -35.3961   19.3672 C   0  0  0  0  0  0  0  0  0  0  0  0
  -25.8370  -17.1188   15.2609 C   0  0  0  0  0  0  0  0  0  0  0  0
  -24.7547  -15.0046   14.8185 C   0  0  0  0  0  0  0  0  0  0  0  0
  -27.8452  -36.2135   21.4270 C   0  0  0  0  0  0  0  0  0  0  0  0
  -28.7581  -34.0956   19.8689 C   0  0  0  0  0  0  0  0  0  0  0  0
  -27.8436  -27.3163   17.7426 C   0  0  0  0  0  0  0  0  0  0  0  0
  -25.5513  -17.5371   13.9613 C   0  0  0  0  0  0  0  0  0  0  0  0
  -24.4689  -15.4229   13.5189 C   0  0  0  0  0  0  0  0  0  0  0  0
  -28.4580  -26.0678   17.8303 C   0  0  0  0  0  0  0  0  0  0  0  0
  -23.1371  -16.0720   10.1987 C   0  0  0  0  0  0  0  0  0  0  0  0
  -21.8537  -15.8334    9.7073 C   0  0  0  0  0  0  0  0  0  0  0  0
  -27.5075  -25.7612   20.0262 C   0  0  0  0  0  0  0  0  0  0  0  0
  -20.9222  -17.1717   11.4901 C   0  0  0  0  0  0  0  0  0  0  0  0
  -25.4387  -15.8526   15.6895 C   0  0  0  0  0  0  0  0  0  0  0  0
  -24.9321  -15.5907   18.1759 C   0  0  0  0  0  0  0  0  0  0  0  0
  -27.7917  -34.9082   21.9409 C   0  0  0  0  0  0  0  0  0  0  0  0
  -27.0642  -27.8021   18.8023 C   0  0  0  0  0  0  0  0  0  0  0  0
  -28.2627  -33.8368   21.1582 C   0  0  0  0  0  0  0  0  0  0  0  0
  -26.8823  -27.0150   19.9484 C   0  0  0  0  0  0  0  0  0  0  0  0
  -30.7387  -19.6479   20.0800 C   0  0  0  0  0  0  0  0  0  0  0  0
  -31.4718  -20.8261   19.9917 C   0  0  0  0  0  0  0  0  0  0  0  0
  -30.8173  -22.0515   20.0493 C   0  0  0  0  0  0  0  0  0  0  0  0
  -24.8672  -16.6892   13.0903 C   0  0  0  0  0  0  0  0  0  0  0  0
  -28.2923  -25.2913   18.9734 C   0  0  0  0  0  0  0  0  0  0  0  0
  -23.3131  -16.8604   11.3359 C   0  0  0  0  0  0  0  0  0  0  0  0
  -20.7463  -16.3832   10.3529 C   0  0  0  0  0  0  0  0  0  0  0  0
  -22.2057  -17.4103   11.9816 C   0  0  0  0  0  0  0  0  0  0  0  0
  -25.7341  -15.4197   17.0317 C   0  0  0  0  0  0  0  0  0  0  0  0
  -29.3643  -19.7485   20.2241 C   0  0  0  0  0  0  0  0  0  0  0  0
  -29.4394  -22.0445   20.1946 C   0  0  0  0  0  0  0  0  0  0  0  0
  -25.6524  -15.0087   19.1903 C   0  0  0  0  0  0  0  0  0  0  0  0
  -23.6504  -16.2193   18.3099 C   0  0  0  0  0  0  0  0  0  0  0  0
  -27.2348  -30.3118   20.7455 C   0  0  0  0  0  0  0  0  0  0  0  0
  -24.3450  -29.2363   21.7530 C   0  0  0  0  0  0  0  0  0  0  0  0
  -22.1805  -26.6178   22.0775 C   0  0  0  0  0  0  0  0  0  0  0  0
  -31.3481  -13.9929   20.1303 C   0  0  0  0  0  0  0  0  0  0  0  0
  -27.2917  -34.7024   23.3488 C   0  0  0  0  0  0  0  0  0  0  0  0
  -26.3864  -29.1394   18.6811 C   0  0  0  0  0  0  0  0  0  0  0  0
  -26.0389  -27.4822   21.1055 C   0  0  0  0  0  0  0  0  0  0  0  0
  -26.9375  -33.2512   23.6633 C   0  0  0  0  0  0  0  0  0  0  0  0
  -28.8757  -11.5791   20.0200 C   0  0  0  0  0  0  0  0  0  0  0  0
  -28.0402  -32.3154   23.1784 C   0  0  0  0  0  0  0  0  0  0  0  0
  -27.7008  -12.2951   19.3537 C   0  0  0  0  0  0  0  0  0  0  0  0
  -31.2319  -17.4949   21.3210 C   0  0  0  0  0  0  0  0  0  0  0  0
  -30.9675  -17.4709   18.8050 C   0  0  0  0  0  0  0  0  0  0  0  0
  -30.1929  -11.9469   19.3462 C   0  0  0  0  0  0  0  0  0  0  0  0
  -31.9039  -16.1263   21.2403 C   0  0  0  0  0  0  0  0  0  0  0  0
  -31.6466  -16.1047   18.7808 C   0  0  0  0  0  0  0  0  0  0  0  0
  -29.2976  -14.1437   18.6488 C   0  0  0  0  0  0  0  0  0  0  0  0
  -31.4240  -18.2956   20.0215 C   0  0  0  0  0  0  0  0  0  0  0  0
  -28.2143  -32.4092   21.6578 C   0  0  1  0  0  0  0  0  0  0  0  0
  -26.0352  -29.7558   20.0317 C   0  0  1  0  0  0  0  0  0  0  0  0
  -27.9392  -13.8144   19.2995 C   0  0  1  0  0  0  0  0  0  0  0  0
  -32.9580  -20.7759   19.8329 C   0  0  0  0  0  0  0  0  0  0  0  0
  -31.5756  -23.3333   19.9574 C   0  0  0  0  0  0  0  0  0  0  0  0
  -28.5237  -18.5179   20.3246 C   0  0  0  0  0  0  0  0  0  0  0  0
  -19.9102  -26.0385   22.9760 C   0  0  0  0  0  0  0  0  0  0  0  0
  -25.4633  -29.2668   24.5918 C   0  0  0  0  0  0  0  0  0  0  0  0
  -23.5438  -27.8186   25.2890 C   0  0  0  0  0  0  0  0  0  0  0  0
  -23.1158  -30.1043   24.3863 C   0  0  0  0  0  0  0  0  0  0  0  0
  -21.1975  -25.8204   19.4023 C   0  0  0  0  0  0  0  0  0  0  0  0
  -28.6803  -23.3294   20.2603 C   0  0  0  0  0  0  0  0  0  1  0  0
  -23.8739  -28.2735   22.8161 C   0  0  1  0  0  0  0  0  0  0  0  0
  -20.7022  -26.4874   21.7579 C   0  0  2  0  0  0  0  0  0  0  0  0
  -24.0167  -28.8575   24.2499 C   0  0  0  0  0  0  0  0  0  0  0  0
  -26.8766  -14.7794   17.2938 N   0  0  0  0  0  0  0  0  0  0  0  0
  -28.6934  -20.9206   20.2839 N   0  0  0  0  0  0  0  0  0  0  0  0
  -26.7977  -14.5430   18.6144 N   0  0  0  0  0  0  0  0  0  0  0  0
  -25.4020  -28.7994   20.9420 N   0  0  0  0  0  0  0  0  0  0  0  0
  -30.3789  -13.3973   19.3090 N   0  0  0  0  0  0  0  0  0  0  0  0
  -31.4732  -15.3897   20.0526 N   0  0  0  0  0  0  0  0  0  0  0  0
  -25.4116  -14.8551   20.5097 N   0  0  0  0  0  0  0  0  0  0  0  0
  -23.0516  -16.7659   17.1667 N   0  0  0  0  0  0  0  0  0  0  0  0
  -27.1681  -31.6715   20.9828 N   0  0  0  0  0  0  0  0  0  0  0  0
  -22.5100  -27.9024   22.4552 N   0  0  0  0  0  0  0  0  0  0  0  0
  -20.4937  -25.4918   20.6687 N   0  3  0  0  0  0  0  0  0  0  0  0
  -23.0614  -16.3085   19.4138 O   0  0  0  0  0  0  0  0  0  0  0  0
  -28.1522  -29.5624   21.0592 O   0  0  0  0  0  0  0  0  0  0  0  0
  -23.7908  -30.3326   21.6416 O   0  0  0  0  0  0  0  0  0  0  0  0
  -22.9639  -25.6737   22.0035 O   0  0  0  0  0  0  0  0  0  0  0  0
  -32.0557  -13.3212   20.8912 O   0  0  0  0  0  0  0  0  0  0  0  0
  -24.5880  -17.0970   11.8221 O   0  0  0  0  0  0  0  0  0  0  0  0
  -28.8956  -24.0639   19.0625 O   0  0  0  0  0  0  0  0  0  1  0  0
  -19.5140  -16.1553    9.8800 F   0  0  0  0  0  0  0  0  0  0  0  0
  -22.3685  -18.1695   13.0737 F   0  0  0  0  0  0  0  0  0  0  0  0
  1  2  1  0  0  0  0
  1  5  2  0  0  0  0
  2  6  2  0  0  0  0
  3  8  2  0  0  0  0
  3 15  1  0  0  0  0
  4  9  1  0  0  0  0
  4 15  2  0  0  0  0
  5 17  1  0  0  0  0
  6 19  1  0  0  0  0
  7 10  2  0  0  0  0
  7 18  1  0  0  0  0
  8 24  1  0  0  0  0
  9 24  2  0  0  0  0
 10 25  1  0  0  0  0
 11 12  2  0  0  0  0
 11 26  1  0  0  0  0
 12 27  1  0  0  0  0
 13 20  1  0  0  0  0
 13 25  2  0  0  0  0
 14 27  2  0  0  0  0
 14 28  1  0  0  0  0
 15 29  1  0  0  0  0
 16 29  1  0  0  0  0
 16 32  2  0  0  0  0
 16 33  1  0  0  0  0
 17 19  2  0  0  0  0
 17 38  1  0  0  0  0
 18 20  2  0  0  0  0
 18 39  1  0  0  0  0
 19 52  1  0  0  0  0
 20 40  1  0  0  0  0
 21 22  2  0  0  0  0
 21 30  1  0  0  0  0
 21 51  1  0  0  0  0
 22 23  1  0  0  0  0
 22 55  1  0  0  0  0
 23 31  2  0  0  0  0
 23 56  1  0  0  0  0
 24 83  1  0  0  0  0
 25 84  1  0  0  0  0
 26 28  2  0  0  0  0
 26 83  1  0  0  0  0
 27 85  1  0  0  0  0
 28 86  1  0  0  0  0
 29 67  2  0  0  0  0
 30 57  1  0  0  0  0
 30 68  2  0  0  0  0
 31 63  1  0  0  0  0
 31 68  1  0  0  0  0
 32 69  1  0  0  0  0
 32 73  1  0  0  0  0
 33 74  1  0  0  0  0
 33 78  2  0  0  0  0
 34 53  1  0  0  0  0
 34 75  1  0  0  0  0
 34 79  2  0  0  0  0
 35 64  1  0  0  0  0
 35 70  1  0  0  0  0
 35 80  2  0  0  0  0
 36 65  1  0  0  0  0
 36 76  1  0  0  0  0
 36 81  2  0  0  0  0
 37 71  1  0  0  0  0
 37 72  1  0  0  0  0
 37 82  2  0  0  0  0
 38 41  1  0  0  0  0
 39 53  1  0  0  0  0
 40 70  1  0  0  0  0
 41 43  1  0  0  0  0
 42 44  1  0  0  0  0
 42 47  1  0  0  0  0
 43 52  1  0  0  0  0
 44 54  1  0  0  0  0
 45 48  1  0  0  0  0
 45 51  1  0  0  0  0
 46 49  1  0  0  0  0
 46 51  1  0  0  0  0
 47 71  1  0  0  0  0
 48 72  1  0  0  0  0
 49 72  1  0  0  0  0
 50 54  1  0  0  0  0
 50 71  1  0  0  0  0
 52 75  1  0  0  0  0
 53 70  1  0  0  0  0
 54 69  1  0  0  0  0
 58 65  1  0  0  0  0
 59 66  1  0  0  0  0
 60 66  1  0  0  0  0
 61 66  1  0  0  0  0
 62 77  1  0  0  0  0
 63 84  1  0  0  0  0
 64 66  1  0  0  0  0
 64 76  1  0  0  0  0
 65 77  1  0  0  0  0
 67 69  1  0  0  0  0
M  CHG  1  77   1
M  ISO  4  37 100  63 101  72 100  84 101
M  END
> <Batch ID>
0172

> <Smiles>
CNC(C)C(=O)NC(C(=O)N1Cc2cc([101O:1][101CH2:1]c3nc(C)c(C4CC[100N:0]([100C:0](=O)N5CCCC(n6nc(-c7ccc(Oc8ccc(F)cc8F)cc7)c(C(N)=O)c6N)C5)CC4)c(C)c3C)ccc2CC1C(=O)NC1CCCc2ccccc21)C(C)(C)C

> <Shape>
0.216

> <Color>
0.089

> <Negative vol penalty>
0.000

$$$$

  -OEChem-04052322403D

 87 97  0     1  0  0  0  0  0999 V2000
  -16.5005  -29.8410   23.8188 C   0  0  0  0  0  0  0  0  0  0  0  0
  -32.3359  -19.1004   24.3961 C   0  0  0  0  0  0  0  0  0  0  0  0
  -17.4037  -30.5236   23.0118 C   0  0  0  0  0  0  0  0  0  0  0  0
  -32.2180  -18.5353   23.1311 C   0  0  0  0  0  0  0  0  0  0  0  0
  -24.1791  -13.7960   19.5281 C   0  0  0  0  0  0  0  0  0  0  0  0
  -26.1178  -14.1990   20.9122 C   0  0  0  0  0  0  0  0  0  0  0  0
  -16.8776  -28.6430   24.4217 C   0  0  0  0  0  0  0  0  0  0  0  0
  -31.8889  -20.4004   24.6176 C   0  0  0  0  0  0  0  0  0  0  0  0
  -18.6802  -30.0024   22.7980 C   0  0  0  0  0  0  0  0  0  0  0  0
  -31.6387  -19.2635   22.0904 C   0  0  0  0  0  0  0  0  0  0  0  0
  -26.0950  -29.6393   19.9499 C   0  0  0  0  0  0  0  0  0  0  0  0
  -24.3091  -12.4243   19.7452 C   0  0  0  0  0  0  0  0  0  0  0  0
  -26.2479  -12.8273   21.1294 C   0  0  0  0  0  0  0  0  0  0  0  0
  -27.3358  -29.0360   20.1508 C   0  0  0  0  0  0  0  0  0  0  0  0
  -23.9158   -8.8428   20.2285 C   0  0  0  0  0  0  0  0  0  0  0  0
  -22.7606   -8.1217   20.5303 C   0  0  0  0  0  0  0  0  0  0  0  0
  -26.2936  -26.8642   20.0236 C   0  0  0  0  0  0  0  0  0  0  0  0
  -22.4216   -9.4868   22.4946 C   0  0  0  0  0  0  0  0  0  0  0  0
  -25.0835  -14.6833   20.1115 C   0  0  0  0  0  0  0  0  0  0  0  0
  -23.8482  -16.9129   20.2149 C   0  0  0  0  0  0  0  0  0  0  0  0
  -18.1638  -28.1139   24.2247 C   0  0  0  0  0  0  0  0  0  0  0  0
  -24.9406  -28.8584   19.7949 C   0  0  0  0  0  0  0  0  0  0  0  0
  -31.3164  -21.1453   23.5750 C   0  0  0  0  0  0  0  0  0  0  0  0
  -19.0717  -28.7824   23.3784 C   0  0  0  0  0  0  0  0  0  0  0  0
  -31.1519  -20.5657   22.3000 C   0  0  0  0  0  0  0  0  0  0  0  0
  -25.0398  -27.4600   19.8182 C   0  0  0  0  0  0  0  0  0  0  0  0
  -25.3435  -11.9399   20.5459 C   0  0  0  0  0  0  0  0  0  0  0  0
  -27.4348  -27.6484   20.1906 C   0  0  0  0  0  0  0  0  0  0  0  0
  -24.3239   -9.8860   21.0597 C   0  0  0  0  0  0  0  0  0  0  0  0
  -22.0135   -8.4437   21.6634 C   0  0  0  0  0  0  0  0  0  0  0  0
  -23.5768  -10.2080   22.1928 C   0  0  0  0  0  0  0  0  0  0  0  0
  -24.9500  -16.1003   19.8871 C   0  0  0  0  0  0  0  0  0  0  0  0
  -24.2135  -18.1704   19.8005 C   0  0  0  0  0  0  0  0  0  0  0  0
  -22.6056  -16.5623   20.8384 C   0  0  0  0  0  0  0  0  0  0  0  0
  -22.2189  -28.5344   21.4044 C   0  0  0  0  0  0  0  0  0  0  0  0
  -21.4202  -26.6291   18.9036 C   0  0  0  0  0  0  0  0  0  0  0  0
  -23.0389  -24.1111   16.8894 C   0  0  0  0  0  0  0  0  0  0  0  0
  -29.5247  -20.8053   18.9644 C   0  0  0  0  0  0  0  0  0  0  0  0
  -18.5167  -26.8096   24.8952 C   0  0  0  0  0  0  0  0  0  0  0  0
  -23.6138  -29.5240   19.5522 C   0  0  0  0  0  0  0  0  0  0  0  0
  -23.8337  -26.5763   19.6368 C   0  0  0  0  0  0  0  0  0  0  0  0
  -30.8556  -22.5505   23.8555 C   0  0  0  0  0  0  0  0  0  0  0  0
  -20.0207  -26.5673   24.9698 C   0  0  0  0  0  0  0  0  0  0  0  0
  -26.9327  -20.4013   16.5571 C   0  0  0  0  0  0  0  0  0  0  0  0
  -20.6520  -26.7939   23.6043 C   0  0  0  0  0  0  0  0  0  0  0  0
  -26.0312  -19.3265   17.1671 C   0  0  0  0  0  0  0  0  0  0  0  0
  -30.2579  -26.7273   22.8798 C   0  0  0  0  0  0  0  0  0  0  0  0
  -28.4068  -20.1383   16.8568 C   0  0  0  0  0  0  0  0  0  0  0  0
  -27.8241  -18.8819   18.8954 C   0  0  0  0  0  0  0  0  0  0  0  0
  -29.7988  -22.6226   21.6108 C   0  0  0  0  0  0  0  0  0  0  0  0
  -20.4759  -28.2503   23.1560 C   0  0  1  0  0  0  0  0  0  0  0  0
  -30.5503  -21.3654   21.1538 C   0  0  2  0  0  0  0  0  0  0  0  0
  -22.4259  -28.6403   19.9200 C   0  0  1  0  0  0  0  0  0  0  0  0
  -30.8955  -25.5998   23.7342 C   0  0  2  0  0  0  0  0  0  0  0  0
  -29.9578  -25.6494   21.8048 C   0  0  1  0  0  0  0  0  0  0  0  0
  -26.3239  -19.1346   18.6674 C   0  0  2  0  0  0  0  0  0  0  0  0
  -29.9795  -24.6118   22.9607 C   0  0  1  0  0  0  0  0  0  0  0  0
  -30.6804  -25.6879   25.2317 C   0  0  0  0  0  0  0  0  0  0  0  0
  -22.6056  -23.3848   14.5268 C   0  0  0  0  0  0  0  0  0  0  0  0
  -19.6509  -24.5013   20.1888 C   0  0  0  0  0  0  0  0  0  0  0  0
  -20.4573  -22.8838   18.4563 C   0  0  0  0  0  0  0  0  0  0  0  0
  -19.1891  -24.9181   17.7666 C   0  0  0  0  0  0  0  0  0  0  0  0
  -25.8488  -24.6021   16.1004 C   0  0  0  0  0  0  0  0  0  0  0  0
  -28.6499  -25.7949   21.0533 C   0  0  0  0  0  0  0  0  0  1  0  0
  -21.5675  -25.1599   18.5892 C   0  0  1  0  0  0  0  0  0  0  0  0
  -23.4669  -24.2443   15.4391 C   0  0  2  0  0  0  0  0  0  0  0  0
  -20.2346  -24.3793   18.7671 C   0  0  0  0  0  0  0  0  0  0  0  0
  -25.9410  -16.7841   19.3088 N   0  0  0  0  0  0  0  0  0  0  0  0
  -25.4632  -18.0396   19.2700 N   0  0  0  0  0  0  0  0  0  0  0  0
  -22.5578  -27.2745   19.4088 N   0  0  0  0  0  0  0  0  0  0  0  0
  -28.6169  -19.9671   18.2965 N   0  0  0  0  0  0  0  0  0  0  0  0
  -23.5845  -19.3641   19.8417 N   0  0  0  0  0  0  0  0  0  0  0  0
  -22.5194  -16.6208   22.2361 N   0  0  0  0  0  0  0  0  0  0  0  0
  -20.8982  -28.3746   21.7783 N   0  0  0  0  0  0  0  0  0  0  0  0
  -22.1293  -25.0845   17.2449 N   0  0  0  0  0  0  0  0  0  0  0  0
  -29.6594  -20.5801   20.3289 N   0  0  0  0  0  0  0  0  0  0  0  0
  -30.6504  -23.3563   22.6022 N   0  3  1  0  0  0  0  0  0  0  0  0
  -24.8875  -23.8238   15.2775 N   0  3  0  0  0  0  0  0  0  0  0  0
  -21.6063  -16.1920   20.1767 O   0  0  0  0  0  0  0  0  0  0  0  0
  -23.1859  -28.5919   22.1549 O   0  0  0  0  0  0  0  0  0  0  0  0
  -20.3379  -27.1852   18.7015 O   0  0  0  0  0  0  0  0  0  0  0  0
  -23.4658  -23.2294   17.6316 O   0  0  0  0  0  0  0  0  0  0  0  0
  -30.1636  -21.6925   18.3884 O   0  0  0  0  0  0  0  0  0  0  0  0
  -25.4705  -10.6015   20.7583 O   0  0  0  0  0  0  0  0  0  0  0  0
  -28.6445  -27.0570   20.3873 O   0  0  0  0  0  0  0  0  0  1  0  0
  -20.9034   -7.7520   21.9522 F   0  0  0  0  0  0  0  0  0  0  0  0
  -23.9633  -11.2098   22.9945 F   0  0  0  0  0  0  0  0  0  0  0  0
  1  3  1  0  0  0  0
  1  7  2  0  0  0  0
  2  4  1  0  0  0  0
  2  8  2  0  0  0  0
  3  9  2  0  0  0  0
  4 10  2  0  0  0  0
  5 12  2  0  0  0  0
  5 19  1  0  0  0  0
  6 13  1  0  0  0  0
  6 19  2  0  0  0  0
  7 21  1  0  0  0  0
  8 23  1  0  0  0  0
  9 24  1  0  0  0  0
 10 25  1  0  0  0  0
 11 14  2  0  0  0  0
 11 22  1  0  0  0  0
 12 27  1  0  0  0  0
 13 27  2  0  0  0  0
 14 28  1  0  0  0  0
 15 16  2  0  0  0  0
 15 29  1  0  0  0  0
 16 30  1  0  0  0  0
 17 26  1  0  0  0  0
 17 28  2  0  0  0  0
 18 30  2  0  0  0  0
 18 31  1  0  0  0  0
 19 32  1  0  0  0  0
 20 32  1  0  0  0  0
 20 33  2  0  0  0  0
 20 34  1  0  0  0  0
 21 24  2  0  0  0  0
 21 39  1  0  0  0  0
 22 26  2  0  0  0  0
 22 40  1  0  0  0  0
 23 25  2  0  0  0  0
 23 42  1  0  0  0  0
 24 51  1  0  0  0  0
 25 52  1  0  0  0  0
 26 41  1  0  0  0  0
 27 84  1  0  0  0  0
 28 85  1  0  0  0  0
 29 31  2  0  0  0  0
 29 84  1  0  0  0  0
 30 86  1  0  0  0  0
 31 87  1  0  0  0  0
 32 68  2  0  0  0  0
 33 69  1  0  0  0  0
 33 72  1  0  0  0  0
 34 73  1  0  0  0  0
 34 79  2  0  0  0  0
 35 53  1  0  0  0  0
 35 74  1  0  0  0  0
 35 80  2  0  0  0  0
 36 65  1  0  0  0  0
 36 70  1  0  0  0  0
 36 81  2  0  0  0  0
 37 66  1  0  0  0  0
 37 75  1  0  0  0  0
 37 82  2  0  0  0  0
 38 71  1  0  0  0  0
 38 76  1  0  0  0  0
 38 83  2  0  0  0  0
 39 43  1  0  0  0  0
 40 53  1  0  0  0  0
 41 70  1  0  0  0  0
 42 77  1  0  0  0  0
 43 45  1  0  0  0  0
 44 46  1  0  0  0  0
 44 48  1  0  0  0  0
 45 51  1  0  0  0  0
 46 56  1  0  0  0  0
 47 54  1  0  0  0  0
 47 55  1  0  0  0  0
 48 71  1  0  0  0  0
 49 56  1  0  0  0  0
 49 71  1  0  0  0  0
 50 52  1  0  0  0  0
 50 77  1  0  0  0  0
 51 74  1  0  0  0  0
 52 76  1  0  0  0  0
 53 70  1  0  0  0  0
 54 57  1  0  0  0  0
 54 58  1  0  0  0  0
 55 57  1  0  0  0  0
 55 64  1  0  0  0  0
 56 69  1  0  0  0  0
 57 77  1  0  0  0  0
 59 66  1  0  0  0  0
 60 67  1  0  0  0  0
 61 67  1  0  0  0  0
 62 67  1  0  0  0  0
 63 78  1  0  0  0  0
 64 85  1  0  0  0  0
 65 67  1  0  0  0  0
 65 75  1  0  0  0  0
 66 78  1  0  0  0  0
 68 69  1  0  0  0  0
M  CHG  2  77   1  78   1
M  ISO  4  38 100  64 101  76 100  85 101
M  END
> <Batch ID>
0172

> <Smiles>
CNC(C)C(=O)NC(C(=O)N1Cc2cc([101O:1][101CH2:1]C3CC(C)C3N3Cc4ccccc4C([100NH:0][100C:0](=O)N4CCCC(n5nc(-c6ccc(Oc7ccc(F)cc7F)cc6)c(C(N)=O)c5N)C4)C3)ccc2CC1C(=O)NC1CCCc2ccccc21)C(C)(C)C

> <Shape>
0.210

> <Color>
0.097

> <Negative vol penalty>
0.000

$$$$

  -OEChem-04052322403D

 86 95  0     1  0  0  0  0  0999 V2000
  -32.0119  -32.5161   25.1181 C   0  0  0  0  0  0  0  0  0  0  0  0
  -31.6480  -31.5368   24.1995 C   0  0  0  0  0  0  0  0  0  0  0  0
  -22.6869  -10.0694   20.3048 C   0  0  0  0  0  0  0  0  0  0  0  0
  -24.4177   -9.2111   21.7556 C   0  0  0  0  0  0  0  0  0  0  0  0
  -31.1052  -32.9254   26.0950 C   0  0  0  0  0  0  0  0  0  0  0  0
  -30.3774  -30.9654   24.2579 C   0  0  0  0  0  0  0  0  0  0  0  0
  -26.9623  -29.0925   19.5319 C   0  0  0  0  0  0  0  0  0  0  0  0
  -22.0201   -8.8464   20.3768 C   0  0  0  0  0  0  0  0  0  0  0  0
  -23.7508   -7.9881   21.8277 C   0  0  0  0  0  0  0  0  0  0  0  0
  -26.7481  -27.8348   18.9696 C   0  0  0  0  0  0  0  0  0  0  0  0
  -21.1022   -6.6905   23.4774 C   0  0  0  0  0  0  0  0  0  0  0  0
  -20.9742   -6.0968   24.7331 C   0  0  0  0  0  0  0  0  0  0  0  0
  -24.7378  -27.5972   20.2817 C   0  0  0  0  0  0  0  0  0  0  0  0
  -22.1909   -4.1646   23.9435 C   0  0  0  0  0  0  0  0  0  0  0  0
  -23.8858  -10.2517   20.9942 C   0  0  0  0  0  0  0  0  0  0  0  0
  -24.4122  -12.6238   21.7711 C   0  0  0  0  0  0  0  0  0  0  0  0
  -29.8194  -32.3656   26.1593 C   0  0  0  0  0  0  0  0  0  0  0  0
  -26.0702  -29.6082   20.4830 C   0  0  0  0  0  0  0  0  0  0  0  0
  -29.4530  -31.3666   25.2373 C   0  0  0  0  0  0  0  0  0  0  0  0
  -24.9415  -28.8627   20.8526 C   0  0  0  0  0  0  0  0  0  0  0  0
  -25.9673  -24.0544   17.3322 C   0  0  0  0  0  0  0  0  0  0  0  0
  -25.4210  -23.9340   16.0593 C   0  0  0  0  0  0  0  0  0  0  0  0
  -26.1282  -22.9225   18.1235 C   0  0  0  0  0  0  0  0  0  0  0  0
  -22.5520   -7.8058   21.1382 C   0  0  0  0  0  0  0  0  0  0  0  0
  -25.6373  -27.0857   19.3466 C   0  0  0  0  0  0  0  0  0  0  0  0
  -21.7745   -6.0212   22.4547 C   0  0  0  0  0  0  0  0  0  0  0  0
  -21.5185   -4.8339   24.9662 C   0  0  0  0  0  0  0  0  0  0  0  0
  -22.3188   -4.7583   22.6878 C   0  0  0  0  0  0  0  0  0  0  0  0
  -24.5755  -11.5146   20.9198 C   0  0  0  0  0  0  0  0  0  0  0  0
  -25.0547  -22.6693   15.6277 C   0  0  0  0  0  0  0  0  0  0  0  0
  -25.7301  -21.7032   17.5997 C   0  0  0  0  0  0  0  0  0  0  0  0
  -25.2879  -13.5628   21.2834 C   0  0  0  0  0  0  0  0  0  0  0  0
  -23.5464  -12.7904   22.9018 C   0  0  0  0  0  0  0  0  0  0  0  0
  -26.2979  -30.4789   23.5316 C   0  0  0  0  0  0  0  0  0  0  0  0
  -23.2469  -31.4789   23.0690 C   0  0  0  0  0  0  0  0  0  0  0  0
  -20.3446  -31.2015   21.2951 C   0  0  0  0  0  0  0  0  0  0  0  0
  -27.2996  -16.2480   16.7424 C   0  0  0  0  0  0  0  0  0  0  0  0
  -28.8902  -32.8063   27.2625 C   0  0  0  0  0  0  0  0  0  0  0  0
  -26.3010  -30.9778   21.0603 C   0  0  0  0  0  0  0  0  0  0  0  0
  -23.9429  -29.3798   21.8545 C   0  0  0  0  0  0  0  0  0  0  0  0
  -27.4333  -32.4190   27.0228 C   0  0  0  0  0  0  0  0  0  0  0  0
  -28.9762  -13.1751   17.8466 C   0  0  0  0  0  0  0  0  0  0  0  0
  -27.3342  -30.9637   26.5767 C   0  0  0  0  0  0  0  0  0  0  0  0
  -27.9419  -12.5406   18.7773 C   0  0  0  0  0  0  0  0  0  0  0  0
  -25.3950  -18.2824   19.1404 C   0  0  0  0  0  0  0  0  0  0  0  0
  -28.3209  -14.0014   16.7423 C   0  0  0  0  0  0  0  0  0  0  0  0
  -25.5207  -16.9232   18.4602 C   0  0  0  0  0  0  0  0  0  0  0  0
  -26.3332  -14.3783   18.1494 C   0  0  0  0  0  0  0  0  0  0  0  0
  -26.5926  -18.5945   17.1101 C   0  0  0  0  0  0  0  0  0  0  0  0
  -28.0753  -30.7407   25.2529 C   0  0  1  0  0  0  0  0  0  0  0  0
  -25.6045  -31.1860   22.4016 C   0  0  1  0  0  0  0  0  0  0  0  0
  -26.9562  -13.5955   19.3135 C   0  0  1  0  0  0  0  0  0  0  0  0
  -25.5135  -19.2442   17.9632 C   0  0  2  0  0  0  0  0  0  0  0  0
  -25.2364  -25.1298   15.1862 C   0  0  0  0  0  0  0  0  0  0  0  0
  -26.7120  -23.0295   19.4937 C   0  0  0  0  0  0  0  0  0  0  0  0
  -24.4624  -22.4773   14.2699 C   0  0  0  0  0  0  0  0  0  0  0  0
  -18.0138  -32.1236   21.1747 C   0  0  0  0  0  0  0  0  0  0  0  0
  -22.4640  -29.8109   25.5011 C   0  0  0  0  0  0  0  0  0  0  0  0
  -20.0761  -29.9950   24.7716 C   0  0  0  0  0  0  0  0  0  0  0  0
  -21.3571  -32.0497   25.3714 C   0  0  0  0  0  0  0  0  0  0  0  0
  -20.7689  -32.2305   18.5529 C   0  0  0  0  0  0  0  0  0  0  0  0
  -26.3806  -25.3965   17.8466 C   0  0  0  0  0  0  0  0  0  1  0  0
  -21.8823  -30.8486   23.2096 C   0  0  1  0  0  0  0  0  0  0  0  0
  -19.4425  -32.2499   20.6692 C   0  0  2  0  0  0  0  0  0  0  0  0
  -21.4645  -30.6652   24.6960 C   0  0  0  0  0  0  0  0  0  0  0  0
  -25.4834  -11.7277   19.9636 N   0  0  0  0  0  0  0  0  0  0  0  0
  -25.1957  -21.5468   16.3677 N   0  0  0  0  0  0  0  0  0  0  0  0
  -25.8984  -12.9818   20.2111 N   0  0  0  0  0  0  0  0  0  0  0  0
  -24.2157  -30.7216   22.3954 N   0  0  0  0  0  0  0  0  0  0  0  0
  -27.3748  -14.9674   17.3011 N   0  0  0  0  0  0  0  0  0  0  0  0
  -26.4258  -17.1603   17.3325 N   0  0  0  0  0  0  0  0  0  0  0  0
  -25.5874  -14.8207   21.6714 N   0  0  0  0  0  0  0  0  0  0  0  0
  -22.7114  -11.7255   23.2666 N   0  0  0  0  0  0  0  0  0  0  0  0
  -25.8852  -20.5689   18.3851 N   0  0  0  0  0  0  0  0  0  0  0  0
  -27.2849  -31.2282   24.1429 N   0  0  0  0  0  0  0  0  0  0  0  0
  -20.9682  -31.6760   22.4297 N   0  0  0  0  0  0  0  0  0  0  0  0
  -19.4310  -32.1045   19.1861 N   0  3  0  0  0  0  0  0  0  0  0  0
  -23.5023  -13.8581   23.5588 O   0  0  0  0  0  0  0  0  0  0  0  0
  -25.9612  -29.3385   23.8279 O   0  0  0  0  0  0  0  0  0  0  0  0
  -23.4438  -32.6046   23.5333 O   0  0  0  0  0  0  0  0  0  0  0  0
  -20.4794  -30.0733   20.8267 O   0  0  0  0  0  0  0  0  0  0  0  0
  -28.0160  -16.5774   15.7878 O   0  0  0  0  0  0  0  0  0  0  0  0
  -21.9014   -6.6123   21.2089 O   0  0  0  0  0  0  0  0  0  0  0  0
  -25.4247  -25.8486   18.7957 O   0  0  0  0  0  0  0  0  0  1  0  0
  -21.3969   -4.2645   26.1725 F   0  0  0  0  0  0  0  0  0  0  0  0
  -22.9668   -4.1110   21.7096 F   0  0  0  0  0  0  0  0  0  0  0  0
  1  2  1  0  0  0  0
  1  5  2  0  0  0  0
  2  6  2  0  0  0  0
  3  8  2  0  0  0  0
  3 15  1  0  0  0  0
  4  9  1  0  0  0  0
  4 15  2  0  0  0  0
  5 17  1  0  0  0  0
  6 19  1  0  0  0  0
  7 10  2  0  0  0  0
  7 18  1  0  0  0  0
  8 24  1  0  0  0  0
  9 24  2  0  0  0  0
 10 25  1  0  0  0  0
 11 12  2  0  0  0  0
 11 26  1  0  0  0  0
 12 27  1  0  0  0  0
 13 20  1  0  0  0  0
 13 25  2  0  0  0  0
 14 27  2  0  0  0  0
 14 28  1  0  0  0  0
 15 29  1  0  0  0  0
 16 29  1  0  0  0  0
 16 32  2  0  0  0  0
 16 33  1  0  0  0  0
 17 19  2  0  0  0  0
 17 38  1  0  0  0  0
 18 20  2  0  0  0  0
 18 39  1  0  0  0  0
 19 50  1  0  0  0  0
 20 40  1  0  0  0  0
 21 22  1  0  0  0  0
 21 23  2  0  0  0  0
 21 62  1  0  0  0  0
 22 30  2  0  0  0  0
 22 54  1  0  0  0  0
 23 31  1  0  0  0  0
 23 55  1  0  0  0  0
 24 83  1  0  0  0  0
 25 84  1  0  0  0  0
 26 28  2  0  0  0  0
 26 83  1  0  0  0  0
 27 85  1  0  0  0  0
 28 86  1  0  0  0  0
 29 66  2  0  0  0  0
 30 56  1  0  0  0  0
 30 67  1  0  0  0  0
 31 67  2  0  0  0  0
 31 74  1  0  0  0  0
 32 68  1  0  0  0  0
 32 72  1  0  0  0  0
 33 73  1  0  0  0  0
 33 78  2  0  0  0  0
 34 51  1  0  0  0  0
 34 75  1  0  0  0  0
 34 79  2  0  0  0  0
 35 63  1  0  0  0  0
 35 69  1  0  0  0  0
 35 80  2  0  0  0  0
 36 64  1  0  0  0  0
 36 76  1  0  0  0  0
 36 81  2  0  0  0  0
 37 70  1  0  0  0  0
 37 71  1  0  0  0  0
 37 82  2  0  0  0  0
 38 41  1  0  0  0  0
 39 51  1  0  0  0  0
 40 69  1  0  0  0  0
 41 43  1  0  0  0  0
 42 44  1  0  0  0  0
 42 46  1  0  0  0  0
 43 50  1  0  0  0  0
 44 52  1  0  0  0  0
 45 47  1  0  0  0  0
 45 53  1  0  0  0  0
 46 70  1  0  0  0  0
 47 71  1  0  0  0  0
 48 52  1  0  0  0  0
 48 70  1  0  0  0  0
 49 53  1  0  0  0  0
 49 71  1  0  0  0  0
 50 75  1  0  0  0  0
 51 69  1  0  0  0  0
 52 68  1  0  0  0  0
 53 74  1  0  0  0  0
 57 64  1  0  0  0  0
 58 65  1  0  0  0  0
 59 65  1  0  0  0  0
 60 65  1  0  0  0  0
 61 77  1  0  0  0  0
 62 84  1  0  0  0  0
 63 65  1  0  0  0  0
 63 76  1  0  0  0  0
 64 77  1  0  0  0  0
 66 68  1  0  0  0  0
M  CHG  1  77   1
M  ISO  4  37 100  62 101  71 100  84 101
M  END
> <Batch ID>
0172

> <Smiles>
CNC(C)C(=O)NC(C(=O)N1Cc2cc([101O:1][101CH2:1]c3c(C)c(C)nc(NC4CC[100N:0]([100C:0](=O)N5CCCC(n6nc(-c7ccc(Oc8ccc(F)cc8F)cc7)c(C(N)=O)c6N)C5)C4)c3C)ccc2CC1C(=O)NC1CCCc2ccccc21)C(C)(C)C

> <Shape>
0.248

> <Color>
0.140

> <Negative vol penalty>
0.000

$$$$

  -OEChem-04052322403D

 89 98  0     1  0  0  0  0  0999 V2000
  -25.7520  -23.3021   12.8138 C   0  0  0  0  0  0  0  0  0  0  0  0
  -25.1495  -24.0748   13.8014 C   0  0  0  0  0  0  0  0  0  0  0  0
  -24.6078  -13.4917   21.6948 C   0  0  0  0  0  0  0  0  0  0  0  0
  -26.3082  -13.3137   19.9878 C   0  0  0  0  0  0  0  0  0  0  0  0
  -26.9159  -22.5901   13.1006 C   0  0  0  0  0  0  0  0  0  0  0  0
  -25.7101  -24.1352   15.0767 C   0  0  0  0  0  0  0  0  0  0  0  0
  -25.7674  -28.9597   18.8485 C   0  0  0  0  0  0  0  0  0  0  0  0
  -23.9683  -12.3663   21.1752 C   0  0  0  0  0  0  0  0  0  0  0  0
  -25.6688  -12.1882   19.4682 C   0  0  0  0  0  0  0  0  0  0  0  0
  -24.9670  -29.3106   19.9348 C   0  0  0  0  0  0  0  0  0  0  0  0
  -24.3584   -9.0092   21.2797 C   0  0  0  0  0  0  0  0  0  0  0  0
  -23.9224   -8.0377   22.1806 C   0  0  0  0  0  0  0  0  0  0  0  0
  -26.5923  -28.3482   21.4353 C   0  0  0  0  0  0  0  0  0  0  0  0
  -20.9848  -26.9431   22.0320 C   0  0  0  0  0  0  0  0  0  0  0  0
  -21.6508   -8.3521   21.4203 C   0  0  0  0  0  0  0  0  0  0  0  0
  -25.7777  -13.9655   21.1011 C   0  0  0  0  0  0  0  0  0  0  0  0
  -27.4373  -15.1572   22.6286 C   0  0  0  0  0  0  0  0  0  0  0  0
  -27.4965  -22.6494   14.3773 C   0  0  0  0  0  0  0  0  0  0  0  0
  -26.9831  -28.2896   19.0471 C   0  0  0  0  0  0  0  0  0  0  0  0
  -26.8822  -23.4223   15.3812 C   0  0  0  0  0  0  0  0  0  0  0  0
  -27.4074  -27.9922   20.3500 C   0  0  0  0  0  0  0  0  0  0  0  0
  -18.9375  -28.1904   22.2695 C   0  0  0  0  0  0  0  0  0  0  0  0
  -20.3094  -28.0771   22.4732 C   0  0  0  0  0  0  0  0  0  0  0  0
  -24.4988  -11.7145   20.0619 C   0  0  0  0  0  0  0  0  0  0  0  0
  -25.3781  -29.0023   21.2283 C   0  0  0  0  0  0  0  0  0  0  0  0
  -23.4407   -9.6523   20.4492 C   0  0  0  0  0  0  0  0  0  0  0  0
  -22.5687   -7.7091   22.2508 C   0  0  0  0  0  0  0  0  0  0  0  0
  -22.0869   -9.3237   20.5194 C   0  0  0  0  0  0  0  0  0  0  0  0
  -26.4385  -15.1284   21.6370 C   0  0  0  0  0  0  0  0  0  0  0  0
  -18.2702  -27.1587   21.6246 C   0  0  0  0  0  0  0  0  0  0  0  0
  -27.7312  -16.4901   22.7813 C   0  0  0  0  0  0  0  0  0  0  0  0
  -20.2656  -25.9430   21.3932 C   0  0  0  0  0  0  0  0  0  0  0  0
  -28.0451  -14.0757   23.3474 C   0  0  0  0  0  0  0  0  0  0  0  0
  -28.1507  -25.4600   18.1904 C   0  0  0  0  0  0  0  0  0  0  0  0
  -30.8777  -26.6228   19.5071 C   0  0  0  0  0  0  0  0  0  0  0  0
  -32.3414  -28.7943   21.6955 C   0  0  0  0  0  0  0  0  0  0  0  0
  -24.7358  -21.3710   22.0096 C   0  0  0  0  0  0  0  0  0  0  0  0
  -28.7288  -21.8249   14.6535 C   0  0  0  0  0  0  0  0  0  0  0  0
  -27.8476  -27.9418   17.8664 C   0  0  0  0  0  0  0  0  0  0  0  0
  -28.7136  -27.2918   20.6182 C   0  0  0  0  0  0  0  0  0  0  0  0
  -29.4674  -22.2400   15.9233 C   0  0  0  0  0  0  0  0  0  0  0  0
  -27.7581  -20.6256   20.3850 C   0  0  0  0  0  0  0  0  0  0  0  0
  -28.4857  -22.4221   17.0766 C   0  0  0  0  0  0  0  0  0  0  0  0
  -27.8645  -19.1189   20.6187 C   0  0  0  0  0  0  0  0  0  0  0  0
  -22.7330  -23.4904   20.0385 C   0  0  0  0  0  0  0  0  0  0  0  0
  -22.6058  -24.0606   22.4934 C   0  0  0  0  0  0  0  0  0  0  0  0
  -26.3261  -21.0557   20.0616 C   0  0  0  0  0  0  0  0  0  0  0  0
  -24.1995  -23.0900   20.2252 C   0  0  0  0  0  0  0  0  0  0  0  0
  -24.0771  -23.6772   22.6251 C   0  0  0  0  0  0  0  0  0  0  0  0
  -25.4330  -19.1049   21.2926 C   0  0  0  0  0  0  0  0  0  0  0  0
  -27.4739  -23.5328   16.7697 C   0  0  1  0  0  0  0  0  0  0  0  0
  -28.8221  -26.8038   18.1539 C   0  0  1  0  0  0  0  0  0  0  0  0
  -26.8497  -18.6510   21.6770 C   0  0  1  0  0  0  0  0  0  0  0  0
  -22.2995  -24.5344   21.0703 C   0  0  0  0  0  0  0  0  0  0  0  0
  -18.1902  -29.3976   22.7332 C   0  0  0  0  0  0  0  0  0  0  0  0
  -16.8074  -27.1838   21.3594 C   0  0  0  0  0  0  0  0  0  0  0  0
  -34.5856  -29.4862   22.5799 C   0  0  0  0  0  0  0  0  0  0  0  0
  -22.8021  -29.9790   24.4892 C   0  0  0  0  0  0  0  0  0  0  0  0
  -30.9771  -24.1007   21.2214 C   0  0  0  0  0  0  0  0  0  0  0  0
  -32.6319  -25.2566   22.7025 C   0  0  0  0  0  0  0  0  0  0  0  0
  -33.1885  -24.8295   20.3087 C   0  0  0  0  0  0  0  0  0  0  0  0
  -32.0091  -31.5620   20.7013 C   0  0  0  0  0  0  0  0  0  0  0  0
  -23.1884  -29.3866   22.0730 C   0  0  0  0  0  0  0  0  0  1  0  0
  -31.4887  -26.6092   20.8875 C   0  0  1  0  0  0  0  0  0  0  0  0
  -33.5107  -29.7492   21.5367 C   0  0  2  0  0  0  0  0  0  0  0  0
  -22.4406  -29.0284   23.3555 C   0  0  2  0  0  0  0  0  0  0  0  0
  -32.0459  -25.2105   21.2752 C   0  0  0  0  0  0  0  0  0  0  0  0
  -26.1192  -16.3463   21.1912 N   0  0  0  0  0  0  0  0  0  0  0  0
  -26.9219  -17.1529   21.9061 N   0  0  0  0  0  0  0  0  0  0  0  0
  -18.9451  -26.0779   21.2100 N   0  3  0  0  0  0  0  0  0  0  0  0
  -29.5206  -26.9668   19.4305 N   0  0  0  0  0  0  0  0  0  0  0  0
  -25.3899  -20.5527   21.0766 N   0  0  0  0  0  0  0  0  0  0  0  0
  -24.4564  -22.6881   21.6156 N   0  0  0  0  0  0  0  0  0  0  0  0
  -28.6004  -17.1482   23.5774 N   0  0  0  0  0  0  0  0  0  0  0  0
  -27.6258  -12.7680   23.0672 N   0  0  0  0  0  0  0  0  0  0  0  0
  -21.0320  -29.1007   23.1242 N   0  0  0  0  0  0  0  0  0  0  0  0
  -20.8830  -24.7928   20.9330 N   0  0  0  0  0  0  0  0  0  0  0  0
  -28.0782  -24.8338   16.9607 N   0  0  0  0  0  0  0  0  0  0  0  0
  -32.4850  -27.6748   20.9034 N   0  0  0  0  0  0  0  0  0  0  0  0
  -33.0510  -31.1595   21.6808 N   0  3  0  0  0  0  0  0  0  0  0  0
  -28.9220  -14.2647   24.2243 O   0  0  0  0  0  0  0  0  0  0  0  0
  -27.7309  -25.0231   19.2555 O   0  0  0  0  0  0  0  0  0  0  0  0
  -31.5805  -26.3456   18.5320 O   0  0  0  0  0  0  0  0  0  0  0  0
  -31.3970  -29.0172   22.4498 O   0  0  0  0  0  0  0  0  0  0  0  0
  -24.4197  -20.9497   23.1293 O   0  0  0  0  0  0  0  0  0  0  0  0
  -23.8752  -10.6161   19.5548 O   0  0  0  0  0  0  0  0  0  0  0  0
  -24.5934  -29.3452   22.2973 O   0  0  0  0  0  0  0  0  0  1  0  0
  -22.1503   -6.7750   23.1149 F   0  0  0  0  0  0  0  0  0  0  0  0
  -21.2006   -9.9373   19.7232 F   0  0  0  0  0  0  0  0  0  0  0  0
  1  2  1  0  0  0  0
  1  5  2  0  0  0  0
  2  6  2  0  0  0  0
  3  8  2  0  0  0  0
  3 16  1  0  0  0  0
  4  9  1  0  0  0  0
  4 16  2  0  0  0  0
  5 18  1  0  0  0  0
  6 20  1  0  0  0  0
  7 10  2  0  0  0  0
  7 19  1  0  0  0  0
  8 24  1  0  0  0  0
  9 24  2  0  0  0  0
 10 25  1  0  0  0  0
 11 12  2  0  0  0  0
 11 26  1  0  0  0  0
 12 27  1  0  0  0  0
 13 21  1  0  0  0  0
 13 25  2  0  0  0  0
 14 23  1  0  0  0  0
 14 32  2  0  0  0  0
 15 27  2  0  0  0  0
 15 28  1  0  0  0  0
 16 29  1  0  0  0  0
 17 29  1  0  0  0  0
 17 31  2  0  0  0  0
 17 33  1  0  0  0  0
 18 20  2  0  0  0  0
 18 38  1  0  0  0  0
 19 21  2  0  0  0  0
 19 39  1  0  0  0  0
 20 51  1  0  0  0  0
 21 40  1  0  0  0  0
 22 23  2  0  0  0  0
 22 30  1  0  0  0  0
 22 55  1  0  0  0  0
 23 76  1  0  0  0  0
 24 86  1  0  0  0  0
 25 87  1  0  0  0  0
 26 28  2  0  0  0  0
 26 86  1  0  0  0  0
 27 88  1  0  0  0  0
 28 89  1  0  0  0  0
 29 68  2  0  0  0  0
 30 56  1  0  0  0  0
 30 70  2  0  0  0  0
 31 69  1  0  0  0  0
 31 74  1  0  0  0  0
 32 70  1  0  0  0  0
 32 77  1  0  0  0  0
 33 75  1  0  0  0  0
 33 81  2  0  0  0  0
 34 52  1  0  0  0  0
 34 78  1  0  0  0  0
 34 82  2  0  0  0  0
 35 64  1  0  0  0  0
 35 71  1  0  0  0  0
 35 83  2  0  0  0  0
 36 65  1  0  0  0  0
 36 79  1  0  0  0  0
 36 84  2  0  0  0  0
 37 72  1  0  0  0  0
 37 73  1  0  0  0  0
 37 85  2  0  0  0  0
 38 41  1  0  0  0  0
 39 52  1  0  0  0  0
 40 71  1  0  0  0  0
 41 43  1  0  0  0  0
 42 44  1  0  0  0  0
 42 47  1  0  0  0  0
 43 51  1  0  0  0  0
 44 53  1  0  0  0  0
 45 48  1  0  0  0  0
 45 54  1  0  0  0  0
 46 49  1  0  0  0  0
 46 54  1  0  0  0  0
 47 72  1  0  0  0  0
 48 73  1  0  0  0  0
 49 73  1  0  0  0  0
 50 53  1  0  0  0  0
 50 72  1  0  0  0  0
 51 78  1  0  0  0  0
 52 71  1  0  0  0  0
 53 69  1  0  0  0  0
 54 77  1  0  0  0  0
 57 65  1  0  0  0  0
 58 66  1  0  0  0  0
 59 67  1  0  0  0  0
 60 67  1  0  0  0  0
 61 67  1  0  0  0  0
 62 80  1  0  0  0  0
 63 66  1  0  0  0  0
 63 87  1  0  0  0  0
 64 67  1  0  0  0  0
 64 79  1  0  0  0  0
 65 80  1  0  0  0  0
 66 76  1  0  0  0  0
 68 69  1  0  0  0  0
M  CHG  2  70   1  80   1
M  ISO  4  37 100  63 101  73 100  87 101
M  END
> <Batch ID>
0172

> <Smiles>
CNC(C)C(=O)NC(C(=O)N1Cc2cc([101O:1][101CH2:1]C(C)Nc3cc(NC4CC[100N:0]([100C:0](=O)N5CCCC(n6nc(-c7ccc(Oc8ccc(F)cc8F)cc7)c(C(N)=O)c6N)C5)CC4)nc(C)c3C)ccc2CC1C(=O)NC1CCCc2ccccc21)C(C)(C)C

> <Shape>
0.232

> <Color>
0.067

> <Negative vol penalty>
0.000

$$$$

  -OEChem-04052322403D

 87 96  0     1  0  0  0  0  0999 V2000
  -17.4604  -28.1661   19.6537 C   0  0  0  0  0  0  0  0  0  0  0  0
  -17.9223  -29.4361   19.9801 C   0  0  0  0  0  0  0  0  0  0  0  0
  -23.7145   -9.9803   22.2231 C   0  0  0  0  0  0  0  0  0  0  0  0
  -24.6455   -8.6757   20.4153 C   0  0  0  0  0  0  0  0  0  0  0  0
  -17.9279  -27.0569   20.3554 C   0  0  0  0  0  0  0  0  0  0  0  0
  -18.8608  -29.5963   21.0001 C   0  0  0  0  0  0  0  0  0  0  0  0
  -26.3948  -28.7236   22.3162 C   0  0  0  0  0  0  0  0  0  0  0  0
  -22.5786   -9.1709   22.2223 C   0  0  0  0  0  0  0  0  0  0  0  0
  -23.5096   -7.8662   20.4145 C   0  0  0  0  0  0  0  0  0  0  0  0
  -27.2713  -27.7782   21.7853 C   0  0  0  0  0  0  0  0  0  0  0  0
  -21.6955   -6.1165   23.3730 C   0  0  0  0  0  0  0  0  0  0  0  0
  -21.2113   -5.6778   24.6053 C   0  0  0  0  0  0  0  0  0  0  0  0
  -26.2759  -28.0861   19.6096 C   0  0  0  0  0  0  0  0  0  0  0  0
  -19.1078   -6.7847   24.1728 C   0  0  0  0  0  0  0  0  0  0  0  0
  -24.7480   -9.7327   21.3196 C   0  0  0  0  0  0  0  0  0  0  0  0
  -27.1009  -10.3785   22.0641 C   0  0  0  0  0  0  0  0  0  0  0  0
  -18.8632  -27.2057   21.3927 C   0  0  0  0  0  0  0  0  0  0  0  0
  -25.4435  -29.3504   21.4986 C   0  0  0  0  0  0  0  0  0  0  0  0
  -19.3628  -28.4867   21.7040 C   0  0  0  0  0  0  0  0  0  0  0  0
  -25.3903  -29.0409   20.1320 C   0  0  0  0  0  0  0  0  0  0  0  0
  -22.4761   -8.1138   21.3180 C   0  0  0  0  0  0  0  0  0  0  0  0
  -27.2100  -27.4572   20.4324 C   0  0  0  0  0  0  0  0  0  0  0  0
  -20.8859   -6.8894   22.5406 C   0  0  0  0  0  0  0  0  0  0  0  0
  -19.9174   -6.0119   25.0052 C   0  0  0  0  0  0  0  0  0  0  0  0
  -19.5921   -7.2235   22.9405 C   0  0  0  0  0  0  0  0  0  0  0  0
  -25.9214  -10.5689   21.3196 C   0  0  0  0  0  0  0  0  0  0  0  0
  -27.9033  -11.4364   21.7127 C   0  0  0  0  0  0  0  0  0  0  0  0
  -27.4409   -9.3383   22.9905 C   0  0  0  0  0  0  0  0  0  0  0  0
  -22.2676  -29.4650   21.4348 C   0  0  0  0  0  0  0  0  0  0  0  0
  -22.7818  -31.6307   19.0752 C   0  0  0  0  0  0  0  0  0  0  0  0
  -24.8608  -32.8371   16.6526 C   0  0  0  0  0  0  0  0  0  0  0  0
  -26.8915  -16.8070   19.8767 C   0  0  0  0  0  0  0  0  0  0  0  0
  -19.3414  -25.9703   22.1141 C   0  0  0  0  0  0  0  0  0  0  0  0
  -24.5230  -30.3876   22.0811 C   0  0  0  0  0  0  0  0  0  0  0  0
  -24.4008  -29.7003   19.2076 C   0  0  0  0  0  0  0  0  0  0  0  0
  -19.9895  -26.2809   23.4594 C   0  0  0  0  0  0  0  0  0  0  0  0
  -28.7759  -14.4495   18.1085 C   0  0  0  0  0  0  0  0  0  0  0  0
  -21.0229  -27.3854   23.2959 C   0  0  0  0  0  0  0  0  0  0  0  0
  -28.3722  -13.1521   18.8076 C   0  0  0  0  0  0  0  0  0  0  0  0
  -27.5836  -15.3858   17.9024 C   0  0  0  0  0  0  0  0  0  0  0  0
  -27.7110  -19.1290   19.7714 C   0  0  0  0  0  0  0  0  0  0  0  0
  -26.5006  -18.2205   17.7936 C   0  0  0  0  0  0  0  0  0  0  0  0
  -26.4252  -14.3778   19.8415 C   0  0  0  0  0  0  0  0  0  0  0  0
  -27.4750  -20.4501   19.0571 C   0  0  0  0  0  0  0  0  0  0  0  0
  -25.6111  -19.4602   17.7040 C   0  0  0  0  0  0  0  0  0  0  0  0
  -27.9548  -22.8716   18.1116 C   0  0  0  0  0  0  0  0  0  0  0  0
  -26.6233  -23.1471   20.2315 C   0  0  0  0  0  0  0  0  0  0  0  0
  -20.3606  -28.6883   22.8301 C   0  0  1  0  0  0  0  0  0  0  0  0
  -23.2521  -30.5868   21.2611 C   0  0  1  0  0  0  0  0  0  0  0  0
  -26.6766  -22.5211   17.3437 C   0  0  2  0  0  0  0  0  0  0  0  0
  -25.3357  -22.7984   19.4788 C   0  0  1  0  0  0  0  0  0  0  0  0
  -27.6139  -13.4435   20.1145 C   0  0  1  0  0  0  0  0  0  0  0  0
  -25.6011  -21.8972   18.2558 C   0  0  0  0  0  0  0  0  0  0  0  0
  -27.0126  -21.6537   16.1281 C   0  0  0  0  0  0  0  0  0  0  0  0
  -24.3018  -22.2144   20.4446 C   0  0  0  0  0  0  0  0  0  0  0  0
  -24.9901  -34.5898   14.8612 C   0  0  0  0  0  0  0  0  0  0  0  0
  -29.3349  -23.1102   20.8914 C   0  0  0  0  0  0  0  0  0  0  0  0
  -20.9358  -29.9603   17.3111 C   0  0  0  0  0  0  0  0  0  0  0  0
  -21.8409  -31.1853   15.3240 C   0  0  0  0  0  0  0  0  0  0  0  0
  -20.6192  -32.4326   17.1057 C   0  0  0  0  0  0  0  0  0  0  0  0
  -27.2017  -34.1281   17.9226 C   0  0  0  0  0  0  0  0  0  0  0  0
  -28.5078  -25.4954   20.7833 C   0  0  0  0  0  0  0  0  0  1  0  0
  -22.9450  -31.5600   17.5761 C   0  0  1  0  0  0  0  0  0  0  0  0
  -25.2968  -34.2507   16.3117 C   0  0  2  0  0  0  0  0  0  0  0  0
  -28.8522  -24.2378   19.9935 C   0  0  2  0  0  0  0  0  0  0  0  0
  -21.6027  -31.2705   16.8468 C   0  0  0  0  0  0  0  0  0  0  0  0
  -25.9662  -11.6619   20.5532 N   0  0  0  0  0  0  0  0  0  0  0  0
  -27.1835  -12.1679   20.8144 N   0  0  0  0  0  0  0  0  0  0  0  0
  -23.5179  -30.7032   19.8259 N   0  0  0  0  0  0  0  0  0  0  0  0
  -26.8629  -15.6002   19.1645 N   0  0  0  0  0  0  0  0  0  0  0  0
  -27.0442  -17.9905   19.1360 N   0  0  0  0  0  0  0  0  0  0  0  0
  -29.1472  -11.8031   22.0878 N   0  0  0  0  0  0  0  0  0  0  0  0
  -26.5005   -8.3285   23.2359 N   0  0  0  0  0  0  0  0  0  0  0  0
  -21.3899  -29.6446   22.4869 N   0  0  0  0  0  0  0  0  0  0  0  0
  -23.5854  -32.8082   17.1758 N   0  0  0  0  0  0  0  0  0  0  0  0
  -26.0171  -20.5227   18.6960 N   0  3  0  0  0  0  0  0  0  0  0  0
  -27.6144  -23.7698   19.2771 N   0  3  0  0  0  0  0  0  0  0  0  0
  -26.7624  -34.4079   16.5313 N   0  3  0  0  0  0  0  0  0  0  0  0
  -28.5395   -9.3142   23.5954 O   0  0  0  0  0  0  0  0  0  0  0  0
  -22.3007  -28.5082   20.6699 O   0  0  0  0  0  0  0  0  0  0  0  0
  -22.0343  -32.4824   19.5625 O   0  0  0  0  0  0  0  0  0  0  0  0
  -25.5784  -31.8563   16.4694 O   0  0  0  0  0  0  0  0  0  0  0  0
  -26.7752  -16.8261   21.1090 O   0  0  0  0  0  0  0  0  0  0  0  0
  -21.3679   -7.3236   21.3171 O   0  0  0  0  0  0  0  0  0  0  0  0
  -28.0697  -26.5280   19.9083 O   0  0  0  0  0  0  0  0  0  1  0  0
  -19.4520   -5.5892   26.1879 F   0  0  0  0  0  0  0  0  0  0  0  0
  -18.8092   -7.9648   22.1446 F   0  0  0  0  0  0  0  0  0  0  0  0
  1  2  1  0  0  0  0
  1  5  2  0  0  0  0
  2  6  2  0  0  0  0
  3  8  2  0  0  0  0
  3 15  1  0  0  0  0
  4  9  1  0  0  0  0
  4 15  2  0  0  0  0
  5 17  1  0  0  0  0
  6 19  1  0  0  0  0
  7 10  2  0  0  0  0
  7 18  1  0  0  0  0
  8 21  1  0  0  0  0
  9 21  2  0  0  0  0
 10 22  1  0  0  0  0
 11 12  2  0  0  0  0
 11 23  1  0  0  0  0
 12 24  1  0  0  0  0
 13 20  1  0  0  0  0
 13 22  2  0  0  0  0
 14 24  2  0  0  0  0
 14 25  1  0  0  0  0
 15 26  1  0  0  0  0
 16 26  1  0  0  0  0
 16 27  2  0  0  0  0
 16 28  1  0  0  0  0
 17 19  2  0  0  0  0
 17 33  1  0  0  0  0
 18 20  2  0  0  0  0
 18 34  1  0  0  0  0
 19 48  1  0  0  0  0
 20 35  1  0  0  0  0
 21 84  1  0  0  0  0
 22 85  1  0  0  0  0
 23 25  2  0  0  0  0
 23 84  1  0  0  0  0
 24 86  1  0  0  0  0
 25 87  1  0  0  0  0
 26 67  2  0  0  0  0
 27 68  1  0  0  0  0
 27 72  1  0  0  0  0
 28 73  1  0  0  0  0
 28 79  2  0  0  0  0
 29 49  1  0  0  0  0
 29 74  1  0  0  0  0
 29 80  2  0  0  0  0
 30 63  1  0  0  0  0
 30 69  1  0  0  0  0
 30 81  2  0  0  0  0
 31 64  1  0  0  0  0
 31 75  1  0  0  0  0
 31 82  2  0  0  0  0
 32 70  1  0  0  0  0
 32 71  1  0  0  0  0
 32 83  2  0  0  0  0
 33 36  1  0  0  0  0
 34 49  1  0  0  0  0
 35 69  1  0  0  0  0
 36 38  1  0  0  0  0
 37 39  1  0  0  0  0
 37 40  1  0  0  0  0
 38 48  1  0  0  0  0
 39 52  1  0  0  0  0
 40 70  1  0  0  0  0
 41 44  1  0  0  0  0
 41 71  1  0  0  0  0
 42 45  1  0  0  0  0
 42 71  1  0  0  0  0
 43 52  1  0  0  0  0
 43 70  1  0  0  0  0
 44 76  1  0  0  0  0
 45 76  1  0  0  0  0
 46 50  1  0  0  0  0
 46 77  1  0  0  0  0
 47 51  1  0  0  0  0
 47 77  1  0  0  0  0
 48 74  1  0  0  0  0
 49 69  1  0  0  0  0
 50 53  1  0  0  0  0
 50 54  1  0  0  0  0
 51 53  1  0  0  0  0
 51 55  1  0  0  0  0
 52 68  1  0  0  0  0
 53 76  1  0  0  0  0
 56 64  1  0  0  0  0
 57 65  1  0  0  0  0
 58 66  1  0  0  0  0
 59 66  1  0  0  0  0
 60 66  1  0  0  0  0
 61 78  1  0  0  0  0
 62 65  1  0  0  0  0
 62 85  1  0  0  0  0
 63 66  1  0  0  0  0
 63 75  1  0  0  0  0
 64 78  1  0  0  0  0
 65 77  1  0  0  0  0
 67 68  1  0  0  0  0
M  CHG  3  76   1  77   1  78   1
M  ISO  4  32 100  62 101  71 100  85 101
M  END
> <Batch ID>
0172

> <Smiles>
CNC(C)C(=O)NC(C(=O)N1Cc2cc([101O:1][101CH2:1]C(C)N3CC(C)C(N4CC[100N:0]([100C:0](=O)N5CCCC(n6nc(-c7ccc(Oc8ccc(F)cc8F)cc7)c(C(N)=O)c6N)C5)CC4)C(C)C3)ccc2CC1C(=O)NC1CCCc2ccccc21)C(C)(C)C

> <Shape>
0.237

> <Color>
0.122

> <Negative vol penalty>
0.000

$$$$

  -OEChem-04052322403D

 86 97  0     1  0  0  0  0  0999 V2000
  -34.0418  -31.3244   15.8727 C   0  0  0  0  0  0  0  0  0  0  0  0
  -33.3526  -30.1699   16.2301 C   0  0  0  0  0  0  0  0  0  0  0  0
  -23.1710   -9.7993   19.9311 C   0  0  0  0  0  0  0  0  0  0  0  0
  -23.8176   -9.8987   22.2569 C   0  0  0  0  0  0  0  0  0  0  0  0
  -35.4355  -31.3420   15.9078 C   0  0  0  0  0  0  0  0  0  0  0  0
  -34.0569  -29.0320   16.6218 C   0  0  0  0  0  0  0  0  0  0  0  0
  -32.0819  -26.8472   20.7414 C   0  0  0  0  0  0  0  0  0  0  0  0
  -22.4623   -8.6237   20.1784 C   0  0  0  0  0  0  0  0  0  0  0  0
  -23.1087   -8.7231   22.5042 C   0  0  0  0  0  0  0  0  0  0  0  0
  -30.9385  -26.0695   20.5635 C   0  0  0  0  0  0  0  0  0  0  0  0
  -19.8893   -7.8099   22.9752 C   0  0  0  0  0  0  0  0  0  0  0  0
  -19.0785   -7.7702   24.1094 C   0  0  0  0  0  0  0  0  0  0  0  0
  -32.2950  -24.0753   20.6092 C   0  0  0  0  0  0  0  0  0  0  0  0
  -20.3585   -5.9057   24.9592 C   0  0  0  0  0  0  0  0  0  0  0  0
  -32.2934  -19.0929   21.1602 C   0  0  0  0  0  0  0  0  0  0  0  0
  -23.8487  -10.4368   20.9704 C   0  0  0  0  0  0  0  0  0  0  0  0
  -24.0955  -12.9698   20.7945 C   0  0  0  0  0  0  0  0  0  0  0  0
  -36.1569  -30.2067   16.3094 C   0  0  0  0  0  0  0  0  0  0  0  0
  -33.3438  -26.2444   20.8438 C   0  0  0  0  0  0  0  0  0  0  0  0
  -35.4616  -29.0339   16.6611 C   0  0  0  0  0  0  0  0  0  0  0  0
  -33.4526  -24.8474   20.7909 C   0  0  0  0  0  0  0  0  0  0  0  0
  -22.4311   -8.0856   21.4649 C   0  0  0  0  0  0  0  0  0  0  0  0
  -31.0453  -24.6836   20.4945 C   0  0  0  0  0  0  0  0  0  0  0  0
  -20.9347   -6.8974   22.8329 C   0  0  0  0  0  0  0  0  0  0  0  0
  -19.3131   -6.8181   25.1015 C   0  0  0  0  0  0  0  0  0  0  0  0
  -21.1693   -5.9454   23.8249 C   0  0  0  0  0  0  0  0  0  0  0  0
  -24.5816  -11.6510   20.7155 C   0  0  0  0  0  0  0  0  0  0  0  0
  -31.8458  -17.8966   20.6442 C   0  0  0  0  0  0  0  0  0  0  0  0
  -30.5399  -20.1762   20.1697 C   0  0  0  0  0  0  0  0  0  0  0  0
  -30.0927  -18.9801   19.6530 C   0  0  0  0  0  0  0  0  0  0  0  0
  -25.1734  -13.7535   20.4622 C   0  0  0  0  0  0  0  0  0  0  0  0
  -22.7866  -13.4440   21.1376 C   0  0  0  0  0  0  0  0  0  0  0  0
  -36.0291  -26.3596   19.1468 C   0  0  0  0  0  0  0  0  0  0  0  0
  -37.1835  -24.5486   21.5778 C   0  0  0  0  0  0  0  0  0  0  0  0
  -36.5410  -22.3785   24.1322 C   0  0  0  0  0  0  0  0  0  0  0  0
  -30.4861  -14.9909   21.0472 C   0  0  0  0  0  0  0  0  0  0  0  0
  -37.6640  -30.2586   16.2862 C   0  0  0  0  0  0  0  0  0  0  0  0
  -34.5644  -27.0957   21.0622 C   0  0  0  0  0  0  0  0  0  0  0  0
  -34.7818  -24.1502   20.9157 C   0  0  0  0  0  0  0  0  0  0  0  0
  -38.3246  -29.1290   17.0723 C   0  0  0  0  0  0  0  0  0  0  0  0
  -29.6763  -12.5085   18.5187 C   0  0  0  0  0  0  0  0  0  0  0  0
  -37.6744  -27.7914   16.7333 C   0  0  0  0  0  0  0  0  0  0  0  0
  -27.5210  -18.8024   19.4829 C   0  0  0  0  0  0  0  0  0  0  0  0
  -28.0857  -17.6313   18.7414 C   0  0  0  0  0  0  0  0  0  0  0  0
  -28.2257  -12.1762   18.8748 C   0  0  0  0  0  0  0  0  0  0  0  0
  -33.4885  -15.9723   19.7680 C   0  0  0  0  0  0  0  0  0  0  0  0
  -28.6443  -21.8213   20.7833 C   0  0  0  0  0  0  0  0  0  0  0  0
  -30.4997  -12.7615   19.7762 C   0  0  0  0  0  0  0  0  0  0  0  0
  -32.8337  -14.6015   19.9287 C   0  0  0  0  0  0  0  0  0  0  0  0
  -28.5214  -13.4973   21.0268 C   0  0  0  0  0  0  0  0  0  0  0  0
  -36.1893  -27.7873   17.1153 C   0  0  1  0  0  0  0  0  0  0  0  0
  -29.8134  -21.4410   19.9051 C   0  0  1  0  0  0  0  0  0  0  0  0
  -28.8631  -18.9192   18.8100 C   0  0  0  0  0  0  0  0  0  0  0  0
  -32.5627  -16.5016   20.8809 C   0  0  2  0  0  0  0  0  0  0  0  0
  -35.8576  -26.4060   20.6388 C   0  0  1  0  0  0  0  0  0  0  0  0
  -27.6176  -13.2429   19.8052 C   0  0  2  0  0  0  0  0  0  0  0  0
  -29.9305  -22.5818   20.8921 C   0  0  1  0  0  0  0  0  0  1  0  0
  -37.6911  -21.0413   25.9173 C   0  0  0  0  0  0  0  0  0  0  0  0
  -38.0961  -22.5331   19.4767 C   0  0  0  0  0  0  0  0  0  0  0  0
  -38.3550  -20.8460   21.3083 C   0  0  0  0  0  0  0  0  0  0  0  0
  -39.7330  -22.9253   21.3263 C   0  0  0  0  0  0  0  0  0  0  0  0
  -35.0998  -23.8022   26.2897 C   0  0  0  0  0  0  0  0  0  0  0  0
  -37.2664  -23.0684   21.8623 C   0  0  1  0  0  0  0  0  0  0  0  0
  -37.0076  -22.3564   25.5765 C   0  0  2  0  0  0  0  0  0  0  0  0
  -38.3377  -22.3561   20.9890 C   0  0  0  0  0  0  0  0  0  0  0  0
  -31.6484  -20.2541   20.9323 N   0  0  0  0  0  0  0  0  0  0  0  0
  -25.8681  -11.5960   20.3607 N   0  0  0  0  0  0  0  0  0  0  0  0
  -30.7375  -17.8188   19.8813 N   0  0  0  0  0  0  0  0  0  0  0  0
  -26.1995  -12.8900   20.2138 N   0  0  0  0  0  0  0  0  0  0  0  0
  -35.9468  -25.0265   21.1219 N   0  0  0  0  0  0  0  0  0  0  0  0
  -29.8868  -13.8146   20.5904 N   0  0  0  0  0  0  0  0  0  0  0  0
  -31.7876  -15.2597   20.6897 N   0  0  0  0  0  0  0  0  0  0  0  0
  -25.3341  -15.0900   20.3612 N   0  0  0  0  0  0  0  0  0  0  0  0
  -21.7964  -12.5034   21.4522 N   0  0  0  0  0  0  0  0  0  0  0  0
  -36.0350  -27.6022   18.5423 N   0  0  0  0  0  0  0  0  0  0  0  0
  -37.4852  -22.9404   23.2990 N   0  0  0  0  0  0  0  0  0  0  0  0
  -35.8501  -22.5370   26.4977 N   0  3  0  0  0  0  0  0  0  0  0  0
  -22.4992  -14.6650   21.1483 O   0  0  0  0  0  0  0  0  0  0  0  0
  -36.1487  -25.2768   18.5857 O   0  0  0  0  0  0  0  0  0  0  0  0
  -38.1774  -25.2561   21.7604 O   0  0  0  0  0  0  0  0  0  0  0  0
  -35.4498  -21.9378   23.7779 O   0  0  0  0  0  0  0  0  0  0  0  0
  -29.8533  -15.8059   21.7333 O   0  0  0  0  0  0  0  0  0  0  0  0
  -21.7393   -6.9386   21.7066 O   0  0  0  0  0  0  0  0  0  0  0  0
  -29.9309  -23.9222   20.3202 O   0  0  0  0  0  0  0  0  0  1  0  0
  -18.5353   -6.7811   26.1914 F   0  0  0  0  0  0  0  0  0  0  0  0
  -22.1729   -5.0669   23.6944 F   0  0  0  0  0  0  0  0  0  0  0  0
  1  2  1  0  0  0  0
  1  5  2  0  0  0  0
  2  6  2  0  0  0  0
  3  8  2  0  0  0  0
  3 16  1  0  0  0  0
  4  9  1  0  0  0  0
  4 16  2  0  0  0  0
  5 18  1  0  0  0  0
  6 20  1  0  0  0  0
  7 10  2  0  0  0  0
  7 19  1  0  0  0  0
  8 22  1  0  0  0  0
  9 22  2  0  0  0  0
 10 23  1  0  0  0  0
 11 12  2  0  0  0  0
 11 24  1  0  0  0  0
 12 25  1  0  0  0  0
 13 21  1  0  0  0  0
 13 23  2  0  0  0  0
 14 25  2  0  0  0  0
 14 26  1  0  0  0  0
 15 28  1  0  0  0  0
 15 66  2  0  0  0  0
 16 27  1  0  0  0  0
 17 27  1  0  0  0  0
 17 31  2  0  0  0  0
 17 32  1  0  0  0  0
 18 20  2  0  0  0  0
 18 37  1  0  0  0  0
 19 21  2  0  0  0  0
 19 38  1  0  0  0  0
 20 51  1  0  0  0  0
 21 39  1  0  0  0  0
 22 83  1  0  0  0  0
 23 84  1  0  0  0  0
 24 26  2  0  0  0  0
 24 83  1  0  0  0  0
 25 85  1  0  0  0  0
 26 86  1  0  0  0  0
 27 67  2  0  0  0  0
 28 54  1  0  0  0  0
 28 68  2  0  0  0  0
 29 30  2  0  0  0  0
 29 52  1  0  0  0  0
 29 66  1  0  0  0  0
 30 53  1  0  0  0  0
 30 68  1  0  0  0  0
 31 69  1  0  0  0  0
 31 73  1  0  0  0  0
 32 74  1  0  0  0  0
 32 78  2  0  0  0  0
 33 55  1  0  0  0  0
 33 75  1  0  0  0  0
 33 79  2  0  0  0  0
 34 63  1  0  0  0  0
 34 70  1  0  0  0  0
 34 80  2  0  0  0  0
 35 64  1  0  0  0  0
 35 76  1  0  0  0  0
 35 81  2  0  0  0  0
 36 71  1  0  0  0  0
 36 72  1  0  0  0  0
 36 82  2  0  0  0  0
 37 40  1  0  0  0  0
 38 55  1  0  0  0  0
 39 70  1  0  0  0  0
 40 42  1  0  0  0  0
 41 45  1  0  0  0  0
 41 48  1  0  0  0  0
 42 51  1  0  0  0  0
 43 44  1  0  0  0  0
 43 53  1  0  0  0  0
 44 53  1  0  0  0  0
 45 56  1  0  0  0  0
 46 49  1  0  0  0  0
 46 54  1  0  0  0  0
 47 52  1  0  0  0  0
 47 57  1  0  0  0  0
 48 71  1  0  0  0  0
 49 72  1  0  0  0  0
 50 56  1  0  0  0  0
 50 71  1  0  0  0  0
 51 75  1  0  0  0  0
 52 57  1  0  0  0  0
 54 72  1  0  0  0  0
 55 70  1  0  0  0  0
 56 69  1  0  0  0  0
 57 84  1  0  0  0  0
 58 64  1  0  0  0  0
 59 65  1  0  0  0  0
 60 65  1  0  0  0  0
 61 65  1  0  0  0  0
 62 77  1  0  0  0  0
 63 65  1  0  0  0  0
 63 76  1  0  0  0  0
 64 77  1  0  0  0  0
 67 69  1  0  0  0  0
M  CHG  1  77   1
M  ISO  4  36 100  57 101  72 100  84 101
M  END
> <Batch ID>
0172

> <Smiles>
CNC(C)C(=O)NC(C(=O)N1Cc2cc([101O:1][101CH:1]3CC3c3ncc(C4CC[100N:0]4[100C:0](=O)N4CCCC(n5nc(-c6ccc(Oc7ccc(F)cc7F)cc6)c(C(N)=O)c5N)C4)nc3C3CC3)ccc2CC1C(=O)NC1CCCc2ccccc21)C(C)(C)C

> <Shape>
0.225

> <Color>
0.192

> <Negative vol penalty>
0.000

$$$$

  -OEChem-04052322403D

 92101  0     1  0  0  0  0  0999 V2000
  -28.2512  -11.1849   16.1058 C   0  0  0  0  0  0  0  0  0  0  0  0
  -27.3510  -12.2441   16.1628 C   0  0  0  0  0  0  0  0  0  0  0  0
  -31.4584  -27.0261   18.4188 C   0  0  0  0  0  0  0  0  0  0  0  0
  -31.7689  -26.3986   20.7312 C   0  0  0  0  0  0  0  0  0  0  0  0
  -29.1105  -10.9435   17.1769 C   0  0  0  0  0  0  0  0  0  0  0  0
  -27.3090  -13.0619   17.2914 C   0  0  0  0  0  0  0  0  0  0  0  0
  -26.0640  -19.8458   19.2267 C   0  0  0  0  0  0  0  0  0  0  0  0
  -32.7977  -27.4080   18.3425 C   0  0  0  0  0  0  0  0  0  0  0  0
  -33.1083  -26.7805   20.6549 C   0  0  0  0  0  0  0  0  0  0  0  0
  -25.2887  -20.5867   20.1176 C   0  0  0  0  0  0  0  0  0  0  0  0
  -34.8876  -29.6544   20.7286 C   0  0  0  0  0  0  0  0  0  0  0  0
  -35.4053  -30.4153   21.7767 C   0  0  0  0  0  0  0  0  0  0  0  0
  -26.8754  -20.1230   21.8745 C   0  0  0  0  0  0  0  0  0  0  0  0
  -22.6263  -23.8255   25.9859 C   0  0  0  0  0  0  0  0  0  0  0  0
  -37.0366  -28.6900   22.2234 C   0  0  0  0  0  0  0  0  0  0  0  0
  -30.9439  -26.5214   19.6132 C   0  0  0  0  0  0  0  0  0  0  0  0
  -29.0216  -24.8556   19.4202 C   0  0  0  0  0  0  0  0  0  0  0  0
  -29.0857  -11.7647   18.3152 C   0  0  0  0  0  0  0  0  0  0  0  0
  -27.2472  -19.2278   19.6563 C   0  0  0  0  0  0  0  0  0  0  0  0
  -28.1679  -12.8305   18.3792 C   0  0  0  0  0  0  0  0  0  0  0  0
  -27.6652  -19.3770   20.9864 C   0  0  0  0  0  0  0  0  0  0  0  0
  -22.6860  -22.4395   26.1308 C   0  0  0  0  0  0  0  0  0  0  0  0
  -23.4722  -24.4694   25.0827 C   0  0  0  0  0  0  0  0  0  0  0  0
  -23.5915  -21.6974   25.3727 C   0  0  0  0  0  0  0  0  0  0  0  0
  -24.3778  -23.7272   24.3246 C   0  0  0  0  0  0  0  0  0  0  0  0
  -24.4375  -22.3412   24.4696 C   0  0  0  0  0  0  0  0  0  0  0  0
  -33.6227  -27.2851   19.4605 C   0  0  0  0  0  0  0  0  0  0  0  0
  -25.6929  -20.7230   21.4425 C   0  0  0  0  0  0  0  0  0  0  0  0
  -35.4444  -28.4113   20.4278 C   0  0  0  0  0  0  0  0  0  0  0  0
  -36.4798  -29.9331   22.5242 C   0  0  0  0  0  0  0  0  0  0  0  0
  -36.5188  -27.9291   21.1752 C   0  0  0  0  0  0  0  0  0  0  0  0
  -29.5603  -26.1273   19.6928 C   0  0  0  0  0  0  0  0  0  0  0  0
  -27.6736  -24.9991   19.6411 C   0  0  0  0  0  0  0  0  0  0  0  0
  -29.6808  -23.6520   19.0046 C   0  0  0  0  0  0  0  0  0  0  0  0
  -28.2711  -16.2241   19.8373 C   0  0  0  0  0  0  0  0  0  0  0  0
  -31.0597  -17.6376   20.7022 C   0  0  0  0  0  0  0  0  0  0  0  0
  -32.9948  -20.1248   22.4591 C   0  0  0  0  0  0  0  0  0  0  0  0
  -24.4744  -28.7627   23.0251 C   0  0  0  0  0  0  0  0  0  0  0  0
  -30.0012  -11.4358   19.4677 C   0  0  0  0  0  0  0  0  0  0  0  0
  -28.0861  -18.4543   18.6764 C   0  0  0  0  0  0  0  0  0  0  0  0
  -28.9378  -18.7503   21.4927 C   0  0  0  0  0  0  0  0  0  0  0  0
  -30.1522  -12.5768   20.4704 C   0  0  0  0  0  0  0  0  0  0  0  0
  -24.1855  -28.2713   19.5106 C   0  0  0  0  0  0  0  0  0  0  0  0
  -28.7888  -13.1659   20.8180 C   0  0  0  0  0  0  0  0  0  0  0  0
  -25.4816  -27.5513   19.1342 C   0  0  0  0  0  0  0  0  0  0  0  0
  -23.8290  -26.6650   27.3094 C   0  0  0  0  0  0  0  0  0  0  0  0
  -25.0302  -28.8193   27.8331 C   0  0  0  0  0  0  0  0  0  0  0  0
  -24.4138  -29.3071   20.6092 C   0  0  0  0  0  0  0  0  0  0  0  0
  -26.3753  -28.0698   21.4431 C   0  0  0  0  0  0  0  0  0  0  0  0
  -28.1094  -13.7550   19.5759 C   0  0  1  0  0  0  0  0  0  0  0  0
  -29.0063  -17.4397   19.3479 C   0  0  1  0  0  0  0  0  0  0  0  0
  -24.7554  -27.3823   28.2958 C   0  0  1  0  0  0  0  0  0  0  0  0
  -24.3794  -26.6837   25.8748 C   0  0  2  0  0  0  0  0  0  0  0  0
  -26.1852  -26.9762   20.3781 C   0  0  2  0  0  0  0  0  0  0  0  0
  -24.6720  -28.1326   25.4174 C   0  0  1  0  0  0  0  0  0  0  0  0
  -25.6046  -28.9088   26.3968 C   0  0  0  0  0  0  0  0  0  0  0  0
  -21.7695  -21.7748   27.1053 C   0  0  0  0  0  0  0  0  0  0  0  0
  -23.6533  -20.2109   25.5300 C   0  0  0  0  0  0  0  0  0  0  0  0
  -25.2843  -24.4205   23.3573 C   0  0  0  0  0  0  0  0  0  0  0  0
  -24.1471  -27.3797   29.6989 C   0  0  0  0  0  0  0  0  0  0  0  0
  -27.0517  -28.3687   26.3815 C   0  0  0  0  0  0  0  0  0  0  0  0
  -25.6585  -30.4008   25.9990 C   0  0  0  0  0  0  0  0  0  0  0  0
  -21.9639  -26.4867   25.1812 C   0  0  0  0  0  0  0  0  0  0  0  0
  -35.4678  -20.5501   22.4836 C   0  0  0  0  0  0  0  0  0  0  0  0
  -31.0485  -15.8576   23.1803 C   0  0  0  0  0  0  0  0  0  0  0  0
  -32.7669  -17.3723   24.1907 C   0  0  0  0  0  0  0  0  0  0  0  0
  -33.2864  -16.1216   22.0957 C   0  0  0  0  0  0  0  0  0  0  0  0
  -32.6345  -22.9483   21.6486 C   0  0  0  0  0  0  0  0  0  0  0  0
  -25.4085  -21.5450   23.6559 C   0  0  0  0  0  0  0  0  0  1  0  0
  -23.3863  -25.9768   24.9438 C   0  0  2  0  0  0  0  0  0  0  0  0
  -31.6784  -18.0707   22.0093 C   0  0  1  0  0  0  0  0  0  0  0  0
  -34.1281  -20.9612   21.8930 C   0  0  2  0  0  0  0  0  0  0  0  0
  -32.1700  -16.8659   22.8602 C   0  0  0  0  0  0  0  0  0  0  0  0
  -28.6304  -27.0136   20.0586 N   0  0  0  0  0  0  0  0  0  0  0  0
  -27.4938  -26.2977   20.0175 N   0  0  0  0  0  0  0  0  0  0  0  0
  -29.7204  -17.9985   20.4977 N   0  0  0  0  0  0  0  0  0  0  0  0
  -25.0829  -28.6971   21.7608 N   0  0  0  0  0  0  0  0  0  0  0  0
  -26.6364  -24.1401   19.5480 N   0  0  0  0  0  0  0  0  0  0  0  0
  -31.0705  -23.6794   18.8246 N   0  0  0  0  0  0  0  0  0  0  0  0
  -28.6825  -15.0432   19.2494 N   0  0  0  0  0  0  0  0  0  0  0  0
  -32.7251  -19.0280   21.6682 N   0  0  0  0  0  0  0  0  0  0  0  0
  -25.1724  -28.1540   24.0610 N   0  0  0  0  0  0  0  0  0  0  0  0
  -33.9059  -22.4043   22.1915 N   0  3  0  0  0  0  0  0  0  0  0  0
  -29.0539  -22.5884   18.7832 O   0  0  0  0  0  0  0  0  0  0  0  0
  -27.3964  -16.3482   20.6866 O   0  0  0  0  0  0  0  0  0  0  0  0
  -31.7418  -17.0087   19.8893 O   0  0  0  0  0  0  0  0  0  0  0  0
  -32.4100  -20.4133   23.5009 O   0  0  0  0  0  0  0  0  0  0  0  0
  -23.3869  -29.3178   23.2156 O   0  0  0  0  0  0  0  0  0  0  0  0
  -34.9298  -27.6575   19.3864 O   0  0  0  0  0  0  0  0  0  0  0  0
  -24.9321  -21.4504   22.3208 O   0  0  0  0  0  0  0  0  0  1  0  0
  -36.9778  -30.6646   23.5297 F   0  0  0  0  0  0  0  0  0  0  0  0
  -37.0587  -26.7362   20.8903 F   0  0  0  0  0  0  0  0  0  0  0  0
  1  2  1  0  0  0  0
  1  5  2  0  0  0  0
  2  6  2  0  0  0  0
  3  8  2  0  0  0  0
  3 16  1  0  0  0  0
  4  9  1  0  0  0  0
  4 16  2  0  0  0  0
  5 18  1  0  0  0  0
  6 20  1  0  0  0  0
  7 10  2  0  0  0  0
  7 19  1  0  0  0  0
  8 27  1  0  0  0  0
  9 27  2  0  0  0  0
 10 28  1  0  0  0  0
 11 12  2  0  0  0  0
 11 29  1  0  0  0  0
 12 30  1  0  0  0  0
 13 21  1  0  0  0  0
 13 28  2  0  0  0  0
 14 22  1  0  0  0  0
 14 23  2  0  0  0  0
 15 30  2  0  0  0  0
 15 31  1  0  0  0  0
 16 32  1  0  0  0  0
 17 32  1  0  0  0  0
 17 33  2  0  0  0  0
 17 34  1  0  0  0  0
 18 20  2  0  0  0  0
 18 39  1  0  0  0  0
 19 21  2  0  0  0  0
 19 40  1  0  0  0  0
 20 50  1  0  0  0  0
 21 41  1  0  0  0  0
 22 24  2  0  0  0  0
 22 57  1  0  0  0  0
 23 25  1  0  0  0  0
 23 70  1  0  0  0  0
 24 26  1  0  0  0  0
 24 58  1  0  0  0  0
 25 26  2  0  0  0  0
 25 59  1  0  0  0  0
 26 69  1  0  0  0  0
 27 89  1  0  0  0  0
 28 90  1  0  0  0  0
 29 31  2  0  0  0  0
 29 89  1  0  0  0  0
 30 91  1  0  0  0  0
 31 92  1  0  0  0  0
 32 74  2  0  0  0  0
 33 75  1  0  0  0  0
 33 78  1  0  0  0  0
 34 79  1  0  0  0  0
 34 84  2  0  0  0  0
 35 51  1  0  0  0  0
 35 80  1  0  0  0  0
 35 85  2  0  0  0  0
 36 71  1  0  0  0  0
 36 76  1  0  0  0  0
 36 86  2  0  0  0  0
 37 72  1  0  0  0  0
 37 81  1  0  0  0  0
 37 87  2  0  0  0  0
 38 77  1  0  0  0  0
 38 82  1  0  0  0  0
 38 88  2  0  0  0  0
 39 42  1  0  0  0  0
 40 51  1  0  0  0  0
 41 76  1  0  0  0  0
 42 44  1  0  0  0  0
 43 45  1  0  0  0  0
 43 48  1  0  0  0  0
 44 50  1  0  0  0  0
 45 54  1  0  0  0  0
 46 52  1  0  0  0  0
 46 53  1  0  0  0  0
 47 52  1  0  0  0  0
 47 56  1  0  0  0  0
 48 77  1  0  0  0  0
 49 54  1  0  0  0  0
 49 77  1  0  0  0  0
 50 80  1  0  0  0  0
 51 76  1  0  0  0  0
 52 60  1  0  0  0  0
 53 55  1  0  0  0  0
 53 70  1  0  0  0  0
 54 75  1  0  0  0  0
 55 56  1  0  0  0  0
 55 82  1  0  0  0  0
 56 61  1  0  0  0  0
 56 62  1  0  0  0  0
 63 70  1  0  0  0  0
 64 72  1  0  0  0  0
 65 73  1  0  0  0  0
 66 73  1  0  0  0  0
 67 73  1  0  0  0  0
 68 83  1  0  0  0  0
 69 90  1  0  0  0  0
 71 73  1  0  0  0  0
 71 81  1  0  0  0  0
 72 83  1  0  0  0  0
 74 75  1  0  0  0  0
M  CHG  1  83   1
M  ISO  4  38 100  69 101  82 100  90 101
M  END
> <Batch ID>
0172

> <Smiles>
CNC(C)C(=O)NC(C(=O)N1Cc2cc([101O:1][101CH2:1]c3c(C)c(C)cc(C(C)C4CC(C)CC(C)(C)C4[100NH:0][100C:0](=O)N4CCCC(n5nc(-c6ccc(Oc7ccc(F)cc7F)cc6)c(C(N)=O)c5N)C4)c3C)ccc2CC1C(=O)NC1CCCc2ccccc21)C(C)(C)C

> <Shape>
0.190

> <Color>
0.077

> <Negative vol penalty>
0.000

$$$$

  -OEChem-04052322403D

 85 95  0     1  0  0  0  0  0999 V2000
  -26.9985  -19.2879   25.8281 C   0  0  0  0  0  0  0  0  0  0  0  0
  -27.2997  -20.1296   24.7621 C   0  0  0  0  0  0  0  0  0  0  0  0
  -24.7683  -13.6425   21.7696 C   0  0  0  0  0  0  0  0  0  0  0  0
  -26.2089  -13.2988   19.8608 C   0  0  0  0  0  0  0  0  0  0  0  0
  -25.6795  -19.1576   26.2607 C   0  0  0  0  0  0  0  0  0  0  0  0
  -26.2818  -20.8405   24.1273 C   0  0  0  0  0  0  0  0  0  0  0  0
  -27.5297  -25.6733   23.2715 C   0  0  0  0  0  0  0  0  0  0  0  0
  -31.0451  -22.9264   18.5893 C   0  0  0  0  0  0  0  0  0  0  0  0
  -24.3119  -12.3289   21.6617 C   0  0  0  0  0  0  0  0  0  0  0  0
  -25.7526  -11.9851   19.7530 C   0  0  0  0  0  0  0  0  0  0  0  0
  -28.3733  -25.9314   22.1920 C   0  0  0  0  0  0  0  0  0  0  0  0
  -22.1205  -10.6025   19.7534 C   0  0  0  0  0  0  0  0  0  0  0  0
  -20.7472  -10.3834   19.8613 C   0  0  0  0  0  0  0  0  0  0  0  0
  -30.6803  -24.2676   18.5507 C   0  0  0  0  0  0  0  0  0  0  0  0
  -26.4658  -26.5747   20.8628 C   0  0  0  0  0  0  0  0  0  0  0  0
  -21.1251   -8.9572   21.7745 C   0  0  0  0  0  0  0  0  0  0  0  0
  -25.7167  -14.1275   20.8691 C   0  0  0  0  0  0  0  0  0  0  0  0
  -27.2888  -15.9439   21.7274 C   0  0  0  0  0  0  0  0  0  0  0  0
  -24.6462  -19.8747   25.6372 C   0  0  0  0  0  0  0  0  0  0  0  0
  -26.1443  -25.8537   23.1512 C   0  0  0  0  0  0  0  0  0  0  0  0
  -24.9476  -20.7186   24.5512 C   0  0  0  0  0  0  0  0  0  0  0  0
  -30.3442  -21.9988   17.8267 C   0  0  0  0  0  0  0  0  0  0  0  0
  -25.6070  -26.3205   21.9431 C   0  0  0  0  0  0  0  0  0  0  0  0
  -24.8041  -11.5001   20.6535 C   0  0  0  0  0  0  0  0  0  0  0  0
  -27.8412  -26.3794   20.9865 C   0  0  0  0  0  0  0  0  0  0  0  0
  -22.9961   -9.9990   20.6560 C   0  0  0  0  0  0  0  0  0  0  0  0
  -20.2495   -9.5608   20.8719 C   0  0  0  0  0  0  0  0  0  0  0  0
  -22.4984   -9.1764   21.6666 C   0  0  0  0  0  0  0  0  0  0  0  0
  -26.1881  -15.4846   20.9796 C   0  0  0  0  0  0  0  0  0  0  0  0
  -29.6158  -24.6271   17.7400 C   0  0  0  0  0  0  0  0  0  0  0  0
  -29.2946  -22.4599   17.0485 C   0  0  0  0  0  0  0  0  0  0  0  0
  -27.3154  -17.2986   21.5025 C   0  0  0  0  0  0  0  0  0  0  0  0
  -28.2053  -15.2115   22.5516 C   0  0  0  0  0  0  0  0  0  0  0  0
  -23.6076  -23.9498   23.3609 C   0  0  0  0  0  0  0  0  0  0  0  0
  -21.9768  -26.7390   23.0722 C   0  0  0  0  0  0  0  0  0  0  0  0
  -21.9442  -29.9783   21.9986 C   0  0  0  0  0  0  0  0  0  0  0  0
  -26.3062  -21.1525   17.3021 C   0  0  0  0  0  0  0  0  0  0  0  0
  -23.2294  -19.6650   26.1096 C   0  0  0  0  0  0  0  0  0  0  0  0
  -25.2505  -25.5964   24.3333 C   0  0  0  0  0  0  0  0  0  0  0  0
  -24.1286  -26.5498   21.7687 C   0  0  0  0  0  0  0  0  0  0  0  0
  -22.2603  -20.7402   25.6248 C   0  0  0  0  0  0  0  0  0  0  0  0
  -24.0098  -20.6425   19.9748 C   0  0  0  0  0  0  0  0  0  0  0  0
  -32.1449  -20.1891   18.2218 C   0  0  0  0  0  0  0  0  0  0  0  0
  -31.6681  -20.0247   16.8126 C   0  0  0  0  0  0  0  0  0  0  0  0
  -22.4595  -21.0065   24.1361 C   0  0  0  0  0  0  0  0  0  0  0  0
  -24.4397  -19.3031   20.5759 C   0  0  0  0  0  0  0  0  0  0  0  0
  -29.2583  -26.7594   16.3372 C   0  0  0  0  0  0  0  0  0  0  0  0
  -30.2785  -27.0915   17.3807 C   0  0  0  0  0  0  0  0  0  0  0  0
  -24.1710  -20.6573   18.4563 C   0  0  0  0  0  0  0  0  0  0  0  0
  -25.9448  -18.9504   18.5736 C   0  0  0  0  0  0  0  0  0  0  0  0
  -30.7292  -20.5602   17.8628 C   0  0  0  0  0  0  0  0  0  0  0  0
  -23.8744  -21.5254   23.8530 C   0  0  1  0  0  0  0  0  0  0  0  0
  -23.8023  -25.3229   23.9391 C   0  0  1  0  0  0  0  0  0  0  0  0
  -25.8531  -18.9067   20.1085 C   0  0  2  0  0  0  0  0  0  0  0  0
  -29.2075  -26.0589   17.6831 C   0  0  0  0  0  0  0  0  0  0  0  0
  -20.4570  -31.9953   21.8677 C   0  0  0  0  0  0  0  0  0  0  0  0
  -20.4597  -25.4667   20.7506 C   0  0  0  0  0  0  0  0  0  0  0  0
  -19.7116  -27.7584   20.0748 C   0  0  0  0  0  0  0  0  0  0  0  0
  -19.0468  -26.8354   22.2949 C   0  0  0  0  0  0  0  0  0  0  0  0
  -23.7810  -31.5851   23.6729 C   0  0  0  0  0  0  0  0  0  0  0  0
  -28.5050  -21.5099   16.2083 C   0  0  0  0  0  0  0  0  0  0  0  0
  -28.1186  -26.4419   18.6253 C   0  0  0  0  0  0  0  0  0  1  0  0
  -21.4422  -27.5502   21.9167 C   0  0  1  0  0  0  0  0  0  0  0  0
  -21.5106  -31.2620   22.6831 C   0  0  2  0  0  0  0  0  0  0  0  0
  -20.1928  -26.8966   21.2616 C   0  0  0  0  0  0  0  0  0  0  0  0
  -25.5607  -16.4677   20.3285 N   0  0  0  0  0  0  0  0  0  0  0  0
  -28.9110  -23.7547   16.9851 N   0  0  0  0  0  0  0  0  0  0  0  0
  -26.2695  -17.5583   20.6665 N   0  0  0  0  0  0  0  0  0  0  0  0
  -23.2954  -26.2779   22.9516 N   0  0  0  0  0  0  0  0  0  0  0  0
  -25.5337  -20.2739   18.0795 N   0  0  0  0  0  0  0  0  0  0  0  0
  -28.1311  -18.2811   21.9404 N   0  0  0  0  0  0  0  0  0  0  0  0
  -28.0341  -13.8258   22.6728 N   0  0  0  0  0  0  0  0  0  0  0  0
  -23.9803  -22.9243   24.2087 N   0  0  0  0  0  0  0  0  0  0  0  0
  -21.2113  -28.8946   22.4341 N   0  0  0  0  0  0  0  0  0  0  0  0
  -27.5886  -20.7147   16.9948 N   0  0  0  0  0  0  0  0  0  0  0  0
  -22.6777  -32.1701   22.8682 N   0  3  0  0  0  0  0  0  0  0  0  0
  -29.1383  -15.7718   23.1755 O   0  0  0  0  0  0  0  0  0  0  0  0
  -23.1515  -23.8296   22.2299 O   0  0  0  0  0  0  0  0  0  0  0  0
  -21.2535  -26.5284   24.0490 O   0  0  0  0  0  0  0  0  0  0  0  0
  -22.8407  -29.9412   21.1587 O   0  0  0  0  0  0  0  0  0  0  0  0
  -25.8861  -22.2484   16.9153 O   0  0  0  0  0  0  0  0  0  0  0  0
  -24.3592  -10.2181   20.5481 O   0  0  0  0  0  0  0  0  0  0  0  0
  -28.6623  -26.6316   19.9310 O   0  0  0  0  0  0  0  0  0  1  0  0
  -18.9306   -9.3517   20.9763 F   0  0  0  0  0  0  0  0  0  0  0  0
  -23.3346   -8.5947   22.5374 F   0  0  0  0  0  0  0  0  0  0  0  0
  1  2  1  0  0  0  0
  1  5  2  0  0  0  0
  2  6  2  0  0  0  0
  3  9  2  0  0  0  0
  3 17  1  0  0  0  0
  4 10  1  0  0  0  0
  4 17  2  0  0  0  0
  5 19  1  0  0  0  0
  6 21  1  0  0  0  0
  7 11  2  0  0  0  0
  7 20  1  0  0  0  0
  8 14  2  0  0  0  0
  8 22  1  0  0  0  0
  9 24  1  0  0  0  0
 10 24  2  0  0  0  0
 11 25  1  0  0  0  0
 12 13  2  0  0  0  0
 12 26  1  0  0  0  0
 13 27  1  0  0  0  0
 14 30  1  0  0  0  0
 15 23  1  0  0  0  0
 15 25  2  0  0  0  0
 16 27  2  0  0  0  0
 16 28  1  0  0  0  0
 17 29  1  0  0  0  0
 18 29  1  0  0  0  0
 18 32  2  0  0  0  0
 18 33  1  0  0  0  0
 19 21  2  0  0  0  0
 19 38  1  0  0  0  0
 20 23  2  0  0  0  0
 20 39  1  0  0  0  0
 21 52  1  0  0  0  0
 22 31  2  0  0  0  0
 22 51  1  0  0  0  0
 23 40  1  0  0  0  0
 24 82  1  0  0  0  0
 25 83  1  0  0  0  0
 26 28  2  0  0  0  0
 26 82  1  0  0  0  0
 27 84  1  0  0  0  0
 28 85  1  0  0  0  0
 29 66  2  0  0  0  0
 30 55  1  0  0  0  0
 30 67  2  0  0  0  0
 31 61  1  0  0  0  0
 31 67  1  0  0  0  0
 32 68  1  0  0  0  0
 32 71  1  0  0  0  0
 33 72  1  0  0  0  0
 33 77  2  0  0  0  0
 34 53  1  0  0  0  0
 34 73  1  0  0  0  0
 34 78  2  0  0  0  0
 35 63  1  0  0  0  0
 35 69  1  0  0  0  0
 35 79  2  0  0  0  0
 36 64  1  0  0  0  0
 36 74  1  0  0  0  0
 36 80  2  0  0  0  0
 37 70  1  0  0  0  0
 37 75  1  0  0  0  0
 37 81  2  0  0  0  0
 38 41  1  0  0  0  0
 39 53  1  0  0  0  0
 40 69  1  0  0  0  0
 41 45  1  0  0  0  0
 42 46  1  0  0  0  0
 42 49  1  0  0  0  0
 43 44  1  0  0  0  0
 43 51  1  0  0  0  0
 44 51  1  0  0  0  0
 45 52  1  0  0  0  0
 46 54  1  0  0  0  0
 47 48  1  0  0  0  0
 47 55  1  0  0  0  0
 48 55  1  0  0  0  0
 49 70  1  0  0  0  0
 50 54  1  0  0  0  0
 50 70  1  0  0  0  0
 52 73  1  0  0  0  0
 53 69  1  0  0  0  0
 54 68  1  0  0  0  0
 55 62  1  0  0  0  0
 56 64  1  0  0  0  0
 57 65  1  0  0  0  0
 58 65  1  0  0  0  0
 59 65  1  0  0  0  0
 60 76  1  0  0  0  0
 61 75  1  0  0  0  0
 62 83  1  0  0  0  0
 63 65  1  0  0  0  0
 63 74  1  0  0  0  0
 64 76  1  0  0  0  0
 66 68  1  0  0  0  0
M  CHG  1  76   1
M  ISO  4  37 100  62 101  75 100  83 101
M  END
> <Batch ID>
0172

> <Smiles>
CNC(C)C(=O)NC(C(=O)N1Cc2cc([101O:1][101CH2:1]C3(c4ccc(C5CC5)c(C[100NH:0][100C:0](=O)N5CCCC(n6nc(-c7ccc(Oc8ccc(F)cc8F)cc7)c(C(N)=O)c6N)C5)n4)CC3)ccc2CC1C(=O)NC1CCCc2ccccc21)C(C)(C)C

> <Shape>
0.187

> <Color>
0.056

> <Negative vol penalty>
0.000

$$$$

  -OEChem-04052322403D

 86 96  0     1  0  0  0  0  0999 V2000
  -26.6374  -36.9578   24.9014 C   0  0  0  0  0  0  0  0  0  0  0  0
  -27.3660  -36.1200   24.0631 C   0  0  0  0  0  0  0  0  0  0  0  0
  -24.7009   -9.1418   21.8850 C   0  0  0  0  0  0  0  0  0  0  0  0
  -23.0524  -10.4978   20.7534 C   0  0  0  0  0  0  0  0  0  0  0  0
  -25.6502  -36.4259   25.7299 C   0  0  0  0  0  0  0  0  0  0  0  0
  -27.1084  -34.7496   24.0537 C   0  0  0  0  0  0  0  0  0  0  0  0
  -27.0957  -29.1016   19.6472 C   0  0  0  0  0  0  0  0  0  0  0  0
  -23.6853   -8.4930   22.5872 C   0  0  0  0  0  0  0  0  0  0  0  0
  -22.0367   -9.8489   21.4555 C   0  0  0  0  0  0  0  0  0  0  0  0
  -27.6045  -27.8070   19.5542 C   0  0  0  0  0  0  0  0  0  0  0  0
  -21.4208   -6.0509   22.0032 C   0  0  0  0  0  0  0  0  0  0  0  0
  -21.4871   -4.6612   22.1027 C   0  0  0  0  0  0  0  0  0  0  0  0
  -25.8212  -27.0109   20.9702 C   0  0  0  0  0  0  0  0  0  0  0  0
  -21.5686   -4.8374   24.5109 C   0  0  0  0  0  0  0  0  0  0  0  0
  -29.0628  -21.8890   18.1568 C   0  0  0  0  0  0  0  0  0  0  0  0
  -24.3845  -10.1443   20.9682 C   0  0  0  0  0  0  0  0  0  0  0  0
  -25.9799  -10.4432   19.0002 C   0  0  0  0  0  0  0  0  0  0  0  0
  -25.3738  -35.0496   25.7236 C   0  0  0  0  0  0  0  0  0  0  0  0
  -25.9502  -29.3629   20.4126 C   0  0  0  0  0  0  0  0  0  0  0  0
  -26.1175  -34.1986   24.8839 C   0  0  0  0  0  0  0  0  0  0  0  0
  -25.2984  -28.3093   21.0693 C   0  0  0  0  0  0  0  0  0  0  0  0
  -29.6561  -21.2165   19.2130 C   0  0  0  0  0  0  0  0  0  0  0  0
  -29.9265  -21.9349   20.3723 C   0  0  0  0  0  0  0  0  0  0  0  0
  -29.6002  -23.2848   20.4390 C   0  0  0  0  0  0  0  0  0  0  0  0
  -22.3532   -8.8465   22.3724 C   0  0  0  0  0  0  0  0  0  0  0  0
  -26.9690  -26.7618   20.2181 C   0  0  0  0  0  0  0  0  0  0  0  0
  -21.4285   -6.8339   23.1576 C   0  0  0  0  0  0  0  0  0  0  0  0
  -21.5610   -4.0544   23.3565 C   0  0  0  0  0  0  0  0  0  0  0  0
  -21.5024   -6.2271   24.4114 C   0  0  0  0  0  0  0  0  0  0  0  0
  -25.4333  -10.8153   20.2429 C   0  0  0  0  0  0  0  0  0  0  0  0
  -29.0097  -23.8648   19.3279 C   0  0  0  0  0  0  0  0  0  0  0  0
  -26.9363  -11.3958   18.7467 C   0  0  0  0  0  0  0  0  0  0  0  0
  -25.6525   -9.3354   18.1509 C   0  0  0  0  0  0  0  0  0  0  0  0
  -25.3197  -31.1388   22.9723 C   0  0  0  0  0  0  0  0  0  0  0  0
  -22.2623  -30.2473   22.3557 C   0  0  0  0  0  0  0  0  0  0  0  0
  -20.1333  -27.9930   20.9302 C   0  0  0  0  0  0  0  0  0  0  0  0
  -28.3813  -16.6857   18.5207 C   0  0  0  0  0  0  0  0  0  0  0  0
  -24.3297  -34.5145   26.6713 C   0  0  0  0  0  0  0  0  0  0  0  0
  -25.3985  -30.7606   20.4810 C   0  0  0  0  0  0  0  0  0  0  0  0
  -24.0539  -28.5336   21.8873 C   0  0  0  0  0  0  0  0  0  0  0  0
  -23.8617  -33.1027   26.3278 C   0  0  0  0  0  0  0  0  0  0  0  0
  -28.9289  -14.9547   21.7000 C   0  0  0  0  0  0  0  0  0  0  0  0
  -31.8396  -21.8207   22.1047 C   0  0  0  0  0  0  0  0  0  0  0  0
  -31.8721  -20.5352   21.3387 C   0  0  0  0  0  0  0  0  0  0  0  0
  -25.0565  -32.2004   26.0360 C   0  0  0  0  0  0  0  0  0  0  0  0
  -28.0526  -13.7198   21.5183 C   0  0  0  0  0  0  0  0  0  0  0  0
  -28.3450  -16.1896   21.0131 C   0  0  0  0  0  0  0  0  0  0  0  0
  -29.2365  -18.6586   19.9549 C   0  0  0  0  0  0  0  0  0  0  0  0
  -27.1460  -14.7309   19.3974 C   0  0  0  0  0  0  0  0  0  0  0  0
  -30.0060  -19.6729   19.0784 C   0  0  1  0  0  0  0  0  0  0  0  0
  -30.5656  -21.2540   21.5393 C   0  0  0  0  0  0  0  0  0  0  0  0
  -25.8504  -32.7101   24.8271 C   0  0  1  0  0  0  0  0  0  0  0  0
  -24.5219  -30.9976   21.7069 C   0  0  1  0  0  0  0  0  0  0  0  0
  -27.7676  -13.4774   20.0286 C   0  0  2  0  0  0  0  0  0  0  0  0
  -29.4827  -18.8859   17.8484 C   0  0  1  0  0  0  0  0  0  0  0  0
  -29.8772  -24.0842   21.6683 C   0  0  0  0  0  0  0  0  0  0  0  0
  -30.5195  -18.4772   16.8216 C   0  0  0  0  0  0  0  0  0  0  0  0
  -17.6894  -27.5121   20.6246 C   0  0  0  0  0  0  0  0  0  0  0  0
  -22.0939  -29.2801   25.2447 C   0  0  0  0  0  0  0  0  0  0  0  0
  -20.0439  -27.9864   24.6187 C   0  0  0  0  0  0  0  0  0  0  0  0
  -20.0552  -30.4732   24.4234 C   0  0  0  0  0  0  0  0  0  0  0  0
  -20.3485  -28.1679   17.9836 C   0  0  0  0  0  0  0  0  0  0  0  0
  -28.6368  -25.3114   19.3402 C   0  0  0  0  0  0  0  0  0  1  0  0
  -21.3807  -29.0941   22.7703 C   0  0  1  0  0  0  0  0  0  0  0  0
  -18.9221  -28.1786   20.0340 C   0  0  2  0  0  0  0  0  0  0  0  0
  -20.9180  -29.2042   24.2505 C   0  0  0  0  0  0  0  0  0  0  0  0
  -28.7315  -23.1994   18.1845 N   0  0  0  0  0  0  0  0  0  0  0  0
  -25.9957  -11.9183   20.7441 N   0  0  0  0  0  0  0  0  0  0  0  0
  -26.9058  -12.2473   19.8117 N   0  0  0  0  0  0  0  0  0  0  0  0
  -23.5568  -29.9188   21.9287 N   0  0  0  0  0  0  0  0  0  0  0  0
  -27.9747  -15.9200   19.6196 N   0  0  0  0  0  0  0  0  0  0  0  0
  -29.1665  -17.7959   18.7781 N   0  0  0  0  0  0  0  0  0  0  0  0
  -27.7921  -11.5798   17.7189 N   0  0  0  0  0  0  0  0  0  0  0  0
  -24.6448   -8.4527   18.5628 N   0  0  0  0  0  0  0  0  0  0  0  0
  -25.1739  -32.3635   23.5956 N   0  0  0  0  0  0  0  0  0  0  0  0
  -20.2881  -29.0478   21.8045 N   0  0  0  0  0  0  0  0  0  0  0  0
  -19.1771  -27.5881   18.6897 N   0  3  0  0  0  0  0  0  0  0  0  0
  -26.2475   -9.1250   17.0668 O   0  0  0  0  0  0  0  0  0  0  0  0
  -26.0147  -30.2052   23.3558 O   0  0  0  0  0  0  0  0  0  0  0  0
  -21.8164  -31.3965   22.4020 O   0  0  0  0  0  0  0  0  0  0  0  0
  -20.8664  -27.0087   20.8639 O   0  0  0  0  0  0  0  0  0  0  0  0
  -28.0381  -16.4116   17.3642 O   0  0  0  0  0  0  0  0  0  0  0  0
  -21.3618   -8.2134   23.0572 O   0  0  0  0  0  0  0  0  0  0  0  0
  -27.4675  -25.4882   20.1289 O   0  0  0  0  0  0  0  0  0  1  0  0
  -21.6231   -2.7198   23.4519 F   0  0  0  0  0  0  0  0  0  0  0  0
  -21.5089   -6.9741   25.5240 F   0  0  0  0  0  0  0  0  0  0  0  0
  1  2  1  0  0  0  0
  1  5  2  0  0  0  0
  2  6  2  0  0  0  0
  3  8  2  0  0  0  0
  3 16  1  0  0  0  0
  4  9  1  0  0  0  0
  4 16  2  0  0  0  0
  5 18  1  0  0  0  0
  6 20  1  0  0  0  0
  7 10  2  0  0  0  0
  7 19  1  0  0  0  0
  8 25  1  0  0  0  0
  9 25  2  0  0  0  0
 10 26  1  0  0  0  0
 11 12  2  0  0  0  0
 11 27  1  0  0  0  0
 12 28  1  0  0  0  0
 13 21  1  0  0  0  0
 13 26  2  0  0  0  0
 14 28  2  0  0  0  0
 14 29  1  0  0  0  0
 15 22  1  0  0  0  0
 15 67  2  0  0  0  0
 16 30  1  0  0  0  0
 17 30  1  0  0  0  0
 17 32  2  0  0  0  0
 17 33  1  0  0  0  0
 18 20  2  0  0  0  0
 18 38  1  0  0  0  0
 19 21  2  0  0  0  0
 19 39  1  0  0  0  0
 20 52  1  0  0  0  0
 21 40  1  0  0  0  0
 22 23  2  0  0  0  0
 22 50  1  0  0  0  0
 23 24  1  0  0  0  0
 23 51  1  0  0  0  0
 24 31  2  0  0  0  0
 24 56  1  0  0  0  0
 25 83  1  0  0  0  0
 26 84  1  0  0  0  0
 27 29  2  0  0  0  0
 27 83  1  0  0  0  0
 28 85  1  0  0  0  0
 29 86  1  0  0  0  0
 30 68  2  0  0  0  0
 31 63  1  0  0  0  0
 31 67  1  0  0  0  0
 32 69  1  0  0  0  0
 32 73  1  0  0  0  0
 33 74  1  0  0  0  0
 33 78  2  0  0  0  0
 34 53  1  0  0  0  0
 34 75  1  0  0  0  0
 34 79  2  0  0  0  0
 35 64  1  0  0  0  0
 35 70  1  0  0  0  0
 35 80  2  0  0  0  0
 36 65  1  0  0  0  0
 36 76  1  0  0  0  0
 36 81  2  0  0  0  0
 37 71  1  0  0  0  0
 37 72  1  0  0  0  0
 37 82  2  0  0  0  0
 38 41  1  0  0  0  0
 39 53  1  0  0  0  0
 40 70  1  0  0  0  0
 41 45  1  0  0  0  0
 42 46  1  0  0  0  0
 42 47  1  0  0  0  0
 43 44  1  0  0  0  0
 43 51  1  0  0  0  0
 44 51  1  0  0  0  0
 45 52  1  0  0  0  0
 46 54  1  0  0  0  0
 47 71  1  0  0  0  0
 48 50  1  0  0  0  0
 48 72  1  0  0  0  0
 49 54  1  0  0  0  0
 49 71  1  0  0  0  0
 50 55  1  0  0  0  0
 52 75  1  0  0  0  0
 53 70  1  0  0  0  0
 54 69  1  0  0  0  0
 55 57  1  0  0  0  0
 55 72  1  0  0  0  0
 58 65  1  0  0  0  0
 59 66  1  0  0  0  0
 60 66  1  0  0  0  0
 61 66  1  0  0  0  0
 62 77  1  0  0  0  0
 63 84  1  0  0  0  0
 64 66  1  0  0  0  0
 64 76  1  0  0  0  0
 65 77  1  0  0  0  0
 68 69  1  0  0  0  0
M  CHG  1  77   1
M  ISO  4  37 100  63 101  72 100  84 101
M  END
> <Batch ID>
0172

> <Smiles>
CNC(C)C(=O)NC(C(=O)N1Cc2cc([101O:1][101CH2:1]c3ncc(C4C[100N:0]([100C:0](=O)N5CCCC(n6nc(-c7ccc(Oc8ccc(F)cc8F)cc7)c(C(N)=O)c6N)C5)C4C)c(C4CC4)c3C)ccc2CC1C(=O)NC1CCCc2ccccc21)C(C)(C)C

> <Shape>
0.365

> <Color>
0.099

> <Negative vol penalty>
0.000

$$$$

  -OEChem-04052322403D

 87 97  0     1  0  0  0  0  0999 V2000
  -28.7660  -32.3283   26.1709 C   0  0  0  0  0  0  0  0  0  0  0  0
  -28.6815  -31.0282   25.6831 C   0  0  0  0  0  0  0  0  0  0  0  0
  -22.7165  -11.9362   18.8750 C   0  0  0  0  0  0  0  0  0  0  0  0
  -23.0035  -10.1767   20.5056 C   0  0  0  0  0  0  0  0  0  0  0  0
  -27.6250  -33.1281   26.2217 C   0  0  0  0  0  0  0  0  0  0  0  0
  -27.4557  -30.5266   25.2469 C   0  0  0  0  0  0  0  0  0  0  0  0
  -27.8294  -28.0301   20.8569 C   0  0  0  0  0  0  0  0  0  0  0  0
  -21.6248  -11.2570   18.3342 C   0  0  0  0  0  0  0  0  0  0  0  0
  -21.9118   -9.4974   19.9648 C   0  0  0  0  0  0  0  0  0  0  0  0
  -28.3357  -26.7319   20.9038 C   0  0  0  0  0  0  0  0  0  0  0  0
  -18.5409   -9.6908   20.1065 C   0  0  0  0  0  0  0  0  0  0  0  0
  -17.6043   -9.1617   20.9943 C   0  0  0  0  0  0  0  0  0  0  0  0
  -26.0903  -25.8583   20.7844 C   0  0  0  0  0  0  0  0  0  0  0  0
  -27.6828  -21.2880   22.1725 C   0  0  0  0  0  0  0  0  0  0  0  0
  -18.0397   -6.9466   20.1335 C   0  0  0  0  0  0  0  0  0  0  0  0
  -23.4059  -11.3961   19.9607 C   0  0  0  0  0  0  0  0  0  0  0  0
  -24.5143  -13.0519   21.5536 C   0  0  0  0  0  0  0  0  0  0  0  0
  -26.3865  -32.6393   25.7769 C   0  0  0  0  0  0  0  0  0  0  0  0
  -26.4468  -28.2526   20.7843 C   0  0  0  0  0  0  0  0  0  0  0  0
  -26.2969  -31.3201   25.2931 C   0  0  0  0  0  0  0  0  0  0  0  0
  -25.5692  -27.1602   20.7341 C   0  0  0  0  0  0  0  0  0  0  0  0
  -27.7165  -22.0046   20.9814 C   0  0  0  0  0  0  0  0  0  0  0  0
  -28.3446  -20.0685   22.2626 C   0  0  0  0  0  0  0  0  0  0  0  0
  -21.2225  -10.0376   18.8791 C   0  0  0  0  0  0  0  0  0  0  0  0
  -27.4660  -25.6458   20.8704 C   0  0  0  0  0  0  0  0  0  0  0  0
  -19.2269   -8.8479   19.2321 C   0  0  0  0  0  0  0  0  0  0  0  0
  -17.3536   -7.7896   21.0079 C   0  0  0  0  0  0  0  0  0  0  0  0
  -18.9763   -7.4758   19.2456 C   0  0  0  0  0  0  0  0  0  0  0  0
  -24.5340  -12.0970   20.5194 C   0  0  0  0  0  0  0  0  0  0  0  0
  -28.4202  -21.4625   19.9181 C   0  0  0  0  0  0  0  0  0  0  0  0
  -29.0200  -19.6129   21.1419 C   0  0  0  0  0  0  0  0  0  0  0  0
  -25.8299  -13.4129   21.7127 C   0  0  0  0  0  0  0  0  0  0  0  0
  -23.4058  -13.5665   22.3034 C   0  0  0  0  0  0  0  0  0  0  0  0
  -24.3048  -29.6860   22.6447 C   0  0  0  0  0  0  0  0  0  0  0  0
  -22.3156  -29.0853   20.1538 C   0  0  0  0  0  0  0  0  0  0  0  0
  -21.6067  -27.1936   17.4032 C   0  0  0  0  0  0  0  0  0  0  0  0
  -30.5755  -14.9829   19.0301 C   0  0  0  0  0  0  0  0  0  0  0  0
  -25.1716  -33.5251   25.8954 C   0  0  0  0  0  0  0  0  0  0  0  0
  -25.9181  -29.6587   20.7075 C   0  0  0  0  0  0  0  0  0  0  0  0
  -24.0777  -27.3451   20.6359 C   0  0  0  0  0  0  0  0  0  0  0  0
  -23.9843  -33.0449   25.0648 C   0  0  0  0  0  0  0  0  0  0  0  0
  -30.0737  -11.4011   19.8559 C   0  0  0  0  0  0  0  0  0  0  0  0
  -23.7684  -31.5473   25.2581 C   0  0  0  0  0  0  0  0  0  0  0  0
  -28.5680  -11.3344   20.1094 C   0  0  0  0  0  0  0  0  0  0  0  0
  -31.0771  -16.0903   22.2929 C   0  0  0  0  0  0  0  0  0  0  0  0
  -31.7481  -17.4594   22.1063 C   0  0  0  0  0  0  0  0  0  0  0  0
  -30.4375  -12.5261   18.8914 C   0  0  0  0  0  0  0  0  0  0  0  0
  -28.4227  -13.7918   19.5526 C   0  0  0  0  0  0  0  0  0  0  0  0
  -28.9496  -17.1549   21.5372 C   0  0  0  0  0  0  0  0  0  0  0  0
  -31.1863  -17.2906   19.6767 C   0  0  0  0  0  0  0  0  0  0  0  0
  -24.9900  -30.7485   24.7876 C   0  0  1  0  0  0  0  0  0  0  0  0
  -24.4637  -29.7753   21.1532 C   0  0  1  0  0  0  0  0  0  0  0  0
  -28.0282  -12.7028   20.5604 C   0  0  1  0  0  0  0  0  0  0  0  0
  -29.8980  -15.9598   21.3093 C   0  0  1  0  0  0  0  0  0  0  0  0
  -31.1092  -18.2017   20.9122 C   0  0  1  0  0  0  0  0  0  0  0  0
  -28.3064  -19.3027   23.5413 C   0  0  0  0  0  0  0  0  0  0  0  0
  -28.4906  -22.1884   18.6146 C   0  0  0  0  0  0  0  0  0  0  0  0
  -19.8922  -26.9160   15.5919 C   0  0  0  0  0  0  0  0  0  0  0  0
  -20.4374  -27.7330   22.1421 C   0  0  0  0  0  0  0  0  0  0  0  0
  -19.2610  -26.6725   20.2032 C   0  0  0  0  0  0  0  0  0  0  0  0
  -19.2963  -29.1563   20.4315 C   0  0  0  0  0  0  0  0  0  0  0  0
  -23.5871  -27.7684   15.2804 C   0  0  0  0  0  0  0  0  0  0  0  0
  -27.0095  -23.3119   20.8787 C   0  0  0  0  0  0  0  0  0  1  0  0
  -21.4104  -27.9432   19.7599 C   0  0  1  0  0  0  0  0  0  0  0  0
  -21.2005  -27.5799   15.9924 C   0  0  2  0  0  0  0  0  0  0  0  0
  -20.1292  -27.8724   20.6380 C   0  0  0  0  0  0  0  0  0  0  0  0
  -25.7646  -11.8660   20.0543 N   0  0  0  0  0  0  0  0  0  0  0  0
  -29.0752  -20.2809   19.9678 N   0  0  0  0  0  0  0  0  0  0  0  0
  -26.5303  -12.6810   20.7995 N   0  0  0  0  0  0  0  0  0  0  0  0
  -29.6815  -18.3963   21.2266 N   0  0  3  0  0  0  0  0  0  0  0  0
  -23.6090  -28.7392   20.5699 N   0  0  0  0  0  0  0  0  0  0  0  0
  -29.8727  -13.8053   19.3209 N   0  0  0  0  0  0  0  0  0  0  0  0
  -30.4478  -16.0459   19.9330 N   0  0  0  0  0  0  0  0  0  0  0  0
  -26.4443  -14.2819   22.5433 N   0  0  0  0  0  0  0  0  0  0  0  0
  -22.1215  -13.0874   22.0113 N   0  0  0  0  0  0  0  0  0  0  0  0
  -25.0045  -30.6509   23.3438 N   0  0  0  0  0  0  0  0  0  0  0  0
  -21.1491  -28.1027   18.3335 N   0  0  0  0  0  0  0  0  0  0  0  0
  -22.2526  -27.1700   15.0198 N   0  3  0  0  0  0  0  0  0  0  0  0
  -23.5480  -14.4379   23.1944 O   0  0  0  0  0  0  0  0  0  0  0  0
  -23.5984  -28.8077   23.1255 O   0  0  0  0  0  0  0  0  0  0  0  0
  -21.8931  -30.2423   20.0876 O   0  0  0  0  0  0  0  0  0  0  0  0
  -22.2611  -26.1842   17.6551 O   0  0  0  0  0  0  0  0  0  0  0  0
  -31.2944  -15.0718   18.0264 O   0  0  0  0  0  0  0  0  0  0  0  0
  -20.1571   -9.3746   18.3518 O   0  0  0  0  0  0  0  0  0  0  0  0
  -27.9608  -24.3692   20.9170 O   0  0  0  0  0  0  0  0  0  1  0  0
  -16.4553   -7.2814   21.8616 F   0  0  0  0  0  0  0  0  0  0  0  0
  -19.6331   -6.6608   18.4088 F   0  0  0  0  0  0  0  0  0  0  0  0
  1  2  1  0  0  0  0
  1  5  2  0  0  0  0
  2  6  2  0  0  0  0
  3  8  2  0  0  0  0
  3 16  1  0  0  0  0
  4  9  1  0  0  0  0
  4 16  2  0  0  0  0
  5 18  1  0  0  0  0
  6 20  1  0  0  0  0
  7 10  2  0  0  0  0
  7 19  1  0  0  0  0
  8 24  1  0  0  0  0
  9 24  2  0  0  0  0
 10 25  1  0  0  0  0
 11 12  2  0  0  0  0
 11 26  1  0  0  0  0
 12 27  1  0  0  0  0
 13 21  1  0  0  0  0
 13 25  2  0  0  0  0
 14 22  1  0  0  0  0
 14 23  2  0  0  0  0
 15 27  2  0  0  0  0
 15 28  1  0  0  0  0
 16 29  1  0  0  0  0
 17 29  1  0  0  0  0
 17 32  2  0  0  0  0
 17 33  1  0  0  0  0
 18 20  2  0  0  0  0
 18 38  1  0  0  0  0
 19 21  2  0  0  0  0
 19 39  1  0  0  0  0
 20 51  1  0  0  0  0
 21 40  1  0  0  0  0
 22 30  2  0  0  0  0
 22 63  1  0  0  0  0
 23 31  1  0  0  0  0
 23 56  1  0  0  0  0
 24 84  1  0  0  0  0
 25 85  1  0  0  0  0
 26 28  2  0  0  0  0
 26 84  1  0  0  0  0
 27 86  1  0  0  0  0
 28 87  1  0  0  0  0
 29 67  2  0  0  0  0
 30 57  1  0  0  0  0
 30 68  1  0  0  0  0
 31 68  2  0  0  0  0
 31 70  1  0  0  0  0
 32 69  1  0  0  0  0
 32 74  1  0  0  0  0
 33 75  1  0  0  0  0
 33 79  2  0  0  0  0
 34 52  1  0  0  0  0
 34 76  1  0  0  0  0
 34 80  2  0  0  0  0
 35 64  1  0  0  0  0
 35 71  1  0  0  0  0
 35 81  2  0  0  0  0
 36 65  1  0  0  0  0
 36 77  1  0  0  0  0
 36 82  2  0  0  0  0
 37 72  1  0  0  0  0
 37 73  1  0  0  0  0
 37 83  2  0  0  0  0
 38 41  1  0  0  0  0
 39 52  1  0  0  0  0
 40 71  1  0  0  0  0
 41 43  1  0  0  0  0
 42 44  1  0  0  0  0
 42 47  1  0  0  0  0
 43 51  1  0  0  0  0
 44 53  1  0  0  0  0
 45 46  1  0  0  0  0
 45 54  1  0  0  0  0
 46 55  1  0  0  0  0
 47 72  1  0  0  0  0
 48 53  1  0  0  0  0
 48 72  1  0  0  0  0
 49 54  1  0  0  0  0
 49 70  1  0  0  0  0
 50 55  1  0  0  0  0
 50 73  1  0  0  0  0
 51 76  1  0  0  0  0
 52 71  1  0  0  0  0
 53 69  1  0  0  0  0
 54 73  1  0  0  0  0
 55 70  1  0  0  0  0
 58 65  1  0  0  0  0
 59 66  1  0  0  0  0
 60 66  1  0  0  0  0
 61 66  1  0  0  0  0
 62 78  1  0  0  0  0
 63 85  1  0  0  0  0
 64 66  1  0  0  0  0
 64 77  1  0  0  0  0
 65 78  1  0  0  0  0
 67 69  1  0  0  0  0
M  CHG  1  78   1
M  ISO  4  37 100  63 101  73 100  85 101
M  END
> <Batch ID>
0172

> <Smiles>
CNC(C)C(=O)NC(C(=O)N1Cc2cc([101O:1][101CH2:1]c3cc(C)c(N4CC5CCC4C[100N:0]5[100C:0](=O)N4CCCC(n5nc(-c6ccc(Oc7ccc(F)cc7F)cc6)c(C(N)=O)c5N)C4)nc3C)ccc2CC1C(=O)NC1CCCc2ccccc21)C(C)(C)C

> <Shape>
0.303

> <Color>
0.104

> <Negative vol penalty>
0.000

$$$$

  -OEChem-04052322403D

 84 93  0     1  0  0  0  0  0999 V2000
  -20.6450  -32.9734   27.5360 C   0  0  0  0  0  0  0  0  0  0  0  0
  -21.9156  -32.9326   26.9710 C   0  0  0  0  0  0  0  0  0  0  0  0
  -26.4975  -12.5902   21.7177 C   0  0  0  0  0  0  0  0  0  0  0  0
  -26.0591  -13.7434   19.6404 C   0  0  0  0  0  0  0  0  0  0  0  0
  -19.7744  -31.8972   27.3697 C   0  0  0  0  0  0  0  0  0  0  0  0
  -22.3168  -31.8149   26.2400 C   0  0  0  0  0  0  0  0  0  0  0  0
  -26.3934  -29.9715   20.6454 C   0  0  0  0  0  0  0  0  0  0  0  0
  -25.2283  -12.0139   21.6657 C   0  0  0  0  0  0  0  0  0  0  0  0
  -24.7899  -13.1671   19.5884 C   0  0  0  0  0  0  0  0  0  0  0  0
  -27.4201  -29.0922   20.3041 C   0  0  0  0  0  0  0  0  0  0  0  0
  -23.7169   -9.4598   20.0456 C   0  0  0  0  0  0  0  0  0  0  0  0
  -23.6116   -8.0973   20.3254 C   0  0  0  0  0  0  0  0  0  0  0  0
  -25.8031  -27.3256   20.0156 C   0  0  0  0  0  0  0  0  0  0  0  0
  -22.1348   -8.5909   22.1727 C   0  0  0  0  0  0  0  0  0  0  0  0
  -32.1572  -24.4445   18.3823 C   0  0  0  0  0  0  0  0  0  0  0  0
  -26.9128  -13.4550   20.7051 C   0  0  0  0  0  0  0  0  0  0  0  0
  -29.4159  -13.5325   20.2189 C   0  0  0  0  0  0  0  0  0  0  0  0
  -20.1616  -30.7698   26.6282 C   0  0  0  0  0  0  0  0  0  0  0  0
  -25.0627  -29.5309   20.6850 C   0  0  0  0  0  0  0  0  0  0  0  0
  -21.4510  -30.7220   26.0647 C   0  0  0  0  0  0  0  0  0  0  0  0
  -24.7610  -28.2019   20.3552 C   0  0  0  0  0  0  0  0  0  0  0  0
  -31.6566  -24.3544   19.6711 C   0  0  0  0  0  0  0  0  0  0  0  0
  -30.7659  -25.3351   20.0934 C   0  0  0  0  0  0  0  0  0  0  0  0
  -30.4081  -26.3613   19.2261 C   0  0  0  0  0  0  0  0  0  0  0  0
  -24.3745  -12.3023   20.6010 C   0  0  0  0  0  0  0  0  0  0  0  0
  -27.1254  -27.7683   19.9920 C   0  0  0  0  0  0  0  0  0  0  0  0
  -23.0312  -10.3878   20.8293 C   0  0  0  0  0  0  0  0  0  0  0  0
  -22.8205   -7.6629   21.3889 C   0  0  0  0  0  0  0  0  0  0  0  0
  -22.2401   -9.9533   21.8929 C   0  0  0  0  0  0  0  0  0  0  0  0
  -28.2236  -14.0510   20.7586 C   0  0  0  0  0  0  0  0  0  0  0  0
  -30.9648  -26.3617   17.9573 C   0  0  0  0  0  0  0  0  0  0  0  0
  -30.3711  -14.4674   20.5353 C   0  0  0  0  0  0  0  0  0  0  0  0
  -29.6400  -12.3147   19.4960 C   0  0  0  0  0  0  0  0  0  0  0  0
  -22.8399  -29.3082   22.9462 C   0  0  0  0  0  0  0  0  0  0  0  0
  -20.9460  -28.4550   20.4547 C   0  0  0  0  0  0  0  0  0  0  0  0
  -20.7096  -27.1635   17.3046 C   0  0  0  0  0  0  0  0  0  0  0  0
  -31.9675  -19.7164   20.6830 C   0  0  0  0  0  0  0  0  0  0  0  0
  -19.2031  -29.6108   26.5155 C   0  0  0  0  0  0  0  0  0  0  0  0
  -23.9638  -30.4986   21.0290 C   0  0  0  0  0  0  0  0  0  0  0  0
  -23.3466  -27.6843   20.3631 C   0  0  0  0  0  0  0  0  0  0  0  0
  -19.5693  -28.6227   25.4111 C   0  0  0  0  0  0  0  0  0  0  0  0
  -30.2234  -18.4331   23.6352 C   0  0  0  0  0  0  0  0  0  0  0  0
  -21.0561  -28.2862   25.4673 C   0  0  0  0  0  0  0  0  0  0  0  0
  -29.5909  -17.1633   23.0754 C   0  0  0  0  0  0  0  0  0  0  0  0
  -30.3021  -19.5518   22.5959 C   0  0  0  0  0  0  0  0  0  0  0  0
  -31.0462  -22.1064   21.0287 C   0  0  0  0  0  0  0  0  0  0  0  0
  -30.3322  -17.8633   20.7727 C   0  0  0  0  0  0  0  0  0  0  0  0
  -32.1010  -23.1590   20.6181 C   0  0  1  0  0  0  0  0  0  0  0  0
  -21.9138  -29.5376   25.2442 C   0  0  1  0  0  0  0  0  0  0  0  0
  -22.7001  -29.8116   21.5374 C   0  0  1  0  0  0  0  0  0  0  0  0
  -30.3168  -16.7199   21.7965 C   0  0  2  0  0  0  0  0  0  0  0  0
  -32.9207  -21.9869   20.0180 C   0  0  1  0  0  0  0  0  0  0  0  0
  -30.1982  -25.2812   21.4752 C   0  0  0  0  0  0  0  0  0  0  0  0
  -30.6196  -27.4396   16.9823 C   0  0  0  0  0  0  0  0  0  0  0  0
  -34.3773  -21.9064   20.4282 C   0  0  0  0  0  0  0  0  0  0  0  0
  -19.0256  -26.5533   15.5470 C   0  0  0  0  0  0  0  0  0  0  0  0
  -20.2044  -25.9538   22.0371 C   0  0  0  0  0  0  0  0  0  0  0  0
  -19.3199  -24.9591   19.9167 C   0  0  0  0  0  0  0  0  0  0  0  0
  -18.2934  -27.0363   20.8410 C   0  0  0  0  0  0  0  0  0  0  0  0
  -21.8624  -29.0825   15.3687 C   0  0  0  0  0  0  0  0  0  0  0  0
  -29.4540  -27.4275   19.6496 C   0  0  0  0  0  0  0  0  0  1  0  0
  -20.5864  -27.1521   19.7823 C   0  0  1  0  0  0  0  0  0  0  0  0
  -19.9530  -27.6361   16.0764 C   0  0  2  0  0  0  0  0  0  0  0  0
  -19.6280  -26.2843   20.6459 C   0  0  0  0  0  0  0  0  0  0  0  0
  -31.8331  -25.4263   17.5114 N   0  0  0  0  0  0  0  0  0  0  0  0
  -28.4024  -15.2242   21.3716 N   0  0  0  0  0  0  0  0  0  0  0  0
  -29.7183  -15.4505   21.2190 N   0  0  0  0  0  0  0  0  0  0  0  0
  -22.3078  -28.6674   20.7121 N   0  0  0  0  0  0  0  0  0  0  0  0
  -30.8994  -19.0919   21.3375 N   0  0  0  0  0  0  0  0  0  0  0  0
  -32.0730  -21.0903   20.8117 N   0  0  0  0  0  0  0  0  0  0  0  0
  -31.6973  -14.5361   20.2927 N   0  0  0  0  0  0  0  0  0  0  0  0
  -28.5483  -11.4687   19.2576 N   0  0  0  0  0  0  0  0  0  0  0  0
  -21.9528  -29.8796   23.8385 N   0  0  0  0  0  0  0  0  0  0  0  0
  -20.0551  -27.5031   18.4697 N   0  0  0  0  0  0  0  0  0  0  0  0
  -20.9057  -28.0099   14.9930 N   0  3  0  0  0  0  0  0  0  0  0  0
  -30.7776  -11.9786   19.0883 O   0  0  0  0  0  0  0  0  0  0  0  0
  -23.6886  -28.4628   23.2043 O   0  0  0  0  0  0  0  0  0  0  0  0
  -20.0523  -29.2579   20.7346 O   0  0  0  0  0  0  0  0  0  0  0  0
  -21.7730  -26.5509   17.2371 O   0  0  0  0  0  0  0  0  0  0  0  0
  -32.7753  -19.0848   19.9910 O   0  0  0  0  0  0  0  0  0  0  0  0
  -23.1361  -11.7400   20.5498 O   0  0  0  0  0  0  0  0  0  0  0  0
  -28.1327  -26.9018   19.6569 O   0  0  0  0  0  0  0  0  0  1  0  0
  -22.7183   -6.3544   21.6566 F   0  0  0  0  0  0  0  0  0  0  0  0
  -21.5780  -10.8401   22.6486 F   0  0  0  0  0  0  0  0  0  0  0  0
  1  2  1  0  0  0  0
  1  5  2  0  0  0  0
  2  6  2  0  0  0  0
  3  8  2  0  0  0  0
  3 16  1  0  0  0  0
  4  9  1  0  0  0  0
  4 16  2  0  0  0  0
  5 18  1  0  0  0  0
  6 20  1  0  0  0  0
  7 10  2  0  0  0  0
  7 19  1  0  0  0  0
  8 25  1  0  0  0  0
  9 25  2  0  0  0  0
 10 26  1  0  0  0  0
 11 12  2  0  0  0  0
 11 27  1  0  0  0  0
 12 28  1  0  0  0  0
 13 21  1  0  0  0  0
 13 26  2  0  0  0  0
 14 28  2  0  0  0  0
 14 29  1  0  0  0  0
 15 22  2  0  0  0  0
 15 65  1  0  0  0  0
 16 30  1  0  0  0  0
 17 30  1  0  0  0  0
 17 32  2  0  0  0  0
 17 33  1  0  0  0  0
 18 20  2  0  0  0  0
 18 38  1  0  0  0  0
 19 21  2  0  0  0  0
 19 39  1  0  0  0  0
 20 49  1  0  0  0  0
 21 40  1  0  0  0  0
 22 23  1  0  0  0  0
 22 48  1  0  0  0  0
 23 24  2  0  0  0  0
 23 53  1  0  0  0  0
 24 31  1  0  0  0  0
 24 61  1  0  0  0  0
 25 81  1  0  0  0  0
 26 82  1  0  0  0  0
 27 29  2  0  0  0  0
 27 81  1  0  0  0  0
 28 83  1  0  0  0  0
 29 84  1  0  0  0  0
 30 66  2  0  0  0  0
 31 54  1  0  0  0  0
 31 65  2  0  0  0  0
 32 67  1  0  0  0  0
 32 71  1  0  0  0  0
 33 72  1  0  0  0  0
 33 76  2  0  0  0  0
 34 50  1  0  0  0  0
 34 73  1  0  0  0  0
 34 77  2  0  0  0  0
 35 62  1  0  0  0  0
 35 68  1  0  0  0  0
 35 78  2  0  0  0  0
 36 63  1  0  0  0  0
 36 74  1  0  0  0  0
 36 79  2  0  0  0  0
 37 69  1  0  0  0  0
 37 70  1  0  0  0  0
 37 80  2  0  0  0  0
 38 41  1  0  0  0  0
 39 50  1  0  0  0  0
 40 68  1  0  0  0  0
 41 43  1  0  0  0  0
 42 44  1  0  0  0  0
 42 45  1  0  0  0  0
 43 49  1  0  0  0  0
 44 51  1  0  0  0  0
 45 69  1  0  0  0  0
 46 48  1  0  0  0  0
 46 70  1  0  0  0  0
 47 51  1  0  0  0  0
 47 69  1  0  0  0  0
 48 52  1  0  0  0  0
 49 73  1  0  0  0  0
 50 68  1  0  0  0  0
 51 67  1  0  0  0  0
 52 55  1  0  0  0  0
 52 70  1  0  0  0  0
 56 63  1  0  0  0  0
 57 64  1  0  0  0  0
 58 64  1  0  0  0  0
 59 64  1  0  0  0  0
 60 75  1  0  0  0  0
 61 82  1  0  0  0  0
 62 64  1  0  0  0  0
 62 74  1  0  0  0  0
 63 75  1  0  0  0  0
 66 67  1  0  0  0  0
M  CHG  1  75   1
M  ISO  4  37 100  61 101  70 100  82 101
M  END
> <Batch ID>
0172

> <Smiles>
CNC(C)C(=O)NC(C(=O)N1Cc2cc([101O:1][101CH2:1]c3c(C)ncc(C4C[100N:0]([100C:0](=O)N5CCCC(n6nc(-c7ccc(Oc8ccc(F)cc8F)cc7)c(C(N)=O)c6N)C5)C4C)c3C)ccc2CC1C(=O)NC1CCCc2ccccc21)C(C)(C)C

> <Shape>
0.275

> <Color>
0.106

> <Negative vol penalty>
0.000

$$$$

  -OEChem-04052322403D

 88 98  0     1  0  0  0  0  0999 V2000
  -18.8386  -32.4840   18.7552 C   0  0  0  0  0  0  0  0  0  0  0  0
  -20.0365  -32.4488   18.0487 C   0  0  0  0  0  0  0  0  0  0  0  0
  -22.9134   -9.8875   20.0927 C   0  0  0  0  0  0  0  0  0  0  0  0
  -24.4478   -9.2363   21.8416 C   0  0  0  0  0  0  0  0  0  0  0  0
  -18.8504  -32.4297   20.1484 C   0  0  0  0  0  0  0  0  0  0  0  0
  -21.2471  -32.3603   18.7350 C   0  0  0  0  0  0  0  0  0  0  0  0
  -26.9882  -27.1017   18.0925 C   0  0  0  0  0  0  0  0  0  0  0  0
  -21.9088   -9.1267   20.6907 C   0  0  0  0  0  0  0  0  0  0  0  0
  -23.4432   -8.4755   22.4397 C   0  0  0  0  0  0  0  0  0  0  0  0
  -27.9990  -26.1443   18.1816 C   0  0  0  0  0  0  0  0  0  0  0  0
  -21.9910   -5.4582   21.9726 C   0  0  0  0  0  0  0  0  0  0  0  0
  -22.3224   -4.1756   22.4091 C   0  0  0  0  0  0  0  0  0  0  0  0
  -28.4113  -26.7781   20.4787 C   0  0  0  0  0  0  0  0  0  0  0  0
  -27.1313  -21.8887   22.2395 C   0  0  0  0  0  0  0  0  0  0  0  0
  -28.6867  -20.0581   22.3565 C   0  0  0  0  0  0  0  0  0  0  0  0
  -21.7177   -4.7876   24.6667 C   0  0  0  0  0  0  0  0  0  0  0  0
  -24.1829   -9.9422   20.6681 C   0  0  0  0  0  0  0  0  0  0  0  0
  -25.7489  -10.5706   18.7548 C   0  0  0  0  0  0  0  0  0  0  0  0
  -20.0613  -32.3309   20.8517 C   0  0  0  0  0  0  0  0  0  0  0  0
  -26.6744  -27.8913   19.2022 C   0  0  0  0  0  0  0  0  0  0  0  0
  -21.2752  -32.3060   20.1389 C   0  0  0  0  0  0  0  0  0  0  0  0
  -27.3915  -27.7301   20.3991 C   0  0  0  0  0  0  0  0  0  0  0  0
  -28.4186  -21.4176   22.4717 C   0  0  0  0  0  0  0  0  0  0  0  0
  -22.1737   -8.4207   21.8642 C   0  0  0  0  0  0  0  0  0  0  0  0
  -28.7089  -25.9831   19.3717 C   0  0  0  0  0  0  0  0  0  0  0  0
  -21.5230   -6.4056   22.8832 C   0  0  0  0  0  0  0  0  0  0  0  0
  -22.1857   -3.8402   23.7561 C   0  0  0  0  0  0  0  0  0  0  0  0
  -21.3863   -6.0703   24.2302 C   0  0  0  0  0  0  0  0  0  0  0  0
  -25.2212  -10.7275   20.0505 C   0  0  0  0  0  0  0  0  0  0  0  0
  -26.1551  -20.9668   21.8975 C   0  0  0  0  0  0  0  0  0  0  0  0
  -27.6409  -19.2181   22.0095 C   0  0  0  0  0  0  0  0  0  0  0  0
  -26.7021  -11.5540   18.6509 C   0  0  0  0  0  0  0  0  0  0  0  0
  -25.4078   -9.6209   17.7363 C   0  0  0  0  0  0  0  0  0  0  0  0
  -24.5140  -30.5999   20.6415 C   0  0  0  0  0  0  0  0  0  0  0  0
  -24.8453  -28.4701   22.8243 C   0  0  0  0  0  0  0  0  0  0  0  0
  -25.1083  -25.7037   24.8030 C   0  0  0  0  0  0  0  0  0  0  0  0
  -27.0391  -16.8055   21.5601 C   0  0  0  0  0  0  0  0  0  0  0  0
  -20.0264  -32.3227   22.3595 C   0  0  0  0  0  0  0  0  0  0  0  0
  -25.6350  -28.9770   19.1329 C   0  0  0  0  0  0  0  0  0  0  0  0
  -27.0428  -28.6255   21.5565 C   0  0  0  0  0  0  0  0  0  0  0  0
  -21.3314  -31.8519   22.9964 C   0  0  0  0  0  0  0  0  0  0  0  0
  -29.3713  -13.7918   22.0097 C   0  0  0  0  0  0  0  0  0  0  0  0
  -22.5245  -32.5363   22.3371 C   0  0  0  0  0  0  0  0  0  0  0  0
  -24.1063  -21.1193   20.3312 C   0  0  0  0  0  0  0  0  0  0  0  0
  -24.5410  -22.5236   20.6131 C   0  0  0  0  0  0  0  0  0  0  0  0
  -28.9048  -12.9330   20.8366 C   0  0  0  0  0  0  0  0  0  0  0  0
  -29.0587  -15.2687   21.8046 C   0  0  0  0  0  0  0  0  0  0  0  0
  -26.8122  -14.3564   21.1906 C   0  0  0  0  0  0  0  0  0  0  0  0
  -30.1472  -22.0783   24.2096 C   0  0  0  0  0  0  0  0  0  0  0  0
  -31.7750  -23.1425   22.7301 C   0  0  0  0  0  0  0  0  0  0  0  0
  -29.5214  -22.3789   22.8484 C   0  0  1  0  0  0  0  0  0  0  0  0
  -22.6074  -32.1855   20.8466 C   0  0  1  0  0  0  0  0  0  0  0  0
  -24.7660  -21.4492   21.6440 C   0  0  0  0  0  0  0  0  0  0  0  0
  -24.8563  -29.1518   20.4491 C   0  0  1  0  0  0  0  0  0  0  0  0
  -30.7393  -22.3825   21.9121 C   0  0  1  0  0  0  0  0  0  0  0  0
  -27.5543  -13.3920   20.2522 C   0  0  2  0  0  0  0  0  0  0  0  0
  -24.6809  -24.1909   26.7590 C   0  0  0  0  0  0  0  0  0  0  0  0
  -31.7512  -23.0601   19.7254 C   0  0  0  0  0  0  0  0  0  0  0  0
  -26.9681  -30.2035   24.1634 C   0  0  0  0  0  0  0  0  0  0  0  0
  -26.9040  -28.6449   26.1217 C   0  0  0  0  0  0  0  0  0  0  0  0
  -24.8618  -29.9272   25.4830 C   0  0  0  0  0  0  0  0  0  0  0  0
  -22.7691  -24.4633   23.4807 C   0  0  0  0  0  0  0  0  0  0  0  0
  -29.9230  -24.4568   20.7333 C   0  0  0  0  0  0  0  0  0  1  0  0
  -25.6228  -28.0039   24.0291 C   0  0  1  0  0  0  0  0  0  0  0  0
  -24.0653  -24.9098   25.5686 C   0  0  2  0  0  0  0  0  0  0  0  0
  -30.4753  -23.0388   20.5645 C   0  0  2  0  0  0  0  0  0  0  0  0
  -26.0949  -29.1851   24.9232 C   0  0  0  0  0  0  0  0  0  0  0  0
  -25.7919  -11.7314   20.7216 N   0  0  0  0  0  0  0  0  0  0  0  0
  -26.3775  -19.6389   21.7760 N   0  0  0  0  0  0  0  0  0  0  0  0
  -26.6882  -12.2142   19.8442 N   0  0  0  0  0  0  0  0  0  0  0  0
  -25.5816  -28.7561   21.6682 N   0  0  0  0  0  0  0  0  0  0  0  0
  -27.6401  -15.5237   21.5151 N   0  0  0  0  0  0  0  0  0  0  0  0
  -27.5424  -11.9096   17.6561 N   0  0  0  0  0  0  0  0  0  0  0  0
  -26.0981   -8.4016   17.7016 N   0  0  0  0  0  0  0  0  0  0  0  0
  -27.9239  -17.8340   21.8949 N   0  0  0  0  0  0  0  0  0  0  0  0
  -23.1568  -30.8583   20.6695 N   0  0  0  0  0  0  0  0  0  0  0  0
  -24.7717  -27.0380   24.7154 N   0  0  0  0  0  0  0  0  0  0  0  0
  -31.5047  -22.7207   24.1450 N   0  3  0  0  0  0  0  0  0  0  0  0
  -23.4336  -23.8931   24.6808 N   0  3  0  0  0  0  0  0  0  0  0  0
  -24.5287   -9.8535   16.8722 O   0  0  0  0  0  0  0  0  0  0  0  0
  -25.4141  -31.4233   20.7578 O   0  0  0  0  0  0  0  0  0  0  0  0
  -23.6190  -28.5840   22.9049 O   0  0  0  0  0  0  0  0  0  0  0  0
  -26.1222  -25.1922   24.3331 O   0  0  0  0  0  0  0  0  0  0  0  0
  -25.8433  -16.9696   21.3088 O   0  0  0  0  0  0  0  0  0  0  0  0
  -21.1936   -7.6784   22.4482 O   0  0  0  0  0  0  0  0  0  0  0  0
  -29.6914  -25.0435   19.4532 O   0  0  0  0  0  0  0  0  0  1  0  0
  -22.5025   -2.6080   24.1749 F   0  0  0  0  0  0  0  0  0  0  0  0
  -20.9361   -6.9758   25.1095 F   0  0  0  0  0  0  0  0  0  0  0  0
  1  2  1  0  0  0  0
  1  5  2  0  0  0  0
  2  6  2  0  0  0  0
  3  8  2  0  0  0  0
  3 17  1  0  0  0  0
  4  9  1  0  0  0  0
  4 17  2  0  0  0  0
  5 19  1  0  0  0  0
  6 21  1  0  0  0  0
  7 10  2  0  0  0  0
  7 20  1  0  0  0  0
  8 24  1  0  0  0  0
  9 24  2  0  0  0  0
 10 25  1  0  0  0  0
 11 12  2  0  0  0  0
 11 26  1  0  0  0  0
 12 27  1  0  0  0  0
 13 22  1  0  0  0  0
 13 25  2  0  0  0  0
 14 23  2  0  0  0  0
 14 30  1  0  0  0  0
 15 23  1  0  0  0  0
 15 31  2  0  0  0  0
 16 27  2  0  0  0  0
 16 28  1  0  0  0  0
 17 29  1  0  0  0  0
 18 29  1  0  0  0  0
 18 32  2  0  0  0  0
 18 33  1  0  0  0  0
 19 21  2  0  0  0  0
 19 38  1  0  0  0  0
 20 22  2  0  0  0  0
 20 39  1  0  0  0  0
 21 52  1  0  0  0  0
 22 40  1  0  0  0  0
 23 51  1  0  0  0  0
 24 85  1  0  0  0  0
 25 86  1  0  0  0  0
 26 28  2  0  0  0  0
 26 85  1  0  0  0  0
 27 87  1  0  0  0  0
 28 88  1  0  0  0  0
 29 68  2  0  0  0  0
 30 53  1  0  0  0  0
 30 69  2  0  0  0  0
 31 69  1  0  0  0  0
 31 75  1  0  0  0  0
 32 70  1  0  0  0  0
 32 73  1  0  0  0  0
 33 74  1  0  0  0  0
 33 80  2  0  0  0  0
 34 54  1  0  0  0  0
 34 76  1  0  0  0  0
 34 81  2  0  0  0  0
 35 64  1  0  0  0  0
 35 71  1  0  0  0  0
 35 82  2  0  0  0  0
 36 65  1  0  0  0  0
 36 77  1  0  0  0  0
 36 83  2  0  0  0  0
 37 72  1  0  0  0  0
 37 75  1  0  0  0  0
 37 84  2  0  0  0  0
 38 41  1  0  0  0  0
 39 54  1  0  0  0  0
 40 71  1  0  0  0  0
 41 43  1  0  0  0  0
 42 46  1  0  0  0  0
 42 47  1  0  0  0  0
 43 52  1  0  0  0  0
 44 45  1  0  0  0  0
 44 53  1  0  0  0  0
 45 53  1  0  0  0  0
 46 56  1  0  0  0  0
 47 72  1  0  0  0  0
 48 56  1  0  0  0  0
 48 72  1  0  0  0  0
 49 51  1  0  0  0  0
 49 78  1  0  0  0  0
 50 55  1  0  0  0  0
 50 78  1  0  0  0  0
 51 55  1  0  0  0  0
 52 76  1  0  0  0  0
 54 71  1  0  0  0  0
 55 66  1  0  0  0  0
 56 70  1  0  0  0  0
 57 65  1  0  0  0  0
 58 66  1  0  0  0  0
 59 67  1  0  0  0  0
 60 67  1  0  0  0  0
 61 67  1  0  0  0  0
 62 79  1  0  0  0  0
 63 66  1  0  0  0  0
 63 86  1  0  0  0  0
 64 67  1  0  0  0  0
 64 77  1  0  0  0  0
 65 79  1  0  0  0  0
 68 70  1  0  0  0  0
M  CHG  2  78   1  79   1
M  ISO  4  37 100  63 101  75 100  86 101
M  END
> <Batch ID>
0172

> <Smiles>
CNC(C)C(=O)NC(C(=O)N1Cc2cc([101O:1][101CH2:1]C(C)C3CNCC3c3cc([100NH:0][100C:0](=O)N4CCCC(n5nc(-c6ccc(Oc7ccc(F)cc7F)cc6)c(C(N)=O)c5N)C4)nc(C4CC4)c3)ccc2CC1C(=O)NC1CCCc2ccccc21)C(C)(C)C

> <Shape>
0.241

> <Color>
0.092

> <Negative vol penalty>
0.000

$$$$

  -OEChem-04052322403D

 85 94  0     1  0  0  0  0  0999 V2000
  -20.5035  -25.7445   25.5215 C   0  0  0  0  0  0  0  0  0  0  0  0
  -21.5373  -25.6021   24.6015 C   0  0  0  0  0  0  0  0  0  0  0  0
  -26.6094  -14.8317   21.4748 C   0  0  0  0  0  0  0  0  0  0  0  0
  -26.5658  -14.7235   19.0616 C   0  0  0  0  0  0  0  0  0  0  0  0
  -19.4786  -26.6585   25.2807 C   0  0  0  0  0  0  0  0  0  0  0  0
  -21.5461  -26.3729   23.4396 C   0  0  0  0  0  0  0  0  0  0  0  0
  -26.1085  -28.3310   22.4419 C   0  0  0  0  0  0  0  0  0  0  0  0
  -31.3584  -23.9057   17.3361 C   0  0  0  0  0  0  0  0  0  0  0  0
  -30.0090  -23.6753   17.0688 C   0  0  0  0  0  0  0  0  0  0  0  0
  -26.4325  -13.4496   21.5400 C   0  0  0  0  0  0  0  0  0  0  0  0
  -26.3890  -13.3414   19.1268 C   0  0  0  0  0  0  0  0  0  0  0  0
  -27.0568  -27.4800   21.8759 C   0  0  0  0  0  0  0  0  0  0  0  0
  -25.5656   -9.8322   18.6606 C   0  0  0  0  0  0  0  0  0  0  0  0
  -24.6029   -9.2618   17.8278 C   0  0  0  0  0  0  0  0  0  0  0  0
  -26.5891  -28.4147   19.7018 C   0  0  0  0  0  0  0  0  0  0  0  0
  -22.8947  -10.6070   18.8813 C   0  0  0  0  0  0  0  0  0  0  0  0
  -26.6760  -15.4686   20.2356 C   0  0  0  0  0  0  0  0  0  0  0  0
  -28.0786  -17.5960   20.1140 C   0  0  0  0  0  0  0  0  0  0  0  0
  -19.4799  -27.4478   24.1199 C   0  0  0  0  0  0  0  0  0  0  0  0
  -25.3845  -29.2242   21.6391 C   0  0  0  0  0  0  0  0  0  0  0  0
  -20.5195  -27.2973   23.1824 C   0  0  0  0  0  0  0  0  0  0  0  0
  -25.6341  -29.2778   20.2604 C   0  0  0  0  0  0  0  0  0  0  0  0
  -31.7498  -25.0714   17.9947 C   0  0  0  0  0  0  0  0  0  0  0  0
  -30.7917  -26.0067   18.3857 C   0  0  0  0  0  0  0  0  0  0  0  0
  -29.4423  -25.7763   18.1183 C   0  0  0  0  0  0  0  0  0  0  0  0
  -29.0509  -24.6106   17.4598 C   0  0  0  0  0  0  0  0  0  0  0  0
  -26.3223  -12.7045   20.3660 C   0  0  0  0  0  0  0  0  0  0  0  0
  -27.2951  -27.5197   20.5053 C   0  0  0  0  0  0  0  0  0  0  0  0
  -25.1928  -10.7899   19.6037 C   0  0  0  0  0  0  0  0  0  0  0  0
  -23.2674   -9.6492   17.9382 C   0  0  0  0  0  0  0  0  0  0  0  0
  -23.8574  -11.1773   19.7140 C   0  0  0  0  0  0  0  0  0  0  0  0
  -26.8582  -16.8963   20.1676 C   0  0  0  0  0  0  0  0  0  0  0  0
  -27.7138  -18.9190   20.0604 C   0  0  0  0  0  0  0  0  0  0  0  0
  -29.4219  -17.0948   20.1126 C   0  0  0  0  0  0  0  0  0  0  0  0
  -24.4609  -22.9411   17.9316 C   0  0  0  0  0  0  0  0  0  0  0  0
  -22.3099  -29.6232   20.9379 C   0  0  0  0  0  0  0  0  0  0  0  0
  -23.4036  -32.2650   19.4058 C   0  0  0  0  0  0  0  0  0  0  0  0
  -26.0094  -33.8644   17.8897 C   0  0  0  0  0  0  0  0  0  0  0  0
  -18.3256  -28.3884   23.8802 C   0  0  0  0  0  0  0  0  0  0  0  0
  -24.3841  -30.1543   22.2689 C   0  0  0  0  0  0  0  0  0  0  0  0
  -24.8980  -30.2328   19.3578 C   0  0  0  0  0  0  0  0  0  0  0  0
  -18.6060  -29.4353   22.8053 C   0  0  0  0  0  0  0  0  0  0  0  0
  -23.2344  -21.1397   20.7760 C   0  0  0  0  0  0  0  0  0  0  0  0
  -19.2326  -28.7841   21.5764 C   0  0  0  0  0  0  0  0  0  0  0  0
  -24.1488  -19.9175   20.8485 C   0  0  0  0  0  0  0  0  0  0  0  0
  -22.9685  -21.5532   19.3319 C   0  0  0  0  0  0  0  0  0  0  0  0
  -26.8550  -23.6556   18.1096 C   0  0  0  0  0  0  0  0  0  0  0  0
  -25.1229  -20.5786   18.6037 C   0  0  0  0  0  0  0  0  0  0  0  0
  -27.1752  -24.4570   15.8454 C   0  0  0  0  0  0  0  0  0  0  0  0
  -20.5773  -28.1332   21.9222 C   0  0  1  0  0  0  0  0  0  0  0  0
  -25.7744  -23.0591   17.2002 C   0  0  2  0  0  0  0  0  0  0  0  0
  -23.3380  -30.6635   21.2821 C   0  0  1  0  0  0  0  0  0  0  0  0
  -25.4418  -20.1461   20.0458 C   0  0  2  0  0  0  0  0  0  0  0  0
  -25.7178  -24.0608   16.0566 C   0  0  2  0  0  0  0  0  0  0  0  0
  -33.2013  -25.2928   18.2691 C   0  0  0  0  0  0  0  0  0  0  0  0
  -31.2143  -27.2562   19.0919 C   0  0  0  0  0  0  0  0  0  0  0  0
  -26.5884  -35.9969   16.7003 C   0  0  0  0  0  0  0  0  0  0  0  0
  -21.9614  -31.2622   16.9110 C   0  0  0  0  0  0  0  0  0  0  0  0
  -23.3259  -32.8696   15.5610 C   0  0  0  0  0  0  0  0  0  0  0  0
  -21.7661  -33.7233   17.3105 C   0  0  0  0  0  0  0  0  0  0  0  0
  -28.0353  -34.5847   19.9234 C   0  0  0  0  0  0  0  0  0  0  0  0
  -28.4130  -26.7836   18.5394 C   0  0  0  0  0  0  0  0  0  1  0  0
  -23.9005  -32.5637   18.0119 C   0  0  1  0  0  0  0  0  0  0  0  0
  -26.5491  -35.2754   18.0385 C   0  0  2  0  0  0  0  0  0  0  0  0
  -22.7511  -32.5852   16.9650 C   0  0  0  0  0  0  0  0  0  0  0  0
  -25.7974  -17.7077   20.1499 N   0  0  0  0  0  0  0  0  0  0  0  0
  -26.3502  -18.9310   20.0846 N   0  0  0  0  0  0  0  0  0  0  0  0
  -27.6895  -24.3589   17.1791 N   0  0  2  0  0  0  0  0  0  0  0  0
  -24.2211  -21.7388   18.5971 N   0  0  0  0  0  0  0  0  0  0  0  0
  -23.9253  -31.1176   20.0199 N   0  0  0  0  0  0  0  0  0  0  0  0
  -28.4296  -20.0618   19.9955 N   0  0  0  0  0  0  0  0  0  0  0  0
  -29.6177  -15.7082   20.1720 N   0  0  0  0  0  0  0  0  0  0  0  0
  -21.6129  -29.1386   22.0282 N   0  0  0  0  0  0  0  0  0  0  0  0
  -24.6483  -33.8129   18.1041 N   0  0  0  0  0  0  0  0  0  0  0  0
  -25.1541  -23.4496   14.8367 N   0  3  0  0  0  0  0  0  0  0  0  0
  -27.9305  -35.2454   18.5969 N   0  3  0  0  0  0  0  0  0  0  0  0
  -30.4193  -17.8547   20.0769 O   0  0  0  0  0  0  0  0  0  0  0  0
  -23.6742  -23.8913   17.9133 O   0  0  0  0  0  0  0  0  0  0  0  0
  -22.1591  -29.2863   19.7693 O   0  0  0  0  0  0  0  0  0  0  0  0
  -22.5883  -33.0258   19.9332 O   0  0  0  0  0  0  0  0  0  0  0  0
  -26.7232  -32.9045   17.6075 O   0  0  0  0  0  0  0  0  0  0  0  0
  -26.1499  -11.3558   20.4292 O   0  0  0  0  0  0  0  0  0  0  0  0
  -28.2197  -26.6896   19.9502 O   0  0  0  0  0  0  0  0  0  1  0  0
  -22.3433   -9.1025   17.1374 F   0  0  0  0  0  0  0  0  0  0  0  0
  -23.4935  -12.0978   20.6174 F   0  0  0  0  0  0  0  0  0  0  0  0
  1  2  1  0  0  0  0
  1  5  2  0  0  0  0
  2  6  2  0  0  0  0
  3 10  2  0  0  0  0
  3 17  1  0  0  0  0
  4 11  1  0  0  0  0
  4 17  2  0  0  0  0
  5 19  1  0  0  0  0
  6 21  1  0  0  0  0
  7 12  2  0  0  0  0
  7 20  1  0  0  0  0
  8  9  1  0  0  0  0
  8 23  2  0  0  0  0
  9 26  2  0  0  0  0
 10 27  1  0  0  0  0
 11 27  2  0  0  0  0
 12 28  1  0  0  0  0
 13 14  2  0  0  0  0
 13 29  1  0  0  0  0
 14 30  1  0  0  0  0
 15 22  1  0  0  0  0
 15 28  2  0  0  0  0
 16 30  2  0  0  0  0
 16 31  1  0  0  0  0
 17 32  1  0  0  0  0
 18 32  1  0  0  0  0
 18 33  2  0  0  0  0
 18 34  1  0  0  0  0
 19 21  2  0  0  0  0
 19 39  1  0  0  0  0
 20 22  2  0  0  0  0
 20 40  1  0  0  0  0
 21 50  1  0  0  0  0
 22 41  1  0  0  0  0
 23 24  1  0  0  0  0
 23 55  1  0  0  0  0
 24 25  2  0  0  0  0
 24 56  1  0  0  0  0
 25 26  1  0  0  0  0
 25 62  1  0  0  0  0
 26 68  1  0  0  0  0
 27 82  1  0  0  0  0
 28 83  1  0  0  0  0
 29 31  2  0  0  0  0
 29 82  1  0  0  0  0
 30 84  1  0  0  0  0
 31 85  1  0  0  0  0
 32 66  2  0  0  0  0
 33 67  1  0  0  0  0
 33 71  1  0  0  0  0
 34 72  1  0  0  0  0
 34 77  2  0  0  0  0
 35 51  1  0  0  0  0
 35 69  1  0  0  0  0
 35 78  2  0  0  0  0
 36 52  1  0  0  0  0
 36 73  1  0  0  0  0
 36 79  2  0  0  0  0
 37 63  1  0  0  0  0
 37 70  1  0  0  0  0
 37 80  2  0  0  0  0
 38 64  1  0  0  0  0
 38 74  1  0  0  0  0
 38 81  2  0  0  0  0
 39 42  1  0  0  0  0
 40 52  1  0  0  0  0
 41 70  1  0  0  0  0
 42 44  1  0  0  0  0
 43 45  1  0  0  0  0
 43 46  1  0  0  0  0
 44 50  1  0  0  0  0
 45 53  1  0  0  0  0
 46 69  1  0  0  0  0
 47 51  1  0  0  0  0
 47 68  1  0  0  0  0
 48 53  1  0  0  0  0
 48 69  1  0  0  0  0
 49 54  1  0  0  0  0
 49 68  1  0  0  0  0
 50 73  1  0  0  0  0
 51 54  1  0  0  0  0
 52 70  1  0  0  0  0
 53 67  1  0  0  0  0
 54 75  1  0  0  0  0
 57 64  1  0  0  0  0
 58 65  1  0  0  0  0
 59 65  1  0  0  0  0
 60 65  1  0  0  0  0
 61 76  1  0  0  0  0
 62 83  1  0  0  0  0
 63 65  1  0  0  0  0
 63 74  1  0  0  0  0
 64 76  1  0  0  0  0
 66 67  1  0  0  0  0
M  CHG  2  75   1  76   1
M  ISO  4  35 100  51 100  62 101  83 101
M  END
> <Batch ID>
0172

> <Smiles>
CNC(C)C(=O)NC(C(=O)N1Cc2cc([101O:1][101CH2:1]c3c(N4CC(N)[100CH:0]([100C:0](=O)N5CCCC(n6nc(-c7ccc(Oc8ccc(F)cc8F)cc7)c(C(N)=O)c6N)C5)C4)ccc(C)c3C)ccc2CC1C(=O)NC1CCCc2ccccc21)C(C)(C)C

> <Shape>
0.212

> <Color>
0.118

> <Negative vol penalty>
0.000

$$$$

  -OEChem-04052322403D

 90101  0     1  0  0  0  0  0999 V2000
  -30.3626  -25.7034   17.4290 C   0  0  0  0  0  0  0  0  0  0  0  0
  -28.9747  -25.6971   17.5247 C   0  0  0  0  0  0  0  0  0  0  0  0
  -25.2581  -13.2305   21.4567 C   0  0  0  0  0  0  0  0  0  0  0  0
  -26.0551  -12.5229   19.2885 C   0  0  0  0  0  0  0  0  0  0  0  0
  -31.1310  -26.1850   18.4880 C   0  0  0  0  0  0  0  0  0  0  0  0
  -28.3544  -26.1714   18.6800 C   0  0  0  0  0  0  0  0  0  0  0  0
  -23.0200  -29.1589   19.0328 C   0  0  0  0  0  0  0  0  0  0  0  0
  -24.3163  -12.2018   21.4463 C   0  0  0  0  0  0  0  0  0  0  0  0
  -25.1133  -11.4941   19.2781 C   0  0  0  0  0  0  0  0  0  0  0  0
  -21.7273  -28.7373   19.3411 C   0  0  0  0  0  0  0  0  0  0  0  0
  -24.2614   -8.8691   22.0146 C   0  0  0  0  0  0  0  0  0  0  0  0
  -24.1133   -8.1140   23.1780 C   0  0  0  0  0  0  0  0  0  0  0  0
  -22.0556  -29.4244   21.6300 C   0  0  0  0  0  0  0  0  0  0  0  0
  -21.4537  -23.9535   22.8401 C   0  0  0  0  0  0  0  0  0  0  0  0
  -21.7957   -8.7823   23.3167 C   0  0  0  0  0  0  0  0  0  0  0  0
  -20.7081  -24.6191   20.3011 C   0  0  0  0  0  0  0  0  0  0  0  0
  -26.1275  -13.3912   20.3778 C   0  0  0  0  0  0  0  0  0  0  0  0
  -28.4147  -14.3988   20.8886 C   0  0  0  0  0  0  0  0  0  0  0  0
  -30.5195  -26.6744   19.6530 C   0  0  0  0  0  0  0  0  0  0  0  0
  -23.8454  -29.7074   20.0249 C   0  0  0  0  0  0  0  0  0  0  0  0
  -29.1154  -26.6588   19.7561 C   0  0  0  0  0  0  0  0  0  0  0  0
  -23.3574  -29.8547   21.3312 C   0  0  0  0  0  0  0  0  0  0  0  0
  -20.4430  -24.8890   22.6491 C   0  0  0  0  0  0  0  0  0  0  0  0
  -20.0571  -25.2337   21.3586 C   0  0  0  0  0  0  0  0  0  0  0  0
  -24.2439  -11.3335   20.3570 C   0  0  0  0  0  0  0  0  0  0  0  0
  -21.2460  -28.8673   20.6405 C   0  0  0  0  0  0  0  0  0  0  0  0
  -23.1767   -9.5808   21.5022 C   0  0  0  0  0  0  0  0  0  0  0  0
  -22.8805   -8.0706   23.8291 C   0  0  0  0  0  0  0  0  0  0  0  0
  -21.9439   -9.5374   22.1533 C   0  0  0  0  0  0  0  0  0  0  0  0
  -27.1003  -14.4541   20.3877 C   0  0  0  0  0  0  0  0  0  0  0  0
  -22.0421  -23.3961   21.7163 C   0  0  0  0  0  0  0  0  0  0  0  0
  -28.9210  -15.6556   20.6636 C   0  0  0  0  0  0  0  0  0  0  0  0
  -29.1154  -13.3089   21.5024 C   0  0  0  0  0  0  0  0  0  0  0  0
  -26.6306  -28.8983   21.3255 C   0  0  0  0  0  0  0  0  0  0  0  0
  -26.3201  -31.7598   22.8215 C   0  0  0  0  0  0  0  0  0  0  0  0
  -24.2548  -34.2382   23.9345 C   0  0  0  0  0  0  0  0  0  0  0  0
  -26.5690  -21.0014   20.0839 C   0  0  0  0  0  0  0  0  0  0  0  0
  -31.3933  -27.1410   20.7903 C   0  0  0  0  0  0  0  0  0  0  0  0
  -25.2278  -30.1821   19.6701 C   0  0  0  0  0  0  0  0  0  0  0  0
  -24.1964  -30.4558   22.4280 C   0  0  0  0  0  0  0  0  0  0  0  0
  -30.6471  -27.9735   21.8298 C   0  0  0  0  0  0  0  0  0  0  0  0
  -28.5126  -19.3952   17.7194 C   0  0  0  0  0  0  0  0  0  0  0  0
  -20.2972  -26.8321   24.3453 C   0  0  0  0  0  0  0  0  0  0  0  0
  -20.5486  -25.5860   25.1354 C   0  0  0  0  0  0  0  0  0  0  0  0
  -29.3276  -27.3048   22.2022 C   0  0  0  0  0  0  0  0  0  0  0  0
  -28.5083  -17.9364   18.1757 C   0  0  0  0  0  0  0  0  0  0  0  0
  -23.1403  -21.3216   20.7613 C   0  0  0  0  0  0  0  0  0  0  0  0
  -24.5342  -23.0334   22.0007 C   0  0  0  0  0  0  0  0  0  0  0  0
  -18.1761  -27.8136   19.4871 C   0  0  0  0  0  0  0  0  0  0  0  0
  -27.1324  -20.0215   17.8809 C   0  0  0  0  0  0  0  0  0  0  0  0
  -24.2794  -20.3106   20.9212 C   0  0  0  0  0  0  0  0  0  0  0  0
  -25.6257  -21.9782   22.1539 C   0  0  0  0  0  0  0  0  0  0  0  0
  -26.5820  -18.4887   19.7425 C   0  0  0  0  0  0  0  0  0  0  0  0
  -17.4929  -26.5051   19.1638 C   0  0  0  0  0  0  0  0  0  0  0  0
  -19.7880  -25.5090   23.8381 C   0  0  0  0  0  0  0  0  0  0  0  0
  -28.4049  -27.1880   20.9830 C   0  0  1  0  0  0  0  0  0  0  0  0
  -18.9811  -26.2294   21.0948 C   0  0  1  0  0  0  0  0  0  0  0  0
  -23.1487  -22.3723   21.8862 C   0  0  0  0  0  0  0  0  0  0  0  0
  -26.1625  -30.2528   20.8738 C   0  0  1  0  0  0  0  0  0  0  0  0
  -27.9584  -17.8063   19.6071 C   0  0  1  0  0  0  0  0  0  0  0  0
  -19.4504  -27.3739   20.1914 C   0  0  2  0  0  0  0  0  0  1  0  0
  -24.2885  -36.4314   25.1535 C   0  0  0  0  0  0  0  0  0  0  0  0
  -26.7362  -30.2844   25.4597 C   0  0  0  0  0  0  0  0  0  0  0  0
  -25.8298  -32.2940   26.6463 C   0  0  0  0  0  0  0  0  0  0  0  0
  -27.9186  -32.4820   25.2957 C   0  0  0  0  0  0  0  0  0  0  0  0
  -23.1107  -35.6771   21.6152 C   0  0  0  0  0  0  0  0  0  0  0  0
  -25.6977  -32.2282   24.1146 C   0  0  1  0  0  0  0  0  0  0  0  0
  -24.3273  -35.7481   23.7955 C   0  0  2  0  0  0  0  0  0  0  0  0
  -26.5302  -31.8090   25.3591 C   0  0  0  0  0  0  0  0  0  0  0  0
  -21.6942  -23.7059   20.4472 N   0  0  0  0  0  0  0  0  0  0  0  0
  -26.7908  -15.6512   19.8826 N   0  0  0  0  0  0  0  0  0  0  0  0
  -27.9180  -16.3599   20.0652 N   0  0  0  0  0  0  0  0  0  0  0  0
  -25.5436  -30.8991   22.0328 N   0  0  0  0  0  0  0  0  0  0  0  0
  -26.6438  -19.8742   19.2518 N   0  0  0  0  0  0  0  0  0  0  0  0
  -25.5687  -21.0003   21.0677 N   0  0  0  0  0  0  0  0  0  0  0  0
  -30.1219  -16.2160   20.9213 N   0  0  0  0  0  0  0  0  0  0  0  0
  -28.4468  -12.0868   21.6563 N   0  0  0  0  0  0  0  0  0  0  0  0
  -27.7815  -28.4624   20.6971 N   0  0  0  0  0  0  0  0  0  0  0  0
  -25.5097  -33.6685   23.9790 N   0  0  0  0  0  0  0  0  0  0  0  0
  -17.7997  -25.6367   20.3481 N   0  3  0  0  0  0  0  0  0  0  0  0
  -23.1818  -36.2491   22.9844 N   0  3  0  0  0  0  0  0  0  0  0  0
  -30.2940  -13.4204   21.9174 O   0  0  0  0  0  0  0  0  0  0  0  0
  -25.9955  -28.2942   22.1819 O   0  0  0  0  0  0  0  0  0  0  0  0
  -27.4508  -32.1491   22.5188 O   0  0  0  0  0  0  0  0  0  0  0  0
  -23.1913  -33.6256   24.0011 O   0  0  0  0  0  0  0  0  0  0  0  0
  -27.3500  -21.9527   19.9565 O   0  0  0  0  0  0  0  0  0  0  0  0
  -23.3251  -10.3293   20.3467 O   0  0  0  0  0  0  0  0  0  0  0  0
  -19.9740  -28.4523   20.9470 O   0  0  0  0  0  0  0  0  0  1  0  0
  -22.7380   -7.3443   24.9454 F   0  0  0  0  0  0  0  0  0  0  0  0
  -20.8978  -10.2181   21.6652 F   0  0  0  0  0  0  0  0  0  0  0  0
  1  2  1  0  0  0  0
  1  5  2  0  0  0  0
  2  6  2  0  0  0  0
  3  8  2  0  0  0  0
  3 17  1  0  0  0  0
  4  9  1  0  0  0  0
  4 17  2  0  0  0  0
  5 19  1  0  0  0  0
  6 21  1  0  0  0  0
  7 10  2  0  0  0  0
  7 20  1  0  0  0  0
  8 25  1  0  0  0  0
  9 25  2  0  0  0  0
 10 26  1  0  0  0  0
 11 12  2  0  0  0  0
 11 27  1  0  0  0  0
 12 28  1  0  0  0  0
 13 22  1  0  0  0  0
 13 26  2  0  0  0  0
 14 23  1  0  0  0  0
 14 31  2  0  0  0  0
 15 28  2  0  0  0  0
 15 29  1  0  0  0  0
 16 24  1  0  0  0  0
 16 70  2  0  0  0  0
 17 30  1  0  0  0  0
 18 30  1  0  0  0  0
 18 32  2  0  0  0  0
 18 33  1  0  0  0  0
 19 21  2  0  0  0  0
 19 38  1  0  0  0  0
 20 22  2  0  0  0  0
 20 39  1  0  0  0  0
 21 56  1  0  0  0  0
 22 40  1  0  0  0  0
 23 24  2  0  0  0  0
 23 55  1  0  0  0  0
 24 57  1  0  0  0  0
 25 87  1  0  0  0  0
 26 88  1  0  0  0  0
 27 29  2  0  0  0  0
 27 87  1  0  0  0  0
 28 89  1  0  0  0  0
 29 90  1  0  0  0  0
 30 71  2  0  0  0  0
 31 58  1  0  0  0  0
 31 70  1  0  0  0  0
 32 72  1  0  0  0  0
 32 76  1  0  0  0  0
 33 77  1  0  0  0  0
 33 82  2  0  0  0  0
 34 59  1  0  0  0  0
 34 78  1  0  0  0  0
 34 83  2  0  0  0  0
 35 67  1  0  0  0  0
 35 73  1  0  0  0  0
 35 84  2  0  0  0  0
 36 68  1  0  0  0  0
 36 79  1  0  0  0  0
 36 85  2  0  0  0  0
 37 74  1  0  0  0  0
 37 75  1  0  0  0  0
 37 86  2  0  0  0  0
 38 41  1  0  0  0  0
 39 59  1  0  0  0  0
 40 73  1  0  0  0  0
 41 45  1  0  0  0  0
 42 46  1  0  0  0  0
 42 50  1  0  0  0  0
 43 44  1  0  0  0  0
 43 55  1  0  0  0  0
 44 55  1  0  0  0  0
 45 56  1  0  0  0  0
 46 60  1  0  0  0  0
 47 51  1  0  0  0  0
 47 58  1  0  0  0  0
 48 52  1  0  0  0  0
 48 58  1  0  0  0  0
 49 54  1  0  0  0  0
 49 61  1  0  0  0  0
 50 74  1  0  0  0  0
 51 75  1  0  0  0  0
 52 75  1  0  0  0  0
 53 60  1  0  0  0  0
 53 74  1  0  0  0  0
 54 80  1  0  0  0  0
 56 78  1  0  0  0  0
 57 61  1  0  0  0  0
 57 80  1  0  0  0  0
 59 73  1  0  0  0  0
 60 72  1  0  0  0  0
 61 88  1  0  0  0  0
 62 68  1  0  0  0  0
 63 69  1  0  0  0  0
 64 69  1  0  0  0  0
 65 69  1  0  0  0  0
 66 81  1  0  0  0  0
 67 69  1  0  0  0  0
 67 79  1  0  0  0  0
 68 81  1  0  0  0  0
 71 72  1  0  0  0  0
M  CHG  2  80   1  81   1
M  ISO  4  37 100  61 101  75 100  88 101
M  END
> <Batch ID>
0172

> <Smiles>
CNC(C)C(=O)NC(C(=O)N1Cc2cc([101O:1][101CH:1]3CCNC3c3cnc(C4CC[100N:0]([100C:0](=O)N5CCCC(n6nc(-c7ccc(Oc8ccc(F)cc8F)cc7)c(C(N)=O)c6N)C5)CC4)cc3C3CC3)ccc2CC1C(=O)NC1CCCc2ccccc21)C(C)(C)C

> <Shape>
0.343

> <Color>
0.072

> <Negative vol penalty>
0.000

$$$$

  -OEChem-04052322403D

 87 96  0     1  0  0  0  0  0999 V2000
  -26.8088  -33.7602   22.5436 C   0  0  0  0  0  0  0  0  0  0  0  0
  -26.9892  -32.5022   23.1097 C   0  0  0  0  0  0  0  0  0  0  0  0
  -23.0642   -9.8884   19.9401 C   0  0  0  0  0  0  0  0  0  0  0  0
  -23.8403   -9.8760   22.2280 C   0  0  0  0  0  0  0  0  0  0  0  0
  -25.7218  -33.9957   21.7029 C   0  0  0  0  0  0  0  0  0  0  0  0
  -26.0819  -31.4792   22.8362 C   0  0  0  0  0  0  0  0  0  0  0  0
  -28.3678  -27.0817   21.7963 C   0  0  0  0  0  0  0  0  0  0  0  0
  -22.3184   -8.7358   20.1869 C   0  0  0  0  0  0  0  0  0  0  0  0
  -23.0944   -8.7235   22.4748 C   0  0  0  0  0  0  0  0  0  0  0  0
  -28.8584  -26.3483   22.8757 C   0  0  0  0  0  0  0  0  0  0  0  0
  -19.8681   -7.9316   23.0944 C   0  0  0  0  0  0  0  0  0  0  0  0
  -19.1193   -7.8855   24.2703 C   0  0  0  0  0  0  0  0  0  0  0  0
  -26.9086  -24.9305   22.7907 C   0  0  0  0  0  0  0  0  0  0  0  0
  -20.3596   -5.9387   24.9837 C   0  0  0  0  0  0  0  0  0  0  0  0
  -23.8253  -10.4585   20.9607 C   0  0  0  0  0  0  0  0  0  0  0  0
  -24.1745  -12.9833   20.8568 C   0  0  0  0  0  0  0  0  0  0  0  0
  -24.8061  -32.9724   21.4113 C   0  0  0  0  0  0  0  0  0  0  0  0
  -27.1367  -26.7513   21.2120 C   0  0  0  0  0  0  0  0  0  0  0  0
  -24.9808  -31.7016   21.9918 C   0  0  0  0  0  0  0  0  0  0  0  0
  -26.4058  -25.6598   21.7024 C   0  0  0  0  0  0  0  0  0  0  0  0
  -30.5322  -18.7821   23.4847 C   0  0  0  0  0  0  0  0  0  0  0  0
  -29.6842  -19.5528   24.2722 C   0  0  0  0  0  0  0  0  0  0  0  0
  -28.3260  -19.2584   24.3155 C   0  0  0  0  0  0  0  0  0  0  0  0
  -22.3335   -8.1534   21.4542 C   0  0  0  0  0  0  0  0  0  0  0  0
  -28.1274  -25.2743   23.3749 C   0  0  0  0  0  0  0  0  0  0  0  0
  -20.8625   -6.9812   22.8630 C   0  0  0  0  0  0  0  0  0  0  0  0
  -19.3650   -6.8891   25.2150 C   0  0  0  0  0  0  0  0  0  0  0  0
  -21.1083   -5.9848   23.8077 C   0  0  0  0  0  0  0  0  0  0  0  0
  -24.5964  -11.6487   20.7062 C   0  0  0  0  0  0  0  0  0  0  0  0
  -29.9768  -17.7364   22.7650 C   0  0  0  0  0  0  0  0  0  0  0  0
  -27.8693  -18.1915   23.5586 C   0  0  0  0  0  0  0  0  0  0  0  0
  -25.2665  -13.7319   20.4912 C   0  0  0  0  0  0  0  0  0  0  0  0
  -22.9087  -13.5001   21.2885 C   0  0  0  0  0  0  0  0  0  0  0  0
  -24.3555  -28.2457   20.8436 C   0  0  0  0  0  0  0  0  0  0  0  0
  -23.6254  -25.6255   19.0762 C   0  0  0  0  0  0  0  0  0  0  0  0
  -24.2160  -22.3341   18.3944 C   0  0  0  0  0  0  0  0  0  0  0  0
  -30.7547  -14.7319   20.6481 C   0  0  0  0  0  0  0  0  0  0  0  0
  -23.6201  -33.2876   20.5345 C   0  0  0  0  0  0  0  0  0  0  0  0
  -26.6341  -27.5358   20.0311 C   0  0  0  0  0  0  0  0  0  0  0  0
  -25.0882  -25.2515   21.0975 C   0  0  0  0  0  0  0  0  0  0  0  0
  -22.9130  -32.0462   19.9969 C   0  0  0  0  0  0  0  0  0  0  0  0
  -29.5924  -12.3687   18.2520 C   0  0  0  0  0  0  0  0  0  0  0  0
  -32.4460  -20.4539   23.0195 C   0  0  0  0  0  0  0  0  0  0  0  0
  -32.6307  -19.3101   22.0720 C   0  0  0  0  0  0  0  0  0  0  0  0
  -22.6953  -31.0301   21.1136 C   0  0  0  0  0  0  0  0  0  0  0  0
  -28.1571  -12.0765   18.6930 C   0  0  0  0  0  0  0  0  0  0  0  0
  -30.5188  -12.5778   19.4480 C   0  0  0  0  0  0  0  0  0  0  0  0
  -28.6293  -13.3047   20.8534 C   0  0  0  0  0  0  0  0  0  0  0  0
  -31.9947  -19.0734   23.4159 C   0  0  0  0  0  0  0  0  0  0  0  0
  -24.0320  -30.5595   21.6995 C   0  0  1  0  0  0  0  0  0  0  0  0
  -25.1239  -27.4301   19.8426 C   0  0  1  0  0  0  0  0  0  0  0  0
  -27.6462  -13.1419   19.6814 C   0  0  2  0  0  0  0  0  0  0  0  0
  -27.3904  -20.0685   25.1490 C   0  0  0  0  0  0  0  0  0  0  0  0
  -26.4199  -17.8288   23.5621 C   0  0  0  0  0  0  0  0  0  0  0  0
  -23.4360  -20.4562   16.9239 C   0  0  0  0  0  0  0  0  0  0  0  0
  -21.1400  -25.2990   20.8158 C   0  0  0  0  0  0  0  0  0  0  0  0
  -20.9323  -22.9562   19.9575 C   0  0  0  0  0  0  0  0  0  0  0  0
  -20.7696  -24.8802   18.3782 C   0  0  0  0  0  0  0  0  0  0  0  0
  -26.8816  -22.0554   17.1390 C   0  0  0  0  0  0  0  0  0  0  0  0
  -30.2303  -20.6990   25.0715 C   0  0  0  0  0  0  0  0  0  0  0  0
  -30.8363  -16.8731   21.9002 C   0  0  0  0  0  0  0  0  0  0  0  0
  -30.3826  -23.1831   25.2833 C   0  0  0  0  0  0  0  0  0  0  0  0
  -30.0212  -24.4697   24.5674 C   0  0  0  0  0  0  0  0  0  1  0  0
  -23.0162  -24.2752   19.3675 C   0  0  1  0  0  0  0  0  0  0  0  0
  -24.4265  -21.5991   17.0829 C   0  0  2  0  0  0  0  0  0  0  0  0
  -21.4884  -24.3613   19.6426 C   0  0  0  0  0  0  0  0  0  0  0  0
  -25.8579  -11.5519   20.2783 N   0  0  0  0  0  0  0  0  0  0  0  0
  -28.6625  -17.4201   22.7817 N   0  0  0  0  0  0  0  0  0  0  0  0
  -26.2381  -12.8352   20.1567 N   0  0  0  0  0  0  0  0  0  0  0  0
  -24.6360  -26.0536   19.9487 N   0  0  0  0  0  0  0  0  0  0  0  0
  -29.9779  -13.6015   20.3454 N   0  0  0  0  0  0  0  0  0  0  0  0
  -25.4807  -15.0632   20.4265 N   0  0  0  0  0  0  0  0  0  0  0  0
  -21.8962  -12.5918   21.6262 N   0  0  0  0  0  0  0  0  0  0  0  0
  -24.6570  -29.5941   20.8209 N   0  0  0  0  0  0  0  0  0  0  0  0
  -23.3736  -23.4154   18.2444 N   0  0  0  0  0  0  0  0  0  0  0  0
  -30.1646  -15.6565   21.5012 N   0  0  0  0  0  0  0  0  0  0  0  0
  -25.8057  -21.0381   17.0191 N   0  3  0  0  0  0  0  0  0  0  0  0
  -29.9068  -22.0267   24.4829 N   0  3  0  0  0  0  0  0  0  0  0  0
  -22.6769  -14.7310   21.3565 O   0  0  0  0  0  0  0  0  0  0  0  0
  -23.5478  -27.6928   21.5809 O   0  0  0  0  0  0  0  0  0  0  0  0
  -23.2245  -26.2732   18.1060 O   0  0  0  0  0  0  0  0  0  0  0  0
  -24.7430  -21.9819   19.4474 O   0  0  0  0  0  0  0  0  0  0  0  0
  -31.8880  -14.9071   20.1877 O   0  0  0  0  0  0  0  0  0  0  0  0
  -21.6056   -7.0288   21.6954 O   0  0  0  0  0  0  0  0  0  0  0  0
  -28.6036  -24.5571   24.4289 O   0  0  0  0  0  0  0  0  0  1  0  0
  -18.6470   -6.8459   26.3449 F   0  0  0  0  0  0  0  0  0  0  0  0
  -22.0632   -5.0698   23.5916 F   0  0  0  0  0  0  0  0  0  0  0  0
  1  2  1  0  0  0  0
  1  5  2  0  0  0  0
  2  6  2  0  0  0  0
  3  8  2  0  0  0  0
  3 15  1  0  0  0  0
  4  9  1  0  0  0  0
  4 15  2  0  0  0  0
  5 17  1  0  0  0  0
  6 19  1  0  0  0  0
  7 10  2  0  0  0  0
  7 18  1  0  0  0  0
  8 24  1  0  0  0  0
  9 24  2  0  0  0  0
 10 25  1  0  0  0  0
 11 12  2  0  0  0  0
 11 26  1  0  0  0  0
 12 27  1  0  0  0  0
 13 20  1  0  0  0  0
 13 25  2  0  0  0  0
 14 27  2  0  0  0  0
 14 28  1  0  0  0  0
 15 29  1  0  0  0  0
 16 29  1  0  0  0  0
 16 32  2  0  0  0  0
 16 33  1  0  0  0  0
 17 19  2  0  0  0  0
 17 38  1  0  0  0  0
 18 20  2  0  0  0  0
 18 39  1  0  0  0  0
 19 50  1  0  0  0  0
 20 40  1  0  0  0  0
 21 22  2  0  0  0  0
 21 30  1  0  0  0  0
 21 49  1  0  0  0  0
 22 23  1  0  0  0  0
 22 60  1  0  0  0  0
 23 31  2  0  0  0  0
 23 53  1  0  0  0  0
 24 84  1  0  0  0  0
 25 85  1  0  0  0  0
 26 28  2  0  0  0  0
 26 84  1  0  0  0  0
 27 86  1  0  0  0  0
 28 87  1  0  0  0  0
 29 67  2  0  0  0  0
 30 61  1  0  0  0  0
 30 68  2  0  0  0  0
 31 54  1  0  0  0  0
 31 68  1  0  0  0  0
 32 69  1  0  0  0  0
 32 72  1  0  0  0  0
 33 73  1  0  0  0  0
 33 79  2  0  0  0  0
 34 51  1  0  0  0  0
 34 74  1  0  0  0  0
 34 80  2  0  0  0  0
 35 64  1  0  0  0  0
 35 70  1  0  0  0  0
 35 81  2  0  0  0  0
 36 65  1  0  0  0  0
 36 75  1  0  0  0  0
 36 82  2  0  0  0  0
 37 71  1  0  0  0  0
 37 76  1  0  0  0  0
 37 83  2  0  0  0  0
 38 41  1  0  0  0  0
 39 51  1  0  0  0  0
 40 70  1  0  0  0  0
 41 45  1  0  0  0  0
 42 46  1  0  0  0  0
 42 47  1  0  0  0  0
 43 44  1  0  0  0  0
 43 49  1  0  0  0  0
 44 49  1  0  0  0  0
 45 50  1  0  0  0  0
 46 52  1  0  0  0  0
 47 71  1  0  0  0  0
 48 52  1  0  0  0  0
 48 71  1  0  0  0  0
 50 74  1  0  0  0  0
 51 70  1  0  0  0  0
 52 69  1  0  0  0  0
 55 65  1  0  0  0  0
 56 66  1  0  0  0  0
 57 66  1  0  0  0  0
 58 66  1  0  0  0  0
 59 77  1  0  0  0  0
 60 78  1  0  0  0  0
 61 76  1  0  0  0  0
 62 63  1  0  0  0  0
 62 78  1  0  0  0  0
 63 85  1  0  0  0  0
 64 66  1  0  0  0  0
 64 75  1  0  0  0  0
 65 77  1  0  0  0  0
 67 69  1  0  0  0  0
M  CHG  2  77   1  78   1
M  ISO  4  37 100  63 101  76 100  85 101
M  END
> <Batch ID>
0172

> <Smiles>
CNC(C)C(=O)NC(C(=O)N1Cc2cc([101O:1][101CH2:1]CNCc3c(C)c(C)nc(C[100NH:0][100C:0](=O)N4CCCC(n5nc(-c6ccc(Oc7ccc(F)cc7F)cc6)c(C(N)=O)c5N)C4)c3C3CC3)ccc2CC1C(=O)NC1CCCc2ccccc21)C(C)(C)C

> <Shape>
0.255

> <Color>
0.189

> <Negative vol penalty>
0.000

$$$$

  -OEChem-04052322403D

 89 98  0     1  0  0  0  0  0999 V2000
  -29.4176  -35.4197   25.9162 C   0  0  0  0  0  0  0  0  0  0  0  0
  -28.9766  -34.1118   26.0907 C   0  0  0  0  0  0  0  0  0  0  0  0
  -24.5280   -9.6489   21.2379 C   0  0  0  0  0  0  0  0  0  0  0  0
  -24.9148  -10.6025   23.4238 C   0  0  0  0  0  0  0  0  0  0  0  0
  -28.5757  -36.3661   25.3335 C   0  0  0  0  0  0  0  0  0  0  0  0
  -27.6930  -33.7498   25.6836 C   0  0  0  0  0  0  0  0  0  0  0  0
  -27.6173  -29.3468   23.1831 C   0  0  0  0  0  0  0  0  0  0  0  0
  -24.2468   -8.4156   21.8257 C   0  0  0  0  0  0  0  0  0  0  0  0
  -24.6336   -9.3692   24.0116 C   0  0  0  0  0  0  0  0  0  0  0  0
  -27.6969  -28.1811   23.9437 C   0  0  0  0  0  0  0  0  0  0  0  0
  -23.0751   -5.1074   22.7731 C   0  0  0  0  0  0  0  0  0  0  0  0
  -21.9617   -4.4067   22.3095 C   0  0  0  0  0  0  0  0  0  0  0  0
  -25.3078  -27.9039   23.7580 C   0  0  0  0  0  0  0  0  0  0  0  0
  -20.5353   -6.2472   22.9539 C   0  0  0  0  0  0  0  0  0  0  0  0
  -24.8620  -10.7424   22.0369 C   0  0  0  0  0  0  0  0  0  0  0  0
  -24.2406  -13.0489   21.1416 C   0  0  0  0  0  0  0  0  0  0  0  0
  -27.2846  -36.0132   24.9102 C   0  0  0  0  0  0  0  0  0  0  0  0
  -26.3788  -29.8065   22.7126 C   0  0  0  0  0  0  0  0  0  0  0  0
  -26.8326  -34.6927   25.0959 C   0  0  0  0  0  0  0  0  0  0  0  0
  -25.2155  -29.0743   22.9894 C   0  0  0  0  0  0  0  0  0  0  0  0
  -27.7276  -21.7005   23.8402 C   0  0  0  0  0  0  0  0  0  0  0  0
  -26.5669  -21.0463   24.2720 C   0  0  0  0  0  0  0  0  0  0  0  0
  -28.4518  -21.1718   22.7700 C   0  0  0  0  0  0  0  0  0  0  0  0
  -24.2996   -8.2757   23.2125 C   0  0  0  0  0  0  0  0  0  0  0  0
  -26.5418  -27.4610   24.2338 C   0  0  0  0  0  0  0  0  0  0  0  0
  -22.9186   -6.3779   23.3273 C   0  0  0  0  0  0  0  0  0  0  0  0
  -20.6918   -4.9766   22.3998 C   0  0  0  0  0  0  0  0  0  0  0  0
  -21.6487   -6.9478   23.4176 C   0  0  0  0  0  0  0  0  0  0  0  0
  -25.1531  -12.0165   21.4303 C   0  0  0  0  0  0  0  0  0  0  0  0
  -26.1734  -19.9071   23.5767 C   0  0  0  0  0  0  0  0  0  0  0  0
  -27.9745  -20.0244   22.1575 C   0  0  0  0  0  0  0  0  0  0  0  0
  -25.0082  -14.0372   20.5755 C   0  0  0  0  0  0  0  0  0  0  0  0
  -22.8257  -13.1091   21.3653 C   0  0  0  0  0  0  0  0  0  0  0  0
  -24.6434  -32.4317   23.1600 C   0  0  0  0  0  0  0  0  0  0  0  0
  -22.7611  -31.1067   20.8744 C   0  0  0  0  0  0  0  0  0  0  0  0
  -21.7185  -28.2900   19.2540 C   0  0  0  0  0  0  0  0  0  0  0  0
  -29.6260  -17.1701   20.4987 C   0  0  0  0  0  0  0  0  0  0  0  0
  -26.3937  -37.0822   24.3288 C   0  0  0  0  0  0  0  0  0  0  0  0
  -26.3132  -31.0512   21.8708 C   0  0  0  0  0  0  0  0  0  0  0  0
  -25.7342  -21.5868   25.4003 C   0  0  0  0  0  0  0  0  0  0  0  0
  -23.8641  -29.5142   22.4908 C   0  0  0  0  0  0  0  0  0  0  0  0
  -28.2265  -22.9290   24.5491 C   0  0  0  0  0  0  0  0  0  0  0  0
  -25.1832  -36.5270   23.5828 C   0  0  0  0  0  0  0  0  0  0  0  0
  -29.8007  -13.9646   18.9590 C   0  0  0  0  0  0  0  0  0  0  0  0
  -24.5053  -35.4344   24.4035 C   0  0  0  0  0  0  0  0  0  0  0  0
  -28.5357  -13.2556   19.4458 C   0  0  0  0  0  0  0  0  0  0  0  0
  -30.3974  -14.8609   20.0419 C   0  0  0  0  0  0  0  0  0  0  0  0
  -28.1932  -15.1285   21.1112 C   0  0  0  0  0  0  0  0  0  0  0  0
  -26.5079  -22.5329   26.3130 C   0  0  0  0  0  0  0  0  0  0  0  0
  -25.4559  -34.2555   24.6446 C   0  0  1  0  0  0  0  0  0  0  0  0
  -24.9349  -31.7051   21.8775 C   0  0  1  0  0  0  0  0  0  0  0  0
  -27.5237  -14.2563   20.0355 C   0  0  2  0  0  0  0  0  0  0  0  0
  -29.7132  -21.8137   22.2931 C   0  0  0  0  0  0  0  0  0  0  0  0
  -25.2031  -17.7359   24.4122 C   0  0  0  0  0  0  0  0  0  0  0  0
  -23.8890  -19.1693   22.8079 C   0  0  0  0  0  0  0  0  0  0  0  0
  -28.2580  -19.9813   19.6516 C   0  0  0  0  0  0  0  0  0  0  0  0
  -20.1441  -27.5190   17.4583 C   0  0  0  0  0  0  0  0  0  0  0  0
  -20.4138  -31.4305   22.7967 C   0  0  0  0  0  0  0  0  0  0  0  0
  -19.1202  -29.8240   21.3775 C   0  0  0  0  0  0  0  0  0  0  0  0
  -19.8965  -31.9904   20.4148 C   0  0  0  0  0  0  0  0  0  0  0  0
  -23.9351  -27.2301   17.6041 C   0  0  0  0  0  0  0  0  0  0  0  0
  -27.7900  -24.6801   26.2826 C   0  0  0  0  0  0  0  0  0  0  0  0
  -27.9111  -25.9252   25.4264 C   0  0  0  0  0  0  0  0  0  1  0  0
  -24.9234  -19.1765   23.9477 C   0  0  0  0  0  0  0  0  0  0  0  0
  -28.7109  -19.4205   21.0064 C   0  0  2  0  0  0  0  0  0  0  0  0
  -21.5825  -30.1634   20.8745 C   0  0  1  0  0  0  0  0  0  0  0  0
  -21.5584  -27.9785   17.7769 C   0  0  2  0  0  0  0  0  0  0  0  0
  -20.2783  -30.8446   21.3771 C   0  0  0  0  0  0  0  0  0  0  0  0
  -26.4047  -12.3207   21.0766 N   0  0  0  0  0  0  0  0  0  0  0  0
  -26.8496  -19.3785   22.5322 N   0  0  0  0  0  0  0  0  0  0  0  0
  -26.2840  -13.5554   20.5598 N   0  0  0  0  0  0  0  0  0  0  0  0
  -23.8510  -30.7411   21.6770 N   0  0  0  0  0  0  0  0  0  0  0  0
  -29.3868  -15.7873   20.5580 N   0  0  0  0  0  0  0  0  0  0  0  0
  -24.7095  -15.2627   20.0945 N   0  0  0  0  0  0  0  0  0  0  0  0
  -22.1952  -12.0061   21.9572 N   0  0  0  0  0  0  0  0  0  0  0  0
  -25.5495  -33.4312   23.4588 N   0  0  0  0  0  0  0  0  0  0  0  0
  -21.4917  -29.6233   19.5223 N   0  0  0  0  0  0  0  0  0  0  0  0
  -28.6143  -17.9778   21.0035 N   0  0  0  0  0  0  0  0  0  0  0  0
  -27.1990  -23.5696   25.4619 N   0  3  1  0  0  0  0  0  0  0  0  0
  -22.5053  -26.9025   17.3688 N   0  3  0  0  0  0  0  0  0  0  0  0
  -22.1380  -14.1047   21.0345 O   0  0  0  0  0  0  0  0  0  0  0  0
  -23.6677  -32.1103   23.8281 O   0  0  0  0  0  0  0  0  0  0  0  0
  -22.7192  -32.1267   20.1819 O   0  0  0  0  0  0  0  0  0  0  0  0
  -22.0114  -27.4352   20.0871 O   0  0  0  0  0  0  0  0  0  0  0  0
  -30.6620  -17.6497   20.0257 O   0  0  0  0  0  0  0  0  0  0  0  0
  -24.0251   -7.0725   23.7864 O   0  0  0  0  0  0  0  0  0  0  0  0
  -26.6166  -26.3233   24.9766 O   0  0  0  0  0  0  0  0  0  1  0  0
  -19.6228   -4.3044   21.9531 F   0  0  0  0  0  0  0  0  0  0  0  0
  -21.4923   -8.1685   23.9479 F   0  0  0  0  0  0  0  0  0  0  0  0
  1  2  1  0  0  0  0
  1  5  2  0  0  0  0
  2  6  2  0  0  0  0
  3  8  2  0  0  0  0
  3 15  1  0  0  0  0
  4  9  1  0  0  0  0
  4 15  2  0  0  0  0
  5 17  1  0  0  0  0
  6 19  1  0  0  0  0
  7 10  2  0  0  0  0
  7 18  1  0  0  0  0
  8 24  1  0  0  0  0
  9 24  2  0  0  0  0
 10 25  1  0  0  0  0
 11 12  2  0  0  0  0
 11 26  1  0  0  0  0
 12 27  1  0  0  0  0
 13 20  1  0  0  0  0
 13 25  2  0  0  0  0
 14 27  2  0  0  0  0
 14 28  1  0  0  0  0
 15 29  1  0  0  0  0
 16 29  1  0  0  0  0
 16 32  2  0  0  0  0
 16 33  1  0  0  0  0
 17 19  2  0  0  0  0
 17 38  1  0  0  0  0
 18 20  2  0  0  0  0
 18 39  1  0  0  0  0
 19 50  1  0  0  0  0
 20 41  1  0  0  0  0
 21 22  2  0  0  0  0
 21 23  1  0  0  0  0
 21 42  1  0  0  0  0
 22 30  1  0  0  0  0
 22 40  1  0  0  0  0
 23 31  2  0  0  0  0
 23 53  1  0  0  0  0
 24 86  1  0  0  0  0
 25 87  1  0  0  0  0
 26 28  2  0  0  0  0
 26 86  1  0  0  0  0
 27 88  1  0  0  0  0
 28 89  1  0  0  0  0
 29 69  2  0  0  0  0
 30 64  1  0  0  0  0
 30 70  2  0  0  0  0
 31 65  1  0  0  0  0
 31 70  1  0  0  0  0
 32 71  1  0  0  0  0
 32 74  1  0  0  0  0
 33 75  1  0  0  0  0
 33 81  2  0  0  0  0
 34 51  1  0  0  0  0
 34 76  1  0  0  0  0
 34 82  2  0  0  0  0
 35 66  1  0  0  0  0
 35 72  1  0  0  0  0
 35 83  2  0  0  0  0
 36 67  1  0  0  0  0
 36 77  1  0  0  0  0
 36 84  2  0  0  0  0
 37 73  1  0  0  0  0
 37 78  1  0  0  0  0
 37 85  2  0  0  0  0
 38 43  1  0  0  0  0
 39 51  1  0  0  0  0
 40 49  1  0  0  0  0
 41 72  1  0  0  0  0
 42 79  1  0  0  0  0
 43 45  1  0  0  0  0
 44 46  1  0  0  0  0
 44 47  1  0  0  0  0
 45 50  1  0  0  0  0
 46 52  1  0  0  0  0
 47 73  1  0  0  0  0
 48 52  1  0  0  0  0
 48 73  1  0  0  0  0
 49 79  1  0  0  0  0
 50 76  1  0  0  0  0
 51 72  1  0  0  0  0
 52 71  1  0  0  0  0
 54 64  1  0  0  0  0
 55 64  1  0  0  0  0
 56 65  1  0  0  0  0
 57 67  1  0  0  0  0
 58 68  1  0  0  0  0
 59 68  1  0  0  0  0
 60 68  1  0  0  0  0
 61 80  1  0  0  0  0
 62 63  1  0  0  0  0
 62 79  1  0  0  0  0
 63 87  1  0  0  0  0
 65 78  1  0  0  0  0
 66 68  1  0  0  0  0
 66 77  1  0  0  0  0
 67 80  1  0  0  0  0
 69 71  1  0  0  0  0
M  CHG  2  79   1  80   1
M  ISO  4  37 100  63 101  78 100  87 101
M  END
> <Batch ID>
0172

> <Smiles>
CNC(C)C(=O)NC(C(=O)N1Cc2cc([101O:1][101CH2:1]CN3CCc4c(C(C)C)nc(C(C)[100NH:0][100C:0](=O)N5CCCC(n6nc(-c7ccc(Oc8ccc(F)cc8F)cc7)c(C(N)=O)c6N)C5)c(C)c4C3)ccc2CC1C(=O)NC1CCCc2ccccc21)C(C)(C)C

> <Shape>
0.281

> <Color>
0.123

> <Negative vol penalty>
0.000

$$$$

  -OEChem-04052322403D

 88 98  0     1  0  0  0  0  0999 V2000
  -18.0016  -19.2869   20.1345 C   0  0  0  0  0  0  0  0  0  0  0  0
  -19.3804  -19.1017   20.1271 C   0  0  0  0  0  0  0  0  0  0  0  0
  -23.0391   -9.9131   20.0086 C   0  0  0  0  0  0  0  0  0  0  0  0
  -23.8514   -9.9792   22.2830 C   0  0  0  0  0  0  0  0  0  0  0  0
  -17.4490  -20.4245   19.5476 C   0  0  0  0  0  0  0  0  0  0  0  0
  -20.2074  -20.0536   19.5318 C   0  0  0  0  0  0  0  0  0  0  0  0
  -24.2550  -21.1570   22.3682 C   0  0  0  0  0  0  0  0  0  0  0  0
  -22.2913   -8.7746   20.3088 C   0  0  0  0  0  0  0  0  0  0  0  0
  -23.1035   -8.8406   22.5832 C   0  0  0  0  0  0  0  0  0  0  0  0
  -25.3088  -20.2443   22.3561 C   0  0  0  0  0  0  0  0  0  0  0  0
  -19.8861   -6.0614   20.5707 C   0  0  0  0  0  0  0  0  0  0  0  0
  -18.5692   -6.0114   20.1137 C   0  0  0  0  0  0  0  0  0  0  0  0
  -30.2826  -22.8104   24.4564 C   0  0  0  0  0  0  0  0  0  0  0  0
  -26.4914  -21.6399   20.7835 C   0  0  0  0  0  0  0  0  0  0  0  0
  -18.0513   -7.9967   21.3894 C   0  0  0  0  0  0  0  0  0  0  0  0
  -32.2017  -21.4078   24.5342 C   0  0  0  0  0  0  0  0  0  0  0  0
  -23.8193  -10.5154   20.9958 C   0  0  0  0  0  0  0  0  0  0  0  0
  -24.1800  -13.0328   20.7948 C   0  0  0  0  0  0  0  0  0  0  0  0
  -18.2704  -21.3955   18.9533 C   0  0  0  0  0  0  0  0  0  0  0  0
  -24.3067  -22.3145   21.5784 C   0  0  0  0  0  0  0  0  0  0  0  0
  -19.6652  -21.2046   18.9352 C   0  0  0  0  0  0  0  0  0  0  0  0
  -31.1230  -23.9142   24.5495 C   0  0  0  0  0  0  0  0  0  0  0  0
  -25.4380  -22.5669   20.7893 C   0  0  0  0  0  0  0  0  0  0  0  0
  -30.8242  -21.5299   24.4480 C   0  0  0  0  0  0  0  0  0  0  0  0
  -22.3234   -8.2384   21.5960 C   0  0  0  0  0  0  0  0  0  0  0  0
  -26.4260  -20.4843   21.5615 C   0  0  0  0  0  0  0  0  0  0  0  0
  -20.2856   -7.0789   21.4371 C   0  0  0  0  0  0  0  0  0  0  0  0
  -17.6518   -6.9791   20.5230 C   0  0  0  0  0  0  0  0  0  0  0  0
  -19.3682   -8.0466   21.8464 C   0  0  0  0  0  0  0  0  0  0  0  0
  -24.5925  -11.6912   20.6862 C   0  0  0  0  0  0  0  0  0  0  0  0
  -32.4871  -23.6853   24.6314 C   0  0  0  0  0  0  0  0  0  0  0  0
  -25.2700  -13.7613   20.3852 C   0  0  0  0  0  0  0  0  0  0  0  0
  -22.9240  -13.5722   21.2272 C   0  0  0  0  0  0  0  0  0  0  0  0
  -22.5711  -23.4737   19.1810 C   0  0  0  0  0  0  0  0  0  0  0  0
  -24.4901  -26.0617   19.5577 C   0  0  0  0  0  0  0  0  0  0  0  0
  -27.4661  -27.3277   20.6473 C   0  0  0  0  0  0  0  0  0  0  0  0
  -30.7936  -14.6742   20.5750 C   0  0  0  0  0  0  0  0  0  0  0  0
  -17.6239  -22.5856   18.2897 C   0  0  0  0  0  0  0  0  0  0  0  0
  -23.1733  -23.3023   21.6231 C   0  0  0  0  0  0  0  0  0  0  0  0
  -25.5514  -23.8047   19.9387 C   0  0  0  0  0  0  0  0  0  0  0  0
  -18.5954  -23.7295   18.0103 C   0  0  0  0  0  0  0  0  0  0  0  0
  -29.5627  -12.3092   18.1387 C   0  0  0  0  0  0  0  0  0  0  0  0
  -30.8719  -26.2143   25.6986 C   0  0  0  0  0  0  0  0  0  0  0  0
  -29.4969  -25.6333   25.5881 C   0  0  0  0  0  0  0  0  0  0  0  0
  -19.8777  -23.1982   17.3776 C   0  0  0  0  0  0  0  0  0  0  0  0
  -28.1339  -12.0274   18.6067 C   0  0  0  0  0  0  0  0  0  0  0  0
  -30.5066  -12.5709   19.3114 C   0  0  0  0  0  0  0  0  0  0  0  0
  -28.9303  -16.2236   21.5692 C   0  0  0  0  0  0  0  0  0  0  0  0
  -30.9361  -16.7933   21.9916 C   0  0  0  0  0  0  0  0  0  0  0  0
  -28.6295  -13.3251   20.7123 C   0  0  0  0  0  0  0  0  0  0  0  0
  -30.5406  -25.2872   24.5588 C   0  0  0  0  0  0  0  0  0  0  0  0
  -20.5970  -22.2268   18.3211 C   0  0  1  0  0  0  0  0  0  0  0  0
  -23.1077  -24.1929   20.3861 C   0  0  1  0  0  0  0  0  0  0  0  0
  -29.6362  -17.5803   21.7527 C   0  0  0  0  0  0  0  0  0  0  0  0
  -27.6329  -13.1284   19.5604 C   0  0  2  0  0  0  0  0  0  0  0  0
  -29.1942  -29.0582   21.2096 C   0  0  0  0  0  0  0  0  0  0  0  0
  -25.1341  -25.8611   16.5820 C   0  0  0  0  0  0  0  0  0  0  0  0
  -27.0962  -27.3654   16.9764 C   0  0  0  0  0  0  0  0  0  0  0  0
  -24.7844  -28.1917   17.4189 C   0  0  0  0  0  0  0  0  0  0  0  0
  -26.3765  -27.6975   23.3740 C   0  0  0  0  0  0  0  0  0  0  0  0
  -29.9455  -20.3178   24.3496 C   0  0  0  0  0  0  0  0  0  0  0  0
  -27.6844  -18.8458   22.7396 C   0  0  0  0  0  0  0  0  0  1  0  0
  -25.8177  -26.5002   18.9883 C   0  0  1  0  0  0  0  0  0  0  0  0
  -27.7933  -28.5415   21.4982 C   0  0  2  0  0  0  0  0  0  0  0  0
  -29.1515  -18.4471   22.8974 C   0  0  2  0  0  0  0  0  0  0  0  0
  -25.7054  -26.9552   17.5059 C   0  0  0  0  0  0  0  0  0  0  0  0
  -33.0502  -22.4562   24.6260 N   0  0  0  0  0  0  0  0  0  0  0  0
  -25.8465  -11.5716   20.2423 N   0  0  0  0  0  0  0  0  0  0  0  0
  -26.2314  -12.8474   20.0683 N   0  0  0  0  0  0  0  0  0  0  0  0
  -24.4145  -24.7373   20.0117 N   0  0  0  0  0  0  0  0  0  0  0  0
  -29.9691  -13.6147   20.1878 N   0  0  0  0  0  0  0  0  0  0  0  0
  -30.2570  -15.6600   21.3694 N   0  0  0  0  0  0  0  0  0  0  0  0
  -33.3497  -24.8062   24.7257 N   0  0  0  0  0  0  0  0  0  0  0  0
  -25.4901  -15.0881   20.2689 N   0  0  0  0  0  0  0  0  0  0  0  0
  -21.9122  -12.6826   21.6136 N   0  0  0  0  0  0  0  0  0  0  0  0
  -21.3022  -22.9546   19.3543 N   0  0  0  0  0  0  0  0  0  0  0  0
  -26.3303  -27.5253   19.8909 N   0  0  0  0  0  0  0  0  0  0  0  0
  -27.7082  -28.1976   22.9457 N   0  3  0  0  0  0  0  0  0  0  0  0
  -29.9761  -19.6842   23.0064 N   0  3  0  0  0  0  0  0  0  0  0  0
  -22.6997  -14.8061   21.2542 O   0  0  0  0  0  0  0  0  0  0  0  0
  -23.2568  -23.3967   18.1682 O   0  0  0  0  0  0  0  0  0  0  0  0
  -23.5567  -26.8668   19.6048 O   0  0  0  0  0  0  0  0  0  0  0  0
  -28.1518  -26.3076   20.6504 O   0  0  0  0  0  0  0  0  0  0  0  0
  -31.9699  -14.7566   20.1971 O   0  0  0  0  0  0  0  0  0  0  0  0
  -21.5936   -7.1276   21.8893 O   0  0  0  0  0  0  0  0  0  0  0  0
  -27.4630  -19.5886   21.5472 O   0  0  0  0  0  0  0  0  0  1  0  0
  -16.3876   -6.9319   20.0829 F   0  0  0  0  0  0  0  0  0  0  0  0
  -19.7464   -9.0273   22.6777 F   0  0  0  0  0  0  0  0  0  0  0  0
  1  2  1  0  0  0  0
  1  5  2  0  0  0  0
  2  6  2  0  0  0  0
  3  8  2  0  0  0  0
  3 17  1  0  0  0  0
  4  9  1  0  0  0  0
  4 17  2  0  0  0  0
  5 19  1  0  0  0  0
  6 21  1  0  0  0  0
  7 10  2  0  0  0  0
  7 20  1  0  0  0  0
  8 25  1  0  0  0  0
  9 25  2  0  0  0  0
 10 26  1  0  0  0  0
 11 12  2  0  0  0  0
 11 27  1  0  0  0  0
 12 28  1  0  0  0  0
 13 22  1  0  0  0  0
 13 24  2  0  0  0  0
 14 23  1  0  0  0  0
 14 26  2  0  0  0  0
 15 28  2  0  0  0  0
 15 29  1  0  0  0  0
 16 24  1  0  0  0  0
 16 67  2  0  0  0  0
 17 30  1  0  0  0  0
 18 30  1  0  0  0  0
 18 32  2  0  0  0  0
 18 33  1  0  0  0  0
 19 21  2  0  0  0  0
 19 38  1  0  0  0  0
 20 23  2  0  0  0  0
 20 39  1  0  0  0  0
 21 52  1  0  0  0  0
 22 31  2  0  0  0  0
 22 51  1  0  0  0  0
 23 40  1  0  0  0  0
 24 61  1  0  0  0  0
 25 85  1  0  0  0  0
 26 86  1  0  0  0  0
 27 29  2  0  0  0  0
 27 85  1  0  0  0  0
 28 87  1  0  0  0  0
 29 88  1  0  0  0  0
 30 68  2  0  0  0  0
 31 67  1  0  0  0  0
 31 73  1  0  0  0  0
 32 69  1  0  0  0  0
 32 74  1  0  0  0  0
 33 75  1  0  0  0  0
 33 80  2  0  0  0  0
 34 53  1  0  0  0  0
 34 76  1  0  0  0  0
 34 81  2  0  0  0  0
 35 63  1  0  0  0  0
 35 70  1  0  0  0  0
 35 82  2  0  0  0  0
 36 64  1  0  0  0  0
 36 77  1  0  0  0  0
 36 83  2  0  0  0  0
 37 71  1  0  0  0  0
 37 72  1  0  0  0  0
 37 84  2  0  0  0  0
 38 41  1  0  0  0  0
 39 53  1  0  0  0  0
 40 70  1  0  0  0  0
 41 45  1  0  0  0  0
 42 46  1  0  0  0  0
 42 47  1  0  0  0  0
 43 44  1  0  0  0  0
 43 51  1  0  0  0  0
 44 51  1  0  0  0  0
 45 52  1  0  0  0  0
 46 55  1  0  0  0  0
 47 71  1  0  0  0  0
 48 54  1  0  0  0  0
 48 72  1  0  0  0  0
 49 54  1  0  0  0  0
 49 72  1  0  0  0  0
 50 55  1  0  0  0  0
 50 71  1  0  0  0  0
 52 76  1  0  0  0  0
 53 70  1  0  0  0  0
 54 65  1  0  0  0  0
 55 69  1  0  0  0  0
 56 64  1  0  0  0  0
 57 66  1  0  0  0  0
 58 66  1  0  0  0  0
 59 66  1  0  0  0  0
 60 78  1  0  0  0  0
 61 79  1  0  0  0  0
 62 65  1  0  0  0  0
 62 86  1  0  0  0  0
 63 66  1  0  0  0  0
 63 77  1  0  0  0  0
 64 78  1  0  0  0  0
 65 79  1  0  0  0  0
 68 69  1  0  0  0  0
M  CHG  2  78   1  79   1
M  ISO  4  37 100  62 101  72 100  86 101
M  END
> <Batch ID>
0172

> <Smiles>
CNC(C)C(=O)NC(C(=O)N1Cc2cc([101O:1][101CH2:1]C(NCc3cnc(N)c(C4CC4)c3)C3C[100N:0]([100C:0](=O)N4CCCC(n5nc(-c6ccc(Oc7ccc(F)cc7F)cc6)c(C(N)=O)c5N)C4)C3)ccc2CC1C(=O)NC1CCCc2ccccc21)C(C)(C)C

> <Shape>
0.196

> <Color>
0.188

> <Negative vol penalty>
0.000

$$$$

  -OEChem-04052322403D

 83 92  0     1  0  0  0  0  0999 V2000
  -17.3942  -30.7416   17.2325 C   0  0  0  0  0  0  0  0  0  0  0  0
  -17.6720  -29.3785   17.2183 C   0  0  0  0  0  0  0  0  0  0  0  0
  -23.0105   -9.9110   19.9932 C   0  0  0  0  0  0  0  0  0  0  0  0
  -23.8538   -9.9236   22.2572 C   0  0  0  0  0  0  0  0  0  0  0  0
  -18.2160  -31.6119   17.9475 C   0  0  0  0  0  0  0  0  0  0  0  0
  -18.7724  -28.8850   17.9183 C   0  0  0  0  0  0  0  0  0  0  0  0
  -20.9368  -23.1135   21.5682 C   0  0  0  0  0  0  0  0  0  0  0  0
  -22.2752   -8.7593   20.2734 C   0  0  0  0  0  0  0  0  0  0  0  0
  -23.1185   -8.7719   22.5375 C   0  0  0  0  0  0  0  0  0  0  0  0
  -21.9915  -22.2030   21.6169 C   0  0  0  0  0  0  0  0  0  0  0  0
  -23.3857   -5.4481   21.9792 C   0  0  0  0  0  0  0  0  0  0  0  0
  -24.0261   -4.4241   22.6770 C   0  0  0  0  0  0  0  0  0  0  0  0
  -23.2952  -23.7902   22.8820 C   0  0  0  0  0  0  0  0  0  0  0  0
  -22.3884   -4.6042   24.4442 C   0  0  0  0  0  0  0  0  0  0  0  0
  -25.2722  -18.5014   22.8025 C   0  0  0  0  0  0  0  0  0  0  0  0
  -23.7999  -10.4931   20.9850 C   0  0  0  0  0  0  0  0  0  0  0  0
  -24.1395  -13.0176   20.8455 C   0  0  0  0  0  0  0  0  0  0  0  0
  -19.3215  -31.1276   18.6645 C   0  0  0  0  0  0  0  0  0  0  0  0
  -21.0576  -24.3755   22.1676 C   0  0  0  0  0  0  0  0  0  0  0  0
  -19.6105  -29.7498   18.6424 C   0  0  0  0  0  0  0  0  0  0  0  0
  -22.2397  -24.7139   22.8416 C   0  0  0  0  0  0  0  0  0  0  0  0
  -25.2672  -19.5448   21.8992 C   0  0  0  0  0  0  0  0  0  0  0  0
  -22.3292   -8.1898   21.5455 C   0  0  0  0  0  0  0  0  0  0  0  0
  -23.1720  -22.5424   22.2714 C   0  0  0  0  0  0  0  0  0  0  0  0
  -22.2467   -6.0502   22.5139 C   0  0  0  0  0  0  0  0  0  0  0  0
  -23.5274   -4.0022   23.9095 C   0  0  0  0  0  0  0  0  0  0  0  0
  -21.7480   -5.6283   23.7463 C   0  0  0  0  0  0  0  0  0  0  0  0
  -24.5601  -11.6825   20.6960 C   0  0  0  0  0  0  0  0  0  0  0  0
  -26.4513  -19.7538   21.2221 C   0  0  0  0  0  0  0  0  0  0  0  0
  -25.2183  -13.7649   20.4404 C   0  0  0  0  0  0  0  0  0  0  0  0
  -27.4391  -18.0208   22.3120 C   0  0  0  0  0  0  0  0  0  0  0  0
  -22.8857  -13.5359   21.3091 C   0  0  0  0  0  0  0  0  0  0  0  0
  -20.9852  -27.3743   21.1164 C   0  0  0  0  0  0  0  0  0  0  0  0
  -21.1179  -28.0753   24.2808 C   0  0  0  0  0  0  0  0  0  0  0  0
  -21.9931  -27.0965   27.4308 C   0  0  0  0  0  0  0  0  0  0  0  0
  -30.7609  -14.6069   20.7633 C   0  0  0  0  0  0  0  0  0  0  0  0
  -20.2083  -32.1128   19.3840 C   0  0  0  0  0  0  0  0  0  0  0  0
  -19.9009  -25.3361   22.1292 C   0  0  0  0  0  0  0  0  0  0  0  0
  -22.4123  -26.0482   23.5187 C   0  0  0  0  0  0  0  0  0  0  0  0
  -21.1374  -31.4626   20.4059 C   0  0  0  0  0  0  0  0  0  0  0  0
  -29.4973  -12.4166   18.0984 C   0  0  0  0  0  0  0  0  0  0  0  0
  -21.8143  -30.2341   19.8063 C   0  0  0  0  0  0  0  0  0  0  0  0
  -28.0781  -12.1022   18.5786 C   0  0  0  0  0  0  0  0  0  0  0  0
  -30.0288  -17.8181   22.3000 C   0  0  0  0  0  0  0  0  0  0  0  0
  -30.4548  -12.6688   19.2617 C   0  0  0  0  0  0  0  0  0  0  0  0
  -30.9724  -16.6316   22.1845 C   0  0  0  0  0  0  0  0  0  0  0  0
  -28.7482  -15.9179   21.6432 C   0  0  0  0  0  0  0  0  0  0  0  0
  -28.5814  -13.3456   20.7108 C   0  0  0  0  0  0  0  0  0  0  0  0
  -20.7806  -29.1732   19.4096 C   0  0  1  0  0  0  0  0  0  0  0  0
  -28.6629  -17.1615   22.5439 C   0  0  2  0  0  0  0  0  0  0  0  0
  -20.3231  -26.7881   22.3311 C   0  0  1  0  0  0  0  0  0  0  0  0
  -27.5735  -13.1718   19.5670 C   0  0  2  0  0  0  0  0  0  0  0  0
  -26.5630  -20.8548   20.2196 C   0  0  0  0  0  0  0  0  0  0  0  0
  -22.0139  -27.8988   29.8085 C   0  0  0  0  0  0  0  0  0  0  0  0
  -23.5251  -29.8445   23.6602 C   0  0  0  0  0  0  0  0  0  0  0  0
  -24.0669  -29.8450   26.1045 C   0  0  0  0  0  0  0  0  0  0  0  0
  -21.9126  -30.8167   25.3061 C   0  0  0  0  0  0  0  0  0  0  0  0
  -20.2090  -24.9042   28.3081 C   0  0  0  0  0  0  0  0  0  0  0  0
  -24.0532  -20.3739   21.6888 C   0  0  0  0  0  0  0  0  0  1  0  0
  -22.2265  -28.3082   25.2786 C   0  0  1  0  0  0  0  0  0  0  0  0
  -21.2357  -27.1388   28.7457 C   0  0  2  0  0  0  0  0  0  0  0  0
  -22.9305  -29.6791   25.0730 C   0  0  0  0  0  0  0  0  0  0  0  0
  -26.3444  -17.7162   23.0347 N   0  0  0  0  0  0  0  0  0  0  0  0
  -25.8088  -11.5841   20.2319 N   0  0  0  0  0  0  0  0  0  0  0  0
  -27.5609  -19.0083   21.4045 N   0  0  0  0  0  0  0  0  0  0  0  0
  -26.1819  -12.8670   20.0863 N   0  0  0  0  0  0  0  0  0  0  0  0
  -21.2551  -26.9556   23.4481 N   0  0  0  0  0  0  0  0  0  0  0  0
  -29.9067  -13.6691   20.1754 N   0  0  0  0  0  0  0  0  0  0  0  0
  -30.1717  -15.5761   21.5792 N   0  0  0  0  0  0  0  0  0  0  0  0
  -25.4272  -15.0959   20.3559 N   0  0  0  0  0  0  0  0  0  0  0  0
  -21.8859  -12.6287   21.6858 N   0  0  0  0  0  0  0  0  0  0  0  0
  -20.3166  -28.4576   20.5788 N   0  0  0  0  0  0  0  0  0  0  0  0
  -21.6305  -28.1346   26.5989 N   0  0  0  0  0  0  0  0  0  0  0  0
  -20.9860  -25.7567   29.2443 N   0  3  0  0  0  0  0  0  0  0  0  0
  -22.6528  -14.7669   21.3716 O   0  0  0  0  0  0  0  0  0  0  0  0
  -22.0265  -26.8814   20.6987 O   0  0  0  0  0  0  0  0  0  0  0  0
  -20.1618  -28.8539   24.2464 O   0  0  0  0  0  0  0  0  0  0  0  0
  -22.8261  -26.2314   27.1694 O   0  0  0  0  0  0  0  0  0  0  0  0
  -31.9751  -14.6078   20.5255 O   0  0  0  0  0  0  0  0  0  0  0  0
  -21.6116   -7.0661   21.8195 O   0  0  0  0  0  0  0  0  0  0  0  0
  -24.2226  -21.6391   22.3208 O   0  0  0  0  0  0  0  0  0  1  0  0
  -24.1416   -3.0178   24.5788 F   0  0  0  0  0  0  0  0  0  0  0  0
  -20.6535   -6.2021   24.2645 F   0  0  0  0  0  0  0  0  0  0  0  0
  1  2  1  0  0  0  0
  1  5  2  0  0  0  0
  2  6  2  0  0  0  0
  3  8  2  0  0  0  0
  3 16  1  0  0  0  0
  4  9  1  0  0  0  0
  4 16  2  0  0  0  0
  5 18  1  0  0  0  0
  6 20  1  0  0  0  0
  7 10  2  0  0  0  0
  7 19  1  0  0  0  0
  8 23  1  0  0  0  0
  9 23  2  0  0  0  0
 10 24  1  0  0  0  0
 11 12  2  0  0  0  0
 11 25  1  0  0  0  0
 12 26  1  0  0  0  0
 13 21  1  0  0  0  0
 13 24  2  0  0  0  0
 14 26  2  0  0  0  0
 14 27  1  0  0  0  0
 15 22  1  0  0  0  0
 15 63  2  0  0  0  0
 16 28  1  0  0  0  0
 17 28  1  0  0  0  0
 17 30  2  0  0  0  0
 17 32  1  0  0  0  0
 18 20  2  0  0  0  0
 18 37  1  0  0  0  0
 19 21  2  0  0  0  0
 19 38  1  0  0  0  0
 20 49  1  0  0  0  0
 21 39  1  0  0  0  0
 22 29  2  0  0  0  0
 22 59  1  0  0  0  0
 23 80  1  0  0  0  0
 24 81  1  0  0  0  0
 25 27  2  0  0  0  0
 25 80  1  0  0  0  0
 26 82  1  0  0  0  0
 27 83  1  0  0  0  0
 28 64  2  0  0  0  0
 29 53  1  0  0  0  0
 29 65  1  0  0  0  0
 30 66  1  0  0  0  0
 30 70  1  0  0  0  0
 31 50  1  0  0  0  0
 31 63  1  0  0  0  0
 31 65  2  0  0  0  0
 32 71  1  0  0  0  0
 32 75  2  0  0  0  0
 33 51  1  0  0  0  0
 33 72  1  0  0  0  0
 33 76  2  0  0  0  0
 34 60  1  0  0  0  0
 34 67  1  0  0  0  0
 34 77  2  0  0  0  0
 35 61  1  0  0  0  0
 35 73  1  0  0  0  0
 35 78  2  0  0  0  0
 36 68  1  0  0  0  0
 36 69  1  0  0  0  0
 36 79  2  0  0  0  0
 37 40  1  0  0  0  0
 38 51  1  0  0  0  0
 39 67  1  0  0  0  0
 40 42  1  0  0  0  0
 41 43  1  0  0  0  0
 41 45  1  0  0  0  0
 42 49  1  0  0  0  0
 43 52  1  0  0  0  0
 44 46  1  0  0  0  0
 44 50  1  0  0  0  0
 45 68  1  0  0  0  0
 46 69  1  0  0  0  0
 47 50  1  0  0  0  0
 47 69  1  0  0  0  0
 48 52  1  0  0  0  0
 48 68  1  0  0  0  0
 49 72  1  0  0  0  0
 51 67  1  0  0  0  0
 52 66  1  0  0  0  0
 54 61  1  0  0  0  0
 55 62  1  0  0  0  0
 56 62  1  0  0  0  0
 57 62  1  0  0  0  0
 58 74  1  0  0  0  0
 59 81  1  0  0  0  0
 60 62  1  0  0  0  0
 60 73  1  0  0  0  0
 61 74  1  0  0  0  0
 64 66  1  0  0  0  0
M  CHG  1  74   1
M  ISO  4  36 100  59 101  69 100  81 101
M  END
> <Batch ID>
0172

> <Smiles>
CNC(C)C(=O)NC(C(=O)N1Cc2cc([101O:1][101CH2:1]c3cnc(C4CC[100N:0]([100C:0](=O)N5CCCC(n6nc(-c7ccc(Oc8ccc(F)cc8F)cc7)c(C(N)=O)c6N)C5)C4)nc3C)ccc2CC1C(=O)NC1CCCc2ccccc21)C(C)(C)C

> <Shape>
0.240

> <Color>
0.189

> <Negative vol penalty>
0.000

$$$$

  -OEChem-04052322403D

 91100  0     1  0  0  0  0  0999 V2000
  -19.2846  -32.2549   25.3293 C   0  0  0  0  0  0  0  0  0  0  0  0
  -20.2444  -31.2864   25.6054 C   0  0  0  0  0  0  0  0  0  0  0  0
  -29.8954  -23.5681   19.0369 C   0  0  0  0  0  0  0  0  0  0  0  0
  -27.9907  -23.2588   20.4908 C   0  0  0  0  0  0  0  0  0  0  0  0
  -18.1694  -31.9295   24.5584 C   0  0  0  0  0  0  0  0  0  0  0  0
  -20.0889  -29.9916   25.1117 C   0  0  0  0  0  0  0  0  0  0  0  0
  -23.9213  -24.4231   22.7409 C   0  0  0  0  0  0  0  0  0  0  0  0
  -29.7762  -24.9509   19.1750 C   0  0  0  0  0  0  0  0  0  0  0  0
  -27.8716  -24.6417   20.6289 C   0  0  0  0  0  0  0  0  0  0  0  0
  -24.0763  -23.0539   22.9530 C   0  0  0  0  0  0  0  0  0  0  0  0
  -26.6457  -27.2287   18.8301 C   0  0  0  0  0  0  0  0  0  0  0  0
  -25.3699  -27.7828   18.7260 C   0  0  0  0  0  0  0  0  0  0  0  0
  -25.7047  -15.1339   19.9818 C   0  0  0  0  0  0  0  0  0  0  0  0
  -22.1492  -22.6271   21.5662 C   0  0  0  0  0  0  0  0  0  0  0  0
  -26.1116  -12.6616   18.7551 C   0  0  0  0  0  0  0  0  0  0  0  0
  -25.5653  -28.6544   20.9709 C   0  0  0  0  0  0  0  0  0  0  0  0
  -29.0025  -22.7220   19.6948 C   0  0  0  0  0  0  0  0  0  0  0  0
  -29.8807  -20.4202   20.3570 C   0  0  0  0  0  0  0  0  0  0  0  0
  -18.0050  -30.6326   24.0469 C   0  0  0  0  0  0  0  0  0  0  0  0
  -22.8708  -24.9060   21.9474 C   0  0  0  0  0  0  0  0  0  0  0  0
  -18.9698  -29.6482   24.3344 C   0  0  0  0  0  0  0  0  0  0  0  0
  -24.6908  -14.5609   19.2142 C   0  0  0  0  0  0  0  0  0  0  0  0
  -21.9846  -24.0027   21.3435 C   0  0  0  0  0  0  0  0  0  0  0  0
  -26.9221  -14.4707   20.1360 C   0  0  0  0  0  0  0  0  0  0  0  0
  -24.8942  -13.3248   18.6008 C   0  0  0  0  0  0  0  0  0  0  0  0
  -27.1256  -13.2346   19.5227 C   0  0  0  0  0  0  0  0  0  0  0  0
  -28.7644  -25.4878   19.9710 C   0  0  0  0  0  0  0  0  0  0  0  0
  -23.1884  -22.1558   22.3679 C   0  0  0  0  0  0  0  0  0  0  0  0
  -27.3813  -27.3873   20.0047 C   0  0  0  0  0  0  0  0  0  0  0  0
  -24.8297  -28.4958   19.7964 C   0  0  0  0  0  0  0  0  0  0  0  0
  -26.8411  -28.1002   21.0750 C   0  0  0  0  0  0  0  0  0  0  0  0
  -29.1247  -21.2934   19.5520 C   0  0  0  0  0  0  0  0  0  0  0  0
  -29.6654  -19.1780   19.8121 C   0  0  0  0  0  0  0  0  0  0  0  0
  -30.7038  -20.7065   21.4955 C   0  0  0  0  0  0  0  0  0  0  0  0
  -20.3593  -26.7875   22.4533 C   0  0  0  0  0  0  0  0  0  0  0  0
  -19.9885  -26.4997   19.2436 C   0  0  0  0  0  0  0  0  0  0  0  0
  -20.5744  -24.6899   16.4102 C   0  0  0  0  0  0  0  0  0  0  0  0
  -25.2036  -16.8734   16.5513 C   0  0  0  0  0  0  0  0  0  0  0  0
  -16.7592  -30.3158   23.2581 C   0  0  0  0  0  0  0  0  0  0  0  0
  -22.7333  -26.3844   21.7066 C   0  0  0  0  0  0  0  0  0  0  0  0
  -20.8523  -24.4689   20.4664 C   0  0  0  0  0  0  0  0  0  0  0  0
  -16.8574  -29.0187   22.4592 C   0  0  0  0  0  0  0  0  0  0  0  0
  -28.6458  -17.0376   15.6563 C   0  0  0  0  0  0  0  0  0  0  0  0
  -17.4295  -27.9006   23.3248 C   0  0  0  0  0  0  0  0  0  0  0  0
  -29.2271  -18.0681   16.6259 C   0  0  0  0  0  0  0  0  0  0  0  0
  -22.3090  -17.1874   18.9860 C   0  0  0  0  0  0  0  0  0  0  0  0
  -27.2275  -17.4051   15.2256 C   0  0  0  0  0  0  0  0  0  0  0  0
  -26.8680  -18.6786   17.3047 C   0  0  0  0  0  0  0  0  0  0  0  0
  -23.3561  -15.3083   19.0581 C   0  0  1  0  0  0  0  0  0  0  0  0
  -18.8490  -28.2391   23.7960 C   0  0  1  0  0  0  0  0  0  0  0  0
  -21.3215  -26.7946   21.2993 C   0  0  1  0  0  0  0  0  0  0  0  0
  -22.9847  -16.3892   20.1282 C   0  0  2  0  0  0  0  0  0  0  0  0
  -28.2761  -18.3219   17.8110 C   0  0  2  0  0  0  0  0  0  0  0  0
  -23.2299  -16.4447   17.9934 C   0  0  2  0  0  0  0  0  0  0  0  0
  -27.9933  -15.1042   20.9617 C   0  0  0  0  0  0  0  0  0  0  0  0
  -23.8210  -12.6942   17.7760 C   0  0  0  0  0  0  0  0  0  0  0  0
  -28.4208  -12.5063   19.6726 C   0  0  0  0  0  0  0  0  0  0  0  0
  -20.1143  -24.6885   13.9433 C   0  0  0  0  0  0  0  0  0  0  0  0
  -22.8523  -15.0925   22.2753 C   0  0  0  0  0  0  0  0  0  0  0  0
  -23.6764  -19.6721   24.6670 C   0  0  0  0  0  0  0  0  0  0  0  0
  -17.1220  -25.6028   19.7812 C   0  0  0  0  0  0  0  0  0  0  0  0
  -17.0310  -24.7256   17.4380 C   0  0  0  0  0  0  0  0  0  0  0  0
  -17.3812  -27.1620   17.8431 C   0  0  0  0  0  0  0  0  0  0  0  0
  -23.4583  -24.8001   15.7547 C   0  0  0  0  0  0  0  0  0  0  0  0
  -21.3404  -17.1123   21.9329 C   0  0  0  0  0  0  0  0  0  0  0  0
  -21.6276  -19.2486   23.1949 C   0  0  0  0  0  0  0  0  0  0  0  0
  -19.2589  -25.5415   18.3334 C   0  0  1  0  0  0  0  0  0  0  0  0
  -21.0838  -25.1001   15.0403 C   0  0  2  0  0  0  0  0  0  0  0  0
  -22.0709  -15.9394   21.2693 C   0  0  1  0  0  0  0  0  0  0  0  0
  -22.6584  -20.2551   23.6955 C   0  0  2  0  0  0  0  0  0  1  0  0
  -17.7183  -25.7490   18.3670 C   0  0  0  0  0  0  0  0  0  0  0  0
  -28.4777  -20.6596   18.5704 N   0  0  0  0  0  0  0  0  0  0  0  0
  -28.8265  -19.3750   18.7549 N   0  0  0  0  0  0  0  0  0  0  0  0
  -20.7559  -25.9243   20.2664 N   0  0  0  0  0  0  0  0  0  0  0  0
  -26.3763  -17.6309   16.3962 N   0  0  0  0  0  0  0  0  0  0  0  0
  -30.1138  -17.9473   20.1388 N   0  0  0  0  0  0  0  0  0  0  0  0
  -30.8146  -22.0368   21.9223 N   0  0  0  0  0  0  0  0  0  0  0  0
  -19.8013  -28.0214   22.7282 N   0  0  0  0  0  0  0  0  0  0  0  0
  -19.8546  -25.7008   17.0112 N   0  0  0  0  0  0  0  0  0  0  0  0
  -24.4578  -17.1460   17.6916 N   0  0  0  0  0  0  0  0  0  0  0  0
  -22.4025  -24.4624   14.7657 N   0  3  0  0  0  0  0  0  0  0  0  0
  -22.2842  -18.1140   22.4990 N   0  3  0  0  0  0  0  0  0  0  0  0
  -31.3358  -19.8112   22.1059 O   0  0  0  0  0  0  0  0  0  0  0  0
  -20.1383  -25.7398   23.0492 O   0  0  0  0  0  0  0  0  0  0  0  0
  -19.8872  -27.7137   19.0498 O   0  0  0  0  0  0  0  0  0  0  0  0
  -20.7901  -23.5821   16.8968 O   0  0  0  0  0  0  0  0  0  0  0  0
  -24.8504  -16.0138   15.7369 O   0  0  0  0  0  0  0  0  0  0  0  0
  -28.6480  -26.8371   20.1062 O   0  0  0  0  0  0  0  0  0  0  0  0
  -23.3370  -20.8189   22.5739 O   0  0  0  0  0  0  0  0  0  1  0  0
  -23.6052  -29.0292   19.6957 F   0  0  0  0  0  0  0  0  0  0  0  0
  -27.5435  -28.2569   22.2054 F   0  0  0  0  0  0  0  0  0  0  0  0
  1  2  1  0  0  0  0
  1  5  2  0  0  0  0
  2  6  2  0  0  0  0
  3  8  2  0  0  0  0
  3 17  1  0  0  0  0
  4  9  1  0  0  0  0
  4 17  2  0  0  0  0
  5 19  1  0  0  0  0
  6 21  1  0  0  0  0
  7 10  2  0  0  0  0
  7 20  1  0  0  0  0
  8 27  1  0  0  0  0
  9 27  2  0  0  0  0
 10 28  1  0  0  0  0
 11 12  2  0  0  0  0
 11 29  1  0  0  0  0
 12 30  1  0  0  0  0
 13 22  1  0  0  0  0
 13 24  2  0  0  0  0
 14 23  1  0  0  0  0
 14 28  2  0  0  0  0
 15 25  1  0  0  0  0
 15 26  2  0  0  0  0
 16 30  2  0  0  0  0
 16 31  1  0  0  0  0
 17 32  1  0  0  0  0
 18 32  1  0  0  0  0
 18 33  2  0  0  0  0
 18 34  1  0  0  0  0
 19 21  2  0  0  0  0
 19 39  1  0  0  0  0
 20 23  2  0  0  0  0
 20 40  1  0  0  0  0
 21 50  1  0  0  0  0
 22 25  2  0  0  0  0
 22 49  1  0  0  0  0
 23 41  1  0  0  0  0
 24 26  1  0  0  0  0
 24 55  1  0  0  0  0
 25 56  1  0  0  0  0
 26 57  1  0  0  0  0
 27 88  1  0  0  0  0
 28 89  1  0  0  0  0
 29 31  2  0  0  0  0
 29 88  1  0  0  0  0
 30 90  1  0  0  0  0
 31 91  1  0  0  0  0
 32 72  2  0  0  0  0
 33 73  1  0  0  0  0
 33 76  1  0  0  0  0
 34 77  1  0  0  0  0
 34 83  2  0  0  0  0
 35 51  1  0  0  0  0
 35 78  1  0  0  0  0
 35 84  2  0  0  0  0
 36 67  1  0  0  0  0
 36 74  1  0  0  0  0
 36 85  2  0  0  0  0
 37 68  1  0  0  0  0
 37 79  1  0  0  0  0
 37 86  2  0  0  0  0
 38 75  1  0  0  0  0
 38 80  1  0  0  0  0
 38 87  2  0  0  0  0
 39 42  1  0  0  0  0
 40 51  1  0  0  0  0
 41 74  1  0  0  0  0
 42 44  1  0  0  0  0
 43 45  1  0  0  0  0
 43 47  1  0  0  0  0
 44 50  1  0  0  0  0
 45 53  1  0  0  0  0
 46 52  1  0  0  0  0
 46 54  1  0  0  0  0
 47 75  1  0  0  0  0
 48 53  1  0  0  0  0
 48 75  1  0  0  0  0
 49 52  1  0  0  0  0
 49 54  1  0  0  0  0
 50 78  1  0  0  0  0
 51 74  1  0  0  0  0
 52 69  1  0  0  0  0
 53 73  1  0  0  0  0
 54 80  1  0  0  0  0
 58 68  1  0  0  0  0
 59 69  1  0  0  0  0
 60 70  1  0  0  0  0
 61 71  1  0  0  0  0
 62 71  1  0  0  0  0
 63 71  1  0  0  0  0
 64 81  1  0  0  0  0
 65 69  1  0  0  0  0
 65 82  1  0  0  0  0
 66 70  1  0  0  0  0
 66 82  1  0  0  0  0
 67 71  1  0  0  0  0
 67 79  1  0  0  0  0
 68 81  1  0  0  0  0
 70 89  1  0  0  0  0
 72 73  1  0  0  0  0
M  CHG  2  81   1  82   1
M  ISO  4  38 100  70 101  80 100  89 101
M  END
> <Batch ID>
0172

> <Smiles>
CNC(C)C(=O)NC(C(=O)N1Cc2cc([101O:1][101CH:1](C)CNCC(C)C3CC([100NH:0][100C:0](=O)N4CCCC(n5nc(-c6ccc(Oc7ccc(F)cc7F)cc6)c(C(N)=O)c5N)C4)C3c3cc(C)c(C)cc3C)ccc2CC1C(=O)NC1CCCc2ccccc21)C(C)(C)C

> <Shape>
0.209

> <Color>
0.069

> <Negative vol penalty>
0.000

$$$$

  -OEChem-04052322403D

 89 98  0     1  0  0  0  0  0999 V2000
  -17.3389  -30.8251   24.0931 C   0  0  0  0  0  0  0  0  0  0  0  0
  -18.7058  -31.0830   24.1110 C   0  0  0  0  0  0  0  0  0  0  0  0
  -26.8223  -11.6322   20.6367 C   0  0  0  0  0  0  0  0  0  0  0  0
  -25.0614  -13.1919   20.0857 C   0  0  0  0  0  0  0  0  0  0  0  0
  -16.8667  -29.6072   23.6057 C   0  0  0  0  0  0  0  0  0  0  0  0
  -19.6016  -30.1226   23.6424 C   0  0  0  0  0  0  0  0  0  0  0  0
  -25.9137  -29.5314   20.3072 C   0  0  0  0  0  0  0  0  0  0  0  0
  -25.8740  -10.7349   21.1277 C   0  0  0  0  0  0  0  0  0  0  0  0
  -24.1130  -12.2945   20.5766 C   0  0  0  0  0  0  0  0  0  0  0  0
  -27.1517  -28.9057   20.4476 C   0  0  0  0  0  0  0  0  0  0  0  0
  -22.5650   -9.4828   19.5192 C   0  0  0  0  0  0  0  0  0  0  0  0
  -21.4185   -9.2706   18.7536 C   0  0  0  0  0  0  0  0  0  0  0  0
  -27.5950  -21.9621   22.6290 C   0  0  0  0  0  0  0  0  0  0  0  0
  -26.2167  -26.8690   19.5550 C   0  0  0  0  0  0  0  0  0  0  0  0
  -20.0507  -10.0525   20.5853 C   0  0  0  0  0  0  0  0  0  0  0  0
  -25.5372  -23.0860   22.2303 C   0  0  0  0  0  0  0  0  0  0  0  0
  -26.0554  -21.2385   20.9669 C   0  0  0  0  0  0  0  0  0  0  0  0
  -26.4160  -12.8607   20.1158 C   0  0  0  0  0  0  0  0  0  0  0  0
  -27.8831  -13.8738   18.2912 C   0  0  0  0  0  0  0  0  0  0  0  0
  -17.7565  -28.6351   23.1219 C   0  0  0  0  0  0  0  0  0  0  0  0
  -24.8134  -28.8263   19.7989 C   0  0  0  0  0  0  0  0  0  0  0  0
  -19.1410  -28.8899   23.1492 C   0  0  0  0  0  0  0  0  0  0  0  0
  -26.7209  -22.9962   22.9450 C   0  0  0  0  0  0  0  0  0  0  0  0
  -24.9665  -27.4888   19.4067 C   0  0  0  0  0  0  0  0  0  0  0  0
  -27.2635  -21.0622   21.6222 C   0  0  0  0  0  0  0  0  0  0  0  0
  -24.5193  -11.0660   21.0976 C   0  0  0  0  0  0  0  0  0  0  0  0
  -27.3026  -27.5734   20.0742 C   0  0  0  0  0  0  0  0  0  0  0  0
  -22.4544   -9.9797   20.8178 C   0  0  0  0  0  0  0  0  0  0  0  0
  -20.1613   -9.5555   19.2866 C   0  0  0  0  0  0  0  0  0  0  0  0
  -21.1972  -10.2646   21.3509 C   0  0  0  0  0  0  0  0  0  0  0  0
  -27.3953  -13.7883   19.6090 C   0  0  0  0  0  0  0  0  0  0  0  0
  -28.7867  -14.9076   18.3261 C   0  0  0  0  0  0  0  0  0  0  0  0
  -27.5493  -13.0891   17.1387 C   0  0  0  0  0  0  0  0  0  0  0  0
  -21.9598  -28.0024   20.9312 C   0  0  0  0  0  0  0  0  0  0  0  0
  -21.4932  -26.9489   17.8989 C   0  0  0  0  0  0  0  0  0  0  0  0
  -22.8598  -25.8506   14.9710 C   0  0  0  0  0  0  0  0  0  0  0  0
  -29.3717  -19.7013   21.8452 C   0  0  0  0  0  0  0  0  0  0  0  0
  -17.2021  -27.3148   22.6486 C   0  0  0  0  0  0  0  0  0  0  0  0
  -23.4915  -29.5234   19.6287 C   0  0  0  0  0  0  0  0  0  0  0  0
  -23.8215  -26.6935   18.8367 C   0  0  0  0  0  0  0  0  0  0  0  0
  -18.1933  -26.4988   21.8228 C   0  0  0  0  0  0  0  0  0  0  0  0
  -31.7965  -17.1519   21.2991 C   0  0  0  0  0  0  0  0  0  0  0  0
  -19.5585  -26.4706   22.5027 C   0  0  0  0  0  0  0  0  0  0  0  0
  -30.9885  -16.0101   20.6782 C   0  0  0  0  0  0  0  0  0  0  0  0
  -28.7676  -25.2560   25.1458 C   0  0  0  0  0  0  0  0  0  0  0  0
  -28.0823  -24.3510   26.1782 C   0  0  0  0  0  0  0  0  0  0  0  0
  -30.9977  -17.8962   22.3676 C   0  0  0  0  0  0  0  0  0  0  0  0
  -28.8713  -17.2349   21.3140 C   0  0  0  0  0  0  0  0  0  0  0  0
  -27.0474  -23.9767   24.0188 C   0  0  2  0  0  0  0  0  0  0  0  0
  -20.1425  -27.8830   22.6266 C   0  0  1  0  0  0  0  0  0  0  0  0
  -22.3096  -28.5599   19.5805 C   0  0  1  0  0  0  0  0  0  0  0  0
  -29.6112  -16.4968   20.1864 C   0  0  2  0  0  0  0  0  0  0  0  0
  -28.3886  -24.6812   23.7822 C   0  0  1  0  0  0  0  0  0  0  0  0
  -27.3281  -23.2996   25.3657 C   0  0  2  0  0  0  0  0  0  0  0  0
  -22.2244  -25.0279   12.6869 C   0  0  0  0  0  0  0  0  0  0  0  0
  -30.6424  -27.9785   20.6856 C   0  0  0  0  0  0  0  0  0  0  0  0
  -20.7185  -24.2486   19.0897 C   0  0  0  0  0  0  0  0  0  0  0  0
  -21.0229  -23.2384   16.8192 C   0  0  0  0  0  0  0  0  0  0  0  0
  -19.2884  -24.9949   17.1785 C   0  0  0  0  0  0  0  0  0  0  0  0
  -24.2691  -28.0901   13.6453 C   0  0  0  0  0  0  0  0  0  0  0  0
  -26.3162  -22.2513   27.3850 C   0  0  0  0  0  0  0  0  0  0  0  0
  -25.0991  -24.0574   26.1778 C   0  0  0  0  0  0  0  0  0  0  0  0
  -29.5637  -26.2733   22.2580 C   0  0  0  0  0  0  0  0  0  0  0  0
  -21.7308  -25.6480   17.1707 C   0  0  1  0  0  0  0  0  0  0  0  0
  -22.5956  -26.2396   13.5276 C   0  0  2  0  0  0  0  0  0  0  0  0
  -29.3531  -27.4146   21.2683 C   0  0  2  0  0  0  0  0  0  1  0  0
  -20.7114  -24.5466   17.5770 C   0  0  0  0  0  0  0  0  0  0  0  0
  -25.1807  -22.2308   21.2459 N   0  0  0  0  0  0  0  0  0  0  0  0
  -27.9437  -14.6953   20.4218 N   0  0  0  0  0  0  0  0  0  0  0  0
  -28.7855  -15.3606   19.6126 N   0  0  0  0  0  0  0  0  0  0  0  0
  -22.5474  -27.4176   18.6956 N   0  0  0  0  0  0  0  0  0  0  0  0
  -29.7071  -18.3309   21.8287 N   0  0  0  0  0  0  0  0  0  0  0  0
  -29.5743  -15.4643   17.3815 N   0  0  0  0  0  0  0  0  0  0  0  0
  -26.6009  -12.0666   17.2785 N   0  0  0  0  0  0  0  0  0  0  0  0
  -28.1336  -19.9986   21.2765 N   0  0  0  0  0  0  0  0  0  0  0  0
  -20.6840  -28.3192   21.3573 N   0  0  0  0  0  0  0  0  0  0  0  0
  -21.7269  -25.9702   15.7478 N   0  0  0  0  0  0  0  0  0  0  0  0
  -28.2666  -25.7636   22.7682 N   0  3  0  0  0  0  0  0  0  0  0  0
  -23.8063  -26.8721   12.9316 N   0  3  0  0  0  0  0  0  0  0  0  0
  -26.0756  -22.9112   26.0467 N   0  3  0  0  0  0  0  0  0  0  0  0
  -28.0884  -13.2779   16.0219 O   0  0  0  0  0  0  0  0  0  0  0  0
  -22.7855  -27.3332   21.5410 O   0  0  0  0  0  0  0  0  0  0  0  0
  -20.4148  -27.5314   17.7601 O   0  0  0  0  0  0  0  0  0  0  0  0
  -23.9602  -25.4743   15.3686 O   0  0  0  0  0  0  0  0  0  0  0  0
  -30.1389  -20.5517   22.3035 O   0  0  0  0  0  0  0  0  0  0  0  0
  -23.5936  -10.1906   21.5764 O   0  0  0  0  0  0  0  0  0  0  0  0
  -28.5096  -26.9600   20.2109 O   0  0  0  0  0  0  0  0  0  1  0  0
  -19.0605   -9.3532   18.5508 F   0  0  0  0  0  0  0  0  0  0  0  0
  -21.0847  -10.7434   22.5974 F   0  0  0  0  0  0  0  0  0  0  0  0
  1  2  1  0  0  0  0
  1  5  2  0  0  0  0
  2  6  2  0  0  0  0
  3  8  2  0  0  0  0
  3 18  1  0  0  0  0
  4  9  1  0  0  0  0
  4 18  2  0  0  0  0
  5 20  1  0  0  0  0
  6 22  1  0  0  0  0
  7 10  2  0  0  0  0
  7 21  1  0  0  0  0
  8 26  1  0  0  0  0
  9 26  2  0  0  0  0
 10 27  1  0  0  0  0
 11 12  2  0  0  0  0
 11 28  1  0  0  0  0
 12 29  1  0  0  0  0
 13 23  2  0  0  0  0
 13 25  1  0  0  0  0
 14 24  1  0  0  0  0
 14 27  2  0  0  0  0
 15 29  2  0  0  0  0
 15 30  1  0  0  0  0
 16 23  1  0  0  0  0
 16 68  2  0  0  0  0
 17 25  2  0  0  0  0
 17 68  1  0  0  0  0
 18 31  1  0  0  0  0
 19 31  1  0  0  0  0
 19 32  2  0  0  0  0
 19 33  1  0  0  0  0
 20 22  2  0  0  0  0
 20 38  1  0  0  0  0
 21 24  2  0  0  0  0
 21 39  1  0  0  0  0
 22 50  1  0  0  0  0
 23 49  1  0  0  0  0
 24 40  1  0  0  0  0
 25 75  1  0  0  0  0
 26 86  1  0  0  0  0
 27 87  1  0  0  0  0
 28 30  2  0  0  0  0
 28 86  1  0  0  0  0
 29 88  1  0  0  0  0
 30 89  1  0  0  0  0
 31 69  2  0  0  0  0
 32 70  1  0  0  0  0
 32 73  1  0  0  0  0
 33 74  1  0  0  0  0
 33 81  2  0  0  0  0
 34 51  1  0  0  0  0
 34 76  1  0  0  0  0
 34 82  2  0  0  0  0
 35 64  1  0  0  0  0
 35 71  1  0  0  0  0
 35 83  2  0  0  0  0
 36 65  1  0  0  0  0
 36 77  1  0  0  0  0
 36 84  2  0  0  0  0
 37 72  1  0  0  0  0
 37 75  1  0  0  0  0
 37 85  2  0  0  0  0
 38 41  1  0  0  0  0
 39 51  1  0  0  0  0
 40 71  1  0  0  0  0
 41 43  1  0  0  0  0
 42 44  1  0  0  0  0
 42 47  1  0  0  0  0
 43 50  1  0  0  0  0
 44 52  1  0  0  0  0
 45 46  1  0  0  0  0
 45 53  1  0  0  0  0
 46 54  1  0  0  0  0
 47 72  1  0  0  0  0
 48 52  1  0  0  0  0
 48 72  1  0  0  0  0
 49 53  1  0  0  0  0
 49 54  1  0  0  0  0
 50 76  1  0  0  0  0
 51 71  1  0  0  0  0
 52 70  1  0  0  0  0
 53 78  1  0  0  0  0
 54 80  1  0  0  0  0
 55 65  1  0  0  0  0
 56 66  1  0  0  0  0
 57 67  1  0  0  0  0
 58 67  1  0  0  0  0
 59 67  1  0  0  0  0
 60 79  1  0  0  0  0
 61 80  1  0  0  0  0
 62 80  1  0  0  0  0
 63 66  1  0  0  0  0
 63 78  1  0  0  0  0
 64 67  1  0  0  0  0
 64 77  1  0  0  0  0
 65 79  1  0  0  0  0
 66 87  1  0  0  0  0
 69 70  1  0  0  0  0
M  CHG  3  78   1  79   1  80   1
M  ISO  4  37 100  66 101  75 100  87 101
M  END
> <Batch ID>
0172

> <Smiles>
CNC(C)C(=O)NC(C(=O)N1Cc2cc([101O:1][101CH:1](C)CNC3CCC(N(C)C)C3c3cncc([100NH:0][100C:0](=O)N4CCCC(n5nc(-c6ccc(Oc7ccc(F)cc7F)cc6)c(C(N)=O)c5N)C4)c3)ccc2CC1C(=O)NC1CCCc2ccccc21)C(C)(C)C

> <Shape>
0.253

> <Color>
0.069

> <Negative vol penalty>
0.000

$$$$

  -OEChem-04052322403D

 80 89  0     1  0  0  0  0  0999 V2000
  -19.4851  -31.4323   22.4613 C   0  0  0  0  0  0  0  0  0  0  0  0
  -20.8479  -31.1532   22.4718 C   0  0  0  0  0  0  0  0  0  0  0  0
  -26.3131  -12.6539   21.3743 C   0  0  0  0  0  0  0  0  0  0  0  0
  -24.7890  -14.3099   20.4957 C   0  0  0  0  0  0  0  0  0  0  0  0
  -18.5608  -30.3906   22.5294 C   0  0  0  0  0  0  0  0  0  0  0  0
  -21.2874  -29.8322   22.5515 C   0  0  0  0  0  0  0  0  0  0  0  0
  -25.0374  -28.8326   19.2984 C   0  0  0  0  0  0  0  0  0  0  0  0
  -25.2404  -11.7972   21.6205 C   0  0  0  0  0  0  0  0  0  0  0  0
  -23.7162  -13.4531   20.7418 C   0  0  0  0  0  0  0  0  0  0  0  0
  -26.3147  -29.2709   19.6450 C   0  0  0  0  0  0  0  0  0  0  0  0
  -22.9405   -9.0315   22.1470 C   0  0  0  0  0  0  0  0  0  0  0  0
  -23.0826   -7.6929   21.7817 C   0  0  0  0  0  0  0  0  0  0  0  0
  -26.8685  -27.0455   20.3937 C   0  0  0  0  0  0  0  0  0  0  0  0
  -23.4146   -8.3555   19.4822 C   0  0  0  0  0  0  0  0  0  0  0  0
  -26.0875  -13.9103   20.8120 C   0  0  0  0  0  0  0  0  0  0  0  0
  -27.9642  -14.8800   19.3817 C   0  0  0  0  0  0  0  0  0  0  0  0
  -18.9891  -29.0556   22.6003 C   0  0  0  0  0  0  0  0  0  0  0  0
  -24.6618  -27.4978   19.5073 C   0  0  0  0  0  0  0  0  0  0  0  0
  -20.3680  -28.7718   22.6220 C   0  0  0  0  0  0  0  0  0  0  0  0
  -25.5867  -26.5923   20.0465 C   0  0  0  0  0  0  0  0  0  0  0  0
  -23.9419  -12.1967   21.3043 C   0  0  0  0  0  0  0  0  0  0  0  0
  -27.2296  -28.3780   20.1954 C   0  0  0  0  0  0  0  0  0  0  0  0
  -23.0354  -10.0322   21.1798 C   0  0  0  0  0  0  0  0  0  0  0  0
  -23.3197   -7.3549   20.4494 C   0  0  0  0  0  0  0  0  0  0  0  0
  -23.2725   -9.6942   19.8474 C   0  0  0  0  0  0  0  0  0  0  0  0
  -27.1952  -14.7961   20.5579 C   0  0  0  0  0  0  0  0  0  0  0  0
  -28.8840  -15.8661   19.6424 C   0  0  0  0  0  0  0  0  0  0  0  0
  -27.8566  -14.1333   18.1625 C   0  0  0  0  0  0  0  0  0  0  0  0
  -22.4490  -26.0384   21.2616 C   0  0  0  0  0  0  0  0  0  0  0  0
  -23.5086  -23.4001   19.6999 C   0  0  0  0  0  0  0  0  0  0  0  0
  -26.0382  -21.8551   18.0085 C   0  0  0  0  0  0  0  0  0  0  0  0
  -29.9141  -20.9592   21.4927 C   0  0  0  0  0  0  0  0  0  0  0  0
  -17.9530  -27.9662   22.7199 C   0  0  0  0  0  0  0  0  0  0  0  0
  -23.2890  -27.0346   19.1033 C   0  0  0  0  0  0  0  0  0  0  0  0
  -25.2396  -25.1441   20.2721 C   0  0  0  0  0  0  0  0  0  0  0  0
  -18.4986  -26.5715   22.4244 C   0  0  0  0  0  0  0  0  0  0  0  0
  -30.1078  -18.1934   23.9404 C   0  0  0  0  0  0  0  0  0  0  0  0
  -19.8206  -26.3501   23.1526 C   0  0  0  0  0  0  0  0  0  0  0  0
  -29.3707  -17.0885   23.1904 C   0  0  0  0  0  0  0  0  0  0  0  0
  -30.6439  -27.3652   23.3105 C   0  0  0  0  0  0  0  0  0  0  0  0
  -29.5457  -19.5786   23.6229 C   0  0  0  0  0  0  0  0  0  0  0  0
  -28.7626  -18.7720   21.4113 C   0  0  0  0  0  0  0  0  0  0  0  0
  -31.3143  -24.2829   22.7637 C   0  0  0  0  0  0  0  0  0  0  0  0
  -29.9017  -24.1702   21.2363 C   0  0  0  0  0  0  0  0  0  0  0  0
  -20.8836  -27.3504   22.6826 C   0  0  1  0  0  0  0  0  0  0  0  0
  -22.8443  -25.7728   19.8365 C   0  0  1  0  0  0  0  0  0  0  0  0
  -30.0561  -27.7395   21.9761 C   0  0  1  0  0  0  0  0  0  0  0  0
  -29.3509  -17.3792   21.6823 C   0  0  2  0  0  0  0  0  0  0  0  0
  -30.9850  -23.1960   21.7273 C   0  0  0  0  0  0  0  0  0  0  0  0
  -29.8933  -26.3395   22.5051 C   0  0  1  0  0  0  0  0  0  0  0  0
  -26.6223  -19.6873   16.8875 C   0  0  0  0  0  0  0  0  0  0  0  0
  -29.1689  -30.0237   22.4716 C   0  0  0  0  0  0  0  0  0  0  0  0
  -23.9164  -22.1009   22.4303 C   0  0  0  0  0  0  0  0  0  0  0  0
  -25.3503  -20.3761   21.3180 C   0  0  0  0  0  0  0  0  0  0  0  0
  -22.9454  -20.5895   20.6904 C   0  0  0  0  0  0  0  0  0  0  0  0
  -26.4180  -23.1784   15.3886 C   0  0  0  0  0  0  0  0  0  0  0  0
  -24.5821  -22.3686   19.9502 C   0  0  1  0  0  0  0  0  0  0  0  0
  -26.0521  -21.0847   16.7006 C   0  0  2  0  0  0  0  0  0  0  0  0
  -28.8569  -28.6727   21.9044 C   0  0  1  0  0  0  0  0  0  1  0  0
  -24.2047  -21.3864   21.0949 C   0  0  0  0  0  0  0  0  0  0  0  0
  -27.5921  -15.6599   21.4961 N   0  0  0  0  0  0  0  0  0  0  0  0
  -28.6205  -16.2959   20.9097 N   0  0  0  0  0  0  0  0  0  0  0  0
  -23.8829  -24.7410   19.8667 N   0  0  0  0  0  0  0  0  0  0  0  0
  -29.4628  -19.8138   22.1726 N   0  0  0  0  0  0  0  0  0  0  0  0
  -29.8844  -16.3987   18.9090 N   0  0  0  0  0  0  0  0  0  0  0  0
  -26.8553  -13.1577   18.0626 N   0  0  0  0  0  0  0  0  0  0  0  0
  -21.4208  -26.9512   21.3994 N   0  0  0  0  0  0  0  0  0  0  0  0
  -24.8341  -21.7220   18.6669 N   0  0  0  0  0  0  0  0  0  0  0  0
  -30.4811  -21.9523   22.2855 N   0  0  0  0  0  0  0  0  0  0  0  0
  -30.6820  -25.2642   21.8551 N   0  3  0  0  0  0  0  0  0  0  0  0
  -26.8800  -21.7985   15.6876 N   0  3  0  0  0  0  0  0  0  0  0  0
  -28.6360  -14.3142   17.1964 O   0  0  0  0  0  0  0  0  0  0  0  0
  -23.0326  -25.4571   22.1688 O   0  0  0  0  0  0  0  0  0  0  0  0
  -22.3815  -23.0302   19.3615 O   0  0  0  0  0  0  0  0  0  0  0  0
  -27.0008  -22.5066   18.4080 O   0  0  0  0  0  0  0  0  0  0  0  0
  -29.8153  -21.0968   20.2686 O   0  0  0  0  0  0  0  0  0  0  0  0
  -22.8948  -11.3608   21.5441 O   0  0  0  0  0  0  0  0  0  0  0  0
  -28.4768  -28.8033   20.5352 O   0  0  0  0  0  0  0  0  0  1  0  0
  -23.4577   -6.0694   20.0990 F   0  0  0  0  0  0  0  0  0  0  0  0
  -23.3658  -10.6512   18.9140 F   0  0  0  0  0  0  0  0  0  0  0  0
  1  2  1  0  0  0  0
  1  5  2  0  0  0  0
  2  6  2  0  0  0  0
  3  8  2  0  0  0  0
  3 15  1  0  0  0  0
  4  9  1  0  0  0  0
  4 15  2  0  0  0  0
  5 17  1  0  0  0  0
  6 19  1  0  0  0  0
  7 10  2  0  0  0  0
  7 18  1  0  0  0  0
  8 21  1  0  0  0  0
  9 21  2  0  0  0  0
 10 22  1  0  0  0  0
 11 12  2  0  0  0  0
 11 23  1  0  0  0  0
 12 24  1  0  0  0  0
 13 20  1  0  0  0  0
 13 22  2  0  0  0  0
 14 24  2  0  0  0  0
 14 25  1  0  0  0  0
 15 26  1  0  0  0  0
 16 26  1  0  0  0  0
 16 27  2  0  0  0  0
 16 28  1  0  0  0  0
 17 19  2  0  0  0  0
 17 33  1  0  0  0  0
 18 20  2  0  0  0  0
 18 34  1  0  0  0  0
 19 45  1  0  0  0  0
 20 35  1  0  0  0  0
 21 77  1  0  0  0  0
 22 78  1  0  0  0  0
 23 25  2  0  0  0  0
 23 77  1  0  0  0  0
 24 79  1  0  0  0  0
 25 80  1  0  0  0  0
 26 61  2  0  0  0  0
 27 62  1  0  0  0  0
 27 65  1  0  0  0  0
 28 66  1  0  0  0  0
 28 72  2  0  0  0  0
 29 46  1  0  0  0  0
 29 67  1  0  0  0  0
 29 73  2  0  0  0  0
 30 57  1  0  0  0  0
 30 63  1  0  0  0  0
 30 74  2  0  0  0  0
 31 58  1  0  0  0  0
 31 68  1  0  0  0  0
 31 75  2  0  0  0  0
 32 64  1  0  0  0  0
 32 69  1  0  0  0  0
 32 76  2  0  0  0  0
 33 36  1  0  0  0  0
 34 46  1  0  0  0  0
 35 63  1  0  0  0  0
 36 38  1  0  0  0  0
 37 39  1  0  0  0  0
 37 41  1  0  0  0  0
 38 45  1  0  0  0  0
 39 48  1  0  0  0  0
 40 47  1  0  0  0  0
 40 50  1  0  0  0  0
 41 64  1  0  0  0  0
 42 48  1  0  0  0  0
 42 64  1  0  0  0  0
 43 49  1  0  0  0  0
 43 70  1  0  0  0  0
 44 49  1  0  0  0  0
 44 70  1  0  0  0  0
 45 67  1  0  0  0  0
 46 63  1  0  0  0  0
 47 50  1  0  0  0  0
 47 59  1  0  0  0  0
 48 62  1  0  0  0  0
 49 69  1  0  0  0  0
 50 70  1  0  0  0  0
 51 58  1  0  0  0  0
 52 59  1  0  0  0  0
 53 60  1  0  0  0  0
 54 60  1  0  0  0  0
 55 60  1  0  0  0  0
 56 71  1  0  0  0  0
 57 60  1  0  0  0  0
 57 68  1  0  0  0  0
 58 71  1  0  0  0  0
 59 78  1  0  0  0  0
 61 62  1  0  0  0  0
M  CHG  2  70   1  71   1
M  ISO  4  32 100  59 101  69 100  78 101
M  END
> <Batch ID>
0172

> <Smiles>
CNC(C)C(=O)NC(C(=O)N1Cc2cc([101O:1][101CH:1](C)C3CC3N3CC([100NH:0][100C:0](=O)N4CCCC(n5nc(-c6ccc(Oc7ccc(F)cc7F)cc6)c(C(N)=O)c5N)C4)C3)ccc2CC1C(=O)NC1CCCc2ccccc21)C(C)(C)C

> <Shape>
0.228

> <Color>
0.071

> <Negative vol penalty>
0.000

$$$$

  -OEChem-04052322403D

 84 93  0     1  0  0  0  0  0999 V2000
  -19.2719  -28.9855   23.2179 C   0  0  0  0  0  0  0  0  0  0  0  0
  -20.2086  -28.0568   23.6601 C   0  0  0  0  0  0  0  0  0  0  0  0
  -30.4440  -23.8760   18.8743 C   0  0  0  0  0  0  0  0  0  0  0  0
  -28.4600  -22.8305   19.7731 C   0  0  0  0  0  0  0  0  0  0  0  0
  -18.3740  -28.6418   22.2083 C   0  0  0  0  0  0  0  0  0  0  0  0
  -20.2471  -26.7832   23.0935 C   0  0  0  0  0  0  0  0  0  0  0  0
  -24.8505  -21.5604   21.4059 C   0  0  0  0  0  0  0  0  0  0  0  0
  -29.9125  -25.1329   19.1630 C   0  0  0  0  0  0  0  0  0  0  0  0
  -27.9284  -24.0874   20.0618 C   0  0  0  0  0  0  0  0  0  0  0  0
  -25.0427  -20.1922   21.5926 C   0  0  0  0  0  0  0  0  0  0  0  0
  -26.3942  -26.5890   18.3828 C   0  0  0  0  0  0  0  0  0  0  0  0
  -25.0596  -26.8203   18.0499 C   0  0  0  0  0  0  0  0  0  0  0  0
  -23.4943  -19.7362   19.7999 C   0  0  0  0  0  0  0  0  0  0  0  0
  -24.5571  -27.2617   20.3715 C   0  0  0  0  0  0  0  0  0  0  0  0
  -24.6383  -13.1001   21.1398 C   0  0  0  0  0  0  0  0  0  0  0  0
  -29.7177  -22.7248   19.1793 C   0  0  0  0  0  0  0  0  0  0  0  0
  -30.6372  -20.9302   17.6167 C   0  0  0  0  0  0  0  0  0  0  0  0
  -18.4078  -27.3666   21.6223 C   0  0  0  0  0  0  0  0  0  0  0  0
  -23.9689  -22.0274   20.4204 C   0  0  0  0  0  0  0  0  0  0  0  0
  -19.3478  -26.4216   22.0759 C   0  0  0  0  0  0  0  0  0  0  0  0
  -23.2946  -21.1109   19.6010 C   0  0  0  0  0  0  0  0  0  0  0  0
  -28.6547  -25.2386   19.7567 C   0  0  0  0  0  0  0  0  0  0  0  0
  -24.3624  -19.2798   20.7915 C   0  0  0  0  0  0  0  0  0  0  0  0
  -26.8103  -26.6940   19.7100 C   0  0  0  0  0  0  0  0  0  0  0  0
  -24.1410  -27.1566   19.0443 C   0  0  0  0  0  0  0  0  0  0  0  0
  -25.8918  -27.0304   20.7044 C   0  0  0  0  0  0  0  0  0  0  0  0
  -30.2660  -21.4262   18.8809 C   0  0  0  0  0  0  0  0  0  0  0  0
  -23.4465  -13.7129   21.4688 C   0  0  0  0  0  0  0  0  0  0  0  0
  -25.5417  -13.8829   20.4503 C   0  0  0  0  0  0  0  0  0  0  0  0
  -31.0970  -19.6605   17.8676 C   0  0  0  0  0  0  0  0  0  0  0  0
  -24.1115  -15.6495   20.4817 C   0  0  0  0  0  0  0  0  0  0  0  0
  -30.5722  -21.5609   16.3308 C   0  0  0  0  0  0  0  0  0  0  0  0
  -21.2926  -23.7424   20.4352 C   0  0  0  0  0  0  0  0  0  0  0  0
  -21.6474  -23.6041   17.2138 C   0  0  0  0  0  0  0  0  0  0  0  0
  -22.9494  -21.9797   14.5095 C   0  0  0  0  0  0  0  0  0  0  0  0
  -30.5658  -14.7431   20.4444 C   0  0  0  0  0  0  0  0  0  0  0  0
  -17.3860  -27.0254   20.5668 C   0  0  0  0  0  0  0  0  0  0  0  0
  -23.7929  -23.5069   20.2139 C   0  0  0  0  0  0  0  0  0  0  0  0
  -22.3526  -21.5612   18.5155 C   0  0  0  0  0  0  0  0  0  0  0  0
  -17.7381  -25.7793   19.7584 C   0  0  0  0  0  0  0  0  0  0  0  0
  -32.1937  -17.3358   22.2040 C   0  0  0  0  0  0  0  0  0  0  0  0
  -18.1786  -24.6495   20.6838 C   0  0  0  0  0  0  0  0  0  0  0  0
  -31.8485  -18.5987   21.4198 C   0  0  0  0  0  0  0  0  0  0  0  0
  -28.2664  -12.8158   18.2748 C   0  0  0  0  0  0  0  0  0  0  0  0
  -31.0083  -16.3808   22.2392 C   0  0  0  0  0  0  0  0  0  0  0  0
  -29.5366  -12.9358   19.1046 C   0  0  0  0  0  0  0  0  0  0  0  0
  -30.1874  -17.2270   20.0576 C   0  0  0  0  0  0  0  0  0  0  0  0
  -28.2988  -14.9897   19.2642 C   0  0  0  0  0  0  0  0  0  0  0  0
  -19.4372  -25.0383   21.4689 C   0  0  1  0  0  0  0  0  0  0  0  0
  -22.4802  -23.8617   19.5224 C   0  0  1  0  0  0  0  0  0  0  0  0
  -31.3480  -18.2424   20.0113 C   0  0  1  0  0  0  0  0  0  0  0  0
  -27.3457  -13.8575   18.9009 C   0  0  2  0  0  0  0  0  0  0  0  0
  -22.4070  -12.9460   22.2151 C   0  0  0  0  0  0  0  0  0  0  0  0
  -23.5444  -21.5638   12.1074 C   0  0  0  0  0  0  0  0  0  0  0  0
  -18.7958  -22.5279   17.0714 C   0  0  0  0  0  0  0  0  0  0  0  0
  -19.2724  -21.7713   14.7329 C   0  0  0  0  0  0  0  0  0  0  0  0
  -19.3700  -24.1984   15.3011 C   0  0  0  0  0  0  0  0  0  0  0  0
  -25.4881  -23.4804   14.7578 C   0  0  0  0  0  0  0  0  0  0  0  0
  -23.8189  -17.0652   20.1163 C   0  0  0  0  0  0  0  0  0  1  0  0
  -21.1957  -22.6574   16.1281 C   0  0  1  0  0  0  0  0  0  0  0  0
  -23.7171  -22.4881   13.3026 C   0  0  2  0  0  0  0  0  0  0  0  0
  -19.6747  -22.7799   15.8300 C   0  0  0  0  0  0  0  0  0  0  0  0
  -30.4720  -20.5435   19.8619 N   0  0  0  0  0  0  0  0  0  0  0  0
  -23.1487  -14.9907   21.1544 N   0  0  0  0  0  0  0  0  0  0  0  0
  -25.3102  -15.1661   20.1035 N   0  0  0  0  0  0  0  0  0  0  0  0
  -30.9776  -19.4801   19.2142 N   0  0  0  0  0  0  0  0  0  0  0  0
  -22.2093  -23.0178   18.3568 N   0  0  0  0  0  0  0  0  0  0  0  0
  -30.5228  -16.0674   20.8940 N   0  0  0  0  0  0  0  0  0  0  0  0
  -29.5686  -14.3193   19.5663 N   0  0  0  0  0  0  0  0  0  0  0  0
  -31.5878  -18.6920   17.0654 N   0  0  0  0  0  0  0  0  0  0  0  0
  -29.4038  -21.4110   15.5714 N   0  0  0  0  0  0  0  0  0  0  0  0
  -20.6107  -24.9284   20.6291 N   0  0  0  0  0  0  0  0  0  0  0  0
  -22.0531  -22.9176   14.9768 N   0  0  0  0  0  0  0  0  0  0  0  0
  -25.1708  -22.5841   13.6163 N   0  3  0  0  0  0  0  0  0  0  0  0
  -31.5284  -22.2236   15.8618 O   0  0  0  0  0  0  0  0  0  0  0  0
  -21.0147  -22.6544   20.9260 O   0  0  0  0  0  0  0  0  0  0  0  0
  -21.5134  -24.8195   17.0506 O   0  0  0  0  0  0  0  0  0  0  0  0
  -23.1244  -20.8611   14.9875 O   0  0  0  0  0  0  0  0  0  0  0  0
  -31.4352  -13.9568   20.8442 O   0  0  0  0  0  0  0  0  0  0  0  0
  -28.1359  -26.4649   20.0387 O   0  0  0  0  0  0  0  0  0  0  0  0
  -24.5489  -17.9347   20.9733 O   0  0  0  0  0  0  0  0  0  1  0  0
  -26.7494  -13.3473   20.0867 O   0  0  0  0  0  0  0  0  0  0  0  0
  -22.8597  -27.3801   18.7243 F   0  0  0  0  0  0  0  0  0  0  0  0
  -26.2858  -27.1339   21.9810 F   0  0  0  0  0  0  0  0  0  0  0  0
  1  2  1  0  0  0  0
  1  5  2  0  0  0  0
  2  6  2  0  0  0  0
  3  8  2  0  0  0  0
  3 16  1  0  0  0  0
  4  9  1  0  0  0  0
  4 16  2  0  0  0  0
  5 18  1  0  0  0  0
  6 20  1  0  0  0  0
  7 10  2  0  0  0  0
  7 19  1  0  0  0  0
  8 22  1  0  0  0  0
  9 22  2  0  0  0  0
 10 23  1  0  0  0  0
 11 12  2  0  0  0  0
 11 24  1  0  0  0  0
 12 25  1  0  0  0  0
 13 21  1  0  0  0  0
 13 23  2  0  0  0  0
 14 25  2  0  0  0  0
 14 26  1  0  0  0  0
 15 28  1  0  0  0  0
 15 29  2  0  0  0  0
 16 27  1  0  0  0  0
 17 27  1  0  0  0  0
 17 30  2  0  0  0  0
 17 32  1  0  0  0  0
 18 20  2  0  0  0  0
 18 37  1  0  0  0  0
 19 21  2  0  0  0  0
 19 38  1  0  0  0  0
 20 49  1  0  0  0  0
 21 39  1  0  0  0  0
 22 80  1  0  0  0  0
 23 81  1  0  0  0  0
 24 26  2  0  0  0  0
 24 80  1  0  0  0  0
 25 83  1  0  0  0  0
 26 84  1  0  0  0  0
 27 63  2  0  0  0  0
 28 53  1  0  0  0  0
 28 64  2  0  0  0  0
 29 65  1  0  0  0  0
 29 82  1  0  0  0  0
 30 66  1  0  0  0  0
 30 70  1  0  0  0  0
 31 59  1  0  0  0  0
 31 64  1  0  0  0  0
 31 65  2  0  0  0  0
 32 71  1  0  0  0  0
 32 75  2  0  0  0  0
 33 50  1  0  0  0  0
 33 72  1  0  0  0  0
 33 76  2  0  0  0  0
 34 60  1  0  0  0  0
 34 67  1  0  0  0  0
 34 77  2  0  0  0  0
 35 61  1  0  0  0  0
 35 73  1  0  0  0  0
 35 78  2  0  0  0  0
 36 68  1  0  0  0  0
 36 69  1  0  0  0  0
 36 79  2  0  0  0  0
 37 40  1  0  0  0  0
 38 50  1  0  0  0  0
 39 67  1  0  0  0  0
 40 42  1  0  0  0  0
 41 43  1  0  0  0  0
 41 45  1  0  0  0  0
 42 49  1  0  0  0  0
 43 51  1  0  0  0  0
 44 46  1  0  0  0  0
 44 52  1  0  0  0  0
 45 68  1  0  0  0  0
 46 69  1  0  0  0  0
 47 51  1  0  0  0  0
 47 68  1  0  0  0  0
 48 52  1  0  0  0  0
 48 69  1  0  0  0  0
 49 72  1  0  0  0  0
 50 67  1  0  0  0  0
 51 66  1  0  0  0  0
 52 82  1  0  0  0  0
 54 61  1  0  0  0  0
 55 62  1  0  0  0  0
 56 62  1  0  0  0  0
 57 62  1  0  0  0  0
 58 74  1  0  0  0  0
 59 81  1  0  0  0  0
 60 62  1  0  0  0  0
 60 73  1  0  0  0  0
 61 74  1  0  0  0  0
 63 66  1  0  0  0  0
M  CHG  1  74   1
M  ISO  4  36 100  59 101  69 100  81 101
M  END
> <Batch ID>
0172

> <Smiles>
CNC(C)C(=O)NC(C(=O)N1Cc2cc([101O:1][101CH2:1]c3nc(C)cc(OC4CC[100N:0]([100C:0](=O)N5CCCC(n6nc(-c7ccc(Oc8ccc(F)cc8F)cc7)c(C(N)=O)c6N)C5)C4)n3)ccc2CC1C(=O)NC1CCCc2ccccc21)C(C)(C)C

> <Shape>
0.213

> <Color>
0.076

> <Negative vol penalty>
0.000

$$$$

  -OEChem-04052322403D

 86 96  0     1  0  0  0  0  0999 V2000
  -28.6861  -30.1935   27.4004 C   0  0  0  0  0  0  0  0  0  0  0  0
  -28.5782  -29.3507   26.2989 C   0  0  0  0  0  0  0  0  0  0  0  0
  -26.1864  -12.5619   21.7372 C   0  0  0  0  0  0  0  0  0  0  0  0
  -25.9045  -13.6019   19.5749 C   0  0  0  0  0  0  0  0  0  0  0  0
  -27.5408  -30.7609   27.9575 C   0  0  0  0  0  0  0  0  0  0  0  0
  -27.3247  -29.0739   25.7543 C   0  0  0  0  0  0  0  0  0  0  0  0
  -27.3034  -29.3323   20.6969 C   0  0  0  0  0  0  0  0  0  0  0  0
  -24.8254  -12.2581   21.7686 C   0  0  0  0  0  0  0  0  0  0  0  0
  -24.5435  -13.2981   19.6062 C   0  0  0  0  0  0  0  0  0  0  0  0
  -27.8369  -28.2479   20.0017 C   0  0  0  0  0  0  0  0  0  0  0  0
  -22.7580   -9.9445   20.4247 C   0  0  0  0  0  0  0  0  0  0  0  0
  -22.3893   -8.6618   20.8298 C   0  0  0  0  0  0  0  0  0  0  0  0
  -25.6082  -27.4170   19.5997 C   0  0  0  0  0  0  0  0  0  0  0  0
  -21.1237   -9.6035   22.6597 C   0  0  0  0  0  0  0  0  0  0  0  0
  -29.7430  -25.1164   16.5565 C   0  0  0  0  0  0  0  0  0  0  0  0
  -26.7260  -13.2338   20.6404 C   0  0  0  0  0  0  0  0  0  0  0  0
  -29.1694  -12.7512   20.0887 C   0  0  0  0  0  0  0  0  0  0  0  0
  -26.2735  -30.4985   27.4136 C   0  0  0  0  0  0  0  0  0  0  0  0
  -25.9165  -29.4616   20.8584 C   0  0  0  0  0  0  0  0  0  0  0  0
  -26.1612  -29.6372   26.3055 C   0  0  0  0  0  0  0  0  0  0  0  0
  -25.0596  -28.5053   20.2952 C   0  0  0  0  0  0  0  0  0  0  0  0
  -24.0040  -12.6262   20.7030 C   0  0  0  0  0  0  0  0  0  0  0  0
  -26.9894  -27.2885   19.4555 C   0  0  0  0  0  0  0  0  0  0  0  0
  -22.3096  -11.0568   21.1371 C   0  0  0  0  0  0  0  0  0  0  0  0
  -21.5721   -8.4912   21.9473 C   0  0  0  0  0  0  0  0  0  0  0  0
  -21.4924  -10.8863   22.2546 C   0  0  0  0  0  0  0  0  0  0  0  0
  -28.1317  -13.5484   20.6077 C   0  0  0  0  0  0  0  0  0  0  0  0
  -29.5866  -22.7065   17.6946 C   0  0  0  0  0  0  0  0  0  0  0  0
  -29.3152  -24.9714   17.8578 C   0  0  0  0  0  0  0  0  0  0  0  0
  -30.0137  -22.8515   16.3930 C   0  0  0  0  0  0  0  0  0  0  0  0
  -30.3076  -13.4916   20.2956 C   0  0  0  0  0  0  0  0  0  0  0  0
  -29.1098  -11.4570   19.4745 C   0  0  0  0  0  0  0  0  0  0  0  0
  -23.9450  -29.5294   23.3508 C   0  0  0  0  0  0  0  0  0  0  0  0
  -21.7275  -30.2096   21.0832 C   0  0  0  0  0  0  0  0  0  0  0  0
  -20.7824  -30.0291   17.8089 C   0  0  0  0  0  0  0  0  0  0  0  0
  -31.2558  -19.3621   20.9570 C   0  0  0  0  0  0  0  0  0  0  0  0
  -25.0598  -31.0972   28.0792 C   0  0  0  0  0  0  0  0  0  0  0  0
  -25.3556  -30.6513   21.5880 C   0  0  0  0  0  0  0  0  0  0  0  0
  -23.5624  -28.6088   20.4230 C   0  0  0  0  0  0  0  0  0  0  0  0
  -23.8045  -31.0512   27.2117 C   0  0  0  0  0  0  0  0  0  0  0  0
  -32.1736  -16.7849   23.1928 C   0  0  0  0  0  0  0  0  0  0  0  0
  -23.6382  -29.6699   26.5863 C   0  0  0  0  0  0  0  0  0  0  0  0
  -31.3193  -15.5945   22.7660 C   0  0  0  0  0  0  0  0  0  0  0  0
  -30.0900  -20.2965   13.5322 C   0  0  0  0  0  0  0  0  0  0  0  0
  -28.9181  -21.2301   13.6054 C   0  0  0  0  0  0  0  0  0  0  0  0
  -28.4461  -21.1938   19.4724 C   0  0  0  0  0  0  0  0  0  0  0  0
  -31.3911  -18.0852   23.0669 C   0  0  0  0  0  0  0  0  0  0  0  0
  -28.8799  -19.9128   20.1722 C   0  0  0  0  0  0  0  0  0  0  0  0
  -30.7695  -20.9015   19.0794 C   0  0  0  0  0  0  0  0  0  0  0  0
  -30.0267  -17.1521   21.2181 C   0  0  0  0  0  0  0  0  0  0  0  0
  -24.8215  -29.3325   25.6712 C   0  0  1  0  0  0  0  0  0  0  0  0
  -29.4916  -21.3494   18.3561 C   0  0  2  0  0  0  0  0  0  0  0  0
  -23.9515  -30.4102   22.1335 C   0  0  1  0  0  0  0  0  0  0  0  0
  -30.7671  -15.8049   21.3476 C   0  0  2  0  0  0  0  0  0  0  0  0
  -30.2268  -21.6186   14.2343 C   0  0  0  0  0  0  0  0  0  0  0  0
  -18.9002  -30.6392   16.2654 C   0  0  0  0  0  0  0  0  0  0  0  0
  -20.0852  -27.8781   22.1682 C   0  0  0  0  0  0  0  0  0  0  0  0
  -18.7406  -27.9337   20.0570 C   0  0  0  0  0  0  0  0  0  0  0  0
  -18.7506  -29.9096   21.5796 C   0  0  0  0  0  0  0  0  0  0  0  0
  -22.5279  -31.7835   16.1859 C   0  0  0  0  0  0  0  0  0  0  0  0
  -28.9287  -26.1628   18.6630 C   0  0  0  0  0  0  0  0  0  1  0  0
  -20.8095  -29.3925   20.2065 C   0  0  1  0  0  0  0  0  0  0  0  0
  -20.2290  -31.0777   16.8610 C   0  0  2  0  0  0  0  0  0  0  0  0
  -19.6247  -28.7752   21.0019 C   0  0  0  0  0  0  0  0  0  0  0  0
  -30.0999  -24.0591   15.8007 N   0  0  0  0  0  0  0  0  0  0  0  0
  -28.5717  -14.7066   21.1068 N   0  0  0  0  0  0  0  0  0  0  0  0
  -29.2294  -23.7638   18.4503 N   0  0  0  0  0  0  0  0  0  0  0  0
  -29.8984  -14.6424   20.9025 N   0  0  0  0  0  0  0  0  0  0  0  0
  -23.0626  -29.7869   21.1508 N   0  0  0  0  0  0  0  0  0  0  0  0
  -30.8454  -18.2633   21.7200 N   0  0  0  0  0  0  0  0  0  0  0  0
  -30.3375  -19.9176   20.0670 N   0  0  0  0  0  0  0  0  0  0  0  0
  -31.6085  -13.2641   20.0157 N   0  0  0  0  0  0  0  0  0  0  0  0
  -27.8596  -10.8379   19.3406 N   0  0  0  0  0  0  0  0  0  0  0  0
  -30.3747  -21.7032   15.6528 N   0  0  0  0  0  0  0  0  0  0  0  0
  -24.6927  -30.0201   24.4043 N   0  0  0  0  0  0  0  0  0  0  0  0
  -20.4031  -30.2683   19.1128 N   0  0  0  0  0  0  0  0  0  0  0  0
  -21.1857  -31.3238   15.7452 N   0  3  0  0  0  0  0  0  0  0  0  0
  -30.1369  -10.8599   19.0717 O   0  0  0  0  0  0  0  0  0  0  0  0
  -23.3077  -28.4829   23.3360 O   0  0  0  0  0  0  0  0  0  0  0  0
  -21.2782  -31.1911   21.6802 O   0  0  0  0  0  0  0  0  0  0  0  0
  -21.4782  -29.0895   17.4300 O   0  0  0  0  0  0  0  0  0  0  0  0
  -32.3839  -19.8545   21.0942 O   0  0  0  0  0  0  0  0  0  0  0  0
  -22.6759  -12.3297   20.7332 O   0  0  0  0  0  0  0  0  0  0  0  0
  -27.5110  -26.2218   18.7725 O   0  0  0  0  0  0  0  0  0  1  0  0
  -21.2168   -7.2594   22.3353 F   0  0  0  0  0  0  0  0  0  0  0  0
  -21.0576  -11.9511   22.9423 F   0  0  0  0  0  0  0  0  0  0  0  0
  1  2  1  0  0  0  0
  1  5  2  0  0  0  0
  2  6  2  0  0  0  0
  3  8  2  0  0  0  0
  3 16  1  0  0  0  0
  4  9  1  0  0  0  0
  4 16  2  0  0  0  0
  5 18  1  0  0  0  0
  6 20  1  0  0  0  0
  7 10  2  0  0  0  0
  7 19  1  0  0  0  0
  8 22  1  0  0  0  0
  9 22  2  0  0  0  0
 10 23  1  0  0  0  0
 11 12  2  0  0  0  0
 11 24  1  0  0  0  0
 12 25  1  0  0  0  0
 13 21  1  0  0  0  0
 13 23  2  0  0  0  0
 14 25  2  0  0  0  0
 14 26  1  0  0  0  0
 15 29  1  0  0  0  0
 15 65  2  0  0  0  0
 16 27  1  0  0  0  0
 17 27  1  0  0  0  0
 17 31  2  0  0  0  0
 17 32  1  0  0  0  0
 18 20  2  0  0  0  0
 18 37  1  0  0  0  0
 19 21  2  0  0  0  0
 19 38  1  0  0  0  0
 20 51  1  0  0  0  0
 21 39  1  0  0  0  0
 22 83  1  0  0  0  0
 23 84  1  0  0  0  0
 24 26  2  0  0  0  0
 24 83  1  0  0  0  0
 25 85  1  0  0  0  0
 26 86  1  0  0  0  0
 27 66  2  0  0  0  0
 28 30  2  0  0  0  0
 28 52  1  0  0  0  0
 28 67  1  0  0  0  0
 29 61  1  0  0  0  0
 29 67  2  0  0  0  0
 30 65  1  0  0  0  0
 30 74  1  0  0  0  0
 31 68  1  0  0  0  0
 31 72  1  0  0  0  0
 32 73  1  0  0  0  0
 32 78  2  0  0  0  0
 33 53  1  0  0  0  0
 33 75  1  0  0  0  0
 33 79  2  0  0  0  0
 34 62  1  0  0  0  0
 34 69  1  0  0  0  0
 34 80  2  0  0  0  0
 35 63  1  0  0  0  0
 35 76  1  0  0  0  0
 35 81  2  0  0  0  0
 36 70  1  0  0  0  0
 36 71  1  0  0  0  0
 36 82  2  0  0  0  0
 37 40  1  0  0  0  0
 38 53  1  0  0  0  0
 39 69  1  0  0  0  0
 40 42  1  0  0  0  0
 41 43  1  0  0  0  0
 41 47  1  0  0  0  0
 42 51  1  0  0  0  0
 43 54  1  0  0  0  0
 44 45  1  0  0  0  0
 44 55  1  0  0  0  0
 45 55  1  0  0  0  0
 46 48  1  0  0  0  0
 46 52  1  0  0  0  0
 47 70  1  0  0  0  0
 48 71  1  0  0  0  0
 49 52  1  0  0  0  0
 49 71  1  0  0  0  0
 50 54  1  0  0  0  0
 50 70  1  0  0  0  0
 51 75  1  0  0  0  0
 53 69  1  0  0  0  0
 54 68  1  0  0  0  0
 55 74  1  0  0  0  0
 56 63  1  0  0  0  0
 57 64  1  0  0  0  0
 58 64  1  0  0  0  0
 59 64  1  0  0  0  0
 60 77  1  0  0  0  0
 61 84  1  0  0  0  0
 62 64  1  0  0  0  0
 62 76  1  0  0  0  0
 63 77  1  0  0  0  0
 66 68  1  0  0  0  0
M  CHG  1  77   1
M  ISO  4  36 100  61 101  71 100  84 101
M  END
> <Batch ID>
0172

> <Smiles>
CNC(C)C(=O)NC(C(=O)N1Cc2cc([101O:1][101CH2:1]c3cnc(NC4CC4)c(C4CC[100N:0]([100C:0](=O)N5CCCC(n6nc(-c7ccc(Oc8ccc(F)cc8F)cc7)c(C(N)=O)c6N)C5)C4)n3)ccc2CC1C(=O)NC1CCCc2ccccc21)C(C)(C)C

> <Shape>
0.308

> <Color>
0.080

> <Negative vol penalty>
0.000

$$$$

  -OEChem-04052322403D

 88 97  0     1  0  0  0  0  0999 V2000
  -28.1283  -33.4075   26.5675 C   0  0  0  0  0  0  0  0  0  0  0  0
  -28.1715  -32.1703   25.9326 C   0  0  0  0  0  0  0  0  0  0  0  0
  -24.4565   -8.9075   21.4062 C   0  0  0  0  0  0  0  0  0  0  0  0
  -23.6604  -10.6316   22.8999 C   0  0  0  0  0  0  0  0  0  0  0  0
  -26.9130  -34.0768   26.7056 C   0  0  0  0  0  0  0  0  0  0  0  0
  -26.9992  -31.6013   25.4363 C   0  0  0  0  0  0  0  0  0  0  0  0
  -27.5895  -29.6780   20.7890 C   0  0  0  0  0  0  0  0  0  0  0  0
  -24.1317   -7.9367   22.3536 C   0  0  0  0  0  0  0  0  0  0  0  0
  -23.3355   -9.6607   23.8473 C   0  0  0  0  0  0  0  0  0  0  0  0
  -28.2243  -28.4408   20.6879 C   0  0  0  0  0  0  0  0  0  0  0  0
  -21.3523   -6.3437   23.4355 C   0  0  0  0  0  0  0  0  0  0  0  0
  -20.6882   -5.2006   22.9908 C   0  0  0  0  0  0  0  0  0  0  0  0
  -26.0774  -27.3648   20.4590 C   0  0  0  0  0  0  0  0  0  0  0  0
  -22.5113   -3.8308   23.7890 C   0  0  0  0  0  0  0  0  0  0  0  0
  -24.2209  -10.2550   21.6794 C   0  0  0  0  0  0  0  0  0  0  0  0
  -23.7285  -11.7610   19.6801 C   0  0  0  0  0  0  0  0  0  0  0  0
  -25.7267  -33.5201   26.2021 C   0  0  0  0  0  0  0  0  0  0  0  0
  -26.1910  -29.7668   20.7368 C   0  0  0  0  0  0  0  0  0  0  0  0
  -25.7667  -32.2632   25.5689 C   0  0  0  0  0  0  0  0  0  0  0  0
  -25.4275  -28.6045   20.5572 C   0  0  0  0  0  0  0  0  0  0  0  0
  -30.5786  -24.2257   19.1537 C   0  0  0  0  0  0  0  0  0  0  0  0
  -29.9988  -24.6551   20.3423 C   0  0  0  0  0  0  0  0  0  0  0  0
  -31.0217  -22.9129   19.0373 C   0  0  0  0  0  0  0  0  0  0  0  0
  -23.5711   -8.3133   23.5741 C   0  0  0  0  0  0  0  0  0  0  0  0
  -27.4681  -27.2836   20.5257 C   0  0  0  0  0  0  0  0  0  0  0  0
  -22.5960   -6.2304   24.0570 C   0  0  0  0  0  0  0  0  0  0  0  0
  -21.2676   -3.9442   23.1675 C   0  0  0  0  0  0  0  0  0  0  0  0
  -23.1755   -4.9740   24.2337 C   0  0  0  0  0  0  0  0  0  0  0  0
  -24.5568  -11.2584   20.7014 C   0  0  0  0  0  0  0  0  0  0  0  0
  -29.8861  -23.7401   21.3766 C   0  0  0  0  0  0  0  0  0  0  0  0
  -30.8634  -22.0759   20.1301 C   0  0  0  0  0  0  0  0  0  0  0  0
  -24.5082  -12.6858   19.0296 C   0  0  0  0  0  0  0  0  0  0  0  0
  -22.3752  -11.4222   19.3491 C   0  0  0  0  0  0  0  0  0  0  0  0
  -23.9296  -30.7527   22.7411 C   0  0  0  0  0  0  0  0  0  0  0  0
  -21.9924  -30.2456   20.1892 C   0  0  0  0  0  0  0  0  0  0  0  0
  -21.4569  -28.6217   17.2357 C   0  0  0  0  0  0  0  0  0  0  0  0
  -29.1536  -15.8572   21.0202 C   0  0  0  0  0  0  0  0  0  0  0  0
  -24.4297  -34.2593   26.4170 C   0  0  0  0  0  0  0  0  0  0  0  0
  -25.5229  -31.1118   20.8206 C   0  0  0  0  0  0  0  0  0  0  0  0
  -23.9242  -28.6481   20.4746 C   0  0  0  0  0  0  0  0  0  0  0  0
  -23.2906  -33.7607   25.5314 C   0  0  0  0  0  0  0  0  0  0  0  0
  -29.0466  -13.7170   18.0058 C   0  0  0  0  0  0  0  0  0  0  0  0
  -23.2281  -32.2367   25.5497 C   0  0  0  0  0  0  0  0  0  0  0  0
  -27.8296  -12.8486   18.3082 C   0  0  0  0  0  0  0  0  0  0  0  0
  -29.8867  -18.9896   21.0239 C   0  0  0  0  0  0  0  0  0  0  0  0
  -31.9427  -18.4768   20.7945 C   0  0  0  0  0  0  0  0  0  0  0  0
  -29.8111  -14.0980   19.2731 C   0  0  0  0  0  0  0  0  0  0  0  0
  -27.7353  -13.8725   20.6129 C   0  0  0  0  0  0  0  0  0  0  0  0
  -24.5203  -31.6248   24.9953 C   0  0  1  0  0  0  0  0  0  0  0  0
  -24.0675  -31.0289   21.2706 C   0  0  1  0  0  0  0  0  0  0  0  0
  -26.9290  -13.5249   19.3525 C   0  0  2  0  0  0  0  0  0  0  0  0
  -31.1999  -19.8005   21.0796 C   0  0  0  0  0  0  0  0  0  0  0  0
  -30.7258  -17.7496   21.4146 C   0  0  0  0  0  0  0  0  0  0  0  0
  -30.7234  -25.1728   18.0053 C   0  0  0  0  0  0  0  0  0  0  0  0
  -29.2723  -24.1431   22.6774 C   0  0  0  0  0  0  0  0  0  0  0  0
  -30.8410  -21.2978   17.1106 C   0  0  0  0  0  0  0  0  0  0  0  0
  -33.1088  -21.9874   17.9689 C   0  0  0  0  0  0  0  0  0  0  0  0
  -19.7656  -28.3833   15.3972 C   0  0  0  0  0  0  0  0  0  0  0  0
  -20.2748  -28.4905   22.0003 C   0  0  0  0  0  0  0  0  0  0  0  0
  -19.1966  -27.5474   19.9469 C   0  0  0  0  0  0  0  0  0  0  0  0
  -18.9834  -29.9792   20.4606 C   0  0  0  0  0  0  0  0  0  0  0  0
  -23.3535  -29.6342   15.2017 C   0  0  0  0  0  0  0  0  0  0  0  0
  -29.5104  -26.0652   20.4983 C   0  0  0  0  0  0  0  0  0  1  0  0
  -31.6478  -22.4313   17.7702 C   0  0  0  0  0  0  0  0  0  0  0  0
  -21.2038  -29.0710   19.6623 C   0  0  1  0  0  0  0  0  0  0  0  0
  -21.0033  -29.1251   15.8773 C   0  0  2  0  0  0  0  0  0  0  0  0
  -19.9429  -28.7707   20.5210 C   0  0  0  0  0  0  0  0  0  0  0  0
  -25.7699  -11.8175   20.7034 N   0  0  0  0  0  0  0  0  0  0  0  0
  -30.3049  -22.4570   21.3009 N   0  0  0  0  0  0  0  0  0  0  0  0
  -25.7095  -12.6809   19.6754 N   0  0  0  0  0  0  0  0  0  0  0  0
  -23.3171  -29.9861   20.5681 N   0  0  0  0  0  0  0  0  0  0  0  0
  -28.9216  -14.6760   20.2931 N   0  0  0  0  0  0  0  0  0  0  0  0
  -24.2766  -13.4946   17.9738 N   0  0  0  0  0  0  0  0  0  0  0  0
  -21.7218  -10.4513   20.1203 N   0  0  0  0  0  0  0  0  0  0  0  0
  -31.3151  -20.7371   20.0200 N   0  0  0  0  0  0  0  0  0  0  0  0
  -24.5338  -31.6962   23.5499 N   0  0  0  0  0  0  0  0  0  0  0  0
  -20.9171  -29.3667   18.2627 N   0  0  0  0  0  0  0  0  0  0  0  0
  -30.3439  -16.5203   20.7381 N   0  0  0  0  0  0  0  0  0  0  0  0
  -22.0841  -28.9383   14.8683 N   0  3  0  0  0  0  0  0  0  0  0  0
  -21.7690  -11.9525   18.3874 O   0  0  0  0  0  0  0  0  0  0  0  0
  -23.3188  -29.7581   23.1144 O   0  0  0  0  0  0  0  0  0  0  0  0
  -21.4550  -31.3539   20.2553 O   0  0  0  0  0  0  0  0  0  0  0  0
  -22.2115  -27.6612   17.3722 O   0  0  0  0  0  0  0  0  0  0  0  0
  -28.3646  -16.2915   21.8665 O   0  0  0  0  0  0  0  0  0  0  0  0
  -23.2538   -7.3662   24.4987 O   0  0  0  0  0  0  0  0  0  0  0  0
  -28.0852  -26.0747   20.4274 O   0  0  0  0  0  0  0  0  0  1  0  0
  -20.6291   -2.8464   22.7418 F   0  0  0  0  0  0  0  0  0  0  0  0
  -24.3695   -4.8587   24.8311 F   0  0  0  0  0  0  0  0  0  0  0  0
  1  2  1  0  0  0  0
  1  5  2  0  0  0  0
  2  6  2  0  0  0  0
  3  8  2  0  0  0  0
  3 15  1  0  0  0  0
  4  9  1  0  0  0  0
  4 15  2  0  0  0  0
  5 17  1  0  0  0  0
  6 19  1  0  0  0  0
  7 10  2  0  0  0  0
  7 18  1  0  0  0  0
  8 24  1  0  0  0  0
  9 24  2  0  0  0  0
 10 25  1  0  0  0  0
 11 12  2  0  0  0  0
 11 26  1  0  0  0  0
 12 27  1  0  0  0  0
 13 20  1  0  0  0  0
 13 25  2  0  0  0  0
 14 27  2  0  0  0  0
 14 28  1  0  0  0  0
 15 29  1  0  0  0  0
 16 29  1  0  0  0  0
 16 32  2  0  0  0  0
 16 33  1  0  0  0  0
 17 19  2  0  0  0  0
 17 38  1  0  0  0  0
 18 20  2  0  0  0  0
 18 39  1  0  0  0  0
 19 49  1  0  0  0  0
 20 40  1  0  0  0  0
 21 22  2  0  0  0  0
 21 23  1  0  0  0  0
 21 54  1  0  0  0  0
 22 30  1  0  0  0  0
 22 63  1  0  0  0  0
 23 31  2  0  0  0  0
 23 64  1  0  0  0  0
 24 85  1  0  0  0  0
 25 86  1  0  0  0  0
 26 28  2  0  0  0  0
 26 85  1  0  0  0  0
 27 87  1  0  0  0  0
 28 88  1  0  0  0  0
 29 68  2  0  0  0  0
 30 55  1  0  0  0  0
 30 69  2  0  0  0  0
 31 69  1  0  0  0  0
 31 75  1  0  0  0  0
 32 70  1  0  0  0  0
 32 73  1  0  0  0  0
 33 74  1  0  0  0  0
 33 80  2  0  0  0  0
 34 50  1  0  0  0  0
 34 76  1  0  0  0  0
 34 81  2  0  0  0  0
 35 65  1  0  0  0  0
 35 71  1  0  0  0  0
 35 82  2  0  0  0  0
 36 66  1  0  0  0  0
 36 77  1  0  0  0  0
 36 83  2  0  0  0  0
 37 72  1  0  0  0  0
 37 78  1  0  0  0  0
 37 84  2  0  0  0  0
 38 41  1  0  0  0  0
 39 50  1  0  0  0  0
 40 71  1  0  0  0  0
 41 43  1  0  0  0  0
 42 44  1  0  0  0  0
 42 47  1  0  0  0  0
 43 49  1  0  0  0  0
 44 51  1  0  0  0  0
 45 52  1  0  0  0  0
 45 53  1  0  0  0  0
 46 52  1  0  0  0  0
 46 53  1  0  0  0  0
 47 72  1  0  0  0  0
 48 51  1  0  0  0  0
 48 72  1  0  0  0  0
 49 76  1  0  0  0  0
 50 71  1  0  0  0  0
 51 70  1  0  0  0  0
 52 75  1  0  0  0  0
 53 78  1  0  0  0  0
 56 64  1  0  0  0  0
 57 64  1  0  0  0  0
 58 66  1  0  0  0  0
 59 67  1  0  0  0  0
 60 67  1  0  0  0  0
 61 67  1  0  0  0  0
 62 79  1  0  0  0  0
 63 86  1  0  0  0  0
 65 67  1  0  0  0  0
 65 77  1  0  0  0  0
 66 79  1  0  0  0  0
 68 70  1  0  0  0  0
M  CHG  1  79   1
M  ISO  4  37 100  63 101  78 100  86 101
M  END
> <Batch ID>
0172

> <Smiles>
CNC(C)C(=O)NC(C(=O)N1Cc2cc([101O:1][101CH2:1]c3c(C)nc(NC4CC([100NH:0][100C:0](=O)N5CCCC(n6nc(-c7ccc(Oc8ccc(F)cc8F)cc7)c(C(N)=O)c6N)C5)C4)c(C(C)C)c3C)ccc2CC1C(=O)NC1CCCc2ccccc21)C(C)(C)C

> <Shape>
0.325

> <Color>
0.087

> <Negative vol penalty>
0.000

$$$$

  -OEChem-04052322403D

 84 93  0     1  0  0  0  0  0999 V2000
  -30.5673  -34.1129   22.7294 C   0  0  0  0  0  0  0  0  0  0  0  0
  -30.2337  -32.7635   22.6725 C   0  0  0  0  0  0  0  0  0  0  0  0
  -23.2272  -11.6967   21.6806 C   0  0  0  0  0  0  0  0  0  0  0  0
  -24.4033   -9.5964   21.4743 C   0  0  0  0  0  0  0  0  0  0  0  0
  -29.6051  -35.0528   23.0961 C   0  0  0  0  0  0  0  0  0  0  0  0
  -28.9378  -32.3531   22.9833 C   0  0  0  0  0  0  0  0  0  0  0  0
  -27.1251  -28.9719   19.6778 C   0  0  0  0  0  0  0  0  0  0  0  0
  -22.0178  -11.0094   21.7837 C   0  0  0  0  0  0  0  0  0  0  0  0
  -23.1939   -8.9091   21.5774 C   0  0  0  0  0  0  0  0  0  0  0  0
  -27.5654  -27.6555   19.8075 C   0  0  0  0  0  0  0  0  0  0  0  0
  -21.0573   -7.9847   24.0271 C   0  0  0  0  0  0  0  0  0  0  0  0
  -21.0148   -6.8737   24.8693 C   0  0  0  0  0  0  0  0  0  0  0  0
  -25.5159  -27.0887   20.9467 C   0  0  0  0  0  0  0  0  0  0  0  0
  -29.3548  -21.8108   21.5770 C   0  0  0  0  0  0  0  0  0  0  0  0
  -20.4139   -5.4746   22.9935 C   0  0  0  0  0  0  0  0  0  0  0  0
  -24.4200  -10.9902   21.5258 C   0  0  0  0  0  0  0  0  0  0  0  0
  -26.5263  -12.0759   22.4704 C   0  0  0  0  0  0  0  0  0  0  0  0
  -28.2942  -34.6548   23.4023 C   0  0  0  0  0  0  0  0  0  0  0  0
  -25.8795  -29.3599   20.1920 C   0  0  0  0  0  0  0  0  0  0  0  0
  -27.9574  -33.2885   23.3558 C   0  0  0  0  0  0  0  0  0  0  0  0
  -25.0610  -28.4101   20.8199 C   0  0  0  0  0  0  0  0  0  0  0  0
  -29.1052  -23.1674   21.4672 C   0  0  0  0  0  0  0  0  0  0  0  0
  -22.0012   -9.6156   21.7322 C   0  0  0  0  0  0  0  0  0  0  0  0
  -26.7620  -26.7143   20.4446 C   0  0  0  0  0  0  0  0  0  0  0  0
  -20.7780   -7.8407   22.6680 C   0  0  0  0  0  0  0  0  0  0  0  0
  -20.6932   -5.6186   24.3525 C   0  0  0  0  0  0  0  0  0  0  0  0
  -20.4564   -6.5857   22.1512 C   0  0  0  0  0  0  0  0  0  0  0  0
  -25.6695  -11.6996   21.4187 C   0  0  0  0  0  0  0  0  0  0  0  0
  -29.2381  -21.0383   20.4390 C   0  0  0  0  0  0  0  0  0  0  0  0
  -28.7558  -23.6618   20.2266 C   0  0  0  0  0  0  0  0  0  0  0  0
  -27.5690  -12.7197   21.8501 C   0  0  0  0  0  0  0  0  0  0  0  0
  -26.3918  -11.8624   23.8818 C   0  0  0  0  0  0  0  0  0  0  0  0
  -24.9114  -31.4253   22.4057 C   0  0  0  0  0  0  0  0  0  0  0  0
  -21.9644  -30.5955   21.3336 C   0  0  0  0  0  0  0  0  0  0  0  0
  -19.9926  -28.2876   19.7740 C   0  0  0  0  0  0  0  0  0  0  0  0
  -29.6238  -16.1930   18.1440 C   0  0  0  0  0  0  0  0  0  0  0  0
  -27.3009  -35.7022   23.8394 C   0  0  0  0  0  0  0  0  0  0  0  0
  -25.4076  -30.7777   20.0203 C   0  0  0  0  0  0  0  0  0  0  0  0
  -23.7067  -28.7710   21.3712 C   0  0  0  0  0  0  0  0  0  0  0  0
  -25.8516  -35.2254   23.7902 C   0  0  0  0  0  0  0  0  0  0  0  0
  -28.8109  -13.0469   16.9653 C   0  0  0  0  0  0  0  0  0  0  0  0
  -25.7223  -33.8440   24.4242 C   0  0  0  0  0  0  0  0  0  0  0  0
  -27.9903  -12.4345   18.1001 C   0  0  0  0  0  0  0  0  0  0  0  0
  -28.2481  -18.7236   20.1493 C   0  0  0  0  0  0  0  0  0  0  0  0
  -30.6908  -19.1291   19.6219 C   0  0  0  0  0  0  0  0  0  0  0  0
  -28.4468  -14.5124   16.7579 C   0  0  0  0  0  0  0  0  0  0  0  0
  -28.5286  -17.2186   20.1860 C   0  0  0  0  0  0  0  0  0  0  0  0
  -30.9183  -17.6221   19.6966 C   0  0  0  0  0  0  0  0  0  0  0  0
  -27.7844  -14.7518   19.1290 C   0  0  0  0  0  0  0  0  0  0  0  0
  -26.5558  -32.8069   23.6618 C   0  0  1  0  0  0  0  0  0  0  0  0
  -29.5002  -19.5455   20.5045 C   0  0  0  0  0  0  0  0  0  0  0  0
  -24.3433  -31.1804   21.0364 C   0  0  1  0  0  0  0  0  0  0  0  0
  -28.1180  -13.2684   19.3873 C   0  0  1  0  0  0  0  0  0  0  0  0
  -29.2178  -24.0459   22.6649 C   0  0  0  0  0  0  0  0  0  0  0  0
  -17.6174  -27.8748   19.0774 C   0  0  0  0  0  0  0  0  0  0  0  0
  -21.2307  -29.9531   24.2248 C   0  0  0  0  0  0  0  0  0  0  0  0
  -19.2514  -28.6824   23.3669 C   0  0  0  0  0  0  0  0  0  0  0  0
  -19.4432  -31.1312   22.9320 C   0  0  0  0  0  0  0  0  0  0  0  0
  -20.7359  -28.1350   16.9134 C   0  0  0  0  0  0  0  0  0  0  0  0
  -28.4713  -25.1130   20.0325 C   0  0  0  0  0  0  0  0  0  1  0  0
  -20.9571  -29.5299   21.6926 C   0  0  1  0  0  0  0  0  0  0  0  0
  -18.9722  -28.4238   18.6583 C   0  0  2  0  0  0  0  0  0  0  0  0
  -20.2469  -29.8175   23.0455 C   0  0  0  0  0  0  0  0  0  0  0  0
  -26.1280  -12.0735   20.2212 N   0  0  0  0  0  0  0  0  0  0  0  0
  -28.8943  -21.5490   19.2376 N   0  0  0  0  0  0  0  0  0  0  0  0
  -28.6494  -22.8824   19.1297 N   0  0  0  0  0  0  0  0  0  0  0  0
  -27.2843  -12.6914   20.5166 N   0  0  0  0  0  0  0  0  0  0  0  0
  -23.2925  -30.1714   21.1842 N   0  0  0  0  0  0  0  0  0  0  0  0
  -28.5773  -15.2692   18.0029 N   0  0  0  0  0  0  0  0  0  0  0  0
  -29.6985  -16.8883   19.3603 N   0  0  0  0  0  0  0  0  0  0  0  0
  -28.6925  -13.3018   22.3208 N   0  0  0  0  0  0  0  0  0  0  0  0
  -25.2588  -11.1829   24.3497 N   0  0  0  0  0  0  0  0  0  0  0  0
  -25.8795  -32.4104   22.4453 N   0  0  0  0  0  0  0  0  0  0  0  0
  -20.0520  -29.4236   20.5533 N   0  0  0  0  0  0  0  0  0  0  0  0
  -19.4260  -27.6820   17.4480 N   0  3  0  0  0  0  0  0  0  0  0  0
  -27.2427  -12.2768   24.7050 O   0  0  0  0  0  0  0  0  0  0  0  0
  -24.5006  -30.7700   23.3563 O   0  0  0  0  0  0  0  0  0  0  0  0
  -21.5857  -31.7599   21.1840 O   0  0  0  0  0  0  0  0  0  0  0  0
  -20.6667  -27.2734   19.9401 O   0  0  0  0  0  0  0  0  0  0  0  0
  -30.4438  -16.3852   17.2375 O   0  0  0  0  0  0  0  0  0  0  0  0
  -20.8213   -8.9446   21.8330 O   0  0  0  0  0  0  0  0  0  0  0  0
  -27.1925  -25.4199   20.5740 O   0  0  0  0  0  0  0  0  0  1  0  0
  -20.6540   -4.5515   25.1611 F   0  0  0  0  0  0  0  0  0  0  0  0
  -20.1882   -6.4410   20.8462 F   0  0  0  0  0  0  0  0  0  0  0  0
  1  2  1  0  0  0  0
  1  5  2  0  0  0  0
  2  6  2  0  0  0  0
  3  8  2  0  0  0  0
  3 16  1  0  0  0  0
  4  9  1  0  0  0  0
  4 16  2  0  0  0  0
  5 18  1  0  0  0  0
  6 20  1  0  0  0  0
  7 10  2  0  0  0  0
  7 19  1  0  0  0  0
  8 23  1  0  0  0  0
  9 23  2  0  0  0  0
 10 24  1  0  0  0  0
 11 12  2  0  0  0  0
 11 25  1  0  0  0  0
 12 26  1  0  0  0  0
 13 21  1  0  0  0  0
 13 24  2  0  0  0  0
 14 22  1  0  0  0  0
 14 29  2  0  0  0  0
 15 26  2  0  0  0  0
 15 27  1  0  0  0  0
 16 28  1  0  0  0  0
 17 28  1  0  0  0  0
 17 31  2  0  0  0  0
 17 32  1  0  0  0  0
 18 20  2  0  0  0  0
 18 37  1  0  0  0  0
 19 21  2  0  0  0  0
 19 38  1  0  0  0  0
 20 50  1  0  0  0  0
 21 39  1  0  0  0  0
 22 30  2  0  0  0  0
 22 54  1  0  0  0  0
 23 81  1  0  0  0  0
 24 82  1  0  0  0  0
 25 27  2  0  0  0  0
 25 81  1  0  0  0  0
 26 83  1  0  0  0  0
 27 84  1  0  0  0  0
 28 64  2  0  0  0  0
 29 51  1  0  0  0  0
 29 65  1  0  0  0  0
 30 60  1  0  0  0  0
 30 66  1  0  0  0  0
 31 67  1  0  0  0  0
 31 71  1  0  0  0  0
 32 72  1  0  0  0  0
 32 76  2  0  0  0  0
 33 52  1  0  0  0  0
 33 73  1  0  0  0  0
 33 77  2  0  0  0  0
 34 61  1  0  0  0  0
 34 68  1  0  0  0  0
 34 78  2  0  0  0  0
 35 62  1  0  0  0  0
 35 74  1  0  0  0  0
 35 79  2  0  0  0  0
 36 69  1  0  0  0  0
 36 70  1  0  0  0  0
 36 80  2  0  0  0  0
 37 40  1  0  0  0  0
 38 52  1  0  0  0  0
 39 68  1  0  0  0  0
 40 42  1  0  0  0  0
 41 43  1  0  0  0  0
 41 46  1  0  0  0  0
 42 50  1  0  0  0  0
 43 53  1  0  0  0  0
 44 47  1  0  0  0  0
 44 51  1  0  0  0  0
 45 48  1  0  0  0  0
 45 51  1  0  0  0  0
 46 69  1  0  0  0  0
 47 70  1  0  0  0  0
 48 70  1  0  0  0  0
 49 53  1  0  0  0  0
 49 69  1  0  0  0  0
 50 73  1  0  0  0  0
 52 68  1  0  0  0  0
 53 67  1  0  0  0  0
 55 62  1  0  0  0  0
 56 63  1  0  0  0  0
 57 63  1  0  0  0  0
 58 63  1  0  0  0  0
 59 75  1  0  0  0  0
 60 82  1  0  0  0  0
 61 63  1  0  0  0  0
 61 74  1  0  0  0  0
 62 75  1  0  0  0  0
 64 67  1  0  0  0  0
 65 66  2  0  0  0  0
M  CHG  1  75   1
M  ISO  4  36 100  60 101  70 100  82 101
M  END
> <Batch ID>
0172

> <Smiles>
CNC(C)C(=O)NC(C(=O)N1Cc2cc([101O:1][101CH2:1]c3nnc(C4CC[100N:0]([100C:0](=O)N5CCCC(n6nc(-c7ccc(Oc8ccc(F)cc8F)cc7)c(C(N)=O)c6N)C5)CC4)cc3C)ccc2CC1C(=O)NC1CCCc2ccccc21)C(C)(C)C

> <Shape>
0.313

> <Color>
0.076

> <Negative vol penalty>
0.000

$$$$

  -OEChem-04052322403D

 88 98  0     1  0  0  0  0  0999 V2000
  -23.9670   -7.8919   21.5317 C   0  0  0  0  0  0  0  0  0  0  0  0
  -24.5061   -8.9581   20.8190 C   0  0  0  0  0  0  0  0  0  0  0  0
  -25.0441  -31.1731   22.4323 C   0  0  0  0  0  0  0  0  0  0  0  0
  -27.4545  -31.0498   22.5404 C   0  0  0  0  0  0  0  0  0  0  0  0
  -22.6944   -8.0009   22.0906 C   0  0  0  0  0  0  0  0  0  0  0  0
  -23.7723  -10.1336   20.6638 C   0  0  0  0  0  0  0  0  0  0  0  0
  -26.5599  -14.2843   21.4676 C   0  0  0  0  0  0  0  0  0  0  0  0
  -25.0478  -32.1327   23.4446 C   0  0  0  0  0  0  0  0  0  0  0  0
  -27.4582  -32.0094   23.5528 C   0  0  0  0  0  0  0  0  0  0  0  0
  -27.4111  -14.6885   20.4399 C   0  0  0  0  0  0  0  0  0  0  0  0
  -25.6535  -35.4467   23.7333 C   0  0  0  0  0  0  0  0  0  0  0  0
  -24.8448  -36.5705   23.5642 C   0  0  0  0  0  0  0  0  0  0  0  0
  -31.7899  -23.3664   17.6848 C   0  0  0  0  0  0  0  0  0  0  0  0
  -30.5016  -21.4015   19.1888 C   0  0  0  0  0  0  0  0  0  0  0  0
  -25.7985  -16.3514   19.7666 C   0  0  0  0  0  0  0  0  0  0  0  0
  -23.6383  -36.0056   25.5797 C   0  0  0  0  0  0  0  0  0  0  0  0
  -26.2475  -30.6316   21.9802 C   0  0  0  0  0  0  0  0  0  0  0  0
  -26.3183  -29.8669   19.5476 C   0  0  0  0  0  0  0  0  0  0  0  0
  -21.9485   -9.1818   21.9504 C   0  0  0  0  0  0  0  0  0  0  0  0
  -25.3149  -14.9044   21.6459 C   0  0  0  0  0  0  0  0  0  0  0  0
  -22.4879  -10.2580   21.2202 C   0  0  0  0  0  0  0  0  0  0  0  0
  -31.3535  -23.6525   18.9784 C   0  0  0  0  0  0  0  0  0  0  0  0
  -30.9379  -21.1154   17.8952 C   0  0  0  0  0  0  0  0  0  0  0  0
  -24.9345  -15.9550   20.7988 C   0  0  0  0  0  0  0  0  0  0  0  0
  -31.5820  -22.0979   17.1432 C   0  0  0  0  0  0  0  0  0  0  0  0
  -30.7094  -22.6701   19.7304 C   0  0  0  0  0  0  0  0  0  0  0  0
  -26.2548  -32.5509   24.0049 C   0  0  0  0  0  0  0  0  0  0  0  0
  -27.0292  -15.7203   19.5875 C   0  0  0  0  0  0  0  0  0  0  0  0
  -25.4546  -34.6023   24.8256 C   0  0  0  0  0  0  0  0  0  0  0  0
  -23.8372  -36.8500   24.4874 C   0  0  0  0  0  0  0  0  0  0  0  0
  -24.4470  -34.8817   25.7488 C   0  0  0  0  0  0  0  0  0  0  0  0
  -26.2443  -29.6399   20.9349 C   0  0  0  0  0  0  0  0  0  0  0  0
  -26.2799  -28.6115   18.9917 C   0  0  0  0  0  0  0  0  0  0  0  0
  -26.4135  -31.1021   18.8258 C   0  0  0  0  0  0  0  0  0  0  0  0
  -22.2899  -13.9338   21.5400 C   0  0  0  0  0  0  0  0  0  0  0  0
  -21.6935  -16.9521   22.5680 C   0  0  0  0  0  0  0  0  0  0  0  0
  -22.7311  -20.1958   22.7883 C   0  0  0  0  0  0  0  0  0  0  0  0
  -27.7642  -23.1908   21.0566 C   0  0  0  0  0  0  0  0  0  0  0  0
  -20.5580   -9.2356   22.5321 C   0  0  0  0  0  0  0  0  0  0  0  0
  -24.4198  -14.4747   22.7758 C   0  0  0  0  0  0  0  0  0  0  0  0
  -23.6171  -16.6668   20.9606 C   0  0  0  0  0  0  0  0  0  0  0  0
  -19.9976  -10.6513   22.6410 C   0  0  0  0  0  0  0  0  0  0  0  0
  -24.5919  -24.2084   19.8007 C   0  0  0  0  0  0  0  0  0  0  0  0
  -30.4932  -26.0472   19.4251 C   0  0  0  0  0  0  0  0  0  0  0  0
  -31.7301  -26.1799   18.5928 C   0  0  0  0  0  0  0  0  0  0  0  0
  -31.3759  -18.6560   18.1928 C   0  0  0  0  0  0  0  0  0  0  0  0
  -20.2342  -11.4203   21.3450 C   0  0  0  0  0  0  0  0  0  0  0  0
  -30.2365  -17.8122   18.7553 C   0  0  0  0  0  0  0  0  0  0  0  0
  -24.6623  -25.7363   19.8238 C   0  0  0  0  0  0  0  0  0  0  0  0
  -29.2047  -19.4052   17.3182 C   0  0  0  0  0  0  0  0  0  0  0  0
  -25.3205  -23.5918   20.9926 C   0  0  0  0  0  0  0  0  0  0  0  0
  -26.7876  -25.5628   21.1846 C   0  0  0  0  0  0  0  0  0  0  0  0
  -31.5852  -25.0171   19.5379 C   0  0  0  0  0  0  0  0  0  0  0  0
  -30.7052  -19.7517   17.3379 C   0  0  1  0  0  0  0  0  0  0  0  0
  -21.7329  -11.5586   21.0513 C   0  0  1  0  0  0  0  0  0  0  0  0
  -22.9543  -14.8309   22.5457 C   0  0  1  0  0  0  0  0  0  0  0  0
  -29.1493  -17.9253   17.6921 C   0  0  2  0  0  0  0  0  0  0  0  0
  -26.1146  -26.2285   19.9721 C   0  0  2  0  0  0  0  0  0  0  0  0
  -32.0581  -21.8144   15.7563 C   0  0  0  0  0  0  0  0  0  0  0  0
  -22.0124  -22.4396   23.6523 C   0  0  0  0  0  0  0  0  0  0  0  0
  -19.7716  -17.2396   20.2156 C   0  0  0  0  0  0  0  0  0  0  0  0
  -19.8261  -19.7183   20.5641 C   0  0  0  0  0  0  0  0  0  0  0  0
  -18.9493  -18.2268   22.3612 C   0  0  0  0  0  0  0  0  0  0  0  0
  -25.0491  -20.3620   24.6208 C   0  0  0  0  0  0  0  0  0  0  0  0
  -30.2336  -22.9511   21.1182 C   0  0  0  0  0  0  0  0  0  0  0  0
  -27.7875  -17.4848   18.1849 C   0  0  0  0  0  0  0  0  0  1  0  0
  -21.4338  -18.2787   21.8959 C   0  0  1  0  0  0  0  0  0  0  0  0
  -22.7772  -21.1613   23.9588 C   0  0  2  0  0  0  0  0  0  0  0  0
  -20.0193  -18.3513   21.2547 C   0  0  0  0  0  0  0  0  0  0  0  0
  -26.1646  -28.3424   21.2416 N   0  0  0  0  0  0  0  0  0  0  0  0
  -26.1883  -27.7428   20.0391 N   0  0  0  0  0  0  0  0  0  0  0  0
  -22.7740  -16.2061   22.0761 N   0  0  0  0  0  0  0  0  0  0  0  0
  -26.6925  -24.0986   21.0757 N   0  0  0  0  0  0  0  0  0  0  0  0
  -26.3156  -28.1771   17.7141 N   0  0  0  0  0  0  0  0  0  0  0  0
  -26.4414  -32.3002   19.5526 N   0  0  0  0  0  0  0  0  0  0  0  0
  -22.3163  -12.5940   21.8771 N   0  0  0  0  0  0  0  0  0  0  0  0
  -21.6865  -19.3031   22.9035 N   0  0  0  0  0  0  0  0  0  0  0  0
  -29.0318  -23.7549   21.1329 N   0  0  0  0  0  0  0  0  0  0  0  0
  -24.1876  -21.5224   24.2771 N   0  3  0  0  0  0  0  0  0  0  0  0
  -26.4554  -31.1431   17.5728 O   0  0  0  0  0  0  0  0  0  0  0  0
  -21.7891  -14.4213   20.5334 O   0  0  0  0  0  0  0  0  0  0  0  0
  -20.9689  -16.5942   23.5000 O   0  0  0  0  0  0  0  0  0  0  0  0
  -23.5384  -20.2324   21.8624 O   0  0  0  0  0  0  0  0  0  0  0  0
  -27.6036  -21.9685   20.9720 O   0  0  0  0  0  0  0  0  0  0  0  0
  -26.2588  -33.4874   24.9925 O   0  0  0  0  0  0  0  0  0  0  0  0
  -27.8577  -16.1163   18.5832 O   0  0  0  0  0  0  0  0  0  1  0  0
  -23.0617  -37.9301   24.3257 F   0  0  0  0  0  0  0  0  0  0  0  0
  -24.2519  -34.0748   26.8008 F   0  0  0  0  0  0  0  0  0  0  0  0
  1  2  1  0  0  0  0
  1  5  2  0  0  0  0
  2  6  2  0  0  0  0
  3  8  2  0  0  0  0
  3 17  1  0  0  0  0
  4  9  1  0  0  0  0
  4 17  2  0  0  0  0
  5 19  1  0  0  0  0
  6 21  1  0  0  0  0
  7 10  2  0  0  0  0
  7 20  1  0  0  0  0
  8 27  1  0  0  0  0
  9 27  2  0  0  0  0
 10 28  1  0  0  0  0
 11 12  2  0  0  0  0
 11 29  1  0  0  0  0
 12 30  1  0  0  0  0
 13 22  2  0  0  0  0
 13 25  1  0  0  0  0
 14 23  1  0  0  0  0
 14 26  2  0  0  0  0
 15 24  1  0  0  0  0
 15 28  2  0  0  0  0
 16 30  2  0  0  0  0
 16 31  1  0  0  0  0
 17 32  1  0  0  0  0
 18 32  1  0  0  0  0
 18 33  2  0  0  0  0
 18 34  1  0  0  0  0
 19 21  2  0  0  0  0
 19 39  1  0  0  0  0
 20 24  2  0  0  0  0
 20 40  1  0  0  0  0
 21 55  1  0  0  0  0
 22 26  1  0  0  0  0
 22 53  1  0  0  0  0
 23 25  2  0  0  0  0
 23 54  1  0  0  0  0
 24 41  1  0  0  0  0
 25 59  1  0  0  0  0
 26 65  1  0  0  0  0
 27 85  1  0  0  0  0
 28 86  1  0  0  0  0
 29 31  2  0  0  0  0
 29 85  1  0  0  0  0
 30 87  1  0  0  0  0
 31 88  1  0  0  0  0
 32 70  2  0  0  0  0
 33 71  1  0  0  0  0
 33 74  1  0  0  0  0
 34 75  1  0  0  0  0
 34 80  2  0  0  0  0
 35 56  1  0  0  0  0
 35 76  1  0  0  0  0
 35 81  2  0  0  0  0
 36 67  1  0  0  0  0
 36 72  1  0  0  0  0
 36 82  2  0  0  0  0
 37 68  1  0  0  0  0
 37 77  1  0  0  0  0
 37 83  2  0  0  0  0
 38 73  1  0  0  0  0
 38 78  1  0  0  0  0
 38 84  2  0  0  0  0
 39 42  1  0  0  0  0
 40 56  1  0  0  0  0
 41 72  1  0  0  0  0
 42 47  1  0  0  0  0
 43 49  1  0  0  0  0
 43 51  1  0  0  0  0
 44 45  1  0  0  0  0
 44 53  1  0  0  0  0
 45 53  1  0  0  0  0
 46 48  1  0  0  0  0
 46 54  1  0  0  0  0
 47 55  1  0  0  0  0
 48 57  1  0  0  0  0
 49 58  1  0  0  0  0
 50 54  1  0  0  0  0
 50 57  1  0  0  0  0
 51 73  1  0  0  0  0
 52 58  1  0  0  0  0
 52 73  1  0  0  0  0
 55 76  1  0  0  0  0
 56 72  1  0  0  0  0
 57 66  1  0  0  0  0
 58 71  1  0  0  0  0
 60 68  1  0  0  0  0
 61 69  1  0  0  0  0
 62 69  1  0  0  0  0
 63 69  1  0  0  0  0
 64 79  1  0  0  0  0
 65 78  1  0  0  0  0
 66 86  1  0  0  0  0
 67 69  1  0  0  0  0
 67 77  1  0  0  0  0
 68 79  1  0  0  0  0
 70 71  1  0  0  0  0
M  CHG  1  79   1
M  ISO  4  38 100  66 101  78 100  86 101
M  END
> <Batch ID>
0172

> <Smiles>
CNC(C)C(=O)NC(C(=O)N1Cc2cc([101O:1][101CH2:1]C3CCC(c4cc(C[100NH:0][100C:0](=O)N5CCCC(n6nc(-c7ccc(Oc8ccc(F)cc8F)cc7)c(C(N)=O)c6N)C5)c(C5CC5)cc4C)C3)ccc2CC1C(=O)NC1CCCc2ccccc21)C(C)(C)C

> <Shape>
0.234

> <Color>
0.062

> <Negative vol penalty>
0.000

$$$$

  -OEChem-04052322403D

 90100  0     1  0  0  0  0  0999 V2000
  -30.4416  -32.5347   25.2335 C   0  0  0  0  0  0  0  0  0  0  0  0
  -30.0303  -31.3890   24.5599 C   0  0  0  0  0  0  0  0  0  0  0  0
  -23.0162  -11.1447   22.9845 C   0  0  0  0  0  0  0  0  0  0  0  0
  -23.3217   -9.7159   21.0604 C   0  0  0  0  0  0  0  0  0  0  0  0
  -29.5070  -33.3178   25.9095 C   0  0  0  0  0  0  0  0  0  0  0  0
  -28.6841  -31.0253   24.5628 C   0  0  0  0  0  0  0  0  0  0  0  0
  -27.0369  -29.6366   19.9799 C   0  0  0  0  0  0  0  0  0  0  0  0
  -22.1977  -10.1796   23.5713 C   0  0  0  0  0  0  0  0  0  0  0  0
  -22.5032   -8.7507   21.6472 C   0  0  0  0  0  0  0  0  0  0  0  0
  -27.3744  -28.3564   19.5430 C   0  0  0  0  0  0  0  0  0  0  0  0
  -22.7795   -6.3637   24.0234 C   0  0  0  0  0  0  0  0  0  0  0  0
  -23.2101   -5.0377   23.9799 C   0  0  0  0  0  0  0  0  0  0  0  0
  -25.1787  -27.5727   20.1625 C   0  0  0  0  0  0  0  0  0  0  0  0
  -21.2190   -4.4314   22.7530 C   0  0  0  0  0  0  0  0  0  0  0  0
  -28.5497  -21.9162   17.3342 C   0  0  0  0  0  0  0  0  0  0  0  0
  -23.5781  -10.9129   21.7290 C   0  0  0  0  0  0  0  0  0  0  0  0
  -24.0734  -13.2319   20.7885 C   0  0  0  0  0  0  0  0  0  0  0  0
  -28.1473  -32.9688   25.9127 C   0  0  0  0  0  0  0  0  0  0  0  0
  -25.7694  -29.8924   20.5224 C   0  0  0  0  0  0  0  0  0  0  0  0
  -27.7306  -31.8038   25.2407 C   0  0  0  0  0  0  0  0  0  0  0  0
  -24.8267  -28.8576   20.6033 C   0  0  0  0  0  0  0  0  0  0  0  0
  -28.4289  -23.4479   19.1497 C   0  0  0  0  0  0  0  0  0  0  0  0
  -28.2508  -24.4761   18.2307 C   0  0  0  0  0  0  0  0  0  0  0  0
  -28.5819  -22.1408   18.7011 C   0  0  0  0  0  0  0  0  0  0  0  0
  -21.9413   -8.9826   22.9027 C   0  0  0  0  0  0  0  0  0  0  0  0
  -26.4462  -27.3235   19.6369 C   0  0  0  0  0  0  0  0  0  0  0  0
  -21.5686   -6.7236   23.4318 C   0  0  0  0  0  0  0  0  0  0  0  0
  -22.4299   -4.0715   23.3447 C   0  0  0  0  0  0  0  0  0  0  0  0
  -20.7884   -5.7574   22.7966 C   0  0  0  0  0  0  0  0  0  0  0  0
  -24.4232  -11.9097   21.1221 C   0  0  0  0  0  0  0  0  0  0  0  0
  -28.2336  -24.1470   16.8848 C   0  0  0  0  0  0  0  0  0  0  0  0
  -25.2170  -13.7624   20.2432 C   0  0  0  0  0  0  0  0  0  0  0  0
  -22.8264  -13.9191   20.9565 C   0  0  0  0  0  0  0  0  0  0  0  0
  -24.6957  -30.8777   23.3474 C   0  0  0  0  0  0  0  0  0  0  0  0
  -21.8392  -30.9179   21.8108 C   0  0  0  0  0  0  0  0  0  0  0  0
  -19.9088  -29.7451   19.2525 C   0  0  0  0  0  0  0  0  0  0  0  0
  -30.7636  -14.5090   20.4837 C   0  0  0  0  0  0  0  0  0  0  0  0
  -27.1810  -33.8207   26.6970 C   0  0  0  0  0  0  0  0  0  0  0  0
  -25.4116  -31.2849   20.9646 C   0  0  0  0  0  0  0  0  0  0  0  0
  -23.4454  -29.0847   21.1592 C   0  0  0  0  0  0  0  0  0  0  0  0
  -25.7185  -33.5708   26.3379 C   0  0  0  0  0  0  0  0  0  0  0  0
  -29.5360  -11.5484   18.8190 C   0  0  0  0  0  0  0  0  0  0  0  0
  -25.4309  -32.0738   26.2818 C   0  0  0  0  0  0  0  0  0  0  0  0
  -28.0738  -11.4716   19.2619 C   0  0  0  0  0  0  0  0  0  0  0  0
  -30.1900  -20.0321   21.3137 C   0  0  0  0  0  0  0  0  0  0  0  0
  -30.4336  -12.1287   19.9107 C   0  0  0  0  0  0  0  0  0  0  0  0
  -30.1435  -20.7299   19.9544 C   0  0  0  0  0  0  0  0  0  0  0  0
  -28.9339  -16.3496   20.8382 C   0  0  0  0  0  0  0  0  0  0  0  0
  -30.9428  -16.9562   21.1883 C   0  0  0  0  0  0  0  0  0  0  0  0
  -28.5307  -13.3395   20.8946 C   0  0  0  0  0  0  0  0  0  0  0  0
  -27.7851  -19.9801   19.6099 C   0  0  0  0  0  0  0  0  0  0  0  0
  -26.2756  -31.3899   25.2001 C   0  0  1  0  0  0  0  0  0  0  0  0
  -24.2690  -31.3160   21.9749 C   0  0  1  0  0  0  0  0  0  0  0  0
  -29.2011  -18.8662   21.4316 C   0  0  2  0  0  0  0  0  0  0  0  0
  -29.6970  -17.6728   20.6401 C   0  0  0  0  0  0  0  0  0  0  0  0
  -27.5827  -12.8291   19.7993 C   0  0  2  0  0  0  0  0  0  0  0  0
  -27.7943  -19.2618   20.9629 C   0  0  1  0  0  0  0  0  0  0  0  0
  -28.4559  -23.7487   20.6148 C   0  0  0  0  0  0  0  0  0  0  0  0
  -28.0462  -25.2088   15.8508 C   0  0  0  0  0  0  0  0  0  0  0  0
  -17.6042  -29.9333   18.2774 C   0  0  0  0  0  0  0  0  0  0  0  0
  -20.7485  -29.1628   24.0558 C   0  0  0  0  0  0  0  0  0  0  0  0
  -18.7993  -28.6123   22.5841 C   0  0  0  0  0  0  0  0  0  0  0  0
  -19.1955  -30.9699   23.2963 C   0  0  0  0  0  0  0  0  0  0  0  0
  -20.9545  -30.7752   16.6827 C   0  0  0  0  0  0  0  0  0  0  0  0
  -28.0841  -25.8890   18.6802 C   0  0  0  0  0  0  0  0  0  1  0  0
  -20.7317  -29.9168   21.5866 C   0  0  1  0  0  0  0  0  0  0  0  0
  -19.0298  -30.4618   18.2435 C   0  0  2  0  0  0  0  0  0  0  0  0
  -19.8954  -29.6604   22.8720 C   0  0  0  0  0  0  0  0  0  0  0  0
  -28.3788  -22.8891   16.4112 N   0  0  0  0  0  0  0  0  0  0  0  0
  -25.6898  -11.6181   20.8144 N   0  0  0  0  0  0  0  0  0  0  0  0
  -26.1459  -12.7644   20.2816 N   0  0  0  0  0  0  0  0  0  0  0  0
  -28.7640  -21.0723   19.5870 N   0  0  2  0  0  0  0  0  0  0  0  0
  -23.1455  -30.4620   21.5841 N   0  0  0  0  0  0  0  0  0  0  0  0
  -29.9070  -13.4092   20.3900 N   0  0  0  0  0  0  0  0  0  0  0  0
  -30.2389  -15.7089   20.9030 N   0  0  0  0  0  0  0  0  0  0  0  0
  -25.5085  -14.9804   19.7394 N   0  0  0  0  0  0  0  0  0  0  0  0
  -21.8872  -13.8627   19.9177 N   0  0  0  0  0  0  0  0  0  0  0  0
  -25.7148  -31.6376   23.8891 N   0  0  0  0  0  0  0  0  0  0  0  0
  -19.9540  -30.4146   20.4571 N   0  0  0  0  0  0  0  0  0  0  0  0
  -27.1902  -20.1818   21.9775 N   0  3  0  0  0  0  0  0  0  0  0  0
  -19.5668  -30.2775   16.8656 N   0  3  0  0  0  0  0  0  0  0  0  0
  -22.5596  -14.5776   21.9902 O   0  0  0  0  0  0  0  0  0  0  0  0
  -24.1404  -29.9219   23.8763 O   0  0  0  0  0  0  0  0  0  0  0  0
  -21.5552  -32.0643   22.1670 O   0  0  0  0  0  0  0  0  0  0  0  0
  -20.4936  -28.6943   18.9989 O   0  0  0  0  0  0  0  0  0  0  0  0
  -31.9595  -14.4323   20.1720 O   0  0  0  0  0  0  0  0  0  0  0  0
  -21.1429   -8.0406   23.4751 O   0  0  0  0  0  0  0  0  0  0  0  0
  -26.7755  -26.0642   19.2088 O   0  0  0  0  0  0  0  0  0  1  0  0
  -22.8442   -2.7985   23.3017 F   0  0  0  0  0  0  0  0  0  0  0  0
  -19.6248   -6.0973   22.2253 F   0  0  0  0  0  0  0  0  0  0  0  0
  1  2  1  0  0  0  0
  1  5  2  0  0  0  0
  2  6  2  0  0  0  0
  3  8  2  0  0  0  0
  3 16  1  0  0  0  0
  4  9  1  0  0  0  0
  4 16  2  0  0  0  0
  5 18  1  0  0  0  0
  6 20  1  0  0  0  0
  7 10  2  0  0  0  0
  7 19  1  0  0  0  0
  8 25  1  0  0  0  0
  9 25  2  0  0  0  0
 10 26  1  0  0  0  0
 11 12  2  0  0  0  0
 11 27  1  0  0  0  0
 12 28  1  0  0  0  0
 13 21  1  0  0  0  0
 13 26  2  0  0  0  0
 14 28  2  0  0  0  0
 14 29  1  0  0  0  0
 15 24  2  0  0  0  0
 15 69  1  0  0  0  0
 16 30  1  0  0  0  0
 17 30  1  0  0  0  0
 17 32  2  0  0  0  0
 17 33  1  0  0  0  0
 18 20  2  0  0  0  0
 18 38  1  0  0  0  0
 19 21  2  0  0  0  0
 19 39  1  0  0  0  0
 20 52  1  0  0  0  0
 21 40  1  0  0  0  0
 22 23  2  0  0  0  0
 22 24  1  0  0  0  0
 22 58  1  0  0  0  0
 23 31  1  0  0  0  0
 23 65  1  0  0  0  0
 24 72  1  0  0  0  0
 25 87  1  0  0  0  0
 26 88  1  0  0  0  0
 27 29  2  0  0  0  0
 27 87  1  0  0  0  0
 28 89  1  0  0  0  0
 29 90  1  0  0  0  0
 30 70  2  0  0  0  0
 31 59  1  0  0  0  0
 31 69  2  0  0  0  0
 32 71  1  0  0  0  0
 32 76  1  0  0  0  0
 33 77  1  0  0  0  0
 33 82  2  0  0  0  0
 34 53  1  0  0  0  0
 34 78  1  0  0  0  0
 34 83  2  0  0  0  0
 35 66  1  0  0  0  0
 35 73  1  0  0  0  0
 35 84  2  0  0  0  0
 36 67  1  0  0  0  0
 36 79  1  0  0  0  0
 36 85  2  0  0  0  0
 37 74  1  0  0  0  0
 37 75  1  0  0  0  0
 37 86  2  0  0  0  0
 38 41  1  0  0  0  0
 39 53  1  0  0  0  0
 40 73  1  0  0  0  0
 41 43  1  0  0  0  0
 42 44  1  0  0  0  0
 42 46  1  0  0  0  0
 43 52  1  0  0  0  0
 44 56  1  0  0  0  0
 45 47  1  0  0  0  0
 45 54  1  0  0  0  0
 46 74  1  0  0  0  0
 47 72  1  0  0  0  0
 48 55  1  0  0  0  0
 48 75  1  0  0  0  0
 49 55  1  0  0  0  0
 49 75  1  0  0  0  0
 50 56  1  0  0  0  0
 50 74  1  0  0  0  0
 51 57  1  0  0  0  0
 51 72  1  0  0  0  0
 52 78  1  0  0  0  0
 53 73  1  0  0  0  0
 54 55  1  0  0  0  0
 54 57  1  0  0  0  0
 56 71  1  0  0  0  0
 57 80  1  0  0  0  0
 60 67  1  0  0  0  0
 61 68  1  0  0  0  0
 62 68  1  0  0  0  0
 63 68  1  0  0  0  0
 64 81  1  0  0  0  0
 65 88  1  0  0  0  0
 66 68  1  0  0  0  0
 66 79  1  0  0  0  0
 67 81  1  0  0  0  0
 70 71  1  0  0  0  0
M  CHG  2  80   1  81   1
M  ISO  4  37 100  65 101  75 100  88 101
M  END
> <Batch ID>
0172

> <Smiles>
CNC(C)C(=O)NC(C(=O)N1Cc2cc([101O:1][101CH2:1]c3c(C)ncc(N4CCC(C5C[100N:0]([100C:0](=O)N6CCCC(n7nc(-c8ccc(Oc9ccc(F)cc9F)cc8)c(C(N)=O)c7N)C6)C5)C(N)C4)c3C)ccc2CC1C(=O)NC1CCCc2ccccc21)C(C)(C)C

> <Shape>
0.392

> <Color>
0.158

> <Negative vol penalty>
0.000

$$$$

  -OEChem-04052322403D

 81 90  0     1  0  0  0  0  0999 V2000
  -20.2138  -26.4326   26.0243 C   0  0  0  0  0  0  0  0  0  0  0  0
  -21.2741  -26.0949   25.1893 C   0  0  0  0  0  0  0  0  0  0  0  0
  -26.5973  -13.5937   20.9786 C   0  0  0  0  0  0  0  0  0  0  0  0
  -28.2397  -12.4977   19.5864 C   0  0  0  0  0  0  0  0  0  0  0  0
  -19.2256  -27.3076   25.5751 C   0  0  0  0  0  0  0  0  0  0  0  0
  -21.3461  -26.6310   23.9041 C   0  0  0  0  0  0  0  0  0  0  0  0
  -31.2515  -22.7664   18.7044 C   0  0  0  0  0  0  0  0  0  0  0  0
  -25.9968  -28.2598   22.7365 C   0  0  0  0  0  0  0  0  0  0  0  0
  -31.6687  -24.0209   19.1544 C   0  0  0  0  0  0  0  0  0  0  0  0
  -26.0777  -12.3518   21.3434 C   0  0  0  0  0  0  0  0  0  0  0  0
  -27.7201  -11.2557   19.9513 C   0  0  0  0  0  0  0  0  0  0  0  0
  -26.9381  -27.2955   22.3792 C   0  0  0  0  0  0  0  0  0  0  0  0
  -24.0377  -10.0143   20.0022 C   0  0  0  0  0  0  0  0  0  0  0  0
  -22.6508   -9.8661   19.9975 C   0  0  0  0  0  0  0  0  0  0  0  0
  -26.5741  -27.8116   20.0510 C   0  0  0  0  0  0  0  0  0  0  0  0
  -22.6996   -9.3344   22.3538 C   0  0  0  0  0  0  0  0  0  0  0  0
  -27.6782  -13.6667   20.1000 C   0  0  0  0  0  0  0  0  0  0  0  0
  -29.2407  -15.6653   20.3682 C   0  0  0  0  0  0  0  0  0  0  0  0
  -19.2907  -27.8623   24.2872 C   0  0  0  0  0  0  0  0  0  0  0  0
  -25.3279  -29.0009   21.7517 C   0  0  0  0  0  0  0  0  0  0  0  0
  -29.9041  -22.5781   18.4519 C   0  0  0  0  0  0  0  0  0  0  0  0
  -20.3571  -27.5132   23.4367 C   0  0  0  0  0  0  0  0  0  0  0  0
  -25.6266  -28.7865   20.3986 C   0  0  0  0  0  0  0  0  0  0  0  0
  -28.9806  -23.6106   18.6436 C   0  0  0  0  0  0  0  0  0  0  0  0
  -30.7413  -25.0581   19.3468 C   0  0  0  0  0  0  0  0  0  0  0  0
  -29.3831  -24.8564   19.0911 C   0  0  0  0  0  0  0  0  0  0  0  0
  -26.6391  -11.1827   20.8298 C   0  0  0  0  0  0  0  0  0  0  0  0
  -27.2248  -27.0692   21.0361 C   0  0  0  0  0  0  0  0  0  0  0  0
  -24.7557   -9.8224   21.1826 C   0  0  0  0  0  0  0  0  0  0  0  0
  -21.9817   -9.5262   21.1733 C   0  0  0  0  0  0  0  0  0  0  0  0
  -24.0866   -9.4825   22.3584 C   0  0  0  0  0  0  0  0  0  0  0  0
  -28.2150  -14.9494   19.7222 C   0  0  0  0  0  0  0  0  0  0  0  0
  -29.3785  -16.8127   19.6260 C   0  0  0  0  0  0  0  0  0  0  0  0
  -30.0009  -15.3236   21.5348 C   0  0  0  0  0  0  0  0  0  0  0  0
  -22.2928  -29.3299   20.8666 C   0  0  0  0  0  0  0  0  0  0  0  0
  -23.5174  -31.6077   18.9084 C   0  0  0  0  0  0  0  0  0  0  0  0
  -26.2207  -32.8307   17.2223 C   0  0  0  0  0  0  0  0  0  0  0  0
  -26.8178  -21.1283   17.0724 C   0  0  0  0  0  0  0  0  0  0  0  0
  -18.1740  -28.7666   23.8290 C   0  0  0  0  0  0  0  0  0  0  0  0
  -24.3347  -30.0562   22.1546 C   0  0  0  0  0  0  0  0  0  0  0  0
  -29.2091  -21.3386   17.9900 C   0  0  0  0  0  0  0  0  0  0  0  0
  -24.9510  -29.5696   19.3036 C   0  0  0  0  0  0  0  0  0  0  0  0
  -27.6063  -23.1474   18.2951 C   0  0  0  0  0  0  0  0  0  0  0  0
  -18.5226  -29.5841   22.5878 C   0  0  0  0  0  0  0  0  0  0  0  0
  -27.4595  -18.0888   15.1214 C   0  0  0  0  0  0  0  0  0  0  0  0
  -19.1715  -28.6975   21.5296 C   0  0  0  0  0  0  0  0  0  0  0  0
  -27.7551  -17.0517   16.2070 C   0  0  0  0  0  0  0  0  0  0  0  0
  -26.4930  -19.1674   15.6068 C   0  0  0  0  0  0  0  0  0  0  0  0
  -27.1753  -18.7849   17.9423 C   0  0  0  0  0  0  0  0  0  0  0  0
  -20.4834  -28.0935   22.0448 C   0  0  1  0  0  0  0  0  0  0  0  0
  -23.3390  -30.3929   21.0490 C   0  0  1  0  0  0  0  0  0  0  0  0
  -28.2026  -17.7272   17.5177 C   0  0  1  0  0  0  0  0  0  0  0  0
  -31.2374  -26.3820   19.8314 C   0  0  0  0  0  0  0  0  0  0  0  0
  -26.9040  -34.6853   15.6760 C   0  0  0  0  0  0  0  0  0  0  0  0
  -22.1328  -30.1834   16.5923 C   0  0  0  0  0  0  0  0  0  0  0  0
  -23.5907  -31.4741   15.0185 C   0  0  0  0  0  0  0  0  0  0  0  0
  -21.9976  -32.6794   16.5126 C   0  0  0  0  0  0  0  0  0  0  0  0
  -28.1957  -33.8770   19.1622 C   0  0  0  0  0  0  0  0  0  0  0  0
  -28.3877  -25.9482   19.2906 C   0  0  0  0  0  0  0  0  0  1  0  0
  -24.0708  -31.6253   17.5040 C   0  0  1  0  0  0  0  0  0  0  0  0
  -26.7969  -34.2317   17.1235 C   0  0  2  0  0  0  0  0  0  0  0  0
  -22.9595  -31.4743   16.4272 C   0  0  0  0  0  0  0  0  0  0  0  0
  -27.7352  -15.5885   18.6521 N   0  0  0  0  0  0  0  0  0  0  0  0
  -28.4625  -16.7182   18.6200 N   0  0  0  0  0  0  0  0  0  0  0  0
  -23.9829  -30.5859   19.7480 N   0  0  0  0  0  0  0  0  0  0  0  0
  -27.8015  -21.7621   17.8358 N   0  0  0  0  0  0  0  0  0  0  0  0
  -26.9574  -19.7527   16.8635 N   0  0  0  0  0  0  0  0  0  0  0  0
  -30.1926  -17.8833   19.7423 N   0  0  0  0  0  0  0  0  0  0  0  0
  -29.7309  -14.1067   22.1756 N   0  0  0  0  0  0  0  0  0  0  0  0
  -21.5444  -29.0768   22.0003 N   0  0  0  0  0  0  0  0  0  0  0  0
  -24.8520  -32.8520   17.3885 N   0  0  0  0  0  0  0  0  0  0  0  0
  -28.1566  -34.2766   17.7319 N   0  3  0  0  0  0  0  0  0  0  0  0
  -30.8820  -16.0827   22.0050 O   0  0  0  0  0  0  0  0  0  0  0  0
  -22.1725  -28.7811   19.7775 O   0  0  0  0  0  0  0  0  0  0  0  0
  -22.7074  -32.4731   19.2502 O   0  0  0  0  0  0  0  0  0  0  0  0
  -26.9147  -31.8187   17.1547 O   0  0  0  0  0  0  0  0  0  0  0  0
  -25.8918  -21.7671   16.5565 O   0  0  0  0  0  0  0  0  0  0  0  0
  -26.1325   -9.9706   21.1858 O   0  0  0  0  0  0  0  0  0  0  0  0
  -28.1490  -26.1216   20.6822 O   0  0  0  0  0  0  0  0  0  1  0  0
  -20.6497   -9.3855   21.1690 F   0  0  0  0  0  0  0  0  0  0  0  0
  -24.7708   -9.2981   23.4958 F   0  0  0  0  0  0  0  0  0  0  0  0
  1  2  1  0  0  0  0
  1  5  2  0  0  0  0
  2  6  2  0  0  0  0
  3 10  2  0  0  0  0
  3 17  1  0  0  0  0
  4 11  1  0  0  0  0
  4 17  2  0  0  0  0
  5 19  1  0  0  0  0
  6 22  1  0  0  0  0
  7  9  1  0  0  0  0
  7 21  2  0  0  0  0
  8 12  2  0  0  0  0
  8 20  1  0  0  0  0
  9 25  2  0  0  0  0
 10 27  1  0  0  0  0
 11 27  2  0  0  0  0
 12 28  1  0  0  0  0
 13 14  2  0  0  0  0
 13 29  1  0  0  0  0
 14 30  1  0  0  0  0
 15 23  1  0  0  0  0
 15 28  2  0  0  0  0
 16 30  2  0  0  0  0
 16 31  1  0  0  0  0
 17 32  1  0  0  0  0
 18 32  1  0  0  0  0
 18 33  2  0  0  0  0
 18 34  1  0  0  0  0
 19 22  2  0  0  0  0
 19 39  1  0  0  0  0
 20 23  2  0  0  0  0
 20 40  1  0  0  0  0
 21 24  1  0  0  0  0
 21 41  1  0  0  0  0
 22 50  1  0  0  0  0
 23 42  1  0  0  0  0
 24 26  2  0  0  0  0
 24 43  1  0  0  0  0
 25 26  1  0  0  0  0
 25 53  1  0  0  0  0
 26 59  1  0  0  0  0
 27 78  1  0  0  0  0
 28 79  1  0  0  0  0
 29 31  2  0  0  0  0
 29 78  1  0  0  0  0
 30 80  1  0  0  0  0
 31 81  1  0  0  0  0
 32 63  2  0  0  0  0
 33 64  1  0  0  0  0
 33 68  1  0  0  0  0
 34 69  1  0  0  0  0
 34 73  2  0  0  0  0
 35 51  1  0  0  0  0
 35 70  1  0  0  0  0
 35 74  2  0  0  0  0
 36 60  1  0  0  0  0
 36 65  1  0  0  0  0
 36 75  2  0  0  0  0
 37 61  1  0  0  0  0
 37 71  1  0  0  0  0
 37 76  2  0  0  0  0
 38 66  1  0  0  0  0
 38 67  1  0  0  0  0
 38 77  2  0  0  0  0
 39 44  1  0  0  0  0
 40 51  1  0  0  0  0
 41 66  1  0  0  0  0
 42 65  1  0  0  0  0
 43 66  1  0  0  0  0
 44 46  1  0  0  0  0
 45 47  1  0  0  0  0
 45 48  1  0  0  0  0
 46 50  1  0  0  0  0
 47 52  1  0  0  0  0
 48 67  1  0  0  0  0
 49 52  1  0  0  0  0
 49 67  1  0  0  0  0
 50 70  1  0  0  0  0
 51 65  1  0  0  0  0
 52 64  1  0  0  0  0
 54 61  1  0  0  0  0
 55 62  1  0  0  0  0
 56 62  1  0  0  0  0
 57 62  1  0  0  0  0
 58 72  1  0  0  0  0
 59 79  1  0  0  0  0
 60 62  1  0  0  0  0
 60 71  1  0  0  0  0
 61 72  1  0  0  0  0
 63 64  1  0  0  0  0
M  CHG  1  72   1
M  ISO  4  38 100  59 101  66 100  79 101
M  END
> <Batch ID>
0172

> <Smiles>
CNC(C)C(=O)NC(C(=O)N1Cc2cc([101O:1][101CH2:1]c3c(C)ccc4c3C[100N:0]([100C:0](=O)N3CCCC(n5nc(-c6ccc(Oc7ccc(F)cc7F)cc6)c(C(N)=O)c5N)C3)C4)ccc2CC1C(=O)NC1CCCc2ccccc21)C(C)(C)C

> <Shape>
0.249

> <Color>
0.090

> <Negative vol penalty>
0.000

$$$$

  -OEChem-04052322403D

 92102  0     1  0  0  0  0  0999 V2000
  -26.5526  -37.7613   25.1530 C   0  0  0  0  0  0  0  0  0  0  0  0
  -27.2840  -37.0470   24.2094 C   0  0  0  0  0  0  0  0  0  0  0  0
  -29.8832  -23.7289   16.8471 C   0  0  0  0  0  0  0  0  0  0  0  0
  -26.9357  -11.9968   20.3075 C   0  0  0  0  0  0  0  0  0  0  0  0
  -27.2823  -13.0912   22.4333 C   0  0  0  0  0  0  0  0  0  0  0  0
  -25.7356  -37.0848   26.0578 C   0  0  0  0  0  0  0  0  0  0  0  0
  -27.1995  -35.6557   24.1707 C   0  0  0  0  0  0  0  0  0  0  0  0
  -28.7438  -23.0745   16.3790 C   0  0  0  0  0  0  0  0  0  0  0  0
  -30.0738  -23.9030   18.2179 C   0  0  0  0  0  0  0  0  0  0  0  0
  -27.4093  -30.1757   19.5618 C   0  0  0  0  0  0  0  0  0  0  0  0
  -28.0074  -11.1440   20.5718 C   0  0  0  0  0  0  0  0  0  0  0  0
  -28.3540  -12.2384   22.6977 C   0  0  0  0  0  0  0  0  0  0  0  0
  -28.0621  -28.9600   19.3630 C   0  0  0  0  0  0  0  0  0  0  0  0
  -28.5868   -8.3692   22.4150 C   0  0  0  0  0  0  0  0  0  0  0  0
  -28.4141   -7.0103   22.1519 C   0  0  0  0  0  0  0  0  0  0  0  0
  -26.5569  -27.9034   20.9242 C   0  0  0  0  0  0  0  0  0  0  0  0
  -30.2506   -7.0805   20.5837 C   0  0  0  0  0  0  0  0  0  0  0  0
  -26.5732  -12.9704   21.2382 C   0  0  0  0  0  0  0  0  0  0  0  0
  -24.1134  -13.6443   21.2933 C   0  0  0  0  0  0  0  0  0  0  0  0
  -25.6336  -35.6851   26.0240 C   0  0  0  0  0  0  0  0  0  0  0  0
  -26.3305  -30.2670   20.4530 C   0  0  0  0  0  0  0  0  0  0  0  0
  -26.3813  -34.9598   25.0768 C   0  0  0  0  0  0  0  0  0  0  0  0
  -27.7950  -22.5942   17.2816 C   0  0  0  0  0  0  0  0  0  0  0  0
  -29.1250  -23.4227   19.1205 C   0  0  0  0  0  0  0  0  0  0  0  0
  -25.8904  -29.1209   21.1306 C   0  0  0  0  0  0  0  0  0  0  0  0
  -27.9856  -22.7683   18.6524 C   0  0  0  0  0  0  0  0  0  0  0  0
  -28.7165  -11.2647   21.7669 C   0  0  0  0  0  0  0  0  0  0  0  0
  -27.6378  -27.8242   20.0464 C   0  0  0  0  0  0  0  0  0  0  0  0
  -29.5914   -9.0837   21.7624 C   0  0  0  0  0  0  0  0  0  0  0  0
  -29.2460   -6.3659   21.2363 C   0  0  0  0  0  0  0  0  0  0  0  0
  -30.4233   -8.4394   20.8467 C   0  0  0  0  0  0  0  0  0  0  0  0
  -25.4666  -13.8520   20.9655 C   0  0  0  0  0  0  0  0  0  0  0  0
  -23.4705  -14.7632   20.8230 C   0  0  0  0  0  0  0  0  0  0  0  0
  -23.4930  -12.5387   21.9631 C   0  0  0  0  0  0  0  0  0  0  0  0
  -25.7668  -31.8765   23.1354 C   0  0  0  0  0  0  0  0  0  0  0  0
  -22.7954  -30.6179   22.8062 C   0  0  0  0  0  0  0  0  0  0  0  0
  -20.8207  -28.1493   21.5202 C   0  0  0  0  0  0  0  0  0  0  0  0
  -25.0372  -18.5575   16.5300 C   0  0  0  0  0  0  0  0  0  0  0  0
  -24.7738  -34.9948   27.0530 C   0  0  0  0  0  0  0  0  0  0  0  0
  -25.6199  -31.5800   20.6361 C   0  0  0  0  0  0  0  0  0  0  0  0
  -24.7243  -29.1614   22.0829 C   0  0  0  0  0  0  0  0  0  0  0  0
  -24.4505  -33.5446   26.7029 C   0  0  0  0  0  0  0  0  0  0  0  0
  -24.2869  -19.3305   19.9904 C   0  0  0  0  0  0  0  0  0  0  0  0
  -25.7093  -32.8113   26.2507 C   0  0  0  0  0  0  0  0  0  0  0  0
  -24.3793  -17.9632   20.6651 C   0  0  0  0  0  0  0  0  0  0  0  0
  -30.3796  -25.8483   20.7658 C   0  0  0  0  0  0  0  0  0  0  0  0
  -30.6664  -24.3700   21.0074 C   0  0  0  0  0  0  0  0  0  0  0  0
  -25.2975  -19.4729   18.8573 C   0  0  0  0  0  0  0  0  0  0  0  0
  -25.3096  -17.0236   18.5134 C   0  0  0  0  0  0  0  0  0  0  0  0
  -24.8328  -21.9016   14.9788 C   0  0  0  0  0  0  0  0  0  0  0  0
  -26.2970  -33.4515   24.9873 C   0  0  1  0  0  0  0  0  0  0  0  0
  -26.5847  -21.8971   16.7546 C   0  0  2  0  0  0  0  0  0  0  0  0
  -24.8596  -31.6690   21.9558 C   0  0  1  0  0  0  0  0  0  0  0  0
  -28.2895  -24.6083   21.2307 C   0  0  1  0  0  0  0  0  0  0  0  0
  -24.2686  -16.8327   19.6282 C   0  0  1  0  0  0  0  0  0  0  0  0
  -28.8771  -26.0190   20.9951 C   0  0  2  0  0  0  0  0  0  1  0  0
  -24.9578  -20.3888   14.8057 C   0  0  1  0  0  0  0  0  0  0  0  0
  -26.7906  -20.3767   16.5772 C   0  0  2  0  0  0  0  0  0  0  0  0
  -29.3607  -23.6285   20.6320 C   0  0  1  0  0  0  0  0  0  0  0  0
  -26.9681  -22.2534   19.6202 C   0  0  0  0  0  0  0  0  0  0  0  0
  -28.0104  -24.4050   22.7258 C   0  0  0  0  0  0  0  0  0  0  0  0
  -25.6401  -20.0166   13.4851 C   0  0  0  0  0  0  0  0  0  0  0  0
  -28.0526  -19.9920   15.7878 C   0  0  0  0  0  0  0  0  0  0  0  0
  -29.3821  -22.2310   21.2841 C   0  0  0  0  0  0  0  0  0  0  0  0
  -18.4370  -27.3679   21.4528 C   0  0  0  0  0  0  0  0  0  0  0  0
  -23.0647  -29.5582   25.6548 C   0  0  0  0  0  0  0  0  0  0  0  0
  -21.1357  -28.0301   25.1945 C   0  0  0  0  0  0  0  0  0  0  0  0
  -20.8160  -30.5023   25.1012 C   0  0  0  0  0  0  0  0  0  0  0  0
  -20.6899  -28.4312   18.5770 C   0  0  0  0  0  0  0  0  0  0  0  0
  -22.1146  -29.3503   23.2632 C   0  0  1  0  0  0  0  0  0  0  0  0
  -19.5054  -28.2027   20.7641 C   0  0  2  0  0  0  0  0  0  0  0  0
  -21.8060  -29.3596   24.7870 C   0  0  0  0  0  0  0  0  0  0  0  0
  -25.6724  -15.0117   20.3355 N   0  0  0  0  0  0  0  0  0  0  0  0
  -24.4399  -15.5426   20.2636 N   0  0  0  0  0  0  0  0  0  0  0  0
  -24.0663  -30.4699   22.2330 N   0  0  0  0  0  0  0  0  0  0  0  0
  -25.2078  -18.3618   17.9106 N   0  0  0  0  0  0  0  0  0  0  0  0
  -25.5781  -19.7423   15.9834 N   0  0  0  0  0  0  0  0  0  0  0  0
  -22.1762  -15.1465   20.8375 N   0  0  0  0  0  0  0  0  0  0  0  0
  -24.3005  -11.4717   22.3799 N   0  0  0  0  0  0  0  0  0  0  0  0
  -25.5387  -33.0549   23.8202 N   0  0  0  0  0  0  0  0  0  0  0  0
  -20.9375  -29.1909   22.4161 N   0  0  0  0  0  0  0  0  0  0  0  0
  -26.1262  -22.4795   15.4444 N   0  3  0  0  0  0  0  0  0  0  0  0
  -19.6837  -27.6869   19.3774 N   0  3  0  0  0  0  0  0  0  0  0  0
  -22.2569  -12.4908   22.1707 O   0  0  0  0  0  0  0  0  0  0  0  0
  -26.6103  -31.0296   23.4053 O   0  0  0  0  0  0  0  0  0  0  0  0
  -22.2176  -31.6988   22.9461 O   0  0  0  0  0  0  0  0  0  0  0  0
  -21.6590  -27.2693   21.3372 O   0  0  0  0  0  0  0  0  0  0  0  0
  -24.4387  -17.7290   15.8325 O   0  0  0  0  0  0  0  0  0  0  0  0
  -29.7621  -10.4326   22.0252 O   0  0  0  0  0  0  0  0  0  0  0  0
  -28.2795  -26.6254   19.8529 O   0  0  0  0  0  0  0  0  0  1  0  0
  -29.0810   -5.0606   20.9849 F   0  0  0  0  0  0  0  0  0  0  0  0
  -31.3909   -9.1203   20.2175 F   0  0  0  0  0  0  0  0  0  0  0  0
  1  2  1  0  0  0  0
  1  6  2  0  0  0  0
  2  7  2  0  0  0  0
  3  8  1  0  0  0  0
  3  9  2  0  0  0  0
  4 11  2  0  0  0  0
  4 18  1  0  0  0  0
  5 12  1  0  0  0  0
  5 18  2  0  0  0  0
  6 20  1  0  0  0  0
  7 22  1  0  0  0  0
  8 23  2  0  0  0  0
  9 24  1  0  0  0  0
 10 13  2  0  0  0  0
 10 21  1  0  0  0  0
 11 27  1  0  0  0  0
 12 27  2  0  0  0  0
 13 28  1  0  0  0  0
 14 15  2  0  0  0  0
 14 29  1  0  0  0  0
 15 30  1  0  0  0  0
 16 25  1  0  0  0  0
 16 28  2  0  0  0  0
 17 30  2  0  0  0  0
 17 31  1  0  0  0  0
 18 32  1  0  0  0  0
 19 32  1  0  0  0  0
 19 33  2  0  0  0  0
 19 34  1  0  0  0  0
 20 22  2  0  0  0  0
 20 39  1  0  0  0  0
 21 25  2  0  0  0  0
 21 40  1  0  0  0  0
 22 51  1  0  0  0  0
 23 26  1  0  0  0  0
 23 52  1  0  0  0  0
 24 26  2  0  0  0  0
 24 59  1  0  0  0  0
 25 41  1  0  0  0  0
 26 60  1  0  0  0  0
 27 89  1  0  0  0  0
 28 90  1  0  0  0  0
 29 31  2  0  0  0  0
 29 89  1  0  0  0  0
 30 91  1  0  0  0  0
 31 92  1  0  0  0  0
 32 73  2  0  0  0  0
 33 74  1  0  0  0  0
 33 78  1  0  0  0  0
 34 79  1  0  0  0  0
 34 84  2  0  0  0  0
 35 53  1  0  0  0  0
 35 80  1  0  0  0  0
 35 85  2  0  0  0  0
 36 70  1  0  0  0  0
 36 75  1  0  0  0  0
 36 86  2  0  0  0  0
 37 71  1  0  0  0  0
 37 81  1  0  0  0  0
 37 87  2  0  0  0  0
 38 76  1  0  0  0  0
 38 77  1  0  0  0  0
 38 88  2  0  0  0  0
 39 42  1  0  0  0  0
 40 53  1  0  0  0  0
 41 75  1  0  0  0  0
 42 44  1  0  0  0  0
 43 45  1  0  0  0  0
 43 48  1  0  0  0  0
 44 51  1  0  0  0  0
 45 55  1  0  0  0  0
 46 47  1  0  0  0  0
 46 56  1  0  0  0  0
 47 59  1  0  0  0  0
 48 76  1  0  0  0  0
 49 55  1  0  0  0  0
 49 76  1  0  0  0  0
 50 57  1  0  0  0  0
 50 82  1  0  0  0  0
 51 80  1  0  0  0  0
 52 58  1  0  0  0  0
 52 82  1  0  0  0  0
 53 75  1  0  0  0  0
 54 56  1  0  0  0  0
 54 59  1  0  0  0  0
 54 61  1  0  0  0  0
 55 74  1  0  0  0  0
 56 90  1  0  0  0  0
 57 62  1  0  0  0  0
 57 77  1  0  0  0  0
 58 63  1  0  0  0  0
 58 77  1  0  0  0  0
 59 64  1  0  0  0  0
 65 71  1  0  0  0  0
 66 72  1  0  0  0  0
 67 72  1  0  0  0  0
 68 72  1  0  0  0  0
 69 83  1  0  0  0  0
 70 72  1  0  0  0  0
 70 81  1  0  0  0  0
 71 83  1  0  0  0  0
 73 74  1  0  0  0  0
M  CHG  2  82   1  83   1
M  ISO  4  38 100  56 101  77 100  90 101
M  END
> <Batch ID>
0172

> <Smiles>
CNC(C)C(=O)NC(C(=O)N1Cc2cc([101O:1][101CH:1]3CCC(C)(c4cccc(C5NCC(C)[100N:0]([100C:0](=O)N6CCCC(n7nc(-c8ccc(Oc9ccc(F)cc9F)cc8)c(C(N)=O)c7N)C6)C5C)c4C)C3C)ccc2CC1C(=O)NC1CCCc2ccccc21)C(C)(C)C

> <Shape>
0.263

> <Color>
0.089

> <Negative vol penalty>
0.000

$$$$

  -OEChem-04052322403D

 88 98  0     1  0  0  0  0  0999 V2000
  -28.7855  -32.0725   26.3163 C   0  0  0  0  0  0  0  0  0  0  0  0
  -28.6529  -30.8736   25.6231 C   0  0  0  0  0  0  0  0  0  0  0  0
  -24.7718   -8.7405   21.5720 C   0  0  0  0  0  0  0  0  0  0  0  0
  -23.2121  -10.1671   20.4019 C   0  0  0  0  0  0  0  0  0  0  0  0
  -27.6528  -32.8189   26.6387 C   0  0  0  0  0  0  0  0  0  0  0  0
  -27.3875  -30.4198   25.2529 C   0  0  0  0  0  0  0  0  0  0  0  0
  -27.2498  -28.7261   20.4824 C   0  0  0  0  0  0  0  0  0  0  0  0
  -23.7522   -8.3302   22.4309 C   0  0  0  0  0  0  0  0  0  0  0  0
  -22.1925   -9.7568   21.2608 C   0  0  0  0  0  0  0  0  0  0  0  0
  -27.7680  -27.4541   20.2432 C   0  0  0  0  0  0  0  0  0  0  0  0
  -21.1463   -6.1770   22.3543 C   0  0  0  0  0  0  0  0  0  0  0  0
  -21.0419   -4.8141   22.6320 C   0  0  0  0  0  0  0  0  0  0  0  0
  -25.5313  -26.5506   20.2374 C   0  0  0  0  0  0  0  0  0  0  0  0
  -21.3739   -5.2674   24.9818 C   0  0  0  0  0  0  0  0  0  0  0  0
  -24.5018   -9.6590   20.5575 C   0  0  0  0  0  0  0  0  0  0  0  0
  -25.9282   -9.4908   18.4493 C   0  0  0  0  0  0  0  0  0  0  0  0
  -26.3736  -32.3788   26.2638 C   0  0  0  0  0  0  0  0  0  0  0  0
  -25.8668  -28.9185   20.6120 C   0  0  0  0  0  0  0  0  0  0  0  0
  -26.2365  -31.1603   25.5717 C   0  0  0  0  0  0  0  0  0  0  0  0
  -24.9979  -27.8264   20.4757 C   0  0  0  0  0  0  0  0  0  0  0  0
  -28.1433  -22.3089   20.4855 C   0  0  0  0  0  0  0  0  0  0  0  0
  -28.8209  -21.1172   20.2529 C   0  0  0  0  0  0  0  0  0  0  0  0
  -27.2200  -22.7704   19.5539 C   0  0  0  0  0  0  0  0  0  0  0  0
  -22.4626   -8.8383   22.2753 C   0  0  0  0  0  0  0  0  0  0  0  0
  -26.9089  -26.3656   20.1235 C   0  0  0  0  0  0  0  0  0  0  0  0
  -21.3647   -7.0852   23.3903 C   0  0  0  0  0  0  0  0  0  0  0  0
  -21.1556   -4.3593   23.9457 C   0  0  0  0  0  0  0  0  0  0  0  0
  -21.4784   -6.6304   24.7040 C   0  0  0  0  0  0  0  0  0  0  0  0
  -25.5547  -10.0836   19.6703 C   0  0  0  0  0  0  0  0  0  0  0  0
  -28.5415  -20.4300   19.0827 C   0  0  0  0  0  0  0  0  0  0  0  0
  -27.0124  -22.0092   18.4149 C   0  0  0  0  0  0  0  0  0  0  0  0
  -26.9711  -10.2622   17.9979 C   0  0  0  0  0  0  0  0  0  0  0  0
  -25.3813   -8.3453   17.7826 C   0  0  0  0  0  0  0  0  0  0  0  0
  -23.9531  -29.9495   22.9311 C   0  0  0  0  0  0  0  0  0  0  0  0
  -21.6835  -29.7294   20.6240 C   0  0  0  0  0  0  0  0  0  0  0  0
  -20.6636  -28.3189   17.6885 C   0  0  0  0  0  0  0  0  0  0  0  0
  -28.4492  -15.8015   17.9080 C   0  0  0  0  0  0  0  0  0  0  0  0
  -25.1750  -33.1962   26.6759 C   0  0  0  0  0  0  0  0  0  0  0  0
  -25.3220  -30.3012   20.8434 C   0  0  0  0  0  0  0  0  0  0  0  0
  -23.5040  -27.9830   20.5864 C   0  0  0  0  0  0  0  0  0  0  0  0
  -23.9002  -32.8323   25.9192 C   0  0  0  0  0  0  0  0  0  0  0  0
  -30.1802  -13.3690   20.0532 C   0  0  0  0  0  0  0  0  0  0  0  0
  -23.7206  -31.3182   25.8730 C   0  0  0  0  0  0  0  0  0  0  0  0
  -29.1514  -12.2453   20.1102 C   0  0  0  0  0  0  0  0  0  0  0  0
  -29.5316  -14.7499   19.9530 C   0  0  0  0  0  0  0  0  0  0  0  0
  -28.9213  -17.7923   19.5090 C   0  0  0  0  0  0  0  0  0  0  0  0
  -28.7102  -18.2866   17.4535 C   0  0  0  0  0  0  0  0  0  0  0  0
  -27.5250  -13.7331   18.8936 C   0  0  0  0  0  0  0  0  0  0  0  0
  -28.6009  -22.3387   23.0970 C   0  0  0  0  0  0  0  0  0  0  0  0
  -27.2155  -23.7700   22.4942 C   0  0  0  0  0  0  0  0  0  0  0  0
  -28.4186  -23.1224   21.7843 C   0  0  0  0  0  0  0  0  0  0  0  0
  -24.8828  -30.6472   25.1311 C   0  0  1  0  0  0  0  0  0  0  0  0
  -29.2335  -19.0607   18.6809 C   0  0  0  0  0  0  0  0  0  0  0  0
  -23.9309  -30.2982   21.4697 C   0  0  1  0  0  0  0  0  0  0  0  0
  -28.1822  -12.3466   18.9235 C   0  0  2  0  0  0  0  0  0  0  0  0
  -29.8185  -20.5907   21.2271 C   0  0  0  0  0  0  0  0  0  0  0  0
  -26.0324  -22.4542   17.3786 C   0  0  0  0  0  0  0  0  0  0  0  0
  -18.7459  -28.3081   16.0699 C   0  0  0  0  0  0  0  0  0  0  0  0
  -20.0684  -28.0028   22.5528 C   0  0  0  0  0  0  0  0  0  0  0  0
  -18.6756  -27.2582   20.6102 C   0  0  0  0  0  0  0  0  0  0  0  0
  -18.7191  -29.6659   21.2614 C   0  0  0  0  0  0  0  0  0  0  0  0
  -26.9209  -22.9324   24.7754 C   0  0  0  0  0  0  0  0  0  0  0  0
  -22.3700  -29.3059   15.4810 C   0  0  0  0  0  0  0  0  0  0  0  0
  -26.4745  -24.0529   19.7790 C   0  0  0  0  0  0  0  0  0  1  0  0
  -20.7463  -28.6467   20.1462 C   0  0  1  0  0  0  0  0  0  0  0  0
  -20.0877  -28.9301   16.4238 C   0  0  2  0  0  0  0  0  0  0  0  0
  -19.5806  -28.3898   21.1424 C   0  0  0  0  0  0  0  0  0  0  0  0
  -26.2998  -11.1493   19.9753 N   0  0  0  0  0  0  0  0  0  0  0  0
  -27.6515  -20.8468   18.1544 N   0  0  0  0  0  0  0  0  0  0  0  0
  -27.1520  -11.2322   18.9395 N   0  0  0  0  0  0  0  0  0  0  0  0
  -23.0202  -29.3539   20.8193 N   0  0  0  0  0  0  0  0  0  0  0  0
  -28.5190  -14.8115   18.8940 N   0  0  0  0  0  0  0  0  0  0  0  0
  -28.8785  -17.0701   18.2432 N   0  0  0  0  0  0  0  0  0  0  0  0
  -27.7419  -10.1986   16.8915 N   0  0  0  0  0  0  0  0  0  0  0  0
  -24.3118   -7.6689   18.3852 N   0  0  0  0  0  0  0  0  0  0  0  0
  -24.7244  -30.7995   23.7006 N   0  0  0  0  0  0  0  0  0  0  0  0
  -20.3142  -29.0414   18.8098 N   0  0  0  0  0  0  0  0  0  0  0  0
  -27.8795  -23.4360   23.7681 N   0  3  0  0  0  0  0  0  0  0  0  0
  -21.0184  -28.7234   15.2784 N   0  3  0  0  0  0  0  0  0  0  0  0
  -25.8385   -7.9239   16.6932 O   0  0  0  0  0  0  0  0  0  0  0  0
  -23.3164  -28.9819   23.3312 O   0  0  0  0  0  0  0  0  0  0  0  0
  -21.2473  -30.8681   20.8100 O   0  0  0  0  0  0  0  0  0  0  0  0
  -21.3512  -27.3003   17.6826 O   0  0  0  0  0  0  0  0  0  0  0  0
  -27.9909  -15.5751   16.7809 O   0  0  0  0  0  0  0  0  0  0  0  0
  -21.4674   -8.4380   23.1131 O   0  0  0  0  0  0  0  0  0  0  0  0
  -27.4121  -25.1229   19.8906 O   0  0  0  0  0  0  0  0  0  1  0  0
  -21.0537   -3.0506   24.2124 F   0  0  0  0  0  0  0  0  0  0  0  0
  -21.6869   -7.4982   25.7037 F   0  0  0  0  0  0  0  0  0  0  0  0
  1  2  1  0  0  0  0
  1  5  2  0  0  0  0
  2  6  2  0  0  0  0
  3  8  2  0  0  0  0
  3 15  1  0  0  0  0
  4  9  1  0  0  0  0
  4 15  2  0  0  0  0
  5 17  1  0  0  0  0
  6 19  1  0  0  0  0
  7 10  2  0  0  0  0
  7 18  1  0  0  0  0
  8 24  1  0  0  0  0
  9 24  2  0  0  0  0
 10 25  1  0  0  0  0
 11 12  2  0  0  0  0
 11 26  1  0  0  0  0
 12 27  1  0  0  0  0
 13 20  1  0  0  0  0
 13 25  2  0  0  0  0
 14 27  2  0  0  0  0
 14 28  1  0  0  0  0
 15 29  1  0  0  0  0
 16 29  1  0  0  0  0
 16 32  2  0  0  0  0
 16 33  1  0  0  0  0
 17 19  2  0  0  0  0
 17 38  1  0  0  0  0
 18 20  2  0  0  0  0
 18 39  1  0  0  0  0
 19 52  1  0  0  0  0
 20 40  1  0  0  0  0
 21 22  1  0  0  0  0
 21 23  2  0  0  0  0
 21 51  1  0  0  0  0
 22 30  2  0  0  0  0
 22 56  1  0  0  0  0
 23 31  1  0  0  0  0
 23 64  1  0  0  0  0
 24 85  1  0  0  0  0
 25 86  1  0  0  0  0
 26 28  2  0  0  0  0
 26 85  1  0  0  0  0
 27 87  1  0  0  0  0
 28 88  1  0  0  0  0
 29 68  2  0  0  0  0
 30 53  1  0  0  0  0
 30 69  1  0  0  0  0
 31 57  1  0  0  0  0
 31 69  2  0  0  0  0
 32 70  1  0  0  0  0
 32 74  1  0  0  0  0
 33 75  1  0  0  0  0
 33 80  2  0  0  0  0
 34 54  1  0  0  0  0
 34 76  1  0  0  0  0
 34 81  2  0  0  0  0
 35 65  1  0  0  0  0
 35 71  1  0  0  0  0
 35 82  2  0  0  0  0
 36 66  1  0  0  0  0
 36 77  1  0  0  0  0
 36 83  2  0  0  0  0
 37 72  1  0  0  0  0
 37 73  1  0  0  0  0
 37 84  2  0  0  0  0
 38 41  1  0  0  0  0
 39 54  1  0  0  0  0
 40 71  1  0  0  0  0
 41 43  1  0  0  0  0
 42 44  1  0  0  0  0
 42 45  1  0  0  0  0
 43 52  1  0  0  0  0
 44 55  1  0  0  0  0
 45 72  1  0  0  0  0
 46 53  1  0  0  0  0
 46 73  1  0  0  0  0
 47 53  1  0  0  0  0
 47 73  1  0  0  0  0
 48 55  1  0  0  0  0
 48 72  1  0  0  0  0
 49 51  1  0  0  0  0
 49 78  1  0  0  0  0
 50 51  1  0  0  0  0
 50 78  1  0  0  0  0
 52 76  1  0  0  0  0
 54 71  1  0  0  0  0
 55 70  1  0  0  0  0
 58 66  1  0  0  0  0
 59 67  1  0  0  0  0
 60 67  1  0  0  0  0
 61 67  1  0  0  0  0
 62 78  1  0  0  0  0
 63 79  1  0  0  0  0
 64 86  1  0  0  0  0
 65 67  1  0  0  0  0
 65 77  1  0  0  0  0
 66 79  1  0  0  0  0
 68 70  1  0  0  0  0
M  CHG  2  78   1  79   1
M  ISO  4  37 100  64 101  73 100  86 101
M  END
> <Batch ID>
0172

> <Smiles>
CNC(C)C(=O)NC(C(=O)N1Cc2cc([101O:1][101CH2:1]c3c(C)nc(C4C[100N:0]([100C:0](=O)N5CCCC(n6nc(-c7ccc(Oc8ccc(F)cc8F)cc7)c(C(N)=O)c6N)C5)C4)c(C)c3C3CN(C)C3)ccc2CC1C(=O)NC1CCCc2ccccc21)C(C)(C)C

> <Shape>
0.308

> <Color>
0.082

> <Negative vol penalty>
0.000

$$$$

  -OEChem-04052322403D

 86 95  0     1  0  0  0  0  0999 V2000
  -26.8683  -31.8060   27.2914 C   0  0  0  0  0  0  0  0  0  0  0  0
  -27.5130  -30.8040   26.5733 C   0  0  0  0  0  0  0  0  0  0  0  0
  -22.9124  -11.1655   20.9292 C   0  0  0  0  0  0  0  0  0  0  0  0
  -23.8638   -9.0152   21.4843 C   0  0  0  0  0  0  0  0  0  0  0  0
  -25.4959  -31.9986   27.1387 C   0  0  0  0  0  0  0  0  0  0  0  0
  -26.7854  -29.9932   25.7029 C   0  0  0  0  0  0  0  0  0  0  0  0
  -28.7122  -27.6383   20.3880 C   0  0  0  0  0  0  0  0  0  0  0  0
  -21.7120  -10.5450   20.5832 C   0  0  0  0  0  0  0  0  0  0  0  0
  -22.6634   -8.3947   21.1384 C   0  0  0  0  0  0  0  0  0  0  0  0
  -29.2079  -26.3815   20.0438 C   0  0  0  0  0  0  0  0  0  0  0  0
  -18.2795   -9.5639   19.8971 C   0  0  0  0  0  0  0  0  0  0  0  0
  -17.0955  -10.1409   20.3561 C   0  0  0  0  0  0  0  0  0  0  0  0
  -27.0022  -25.7132   19.3315 C   0  0  0  0  0  0  0  0  0  0  0  0
  -17.8340   -9.8419   22.6370 C   0  0  0  0  0  0  0  0  0  0  0  0
  -23.9884  -10.4005   21.3797 C   0  0  0  0  0  0  0  0  0  0  0  0
  -25.5986  -11.5313   23.0033 C   0  0  0  0  0  0  0  0  0  0  0  0
  -24.7528  -31.1960   26.2588 C   0  0  0  0  0  0  0  0  0  0  0  0
  -27.3533  -27.9388   20.2165 C   0  0  0  0  0  0  0  0  0  0  0  0
  -25.4015  -30.1743   25.5393 C   0  0  0  0  0  0  0  0  0  0  0  0
  -26.4922  -26.9754   19.6720 C   0  0  0  0  0  0  0  0  0  0  0  0
  -30.5744  -20.1951   19.2298 C   0  0  0  0  0  0  0  0  0  0  0  0
  -30.2303  -21.4637   19.6832 C   0  0  0  0  0  0  0  0  0  0  0  0
  -30.5795  -22.5820   18.9343 C   0  0  0  0  0  0  0  0  0  0  0  0
  -21.5875   -9.1597   20.6879 C   0  0  0  0  0  0  0  0  0  0  0  0
  -28.3524  -25.4178   19.5181 C   0  0  0  0  0  0  0  0  0  0  0  0
  -19.2408   -9.1258   20.8080 C   0  0  0  0  0  0  0  0  0  0  0  0
  -16.8727  -10.2799   21.7260 C   0  0  0  0  0  0  0  0  0  0  0  0
  -19.0181   -9.2648   22.1779 C   0  0  0  0  0  0  0  0  0  0  0  0
  -25.2288  -11.0408   21.7366 C   0  0  0  0  0  0  0  0  0  0  0  0
  -31.2622  -20.0994   18.0308 C   0  0  0  0  0  0  0  0  0  0  0  0
  -31.2672  -22.3794   17.7487 C   0  0  0  0  0  0  0  0  0  0  0  0
  -26.8606  -12.0411   22.8191 C   0  0  0  0  0  0  0  0  0  0  0  0
  -24.8668  -11.5263   24.2363 C   0  0  0  0  0  0  0  0  0  0  0  0
  -24.9703  -28.7402   22.1614 C   0  0  0  0  0  0  0  0  0  0  0  0
  -23.3508  -29.1373   19.3790 C   0  0  0  0  0  0  0  0  0  0  0  0
  -23.0363  -28.3532   16.0725 C   0  0  0  0  0  0  0  0  0  0  0  0
  -30.5932  -14.8723   19.9777 C   0  0  0  0  0  0  0  0  0  0  0  0
  -23.2631  -31.4110   26.1627 C   0  0  0  0  0  0  0  0  0  0  0  0
  -26.8395  -29.3081   20.5678 C   0  0  0  0  0  0  0  0  0  0  0  0
  -25.0291  -27.2549   19.4491 C   0  0  0  0  0  0  0  0  0  0  0  0
  -22.6305  -30.7536   24.9388 C   0  0  0  0  0  0  0  0  0  0  0  0
  -30.0559  -11.6224   18.9298 C   0  0  0  0  0  0  0  0  0  0  0  0
  -23.1331  -29.3219   24.7822 C   0  0  0  0  0  0  0  0  0  0  0  0
  -28.7823  -11.2088   19.6670 C   0  0  0  0  0  0  0  0  0  0  0  0
  -29.2541  -18.0322   19.2431 C   0  0  0  0  0  0  0  0  0  0  0  0
  -31.4510  -18.1802   20.4927 C   0  0  0  0  0  0  0  0  0  0  0  0
  -29.9514  -13.0559   18.4222 C   0  0  0  0  0  0  0  0  0  0  0  0
  -28.9129  -16.7681   20.0372 C   0  0  0  0  0  0  0  0  0  0  0  0
  -31.0480  -16.9324   21.2730 C   0  0  0  0  0  0  0  0  0  0  0  0
  -28.3840  -13.6551   20.2394 C   0  0  0  0  0  0  0  0  0  0  0  0
  -30.2066  -18.9558   20.0237 C   0  0  0  0  0  0  0  0  0  0  0  0
  -24.6510  -29.2905   24.5669 C   0  0  1  0  0  0  0  0  0  0  0  0
  -25.3369  -29.3333   20.8304 C   0  0  1  0  0  0  0  0  0  0  0  0
  -28.4380  -12.2124   20.7817 C   0  0  1  0  0  0  0  0  0  0  0  0
  -29.4895  -21.6253   20.9723 C   0  0  0  0  0  0  0  0  0  0  0  0
  -31.6589  -18.7637   17.4926 C   0  0  0  0  0  0  0  0  0  0  0  0
  -31.6717  -23.5418   16.9021 C   0  0  0  0  0  0  0  0  0  0  0  0
  -21.5932  -28.8041   14.0696 C   0  0  0  0  0  0  0  0  0  0  0  0
  -21.2132  -27.2721   20.5023 C   0  0  0  0  0  0  0  0  0  0  0  0
  -20.3213  -27.0079   18.1779 C   0  0  0  0  0  0  0  0  0  0  0  0
  -20.3223  -29.2537   19.2637 C   0  0  0  0  0  0  0  0  0  0  0  0
  -25.2946  -29.5317   14.5658 C   0  0  0  0  0  0  0  0  0  0  0  0
  -30.2246  -23.9566   19.3937 C   0  0  0  0  0  0  0  0  0  1  0  0
  -22.5107  -28.2478   18.4947 C   0  0  1  0  0  0  0  0  0  0  0  0
  -22.8318  -29.2238   14.8458 C   0  0  2  0  0  0  0  0  0  0  0  0
  -21.1190  -27.9392   19.1155 C   0  0  0  0  0  0  0  0  0  0  0  0
  -26.1789  -11.2229   20.8157 N   0  0  0  0  0  0  0  0  0  0  0  0
  -31.6188  -21.1627   17.2759 N   0  0  0  0  0  0  0  0  0  0  0  0
  -27.1582  -11.8335   21.5044 N   0  0  0  0  0  0  0  0  0  0  0  0
  -24.5733  -28.6063   19.8142 N   0  0  0  0  0  0  0  0  0  0  0  0
  -29.6198  -13.9771   19.5090 N   0  0  0  0  0  0  0  0  0  0  0  0
  -30.1371  -16.0950   20.4929 N   0  0  0  0  0  0  0  0  0  0  0  0
  -27.7335  -12.6424   23.6550 N   0  0  0  0  0  0  0  0  0  0  0  0
  -23.5837  -10.9627   24.2494 N   0  0  0  0  0  0  0  0  0  0  0  0
  -24.9755  -29.6486   23.2027 N   0  0  0  0  0  0  0  0  0  0  0  0
  -22.4520  -28.9044   17.1932 N   0  0  0  0  0  0  0  0  0  0  0  0
  -24.0103  -29.1261   13.9389 N   0  3  0  0  0  0  0  0  0  0  0  0
  -25.3304  -12.0221   25.2912 O   0  0  0  0  0  0  0  0  0  0  0  0
  -24.7012  -27.5472   22.2378 O   0  0  0  0  0  0  0  0  0  0  0  0
  -22.9408  -30.2645   19.6670 O   0  0  0  0  0  0  0  0  0  0  0  0
  -23.6496  -27.2887   16.0390 O   0  0  0  0  0  0  0  0  0  0  0  0
  -31.7987  -14.5959   19.9392 O   0  0  0  0  0  0  0  0  0  0  0  0
  -20.4162   -8.5539   20.3507 O   0  0  0  0  0  0  0  0  0  0  0  0
  -28.8369  -24.1815   19.1796 O   0  0  0  0  0  0  0  0  0  1  0  0
  -15.7363  -10.8354   22.1666 F   0  0  0  0  0  0  0  0  0  0  0  0
  -19.9384   -8.8469   23.0578 F   0  0  0  0  0  0  0  0  0  0  0  0
  1  2  1  0  0  0  0
  1  5  2  0  0  0  0
  2  6  2  0  0  0  0
  3  8  2  0  0  0  0
  3 15  1  0  0  0  0
  4  9  1  0  0  0  0
  4 15  2  0  0  0  0
  5 17  1  0  0  0  0
  6 19  1  0  0  0  0
  7 10  2  0  0  0  0
  7 18  1  0  0  0  0
  8 24  1  0  0  0  0
  9 24  2  0  0  0  0
 10 25  1  0  0  0  0
 11 12  2  0  0  0  0
 11 26  1  0  0  0  0
 12 27  1  0  0  0  0
 13 20  1  0  0  0  0
 13 25  2  0  0  0  0
 14 27  2  0  0  0  0
 14 28  1  0  0  0  0
 15 29  1  0  0  0  0
 16 29  1  0  0  0  0
 16 32  2  0  0  0  0
 16 33  1  0  0  0  0
 17 19  2  0  0  0  0
 17 38  1  0  0  0  0
 18 20  2  0  0  0  0
 18 39  1  0  0  0  0
 19 52  1  0  0  0  0
 20 40  1  0  0  0  0
 21 22  1  0  0  0  0
 21 30  2  0  0  0  0
 21 51  1  0  0  0  0
 22 23  2  0  0  0  0
 22 55  1  0  0  0  0
 23 31  1  0  0  0  0
 23 63  1  0  0  0  0
 24 83  1  0  0  0  0
 25 84  1  0  0  0  0
 26 28  2  0  0  0  0
 26 83  1  0  0  0  0
 27 85  1  0  0  0  0
 28 86  1  0  0  0  0
 29 67  2  0  0  0  0
 30 56  1  0  0  0  0
 30 68  1  0  0  0  0
 31 57  1  0  0  0  0
 31 68  2  0  0  0  0
 32 69  1  0  0  0  0
 32 73  1  0  0  0  0
 33 74  1  0  0  0  0
 33 78  2  0  0  0  0
 34 53  1  0  0  0  0
 34 75  1  0  0  0  0
 34 79  2  0  0  0  0
 35 64  1  0  0  0  0
 35 70  1  0  0  0  0
 35 80  2  0  0  0  0
 36 65  1  0  0  0  0
 36 76  1  0  0  0  0
 36 81  2  0  0  0  0
 37 71  1  0  0  0  0
 37 72  1  0  0  0  0
 37 82  2  0  0  0  0
 38 41  1  0  0  0  0
 39 53  1  0  0  0  0
 40 70  1  0  0  0  0
 41 43  1  0  0  0  0
 42 44  1  0  0  0  0
 42 47  1  0  0  0  0
 43 52  1  0  0  0  0
 44 54  1  0  0  0  0
 45 48  1  0  0  0  0
 45 51  1  0  0  0  0
 46 49  1  0  0  0  0
 46 51  1  0  0  0  0
 47 71  1  0  0  0  0
 48 72  1  0  0  0  0
 49 72  1  0  0  0  0
 50 54  1  0  0  0  0
 50 71  1  0  0  0  0
 52 75  1  0  0  0  0
 53 70  1  0  0  0  0
 54 69  1  0  0  0  0
 58 65  1  0  0  0  0
 59 66  1  0  0  0  0
 60 66  1  0  0  0  0
 61 66  1  0  0  0  0
 62 77  1  0  0  0  0
 63 84  1  0  0  0  0
 64 66  1  0  0  0  0
 64 76  1  0  0  0  0
 65 77  1  0  0  0  0
 67 69  1  0  0  0  0
M  CHG  1  77   1
M  ISO  4  37 100  63 101  72 100  84 101
M  END
> <Batch ID>
0172

> <Smiles>
CNC(C)C(=O)NC(C(=O)N1Cc2cc([101O:1][101CH2:1]c3c(C)nc(C)c(C4CC[100N:0]([100C:0](=O)N5CCCC(n6nc(-c7ccc(Oc8ccc(F)cc8F)cc7)c(C(N)=O)c6N)C5)CC4)c3C)ccc2CC1C(=O)NC1CCCc2ccccc21)C(C)(C)C

> <Shape>
0.267

> <Color>
0.090

> <Negative vol penalty>
0.000

$$$$

  -OEChem-04052322403D

 89 99  0     1  0  0  0  0  0999 V2000
  -26.3147  -37.4268   21.9849 C   0  0  0  0  0  0  0  0  0  0  0  0
  -26.9541  -36.2711   21.5480 C   0  0  0  0  0  0  0  0  0  0  0  0
  -27.0751  -13.4498   22.3951 C   0  0  0  0  0  0  0  0  0  0  0  0
  -24.7466  -13.3980   23.0373 C   0  0  0  0  0  0  0  0  0  0  0  0
  -25.3334  -37.3483   22.9722 C   0  0  0  0  0  0  0  0  0  0  0  0
  -26.6134  -35.0363   22.0990 C   0  0  0  0  0  0  0  0  0  0  0  0
  -26.4809  -29.6315   19.2222 C   0  0  0  0  0  0  0  0  0  0  0  0
  -27.4366  -13.0157   23.6704 C   0  0  0  0  0  0  0  0  0  0  0  0
  -25.1080  -12.9639   24.3127 C   0  0  0  0  0  0  0  0  0  0  0  0
  -27.3920  -28.5778   19.1630 C   0  0  0  0  0  0  0  0  0  0  0  0
  -26.0410  -10.0688   25.7853 C   0  0  0  0  0  0  0  0  0  0  0  0
  -25.3117   -9.0179   26.3414 C   0  0  0  0  0  0  0  0  0  0  0  0
  -26.2023  -27.4573   20.9373 C   0  0  0  0  0  0  0  0  0  0  0  0
  -24.6630  -10.4421   28.1820 C   0  0  0  0  0  0  0  0  0  0  0  0
  -25.7301  -13.6410   22.0785 C   0  0  0  0  0  0  0  0  0  0  0  0
  -25.0648  -13.2887   19.6411 C   0  0  0  0  0  0  0  0  0  0  0  0
  -24.9736  -36.1108   23.5288 C   0  0  0  0  0  0  0  0  0  0  0  0
  -25.4282  -29.6110   20.1484 C   0  0  0  0  0  0  0  0  0  0  0  0
  -25.6273  -34.9414   23.0957 C   0  0  0  0  0  0  0  0  0  0  0  0
  -25.2777  -28.5107   21.0045 C   0  0  0  0  0  0  0  0  0  0  0  0
  -30.3282  -22.9831   18.8904 C   0  0  0  0  0  0  0  0  0  0  0  0
  -31.6862  -23.1419   19.1937 C   0  0  0  0  0  0  0  0  0  0  0  0
  -29.4881  -24.0873   18.8234 C   0  0  0  0  0  0  0  0  0  0  0  0
  -26.4530  -12.7727   24.6292 C   0  0  0  0  0  0  0  0  0  0  0  0
  -27.2545  -27.4919   20.0226 C   0  0  0  0  0  0  0  0  0  0  0  0
  -26.0815  -11.3064   26.4276 C   0  0  0  0  0  0  0  0  0  0  0  0
  -24.6227   -9.2045   27.5397 C   0  0  0  0  0  0  0  0  0  0  0  0
  -25.3924  -11.4930   27.6259 C   0  0  0  0  0  0  0  0  0  0  0  0
  -25.3562  -14.0899   20.7614 C   0  0  0  0  0  0  0  0  0  0  0  0
  -32.1477  -24.4433   19.4207 C   0  0  0  0  0  0  0  0  0  0  0  0
  -30.0398  -25.3307   19.0634 C   0  0  0  0  0  0  0  0  0  0  0  0
  -24.7691  -14.1865   18.6446 C   0  0  0  0  0  0  0  0  0  0  0  0
  -25.0617  -11.8607   19.5127 C   0  0  0  0  0  0  0  0  0  0  0  0
  -24.5631  -31.4376   22.6017 C   0  0  0  0  0  0  0  0  0  0  0  0
  -21.9553  -29.5085   22.6154 C   0  0  0  0  0  0  0  0  0  0  0  0
  -20.5768  -26.4946   21.8013 C   0  0  0  0  0  0  0  0  0  0  0  0
  -26.2349  -19.7645   17.5570 C   0  0  0  0  0  0  0  0  0  0  0  0
  -23.9405  -36.0817   24.6272 C   0  0  0  0  0  0  0  0  0  0  0  0
  -24.4383  -30.7429   20.1814 C   0  0  0  0  0  0  0  0  0  0  0  0
  -24.1529  -28.4310   22.0031 C   0  0  0  0  0  0  0  0  0  0  0  0
  -33.6025  -24.7264   19.6847 C   0  0  0  0  0  0  0  0  0  0  0  0
  -23.3731  -34.6897   24.8929 C   0  0  0  0  0  0  0  0  0  0  0  0
  -34.3932  -23.5010   20.1311 C   0  0  0  0  0  0  0  0  0  0  0  0
  -23.0131  -18.5735   17.9443 C   0  0  0  0  0  0  0  0  0  0  0  0
  -34.0782  -22.3116   19.2304 C   0  0  0  0  0  0  0  0  0  0  0  0
  -24.4971  -33.6617   24.9747 C   0  0  0  0  0  0  0  0  0  0  0  0
  -23.2074  -17.2067   18.6003 C   0  0  0  0  0  0  0  0  0  0  0  0
  -28.6748  -21.2089   19.6254 C   0  0  0  0  0  0  0  0  0  0  0  0
  -29.1866  -21.5187   17.1654 C   0  0  0  0  0  0  0  0  0  0  0  0
  -23.9669  -19.6039   18.5375 C   0  0  0  0  0  0  0  0  0  0  0  0
  -28.0685  -19.8398   19.3042 C   0  0  0  0  0  0  0  0  0  0  0  0
  -28.5944  -20.1364   16.9067 C   0  0  0  0  0  0  0  0  0  0  0  0
  -25.6172  -17.8497   19.1005 C   0  0  0  0  0  0  0  0  0  0  0  0
  -29.7460  -21.6133   18.5965 C   0  0  0  0  0  0  0  0  0  0  0  0
  -32.5892  -21.9311   19.2937 C   0  0  1  0  0  0  0  0  0  0  0  0
  -25.2678  -33.5805   23.6516 C   0  0  1  0  0  0  0  0  0  0  0  0
  -23.7046  -30.8564   21.5142 C   0  0  1  0  0  0  0  0  0  0  0  0
  -24.6800  -16.7648   18.5320 C   0  0  1  0  0  0  0  0  0  0  0  0
  -28.0391  -23.9390   18.4995 C   0  0  0  0  0  0  0  0  0  0  0  0
  -32.2779  -21.1322   20.5658 C   0  0  0  0  0  0  0  0  0  0  0  0
  -18.4362  -25.1963   21.9743 C   0  0  0  0  0  0  0  0  0  0  0  0
  -22.5186  -28.9777   25.5669 C   0  0  0  0  0  0  0  0  0  0  0  0
  -20.9845  -27.0037   25.4329 C   0  0  0  0  0  0  0  0  0  0  0  0
  -20.1023  -29.2978   25.0071 C   0  0  0  0  0  0  0  0  0  0  0  0
  -20.3255  -26.2935   18.8593 C   0  0  0  0  0  0  0  0  0  0  0  0
  -29.1914  -26.5588   19.0059 C   0  0  0  0  0  0  0  0  0  1  0  0
  -21.5941  -28.2039   23.2838 C   0  0  1  0  0  0  0  0  0  0  0  0
  -19.2696  -26.1366   21.1175 C   0  0  2  0  0  0  0  0  0  0  0  0
  -21.3223  -28.3729   24.8053 C   0  0  0  0  0  0  0  0  0  0  0  0
  -25.2550  -15.3961   20.5016 N   0  0  0  0  0  0  0  0  0  0  0  0
  -31.3428  -25.5350   19.3538 N   0  0  0  0  0  0  0  0  0  0  0  0
  -24.8967  -15.4226   19.2066 N   0  0  0  0  0  0  0  0  0  0  0  0
  -23.2144  -29.5653   22.0012 N   0  0  0  0  0  0  0  0  0  0  0  0
  -25.3539  -19.1462   18.4570 N   0  0  0  0  0  0  0  0  0  0  0  0
  -27.5910  -19.7964   17.9151 N   0  0  0  0  0  0  0  0  0  0  0  0
  -24.4151  -14.0312   17.3512 N   0  0  0  0  0  0  0  0  0  0  0  0
  -25.3892  -11.0883   20.6354 N   0  0  0  0  0  0  0  0  0  0  0  0
  -24.5192  -32.8167   22.6766 N   0  0  0  0  0  0  0  0  0  0  0  0
  -20.4686  -27.6585   22.5327 N   0  0  0  0  0  0  0  0  0  0  0  0
  -19.5341  -25.4713   19.8104 N   0  3  0  0  0  0  0  0  0  0  0  0
  -24.7927  -11.2871   18.4301 O   0  0  0  0  0  0  0  0  0  0  0  0
  -25.2159  -30.6902   23.3207 O   0  0  0  0  0  0  0  0  0  0  0  0
  -21.1472  -30.4403   22.6314 O   0  0  0  0  0  0  0  0  0  0  0  0
  -21.5913  -25.8082   21.7001 O   0  0  0  0  0  0  0  0  0  0  0  0
  -25.8343  -20.2585   16.4955 O   0  0  0  0  0  0  0  0  0  0  0  0
  -26.8053  -12.3489   25.8738 O   0  0  0  0  0  0  0  0  0  0  0  0
  -28.1491  -26.4551   19.9670 O   0  0  0  0  0  0  0  0  0  1  0  0
  -23.9211   -8.1957   28.0729 F   0  0  0  0  0  0  0  0  0  0  0  0
  -25.4266  -12.6800   28.2469 F   0  0  0  0  0  0  0  0  0  0  0  0
  1  2  1  0  0  0  0
  1  5  2  0  0  0  0
  2  6  2  0  0  0  0
  3  8  2  0  0  0  0
  3 15  1  0  0  0  0
  4  9  1  0  0  0  0
  4 15  2  0  0  0  0
  5 17  1  0  0  0  0
  6 19  1  0  0  0  0
  7 10  2  0  0  0  0
  7 18  1  0  0  0  0
  8 24  1  0  0  0  0
  9 24  2  0  0  0  0
 10 25  1  0  0  0  0
 11 12  2  0  0  0  0
 11 26  1  0  0  0  0
 12 27  1  0  0  0  0
 13 20  1  0  0  0  0
 13 25  2  0  0  0  0
 14 27  2  0  0  0  0
 14 28  1  0  0  0  0
 15 29  1  0  0  0  0
 16 29  1  0  0  0  0
 16 32  2  0  0  0  0
 16 33  1  0  0  0  0
 17 19  2  0  0  0  0
 17 38  1  0  0  0  0
 18 20  2  0  0  0  0
 18 39  1  0  0  0  0
 19 56  1  0  0  0  0
 20 40  1  0  0  0  0
 21 22  2  0  0  0  0
 21 23  1  0  0  0  0
 21 54  1  0  0  0  0
 22 30  1  0  0  0  0
 22 55  1  0  0  0  0
 23 31  2  0  0  0  0
 23 59  1  0  0  0  0
 24 86  1  0  0  0  0
 25 87  1  0  0  0  0
 26 28  2  0  0  0  0
 26 86  1  0  0  0  0
 27 88  1  0  0  0  0
 28 89  1  0  0  0  0
 29 70  2  0  0  0  0
 30 41  1  0  0  0  0
 30 71  2  0  0  0  0
 31 66  1  0  0  0  0
 31 71  1  0  0  0  0
 32 72  1  0  0  0  0
 32 76  1  0  0  0  0
 33 77  1  0  0  0  0
 33 81  2  0  0  0  0
 34 57  1  0  0  0  0
 34 78  1  0  0  0  0
 34 82  2  0  0  0  0
 35 67  1  0  0  0  0
 35 73  1  0  0  0  0
 35 83  2  0  0  0  0
 36 68  1  0  0  0  0
 36 79  1  0  0  0  0
 36 84  2  0  0  0  0
 37 74  1  0  0  0  0
 37 75  1  0  0  0  0
 37 85  2  0  0  0  0
 38 42  1  0  0  0  0
 39 57  1  0  0  0  0
 40 73  1  0  0  0  0
 41 43  1  0  0  0  0
 42 46  1  0  0  0  0
 43 45  1  0  0  0  0
 44 47  1  0  0  0  0
 44 50  1  0  0  0  0
 45 55  1  0  0  0  0
 46 56  1  0  0  0  0
 47 58  1  0  0  0  0
 48 51  1  0  0  0  0
 48 54  1  0  0  0  0
 49 52  1  0  0  0  0
 49 54  1  0  0  0  0
 50 74  1  0  0  0  0
 51 75  1  0  0  0  0
 52 75  1  0  0  0  0
 53 58  1  0  0  0  0
 53 74  1  0  0  0  0
 55 60  1  0  0  0  0
 56 78  1  0  0  0  0
 57 73  1  0  0  0  0
 58 72  1  0  0  0  0
 61 68  1  0  0  0  0
 62 69  1  0  0  0  0
 63 69  1  0  0  0  0
 64 69  1  0  0  0  0
 65 80  1  0  0  0  0
 66 87  1  0  0  0  0
 67 69  1  0  0  0  0
 67 79  1  0  0  0  0
 68 80  1  0  0  0  0
 70 72  1  0  0  0  0
M  CHG  1  80   1
M  ISO  4  37 100  66 101  75 100  87 101
M  END
> <Batch ID>
0172

> <Smiles>
CNC(C)C(=O)NC(C(=O)N1Cc2cc([101O:1][101CH2:1]c3nc4c(c(C5CC[100N:0]([100C:0](=O)N6CCCC(n7nc(-c8ccc(Oc9ccc(F)cc9F)cc8)c(C(N)=O)c7N)C6)CC5)c3C)C(C)CCC4)ccc2CC1C(=O)NC1CCCc2ccccc21)C(C)(C)C

> <Shape>
0.245

> <Color>
0.078

> <Negative vol penalty>
0.000

$$$$

  -OEChem-04052322403D

 88 97  0     1  0  0  0  0  0999 V2000
  -16.7804  -26.1750   23.4210 C   0  0  0  0  0  0  0  0  0  0  0  0
  -18.0353  -25.5747   23.4274 C   0  0  0  0  0  0  0  0  0  0  0  0
  -23.1238   -9.8047   21.4171 C   0  0  0  0  0  0  0  0  0  0  0  0
  -23.7725  -10.7589   23.5398 C   0  0  0  0  0  0  0  0  0  0  0  0
  -16.6739  -27.5650   23.3957 C   0  0  0  0  0  0  0  0  0  0  0  0
  -19.1847  -26.3641   23.4074 C   0  0  0  0  0  0  0  0  0  0  0  0
  -22.6814  -24.7882   26.7141 C   0  0  0  0  0  0  0  0  0  0  0  0
  -22.3974   -8.8174   22.0829 C   0  0  0  0  0  0  0  0  0  0  0  0
  -23.0461   -9.7716   24.2056 C   0  0  0  0  0  0  0  0  0  0  0  0
  -23.4455  -23.6794   26.3529 C   0  0  0  0  0  0  0  0  0  0  0  0
  -23.0366   -5.9185   23.6990 C   0  0  0  0  0  0  0  0  0  0  0  0
  -23.1736   -4.6034   23.2548 C   0  0  0  0  0  0  0  0  0  0  0  0
  -25.2510  -25.1421   25.7049 C   0  0  0  0  0  0  0  0  0  0  0  0
  -27.5869  -19.6639   20.7839 C   0  0  0  0  0  0  0  0  0  0  0  0
  -30.0058  -19.2826   22.1203 C   0  0  0  0  0  0  0  0  0  0  0  0
  -20.8053   -4.5153   22.7852 C   0  0  0  0  0  0  0  0  0  0  0  0
  -23.8114  -10.7754   22.1455 C   0  0  0  0  0  0  0  0  0  0  0  0
  -24.0964  -13.0542   21.0350 C   0  0  0  0  0  0  0  0  0  0  0  0
  -17.8225  -28.3719   23.3852 C   0  0  0  0  0  0  0  0  0  0  0  0
  -23.1932  -26.0850   26.5630 C   0  0  0  0  0  0  0  0  0  0  0  0
  -19.0934  -27.7661   23.3806 C   0  0  0  0  0  0  0  0  0  0  0  0
  -24.4924  -26.2656   26.0674 C   0  0  0  0  0  0  0  0  0  0  0  0
  -27.9401  -20.5038   21.8401 C   0  0  0  0  0  0  0  0  0  0  0  0
  -29.1496  -20.3131   22.5083 C   0  0  0  0  0  0  0  0  0  0  0  0
  -29.6526  -18.4427   21.0641 C   0  0  0  0  0  0  0  0  0  0  0  0
  -22.3585   -8.8009   23.4771 C   0  0  0  0  0  0  0  0  0  0  0  0
  -24.7293  -23.8563   25.8455 C   0  0  0  0  0  0  0  0  0  0  0  0
  -21.7839   -6.5319   23.6865 C   0  0  0  0  0  0  0  0  0  0  0  0
  -28.4431  -18.6334   20.3959 C   0  0  0  0  0  0  0  0  0  0  0  0
  -22.0580   -3.9018   22.7978 C   0  0  0  0  0  0  0  0  0  0  0  0
  -20.6683   -5.8303   23.2295 C   0  0  0  0  0  0  0  0  0  0  0  0
  -24.5624  -11.7951   21.4584 C   0  0  0  0  0  0  0  0  0  0  0  0
  -25.1859  -13.6411   20.4391 C   0  0  0  0  0  0  0  0  0  0  0  0
  -22.7950  -13.6409   21.1685 C   0  0  0  0  0  0  0  0  0  0  0  0
  -22.3609  -28.6415   24.8673 C   0  0  0  0  0  0  0  0  0  0  0  0
  -24.7510  -30.0512   26.5474 C   0  0  0  0  0  0  0  0  0  0  0  0
  -27.6496  -29.6983   28.3138 C   0  0  0  0  0  0  0  0  0  0  0  0
  -30.6276  -14.8784   20.3897 C   0  0  0  0  0  0  0  0  0  0  0  0
  -17.6571  -29.8692   23.3102 C   0  0  0  0  0  0  0  0  0  0  0  0
  -22.3665  -27.2695   26.9824 C   0  0  0  0  0  0  0  0  0  0  0  0
  -25.0957  -27.6360   25.9047 C   0  0  0  0  0  0  0  0  0  0  0  0
  -18.9246  -30.6407   23.6687 C   0  0  0  0  0  0  0  0  0  0  0  0
  -29.6646  -11.6937   19.1218 C   0  0  0  0  0  0  0  0  0  0  0  0
  -20.1332  -30.0429   22.9554 C   0  0  0  0  0  0  0  0  0  0  0  0
  -28.2157  -11.5377   19.5870 C   0  0  0  0  0  0  0  0  0  0  0  0
  -25.6096  -21.2138   22.6941 C   0  0  0  0  0  0  0  0  0  0  0  0
  -30.5175  -12.4139   20.1639 C   0  0  0  0  0  0  0  0  0  0  0  0
  -28.5341  -13.5580   21.0755 C   0  0  0  0  0  0  0  0  0  0  0  0
  -20.3635  -28.5888   23.3845 C   0  0  1  0  0  0  0  0  0  0  0  0
  -22.7945  -28.5672   26.3040 C   0  0  1  0  0  0  0  0  0  0  0  0
  -26.6120  -21.6671   23.7135 C   0  0  1  0  0  0  0  0  0  0  0  0
  -27.6220  -12.8870   20.0342 C   0  0  2  0  0  0  0  0  0  0  0  0
  -27.0089  -21.5999   22.2384 C   0  0  1  0  0  0  0  0  0  0  0  0
  -29.5508  -21.1987   23.6422 C   0  0  0  0  0  0  0  0  0  0  0  0
  -29.3898  -31.0351   29.5312 C   0  0  0  0  0  0  0  0  0  0  0  0
  -28.5686  -23.4646   21.6110 C   0  0  0  0  0  0  0  0  0  0  0  0
  -26.8778  -22.6307   19.9529 C   0  0  0  0  0  0  0  0  0  0  0  0
  -25.9396  -30.9302   23.8782 C   0  0  0  0  0  0  0  0  0  0  0  0
  -28.0902  -31.4012   25.0704 C   0  0  0  0  0  0  0  0  0  0  0  0
  -26.0262  -32.6626   25.6797 C   0  0  0  0  0  0  0  0  0  0  0  0
  -27.0775  -28.3284   30.8740 C   0  0  0  0  0  0  0  0  0  0  0  0
  -26.8296  -18.0884   18.7360 C   0  0  0  0  0  0  0  0  0  0  0  0
  -30.5812  -17.3447   20.6622 C   0  0  0  0  0  0  0  0  0  0  0  0
  -26.4200  -22.9561   24.4358 C   0  0  0  0  0  0  0  0  0  1  0  0
  -26.2361  -30.2329   26.3464 C   0  0  1  0  0  0  0  0  0  0  0  0
  -28.0870  -30.2603   29.6544 C   0  0  2  0  0  0  0  0  0  0  0  0
  -27.1647  -22.8676   21.4419 C   0  0  0  0  0  0  0  0  0  0  0  0
  -26.5612  -31.2809   25.2448 C   0  0  0  0  0  0  0  0  0  0  0  0
  -25.8478  -11.5930   21.1569 N   0  0  0  0  0  0  0  0  0  0  0  0
  -26.1987  -12.7330   20.5377 N   0  0  0  0  0  0  0  0  0  0  0  0
  -24.2455  -28.7628   26.3228 N   0  0  0  0  0  0  0  0  0  0  0  0
  -29.9000  -13.6868   20.5440 N   0  0  0  0  0  0  0  0  0  0  0  0
  -25.3667  -14.8400   19.8457 N   0  0  0  0  0  0  0  0  0  0  0  0
  -21.7907  -12.9008   21.8073 N   0  0  0  0  0  0  0  0  0  0  0  0
  -20.9948  -28.5399   24.6859 N   0  0  0  0  0  0  0  0  0  0  0  0
  -26.7893  -30.5532   27.6578 N   0  0  0  0  0  0  0  0  0  0  0  0
  -29.9661  -16.0403   20.7678 N   0  0  0  0  0  0  0  0  0  0  0  0
  -28.2868  -29.1584   30.6377 N   0  3  0  0  0  0  0  0  0  0  0  0
  -22.5260  -14.7810   20.7196 O   0  0  0  0  0  0  0  0  0  0  0  0
  -23.2033  -28.7821   23.9885 O   0  0  0  0  0  0  0  0  0  0  0  0
  -24.0658  -31.0152   26.8978 O   0  0  0  0  0  0  0  0  0  0  0  0
  -28.0356  -28.6115   27.8891 O   0  0  0  0  0  0  0  0  0  0  0  0
  -31.7793  -14.9052   19.9427 O   0  0  0  0  0  0  0  0  0  0  0  0
  -21.6496   -7.8379   24.1272 O   0  0  0  0  0  0  0  0  0  0  0  0
  -28.0829  -17.8220   19.3623 O   0  0  0  0  0  0  0  0  0  0  0  0
  -25.4770  -22.7757   25.4915 O   0  0  0  0  0  0  0  0  0  1  0  0
  -22.1901   -2.6395   22.3697 F   0  0  0  0  0  0  0  0  0  0  0  0
  -19.4625   -6.4148   23.2139 F   0  0  0  0  0  0  0  0  0  0  0  0
  1  2  1  0  0  0  0
  1  5  2  0  0  0  0
  2  6  2  0  0  0  0
  3  8  2  0  0  0  0
  3 17  1  0  0  0  0
  4  9  1  0  0  0  0
  4 17  2  0  0  0  0
  5 19  1  0  0  0  0
  6 21  1  0  0  0  0
  7 10  2  0  0  0  0
  7 20  1  0  0  0  0
  8 26  1  0  0  0  0
  9 26  2  0  0  0  0
 10 27  1  0  0  0  0
 11 12  2  0  0  0  0
 11 28  1  0  0  0  0
 12 30  1  0  0  0  0
 13 22  1  0  0  0  0
 13 27  2  0  0  0  0
 14 23  1  0  0  0  0
 14 29  2  0  0  0  0
 15 24  1  0  0  0  0
 15 25  2  0  0  0  0
 16 30  2  0  0  0  0
 16 31  1  0  0  0  0
 17 32  1  0  0  0  0
 18 32  1  0  0  0  0
 18 33  2  0  0  0  0
 18 34  1  0  0  0  0
 19 21  2  0  0  0  0
 19 39  1  0  0  0  0
 20 22  2  0  0  0  0
 20 40  1  0  0  0  0
 21 49  1  0  0  0  0
 22 41  1  0  0  0  0
 23 24  2  0  0  0  0
 23 53  1  0  0  0  0
 24 54  1  0  0  0  0
 25 29  1  0  0  0  0
 25 63  1  0  0  0  0
 26 84  1  0  0  0  0
 27 86  1  0  0  0  0
 28 31  2  0  0  0  0
 28 84  1  0  0  0  0
 29 85  1  0  0  0  0
 30 87  1  0  0  0  0
 31 88  1  0  0  0  0
 32 69  2  0  0  0  0
 33 70  1  0  0  0  0
 33 73  1  0  0  0  0
 34 74  1  0  0  0  0
 34 79  2  0  0  0  0
 35 50  1  0  0  0  0
 35 75  1  0  0  0  0
 35 80  2  0  0  0  0
 36 65  1  0  0  0  0
 36 71  1  0  0  0  0
 36 81  2  0  0  0  0
 37 66  1  0  0  0  0
 37 76  1  0  0  0  0
 37 82  2  0  0  0  0
 38 72  1  0  0  0  0
 38 77  1  0  0  0  0
 38 83  2  0  0  0  0
 39 42  1  0  0  0  0
 40 50  1  0  0  0  0
 41 71  1  0  0  0  0
 42 44  1  0  0  0  0
 43 45  1  0  0  0  0
 43 47  1  0  0  0  0
 44 49  1  0  0  0  0
 45 52  1  0  0  0  0
 46 51  1  0  0  0  0
 46 53  1  0  0  0  0
 47 72  1  0  0  0  0
 48 52  1  0  0  0  0
 48 72  1  0  0  0  0
 49 75  1  0  0  0  0
 50 71  1  0  0  0  0
 51 53  1  0  0  0  0
 51 64  1  0  0  0  0
 52 70  1  0  0  0  0
 53 67  1  0  0  0  0
 55 66  1  0  0  0  0
 56 67  1  0  0  0  0
 57 67  1  0  0  0  0
 58 68  1  0  0  0  0
 59 68  1  0  0  0  0
 60 68  1  0  0  0  0
 61 78  1  0  0  0  0
 62 85  1  0  0  0  0
 63 77  1  0  0  0  0
 64 86  1  0  0  0  0
 65 68  1  0  0  0  0
 65 76  1  0  0  0  0
 66 78  1  0  0  0  0
 69 70  1  0  0  0  0
M  CHG  1  78   1
M  ISO  4  38 100  64 101  77 100  86 101
M  END
> <Batch ID>
0172

> <Smiles>
CNC(C)C(=O)NC(C(=O)N1Cc2cc([101O:1][101CH2:1]C3CC3(c3cc(OC)c(C[100NH:0][100C:0](=O)N4CCCC(n5nc(-c6ccc(Oc7ccc(F)cc7F)cc6)c(C(N)=O)c5N)C4)cc3C)C(C)C)ccc2CC1C(=O)NC1CCCc2ccccc21)C(C)(C)C

> <Shape>
0.293

> <Color>
0.193

> <Negative vol penalty>
0.000

$$$$

  -OEChem-04052322403D

 90100  0     1  0  0  0  0  0999 V2000
  -21.4946  -34.4115   15.2690 C   0  0  0  0  0  0  0  0  0  0  0  0
  -22.2630  -33.2568   15.3772 C   0  0  0  0  0  0  0  0  0  0  0  0
  -27.3142  -11.0733   18.3778 C   0  0  0  0  0  0  0  0  0  0  0  0
  -27.5745   -9.8092   20.4202 C   0  0  0  0  0  0  0  0  0  0  0  0
  -21.6690  -35.4516   16.1810 C   0  0  0  0  0  0  0  0  0  0  0  0
  -23.2071  -33.1421   16.3969 C   0  0  0  0  0  0  0  0  0  0  0  0
  -24.7761  -28.0432   19.4046 C   0  0  0  0  0  0  0  0  0  0  0  0
  -28.3508  -10.3446   17.7947 C   0  0  0  0  0  0  0  0  0  0  0  0
  -28.6110   -9.0804   19.8370 C   0  0  0  0  0  0  0  0  0  0  0  0
  -25.8427  -27.1576   19.2568 C   0  0  0  0  0  0  0  0  0  0  0  0
  -31.8946   -9.5218   19.1629 C   0  0  0  0  0  0  0  0  0  0  0  0
  -33.0477   -9.3156   19.9200 C   0  0  0  0  0  0  0  0  0  0  0  0
  -27.0486  -28.3309   20.9856 C   0  0  0  0  0  0  0  0  0  0  0  0
  -28.7957  -22.1348   18.5356 C   0  0  0  0  0  0  0  0  0  0  0  0
  -32.7213   -6.9267   19.7668 C   0  0  0  0  0  0  0  0  0  0  0  0
  -26.9261  -10.8056   19.6906 C   0  0  0  0  0  0  0  0  0  0  0  0
  -24.4829  -11.2475   20.2765 C   0  0  0  0  0  0  0  0  0  0  0  0
  -22.6090  -35.3456   17.2182 C   0  0  0  0  0  0  0  0  0  0  0  0
  -24.8423  -29.0877   20.3380 C   0  0  0  0  0  0  0  0  0  0  0  0
  -23.3953  -34.1823   17.3228 C   0  0  0  0  0  0  0  0  0  0  0  0
  -25.9804  -29.2268   21.1451 C   0  0  0  0  0  0  0  0  0  0  0  0
  -29.6017  -23.2653   18.6116 C   0  0  0  0  0  0  0  0  0  0  0  0
  -29.8882  -23.8258   19.8513 C   0  0  0  0  0  0  0  0  0  0  0  0
  -28.9992   -9.3481   18.5242 C   0  0  0  0  0  0  0  0  0  0  0  0
  -26.9803  -27.3031   20.0453 C   0  0  0  0  0  0  0  0  0  0  0  0
  -31.1547   -8.4304   18.7077 C   0  0  0  0  0  0  0  0  0  0  0  0
  -33.4611   -8.0181   20.2220 C   0  0  0  0  0  0  0  0  0  0  0  0
  -31.5681   -7.1328   19.0096 C   0  0  0  0  0  0  0  0  0  0  0  0
  -25.8558  -11.5585   20.2938 C   0  0  0  0  0  0  0  0  0  0  0  0
  -28.3049  -21.6074   19.7191 C   0  0  0  0  0  0  0  0  0  0  0  0
  -29.3484  -23.2229   20.9760 C   0  0  0  0  0  0  0  0  0  0  0  0
  -23.8913  -12.2659   20.9832 C   0  0  0  0  0  0  0  0  0  0  0  0
  -23.8032  -10.1374   19.6754 C   0  0  0  0  0  0  0  0  0  0  0  0
  -24.7729  -32.2607   20.1623 C   0  0  0  0  0  0  0  0  0  0  0  0
  -24.7238  -32.0499   23.3989 C   0  0  0  0  0  0  0  0  0  0  0  0
  -25.4467  -30.2318   26.1951 C   0  0  0  0  0  0  0  0  0  0  0  0
  -25.2901  -17.8535   22.1089 C   0  0  0  0  0  0  0  0  0  0  0  0
  -22.7951  -36.5155   18.1516 C   0  0  0  0  0  0  0  0  0  0  0  0
  -23.6724  -30.0184   20.5039 C   0  0  0  0  0  0  0  0  0  0  0  0
  -26.0929  -30.3192   22.1759 C   0  0  0  0  0  0  0  0  0  0  0  0
  -23.5538  -36.1615   19.4281 C   0  0  0  0  0  0  0  0  0  0  0  0
  -24.7531  -15.4000   24.4838 C   0  0  0  0  0  0  0  0  0  0  0  0
  -30.9401  -22.9802   16.4204 C   0  0  0  0  0  0  0  0  0  0  0  0
  -31.6309  -24.0447   17.2141 C   0  0  0  0  0  0  0  0  0  0  0  0
  -24.7936  -35.3355   19.1006 C   0  0  0  0  0  0  0  0  0  0  0  0
  -24.8369  -14.0983   23.6868 C   0  0  0  0  0  0  0  0  0  0  0  0
  -28.0592  -19.1818   20.4102 C   0  0  0  0  0  0  0  0  0  0  0  0
  -26.0097  -20.6559   20.2188 C   0  0  0  0  0  0  0  0  0  0  0  0
  -25.8231  -16.3867   24.0312 C   0  0  0  0  0  0  0  0  0  0  0  0
  -27.1486  -17.9507   20.3892 C   0  0  0  0  0  0  0  0  0  0  0  0
  -25.1526  -19.3941   20.1759 C   0  0  0  0  0  0  0  0  0  0  0  0
  -25.8596  -15.4072   21.7602 C   0  0  0  0  0  0  0  0  0  0  0  0
  -30.1440  -23.8550   17.3513 C   0  0  0  0  0  0  0  0  0  0  0  0
  -24.4123  -34.0101   18.4302 C   0  0  1  0  0  0  0  0  0  0  0  0
  -27.4221  -20.3745   19.6746 C   0  0  0  0  0  0  0  0  0  0  0  0
  -24.0573  -31.3570   21.1262 C   0  0  1  0  0  0  0  0  0  0  0  0
  -24.7928  -14.3728   22.1732 C   0  0  1  0  0  0  0  0  0  0  0  0
  -29.6189  -23.7773   22.3372 C   0  0  0  0  0  0  0  0  0  0  0  0
  -25.3262  -30.3378   28.6994 C   0  0  0  0  0  0  0  0  0  0  0  0
  -31.6444  -27.0476   19.2021 C   0  0  0  0  0  0  0  0  0  0  0  0
  -27.1289  -33.9271   23.4328 C   0  0  0  0  0  0  0  0  0  0  0  0
  -27.5392  -33.2458   25.8067 C   0  0  0  0  0  0  0  0  0  0  0  0
  -25.4137  -34.3973   25.1910 C   0  0  0  0  0  0  0  0  0  0  0  0
  -23.6574  -27.8780   26.3245 C   0  0  0  0  0  0  0  0  0  0  0  0
  -29.3278  -26.9475   20.1826 C   0  0  0  0  0  0  0  0  0  1  0  0
  -25.7732  -31.9970   24.4829 C   0  0  1  0  0  0  0  0  0  0  0  0
  -24.6195  -29.9034   27.4249 C   0  0  2  0  0  0  0  0  0  0  0  0
  -30.3738  -26.2195   19.3411 C   0  0  2  0  0  0  0  0  0  0  0  0
  -26.4627  -33.3723   24.7077 C   0  0  0  0  0  0  0  0  0  0  0  0
  -26.1207  -12.6862   20.9586 N   0  0  0  0  0  0  0  0  0  0  0  0
  -28.5614  -22.1242   20.9417 N   0  0  0  0  0  0  0  0  0  0  0  0
  -24.9062  -13.0928   21.3656 N   0  0  0  0  0  0  0  0  0  0  0  0
  -24.9252  -31.2078   22.2961 N   0  0  0  0  0  0  0  0  0  0  0  0
  -25.7505  -16.6181   22.5886 N   0  0  0  0  0  0  0  0  0  0  0  0
  -25.8054  -18.2901   20.8791 N   0  0  0  0  0  0  0  0  0  0  0  0
  -22.6071  -12.5257   21.3085 N   0  0  0  0  0  0  0  0  0  0  0  0
  -24.5631   -9.1822   18.9865 N   0  0  0  0  0  0  0  0  0  0  0  0
  -30.7014  -24.9708   19.9591 N   0  0  0  0  0  0  0  0  0  0  0  0
  -23.9330  -33.0648   19.4157 N   0  0  0  0  0  0  0  0  0  0  0  0
  -25.1106  -31.4602   25.6666 N   0  0  0  0  0  0  0  0  0  0  0  0
  -24.3681  -28.4366   27.5035 N   0  3  0  0  0  0  0  0  0  0  0  0
  -22.5571  -10.0053   19.7331 O   0  0  0  0  0  0  0  0  0  0  0  0
  -25.9965  -32.2317   20.1017 O   0  0  0  0  0  0  0  0  0  0  0  0
  -23.7572  -32.8051   23.5293 O   0  0  0  0  0  0  0  0  0  0  0  0
  -26.3077  -29.4760   25.7502 O   0  0  0  0  0  0  0  0  0  0  0  0
  -24.4666  -18.5269   22.7410 O   0  0  0  0  0  0  0  0  0  0  0  0
  -30.0105   -8.6366   17.9554 O   0  0  0  0  0  0  0  0  0  0  0  0
  -28.0299  -26.4349   19.9017 O   0  0  0  0  0  0  0  0  0  1  0  0
  -34.5694   -7.8203   20.9478 F   0  0  0  0  0  0  0  0  0  0  0  0
  -30.8621   -6.0803   18.5741 F   0  0  0  0  0  0  0  0  0  0  0  0
  1  2  1  0  0  0  0
  1  5  2  0  0  0  0
  2  6  2  0  0  0  0
  3  8  2  0  0  0  0
  3 16  1  0  0  0  0
  4  9  1  0  0  0  0
  4 16  2  0  0  0  0
  5 18  1  0  0  0  0
  6 20  1  0  0  0  0
  7 10  2  0  0  0  0
  7 19  1  0  0  0  0
  8 24  1  0  0  0  0
  9 24  2  0  0  0  0
 10 25  1  0  0  0  0
 11 12  2  0  0  0  0
 11 26  1  0  0  0  0
 12 27  1  0  0  0  0
 13 21  1  0  0  0  0
 13 25  2  0  0  0  0
 14 22  2  0  0  0  0
 14 30  1  0  0  0  0
 15 27  2  0  0  0  0
 15 28  1  0  0  0  0
 16 29  1  0  0  0  0
 17 29  1  0  0  0  0
 17 32  2  0  0  0  0
 17 33  1  0  0  0  0
 18 20  2  0  0  0  0
 18 38  1  0  0  0  0
 19 21  2  0  0  0  0
 19 39  1  0  0  0  0
 20 54  1  0  0  0  0
 21 40  1  0  0  0  0
 22 23  1  0  0  0  0
 22 53  1  0  0  0  0
 23 31  2  0  0  0  0
 23 78  1  0  0  0  0
 24 87  1  0  0  0  0
 25 88  1  0  0  0  0
 26 28  2  0  0  0  0
 26 87  1  0  0  0  0
 27 89  1  0  0  0  0
 28 90  1  0  0  0  0
 29 70  2  0  0  0  0
 30 55  1  0  0  0  0
 30 71  2  0  0  0  0
 31 58  1  0  0  0  0
 31 71  1  0  0  0  0
 32 72  1  0  0  0  0
 32 76  1  0  0  0  0
 33 77  1  0  0  0  0
 33 82  2  0  0  0  0
 34 56  1  0  0  0  0
 34 79  1  0  0  0  0
 34 83  2  0  0  0  0
 35 66  1  0  0  0  0
 35 73  1  0  0  0  0
 35 84  2  0  0  0  0
 36 67  1  0  0  0  0
 36 80  1  0  0  0  0
 36 85  2  0  0  0  0
 37 74  1  0  0  0  0
 37 75  1  0  0  0  0
 37 86  2  0  0  0  0
 38 41  1  0  0  0  0
 39 56  1  0  0  0  0
 40 73  1  0  0  0  0
 41 45  1  0  0  0  0
 42 46  1  0  0  0  0
 42 49  1  0  0  0  0
 43 44  1  0  0  0  0
 43 53  1  0  0  0  0
 44 53  1  0  0  0  0
 45 54  1  0  0  0  0
 46 57  1  0  0  0  0
 47 50  1  0  0  0  0
 47 55  1  0  0  0  0
 48 51  1  0  0  0  0
 48 55  1  0  0  0  0
 49 74  1  0  0  0  0
 50 75  1  0  0  0  0
 51 75  1  0  0  0  0
 52 57  1  0  0  0  0
 52 74  1  0  0  0  0
 54 79  1  0  0  0  0
 56 73  1  0  0  0  0
 57 72  1  0  0  0  0
 59 67  1  0  0  0  0
 60 68  1  0  0  0  0
 61 69  1  0  0  0  0
 62 69  1  0  0  0  0
 63 69  1  0  0  0  0
 64 81  1  0  0  0  0
 65 68  1  0  0  0  0
 65 88  1  0  0  0  0
 66 69  1  0  0  0  0
 66 80  1  0  0  0  0
 67 81  1  0  0  0  0
 68 78  1  0  0  0  0
 70 72  1  0  0  0  0
M  CHG  1  81   1
M  ISO  4  37 100  65 101  75 100  88 101
M  END
> <Batch ID>
0172

> <Smiles>
CNC(C)C(=O)NC(C(=O)N1Cc2cc([101O:1][101CH2:1]C(C)Nc3c(C4CC4)cc(C4CC[100N:0]([100C:0](=O)N5CCCC(n6nc(-c7ccc(Oc8ccc(F)cc8F)cc7)c(C(N)=O)c6N)C5)CC4)nc3C)ccc2CC1C(=O)NC1CCCc2ccccc21)C(C)(C)C

> <Shape>
0.258

> <Color>
0.093

> <Negative vol penalty>
0.000

$$$$

  -OEChem-04052322403D

 85 94  0     1  0  0  0  0  0999 V2000
  -35.0299  -13.2094   21.0522 C   0  0  0  0  0  0  0  0  0  0  0  0
  -34.1534  -14.2701   20.8470 C   0  0  0  0  0  0  0  0  0  0  0  0
  -26.8098  -30.8051   23.9940 C   0  0  0  0  0  0  0  0  0  0  0  0
  -27.1160  -32.0040   21.9190 C   0  0  0  0  0  0  0  0  0  0  0  0
  -34.6766  -11.9250   20.6407 C   0  0  0  0  0  0  0  0  0  0  0  0
  -32.9233  -14.0470   20.2292 C   0  0  0  0  0  0  0  0  0  0  0  0
  -29.1097  -16.4009   22.5873 C   0  0  0  0  0  0  0  0  0  0  0  0
  -28.1917  -30.7761   24.1812 C   0  0  0  0  0  0  0  0  0  0  0  0
  -28.4980  -31.9750   22.1062 C   0  0  0  0  0  0  0  0  0  0  0  0
  -28.9679  -17.7690   22.3596 C   0  0  0  0  0  0  0  0  0  0  0  0
  -31.6580  -30.0716   25.0252 C   0  0  0  0  0  0  0  0  0  0  0  0
  -32.2338  -28.8680   25.4317 C   0  0  0  0  0  0  0  0  0  0  0  0
  -27.2139  -17.3159   20.7666 C   0  0  0  0  0  0  0  0  0  0  0  0
  -31.4033  -27.7955   23.4323 C   0  0  0  0  0  0  0  0  0  0  0  0
  -26.2719  -31.4190   22.8629 C   0  0  0  0  0  0  0  0  0  0  0  0
  -23.9472  -32.4401   23.1088 C   0  0  0  0  0  0  0  0  0  0  0  0
  -33.4375  -11.6844   20.0262 C   0  0  0  0  0  0  0  0  0  0  0  0
  -28.3109  -15.4779   21.8972 C   0  0  0  0  0  0  0  0  0  0  0  0
  -32.5536  -12.7584   19.8079 C   0  0  0  0  0  0  0  0  0  0  0  0
  -27.3458  -15.9367   20.9893 C   0  0  0  0  0  0  0  0  0  0  0  0
  -29.0358  -31.3611   23.2374 C   0  0  0  0  0  0  0  0  0  0  0  0
  -28.0219  -18.2266   21.4471 C   0  0  0  0  0  0  0  0  0  0  0  0
  -30.9548  -30.1373   23.8223 C   0  0  0  0  0  0  0  0  0  0  0  0
  -32.1065  -27.7299   24.6352 C   0  0  0  0  0  0  0  0  0  0  0  0
  -30.8274  -28.9992   23.0259 C   0  0  0  0  0  0  0  0  0  0  0  0
  -24.8445  -31.4487   22.6687 C   0  0  0  0  0  0  0  0  0  0  0  0
  -22.7177  -32.0070   22.6761 C   0  0  0  0  0  0  0  0  0  0  0  0
  -27.3773  -22.5988   21.9332 C   0  0  0  0  0  0  0  0  0  0  0  0
  -28.4420  -21.8612   21.5532 C   0  0  0  0  0  0  0  0  0  0  0  0
  -28.0297  -24.4329   20.7070 C   0  0  0  0  0  0  0  0  0  0  0  0
  -29.2600  -23.7035   20.2272 C   0  0  0  0  0  0  0  0  0  0  0  0
  -24.2023  -33.6449   23.8431 C   0  0  0  0  0  0  0  0  0  0  0  0
  -28.8755  -13.1077   19.8558 C   0  0  0  0  0  0  0  0  0  0  0  0
  -25.6922  -12.5818   20.1904 C   0  0  0  0  0  0  0  0  0  0  0  0
  -22.6162  -13.8324   20.9787 C   0  0  0  0  0  0  0  0  0  0  0  0
  -24.1728  -27.5207   19.5801 C   0  0  0  0  0  0  0  0  0  0  0  0
  -33.1196  -10.2872   19.5559 C   0  0  0  0  0  0  0  0  0  0  0  0
  -28.4578  -14.0067   22.1738 C   0  0  0  0  0  0  0  0  0  0  0  0
  -26.4496  -14.9879   20.2376 C   0  0  0  0  0  0  0  0  0  0  0  0
  -31.6405  -10.0702   19.2470 C   0  0  0  0  0  0  0  0  0  0  0  0
  -22.1168  -27.7723   22.6977 C   0  0  0  0  0  0  0  0  0  0  0  0
  -31.0958  -11.2219   18.4080 C   0  0  0  0  0  0  0  0  0  0  0  0
  -21.2426  -28.9814   22.3712 C   0  0  0  0  0  0  0  0  0  0  0  0
  -27.0898  -25.8340   18.8810 C   0  0  0  0  0  0  0  0  0  0  0  0
  -27.1226  -26.6889   21.2770 C   0  0  0  0  0  0  0  0  0  0  0  0
  -22.5304  -27.0412   21.4282 C   0  0  0  0  0  0  0  0  0  0  0  0
  -25.5961  -25.5677   19.0472 C   0  0  0  0  0  0  0  0  0  0  0  0
  -25.6148  -26.4306   21.3567 C   0  0  0  0  0  0  0  0  0  0  0  0
  -22.3931  -29.1442   20.1214 C   0  0  0  0  0  0  0  0  0  0  0  0
  -31.2000  -12.5522   19.1635 C   0  0  1  0  0  0  0  0  0  0  0  0
  -27.8325  -25.8391   20.2199 C   0  0  0  0  0  0  0  0  0  0  0  0
  -27.9449  -13.1304   21.0353 C   0  0  1  0  0  0  0  0  0  0  0  0
  -21.9105  -29.9309   21.3567 C   0  0  2  0  0  0  0  0  0  0  0  0
  -26.3191  -22.1091   22.8846 C   0  0  0  0  0  0  0  0  0  0  0  0
  -20.1993  -13.1727   21.1228 C   0  0  0  0  0  0  0  0  0  0  0  0
  -25.4784  -12.7098   17.1494 C   0  0  0  0  0  0  0  0  0  0  0  0
  -23.0048  -13.0003   17.4051 C   0  0  0  0  0  0  0  0  0  0  0  0
  -24.1043  -10.9135   18.2171 C   0  0  0  0  0  0  0  0  0  0  0  0
  -22.5090  -14.4185   23.8776 C   0  0  0  0  0  0  0  0  0  0  0  0
  -28.7277  -20.4419   21.9474 C   0  0  0  0  0  0  0  0  0  1  0  0
  -24.4482  -13.0713   19.4891 C   0  0  1  0  0  0  0  0  0  0  0  0
  -21.5134  -13.3024   21.8772 C   0  0  2  0  0  0  0  0  0  0  0  0
  -24.2770  -12.4418   18.0777 C   0  0  0  0  0  0  0  0  0  0  0  0
  -24.2369  -30.4602   22.0072 N   0  0  0  0  0  0  0  0  0  0  0  0
  -27.1645  -23.8922   21.5055 N   0  0  0  0  0  0  0  0  0  0  0  0
  -22.9445  -30.8282   22.0286 N   0  0  0  0  0  0  0  0  0  0  0  0
  -29.3695  -22.4213   20.7067 N   0  0  0  0  0  0  0  0  0  0  0  0
  -26.6359  -13.5588   20.5380 N   0  0  0  0  0  0  0  0  0  0  0  0
  -23.1660  -27.9466   20.4638 N   0  0  0  0  0  0  0  0  0  0  0  0
  -25.0063  -26.4819   20.0224 N   0  0  0  0  0  0  0  0  0  0  0  0
  -21.4756  -32.5232   22.7903 N   0  0  0  0  0  0  0  0  0  0  0  0
  -25.5233  -33.9379   24.2082 N   0  0  0  0  0  0  0  0  0  0  0  0
  -30.1476  -12.6561   20.1515 N   0  0  0  0  0  0  0  0  0  0  0  0
  -23.3375  -12.8106   20.3984 N   0  0  0  0  0  0  0  0  0  0  0  0
  -21.3028  -14.2181   23.0340 N   0  3  0  0  0  0  0  0  0  0  0  0
  -30.0418  -24.2681   19.4783 O   0  0  0  0  0  0  0  0  0  0  0  0
  -23.2837  -34.4299   24.1801 O   0  0  0  0  0  0  0  0  0  0  0  0
  -28.4691  -13.4714   18.7584 O   0  0  0  0  0  0  0  0  0  0  0  0
  -25.8185  -11.3779   20.4277 O   0  0  0  0  0  0  0  0  0  0  0  0
  -22.8153  -15.0328   20.8057 O   0  0  0  0  0  0  0  0  0  0  0  0
  -24.3219  -28.0447   18.4692 O   0  0  0  0  0  0  0  0  0  0  0  0
  -30.3843  -31.3332   23.4198 O   0  0  0  0  0  0  0  0  0  0  0  0
  -27.8804  -19.5744   21.2203 O   0  0  0  0  0  0  0  0  0  1  0  0
  -32.6608  -26.5745   25.0249 F   0  0  0  0  0  0  0  0  0  0  0  0
  -30.1540  -29.0564   21.8687 F   0  0  0  0  0  0  0  0  0  0  0  0
  1  2  1  0  0  0  0
  1  5  2  0  0  0  0
  2  6  2  0  0  0  0
  3  8  2  0  0  0  0
  3 15  1  0  0  0  0
  4  9  1  0  0  0  0
  4 15  2  0  0  0  0
  5 17  1  0  0  0  0
  6 19  1  0  0  0  0
  7 10  2  0  0  0  0
  7 18  1  0  0  0  0
  8 21  1  0  0  0  0
  9 21  2  0  0  0  0
 10 22  1  0  0  0  0
 11 12  2  0  0  0  0
 11 23  1  0  0  0  0
 12 24  1  0  0  0  0
 13 20  1  0  0  0  0
 13 22  2  0  0  0  0
 14 24  2  0  0  0  0
 14 25  1  0  0  0  0
 15 26  1  0  0  0  0
 16 26  1  0  0  0  0
 16 27  2  0  0  0  0
 16 32  1  0  0  0  0
 17 19  2  0  0  0  0
 17 37  1  0  0  0  0
 18 20  2  0  0  0  0
 18 38  1  0  0  0  0
 19 50  1  0  0  0  0
 20 39  1  0  0  0  0
 21 82  1  0  0  0  0
 22 83  1  0  0  0  0
 23 25  2  0  0  0  0
 23 82  1  0  0  0  0
 24 84  1  0  0  0  0
 25 85  1  0  0  0  0
 26 64  2  0  0  0  0
 27 66  1  0  0  0  0
 27 71  1  0  0  0  0
 28 29  2  0  0  0  0
 28 54  1  0  0  0  0
 28 65  1  0  0  0  0
 29 60  1  0  0  0  0
 29 67  1  0  0  0  0
 30 31  1  0  0  0  0
 30 51  1  0  0  0  0
 30 65  2  0  0  0  0
 31 67  1  0  0  0  0
 31 76  2  0  0  0  0
 32 72  1  0  0  0  0
 32 77  2  0  0  0  0
 33 52  1  0  0  0  0
 33 73  1  0  0  0  0
 33 78  2  0  0  0  0
 34 61  1  0  0  0  0
 34 68  1  0  0  0  0
 34 79  2  0  0  0  0
 35 62  1  0  0  0  0
 35 74  1  0  0  0  0
 35 80  2  0  0  0  0
 36 69  1  0  0  0  0
 36 70  1  0  0  0  0
 36 81  2  0  0  0  0
 37 40  1  0  0  0  0
 38 52  1  0  0  0  0
 39 68  1  0  0  0  0
 40 42  1  0  0  0  0
 41 43  1  0  0  0  0
 41 46  1  0  0  0  0
 42 50  1  0  0  0  0
 43 53  1  0  0  0  0
 44 47  1  0  0  0  0
 44 51  1  0  0  0  0
 45 48  1  0  0  0  0
 45 51  1  0  0  0  0
 46 69  1  0  0  0  0
 47 70  1  0  0  0  0
 48 70  1  0  0  0  0
 49 53  1  0  0  0  0
 49 69  1  0  0  0  0
 50 73  1  0  0  0  0
 52 68  1  0  0  0  0
 53 66  1  0  0  0  0
 55 62  1  0  0  0  0
 56 63  1  0  0  0  0
 57 63  1  0  0  0  0
 58 63  1  0  0  0  0
 59 75  1  0  0  0  0
 60 83  1  0  0  0  0
 61 63  1  0  0  0  0
 61 74  1  0  0  0  0
 62 75  1  0  0  0  0
 64 66  1  0  0  0  0
M  CHG  1  75   1
M  ISO  4  36 100  60 101  70 100  83 101
M  END
> <Batch ID>
0172

> <Smiles>
CNC(C)C(=O)NC(C(=O)N1Cc2cc([101O:1][101CH2:1]c3nc(O)c(C4CC[100N:0]([100C:0](=O)N5CCCC(n6nc(-c7ccc(Oc8ccc(F)cc8F)cc7)c(C(N)=O)c6N)C5)CC4)nc3C)ccc2CC1C(=O)NC1CCCc2ccccc21)C(C)(C)C

> <Shape>
0.258

> <Color>
0.053

> <Negative vol penalty>
0.000

$$$$

  -OEChem-04052322403D

 88 97  0     1  0  0  0  0  0999 V2000
  -27.7021  -38.3144   25.0589 C   0  0  0  0  0  0  0  0  0  0  0  0
  -28.3853  -37.2202   24.5382 C   0  0  0  0  0  0  0  0  0  0  0  0
  -24.2528   -8.5186   20.8796 C   0  0  0  0  0  0  0  0  0  0  0  0
  -23.2256  -10.6991   20.7147 C   0  0  0  0  0  0  0  0  0  0  0  0
  -26.4779  -38.1297   25.7002 C   0  0  0  0  0  0  0  0  0  0  0  0
  -27.8453  -35.9403   24.6593 C   0  0  0  0  0  0  0  0  0  0  0  0
  -27.4964  -29.6776   21.1992 C   0  0  0  0  0  0  0  0  0  0  0  0
  -23.2509   -8.1133   21.7614 C   0  0  0  0  0  0  0  0  0  0  0  0
  -22.2237  -10.2938   21.5965 C   0  0  0  0  0  0  0  0  0  0  0  0
  -27.7219  -28.3177   21.4080 C   0  0  0  0  0  0  0  0  0  0  0  0
  -22.5066   -8.5050   25.0350 C   0  0  0  0  0  0  0  0  0  0  0  0
  -22.8943   -7.8069   26.1787 C   0  0  0  0  0  0  0  0  0  0  0  0
  -27.7952  -18.8940   19.5274 C   0  0  0  0  0  0  0  0  0  0  0  0
  -25.5622  -28.1283   22.4660 C   0  0  0  0  0  0  0  0  0  0  0  0
  -21.5526   -5.9220   25.4830 C   0  0  0  0  0  0  0  0  0  0  0  0
  -30.1622  -18.8752   19.7582 C   0  0  0  0  0  0  0  0  0  0  0  0
  -24.2402   -9.8115   20.3563 C   0  0  0  0  0  0  0  0  0  0  0  0
  -25.2682  -10.1218   18.0423 C   0  0  0  0  0  0  0  0  0  0  0  0
  -25.9180  -36.8480   25.8208 C   0  0  0  0  0  0  0  0  0  0  0  0
  -26.3048  -30.2763   21.6327 C   0  0  0  0  0  0  0  0  0  0  0  0
  -26.6131  -35.7381   25.3040 C   0  0  0  0  0  0  0  0  0  0  0  0
  -28.9932  -19.5977   19.5818 C   0  0  0  0  0  0  0  0  0  0  0  0
  -25.3230  -29.4954   22.2592 C   0  0  0  0  0  0  0  0  0  0  0  0
  -27.8027  -17.5090   19.6493 C   0  0  0  0  0  0  0  0  0  0  0  0
  -22.2364   -9.0009   22.1198 C   0  0  0  0  0  0  0  0  0  0  0  0
  -26.7559  -27.5434   22.0441 C   0  0  0  0  0  0  0  0  0  0  0  0
  -21.6418   -7.9116   24.1154 C   0  0  0  0  0  0  0  0  0  0  0  0
  -22.4174   -6.5154   26.4027 C   0  0  0  0  0  0  0  0  0  0  0  0
  -21.1649   -6.6201   24.3393 C   0  0  0  0  0  0  0  0  0  0  0  0
  -25.2752  -10.2310   19.4458 C   0  0  0  0  0  0  0  0  0  0  0  0
  -29.0251  -16.8800   19.8225 C   0  0  0  0  0  0  0  0  0  0  0  0
  -26.4699  -10.6591   17.6501 C   0  0  0  0  0  0  0  0  0  0  0  0
  -24.2652   -9.5829   17.1709 C   0  0  0  0  0  0  0  0  0  0  0  0
  -25.5730  -32.5745   23.7030 C   0  0  0  0  0  0  0  0  0  0  0  0
  -22.5822  -32.1502   22.5209 C   0  0  0  0  0  0  0  0  0  0  0  0
  -20.3464  -30.0937   20.9657 C   0  0  0  0  0  0  0  0  0  0  0  0
  -30.1596  -14.6518   20.1298 C   0  0  0  0  0  0  0  0  0  0  0  0
  -24.6149  -36.6922   26.5639 C   0  0  0  0  0  0  0  0  0  0  0  0
  -26.0655  -31.7389   21.3760 C   0  0  0  0  0  0  0  0  0  0  0  0
  -24.0182  -30.0859   22.7254 C   0  0  0  0  0  0  0  0  0  0  0  0
  -23.9317  -35.3490   26.3204 C   0  0  0  0  0  0  0  0  0  0  0  0
  -30.9587  -11.3131   19.1854 C   0  0  0  0  0  0  0  0  0  0  0  0
  -24.9372  -34.2085   26.4431 C   0  0  0  0  0  0  0  0  0  0  0  0
  -29.5912  -10.6485   19.0114 C   0  0  0  0  0  0  0  0  0  0  0  0
  -30.9617  -12.3096   20.3434 C   0  0  0  0  0  0  0  0  0  0  0  0
  -28.5334  -12.6591   20.1184 C   0  0  0  0  0  0  0  0  0  0  0  0
  -27.6768  -23.6355   18.9068 C   0  0  0  0  0  0  0  0  0  0  0  0
  -26.0480  -34.3371   25.3938 C   0  0  1  0  0  0  0  0  0  0  0  0
  -29.0191  -21.1115   19.4526 C   0  0  2  0  0  0  0  0  0  0  0  0
  -25.0335  -32.3500   22.3188 C   0  0  1  0  0  0  0  0  0  0  0  0
  -28.4631  -11.6950   18.9229 C   0  0  2  0  0  0  0  0  0  0  0  0
  -28.1594  -21.8649   20.5145 C   0  0  1  0  0  0  0  0  0  0  0  0
  -28.5313  -22.9956   17.8173 C   0  0  1  0  0  0  0  0  0  0  0  0
  -26.5162  -16.7577   19.5895 C   0  0  0  0  0  0  0  0  0  0  0  0
  -28.7028  -21.5483   21.9228 C   0  0  0  0  0  0  0  0  0  0  0  0
  -29.9440  -23.5611   17.7172 C   0  0  0  0  0  0  0  0  0  0  0  0
  -17.9682  -30.0128   20.1689 C   0  0  0  0  0  0  0  0  0  0  0  0
  -21.6340  -31.7744   25.3966 C   0  0  0  0  0  0  0  0  0  0  0  0
  -19.5210  -30.7783   24.4961 C   0  0  0  0  0  0  0  0  0  0  0  0
  -20.1076  -33.1441   23.9655 C   0  0  0  0  0  0  0  0  0  0  0  0
  -21.1798  -29.6849   18.1555 C   0  0  0  0  0  0  0  0  0  0  0  0
  -27.3675  -24.0803   21.2352 C   0  0  0  0  0  0  0  0  0  0  0  0
  -27.7963  -25.5381   21.3009 C   0  0  0  0  0  0  0  0  0  1  0  0
  -21.4077  -31.2701   22.8746 C   0  0  1  0  0  0  0  0  0  0  0  0
  -19.4084  -30.3271   19.7951 C   0  0  2  0  0  0  0  0  0  0  0  0
  -20.6929  -31.7307   24.1762 C   0  0  0  0  0  0  0  0  0  0  0  0
  -30.2092  -17.5297   19.8804 N   0  0  0  0  0  0  0  0  0  0  0  0
  -26.3927  -10.7933   19.9137 N   0  0  0  0  0  0  0  0  0  0  0  0
  -27.0992  -11.0422   18.7979 N   0  0  0  0  0  0  0  0  0  0  0  0
  -23.8339  -31.5217   22.4572 N   0  0  0  0  0  0  0  0  0  0  0  0
  -29.8689  -13.2725   20.1900 N   0  0  0  0  0  0  0  0  0  0  0  0
  -28.1670  -23.3302   20.2607 N   0  0  2  0  0  0  0  0  0  0  0  0
  -27.0391  -10.8364   16.4389 N   0  0  0  0  0  0  0  0  0  0  0  0
  -23.0906   -9.0718   17.7397 N   0  0  0  0  0  0  0  0  0  0  0  0
  -29.0440  -15.4689   19.9501 N   0  0  0  0  0  0  0  0  0  0  0  0
  -25.5733  -33.8984   24.0989 N   0  0  0  0  0  0  0  0  0  0  0  0
  -20.5470  -31.2453   21.6969 N   0  0  0  0  0  0  0  0  0  0  0  0
  -28.5785  -21.5239   18.0683 N   0  3  0  0  0  0  0  0  0  0  0  0
  -19.7938  -29.4645   18.6426 N   0  3  0  0  0  0  0  0  0  0  0  0
  -24.4134   -9.5405   15.9260 O   0  0  0  0  0  0  0  0  0  0  0  0
  -25.9590  -31.6173   24.3637 O   0  0  0  0  0  0  0  0  0  0  0  0
  -22.3948  -33.3496   22.3020 O   0  0  0  0  0  0  0  0  0  0  0  0
  -20.8478  -28.9984   21.2093 O   0  0  0  0  0  0  0  0  0  0  0  0
  -31.3161  -15.0751   20.2030 O   0  0  0  0  0  0  0  0  0  0  0  0
  -21.2584   -8.6057   22.9800 O   0  0  0  0  0  0  0  0  0  0  0  0
  -26.9737  -26.2159   22.2497 O   0  0  0  0  0  0  0  0  0  1  0  0
  -22.7910   -5.8446   27.5002 F   0  0  0  0  0  0  0  0  0  0  0  0
  -20.3348   -6.0443   23.4588 F   0  0  0  0  0  0  0  0  0  0  0  0
  1  2  1  0  0  0  0
  1  5  2  0  0  0  0
  2  6  2  0  0  0  0
  3  8  2  0  0  0  0
  3 17  1  0  0  0  0
  4  9  1  0  0  0  0
  4 17  2  0  0  0  0
  5 19  1  0  0  0  0
  6 21  1  0  0  0  0
  7 10  2  0  0  0  0
  7 20  1  0  0  0  0
  8 25  1  0  0  0  0
  9 25  2  0  0  0  0
 10 26  1  0  0  0  0
 11 12  2  0  0  0  0
 11 27  1  0  0  0  0
 12 28  1  0  0  0  0
 13 22  2  0  0  0  0
 13 24  1  0  0  0  0
 14 23  1  0  0  0  0
 14 26  2  0  0  0  0
 15 28  2  0  0  0  0
 15 29  1  0  0  0  0
 16 22  1  0  0  0  0
 16 67  2  0  0  0  0
 17 30  1  0  0  0  0
 18 30  1  0  0  0  0
 18 32  2  0  0  0  0
 18 33  1  0  0  0  0
 19 21  2  0  0  0  0
 19 38  1  0  0  0  0
 20 23  2  0  0  0  0
 20 39  1  0  0  0  0
 21 48  1  0  0  0  0
 22 49  1  0  0  0  0
 23 40  1  0  0  0  0
 24 31  2  0  0  0  0
 24 54  1  0  0  0  0
 25 85  1  0  0  0  0
 26 86  1  0  0  0  0
 27 29  2  0  0  0  0
 27 85  1  0  0  0  0
 28 87  1  0  0  0  0
 29 88  1  0  0  0  0
 30 68  2  0  0  0  0
 31 67  1  0  0  0  0
 31 75  1  0  0  0  0
 32 69  1  0  0  0  0
 32 73  1  0  0  0  0
 33 74  1  0  0  0  0
 33 80  2  0  0  0  0
 34 50  1  0  0  0  0
 34 76  1  0  0  0  0
 34 81  2  0  0  0  0
 35 64  1  0  0  0  0
 35 70  1  0  0  0  0
 35 82  2  0  0  0  0
 36 65  1  0  0  0  0
 36 77  1  0  0  0  0
 36 83  2  0  0  0  0
 37 71  1  0  0  0  0
 37 75  1  0  0  0  0
 37 84  2  0  0  0  0
 38 41  1  0  0  0  0
 39 50  1  0  0  0  0
 40 70  1  0  0  0  0
 41 43  1  0  0  0  0
 42 44  1  0  0  0  0
 42 45  1  0  0  0  0
 43 48  1  0  0  0  0
 44 51  1  0  0  0  0
 45 71  1  0  0  0  0
 46 51  1  0  0  0  0
 46 71  1  0  0  0  0
 47 53  1  0  0  0  0
 47 72  1  0  0  0  0
 48 76  1  0  0  0  0
 49 52  1  0  0  0  0
 49 78  1  0  0  0  0
 50 70  1  0  0  0  0
 51 69  1  0  0  0  0
 52 55  1  0  0  0  0
 52 72  1  0  0  0  0
 53 56  1  0  0  0  0
 53 78  1  0  0  0  0
 57 65  1  0  0  0  0
 58 66  1  0  0  0  0
 59 66  1  0  0  0  0
 60 66  1  0  0  0  0
 61 79  1  0  0  0  0
 62 63  1  0  0  0  0
 62 72  1  0  0  0  0
 63 86  1  0  0  0  0
 64 66  1  0  0  0  0
 64 77  1  0  0  0  0
 65 79  1  0  0  0  0
 68 69  1  0  0  0  0
M  CHG  2  78   1  79   1
M  ISO  4  37 100  63 101  75 100  86 101
M  END
> <Batch ID>
0172

> <Smiles>
CNC(C)C(=O)NC(C(=O)N1Cc2cc([101O:1][101CH2:1]CN3CC(C)NC(c4cnc([100NH:0][100C:0](=O)N5CCCC(n6nc(-c7ccc(Oc8ccc(F)cc8F)cc7)c(C(N)=O)c6N)C5)c(C)c4)C3C)ccc2CC1C(=O)NC1CCCc2ccccc21)C(C)(C)C

> <Shape>
0.295

> <Color>
0.079

> <Negative vol penalty>
0.000

$$$$

  -OEChem-04052322403D

 86 95  0     1  0  0  0  0  0999 V2000
  -16.3416  -28.3434   21.4061 C   0  0  0  0  0  0  0  0  0  0  0  0
  -17.2936  -27.3316   21.4797 C   0  0  0  0  0  0  0  0  0  0  0  0
  -23.2504  -16.3706   21.4369 C   0  0  0  0  0  0  0  0  0  0  0  0
  -22.5361  -15.3325   19.3755 C   0  0  0  0  0  0  0  0  0  0  0  0
  -16.7407  -29.6589   21.1734 C   0  0  0  0  0  0  0  0  0  0  0  0
  -18.6452  -27.6345   21.3196 C   0  0  0  0  0  0  0  0  0  0  0  0
  -23.3771  -24.9598   24.1411 C   0  0  0  0  0  0  0  0  0  0  0  0
  -22.2684  -17.3494   21.2842 C   0  0  0  0  0  0  0  0  0  0  0  0
  -21.5541  -16.3113   19.2229 C   0  0  0  0  0  0  0  0  0  0  0  0
  -24.2629  -23.9594   23.7432 C   0  0  0  0  0  0  0  0  0  0  0  0
  -21.8305  -20.1788   19.4877 C   0  0  0  0  0  0  0  0  0  0  0  0
  -22.1975  -21.5050   19.7158 C   0  0  0  0  0  0  0  0  0  0  0  0
  -25.8522  -25.6437   23.0677 C   0  0  0  0  0  0  0  0  0  0  0  0
  -20.5527  -21.6569   21.4790 C   0  0  0  0  0  0  0  0  0  0  0  0
  -28.7078  -19.6020   23.1467 C   0  0  0  0  0  0  0  0  0  0  0  0
  -23.3842  -15.3622   20.4825 C   0  0  0  0  0  0  0  0  0  0  0  0
  -24.2731  -13.1167   21.3043 C   0  0  0  0  0  0  0  0  0  0  0  0
  -18.0988  -29.9796   21.0200 C   0  0  0  0  0  0  0  0  0  0  0  0
  -23.7183  -26.3120   23.9950 C   0  0  0  0  0  0  0  0  0  0  0  0
  -19.0628  -28.9553   21.0833 C   0  0  0  0  0  0  0  0  0  0  0  0
  -24.9700  -26.6593   23.4670 C   0  0  0  0  0  0  0  0  0  0  0  0
  -29.0338  -19.3421   21.8253 C   0  0  0  0  0  0  0  0  0  0  0  0
  -28.3007  -19.9867   20.8352 C   0  0  0  0  0  0  0  0  0  0  0  0
  -27.2783  -20.8591   21.1917 C   0  0  0  0  0  0  0  0  0  0  0  0
  -21.4203  -17.3198   20.1773 C   0  0  0  0  0  0  0  0  0  0  0  0
  -25.4995  -24.3013   23.2037 C   0  0  0  0  0  0  0  0  0  0  0  0
  -20.8245  -19.5916   20.2552 C   0  0  0  0  0  0  0  0  0  0  0  0
  -21.5586  -22.2441   20.7114 C   0  0  0  0  0  0  0  0  0  0  0  0
  -20.1857  -20.3307   21.2509 C   0  0  0  0  0  0  0  0  0  0  0  0
  -24.3987  -14.3511   20.6393 C   0  0  0  0  0  0  0  0  0  0  0  0
  -27.0307  -21.0509   22.5414 C   0  0  0  0  0  0  0  0  0  0  0  0
  -25.5071  -12.5282   21.1720 C   0  0  0  0  0  0  0  0  0  0  0  0
  -23.1420  -12.5523   21.9809 C   0  0  0  0  0  0  0  0  0  0  0  0
  -22.5249  -28.7627   22.3599 C   0  0  0  0  0  0  0  0  0  0  0  0
  -24.7675  -30.4420   23.9948 C   0  0  0  0  0  0  0  0  0  0  0  0
  -27.7371  -30.4355   25.6765 C   0  0  0  0  0  0  0  0  0  0  0  0
  -30.8399  -15.0064   20.1742 C   0  0  0  0  0  0  0  0  0  0  0  0
  -18.4781  -31.4088   20.7230 C   0  0  0  0  0  0  0  0  0  0  0  0
  -22.7625  -27.3789   24.4539 C   0  0  0  0  0  0  0  0  0  0  0  0
  -25.3925  -28.0962   23.3079 C   0  0  0  0  0  0  0  0  0  0  0  0
  -19.9606  -31.7026   20.9375 C   0  0  0  0  0  0  0  0  0  0  0  0
  -29.1886  -12.4412   18.2393 C   0  0  0  0  0  0  0  0  0  0  0  0
  -20.8183  -30.6139   20.3002 C   0  0  0  0  0  0  0  0  0  0  0  0
  -27.7386  -12.5345   18.7076 C   0  0  0  0  0  0  0  0  0  0  0  0
  -29.8364  -13.8191   18.2047 C   0  0  0  0  0  0  0  0  0  0  0  0
  -29.6437  -17.1847   20.7029 C   0  0  0  0  0  0  0  0  0  0  0  0
  -28.3599  -14.6225   20.0276 C   0  0  0  0  0  0  0  0  0  0  0  0
  -30.1386  -18.3983   21.5025 C   0  0  2  0  0  0  0  0  0  0  0  0
  -20.5406  -29.2480   20.9394 C   0  0  1  0  0  0  0  0  0  0  0  0
  -23.0055  -28.7274   23.7831 C   0  0  1  0  0  0  0  0  0  0  0  0
  -27.6507  -13.2534   20.0633 C   0  0  1  0  0  0  0  0  0  0  0  0
  -30.7353  -17.7135   22.7369 C   0  0  1  0  0  0  0  0  0  0  0  0
  -31.4433  -16.4851   22.1539 C   0  0  1  0  0  0  0  0  0  0  0  0
  -28.6123  -19.7410   19.3936 C   0  0  0  0  0  0  0  0  0  0  0  0
  -26.4749  -21.5671   20.1530 C   0  0  0  0  0  0  0  0  0  0  0  0
  -31.5122  -15.3360   23.1532 C   0  0  0  0  0  0  0  0  0  0  0  0
  -29.3310  -31.9662   26.8655 C   0  0  0  0  0  0  0  0  0  0  0  0
  -25.7598  -31.4923   21.3074 C   0  0  0  0  0  0  0  0  0  0  0  0
  -27.8681  -32.2158   22.4474 C   0  0  0  0  0  0  0  0  0  0  0  0
  -25.6811  -33.2020   23.1309 C   0  0  0  0  0  0  0  0  0  0  0  0
  -27.4144  -28.9765   28.2312 C   0  0  0  0  0  0  0  0  0  0  0  0
  -25.9446  -21.9753   22.9854 C   0  0  0  0  0  0  0  0  0  1  0  0
  -26.2119  -30.8105   23.7562 C   0  0  1  0  0  0  0  0  0  0  0  0
  -28.1393  -31.0330   27.0128 C   0  0  2  0  0  0  0  0  0  0  0  0
  -26.3718  -31.9030   22.6616 C   0  0  0  0  0  0  0  0  0  0  0  0
  -27.7216  -20.4427   23.5316 N   0  0  0  0  0  0  0  0  0  0  0  0
  -25.6165  -14.5371   20.1231 N   0  0  0  0  0  0  0  0  0  0  0  0
  -26.2673  -13.4117   20.4637 N   0  0  0  0  0  0  0  0  0  0  0  0
  -24.4207  -29.1031   23.7653 N   0  0  0  0  0  0  0  0  0  0  0  0
  -29.7236  -14.5020   19.4945 N   0  0  0  0  0  0  0  0  0  0  0  0
  -30.6540  -16.1495   20.9576 N   0  0  0  0  0  0  0  0  0  0  0  0
  -26.0051  -11.3465   21.5937 N   0  0  0  0  0  0  0  0  0  0  0  0
  -21.9515  -13.2908   22.0225 N   0  0  0  0  0  0  0  0  0  0  0  0
  -21.2044  -29.1455   22.2213 N   0  0  0  0  0  0  0  0  0  0  0  0
  -26.7583  -31.1831   25.0566 N   0  0  0  0  0  0  0  0  0  0  0  0
  -31.6952  -18.5992   23.4290 N   0  3  0  0  0  0  0  0  0  0  0  0
  -28.5033  -29.9540   27.9741 N   0  3  0  0  0  0  0  0  0  0  0  0
  -23.1907  -11.4337   22.5465 O   0  0  0  0  0  0  0  0  0  0  0  0
  -23.2955  -28.4660   21.4545 O   0  0  0  0  0  0  0  0  0  0  0  0
  -23.9776  -31.3087   24.3777 O   0  0  0  0  0  0  0  0  0  0  0  0
  -28.2435  -29.4103   25.2258 O   0  0  0  0  0  0  0  0  0  0  0  0
  -31.9546  -14.4797   20.0636 O   0  0  0  0  0  0  0  0  0  0  0  0
  -20.4618  -18.2746   20.0281 O   0  0  0  0  0  0  0  0  0  0  0  0
  -26.3719  -23.3199   22.8111 O   0  0  0  0  0  0  0  0  0  1  0  0
  -21.9122  -23.5172   20.9314 F   0  0  0  0  0  0  0  0  0  0  0  0
  -19.2194  -19.7717   21.9922 F   0  0  0  0  0  0  0  0  0  0  0  0
  1  2  1  0  0  0  0
  1  5  2  0  0  0  0
  2  6  2  0  0  0  0
  3  8  2  0  0  0  0
  3 16  1  0  0  0  0
  4  9  1  0  0  0  0
  4 16  2  0  0  0  0
  5 18  1  0  0  0  0
  6 20  1  0  0  0  0
  7 10  2  0  0  0  0
  7 19  1  0  0  0  0
  8 25  1  0  0  0  0
  9 25  2  0  0  0  0
 10 26  1  0  0  0  0
 11 12  2  0  0  0  0
 11 27  1  0  0  0  0
 12 28  1  0  0  0  0
 13 21  1  0  0  0  0
 13 26  2  0  0  0  0
 14 28  2  0  0  0  0
 14 29  1  0  0  0  0
 15 22  1  0  0  0  0
 15 66  2  0  0  0  0
 16 30  1  0  0  0  0
 17 30  1  0  0  0  0
 17 32  2  0  0  0  0
 17 33  1  0  0  0  0
 18 20  2  0  0  0  0
 18 38  1  0  0  0  0
 19 21  2  0  0  0  0
 19 39  1  0  0  0  0
 20 49  1  0  0  0  0
 21 40  1  0  0  0  0
 22 23  2  0  0  0  0
 22 48  1  0  0  0  0
 23 24  1  0  0  0  0
 23 54  1  0  0  0  0
 24 31  2  0  0  0  0
 24 55  1  0  0  0  0
 25 83  1  0  0  0  0
 26 84  1  0  0  0  0
 27 29  2  0  0  0  0
 27 83  1  0  0  0  0
 28 85  1  0  0  0  0
 29 86  1  0  0  0  0
 30 67  2  0  0  0  0
 31 62  1  0  0  0  0
 31 66  1  0  0  0  0
 32 68  1  0  0  0  0
 32 72  1  0  0  0  0
 33 73  1  0  0  0  0
 33 78  2  0  0  0  0
 34 50  1  0  0  0  0
 34 74  1  0  0  0  0
 34 79  2  0  0  0  0
 35 63  1  0  0  0  0
 35 69  1  0  0  0  0
 35 80  2  0  0  0  0
 36 64  1  0  0  0  0
 36 75  1  0  0  0  0
 36 81  2  0  0  0  0
 37 70  1  0  0  0  0
 37 71  1  0  0  0  0
 37 82  2  0  0  0  0
 38 41  1  0  0  0  0
 39 50  1  0  0  0  0
 40 69  1  0  0  0  0
 41 43  1  0  0  0  0
 42 44  1  0  0  0  0
 42 45  1  0  0  0  0
 43 49  1  0  0  0  0
 44 51  1  0  0  0  0
 45 70  1  0  0  0  0
 46 48  1  0  0  0  0
 46 71  1  0  0  0  0
 47 51  1  0  0  0  0
 47 70  1  0  0  0  0
 48 52  1  0  0  0  0
 49 74  1  0  0  0  0
 50 69  1  0  0  0  0
 51 68  1  0  0  0  0
 52 53  1  0  0  0  0
 52 76  1  0  0  0  0
 53 56  1  0  0  0  0
 53 71  1  0  0  0  0
 57 64  1  0  0  0  0
 58 65  1  0  0  0  0
 59 65  1  0  0  0  0
 60 65  1  0  0  0  0
 61 77  1  0  0  0  0
 62 84  1  0  0  0  0
 63 65  1  0  0  0  0
 63 75  1  0  0  0  0
 64 77  1  0  0  0  0
 67 68  1  0  0  0  0
M  CHG  2  76   1  77   1
M  ISO  4  37 100  62 101  71 100  84 101
M  END
> <Batch ID>
0172

> <Smiles>
CNC(C)C(=O)NC(C(=O)N1Cc2cc([101O:1][101CH2:1]c3ncc(C4C[100N:0]([100C:0](=O)N5CCCC(n6nc(-c7ccc(Oc8ccc(F)cc8F)cc7)c(C(N)=O)c6N)C5)C(C)C4N)c(C)c3C)ccc2CC1C(=O)NC1CCCc2ccccc21)C(C)(C)C

> <Shape>
0.241

> <Color>
0.089

> <Negative vol penalty>
0.000

$$$$

  -OEChem-04052322403D

 91102  0     1  0  0  0  0  0999 V2000
  -30.4936  -32.6658   24.8406 C   0  0  0  0  0  0  0  0  0  0  0  0
  -29.9036  -32.0325   23.7525 C   0  0  0  0  0  0  0  0  0  0  0  0
  -22.6123  -16.3502   21.6408 C   0  0  0  0  0  0  0  0  0  0  0  0
  -23.5033  -17.0603   19.5103 C   0  0  0  0  0  0  0  0  0  0  0  0
  -29.9613  -32.4916   26.1163 C   0  0  0  0  0  0  0  0  0  0  0  0
  -28.7742  -31.2344   23.9381 C   0  0  0  0  0  0  0  0  0  0  0  0
  -26.5552  -29.5266   19.8931 C   0  0  0  0  0  0  0  0  0  0  0  0
  -21.7418  -17.4400   21.6399 C   0  0  0  0  0  0  0  0  0  0  0  0
  -22.6327  -18.1501   19.5094 C   0  0  0  0  0  0  0  0  0  0  0  0
  -27.1074  -28.5244   19.0966 C   0  0  0  0  0  0  0  0  0  0  0  0
  -21.8959  -20.7511   22.3015 C   0  0  0  0  0  0  0  0  0  0  0  0
  -21.7722  -21.4817   23.4832 C   0  0  0  0  0  0  0  0  0  0  0  0
  -29.2885  -20.6551   20.6769 C   0  0  0  0  0  0  0  0  0  0  0  0
  -25.5683  -26.9288   20.0479 C   0  0  0  0  0  0  0  0  0  0  0  0
  -19.4124  -20.9682   23.5537 C   0  0  0  0  0  0  0  0  0  0  0  0
  -23.4932  -16.1604   20.5759 C   0  0  0  0  0  0  0  0  0  0  0  0
  -24.0482  -13.6708   20.6135 C   0  0  0  0  0  0  0  0  0  0  0  0
  -28.8323  -31.6809   26.3185 C   0  0  0  0  0  0  0  0  0  0  0  0
  -25.5109  -29.2347   20.7824 C   0  0  0  0  0  0  0  0  0  0  0  0
  -28.2078  -31.0655   25.2146 C   0  0  0  0  0  0  0  0  0  0  0  0
  -28.0284  -20.7642   20.0889 C   0  0  0  0  0  0  0  0  0  0  0  0
  -25.0029  -27.9297   20.8527 C   0  0  0  0  0  0  0  0  0  0  0  0
  -29.9102  -22.7942   19.7416 C   0  0  0  0  0  0  0  0  0  0  0  0
  -30.2294  -21.6701   20.5033 C   0  0  0  0  0  0  0  0  0  0  0  0
  -28.6501  -22.9033   19.1536 C   0  0  0  0  0  0  0  0  0  0  0  0
  -27.7092  -21.8883   19.3272 C   0  0  0  0  0  0  0  0  0  0  0  0
  -21.7519  -18.3399   20.5743 C   0  0  0  0  0  0  0  0  0  0  0  0
  -26.6159  -27.2246   19.1761 C   0  0  0  0  0  0  0  0  0  0  0  0
  -20.7778  -20.1290   21.7458 C   0  0  0  0  0  0  0  0  0  0  0  0
  -20.5305  -21.5902   24.1094 C   0  0  0  0  0  0  0  0  0  0  0  0
  -19.5361  -20.2376   22.3720 C   0  0  0  0  0  0  0  0  0  0  0  0
  -24.3931  -15.0351   20.5765 C   0  0  0  0  0  0  0  0  0  0  0  0
  -25.2530  -13.0115   20.5965 C   0  0  0  0  0  0  0  0  0  0  0  0
  -22.7545  -13.0545   20.6591 C   0  0  0  0  0  0  0  0  0  0  0  0
  -25.1448  -29.3780   23.9366 C   0  0  0  0  0  0  0  0  0  0  0  0
  -22.0779  -28.5973   23.2248 C   0  0  0  0  0  0  0  0  0  0  0  0
  -19.5682  -26.7798   21.3766 C   0  0  0  0  0  0  0  0  0  0  0  0
  -27.9207  -17.2709   19.8134 C   0  0  0  0  0  0  0  0  0  0  0  0
  -28.2930  -31.5333   27.7195 C   0  0  0  0  0  0  0  0  0  0  0  0
  -24.9082  -30.3327   21.6152 C   0  0  0  0  0  0  0  0  0  0  0  0
  -23.8695  -27.5687   21.7765 C   0  0  0  0  0  0  0  0  0  0  0  0
  -27.3747  -30.3260   27.8789 C   0  0  0  0  0  0  0  0  0  0  0  0
  -28.7185  -15.0442   22.5541 C   0  0  0  0  0  0  0  0  0  0  0  0
  -31.2956  -24.2963   18.1610 C   0  0  0  0  0  0  0  0  0  0  0  0
  -32.2728  -23.5314   18.9978 C   0  0  0  0  0  0  0  0  0  0  0  0
  -26.3321  -30.3160   26.7711 C   0  0  0  0  0  0  0  0  0  0  0  0
  -28.4488  -13.6900   21.8823 C   0  0  0  0  0  0  0  0  0  0  0  0
  -24.9997  -22.9655   20.6215 C   0  0  0  0  0  0  0  0  0  0  0  0
  -24.2086  -23.0966   19.3536 C   0  0  0  0  0  0  0  0  0  0  0  0
  -26.1943  -19.5371   21.6251 C   0  0  0  0  0  0  0  0  0  0  0  0
  -29.3128  -16.0533   21.5808 C   0  0  0  0  0  0  0  0  0  0  0  0
  -27.0363  -18.3290   22.0370 C   0  0  0  0  0  0  0  0  0  0  0  0
  -28.4174  -14.8565   19.6434 C   0  0  0  0  0  0  0  0  0  0  0  0
  -30.9213  -23.8814   19.5572 C   0  0  0  0  0  0  0  0  0  0  0  0
  -26.9783  -19.5953   20.3026 C   0  0  2  0  0  0  0  0  0  0  0  0
  -26.9970  -30.1682   25.3967 C   0  0  1  0  0  0  0  0  0  0  0  0
  -24.1929  -29.8149   22.8592 C   0  0  1  0  0  0  0  0  0  0  0  0
  -27.7232  -13.7885   20.5181 C   0  0  2  0  0  0  0  0  0  0  0  0
  -25.2220  -21.9954   19.4948 C   0  0  0  0  0  0  0  0  0  0  0  0
  -31.5712  -21.5264   21.1448 C   0  0  0  0  0  0  0  0  0  0  0  0
  -28.0120  -23.7464   16.8702 C   0  0  0  0  0  0  0  0  0  0  0  0
  -17.0635  -26.8946   21.4798 C   0  0  0  0  0  0  0  0  0  0  0  0
  -22.3420  -26.2819   25.1943 C   0  0  0  0  0  0  0  0  0  0  0  0
  -20.2900  -25.2724   24.1754 C   0  0  0  0  0  0  0  0  0  0  0  0
  -20.1581  -27.4960   25.2984 C   0  0  0  0  0  0  0  0  0  0  0  0
  -19.3578  -27.3242   18.4751 C   0  0  0  0  0  0  0  0  0  0  0  0
  -27.1305  -24.9166   18.9233 C   0  0  0  0  0  0  0  0  0  1  0  0
  -28.3093  -24.1106   18.3366 C   0  0  1  0  0  0  0  0  0  0  0  0
  -21.3146  -27.3055   23.0583 C   0  0  1  0  0  0  0  0  0  0  0  0
  -18.3130  -27.3527   20.7437 C   0  0  2  0  0  0  0  0  0  0  0  0
  -21.0489  -26.5950   24.4155 C   0  0  0  0  0  0  0  0  0  0  0  0
  -25.7136  -15.2323   20.5390 N   0  0  0  0  0  0  0  0  0  0  0  0
  -26.2091  -13.9832   20.5525 N   0  0  0  0  0  0  0  0  0  0  0  0
  -23.3178  -28.6757   22.5750 N   0  0  0  0  0  0  0  0  0  0  0  0
  -28.5068  -16.1294   20.3622 N   0  0  0  0  0  0  0  0  0  0  0  0
  -27.5043  -18.2692   20.6636 N   0  0  0  0  0  0  0  0  0  0  0  0
  -25.5773  -11.7012   20.6153 N   0  0  0  0  0  0  0  0  0  0  0  0
  -22.1828  -12.7928   21.9117 N   0  0  0  0  0  0  0  0  0  0  0  0
  -26.4302  -21.9943   18.7333 N   0  0  0  0  0  0  0  0  0  0  0  0
  -26.0025  -30.3725   24.3666 N   0  0  0  0  0  0  0  0  0  0  0  0
  -20.1064  -27.6385   22.3115 N   0  0  0  0  0  0  0  0  0  0  0  0
  -18.2059  -26.9197   19.3217 N   0  3  0  0  0  0  0  0  0  0  0  0
  -22.1312  -12.7300   19.6200 O   0  0  0  0  0  0  0  0  0  0  0  0
  -25.1032  -28.2246   24.3483 O   0  0  0  0  0  0  0  0  0  0  0  0
  -21.5886  -29.5060   23.9004 O   0  0  0  0  0  0  0  0  0  0  0  0
  -20.0236  -25.6789   21.0746 O   0  0  0  0  0  0  0  0  0  0  0  0
  -27.7422  -17.3890   18.5934 O   0  0  0  0  0  0  0  0  0  0  0  0
  -20.9024  -19.4033   20.5730 O   0  0  0  0  0  0  0  0  0  0  0  0
  -27.1571  -26.2379   18.3951 O   0  0  0  0  0  0  0  0  0  1  0  0
  -20.4122  -22.2906   25.2450 F   0  0  0  0  0  0  0  0  0  0  0  0
  -18.4586  -19.6412   21.8436 F   0  0  0  0  0  0  0  0  0  0  0  0
  1  2  1  0  0  0  0
  1  5  2  0  0  0  0
  2  6  2  0  0  0  0
  3  8  2  0  0  0  0
  3 16  1  0  0  0  0
  4  9  1  0  0  0  0
  4 16  2  0  0  0  0
  5 18  1  0  0  0  0
  6 20  1  0  0  0  0
  7 10  2  0  0  0  0
  7 19  1  0  0  0  0
  8 27  1  0  0  0  0
  9 27  2  0  0  0  0
 10 28  1  0  0  0  0
 11 12  2  0  0  0  0
 11 29  1  0  0  0  0
 12 30  1  0  0  0  0
 13 21  1  0  0  0  0
 13 24  2  0  0  0  0
 14 22  1  0  0  0  0
 14 28  2  0  0  0  0
 15 30  2  0  0  0  0
 15 31  1  0  0  0  0
 16 32  1  0  0  0  0
 17 32  1  0  0  0  0
 17 33  2  0  0  0  0
 17 34  1  0  0  0  0
 18 20  2  0  0  0  0
 18 39  1  0  0  0  0
 19 22  2  0  0  0  0
 19 40  1  0  0  0  0
 20 56  1  0  0  0  0
 21 26  2  0  0  0  0
 21 55  1  0  0  0  0
 22 41  1  0  0  0  0
 23 24  1  0  0  0  0
 23 25  2  0  0  0  0
 23 54  1  0  0  0  0
 24 60  1  0  0  0  0
 25 26  1  0  0  0  0
 25 68  1  0  0  0  0
 26 79  1  0  0  0  0
 27 88  1  0  0  0  0
 28 89  1  0  0  0  0
 29 31  2  0  0  0  0
 29 88  1  0  0  0  0
 30 90  1  0  0  0  0
 31 91  1  0  0  0  0
 32 72  2  0  0  0  0
 33 73  1  0  0  0  0
 33 77  1  0  0  0  0
 34 78  1  0  0  0  0
 34 83  2  0  0  0  0
 35 57  1  0  0  0  0
 35 80  1  0  0  0  0
 35 84  2  0  0  0  0
 36 69  1  0  0  0  0
 36 74  1  0  0  0  0
 36 85  2  0  0  0  0
 37 70  1  0  0  0  0
 37 81  1  0  0  0  0
 37 86  2  0  0  0  0
 38 75  1  0  0  0  0
 38 76  1  0  0  0  0
 38 87  2  0  0  0  0
 39 42  1  0  0  0  0
 40 57  1  0  0  0  0
 41 74  1  0  0  0  0
 42 46  1  0  0  0  0
 43 47  1  0  0  0  0
 43 51  1  0  0  0  0
 44 45  1  0  0  0  0
 44 54  1  0  0  0  0
 45 54  1  0  0  0  0
 46 56  1  0  0  0  0
 47 58  1  0  0  0  0
 48 49  1  0  0  0  0
 48 59  1  0  0  0  0
 49 59  1  0  0  0  0
 50 52  1  0  0  0  0
 50 55  1  0  0  0  0
 51 75  1  0  0  0  0
 52 76  1  0  0  0  0
 53 58  1  0  0  0  0
 53 75  1  0  0  0  0
 55 76  1  0  0  0  0
 56 80  1  0  0  0  0
 57 74  1  0  0  0  0
 58 73  1  0  0  0  0
 59 79  1  0  0  0  0
 61 68  1  0  0  0  0
 62 70  1  0  0  0  0
 63 71  1  0  0  0  0
 64 71  1  0  0  0  0
 65 71  1  0  0  0  0
 66 82  1  0  0  0  0
 67 68  1  0  0  0  0
 67 89  1  0  0  0  0
 69 71  1  0  0  0  0
 69 81  1  0  0  0  0
 70 82  1  0  0  0  0
 72 73  1  0  0  0  0
M  CHG  1  82   1
M  ISO  4  38 100  67 101  76 100  89 101
M  END
> <Batch ID>
0172

> <Smiles>
CNC(C)C(=O)NC(C(=O)N1Cc2cc([101O:1][101CH2:1]C(C)c3c(NC4CC4)c(C4CC[100N:0]4[100C:0](=O)N4CCCC(n5nc(-c6ccc(Oc7ccc(F)cc7F)cc6)c(C(N)=O)c5N)C4)cc(C)c3C3CC3)ccc2CC1C(=O)NC1CCCc2ccccc21)C(C)(C)C

> <Shape>
0.262

> <Color>
0.077

> <Negative vol penalty>
0.000

$$$$

  -OEChem-04052322403D

 90101  0     1  0  0  0  0  0999 V2000
  -30.1579  -29.6781   17.2051 C   0  0  0  0  0  0  0  0  0  0  0  0
  -29.4470  -28.4828   17.2416 C   0  0  0  0  0  0  0  0  0  0  0  0
  -23.1213   -9.9420   19.9560 C   0  0  0  0  0  0  0  0  0  0  0  0
  -23.7036   -9.9663   22.3007 C   0  0  0  0  0  0  0  0  0  0  0  0
  -30.2131  -30.4899   18.3373 C   0  0  0  0  0  0  0  0  0  0  0  0
  -28.7917  -28.0981   18.4109 C   0  0  0  0  0  0  0  0  0  0  0  0
  -24.1106  -26.3750   17.5373 C   0  0  0  0  0  0  0  0  0  0  0  0
  -22.3172   -8.8220   20.1673 C   0  0  0  0  0  0  0  0  0  0  0  0
  -22.8994   -8.8463   22.5120 C   0  0  0  0  0  0  0  0  0  0  0  0
  -23.9915  -25.0738   17.0510 C   0  0  0  0  0  0  0  0  0  0  0  0
  -19.6067   -8.1794   22.8774 C   0  0  0  0  0  0  0  0  0  0  0  0
  -18.7616   -8.1904   23.9870 C   0  0  0  0  0  0  0  0  0  0  0  0
  -25.3441  -19.3048   15.9201 C   0  0  0  0  0  0  0  0  0  0  0  0
  -25.0430  -18.1404   18.0154 C   0  0  0  0  0  0  0  0  0  0  0  0
  -23.4639  -24.2979   19.2733 C   0  0  0  0  0  0  0  0  0  0  0  0
  -19.8685   -6.2236   24.8494 C   0  0  0  0  0  0  0  0  0  0  0  0
  -23.8146  -10.5141   21.0227 C   0  0  0  0  0  0  0  0  0  0  0  0
  -24.2605  -13.0222   20.8869 C   0  0  0  0  0  0  0  0  0  0  0  0
  -29.5502  -30.1196   19.5180 C   0  0  0  0  0  0  0  0  0  0  0  0
  -23.9176  -26.6461   18.8995 C   0  0  0  0  0  0  0  0  0  0  0  0
  -28.8392  -28.9050   19.5603 C   0  0  0  0  0  0  0  0  0  0  0  0
  -25.7721  -18.3529   16.8454 C   0  0  0  0  0  0  0  0  0  0  0  0
  -24.1870  -20.0444   16.1648 C   0  0  0  0  0  0  0  0  0  0  0  0
  -23.5786  -25.6038   19.7740 C   0  0  0  0  0  0  0  0  0  0  0  0
  -23.4579  -19.8319   17.3347 C   0  0  0  0  0  0  0  0  0  0  0  0
  -23.8859  -18.8799   18.2601 C   0  0  0  0  0  0  0  0  0  0  0  0
  -22.2062   -8.2742   21.4453 C   0  0  0  0  0  0  0  0  0  0  0  0
  -23.6710  -24.0346   17.9195 C   0  0  0  0  0  0  0  0  0  0  0  0
  -20.5827   -7.1905   22.7537 C   0  0  0  0  0  0  0  0  0  0  0  0
  -18.8925   -7.2125   24.9730 C   0  0  0  0  0  0  0  0  0  0  0  0
  -20.7136   -6.2127   23.7397 C   0  0  0  0  0  0  0  0  0  0  0  0
  -24.6459  -11.6707   20.8050 C   0  0  0  0  0  0  0  0  0  0  0  0
  -25.4049  -13.7238   20.5963 C   0  0  0  0  0  0  0  0  0  0  0  0
  -22.9823  -13.5924   21.1979 C   0  0  0  0  0  0  0  0  0  0  0  0
  -25.7360  -27.8029   21.2360 C   0  0  0  0  0  0  0  0  0  0  0  0
  -22.9652  -27.6919   22.9191 C   0  0  0  0  0  0  0  0  0  0  0  0
  -19.8664  -26.3167   23.3109 C   0  0  0  0  0  0  0  0  0  0  0  0
  -29.9609  -14.6010   17.7001 C   0  0  0  0  0  0  0  0  0  0  0  0
  -29.6778  -31.0067   20.7310 C   0  0  0  0  0  0  0  0  0  0  0  0
  -24.0234  -28.0593   19.4037 C   0  0  0  0  0  0  0  0  0  0  0  0
  -23.3413  -25.8454   21.2416 C   0  0  0  0  0  0  0  0  0  0  0  0
  -28.6448  -30.7090   21.8148 C   0  0  0  0  0  0  0  0  0  0  0  0
  -30.2022  -12.1990   20.1748 C   0  0  0  0  0  0  0  0  0  0  0  0
  -22.3584  -20.9674   14.5904 C   0  0  0  0  0  0  0  0  0  0  0  0
  -23.5348  -20.6222   13.7318 C   0  0  0  0  0  0  0  0  0  0  0  0
  -28.5509  -29.2072   22.0646 C   0  0  0  0  0  0  0  0  0  0  0  0
  -28.7491  -11.9474   20.5774 C   0  0  0  0  0  0  0  0  0  0  0  0
  -28.1153  -17.8080   17.6400 C   0  0  0  0  0  0  0  0  0  0  0  0
  -26.7386  -16.0430   16.4609 C   0  0  0  0  0  0  0  0  0  0  0  0
  -22.0943  -21.3668   18.9050 C   0  0  0  0  0  0  0  0  0  0  0  0
  -30.3323  -12.3493   18.6632 C   0  0  0  0  0  0  0  0  0  0  0  0
  -29.3672  -16.9748   17.3764 C   0  0  0  0  0  0  0  0  0  0  0  0
  -28.0209  -15.2510   16.2224 C   0  0  0  0  0  0  0  0  0  0  0  0
  -28.0114  -13.1826   18.4812 C   0  0  0  0  0  0  0  0  0  0  0  0
  -27.0313  -17.5492   16.5795 C   0  0  0  0  0  0  0  0  0  0  0  0
  -23.7501  -21.0561   15.1570 C   0  0  0  0  0  0  0  0  0  0  0  0
  -22.2168  -20.6241   17.5989 C   0  0  1  0  0  0  0  0  0  0  0  0
  -28.0947  -28.4654   20.8023 C   0  0  1  0  0  0  0  0  0  0  0  0
  -24.3108  -28.1400   20.8997 C   0  0  1  0  0  0  0  0  0  0  0  0
  -27.8215  -13.0331   20.0039 C   0  0  1  0  0  0  0  0  0  0  0  0
  -22.2726  -22.1334   17.6265 C   0  0  1  0  0  0  0  0  0  1  0  0
  -23.1239  -18.6311   19.5208 C   0  0  0  0  0  0  0  0  0  0  0  0
  -21.1351  -22.9244   17.0710 C   0  0  0  0  0  0  0  0  0  0  0  0
  -17.8480  -26.4005   24.7995 C   0  0  0  0  0  0  0  0  0  0  0  0
  -24.4594  -26.0754   25.0320 C   0  0  0  0  0  0  0  0  0  0  0  0
  -22.2435  -25.3944   25.9778 C   0  0  0  0  0  0  0  0  0  0  0  0
  -22.8989  -27.8011   25.9493 C   0  0  0  0  0  0  0  0  0  0  0  0
  -18.1186  -27.1873   21.0869 C   0  0  0  0  0  0  0  0  0  0  0  0
  -22.2781  -26.6598   23.7804 C   0  0  1  0  0  0  0  0  0  0  0  0
  -18.5059  -26.9488   23.5429 C   0  0  2  0  0  0  0  0  0  0  0  0
  -22.9763  -26.4775   25.1576 C   0  0  0  0  0  0  0  0  0  0  0  0
  -25.9345  -11.5203   20.4870 N   0  0  0  0  0  0  0  0  0  0  0  0
  -26.3686  -12.7864   20.3665 N   0  0  0  0  0  0  0  0  0  0  0  0
  -23.4627  -27.2432   21.6874 N   0  0  0  0  0  0  0  0  0  0  0  0
  -29.4314  -13.3846   18.1571 N   0  0  0  0  0  0  0  0  0  0  0  0
  -29.0432  -15.5560   17.2326 N   0  0  0  0  0  0  0  0  0  0  0  0
  -25.6708  -15.0449   20.5173 N   0  0  0  0  0  0  0  0  0  0  0  0
  -21.9137  -12.7277   21.4715 N   0  0  0  0  0  0  0  0  0  0  0  0
  -26.6672  -28.6144   20.6166 N   0  0  0  0  0  0  0  0  0  0  0  0
  -20.8800  -27.0671   23.8685 N   0  0  0  0  0  0  0  0  0  0  0  0
  -17.6059  -26.6803   22.3858 N   0  3  0  0  0  0  0  0  0  0  0  0
  -22.7894  -14.8317   21.2162 O   0  0  0  0  0  0  0  0  0  0  0  0
  -25.9730  -26.8762   22.0019 O   0  0  0  0  0  0  0  0  0  0  0  0
  -23.0508  -28.8549   23.3211 O   0  0  0  0  0  0  0  0  0  0  0  0
  -20.0149  -25.2609   22.6996 O   0  0  0  0  0  0  0  0  0  0  0  0
  -31.1777  -14.8248   17.7130 O   0  0  0  0  0  0  0  0  0  0  0  0
  -21.4214   -7.1815   21.6518 O   0  0  0  0  0  0  0  0  0  0  0  0
  -23.5546  -22.7617   17.4469 O   0  0  0  0  0  0  0  0  0  1  0  0
  -18.0819   -7.2240   26.0393 F   0  0  0  0  0  0  0  0  0  0  0  0
  -21.6501   -5.2608   23.6270 F   0  0  0  0  0  0  0  0  0  0  0  0
  1  2  1  0  0  0  0
  1  5  2  0  0  0  0
  2  6  2  0  0  0  0
  3  8  2  0  0  0  0
  3 17  1  0  0  0  0
  4  9  1  0  0  0  0
  4 17  2  0  0  0  0
  5 19  1  0  0  0  0
  6 21  1  0  0  0  0
  7 10  2  0  0  0  0
  7 20  1  0  0  0  0
  8 27  1  0  0  0  0
  9 27  2  0  0  0  0
 10 28  1  0  0  0  0
 11 12  2  0  0  0  0
 11 29  1  0  0  0  0
 12 30  1  0  0  0  0
 13 22  2  0  0  0  0
 13 23  1  0  0  0  0
 14 22  1  0  0  0  0
 14 26  2  0  0  0  0
 15 24  1  0  0  0  0
 15 28  2  0  0  0  0
 16 30  2  0  0  0  0
 16 31  1  0  0  0  0
 17 32  1  0  0  0  0
 18 32  1  0  0  0  0
 18 33  2  0  0  0  0
 18 34  1  0  0  0  0
 19 21  2  0  0  0  0
 19 39  1  0  0  0  0
 20 24  2  0  0  0  0
 20 40  1  0  0  0  0
 21 58  1  0  0  0  0
 22 55  1  0  0  0  0
 23 25  2  0  0  0  0
 23 56  1  0  0  0  0
 24 41  1  0  0  0  0
 25 26  1  0  0  0  0
 25 57  1  0  0  0  0
 26 62  1  0  0  0  0
 27 87  1  0  0  0  0
 28 88  1  0  0  0  0
 29 31  2  0  0  0  0
 29 87  1  0  0  0  0
 30 89  1  0  0  0  0
 31 90  1  0  0  0  0
 32 72  2  0  0  0  0
 33 73  1  0  0  0  0
 33 77  1  0  0  0  0
 34 78  1  0  0  0  0
 34 82  2  0  0  0  0
 35 59  1  0  0  0  0
 35 79  1  0  0  0  0
 35 83  2  0  0  0  0
 36 69  1  0  0  0  0
 36 74  1  0  0  0  0
 36 84  2  0  0  0  0
 37 70  1  0  0  0  0
 37 80  1  0  0  0  0
 37 85  2  0  0  0  0
 38 75  1  0  0  0  0
 38 76  1  0  0  0  0
 38 86  2  0  0  0  0
 39 42  1  0  0  0  0
 40 59  1  0  0  0  0
 41 74  1  0  0  0  0
 42 46  1  0  0  0  0
 43 47  1  0  0  0  0
 43 51  1  0  0  0  0
 44 45  1  0  0  0  0
 44 56  1  0  0  0  0
 45 56  1  0  0  0  0
 46 58  1  0  0  0  0
 47 60  1  0  0  0  0
 48 52  1  0  0  0  0
 48 55  1  0  0  0  0
 49 53  1  0  0  0  0
 49 55  1  0  0  0  0
 50 57  1  0  0  0  0
 50 61  1  0  0  0  0
 51 75  1  0  0  0  0
 52 76  1  0  0  0  0
 53 76  1  0  0  0  0
 54 60  1  0  0  0  0
 54 75  1  0  0  0  0
 57 61  1  0  0  0  0
 58 79  1  0  0  0  0
 59 74  1  0  0  0  0
 60 73  1  0  0  0  0
 61 63  1  0  0  0  0
 61 88  1  0  0  0  0
 64 70  1  0  0  0  0
 65 71  1  0  0  0  0
 66 71  1  0  0  0  0
 67 71  1  0  0  0  0
 68 81  1  0  0  0  0
 69 71  1  0  0  0  0
 69 80  1  0  0  0  0
 70 81  1  0  0  0  0
 72 73  1  0  0  0  0
M  CHG  1  81   1
M  ISO  4  38 100  61 101  76 100  88 101
M  END
> <Batch ID>
0172

> <Smiles>
CNC(C)C(=O)NC(C(=O)N1Cc2cc([101O:1][101C:1]3(C)CC3c3c(C)cc(C4CC[100N:0]([100C:0](=O)N5CCCC(n6nc(-c7ccc(Oc8ccc(F)cc8F)cc7)c(C(N)=O)c6N)C5)CC4)cc3C3CC3)ccc2CC1C(=O)NC1CCCc2ccccc21)C(C)(C)C

> <Shape>
0.215

> <Color>
0.191

> <Negative vol penalty>
0.000

$$$$

  -OEChem-04052322403D

 89 99  0     1  0  0  0  0  0999 V2000
  -27.3880  -37.9681   22.0580 C   0  0  0  0  0  0  0  0  0  0  0  0
  -27.9128  -36.8976   21.3412 C   0  0  0  0  0  0  0  0  0  0  0  0
  -26.2051   -9.2242   23.0553 C   0  0  0  0  0  0  0  0  0  0  0  0
  -25.4243   -7.9163   21.1800 C   0  0  0  0  0  0  0  0  0  0  0  0
  -26.6123  -37.7327   23.1924 C   0  0  0  0  0  0  0  0  0  0  0  0
  -27.6632  -35.5908   21.7591 C   0  0  0  0  0  0  0  0  0  0  0  0
  -26.6803  -28.9891   19.1576 C   0  0  0  0  0  0  0  0  0  0  0  0
  -25.5736   -8.3429   23.9329 C   0  0  0  0  0  0  0  0  0  0  0  0
  -24.7928   -7.0350   22.0576 C   0  0  0  0  0  0  0  0  0  0  0  0
  -27.1588  -27.6887   19.3112 C   0  0  0  0  0  0  0  0  0  0  0  0
  -21.9467   -6.9465   23.8804 C   0  0  0  0  0  0  0  0  0  0  0  0
  -20.6446   -6.5501   23.5754 C   0  0  0  0  0  0  0  0  0  0  0  0
  -29.0715  -21.0144   20.5116 C   0  0  0  0  0  0  0  0  0  0  0  0
  -27.9692  -22.6711   19.1122 C   0  0  0  0  0  0  0  0  0  0  0  0
  -25.7392  -27.4006   21.2402 C   0  0  0  0  0  0  0  0  0  0  0  0
  -21.3676   -4.2466   23.4826 C   0  0  0  0  0  0  0  0  0  0  0  0
  -26.1304   -9.0109   21.6789 C   0  0  0  0  0  0  0  0  0  0  0  0
  -28.0993   -9.8362   20.2824 C   0  0  0  0  0  0  0  0  0  0  0  0
  -26.3450  -36.4222   23.6189 C   0  0  0  0  0  0  0  0  0  0  0  0
  -25.7341  -29.5097   20.0522 C   0  0  0  0  0  0  0  0  0  0  0  0
  -26.8844  -35.3377   22.9011 C   0  0  0  0  0  0  0  0  0  0  0  0
  -28.2687  -21.3344   19.4142 C   0  0  0  0  0  0  0  0  0  0  0  0
  -29.5733  -22.0470   21.2908 C   0  0  0  0  0  0  0  0  0  0  0  0
  -25.2484  -28.7070   21.0943 C   0  0  0  0  0  0  0  0  0  0  0  0
  -29.2745  -23.3820   20.9820 C   0  0  0  0  0  0  0  0  0  0  0  0
  -28.4689  -23.7072   19.9027 C   0  0  0  0  0  0  0  0  0  0  0  0
  -24.8675   -7.2483   23.4340 C   0  0  0  0  0  0  0  0  0  0  0  0
  -26.6904  -26.8951   20.3543 C   0  0  0  0  0  0  0  0  0  0  0  0
  -22.9593   -5.9930   23.9864 C   0  0  0  0  0  0  0  0  0  0  0  0
  -20.3550   -5.2002   23.3765 C   0  0  0  0  0  0  0  0  0  0  0  0
  -22.6697   -4.6430   23.7876 C   0  0  0  0  0  0  0  0  0  0  0  0
  -26.7821   -9.9213   20.7718 C   0  0  0  0  0  0  0  0  0  0  0  0
  -28.2324  -10.9304   19.4629 C   0  0  0  0  0  0  0  0  0  0  0  0
  -29.1120   -8.8558   20.5451 C   0  0  0  0  0  0  0  0  0  0  0  0
  -25.6873  -31.9330   22.1087 C   0  0  0  0  0  0  0  0  0  0  0  0
  -22.5718  -31.0894   22.4317 C   0  0  0  0  0  0  0  0  0  0  0  0
  -20.1838  -28.6660   22.1645 C   0  0  0  0  0  0  0  0  0  0  0  0
  -27.6320  -16.1400   18.3111 C   0  0  0  0  0  0  0  0  0  0  0  0
  -25.5406  -36.2185   24.8783 C   0  0  0  0  0  0  0  0  0  0  0  0
  -25.2081  -30.9053   19.8570 C   0  0  0  0  0  0  0  0  0  0  0  0
  -29.8853  -24.3177   21.9765 C   0  0  0  0  0  0  0  0  0  0  0  0
  -24.2177  -29.2117   22.0696 C   0  0  0  0  0  0  0  0  0  0  0  0
  -25.0113  -34.7958   25.0395 C   0  0  0  0  0  0  0  0  0  0  0  0
  -30.9631  -23.4198   22.6026 C   0  0  0  0  0  0  0  0  0  0  0  0
  -24.7864  -14.1745   17.6972 C   0  0  0  0  0  0  0  0  0  0  0  0
  -26.1130  -33.7806   24.7521 C   0  0  0  0  0  0  0  0  0  0  0  0
  -25.1569  -12.8734   18.4085 C   0  0  0  0  0  0  0  0  0  0  0  0
  -26.7414  -19.3424   19.3615 C   0  0  0  0  0  0  0  0  0  0  0  0
  -25.2133  -15.4065   18.4971 C   0  0  0  0  0  0  0  0  0  0  0  0
  -26.1664  -18.1921   18.5345 C   0  0  0  0  0  0  0  0  0  0  0  0
  -28.1460  -18.2150   17.0639 C   0  0  0  0  0  0  0  0  0  0  0  0
  -27.0152  -14.1086   19.5870 C   0  0  0  0  0  0  0  0  0  0  0  0
  -27.7072  -20.2227   18.5423 C   0  0  2  0  0  0  0  0  0  0  0  0
  -26.6152  -33.9053   23.3085 C   0  0  1  0  0  0  0  0  0  0  0  0
  -24.6272  -31.5086   21.1321 C   0  0  1  0  0  0  0  0  0  0  0  0
  -28.8002  -19.3568   17.8579 C   0  0  2  0  0  0  0  0  0  0  0  0
  -26.6503  -12.8530   18.7800 C   0  0  1  0  0  0  0  0  0  0  0  0
  -30.4337  -21.9623   22.5305 C   0  0  0  0  0  0  0  0  0  0  0  0
  -29.6846  -20.1842   16.9188 C   0  0  0  0  0  0  0  0  0  0  0  0
  -29.5752  -21.6215   23.7559 C   0  0  0  0  0  0  0  0  0  0  0  0
  -31.5908  -20.9684   22.4019 C   0  0  0  0  0  0  0  0  0  0  0  0
  -17.7346  -28.2644   22.5357 C   0  0  0  0  0  0  0  0  0  0  0  0
  -23.0560  -30.9323   25.4402 C   0  0  0  0  0  0  0  0  0  0  0  0
  -20.9212  -29.6405   25.6459 C   0  0  0  0  0  0  0  0  0  0  0  0
  -20.8822  -31.9821   24.7868 C   0  0  0  0  0  0  0  0  0  0  0  0
  -19.7344  -28.0425   19.3065 C   0  0  0  0  0  0  0  0  0  0  0  0
  -28.1313  -25.1218   19.5814 C   0  0  0  0  0  0  0  0  0  1  0  0
  -21.8081  -30.1402   23.3232 C   0  0  1  0  0  0  0  0  0  0  0  0
  -18.8024  -28.6780   21.5350 C   0  0  2  0  0  0  0  0  0  0  0  0
  -21.6877  -30.6646   24.7820 C   0  0  0  0  0  0  0  0  0  0  0  0
  -26.1253  -10.9854   20.3025 N   0  0  0  0  0  0  0  0  0  0  0  0
  -27.0336  -11.5792   19.5097 N   0  0  0  0  0  0  0  0  0  0  0  0
  -23.7389  -30.5850   21.8407 N   0  0  0  0  0  0  0  0  0  0  0  0
  -26.6341  -15.3229   18.8628 N   0  0  0  0  0  0  0  0  0  0  0  0
  -27.2477  -17.4265   17.9049 N   0  0  0  0  0  0  0  0  0  0  0  0
  -29.2568  -11.3912   18.7141 N   0  0  0  0  0  0  0  0  0  0  0  0
  -28.8080   -7.7967   21.4112 N   0  0  0  0  0  0  0  0  0  0  0  0
  -25.6814  -33.2852   22.3932 N   0  0  0  0  0  0  0  0  0  0  0  0
  -20.5275  -29.9037   22.6657 N   0  0  0  0  0  0  0  0  0  0  0  0
  -18.7519  -27.7392   20.3788 N   0  3  0  0  0  0  0  0  0  0  0  0
  -30.2580   -8.9261   20.0399 O   0  0  0  0  0  0  0  0  0  0  0  0
  -26.4529  -31.0953   22.5712 O   0  0  0  0  0  0  0  0  0  0  0  0
  -22.1446  -32.2338   22.2602 O   0  0  0  0  0  0  0  0  0  0  0  0
  -20.8860  -27.6584   22.2106 O   0  0  0  0  0  0  0  0  0  0  0  0
  -28.7979  -15.7439   18.1878 O   0  0  0  0  0  0  0  0  0  0  0  0
  -24.2513   -6.3880   24.2901 O   0  0  0  0  0  0  0  0  0  0  0  0
  -27.1652  -25.6012   20.5097 O   0  0  0  0  0  0  0  0  0  1  0  0
  -19.1043   -4.8195   23.0851 F   0  0  0  0  0  0  0  0  0  0  0  0
  -23.6381   -3.7223   23.8893 F   0  0  0  0  0  0  0  0  0  0  0  0
  1  2  1  0  0  0  0
  1  5  2  0  0  0  0
  2  6  2  0  0  0  0
  3  8  2  0  0  0  0
  3 17  1  0  0  0  0
  4  9  1  0  0  0  0
  4 17  2  0  0  0  0
  5 19  1  0  0  0  0
  6 21  1  0  0  0  0
  7 10  2  0  0  0  0
  7 20  1  0  0  0  0
  8 27  1  0  0  0  0
  9 27  2  0  0  0  0
 10 28  1  0  0  0  0
 11 12  2  0  0  0  0
 11 29  1  0  0  0  0
 12 30  1  0  0  0  0
 13 22  1  0  0  0  0
 13 23  2  0  0  0  0
 14 22  2  0  0  0  0
 14 26  1  0  0  0  0
 15 24  1  0  0  0  0
 15 28  2  0  0  0  0
 16 30  2  0  0  0  0
 16 31  1  0  0  0  0
 17 32  1  0  0  0  0
 18 32  1  0  0  0  0
 18 33  2  0  0  0  0
 18 34  1  0  0  0  0
 19 21  2  0  0  0  0
 19 39  1  0  0  0  0
 20 24  2  0  0  0  0
 20 40  1  0  0  0  0
 21 54  1  0  0  0  0
 22 53  1  0  0  0  0
 23 25  1  0  0  0  0
 23 58  1  0  0  0  0
 24 42  1  0  0  0  0
 25 26  2  0  0  0  0
 25 41  1  0  0  0  0
 26 67  1  0  0  0  0
 27 86  1  0  0  0  0
 28 87  1  0  0  0  0
 29 31  2  0  0  0  0
 29 86  1  0  0  0  0
 30 88  1  0  0  0  0
 31 89  1  0  0  0  0
 32 71  2  0  0  0  0
 33 72  1  0  0  0  0
 33 76  1  0  0  0  0
 34 77  1  0  0  0  0
 34 81  2  0  0  0  0
 35 55  1  0  0  0  0
 35 78  1  0  0  0  0
 35 82  2  0  0  0  0
 36 68  1  0  0  0  0
 36 73  1  0  0  0  0
 36 83  2  0  0  0  0
 37 69  1  0  0  0  0
 37 79  1  0  0  0  0
 37 84  2  0  0  0  0
 38 74  1  0  0  0  0
 38 75  1  0  0  0  0
 38 85  2  0  0  0  0
 39 43  1  0  0  0  0
 40 55  1  0  0  0  0
 41 44  1  0  0  0  0
 42 73  1  0  0  0  0
 43 46  1  0  0  0  0
 44 58  1  0  0  0  0
 45 47  1  0  0  0  0
 45 49  1  0  0  0  0
 46 54  1  0  0  0  0
 47 57  1  0  0  0  0
 48 50  1  0  0  0  0
 48 53  1  0  0  0  0
 49 74  1  0  0  0  0
 50 75  1  0  0  0  0
 51 56  1  0  0  0  0
 51 75  1  0  0  0  0
 52 57  1  0  0  0  0
 52 74  1  0  0  0  0
 53 56  1  0  0  0  0
 54 78  1  0  0  0  0
 55 73  1  0  0  0  0
 56 59  1  0  0  0  0
 57 72  1  0  0  0  0
 58 60  1  0  0  0  0
 58 61  1  0  0  0  0
 62 69  1  0  0  0  0
 63 70  1  0  0  0  0
 64 70  1  0  0  0  0
 65 70  1  0  0  0  0
 66 80  1  0  0  0  0
 67 87  1  0  0  0  0
 68 70  1  0  0  0  0
 68 79  1  0  0  0  0
 69 80  1  0  0  0  0
 71 72  1  0  0  0  0
M  CHG  1  80   1
M  ISO  4  38 100  67 101  75 100  87 101
M  END
> <Batch ID>
0172

> <Smiles>
CNC(C)C(=O)NC(C(=O)N1Cc2cc([101O:1][101CH2:1]c3cc(C4CC[100N:0]([100C:0](=O)N5CCCC(n6nc(-c7ccc(Oc8ccc(F)cc8F)cc7)c(C(N)=O)c6N)C5)CC4C)cc4c3CCC4(C)C)ccc2CC1C(=O)NC1CCCc2ccccc21)C(C)(C)C

> <Shape>
0.269

> <Color>
0.072

> <Negative vol penalty>
0.000

$$$$

  -OEChem-04052322403D

 86 95  0     1  0  0  0  0  0999 V2000
  -36.9614  -17.3621   37.2641 C   0  0  0  0  0  0  0  0  0  0  0  0
  -35.7193  -16.7629   37.0879 C   0  0  0  0  0  0  0  0  0  0  0  0
  -23.0736   -9.8669   19.9434 C   0  0  0  0  0  0  0  0  0  0  0  0
  -23.8317   -9.8789   22.2374 C   0  0  0  0  0  0  0  0  0  0  0  0
  -37.2502  -18.5619   36.6172 C   0  0  0  0  0  0  0  0  0  0  0  0
  -34.7700  -17.3569   36.2556 C   0  0  0  0  0  0  0  0  0  0  0  0
  -28.6087  -19.1059   30.9282 C   0  0  0  0  0  0  0  0  0  0  0  0
  -22.3295   -8.7143   20.1953 C   0  0  0  0  0  0  0  0  0  0  0  0
  -23.0876   -8.7263   22.4893 C   0  0  0  0  0  0  0  0  0  0  0  0
  -28.4229  -20.0503   29.9195 C   0  0  0  0  0  0  0  0  0  0  0  0
  -19.9443   -5.9742   20.3279 C   0  0  0  0  0  0  0  0  0  0  0  0
  -18.6390   -5.9251   19.8387 C   0  0  0  0  0  0  0  0  0  0  0  0
  -30.7179  -19.7615   29.2347 C   0  0  0  0  0  0  0  0  0  0  0  0
  -29.7478  -17.7164   22.7121 C   0  0  0  0  0  0  0  0  0  0  0  0
  -18.0728   -7.8709   21.1542 C   0  0  0  0  0  0  0  0  0  0  0  0
  -23.8247  -10.4492   20.9644 C   0  0  0  0  0  0  0  0  0  0  0  0
  -24.1667  -12.9741   20.8391 C   0  0  0  0  0  0  0  0  0  0  0  0
  -36.2989  -19.1767   35.7866 C   0  0  0  0  0  0  0  0  0  0  0  0
  -29.8557  -18.4892   31.1049 C   0  0  0  0  0  0  0  0  0  0  0  0
  -35.0512  -18.5555   35.5751 C   0  0  0  0  0  0  0  0  0  0  0  0
  -30.9162  -18.8078   30.2448 C   0  0  0  0  0  0  0  0  0  0  0  0
  -30.2034  -18.9670   23.1467 C   0  0  0  0  0  0  0  0  0  0  0  0
  -31.4924  -19.3715   22.7781 C   0  0  0  0  0  0  0  0  0  0  0  0
  -22.3365   -8.1440   21.4683 C   0  0  0  0  0  0  0  0  0  0  0  0
  -29.4784  -20.3804   29.0744 C   0  0  0  0  0  0  0  0  0  0  0  0
  -20.3139   -6.9716   21.2304 C   0  0  0  0  0  0  0  0  0  0  0  0
  -17.7032   -6.8735   20.2518 C   0  0  0  0  0  0  0  0  0  0  0  0
  -19.3781   -7.9200   21.6434 C   0  0  0  0  0  0  0  0  0  0  0  0
  -24.5940  -11.6395   20.7047 C   0  0  0  0  0  0  0  0  0  0  0  0
  -32.2286  -18.5325   21.9453 C   0  0  0  0  0  0  0  0  0  0  0  0
  -30.5696  -16.9526   21.8979 C   0  0  0  0  0  0  0  0  0  0  0  0
  -25.2591  -13.7227   20.4750 C   0  0  0  0  0  0  0  0  0  0  0  0
  -22.8959  -13.4908   21.2559 C   0  0  0  0  0  0  0  0  0  0  0  0
  -31.9970  -18.3910   33.4520 C   0  0  0  0  0  0  0  0  0  0  0  0
  -33.4510  -16.2381   31.5096 C   0  0  0  0  0  0  0  0  0  0  0  0
  -34.1151  -15.9043   27.9790 C   0  0  0  0  0  0  0  0  0  0  0  0
  -30.7252  -14.7687   20.6517 C   0  0  0  0  0  0  0  0  0  0  0  0
  -36.6671  -20.4708   35.1047 C   0  0  0  0  0  0  0  0  0  0  0  0
  -30.0324  -17.4530   32.1807 C   0  0  0  0  0  0  0  0  0  0  0  0
  -32.0582  -20.6791   23.2409 C   0  0  0  0  0  0  0  0  0  0  0  0
  -32.2689  -18.1594   30.3798 C   0  0  0  0  0  0  0  0  0  0  0  0
  -35.4524  -21.2453   34.6036 C   0  0  0  0  0  0  0  0  0  0  0  0
  -29.6126  -12.3497   18.2879 C   0  0  0  0  0  0  0  0  0  0  0  0
  -34.5392  -20.3231   33.8099 C   0  0  0  0  0  0  0  0  0  0  0  0
  -28.1726  -12.0591   18.7170 C   0  0  0  0  0  0  0  0  0  0  0  0
  -30.5268  -12.5812   19.4898 C   0  0  0  0  0  0  0  0  0  0  0  0
  -28.6187  -13.3087   20.8679 C   0  0  0  0  0  0  0  0  0  0  0  0
  -31.4712  -21.0868   24.5820 C   0  0  0  0  0  0  0  0  0  0  0  0
  -33.9919  -19.1990   34.6987 C   0  0  1  0  0  0  0  0  0  0  0  0
  -29.3269  -19.8396   24.0302 C   0  0  2  0  0  0  0  0  0  0  0  0
  -31.4882  -17.2655   32.5965 C   0  0  1  0  0  0  0  0  0  0  0  0
  -27.6468  -13.1328   19.6897 C   0  0  2  0  0  0  0  0  0  0  0  0
  -33.5918  -18.9220   21.4717 C   0  0  0  0  0  0  0  0  0  0  0  0
  -28.0000  -20.1676   23.3303 C   0  0  0  0  0  0  0  0  0  0  0  0
  -34.4517  -13.8561   26.5687 C   0  0  0  0  0  0  0  0  0  0  0  0
  -29.5033  -23.2641   25.6509 C   0  0  0  0  0  0  0  0  0  0  0  0
  -36.4171  -16.7071   32.0501 C   0  0  0  0  0  0  0  0  0  0  0  0
  -36.8861  -16.0057   29.6929 C   0  0  0  0  0  0  0  0  0  0  0  0
  -35.8485  -14.3937   31.2889 C   0  0  0  0  0  0  0  0  0  0  0  0
  -31.9602  -16.6949   26.1108 C   0  0  0  0  0  0  0  0  0  0  0  0
  -30.0863  -21.1513   26.9083 C   0  0  0  0  0  0  0  0  0  1  0  0
  -34.4706  -16.3177   30.3992 C   0  0  1  0  0  0  0  0  0  0  0  0
  -33.4657  -14.9219   27.0211 C   0  0  2  0  0  0  0  0  0  0  0  0
  -29.3646  -21.7514   25.7070 C   0  0  2  0  0  0  0  0  0  0  0  0
  -35.8878  -15.8776   30.8632 C   0  0  0  0  0  0  0  0  0  0  0  0
  -25.8592  -11.5427   20.2876 N   0  0  0  0  0  0  0  0  0  0  0  0
  -31.7987  -17.3339   21.4949 N   0  0  0  0  0  0  0  0  0  0  0  0
  -26.2362  -12.8260   20.1567 N   0  0  0  0  0  0  0  0  0  0  0  0
  -32.3937  -17.1570   31.4508 N   0  0  0  0  0  0  0  0  0  0  0  0
  -29.9671  -13.6139   20.3644 N   0  0  0  0  0  0  0  0  0  0  0  0
  -25.4696  -15.0540   20.3993 N   0  0  0  0  0  0  0  0  0  0  0  0
  -21.8837  -12.5824   21.5944 N   0  0  0  0  0  0  0  0  0  0  0  0
  -30.0771  -15.6956   21.4676 N   0  0  0  0  0  0  0  0  0  0  0  0
  -33.3048  -18.2336   33.8694 N   0  0  0  0  0  0  0  0  0  0  0  0
  -33.9328  -15.5317   29.2940 N   0  0  0  0  0  0  0  0  0  0  0  0
  -29.9687  -21.1763   24.4488 N   0  3  1  0  0  0  0  0  0  0  0  0
  -32.9571  -15.6340   25.8148 N   0  3  0  0  0  0  0  0  0  0  0  0
  -22.6596  -14.7215   21.3103 O   0  0  0  0  0  0  0  0  0  0  0  0
  -31.2582  -19.3333   33.7129 O   0  0  0  0  0  0  0  0  0  0  0  0
  -33.5838  -15.3870   32.3926 O   0  0  0  0  0  0  0  0  0  0  0  0
  -34.7263  -16.9004   27.5987 O   0  0  0  0  0  0  0  0  0  0  0  0
  -31.8546  -14.9364   20.1846 O   0  0  0  0  0  0  0  0  0  0  0  0
  -21.6104   -7.0195   21.7145 O   0  0  0  0  0  0  0  0  0  0  0  0
  -29.2999  -21.3023   28.0895 O   0  0  0  0  0  0  0  0  0  1  0  0
  -16.4502   -6.8272   19.7807 F   0  0  0  0  0  0  0  0  0  0  0  0
  -19.7276   -8.8812   22.5093 F   0  0  0  0  0  0  0  0  0  0  0  0
  1  2  1  0  0  0  0
  1  5  2  0  0  0  0
  2  6  2  0  0  0  0
  3  8  2  0  0  0  0
  3 16  1  0  0  0  0
  4  9  1  0  0  0  0
  4 16  2  0  0  0  0
  5 18  1  0  0  0  0
  6 20  1  0  0  0  0
  7 10  2  0  0  0  0
  7 19  1  0  0  0  0
  8 24  1  0  0  0  0
  9 24  2  0  0  0  0
 10 25  1  0  0  0  0
 11 12  2  0  0  0  0
 11 26  1  0  0  0  0
 12 27  1  0  0  0  0
 13 21  1  0  0  0  0
 13 25  2  0  0  0  0
 14 22  2  0  0  0  0
 14 31  1  0  0  0  0
 15 27  2  0  0  0  0
 15 28  1  0  0  0  0
 16 29  1  0  0  0  0
 17 29  1  0  0  0  0
 17 32  2  0  0  0  0
 17 33  1  0  0  0  0
 18 20  2  0  0  0  0
 18 38  1  0  0  0  0
 19 21  2  0  0  0  0
 19 39  1  0  0  0  0
 20 49  1  0  0  0  0
 21 41  1  0  0  0  0
 22 23  1  0  0  0  0
 22 50  1  0  0  0  0
 23 30  2  0  0  0  0
 23 40  1  0  0  0  0
 24 83  1  0  0  0  0
 25 84  1  0  0  0  0
 26 28  2  0  0  0  0
 26 83  1  0  0  0  0
 27 85  1  0  0  0  0
 28 86  1  0  0  0  0
 29 66  2  0  0  0  0
 30 53  1  0  0  0  0
 30 67  1  0  0  0  0
 31 67  2  0  0  0  0
 31 73  1  0  0  0  0
 32 68  1  0  0  0  0
 32 71  1  0  0  0  0
 33 72  1  0  0  0  0
 33 78  2  0  0  0  0
 34 51  1  0  0  0  0
 34 74  1  0  0  0  0
 34 79  2  0  0  0  0
 35 62  1  0  0  0  0
 35 69  1  0  0  0  0
 35 80  2  0  0  0  0
 36 63  1  0  0  0  0
 36 75  1  0  0  0  0
 36 81  2  0  0  0  0
 37 70  1  0  0  0  0
 37 73  1  0  0  0  0
 37 82  2  0  0  0  0
 38 42  1  0  0  0  0
 39 51  1  0  0  0  0
 40 48  1  0  0  0  0
 41 69  1  0  0  0  0
 42 44  1  0  0  0  0
 43 45  1  0  0  0  0
 43 46  1  0  0  0  0
 44 49  1  0  0  0  0
 45 52  1  0  0  0  0
 46 70  1  0  0  0  0
 47 52  1  0  0  0  0
 47 70  1  0  0  0  0
 48 76  1  0  0  0  0
 49 74  1  0  0  0  0
 50 54  1  0  0  0  0
 50 76  1  0  0  0  0
 51 69  1  0  0  0  0
 52 68  1  0  0  0  0
 55 63  1  0  0  0  0
 56 64  1  0  0  0  0
 57 65  1  0  0  0  0
 58 65  1  0  0  0  0
 59 65  1  0  0  0  0
 60 77  1  0  0  0  0
 61 64  1  0  0  0  0
 61 84  1  0  0  0  0
 62 65  1  0  0  0  0
 62 75  1  0  0  0  0
 63 77  1  0  0  0  0
 64 76  1  0  0  0  0
 66 68  1  0  0  0  0
M  CHG  2  76   1  77   1
M  ISO  4  37 100  61 101  73 100  84 101
M  END
> <Batch ID>
0172

> <Smiles>
CNC(C)C(=O)NC(C(=O)N1Cc2cc([101O:1][101CH2:1]C(C)N3CCc4c(cc([100NH:0][100C:0](=O)N5CCCC(n6nc(-c7ccc(Oc8ccc(F)cc8F)cc7)c(C(N)=O)c6N)C5)nc4C)C3C)ccc2CC1C(=O)NC1CCCc2ccccc21)C(C)(C)C

> <Shape>
0.149

> <Color>
0.184

> <Negative vol penalty>
0.000

$$$$

  -OEChem-04052322403D

 82 91  0     1  0  0  0  0  0999 V2000
  -13.7831  -23.6261   14.0033 C   0  0  0  0  0  0  0  0  0  0  0  0
  -14.3396  -22.5122   14.6237 C   0  0  0  0  0  0  0  0  0  0  0  0
  -23.0594   -9.8906   19.9672 C   0  0  0  0  0  0  0  0  0  0  0  0
  -23.9302   -9.8769   22.2208 C   0  0  0  0  0  0  0  0  0  0  0  0
  -14.4713  -24.8386   14.0024 C   0  0  0  0  0  0  0  0  0  0  0  0
  -15.5853  -22.6099   15.2427 C   0  0  0  0  0  0  0  0  0  0  0  0
  -19.2826  -19.9918   20.7917 C   0  0  0  0  0  0  0  0  0  0  0  0
  -26.5065  -18.2133   23.3966 C   0  0  0  0  0  0  0  0  0  0  0  0
  -22.3416   -8.7255   20.2374 C   0  0  0  0  0  0  0  0  0  0  0  0
  -23.2123   -8.7118   22.4910 C   0  0  0  0  0  0  0  0  0  0  0  0
  -20.5052  -19.3882   21.0827 C   0  0  0  0  0  0  0  0  0  0  0  0
  -20.0266   -7.8680   23.2390 C   0  0  0  0  0  0  0  0  0  0  0  0
  -19.3282   -7.8039   24.4447 C   0  0  0  0  0  0  0  0  0  0  0  0
  -25.3786  -18.9972   23.1803 C   0  0  0  0  0  0  0  0  0  0  0  0
  -21.5669  -21.5543   21.0871 C   0  0  0  0  0  0  0  0  0  0  0  0
  -20.6257   -5.8719   25.0936 C   0  0  0  0  0  0  0  0  0  0  0  0
  -27.1563  -18.6190   21.1450 C   0  0  0  0  0  0  0  0  0  0  0  0
  -23.8537  -10.4662   20.9589 C   0  0  0  0  0  0  0  0  0  0  0  0
  -24.1609  -12.9966   20.8565 C   0  0  0  0  0  0  0  0  0  0  0  0
  -27.4172  -18.0157   22.3648 C   0  0  0  0  0  0  0  0  0  0  0  0
  -15.7217  -24.9537   14.6301 C   0  0  0  0  0  0  0  0  0  0  0  0
  -19.1949  -21.3826   20.6352 C   0  0  0  0  0  0  0  0  0  0  0  0
  -16.2915  -23.8247   15.2490 C   0  0  0  0  0  0  0  0  0  0  0  0
  -20.3415  -22.1734   20.7967 C   0  0  0  0  0  0  0  0  0  0  0  0
  -22.4180   -8.1362   21.4993 C   0  0  0  0  0  0  0  0  0  0  0  0
  -21.6481  -20.1691   21.2276 C   0  0  0  0  0  0  0  0  0  0  0  0
  -21.0245   -6.9340   22.9606 C   0  0  0  0  0  0  0  0  0  0  0  0
  -19.6277   -6.8059   25.3720 C   0  0  0  0  0  0  0  0  0  0  0  0
  -21.3241   -5.9360   23.8879 C   0  0  0  0  0  0  0  0  0  0  0  0
  -24.5959  -11.6694   20.6802 C   0  0  0  0  0  0  0  0  0  0  0  0
  -25.2090  -19.5567   21.9242 C   0  0  0  0  0  0  0  0  0  0  0  0
  -25.2256  -13.7636   20.4507 C   0  0  0  0  0  0  0  0  0  0  0  0
  -22.9067  -13.4918   21.3437 C   0  0  0  0  0  0  0  0  0  0  0  0
  -18.3832  -23.3251   18.2537 C   0  0  0  0  0  0  0  0  0  0  0  0
  -18.6885  -25.6124   20.5335 C   0  0  0  0  0  0  0  0  0  0  0  0
  -20.0690  -26.5790   23.5011 C   0  0  0  0  0  0  0  0  0  0  0  0
  -30.7610  -14.6687   20.7206 C   0  0  0  0  0  0  0  0  0  0  0  0
  -16.4494  -26.2730   14.5622 C   0  0  0  0  0  0  0  0  0  0  0  0
  -17.8636  -22.0209   20.3477 C   0  0  0  0  0  0  0  0  0  0  0  0
  -20.2968  -23.6725   20.6586 C   0  0  0  0  0  0  0  0  0  0  0  0
  -17.5946  -26.3893   15.5647 C   0  0  0  0  0  0  0  0  0  0  0  0
  -29.4916  -12.5063   18.0357 C   0  0  0  0  0  0  0  0  0  0  0  0
  -18.4507  -25.1269   15.5461 C   0  0  0  0  0  0  0  0  0  0  0  0
  -28.0823  -12.1668   18.5277 C   0  0  0  0  0  0  0  0  0  0  0  0
  -30.0089  -17.8452   22.3183 C   0  0  0  0  0  0  0  0  0  0  0  0
  -30.4602  -12.7515   19.1913 C   0  0  0  0  0  0  0  0  0  0  0  0
  -30.9653  -16.6725   22.1721 C   0  0  0  0  0  0  0  0  0  0  0  0
  -28.7435  -15.9403   21.6461 C   0  0  0  0  0  0  0  0  0  0  0  0
  -28.5966  -13.3816   20.6737 C   0  0  0  0  0  0  0  0  0  0  0  0
  -28.6541  -17.1680   22.5679 C   0  0  2  0  0  0  0  0  0  0  0  0
  -17.6294  -23.8974   15.9526 C   0  0  1  0  0  0  0  0  0  0  0  0
  -17.9880  -23.3973   19.7015 C   0  0  1  0  0  0  0  0  0  0  0  0
  -27.5770  -13.2139   19.5395 C   0  0  2  0  0  0  0  0  0  0  0  0
  -20.1635  -28.5185   25.0908 C   0  0  0  0  0  0  0  0  0  0  0  0
  -20.5911  -27.0665   18.6425 C   0  0  0  0  0  0  0  0  0  0  0  0
  -21.3682  -28.4357   20.5892 C   0  0  0  0  0  0  0  0  0  0  0  0
  -18.9870  -28.5533   19.8553 C   0  0  0  0  0  0  0  0  0  0  0  0
  -18.8878  -24.9857   25.6977 C   0  0  0  0  0  0  0  0  0  0  0  0
  -24.0101  -20.4039   21.6568 C   0  0  0  0  0  0  0  0  0  1  0  0
  -19.8192  -26.4778   21.0350 C   0  0  1  0  0  0  0  0  0  0  0  0
  -19.4587  -27.2187   24.7351 C   0  0  2  0  0  0  0  0  0  0  0  0
  -20.1929  -27.6049   20.0312 C   0  0  0  0  0  0  0  0  0  0  0  0
  -26.0718  -19.3872   20.8973 N   0  0  0  0  0  0  0  0  0  0  0  0
  -25.8398  -11.5940   20.1996 N   0  0  0  0  0  0  0  0  0  0  0  0
  -26.1956  -12.8835   20.0705 N   0  0  0  0  0  0  0  0  0  0  0  0
  -18.9731  -24.2491   20.3711 N   0  0  0  0  0  0  0  0  0  0  0  0
  -29.9111  -13.7300   20.1278 N   0  0  0  0  0  0  0  0  0  0  0  0
  -30.1702  -15.6171   21.5593 N   0  0  0  0  0  0  0  0  0  0  0  0
  -25.4172  -15.0984   20.3856 N   0  0  0  0  0  0  0  0  0  0  0  0
  -21.9227  -12.5664   21.7174 N   0  0  0  0  0  0  0  0  0  0  0  0
  -17.4494  -23.8619   17.3881 N   0  0  0  0  0  0  0  0  0  0  0  0
  -19.4119  -26.9599   22.3503 N   0  0  0  0  0  0  0  0  0  0  0  0
  -19.5590  -26.2954   25.9006 N   0  3  0  0  0  0  0  0  0  0  0  0
  -22.6597  -14.7187   21.4291 O   0  0  0  0  0  0  0  0  0  0  0  0
  -19.4567  -22.8211   17.9448 O   0  0  0  0  0  0  0  0  0  0  0  0
  -17.5911  -26.1257   20.3015 O   0  0  0  0  0  0  0  0  0  0  0  0
  -21.0347  -25.8205   23.5525 O   0  0  0  0  0  0  0  0  0  0  0  0
  -31.9722  -14.6884   20.4683 O   0  0  0  0  0  0  0  0  0  0  0  0
  -21.7176   -6.9994   21.7635 O   0  0  0  0  0  0  0  0  0  0  0  0
  -22.8662  -19.5708   21.5166 O   0  0  0  0  0  0  0  0  0  1  0  0
  -18.9580   -6.7454   26.5305 F   0  0  0  0  0  0  0  0  0  0  0  0
  -22.2826   -5.0367   23.6265 F   0  0  0  0  0  0  0  0  0  0  0  0
  1  2  1  0  0  0  0
  1  5  2  0  0  0  0
  2  6  2  0  0  0  0
  3  9  2  0  0  0  0
  3 18  1  0  0  0  0
  4 10  1  0  0  0  0
  4 18  2  0  0  0  0
  5 21  1  0  0  0  0
  6 23  1  0  0  0  0
  7 11  2  0  0  0  0
  7 22  1  0  0  0  0
  8 14  2  0  0  0  0
  8 20  1  0  0  0  0
  9 25  1  0  0  0  0
 10 25  2  0  0  0  0
 11 26  1  0  0  0  0
 12 13  2  0  0  0  0
 12 27  1  0  0  0  0
 13 28  1  0  0  0  0
 14 31  1  0  0  0  0
 15 24  1  0  0  0  0
 15 26  2  0  0  0  0
 16 28  2  0  0  0  0
 16 29  1  0  0  0  0
 17 20  2  0  0  0  0
 17 63  1  0  0  0  0
 18 30  1  0  0  0  0
 19 30  1  0  0  0  0
 19 32  2  0  0  0  0
 19 33  1  0  0  0  0
 20 50  1  0  0  0  0
 21 23  2  0  0  0  0
 21 38  1  0  0  0  0
 22 24  2  0  0  0  0
 22 39  1  0  0  0  0
 23 51  1  0  0  0  0
 24 40  1  0  0  0  0
 25 79  1  0  0  0  0
 26 80  1  0  0  0  0
 27 29  2  0  0  0  0
 27 79  1  0  0  0  0
 28 81  1  0  0  0  0
 29 82  1  0  0  0  0
 30 64  2  0  0  0  0
 31 59  1  0  0  0  0
 31 63  2  0  0  0  0
 32 65  1  0  0  0  0
 32 69  1  0  0  0  0
 33 70  1  0  0  0  0
 33 74  2  0  0  0  0
 34 52  1  0  0  0  0
 34 71  1  0  0  0  0
 34 75  2  0  0  0  0
 35 60  1  0  0  0  0
 35 66  1  0  0  0  0
 35 76  2  0  0  0  0
 36 61  1  0  0  0  0
 36 72  1  0  0  0  0
 36 77  2  0  0  0  0
 37 67  1  0  0  0  0
 37 68  1  0  0  0  0
 37 78  2  0  0  0  0
 38 41  1  0  0  0  0
 39 52  1  0  0  0  0
 40 66  1  0  0  0  0
 41 43  1  0  0  0  0
 42 44  1  0  0  0  0
 42 46  1  0  0  0  0
 43 51  1  0  0  0  0
 44 53  1  0  0  0  0
 45 47  1  0  0  0  0
 45 50  1  0  0  0  0
 46 67  1  0  0  0  0
 47 68  1  0  0  0  0
 48 50  1  0  0  0  0
 48 68  1  0  0  0  0
 49 53  1  0  0  0  0
 49 67  1  0  0  0  0
 51 71  1  0  0  0  0
 52 66  1  0  0  0  0
 53 65  1  0  0  0  0
 54 61  1  0  0  0  0
 55 62  1  0  0  0  0
 56 62  1  0  0  0  0
 57 62  1  0  0  0  0
 58 73  1  0  0  0  0
 59 80  1  0  0  0  0
 60 62  1  0  0  0  0
 60 72  1  0  0  0  0
 61 73  1  0  0  0  0
 64 65  1  0  0  0  0
M  CHG  1  73   1
M  ISO  4  37 100  59 101  68 100  80 101
M  END
> <Batch ID>
0172

> <Smiles>
CNC(C)C(=O)NC(C(=O)N1Cc2cc([101O:1][101CH2:1]c3ccc(C4CC[100N:0]([100C:0](=O)N5CCCC(n6nc(-c7ccc(Oc8ccc(F)cc8F)cc7)c(C(N)=O)c6N)C5)C4)cn3)ccc2CC1C(=O)NC1CCCc2ccccc21)C(C)(C)C

> <Shape>
0.221

> <Color>
0.189

> <Negative vol penalty>
0.000

$$$$

  -OEChem-04052322403D

 93104  0     1  0  0  0  0  0999 V2000
  -28.8408  -37.9015   28.4565 C   0  0  0  0  0  0  0  0  0  0  0  0
  -29.2833  -36.5827   28.4767 C   0  0  0  0  0  0  0  0  0  0  0  0
  -23.1521   -9.7448   20.0293 C   0  0  0  0  0  0  0  0  0  0  0  0
  -23.8058   -9.9584   22.3454 C   0  0  0  0  0  0  0  0  0  0  0  0
  -27.4774  -38.1767   28.3592 C   0  0  0  0  0  0  0  0  0  0  0  0
  -28.3625  -35.5383   28.4008 C   0  0  0  0  0  0  0  0  0  0  0  0
  -29.1462  -30.1335   25.6296 C   0  0  0  0  0  0  0  0  0  0  0  0
  -22.4242   -8.5965   20.3407 C   0  0  0  0  0  0  0  0  0  0  0  0
  -23.0777   -8.8101   22.6568 C   0  0  0  0  0  0  0  0  0  0  0  0
  -29.4953  -28.8733   26.1132 C   0  0  0  0  0  0  0  0  0  0  0  0
  -19.8445   -7.9785   23.1810 C   0  0  0  0  0  0  0  0  0  0  0  0
  -19.0358   -8.0138   24.3170 C   0  0  0  0  0  0  0  0  0  0  0  0
  -27.1610  -28.2745   26.2206 C   0  0  0  0  0  0  0  0  0  0  0  0
  -20.2861   -6.1763   25.2642 C   0  0  0  0  0  0  0  0  0  0  0  0
  -23.8430  -10.4258   21.0317 C   0  0  0  0  0  0  0  0  0  0  0  0
  -24.1321  -12.9410   20.7190 C   0  0  0  0  0  0  0  0  0  0  0  0
  -26.5402  -37.1353   28.2723 C   0  0  0  0  0  0  0  0  0  0  0  0
  -27.7991  -30.4780   25.4479 C   0  0  0  0  0  0  0  0  0  0  0  0
  -26.9852  -35.7998   28.3036 C   0  0  0  0  0  0  0  0  0  0  0  0
  -26.7975  -29.5388   25.7321 C   0  0  0  0  0  0  0  0  0  0  0  0
  -29.9777  -19.2534   22.7793 C   0  0  0  0  0  0  0  0  0  0  0  0
  -31.2509  -19.6604   22.3961 C   0  0  0  0  0  0  0  0  0  0  0  0
  -29.5304  -17.9804   22.4436 C   0  0  0  0  0  0  0  0  0  0  0  0
  -22.3869   -8.1291   21.6544 C   0  0  0  0  0  0  0  0  0  0  0  0
  -28.5025  -27.9446   26.4115 C   0  0  0  0  0  0  0  0  0  0  0  0
  -20.8740   -7.0420   23.0866 C   0  0  0  0  0  0  0  0  0  0  0  0
  -19.2566   -7.1127   25.3586 C   0  0  0  0  0  0  0  0  0  0  0  0
  -21.0948   -6.1410   24.1283 C   0  0  0  0  0  0  0  0  0  0  0  0
  -24.5956  -11.6118   20.7106 C   0  0  0  0  0  0  0  0  0  0  0  0
  -30.3879  -17.1590   21.7296 C   0  0  0  0  0  0  0  0  0  0  0  0
  -32.0314  -18.7636   21.6844 C   0  0  0  0  0  0  0  0  0  0  0  0
  -25.2223  -13.6872   20.3434 C   0  0  0  0  0  0  0  0  0  0  0  0
  -22.8323  -13.4553   21.0380 C   0  0  0  0  0  0  0  0  0  0  0  0
  -25.8619  -32.6798   26.6738 C   0  0  0  0  0  0  0  0  0  0  0  0
  -23.7896  -31.5289   24.4594 C   0  0  0  0  0  0  0  0  0  0  0  0
  -22.8326  -28.9346   22.4592 C   0  0  0  0  0  0  0  0  0  0  0  0
  -30.6494  -14.8883   20.6705 C   0  0  0  0  0  0  0  0  0  0  0  0
  -25.0733  -37.4815   28.2162 C   0  0  0  0  0  0  0  0  0  0  0  0
  -27.4402  -31.8321   24.9001 C   0  0  0  0  0  0  0  0  0  0  0  0
  -25.3376  -29.8522   25.5353 C   0  0  0  0  0  0  0  0  0  0  0  0
  -24.1906  -36.3217   27.7625 C   0  0  0  0  0  0  0  0  0  0  0  0
  -29.7002  -12.2611   18.4628 C   0  0  0  0  0  0  0  0  0  0  0  0
  -32.6713  -21.7240   21.7654 C   0  0  0  0  0  0  0  0  0  0  0  0
  -33.2282  -21.1911   23.0485 C   0  0  0  0  0  0  0  0  0  0  0  0
  -24.5702  -35.0416   28.5001 C   0  0  0  0  0  0  0  0  0  0  0  0
  -28.2494  -11.9673   18.8515 C   0  0  0  0  0  0  0  0  0  0  0  0
  -29.7477  -20.5441   24.8932 C   0  0  0  0  0  0  0  0  0  0  0  0
  -28.8077  -21.4476   22.7283 C   0  0  0  0  0  0  0  0  0  0  0  0
  -27.9383  -25.1869   25.0803 C   0  0  0  0  0  0  0  0  0  0  0  0
  -28.4780  -24.2061   26.8978 C   0  0  0  0  0  0  0  0  0  0  0  0
  -30.5538  -12.6111   19.6804 C   0  0  0  0  0  0  0  0  0  0  0  0
  -28.5695  -13.3946   20.9124 C   0  0  0  0  0  0  0  0  0  0  0  0
  -28.9098  -21.5538   25.6672 C   0  0  0  0  0  0  0  0  0  0  0  0
  -27.9767  -22.4502   23.5189 C   0  0  0  0  0  0  0  0  0  0  0  0
  -29.0943  -20.1805   23.5501 C   0  0  0  0  0  0  0  0  0  0  0  0
  -31.7647  -21.0190   22.7391 C   0  0  0  0  0  0  0  0  0  0  0  0
  -26.0190  -34.6399   28.1983 C   0  0  1  0  0  0  0  0  0  0  0  0
  -26.0147  -32.2557   25.2405 C   0  0  1  0  0  0  0  0  0  0  0  0
  -27.6559  -13.1004   19.7114 C   0  0  2  0  0  0  0  0  0  0  0  0
  -27.8339  -23.7313   25.5794 C   0  0  0  0  0  0  0  0  0  0  0  0
  -27.9586  -25.6254   26.5641 C   0  0  0  0  0  0  0  0  0  1  0  0
  -28.1668  -17.5228   22.8454 C   0  0  0  0  0  0  0  0  0  0  0  0
  -21.0785  -28.2780   20.7891 C   0  0  0  0  0  0  0  0  0  0  0  0
  -21.7850  -31.1306   26.7249 C   0  0  0  0  0  0  0  0  0  0  0  0
  -20.4709  -29.6360   25.2059 C   0  0  0  0  0  0  0  0  0  0  0  0
  -20.8031  -32.0354   24.6103 C   0  0  0  0  0  0  0  0  0  0  0  0
  -24.8450  -28.5481   20.3239 C   0  0  0  0  0  0  0  0  0  0  0  0
  -34.0370  -18.1545   20.5609 C   0  0  0  0  0  0  0  0  0  0  0  0
  -22.7512  -30.4335   24.4344 C   0  0  1  0  0  0  0  0  0  0  0  0
  -22.4604  -28.8808   20.9885 C   0  0  2  0  0  0  0  0  0  0  0  0
  -21.4799  -30.8033   25.2495 C   0  0  0  0  0  0  0  0  0  0  0  0
  -25.8802  -11.5158   20.3574 N   0  0  0  0  0  0  0  0  0  0  0  0
  -31.6313  -17.5191   21.3400 N   0  0  0  0  0  0  0  0  0  0  0  0
  -26.2331  -12.7943   20.1404 N   0  0  0  0  0  0  0  0  0  0  0  0
  -25.0370  -31.1917   25.0034 N   0  0  0  0  0  0  0  0  0  0  0  0
  -29.9318  -13.6947   20.4445 N   0  0  0  0  0  0  0  0  0  0  0  0
  -25.4054  -15.0134   20.1702 N   0  0  0  0  0  0  0  0  0  0  0  0
  -21.8271  -12.5500   21.4044 N   0  0  0  0  0  0  0  0  0  0  0  0
  -29.9443  -15.8593   21.3808 N   0  0  0  0  0  0  0  0  0  0  0  0
  -26.1105  -34.0212   26.8932 N   0  0  0  0  0  0  0  0  0  0  0  0
  -22.4958  -30.1451   23.0273 N   0  0  0  0  0  0  0  0  0  0  0  0
  -28.6695  -22.7922   24.8246 N   0  3  0  0  0  0  0  0  0  0  0  0
  -23.4463  -28.0557   20.2346 N   0  3  0  0  0  0  0  0  0  0  0  0
  -22.5656  -14.6798   20.9833 O   0  0  0  0  0  0  0  0  0  0  0  0
  -25.5406  -31.8516   27.5179 O   0  0  0  0  0  0  0  0  0  0  0  0
  -23.5067  -32.6408   24.0062 O   0  0  0  0  0  0  0  0  0  0  0  0
  -23.3651  -27.9954   23.0464 O   0  0  0  0  0  0  0  0  0  0  0  0
  -31.7946  -15.0483   20.2405 O   0  0  0  0  0  0  0  0  0  0  0  0
  -21.6765   -7.0087   21.9586 O   0  0  0  0  0  0  0  0  0  0  0  0
  -28.8405  -26.7141   26.8843 O   0  0  0  0  0  0  0  0  0  1  0  0
  -33.2928  -19.1248   21.2875 O   0  0  0  0  0  0  0  0  0  0  0  0
  -18.4809   -7.1478   26.4500 F   0  0  0  0  0  0  0  0  0  0  0  0
  -22.0830   -5.2398   24.0438 F   0  0  0  0  0  0  0  0  0  0  0  0
  1  2  1  0  0  0  0
  1  5  2  0  0  0  0
  2  6  2  0  0  0  0
  3  8  2  0  0  0  0
  3 15  1  0  0  0  0
  4  9  1  0  0  0  0
  4 15  2  0  0  0  0
  5 17  1  0  0  0  0
  6 19  1  0  0  0  0
  7 10  2  0  0  0  0
  7 18  1  0  0  0  0
  8 24  1  0  0  0  0
  9 24  2  0  0  0  0
 10 25  1  0  0  0  0
 11 12  2  0  0  0  0
 11 26  1  0  0  0  0
 12 27  1  0  0  0  0
 13 20  1  0  0  0  0
 13 25  2  0  0  0  0
 14 27  2  0  0  0  0
 14 28  1  0  0  0  0
 15 29  1  0  0  0  0
 16 29  1  0  0  0  0
 16 32  2  0  0  0  0
 16 33  1  0  0  0  0
 17 19  2  0  0  0  0
 17 38  1  0  0  0  0
 18 20  2  0  0  0  0
 18 39  1  0  0  0  0
 19 57  1  0  0  0  0
 20 40  1  0  0  0  0
 21 22  2  0  0  0  0
 21 23  1  0  0  0  0
 21 55  1  0  0  0  0
 22 31  1  0  0  0  0
 22 56  1  0  0  0  0
 23 30  2  0  0  0  0
 23 62  1  0  0  0  0
 24 89  1  0  0  0  0
 25 90  1  0  0  0  0
 26 28  2  0  0  0  0
 26 89  1  0  0  0  0
 27 92  1  0  0  0  0
 28 93  1  0  0  0  0
 29 72  2  0  0  0  0
 30 73  1  0  0  0  0
 30 79  1  0  0  0  0
 31 73  2  0  0  0  0
 31 91  1  0  0  0  0
 32 74  1  0  0  0  0
 32 77  1  0  0  0  0
 33 78  1  0  0  0  0
 33 84  2  0  0  0  0
 34 58  1  0  0  0  0
 34 80  1  0  0  0  0
 34 85  2  0  0  0  0
 35 69  1  0  0  0  0
 35 75  1  0  0  0  0
 35 86  2  0  0  0  0
 36 70  1  0  0  0  0
 36 81  1  0  0  0  0
 36 87  2  0  0  0  0
 37 76  1  0  0  0  0
 37 79  1  0  0  0  0
 37 88  2  0  0  0  0
 38 41  1  0  0  0  0
 39 58  1  0  0  0  0
 40 75  1  0  0  0  0
 41 45  1  0  0  0  0
 42 46  1  0  0  0  0
 42 51  1  0  0  0  0
 43 44  1  0  0  0  0
 43 56  1  0  0  0  0
 44 56  1  0  0  0  0
 45 57  1  0  0  0  0
 46 59  1  0  0  0  0
 47 53  1  0  0  0  0
 47 55  1  0  0  0  0
 48 54  1  0  0  0  0
 48 55  1  0  0  0  0
 49 60  1  0  0  0  0
 49 61  1  0  0  0  0
 50 60  1  0  0  0  0
 50 61  1  0  0  0  0
 51 76  1  0  0  0  0
 52 59  1  0  0  0  0
 52 76  1  0  0  0  0
 53 82  1  0  0  0  0
 54 82  1  0  0  0  0
 57 80  1  0  0  0  0
 58 75  1  0  0  0  0
 59 74  1  0  0  0  0
 60 82  1  0  0  0  0
 61 90  1  0  0  0  0
 63 70  1  0  0  0  0
 64 71  1  0  0  0  0
 65 71  1  0  0  0  0
 66 71  1  0  0  0  0
 67 83  1  0  0  0  0
 68 91  1  0  0  0  0
 69 71  1  0  0  0  0
 69 81  1  0  0  0  0
 70 83  1  0  0  0  0
 72 74  1  0  0  0  0
M  CHG  2  82   1  83   1
M  ISO  4  37 100  61 101  79 100  90 101
M  END
> <Batch ID>
0172

> <Smiles>
CNC(C)C(=O)NC(C(=O)N1Cc2cc([101O:1][101CH:1]3CC(N4CCC(c5c(C)c([100NH:0][100C:0](=O)N6CCCC(n7nc(-c8ccc(Oc9ccc(F)cc9F)cc8)c(C(N)=O)c7N)C6)nc(OC)c5C5CC5)CC4)C3)ccc2CC1C(=O)NC1CCCc2ccccc21)C(C)(C)C

> <Shape>
0.269

> <Color>
0.202

> <Negative vol penalty>
0.000

$$$$

  -OEChem-04052322403D

 83 92  0     1  0  0  0  0  0999 V2000
  -30.7970  -24.2047   18.1140 C   0  0  0  0  0  0  0  0  0  0  0  0
  -29.5063  -24.2356   18.6323 C   0  0  0  0  0  0  0  0  0  0  0  0
  -27.9667  -14.6105   21.1312 C   0  0  0  0  0  0  0  0  0  0  0  0
  -25.7588  -15.1624   20.3204 C   0  0  0  0  0  0  0  0  0  0  0  0
  -31.7971  -24.9872   18.6898 C   0  0  0  0  0  0  0  0  0  0  0  0
  -29.2152  -25.0483   19.7274 C   0  0  0  0  0  0  0  0  0  0  0  0
  -24.8927  -27.6211   19.1429 C   0  0  0  0  0  0  0  0  0  0  0  0
  -27.6684  -13.2526   21.0194 C   0  0  0  0  0  0  0  0  0  0  0  0
  -25.4604  -13.8044   20.2086 C   0  0  0  0  0  0  0  0  0  0  0  0
  -23.7036  -26.9243   19.3530 C   0  0  0  0  0  0  0  0  0  0  0  0
  -24.5628  -11.2735   22.2628 C   0  0  0  0  0  0  0  0  0  0  0  0
  -23.3253  -10.8406   22.7391 C   0  0  0  0  0  0  0  0  0  0  0  0
  -23.5415  -27.8791   21.5623 C   0  0  0  0  0  0  0  0  0  0  0  0
  -22.7516  -10.0498   20.5294 C   0  0  0  0  0  0  0  0  0  0  0  0
  -21.6623  -24.2867   24.6474 C   0  0  0  0  0  0  0  0  0  0  0  0
  -27.0119  -15.5655   20.7817 C   0  0  0  0  0  0  0  0  0  0  0  0
  -27.8881  -17.7981   19.9127 C   0  0  0  0  0  0  0  0  0  0  0  0
  -31.5158  -25.8171   19.7865 C   0  0  0  0  0  0  0  0  0  0  0  0
  -25.4217  -28.4451   20.1467 C   0  0  0  0  0  0  0  0  0  0  0  0
  -30.2127  -25.8415   20.3193 C   0  0  0  0  0  0  0  0  0  0  0  0
  -24.7361  -28.5873   21.3615 C   0  0  0  0  0  0  0  0  0  0  0  0
  -21.0431  -24.5518   23.4366 C   0  0  0  0  0  0  0  0  0  0  0  0
  -21.5335  -23.9155   22.3017 C   0  0  0  0  0  0  0  0  0  0  0  0
  -22.6130  -23.0458   22.4109 C   0  0  0  0  0  0  0  0  0  0  0  0
  -26.4153  -12.8495   20.5581 C   0  0  0  0  0  0  0  0  0  0  0  0
  -23.0293  -27.0510   20.5639 C   0  0  0  0  0  0  0  0  0  0  0  0
  -24.8946  -11.0948   20.9198 C   0  0  0  0  0  0  0  0  0  0  0  0
  -22.4198  -10.2287   21.8724 C   0  0  0  0  0  0  0  0  0  0  0  0
  -23.9890  -10.4829   20.0531 C   0  0  0  0  0  0  0  0  0  0  0  0
  -27.3193  -16.9684   20.8975 C   0  0  0  0  0  0  0  0  0  0  0  0
  -23.1620  -22.8484   23.6676 C   0  0  0  0  0  0  0  0  0  0  0  0
  -27.9756  -19.0312   20.5114 C   0  0  0  0  0  0  0  0  0  0  0  0
  -28.3005  -17.4825   18.5763 C   0  0  0  0  0  0  0  0  0  0  0  0
  -28.1100  -28.4704   21.8426 C   0  0  0  0  0  0  0  0  0  0  0  0
  -26.9379  -31.2926   22.9307 C   0  0  0  0  0  0  0  0  0  0  0  0
  -24.2188  -33.2775   23.4904 C   0  0  0  0  0  0  0  0  0  0  0  0
  -24.9511  -21.6333   24.9596 C   0  0  0  0  0  0  0  0  0  0  0  0
  -32.6406  -26.6091   20.4048 C   0  0  0  0  0  0  0  0  0  0  0  0
  -26.6915  -29.2109   19.8944 C   0  0  0  0  0  0  0  0  0  0  0  0
  -25.2515  -29.4751   22.4637 C   0  0  0  0  0  0  0  0  0  0  0  0
  -32.1627  -27.7269   21.3281 C   0  0  0  0  0  0  0  0  0  0  0  0
  -28.4652  -21.0797   24.8124 C   0  0  0  0  0  0  0  0  0  0  0  0
  -19.0481  -25.6991   24.6104 C   0  0  0  0  0  0  0  0  0  0  0  0
  -18.4885  -24.9423   23.4466 C   0  0  0  0  0  0  0  0  0  0  0  0
  -31.0796  -27.2136   22.2716 C   0  0  0  0  0  0  0  0  0  0  0  0
  -28.6224  -20.0426   23.6980 C   0  0  0  0  0  0  0  0  0  0  0  0
  -27.2043  -20.8362   25.6398 C   0  0  0  0  0  0  0  0  0  0  0  0
  -26.1205  -19.6890   23.7481 C   0  0  0  0  0  0  0  0  0  0  0  0
  -19.8897  -25.4928   23.3774 C   0  0  0  0  0  0  0  0  0  0  0  0
  -29.8521  -26.7290   21.4907 C   0  0  1  0  0  0  0  0  0  0  0  0
  -27.4074  -29.6202   21.1779 C   0  0  1  0  0  0  0  0  0  0  0  0
  -27.3423  -19.9314   22.8469 C   0  0  2  0  0  0  0  0  0  0  0  0
  -23.1539  -22.3506   21.2047 C   0  0  0  0  0  0  0  0  0  0  0  0
  -23.5719  -35.5142   24.4263 C   0  0  0  0  0  0  0  0  0  0  0  0
  -27.3145  -30.2148   25.7603 C   0  0  0  0  0  0  0  0  0  0  0  0
  -25.8097  -32.0398   26.5808 C   0  0  0  0  0  0  0  0  0  0  0  0
  -27.9646  -32.6111   25.4616 C   0  0  0  0  0  0  0  0  0  0  0  0
  -23.1055  -34.1702   20.8976 C   0  0  0  0  0  0  0  0  0  0  0  0
  -20.8961  -24.1687   20.9572 C   0  0  0  0  0  0  0  0  0  0  0  0
  -21.7170  -25.1233   20.0969 C   0  0  0  0  0  0  0  0  0  1  0  0
  -26.0500  -31.7103   24.0779 C   0  0  1  0  0  0  0  0  0  0  0  0
  -23.9569  -34.7393   23.1757 C   0  0  2  0  0  0  0  0  0  0  0  0
  -26.7758  -31.6257   25.4503 C   0  0  0  0  0  0  0  0  0  0  0  0
  -22.7128  -23.4484   24.7927 N   0  0  0  0  0  0  0  0  0  0  0  0
  -27.0636  -17.6194   22.0354 N   0  0  0  0  0  0  0  0  0  0  0  0
  -27.4737  -18.8713   21.7694 N   0  0  0  0  0  0  0  0  0  0  0  0
  -26.5002  -30.1982   22.1714 N   0  0  0  0  0  0  0  0  0  0  0  0
  -26.0315  -20.7464   24.7673 N   0  0  0  0  0  0  0  0  0  0  0  0
  -28.4321  -20.2258   20.0791 N   0  0  0  0  0  0  0  0  0  0  0  0
  -28.1398  -16.1669   18.1207 N   0  0  0  0  0  0  0  0  0  0  0  0
  -24.2624  -21.9646   23.7931 N   0  0  0  0  0  0  0  0  0  0  0  0
  -29.0581  -27.8550   21.0477 N   0  0  0  0  0  0  0  0  0  0  0  0
  -25.5531  -33.0412   23.7458 N   0  0  0  0  0  0  0  0  0  0  0  0
  -22.8506  -34.8658   22.1853 N   0  3  0  0  0  0  0  0  0  0  0  0
  -28.8119  -18.3379   17.8145 O   0  0  0  0  0  0  0  0  0  0  0  0
  -27.8150  -28.1652   22.9921 O   0  0  0  0  0  0  0  0  0  0  0  0
  -27.9779  -31.9188   22.7118 O   0  0  0  0  0  0  0  0  0  0  0  0
  -23.3283  -32.4308   23.5115 O   0  0  0  0  0  0  0  0  0  0  0  0
  -24.6751  -22.0883   26.0726 O   0  0  0  0  0  0  0  0  0  0  0  0
  -26.1239  -11.5245   20.4487 O   0  0  0  0  0  0  0  0  0  0  0  0
  -21.8687  -26.3714   20.7719 O   0  0  0  0  0  0  0  0  0  1  0  0
  -21.2321   -9.8115   22.3302 F   0  0  0  0  0  0  0  0  0  0  0  0
  -24.3027  -10.3073   18.7621 F   0  0  0  0  0  0  0  0  0  0  0  0
  1  2  1  0  0  0  0
  1  5  2  0  0  0  0
  2  6  2  0  0  0  0
  3  8  2  0  0  0  0
  3 16  1  0  0  0  0
  4  9  1  0  0  0  0
  4 16  2  0  0  0  0
  5 18  1  0  0  0  0
  6 20  1  0  0  0  0
  7 10  2  0  0  0  0
  7 19  1  0  0  0  0
  8 25  1  0  0  0  0
  9 25  2  0  0  0  0
 10 26  1  0  0  0  0
 11 12  2  0  0  0  0
 11 27  1  0  0  0  0
 12 28  1  0  0  0  0
 13 21  1  0  0  0  0
 13 26  2  0  0  0  0
 14 28  2  0  0  0  0
 14 29  1  0  0  0  0
 15 22  2  0  0  0  0
 15 64  1  0  0  0  0
 16 30  1  0  0  0  0
 17 30  1  0  0  0  0
 17 32  2  0  0  0  0
 17 33  1  0  0  0  0
 18 20  2  0  0  0  0
 18 38  1  0  0  0  0
 19 21  2  0  0  0  0
 19 39  1  0  0  0  0
 20 50  1  0  0  0  0
 21 40  1  0  0  0  0
 22 23  1  0  0  0  0
 22 49  1  0  0  0  0
 23 24  2  0  0  0  0
 23 59  1  0  0  0  0
 24 31  1  0  0  0  0
 24 53  1  0  0  0  0
 25 80  1  0  0  0  0
 26 81  1  0  0  0  0
 27 29  2  0  0  0  0
 27 80  1  0  0  0  0
 28 82  1  0  0  0  0
 29 83  1  0  0  0  0
 30 65  2  0  0  0  0
 31 64  2  0  0  0  0
 31 71  1  0  0  0  0
 32 66  1  0  0  0  0
 32 69  1  0  0  0  0
 33 70  1  0  0  0  0
 33 75  2  0  0  0  0
 34 51  1  0  0  0  0
 34 72  1  0  0  0  0
 34 76  2  0  0  0  0
 35 61  1  0  0  0  0
 35 67  1  0  0  0  0
 35 77  2  0  0  0  0
 36 62  1  0  0  0  0
 36 73  1  0  0  0  0
 36 78  2  0  0  0  0
 37 68  1  0  0  0  0
 37 71  1  0  0  0  0
 37 79  2  0  0  0  0
 38 41  1  0  0  0  0
 39 51  1  0  0  0  0
 40 67  1  0  0  0  0
 41 45  1  0  0  0  0
 42 46  1  0  0  0  0
 42 47  1  0  0  0  0
 43 44  1  0  0  0  0
 43 49  1  0  0  0  0
 44 49  1  0  0  0  0
 45 50  1  0  0  0  0
 46 52  1  0  0  0  0
 47 68  1  0  0  0  0
 48 52  1  0  0  0  0
 48 68  1  0  0  0  0
 50 72  1  0  0  0  0
 51 67  1  0  0  0  0
 52 66  1  0  0  0  0
 54 62  1  0  0  0  0
 55 63  1  0  0  0  0
 56 63  1  0  0  0  0
 57 63  1  0  0  0  0
 58 74  1  0  0  0  0
 59 60  1  0  0  0  0
 60 81  1  0  0  0  0
 61 63  1  0  0  0  0
 61 73  1  0  0  0  0
 62 74  1  0  0  0  0
 65 66  1  0  0  0  0
M  CHG  1  74   1
M  ISO  4  37 100  60 101  71 100  81 101
M  END
> <Batch ID>
0172

> <Smiles>
CNC(C)C(=O)NC(C(=O)N1Cc2cc([101O:1][101CH2:1]Cc3c(C4CC4)cnc([100NH:0][100C:0](=O)N4CCCC(n5nc(-c6ccc(Oc7ccc(F)cc7F)cc6)c(C(N)=O)c5N)C4)c3C)ccc2CC1C(=O)NC1CCCc2ccccc21)C(C)(C)C

> <Shape>
0.260

> <Color>
0.070

> <Negative vol penalty>
0.000

$$$$

  -OEChem-04052322403D

 89 99  0     1  0  0  0  0  0999 V2000
  -28.7192  -36.3552   23.6307 C   0  0  0  0  0  0  0  0  0  0  0  0
  -28.9916  -35.0257   23.3248 C   0  0  0  0  0  0  0  0  0  0  0  0
  -24.9774   -8.3022   21.3931 C   0  0  0  0  0  0  0  0  0  0  0  0
  -23.6466  -10.3182   21.3506 C   0  0  0  0  0  0  0  0  0  0  0  0
  -27.4537  -36.7186   24.0895 C   0  0  0  0  0  0  0  0  0  0  0  0
  -27.9989  -34.0586   23.4785 C   0  0  0  0  0  0  0  0  0  0  0  0
  -27.1185  -29.1003   19.9933 C   0  0  0  0  0  0  0  0  0  0  0  0
  -28.6286  -23.2053   21.9270 C   0  0  0  0  0  0  0  0  0  0  0  0
  -23.8162   -7.5381   21.5085 C   0  0  0  0  0  0  0  0  0  0  0  0
  -22.4854   -9.5542   21.4659 C   0  0  0  0  0  0  0  0  0  0  0  0
  -27.4807  -27.7637   20.1551 C   0  0  0  0  0  0  0  0  0  0  0  0
  -21.2220   -5.0788   22.1762 C   0  0  0  0  0  0  0  0  0  0  0  0
  -21.2137   -4.0464   23.1141 C   0  0  0  0  0  0  0  0  0  0  0  0
  -28.8105  -21.8377   22.0996 C   0  0  0  0  0  0  0  0  0  0  0  0
  -25.2975  -27.2885   21.0645 C   0  0  0  0  0  0  0  0  0  0  0  0
  -21.6204   -5.6459   24.8785 C   0  0  0  0  0  0  0  0  0  0  0  0
  -24.8926   -9.6923   21.3142 C   0  0  0  0  0  0  0  0  0  0  0  0
  -27.1659  -10.5386   22.1040 C   0  0  0  0  0  0  0  0  0  0  0  0
  -26.4421  -35.7570   24.2397 C   0  0  0  0  0  0  0  0  0  0  0  0
  -25.8447  -29.5440   20.3767 C   0  0  0  0  0  0  0  0  0  0  0  0
  -26.7191  -34.4092   23.9410 C   0  0  0  0  0  0  0  0  0  0  0  0
  -24.9207  -28.6306   20.9041 C   0  0  0  0  0  0  0  0  0  0  0  0
  -28.4355  -23.7195   20.6496 C   0  0  0  0  0  0  0  0  0  0  0  0
  -22.5702   -8.1641   21.5449 C   0  0  0  0  0  0  0  0  0  0  0  0
  -26.5712  -26.8582   20.6934 C   0  0  0  0  0  0  0  0  0  0  0  0
  -21.4296   -6.3948   22.5894 C   0  0  0  0  0  0  0  0  0  0  0  0
  -21.4129   -4.3299   24.4652 C   0  0  0  0  0  0  0  0  0  0  0  0
  -21.6288   -6.6784   23.9406 C   0  0  0  0  0  0  0  0  0  0  0  0
  -26.0918  -10.4822   21.1956 C   0  0  0  0  0  0  0  0  0  0  0  0
  -28.7909  -21.0333   20.9716 C   0  0  0  0  0  0  0  0  0  0  0  0
  -28.4329  -22.8309   19.5865 C   0  0  0  0  0  0  0  0  0  0  0  0
  -28.0479  -11.4265   21.5380 C   0  0  0  0  0  0  0  0  0  0  0  0
  -27.3499   -9.8500   23.3480 C   0  0  0  0  0  0  0  0  0  0  0  0
  -24.7437  -31.6406   22.4970 C   0  0  0  0  0  0  0  0  0  0  0  0
  -21.8921  -30.9574   21.1098 C   0  0  0  0  0  0  0  0  0  0  0  0
  -19.9921  -28.7543   19.3256 C   0  0  0  0  0  0  0  0  0  0  0  0
  -29.2458  -16.0870   18.9177 C   0  0  0  0  0  0  0  0  0  0  0  0
  -25.1039  -36.1901   24.7839 C   0  0  0  0  0  0  0  0  0  0  0  0
  -25.4602  -30.9835   20.1709 C   0  0  0  0  0  0  0  0  0  0  0  0
  -23.5337  -29.0522   21.3126 C   0  0  0  0  0  0  0  0  0  0  0  0
  -23.9954  -35.1641   24.5625 C   0  0  0  0  0  0  0  0  0  0  0  0
  -28.1640  -13.4785   16.9242 C   0  0  0  0  0  0  0  0  0  0  0  0
  -24.4766  -33.7677   24.9436 C   0  0  0  0  0  0  0  0  0  0  0  0
  -29.2347  -23.5038   16.1450 C   0  0  0  0  0  0  0  0  0  0  0  0
  -27.6142  -12.4611   17.9237 C   0  0  0  0  0  0  0  0  0  0  0  0
  -29.2746  -24.2838   17.4702 C   0  0  0  0  0  0  0  0  0  0  0  0
  -27.7511  -18.7439   20.6566 C   0  0  0  0  0  0  0  0  0  0  0  0
  -30.2517  -19.0434   20.3980 C   0  0  0  0  0  0  0  0  0  0  0  0
  -27.7744  -14.8979   17.3202 C   0  0  0  0  0  0  0  0  0  0  0  0
  -27.9671  -17.2330   20.7810 C   0  0  0  0  0  0  0  0  0  0  0  0
  -30.4106  -17.5338   20.5543 C   0  0  0  0  0  0  0  0  0  0  0  0
  -27.6631  -14.2712   19.7104 C   0  0  0  0  0  0  0  0  0  0  0  0
  -25.6611  -33.3351   24.0711 C   0  0  1  0  0  0  0  0  0  0  0  0
  -28.9859  -19.5364   21.1223 C   0  0  0  0  0  0  0  0  0  0  0  0
  -24.3138  -31.4305   21.0726 C   0  0  1  0  0  0  0  0  0  0  0  0
  -28.7482  -22.2731   16.9453 C   0  0  1  0  0  0  0  0  0  0  0  0
  -28.0343  -12.8156   19.3612 C   0  0  1  0  0  0  0  0  0  0  0  0
  -28.2222  -23.2757   18.0552 C   0  0  1  0  0  0  0  0  0  0  0  0
  -27.7763  -21.3624   16.2177 C   0  0  0  0  0  0  0  0  0  0  0  0
  -26.7788  -23.7722   17.8852 C   0  0  0  0  0  0  0  0  0  0  0  0
  -18.0123  -27.8876   18.0503 C   0  0  0  0  0  0  0  0  0  0  0  0
  -20.8258  -30.3344   23.8999 C   0  0  0  0  0  0  0  0  0  0  0  0
  -18.8921  -29.1638   22.8236 C   0  0  0  0  0  0  0  0  0  0  0  0
  -19.2429  -31.6032   22.4374 C   0  0  0  0  0  0  0  0  0  0  0  0
  -21.0069  -29.8568   16.7734 C   0  0  0  0  0  0  0  0  0  0  0  0
  -28.2393  -25.1810   20.4473 C   0  0  0  0  0  0  0  0  0  1  0  0
  -20.8038  -29.9388   21.3486 C   0  0  1  0  0  0  0  0  0  0  0  0
  -19.1038  -28.9449   18.1095 C   0  0  2  0  0  0  0  0  0  0  0  0
  -19.9679  -30.2522   22.6216 C   0  0  0  0  0  0  0  0  0  0  0  0
  -26.2728  -11.2715   20.1335 N   0  0  0  0  0  0  0  0  0  0  0  0
  -28.6061  -21.4963   19.7150 N   0  0  0  0  0  0  0  0  0  0  0  0
  -27.4708  -11.8324   20.3708 N   0  0  0  0  0  0  0  0  0  0  0  0
  -23.2073  -30.4717   21.0976 N   0  0  0  0  0  0  0  0  0  0  0  0
  -28.1870  -15.1945   18.6919 N   0  0  0  0  0  0  0  0  0  0  0  0
  -29.2093  -16.8290   20.1078 N   0  0  0  0  0  0  0  0  0  0  0  0
  -29.2529  -11.8920   21.9300 N   0  0  0  0  0  0  0  0  0  0  0  0
  -26.8839  -10.4562   24.5226 N   0  0  0  0  0  0  0  0  0  0  0  0
  -25.2002  -32.9171   22.7644 N   0  0  0  0  0  0  0  0  0  0  0  0
  -20.0211  -29.8818   20.1188 N   0  0  0  0  0  0  0  0  0  0  0  0
  -19.9108  -28.8578   16.8597 N   0  3  0  0  0  0  0  0  0  0  0  0
  -27.9257   -8.7377   23.4179 O   0  0  0  0  0  0  0  0  0  0  0  0
  -24.6655  -30.7136   23.2946 O   0  0  0  0  0  0  0  0  0  0  0  0
  -21.5861  -32.1393   20.9332 O   0  0  0  0  0  0  0  0  0  0  0  0
  -20.5968  -27.7084   19.5515 O   0  0  0  0  0  0  0  0  0  0  0  0
  -30.1701  -16.2133   18.1047 O   0  0  0  0  0  0  0  0  0  0  0  0
  -21.4368   -7.4188   21.6572 O   0  0  0  0  0  0  0  0  0  0  0  0
  -26.9246  -25.5446   20.8540 O   0  0  0  0  0  0  0  0  0  1  0  0
  -21.4033   -3.3386   25.3660 F   0  0  0  0  0  0  0  0  0  0  0  0
  -21.8275   -7.9408   24.3437 F   0  0  0  0  0  0  0  0  0  0  0  0
  1  2  1  0  0  0  0
  1  5  2  0  0  0  0
  2  6  2  0  0  0  0
  3  9  2  0  0  0  0
  3 17  1  0  0  0  0
  4 10  1  0  0  0  0
  4 17  2  0  0  0  0
  5 19  1  0  0  0  0
  6 21  1  0  0  0  0
  7 11  2  0  0  0  0
  7 20  1  0  0  0  0
  8 14  2  0  0  0  0
  8 23  1  0  0  0  0
  9 24  1  0  0  0  0
 10 24  2  0  0  0  0
 11 25  1  0  0  0  0
 12 13  2  0  0  0  0
 12 26  1  0  0  0  0
 13 27  1  0  0  0  0
 14 30  1  0  0  0  0
 15 22  1  0  0  0  0
 15 25  2  0  0  0  0
 16 27  2  0  0  0  0
 16 28  1  0  0  0  0
 17 29  1  0  0  0  0
 18 29  1  0  0  0  0
 18 32  2  0  0  0  0
 18 33  1  0  0  0  0
 19 21  2  0  0  0  0
 19 38  1  0  0  0  0
 20 22  2  0  0  0  0
 20 39  1  0  0  0  0
 21 53  1  0  0  0  0
 22 40  1  0  0  0  0
 23 31  2  0  0  0  0
 23 66  1  0  0  0  0
 24 86  1  0  0  0  0
 25 87  1  0  0  0  0
 26 28  2  0  0  0  0
 26 86  1  0  0  0  0
 27 88  1  0  0  0  0
 28 89  1  0  0  0  0
 29 70  2  0  0  0  0
 30 54  1  0  0  0  0
 30 71  2  0  0  0  0
 31 58  1  0  0  0  0
 31 71  1  0  0  0  0
 32 72  1  0  0  0  0
 32 76  1  0  0  0  0
 33 77  1  0  0  0  0
 33 81  2  0  0  0  0
 34 55  1  0  0  0  0
 34 78  1  0  0  0  0
 34 82  2  0  0  0  0
 35 67  1  0  0  0  0
 35 73  1  0  0  0  0
 35 83  2  0  0  0  0
 36 68  1  0  0  0  0
 36 79  1  0  0  0  0
 36 84  2  0  0  0  0
 37 74  1  0  0  0  0
 37 75  1  0  0  0  0
 37 85  2  0  0  0  0
 38 41  1  0  0  0  0
 39 55  1  0  0  0  0
 40 73  1  0  0  0  0
 41 43  1  0  0  0  0
 42 45  1  0  0  0  0
 42 49  1  0  0  0  0
 43 53  1  0  0  0  0
 44 46  1  0  0  0  0
 44 56  1  0  0  0  0
 45 57  1  0  0  0  0
 46 58  1  0  0  0  0
 47 50  1  0  0  0  0
 47 54  1  0  0  0  0
 48 51  1  0  0  0  0
 48 54  1  0  0  0  0
 49 74  1  0  0  0  0
 50 75  1  0  0  0  0
 51 75  1  0  0  0  0
 52 57  1  0  0  0  0
 52 74  1  0  0  0  0
 53 78  1  0  0  0  0
 55 73  1  0  0  0  0
 56 58  1  0  0  0  0
 56 59  1  0  0  0  0
 57 72  1  0  0  0  0
 58 60  1  0  0  0  0
 61 68  1  0  0  0  0
 62 69  1  0  0  0  0
 63 69  1  0  0  0  0
 64 69  1  0  0  0  0
 65 80  1  0  0  0  0
 66 87  1  0  0  0  0
 67 69  1  0  0  0  0
 67 79  1  0  0  0  0
 68 80  1  0  0  0  0
 70 72  1  0  0  0  0
M  CHG  1  80   1
M  ISO  4  37 100  66 101  75 100  87 101
M  END
> <Batch ID>
0172

> <Smiles>
CNC(C)C(=O)NC(C(=O)N1Cc2cc([101O:1][101CH2:1]c3ccc(C4CC[100N:0]([100C:0](=O)N5CCCC(n6nc(-c7ccc(Oc8ccc(F)cc8F)cc7)c(C(N)=O)c6N)C5)CC4)nc3C3(C)CCC3C)ccc2CC1C(=O)NC1CCCc2ccccc21)C(C)(C)C

> <Shape>
0.339

> <Color>
0.097

> <Negative vol penalty>
0.000

$$$$

  -OEChem-04052322403D

 87 97  0     1  0  0  0  0  0999 V2000
  -24.3641  -25.7983   34.7643 C   0  0  0  0  0  0  0  0  0  0  0  0
  -24.3479  -24.8826   33.7171 C   0  0  0  0  0  0  0  0  0  0  0  0
  -23.1196   -9.8588   21.4132 C   0  0  0  0  0  0  0  0  0  0  0  0
  -23.8172  -10.7161   23.5616 C   0  0  0  0  0  0  0  0  0  0  0  0
  -24.0818  -27.1414   34.5188 C   0  0  0  0  0  0  0  0  0  0  0  0
  -24.0482  -25.3094   32.4238 C   0  0  0  0  0  0  0  0  0  0  0  0
  -27.1902  -23.3664   28.9600 C   0  0  0  0  0  0  0  0  0  0  0  0
  -22.3833   -8.8602   22.0507 C   0  0  0  0  0  0  0  0  0  0  0  0
  -23.0809   -9.7176   24.1991 C   0  0  0  0  0  0  0  0  0  0  0  0
  -26.9684  -22.0469   28.5682 C   0  0  0  0  0  0  0  0  0  0  0  0
  -22.9879   -5.8882   23.5427 C   0  0  0  0  0  0  0  0  0  0  0  0
  -23.0925   -4.5892   23.0453 C   0  0  0  0  0  0  0  0  0  0  0  0
  -25.8535  -22.8316   26.5781 C   0  0  0  0  0  0  0  0  0  0  0  0
  -25.4183  -19.3695   24.9668 C   0  0  0  0  0  0  0  0  0  0  0  0
  -20.7165   -4.5652   22.6081 C   0  0  0  0  0  0  0  0  0  0  0  0
  -27.4716  -20.5669   25.0540 C   0  0  0  0  0  0  0  0  0  0  0  0
  -23.8366  -10.7867   22.1686 C   0  0  0  0  0  0  0  0  0  0  0  0
  -24.1508  -13.1015   21.1438 C   0  0  0  0  0  0  0  0  0  0  0  0
  -23.7881  -27.5866   33.2203 C   0  0  0  0  0  0  0  0  0  0  0  0
  -26.7349  -24.4302   28.1679 C   0  0  0  0  0  0  0  0  0  0  0  0
  -23.7605  -26.6595   32.1609 C   0  0  0  0  0  0  0  0  0  0  0  0
  -26.0730  -24.1637   26.9608 C   0  0  0  0  0  0  0  0  0  0  0  0
  -25.6953  -19.0511   23.6420 C   0  0  0  0  0  0  0  0  0  0  0  0
  -22.3639   -8.7896   23.4437 C   0  0  0  0  0  0  0  0  0  0  0  0
  -26.2975  -21.7793   27.3785 C   0  0  0  0  0  0  0  0  0  0  0  0
  -21.7475   -6.5257   23.5728 C   0  0  0  0  0  0  0  0  0  0  0  0
  -26.3181  -20.1419   25.6930 C   0  0  0  0  0  0  0  0  0  1  0  0
  -21.9569   -3.9277   22.5780 C   0  0  0  0  0  0  0  0  0  0  0  0
  -20.6119   -5.8642   23.1055 C   0  0  0  0  0  0  0  0  0  0  0  0
  -24.5978  -11.8180   21.5107 C   0  0  0  0  0  0  0  0  0  0  0  0
  -26.8766  -19.5251   23.0944 C   0  0  0  0  0  0  0  0  0  0  0  0
  -25.2432  -13.6903   20.5551 C   0  0  0  0  0  0  0  0  0  0  0  0
  -22.8633  -13.7075   21.3196 C   0  0  0  0  0  0  0  0  0  0  0  0
  -24.6785  -26.8178   28.5853 C   0  0  0  0  0  0  0  0  0  0  0  0
  -25.7785  -27.7561   25.6815 C   0  0  0  0  0  0  0  0  0  0  0  0
  -27.2480  -26.8961   22.7239 C   0  0  0  0  0  0  0  0  0  0  0  0
  -30.5899  -14.8361   20.2882 C   0  0  0  0  0  0  0  0  0  0  0  0
  -23.4430  -29.0399   33.0118 C   0  0  0  0  0  0  0  0  0  0  0  0
  -27.0055  -25.8479   28.5913 C   0  0  0  0  0  0  0  0  0  0  0  0
  -25.5820  -25.2701   26.0645 C   0  0  0  0  0  0  0  0  0  0  0  0
  -23.5028  -29.4765   31.5503 C   0  0  0  0  0  0  0  0  0  0  0  0
  -29.6606  -11.7319   19.0821 C   0  0  0  0  0  0  0  0  0  0  0  0
  -23.7099  -18.9144   21.9947 C   0  0  0  0  0  0  0  0  0  0  0  0
  -23.2805  -18.2191   23.2486 C   0  0  0  0  0  0  0  0  0  0  0  0
  -22.7896  -28.4631   30.6608 C   0  0  0  0  0  0  0  0  0  0  0  0
  -28.2207  -11.5697   19.5689 C   0  0  0  0  0  0  0  0  0  0  0  0
  -28.8870  -18.1206   20.0910 C   0  0  0  0  0  0  0  0  0  0  0  0
  -28.3967  -17.0787   22.3322 C   0  0  0  0  0  0  0  0  0  0  0  0
  -30.5336  -12.3634   20.1605 C   0  0  0  0  0  0  0  0  0  0  0  0
  -30.1275  -17.2394   19.9736 C   0  0  0  0  0  0  0  0  0  0  0  0
  -29.6485  -16.2218   22.1752 C   0  0  0  0  0  0  0  0  0  0  0  0
  -28.5888  -13.5346   21.1412 C   0  0  0  0  0  0  0  0  0  0  0  0
  -24.7357  -18.2251   22.8570 C   0  0  0  0  0  0  0  0  0  0  0  0
  -23.4643  -27.0883   30.7402 C   0  0  1  0  0  0  0  0  0  0  0  0
  -26.0454  -26.8530   27.9625 C   0  0  1  0  0  0  0  0  0  0  0  0
  -28.5233  -18.3963   21.5557 C   0  0  0  0  0  0  0  0  0  0  0  0
  -27.6580  -12.9061   20.0847 C   0  0  2  0  0  0  0  0  0  0  0  0
  -27.3257  -20.4844   20.8070 C   0  0  0  0  0  0  0  0  0  0  0  0
  -27.9831  -27.8725   20.5322 C   0  0  0  0  0  0  0  0  0  0  0  0
  -22.8747  -27.8408   24.7482 C   0  0  0  0  0  0  0  0  0  0  0  0
  -23.7076  -27.8788   22.3874 C   0  0  0  0  0  0  0  0  0  0  0  0
  -24.2854  -29.7420   23.9422 C   0  0  0  0  0  0  0  0  0  0  0  0
  -30.0726  -26.1581   23.2101 C   0  0  0  0  0  0  0  0  0  0  0  0
  -27.2350  -19.2100   21.6525 C   0  0  2  0  0  0  0  0  0  0  0  0
  -25.3830  -27.4853   24.2500 C   0  0  1  0  0  0  0  0  0  0  0  0
  -28.3975  -27.5182   21.9519 C   0  0  2  0  0  0  0  0  0  0  0  0
  -24.0701  -28.2157   23.8496 C   0  0  0  0  0  0  0  0  0  0  0  0
  -27.7751  -20.2770   23.7688 N   0  0  0  0  0  0  0  0  0  0  0  0
  -25.8746  -11.6033   21.1823 N   0  0  0  0  0  0  0  0  0  0  0  0
  -26.2392  -12.7598   20.6029 N   0  0  0  0  0  0  0  0  0  0  0  0
  -25.8652  -26.6395   26.5250 N   0  0  0  0  0  0  0  0  0  0  0  0
  -29.9634  -13.6272   20.6269 N   0  0  0  0  0  0  0  0  0  0  0  0
  -29.9911  -16.0153   20.7617 N   0  0  0  0  0  0  0  0  0  0  0  0
  -25.4393  -14.9080   20.0063 N   0  0  0  0  0  0  0  0  0  0  0  0
  -21.8538  -12.9622   21.9439 N   0  0  0  0  0  0  0  0  0  0  0  0
  -24.6725  -27.0715   29.9437 N   0  0  0  0  0  0  0  0  0  0  0  0
  -26.5380  -27.8417   23.4331 N   0  0  0  0  0  0  0  0  0  0  0  0
  -29.5475  -26.5728   21.8837 N   0  3  0  0  0  0  0  0  0  0  0  0
  -22.6107  -14.8692   20.9196 O   0  0  0  0  0  0  0  0  0  0  0  0
  -23.7014  -26.5798   27.8851 O   0  0  0  0  0  0  0  0  0  0  0  0
  -26.0090  -28.9147   26.0364 O   0  0  0  0  0  0  0  0  0  0  0  0
  -27.0021  -25.6922   22.6973 O   0  0  0  0  0  0  0  0  0  0  0  0
  -31.6186  -14.8635   19.6012 O   0  0  0  0  0  0  0  0  0  0  0  0
  -21.6454   -7.8156   24.0661 O   0  0  0  0  0  0  0  0  0  0  0  0
  -26.0749  -20.4674   26.9865 O   0  0  0  0  0  0  0  0  0  1  0  0
  -22.0578   -2.6809   22.0991 F   0  0  0  0  0  0  0  0  0  0  0  0
  -19.4178   -6.4719   23.1308 F   0  0  0  0  0  0  0  0  0  0  0  0
  1  2  1  0  0  0  0
  1  5  2  0  0  0  0
  2  6  2  0  0  0  0
  3  8  2  0  0  0  0
  3 17  1  0  0  0  0
  4  9  1  0  0  0  0
  4 17  2  0  0  0  0
  5 19  1  0  0  0  0
  6 21  1  0  0  0  0
  7 10  2  0  0  0  0
  7 20  1  0  0  0  0
  8 24  1  0  0  0  0
  9 24  2  0  0  0  0
 10 25  1  0  0  0  0
 11 12  2  0  0  0  0
 11 26  1  0  0  0  0
 12 28  1  0  0  0  0
 13 22  1  0  0  0  0
 13 25  2  0  0  0  0
 14 23  1  0  0  0  0
 14 27  2  0  0  0  0
 15 28  2  0  0  0  0
 15 29  1  0  0  0  0
 16 27  1  0  0  0  0
 16 68  2  0  0  0  0
 17 30  1  0  0  0  0
 18 30  1  0  0  0  0
 18 32  2  0  0  0  0
 18 33  1  0  0  0  0
 19 21  2  0  0  0  0
 19 38  1  0  0  0  0
 20 22  2  0  0  0  0
 20 39  1  0  0  0  0
 21 54  1  0  0  0  0
 22 40  1  0  0  0  0
 23 31  2  0  0  0  0
 23 53  1  0  0  0  0
 24 84  1  0  0  0  0
 25 85  1  0  0  0  0
 26 29  2  0  0  0  0
 26 84  1  0  0  0  0
 27 85  1  0  0  0  0
 28 86  1  0  0  0  0
 29 87  1  0  0  0  0
 30 69  2  0  0  0  0
 31 64  1  0  0  0  0
 31 68  1  0  0  0  0
 32 70  1  0  0  0  0
 32 74  1  0  0  0  0
 33 75  1  0  0  0  0
 33 79  2  0  0  0  0
 34 55  1  0  0  0  0
 34 76  1  0  0  0  0
 34 80  2  0  0  0  0
 35 65  1  0  0  0  0
 35 71  1  0  0  0  0
 35 81  2  0  0  0  0
 36 66  1  0  0  0  0
 36 77  1  0  0  0  0
 36 82  2  0  0  0  0
 37 72  1  0  0  0  0
 37 73  1  0  0  0  0
 37 83  2  0  0  0  0
 38 41  1  0  0  0  0
 39 55  1  0  0  0  0
 40 71  1  0  0  0  0
 41 45  1  0  0  0  0
 42 46  1  0  0  0  0
 42 49  1  0  0  0  0
 43 44  1  0  0  0  0
 43 53  1  0  0  0  0
 44 53  1  0  0  0  0
 45 54  1  0  0  0  0
 46 57  1  0  0  0  0
 47 50  1  0  0  0  0
 47 56  1  0  0  0  0
 48 51  1  0  0  0  0
 48 56  1  0  0  0  0
 49 72  1  0  0  0  0
 50 73  1  0  0  0  0
 51 73  1  0  0  0  0
 52 57  1  0  0  0  0
 52 72  1  0  0  0  0
 54 76  1  0  0  0  0
 55 71  1  0  0  0  0
 56 64  1  0  0  0  0
 57 70  1  0  0  0  0
 58 64  1  0  0  0  0
 59 66  1  0  0  0  0
 60 67  1  0  0  0  0
 61 67  1  0  0  0  0
 62 67  1  0  0  0  0
 63 78  1  0  0  0  0
 65 67  1  0  0  0  0
 65 77  1  0  0  0  0
 66 78  1  0  0  0  0
 69 70  1  0  0  0  0
M  CHG  1  78   1
M  ISO  4  27 101  37 100  73 100  85 101
M  END
> <Batch ID>
0172

> <Smiles>
CNC(C)C(=O)NC(C(=O)N1Cc2cc([101O:1][101c:1]3cnc(C(C)C4CC[100N:0]([100C:0](=O)N5CCCC(n6nc(-c7ccc(Oc8ccc(F)cc8F)cc7)c(C(N)=O)c6N)C5)CC4)c(C4CC4)c3)ccc2CC1C(=O)NC1CCCc2ccccc21)C(C)(C)C

> <Shape>
0.190

> <Color>
0.147

> <Negative vol penalty>
0.000

$$$$

  -OEChem-04052322403D

 85 95  0     1  0  0  0  0  0999 V2000
  -16.6993  -29.1065   24.2247 C   0  0  0  0  0  0  0  0  0  0  0  0
  -17.2443  -28.2473   23.2759 C   0  0  0  0  0  0  0  0  0  0  0  0
  -26.0335  -13.2679   20.2619 C   0  0  0  0  0  0  0  0  0  0  0  0
  -24.1188  -14.7305   20.0838 C   0  0  0  0  0  0  0  0  0  0  0  0
  -17.2799  -30.3540   24.4491 C   0  0  0  0  0  0  0  0  0  0  0  0
  -18.3698  -28.6358   22.5500 C   0  0  0  0  0  0  0  0  0  0  0  0
  -23.9564  -23.2477   15.2079 C   0  0  0  0  0  0  0  0  0  0  0  0
  -21.8371  -24.9590   22.2265 C   0  0  0  0  0  0  0  0  0  0  0  0
  -25.2763  -23.6738   15.3558 C   0  0  0  0  0  0  0  0  0  0  0  0
  -25.2599  -12.3400   20.9590 C   0  0  0  0  0  0  0  0  0  0  0  0
  -23.3451  -13.8025   20.7809 C   0  0  0  0  0  0  0  0  0  0  0  0
  -21.6017  -23.9413   21.3031 C   0  0  0  0  0  0  0  0  0  0  0  0
  -22.9548   -9.9742   20.2360 C   0  0  0  0  0  0  0  0  0  0  0  0
  -23.0644   -8.6330   19.8693 C   0  0  0  0  0  0  0  0  0  0  0  0
  -25.1864  -23.1355   17.7094 C   0  0  0  0  0  0  0  0  0  0  0  0
  -23.1197  -25.0015   19.7568 C   0  0  0  0  0  0  0  0  0  0  0  0
  -23.8053   -8.0830   22.1022 C   0  0  0  0  0  0  0  0  0  0  0  0
  -25.4630  -14.4632   19.8243 C   0  0  0  0  0  0  0  0  0  0  0  0
  -26.4490  -15.4981   17.7114 C   0  0  0  0  0  0  0  0  0  0  0  0
  -18.4188  -30.7540   23.7324 C   0  0  0  0  0  0  0  0  0  0  0  0
  -22.7086  -26.0132   21.9172 C   0  0  0  0  0  0  0  0  0  0  0  0
  -23.2514  -22.7656   16.3108 C   0  0  0  0  0  0  0  0  0  0  0  0
  -18.9654  -29.8904   22.7641 C   0  0  0  0  0  0  0  0  0  0  0  0
  -23.8664  -22.7095   17.5615 C   0  0  0  0  0  0  0  0  0  0  0  0
  -23.3664  -26.0300   20.6790 C   0  0  0  0  0  0  0  0  0  0  0  0
  -25.8913  -23.6177   16.6065 C   0  0  0  0  0  0  0  0  0  0  0  0
  -23.9157  -12.6072   21.2185 C   0  0  0  0  0  0  0  0  0  0  0  0
  -22.2408  -23.9640   20.0669 C   0  0  0  0  0  0  0  0  0  0  0  0
  -23.2705  -10.3700   21.5358 C   0  0  0  0  0  0  0  0  0  0  0  0
  -23.4896   -7.6873   20.8023 C   0  0  0  0  0  0  0  0  0  0  0  0
  -23.6957   -9.4243   22.4689 C   0  0  0  0  0  0  0  0  0  0  0  0
  -26.2617  -15.4224   19.1046 C   0  0  0  0  0  0  0  0  0  0  0  0
  -27.2855  -16.5732   17.5353 C   0  0  0  0  0  0  0  0  0  0  0  0
  -25.9144  -14.6707   16.6695 C   0  0  0  0  0  0  0  0  0  0  0  0
  -22.4024  -29.1629   21.6191 C   0  0  0  0  0  0  0  0  0  0  0  0
  -25.6276  -29.0535   21.2901 C   0  0  0  0  0  0  0  0  0  0  0  0
  -28.3946  -27.2399   20.4525 C   0  0  0  0  0  0  0  0  0  0  0  0
  -28.7791  -21.8208   18.7084 C   0  0  0  0  0  0  0  0  0  0  0  0
  -18.9832  -32.1313   23.9761 C   0  0  0  0  0  0  0  0  0  0  0  0
  -22.9724  -27.0892   22.9346 C   0  0  0  0  0  0  0  0  0  0  0  0
  -24.3270  -27.1285   20.3062 C   0  0  0  0  0  0  0  0  0  0  0  0
  -20.3971  -32.3154   23.4308 C   0  0  0  0  0  0  0  0  0  0  0  0
  -29.9411  -19.2635   20.8962 C   0  0  0  0  0  0  0  0  0  0  0  0
  -21.0327  -22.8887   14.9932 C   0  0  0  0  0  0  0  0  0  0  0  0
  -20.7216  -23.2851   16.4026 C   0  0  0  0  0  0  0  0  0  0  0  0
  -20.4964  -31.7700   22.0098 C   0  0  0  0  0  0  0  0  0  0  0  0
  -29.0989  -18.0450   20.5145 C   0  0  0  0  0  0  0  0  0  0  0  0
  -23.9136  -21.5187   19.8522 C   0  0  0  0  0  0  0  0  0  0  0  0
  -23.0272  -20.7077   18.9594 C   0  0  0  0  0  0  0  0  0  0  0  0
  -29.1341  -20.5571   20.8092 C   0  0  0  0  0  0  0  0  0  0  0  0
  -27.6245  -19.5661   19.1320 C   0  0  0  0  0  0  0  0  0  0  0  0
  -21.8397  -22.3154   16.1273 C   0  0  0  0  0  0  0  0  0  0  0  0
  -20.2005  -30.2658   21.9742 C   0  0  1  0  0  0  0  0  0  0  0  0
  -23.4841  -28.3856   22.3142 C   0  0  1  0  0  0  0  0  0  0  0  0
  -28.4107  -18.2440   19.1507 C   0  0  2  0  0  0  0  0  0  0  0  0
  -23.1386  -22.2016   18.7464 C   0  0  0  0  0  0  0  0  0  1  0  0
  -30.8881  -27.4326   20.2463 C   0  0  0  0  0  0  0  0  0  0  0  0
  -25.2897  -30.6106   18.6879 C   0  0  0  0  0  0  0  0  0  0  0  0
  -27.6251  -29.9515   18.0716 C   0  0  0  0  0  0  0  0  0  0  0  0
  -27.2185  -31.3452   20.1002 C   0  0  0  0  0  0  0  0  0  0  0  0
  -28.8417  -25.1369   22.4863 C   0  0  0  0  0  0  0  0  0  0  0  0
  -27.3025  -24.0736   16.7642 C   0  0  0  0  0  0  0  0  0  0  0  0
  -28.3353  -22.9607   16.5490 C   0  0  0  0  0  0  0  0  0  0  0  0
  -26.5791  -28.8993   20.1283 C   0  0  1  0  0  0  0  0  0  0  0  0
  -29.7280  -27.0548   21.1541 C   0  0  2  0  0  0  0  0  0  0  0  0
  -26.6585  -30.1818   19.2530 C   0  0  0  0  0  0  0  0  0  0  0  0
  -26.9260  -16.3735   19.7666 N   0  0  0  0  0  0  0  0  0  0  0  0
  -27.5389  -17.0569   18.7850 N   0  0  0  0  0  0  0  0  0  0  0  0
  -24.5470  -28.1612   21.3322 N   0  0  0  0  0  0  0  0  0  0  0  0
  -28.5088  -20.6860   19.4907 N   0  0  0  0  0  0  0  0  0  0  0  0
  -27.8217  -17.1423   16.4349 N   0  0  0  0  0  0  0  0  0  0  0  0
  -25.0714  -13.6092   17.0256 N   0  0  0  0  0  0  0  0  0  0  0  0
  -21.3466  -29.5140   22.4386 N   0  0  0  0  0  0  0  0  0  0  0  0
  -27.8564  -28.4853   20.6989 N   0  0  0  0  0  0  0  0  0  0  0  0
  -28.1509  -21.8611   17.4696 N   0  0  0  0  0  0  0  0  0  0  0  0
  -29.9010  -25.6346   21.5714 N   0  3  0  0  0  0  0  0  0  0  0  0
  -26.1898  -14.8569   15.4600 O   0  0  0  0  0  0  0  0  0  0  0  0
  -22.5178  -29.4260   20.4278 O   0  0  0  0  0  0  0  0  0  0  0  0
  -25.8395  -29.9287   22.1332 O   0  0  0  0  0  0  0  0  0  0  0  0
  -27.8835  -26.3684   19.7527 O   0  0  0  0  0  0  0  0  0  0  0  0
  -29.5293  -22.7283   19.0837 O   0  0  0  0  0  0  0  0  0  0  0  0
  -23.1604  -11.7019   21.8985 O   0  0  0  0  0  0  0  0  0  0  0  0
  -22.0123  -22.9722   19.1635 O   0  0  0  0  0  0  0  0  0  1  0  0
  -23.5933   -6.3991   20.4505 F   0  0  0  0  0  0  0  0  0  0  0  0
  -23.9993   -9.7983   23.7194 F   0  0  0  0  0  0  0  0  0  0  0  0
  1  2  1  0  0  0  0
  1  5  2  0  0  0  0
  2  6  2  0  0  0  0
  3 10  2  0  0  0  0
  3 18  1  0  0  0  0
  4 11  1  0  0  0  0
  4 18  2  0  0  0  0
  5 20  1  0  0  0  0
  6 23  1  0  0  0  0
  7  9  2  0  0  0  0
  7 22  1  0  0  0  0
  8 12  2  0  0  0  0
  8 21  1  0  0  0  0
  9 26  1  0  0  0  0
 10 27  1  0  0  0  0
 11 27  2  0  0  0  0
 12 28  1  0  0  0  0
 13 14  2  0  0  0  0
 13 29  1  0  0  0  0
 14 30  1  0  0  0  0
 15 24  1  0  0  0  0
 15 26  2  0  0  0  0
 16 25  1  0  0  0  0
 16 28  2  0  0  0  0
 17 30  2  0  0  0  0
 17 31  1  0  0  0  0
 18 32  1  0  0  0  0
 19 32  1  0  0  0  0
 19 33  2  0  0  0  0
 19 34  1  0  0  0  0
 20 23  2  0  0  0  0
 20 39  1  0  0  0  0
 21 25  2  0  0  0  0
 21 40  1  0  0  0  0
 22 24  2  0  0  0  0
 22 52  1  0  0  0  0
 23 53  1  0  0  0  0
 24 56  1  0  0  0  0
 25 41  1  0  0  0  0
 26 62  1  0  0  0  0
 27 82  1  0  0  0  0
 28 83  1  0  0  0  0
 29 31  2  0  0  0  0
 29 82  1  0  0  0  0
 30 84  1  0  0  0  0
 31 85  1  0  0  0  0
 32 67  2  0  0  0  0
 33 68  1  0  0  0  0
 33 71  1  0  0  0  0
 34 72  1  0  0  0  0
 34 77  2  0  0  0  0
 35 54  1  0  0  0  0
 35 73  1  0  0  0  0
 35 78  2  0  0  0  0
 36 64  1  0  0  0  0
 36 69  1  0  0  0  0
 36 79  2  0  0  0  0
 37 65  1  0  0  0  0
 37 74  1  0  0  0  0
 37 80  2  0  0  0  0
 38 70  1  0  0  0  0
 38 75  1  0  0  0  0
 38 81  2  0  0  0  0
 39 42  1  0  0  0  0
 40 54  1  0  0  0  0
 41 69  1  0  0  0  0
 42 46  1  0  0  0  0
 43 47  1  0  0  0  0
 43 50  1  0  0  0  0
 44 45  1  0  0  0  0
 44 52  1  0  0  0  0
 45 52  1  0  0  0  0
 46 53  1  0  0  0  0
 47 55  1  0  0  0  0
 48 49  1  0  0  0  0
 48 56  1  0  0  0  0
 49 56  1  0  0  0  0
 50 70  1  0  0  0  0
 51 55  1  0  0  0  0
 51 70  1  0  0  0  0
 53 73  1  0  0  0  0
 54 69  1  0  0  0  0
 55 68  1  0  0  0  0
 56 83  1  0  0  0  0
 57 65  1  0  0  0  0
 58 66  1  0  0  0  0
 59 66  1  0  0  0  0
 60 66  1  0  0  0  0
 61 76  1  0  0  0  0
 62 63  1  0  0  0  0
 63 75  1  0  0  0  0
 64 66  1  0  0  0  0
 64 74  1  0  0  0  0
 65 76  1  0  0  0  0
 67 68  1  0  0  0  0
M  CHG  1  76   1
M  ISO  4  38 100  56 101  75 100  83 101
M  END
> <Batch ID>
0172

> <Smiles>
CNC(C)C(=O)NC(C(=O)N1Cc2cc([101O:1][101C:1]3(c4cc(CC[100NH:0][100C:0](=O)N5CCCC(n6nc(-c7ccc(Oc8ccc(F)cc8F)cc7)c(C(N)=O)c6N)C5)ccc4C4CC4)CC3)ccc2CC1C(=O)NC1CCCc2ccccc21)C(C)(C)C

> <Shape>
0.243

> <Color>
0.091

> <Negative vol penalty>
0.000

$$$$

  -OEChem-04052322403D

 88 98  0     1  0  0  0  0  0999 V2000
  -22.6767  -31.3885   14.4322 C   0  0  0  0  0  0  0  0  0  0  0  0
  -23.8642  -30.7938   14.8464 C   0  0  0  0  0  0  0  0  0  0  0  0
  -22.9907  -11.9430   21.7855 C   0  0  0  0  0  0  0  0  0  0  0  0
  -23.0159  -10.4394   19.8946 C   0  0  0  0  0  0  0  0  0  0  0  0
  -21.9785  -32.2270   15.3002 C   0  0  0  0  0  0  0  0  0  0  0  0
  -24.3549  -31.0383   16.1286 C   0  0  0  0  0  0  0  0  0  0  0  0
  -25.9484  -26.8214   18.4357 C   0  0  0  0  0  0  0  0  0  0  0  0
  -21.6212  -12.1407   21.6101 C   0  0  0  0  0  0  0  0  0  0  0  0
  -21.6463  -10.6370   19.7192 C   0  0  0  0  0  0  0  0  0  0  0  0
  -27.1955  -26.3232   18.0613 C   0  0  0  0  0  0  0  0  0  0  0  0
  -18.7557  -10.4890   22.3130 C   0  0  0  0  0  0  0  0  0  0  0  0
  -17.9447  -10.4500   23.4471 C   0  0  0  0  0  0  0  0  0  0  0  0
  -28.1783  -27.3255   20.0231 C   0  0  0  0  0  0  0  0  0  0  0  0
  -17.2366  -12.7198   23.0187 C   0  0  0  0  0  0  0  0  0  0  0  0
  -30.5016  -20.3735   19.6764 C   0  0  0  0  0  0  0  0  0  0  0  0
  -23.6881  -11.0923   20.9277 C   0  0  0  0  0  0  0  0  0  0  0  0
  -25.7259   -9.9039   21.8987 C   0  0  0  0  0  0  0  0  0  0  0  0
  -22.4559  -32.4743   16.5969 C   0  0  0  0  0  0  0  0  0  0  0  0
  -25.8086  -27.5859   19.6030 C   0  0  0  0  0  0  0  0  0  0  0  0
  -23.6632  -31.8821   17.0142 C   0  0  0  0  0  0  0  0  0  0  0  0
  -26.9278  -27.8301   20.4115 C   0  0  0  0  0  0  0  0  0  0  0  0
  -29.7281  -20.1524   20.8045 C   0  0  0  0  0  0  0  0  0  0  0  0
  -29.2223  -21.2608   21.4743 C   0  0  0  0  0  0  0  0  0  0  0  0
  -29.5013  -22.5386   21.0022 C   0  0  0  0  0  0  0  0  0  0  0  0
  -20.9489  -11.4877   20.5770 C   0  0  0  0  0  0  0  0  0  0  0  0
  -28.3112  -26.5776   18.8535 C   0  0  0  0  0  0  0  0  0  0  0  0
  -18.8073  -11.6434   21.5318 C   0  0  0  0  0  0  0  0  0  0  0  0
  -17.1851  -11.5654   23.8000 C   0  0  0  0  0  0  0  0  0  0  0  0
  -18.0477  -12.7588   21.8846 C   0  0  0  0  0  0  0  0  0  0  0  0
  -25.1030  -10.8881   21.1081 C   0  0  0  0  0  0  0  0  0  0  0  0
  -30.2851  -22.6529   19.8654 C   0  0  0  0  0  0  0  0  0  0  0  0
  -27.0703  -10.1317   21.7344 C   0  0  0  0  0  0  0  0  0  0  0  0
  -25.1414   -8.8757   22.7092 C   0  0  0  0  0  0  0  0  0  0  0  0
  -24.8974  -30.5642   20.2380 C   0  0  0  0  0  0  0  0  0  0  0  0
  -25.1486  -29.5704   23.3156 C   0  0  0  0  0  0  0  0  0  0  0  0
  -26.5305  -27.3971   25.5547 C   0  0  0  0  0  0  0  0  0  0  0  0
  -30.3167  -14.8272   20.3710 C   0  0  0  0  0  0  0  0  0  0  0  0
  -21.6911  -33.4255   17.4829 C   0  0  0  0  0  0  0  0  0  0  0  0
  -24.4516  -28.0935   20.0071 C   0  0  0  0  0  0  0  0  0  0  0  0
  -26.8273  -28.6281   21.6849 C   0  0  0  0  0  0  0  0  0  0  0  0
  -22.0839  -33.3356   18.9553 C   0  0  0  0  0  0  0  0  0  0  0  0
  -30.2282  -11.8626   18.5957 C   0  0  0  0  0  0  0  0  0  0  0  0
  -23.6021  -33.3239   19.1030 C   0  0  0  0  0  0  0  0  0  0  0  0
  -28.9668  -11.1688   19.1096 C   0  0  0  0  0  0  0  0  0  0  0  0
  -28.6696  -17.9230   20.2289 C   0  0  0  0  0  0  0  0  0  0  0  0
  -30.7502  -18.0005   21.6693 C   0  0  0  0  0  0  0  0  0  0  0  0
  -30.9455  -24.1416   17.8595 C   0  0  0  0  0  0  0  0  0  0  0  0
  -29.9906  -13.3562   18.4061 C   0  0  0  0  0  0  0  0  0  0  0  0
  -28.4274  -16.4844   20.6946 C   0  0  0  0  0  0  0  0  0  0  0  0
  -30.4458  -16.5747   22.1197 C   0  0  0  0  0  0  0  0  0  0  0  0
  -28.2515  -13.3701   20.1649 C   0  0  0  0  0  0  0  0  0  0  0  0
  -29.4567  -18.7352   21.2731 C   0  0  0  0  0  0  0  0  0  0  0  0
  -24.2148  -32.1032   18.4059 C   0  0  1  0  0  0  0  0  0  0  0  0
  -30.6117  -24.0060   19.3205 C   0  0  1  0  0  0  0  0  0  0  0  0
  -24.5181  -29.2942   20.9459 C   0  0  1  0  0  0  0  0  0  0  0  0
  -28.4379  -11.8546   20.3818 C   0  0  1  0  0  0  0  0  0  0  0  0
  -29.6394  -24.6636   18.3754 C   0  0  1  0  0  0  0  0  0  1  0  0
  -28.9712  -23.7457   21.7012 C   0  0  0  0  0  0  0  0  0  0  0  0
  -26.9580  -20.6476   22.3595 C   0  0  0  0  0  0  0  0  0  0  0  0
  -26.5750  -26.8564   28.0048 C   0  0  0  0  0  0  0  0  0  0  0  0
  -26.9734  -31.9656   23.8087 C   0  0  0  0  0  0  0  0  0  0  0  0
  -27.7250  -30.8679   25.9296 C   0  0  0  0  0  0  0  0  0  0  0  0
  -25.3321  -31.5102   25.6398 C   0  0  0  0  0  0  0  0  0  0  0  0
  -25.4354  -24.6864   25.0947 C   0  0  0  0  0  0  0  0  0  0  0  0
  -28.3819  -21.0766   22.6972 C   0  0  0  0  0  0  0  0  0  0  0  0
  -26.2535  -29.5446   24.3439 C   0  0  1  0  0  0  0  0  0  0  0  0
  -25.9130  -26.5680   26.6664 C   0  0  2  0  0  0  0  0  0  0  0  0
  -26.5736  -30.9586   24.9056 C   0  0  0  0  0  0  0  0  0  0  0  0
  -30.7941  -21.5996   19.1878 N   0  0  0  0  0  0  0  0  0  0  0  0
  -25.9797  -11.6821   20.4877 N   0  0  0  0  0  0  0  0  0  0  0  0
  -27.1673  -11.1972   20.8886 N   0  0  0  0  0  0  0  0  0  0  0  0
  -25.4801  -29.1083   22.0341 N   0  0  0  0  0  0  0  0  0  0  0  0
  -29.4857  -13.9697   19.6342 N   0  0  0  0  0  0  0  0  0  0  0  0
  -29.6899  -15.8500   21.0985 N   0  0  0  0  0  0  0  0  0  0  0  0
  -28.1673   -9.5225   22.2325 N   0  0  0  0  0  0  0  0  0  0  0  0
  -23.7441   -8.7827   22.7655 N   0  0  0  0  0  0  0  0  0  0  0  0
  -24.0373  -30.9168   19.2156 N   0  0  0  0  0  0  0  0  0  0  0  0
  -25.8456  -28.5774   25.3571 N   0  0  0  0  0  0  0  0  0  0  0  0
  -26.0613  -25.1146   26.3721 N   0  3  0  0  0  0  0  0  0  0  0  0
  -25.8375   -8.0737   23.3770 O   0  0  0  0  0  0  0  0  0  0  0  0
  -25.8956  -31.1793   20.5940 O   0  0  0  0  0  0  0  0  0  0  0  0
  -24.0305  -29.9787   23.6395 O   0  0  0  0  0  0  0  0  0  0  0  0
  -27.5235  -27.0357   24.9272 O   0  0  0  0  0  0  0  0  0  0  0  0
  -31.5461  -14.6872   20.3794 O   0  0  0  0  0  0  0  0  0  0  0  0
  -19.6125  -11.6803   20.4057 O   0  0  0  0  0  0  0  0  0  0  0  0
  -29.5324  -26.0920   18.4892 O   0  0  0  0  0  0  0  0  0  1  0  0
  -16.4050  -11.5273   24.8882 F   0  0  0  0  0  0  0  0  0  0  0  0
  -18.0922  -13.8703   21.1373 F   0  0  0  0  0  0  0  0  0  0  0  0
  1  2  1  0  0  0  0
  1  5  2  0  0  0  0
  2  6  2  0  0  0  0
  3  8  2  0  0  0  0
  3 16  1  0  0  0  0
  4  9  1  0  0  0  0
  4 16  2  0  0  0  0
  5 18  1  0  0  0  0
  6 20  1  0  0  0  0
  7 10  2  0  0  0  0
  7 19  1  0  0  0  0
  8 25  1  0  0  0  0
  9 25  2  0  0  0  0
 10 26  1  0  0  0  0
 11 12  2  0  0  0  0
 11 27  1  0  0  0  0
 12 28  1  0  0  0  0
 13 21  1  0  0  0  0
 13 26  2  0  0  0  0
 14 28  2  0  0  0  0
 14 29  1  0  0  0  0
 15 22  2  0  0  0  0
 15 69  1  0  0  0  0
 16 30  1  0  0  0  0
 17 30  1  0  0  0  0
 17 32  2  0  0  0  0
 17 33  1  0  0  0  0
 18 20  2  0  0  0  0
 18 38  1  0  0  0  0
 19 21  2  0  0  0  0
 19 39  1  0  0  0  0
 20 53  1  0  0  0  0
 21 40  1  0  0  0  0
 22 23  1  0  0  0  0
 22 52  1  0  0  0  0
 23 24  2  0  0  0  0
 23 65  1  0  0  0  0
 24 31  1  0  0  0  0
 24 58  1  0  0  0  0
 25 85  1  0  0  0  0
 26 86  1  0  0  0  0
 27 29  2  0  0  0  0
 27 85  1  0  0  0  0
 28 87  1  0  0  0  0
 29 88  1  0  0  0  0
 30 70  2  0  0  0  0
 31 54  1  0  0  0  0
 31 69  2  0  0  0  0
 32 71  1  0  0  0  0
 32 75  1  0  0  0  0
 33 76  1  0  0  0  0
 33 80  2  0  0  0  0
 34 55  1  0  0  0  0
 34 77  1  0  0  0  0
 34 81  2  0  0  0  0
 35 66  1  0  0  0  0
 35 72  1  0  0  0  0
 35 82  2  0  0  0  0
 36 67  1  0  0  0  0
 36 78  1  0  0  0  0
 36 83  2  0  0  0  0
 37 73  1  0  0  0  0
 37 74  1  0  0  0  0
 37 84  2  0  0  0  0
 38 41  1  0  0  0  0
 39 55  1  0  0  0  0
 40 72  1  0  0  0  0
 41 43  1  0  0  0  0
 42 44  1  0  0  0  0
 42 48  1  0  0  0  0
 43 53  1  0  0  0  0
 44 56  1  0  0  0  0
 45 49  1  0  0  0  0
 45 52  1  0  0  0  0
 46 50  1  0  0  0  0
 46 52  1  0  0  0  0
 47 54  1  0  0  0  0
 47 57  1  0  0  0  0
 48 73  1  0  0  0  0
 49 74  1  0  0  0  0
 50 74  1  0  0  0  0
 51 56  1  0  0  0  0
 51 73  1  0  0  0  0
 53 77  1  0  0  0  0
 54 57  1  0  0  0  0
 55 72  1  0  0  0  0
 56 71  1  0  0  0  0
 57 86  1  0  0  0  0
 59 65  1  0  0  0  0
 60 67  1  0  0  0  0
 61 68  1  0  0  0  0
 62 68  1  0  0  0  0
 63 68  1  0  0  0  0
 64 79  1  0  0  0  0
 66 68  1  0  0  0  0
 66 78  1  0  0  0  0
 67 79  1  0  0  0  0
 70 71  1  0  0  0  0
M  CHG  1  79   1
M  ISO  4  37 100  57 101  74 100  86 101
M  END
> <Batch ID>
0172

> <Smiles>
CCc1c(C2CC[100N:0]([100C:0](=O)N3CCCC(n4nc(-c5ccc(Oc6ccc(F)cc6F)cc5)c(C(N)=O)c4N)C3)CC2)cnc(C2C[101CH:1]2[101O:1]c2ccc3c(c2)CN(C(=O)C(NC(=O)C(C)NC)C(C)(C)C)C(C(=O)NC2CCCc4ccccc42)C3)c1C

> <Shape>
0.286

> <Color>
0.088

> <Negative vol penalty>
0.000

$$$$

  -OEChem-04052322403D

 91101  0     1  0  0  0  0  0999 V2000
  -18.4169  -31.7441   25.8584 C   0  0  0  0  0  0  0  0  0  0  0  0
  -19.7651  -31.4167   25.9613 C   0  0  0  0  0  0  0  0  0  0  0  0
  -25.6949  -13.9628   19.0244 C   0  0  0  0  0  0  0  0  0  0  0  0
  -26.1674  -13.1851   21.2624 C   0  0  0  0  0  0  0  0  0  0  0  0
  -17.6367  -31.1728   24.8540 C   0  0  0  0  0  0  0  0  0  0  0  0
  -20.3337  -30.5170   25.0605 C   0  0  0  0  0  0  0  0  0  0  0  0
  -26.5003  -29.1421   21.6842 C   0  0  0  0  0  0  0  0  0  0  0  0
  -24.4041  -14.3146   19.4191 C   0  0  0  0  0  0  0  0  0  0  0  0
  -24.8766  -13.5370   21.6572 C   0  0  0  0  0  0  0  0  0  0  0  0
  -27.4011  -28.1001   21.4685 C   0  0  0  0  0  0  0  0  0  0  0  0
  -23.2143  -16.3542   22.5059 C   0  0  0  0  0  0  0  0  0  0  0  0
  -23.0708  -17.0343   23.7152 C   0  0  0  0  0  0  0  0  0  0  0  0
  -30.7651  -22.1346   19.1892 C   0  0  0  0  0  0  0  0  0  0  0  0
  -28.5332  -22.8524   19.7724 C   0  0  0  0  0  0  0  0  0  0  0  0
  -25.9749  -27.2362   19.7252 C   0  0  0  0  0  0  0  0  0  0  0  0
  -21.6823  -15.2452   24.5568 C   0  0  0  0  0  0  0  0  0  0  0  0
  -26.5765  -13.3979   19.9460 C   0  0  0  0  0  0  0  0  0  0  0  0
  -28.2709  -12.1125   18.5374 C   0  0  0  0  0  0  0  0  0  0  0  0
  -18.1983  -30.2730   23.9344 C   0  0  0  0  0  0  0  0  0  0  0  0
  -25.3228  -29.2330   20.9281 C   0  0  0  0  0  0  0  0  0  0  0  0
  -19.5600  -29.9321   24.0436 C   0  0  0  0  0  0  0  0  0  0  0  0
  -29.5175  -21.8642   19.7511 C   0  0  0  0  0  0  0  0  0  0  0  0
  -25.0621  -28.2818   19.9315 C   0  0  0  0  0  0  0  0  0  0  0  0
  -31.0286  -23.3932   18.6486 C   0  0  0  0  0  0  0  0  0  0  0  0
  -28.7966  -24.1110   19.2317 C   0  0  0  0  0  0  0  0  0  0  0  0
  -30.0444  -24.3814   18.6698 C   0  0  0  0  0  0  0  0  0  0  0  0
  -23.9950  -14.1018   20.7355 C   0  0  0  0  0  0  0  0  0  0  0  0
  -27.1371  -27.1453   20.4908 C   0  0  0  0  0  0  0  0  0  0  0  0
  -22.5917  -15.1196   22.3220 C   0  0  0  0  0  0  0  0  0  0  0  0
  -22.3049  -16.4798   24.7407 C   0  0  0  0  0  0  0  0  0  0  0  0
  -21.8258  -14.5651   23.3474 C   0  0  0  0  0  0  0  0  0  0  0  0
  -27.9097  -13.0337   19.5387 C   0  0  0  0  0  0  0  0  0  0  0  0
  -29.6443  -12.1255   18.5381 C   0  0  0  0  0  0  0  0  0  0  0  0
  -27.4392  -11.3163   17.6829 C   0  0  0  0  0  0  0  0  0  0  0  0
  -22.2162  -29.1521   21.5964 C   0  0  0  0  0  0  0  0  0  0  0  0
  -21.9175  -29.8757   18.4485 C   0  0  0  0  0  0  0  0  0  0  0  0
  -23.2772  -29.8104   15.3190 C   0  0  0  0  0  0  0  0  0  0  0  0
  -30.3664  -16.5184   21.6478 C   0  0  0  0  0  0  0  0  0  0  0  0
  -17.3041  -29.6448   22.8949 C   0  0  0  0  0  0  0  0  0  0  0  0
  -24.3743  -30.3783   21.1548 C   0  0  0  0  0  0  0  0  0  0  0  0
  -23.8221  -28.3459   19.0790 C   0  0  0  0  0  0  0  0  0  0  0  0
  -18.0700  -28.9876   21.7496 C   0  0  0  0  0  0  0  0  0  0  0  0
  -32.0360  -15.4557   18.4766 C   0  0  0  0  0  0  0  0  0  0  0  0
  -19.2078  -28.1285   22.2918 C   0  0  0  0  0  0  0  0  0  0  0  0
  -32.3381  -13.9904   18.8065 C   0  0  0  0  0  0  0  0  0  0  0  0
  -30.1334  -20.2122   21.5504 C   0  0  0  0  0  0  0  0  0  0  0  0
  -27.7604  -17.6867   19.9732 C   0  0  0  0  0  0  0  0  0  0  0  0
  -31.9872  -16.3192   19.7296 C   0  0  0  0  0  0  0  0  0  0  0  0
  -29.8086  -18.8557   22.1602 C   0  0  0  0  0  0  0  0  0  0  0  0
  -31.4537  -14.3598   21.1294 C   0  0  0  0  0  0  0  0  0  0  0  0
  -29.2306  -20.4930   20.3408 C   0  0  2  0  0  0  0  0  0  0  0  0
  -20.2189  -28.9792   23.0700 C   0  0  1  0  0  0  0  0  0  0  0  0
  -22.9558  -30.0828   20.6775 C   0  0  1  0  0  0  0  0  0  0  0  0
  -31.4275  -13.4096   19.9124 C   0  0  1  0  0  0  0  0  0  0  0  0
  -29.2642  -17.9488   19.8935 C   0  0  1  0  0  0  0  0  0  0  0  0
  -29.3569  -19.3556   19.2997 C   0  0  1  0  0  0  0  0  0  0  0  0
  -27.2347  -18.2158   18.6276 C   0  0  0  0  0  0  0  0  0  0  0  0
  -32.3725  -23.6568   18.0518 C   0  0  0  0  0  0  0  0  0  0  0  0
  -30.3270  -25.7306   18.0897 C   0  0  0  0  0  0  0  0  0  0  0  0
  -27.3414  -17.1475   17.5313 C   0  0  0  0  0  0  0  0  0  0  0  0
  -25.7918  -18.7126   18.7424 C   0  0  0  0  0  0  0  0  0  0  0  0
  -22.7800  -30.4414   12.9416 C   0  0  0  0  0  0  0  0  0  0  0  0
  -20.0647  -27.4643   18.1985 C   0  0  0  0  0  0  0  0  0  0  0  0
  -20.3670  -27.5772   15.7157 C   0  0  0  0  0  0  0  0  0  0  0  0
  -19.3203  -29.4877   16.9311 C   0  0  0  0  0  0  0  0  0  0  0  0
  -28.5348  -19.6895   16.9172 C   0  0  0  0  0  0  0  0  0  0  0  0
  -25.5768  -31.6702   15.2096 C   0  0  0  0  0  0  0  0  0  0  0  0
  -27.7256  -25.1519   19.2668 C   0  0  0  0  0  0  0  0  0  1  0  0
  -21.8028  -29.0752   17.1737 C   0  0  1  0  0  0  0  0  0  0  0  0
  -23.4067  -30.8848   14.2544 C   0  0  2  0  0  0  0  0  0  0  0  0
  -20.4112  -28.3985   17.0220 C   0  0  0  0  0  0  0  0  0  0  0  0
  -28.9683  -13.5912   20.1325 N   0  0  0  0  0  0  0  0  0  0  0  0
  -30.0081  -13.0186   19.5025 N   0  0  0  0  0  0  0  0  0  0  0  0
  -22.9224  -29.4810   19.3429 N   0  0  0  0  0  0  0  0  0  0  0  0
  -31.1175  -15.7339   20.7565 N   0  0  0  0  0  0  0  0  0  0  0  0
  -29.9555  -17.7809   21.1811 N   0  0  0  0  0  0  0  0  0  0  0  0
  -30.5642  -11.4598   17.8078 N   0  0  0  0  0  0  0  0  0  0  0  0
  -27.0597  -10.0400   18.1204 N   0  0  0  0  0  0  0  0  0  0  0  0
  -21.0795  -29.7016   22.1580 N   0  0  0  0  0  0  0  0  0  0  0  0
  -22.1458  -29.9864   16.0872 N   0  0  0  0  0  0  0  0  0  0  0  0
  -28.1491  -19.4286   18.3442 N   0  3  2  0  0  0  0  0  0  0  0  0
  -24.8424  -31.1989   14.0073 N   0  3  0  0  0  0  0  0  0  0  0  0
  -27.0578  -11.7181   16.5574 O   0  0  0  0  0  0  0  0  0  0  0  0
  -22.6443  -28.0188   21.7811 O   0  0  0  0  0  0  0  0  0  0  0  0
  -21.1485  -30.8209   18.6402 O   0  0  0  0  0  0  0  0  0  0  0  0
  -24.0958  -28.9035   15.4531 O   0  0  0  0  0  0  0  0  0  0  0  0
  -30.0891  -16.1274   22.7881 O   0  0  0  0  0  0  0  0  0  0  0  0
  -22.7357  -14.4452   21.1211 O   0  0  0  0  0  0  0  0  0  0  0  0
  -28.0316  -26.1066   20.2745 O   0  0  0  0  0  0  0  0  0  1  0  0
  -22.1685  -17.1324   25.9025 F   0  0  0  0  0  0  0  0  0  0  0  0
  -21.2262  -13.3788   23.1770 F   0  0  0  0  0  0  0  0  0  0  0  0
  1  2  1  0  0  0  0
  1  5  2  0  0  0  0
  2  6  2  0  0  0  0
  3  8  2  0  0  0  0
  3 17  1  0  0  0  0
  4  9  1  0  0  0  0
  4 17  2  0  0  0  0
  5 19  1  0  0  0  0
  6 21  1  0  0  0  0
  7 10  2  0  0  0  0
  7 20  1  0  0  0  0
  8 27  1  0  0  0  0
  9 27  2  0  0  0  0
 10 28  1  0  0  0  0
 11 12  2  0  0  0  0
 11 29  1  0  0  0  0
 12 30  1  0  0  0  0
 13 22  1  0  0  0  0
 13 24  2  0  0  0  0
 14 22  2  0  0  0  0
 14 25  1  0  0  0  0
 15 23  1  0  0  0  0
 15 28  2  0  0  0  0
 16 30  2  0  0  0  0
 16 31  1  0  0  0  0
 17 32  1  0  0  0  0
 18 32  1  0  0  0  0
 18 33  2  0  0  0  0
 18 34  1  0  0  0  0
 19 21  2  0  0  0  0
 19 39  1  0  0  0  0
 20 23  2  0  0  0  0
 20 40  1  0  0  0  0
 21 52  1  0  0  0  0
 22 51  1  0  0  0  0
 23 41  1  0  0  0  0
 24 26  1  0  0  0  0
 24 58  1  0  0  0  0
 25 26  2  0  0  0  0
 25 68  1  0  0  0  0
 26 59  1  0  0  0  0
 27 88  1  0  0  0  0
 28 89  1  0  0  0  0
 29 31  2  0  0  0  0
 29 88  1  0  0  0  0
 30 90  1  0  0  0  0
 31 91  1  0  0  0  0
 32 72  2  0  0  0  0
 33 73  1  0  0  0  0
 33 77  1  0  0  0  0
 34 78  1  0  0  0  0
 34 83  2  0  0  0  0
 35 53  1  0  0  0  0
 35 79  1  0  0  0  0
 35 84  2  0  0  0  0
 36 69  1  0  0  0  0
 36 74  1  0  0  0  0
 36 85  2  0  0  0  0
 37 70  1  0  0  0  0
 37 80  1  0  0  0  0
 37 86  2  0  0  0  0
 38 75  1  0  0  0  0
 38 76  1  0  0  0  0
 38 87  2  0  0  0  0
 39 42  1  0  0  0  0
 40 53  1  0  0  0  0
 41 74  1  0  0  0  0
 42 44  1  0  0  0  0
 43 45  1  0  0  0  0
 43 48  1  0  0  0  0
 44 52  1  0  0  0  0
 45 54  1  0  0  0  0
 46 49  1  0  0  0  0
 46 51  1  0  0  0  0
 47 55  1  0  0  0  0
 47 57  1  0  0  0  0
 48 75  1  0  0  0  0
 49 76  1  0  0  0  0
 50 54  1  0  0  0  0
 50 75  1  0  0  0  0
 51 56  1  0  0  0  0
 52 79  1  0  0  0  0
 53 74  1  0  0  0  0
 54 73  1  0  0  0  0
 55 56  1  0  0  0  0
 55 76  1  0  0  0  0
 56 81  1  0  0  0  0
 57 60  1  0  0  0  0
 57 61  1  0  0  0  0
 57 81  1  0  0  0  0
 62 70  1  0  0  0  0
 63 71  1  0  0  0  0
 64 71  1  0  0  0  0
 65 71  1  0  0  0  0
 66 81  1  0  0  0  0
 67 82  1  0  0  0  0
 68 89  1  0  0  0  0
 69 71  1  0  0  0  0
 69 80  1  0  0  0  0
 70 82  1  0  0  0  0
 72 73  1  0  0  0  0
M  CHG  2  81   1  82   1
M  ISO  4  38 100  68 101  76 100  89 101
M  END
> <Batch ID>
0172

> <Smiles>
CNC(C)C(=O)NC(C(=O)N1Cc2cc([101O:1][101CH2:1]c3cc(C4CC[100N:0]([100C:0](=O)N5CCCC(n6nc(-c7ccc(Oc8ccc(F)cc8F)cc7)c(C(N)=O)c6N)C5)C5CC(C)(C)N(C)C45)cc(C)c3C)ccc2CC1C(=O)NC1CCCc2ccccc21)C(C)(C)C

> <Shape>
0.317

> <Color>
0.083

> <Negative vol penalty>
0.000

$$$$

  -OEChem-04052322403D

 81 90  0     1  0  0  0  0  0999 V2000
  -30.5274  -35.0786   21.1631 C   0  0  0  0  0  0  0  0  0  0  0  0
  -30.6406  -33.9587   20.3455 C   0  0  0  0  0  0  0  0  0  0  0  0
  -23.2553  -10.3740   21.5826 C   0  0  0  0  0  0  0  0  0  0  0  0
  -24.8510   -8.6169   22.0333 C   0  0  0  0  0  0  0  0  0  0  0  0
  -29.8433  -34.9894   22.3747 C   0  0  0  0  0  0  0  0  0  0  0  0
  -30.0705  -32.7487   20.7395 C   0  0  0  0  0  0  0  0  0  0  0  0
  -26.9492  -26.9011   18.0228 C   0  0  0  0  0  0  0  0  0  0  0  0
  -22.2534   -9.4194   21.4077 C   0  0  0  0  0  0  0  0  0  0  0  0
  -23.8491   -7.6622   21.8584 C   0  0  0  0  0  0  0  0  0  0  0  0
  -27.0453  -25.5109   18.0649 C   0  0  0  0  0  0  0  0  0  0  0  0
  -21.6322   -4.7808   21.8857 C   0  0  0  0  0  0  0  0  0  0  0  0
  -21.5522   -3.7456   22.8171 C   0  0  0  0  0  0  0  0  0  0  0  0
  -25.8186  -25.4950   20.1420 C   0  0  0  0  0  0  0  0  0  0  0  0
  -21.1954   -5.3589   24.5797 C   0  0  0  0  0  0  0  0  0  0  0  0
  -25.1212  -20.4546   20.1255 C   0  0  0  0  0  0  0  0  0  0  0  0
  -24.5541   -9.9728   21.8953 C   0  0  0  0  0  0  0  0  0  0  0  0
  -25.9551  -11.5977   23.2753 C   0  0  0  0  0  0  0  0  0  0  0  0
  -29.2562  -33.7801   22.7792 C   0  0  0  0  0  0  0  0  0  0  0  0
  -26.2955  -27.6007   19.0473 C   0  0  0  0  0  0  0  0  0  0  0  0
  -29.3790  -32.6429   21.9582 C   0  0  0  0  0  0  0  0  0  0  0  0
  -25.7134  -26.8939   20.1093 C   0  0  0  0  0  0  0  0  0  0  0  0
  -27.6225  -19.4205   20.0755 C   0  0  0  0  0  0  0  0  0  0  0  0
  -26.2099  -21.3253   20.1913 C   0  0  0  0  0  0  0  0  0  0  0  0
  -27.4962  -20.7908   20.1659 C   0  0  0  0  0  0  0  0  0  0  0  0
  -22.5503   -8.0635   21.5457 C   0  0  0  0  0  0  0  0  0  0  0  0
  -26.4824  -24.8078   19.1260 C   0  0  0  0  0  0  0  0  0  0  0  0
  -21.4940   -6.1051   22.3013 C   0  0  0  0  0  0  0  0  0  0  0  0
  -21.3337   -4.0346   24.1640 C   0  0  0  0  0  0  0  0  0  0  0  0
  -21.2755   -6.3942   23.6483 C   0  0  0  0  0  0  0  0  0  0  0  0
  -25.5896  -10.9584   22.0755 C   0  0  0  0  0  0  0  0  0  0  0  0
  -26.4766  -18.6376   20.0144 C   0  0  0  0  0  0  0  0  0  0  0  0
  -26.9818  -12.4372   22.9180 C   0  0  0  0  0  0  0  0  0  0  0  0
  -25.4150  -11.4462   24.5948 C   0  0  0  0  0  0  0  0  0  0  0  0
  -27.1716  -29.7818   21.1873 C   0  0  0  0  0  0  0  0  0  0  0  0
  -23.9987  -29.8304   21.8600 C   0  0  0  0  0  0  0  0  0  0  0  0
  -20.9982  -28.2058   21.7956 C   0  0  0  0  0  0  0  0  0  0  0  0
  -29.1509  -16.1856   19.3957 C   0  0  0  0  0  0  0  0  0  0  0  0
  -28.5672  -33.7203   24.1195 C   0  0  0  0  0  0  0  0  0  0  0  0
  -26.1773  -29.0984   18.9736 C   0  0  0  0  0  0  0  0  0  0  0  0
  -24.9833  -27.5963   21.2237 C   0  0  0  0  0  0  0  0  0  0  0  0
  -28.8443  -18.5741   20.0226 C   0  0  0  0  0  0  0  0  0  0  0  0
  -26.8452  -17.1843   19.9523 C   0  0  0  0  0  0  0  0  0  0  0  0
  -27.6700  -32.4969   24.2891 C   0  0  0  0  0  0  0  0  0  0  0  0
  -29.6673  -12.7601   18.6670 C   0  0  0  0  0  0  0  0  0  0  0  0
  -28.3940  -31.2359   23.8280 C   0  0  0  0  0  0  0  0  0  0  0  0
  -28.6599  -12.0322   19.5524 C   0  0  0  0  0  0  0  0  0  0  0  0
  -29.0798  -14.0613   18.1382 C   0  0  0  0  0  0  0  0  0  0  0  0
  -27.6392  -14.2909   20.1474 C   0  0  0  0  0  0  0  0  0  0  0  0
  -28.7529  -31.3190   22.3394 C   0  0  1  0  0  0  0  0  0  0  0  0
  -25.9358  -29.7464   20.3334 C   0  0  1  0  0  0  0  0  0  0  0  0
  -28.1766  -12.9490   20.6863 C   0  0  1  0  0  0  0  0  0  0  0  0
  -28.7019  -21.6634   20.2329 C   0  0  0  0  0  0  0  0  0  0  0  0
  -18.5921  -28.4856   22.4510 C   0  0  0  0  0  0  0  0  0  0  0  0
  -24.7368  -29.3238   24.7769 C   0  0  0  0  0  0  0  0  0  0  0  0
  -22.3549  -28.6755   25.1945 C   0  0  0  0  0  0  0  0  0  0  0  0
  -22.9019  -30.9892   24.4392 C   0  0  0  0  0  0  0  0  0  0  0  0
  -20.0839  -27.9449   18.9929 C   0  0  0  0  0  0  0  0  0  0  0  0
  -25.9760  -22.7943   20.2859 C   0  0  0  0  0  0  0  0  0  1  0  0
  -23.0937  -29.0729   22.8013 C   0  0  1  0  0  0  0  0  0  0  0  0
  -19.6200  -28.6531   21.3428 C   0  0  2  0  0  0  0  0  0  0  0  0
  -23.2872  -29.5020   24.2831 C   0  0  0  0  0  0  0  0  0  0  0  0
  -25.2187  -19.1059   20.0388 N   0  0  0  0  0  0  0  0  0  0  0  0
  -26.3242  -11.3576   21.0339 N   0  0  0  0  0  0  0  0  0  0  0  0
  -27.1615  -12.2570   21.5781 N   0  0  0  0  0  0  0  0  0  0  0  0
  -24.8999  -29.0618   21.1097 N   0  0  0  0  0  0  0  0  0  0  0  0
  -28.3213  -17.2040   19.8711 N   0  0  0  0  0  0  0  0  0  0  0  0
  -28.5870  -14.9177   19.2182 N   0  0  0  0  0  0  0  0  0  0  0  0
  -27.7392  -13.3047   23.6224 N   0  0  0  0  0  0  0  0  0  0  0  0
  -24.3626  -10.5406   24.7860 N   0  0  0  0  0  0  0  0  0  0  0  0
  -27.5872  -31.0561   21.5230 N   0  0  0  0  0  0  0  0  0  0  0  0
  -21.7365  -29.2561   22.2985 N   0  0  0  0  0  0  0  0  0  0  0  0
  -19.1767  -27.8537   20.1658 N   0  3  0  0  0  0  0  0  0  0  0  0
  -25.8417  -12.1068   25.5721 O   0  0  0  0  0  0  0  0  0  0  0  0
  -27.7076  -28.7306   21.5182 O   0  0  0  0  0  0  0  0  0  0  0  0
  -23.9045  -31.0582   21.7876 O   0  0  0  0  0  0  0  0  0  0  0  0
  -21.3802  -27.0404   21.7149 O   0  0  0  0  0  0  0  0  0  0  0  0
  -30.3307  -16.4106   19.0949 O   0  0  0  0  0  0  0  0  0  0  0  0
  -21.5729   -7.1318   21.3753 O   0  0  0  0  0  0  0  0  0  0  0  0
  -26.5759  -23.4416   19.1701 O   0  0  0  0  0  0  0  0  0  1  0  0
  -21.2553   -3.0403   25.0581 F   0  0  0  0  0  0  0  0  0  0  0  0
  -21.1407   -7.6644   24.0534 F   0  0  0  0  0  0  0  0  0  0  0  0
  1  2  1  0  0  0  0
  1  5  2  0  0  0  0
  2  6  2  0  0  0  0
  3  8  2  0  0  0  0
  3 16  1  0  0  0  0
  4  9  1  0  0  0  0
  4 16  2  0  0  0  0
  5 18  1  0  0  0  0
  6 20  1  0  0  0  0
  7 10  2  0  0  0  0
  7 19  1  0  0  0  0
  8 25  1  0  0  0  0
  9 25  2  0  0  0  0
 10 26  1  0  0  0  0
 11 12  2  0  0  0  0
 11 27  1  0  0  0  0
 12 28  1  0  0  0  0
 13 21  1  0  0  0  0
 13 26  2  0  0  0  0
 14 28  2  0  0  0  0
 14 29  1  0  0  0  0
 15 23  1  0  0  0  0
 15 62  2  0  0  0  0
 16 30  1  0  0  0  0
 17 30  1  0  0  0  0
 17 32  2  0  0  0  0
 17 33  1  0  0  0  0
 18 20  2  0  0  0  0
 18 38  1  0  0  0  0
 19 21  2  0  0  0  0
 19 39  1  0  0  0  0
 20 49  1  0  0  0  0
 21 40  1  0  0  0  0
 22 24  1  0  0  0  0
 22 31  2  0  0  0  0
 22 41  1  0  0  0  0
 23 24  2  0  0  0  0
 23 58  1  0  0  0  0
 24 52  1  0  0  0  0
 25 78  1  0  0  0  0
 26 79  1  0  0  0  0
 27 29  2  0  0  0  0
 27 78  1  0  0  0  0
 28 80  1  0  0  0  0
 29 81  1  0  0  0  0
 30 63  2  0  0  0  0
 31 42  1  0  0  0  0
 31 62  1  0  0  0  0
 32 64  1  0  0  0  0
 32 68  1  0  0  0  0
 33 69  1  0  0  0  0
 33 73  2  0  0  0  0
 34 50  1  0  0  0  0
 34 70  1  0  0  0  0
 34 74  2  0  0  0  0
 35 59  1  0  0  0  0
 35 65  1  0  0  0  0
 35 75  2  0  0  0  0
 36 60  1  0  0  0  0
 36 71  1  0  0  0  0
 36 76  2  0  0  0  0
 37 66  1  0  0  0  0
 37 67  1  0  0  0  0
 37 77  2  0  0  0  0
 38 43  1  0  0  0  0
 39 50  1  0  0  0  0
 40 65  1  0  0  0  0
 41 66  1  0  0  0  0
 42 66  1  0  0  0  0
 43 45  1  0  0  0  0
 44 46  1  0  0  0  0
 44 47  1  0  0  0  0
 45 49  1  0  0  0  0
 46 51  1  0  0  0  0
 47 67  1  0  0  0  0
 48 51  1  0  0  0  0
 48 67  1  0  0  0  0
 49 70  1  0  0  0  0
 50 65  1  0  0  0  0
 51 64  1  0  0  0  0
 53 60  1  0  0  0  0
 54 61  1  0  0  0  0
 55 61  1  0  0  0  0
 56 61  1  0  0  0  0
 57 72  1  0  0  0  0
 58 79  1  0  0  0  0
 59 61  1  0  0  0  0
 59 71  1  0  0  0  0
 60 72  1  0  0  0  0
 63 64  1  0  0  0  0
M  CHG  1  72   1
M  ISO  4  37 100  58 101  66 100  79 101
M  END
> <Batch ID>
0172

> <Smiles>
CNC(C)C(=O)NC(C(=O)N1Cc2cc([101O:1][101CH2:1]c3cnc4c(c3C)C[100N:0]([100C:0](=O)N3CCCC(n5nc(-c6ccc(Oc7ccc(F)cc7F)cc6)c(C(N)=O)c5N)C3)C4)ccc2CC1C(=O)NC1CCCc2ccccc21)C(C)(C)C

> <Shape>
0.280

> <Color>
0.108

> <Negative vol penalty>
0.000

$$$$

  -OEChem-04052322403D

 88 97  0     1  0  0  0  0  0999 V2000
  -22.5718  -20.3401   26.8786 C   0  0  0  0  0  0  0  0  0  0  0  0
  -23.6976  -19.5393   26.7153 C   0  0  0  0  0  0  0  0  0  0  0  0
  -23.1906   -9.8196   19.9316 C   0  0  0  0  0  0  0  0  0  0  0  0
  -23.5707   -9.9994   22.3107 C   0  0  0  0  0  0  0  0  0  0  0  0
  -22.7100  -21.7244   26.9710 C   0  0  0  0  0  0  0  0  0  0  0  0
  -24.9622  -20.1224   26.6432 C   0  0  0  0  0  0  0  0  0  0  0  0
  -28.3908  -17.6806   29.4587 C   0  0  0  0  0  0  0  0  0  0  0  0
  -22.4247   -8.6727   20.1406 C   0  0  0  0  0  0  0  0  0  0  0  0
  -22.8048   -8.8525   22.5198 C   0  0  0  0  0  0  0  0  0  0  0  0
  -28.9147  -16.4974   28.9398 C   0  0  0  0  0  0  0  0  0  0  0  0
  -23.2063   -5.5060   22.2545 C   0  0  0  0  0  0  0  0  0  0  0  0
  -23.7056   -4.5445   23.1330 C   0  0  0  0  0  0  0  0  0  0  0  0
  -28.6787  -14.8563   24.5165 C   0  0  0  0  0  0  0  0  0  0  0  0
  -30.8890  -17.6892   28.2319 C   0  0  0  0  0  0  0  0  0  0  0  0
  -29.5461  -17.4305   23.8811 C   0  0  0  0  0  0  0  0  0  0  0  0
  -21.7501   -4.8037   24.5280 C   0  0  0  0  0  0  0  0  0  0  0  0
  -23.7637  -10.4829   21.0167 C   0  0  0  0  0  0  0  0  0  0  0  0
  -24.1017  -12.9997   20.7733 C   0  0  0  0  0  0  0  0  0  0  0  0
  -23.9778  -22.3241   26.9097 C   0  0  0  0  0  0  0  0  0  0  0  0
  -29.1084  -18.8811   29.3583 C   0  0  0  0  0  0  0  0  0  0  0  0
  -25.1173  -21.5161   26.7335 C   0  0  0  0  0  0  0  0  0  0  0  0
  -30.0337  -15.1763   24.6007 C   0  0  0  0  0  0  0  0  0  0  0  0
  -30.3731  -18.8858   28.7527 C   0  0  0  0  0  0  0  0  0  0  0  0
  -27.7574  -15.8234   24.1144 C   0  0  0  0  0  0  0  0  0  0  0  0
  -28.1911  -17.1105   23.7967 C   0  0  0  0  0  0  0  0  0  0  0  0
  -22.2318   -8.1892   21.4347 C   0  0  0  0  0  0  0  0  0  0  0  0
  -30.1627  -16.5021   28.3237 C   0  0  0  0  0  0  0  0  0  0  0  0
  -21.9790   -6.1164   22.5127 C   0  0  0  0  0  0  0  0  0  0  0  0
  -30.4674  -16.4634   24.2831 C   0  0  0  0  0  0  0  0  0  0  0  0
  -22.9775   -4.1934   24.2698 C   0  0  0  0  0  0  0  0  0  0  0  0
  -21.2509   -5.7653   23.6494 C   0  0  0  0  0  0  0  0  0  0  0  0
  -24.5554  -11.6673   20.8013 C   0  0  0  0  0  0  0  0  0  0  0  0
  -25.2325  -13.7426   20.5373 C   0  0  0  0  0  0  0  0  0  0  0  0
  -22.7765  -13.5193   20.9453 C   0  0  0  0  0  0  0  0  0  0  0  0
  -28.6005  -21.6874   27.9546 C   0  0  0  0  0  0  0  0  0  0  0  0
  -31.3333  -22.5128   29.4949 C   0  0  0  0  0  0  0  0  0  0  0  0
  -34.2619  -21.5148   30.9352 C   0  0  0  0  0  0  0  0  0  0  0  0
  -31.0445  -12.7747   21.5602 C   0  0  0  0  0  0  0  0  0  0  0  0
  -24.0729  -23.8282   26.9668 C   0  0  0  0  0  0  0  0  0  0  0  0
  -28.5411  -20.1437   29.9469 C   0  0  0  0  0  0  0  0  0  0  0  0
  -31.1925  -20.1442   28.6374 C   0  0  0  0  0  0  0  0  0  0  0  0
  -25.4819  -24.3388   27.2573 C   0  0  0  0  0  0  0  0  0  0  0  0
  -29.5202  -13.4687   18.4286 C   0  0  0  0  0  0  0  0  0  0  0  0
  -26.5024  -23.6150   26.3847 C   0  0  0  0  0  0  0  0  0  0  0  0
  -28.0332  -13.2111   18.6784 C   0  0  0  0  0  0  0  0  0  0  0  0
  -31.5620  -12.0131   25.1318 C   0  0  0  0  0  0  0  0  0  0  0  0
  -30.3998  -12.4785   19.1889 C   0  0  0  0  0  0  0  0  0  0  0  0
  -28.6473  -12.1378   20.8856 C   0  0  0  0  0  0  0  0  0  0  0  0
  -31.0370  -14.0987   25.0438 C   0  0  1  0  0  0  0  0  0  0  0  0
  -26.5082  -22.1095   26.6758 C   0  0  1  0  0  0  0  0  0  0  0  0
  -29.1327  -21.4082   29.3317 C   0  0  1  0  0  0  0  0  0  0  0  0
  -30.4956  -12.8731   25.8540 C   0  0  2  0  0  0  0  0  0  0  0  0
  -27.7201  -13.1463   20.1856 C   0  0  2  0  0  0  0  0  0  0  0  0
  -31.5663  -13.0637   23.9999 C   0  0  2  0  0  0  0  0  0  0  0  0
  -26.3117  -15.4576   24.0306 C   0  0  0  0  0  0  0  0  0  0  0  0
  -27.2240  -18.1622   23.3622 C   0  0  0  0  0  0  0  0  0  0  0  0
  -36.3058  -22.4209   32.0749 C   0  0  0  0  0  0  0  0  0  0  0  0
  -30.0578  -11.6672   27.9959 C   0  0  0  0  0  0  0  0  0  0  0  0
  -32.4309  -23.4231   26.7974 C   0  0  0  0  0  0  0  0  0  0  0  0
  -34.7228  -23.4129   27.8050 C   0  0  0  0  0  0  0  0  0  0  0  0
  -32.9714  -24.9415   28.7097 C   0  0  0  0  0  0  0  0  0  0  0  0
  -33.6735  -20.0290   33.4262 C   0  0  0  0  0  0  0  0  0  0  0  0
  -32.1462  -18.1268   24.0174 C   0  0  0  0  0  0  0  0  0  0  0  0
  -29.8823  -14.1704   27.9487 C   0  0  0  0  0  0  0  0  0  1  0  0
  -32.8052  -22.4598   29.1634 C   0  0  1  0  0  0  0  0  0  0  0  0
  -34.9019  -21.8682   32.2656 C   0  0  2  0  0  0  0  0  0  0  0  0
  -30.6110  -12.9523   27.3749 C   0  0  2  0  0  0  0  0  0  0  0  0
  -33.2165  -23.5358   28.1192 C   0  0  0  0  0  0  0  0  0  0  0  0
  -25.8718  -11.5666   20.5991 N   0  0  0  0  0  0  0  0  0  0  0  0
  -26.2550  -12.8450   20.4417 N   0  0  0  0  0  0  0  0  0  0  0  0
  -30.5920  -21.3543   29.2227 N   0  0  0  0  0  0  0  0  0  0  0  0
  -30.0540  -12.4719   20.6126 N   0  0  0  0  0  0  0  0  0  0  0  0
  -25.4421  -15.0696   20.4043 N   0  0  0  0  0  0  0  0  0  0  0  0
  -21.7302  -12.6168   21.1800 N   0  0  0  0  0  0  0  0  0  0  0  0
  -27.2275  -21.8344   27.9012 N   0  0  0  0  0  0  0  0  0  0  0  0
  -33.5138  -22.5593   30.4348 N   0  0  0  0  0  0  0  0  0  0  0  0
  -30.6397  -12.7574   22.8909 N   0  0  0  0  0  0  0  0  0  0  0  0
  -34.9860  -20.6619   33.1367 N   0  3  0  0  0  0  0  0  0  0  0  0
  -22.5250  -14.7463   20.8762 O   0  0  0  0  0  0  0  0  0  0  0  0
  -29.3781  -21.7653   27.0106 O   0  0  0  0  0  0  0  0  0  0  0  0
  -30.8603  -23.5416   29.9843 O   0  0  0  0  0  0  0  0  0  0  0  0
  -34.4137  -20.4226   30.3923 O   0  0  0  0  0  0  0  0  0  0  0  0
  -32.2084  -13.0501   21.2492 O   0  0  0  0  0  0  0  0  0  0  0  0
  -21.4843   -7.0702   21.6391 O   0  0  0  0  0  0  0  0  0  0  0  0
  -31.7878  -16.7893   24.3595 O   0  0  0  0  0  0  0  0  0  0  0  0
  -30.6762  -15.3488   27.8157 O   0  0  0  0  0  0  0  0  0  1  0  0
  -23.4564   -3.2689   25.1125 F   0  0  0  0  0  0  0  0  0  0  0  0
  -20.0706   -6.3474   23.9022 F   0  0  0  0  0  0  0  0  0  0  0  0
  1  2  1  0  0  0  0
  1  5  2  0  0  0  0
  2  6  2  0  0  0  0
  3  8  2  0  0  0  0
  3 17  1  0  0  0  0
  4  9  1  0  0  0  0
  4 17  2  0  0  0  0
  5 19  1  0  0  0  0
  6 21  1  0  0  0  0
  7 10  2  0  0  0  0
  7 20  1  0  0  0  0
  8 26  1  0  0  0  0
  9 26  2  0  0  0  0
 10 27  1  0  0  0  0
 11 12  2  0  0  0  0
 11 28  1  0  0  0  0
 12 30  1  0  0  0  0
 13 22  1  0  0  0  0
 13 24  2  0  0  0  0
 14 23  1  0  0  0  0
 14 27  2  0  0  0  0
 15 25  2  0  0  0  0
 15 29  1  0  0  0  0
 16 30  2  0  0  0  0
 16 31  1  0  0  0  0
 17 32  1  0  0  0  0
 18 32  1  0  0  0  0
 18 33  2  0  0  0  0
 18 34  1  0  0  0  0
 19 21  2  0  0  0  0
 19 39  1  0  0  0  0
 20 23  2  0  0  0  0
 20 40  1  0  0  0  0
 21 50  1  0  0  0  0
 22 29  2  0  0  0  0
 22 49  1  0  0  0  0
 23 41  1  0  0  0  0
 24 25  1  0  0  0  0
 24 55  1  0  0  0  0
 25 56  1  0  0  0  0
 26 84  1  0  0  0  0
 27 86  1  0  0  0  0
 28 31  2  0  0  0  0
 28 84  1  0  0  0  0
 29 85  1  0  0  0  0
 30 87  1  0  0  0  0
 31 88  1  0  0  0  0
 32 69  2  0  0  0  0
 33 70  1  0  0  0  0
 33 73  1  0  0  0  0
 34 74  1  0  0  0  0
 34 79  2  0  0  0  0
 35 51  1  0  0  0  0
 35 75  1  0  0  0  0
 35 80  2  0  0  0  0
 36 65  1  0  0  0  0
 36 71  1  0  0  0  0
 36 81  2  0  0  0  0
 37 66  1  0  0  0  0
 37 76  1  0  0  0  0
 37 82  2  0  0  0  0
 38 72  1  0  0  0  0
 38 77  1  0  0  0  0
 38 83  2  0  0  0  0
 39 42  1  0  0  0  0
 40 51  1  0  0  0  0
 41 71  1  0  0  0  0
 42 44  1  0  0  0  0
 43 45  1  0  0  0  0
 43 47  1  0  0  0  0
 44 50  1  0  0  0  0
 45 53  1  0  0  0  0
 46 52  1  0  0  0  0
 46 54  1  0  0  0  0
 47 72  1  0  0  0  0
 48 53  1  0  0  0  0
 48 72  1  0  0  0  0
 49 52  1  0  0  0  0
 49 54  1  0  0  0  0
 50 75  1  0  0  0  0
 51 71  1  0  0  0  0
 52 67  1  0  0  0  0
 53 70  1  0  0  0  0
 54 77  1  0  0  0  0
 57 66  1  0  0  0  0
 58 67  1  0  0  0  0
 59 68  1  0  0  0  0
 60 68  1  0  0  0  0
 61 68  1  0  0  0  0
 62 78  1  0  0  0  0
 63 85  1  0  0  0  0
 64 67  1  0  0  0  0
 64 86  1  0  0  0  0
 65 68  1  0  0  0  0
 65 76  1  0  0  0  0
 66 78  1  0  0  0  0
 69 70  1  0  0  0  0
M  CHG  1  78   1
M  ISO  4  38 100  64 101  77 100  86 101
M  END
> <Batch ID>
0172

> <Smiles>
CNC(C)C(=O)NC(C(=O)N1Cc2cc([101O:1][101CH2:1]C(C)C3CC([100NH:0][100C:0](=O)N4CCCC(n5nc(-c6ccc(Oc7ccc(F)cc7F)cc6)c(C(N)=O)c5N)C4)C3c3cc(C)c(C)cc3OC)ccc2CC1C(=O)NC1CCCc2ccccc21)C(C)(C)C

> <Shape>
0.143

> <Color>
0.178

> <Negative vol penalty>
0.000

$$$$

  -OEChem-04052322403D

 89100  0     1  0  0  0  0  0999 V2000
  -19.5112  -28.9186   26.1735 C   0  0  0  0  0  0  0  0  0  0  0  0
  -20.8346  -28.6449   25.8431 C   0  0  0  0  0  0  0  0  0  0  0  0
  -22.2030  -10.6318   21.8051 C   0  0  0  0  0  0  0  0  0  0  0  0
  -24.3646   -9.5720   21.6018 C   0  0  0  0  0  0  0  0  0  0  0  0
  -18.4908  -28.6039   25.2770 C   0  0  0  0  0  0  0  0  0  0  0  0
  -21.1383  -28.0553   24.6165 C   0  0  0  0  0  0  0  0  0  0  0  0
  -26.0943  -29.0775   21.1670 C   0  0  0  0  0  0  0  0  0  0  0  0
  -21.5800   -9.4032   21.5857 C   0  0  0  0  0  0  0  0  0  0  0  0
  -23.7417   -8.3434   21.3825 C   0  0  0  0  0  0  0  0  0  0  0  0
  -27.2928  -28.3812   21.0174 C   0  0  0  0  0  0  0  0  0  0  0  0
  -22.2427   -5.9468   23.2345 C   0  0  0  0  0  0  0  0  0  0  0  0
  -22.7398   -4.8384   23.9199 C   0  0  0  0  0  0  0  0  0  0  0  0
  -26.3954  -27.2657   19.0759 C   0  0  0  0  0  0  0  0  0  0  0  0
  -23.2214   -3.7532   21.8158 C   0  0  0  0  0  0  0  0  0  0  0  0
  -29.4716  -21.1508   20.1875 C   0  0  0  0  0  0  0  0  0  0  0  0
  -23.5953  -10.7162   21.8130 C   0  0  0  0  0  0  0  0  0  0  0  0
  -24.6252  -12.5342   23.2765 C   0  0  0  0  0  0  0  0  0  0  0  0
  -18.7829  -28.0190   24.0348 C   0  0  0  0  0  0  0  0  0  0  0  0
  -25.0316  -28.8647   20.2771 C   0  0  0  0  0  0  0  0  0  0  0  0
  -20.1207  -27.7313   23.7031 C   0  0  0  0  0  0  0  0  0  0  0  0
  -25.1853  -27.9624   19.2149 C   0  0  0  0  0  0  0  0  0  0  0  0
  -29.2965  -22.4937   20.4389 C   0  0  0  0  0  0  0  0  0  0  0  0
  -29.8134  -23.2032   19.3269 C   0  0  0  0  0  0  0  0  0  0  0  0
  -22.3493   -8.2590   21.3744 C   0  0  0  0  0  0  0  0  0  0  0  0
  -27.4425  -27.4730   19.9734 C   0  0  0  0  0  0  0  0  0  0  0  0
  -22.2349   -5.9584   21.8397 C   0  0  0  0  0  0  0  0  0  0  0  0
  -23.2292   -3.7416   23.2106 C   0  0  0  0  0  0  0  0  0  0  0  0
  -22.7242   -4.8616   21.1303 C   0  0  0  0  0  0  0  0  0  0  0  0
  -24.2394  -11.9851   22.0390 C   0  0  0  0  0  0  0  0  0  0  0  0
  -30.2885  -22.2723   18.4297 C   0  0  0  0  0  0  0  0  0  0  0  0
  -25.1892  -13.7444   22.9543 C   0  0  0  0  0  0  0  0  0  0  0  0
  -24.4863  -11.9982   24.5990 C   0  0  0  0  0  0  0  0  0  0  0  0
  -22.0548  -27.7854   20.5552 C   0  0  0  0  0  0  0  0  0  0  0  0
  -21.8700  -28.6331   17.4296 C   0  0  0  0  0  0  0  0  0  0  0  0
  -23.4960  -29.2374   14.4906 C   0  0  0  0  0  0  0  0  0  0  0  0
  -28.7158  -16.5971   19.8159 C   0  0  0  0  0  0  0  0  0  0  0  0
  -17.6422  -27.6535   23.1183 C   0  0  0  0  0  0  0  0  0  0  0  0
  -23.7547  -29.6434   20.4363 C   0  0  0  0  0  0  0  0  0  0  0  0
  -24.0820  -27.7128   18.2204 C   0  0  0  0  0  0  0  0  0  0  0  0
  -18.0798  -27.3737   21.6829 C   0  0  0  0  0  0  0  0  0  0  0  0
  -25.2229  -16.3299   18.6298 C   0  0  0  0  0  0  0  0  0  0  0  0
  -29.4457  -24.1086   22.4985 C   0  0  0  0  0  0  0  0  0  0  0  0
  -29.2308  -22.7335   23.0490 C   0  0  0  0  0  0  0  0  0  0  0  0
  -19.3000  -26.4585   21.6654 C   0  0  0  0  0  0  0  0  0  0  0  0
  -24.7136  -15.1720   19.4823 C   0  0  0  0  0  0  0  0  0  0  0  0
  -31.9709  -19.2971   18.1157 C   0  0  0  0  0  0  0  0  0  0  0  0
  -31.5862  -17.8212   18.3299 C   0  0  0  0  0  0  0  0  0  0  0  0
  -29.2089  -25.3268   17.9142 C   0  0  0  0  0  0  0  0  0  0  0  0
  -26.7033  -16.1803   18.2811 C   0  0  0  0  0  0  0  0  0  0  0  0
  -27.0659  -14.8276   20.3289 C   0  0  0  0  0  0  0  0  0  0  0  0
  -28.6629  -23.0914   21.6864 C   0  0  0  0  0  0  0  0  0  0  0  0
  -29.8405  -24.7313   19.1508 C   0  0  1  0  0  0  0  0  0  0  0  0
  -20.4922  -27.1151   22.3718 C   0  0  1  0  0  0  0  0  0  0  0  0
  -22.5566  -28.9681   19.7760 C   0  0  1  0  0  0  0  0  0  0  0  0
  -25.5920  -14.9916   20.7292 C   0  0  2  0  0  0  0  0  0  0  0  0
  -30.4609  -19.6469   18.2840 C   0  0  1  0  0  0  0  0  0  0  0  0
  -30.3666  -18.3336   19.1264 C   0  0  1  0  0  0  0  0  0  0  0  0
  -28.5355  -25.4913   19.2423 C   0  0  1  0  0  0  0  0  0  1  0  0
  -32.4545  -22.5456   17.2003 C   0  0  0  0  0  0  0  0  0  0  0  0
  -23.0735  -29.8748   12.1005 C   0  0  0  0  0  0  0  0  0  0  0  0
  -20.9001  -25.7992   16.8478 C   0  0  0  0  0  0  0  0  0  0  0  0
  -21.4054  -26.1978   14.4283 C   0  0  0  0  0  0  0  0  0  0  0  0
  -19.6947  -27.5933   15.5897 C   0  0  0  0  0  0  0  0  0  0  0  0
  -25.0972  -31.7131   14.7465 C   0  0  0  0  0  0  0  0  0  0  0  0
  -30.9273  -22.4595   17.1098 C   0  0  1  0  0  0  0  0  0  0  0  0
  -22.1430  -27.9407   16.1162 C   0  0  1  0  0  0  0  0  0  0  0  0
  -23.3918  -30.3817   13.4986 C   0  0  2  0  0  0  0  0  0  0  0  0
  -21.0561  -26.8858   15.7652 C   0  0  0  0  0  0  0  0  0  0  0  0
  -24.5333  -12.7813   21.0076 N   0  0  0  0  0  0  0  0  0  0  0  0
  -30.0752  -21.0281   18.9632 N   0  0  0  0  0  0  0  0  0  0  0  0
  -25.1096  -13.8430   21.5963 N   0  0  0  0  0  0  0  0  0  0  0  0
  -22.8504  -28.4938   18.4222 N   0  0  0  0  0  0  0  0  0  0  0  0
  -27.5228  -15.9333   19.4781 N   0  0  0  0  0  0  0  0  0  0  0  0
  -25.7403  -14.7233   23.7030 N   0  0  0  0  0  0  0  0  0  0  0  0
  -23.8838  -10.7419   24.7509 N   0  0  0  0  0  0  0  0  0  0  0  0
  -21.1086  -28.1020   21.5113 N   0  0  0  0  0  0  0  0  0  0  0  0
  -22.2937  -28.9972   15.1214 N   0  0  0  0  0  0  0  0  0  0  0  0
  -29.1460  -17.5683   18.9170 N   0  0  0  0  0  0  0  0  0  0  0  0
  -24.6747  -31.1380   13.4435 N   0  3  0  0  0  0  0  0  0  0  0  0
  -24.8698  -12.6223   25.6173 O   0  0  0  0  0  0  0  0  0  0  0  0
  -22.4924  -26.6682   20.3065 O   0  0  0  0  0  0  0  0  0  0  0  0
  -20.8286  -29.2797   17.5673 O   0  0  0  0  0  0  0  0  0  0  0  0
  -24.5387  -28.6161   14.6837 O   0  0  0  0  0  0  0  0  0  0  0  0
  -29.3599  -16.3428   20.8393 O   0  0  0  0  0  0  0  0  0  0  0  0
  -21.7418   -7.0600   21.1606 O   0  0  0  0  0  0  0  0  0  0  0  0
  -28.6111  -26.7915   19.8255 O   0  0  0  0  0  0  0  0  0  1  0  0
  -23.7079   -2.6778   23.8690 F   0  0  0  0  0  0  0  0  0  0  0  0
  -22.7204   -4.8675   19.7903 F   0  0  0  0  0  0  0  0  0  0  0  0
  -30.6492  -21.4520   16.2120 F   0  0  0  0  0  0  0  0  0  0  0  0
  1  2  1  0  0  0  0
  1  5  2  0  0  0  0
  2  6  2  0  0  0  0
  3  8  2  0  0  0  0
  3 16  1  0  0  0  0
  4  9  1  0  0  0  0
  4 16  2  0  0  0  0
  5 18  1  0  0  0  0
  6 20  1  0  0  0  0
  7 10  2  0  0  0  0
  7 19  1  0  0  0  0
  8 24  1  0  0  0  0
  9 24  2  0  0  0  0
 10 25  1  0  0  0  0
 11 12  2  0  0  0  0
 11 26  1  0  0  0  0
 12 27  1  0  0  0  0
 13 21  1  0  0  0  0
 13 25  2  0  0  0  0
 14 27  2  0  0  0  0
 14 28  1  0  0  0  0
 15 22  2  0  0  0  0
 15 70  1  0  0  0  0
 16 29  1  0  0  0  0
 17 29  1  0  0  0  0
 17 31  2  0  0  0  0
 17 32  1  0  0  0  0
 18 20  2  0  0  0  0
 18 37  1  0  0  0  0
 19 21  2  0  0  0  0
 19 38  1  0  0  0  0
 20 53  1  0  0  0  0
 21 39  1  0  0  0  0
 22 23  1  0  0  0  0
 22 51  1  0  0  0  0
 23 30  2  0  0  0  0
 23 52  1  0  0  0  0
 24 85  1  0  0  0  0
 25 86  1  0  0  0  0
 26 28  2  0  0  0  0
 26 85  1  0  0  0  0
 27 87  1  0  0  0  0
 28 88  1  0  0  0  0
 29 69  2  0  0  0  0
 30 65  1  0  0  0  0
 30 70  1  0  0  0  0
 31 71  1  0  0  0  0
 31 74  1  0  0  0  0
 32 75  1  0  0  0  0
 32 80  2  0  0  0  0
 33 54  1  0  0  0  0
 33 76  1  0  0  0  0
 33 81  2  0  0  0  0
 34 66  1  0  0  0  0
 34 72  1  0  0  0  0
 34 82  2  0  0  0  0
 35 67  1  0  0  0  0
 35 77  1  0  0  0  0
 35 83  2  0  0  0  0
 36 73  1  0  0  0  0
 36 78  1  0  0  0  0
 36 84  2  0  0  0  0
 37 40  1  0  0  0  0
 38 54  1  0  0  0  0
 39 72  1  0  0  0  0
 40 44  1  0  0  0  0
 41 45  1  0  0  0  0
 41 49  1  0  0  0  0
 42 43  1  0  0  0  0
 42 51  1  0  0  0  0
 43 51  1  0  0  0  0
 44 53  1  0  0  0  0
 45 55  1  0  0  0  0
 46 47  1  0  0  0  0
 46 56  1  0  0  0  0
 47 57  1  0  0  0  0
 48 52  1  0  0  0  0
 48 58  1  0  0  0  0
 49 73  1  0  0  0  0
 50 55  1  0  0  0  0
 50 73  1  0  0  0  0
 52 58  1  0  0  0  0
 53 76  1  0  0  0  0
 54 72  1  0  0  0  0
 55 71  1  0  0  0  0
 56 57  1  0  0  0  0
 56 70  1  0  0  0  0
 57 78  1  0  0  0  0
 58 86  1  0  0  0  0
 59 65  1  0  0  0  0
 60 67  1  0  0  0  0
 61 68  1  0  0  0  0
 62 68  1  0  0  0  0
 63 68  1  0  0  0  0
 64 79  1  0  0  0  0
 65 89  1  0  0  0  0
 66 68  1  0  0  0  0
 66 77  1  0  0  0  0
 67 79  1  0  0  0  0
 69 71  1  0  0  0  0
M  CHG  1  79   1
M  ISO  4  36 100  58 101  78 100  86 101
M  END
> <Batch ID>
0172

> <Smiles>
CNC(C)C(=O)NC(C(=O)N1Cc2cc([101O:1][101CH:1]3CC3c3c(C4CC4)cn(C4CCC4[100NH:0][100C:0](=O)N4CCCC(n5nc(-c6ccc(Oc7ccc(F)cc7F)cc6)c(C(N)=O)c5N)C4)c3C(C)F)ccc2CC1C(=O)NC1CCCc2ccccc21)C(C)(C)C

> <Shape>
0.263

> <Color>
0.094

> <Negative vol penalty>
0.000

$$$$

  -OEChem-04052322403D

 89100  0     1  0  0  0  0  0999 V2000
  -32.4195  -13.5804   20.7703 C   0  0  0  0  0  0  0  0  0  0  0  0
  -31.7049  -14.7577   20.9673 C   0  0  0  0  0  0  0  0  0  0  0  0
  -26.0984  -27.5023   20.9658 C   0  0  0  0  0  0  0  0  0  0  0  0
  -26.4239  -28.8623   18.9957 C   0  0  0  0  0  0  0  0  0  0  0  0
  -31.7824  -12.4604   20.2376 C   0  0  0  0  0  0  0  0  0  0  0  0
  -30.3530  -14.8160   20.6307 C   0  0  0  0  0  0  0  0  0  0  0  0
  -25.9733  -17.9759   23.5184 C   0  0  0  0  0  0  0  0  0  0  0  0
  -24.9999  -28.2838   21.3239 C   0  0  0  0  0  0  0  0  0  0  0  0
  -25.3254  -29.6438   19.3537 C   0  0  0  0  0  0  0  0  0  0  0  0
  -25.3825  -19.2119   23.2592 C   0  0  0  0  0  0  0  0  0  0  0  0
  -24.4469  -31.2924   22.7617 C   0  0  0  0  0  0  0  0  0  0  0  0
  -24.3453  -31.6950   24.0933 C   0  0  0  0  0  0  0  0  0  0  0  0
  -23.5729  -18.1003   22.1151 C   0  0  0  0  0  0  0  0  0  0  0  0
  -22.7088  -24.4931   20.8648 C   0  0  0  0  0  0  0  0  0  0  0  0
  -22.2279  -30.5464   24.2791 C   0  0  0  0  0  0  0  0  0  0  0  0
  -26.8104  -27.7915   19.8018 C   0  0  0  0  0  0  0  0  0  0  0  0
  -29.1240  -26.7838   20.1749 C   0  0  0  0  0  0  0  0  0  0  0  0
  -30.4196  -12.5021   19.9034 C   0  0  0  0  0  0  0  0  0  0  0  0
  -25.3728  -16.7915   23.0676 C   0  0  0  0  0  0  0  0  0  0  0  0
  -29.6974  -13.6960   20.0918 C   0  0  0  0  0  0  0  0  0  0  0  0
  -24.1567  -16.8504   22.3721 C   0  0  0  0  0  0  0  0  0  0  0  0
  -23.4570  -23.3565   21.1507 C   0  0  0  0  0  0  0  0  0  0  0  0
  -23.4864  -22.8585   22.4485 C   0  0  0  0  0  0  0  0  0  0  0  0
  -24.6135  -29.3546   20.5178 C   0  0  0  0  0  0  0  0  0  0  0  0
  -24.1837  -19.2744   22.5550 C   0  0  0  0  0  0  0  0  0  0  0  0
  -23.4389  -30.5169   22.1887 C   0  0  0  0  0  0  0  0  0  0  0  0
  -23.2359  -31.3220   24.8520 C   0  0  0  0  0  0  0  0  0  0  0  0
  -22.3294  -30.1439   22.9474 C   0  0  0  0  0  0  0  0  0  0  0  0
  -27.9455  -26.9849   19.4317 C   0  0  0  0  0  0  0  0  0  0  0  0
  -22.7561  -23.5284   23.4169 C   0  0  0  0  0  0  0  0  0  0  0  0
  -22.0131  -25.0897   21.9040 C   0  0  0  0  0  0  0  0  0  0  0  0
  -29.8823  -25.9445   19.3958 C   0  0  0  0  0  0  0  0  0  0  0  0
  -29.4997  -27.3087   21.4552 C   0  0  0  0  0  0  0  0  0  0  0  0
  -26.2193  -14.4655   21.0734 C   0  0  0  0  0  0  0  0  0  0  0  0
  -23.4735  -13.0953   22.1249 C   0  0  0  0  0  0  0  0  0  0  0  0
  -20.3788  -13.4979   23.5060 C   0  0  0  0  0  0  0  0  0  0  0  0
  -27.1144  -22.0015   17.5704 C   0  0  0  0  0  0  0  0  0  0  0  0
  -29.7858  -11.2805   19.2864 C   0  0  0  0  0  0  0  0  0  0  0  0
  -26.0090  -15.4645   23.3786 C   0  0  0  0  0  0  0  0  0  0  0  0
  -23.4613  -15.6068   21.8841 C   0  0  0  0  0  0  0  0  0  0  0  0
  -28.2597  -11.3108   19.3054 C   0  0  0  0  0  0  0  0  0  0  0  0
  -27.5192  -25.1098   15.5351 C   0  0  0  0  0  0  0  0  0  0  0  0
  -27.7467  -12.6676   18.8336 C   0  0  0  0  0  0  0  0  0  0  0  0
  -28.9988  -25.4153   15.7597 C   0  0  0  0  0  0  0  0  0  0  0  0
  -24.4728  -20.3588   18.8822 C   0  0  0  0  0  0  0  0  0  0  0  0
  -22.4621  -24.0001   25.9419 C   0  0  0  0  0  0  0  0  0  0  0  0
  -27.2531  -23.6145   15.6363 C   0  0  0  0  0  0  0  0  0  0  0  0
  -25.0949  -20.5741   17.5065 C   0  0  0  0  0  0  0  0  0  0  0  0
  -24.7906  -23.0277   17.5051 C   0  0  0  0  0  0  0  0  0  0  0  0
  -29.1591  -23.3346   17.1930 C   0  0  0  0  0  0  0  0  0  0  0  0
  -24.2266  -22.6821   20.0389 C   0  0  1  0  0  0  0  0  0  0  0  0
  -28.2235  -13.7909   19.7623 C   0  0  1  0  0  0  0  0  0  0  0  0
  -22.7567  -23.0300   24.8263 C   0  0  2  0  0  0  0  0  0  0  0  0
  -25.5738  -14.3554   22.4258 C   0  0  1  0  0  0  0  0  0  0  0  0
  -23.6075  -21.5172   19.2829 C   0  0  1  0  0  0  0  0  0  0  0  0
  -23.7800  -22.8498   18.6015 C   0  0  2  0  0  0  0  0  0  0  0  0
  -23.8564  -23.4802   25.7558 C   0  0  2  0  0  0  0  0  0  0  0  0
  -29.5240  -24.8299   17.0864 C   0  0  2  0  0  0  0  0  0  0  0  0
  -21.2008  -26.3119   21.6338 C   0  0  0  0  0  0  0  0  0  0  0  0
  -24.4350  -22.5213   26.7387 C   0  0  0  0  0  0  0  0  0  0  0  0
  -18.3516  -12.1972   24.2103 C   0  0  0  0  0  0  0  0  0  0  0  0
  -22.6430  -12.8120   19.2026 C   0  0  0  0  0  0  0  0  0  0  0  0
  -20.2971  -12.4123   19.9806 C   0  0  0  0  0  0  0  0  0  0  0  0
  -22.1126  -10.8315   20.6346 C   0  0  0  0  0  0  0  0  0  0  0  0
  -20.6661  -14.3533   26.3246 C   0  0  0  0  0  0  0  0  0  0  0  0
  -24.2801  -21.6397   22.7829 C   0  0  0  0  0  0  0  0  0  1  0  0
  -22.0282  -13.1272   21.6903 C   0  0  1  0  0  0  0  0  0  0  0  0
  -19.6853  -12.7807   24.6501 C   0  0  2  0  0  0  0  0  0  0  0  0
  -21.7841  -12.3195   20.3844 C   0  0  0  0  0  0  0  0  0  0  0  0
  -27.9502  -26.3265   18.2695 N   0  0  0  0  0  0  0  0  0  0  0  0
  -22.0176  -24.6351   23.1772 N   0  0  0  0  0  0  0  0  0  0  0  0
  -29.1410  -25.7036   18.2767 N   0  0  0  0  0  0  0  0  0  0  0  0
  -24.1261  -14.3336   22.2074 N   0  0  0  0  0  0  0  0  0  0  0  0
  -27.7472  -23.0640   16.9032 N   0  0  0  0  0  0  0  0  0  0  0  0
  -25.7226  -21.8933   17.4246 N   0  0  0  0  0  0  0  0  0  0  0  0
  -31.1044  -25.3966   19.5656 N   0  0  0  0  0  0  0  0  0  0  0  0
  -30.1883  -28.5285   21.5013 N   0  0  0  0  0  0  0  0  0  0  0  0
  -27.4337  -13.8137   20.9748 N   0  0  0  0  0  0  0  0  0  0  0  0
  -21.2480  -12.6653   22.8333 N   0  0  0  0  0  0  0  0  0  0  0  0
  -19.4370  -13.7232   25.7776 N   0  3  0  0  0  0  0  0  0  0  0  0
  -29.2470  -26.7055   22.5256 O   0  0  0  0  0  0  0  0  0  0  0  0
  -25.6564  -15.0941   20.1847 O   0  0  0  0  0  0  0  0  0  0  0  0
  -24.0020  -12.0124   22.3886 O   0  0  0  0  0  0  0  0  0  0  0  0
  -20.1676  -14.6777   23.2337 O   0  0  0  0  0  0  0  0  0  0  0  0
  -27.7545  -21.2064   18.2704 O   0  0  0  0  0  0  0  0  0  0  0  0
  -23.5415  -30.1173   20.8668 O   0  0  0  0  0  0  0  0  0  0  0  0
  -23.6012  -20.4880   22.2983 O   0  0  0  0  0  0  0  0  0  1  0  0
  -23.1393  -31.7073   26.1312 F   0  0  0  0  0  0  0  0  0  0  0  0
  -21.3585  -29.3979   22.4028 F   0  0  0  0  0  0  0  0  0  0  0  0
  1  2  1  0  0  0  0
  1  5  2  0  0  0  0
  2  6  2  0  0  0  0
  3  8  2  0  0  0  0
  3 16  1  0  0  0  0
  4  9  1  0  0  0  0
  4 16  2  0  0  0  0
  5 18  1  0  0  0  0
  6 20  1  0  0  0  0
  7 10  2  0  0  0  0
  7 19  1  0  0  0  0
  8 24  1  0  0  0  0
  9 24  2  0  0  0  0
 10 25  1  0  0  0  0
 11 12  2  0  0  0  0
 11 26  1  0  0  0  0
 12 27  1  0  0  0  0
 13 21  1  0  0  0  0
 13 25  2  0  0  0  0
 14 22  2  0  0  0  0
 14 31  1  0  0  0  0
 15 27  2  0  0  0  0
 15 28  1  0  0  0  0
 16 29  1  0  0  0  0
 17 29  1  0  0  0  0
 17 32  2  0  0  0  0
 17 33  1  0  0  0  0
 18 20  2  0  0  0  0
 18 38  1  0  0  0  0
 19 21  2  0  0  0  0
 19 39  1  0  0  0  0
 20 52  1  0  0  0  0
 21 40  1  0  0  0  0
 22 23  1  0  0  0  0
 22 51  1  0  0  0  0
 23 30  2  0  0  0  0
 23 66  1  0  0  0  0
 24 86  1  0  0  0  0
 25 87  1  0  0  0  0
 26 28  2  0  0  0  0
 26 86  1  0  0  0  0
 27 88  1  0  0  0  0
 28 89  1  0  0  0  0
 29 70  2  0  0  0  0
 30 53  1  0  0  0  0
 30 71  1  0  0  0  0
 31 59  1  0  0  0  0
 31 71  2  0  0  0  0
 32 72  1  0  0  0  0
 32 76  1  0  0  0  0
 33 77  1  0  0  0  0
 33 81  2  0  0  0  0
 34 54  1  0  0  0  0
 34 78  1  0  0  0  0
 34 82  2  0  0  0  0
 35 67  1  0  0  0  0
 35 73  1  0  0  0  0
 35 83  2  0  0  0  0
 36 68  1  0  0  0  0
 36 79  1  0  0  0  0
 36 84  2  0  0  0  0
 37 74  1  0  0  0  0
 37 75  1  0  0  0  0
 37 85  2  0  0  0  0
 38 41  1  0  0  0  0
 39 54  1  0  0  0  0
 40 73  1  0  0  0  0
 41 43  1  0  0  0  0
 42 44  1  0  0  0  0
 42 47  1  0  0  0  0
 43 52  1  0  0  0  0
 44 58  1  0  0  0  0
 45 48  1  0  0  0  0
 45 55  1  0  0  0  0
 46 53  1  0  0  0  0
 46 57  1  0  0  0  0
 47 74  1  0  0  0  0
 48 75  1  0  0  0  0
 49 56  1  0  0  0  0
 49 75  1  0  0  0  0
 50 58  1  0  0  0  0
 50 74  1  0  0  0  0
 51 55  1  0  0  0  0
 51 56  1  0  0  0  0
 52 78  1  0  0  0  0
 53 57  1  0  0  0  0
 54 73  1  0  0  0  0
 55 56  1  0  0  0  0
 57 60  1  0  0  0  0
 58 72  1  0  0  0  0
 61 68  1  0  0  0  0
 62 69  1  0  0  0  0
 63 69  1  0  0  0  0
 64 69  1  0  0  0  0
 65 80  1  0  0  0  0
 66 87  1  0  0  0  0
 67 69  1  0  0  0  0
 67 79  1  0  0  0  0
 68 80  1  0  0  0  0
 70 72  1  0  0  0  0
M  CHG  1  80   1
M  ISO  4  37 100  66 101  75 100  87 101
M  END
> <Batch ID>
0172

> <Smiles>
CNC(C)C(=O)NC(C(=O)N1Cc2cc([101O:1][101CH2:1]c3c(C4C5CC[100N:0]([100C:0](=O)N6CCCC(n7nc(-c8ccc(Oc9ccc(F)cc9F)cc8)c(C(N)=O)c7N)C6)CC54)cc(C)nc3C3CC3C)ccc2CC1C(=O)NC1CCCc2ccccc21)C(C)(C)C

> <Shape>
0.216

> <Color>
0.071

> <Negative vol penalty>
0.000

$$$$

  -OEChem-04052322403D

 84 93  0     1  0  0  0  0  0999 V2000
  -25.7695  -38.4227   20.3929 C   0  0  0  0  0  0  0  0  0  0  0  0
  -26.4466  -37.3882   19.7551 C   0  0  0  0  0  0  0  0  0  0  0  0
  -25.3614   -9.5118   18.9436 C   0  0  0  0  0  0  0  0  0  0  0  0
  -26.5520   -9.3285   21.0379 C   0  0  0  0  0  0  0  0  0  0  0  0
  -25.1702  -38.2022   21.6323 C   0  0  0  0  0  0  0  0  0  0  0  0
  -26.5255  -36.1328   20.3568 C   0  0  0  0  0  0  0  0  0  0  0  0
  -26.7651  -29.1627   18.7207 C   0  0  0  0  0  0  0  0  0  0  0  0
  -25.7429   -8.2116   18.6129 C   0  0  0  0  0  0  0  0  0  0  0  0
  -26.9334   -8.0282   20.7072 C   0  0  0  0  0  0  0  0  0  0  0  0
  -27.5262  -28.0225   18.9740 C   0  0  0  0  0  0  0  0  0  0  0  0
  -26.1021   -4.8117   17.3771 C   0  0  0  0  0  0  0  0  0  0  0  0
  -25.1282   -3.9649   16.8479 C   0  0  0  0  0  0  0  0  0  0  0  0
  -26.3849  -27.7358   21.0798 C   0  0  0  0  0  0  0  0  0  0  0  0
  -29.4195  -22.1162   21.1073 C   0  0  0  0  0  0  0  0  0  0  0  0
  -23.8173   -4.2140   18.8620 C   0  0  0  0  0  0  0  0  0  0  0  0
  -25.7660  -10.0703   20.1561 C   0  0  0  0  0  0  0  0  0  0  0  0
  -24.2136  -11.8095   21.1919 C   0  0  0  0  0  0  0  0  0  0  0  0
  -25.2336  -36.9408   22.2451 C   0  0  0  0  0  0  0  0  0  0  0  0
  -25.8142  -29.6050   19.6516 C   0  0  0  0  0  0  0  0  0  0  0  0
  -25.9276  -35.8956   21.6062 C   0  0  0  0  0  0  0  0  0  0  0  0
  -25.6112  -28.8805   20.8348 C   0  0  0  0  0  0  0  0  0  0  0  0
  -28.5453  -23.1912   20.9906 C   0  0  0  0  0  0  0  0  0  0  0  0
  -28.7648  -24.3429   21.7380 C   0  0  0  0  0  0  0  0  0  0  0  0
  -26.5289   -7.4697   19.4947 C   0  0  0  0  0  0  0  0  0  0  0  0
  -27.3383  -27.3105   20.1551 C   0  0  0  0  0  0  0  0  0  0  0  0
  -25.9337   -5.3596   18.6488 C   0  0  0  0  0  0  0  0  0  0  0  0
  -23.9858   -3.6661   17.5904 C   0  0  0  0  0  0  0  0  0  0  0  0
  -24.7913   -5.0608   19.3912 C   0  0  0  0  0  0  0  0  0  0  0  0
  -25.3727  -11.4136   20.4981 C   0  0  0  0  0  0  0  0  0  0  0  0
  -29.8641  -24.3693   22.5810 C   0  0  0  0  0  0  0  0  0  0  0  0
  -30.4896  -22.2424   21.9784 C   0  0  0  0  0  0  0  0  0  0  0  0
  -24.3051  -13.1782   21.2606 C   0  0  0  0  0  0  0  0  0  0  0  0
  -23.1492  -11.0113   21.7265 C   0  0  0  0  0  0  0  0  0  0  0  0
  -25.4304  -32.2408   21.3863 C   0  0  0  0  0  0  0  0  0  0  0  0
  -22.6149  -30.8396   22.1810 C   0  0  0  0  0  0  0  0  0  0  0  0
  -20.7952  -27.9703   22.5008 C   0  0  0  0  0  0  0  0  0  0  0  0
  -28.9441  -16.8171   21.1844 C   0  0  0  0  0  0  0  0  0  0  0  0
  -24.6107  -36.7633   23.6072 C   0  0  0  0  0  0  0  0  0  0  0  0
  -24.9824  -30.8218   19.3512 C   0  0  0  0  0  0  0  0  0  0  0  0
  -24.5888  -29.3021   21.8573 C   0  0  0  0  0  0  0  0  0  0  0  0
  -24.4196  -35.3017   24.0037 C   0  0  0  0  0  0  0  0  0  0  0  0
  -26.1272  -16.9317   18.9168 C   0  0  0  0  0  0  0  0  0  0  0  0
  -25.6844  -34.5000   23.7131 C   0  0  0  0  0  0  0  0  0  0  0  0
  -25.5033  -15.5530   19.1399 C   0  0  0  0  0  0  0  0  0  0  0  0
  -31.7732  -18.6305   21.8186 C   0  0  0  0  0  0  0  0  0  0  0  0
  -27.6511  -16.8642   18.9633 C   0  0  0  0  0  0  0  0  0  0  0  0
  -27.5813  -14.8903   20.4355 C   0  0  0  0  0  0  0  0  0  0  0  0
  -26.0138  -34.5130   22.2155 C   0  0  1  0  0  0  0  0  0  0  0  0
  -24.4031  -31.4734   20.6031 C   0  0  1  0  0  0  0  0  0  0  0  0
  -26.0419  -14.8962   20.4245 C   0  0  2  0  0  0  0  0  0  0  0  0
  -31.1924  -19.9331   21.3470 C   0  0  1  0  0  0  0  0  0  0  0  0
  -30.2839  -18.8368   21.8420 C   0  0  1  0  0  0  0  0  0  0  0  0
  -27.3824  -23.0854   20.0603 C   0  0  0  0  0  0  0  0  0  0  0  0
  -30.1501  -25.5794   23.4089 C   0  0  0  0  0  0  0  0  0  0  0  0
  -18.5358  -27.1391   23.2090 C   0  0  0  0  0  0  0  0  0  0  0  0
  -23.3938  -31.2222   25.1062 C   0  0  0  0  0  0  0  0  0  0  0  0
  -21.6180  -29.5686   25.7229 C   0  0  0  0  0  0  0  0  0  0  0  0
  -20.9937  -31.7037   24.5942 C   0  0  0  0  0  0  0  0  0  0  0  0
  -20.2332  -26.8607   19.8153 C   0  0  0  0  0  0  0  0  0  0  0  0
  -27.8355  -25.5165   21.6350 C   0  0  0  0  0  0  0  0  0  1  0  0
  -22.1598  -29.8951   23.2672 C   0  0  1  0  0  0  0  0  0  0  0  0
  -19.3927  -27.6108   22.0446 C   0  0  2  0  0  0  0  0  0  0  0  0
  -22.0620  -30.5903   24.6544 C   0  0  0  0  0  0  0  0  0  0  0  0
  -26.1440  -12.4473   20.1507 N   0  0  0  0  0  0  0  0  0  0  0  0
  -30.7353  -23.3451   22.7209 N   0  0  0  0  0  0  0  0  0  0  0  0
  -25.4681  -13.5062   20.6281 N   0  0  0  0  0  0  0  0  0  0  0  0
  -23.8047  -30.5019   21.5207 N   0  0  0  0  0  0  0  0  0  0  0  0
  -28.0989  -16.2460   20.2197 N   0  0  0  0  0  0  0  0  0  0  0  0
  -23.5034  -14.1211   21.7997 N   0  0  0  0  0  0  0  0  0  0  0  0
  -23.2126   -9.6202   21.5678 N   0  0  0  0  0  0  0  0  0  0  0  0
  -31.3718  -21.1390   22.0878 N   0  0  0  0  0  0  0  0  0  0  0  0
  -25.1573  -33.5905   21.5015 N   0  0  0  0  0  0  0  0  0  0  0  0
  -20.9065  -29.3113   22.8017 N   0  0  0  0  0  0  0  0  0  0  0  0
  -29.3944  -18.1054   20.9163 N   0  0  0  0  0  0  0  0  0  0  0  0
  -19.4419  -26.5235   21.0265 N   0  3  0  0  0  0  0  0  0  0  0  0
  -22.1628  -11.5180   22.3128 O   0  0  0  0  0  0  0  0  0  0  0  0
  -26.3984  -31.6517   21.8529 O   0  0  0  0  0  0  0  0  0  0  0  0
  -21.9357  -31.8365   21.9229 O   0  0  0  0  0  0  0  0  0  0  0  0
  -21.7005  -27.1433   22.5856 O   0  0  0  0  0  0  0  0  0  0  0  0
  -29.2745  -16.2278   22.2193 O   0  0  0  0  0  0  0  0  0  0  0  0
  -26.9011   -6.2008   19.1724 O   0  0  0  0  0  0  0  0  0  0  0  0
  -28.0804  -26.1975   20.4051 O   0  0  0  0  0  0  0  0  0  1  0  0
  -23.0499   -2.8541   17.0815 F   0  0  0  0  0  0  0  0  0  0  0  0
  -24.6233   -5.5851   20.6130 F   0  0  0  0  0  0  0  0  0  0  0  0
  1  2  1  0  0  0  0
  1  5  2  0  0  0  0
  2  6  2  0  0  0  0
  3  8  2  0  0  0  0
  3 16  1  0  0  0  0
  4  9  1  0  0  0  0
  4 16  2  0  0  0  0
  5 18  1  0  0  0  0
  6 20  1  0  0  0  0
  7 10  2  0  0  0  0
  7 19  1  0  0  0  0
  8 24  1  0  0  0  0
  9 24  2  0  0  0  0
 10 25  1  0  0  0  0
 11 12  2  0  0  0  0
 11 26  1  0  0  0  0
 12 27  1  0  0  0  0
 13 21  1  0  0  0  0
 13 25  2  0  0  0  0
 14 22  2  0  0  0  0
 14 31  1  0  0  0  0
 15 27  2  0  0  0  0
 15 28  1  0  0  0  0
 16 29  1  0  0  0  0
 17 29  1  0  0  0  0
 17 32  2  0  0  0  0
 17 33  1  0  0  0  0
 18 20  2  0  0  0  0
 18 38  1  0  0  0  0
 19 21  2  0  0  0  0
 19 39  1  0  0  0  0
 20 48  1  0  0  0  0
 21 40  1  0  0  0  0
 22 23  1  0  0  0  0
 22 53  1  0  0  0  0
 23 30  2  0  0  0  0
 23 60  1  0  0  0  0
 24 81  1  0  0  0  0
 25 82  1  0  0  0  0
 26 28  2  0  0  0  0
 26 81  1  0  0  0  0
 27 83  1  0  0  0  0
 28 84  1  0  0  0  0
 29 64  2  0  0  0  0
 30 54  1  0  0  0  0
 30 65  1  0  0  0  0
 31 65  2  0  0  0  0
 31 71  1  0  0  0  0
 32 66  1  0  0  0  0
 32 69  1  0  0  0  0
 33 70  1  0  0  0  0
 33 76  2  0  0  0  0
 34 49  1  0  0  0  0
 34 72  1  0  0  0  0
 34 77  2  0  0  0  0
 35 61  1  0  0  0  0
 35 67  1  0  0  0  0
 35 78  2  0  0  0  0
 36 62  1  0  0  0  0
 36 73  1  0  0  0  0
 36 79  2  0  0  0  0
 37 68  1  0  0  0  0
 37 74  1  0  0  0  0
 37 80  2  0  0  0  0
 38 41  1  0  0  0  0
 39 49  1  0  0  0  0
 40 67  1  0  0  0  0
 41 43  1  0  0  0  0
 42 44  1  0  0  0  0
 42 46  1  0  0  0  0
 43 48  1  0  0  0  0
 44 50  1  0  0  0  0
 45 51  1  0  0  0  0
 45 52  1  0  0  0  0
 46 68  1  0  0  0  0
 47 50  1  0  0  0  0
 47 68  1  0  0  0  0
 48 72  1  0  0  0  0
 49 67  1  0  0  0  0
 50 66  1  0  0  0  0
 51 52  1  0  0  0  0
 51 71  1  0  0  0  0
 52 74  1  0  0  0  0
 55 62  1  0  0  0  0
 56 63  1  0  0  0  0
 57 63  1  0  0  0  0
 58 63  1  0  0  0  0
 59 75  1  0  0  0  0
 60 82  1  0  0  0  0
 61 63  1  0  0  0  0
 61 73  1  0  0  0  0
 62 75  1  0  0  0  0
 64 66  1  0  0  0  0
M  CHG  1  75   1
M  ISO  4  37 100  60 101  74 100  82 101
M  END
> <Batch ID>
0172

> <Smiles>
CNC(C)C(=O)NC(C(=O)N1Cc2cc([101O:1][101CH2:1]c3c(C)cc(NC4CC4[100NH:0][100C:0](=O)N4CCCC(n5nc(-c6ccc(Oc7ccc(F)cc7F)cc6)c(C(N)=O)c5N)C4)nc3C)ccc2CC1C(=O)NC1CCCc2ccccc21)C(C)(C)C

> <Shape>
0.255

> <Color>
0.082

> <Negative vol penalty>
0.000

$$$$

  -OEChem-04052322403D

 84 94  0     1  0  0  0  0  0999 V2000
  -17.7121  -27.8236   19.5648 C   0  0  0  0  0  0  0  0  0  0  0  0
  -19.0096  -27.9737   19.0858 C   0  0  0  0  0  0  0  0  0  0  0  0
  -26.7508  -10.7030   21.5195 C   0  0  0  0  0  0  0  0  0  0  0  0
  -26.3834  -10.2481   19.1754 C   0  0  0  0  0  0  0  0  0  0  0  0
  -17.3550  -28.3785   20.7930 C   0  0  0  0  0  0  0  0  0  0  0  0
  -19.9506  -28.6799   19.8344 C   0  0  0  0  0  0  0  0  0  0  0  0
  -24.4287  -26.3248   20.0457 C   0  0  0  0  0  0  0  0  0  0  0  0
  -25.8373   -9.7043   21.8566 C   0  0  0  0  0  0  0  0  0  0  0  0
  -25.4698   -9.2493   19.5124 C   0  0  0  0  0  0  0  0  0  0  0  0
  -25.2543  -26.4251   18.9268 C   0  0  0  0  0  0  0  0  0  0  0  0
  -22.7725   -6.8248   19.7485 C   0  0  0  0  0  0  0  0  0  0  0  0
  -21.5695   -6.7819   19.0439 C   0  0  0  0  0  0  0  0  0  0  0  0
  -28.7781  -23.8791   19.2672 C   0  0  0  0  0  0  0  0  0  0  0  0
  -31.2048  -22.8745   18.3371 C   0  0  0  0  0  0  0  0  0  0  0  0
  -26.5275  -28.1526   20.0284 C   0  0  0  0  0  0  0  0  0  0  0  0
  -21.0423   -9.0123   19.8085 C   0  0  0  0  0  0  0  0  0  0  0  0
  -27.0238  -10.9750   20.1789 C   0  0  0  0  0  0  0  0  0  0  0  0
  -29.3543  -11.8619   19.6406 C   0  0  0  0  0  0  0  0  0  0  0  0
  -18.2947  -29.0836   21.5615 C   0  0  0  0  0  0  0  0  0  0  0  0
  -24.6400  -27.1467   21.1621 C   0  0  0  0  0  0  0  0  0  0  0  0
  -19.6054  -29.2459   21.0734 C   0  0  0  0  0  0  0  0  0  0  0  0
  -29.1646  -22.5766   19.6134 C   0  0  0  0  0  0  0  0  0  0  0  0
  -29.6018  -24.6737   18.4707 C   0  0  0  0  0  0  0  0  0  0  0  0
  -30.3812  -22.0627   19.1306 C   0  0  0  0  0  0  0  0  0  0  0  0
  -25.7048  -28.0590   21.1613 C   0  0  0  0  0  0  0  0  0  0  0  0
  -30.8156  -24.1726   18.0081 C   0  0  0  0  0  0  0  0  0  0  0  0
  -25.1968   -8.9774   20.8530 C   0  0  0  0  0  0  0  0  0  0  0  0
  -26.3021  -27.3411   18.9168 C   0  0  0  0  0  0  0  0  0  0  0  0
  -23.1104   -7.9613   20.4832 C   0  0  0  0  0  0  0  0  0  0  0  0
  -20.7044   -7.8757   19.0739 C   0  0  0  0  0  0  0  0  0  0  0  0
  -22.2453   -9.0551   20.5131 C   0  0  0  0  0  0  0  0  0  0  0  0
  -27.9670  -12.0070   19.8301 C   0  0  0  0  0  0  0  0  0  0  0  0
  -29.7919  -13.1252   19.3260 C   0  0  0  0  0  0  0  0  0  0  0  0
  -30.1743  -10.6899   19.7400 C   0  0  0  0  0  0  0  0  0  0  0  0
  -22.9393  -29.3748   22.6612 C   0  0  0  0  0  0  0  0  0  0  0  0
  -25.3986  -29.2762   24.7742 C   0  0  0  0  0  0  0  0  0  0  0  0
  -28.6787  -28.5467   25.3703 C   0  0  0  0  0  0  0  0  0  0  0  0
  -29.9562  -18.4476   20.0659 C   0  0  0  0  0  0  0  0  0  0  0  0
  -17.8494  -29.7060   22.8610 C   0  0  0  0  0  0  0  0  0  0  0  0
  -23.7570  -27.0076   22.3718 C   0  0  0  0  0  0  0  0  0  0  0  0
  -28.2449  -21.7276   20.4528 C   0  0  0  0  0  0  0  0  0  0  0  0
  -30.8403  -20.6711   19.4812 C   0  0  0  0  0  0  0  0  0  0  0  0
  -25.9864  -28.9501   22.3425 C   0  0  0  0  0  0  0  0  0  0  0  0
  -19.0067  -30.1189   23.7668 C   0  0  0  0  0  0  0  0  0  0  0  0
  -27.2239  -17.3148   18.1613 C   0  0  0  0  0  0  0  0  0  0  0  0
  -20.0672  -30.8708   22.9688 C   0  0  0  0  0  0  0  0  0  0  0  0
  -27.2813  -15.8087   18.4131 C   0  0  0  0  0  0  0  0  0  0  0  0
  -29.0928  -26.4634   16.6782 C   0  0  0  0  0  0  0  0  0  0  0  0
  -28.9620  -20.5369   21.0803 C   0  0  0  0  0  0  0  0  0  0  0  0
  -27.5267  -18.1196   19.4264 C   0  0  0  0  0  0  0  0  0  0  0  0
  -28.8590  -16.2435   20.3336 C   0  0  0  0  0  0  0  0  0  0  0  0
  -29.1622  -26.0580   18.1267 C   0  0  1  0  0  0  0  0  0  0  0  0
  -20.6611  -29.9838   21.8678 C   0  0  1  0  0  0  0  0  0  0  0  0
  -23.7477  -28.2540   23.2513 C   0  0  1  0  0  0  0  0  0  0  0  0
  -28.6162  -15.4092   19.0664 C   0  0  1  0  0  0  0  0  0  0  0  0
  -27.8276  -26.2529   17.4524 C   0  0  1  0  0  0  0  0  0  1  0  0
  -31.7200  -25.0050   17.1595 C   0  0  0  0  0  0  0  0  0  0  0  0
  -30.4120  -28.6067   27.1840 C   0  0  0  0  0  0  0  0  0  0  0  0
  -25.6516  -32.2973   24.4293 C   0  0  0  0  0  0  0  0  0  0  0  0
  -27.9220  -32.1565   25.4750 C   0  0  0  0  0  0  0  0  0  0  0  0
  -25.9048  -31.4912   26.7831 C   0  0  0  0  0  0  0  0  0  0  0  0
  -29.0684  -25.6152   25.2547 C   0  0  0  0  0  0  0  0  0  0  0  0
  -26.7180  -29.9964   24.9134 C   0  0  1  0  0  0  0  0  0  0  0  0
  -29.3508  -27.7691   26.4875 C   0  0  2  0  0  0  0  0  0  0  0  0
  -26.5429  -31.4701   25.3770 C   0  0  0  0  0  0  0  0  0  0  0  0
  -27.5507  -13.2634   19.6510 N   0  0  0  0  0  0  0  0  0  0  0  0
  -28.6832  -13.9194   19.3458 N   0  0  0  0  0  0  0  0  0  0  0  0
  -25.0912  -28.7811   23.4990 N   0  0  0  0  0  0  0  0  0  0  0  0
  -29.8010  -19.8442   20.0962 N   0  0  0  0  0  0  0  0  0  0  0  0
  -28.7856  -17.6762   20.0385 N   0  0  0  0  0  0  0  0  0  0  0  0
  -31.0130  -13.6232   19.0372 N   0  0  0  0  0  0  0  0  0  0  0  0
  -29.5632   -9.4732   20.0726 N   0  0  0  0  0  0  0  0  0  0  0  0
  -21.6158  -29.0523   22.4293 N   0  0  0  0  0  0  0  0  0  0  0  0
  -27.5353  -29.1821   25.8064 N   0  0  0  0  0  0  0  0  0  0  0  0
  -30.0008  -26.5422   25.9463 N   0  3  0  0  0  0  0  0  0  0  0  0
  -31.4146  -10.7238   19.5558 O   0  0  0  0  0  0  0  0  0  0  0  0
  -23.4763  -30.4527   22.4345 O   0  0  0  0  0  0  0  0  0  0  0  0
  -24.6707  -29.1512   25.7623 O   0  0  0  0  0  0  0  0  0  0  0  0
  -29.1255  -28.5895   24.2262 O   0  0  0  0  0  0  0  0  0  0  0  0
  -31.0775  -17.9237   20.0655 O   0  0  0  0  0  0  0  0  0  0  0  0
  -24.3055   -8.0026   21.1815 O   0  0  0  0  0  0  0  0  0  0  0  0
  -27.1107  -27.4417   17.8233 O   0  0  0  0  0  0  0  0  0  1  0  0
  -19.5499   -7.8350   18.3960 F   0  0  0  0  0  0  0  0  0  0  0  0
  -22.5650  -10.1502   21.2162 F   0  0  0  0  0  0  0  0  0  0  0  0
  1  2  1  0  0  0  0
  1  5  2  0  0  0  0
  2  6  2  0  0  0  0
  3  8  2  0  0  0  0
  3 17  1  0  0  0  0
  4  9  1  0  0  0  0
  4 17  2  0  0  0  0
  5 19  1  0  0  0  0
  6 21  1  0  0  0  0
  7 10  2  0  0  0  0
  7 20  1  0  0  0  0
  8 27  1  0  0  0  0
  9 27  2  0  0  0  0
 10 28  1  0  0  0  0
 11 12  2  0  0  0  0
 11 29  1  0  0  0  0
 12 30  1  0  0  0  0
 13 22  2  0  0  0  0
 13 23  1  0  0  0  0
 14 24  2  0  0  0  0
 14 26  1  0  0  0  0
 15 25  1  0  0  0  0
 15 28  2  0  0  0  0
 16 30  2  0  0  0  0
 16 31  1  0  0  0  0
 17 32  1  0  0  0  0
 18 32  1  0  0  0  0
 18 33  2  0  0  0  0
 18 34  1  0  0  0  0
 19 21  2  0  0  0  0
 19 39  1  0  0  0  0
 20 25  2  0  0  0  0
 20 40  1  0  0  0  0
 21 53  1  0  0  0  0
 22 24  1  0  0  0  0
 22 41  1  0  0  0  0
 23 26  2  0  0  0  0
 23 52  1  0  0  0  0
 24 42  1  0  0  0  0
 25 43  1  0  0  0  0
 26 57  1  0  0  0  0
 27 81  1  0  0  0  0
 28 82  1  0  0  0  0
 29 31  2  0  0  0  0
 29 81  1  0  0  0  0
 30 83  1  0  0  0  0
 31 84  1  0  0  0  0
 32 66  2  0  0  0  0
 33 67  1  0  0  0  0
 33 71  1  0  0  0  0
 34 72  1  0  0  0  0
 34 76  2  0  0  0  0
 35 54  1  0  0  0  0
 35 73  1  0  0  0  0
 35 77  2  0  0  0  0
 36 63  1  0  0  0  0
 36 68  1  0  0  0  0
 36 78  2  0  0  0  0
 37 64  1  0  0  0  0
 37 74  1  0  0  0  0
 37 79  2  0  0  0  0
 38 69  1  0  0  0  0
 38 70  1  0  0  0  0
 38 80  2  0  0  0  0
 39 44  1  0  0  0  0
 40 54  1  0  0  0  0
 41 49  1  0  0  0  0
 42 69  1  0  0  0  0
 43 68  1  0  0  0  0
 44 46  1  0  0  0  0
 45 47  1  0  0  0  0
 45 50  1  0  0  0  0
 46 53  1  0  0  0  0
 47 55  1  0  0  0  0
 48 52  1  0  0  0  0
 48 56  1  0  0  0  0
 49 69  1  0  0  0  0
 50 70  1  0  0  0  0
 51 55  1  0  0  0  0
 51 70  1  0  0  0  0
 52 56  1  0  0  0  0
 53 73  1  0  0  0  0
 54 68  1  0  0  0  0
 55 67  1  0  0  0  0
 56 82  1  0  0  0  0
 58 64  1  0  0  0  0
 59 65  1  0  0  0  0
 60 65  1  0  0  0  0
 61 65  1  0  0  0  0
 62 75  1  0  0  0  0
 63 65  1  0  0  0  0
 63 74  1  0  0  0  0
 64 75  1  0  0  0  0
 66 67  1  0  0  0  0
M  CHG  1  75   1
M  ISO  4  38 100  56 101  69 100  82 101
M  END
> <Batch ID>
0172

> <Smiles>
CNC(C)C(=O)NC(C(=O)N1Cc2cc([101O:1][101CH:1]3CC3c3cc4c(cc3C)C[100N:0]([100C:0](=O)N3CCCC(n5nc(-c6ccc(Oc7ccc(F)cc7F)cc6)c(C(N)=O)c5N)C3)CC4)ccc2CC1C(=O)NC1CCCc2ccccc21)C(C)(C)C

> <Shape>
0.296

> <Color>
0.070

> <Negative vol penalty>
0.000

$$$$

  -OEChem-04052322403D

 87 96  0     1  0  0  0  0  0999 V2000
  -23.6792  -31.7985   14.3277 C   0  0  0  0  0  0  0  0  0  0  0  0
  -24.4763  -30.8650   14.9822 C   0  0  0  0  0  0  0  0  0  0  0  0
  -23.3710  -10.7806   21.7598 C   0  0  0  0  0  0  0  0  0  0  0  0
  -24.7154   -8.8204   21.3272 C   0  0  0  0  0  0  0  0  0  0  0  0
  -23.3345  -32.9890   14.9663 C   0  0  0  0  0  0  0  0  0  0  0  0
  -24.9302  -31.1219   16.2754 C   0  0  0  0  0  0  0  0  0  0  0  0
  -24.4450  -27.1167   19.3361 C   0  0  0  0  0  0  0  0  0  0  0  0
  -22.2381   -9.9764   21.8833 C   0  0  0  0  0  0  0  0  0  0  0  0
  -23.5824   -8.0161   21.4506 C   0  0  0  0  0  0  0  0  0  0  0  0
  -25.3934  -26.1023   19.2125 C   0  0  0  0  0  0  0  0  0  0  0  0
  -21.7051   -6.7269   23.9475 C   0  0  0  0  0  0  0  0  0  0  0  0
  -21.8190   -5.5614   24.7053 C   0  0  0  0  0  0  0  0  0  0  0  0
  -26.5604  -26.9669   21.1386 C   0  0  0  0  0  0  0  0  0  0  0  0
  -21.2235   -4.2445   22.7693 C   0  0  0  0  0  0  0  0  0  0  0  0
  -24.6097  -10.2026   21.4817 C   0  0  0  0  0  0  0  0  0  0  0  0
  -29.9303  -21.5637   20.6308 C   0  0  0  0  0  0  0  0  0  0  0  0
  -26.6677  -11.4152   22.3774 C   0  0  0  0  0  0  0  0  0  0  0  0
  -23.7764  -33.2564   16.2716 C   0  0  0  0  0  0  0  0  0  0  0  0
  -24.5534  -28.0719   20.3570 C   0  0  0  0  0  0  0  0  0  0  0  0
  -24.5922  -32.3176   16.9316 C   0  0  0  0  0  0  0  0  0  0  0  0
  -25.6106  -27.9909   21.2745 C   0  0  0  0  0  0  0  0  0  0  0  0
  -29.0364  -22.5865   20.9276 C   0  0  0  0  0  0  0  0  0  0  0  0
  -29.3764  -23.9041   20.6418 C   0  0  0  0  0  0  0  0  0  0  0  0
  -22.3437   -8.5942   21.7287 C   0  0  0  0  0  0  0  0  0  0  0  0
  -26.4529  -26.0290   20.1120 C   0  0  0  0  0  0  0  0  0  0  0  0
  -21.3503   -6.6512   22.6006 C   0  0  0  0  0  0  0  0  0  0  0  0
  -21.5782   -4.3202   24.1162 C   0  0  0  0  0  0  0  0  0  0  0  0
  -21.1096   -5.4100   22.0115 C   0  0  0  0  0  0  0  0  0  0  0  0
  -25.7803  -11.0329   21.3535 C   0  0  0  0  0  0  0  0  0  0  0  0
  -31.1416  -21.9083   20.0532 C   0  0  0  0  0  0  0  0  0  0  0  0
  -30.6127  -24.1440   20.0639 C   0  0  0  0  0  0  0  0  0  0  0  0
  -27.6046  -12.1961   21.7459 C   0  0  0  0  0  0  0  0  0  0  0  0
  -29.6012  -20.1657   20.9205 C   0  0  0  0  0  0  0  0  0  0  0  0
  -26.6469  -11.0931   23.7743 C   0  0  0  0  0  0  0  0  0  0  0  0
  -24.9264  -31.2273   20.4462 C   0  0  0  0  0  0  0  0  0  0  0  0
  -24.5163  -30.7945   23.6347 C   0  0  0  0  0  0  0  0  0  0  0  0
  -24.6981  -28.6974   26.3209 C   0  0  0  0  0  0  0  0  0  0  0  0
  -29.0340  -16.1228   18.1915 C   0  0  0  0  0  0  0  0  0  0  0  0
  -23.4171  -34.5780   16.9033 C   0  0  0  0  0  0  0  0  0  0  0  0
  -23.5073  -29.1441   20.4929 C   0  0  0  0  0  0  0  0  0  0  0  0
  -25.7609  -28.9799   22.4005 C   0  0  0  0  0  0  0  0  0  0  0  0
  -23.6289  -34.6083   18.4147 C   0  0  0  0  0  0  0  0  0  0  0  0
  -28.4954  -12.9784   16.8419 C   0  0  0  0  0  0  0  0  0  0  0  0
  -24.9883  -34.0176   18.7752 C   0  0  0  0  0  0  0  0  0  0  0  0
  -27.8015  -12.2129   17.9667 C   0  0  0  0  0  0  0  0  0  0  0  0
  -27.5760  -18.8206   20.3209 C   0  0  0  0  0  0  0  0  0  0  0  0
  -27.9757  -14.4080   16.7600 C   0  0  0  0  0  0  0  0  0  0  0  0
  -27.3598  -17.6280   19.4017 C   0  0  0  0  0  0  0  0  0  0  0  0
  -29.7022  -18.1552   19.4522 C   0  0  0  0  0  0  0  0  0  0  0  0
  -27.4585  -14.4249   19.1841 C   0  0  0  0  0  0  0  0  0  0  0  0
  -25.0836  -32.5491   18.3441 C   0  0  1  0  0  0  0  0  0  0  0  0
  -28.9068  -19.3927   19.8478 C   0  0  2  0  0  0  0  0  0  0  0  0
  -24.0012  -30.3670   21.2596 C   0  0  1  0  0  0  0  0  0  0  0  0
  -27.9373  -12.9628   19.3024 C   0  0  1  0  0  0  0  0  0  0  0  0
  -27.7128  -22.2742   21.5513 C   0  0  0  0  0  0  0  0  0  0  0  0
  -32.1454  -20.8555   19.7113 C   0  0  0  0  0  0  0  0  0  0  0  0
  -31.0330  -25.5388   19.7326 C   0  0  0  0  0  0  0  0  0  0  0  0
  -24.3354  -28.6399   28.8033 C   0  0  0  0  0  0  0  0  0  0  0  0
  -27.1340  -32.3063   24.0498 C   0  0  0  0  0  0  0  0  0  0  0  0
  -27.2028  -31.4059   26.3849 C   0  0  0  0  0  0  0  0  0  0  0  0
  -25.3248  -32.8869   25.6760 C   0  0  0  0  0  0  0  0  0  0  0  0
  -22.6071  -26.6164   26.0841 C   0  0  0  0  0  0  0  0  0  0  0  0
  -28.4395  -25.0242   20.9486 C   0  0  0  0  0  0  0  0  0  1  0  0
  -25.4319  -30.5168   24.8024 C   0  0  1  0  0  0  0  0  0  0  0  0
  -23.7122  -28.4019   27.4367 C   0  0  2  0  0  0  0  0  0  0  0  0
  -26.2719  -31.7613   25.2060 C   0  0  0  0  0  0  0  0  0  0  0  0
  -26.1228  -11.5301   20.1621 N   0  0  0  0  0  0  0  0  0  0  0  0
  -31.5072  -23.1766   19.7611 N   0  0  0  0  0  0  0  0  0  0  0  0
  -27.2357  -12.2329   20.4333 N   0  0  0  0  0  0  0  0  0  0  0  0
  -24.7161  -30.0135   22.4876 N   0  0  0  0  0  0  0  0  0  0  0  0
  -28.0940  -15.0971   18.0442 N   0  0  0  0  0  0  0  0  0  0  0  0
  -28.7058  -17.1629   19.0631 N   0  0  0  0  0  0  0  0  0  0  0  0
  -28.6998  -12.8480   22.1908 N   0  0  0  0  0  0  0  0  0  0  0  0
  -25.6133  -10.2787   24.2570 N   0  0  0  0  0  0  0  0  0  0  0  0
  -24.3686  -31.7018   19.2744 N   0  0  0  0  0  0  0  0  0  0  0  0
  -24.5852  -29.9955   25.8700 N   0  0  0  0  0  0  0  0  0  0  0  0
  -23.2606  -26.9834   27.3667 N   0  3  0  0  0  0  0  0  0  0  0  0
  -29.8523  -19.5966   21.9778 O   0  0  0  0  0  0  0  0  0  0  0  0
  -27.5097  -11.5285   24.5740 O   0  0  0  0  0  0  0  0  0  0  0  0
  -26.0617  -31.4456   20.8524 O   0  0  0  0  0  0  0  0  0  0  0  0
  -23.6508  -31.6673   23.7391 O   0  0  0  0  0  0  0  0  0  0  0  0
  -25.4918  -27.8614   25.8947 O   0  0  0  0  0  0  0  0  0  0  0  0
  -30.0900  -16.1260   17.5469 O   0  0  0  0  0  0  0  0  0  0  0  0
  -21.2385   -7.8091   21.8494 O   0  0  0  0  0  0  0  0  0  0  0  0
  -27.3868  -25.0334   19.9925 O   0  0  0  0  0  0  0  0  0  1  0  0
  -21.6891   -3.2010   24.8436 F   0  0  0  0  0  0  0  0  0  0  0  0
  -20.7696   -5.3308   20.7177 F   0  0  0  0  0  0  0  0  0  0  0  0
  1  2  1  0  0  0  0
  1  5  2  0  0  0  0
  2  6  2  0  0  0  0
  3  8  2  0  0  0  0
  3 15  1  0  0  0  0
  4  9  1  0  0  0  0
  4 15  2  0  0  0  0
  5 18  1  0  0  0  0
  6 20  1  0  0  0  0
  7 10  2  0  0  0  0
  7 19  1  0  0  0  0
  8 24  1  0  0  0  0
  9 24  2  0  0  0  0
 10 25  1  0  0  0  0
 11 12  2  0  0  0  0
 11 26  1  0  0  0  0
 12 27  1  0  0  0  0
 13 21  1  0  0  0  0
 13 25  2  0  0  0  0
 14 27  2  0  0  0  0
 14 28  1  0  0  0  0
 15 29  1  0  0  0  0
 16 22  1  0  0  0  0
 16 30  2  0  0  0  0
 16 33  1  0  0  0  0
 17 29  1  0  0  0  0
 17 32  2  0  0  0  0
 17 34  1  0  0  0  0
 18 20  2  0  0  0  0
 18 39  1  0  0  0  0
 19 21  2  0  0  0  0
 19 40  1  0  0  0  0
 20 51  1  0  0  0  0
 21 41  1  0  0  0  0
 22 23  2  0  0  0  0
 22 55  1  0  0  0  0
 23 31  1  0  0  0  0
 23 63  1  0  0  0  0
 24 84  1  0  0  0  0
 25 85  1  0  0  0  0
 26 28  2  0  0  0  0
 26 84  1  0  0  0  0
 27 86  1  0  0  0  0
 28 87  1  0  0  0  0
 29 67  2  0  0  0  0
 30 56  1  0  0  0  0
 30 68  1  0  0  0  0
 31 57  1  0  0  0  0
 31 68  2  0  0  0  0
 32 69  1  0  0  0  0
 32 73  1  0  0  0  0
 33 52  1  0  0  0  0
 33 78  2  0  0  0  0
 34 74  1  0  0  0  0
 34 79  2  0  0  0  0
 35 53  1  0  0  0  0
 35 75  1  0  0  0  0
 35 80  2  0  0  0  0
 36 64  1  0  0  0  0
 36 70  1  0  0  0  0
 36 81  2  0  0  0  0
 37 65  1  0  0  0  0
 37 76  1  0  0  0  0
 37 82  2  0  0  0  0
 38 71  1  0  0  0  0
 38 72  1  0  0  0  0
 38 83  2  0  0  0  0
 39 42  1  0  0  0  0
 40 53  1  0  0  0  0
 41 70  1  0  0  0  0
 42 44  1  0  0  0  0
 43 45  1  0  0  0  0
 43 47  1  0  0  0  0
 44 51  1  0  0  0  0
 45 54  1  0  0  0  0
 46 48  1  0  0  0  0
 46 52  1  0  0  0  0
 47 71  1  0  0  0  0
 48 72  1  0  0  0  0
 49 52  1  0  0  0  0
 49 72  1  0  0  0  0
 50 54  1  0  0  0  0
 50 71  1  0  0  0  0
 51 75  1  0  0  0  0
 53 70  1  0  0  0  0
 54 69  1  0  0  0  0
 58 65  1  0  0  0  0
 59 66  1  0  0  0  0
 60 66  1  0  0  0  0
 61 66  1  0  0  0  0
 62 77  1  0  0  0  0
 63 85  1  0  0  0  0
 64 66  1  0  0  0  0
 64 76  1  0  0  0  0
 65 77  1  0  0  0  0
 67 69  1  0  0  0  0
M  CHG  1  77   1
M  ISO  4  38 100  63 101  72 100  85 101
M  END
> <Batch ID>
0172

> <Smiles>
CNC(C)C(=O)NC(C(=O)N1Cc2cc([101O:1][101CH2:1]c3c(C)nc(C)c(C(=O)C4CC[100N:0]([100C:0](=O)N5CCCC(n6nc(-c7ccc(Oc8ccc(F)cc8F)cc7)c(C(N)=O)c6N)C5)C4)c3C)ccc2CC1C(=O)NC1CCCc2ccccc21)C(C)(C)C

> <Shape>
0.295

> <Color>
0.091

> <Negative vol penalty>
0.000

$$$$

  -OEChem-04052322403D

 84 93  0     1  0  0  0  0  0999 V2000
  -29.8680  -37.2175   22.4281 C   0  0  0  0  0  0  0  0  0  0  0  0
  -29.9664  -36.1348   21.5601 C   0  0  0  0  0  0  0  0  0  0  0  0
  -24.4747   -8.7848   21.4522 C   0  0  0  0  0  0  0  0  0  0  0  0
  -24.1361  -10.3736   23.2406 C   0  0  0  0  0  0  0  0  0  0  0  0
  -29.2380  -37.0649   23.6625 C   0  0  0  0  0  0  0  0  0  0  0  0
  -29.4357  -34.8984   21.9265 C   0  0  0  0  0  0  0  0  0  0  0  0
  -25.8191  -21.3899   18.4546 C   0  0  0  0  0  0  0  0  0  0  0  0
  -26.3079  -29.1066   19.1001 C   0  0  0  0  0  0  0  0  0  0  0  0
  -25.8272  -22.7802   18.3433 C   0  0  0  0  0  0  0  0  0  0  0  0
  -24.1089   -7.7449   22.3068 C   0  0  0  0  0  0  0  0  0  0  0  0
  -23.7701   -9.3337   24.0951 C   0  0  0  0  0  0  0  0  0  0  0  0
  -26.4309  -27.7180   19.0797 C   0  0  0  0  0  0  0  0  0  0  0  0
  -22.9161   -4.7115   23.9164 C   0  0  0  0  0  0  0  0  0  0  0  0
  -22.0359   -3.7475   23.4249 C   0  0  0  0  0  0  0  0  0  0  0  0
  -27.5619  -21.5132   20.1233 C   0  0  0  0  0  0  0  0  0  0  0  0
  -25.2947  -27.5921   21.2039 C   0  0  0  0  0  0  0  0  0  0  0  0
  -20.3714   -5.4581   23.0504 C   0  0  0  0  0  0  0  0  0  0  0  0
  -24.4884  -10.0992   21.9191 C   0  0  0  0  0  0  0  0  0  0  0  0
  -24.0188  -11.9295   20.2053 C   0  0  0  0  0  0  0  0  0  0  0  0
  -26.6864  -20.7563   19.3446 C   0  0  0  0  0  0  0  0  0  0  0  0
  -28.6909  -35.8285   24.0402 C   0  0  0  0  0  0  0  0  0  0  0  0
  -25.6860  -29.7503   20.1797 C   0  0  0  0  0  0  0  0  0  0  0  0
  -28.7990  -34.7287   23.1677 C   0  0  0  0  0  0  0  0  0  0  0  0
  -25.1628  -28.9888   21.2345 C   0  0  0  0  0  0  0  0  0  0  0  0
  -26.7027  -23.5371   19.1221 C   0  0  0  0  0  0  0  0  0  0  0  0
  -23.7565   -8.0193   23.6282 C   0  0  0  0  0  0  0  0  0  0  0  0
  -25.9268  -26.9608   20.1330 C   0  0  0  0  0  0  0  0  0  0  0  0
  -22.5240   -6.0488   23.9749 C   0  0  0  0  0  0  0  0  0  0  0  0
  -27.5700  -22.9036   20.0121 C   0  0  0  0  0  0  0  0  0  0  0  0
  -20.7636   -4.1208   22.9919 C   0  0  0  0  0  0  0  0  0  0  0  0
  -21.2516   -6.4222   23.5419 C   0  0  0  0  0  0  0  0  0  0  0  0
  -24.8668  -11.1738   21.0370 C   0  0  0  0  0  0  0  0  0  0  0  0
  -24.8570  -12.8174   19.5763 C   0  0  0  0  0  0  0  0  0  0  0  0
  -22.6003  -11.8372   20.0181 C   0  0  0  0  0  0  0  0  0  0  0  0
  -26.6131  -31.8583   22.3706 C   0  0  0  0  0  0  0  0  0  0  0  0
  -23.4715  -31.8160   23.1775 C   0  0  0  0  0  0  0  0  0  0  0  0
  -20.5010  -30.1358   23.1709 C   0  0  0  0  0  0  0  0  0  0  0  0
  -29.0935  -16.4386   19.7672 C   0  0  0  0  0  0  0  0  0  0  0  0
  -28.0610  -35.6998   25.4045 C   0  0  0  0  0  0  0  0  0  0  0  0
  -25.5375  -31.2471   20.1739 C   0  0  0  0  0  0  0  0  0  0  0  0
  -24.4684  -29.6301   22.4071 C   0  0  0  0  0  0  0  0  0  0  0  0
  -27.1943  -34.4528   25.5601 C   0  0  0  0  0  0  0  0  0  0  0  0
  -29.8877  -13.0220   19.3446 C   0  0  0  0  0  0  0  0  0  0  0  0
  -27.9207  -33.2266   25.0164 C   0  0  0  0  0  0  0  0  0  0  0  0
  -28.5999  -12.2885   19.7090 C   0  0  0  0  0  0  0  0  0  0  0  0
  -26.3919  -18.6663   20.8594 C   0  0  0  0  0  0  0  0  0  0  0  0
  -30.0945  -14.2320   20.2457 C   0  0  0  0  0  0  0  0  0  0  0  0
  -26.8503  -17.2202   20.7271 C   0  0  0  0  0  0  0  0  0  0  0  0
  -28.0131  -18.5728   19.1271 C   0  0  0  0  0  0  0  0  0  0  0  0
  -27.6473  -14.4984   20.5465 C   0  0  0  0  0  0  0  0  0  0  0  0
  -26.6767  -19.2484   19.4654 C   0  0  2  0  0  0  0  0  0  0  0  0
  -28.2140  -33.3780   23.5189 C   0  0  1  0  0  0  0  0  0  0  0  0
  -25.3427  -31.8335   21.5687 C   0  0  1  0  0  0  0  0  0  0  0  0
  -27.4012  -13.2492   19.6754 C   0  0  2  0  0  0  0  0  0  0  0  0
  -18.1204  -30.3404   23.9380 C   0  0  0  0  0  0  0  0  0  0  0  0
  -24.3428  -31.2045   26.0370 C   0  0  0  0  0  0  0  0  0  0  0  0
  -21.9931  -30.4922   26.5266 C   0  0  0  0  0  0  0  0  0  0  0  0
  -22.4652  -32.8454   25.8469 C   0  0  0  0  0  0  0  0  0  0  0  0
  -19.4725  -29.9725   20.4007 C   0  0  0  0  0  0  0  0  0  0  0  0
  -29.2816  -22.8990   21.6632 C   0  0  0  0  0  0  0  0  0  0  0  0
  -26.6985  -25.0240   18.9887 C   0  0  0  0  0  0  0  0  0  1  0  0
  -22.6215  -31.0024   24.1233 C   0  0  1  0  0  0  0  0  0  0  0  0
  -19.0968  -30.5739   22.7956 C   0  0  2  0  0  0  0  0  0  0  0  0
  -22.8704  -31.3739   25.6124 C   0  0  0  0  0  0  0  0  0  0  0  0
  -26.1455  -11.5488   20.9467 N   0  0  0  0  0  0  0  0  0  0  0  0
  -26.1074  -12.5497   20.0508 N   0  0  0  0  0  0  0  0  0  0  0  0
  -24.3536  -31.0970   22.3584 N   0  0  0  0  0  0  0  0  0  0  0  0
  -28.9360  -15.1271   20.2288 N   0  0  0  0  0  0  0  0  0  0  0  0
  -27.9834  -17.2815   19.8064 N   0  0  0  0  0  0  0  0  0  0  0  0
  -24.6391  -13.7931   18.6692 N   0  0  0  0  0  0  0  0  0  0  0  0
  -21.8923  -10.8690   20.7431 N   0  0  0  0  0  0  0  0  0  0  0  0
  -27.0194  -33.1258   22.7419 N   0  0  0  0  0  0  0  0  0  0  0  0
  -21.2409  -31.1791   23.6861 N   0  0  0  0  0  0  0  0  0  0  0  0
  -18.6181  -29.8150   21.6057 N   0  3  0  0  0  0  0  0  0  0  0  0
  -21.9814  -12.5800   19.2189 O   0  0  0  0  0  0  0  0  0  0  0  0
  -27.1818  -30.8054   22.6343 O   0  0  0  0  0  0  0  0  0  0  0  0
  -23.3519  -33.0436   23.1608 O   0  0  0  0  0  0  0  0  0  0  0  0
  -20.9003  -28.9826   23.0254 O   0  0  0  0  0  0  0  0  0  0  0  0
  -30.1919  -16.8542   19.3740 O   0  0  0  0  0  0  0  0  0  0  0  0
  -23.3992   -7.0049   24.4623 O   0  0  0  0  0  0  0  0  0  0  0  0
  -28.4306  -23.6278   20.7809 O   0  0  0  0  0  0  0  0  0  0  0  0
  -26.0470  -25.5957   20.1158 O   0  0  0  0  0  0  0  0  0  1  0  0
  -19.9190   -3.1951   22.5186 F   0  0  0  0  0  0  0  0  0  0  0  0
  -20.8697   -7.7056   23.5946 F   0  0  0  0  0  0  0  0  0  0  0  0
  1  2  1  0  0  0  0
  1  5  2  0  0  0  0
  2  6  2  0  0  0  0
  3 10  2  0  0  0  0
  3 18  1  0  0  0  0
  4 11  1  0  0  0  0
  4 18  2  0  0  0  0
  5 21  1  0  0  0  0
  6 23  1  0  0  0  0
  7  9  2  0  0  0  0
  7 20  1  0  0  0  0
  8 12  2  0  0  0  0
  8 22  1  0  0  0  0
  9 25  1  0  0  0  0
 10 26  1  0  0  0  0
 11 26  2  0  0  0  0
 12 27  1  0  0  0  0
 13 14  2  0  0  0  0
 13 28  1  0  0  0  0
 14 30  1  0  0  0  0
 15 20  2  0  0  0  0
 15 29  1  0  0  0  0
 16 24  1  0  0  0  0
 16 27  2  0  0  0  0
 17 30  2  0  0  0  0
 17 31  1  0  0  0  0
 18 32  1  0  0  0  0
 19 32  1  0  0  0  0
 19 33  2  0  0  0  0
 19 34  1  0  0  0  0
 20 51  1  0  0  0  0
 21 23  2  0  0  0  0
 21 39  1  0  0  0  0
 22 24  2  0  0  0  0
 22 40  1  0  0  0  0
 23 52  1  0  0  0  0
 24 41  1  0  0  0  0
 25 29  2  0  0  0  0
 25 61  1  0  0  0  0
 26 80  1  0  0  0  0
 27 82  1  0  0  0  0
 28 31  2  0  0  0  0
 28 80  1  0  0  0  0
 29 81  1  0  0  0  0
 30 83  1  0  0  0  0
 31 84  1  0  0  0  0
 32 65  2  0  0  0  0
 33 66  1  0  0  0  0
 33 70  1  0  0  0  0
 34 71  1  0  0  0  0
 34 75  2  0  0  0  0
 35 53  1  0  0  0  0
 35 72  1  0  0  0  0
 35 76  2  0  0  0  0
 36 62  1  0  0  0  0
 36 67  1  0  0  0  0
 36 77  2  0  0  0  0
 37 63  1  0  0  0  0
 37 73  1  0  0  0  0
 37 78  2  0  0  0  0
 38 68  1  0  0  0  0
 38 69  1  0  0  0  0
 38 79  2  0  0  0  0
 39 42  1  0  0  0  0
 40 53  1  0  0  0  0
 41 67  1  0  0  0  0
 42 44  1  0  0  0  0
 43 45  1  0  0  0  0
 43 47  1  0  0  0  0
 44 52  1  0  0  0  0
 45 54  1  0  0  0  0
 46 48  1  0  0  0  0
 46 51  1  0  0  0  0
 47 68  1  0  0  0  0
 48 69  1  0  0  0  0
 49 51  1  0  0  0  0
 49 69  1  0  0  0  0
 50 54  1  0  0  0  0
 50 68  1  0  0  0  0
 52 72  1  0  0  0  0
 53 67  1  0  0  0  0
 54 66  1  0  0  0  0
 55 63  1  0  0  0  0
 56 64  1  0  0  0  0
 57 64  1  0  0  0  0
 58 64  1  0  0  0  0
 59 74  1  0  0  0  0
 60 81  1  0  0  0  0
 61 82  1  0  0  0  0
 62 64  1  0  0  0  0
 62 73  1  0  0  0  0
 63 74  1  0  0  0  0
 65 66  1  0  0  0  0
M  CHG  1  74   1
M  ISO  4  38 100  61 101  69 100  82 101
M  END
> <Batch ID>
0172

> <Smiles>
CNC(C)C(=O)NC(C(=O)N1Cc2cc([101O:1][101CH2:1]c3ccc(C4CC[100N:0]([100C:0](=O)N5CCCC(n6nc(-c7ccc(Oc8ccc(F)cc8F)cc7)c(C(N)=O)c6N)C5)C4)cc3OC)ccc2CC1C(=O)NC1CCCc2ccccc21)C(C)(C)C

> <Shape>
0.291

> <Color>
0.102

> <Negative vol penalty>
0.000

$$$$

  -OEChem-04052322403D

 87 96  0     1  0  0  0  0  0999 V2000
  -25.3776  -33.1733   13.9814 C   0  0  0  0  0  0  0  0  0  0  0  0
  -25.7971  -32.0219   14.6400 C   0  0  0  0  0  0  0  0  0  0  0  0
  -23.5387   -9.9950   22.1836 C   0  0  0  0  0  0  0  0  0  0  0  0
  -24.4247   -8.6650   20.3717 C   0  0  0  0  0  0  0  0  0  0  0  0
  -25.5500  -34.4200   14.5812 C   0  0  0  0  0  0  0  0  0  0  0  0
  -26.3902  -32.1167   15.8984 C   0  0  0  0  0  0  0  0  0  0  0  0
  -24.6002  -28.6755   19.1540 C   0  0  0  0  0  0  0  0  0  0  0  0
  -22.3133   -9.3393   22.0658 C   0  0  0  0  0  0  0  0  0  0  0  0
  -23.1993   -8.0092   20.2538 C   0  0  0  0  0  0  0  0  0  0  0  0
  -25.0825  -27.3730   19.0328 C   0  0  0  0  0  0  0  0  0  0  0  0
  -20.4159   -5.7333   19.7146 C   0  0  0  0  0  0  0  0  0  0  0  0
  -20.4329   -4.3454   19.5766 C   0  0  0  0  0  0  0  0  0  0  0  0
  -26.6023  -27.7718   20.8632 C   0  0  0  0  0  0  0  0  0  0  0  0
  -21.5507   -4.1470   21.7092 C   0  0  0  0  0  0  0  0  0  0  0  0
  -24.5944   -9.6580   21.3365 C   0  0  0  0  0  0  0  0  0  0  0  0
  -26.9510   -9.9613   22.2650 C   0  0  0  0  0  0  0  0  0  0  0  0
  -26.1368  -34.5294   15.8518 C   0  0  0  0  0  0  0  0  0  0  0  0
  -25.1239  -29.5409   20.1252 C   0  0  0  0  0  0  0  0  0  0  0  0
  -26.5718  -33.3662   16.5152 C   0  0  0  0  0  0  0  0  0  0  0  0
  -26.1232  -29.0840   20.9963 C   0  0  0  0  0  0  0  0  0  0  0  0
  -29.2094  -23.5899   19.7295 C   0  0  0  0  0  0  0  0  0  0  0  0
  -29.5751  -22.2749   19.4643 C   0  0  0  0  0  0  0  0  0  0  0  0
  -28.0072  -23.8544   20.3761 C   0  0  0  0  0  0  0  0  0  0  0  0
  -22.1436   -8.3463   21.1009 C   0  0  0  0  0  0  0  0  0  0  0  0
  -26.0857  -26.9219   19.8856 C   0  0  0  0  0  0  0  0  0  0  0  0
  -20.9664   -6.3281   20.8499 C   0  0  0  0  0  0  0  0  0  0  0  0
  -21.0002   -3.5522   20.5739 C   0  0  0  0  0  0  0  0  0  0  0  0
  -21.5337   -5.5349   21.8472 C   0  0  0  0  0  0  0  0  0  0  0  0
  -25.8603  -10.3354   21.4574 C   0  0  0  0  0  0  0  0  0  0  0  0
  -28.7105  -21.2683   19.8631 C   0  0  0  0  0  0  0  0  0  0  0  0
  -27.2127  -22.7771   20.7338 C   0  0  0  0  0  0  0  0  0  0  0  0
  -27.9023  -10.9222   22.0238 C   0  0  0  0  0  0  0  0  0  0  0  0
  -27.0916   -8.8451   23.1537 C   0  0  0  0  0  0  0  0  0  0  0  0
  -26.6735  -32.3153   20.0562 C   0  0  0  0  0  0  0  0  0  0  0  0
  -26.3191  -32.1486   23.2763 C   0  0  0  0  0  0  0  0  0  0  0  0
  -25.8483  -30.2061   26.0424 C   0  0  0  0  0  0  0  0  0  0  0  0
  -27.5318  -16.5094   20.3492 C   0  0  0  0  0  0  0  0  0  0  0  0
  -26.3452  -35.9027   16.4395 C   0  0  0  0  0  0  0  0  0  0  0  0
  -24.5742  -30.9344   20.2606 C   0  0  0  0  0  0  0  0  0  0  0  0
  -26.7047  -29.9671   22.0689 C   0  0  0  0  0  0  0  0  0  0  0  0
  -26.6416  -35.8859   17.9368 C   0  0  0  0  0  0  0  0  0  0  0  0
  -29.4060  -13.9588   18.6654 C   0  0  0  0  0  0  0  0  0  0  0  0
  -27.6930  -34.8294   18.2611 C   0  0  0  0  0  0  0  0  0  0  0  0
  -28.7840  -12.6939   19.2517 C   0  0  0  0  0  0  0  0  0  0  0  0
  -28.5503  -19.2904   18.2547 C   0  0  0  0  0  0  0  0  0  0  0  0
  -28.3712  -15.0624   18.4368 C   0  0  0  0  0  0  0  0  0  0  0  0
  -28.6377  -17.7828   18.4430 C   0  0  0  0  0  0  0  0  0  0  0  0
  -26.9409  -14.1102   20.2226 C   0  0  0  0  0  0  0  0  0  0  0  0
  -27.1969  -33.4260   17.8921 C   0  0  1  0  0  0  0  0  0  0  0  0
  -29.0529  -19.8205   19.6032 C   0  0  2  0  0  0  0  0  0  0  0  0
  -25.5405  -31.8937   20.9485 C   0  0  1  0  0  0  0  0  0  0  0  0
  -27.9805  -13.0203   20.5211 C   0  0  1  0  0  0  0  0  0  0  0  0
  -28.4474  -18.8200   20.6125 C   0  0  2  0  0  0  0  0  0  0  0  0
  -30.8592  -21.9594   18.7731 C   0  0  0  0  0  0  0  0  0  0  0  0
  -25.9089  -22.9979   21.4287 C   0  0  0  0  0  0  0  0  0  0  0  0
  -29.3400  -18.6388   21.8376 C   0  0  0  0  0  0  0  0  0  0  0  0
  -29.6004  -25.4250   18.0663 C   0  0  0  0  0  0  0  0  0  0  0  0
  -25.6385  -30.3511   28.5389 C   0  0  0  0  0  0  0  0  0  0  0  0
  -29.3346  -32.5547   23.5036 C   0  0  0  0  0  0  0  0  0  0  0  0
  -29.1939  -31.7525   25.8711 C   0  0  0  0  0  0  0  0  0  0  0  0
  -27.9819  -33.8213   25.1830 C   0  0  0  0  0  0  0  0  0  0  0  0
  -23.1129  -29.0773   25.9944 C   0  0  0  0  0  0  0  0  0  0  0  0
  -30.1041  -24.7157   19.3188 C   0  0  0  0  0  0  0  0  0  0  0  0
  -27.5866  -25.2544   20.6748 C   0  0  0  0  0  0  0  0  0  1  0  0
  -27.1276  -31.5700   24.4123 C   0  0  1  0  0  0  0  0  0  0  0  0
  -24.8919  -30.3367   27.2141 C   0  0  2  0  0  0  0  0  0  0  0  0
  -28.4001  -32.4084   24.7211 C   0  0  0  0  0  0  0  0  0  0  0  0
  -26.0957  -11.4473   20.7557 N   0  0  0  0  0  0  0  0  0  0  0  0
  -27.5345  -21.4862   20.4933 N   0  0  0  0  0  0  0  0  0  0  0  0
  -27.3453  -11.7802   21.1218 N   0  0  0  0  0  0  0  0  0  0  0  0
  -26.1386  -31.3233   22.1573 N   0  0  0  0  0  0  0  0  0  0  0  0
  -27.5686  -15.3006   19.6423 N   0  0  0  0  0  0  0  0  0  0  0  0
  -28.2909  -17.5717   19.8499 N   0  0  0  0  0  0  0  0  0  0  0  0
  -29.1527  -11.1085   22.4975 N   0  0  0  0  0  0  0  0  0  0  0  0
  -26.0172   -7.9545   23.2830 N   0  0  0  0  0  0  0  0  0  0  0  0
  -26.2699  -32.9389   18.8909 N   0  0  0  0  0  0  0  0  0  0  0  0
  -26.2111  -31.4377   25.5396 N   0  0  0  0  0  0  0  0  0  0  0  0
  -23.9315  -29.1972   27.2282 N   0  3  0  0  0  0  0  0  0  0  0  0
  -28.1330   -8.6525   23.8261 O   0  0  0  0  0  0  0  0  0  0  0  0
  -27.8285  -32.0928   20.4001 O   0  0  0  0  0  0  0  0  0  0  0  0
  -25.8584  -33.2881   23.3809 O   0  0  0  0  0  0  0  0  0  0  0  0
  -26.2377  -29.1203   25.6183 O   0  0  0  0  0  0  0  0  0  0  0  0
  -26.8312  -16.6429   21.3610 O   0  0  0  0  0  0  0  0  0  0  0  0
  -20.9480   -7.7061   20.9858 O   0  0  0  0  0  0  0  0  0  0  0  0
  -26.5619  -25.6424   19.7682 O   0  0  0  0  0  0  0  0  0  1  0  0
  -21.0151   -2.2194   20.4419 F   0  0  0  0  0  0  0  0  0  0  0  0
  -22.0631   -6.1005   22.9407 F   0  0  0  0  0  0  0  0  0  0  0  0
  1  2  1  0  0  0  0
  1  5  2  0  0  0  0
  2  6  2  0  0  0  0
  3  8  2  0  0  0  0
  3 15  1  0  0  0  0
  4  9  1  0  0  0  0
  4 15  2  0  0  0  0
  5 17  1  0  0  0  0
  6 19  1  0  0  0  0
  7 10  2  0  0  0  0
  7 18  1  0  0  0  0
  8 24  1  0  0  0  0
  9 24  2  0  0  0  0
 10 25  1  0  0  0  0
 11 12  2  0  0  0  0
 11 26  1  0  0  0  0
 12 27  1  0  0  0  0
 13 20  1  0  0  0  0
 13 25  2  0  0  0  0
 14 27  2  0  0  0  0
 14 28  1  0  0  0  0
 15 29  1  0  0  0  0
 16 29  1  0  0  0  0
 16 32  2  0  0  0  0
 16 33  1  0  0  0  0
 17 19  2  0  0  0  0
 17 38  1  0  0  0  0
 18 20  2  0  0  0  0
 18 39  1  0  0  0  0
 19 49  1  0  0  0  0
 20 40  1  0  0  0  0
 21 22  1  0  0  0  0
 21 23  2  0  0  0  0
 21 63  1  0  0  0  0
 22 30  2  0  0  0  0
 22 54  1  0  0  0  0
 23 31  1  0  0  0  0
 23 64  1  0  0  0  0
 24 84  1  0  0  0  0
 25 85  1  0  0  0  0
 26 28  2  0  0  0  0
 26 84  1  0  0  0  0
 27 86  1  0  0  0  0
 28 87  1  0  0  0  0
 29 68  2  0  0  0  0
 30 50  1  0  0  0  0
 30 69  1  0  0  0  0
 31 55  1  0  0  0  0
 31 69  2  0  0  0  0
 32 70  1  0  0  0  0
 32 74  1  0  0  0  0
 33 75  1  0  0  0  0
 33 79  2  0  0  0  0
 34 51  1  0  0  0  0
 34 76  1  0  0  0  0
 34 80  2  0  0  0  0
 35 65  1  0  0  0  0
 35 71  1  0  0  0  0
 35 81  2  0  0  0  0
 36 66  1  0  0  0  0
 36 77  1  0  0  0  0
 36 82  2  0  0  0  0
 37 72  1  0  0  0  0
 37 73  1  0  0  0  0
 37 83  2  0  0  0  0
 38 41  1  0  0  0  0
 39 51  1  0  0  0  0
 40 71  1  0  0  0  0
 41 43  1  0  0  0  0
 42 44  1  0  0  0  0
 42 46  1  0  0  0  0
 43 49  1  0  0  0  0
 44 52  1  0  0  0  0
 45 47  1  0  0  0  0
 45 50  1  0  0  0  0
 46 72  1  0  0  0  0
 47 73  1  0  0  0  0
 48 52  1  0  0  0  0
 48 72  1  0  0  0  0
 49 76  1  0  0  0  0
 50 53  1  0  0  0  0
 51 71  1  0  0  0  0
 52 70  1  0  0  0  0
 53 56  1  0  0  0  0
 53 73  1  0  0  0  0
 57 63  1  0  0  0  0
 58 66  1  0  0  0  0
 59 67  1  0  0  0  0
 60 67  1  0  0  0  0
 61 67  1  0  0  0  0
 62 78  1  0  0  0  0
 64 85  1  0  0  0  0
 65 67  1  0  0  0  0
 65 77  1  0  0  0  0
 66 78  1  0  0  0  0
 68 70  1  0  0  0  0
M  CHG  1  78   1
M  ISO  4  37 100  64 101  73 100  85 101
M  END
> <Batch ID>
0172

> <Smiles>
CCc1c(C)c(C2CC[100N:0]([100C:0](=O)N3CCCC(n4nc(-c5ccc(Oc6ccc(F)cc6F)cc5)c(C(N)=O)c4N)C3)C2C)nc(C)c1[101CH2:1][101O:1]c1ccc2c(c1)CN(C(=O)C(NC(=O)C(C)NC)C(C)(C)C)C(C(=O)NC1CCCc3ccccc31)C2

> <Shape>
0.289

> <Color>
0.064

> <Negative vol penalty>
0.000

$$$$

  -OEChem-04052322403D

 90101  0     1  0  0  0  0  0999 V2000
  -18.9063  -26.9637   23.7296 C   0  0  0  0  0  0  0  0  0  0  0  0
  -19.9129  -26.1547   23.2120 C   0  0  0  0  0  0  0  0  0  0  0  0
  -22.6391  -10.3460   20.2773 C   0  0  0  0  0  0  0  0  0  0  0  0
  -24.3706   -9.3059   21.6029 C   0  0  0  0  0  0  0  0  0  0  0  0
  -18.6192  -28.1882   23.1281 C   0  0  0  0  0  0  0  0  0  0  0  0
  -20.6322  -26.5695   22.0918 C   0  0  0  0  0  0  0  0  0  0  0  0
  -26.5491  -25.5126   20.9173 C   0  0  0  0  0  0  0  0  0  0  0  0
  -21.8790   -9.1790   20.3544 C   0  0  0  0  0  0  0  0  0  0  0  0
  -23.6105   -8.1389   21.6801 C   0  0  0  0  0  0  0  0  0  0  0  0
  -27.1930  -24.5638   20.1244 C   0  0  0  0  0  0  0  0  0  0  0  0
  -20.9588   -7.0074   23.4434 C   0  0  0  0  0  0  0  0  0  0  0  0
  -20.8517   -6.3867   24.6879 C   0  0  0  0  0  0  0  0  0  0  0  0
  -31.5830  -18.7543   21.0766 C   0  0  0  0  0  0  0  0  0  0  0  0
  -27.3070  -26.1591   18.3185 C   0  0  0  0  0  0  0  0  0  0  0  0
  -21.8604   -4.3887   23.7782 C   0  0  0  0  0  0  0  0  0  0  0  0
  -29.4718  -17.7420   20.6591 C   0  0  0  0  0  0  0  0  0  0  0  0
  -23.8849  -10.4094   20.9015 C   0  0  0  0  0  0  0  0  0  0  0  0
  -24.3097  -12.8966   21.2772 C   0  0  0  0  0  0  0  0  0  0  0  0
  -19.3418  -28.6226   22.0057 C   0  0  0  0  0  0  0  0  0  0  0  0
  -26.2690  -26.7905   20.4122 C   0  0  0  0  0  0  0  0  0  0  0  0
  -20.3536  -27.8004   21.4738 C   0  0  0  0  0  0  0  0  0  0  0  0
  -30.6926  -17.7131   21.3137 C   0  0  0  0  0  0  0  0  0  0  0  0
  -31.2305  -19.7781   20.2043 C   0  0  0  0  0  0  0  0  0  0  0  0
  -26.6617  -27.1232   19.1079 C   0  0  0  0  0  0  0  0  0  0  0  0
  -22.3647   -8.0755   21.0558 C   0  0  0  0  0  0  0  0  0  0  0  0
  -27.5695  -24.8860   18.8238 C   0  0  0  0  0  0  0  0  0  0  0  0
  -21.5167   -6.3187   22.3662 C   0  0  0  0  0  0  0  0  0  0  0  0
  -21.3025   -5.0774   24.8553 C   0  0  0  0  0  0  0  0  0  0  0  0
  -21.9675   -5.0094   22.5337 C   0  0  0  0  0  0  0  0  0  0  0  0
  -24.6709  -11.6145   20.8217 C   0  0  0  0  0  0  0  0  0  0  0  0
  -29.9856  -19.7145   19.5992 C   0  0  0  0  0  0  0  0  0  0  0  0
  -25.3902  -13.6870   20.9700 C   0  0  0  0  0  0  0  0  0  0  0  0
  -23.1054  -13.3340   21.9205 C   0  0  0  0  0  0  0  0  0  0  0  0
  -23.6168  -28.4562   19.8694 C   0  0  0  0  0  0  0  0  0  0  0  0
  -25.7154  -30.8285   19.1689 C   0  0  0  0  0  0  0  0  0  0  0  0
  -28.8565  -31.7176   18.1743 C   0  0  0  0  0  0  0  0  0  0  0  0
  -30.8337  -14.5922   20.7615 C   0  0  0  0  0  0  0  0  0  0  0  0
  -18.9636  -29.9326   21.3612 C   0  0  0  0  0  0  0  0  0  0  0  0
  -25.5976  -27.8114   21.2894 C   0  0  0  0  0  0  0  0  0  0  0  0
  -26.4023  -28.4877   18.5254 C   0  0  0  0  0  0  0  0  0  0  0  0
  -20.0242  -30.4688   20.4031 C   0  0  0  0  0  0  0  0  0  0  0  0
  -30.3110  -15.4604   24.2432 C   0  0  0  0  0  0  0  0  0  0  0  0
  -29.4468  -12.7843   18.1087 C   0  0  0  0  0  0  0  0  0  0  0  0
  -33.2088  -21.2415   20.9908 C   0  0  0  0  0  0  0  0  0  0  0  0
  -32.0558  -22.1653   20.7509 C   0  0  0  0  0  0  0  0  0  0  0  0
  -30.5827  -16.8552   23.6940 C   0  0  0  0  0  0  0  0  0  0  0  0
  -20.5167  -29.3607   19.4776 C   0  0  0  0  0  0  0  0  0  0  0  0
  -28.0556  -12.4006   18.6092 C   0  0  0  0  0  0  0  0  0  0  0  0
  -28.5437  -20.4045   17.5465 C   0  0  0  0  0  0  0  0  0  0  0  0
  -28.8537  -22.0001   19.3191 C   0  0  0  0  0  0  0  0  0  0  0  0
  -30.4736  -12.6839   19.2298 C   0  0  0  0  0  0  0  0  0  0  0  0
  -29.7164  -14.7361   23.0455 C   0  0  0  0  0  0  0  0  0  0  0  0
  -28.7462  -13.1597   20.9394 C   0  0  0  0  0  0  0  0  0  0  0  0
  -32.1791  -20.8974   19.9458 C   0  0  0  0  0  0  0  0  0  0  0  0
  -31.0455  -16.5849   22.2563 C   0  0  1  0  0  0  0  0  0  0  0  0
  -21.1726  -28.2269   20.2749 C   0  0  1  0  0  0  0  0  0  0  0  0
  -29.5459  -20.7997   18.6397 C   0  0  1  0  0  0  0  0  0  0  0  0
  -24.9023  -28.9147   20.4977 C   0  0  1  0  0  0  0  0  0  0  0  0
  -28.0818  -21.7560   17.0112 C   0  0  2  0  0  0  0  0  0  0  0  0
  -27.6678  -13.2379   19.8393 C   0  0  2  0  0  0  0  0  0  0  0  0
  -27.8915  -22.5898   18.2805 C   0  0  2  0  0  0  0  0  0  1  0  0
  -26.8200  -21.6578   16.1673 C   0  0  0  0  0  0  0  0  0  0  0  0
  -30.2627  -33.7303   17.6552 C   0  0  0  0  0  0  0  0  0  0  0  0
  -24.2778  -31.1405   16.4957 C   0  0  0  0  0  0  0  0  0  0  0  0
  -26.2486  -32.4433   15.6671 C   0  0  0  0  0  0  0  0  0  0  0  0
  -24.9146  -33.2945   17.5954 C   0  0  0  0  0  0  0  0  0  0  0  0
  -30.7864  -31.0673   20.3218 C   0  0  0  0  0  0  0  0  0  0  0  0
  -26.4254  -31.2936   17.9205 C   0  0  1  0  0  0  0  0  0  0  0  0
  -29.8368  -32.7373   18.7255 C   0  0  2  0  0  0  0  0  0  0  0  0
  -25.4699  -32.0165   16.9297 C   0  0  0  0  0  0  0  0  0  0  0  0
  -29.0940  -18.7193   19.8049 N   0  0  0  0  0  0  0  0  0  0  0  0
  -25.8857  -11.5875   20.2672 N   0  0  0  0  0  0  0  0  0  0  0  0
  -26.2973  -12.8625   20.3722 N   0  0  0  0  0  0  0  0  0  0  0  0
  -25.7374  -29.4493   19.4202 N   0  0  0  0  0  0  0  0  0  0  0  0
  -30.0739  -13.4742   20.3947 N   0  0  0  0  0  0  0  0  0  0  0  0
  -30.4257  -15.3004   21.8956 N   0  0  0  0  0  0  0  0  0  0  0  0
  -25.6433  -15.0000   21.1556 N   0  0  0  0  0  0  0  0  0  0  0  0
  -23.0403  -13.2870   23.3198 N   0  0  0  0  0  0  0  0  0  0  0  0
  -22.5093  -28.6033   20.6826 N   0  0  0  0  0  0  0  0  0  0  0  0
  -27.5489  -32.1088   18.3696 N   0  0  0  0  0  0  0  0  0  0  0  0
  -31.0556  -32.0555   19.2457 N   0  3  0  0  0  0  0  0  0  0  0  0
  -22.1102  -13.7386   21.2729 O   0  0  0  0  0  0  0  0  0  0  0  0
  -23.6285  -28.0040   18.7305 O   0  0  0  0  0  0  0  0  0  0  0  0
  -25.1676  -31.6591   19.8981 O   0  0  0  0  0  0  0  0  0  0  0  0
  -29.2150  -30.6798   17.6221 O   0  0  0  0  0  0  0  0  0  0  0  0
  -31.8385  -14.9290   20.1222 O   0  0  0  0  0  0  0  0  0  0  0  0
  -21.6231   -6.9366   21.1315 O   0  0  0  0  0  0  0  0  0  0  0  0
  -28.2035  -23.9529   18.0403 O   0  0  0  0  0  0  0  0  0  1  0  0
  -21.2009   -4.4819   26.0509 F   0  0  0  0  0  0  0  0  0  0  0  0
  -22.5054   -4.3431   21.5029 F   0  0  0  0  0  0  0  0  0  0  0  0
  1  2  1  0  0  0  0
  1  5  2  0  0  0  0
  2  6  2  0  0  0  0
  3  8  2  0  0  0  0
  3 17  1  0  0  0  0
  4  9  1  0  0  0  0
  4 17  2  0  0  0  0
  5 19  1  0  0  0  0
  6 21  1  0  0  0  0
  7 10  2  0  0  0  0
  7 20  1  0  0  0  0
  8 25  1  0  0  0  0
  9 25  2  0  0  0  0
 10 26  1  0  0  0  0
 11 12  2  0  0  0  0
 11 27  1  0  0  0  0
 12 28  1  0  0  0  0
 13 22  2  0  0  0  0
 13 23  1  0  0  0  0
 14 24  1  0  0  0  0
 14 26  2  0  0  0  0
 15 28  2  0  0  0  0
 15 29  1  0  0  0  0
 16 22  1  0  0  0  0
 16 71  2  0  0  0  0
 17 30  1  0  0  0  0
 18 30  1  0  0  0  0
 18 32  2  0  0  0  0
 18 33  1  0  0  0  0
 19 21  2  0  0  0  0
 19 38  1  0  0  0  0
 20 24  2  0  0  0  0
 20 39  1  0  0  0  0
 21 56  1  0  0  0  0
 22 55  1  0  0  0  0
 23 31  2  0  0  0  0
 23 54  1  0  0  0  0
 24 40  1  0  0  0  0
 25 87  1  0  0  0  0
 26 88  1  0  0  0  0
 27 29  2  0  0  0  0
 27 87  1  0  0  0  0
 28 89  1  0  0  0  0
 29 90  1  0  0  0  0
 30 72  2  0  0  0  0
 31 57  1  0  0  0  0
 31 71  1  0  0  0  0
 32 73  1  0  0  0  0
 32 77  1  0  0  0  0
 33 78  1  0  0  0  0
 33 82  2  0  0  0  0
 34 58  1  0  0  0  0
 34 79  1  0  0  0  0
 34 83  2  0  0  0  0
 35 68  1  0  0  0  0
 35 74  1  0  0  0  0
 35 84  2  0  0  0  0
 36 69  1  0  0  0  0
 36 80  1  0  0  0  0
 36 85  2  0  0  0  0
 37 75  1  0  0  0  0
 37 76  1  0  0  0  0
 37 86  2  0  0  0  0
 38 41  1  0  0  0  0
 39 58  1  0  0  0  0
 40 74  1  0  0  0  0
 41 47  1  0  0  0  0
 42 46  1  0  0  0  0
 42 52  1  0  0  0  0
 43 48  1  0  0  0  0
 43 51  1  0  0  0  0
 44 45  1  0  0  0  0
 44 54  1  0  0  0  0
 45 54  1  0  0  0  0
 46 55  1  0  0  0  0
 47 56  1  0  0  0  0
 48 60  1  0  0  0  0
 49 57  1  0  0  0  0
 49 59  1  0  0  0  0
 50 57  1  0  0  0  0
 50 61  1  0  0  0  0
 51 75  1  0  0  0  0
 52 76  1  0  0  0  0
 53 60  1  0  0  0  0
 53 75  1  0  0  0  0
 55 76  1  0  0  0  0
 56 79  1  0  0  0  0
 58 74  1  0  0  0  0
 59 61  1  0  0  0  0
 59 62  1  0  0  0  0
 60 73  1  0  0  0  0
 61 88  1  0  0  0  0
 63 69  1  0  0  0  0
 64 70  1  0  0  0  0
 65 70  1  0  0  0  0
 66 70  1  0  0  0  0
 67 81  1  0  0  0  0
 68 70  1  0  0  0  0
 68 80  1  0  0  0  0
 69 81  1  0  0  0  0
 72 73  1  0  0  0  0
M  CHG  1  81   1
M  ISO  4  37 100  61 101  76 100  88 101
M  END
> <Batch ID>
0172

> <Smiles>
CNC(C)C(=O)NC(C(=O)N1Cc2cc([101O:1][101CH:1]3CC(c4ncc(C5CCC[100N:0]5[100C:0](=O)N5CCCC(n6nc(-c7ccc(Oc8ccc(F)cc8F)cc7)c(C(N)=O)c6N)C5)cc4C4CC4)CC3C)ccc2CC1C(=O)NC1CCCc2ccccc21)C(C)(C)C

> <Shape>
0.332

> <Color>
0.212

> <Negative vol penalty>
0.000

$$$$

  -OEChem-04052322403D

 87 96  0     1  0  0  0  0  0999 V2000
  -32.2202  -23.8258   17.3131 C   0  0  0  0  0  0  0  0  0  0  0  0
  -31.0617  -24.5814   17.4541 C   0  0  0  0  0  0  0  0  0  0  0  0
  -27.0709  -15.0099   21.2867 C   0  0  0  0  0  0  0  0  0  0  0  0
  -27.9743  -14.2791   19.1685 C   0  0  0  0  0  0  0  0  0  0  0  0
  -32.9951  -23.5297   18.4324 C   0  0  0  0  0  0  0  0  0  0  0  0
  -30.6841  -25.0511   18.7125 C   0  0  0  0  0  0  0  0  0  0  0  0
  -26.8522  -28.1313   18.8912 C   0  0  0  0  0  0  0  0  0  0  0  0
  -26.4011  -13.7937   21.4207 C   0  0  0  0  0  0  0  0  0  0  0  0
  -27.3046  -13.0628   19.3025 C   0  0  0  0  0  0  0  0  0  0  0  0
  -25.5394  -27.7145   18.6755 C   0  0  0  0  0  0  0  0  0  0  0  0
  -23.5940  -12.3502   20.2122 C   0  0  0  0  0  0  0  0  0  0  0  0
  -22.2630  -12.3865   20.6276 C   0  0  0  0  0  0  0  0  0  0  0  0
  -25.1261  -27.8068   21.0503 C   0  0  0  0  0  0  0  0  0  0  0  0
  -20.9530  -22.7607   22.5338 C   0  0  0  0  0  0  0  0  0  0  0  0
  -22.8311  -11.0580   22.5639 C   0  0  0  0  0  0  0  0  0  0  0  0
  -27.8574  -15.2526   20.1605 C   0  0  0  0  0  0  0  0  0  0  0  0
  -29.8476  -16.8186   20.4681 C   0  0  0  0  0  0  0  0  0  0  0  0
  -32.6195  -23.9858   19.7067 C   0  0  0  0  0  0  0  0  0  0  0  0
  -27.3158  -28.3789   20.1913 C   0  0  0  0  0  0  0  0  0  0  0  0
  -31.4657  -24.7830   19.8508 C   0  0  0  0  0  0  0  0  0  0  0  0
  -26.4445  -28.2292   21.2797 C   0  0  0  0  0  0  0  0  0  0  0  0
  -21.0141  -24.6354   21.0221 C   0  0  0  0  0  0  0  0  0  0  0  0
  -21.6231  -23.5119   21.5731 C   0  0  0  0  0  0  0  0  0  0  0  0
  -26.5180  -12.8202   20.4286 C   0  0  0  0  0  0  0  0  0  0  0  0
  -24.6770  -27.5494   19.7553 C   0  0  0  0  0  0  0  0  0  0  0  0
  -24.5436  -11.6677   20.9726 C   0  0  0  0  0  0  0  0  0  0  0  0
  -21.8815  -11.7404   21.8035 C   0  0  0  0  0  0  0  0  0  0  0  0
  -24.1622  -11.0216   22.1485 C   0  0  0  0  0  0  0  0  0  0  0  0
  -28.5490  -16.5089   20.0213 C   0  0  0  0  0  0  0  0  0  0  0  0
  -19.6805  -23.1549   22.9224 C   0  0  0  0  0  0  0  0  0  0  0  0
  -19.7401  -24.9820   21.4489 C   0  0  0  0  0  0  0  0  0  0  0  0
  -30.0359  -18.1272   20.0959 C   0  0  0  0  0  0  0  0  0  0  0  0
  -30.7987  -15.9967   21.1578 C   0  0  0  0  0  0  0  0  0  0  0  0
  -29.5840  -27.1356   22.0387 C   0  0  0  0  0  0  0  0  0  0  0  0
  -28.7497  -29.5597   24.0263 C   0  0  0  0  0  0  0  0  0  0  0  0
  -26.3756  -31.7961   25.0307 C   0  0  0  0  0  0  0  0  0  0  0  0
  -26.4517  -22.6730   19.0819 C   0  0  0  0  0  0  0  0  0  0  0  0
  -33.4992  -23.6426   20.8829 C   0  0  0  0  0  0  0  0  0  0  0  0
  -28.7269  -28.8538   20.4049 C   0  0  0  0  0  0  0  0  0  0  0  0
  -26.8873  -28.5016   22.6932 C   0  0  0  0  0  0  0  0  0  0  0  0
  -32.7893  -23.8032   22.2232 C   0  0  0  0  0  0  0  0  0  0  0  0
  -28.6948  -21.3270   16.8126 C   0  0  0  0  0  0  0  0  0  0  0  0
  -32.1060  -25.1609   22.2901 C   0  0  0  0  0  0  0  0  0  0  0  0
  -29.0458  -19.9651   17.4107 C   0  0  0  0  0  0  0  0  0  0  0  0
  -27.2083  -21.6249   16.9700 C   0  0  0  0  0  0  0  0  0  0  0  0
  -23.0603  -22.1992   20.0516 C   0  0  0  0  0  0  0  0  0  0  0  0
  -24.4321  -21.5300   20.0673 C   0  0  0  0  0  0  0  0  0  0  0  0
  -27.0733  -20.2143   18.9976 C   0  0  0  0  0  0  0  0  0  0  0  0
  -24.0835  -23.4627   21.9712 C   0  0  0  0  0  0  0  0  0  0  0  0
  -31.0190  -25.2788   21.2143 C   0  0  1  0  0  0  0  0  0  0  0  0
  -29.2420  -28.5815   21.8149 C   0  0  1  0  0  0  0  0  0  0  0  0
  -28.5699  -19.8642   18.8706 C   0  0  1  0  0  0  0  0  0  0  0  0
  -25.3340  -23.6209   21.0855 C   0  0  1  0  0  0  0  0  0  0  0  0
  -18.9000  -22.4072   23.9412 C   0  0  0  0  0  0  0  0  0  0  0  0
  -19.0049  -26.1623   20.9223 C   0  0  0  0  0  0  0  0  0  0  0  0
  -26.5749  -23.7381   21.9773 C   0  0  0  0  0  0  0  0  0  0  0  0
  -25.9722  -33.6225   26.7036 C   0  0  0  0  0  0  0  0  0  0  0  0
  -28.3704  -27.4678   26.2149 C   0  0  0  0  0  0  0  0  0  0  0  0
  -27.0881  -29.1727   27.5254 C   0  0  0  0  0  0  0  0  0  0  0  0
  -29.4860  -29.5754   26.9684 C   0  0  0  0  0  0  0  0  0  0  0  0
  -25.9653  -33.8126   22.9036 C   0  0  0  0  0  0  0  0  0  0  0  0
  -21.7127  -25.4578   19.9895 C   0  0  0  0  0  0  0  0  0  0  0  0
  -22.7783  -26.3818   20.5848 C   0  0  0  0  0  0  0  0  0  1  0  0
  -27.7460  -29.7311   25.1408 C   0  0  1  0  0  0  0  0  0  0  0  0
  -26.4468  -33.2887   25.2979 C   0  0  2  0  0  0  0  0  0  0  0  0
  -28.1645  -28.9797   26.4360 C   0  0  0  0  0  0  0  0  0  0  0  0
  -27.9543  -17.5381   19.4120 N   0  0  0  0  0  0  0  0  0  0  0  0
  -28.8834  -18.5072   19.4734 N   0  0  0  0  0  0  0  0  0  0  0  0
  -19.1174  -24.2410   22.3756 N   0  3  0  0  0  0  0  0  0  0  0  0
  -22.9032  -23.1240   21.1755 N   0  0  3  0  0  0  0  0  0  0  0  0
  -28.2782  -28.9577   22.8511 N   0  0  0  0  0  0  0  0  0  0  0  0
  -26.7930  -21.5139   18.3683 N   0  0  0  0  0  0  0  0  0  0  0  0
  -25.4991  -22.5327   20.1084 N   0  0  0  0  0  0  0  0  0  0  0  0
  -31.0731  -18.9785   20.2438 N   0  0  0  0  0  0  0  0  0  0  0  0
  -30.4432  -14.6758   21.4628 N   0  0  0  0  0  0  0  0  0  0  0  0
  -30.5419  -26.6435   21.1729 N   0  0  0  0  0  0  0  0  0  0  0  0
  -27.5704  -31.1689   25.3144 N   0  0  0  0  0  0  0  0  0  0  0  0
  -25.5947  -34.0302   24.3257 N   0  3  0  0  0  0  0  0  0  0  0  0
  -31.9240  -16.4262   21.5082 O   0  0  0  0  0  0  0  0  0  0  0  0
  -29.0216  -26.5130   22.9319 O   0  0  0  0  0  0  0  0  0  0  0  0
  -29.9077  -29.9522   24.1897 O   0  0  0  0  0  0  0  0  0  0  0  0
  -25.3605  -31.2414   24.6155 O   0  0  0  0  0  0  0  0  0  0  0  0
  -26.9684  -23.7674   18.8239 O   0  0  0  0  0  0  0  0  0  0  0  0
  -25.8648  -11.6332   20.5592 O   0  0  0  0  0  0  0  0  0  0  0  0
  -23.3863  -27.1391   19.5461 O   0  0  0  0  0  0  0  0  0  1  0  0
  -20.6036  -11.7767   22.2031 F   0  0  0  0  0  0  0  0  0  0  0  0
  -25.0702  -10.3654   22.8838 F   0  0  0  0  0  0  0  0  0  0  0  0
  1  2  1  0  0  0  0
  1  5  2  0  0  0  0
  2  6  2  0  0  0  0
  3  8  2  0  0  0  0
  3 16  1  0  0  0  0
  4  9  1  0  0  0  0
  4 16  2  0  0  0  0
  5 18  1  0  0  0  0
  6 20  1  0  0  0  0
  7 10  2  0  0  0  0
  7 19  1  0  0  0  0
  8 24  1  0  0  0  0
  9 24  2  0  0  0  0
 10 25  1  0  0  0  0
 11 12  2  0  0  0  0
 11 26  1  0  0  0  0
 12 27  1  0  0  0  0
 13 21  1  0  0  0  0
 13 25  2  0  0  0  0
 14 23  2  0  0  0  0
 14 30  1  0  0  0  0
 15 27  2  0  0  0  0
 15 28  1  0  0  0  0
 16 29  1  0  0  0  0
 17 29  1  0  0  0  0
 17 32  2  0  0  0  0
 17 33  1  0  0  0  0
 18 20  2  0  0  0  0
 18 38  1  0  0  0  0
 19 21  2  0  0  0  0
 19 39  1  0  0  0  0
 20 50  1  0  0  0  0
 21 40  1  0  0  0  0
 22 23  1  0  0  0  0
 22 31  2  0  0  0  0
 22 62  1  0  0  0  0
 23 70  1  0  0  0  0
 24 84  1  0  0  0  0
 25 85  1  0  0  0  0
 26 28  2  0  0  0  0
 26 84  1  0  0  0  0
 27 86  1  0  0  0  0
 28 87  1  0  0  0  0
 29 67  2  0  0  0  0
 30 54  1  0  0  0  0
 30 69  2  0  0  0  0
 31 55  1  0  0  0  0
 31 69  1  0  0  0  0
 32 68  1  0  0  0  0
 32 74  1  0  0  0  0
 33 75  1  0  0  0  0
 33 79  2  0  0  0  0
 34 51  1  0  0  0  0
 34 76  1  0  0  0  0
 34 80  2  0  0  0  0
 35 64  1  0  0  0  0
 35 71  1  0  0  0  0
 35 81  2  0  0  0  0
 36 65  1  0  0  0  0
 36 77  1  0  0  0  0
 36 82  2  0  0  0  0
 37 72  1  0  0  0  0
 37 73  1  0  0  0  0
 37 83  2  0  0  0  0
 38 41  1  0  0  0  0
 39 51  1  0  0  0  0
 40 71  1  0  0  0  0
 41 43  1  0  0  0  0
 42 44  1  0  0  0  0
 42 45  1  0  0  0  0
 43 50  1  0  0  0  0
 44 52  1  0  0  0  0
 45 72  1  0  0  0  0
 46 47  1  0  0  0  0
 46 70  1  0  0  0  0
 47 73  1  0  0  0  0
 48 52  1  0  0  0  0
 48 72  1  0  0  0  0
 49 53  1  0  0  0  0
 49 70  1  0  0  0  0
 50 76  1  0  0  0  0
 51 71  1  0  0  0  0
 52 68  1  0  0  0  0
 53 56  1  0  0  0  0
 53 73  1  0  0  0  0
 57 65  1  0  0  0  0
 58 66  1  0  0  0  0
 59 66  1  0  0  0  0
 60 66  1  0  0  0  0
 61 78  1  0  0  0  0
 62 63  1  0  0  0  0
 63 85  1  0  0  0  0
 64 66  1  0  0  0  0
 64 77  1  0  0  0  0
 65 78  1  0  0  0  0
 67 68  1  0  0  0  0
M  CHG  2  69   1  78   1
M  ISO  4  37 100  63 101  73 100  85 101
M  END
> <Batch ID>
0172

> <Smiles>
CNC(C)C(=O)NC(C(=O)N1Cc2cc([101O:1][101CH2:1]Cc3c(N4CC[100N:0]([100C:0](=O)N5CCCC(n6nc(-c7ccc(Oc8ccc(F)cc8F)cc7)c(C(N)=O)c6N)C5)C(C)C4)cc(C)nc3C)ccc2CC1C(=O)NC1CCCc2ccccc21)C(C)(C)C

> <Shape>
0.250

> <Color>
0.058

> <Negative vol penalty>
0.000

$$$$

  -OEChem-04052322403D

 88 98  0     1  0  0  0  0  0999 V2000
  -30.5795  -35.7063   23.1320 C   0  0  0  0  0  0  0  0  0  0  0  0
  -30.6704  -34.5354   22.3862 C   0  0  0  0  0  0  0  0  0  0  0  0
  -24.0941   -9.0499   20.2597 C   0  0  0  0  0  0  0  0  0  0  0  0
  -22.8353  -10.9075   21.1550 C   0  0  0  0  0  0  0  0  0  0  0  0
  -29.6188  -35.8192   24.1361 C   0  0  0  0  0  0  0  0  0  0  0  0
  -29.8011  -33.4762   22.6449 C   0  0  0  0  0  0  0  0  0  0  0  0
  -26.3688  -28.1338   19.3291 C   0  0  0  0  0  0  0  0  0  0  0  0
  -23.2177   -8.1580   20.8778 C   0  0  0  0  0  0  0  0  0  0  0  0
  -21.9588  -10.0156   21.7731 C   0  0  0  0  0  0  0  0  0  0  0  0
  -26.1838  -26.7547   19.4158 C   0  0  0  0  0  0  0  0  0  0  0  0
  -22.7149   -6.9048   23.9764 C   0  0  0  0  0  0  0  0  0  0  0  0
  -23.2681   -5.8180   24.6535 C   0  0  0  0  0  0  0  0  0  0  0  0
  -24.8329  -19.9512   20.1475 C   0  0  0  0  0  0  0  0  0  0  0  0
  -24.5118  -27.0923   21.1216 C   0  0  0  0  0  0  0  0  0  0  0  0
  -22.0763   -4.3035   23.1965 C   0  0  0  0  0  0  0  0  0  0  0  0
  -23.9029  -10.4246   20.3983 C   0  0  0  0  0  0  0  0  0  0  0  0
  -24.6946  -11.8926   18.4680 C   0  0  0  0  0  0  0  0  0  0  0  0
  -28.7310  -34.7644   24.4007 C   0  0  0  0  0  0  0  0  0  0  0  0
  -25.6333  -29.0034   20.1471 C   0  0  0  0  0  0  0  0  0  0  0  0
  -28.8285  -33.5745   23.6543 C   0  0  0  0  0  0  0  0  0  0  0  0
  -26.1392  -20.3834   20.3759 C   0  0  0  0  0  0  0  0  0  0  0  0
  -24.6875  -28.4822   21.0415 C   0  0  0  0  0  0  0  0  0  0  0  0
  -23.8622  -20.8586   19.7227 C   0  0  0  0  0  0  0  0  0  0  0  0
  -26.4750  -21.7230   20.1796 C   0  0  0  0  0  0  0  0  0  0  0  0
  -24.1980  -22.1981   19.5265 C   0  0  0  0  0  0  0  0  0  0  0  0
  -25.5044  -22.6303   19.7549 C   0  0  0  0  0  0  0  0  0  0  0  0
  -22.1501   -8.6409   21.6345 C   0  0  0  0  0  0  0  0  0  0  0  0
  -25.2573  -26.2335   20.3142 C   0  0  0  0  0  0  0  0  0  0  0  0
  -21.8423   -6.6909   22.9093 C   0  0  0  0  0  0  0  0  0  0  0  0
  -22.9488   -4.5174   24.2635 C   0  0  0  0  0  0  0  0  0  0  0  0
  -21.5230   -5.3903   22.5194 C   0  0  0  0  0  0  0  0  0  0  0  0
  -24.8083  -11.3464   19.7605 C   0  0  0  0  0  0  0  0  0  0  0  0
  -25.7965  -12.7024   18.3393 C   0  0  0  0  0  0  0  0  0  0  0  0
  -23.6834  -11.6864   17.4727 C   0  0  0  0  0  0  0  0  0  0  0  0
  -26.3671  -31.1191   22.4030 C   0  0  0  0  0  0  0  0  0  0  0  0
  -23.1956  -31.7853   22.2628 C   0  0  0  0  0  0  0  0  0  0  0  0
  -20.0457  -30.7318   21.4784 C   0  0  0  0  0  0  0  0  0  0  0  0
  -29.1713  -16.6256   20.5926 C   0  0  0  0  0  0  0  0  0  0  0  0
  -27.7402  -34.9150   25.5277 C   0  0  0  0  0  0  0  0  0  0  0  0
  -25.8255  -30.4900   20.0225 C   0  0  0  0  0  0  0  0  0  0  0  0
  -23.8581  -29.3741   21.9275 C   0  0  0  0  0  0  0  0  0  0  0  0
  -26.6115  -33.8880   25.4877 C   0  0  0  0  0  0  0  0  0  0  0  0
  -29.9204  -13.1601   21.1939 C   0  0  0  0  0  0  0  0  0  0  0  0
  -27.1701  -32.4901   25.2416 C   0  0  0  0  0  0  0  0  0  0  0  0
  -28.4812  -22.8360   22.9095 C   0  0  0  0  0  0  0  0  0  0  0  0
  -29.2992  -23.7295   22.0193 C   0  0  0  0  0  0  0  0  0  0  0  0
  -28.6356  -12.4266   20.8238 C   0  0  0  0  0  0  0  0  0  0  0  0
  -29.6134  -14.5216   21.8032 C   0  0  0  0  0  0  0  0  0  0  0  0
  -26.8617  -17.8286   20.8733 C   0  0  0  0  0  0  0  0  0  0  0  0
  -28.3739  -18.9492   19.8982 C   0  0  0  0  0  0  0  0  0  0  0  0
  -27.5110  -14.6871   20.4969 C   0  0  0  0  0  0  0  0  0  0  0  0
  -27.2245  -19.3334   20.8581 C   0  0  0  0  0  0  0  0  0  0  0  0
  -27.8872  -32.4129   23.8884 C   0  0  1  0  0  0  0  0  0  0  0  0
  -25.3911  -31.2552   21.2688 C   0  0  1  0  0  0  0  0  0  0  0  0
  -27.9616  -23.2252   21.5533 C   0  0  0  0  0  0  0  0  0  0  0  0
  -27.7717  -13.2920   19.8951 C   0  0  2  0  0  0  0  0  0  0  0  0
  -22.4711  -20.3698   19.4857 C   0  0  0  0  0  0  0  0  0  0  0  0
  -23.1553  -23.1690   19.0702 C   0  0  0  0  0  0  0  0  0  0  0  0
  -28.5467  -22.7265   19.1525 C   0  0  0  0  0  0  0  0  0  0  0  0
  -17.6520  -31.4845   21.5089 C   0  0  0  0  0  0  0  0  0  0  0  0
  -23.0957  -31.3374   25.2794 C   0  0  0  0  0  0  0  0  0  0  0  0
  -20.6047  -31.1599   25.1003 C   0  0  0  0  0  0  0  0  0  0  0  0
  -21.7507  -33.2837   24.4686 C   0  0  0  0  0  0  0  0  0  0  0  0
  -19.8035  -30.4657   18.5408 C   0  0  0  0  0  0  0  0  0  0  0  0
  -25.8650  -24.0669   19.5445 C   0  0  0  0  0  0  0  0  0  1  0  0
  -27.8774  -22.1810   20.4262 C   0  0  2  0  0  0  0  0  0  0  0  0
  -21.9621  -31.2654   22.9608 C   0  0  1  0  0  0  0  0  0  0  0  0
  -18.9298  -31.3926   20.6894 C   0  0  2  0  0  0  0  0  0  0  0  0
  -21.8701  -31.7444   24.4371 C   0  0  0  0  0  0  0  0  0  0  0  0
  -25.8966  -11.7731   20.4067 N   0  0  0  0  0  0  0  0  0  0  0  0
  -26.4768  -12.5960   19.5166 N   0  0  0  0  0  0  0  0  0  0  0  0
  -24.0870  -30.8202   21.7732 N   0  0  0  0  0  0  0  0  0  0  0  0
  -28.7557  -15.3340   20.9350 N   0  0  0  0  0  0  0  0  0  0  0  0
  -28.2087  -17.5854   20.3857 N   0  0  0  0  0  0  0  0  0  0  0  0
  -26.2401  -13.4879   17.3351 N   0  0  0  0  0  0  0  0  0  0  0  0
  -22.6205  -10.8222   17.7692 N   0  0  0  0  0  0  0  0  0  0  0  0
  -26.9253  -32.3154   22.8115 N   0  0  0  0  0  0  0  0  0  0  0  0
  -20.8276  -31.6601   22.1327 N   0  0  0  0  0  0  0  0  0  0  0  0
  -18.6395  -30.6147   19.4519 N   0  3  0  0  0  0  0  0  0  0  0  0
  -23.7298  -12.2389   16.3475 O   0  0  0  0  0  0  0  0  0  0  0  0
  -26.5958  -30.0110   22.8737 O   0  0  0  0  0  0  0  0  0  0  0  0
  -23.3585  -33.0028   22.1498 O   0  0  0  0  0  0  0  0  0  0  0  0
  -20.2054  -29.5137   21.5140 O   0  0  0  0  0  0  0  0  0  0  0  0
  -30.3696  -16.9239   20.5028 O   0  0  0  0  0  0  0  0  0  0  0  0
  -21.2945   -7.7709   22.2376 O   0  0  0  0  0  0  0  0  0  0  0  0
  -25.0738  -24.8778   20.4019 O   0  0  0  0  0  0  0  0  0  1  0  0
  -23.4814   -3.4739   24.9129 F   0  0  0  0  0  0  0  0  0  0  0  0
  -20.6862   -5.1786   21.4943 F   0  0  0  0  0  0  0  0  0  0  0  0
  1  2  1  0  0  0  0
  1  5  2  0  0  0  0
  2  6  2  0  0  0  0
  3  8  2  0  0  0  0
  3 16  1  0  0  0  0
  4  9  1  0  0  0  0
  4 16  2  0  0  0  0
  5 18  1  0  0  0  0
  6 20  1  0  0  0  0
  7 10  2  0  0  0  0
  7 19  1  0  0  0  0
  8 27  1  0  0  0  0
  9 27  2  0  0  0  0
 10 28  1  0  0  0  0
 11 12  2  0  0  0  0
 11 29  1  0  0  0  0
 12 30  1  0  0  0  0
 13 21  2  0  0  0  0
 13 23  1  0  0  0  0
 14 22  1  0  0  0  0
 14 28  2  0  0  0  0
 15 30  2  0  0  0  0
 15 31  1  0  0  0  0
 16 32  1  0  0  0  0
 17 32  1  0  0  0  0
 17 33  2  0  0  0  0
 17 34  1  0  0  0  0
 18 20  2  0  0  0  0
 18 39  1  0  0  0  0
 19 22  2  0  0  0  0
 19 40  1  0  0  0  0
 20 53  1  0  0  0  0
 21 24  1  0  0  0  0
 21 52  1  0  0  0  0
 22 41  1  0  0  0  0
 23 25  2  0  0  0  0
 23 57  1  0  0  0  0
 24 26  2  0  0  0  0
 24 66  1  0  0  0  0
 25 26  1  0  0  0  0
 25 58  1  0  0  0  0
 26 65  1  0  0  0  0
 27 85  1  0  0  0  0
 28 86  1  0  0  0  0
 29 31  2  0  0  0  0
 29 85  1  0  0  0  0
 30 87  1  0  0  0  0
 31 88  1  0  0  0  0
 32 70  2  0  0  0  0
 33 71  1  0  0  0  0
 33 75  1  0  0  0  0
 34 76  1  0  0  0  0
 34 80  2  0  0  0  0
 35 54  1  0  0  0  0
 35 77  1  0  0  0  0
 35 81  2  0  0  0  0
 36 67  1  0  0  0  0
 36 72  1  0  0  0  0
 36 82  2  0  0  0  0
 37 68  1  0  0  0  0
 37 78  1  0  0  0  0
 37 83  2  0  0  0  0
 38 73  1  0  0  0  0
 38 74  1  0  0  0  0
 38 84  2  0  0  0  0
 39 42  1  0  0  0  0
 40 54  1  0  0  0  0
 41 72  1  0  0  0  0
 42 44  1  0  0  0  0
 43 47  1  0  0  0  0
 43 48  1  0  0  0  0
 44 53  1  0  0  0  0
 45 46  1  0  0  0  0
 45 55  1  0  0  0  0
 46 55  1  0  0  0  0
 47 56  1  0  0  0  0
 48 73  1  0  0  0  0
 49 52  1  0  0  0  0
 49 74  1  0  0  0  0
 50 52  1  0  0  0  0
 50 74  1  0  0  0  0
 51 56  1  0  0  0  0
 51 73  1  0  0  0  0
 53 77  1  0  0  0  0
 54 72  1  0  0  0  0
 55 66  1  0  0  0  0
 56 71  1  0  0  0  0
 59 66  1  0  0  0  0
 60 68  1  0  0  0  0
 61 69  1  0  0  0  0
 62 69  1  0  0  0  0
 63 69  1  0  0  0  0
 64 79  1  0  0  0  0
 65 86  1  0  0  0  0
 67 69  1  0  0  0  0
 67 78  1  0  0  0  0
 68 79  1  0  0  0  0
 70 71  1  0  0  0  0
M  CHG  1  79   1
M  ISO  4  38 100  65 101  74 100  86 101
M  END
> <Batch ID>
0172

> <Smiles>
CNC(C)C(=O)NC(C(=O)N1Cc2cc([101O:1][101CH2:1]c3c(C)c(C)cc(C4C[100N:0]([100C:0](=O)N5CCCC(n6nc(-c7ccc(Oc8ccc(F)cc8F)cc7)c(C(N)=O)c6N)C5)C4)c3C(C)C3CC3)ccc2CC1C(=O)NC1CCCc2ccccc21)C(C)(C)C

> <Shape>
0.257

> <Color>
0.089

> <Negative vol penalty>
0.000

$$$$

  -OEChem-04052322403D

 90100  0     1  0  0  0  0  0999 V2000
  -21.6947  -34.6017   15.1071 C   0  0  0  0  0  0  0  0  0  0  0  0
  -22.7091  -33.6581   15.2332 C   0  0  0  0  0  0  0  0  0  0  0  0
  -22.8596   -9.9533   20.1702 C   0  0  0  0  0  0  0  0  0  0  0  0
  -24.3814   -9.3054   21.9313 C   0  0  0  0  0  0  0  0  0  0  0  0
  -21.3550  -35.4077   16.1929 C   0  0  0  0  0  0  0  0  0  0  0  0
  -23.3852  -33.5206   16.4450 C   0  0  0  0  0  0  0  0  0  0  0  0
  -25.5804  -28.3427   18.8691 C   0  0  0  0  0  0  0  0  0  0  0  0
  -22.2621   -8.6941   20.2233 C   0  0  0  0  0  0  0  0  0  0  0  0
  -23.7838   -8.0461   21.9845 C   0  0  0  0  0  0  0  0  0  0  0  0
  -26.8564  -27.7813   18.8840 C   0  0  0  0  0  0  0  0  0  0  0  0
  -20.9843   -6.6724   23.2867 C   0  0  0  0  0  0  0  0  0  0  0  0
  -20.6907   -6.1486   24.5457 C   0  0  0  0  0  0  0  0  0  0  0  0
  -30.6091  -24.8732   21.3926 C   0  0  0  0  0  0  0  0  0  0  0  0
  -27.2515  -28.7518   21.0568 C   0  0  0  0  0  0  0  0  0  0  0  0
  -22.1288   -4.2601   24.0953 C   0  0  0  0  0  0  0  0  0  0  0  0
  -23.9194  -10.2590   21.0242 C   0  0  0  0  0  0  0  0  0  0  0  0
  -24.1752  -12.7044   21.7040 C   0  0  0  0  0  0  0  0  0  0  0  0
  -22.0207  -35.2734   17.4215 C   0  0  0  0  0  0  0  0  0  0  0  0
  -25.1336  -29.1233   19.9450 C   0  0  0  0  0  0  0  0  0  0  0  0
  -23.0550  -34.3264   17.5478 C   0  0  0  0  0  0  0  0  0  0  0  0
  -30.7300  -24.9442   20.0169 C   0  0  0  0  0  0  0  0  0  0  0  0
  -25.9684  -29.3199   21.0543 C   0  0  0  0  0  0  0  0  0  0  0  0
  -30.5945  -23.6140   21.9884 C   0  0  0  0  0  0  0  0  0  0  0  0
  -22.7241   -7.7405   21.1304 C   0  0  0  0  0  0  0  0  0  0  0  0
  -27.6933  -27.9881   19.9767 C   0  0  0  0  0  0  0  0  0  0  0  0
  -21.8500   -5.9900   22.4320 C   0  0  0  0  0  0  0  0  0  0  0  0
  -21.2630   -4.9425   24.9500 C   0  0  0  0  0  0  0  0  0  0  0  0
  -22.4223   -4.7839   22.8363 C   0  0  0  0  0  0  0  0  0  0  0  0
  -24.5374  -11.5594   20.9695 C   0  0  0  0  0  0  0  0  0  0  0  0
  -30.8259  -23.7577   19.2932 C   0  0  0  0  0  0  0  0  0  0  0  0
  -30.6955  -22.4877   21.1733 C   0  0  0  0  0  0  0  0  0  0  0  0
  -25.0619  -13.6699   21.2942 C   0  0  0  0  0  0  0  0  0  0  0  0
  -23.1306  -12.8795   22.6704 C   0  0  0  0  0  0  0  0  0  0  0  0
  -24.2205  -32.1478   20.2952 C   0  0  0  0  0  0  0  0  0  0  0  0
  -23.4856  -31.1700   23.2995 C   0  0  0  0  0  0  0  0  0  0  0  0
  -24.0222  -28.9519   25.8370 C   0  0  0  0  0  0  0  0  0  0  0  0
  -30.5283  -14.8550   20.2578 C   0  0  0  0  0  0  0  0  0  0  0  0
  -21.6505  -36.1995   18.5528 C   0  0  0  0  0  0  0  0  0  0  0  0
  -23.7445  -29.6998   19.9254 C   0  0  0  0  0  0  0  0  0  0  0  0
  -25.5288  -30.1330   22.2434 C   0  0  0  0  0  0  0  0  0  0  0  0
  -30.9073  -24.0305   17.8191 C   0  0  0  0  0  0  0  0  0  0  0  0
  -22.1614  -35.7333   19.9136 C   0  0  0  0  0  0  0  0  0  0  0  0
  -31.3432  -25.5036   17.8208 C   0  0  0  0  0  0  0  0  0  0  0  0
  -28.3573  -13.7315   17.4712 C   0  0  0  0  0  0  0  0  0  0  0  0
  -23.6238  -35.3098   19.8183 C   0  0  0  0  0  0  0  0  0  0  0  0
  -27.1799  -13.0939   18.2065 C   0  0  0  0  0  0  0  0  0  0  0  0
  -31.3713  -18.0387   21.3487 C   0  0  0  0  0  0  0  0  0  0  0  0
  -28.9104  -17.9397   20.7862 C   0  0  0  0  0  0  0  0  0  0  0  0
  -29.6428  -13.6585   18.2891 C   0  0  0  0  0  0  0  0  0  0  0  0
  -31.2816  -16.5989   21.8474 C   0  0  0  0  0  0  0  0  0  0  0  0
  -28.8755  -16.4880   21.2729 C   0  0  0  0  0  0  0  0  0  0  0  0
  -28.3407  -13.6003   20.3923 C   0  0  0  0  0  0  0  0  0  0  0  0
  -23.7948  -34.1304   18.8534 C   0  0  1  0  0  0  0  0  0  0  0  0
  -23.5842  -30.9040   20.8482 C   0  0  1  0  0  0  0  0  0  0  0  0
  -27.0208  -13.6975   19.6125 C   0  0  2  0  0  0  0  0  0  0  0  0
  -30.0154  -18.7284   21.4856 C   0  0  0  0  0  0  0  0  0  0  0  0
  -30.7562  -26.1454   19.1082 C   0  0  2  0  0  0  0  0  0  0  0  0
  -30.4691  -23.5009   23.4698 C   0  0  0  0  0  0  0  0  0  0  0  0
  -31.6578  -27.2723   19.6175 C   0  0  0  0  0  0  0  0  0  0  0  0
  -23.3012  -28.4311   28.1836 C   0  0  0  0  0  0  0  0  0  0  0  0
  -25.1927  -33.4780   24.3336 C   0  0  0  0  0  0  0  0  0  0  0  0
  -25.2170  -32.3637   26.5755 C   0  0  0  0  0  0  0  0  0  0  0  0
  -23.0564  -33.1188   25.5834 C   0  0  0  0  0  0  0  0  0  0  0  0
  -22.9847  -26.2936   25.0519 C   0  0  0  0  0  0  0  0  0  0  0  0
  -30.6795  -21.1176   21.7845 C   0  0  0  0  0  0  0  0  0  0  0  0
  -29.3342  -26.6697   18.8698 C   0  0  0  0  0  0  0  0  0  1  0  0
  -24.2276  -31.0995   24.6124 C   0  0  1  0  0  0  0  0  0  0  0  0
  -23.0592  -28.1635   26.7062 C   0  0  2  0  0  0  0  0  0  0  0  0
  -24.4327  -32.5013   25.2531 C   0  0  0  0  0  0  0  0  0  0  0  0
  -25.5734  -11.7759   20.1547 N   0  0  0  0  0  0  0  0  0  0  0  0
  -30.8076  -22.5235   19.8244 N   0  0  0  0  0  0  0  0  0  0  0  0
  -25.8696  -13.0681   20.3747 N   0  0  0  0  0  0  0  0  0  0  0  0
  -24.1642  -30.6811   22.1742 N   0  0  0  0  0  0  0  0  0  0  0  0
  -29.4547  -14.1944   19.6374 N   0  0  0  0  0  0  0  0  0  0  0  0
  -30.2065  -15.8715   21.1699 N   0  0  0  0  0  0  0  0  0  0  0  0
  -25.2215  -14.9666   21.6343 N   0  0  0  0  0  0  0  0  0  0  0  0
  -22.3112  -11.7839   22.9745 N   0  0  0  0  0  0  0  0  0  0  0  0
  -23.3853  -32.8954   19.4871 N   0  0  0  0  0  0  0  0  0  0  0  0
  -23.4870  -30.1623   25.4499 N   0  0  0  0  0  0  0  0  0  0  0  0
  -30.0983  -20.0850   20.8853 N   0  3  0  0  0  0  0  0  0  0  0  0
  -23.2178  -26.7021   26.4611 N   0  3  0  0  0  0  0  0  0  0  0  0
  -22.9195  -13.9795   23.2352 O   0  0  0  0  0  0  0  0  0  0  0  0
  -25.3827  -32.4105   20.5816 O   0  0  0  0  0  0  0  0  0  0  0  0
  -22.3433  -31.6349   23.2747 O   0  0  0  0  0  0  0  0  0  0  0  0
  -25.1390  -28.5372   25.5349 O   0  0  0  0  0  0  0  0  0  0  0  0
  -31.7027  -14.5549   20.0091 O   0  0  0  0  0  0  0  0  0  0  0  0
  -22.1411   -6.5117   21.1827 O   0  0  0  0  0  0  0  0  0  0  0  0
  -28.9519  -27.4364   19.9936 O   0  0  0  0  0  0  0  0  0  1  0  0
  -20.9822   -4.4404   26.1597 F   0  0  0  0  0  0  0  0  0  0  0  0
  -23.2557   -4.1244   22.0200 F   0  0  0  0  0  0  0  0  0  0  0  0
  1  2  1  0  0  0  0
  1  5  2  0  0  0  0
  2  6  2  0  0  0  0
  3  8  2  0  0  0  0
  3 16  1  0  0  0  0
  4  9  1  0  0  0  0
  4 16  2  0  0  0  0
  5 18  1  0  0  0  0
  6 20  1  0  0  0  0
  7 10  2  0  0  0  0
  7 19  1  0  0  0  0
  8 24  1  0  0  0  0
  9 24  2  0  0  0  0
 10 25  1  0  0  0  0
 11 12  2  0  0  0  0
 11 26  1  0  0  0  0
 12 27  1  0  0  0  0
 13 21  1  0  0  0  0
 13 23  2  0  0  0  0
 14 22  1  0  0  0  0
 14 25  2  0  0  0  0
 15 27  2  0  0  0  0
 15 28  1  0  0  0  0
 16 29  1  0  0  0  0
 17 29  1  0  0  0  0
 17 32  2  0  0  0  0
 17 33  1  0  0  0  0
 18 20  2  0  0  0  0
 18 38  1  0  0  0  0
 19 22  2  0  0  0  0
 19 39  1  0  0  0  0
 20 53  1  0  0  0  0
 21 30  2  0  0  0  0
 21 57  1  0  0  0  0
 22 40  1  0  0  0  0
 23 31  1  0  0  0  0
 23 58  1  0  0  0  0
 24 87  1  0  0  0  0
 25 88  1  0  0  0  0
 26 28  2  0  0  0  0
 26 87  1  0  0  0  0
 27 89  1  0  0  0  0
 28 90  1  0  0  0  0
 29 70  2  0  0  0  0
 30 41  1  0  0  0  0
 30 71  1  0  0  0  0
 31 65  1  0  0  0  0
 31 71  2  0  0  0  0
 32 72  1  0  0  0  0
 32 76  1  0  0  0  0
 33 77  1  0  0  0  0
 33 82  2  0  0  0  0
 34 54  1  0  0  0  0
 34 78  1  0  0  0  0
 34 83  2  0  0  0  0
 35 67  1  0  0  0  0
 35 73  1  0  0  0  0
 35 84  2  0  0  0  0
 36 68  1  0  0  0  0
 36 79  1  0  0  0  0
 36 85  2  0  0  0  0
 37 74  1  0  0  0  0
 37 75  1  0  0  0  0
 37 86  2  0  0  0  0
 38 42  1  0  0  0  0
 39 54  1  0  0  0  0
 40 73  1  0  0  0  0
 41 43  1  0  0  0  0
 42 45  1  0  0  0  0
 43 57  1  0  0  0  0
 44 46  1  0  0  0  0
 44 49  1  0  0  0  0
 45 53  1  0  0  0  0
 46 55  1  0  0  0  0
 47 50  1  0  0  0  0
 47 56  1  0  0  0  0
 48 51  1  0  0  0  0
 48 56  1  0  0  0  0
 49 74  1  0  0  0  0
 50 75  1  0  0  0  0
 51 75  1  0  0  0  0
 52 55  1  0  0  0  0
 52 74  1  0  0  0  0
 53 78  1  0  0  0  0
 54 73  1  0  0  0  0
 55 72  1  0  0  0  0
 56 80  1  0  0  0  0
 57 59  1  0  0  0  0
 57 66  1  0  0  0  0
 60 68  1  0  0  0  0
 61 69  1  0  0  0  0
 62 69  1  0  0  0  0
 63 69  1  0  0  0  0
 64 81  1  0  0  0  0
 65 80  1  0  0  0  0
 66 88  1  0  0  0  0
 67 69  1  0  0  0  0
 67 79  1  0  0  0  0
 68 81  1  0  0  0  0
 70 72  1  0  0  0  0
M  CHG  2  80   1  81   1
M  ISO  4  37 100  66 101  75 100  88 101
M  END
> <Batch ID>
0172

> <Smiles>
CNC(C)C(=O)NC(C(=O)N1Cc2cc([101O:1][101CH2:1]C3(C)CCc4nc(CNC5CC[100N:0]([100C:0](=O)N6CCCC(n7nc(-c8ccc(Oc9ccc(F)cc9F)cc8)c(C(N)=O)c7N)C6)CC5)c(C)cc43)ccc2CC1C(=O)NC1CCCc2ccccc21)C(C)(C)C

> <Shape>
0.347

> <Color>
0.164

> <Negative vol penalty>
0.000

$$$$

  -OEChem-04052322403D

 87 97  0     1  0  0  0  0  0999 V2000
  -23.2140  -28.3796   18.7834 C   0  0  0  0  0  0  0  0  0  0  0  0
  -24.0444  -27.4637   19.4213 C   0  0  0  0  0  0  0  0  0  0  0  0
  -23.0918   -9.7561   19.9787 C   0  0  0  0  0  0  0  0  0  0  0  0
  -23.7584   -9.9026   22.2963 C   0  0  0  0  0  0  0  0  0  0  0  0
  -23.2667  -29.7282   19.1333 C   0  0  0  0  0  0  0  0  0  0  0  0
  -24.9288  -27.8960   20.4089 C   0  0  0  0  0  0  0  0  0  0  0  0
  -24.9255  -24.8785   24.4758 C   0  0  0  0  0  0  0  0  0  0  0  0
  -22.3585   -8.6040   20.2624 C   0  0  0  0  0  0  0  0  0  0  0  0
  -23.0250   -8.7505   22.5800 C   0  0  0  0  0  0  0  0  0  0  0  0
  -25.6304  -23.6795   24.3796 C   0  0  0  0  0  0  0  0  0  0  0  0
  -23.3956   -5.4094   22.2185 C   0  0  0  0  0  0  0  0  0  0  0  0
  -23.9993   -4.4368   23.0155 C   0  0  0  0  0  0  0  0  0  0  0  0
  -27.4731  -24.6738   25.5776 C   0  0  0  0  0  0  0  0  0  0  0  0
  -31.2622  -19.5553   22.5731 C   0  0  0  0  0  0  0  0  0  0  0  0
  -22.2277   -4.6698   24.6416 C   0  0  0  0  0  0  0  0  0  0  0  0
  -23.7918  -10.4054   20.9957 C   0  0  0  0  0  0  0  0  0  0  0  0
  -24.0944  -12.9265   20.7502 C   0  0  0  0  0  0  0  0  0  0  0  0
  -24.1454  -30.1758   20.1325 C   0  0  0  0  0  0  0  0  0  0  0  0
  -25.4944  -25.9894   25.1152 C   0  0  0  0  0  0  0  0  0  0  0  0
  -24.9942  -29.2521   20.7716 C   0  0  0  0  0  0  0  0  0  0  0  0
  -26.7723  -25.8849   25.6828 C   0  0  0  0  0  0  0  0  0  0  0  0
  -29.9885  -19.1460   22.9515 C   0  0  0  0  0  0  0  0  0  0  0  0
  -29.5315  -17.8854   22.5836 C   0  0  0  0  0  0  0  0  0  0  0  0
  -22.3251   -8.1012   21.5630 C   0  0  0  0  0  0  0  0  0  0  0  0
  -26.9056  -23.5779   24.9280 C   0  0  0  0  0  0  0  0  0  0  0  0
  -22.2080   -6.0123   22.6330 C   0  0  0  0  0  0  0  0  0  0  0  0
  -23.4154   -4.0670   24.2270 C   0  0  0  0  0  0  0  0  0  0  0  0
  -21.6241   -5.6424   23.8446 C   0  0  0  0  0  0  0  0  0  0  0  0
  -24.5499  -11.5953   20.7031 C   0  0  0  0  0  0  0  0  0  0  0  0
  -32.0337  -18.6738   21.8332 C   0  0  0  0  0  0  0  0  0  0  0  0
  -30.3804  -17.0786   21.8430 C   0  0  0  0  0  0  0  0  0  0  0  0
  -25.1872  -13.6763   20.3894 C   0  0  0  0  0  0  0  0  0  0  0  0
  -22.7993  -13.4395   21.0898 C   0  0  0  0  0  0  0  0  0  0  0  0
  -26.3096  -28.9250   24.2090 C   0  0  0  0  0  0  0  0  0  0  0  0
  -26.9136  -29.3133   27.3724 C   0  0  0  0  0  0  0  0  0  0  0  0
  -27.6751  -27.8789   30.3740 C   0  0  0  0  0  0  0  0  0  0  0  0
  -30.6230  -14.8362   20.7211 C   0  0  0  0  0  0  0  0  0  0  0  0
  -24.2003  -31.6506   20.4434 C   0  0  0  0  0  0  0  0  0  0  0  0
  -24.7103  -27.2674   25.2339 C   0  0  0  0  0  0  0  0  0  0  0  0
  -27.4196  -27.0420   26.3973 C   0  0  0  0  0  0  0  0  0  0  0  0
  -24.8988  -31.9693   21.7628 C   0  0  0  0  0  0  0  0  0  0  0  0
  -29.6470  -12.2759   18.4474 C   0  0  0  0  0  0  0  0  0  0  0  0
  -29.7974  -20.4428   25.0952 C   0  0  0  0  0  0  0  0  0  0  0  0
  -26.2054  -31.1905   21.8768 C   0  0  0  0  0  0  0  0  0  0  0  0
  -33.5732  -20.3701   20.6389 C   0  0  0  0  0  0  0  0  0  0  0  0
  -33.7694  -19.0525   19.9564 C   0  0  0  0  0  0  0  0  0  0  0  0
  -28.1964  -11.9801   18.8355 C   0  0  0  0  0  0  0  0  0  0  0  0
  -29.9399  -21.9655   25.0975 C   0  0  0  0  0  0  0  0  0  0  0  0
  -30.5087  -12.5875   19.6697 C   0  0  0  0  0  0  0  0  0  0  0  0
  -28.5354  -13.3487   20.9329 C   0  0  0  0  0  0  0  0  0  0  0  0
  -29.1343  -20.0743   23.7490 C   0  0  1  0  0  0  0  0  0  0  0  0
  -25.9493  -29.6786   21.8653 C   0  0  1  0  0  0  0  0  0  0  0  0
  -33.4041  -19.0919   21.4168 C   0  0  0  0  0  0  0  0  0  0  0  0
  -25.5931  -28.4916   25.4566 C   0  0  1  0  0  0  0  0  0  0  0  0
  -28.9176  -21.4215   23.0159 C   0  0  2  0  0  0  0  0  0  0  0  0
  -27.6140  -13.0927   19.7290 C   0  0  2  0  0  0  0  0  0  0  0  0
  -28.8482  -22.4469   24.1515 C   0  0  1  0  0  0  0  0  0  1  0  0
  -28.1662  -17.4281   22.9797 C   0  0  0  0  0  0  0  0  0  0  0  0
  -27.6989  -21.4040   22.1018 C   0  0  0  0  0  0  0  0  0  0  0  0
  -28.1435  -28.4562   32.7708 C   0  0  0  0  0  0  0  0  0  0  0  0
  -29.7052  -30.2682   26.5943 C   0  0  0  0  0  0  0  0  0  0  0  0
  -30.4116  -29.9173   28.9705 C   0  0  0  0  0  0  0  0  0  0  0  0
  -28.6295  -31.5780   28.4332 C   0  0  0  0  0  0  0  0  0  0  0  0
  -25.3552  -26.3076   31.3268 C   0  0  0  0  0  0  0  0  0  0  0  0
  -28.1141  -29.1086   28.2646 C   0  0  1  0  0  0  0  0  0  0  0  0
  -27.0794  -28.0626   31.7581 C   0  0  2  0  0  0  0  0  0  0  0  0
  -29.2040  -30.1966   28.0505 C   0  0  0  0  0  0  0  0  0  0  0  0
  -25.8321  -11.5015   20.3408 N   0  0  0  0  0  0  0  0  0  0  0  0
  -31.6241  -17.4416   21.4571 N   0  0  0  0  0  0  0  0  0  0  0  0
  -26.1916  -12.7833   20.1569 N   0  0  0  0  0  0  0  0  0  0  0  0
  -26.6153  -28.2723   26.4818 N   0  0  0  0  0  0  0  0  0  0  0  0
  -29.8971  -13.6534   20.4663 N   0  0  0  0  0  0  0  0  0  0  0  0
  -25.3773  -15.0056   20.2515 N   0  0  0  0  0  0  0  0  0  0  0  0
  -21.7905  -12.5304   21.4366 N   0  0  0  0  0  0  0  0  0  0  0  0
  -29.9272  -15.7915   21.4612 N   0  0  0  0  0  0  0  0  0  0  0  0
  -25.4694  -29.2374   23.1574 N   0  0  0  0  0  0  0  0  0  0  0  0
  -27.6014  -29.0366   29.6285 N   0  0  0  0  0  0  0  0  0  0  0  0
  -26.4379  -26.7984   32.2178 N   0  3  0  0  0  0  0  0  0  0  0  0
  -22.5397  -14.6665   21.0699 O   0  0  0  0  0  0  0  0  0  0  0  0
  -27.5340  -28.9740   24.2016 O   0  0  0  0  0  0  0  0  0  0  0  0
  -26.2603  -30.3553   27.4673 O   0  0  0  0  0  0  0  0  0  0  0  0
  -28.1608  -26.8160   29.9935 O   0  0  0  0  0  0  0  0  0  0  0  0
  -31.7669  -15.0012   20.2896 O   0  0  0  0  0  0  0  0  0  0  0  0
  -21.6095   -6.9771   21.8403 O   0  0  0  0  0  0  0  0  0  0  0  0
  -27.5961  -22.4089   24.8349 O   0  0  0  0  0  0  0  0  0  1  0  0
  -23.9944   -3.1319   24.9916 F   0  0  0  0  0  0  0  0  0  0  0  0
  -20.4825   -6.2172   24.2476 F   0  0  0  0  0  0  0  0  0  0  0  0
  1  2  1  0  0  0  0
  1  5  2  0  0  0  0
  2  6  2  0  0  0  0
  3  8  2  0  0  0  0
  3 16  1  0  0  0  0
  4  9  1  0  0  0  0
  4 16  2  0  0  0  0
  5 18  1  0  0  0  0
  6 20  1  0  0  0  0
  7 10  2  0  0  0  0
  7 19  1  0  0  0  0
  8 24  1  0  0  0  0
  9 24  2  0  0  0  0
 10 25  1  0  0  0  0
 11 12  2  0  0  0  0
 11 26  1  0  0  0  0
 12 27  1  0  0  0  0
 13 21  1  0  0  0  0
 13 25  2  0  0  0  0
 14 22  1  0  0  0  0
 14 30  2  0  0  0  0
 15 27  2  0  0  0  0
 15 28  1  0  0  0  0
 16 29  1  0  0  0  0
 17 29  1  0  0  0  0
 17 32  2  0  0  0  0
 17 33  1  0  0  0  0
 18 20  2  0  0  0  0
 18 38  1  0  0  0  0
 19 21  2  0  0  0  0
 19 39  1  0  0  0  0
 20 52  1  0  0  0  0
 21 40  1  0  0  0  0
 22 23  2  0  0  0  0
 22 51  1  0  0  0  0
 23 31  1  0  0  0  0
 23 58  1  0  0  0  0
 24 84  1  0  0  0  0
 25 85  1  0  0  0  0
 26 28  2  0  0  0  0
 26 84  1  0  0  0  0
 27 86  1  0  0  0  0
 28 87  1  0  0  0  0
 29 68  2  0  0  0  0
 30 53  1  0  0  0  0
 30 69  1  0  0  0  0
 31 69  2  0  0  0  0
 31 75  1  0  0  0  0
 32 70  1  0  0  0  0
 32 73  1  0  0  0  0
 33 74  1  0  0  0  0
 33 79  2  0  0  0  0
 34 54  1  0  0  0  0
 34 76  1  0  0  0  0
 34 80  2  0  0  0  0
 35 65  1  0  0  0  0
 35 71  1  0  0  0  0
 35 81  2  0  0  0  0
 36 66  1  0  0  0  0
 36 77  1  0  0  0  0
 36 82  2  0  0  0  0
 37 72  1  0  0  0  0
 37 75  1  0  0  0  0
 37 83  2  0  0  0  0
 38 41  1  0  0  0  0
 39 54  1  0  0  0  0
 40 71  1  0  0  0  0
 41 44  1  0  0  0  0
 42 47  1  0  0  0  0
 42 49  1  0  0  0  0
 43 48  1  0  0  0  0
 43 51  1  0  0  0  0
 44 52  1  0  0  0  0
 45 46  1  0  0  0  0
 45 53  1  0  0  0  0
 46 53  1  0  0  0  0
 47 56  1  0  0  0  0
 48 57  1  0  0  0  0
 49 72  1  0  0  0  0
 50 56  1  0  0  0  0
 50 72  1  0  0  0  0
 51 55  1  0  0  0  0
 52 76  1  0  0  0  0
 54 71  1  0  0  0  0
 55 57  1  0  0  0  0
 55 59  1  0  0  0  0
 56 70  1  0  0  0  0
 57 85  1  0  0  0  0
 60 66  1  0  0  0  0
 61 67  1  0  0  0  0
 62 67  1  0  0  0  0
 63 67  1  0  0  0  0
 64 78  1  0  0  0  0
 65 67  1  0  0  0  0
 65 77  1  0  0  0  0
 66 78  1  0  0  0  0
 68 70  1  0  0  0  0
M  CHG  1  78   1
M  ISO  4  37 100  57 101  75 100  85 101
M  END
> <Batch ID>
0172

> <Smiles>
CNC(C)C(=O)NC(C(=O)N1Cc2cc([101O:1][101CH:1]3CCC(c4cc(C5CC5)nc([100NH:0][100C:0](=O)N5CCCC(n6nc(-c7ccc(Oc8ccc(F)cc8F)cc7)c(C(N)=O)c6N)C5)c4C)C3C)ccc2CC1C(=O)NC1CCCc2ccccc21)C(C)(C)C

> <Shape>
0.253

> <Color>
0.212

> <Negative vol penalty>
0.000

$$$$

  -OEChem-04052322403D

 87 97  0     1  0  0  0  0  0999 V2000
  -27.1389  -37.7894   23.6275 C   0  0  0  0  0  0  0  0  0  0  0  0
  -27.8427  -36.7655   23.0015 C   0  0  0  0  0  0  0  0  0  0  0  0
  -23.7421  -10.4936   22.4727 C   0  0  0  0  0  0  0  0  0  0  0  0
  -24.5307   -8.6484   21.1271 C   0  0  0  0  0  0  0  0  0  0  0  0
  -26.0214  -37.4909   24.4059 C   0  0  0  0  0  0  0  0  0  0  0  0
  -27.4298  -35.4424   23.1545 C   0  0  0  0  0  0  0  0  0  0  0  0
  -27.1862  -29.2244   19.6058 C   0  0  0  0  0  0  0  0  0  0  0  0
  -22.5982   -9.7658   22.8004 C   0  0  0  0  0  0  0  0  0  0  0  0
  -23.3868   -7.9206   21.4548 C   0  0  0  0  0  0  0  0  0  0  0  0
  -27.5478  -27.8859   19.7521 C   0  0  0  0  0  0  0  0  0  0  0  0
  -20.8455   -5.4379   22.2270 C   0  0  0  0  0  0  0  0  0  0  0  0
  -21.0082   -4.1003   22.5875 C   0  0  0  0  0  0  0  0  0  0  0  0
  -25.5559  -27.4965   21.0560 C   0  0  0  0  0  0  0  0  0  0  0  0
  -22.4150   -4.7693   24.4343 C   0  0  0  0  0  0  0  0  0  0  0  0
  -28.4361  -21.7081   19.3673 C   0  0  0  0  0  0  0  0  0  0  0  0
  -24.7084   -9.9349   21.6360 C   0  0  0  0  0  0  0  0  0  0  0  0
  -27.1148  -10.7038   21.9904 C   0  0  0  0  0  0  0  0  0  0  0  0
  -25.5889  -36.1644   24.5607 C   0  0  0  0  0  0  0  0  0  0  0  0
  -26.0103  -29.7123   20.1937 C   0  0  0  0  0  0  0  0  0  0  0  0
  -26.3062  -35.1258   23.9368 C   0  0  0  0  0  0  0  0  0  0  0  0
  -25.1803  -28.8411   20.9135 C   0  0  0  0  0  0  0  0  0  0  0  0
  -28.8426  -21.1464   20.5669 C   0  0  0  0  0  0  0  0  0  0  0  0
  -29.0819  -22.0008   21.6375 C   0  0  0  0  0  0  0  0  0  0  0  0
  -28.9100  -23.3713   21.4779 C   0  0  0  0  0  0  0  0  0  0  0  0
  -22.4206   -8.4793   22.2914 C   0  0  0  0  0  0  0  0  0  0  0  0
  -26.7341  -27.0224   20.4797 C   0  0  0  0  0  0  0  0  0  0  0  0
  -21.4677   -6.4412   22.9700 C   0  0  0  0  0  0  0  0  0  0  0  0
  -21.7929   -3.7660   23.6912 C   0  0  0  0  0  0  0  0  0  0  0  0
  -22.2524   -6.1069   24.0737 C   0  0  0  0  0  0  0  0  0  0  0  0
  -25.8900  -10.6865   21.2967 C   0  0  0  0  0  0  0  0  0  0  0  0
  -28.5007  -23.8334   20.2374 C   0  0  0  0  0  0  0  0  0  0  0  0
  -27.9052  -11.5657   21.2702 C   0  0  0  0  0  0  0  0  0  0  0  0
  -27.5034  -10.0032   23.1795 C   0  0  0  0  0  0  0  0  0  0  0  0
  -25.3465  -31.9087   22.3935 C   0  0  0  0  0  0  0  0  0  0  0  0
  -22.2801  -31.2471   21.5677 C   0  0  0  0  0  0  0  0  0  0  0  0
  -20.0511  -29.0297   20.2406 C   0  0  0  0  0  0  0  0  0  0  0  0
  -28.7485  -16.1985   18.4689 C   0  0  0  0  0  0  0  0  0  0  0  0
  -24.4033  -35.8865   25.4504 C   0  0  0  0  0  0  0  0  0  0  0  0
  -25.6206  -31.1527   20.0040 C   0  0  0  0  0  0  0  0  0  0  0  0
  -23.8972  -29.3106   21.5472 C   0  0  0  0  0  0  0  0  0  0  0  0
  -23.8098  -34.4934   25.2569 C   0  0  0  0  0  0  0  0  0  0  0  0
  -27.2322  -13.6364   16.7127 C   0  0  0  0  0  0  0  0  0  0  0  0
  -30.7928  -21.9617   23.5727 C   0  0  0  0  0  0  0  0  0  0  0  0
  -30.7501  -20.5775   23.0049 C   0  0  0  0  0  0  0  0  0  0  0  0
  -24.9143  -33.4417   25.2299 C   0  0  0  0  0  0  0  0  0  0  0  0
  -26.8441  -12.6321   17.7977 C   0  0  0  0  0  0  0  0  0  0  0  0
  -27.6886  -18.8933   20.4520 C   0  0  0  0  0  0  0  0  0  0  0  0
  -30.1065  -19.1135   19.7347 C   0  0  0  0  0  0  0  0  0  0  0  0
  -26.9689  -15.0655   17.1726 C   0  0  0  0  0  0  0  0  0  0  0  0
  -27.8746  -17.3756   20.5357 C   0  0  0  0  0  0  0  0  0  0  0  0
  -30.2424  -17.5989   19.8603 C   0  0  0  0  0  0  0  0  0  0  0  0
  -27.2816  -14.4305   19.5427 C   0  0  0  0  0  0  0  0  0  0  0  0
  -29.0133  -19.6433   20.6803 C   0  0  0  0  0  0  0  0  0  0  0  0
  -29.5225  -21.4455   22.9540 C   0  0  0  0  0  0  0  0  0  0  0  0
  -25.8748  -33.6804   24.0586 C   0  0  1  0  0  0  0  0  0  0  0  0
  -24.6635  -31.6592   21.0786 C   0  0  1  0  0  0  0  0  0  0  0  0
  -27.5342  -12.9656   19.1322 C   0  0  1  0  0  0  0  0  0  0  0  0
  -29.1586  -24.3154   22.6065 C   0  0  0  0  0  0  0  0  0  0  0  0
  -17.6087  -28.7571   19.7325 C   0  0  0  0  0  0  0  0  0  0  0  0
  -21.7228  -30.7491   24.5260 C   0  0  0  0  0  0  0  0  0  0  0  0
  -19.6063  -29.5890   23.8604 C   0  0  0  0  0  0  0  0  0  0  0  0
  -19.9251  -32.0039   23.3226 C   0  0  0  0  0  0  0  0  0  0  0  0
  -20.5682  -28.7352   17.3415 C   0  0  0  0  0  0  0  0  0  0  0  0
  -28.2990  -25.2954   20.0057 C   0  0  0  0  0  0  0  0  0  1  0  0
  -21.2347  -30.2645   22.0374 C   0  0  1  0  0  0  0  0  0  0  0  0
  -18.9617  -29.1990   19.1969 C   0  0  2  0  0  0  0  0  0  0  0  0
  -20.6473  -30.6429   23.4264 C   0  0  0  0  0  0  0  0  0  0  0  0
  -28.2584  -23.0343   19.1742 N   0  0  0  0  0  0  0  0  0  0  0  0
  -25.8968  -11.4750   20.2186 N   0  0  0  0  0  0  0  0  0  0  0  0
  -27.1356  -11.9959   20.2296 N   0  0  0  0  0  0  0  0  0  0  0  0
  -23.5628  -30.7292   21.3389 N   0  0  0  0  0  0  0  0  0  0  0  0
  -27.6377  -15.3418   18.4439 N   0  0  0  0  0  0  0  0  0  0  0  0
  -28.9569  -16.9353   19.6446 N   0  0  0  0  0  0  0  0  0  0  0  0
  -29.1765  -11.9902   21.4319 N   0  0  0  0  0  0  0  0  0  0  0  0
  -26.5687   -9.1577   23.7925 N   0  0  0  0  0  0  0  0  0  0  0  0
  -25.2846  -33.2218   22.8194 N   0  0  0  0  0  0  0  0  0  0  0  0
  -20.2424  -30.1834   20.9710 N   0  0  0  0  0  0  0  0  0  0  0  0
  -19.2748  -28.3897   17.9854 N   0  3  0  0  0  0  0  0  0  0  0  0
  -28.6402  -10.1362   23.6928 O   0  0  0  0  0  0  0  0  0  0  0  0
  -25.8882  -30.9784   22.9790 O   0  0  0  0  0  0  0  0  0  0  0  0
  -21.9683  -32.4291   21.4028 O   0  0  0  0  0  0  0  0  0  0  0  0
  -20.6678  -27.9779   20.3950 O   0  0  0  0  0  0  0  0  0  0  0  0
  -29.5099  -16.2993   17.4988 O   0  0  0  0  0  0  0  0  0  0  0  0
  -21.3046   -7.7687   22.6112 O   0  0  0  0  0  0  0  0  0  0  0  0
  -27.0876  -25.7062   20.6256 O   0  0  0  0  0  0  0  0  0  1  0  0
  -21.9478   -2.4816   24.0383 F   0  0  0  0  0  0  0  0  0  0  0  0
  -22.8516   -7.0664   24.7920 F   0  0  0  0  0  0  0  0  0  0  0  0
  1  2  1  0  0  0  0
  1  5  2  0  0  0  0
  2  6  2  0  0  0  0
  3  8  2  0  0  0  0
  3 16  1  0  0  0  0
  4  9  1  0  0  0  0
  4 16  2  0  0  0  0
  5 18  1  0  0  0  0
  6 20  1  0  0  0  0
  7 10  2  0  0  0  0
  7 19  1  0  0  0  0
  8 25  1  0  0  0  0
  9 25  2  0  0  0  0
 10 26  1  0  0  0  0
 11 12  2  0  0  0  0
 11 27  1  0  0  0  0
 12 28  1  0  0  0  0
 13 21  1  0  0  0  0
 13 26  2  0  0  0  0
 14 28  2  0  0  0  0
 14 29  1  0  0  0  0
 15 22  1  0  0  0  0
 15 68  2  0  0  0  0
 16 30  1  0  0  0  0
 17 30  1  0  0  0  0
 17 32  2  0  0  0  0
 17 33  1  0  0  0  0
 18 20  2  0  0  0  0
 18 38  1  0  0  0  0
 19 21  2  0  0  0  0
 19 39  1  0  0  0  0
 20 55  1  0  0  0  0
 21 40  1  0  0  0  0
 22 23  2  0  0  0  0
 22 53  1  0  0  0  0
 23 24  1  0  0  0  0
 23 54  1  0  0  0  0
 24 31  2  0  0  0  0
 24 58  1  0  0  0  0
 25 84  1  0  0  0  0
 26 85  1  0  0  0  0
 27 29  2  0  0  0  0
 27 84  1  0  0  0  0
 28 86  1  0  0  0  0
 29 87  1  0  0  0  0
 30 69  2  0  0  0  0
 31 64  1  0  0  0  0
 31 68  1  0  0  0  0
 32 70  1  0  0  0  0
 32 74  1  0  0  0  0
 33 75  1  0  0  0  0
 33 79  2  0  0  0  0
 34 56  1  0  0  0  0
 34 76  1  0  0  0  0
 34 80  2  0  0  0  0
 35 65  1  0  0  0  0
 35 71  1  0  0  0  0
 35 81  2  0  0  0  0
 36 66  1  0  0  0  0
 36 77  1  0  0  0  0
 36 82  2  0  0  0  0
 37 72  1  0  0  0  0
 37 73  1  0  0  0  0
 37 83  2  0  0  0  0
 38 41  1  0  0  0  0
 39 56  1  0  0  0  0
 40 71  1  0  0  0  0
 41 45  1  0  0  0  0
 42 46  1  0  0  0  0
 42 49  1  0  0  0  0
 43 44  1  0  0  0  0
 43 54  1  0  0  0  0
 44 54  1  0  0  0  0
 45 55  1  0  0  0  0
 46 57  1  0  0  0  0
 47 50  1  0  0  0  0
 47 53  1  0  0  0  0
 48 51  1  0  0  0  0
 48 53  1  0  0  0  0
 49 72  1  0  0  0  0
 50 73  1  0  0  0  0
 51 73  1  0  0  0  0
 52 57  1  0  0  0  0
 52 72  1  0  0  0  0
 55 76  1  0  0  0  0
 56 71  1  0  0  0  0
 57 70  1  0  0  0  0
 59 66  1  0  0  0  0
 60 67  1  0  0  0  0
 61 67  1  0  0  0  0
 62 67  1  0  0  0  0
 63 78  1  0  0  0  0
 64 85  1  0  0  0  0
 65 67  1  0  0  0  0
 65 77  1  0  0  0  0
 66 78  1  0  0  0  0
 69 70  1  0  0  0  0
M  CHG  1  78   1
M  ISO  4  37 100  64 101  73 100  85 101
M  END
> <Batch ID>
0172

> <Smiles>
CNC(C)C(=O)NC(C(=O)N1Cc2cc([101O:1][101CH2:1]c3ncc(C4CC[100N:0]([100C:0](=O)N5CCCC(n6nc(-c7ccc(Oc8ccc(F)cc8F)cc7)c(C(N)=O)c6N)C5)CC4)c(C4CC4)c3C)ccc2CC1C(=O)NC1CCCc2ccccc21)C(C)(C)C

> <Shape>
0.326

> <Color>
0.096

> <Negative vol penalty>
0.000

$$$$

  -OEChem-04052322403D

 85 94  0     1  0  0  0  0  0999 V2000
  -18.3683  -30.1415   26.9947 C   0  0  0  0  0  0  0  0  0  0  0  0
  -19.1853  -29.0160   26.9602 C   0  0  0  0  0  0  0  0  0  0  0  0
  -25.9512  -14.0091   21.3445 C   0  0  0  0  0  0  0  0  0  0  0  0
  -26.3316  -12.4164   19.5680 C   0  0  0  0  0  0  0  0  0  0  0  0
  -17.7691  -30.6028   25.8234 C   0  0  0  0  0  0  0  0  0  0  0  0
  -19.4027  -28.3505   25.7542 C   0  0  0  0  0  0  0  0  0  0  0  0
  -24.2711  -27.1477   25.0494 C   0  0  0  0  0  0  0  0  0  0  0  0
  -24.7237  -13.4074   21.6212 C   0  0  0  0  0  0  0  0  0  0  0  0
  -25.1040  -11.8146   19.8448 C   0  0  0  0  0  0  0  0  0  0  0  0
  -24.7598  -26.0399   25.7406 C   0  0  0  0  0  0  0  0  0  0  0  0
  -23.8478   -9.6538   22.1193 C   0  0  0  0  0  0  0  0  0  0  0  0
  -23.8082   -8.2606   22.1723 C   0  0  0  0  0  0  0  0  0  0  0  0
  -24.5237  -24.7003   23.7484 C   0  0  0  0  0  0  0  0  0  0  0  0
  -22.1958   -8.2380   20.3732 C   0  0  0  0  0  0  0  0  0  0  0  0
  -29.4529  -24.4027   23.1682 C   0  0  0  0  0  0  0  0  0  0  0  0
  -26.7551  -13.5137   20.3178 C   0  0  0  0  0  0  0  0  0  0  0  0
  -29.2742  -13.8113   20.5891 C   0  0  0  0  0  0  0  0  0  0  0  0
  -17.9871  -29.9483   24.6008 C   0  0  0  0  0  0  0  0  0  0  0  0
  -23.8942  -27.0373   23.7033 C   0  0  0  0  0  0  0  0  0  0  0  0
  -18.8048  -28.8027   24.5656 C   0  0  0  0  0  0  0  0  0  0  0  0
  -24.0329  -25.8088   23.0417 C   0  0  0  0  0  0  0  0  0  0  0  0
  -24.3001  -12.3101   20.8714 C   0  0  0  0  0  0  0  0  0  0  0  0
  -24.8835  -24.8153   25.0909 C   0  0  0  0  0  0  0  0  0  0  0  0
  -23.0614  -10.3392   21.1933 C   0  0  0  0  0  0  0  0  0  0  0  0
  -22.9822   -7.5526   21.2992 C   0  0  0  0  0  0  0  0  0  0  0  0
  -22.2354   -9.6313   20.3202 C   0  0  0  0  0  0  0  0  0  0  0  0
  -28.0230  -14.1353   20.0310 C   0  0  0  0  0  0  0  0  0  0  0  0
  -28.9963  -24.8325   24.3975 C   0  0  0  0  0  0  0  0  0  0  0  0
  -28.7192  -23.3938   22.5783 C   0  0  0  0  0  0  0  0  0  0  0  0
  -30.1520  -14.6838   19.9937 C   0  0  0  0  0  0  0  0  0  0  0  0
  -27.2787  -23.3449   24.3361 C   0  0  0  0  0  0  0  0  0  0  0  0
  -29.6126  -12.8111   21.5590 C   0  0  0  0  0  0  0  0  0  0  0  0
  -21.1781  -27.4163   22.0961 C   0  0  0  0  0  0  0  0  0  0  0  0
  -23.0946  -26.9641   19.5184 C   0  0  0  0  0  0  0  0  0  0  0  0
  -25.9880  -25.6729   18.2503 C   0  0  0  0  0  0  0  0  0  0  0  0
  -29.0877  -20.0955   17.4269 C   0  0  0  0  0  0  0  0  0  0  0  0
  -17.2799  -30.4562   23.3693 C   0  0  0  0  0  0  0  0  0  0  0  0
  -23.3940  -28.2482   22.9644 C   0  0  0  0  0  0  0  0  0  0  0  0
  -23.6612  -25.6426   21.5916 C   0  0  0  0  0  0  0  0  0  0  0  0
  -17.8616  -29.9146   22.0659 C   0  0  0  0  0  0  0  0  0  0  0  0
  -30.7996  -17.1938   15.9700 C   0  0  0  0  0  0  0  0  0  0  0  0
  -18.0808  -28.4083   22.1644 C   0  0  0  0  0  0  0  0  0  0  0  0
  -30.3479  -16.0454   16.8734 C   0  0  0  0  0  0  0  0  0  0  0  0
  -28.9108  -20.5012   21.0767 C   0  0  0  0  0  0  0  0  0  0  0  0
  -29.7450  -18.2939   15.8736 C   0  0  0  0  0  0  0  0  0  0  0  0
  -28.5365  -19.6251   19.8857 C   0  0  0  0  0  0  0  0  0  0  0  0
  -28.8270  -17.6612   18.0714 C   0  0  0  0  0  0  0  0  0  0  0  0
  -28.8979  -21.8780   19.1381 C   0  0  0  0  0  0  0  0  0  0  0  0
  -19.0847  -28.0681   23.2725 C   0  0  1  0  0  0  0  0  0  0  0  0
  -22.5563  -27.8965   21.7388 C   0  0  1  0  0  0  0  0  0  0  0  0
  -29.8893  -16.5674   18.2478 C   0  0  1  0  0  0  0  0  0  0  0  0
  -28.4875  -21.8873   20.6029 C   0  0  2  0  0  0  0  0  0  0  0  0
  -29.7247  -25.9201   25.1133 C   0  0  0  0  0  0  0  0  0  0  0  0
  -26.4027  -21.5762   25.9005 C   0  0  0  0  0  0  0  0  0  0  0  0
  -27.2605  -25.4284   16.1013 C   0  0  0  0  0  0  0  0  0  0  0  0
  -21.1786  -24.7588   18.6376 C   0  0  0  0  0  0  0  0  0  0  0  0
  -22.9515  -23.9403   17.0707 C   0  0  0  0  0  0  0  0  0  0  0  0
  -21.9989  -26.2284   16.7877 C   0  0  0  0  0  0  0  0  0  0  0  0
  -28.2905  -27.2046   19.3045 C   0  0  0  0  0  0  0  0  0  0  0  0
  -26.0712  -22.7577   24.9845 C   0  0  1  0  0  0  0  0  0  1  0  0
  -23.5549  -25.7646   18.7257 C   0  0  1  0  0  0  0  0  0  0  0  0
  -27.0488  -26.2751   17.3467 C   0  0  2  0  0  0  0  0  0  0  0  0
  -22.4263  -25.1754   17.8333 C   0  0  0  0  0  0  0  0  0  0  0  0
  -28.0953  -15.1357   19.1490 N   0  0  0  0  0  0  0  0  0  0  0  0
  -27.9087  -24.3240   25.0129 N   0  0  0  0  0  0  0  0  0  0  0  0
  -27.6229  -22.8395   23.1362 N   0  0  0  0  0  0  0  0  0  0  0  0
  -29.4025  -15.4479   19.1483 N   0  0  0  0  0  0  0  0  0  0  0  0
  -23.1711  -26.8543   20.9141 N   0  0  0  0  0  0  0  0  0  0  0  0
  -29.3235  -18.7346   17.2036 N   0  0  0  0  0  0  0  0  0  0  0  0
  -28.7388  -20.4876   18.7186 N   0  0  0  0  0  0  0  0  0  0  0  0
  -31.4843  -14.8644   20.1160 N   0  0  0  0  0  0  0  0  0  0  0  0
  -28.5888  -12.0003   22.0678 N   0  0  0  0  0  0  0  0  0  0  0  0
  -29.1460  -22.9332   21.3402 N   0  0  0  0  0  0  0  0  0  0  0  0
  -20.4370  -28.3261   22.8259 N   0  0  0  0  0  0  0  0  0  0  0  0
  -24.7382  -26.1927   17.9875 N   0  0  0  0  0  0  0  0  0  0  0  0
  -28.3474  -26.3794   18.0704 N   0  3  0  0  0  0  0  0  0  0  0  0
  -30.7854  -12.6522   21.9747 O   0  0  0  0  0  0  0  0  0  0  0  0
  -20.8135  -26.3035   21.7351 O   0  0  0  0  0  0  0  0  0  0  0  0
  -22.6891  -27.9643   18.9211 O   0  0  0  0  0  0  0  0  0  0  0  0
  -26.2420  -24.8234   19.1014 O   0  0  0  0  0  0  0  0  0  0  0  0
  -29.2288  -20.9304   16.5235 O   0  0  0  0  0  0  0  0  0  0  0  0
  -23.1024  -11.7224   21.1414 O   0  0  0  0  0  0  0  0  0  0  0  0
  -25.3609  -23.7292   25.7653 O   0  0  0  0  0  0  0  0  0  1  0  0
  -22.9454   -6.2146   21.3492 F   0  0  0  0  0  0  0  0  0  0  0  0
  -21.4786  -10.2842   19.4276 F   0  0  0  0  0  0  0  0  0  0  0  0
  1  2  1  0  0  0  0
  1  5  2  0  0  0  0
  2  6  2  0  0  0  0
  3  8  2  0  0  0  0
  3 16  1  0  0  0  0
  4  9  1  0  0  0  0
  4 16  2  0  0  0  0
  5 18  1  0  0  0  0
  6 20  1  0  0  0  0
  7 10  2  0  0  0  0
  7 19  1  0  0  0  0
  8 22  1  0  0  0  0
  9 22  2  0  0  0  0
 10 23  1  0  0  0  0
 11 12  2  0  0  0  0
 11 24  1  0  0  0  0
 12 25  1  0  0  0  0
 13 21  1  0  0  0  0
 13 23  2  0  0  0  0
 14 25  2  0  0  0  0
 14 26  1  0  0  0  0
 15 28  1  0  0  0  0
 15 29  2  0  0  0  0
 16 27  1  0  0  0  0
 17 27  1  0  0  0  0
 17 30  2  0  0  0  0
 17 32  1  0  0  0  0
 18 20  2  0  0  0  0
 18 37  1  0  0  0  0
 19 21  2  0  0  0  0
 19 38  1  0  0  0  0
 20 49  1  0  0  0  0
 21 39  1  0  0  0  0
 22 82  1  0  0  0  0
 23 83  1  0  0  0  0
 24 26  2  0  0  0  0
 24 82  1  0  0  0  0
 25 84  1  0  0  0  0
 26 85  1  0  0  0  0
 27 64  2  0  0  0  0
 28 53  1  0  0  0  0
 28 65  2  0  0  0  0
 29 66  1  0  0  0  0
 29 73  1  0  0  0  0
 30 67  1  0  0  0  0
 30 71  1  0  0  0  0
 31 60  1  0  0  0  0
 31 65  1  0  0  0  0
 31 66  2  0  0  0  0
 32 72  1  0  0  0  0
 32 77  2  0  0  0  0
 33 50  1  0  0  0  0
 33 74  1  0  0  0  0
 33 78  2  0  0  0  0
 34 61  1  0  0  0  0
 34 68  1  0  0  0  0
 34 79  2  0  0  0  0
 35 62  1  0  0  0  0
 35 75  1  0  0  0  0
 35 80  2  0  0  0  0
 36 69  1  0  0  0  0
 36 70  1  0  0  0  0
 36 81  2  0  0  0  0
 37 40  1  0  0  0  0
 38 50  1  0  0  0  0
 39 68  1  0  0  0  0
 40 42  1  0  0  0  0
 41 43  1  0  0  0  0
 41 45  1  0  0  0  0
 42 49  1  0  0  0  0
 43 51  1  0  0  0  0
 44 46  1  0  0  0  0
 44 52  1  0  0  0  0
 45 69  1  0  0  0  0
 46 70  1  0  0  0  0
 47 51  1  0  0  0  0
 47 69  1  0  0  0  0
 48 52  1  0  0  0  0
 48 70  1  0  0  0  0
 49 74  1  0  0  0  0
 50 68  1  0  0  0  0
 51 67  1  0  0  0  0
 52 73  1  0  0  0  0
 54 60  1  0  0  0  0
 55 62  1  0  0  0  0
 56 63  1  0  0  0  0
 57 63  1  0  0  0  0
 58 63  1  0  0  0  0
 59 76  1  0  0  0  0
 60 83  1  0  0  0  0
 61 63  1  0  0  0  0
 61 75  1  0  0  0  0
 62 76  1  0  0  0  0
 64 67  1  0  0  0  0
M  CHG  1  76   1
M  ISO  4  36 100  60 101  70 100  83 101
M  END
> <Batch ID>
0172

> <Smiles>
CNC(C)C(=O)NC(C(=O)N1Cc2cc([101O:1][101CH:1](C)c3nc(C)cc(NC4CC[100N:0]([100C:0](=O)N5CCCC(n6nc(-c7ccc(Oc8ccc(F)cc8F)cc7)c(C(N)=O)c6N)C5)C4)n3)ccc2CC1C(=O)NC1CCCc2ccccc21)C(C)(C)C

> <Shape>
0.225

> <Color>
0.068

> <Negative vol penalty>
0.000

$$$$

  -OEChem-04052322403D

 85 94  0     1  0  0  0  0  0999 V2000
  -22.7394  -37.3692   17.9865 C   0  0  0  0  0  0  0  0  0  0  0  0
  -23.1135  -36.1572   17.4151 C   0  0  0  0  0  0  0  0  0  0  0  0
  -24.2733   -9.5776   22.0081 C   0  0  0  0  0  0  0  0  0  0  0  0
  -24.2698   -8.6756   19.7668 C   0  0  0  0  0  0  0  0  0  0  0  0
  -23.2087  -37.7159   19.2528 C   0  0  0  0  0  0  0  0  0  0  0  0
  -23.9581  -35.2916   18.1094 C   0  0  0  0  0  0  0  0  0  0  0  0
  -25.2526  -28.3079   19.0410 C   0  0  0  0  0  0  0  0  0  0  0  0
  -23.1369   -8.8281   22.3116 C   0  0  0  0  0  0  0  0  0  0  0  0
  -23.1333   -7.9259   20.0704 C   0  0  0  0  0  0  0  0  0  0  0  0
  -26.3013  -27.3906   18.9897 C   0  0  0  0  0  0  0  0  0  0  0  0
  -22.4067   -5.6266   23.1183 C   0  0  0  0  0  0  0  0  0  0  0  0
  -22.3871   -4.9423   24.3336 C   0  0  0  0  0  0  0  0  0  0  0  0
  -26.9865  -28.0594   21.2039 C   0  0  0  0  0  0  0  0  0  0  0  0
  -29.2784  -23.2828   19.2698 C   0  0  0  0  0  0  0  0  0  0  0  0
  -20.4293   -6.1891   25.0041 C   0  0  0  0  0  0  0  0  0  0  0  0
  -31.6313  -22.9426   19.3402 C   0  0  0  0  0  0  0  0  0  0  0  0
  -24.8398   -9.5015   20.7357 C   0  0  0  0  0  0  0  0  0  0  0  0
  -27.3568   -9.8848   20.5765 C   0  0  0  0  0  0  0  0  0  0  0  0
  -24.0517  -36.8499   19.9669 C   0  0  0  0  0  0  0  0  0  0  0  0
  -25.0692  -29.1169   20.1716 C   0  0  0  0  0  0  0  0  0  0  0  0
  -24.4402  -35.6277   19.3858 C   0  0  0  0  0  0  0  0  0  0  0  0
  -25.9331  -28.9843   21.2680 C   0  0  0  0  0  0  0  0  0  0  0  0
  -29.5114  -24.6313   19.0237 C   0  0  0  0  0  0  0  0  0  0  0  0
  -22.5669   -8.0022   21.3428 C   0  0  0  0  0  0  0  0  0  0  0  0
  -27.1702  -27.2683   20.0701 C   0  0  0  0  0  0  0  0  0  0  0  0
  -21.4377   -6.5923   22.8460 C   0  0  0  0  0  0  0  0  0  0  0  0
  -30.3531  -22.4157   19.4323 C   0  0  0  0  0  0  0  0  0  0  0  0
  -21.3984   -5.2235   25.2765 C   0  0  0  0  0  0  0  0  0  0  0  0
  -20.4490   -6.8736   23.7889 C   0  0  0  0  0  0  0  0  0  0  0  0
  -26.0134  -10.2760   20.4213 C   0  0  0  0  0  0  0  0  0  0  0  0
  -30.8273  -25.0591   18.9501 C   0  0  0  0  0  0  0  0  0  0  0  0
  -28.0820  -10.9662   20.1392 C   0  0  0  0  0  0  0  0  0  0  0  0
  -27.9005   -8.6539   21.0715 C   0  0  0  0  0  0  0  0  0  0  0  0
  -25.1089  -32.2476   20.7201 C   0  0  0  0  0  0  0  0  0  0  0  0
  -24.1378  -31.3469   23.6812 C   0  0  0  0  0  0  0  0  0  0  0  0
  -24.0035  -28.9144   26.0711 C   0  0  0  0  0  0  0  0  0  0  0  0
  -29.1449  -16.2213   19.8813 C   0  0  0  0  0  0  0  0  0  0  0  0
  -24.5716  -37.2892   21.3128 C   0  0  0  0  0  0  0  0  0  0  0  0
  -23.9170  -30.0825   20.2220 C   0  0  0  0  0  0  0  0  0  0  0  0
  -25.7672  -29.8150   22.5134 C   0  0  0  0  0  0  0  0  0  0  0  0
  -25.1616  -36.1494   22.1394 C   0  0  0  0  0  0  0  0  0  0  0  0
  -26.6388  -15.1340   17.6769 C   0  0  0  0  0  0  0  0  0  0  0  0
  -26.0931  -35.2964   21.2842 C   0  0  0  0  0  0  0  0  0  0  0  0
  -26.3555  -13.7293   18.2088 C   0  0  0  0  0  0  0  0  0  0  0  0
  -30.3235  -19.2498   18.0962 C   0  0  0  0  0  0  0  0  0  0  0  0
  -28.1477  -19.7826   19.2759 C   0  0  0  0  0  0  0  0  0  0  0  0
  -26.8515  -16.1425   18.8071 C   0  0  0  0  0  0  0  0  0  0  0  0
  -30.5358  -18.0878   19.0653 C   0  0  0  0  0  0  0  0  0  0  0  0
  -28.4115  -18.6116   20.2197 C   0  0  0  0  0  0  0  0  0  0  0  0
  -27.6012  -14.3340   20.3184 C   0  0  0  0  0  0  0  0  0  0  0  0
  -25.3349  -34.6511   20.1179 C   0  0  1  0  0  0  0  0  0  0  0  0
  -24.1329  -31.2188   21.2168 C   0  0  1  0  0  0  0  0  0  0  0  0
  -27.4412  -13.2864   19.2056 C   0  0  1  0  0  0  0  0  0  0  0  0
  -29.4371  -20.3504   18.6801 C   0  0  0  0  0  0  0  0  0  0  0  0
  -31.1376  -26.4966   18.6883 C   0  0  0  0  0  0  0  0  0  0  0  0
  -23.1777  -28.4862   28.4018 C   0  0  0  0  0  0  0  0  0  0  0  0
  -26.4669  -32.9685   24.8017 C   0  0  0  0  0  0  0  0  0  0  0  0
  -26.1731  -31.7589   26.9740 C   0  0  0  0  0  0  0  0  0  0  0  0
  -24.3312  -33.1868   26.0845 C   0  0  0  0  0  0  0  0  0  0  0  0
  -22.2098  -26.7433   25.1612 C   0  0  0  0  0  0  0  0  0  0  0  0
  -28.3644  -25.5653   18.8487 C   0  0  0  0  0  0  0  0  0  1  0  0
  -24.8346  -30.9751   24.9678 C   0  0  1  0  0  0  0  0  0  0  0  0
  -22.8550  -28.3970   26.9183 C   0  0  2  0  0  0  0  0  0  0  0  0
  -25.4560  -32.2079   25.6829 C   0  0  0  0  0  0  0  0  0  0  0  0
  -31.8970  -24.2466   19.1024 N   0  0  0  0  0  0  0  0  0  0  0  0
  -25.8897  -11.5096   19.9245 N   0  0  0  0  0  0  0  0  0  0  0  0
  -27.1646  -11.9030   19.7637 N   0  0  0  0  0  0  0  0  0  0  0  0
  -24.6295  -30.7495   22.5120 N   0  0  0  0  0  0  0  0  0  0  0  0
  -27.8663  -15.6584   19.7526 N   0  0  0  0  0  0  0  0  0  0  0  0
  -29.2668  -17.5921   19.5973 N   0  0  0  0  0  0  0  0  0  0  0  0
  -29.4085  -11.1976   20.0432 N   0  0  0  0  0  0  0  0  0  0  0  0
  -27.0139   -7.6478   21.4787 N   0  0  0  0  0  0  0  0  0  0  0  0
  -24.5705  -33.5125   20.5802 N   0  0  0  0  0  0  0  0  0  0  0  0
  -23.8534  -30.2514   25.7689 N   0  0  0  0  0  0  0  0  0  0  0  0
  -22.5657  -26.9736   26.5850 N   0  3  0  0  0  0  0  0  0  0  0  0
  -29.1360   -8.4586   21.1658 O   0  0  0  0  0  0  0  0  0  0  0  0
  -26.2652  -31.9184   20.4827 O   0  0  0  0  0  0  0  0  0  0  0  0
  -23.1876  -32.1329   23.7134 O   0  0  0  0  0  0  0  0  0  0  0  0
  -24.9419  -28.2045   25.7162 O   0  0  0  0  0  0  0  0  0  0  0  0
  -30.1204  -15.5423   20.2254 O   0  0  0  0  0  0  0  0  0  0  0  0
  -21.4581   -7.2704   21.6387 O   0  0  0  0  0  0  0  0  0  0  0  0
  -30.1543  -21.0815   19.6723 O   0  0  0  0  0  0  0  0  0  0  0  0
  -28.2148  -26.3571   20.0215 O   0  0  0  0  0  0  0  0  0  1  0  0
  -21.3787   -4.5651   26.4428 F   0  0  0  0  0  0  0  0  0  0  0  0
  -19.5147   -7.7994   23.5324 F   0  0  0  0  0  0  0  0  0  0  0  0
  1  2  1  0  0  0  0
  1  5  2  0  0  0  0
  2  6  2  0  0  0  0
  3  8  2  0  0  0  0
  3 17  1  0  0  0  0
  4  9  1  0  0  0  0
  4 17  2  0  0  0  0
  5 19  1  0  0  0  0
  6 21  1  0  0  0  0
  7 10  2  0  0  0  0
  7 20  1  0  0  0  0
  8 24  1  0  0  0  0
  9 24  2  0  0  0  0
 10 25  1  0  0  0  0
 11 12  2  0  0  0  0
 11 26  1  0  0  0  0
 12 28  1  0  0  0  0
 13 22  1  0  0  0  0
 13 25  2  0  0  0  0
 14 23  1  0  0  0  0
 14 27  2  0  0  0  0
 15 28  2  0  0  0  0
 15 29  1  0  0  0  0
 16 27  1  0  0  0  0
 16 65  2  0  0  0  0
 17 30  1  0  0  0  0
 18 30  1  0  0  0  0
 18 32  2  0  0  0  0
 18 33  1  0  0  0  0
 19 21  2  0  0  0  0
 19 38  1  0  0  0  0
 20 22  2  0  0  0  0
 20 39  1  0  0  0  0
 21 51  1  0  0  0  0
 22 40  1  0  0  0  0
 23 31  2  0  0  0  0
 23 61  1  0  0  0  0
 24 81  1  0  0  0  0
 25 83  1  0  0  0  0
 26 29  2  0  0  0  0
 26 81  1  0  0  0  0
 27 82  1  0  0  0  0
 28 84  1  0  0  0  0
 29 85  1  0  0  0  0
 30 66  2  0  0  0  0
 31 55  1  0  0  0  0
 31 65  1  0  0  0  0
 32 67  1  0  0  0  0
 32 71  1  0  0  0  0
 33 72  1  0  0  0  0
 33 76  2  0  0  0  0
 34 52  1  0  0  0  0
 34 73  1  0  0  0  0
 34 77  2  0  0  0  0
 35 62  1  0  0  0  0
 35 68  1  0  0  0  0
 35 78  2  0  0  0  0
 36 63  1  0  0  0  0
 36 74  1  0  0  0  0
 36 79  2  0  0  0  0
 37 69  1  0  0  0  0
 37 70  1  0  0  0  0
 37 80  2  0  0  0  0
 38 41  1  0  0  0  0
 39 52  1  0  0  0  0
 40 68  1  0  0  0  0
 41 43  1  0  0  0  0
 42 44  1  0  0  0  0
 42 47  1  0  0  0  0
 43 51  1  0  0  0  0
 44 53  1  0  0  0  0
 45 48  1  0  0  0  0
 45 54  1  0  0  0  0
 46 49  1  0  0  0  0
 46 54  1  0  0  0  0
 47 69  1  0  0  0  0
 48 70  1  0  0  0  0
 49 70  1  0  0  0  0
 50 53  1  0  0  0  0
 50 69  1  0  0  0  0
 51 73  1  0  0  0  0
 52 68  1  0  0  0  0
 53 67  1  0  0  0  0
 54 82  1  0  0  0  0
 56 63  1  0  0  0  0
 57 64  1  0  0  0  0
 58 64  1  0  0  0  0
 59 64  1  0  0  0  0
 60 75  1  0  0  0  0
 61 83  1  0  0  0  0
 62 64  1  0  0  0  0
 62 74  1  0  0  0  0
 63 75  1  0  0  0  0
 66 67  1  0  0  0  0
M  CHG  1  75   1
M  ISO  4  37 100  61 101  70 100  83 101
M  END
> <Batch ID>
0172

> <Smiles>
CNC(C)C(=O)NC(C(=O)N1Cc2cc([101O:1][101CH2:1]c3cc(OC4CC[100N:0]([100C:0](=O)N5CCCC(n6nc(-c7ccc(Oc8ccc(F)cc8F)cc7)c(C(N)=O)c6N)C5)CC4)cnc3C)ccc2CC1C(=O)NC1CCCc2ccccc21)C(C)(C)C

> <Shape>
0.297

> <Color>
0.134

> <Negative vol penalty>
0.000

$$$$

  -OEChem-04052322403D

 85 94  0     1  0  0  0  0  0999 V2000
  -27.2330  -37.8299   19.2236 C   0  0  0  0  0  0  0  0  0  0  0  0
  -27.5451  -36.6027   18.6475 C   0  0  0  0  0  0  0  0  0  0  0  0
  -23.4938  -10.3965   21.4821 C   0  0  0  0  0  0  0  0  0  0  0  0
  -24.9509   -8.5503   22.0348 C   0  0  0  0  0  0  0  0  0  0  0  0
  -26.8838  -37.8971   20.5717 C   0  0  0  0  0  0  0  0  0  0  0  0
  -27.5091  -35.4420   19.4196 C   0  0  0  0  0  0  0  0  0  0  0  0
  -26.0470  -28.4471   18.9190 C   0  0  0  0  0  0  0  0  0  0  0  0
  -22.4217   -9.5130   21.3570 C   0  0  0  0  0  0  0  0  0  0  0  0
  -23.8788   -7.6667   21.9097 C   0  0  0  0  0  0  0  0  0  0  0  0
  -26.6113  -27.2055   19.2082 C   0  0  0  0  0  0  0  0  0  0  0  0
  -21.4480   -4.9691   22.0891 C   0  0  0  0  0  0  0  0  0  0  0  0
  -21.2898   -3.9963   23.0761 C   0  0  0  0  0  0  0  0  0  0  0  0
  -25.9170  -27.4321   21.5073 C   0  0  0  0  0  0  0  0  0  0  0  0
  -29.8343  -22.1538   21.4152 C   0  0  0  0  0  0  0  0  0  0  0  0
  -21.0590   -5.7275   24.7454 C   0  0  0  0  0  0  0  0  0  0  0  0
  -24.7584   -9.9151   21.8210 C   0  0  0  0  0  0  0  0  0  0  0  0
  -26.2808  -11.5024   23.1135 C   0  0  0  0  0  0  0  0  0  0  0  0
  -26.8341  -36.7355   21.3583 C   0  0  0  0  0  0  0  0  0  0  0  0
  -25.4220  -29.1968   19.9259 C   0  0  0  0  0  0  0  0  0  0  0  0
  -27.1602  -35.4940   20.7798 C   0  0  0  0  0  0  0  0  0  0  0  0
  -25.3433  -28.6819   21.2278 C   0  0  0  0  0  0  0  0  0  0  0  0
  -29.3800  -23.3938   20.9799 C   0  0  0  0  0  0  0  0  0  0  0  0
  -28.2331  -23.4723   20.1977 C   0  0  0  0  0  0  0  0  0  0  0  0
  -22.6142   -8.1481   21.5708 C   0  0  0  0  0  0  0  0  0  0  0  0
  -26.5489  -26.6991   20.5031 C   0  0  0  0  0  0  0  0  0  0  0  0
  -21.4118   -6.3211   22.4302 C   0  0  0  0  0  0  0  0  0  0  0  0
  -21.0953   -4.3755   24.4043 C   0  0  0  0  0  0  0  0  0  0  0  0
  -21.2173   -6.7003   23.7584 C   0  0  0  0  0  0  0  0  0  0  0  0
  -25.8664  -10.8272   21.9498 C   0  0  0  0  0  0  0  0  0  0  0  0
  -27.5820  -22.2910   19.8808 C   0  0  0  0  0  0  0  0  0  0  0  0
  -29.1114  -21.0316   21.0440 C   0  0  0  0  0  0  0  0  0  0  0  0
  -27.3683  -12.2399   22.7138 C   0  0  0  0  0  0  0  0  0  0  0  0
  -25.7317  -11.4661   24.4375 C   0  0  0  0  0  0  0  0  0  0  0  0
  -25.9347  -32.0401   21.2512 C   0  0  0  0  0  0  0  0  0  0  0  0
  -23.1409  -31.4015   22.7709 C   0  0  0  0  0  0  0  0  0  0  0  0
  -20.9163  -29.0648   23.8834 C   0  0  0  0  0  0  0  0  0  0  0  0
  -29.5523  -15.7407   18.8600 C   0  0  0  0  0  0  0  0  0  0  0  0
  -26.4970  -36.8642   22.8227 C   0  0  0  0  0  0  0  0  0  0  0  0
  -24.7947  -30.5224   19.5919 C   0  0  0  0  0  0  0  0  0  0  0  0
  -24.6657  -29.4381   22.3401 C   0  0  0  0  0  0  0  0  0  0  0  0
  -26.1187  -35.5391   23.4794 C   0  0  0  0  0  0  0  0  0  0  0  0
  -30.0429  -12.1293   18.4242 C   0  0  0  0  0  0  0  0  0  0  0  0
  -27.1130  -34.4487   23.0930 C   0  0  0  0  0  0  0  0  0  0  0  0
  -28.9976  -11.5295   19.3656 C   0  0  0  0  0  0  0  0  0  0  0  0
  -29.3957  -17.4331   22.1201 C   0  0  0  0  0  0  0  0  0  0  0  0
  -29.6024  -13.4815   17.8681 C   0  0  0  0  0  0  0  0  0  0  0  0
  -29.0321  -16.1794   21.3314 C   0  0  0  0  0  0  0  0  0  0  0  0
  -28.1590  -13.8621   19.8289 C   0  0  0  0  0  0  0  0  0  0  0  0
  -29.3353  -18.0168   19.8158 C   0  0  0  0  0  0  0  0  0  0  0  0
  -27.1083  -34.2095   21.5783 C   0  0  1  0  0  0  0  0  0  0  0  0
  -24.6349  -31.4309   20.8071 C   0  0  1  0  0  0  0  0  0  0  0  0
  -28.5961  -12.5339   20.4619 C   0  0  1  0  0  0  0  0  0  0  0  0
  -28.9367  -18.5466   21.1850 C   0  0  2  0  0  0  0  0  0  0  0  0
  -30.1376  -24.6217   21.3633 C   0  0  0  0  0  0  0  0  0  0  0  0
  -26.3454  -22.3133   19.0432 C   0  0  0  0  0  0  0  0  0  0  0  0
  -18.7459  -28.8446   25.1237 C   0  0  0  0  0  0  0  0  0  0  0  0
  -24.5902  -31.9492   25.3994 C   0  0  0  0  0  0  0  0  0  0  0  0
  -22.7051  -30.8151   26.5946 C   0  0  0  0  0  0  0  0  0  0  0  0
  -22.2745  -32.8848   25.2704 C   0  0  0  0  0  0  0  0  0  0  0  0
  -19.5866  -27.7941   21.5648 C   0  0  0  0  0  0  0  0  0  0  0  0
  -27.7253  -24.7889   19.7135 C   0  0  0  0  0  0  0  0  0  1  0  0
  -22.7577  -30.7177   24.0610 C   0  0  1  0  0  0  0  0  0  0  0  0
  -19.4061  -28.9725   23.7597 C   0  0  2  0  0  0  0  0  0  0  0  0
  -23.0964  -31.5781   25.3110 C   0  0  0  0  0  0  0  0  0  0  0  0
  -26.6285  -11.1108   20.8902 N   0  0  0  0  0  0  0  0  0  0  0  0
  -27.9931  -21.0683   20.2852 N   0  0  0  0  0  0  0  0  0  0  0  0
  -27.5326  -11.9723   21.3865 N   0  0  0  0  0  0  0  0  0  0  0  0
  -24.0730  -30.7325   21.9649 N   0  0  0  0  0  0  0  0  0  0  0  0
  -29.2056  -14.3879   18.9459 N   0  0  0  0  0  0  0  0  0  0  0  0
  -29.2049  -16.5661   19.9288 N   0  0  0  0  0  0  0  0  0  0  0  0
  -28.1904  -13.0847   23.3716 N   0  0  0  0  0  0  0  0  0  0  0  0
  -24.6133  -10.6555   24.6751 N   0  0  0  0  0  0  0  0  0  0  0  0
  -29.5768  -19.8001   21.4849 N   0  0  0  0  0  0  0  0  0  0  0  0
  -25.9573  -33.4206   21.1948 N   0  0  0  0  0  0  0  0  0  0  0  0
  -21.3452  -30.3741   23.9370 N   0  0  0  0  0  0  0  0  0  0  0  0
  -19.0250  -27.7875   22.9401 N   0  3  0  0  0  0  0  0  0  0  0  0
  -26.2086  -12.1453   25.3782 O   0  0  0  0  0  0  0  0  0  0  0  0
  -26.8488  -31.3117   21.6193 O   0  0  0  0  0  0  0  0  0  0  0  0
  -22.6266  -32.4857   22.4851 O   0  0  0  0  0  0  0  0  0  0  0  0
  -21.6425  -28.0744   23.9317 O   0  0  0  0  0  0  0  0  0  0  0  0
  -30.1862  -16.1831   17.8928 O   0  0  0  0  0  0  0  0  0  0  0  0
  -21.5682   -7.2857   21.4490 O   0  0  0  0  0  0  0  0  0  0  0  0
  -27.1032  -25.4792   20.7901 O   0  0  0  0  0  0  0  0  0  1  0  0
  -20.9418   -3.4412   25.3518 F   0  0  0  0  0  0  0  0  0  0  0  0
  -21.1803   -7.9977   24.0920 F   0  0  0  0  0  0  0  0  0  0  0  0
  1  2  1  0  0  0  0
  1  5  2  0  0  0  0
  2  6  2  0  0  0  0
  3  8  2  0  0  0  0
  3 16  1  0  0  0  0
  4  9  1  0  0  0  0
  4 16  2  0  0  0  0
  5 18  1  0  0  0  0
  6 20  1  0  0  0  0
  7 10  2  0  0  0  0
  7 19  1  0  0  0  0
  8 24  1  0  0  0  0
  9 24  2  0  0  0  0
 10 25  1  0  0  0  0
 11 12  2  0  0  0  0
 11 26  1  0  0  0  0
 12 27  1  0  0  0  0
 13 21  1  0  0  0  0
 13 25  2  0  0  0  0
 14 22  2  0  0  0  0
 14 31  1  0  0  0  0
 15 27  2  0  0  0  0
 15 28  1  0  0  0  0
 16 29  1  0  0  0  0
 17 29  1  0  0  0  0
 17 32  2  0  0  0  0
 17 33  1  0  0  0  0
 18 20  2  0  0  0  0
 18 38  1  0  0  0  0
 19 21  2  0  0  0  0
 19 39  1  0  0  0  0
 20 50  1  0  0  0  0
 21 40  1  0  0  0  0
 22 23  1  0  0  0  0
 22 54  1  0  0  0  0
 23 30  2  0  0  0  0
 23 61  1  0  0  0  0
 24 82  1  0  0  0  0
 25 83  1  0  0  0  0
 26 28  2  0  0  0  0
 26 82  1  0  0  0  0
 27 84  1  0  0  0  0
 28 85  1  0  0  0  0
 29 65  2  0  0  0  0
 30 55  1  0  0  0  0
 30 66  1  0  0  0  0
 31 66  2  0  0  0  0
 31 73  1  0  0  0  0
 32 67  1  0  0  0  0
 32 71  1  0  0  0  0
 33 72  1  0  0  0  0
 33 77  2  0  0  0  0
 34 51  1  0  0  0  0
 34 74  1  0  0  0  0
 34 78  2  0  0  0  0
 35 62  1  0  0  0  0
 35 68  1  0  0  0  0
 35 79  2  0  0  0  0
 36 63  1  0  0  0  0
 36 75  1  0  0  0  0
 36 80  2  0  0  0  0
 37 69  1  0  0  0  0
 37 70  1  0  0  0  0
 37 81  2  0  0  0  0
 38 41  1  0  0  0  0
 39 51  1  0  0  0  0
 40 68  1  0  0  0  0
 41 43  1  0  0  0  0
 42 44  1  0  0  0  0
 42 46  1  0  0  0  0
 43 50  1  0  0  0  0
 44 52  1  0  0  0  0
 45 47  1  0  0  0  0
 45 53  1  0  0  0  0
 46 69  1  0  0  0  0
 47 70  1  0  0  0  0
 48 52  1  0  0  0  0
 48 69  1  0  0  0  0
 49 53  1  0  0  0  0
 49 70  1  0  0  0  0
 50 74  1  0  0  0  0
 51 68  1  0  0  0  0
 52 67  1  0  0  0  0
 53 73  1  0  0  0  0
 56 63  1  0  0  0  0
 57 64  1  0  0  0  0
 58 64  1  0  0  0  0
 59 64  1  0  0  0  0
 60 76  1  0  0  0  0
 61 83  1  0  0  0  0
 62 64  1  0  0  0  0
 62 75  1  0  0  0  0
 63 76  1  0  0  0  0
 65 67  1  0  0  0  0
M  CHG  1  76   1
M  ISO  4  37 100  61 101  70 100  83 101
M  END
> <Batch ID>
0172

> <Smiles>
CNC(C)C(=O)NC(C(=O)N1Cc2cc([101O:1][101CH2:1]c3c(C)cc(NC4CC[100N:0]([100C:0](=O)N5CCCC(n6nc(-c7ccc(Oc8ccc(F)cc8F)cc7)c(C(N)=O)c6N)C5)C4)nc3C)ccc2CC1C(=O)NC1CCCc2ccccc21)C(C)(C)C

> <Shape>
0.329

> <Color>
0.110

> <Negative vol penalty>
0.000

$$$$

  -OEChem-04052322403D

 92103  0     1  0  0  0  0  0999 V2000
  -16.8479  -28.8421   24.2651 C   0  0  0  0  0  0  0  0  0  0  0  0
  -17.5112  -27.8159   23.6002 C   0  0  0  0  0  0  0  0  0  0  0  0
  -28.0296  -14.0372   16.4783 C   0  0  0  0  0  0  0  0  0  0  0  0
  -29.6100  -12.5040   17.4726 C   0  0  0  0  0  0  0  0  0  0  0  0
  -17.2580  -30.1633   24.0912 C   0  0  0  0  0  0  0  0  0  0  0  0
  -18.5844  -28.1103   22.7600 C   0  0  0  0  0  0  0  0  0  0  0  0
  -24.8214  -25.3980   20.5106 C   0  0  0  0  0  0  0  0  0  0  0  0
  -28.2704  -13.4732   15.2256 C   0  0  0  0  0  0  0  0  0  0  0  0
  -29.8508  -11.9399   16.2198 C   0  0  0  0  0  0  0  0  0  0  0  0
  -25.5091  -25.1120   19.3320 C   0  0  0  0  0  0  0  0  0  0  0  0
  -28.2006  -12.1969   11.8224 C   0  0  0  0  0  0  0  0  0  0  0  0
  -27.0984  -11.9152   11.0153 C   0  0  0  0  0  0  0  0  0  0  0  0
  -32.1399  -25.8857   18.5361 C   0  0  0  0  0  0  0  0  0  0  0  0
  -26.1798  -27.4235   19.1696 C   0  0  0  0  0  0  0  0  0  0  0  0
  -26.2381  -10.4243   12.7107 C   0  0  0  0  0  0  0  0  0  0  0  0
  -28.6994  -13.5527   17.6018 C   0  0  0  0  0  0  0  0  0  0  0  0
  -27.4787  -13.7404   19.8339 C   0  0  0  0  0  0  0  0  0  0  0  0
  -18.3428  -30.4732   23.2559 C   0  0  0  0  0  0  0  0  0  0  0  0
  -24.7987  -26.7033   21.0226 C   0  0  0  0  0  0  0  0  0  0  0  0
  -19.0085  -29.4370   22.5736 C   0  0  0  0  0  0  0  0  0  0  0  0
  -31.6625  -26.6511   17.4614 C   0  0  0  0  0  0  0  0  0  0  0  0
  -31.4843  -24.7172   18.9227 C   0  0  0  0  0  0  0  0  0  0  0  0
  -25.4932  -27.7230   20.3562 C   0  0  0  0  0  0  0  0  0  0  0  0
  -30.5260  -26.2161   16.7546 C   0  0  0  0  0  0  0  0  0  0  0  0
  -30.3483  -24.2979   18.2365 C   0  0  0  0  0  0  0  0  0  0  0  0
  -29.8696  -25.0442   17.1601 C   0  0  0  0  0  0  0  0  0  0  0  0
  -29.1810  -12.4245   15.0963 C   0  0  0  0  0  0  0  0  0  0  0  0
  -26.1860  -26.1254   18.6597 C   0  0  0  0  0  0  0  0  0  0  0  0
  -28.3216  -11.5923   13.0736 C   0  0  0  0  0  0  0  0  0  0  0  0
  -26.1172  -11.0289   11.4595 C   0  0  0  0  0  0  0  0  0  0  0  0
  -27.3403  -10.7060   13.5177 C   0  0  0  0  0  0  0  0  0  0  0  0
  -28.4515  -14.1354   18.8961 C   0  0  0  0  0  0  0  0  0  0  0  0
  -27.6507  -14.6013   20.8902 C   0  0  0  0  0  0  0  0  0  0  0  0
  -26.5066  -12.6894   19.7572 C   0  0  0  0  0  0  0  0  0  0  0  0
  -22.5238  -28.8469   21.6002 C   0  0  0  0  0  0  0  0  0  0  0  0
  -24.9738  -30.5166   22.9164 C   0  0  0  0  0  0  0  0  0  0  0  0
  -28.3333  -31.0979   23.0658 C   0  0  0  0  0  0  0  0  0  0  0  0
  -29.7795  -20.0401   21.4676 C   0  0  0  0  0  0  0  0  0  0  0  0
  -18.7196  -31.9207   23.0623 C   0  0  0  0  0  0  0  0  0  0  0  0
  -24.0746  -26.9900   22.3094 C   0  0  0  0  0  0  0  0  0  0  0  0
  -32.4185  -27.8906   17.0524 C   0  0  0  0  0  0  0  0  0  0  0  0
  -29.9585  -27.0135   15.6069 C   0  0  0  0  0  0  0  0  0  0  0  0
  -25.5166  -29.1367   20.8751 C   0  0  0  0  0  0  0  0  0  0  0  0
  -20.1034  -32.1128   22.4470 C   0  0  0  0  0  0  0  0  0  0  0  0
  -31.6107  -28.8187   16.1471 C   0  0  0  0  0  0  0  0  0  0  0  0
  -30.9460  -28.0257   15.0293 C   0  0  0  0  0  0  0  0  0  0  0  0
  -30.9798  -17.2313   23.0856 C   0  0  0  0  0  0  0  0  0  0  0  0
  -32.6513  -24.6713   21.2270 C   0  0  0  0  0  0  0  0  0  0  0  0
  -33.5098  -23.8789   20.2913 C   0  0  0  0  0  0  0  0  0  0  0  0
  -20.2892  -31.1850   21.2506 C   0  0  0  0  0  0  0  0  0  0  0  0
  -30.3766  -16.0707   22.2947 C   0  0  0  0  0  0  0  0  0  0  0  0
  -30.5280  -21.7857   18.5162 C   0  0  0  0  0  0  0  0  0  0  0  0
  -29.0783  -23.1333   20.0949 C   0  0  0  0  0  0  0  0  0  0  0  0
  -31.4469  -18.3427   22.1529 C   0  0  0  0  0  0  0  0  0  0  0  0
  -29.8110  -20.5140   18.9785 C   0  0  0  0  0  0  0  0  0  0  0  0
  -28.3802  -21.8380   20.4991 C   0  0  0  0  0  0  0  0  0  0  0  0
  -29.7619  -17.7156   20.4542 C   0  0  0  0  0  0  0  0  0  0  0  0
  -32.0210  -23.9346   20.0756 C   0  0  0  0  0  0  0  0  0  0  0  0
  -29.6332  -23.0296   18.6626 C   0  0  0  0  0  0  0  0  0  0  0  0
  -20.1928  -29.7140   21.6731 C   0  0  1  0  0  0  0  0  0  0  0  0
  -23.6899  -28.4582   22.4643 C   0  0  1  0  0  0  0  0  0  0  0  0
  -29.2652  -16.5633   21.3509 C   0  0  1  0  0  0  0  0  0  0  0  0
  -28.8390  -23.2058   15.7853 C   0  0  0  0  0  0  0  0  0  0  0  0
  -30.0325  -32.5490   24.2078 C   0  0  0  0  0  0  0  0  0  0  0  0
  -24.1788  -32.8541   21.1236 C   0  0  0  0  0  0  0  0  0  0  0  0
  -26.4129  -33.8825   21.5921 C   0  0  0  0  0  0  0  0  0  0  0  0
  -24.8039  -33.4957   23.4586 C   0  0  0  0  0  0  0  0  0  0  0  0
  -29.6799  -28.7615   24.2851 C   0  0  0  0  0  0  0  0  0  0  0  0
  -27.3975  -24.5352   17.3717 C   0  0  0  0  0  0  0  0  0  1  0  0
  -28.6344  -24.5790   16.4501 C   0  0  1  0  0  0  0  0  0  0  0  0
  -25.9794  -31.5202   22.4061 C   0  0  1  0  0  0  0  0  0  0  0  0
  -29.2818  -31.2269   24.2439 C   0  0  2  0  0  0  0  0  0  0  0  0
  -25.3419  -32.9120   22.1340 C   0  0  0  0  0  0  0  0  0  0  0  0
  -29.1869  -15.1670   19.3193 N   0  0  0  0  0  0  0  0  0  0  0  0
  -28.6759  -15.4276   20.5346 N   0  0  0  0  0  0  0  0  0  0  0  0
  -24.7885  -29.3682   22.1336 N   0  0  0  0  0  0  0  0  0  0  0  0
  -30.3649  -18.7803   21.2711 N   0  0  0  0  0  0  0  0  0  0  0  0
  -29.2678  -20.6875   20.3329 N   0  0  0  0  0  0  0  0  0  0  0  0
  -27.0234  -14.7247   22.0792 N   0  0  0  0  0  0  0  0  0  0  0  0
  -26.4668  -11.8993   18.6002 N   0  0  0  0  0  0  0  0  0  0  0  0
  -21.4220  -29.2888   22.3075 N   0  0  0  0  0  0  0  0  0  0  0  0
  -27.0658  -31.5406   23.3797 N   0  0  0  0  0  0  0  0  0  0  0  0
  -30.2792  -30.1197   24.2297 N   0  3  0  0  0  0  0  0  0  0  0  0
  -25.6864  -12.4682   20.6801 O   0  0  0  0  0  0  0  0  0  0  0  0
  -22.6173  -28.7544   20.3818 O   0  0  0  0  0  0  0  0  0  0  0  0
  -24.3799  -30.7398   23.9743 O   0  0  0  0  0  0  0  0  0  0  0  0
  -28.6829  -30.6526   21.9749 O   0  0  0  0  0  0  0  0  0  0  0  0
  -29.7167  -20.5564   22.5903 O   0  0  0  0  0  0  0  0  0  0  0  0
  -29.4161  -11.8736   13.8741 O   0  0  0  0  0  0  0  0  0  0  0  0
  -26.8618  -25.8473   17.5012 O   0  0  0  0  0  0  0  0  0  1  0  0
  -25.0580  -10.7596   10.6850 F   0  0  0  0  0  0  0  0  0  0  0  0
  -27.4505  -10.1230   14.7193 F   0  0  0  0  0  0  0  0  0  0  0  0
  1  2  1  0  0  0  0
  1  5  2  0  0  0  0
  2  6  2  0  0  0  0
  3  8  2  0  0  0  0
  3 16  1  0  0  0  0
  4  9  1  0  0  0  0
  4 16  2  0  0  0  0
  5 18  1  0  0  0  0
  6 20  1  0  0  0  0
  7 10  2  0  0  0  0
  7 19  1  0  0  0  0
  8 27  1  0  0  0  0
  9 27  2  0  0  0  0
 10 28  1  0  0  0  0
 11 12  2  0  0  0  0
 11 29  1  0  0  0  0
 12 30  1  0  0  0  0
 13 21  1  0  0  0  0
 13 22  2  0  0  0  0
 14 23  1  0  0  0  0
 14 28  2  0  0  0  0
 15 30  2  0  0  0  0
 15 31  1  0  0  0  0
 16 32  1  0  0  0  0
 17 32  1  0  0  0  0
 17 33  2  0  0  0  0
 17 34  1  0  0  0  0
 18 20  2  0  0  0  0
 18 39  1  0  0  0  0
 19 23  2  0  0  0  0
 19 40  1  0  0  0  0
 20 60  1  0  0  0  0
 21 24  2  0  0  0  0
 21 41  1  0  0  0  0
 22 25  1  0  0  0  0
 22 58  1  0  0  0  0
 23 43  1  0  0  0  0
 24 26  1  0  0  0  0
 24 42  1  0  0  0  0
 25 26  2  0  0  0  0
 25 59  1  0  0  0  0
 26 70  1  0  0  0  0
 27 89  1  0  0  0  0
 28 90  1  0  0  0  0
 29 31  2  0  0  0  0
 29 89  1  0  0  0  0
 30 91  1  0  0  0  0
 31 92  1  0  0  0  0
 32 74  2  0  0  0  0
 33 75  1  0  0  0  0
 33 79  1  0  0  0  0
 34 80  1  0  0  0  0
 34 84  2  0  0  0  0
 35 61  1  0  0  0  0
 35 81  1  0  0  0  0
 35 85  2  0  0  0  0
 36 71  1  0  0  0  0
 36 76  1  0  0  0  0
 36 86  2  0  0  0  0
 37 72  1  0  0  0  0
 37 82  1  0  0  0  0
 37 87  2  0  0  0  0
 38 77  1  0  0  0  0
 38 78  1  0  0  0  0
 38 88  2  0  0  0  0
 39 44  1  0  0  0  0
 40 61  1  0  0  0  0
 41 45  1  0  0  0  0
 42 46  1  0  0  0  0
 43 76  1  0  0  0  0
 44 50  1  0  0  0  0
 45 46  1  0  0  0  0
 47 51  1  0  0  0  0
 47 54  1  0  0  0  0
 48 49  1  0  0  0  0
 48 58  1  0  0  0  0
 49 58  1  0  0  0  0
 50 60  1  0  0  0  0
 51 62  1  0  0  0  0
 52 55  1  0  0  0  0
 52 59  1  0  0  0  0
 53 56  1  0  0  0  0
 53 59  1  0  0  0  0
 54 77  1  0  0  0  0
 55 78  1  0  0  0  0
 56 78  1  0  0  0  0
 57 62  1  0  0  0  0
 57 77  1  0  0  0  0
 60 81  1  0  0  0  0
 61 76  1  0  0  0  0
 62 75  1  0  0  0  0
 63 70  1  0  0  0  0
 64 72  1  0  0  0  0
 65 73  1  0  0  0  0
 66 73  1  0  0  0  0
 67 73  1  0  0  0  0
 68 83  1  0  0  0  0
 69 70  1  0  0  0  0
 69 90  1  0  0  0  0
 71 73  1  0  0  0  0
 71 82  1  0  0  0  0
 72 83  1  0  0  0  0
 74 75  1  0  0  0  0
M  CHG  1  83   1
M  ISO  4  38 100  69 101  78 100  90 101
M  END
> <Batch ID>
0172

> <Smiles>
CNC(C)C(=O)NC(C(=O)N1Cc2cc([101O:1][101CH2:1]C(C)c3c4c(cc(C5CC5)c3C3CC[100N:0]([100C:0](=O)N5CCCC(n6nc(-c7ccc(Oc8ccc(F)cc8F)cc7)c(C(N)=O)c6N)C5)CC3)CCCC4)ccc2CC1C(=O)NC1CCCc2ccccc21)C(C)(C)C

> <Shape>
0.267

> <Color>
0.048

> <Negative vol penalty>
0.000

$$$$

  -OEChem-04052322403D

 88 97  0     1  0  0  0  0  0999 V2000
  -27.9580  -33.8495   26.1855 C   0  0  0  0  0  0  0  0  0  0  0  0
  -28.0518  -32.4615   26.1869 C   0  0  0  0  0  0  0  0  0  0  0  0
  -23.0709   -9.8650   19.9509 C   0  0  0  0  0  0  0  0  0  0  0  0
  -23.8608   -9.8730   22.2341 C   0  0  0  0  0  0  0  0  0  0  0  0
  -27.5938  -34.5213   25.0193 C   0  0  0  0  0  0  0  0  0  0  0  0
  -27.7802  -31.7443   25.0222 C   0  0  0  0  0  0  0  0  0  0  0  0
  -30.4972  -26.5813   23.1603 C   0  0  0  0  0  0  0  0  0  0  0  0
  -22.3352   -8.7086   20.2095 C   0  0  0  0  0  0  0  0  0  0  0  0
  -23.1250   -8.7165   22.4927 C   0  0  0  0  0  0  0  0  0  0  0  0
  -30.1253  -25.2406   23.2500 C   0  0  0  0  0  0  0  0  0  0  0  0
  -19.9083   -7.9048   23.1367 C   0  0  0  0  0  0  0  0  0  0  0  0
  -19.1670   -7.8606   24.3174 C   0  0  0  0  0  0  0  0  0  0  0  0
  -29.2137  -25.3505   21.0193 C   0  0  0  0  0  0  0  0  0  0  0  0
  -27.2971  -18.7543   21.9987 C   0  0  0  0  0  0  0  0  0  0  0  0
  -20.4259   -5.9277   25.0356 C   0  0  0  0  0  0  0  0  0  0  0  0
  -23.8338  -10.4472   20.9632 C   0  0  0  0  0  0  0  0  0  0  0  0
  -29.0562  -20.3020   21.4387 C   0  0  0  0  0  0  0  0  0  0  0  0
  -24.1636  -12.9739   20.8412 C   0  0  0  0  0  0  0  0  0  0  0  0
  -27.3271  -33.8126   23.8372 C   0  0  0  0  0  0  0  0  0  0  0  0
  -30.2199  -27.3208   22.0016 C   0  0  0  0  0  0  0  0  0  0  0  0
  -27.4108  -32.4072   23.8395 C   0  0  0  0  0  0  0  0  0  0  0  0
  -29.5854  -26.6997   20.9164 C   0  0  0  0  0  0  0  0  0  0  0  0
  -28.6383  -19.0061   21.7263 C   0  0  0  0  0  0  0  0  0  0  0  0
  -22.3622   -8.1343   21.4804 C   0  0  0  0  0  0  0  0  0  0  0  0
  -29.4809  -24.6258   22.1806 C   0  0  0  0  0  0  0  0  0  0  0  0
  -20.9085   -6.9603   22.9054 C   0  0  0  0  0  0  0  0  0  0  0  0
  -19.4258   -6.8721   25.2669 C   0  0  0  0  0  0  0  0  0  0  0  0
  -21.1673   -5.9718   23.8549 C   0  0  0  0  0  0  0  0  0  0  0  0
  -24.5945  -11.6415   20.6966 C   0  0  0  0  0  0  0  0  0  0  0  0
  -26.4004  -19.8130   21.9763 C   0  0  0  0  0  0  0  0  0  0  0  0
  -28.1149  -21.3215   21.4303 C   0  0  0  0  0  0  0  0  0  0  0  0
  -25.2478  -13.7282   20.4644 C   0  0  0  0  0  0  0  0  0  0  0  0
  -30.4556  -20.5929   21.1489 C   0  0  0  0  0  0  0  0  0  0  0  0
  -22.8966  -13.4840   21.2773 C   0  0  0  0  0  0  0  0  0  0  0  0
  -30.7516  -14.7034   20.6784 C   0  0  0  0  0  0  0  0  0  0  0  0
  -28.4718  -29.8938   21.3475 C   0  0  0  0  0  0  0  0  0  0  0  0
  -29.8160  -29.5811   18.4119 C   0  0  0  0  0  0  0  0  0  0  0  0
  -31.2967  -27.5481   16.1050 C   0  0  0  0  0  0  0  0  0  0  0  0
  -26.8910  -34.5794   22.6139 C   0  0  0  0  0  0  0  0  0  0  0  0
  -30.6515  -28.7588   21.9103 C   0  0  0  0  0  0  0  0  0  0  0  0
  -29.2830  -27.4440   19.6425 C   0  0  0  0  0  0  0  0  0  0  0  0
  -26.9843  -33.7704   21.3227 C   0  0  0  0  0  0  0  0  0  0  0  0
  -29.5637  -12.4043   18.1999 C   0  0  0  0  0  0  0  0  0  0  0  0
  -26.3834  -32.3821   21.5179 C   0  0  0  0  0  0  0  0  0  0  0  0
  -28.1405  -12.0872   18.6572 C   0  0  0  0  0  0  0  0  0  0  0  0
  -30.4990  -12.6096   19.3874 C   0  0  0  0  0  0  0  0  0  0  0  0
  -29.4095  -16.8098   20.8677 C   0  0  0  0  0  0  0  0  0  0  0  0
  -28.6112  -13.3352   20.8127 C   0  0  0  0  0  0  0  0  0  0  0  0
  -30.4408  -17.7326   22.8567 C   0  0  0  0  0  0  0  0  0  0  0  0
  -27.1482  -31.5956   22.5895 C   0  0  1  0  0  0  0  0  0  0  0  0
  -30.1319  -15.6939   21.6317 C   0  0  2  0  0  0  0  0  0  0  0  0
  -29.8590  -29.5562   20.8791 C   0  0  1  0  0  0  0  0  0  0  0  0
  -27.6271  -13.1507   19.6440 C   0  0  2  0  0  0  0  0  0  0  0  0
  -31.1722  -16.4638   22.4314 C   0  0  2  0  0  0  0  0  0  0  0  0
  -24.9536  -19.6269   22.2562 C   0  0  0  0  0  0  0  0  0  0  0  0
  -32.2515  -27.5700   13.7844 C   0  0  0  0  0  0  0  0  0  0  0  0
  -26.9935  -29.6168   17.2534 C   0  0  0  0  0  0  0  0  0  0  0  0
  -27.9319  -28.6991   15.1215 C   0  0  0  0  0  0  0  0  0  0  0  0
  -28.6733  -30.9325   15.9490 C   0  0  0  0  0  0  0  0  0  0  0  0
  -32.4001  -20.1069   19.6487 C   0  0  0  0  0  0  0  0  0  0  0  0
  -33.9770  -26.7524   17.0754 C   0  0  0  0  0  0  0  0  0  0  0  0
  -28.4594  -22.7512   21.1325 C   0  0  0  0  0  0  0  0  0  1  0  0
  -29.4551  -28.8460   17.1436 C   0  0  1  0  0  0  0  0  0  0  0  0
  -32.5511  -27.7209   15.2678 C   0  0  2  0  0  0  0  0  0  0  0  0
  -28.2673  -29.5098   16.3915 C   0  0  0  0  0  0  0  0  0  0  0  0
  -25.8541  -11.5513   20.2617 N   0  0  0  0  0  0  0  0  0  0  0  0
  -26.2240  -12.8366   20.1297 N   0  0  0  0  0  0  0  0  0  0  0  0
  -26.8297  -21.0511   21.6962 N   0  3  0  0  0  0  0  0  0  0  0  0
  -29.5568  -17.9333   21.7469 N   0  0  2  0  0  0  0  0  0  0  0  0
  -29.9652  -13.6109   20.3125 N   0  0  0  0  0  0  0  0  0  0  0  0
  -29.7191  -28.8497   19.6041 N   0  0  0  0  0  0  0  0  0  0  0  0
  -25.4517  -15.0606   20.3899 N   0  0  0  0  0  0  0  0  0  0  0  0
  -21.8929  -12.5704   21.6269 N   0  0  0  0  0  0  0  0  0  0  0  0
  -31.0213  -19.9414   20.0491 N   0  0  0  0  0  0  0  0  0  0  0  0
  -28.3885  -31.0809   22.0498 N   0  0  0  0  0  0  0  0  0  0  0  0
  -30.6828  -28.7561   16.3606 N   0  0  0  0  0  0  0  0  0  0  0  0
  -31.6213  -15.6932   23.6078 N   0  3  0  0  0  0  0  0  0  0  0  0
  -33.5713  -26.7030   15.6471 N   0  3  0  0  0  0  0  0  0  0  0  0
  -31.0976  -21.3705   21.8735 O   0  0  0  0  0  0  0  0  0  0  0  0
  -22.6560  -14.7136   21.3389 O   0  0  0  0  0  0  0  0  0  0  0  0
  -31.8995  -14.8980   20.2700 O   0  0  0  0  0  0  0  0  0  0  0  0
  -27.5455  -29.1342   21.0895 O   0  0  0  0  0  0  0  0  0  0  0  0
  -30.1776  -30.7586   18.3464 O   0  0  0  0  0  0  0  0  0  0  0  0
  -30.8989  -26.4509   16.4904 O   0  0  0  0  0  0  0  0  0  0  0  0
  -21.6441   -7.0060   21.7331 O   0  0  0  0  0  0  0  0  0  0  0  0
  -29.1162  -23.3175   22.2658 O   0  0  0  0  0  0  0  0  0  1  0  0
  -18.7148   -6.8307   26.4013 F   0  0  0  0  0  0  0  0  0  0  0  0
  -22.1276   -5.0625   23.6388 F   0  0  0  0  0  0  0  0  0  0  0  0
  1  2  1  0  0  0  0
  1  5  2  0  0  0  0
  2  6  2  0  0  0  0
  3  8  2  0  0  0  0
  3 16  1  0  0  0  0
  4  9  1  0  0  0  0
  4 16  2  0  0  0  0
  5 19  1  0  0  0  0
  6 21  1  0  0  0  0
  7 10  2  0  0  0  0
  7 20  1  0  0  0  0
  8 24  1  0  0  0  0
  9 24  2  0  0  0  0
 10 25  1  0  0  0  0
 11 12  2  0  0  0  0
 11 26  1  0  0  0  0
 12 27  1  0  0  0  0
 13 22  1  0  0  0  0
 13 25  2  0  0  0  0
 14 23  2  0  0  0  0
 14 30  1  0  0  0  0
 15 27  2  0  0  0  0
 15 28  1  0  0  0  0
 16 29  1  0  0  0  0
 17 23  1  0  0  0  0
 17 31  2  0  0  0  0
 17 33  1  0  0  0  0
 18 29  1  0  0  0  0
 18 32  2  0  0  0  0
 18 34  1  0  0  0  0
 19 21  2  0  0  0  0
 19 39  1  0  0  0  0
 20 22  2  0  0  0  0
 20 40  1  0  0  0  0
 21 50  1  0  0  0  0
 22 41  1  0  0  0  0
 23 69  1  0  0  0  0
 24 85  1  0  0  0  0
 25 86  1  0  0  0  0
 26 28  2  0  0  0  0
 26 85  1  0  0  0  0
 27 87  1  0  0  0  0
 28 88  1  0  0  0  0
 29 66  2  0  0  0  0
 30 55  1  0  0  0  0
 30 68  2  0  0  0  0
 31 62  1  0  0  0  0
 31 68  1  0  0  0  0
 32 67  1  0  0  0  0
 32 72  1  0  0  0  0
 33 74  1  0  0  0  0
 33 79  2  0  0  0  0
 34 73  1  0  0  0  0
 34 80  2  0  0  0  0
 35 51  1  0  0  0  0
 35 70  1  0  0  0  0
 35 81  2  0  0  0  0
 36 52  1  0  0  0  0
 36 75  1  0  0  0  0
 36 82  2  0  0  0  0
 37 63  1  0  0  0  0
 37 71  1  0  0  0  0
 37 83  2  0  0  0  0
 38 64  1  0  0  0  0
 38 76  1  0  0  0  0
 38 84  2  0  0  0  0
 39 42  1  0  0  0  0
 40 52  1  0  0  0  0
 41 71  1  0  0  0  0
 42 44  1  0  0  0  0
 43 45  1  0  0  0  0
 43 46  1  0  0  0  0
 44 50  1  0  0  0  0
 45 53  1  0  0  0  0
 46 70  1  0  0  0  0
 47 51  1  0  0  0  0
 47 69  1  0  0  0  0
 48 53  1  0  0  0  0
 48 70  1  0  0  0  0
 49 54  1  0  0  0  0
 49 69  1  0  0  0  0
 50 75  1  0  0  0  0
 51 54  1  0  0  0  0
 52 71  1  0  0  0  0
 53 67  1  0  0  0  0
 54 77  1  0  0  0  0
 56 64  1  0  0  0  0
 57 65  1  0  0  0  0
 58 65  1  0  0  0  0
 59 65  1  0  0  0  0
 60 74  1  0  0  0  0
 61 78  1  0  0  0  0
 62 86  1  0  0  0  0
 63 65  1  0  0  0  0
 63 76  1  0  0  0  0
 64 78  1  0  0  0  0
 66 67  1  0  0  0  0
M  CHG  3  68   1  77   1  78   1
M  ISO  4  35 100  51 100  62 101  86 101
M  END
> <Batch ID>
0172

> <Smiles>
CNC(=O)c1c(N2CC(N)[100CH:0]([100C:0](=O)N3CCCC(n4nc(-c5ccc(Oc6ccc(F)cc6F)cc5)c(C(N)=O)c4N)C3)C2)cc(C)nc1[101CH2:1][101O:1]c1ccc2c(c1)CN(C(=O)C(NC(=O)C(C)NC)C(C)(C)C)C(C(=O)NC1CCCc3ccccc31)C2

> <Shape>
0.301

> <Color>
0.179

> <Negative vol penalty>
0.000

$$$$
