
  -OEChem-04052322423D

 85 94  0     1  0  0  0  0  0999 V2000
  -31.5781  -25.8357   16.0038 C   0  0  0  0  0  0  0  0  0  0  0  0
  -30.6690  -24.8102   15.7645 C   0  0  0  0  0  0  0  0  0  0  0  0
  -20.3311  -23.6771   23.9415 C   0  0  0  0  0  0  0  0  0  0  0  0
  -20.1933  -22.7962   21.6960 C   0  0  0  0  0  0  0  0  0  0  0  0
  -32.3716  -25.8090   17.1499 C   0  0  0  0  0  0  0  0  0  0  0  0
  -30.5538  -23.7566   16.6707 C   0  0  0  0  0  0  0  0  0  0  0  0
  -25.7148  -19.2113   19.3616 C   0  0  0  0  0  0  0  0  0  0  0  0
  -20.3780  -24.9739   23.4298 C   0  0  0  0  0  0  0  0  0  0  0  0
  -20.2402  -24.0930   21.1844 C   0  0  0  0  0  0  0  0  0  0  0  0
  -25.5147  -17.8465   19.5636 C   0  0  0  0  0  0  0  0  0  0  0  0
  -18.1989  -27.2433   22.1911 C   0  0  0  0  0  0  0  0  0  0  0  0
  -17.3975  -28.2095   22.7993 C   0  0  0  0  0  0  0  0  0  0  0  0
  -26.8809  -17.9462   21.5492 C   0  0  0  0  0  0  0  0  0  0  0  0
  -19.3658  -29.5029   23.3381 C   0  0  0  0  0  0  0  0  0  0  0  0
  -20.2388  -22.5882   23.0746 C   0  0  0  0  0  0  0  0  0  0  0  0
  -19.0430  -20.5161   23.9600 C   0  0  0  0  0  0  0  0  0  0  0  0
  -32.2592  -24.7595   18.0754 C   0  0  0  0  0  0  0  0  0  0  0  0
  -26.5097  -19.9529   20.2474 C   0  0  0  0  0  0  0  0  0  0  0  0
  -31.3475  -23.7151   17.8296 C   0  0  0  0  0  0  0  0  0  0  0  0
  -27.0874  -19.3209   21.3577 C   0  0  0  0  0  0  0  0  0  0  0  0
  -20.3325  -25.1818   22.0513 C   0  0  0  0  0  0  0  0  0  0  0  0
  -26.1001  -17.2131   20.6559 C   0  0  0  0  0  0  0  0  0  0  0  0
  -19.5838  -27.4068   22.1565 C   0  0  0  0  0  0  0  0  0  0  0  0
  -17.9809  -29.3393   23.3727 C   0  0  0  0  0  0  0  0  0  0  0  0
  -20.1672  -28.5366   22.7300 C   0  0  0  0  0  0  0  0  0  0  0  0
  -20.1909  -21.2484   23.6024 C   0  0  0  0  0  0  0  0  0  0  0  0
  -26.0198  -12.8710   20.1332 C   0  0  0  0  0  0  0  0  0  0  0  0
  -24.9774  -13.7536   20.3114 C   0  0  0  0  0  0  0  0  0  0  0  0
  -24.7553  -11.1945   21.0387 C   0  0  0  0  0  0  0  0  0  0  0  0
  -23.7130  -12.0772   21.2177 C   0  0  0  0  0  0  0  0  0  0  0  0
  -19.5291  -19.3101   24.4024 C   0  0  0  0  0  0  0  0  0  0  0  0
  -17.6609  -20.8924   23.8977 C   0  0  0  0  0  0  0  0  0  0  0  0
  -29.2080  -21.6128   19.9873 C   0  0  0  0  0  0  0  0  0  0  0  0
  -28.5529  -22.4159   23.0611 C   0  0  0  0  0  0  0  0  0  0  0  0
  -26.9746  -21.6382   25.9853 C   0  0  0  0  0  0  0  0  0  0  0  0
  -22.9649  -14.9520   23.8704 C   0  0  0  0  0  0  0  0  0  0  0  0
  -33.1719  -24.7497   19.2761 C   0  0  0  0  0  0  0  0  0  0  0  0
  -26.6939  -21.4299   20.0304 C   0  0  0  0  0  0  0  0  0  0  0  0
  -27.9328  -20.0762   22.3493 C   0  0  0  0  0  0  0  0  0  0  0  0
  -32.7225  -23.7900   20.3749 C   0  0  0  0  0  0  0  0  0  0  0  0
  -24.2573  -17.8532   25.4593 C   0  0  0  0  0  0  0  0  0  0  0  0
  -32.3484  -22.4357   19.7808 C   0  0  0  0  0  0  0  0  0  0  0  0
  -23.2226  -18.9355   25.1466 C   0  0  0  0  0  0  0  0  0  0  0  0
  -20.1250  -11.6729   22.4269 C   0  0  0  0  0  0  0  0  0  0  0  0
  -19.8463  -12.8028   23.4414 C   0  0  0  0  0  0  0  0  0  0  0  0
  -24.4425  -16.8938   24.2856 C   0  0  0  0  0  0  0  0  0  0  0  0
  -22.1661  -17.3623   23.4704 C   0  0  0  0  0  0  0  0  0  0  0  0
  -31.1759  -22.5679   18.8014 C   0  0  1  0  0  0  0  0  0  0  0  0
  -27.9433  -21.9824   20.7095 C   0  0  1  0  0  0  0  0  0  0  0  0
  -21.9020  -18.3212   24.6441 C   0  0  2  0  0  0  0  0  0  0  0  0
  -21.3880  -12.4600   22.0147 C   0  0  1  0  0  0  0  0  0  0  0  0
  -21.3673  -13.0906   23.4293 C   0  0  1  0  0  0  0  0  0  0  0  0
  -27.3112  -13.3052   19.5289 C   0  0  0  0  0  0  0  0  0  0  0  0
  -24.6494   -9.7616   21.4386 C   0  0  0  0  0  0  0  0  0  0  0  0
  -26.1511  -21.9348   28.3372 C   0  0  0  0  0  0  0  0  0  0  0  0
  -31.3579  -21.4531   23.7789 C   0  0  0  0  0  0  0  0  0  0  0  0
  -30.6518  -21.4064   26.1804 C   0  0  0  0  0  0  0  0  0  0  0  0
  -30.6537  -23.5617   24.9245 C   0  0  0  0  0  0  0  0  0  0  0  0
  -24.4990  -22.9789   25.0728 C   0  0  0  0  0  0  0  0  0  0  0  0
  -25.0930  -15.1935   19.9056 C   0  0  0  0  0  0  0  0  0  1  0  0
  -28.8836  -21.8305   24.4127 C   0  0  1  0  0  0  0  0  0  0  0  0
  -26.1079  -22.4693   26.9141 C   0  0  2  0  0  0  0  0  0  0  0  0
  -30.3725  -22.0480   24.8045 C   0  0  0  0  0  0  0  0  0  0  0  0
  -21.3211  -20.5648   23.8008 N   0  0  0  0  0  0  0  0  0  0  0  0
  -25.9275  -11.5756   20.4935 N   0  0  0  0  0  0  0  0  0  0  0  0
  -23.8053  -13.3726   20.8569 N   0  0  0  0  0  0  0  0  0  0  0  0
  -20.8857  -19.3904   24.2878 N   0  0  0  0  0  0  0  0  0  0  0  0
  -28.0886  -21.5171   22.0903 N   0  0  0  0  0  0  0  0  0  0  0  0
  -23.1521  -16.3433   23.8633 N   0  0  0  0  0  0  0  0  0  0  0  0
  -18.9240  -18.1995   24.8745 N   0  0  0  0  0  0  0  0  0  0  0  0
  -17.3368  -22.1686   23.4176 N   0  0  0  0  0  0  0  0  0  0  0  0
  -22.5090  -11.6161   21.7957 N   0  0  0  0  0  0  0  0  0  0  0  0
  -29.9275  -22.6970   19.5221 N   0  0  0  0  0  0  0  0  0  0  0  0
  -27.9281  -22.4072   25.3522 N   0  0  0  0  0  0  0  0  0  0  0  0
  -21.7117  -14.5043   23.4654 N   0  0  0  0  0  0  0  0  0  0  0  0
  -24.6917  -22.4569   26.4502 N   0  3  0  0  0  0  0  0  0  0  0  0
  -16.7414  -20.1257   24.2724 O   0  0  0  0  0  0  0  0  0  0  0  0
  -29.5095  -20.4316   19.8626 O   0  0  0  0  0  0  0  0  0  0  0  0
  -28.6943  -23.6272   22.8757 O   0  0  0  0  0  0  0  0  0  0  0  0
  -26.8235  -20.4273   25.8391 O   0  0  0  0  0  0  0  0  0  0  0  0
  -23.8456  -14.1585   24.2196 O   0  0  0  0  0  0  0  0  0  0  0  0
  -20.3780  -26.4471   21.5517 O   0  0  0  0  0  0  0  0  0  0  0  0
  -25.9070  -15.8808   20.8550 O   0  0  0  0  0  0  0  0  0  1  0  0
  -17.2111  -30.2678   23.9553 F   0  0  0  0  0  0  0  0  0  0  0  0
  -21.4969  -28.6998   22.6989 F   0  0  0  0  0  0  0  0  0  0  0  0
  1  2  1  0  0  0  0
  1  5  2  0  0  0  0
  2  6  2  0  0  0  0
  3  8  2  0  0  0  0
  3 15  1  0  0  0  0
  4  9  1  0  0  0  0
  4 15  2  0  0  0  0
  5 17  1  0  0  0  0
  6 19  1  0  0  0  0
  7 10  2  0  0  0  0
  7 18  1  0  0  0  0
  8 21  1  0  0  0  0
  9 21  2  0  0  0  0
 10 22  1  0  0  0  0
 11 12  2  0  0  0  0
 11 23  1  0  0  0  0
 12 24  1  0  0  0  0
 13 20  1  0  0  0  0
 13 22  2  0  0  0  0
 14 24  2  0  0  0  0
 14 25  1  0  0  0  0
 15 26  1  0  0  0  0
 16 26  1  0  0  0  0
 16 31  2  0  0  0  0
 16 32  1  0  0  0  0
 17 19  2  0  0  0  0
 17 37  1  0  0  0  0
 18 20  2  0  0  0  0
 18 38  1  0  0  0  0
 19 48  1  0  0  0  0
 20 39  1  0  0  0  0
 21 82  1  0  0  0  0
 22 83  1  0  0  0  0
 23 25  2  0  0  0  0
 23 82  1  0  0  0  0
 24 84  1  0  0  0  0
 25 85  1  0  0  0  0
 26 64  2  0  0  0  0
 27 28  2  0  0  0  0
 27 53  1  0  0  0  0
 27 65  1  0  0  0  0
 28 60  1  0  0  0  0
 28 66  1  0  0  0  0
 29 30  1  0  0  0  0
 29 54  1  0  0  0  0
 29 65  2  0  0  0  0
 30 66  2  0  0  0  0
 30 72  1  0  0  0  0
 31 67  1  0  0  0  0
 31 70  1  0  0  0  0
 32 71  1  0  0  0  0
 32 77  2  0  0  0  0
 33 49  1  0  0  0  0
 33 73  1  0  0  0  0
 33 78  2  0  0  0  0
 34 61  1  0  0  0  0
 34 68  1  0  0  0  0
 34 79  2  0  0  0  0
 35 62  1  0  0  0  0
 35 74  1  0  0  0  0
 35 80  2  0  0  0  0
 36 69  1  0  0  0  0
 36 75  1  0  0  0  0
 36 81  2  0  0  0  0
 37 40  1  0  0  0  0
 38 49  1  0  0  0  0
 39 68  1  0  0  0  0
 40 42  1  0  0  0  0
 41 43  1  0  0  0  0
 41 46  1  0  0  0  0
 42 48  1  0  0  0  0
 43 50  1  0  0  0  0
 44 45  1  0  0  0  0
 44 51  1  0  0  0  0
 45 52  1  0  0  0  0
 46 69  1  0  0  0  0
 47 50  1  0  0  0  0
 47 69  1  0  0  0  0
 48 73  1  0  0  0  0
 49 68  1  0  0  0  0
 50 67  1  0  0  0  0
 51 52  1  0  0  0  0
 51 72  1  0  0  0  0
 52 75  1  0  0  0  0
 55 62  1  0  0  0  0
 56 63  1  0  0  0  0
 57 63  1  0  0  0  0
 58 63  1  0  0  0  0
 59 76  1  0  0  0  0
 60 83  1  0  0  0  0
 61 63  1  0  0  0  0
 61 74  1  0  0  0  0
 62 76  1  0  0  0  0
 64 67  1  0  0  0  0
M  CHG  1  76   1
M  ISO  4  36 100  60 101  75 100  83 101
M  END
> <Batch ID>
0173

> <Smiles>
CNC(C)C(=O)NC(C(=O)N1Cc2cc([101O:1][101CH2:1]c3nc(NC4CCC4[100NH:0][100C:0](=O)N4CCCC(n5nc(-c6ccc(Oc7ccc(F)cc7F)cc6)c(C(N)=O)c5N)C4)c(C)nc3C)ccc2CC1C(=O)NC1CCCc2ccccc21)C(C)(C)C

> <Shape>
0.177

> <Color>
0.072

> <Negative vol penalty>
0.000

$$$$

  -OEChem-04052322423D

 91101  0     1  0  0  0  0  0999 V2000
  -19.2013  -35.2765   18.0502 C   0  0  0  0  0  0  0  0  0  0  0  0
  -20.3012  -34.6209   17.5063 C   0  0  0  0  0  0  0  0  0  0  0  0
  -24.3095   -9.5970   21.1037 C   0  0  0  0  0  0  0  0  0  0  0  0
  -24.9381  -10.4440   23.2773 C   0  0  0  0  0  0  0  0  0  0  0  0
  -19.0092  -35.2856   19.4311 C   0  0  0  0  0  0  0  0  0  0  0  0
  -21.2104  -33.9749   18.3433 C   0  0  0  0  0  0  0  0  0  0  0  0
  -25.5637  -28.2888   18.5266 C   0  0  0  0  0  0  0  0  0  0  0  0
  -24.0011   -8.3621   21.6742 C   0  0  0  0  0  0  0  0  0  0  0  0
  -24.6296   -9.2091   23.8478 C   0  0  0  0  0  0  0  0  0  0  0  0
  -26.8915  -27.9570   18.7926 C   0  0  0  0  0  0  0  0  0  0  0  0
  -21.4594   -6.9984   23.4386 C   0  0  0  0  0  0  0  0  0  0  0  0
  -20.2669   -6.3860   23.0530 C   0  0  0  0  0  0  0  0  0  0  0  0
  -26.4151  -27.9712   21.1573 C   0  0  0  0  0  0  0  0  0  0  0  0
  -27.7543  -19.6816   21.4725 C   0  0  0  0  0  0  0  0  0  0  0  0
  -21.5097   -4.4852   22.2286 C   0  0  0  0  0  0  0  0  0  0  0  0
  -24.7781  -10.6380   21.9053 C   0  0  0  0  0  0  0  0  0  0  0  0
  -24.2312  -13.0094   21.1404 C   0  0  0  0  0  0  0  0  0  0  0  0
  -19.9113  -34.6311   20.2847 C   0  0  0  0  0  0  0  0  0  0  0  0
  -24.6527  -28.4753   19.5763 C   0  0  0  0  0  0  0  0  0  0  0  0
  -21.0309  -33.9763   19.7370 C   0  0  0  0  0  0  0  0  0  0  0  0
  -25.0757  -28.3028   20.9020 C   0  0  0  0  0  0  0  0  0  0  0  0
  -28.7870  -21.7716   21.0136 C   0  0  0  0  0  0  0  0  0  0  0  0
  -27.7333  -21.0714   21.5646 C   0  0  0  0  0  0  0  0  0  0  0  0
  -24.1611   -8.1681   23.0462 C   0  0  0  0  0  0  0  0  0  0  0  0
  -27.3181  -27.8010   20.1082 C   0  0  0  0  0  0  0  0  0  0  0  0
  -22.6770   -6.3543   23.2191 C   0  0  0  0  0  0  0  0  0  0  0  0
  -20.2921   -5.1294   22.4481 C   0  0  0  0  0  0  0  0  0  0  0  0
  -22.7022   -5.0977   22.6142 C   0  0  0  0  0  0  0  0  0  0  0  0
  -25.0974  -11.9137   21.3166 C   0  0  0  0  0  0  0  0  0  0  0  0
  -29.8099  -21.0695   20.3823 C   0  0  0  0  0  0  0  0  0  0  0  0
  -28.8265  -19.0698   20.8224 C   0  0  0  0  0  0  0  0  0  0  0  0
  -25.0097  -13.9697   20.5419 C   0  0  0  0  0  0  0  0  0  0  0  0
  -22.8467  -13.1467   21.4867 C   0  0  0  0  0  0  0  0  0  0  0  0
  -22.9007  -30.9139   20.6192 C   0  0  0  0  0  0  0  0  0  0  0  0
  -21.6804  -28.6740   22.6232 C   0  0  0  0  0  0  0  0  0  0  0  0
  -22.0951  -25.6948   24.2355 C   0  0  0  0  0  0  0  0  0  0  0  0
  -29.7690  -16.8329   20.1486 C   0  0  0  0  0  0  0  0  0  0  0  0
  -19.6875  -34.7085   21.7742 C   0  0  0  0  0  0  0  0  0  0  0  0
  -23.2175  -28.8068   19.2717 C   0  0  0  0  0  0  0  0  0  0  0  0
  -29.0072  -23.2471   20.9369 C   0  0  0  0  0  0  0  0  0  0  0  0
  -24.1323  -28.4720   22.0638 C   0  0  0  0  0  0  0  0  0  0  0  0
  -30.8281  -22.0137   19.8045 C   0  0  0  0  0  0  0  0  0  0  0  0
  -20.4939  -33.6818   22.5654 C   0  0  0  0  0  0  0  0  0  0  0  0
  -29.6415  -13.6679   18.5227 C   0  0  0  0  0  0  0  0  0  0  0  0
  -21.9415  -33.6549   22.0851 C   0  0  0  0  0  0  0  0  0  0  0  0
  -28.3767  -13.0195   19.0901 C   0  0  0  0  0  0  0  0  0  0  0  0
  -31.4719  -28.0692   20.6440 C   0  0  0  0  0  0  0  0  0  0  0  0
  -32.2806  -25.8554   21.3071 C   0  0  0  0  0  0  0  0  0  0  0  0
  -30.3779  -14.4925   19.5769 C   0  0  0  0  0  0  0  0  0  0  0  0
  -28.2902  -14.8441   20.8366 C   0  0  0  0  0  0  0  0  0  0  0  0
  -22.0258  -33.2431   20.6103 C   0  0  1  0  0  0  0  0  0  0  0  0
  -22.4986  -29.4775   20.4382 C   0  0  1  0  0  0  0  0  0  0  0  0
  -32.3189  -27.3358   21.7028 C   0  0  1  0  0  0  0  0  0  0  0  0
  -30.8706  -26.9745   19.7478 C   0  0  1  0  0  0  0  0  0  0  0  0
  -27.4796  -14.0560   19.7948 C   0  0  2  0  0  0  0  0  0  0  0  0
  -30.5071  -23.2824   20.6062 C   0  0  1  0  0  0  0  0  0  0  0  0
  -30.9270  -25.7309   20.6293 C   0  0  1  0  0  0  0  0  0  0  0  0
  -33.7355  -27.8772   21.8146 C   0  0  0  0  0  0  0  0  0  0  0  0
  -26.4807  -21.3946   23.7279 C   0  0  0  0  0  0  0  0  0  0  0  0
  -25.2535  -21.5221   21.5296 C   0  0  0  0  0  0  0  0  0  0  0  0
  -21.4934  -23.7027   25.6378 C   0  0  0  0  0  0  0  0  0  0  0  0
  -22.3627  -30.5486   24.9320 C   0  0  0  0  0  0  0  0  0  0  0  0
  -22.0855  -28.6121   26.4945 C   0  0  0  0  0  0  0  0  0  0  0  0
  -20.1485  -29.4041   25.1369 C   0  0  0  0  0  0  0  0  0  0  0  0
  -21.0507  -24.2164   21.8940 C   0  0  0  0  0  0  0  0  0  0  0  0
  -29.4818  -27.3136   19.2500 C   0  0  0  0  0  0  0  0  0  1  0  0
  -26.6015  -21.7660   22.2366 C   0  0  0  0  0  0  0  0  0  0  0  0
  -22.0349  -28.1636   23.9990 C   0  0  1  0  0  0  0  0  0  0  0  0
  -21.1837  -24.4887   24.3733 C   0  0  2  0  0  0  0  0  0  0  0  0
  -21.6764  -29.1807   25.1190 C   0  0  0  0  0  0  0  0  0  0  0  0
  -26.3317  -12.1546   20.8664 N   0  0  0  0  0  0  0  0  0  0  0  0
  -29.8666  -19.7330   20.2621 N   0  0  0  0  0  0  0  0  0  0  0  0
  -26.2466  -13.4125   20.4013 N   0  0  0  0  0  0  0  0  0  0  0  0
  -22.7407  -28.8022   21.7148 N   0  0  0  0  0  0  0  0  0  0  0  0
  -29.4666  -15.4556   20.1987 N   0  0  0  0  0  0  0  0  0  0  0  0
  -24.7500  -15.2280   20.1275 N   0  0  0  0  0  0  0  0  0  0  0  0
  -22.1995  -12.0628   22.0954 N   0  0  0  0  0  0  0  0  0  0  0  0
  -28.8134  -17.6551   20.7447 N   0  0  0  0  0  0  0  0  0  0  0  0
  -21.8603  -31.8118   20.4750 N   0  0  0  0  0  0  0  0  0  0  0  0
  -21.3779  -26.8682   24.1356 N   0  0  0  0  0  0  0  0  0  0  0  0
  -30.8465  -24.4927   19.8323 N   0  3  0  0  0  0  0  0  0  0  0  0
  -21.3466  -23.5800   23.2034 N   0  3  0  0  0  0  0  0  0  0  0  0
  -22.1983  -14.1937   21.2481 O   0  0  0  0  0  0  0  0  0  0  0  0
  -24.0681  -31.1872   20.8724 O   0  0  0  0  0  0  0  0  0  0  0  0
  -20.5051  -28.9421   22.3619 O   0  0  0  0  0  0  0  0  0  0  0  0
  -23.3208  -25.6054   24.2218 O   0  0  0  0  0  0  0  0  0  0  0  0
  -30.7863  -17.2541   19.5921 O   0  0  0  0  0  0  0  0  0  0  0  0
  -23.8599   -6.9633   23.6031 O   0  0  0  0  0  0  0  0  0  0  0  0
  -28.6137  -27.4778   20.3706 O   0  0  0  0  0  0  0  0  0  1  0  0
  -19.1468   -4.5407   22.0793 F   0  0  0  0  0  0  0  0  0  0  0  0
  -23.8688   -4.4734   22.4018 F   0  0  0  0  0  0  0  0  0  0  0  0
  1  2  1  0  0  0  0
  1  5  2  0  0  0  0
  2  6  2  0  0  0  0
  3  8  2  0  0  0  0
  3 16  1  0  0  0  0
  4  9  1  0  0  0  0
  4 16  2  0  0  0  0
  5 18  1  0  0  0  0
  6 20  1  0  0  0  0
  7 10  2  0  0  0  0
  7 19  1  0  0  0  0
  8 24  1  0  0  0  0
  9 24  2  0  0  0  0
 10 25  1  0  0  0  0
 11 12  2  0  0  0  0
 11 26  1  0  0  0  0
 12 27  1  0  0  0  0
 13 21  1  0  0  0  0
 13 25  2  0  0  0  0
 14 23  2  0  0  0  0
 14 31  1  0  0  0  0
 15 27  2  0  0  0  0
 15 28  1  0  0  0  0
 16 29  1  0  0  0  0
 17 29  1  0  0  0  0
 17 32  2  0  0  0  0
 17 33  1  0  0  0  0
 18 20  2  0  0  0  0
 18 38  1  0  0  0  0
 19 21  2  0  0  0  0
 19 39  1  0  0  0  0
 20 51  1  0  0  0  0
 21 41  1  0  0  0  0
 22 23  1  0  0  0  0
 22 30  2  0  0  0  0
 22 40  1  0  0  0  0
 23 67  1  0  0  0  0
 24 88  1  0  0  0  0
 25 89  1  0  0  0  0
 26 28  2  0  0  0  0
 26 88  1  0  0  0  0
 27 90  1  0  0  0  0
 28 91  1  0  0  0  0
 29 71  2  0  0  0  0
 30 42  1  0  0  0  0
 30 72  1  0  0  0  0
 31 72  2  0  0  0  0
 31 78  1  0  0  0  0
 32 73  1  0  0  0  0
 32 76  1  0  0  0  0
 33 77  1  0  0  0  0
 33 83  2  0  0  0  0
 34 52  1  0  0  0  0
 34 79  1  0  0  0  0
 34 84  2  0  0  0  0
 35 68  1  0  0  0  0
 35 74  1  0  0  0  0
 35 85  2  0  0  0  0
 36 69  1  0  0  0  0
 36 80  1  0  0  0  0
 36 86  2  0  0  0  0
 37 75  1  0  0  0  0
 37 78  1  0  0  0  0
 37 87  2  0  0  0  0
 38 43  1  0  0  0  0
 39 52  1  0  0  0  0
 40 56  1  0  0  0  0
 41 74  1  0  0  0  0
 42 56  1  0  0  0  0
 43 45  1  0  0  0  0
 44 46  1  0  0  0  0
 44 49  1  0  0  0  0
 45 51  1  0  0  0  0
 46 55  1  0  0  0  0
 47 53  1  0  0  0  0
 47 54  1  0  0  0  0
 48 53  1  0  0  0  0
 48 57  1  0  0  0  0
 49 75  1  0  0  0  0
 50 55  1  0  0  0  0
 50 75  1  0  0  0  0
 51 79  1  0  0  0  0
 52 74  1  0  0  0  0
 53 58  1  0  0  0  0
 54 57  1  0  0  0  0
 54 66  1  0  0  0  0
 55 73  1  0  0  0  0
 56 81  1  0  0  0  0
 57 81  1  0  0  0  0
 59 67  1  0  0  0  0
 60 67  1  0  0  0  0
 61 69  1  0  0  0  0
 62 70  1  0  0  0  0
 63 70  1  0  0  0  0
 64 70  1  0  0  0  0
 65 82  1  0  0  0  0
 66 89  1  0  0  0  0
 68 70  1  0  0  0  0
 68 80  1  0  0  0  0
 69 82  1  0  0  0  0
 71 73  1  0  0  0  0
M  CHG  2  81   1  82   1
M  ISO  4  37 100  66 101  78 100  89 101
M  END
> <Batch ID>
0173

> <Smiles>
CNC(C)C(=O)NC(C(=O)N1Cc2cc([101O:1][101CH2:1]C3CC(C)CC3NC3Cc4nc([100NH:0][100C:0](=O)N5CCCC(n6nc(-c7ccc(Oc8ccc(F)cc8F)cc7)c(C(N)=O)c6N)C5)cc(C(C)C)c4C3)ccc2CC1C(=O)NC1CCCc2ccccc21)C(C)(C)C

> <Shape>
0.304

> <Color>
0.129

> <Negative vol penalty>
0.000

$$$$

  -OEChem-04052322423D

 90100  0     1  0  0  0  0  0999 V2000
  -19.2332  -24.2487   22.8233 C   0  0  0  0  0  0  0  0  0  0  0  0
  -20.4388  -24.4694   22.1651 C   0  0  0  0  0  0  0  0  0  0  0  0
  -25.5673  -11.8234   21.2745 C   0  0  0  0  0  0  0  0  0  0  0  0
  -25.0241  -12.8043   23.4145 C   0  0  0  0  0  0  0  0  0  0  0  0
  -18.4182  -25.3276   23.1632 C   0  0  0  0  0  0  0  0  0  0  0  0
  -20.8295  -25.7692   21.8453 C   0  0  0  0  0  0  0  0  0  0  0  0
  -25.6978  -26.6550   22.9225 C   0  0  0  0  0  0  0  0  0  0  0  0
  -25.9178  -10.6320   21.9094 C   0  0  0  0  0  0  0  0  0  0  0  0
  -25.3746  -11.6128   24.0496 C   0  0  0  0  0  0  0  0  0  0  0  0
  -26.6478  -26.1579   22.0313 C   0  0  0  0  0  0  0  0  0  0  0  0
  -24.3321   -7.9577   23.2385 C   0  0  0  0  0  0  0  0  0  0  0  0
  -23.8674   -6.7658   22.6826 C   0  0  0  0  0  0  0  0  0  0  0  0
  -31.7325  -25.1392   18.4116 C   0  0  0  0  0  0  0  0  0  0  0  0
  -26.8525  -28.3467   21.0382 C   0  0  0  0  0  0  0  0  0  0  0  0
  -26.1451   -6.0197   22.3780 C   0  0  0  0  0  0  0  0  0  0  0  0
  -31.4192  -24.1565   17.4586 C   0  0  0  0  0  0  0  0  0  0  0  0
  -25.1205  -12.9096   22.0270 C   0  0  0  0  0  0  0  0  0  0  0  0
  -23.4890  -14.5029   20.8837 C   0  0  0  0  0  0  0  0  0  0  0  0
  -18.8036  -26.6420   22.8560 C   0  0  0  0  0  0  0  0  0  0  0  0
  -25.3094  -28.0014   22.8710 C   0  0  0  0  0  0  0  0  0  0  0  0
  -20.0182  -26.8666   22.1802 C   0  0  0  0  0  0  0  0  0  0  0  0
  -25.8993  -28.8590   21.9315 C   0  0  0  0  0  0  0  0  0  0  0  0
  -30.7607  -25.4621   19.3570 C   0  0  0  0  0  0  0  0  0  0  0  0
  -32.0898  -23.5510   16.3632 C   0  0  0  0  0  0  0  0  0  0  0  0
  -25.8214  -10.5267   23.2970 C   0  0  0  0  0  0  0  0  0  0  0  0
  -27.2232  -27.0031   21.0871 C   0  0  0  0  0  0  0  0  0  0  0  0
  -25.7033   -8.1806   23.3641 C   0  0  0  0  0  0  0  0  0  0  0  0
  -24.7738   -5.7968   22.2524 C   0  0  0  0  0  0  0  0  0  0  0  0
  -26.6098   -7.2117   22.9339 C   0  0  0  0  0  0  0  0  0  0  0  0
  -24.7589  -14.1408   21.3717 C   0  0  0  0  0  0  0  0  0  0  0  0
  -29.5398  -24.8025   19.3119 C   0  0  0  0  0  0  0  0  0  0  0  0
  -31.2288  -22.6308   15.8050 C   0  0  0  0  0  0  0  0  0  0  0  0
  -30.1563  -23.5756   17.5292 C   0  0  0  0  0  0  0  0  0  0  0  0
  -23.6693  -15.7578   20.3552 C   0  0  0  0  0  0  0  0  0  0  0  0
  -22.2567  -13.7705   20.9061 C   0  0  0  0  0  0  0  0  0  0  0  0
  -22.5776  -29.5283   22.3145 C   0  0  0  0  0  0  0  0  0  0  0  0
  -24.3280  -32.1412   23.1090 C   0  0  0  0  0  0  0  0  0  0  0  0
  -27.4021  -33.6013   23.3633 C   0  0  0  0  0  0  0  0  0  0  0  0
  -26.4355  -19.2781   17.3021 C   0  0  0  0  0  0  0  0  0  0  0  0
  -17.8671  -27.7726   23.2014 C   0  0  0  0  0  0  0  0  0  0  0  0
  -24.3030  -28.5283   23.8569 C   0  0  0  0  0  0  0  0  0  0  0  0
  -25.5317  -30.3172   21.8482 C   0  0  0  0  0  0  0  0  0  0  0  0
  -18.5303  -29.1470   23.1605 C   0  0  0  0  0  0  0  0  0  0  0  0
  -27.5441  -18.9667   20.7009 C   0  0  0  0  0  0  0  0  0  0  0  0
  -19.3604  -29.3015   21.8901 C   0  0  0  0  0  0  0  0  0  0  0  0
  -26.8352  -17.6848   21.1305 C   0  0  0  0  0  0  0  0  0  0  0  0
  -27.5342  -22.5522   15.9581 C   0  0  0  0  0  0  0  0  0  0  0  0
  -28.0244  -18.9061   19.2496 C   0  0  0  0  0  0  0  0  0  0  0  0
  -26.2515  -17.2575   18.7178 C   0  0  0  0  0  0  0  0  0  0  0  0
  -28.4078  -20.8859   17.3998 C   0  0  0  0  0  0  0  0  0  0  0  0
  -20.4882  -28.2639   21.8384 C   0  0  1  0  0  0  0  0  0  0  0  0
  -23.6048  -29.7972   23.3776 C   0  0  1  0  0  0  0  0  0  0  0  0
  -25.7042  -17.3337   20.1502 C   0  0  1  0  0  0  0  0  0  0  0  0
  -28.8431  -21.7969   16.2414 C   0  0  2  0  0  0  0  0  0  0  0  0
  -26.4518  -21.4831   16.1367 C   0  0  2  0  0  0  0  0  0  0  0  0
  -31.0563  -26.5004   20.3857 C   0  0  0  0  0  0  0  0  0  0  0  0
  -33.4616  -23.8522   15.9041 C   0  0  0  0  0  0  0  0  0  0  0  0
  -31.4205  -21.7295   14.6485 C   0  0  0  0  0  0  0  0  0  0  0  0
  -28.5112  -35.7582   24.0076 C   0  0  0  0  0  0  0  0  0  0  0  0
  -23.4432  -33.3828   20.4660 C   0  0  0  0  0  0  0  0  0  0  0  0
  -25.2841  -35.0608   20.7180 C   0  0  0  0  0  0  0  0  0  0  0  0
  -23.4518  -34.9588   22.4077 C   0  0  0  0  0  0  0  0  0  0  0  0
  -28.9287  -32.3007   25.5398 C   0  0  0  0  0  0  0  0  0  0  0  0
  -28.4880  -25.1400   20.3222 C   0  0  0  0  0  0  0  0  0  1  0  0
  -25.1363  -22.0825   16.6163 C   0  0  0  0  0  0  0  0  0  0  0  0
  -25.1887  -33.1225   22.3505 C   0  0  1  0  0  0  0  0  0  0  0  0
  -28.0533  -34.3891   24.4857 C   0  0  2  0  0  0  0  0  0  0  0  0
  -24.3477  -34.1033   21.4856 C   0  0  0  0  0  0  0  0  0  0  0  0
  -25.6780  -15.0890   21.1710 N   0  0  0  0  0  0  0  0  0  0  0  0
  -29.1837  -23.8501   18.4189 N   0  0  0  0  0  0  0  0  0  0  0  0
  -30.0593  -22.6544   16.5197 N   0  0  0  0  0  0  0  0  0  0  0  0
  -24.9850  -16.0592   20.5509 N   0  0  0  0  0  0  0  0  0  0  0  0
  -24.5383  -30.7834   22.8297 N   0  0  0  0  0  0  0  0  0  0  0  0
  -26.9445  -18.4938   18.3452 N   0  0  0  0  0  0  0  0  0  0  0  0
  -27.0220  -20.5289   17.0907 N   0  0  0  0  0  0  0  0  0  0  0  0
  -22.8292  -16.6218   19.7468 N   0  0  0  0  0  0  0  0  0  0  0  0
  -22.2479  -12.4952   21.4875 N   0  0  0  0  0  0  0  0  0  0  0  0
  -21.5779  -28.6581   22.7054 N   0  0  0  0  0  0  0  0  0  0  0  0
  -26.0345  -33.7760   23.3434 N   0  0  0  0  0  0  0  0  0  0  0  0
  -29.2379  -33.6553   25.0141 N   0  3  0  0  0  0  0  0  0  0  0  0
  -21.1985  -14.2264   20.4101 O   0  0  0  0  0  0  0  0  0  0  0  0
  -22.6834  -30.0712   21.2210 O   0  0  0  0  0  0  0  0  0  0  0  0
  -23.5045  -32.5635   23.9246 O   0  0  0  0  0  0  0  0  0  0  0  0
  -28.0429  -32.9038   22.5802 O   0  0  0  0  0  0  0  0  0  0  0  0
  -25.5214  -18.8685   16.5748 O   0  0  0  0  0  0  0  0  0  0  0  0
  -25.3538  -22.7094   17.8678 O   0  0  0  0  0  0  0  0  0  0  0  0
  -26.1631   -9.3641   23.9169 O   0  0  0  0  0  0  0  0  0  0  0  0
  -28.1571  -26.5167   20.2090 O   0  0  0  0  0  0  0  0  0  1  0  0
  -24.3274   -4.6516   21.7200 F   0  0  0  0  0  0  0  0  0  0  0  0
  -27.9282   -7.4197   23.0531 F   0  0  0  0  0  0  0  0  0  0  0  0
  1  2  1  0  0  0  0
  1  5  2  0  0  0  0
  2  6  2  0  0  0  0
  3  8  2  0  0  0  0
  3 17  1  0  0  0  0
  4  9  1  0  0  0  0
  4 17  2  0  0  0  0
  5 19  1  0  0  0  0
  6 21  1  0  0  0  0
  7 10  2  0  0  0  0
  7 20  1  0  0  0  0
  8 25  1  0  0  0  0
  9 25  2  0  0  0  0
 10 26  1  0  0  0  0
 11 12  2  0  0  0  0
 11 27  1  0  0  0  0
 12 28  1  0  0  0  0
 13 16  2  0  0  0  0
 13 23  1  0  0  0  0
 14 22  1  0  0  0  0
 14 26  2  0  0  0  0
 15 28  2  0  0  0  0
 15 29  1  0  0  0  0
 16 24  1  0  0  0  0
 16 33  1  0  0  0  0
 17 30  1  0  0  0  0
 18 30  1  0  0  0  0
 18 34  2  0  0  0  0
 18 35  1  0  0  0  0
 19 21  2  0  0  0  0
 19 40  1  0  0  0  0
 20 22  2  0  0  0  0
 20 41  1  0  0  0  0
 21 51  1  0  0  0  0
 22 42  1  0  0  0  0
 23 31  2  0  0  0  0
 23 56  1  0  0  0  0
 24 32  2  0  0  0  0
 24 57  1  0  0  0  0
 25 87  1  0  0  0  0
 26 88  1  0  0  0  0
 27 29  2  0  0  0  0
 27 87  1  0  0  0  0
 28 89  1  0  0  0  0
 29 90  1  0  0  0  0
 30 69  2  0  0  0  0
 31 64  1  0  0  0  0
 31 70  1  0  0  0  0
 32 58  1  0  0  0  0
 32 71  1  0  0  0  0
 33 70  2  0  0  0  0
 33 71  1  0  0  0  0
 34 72  1  0  0  0  0
 34 76  1  0  0  0  0
 35 77  1  0  0  0  0
 35 81  2  0  0  0  0
 36 52  1  0  0  0  0
 36 78  1  0  0  0  0
 36 82  2  0  0  0  0
 37 66  1  0  0  0  0
 37 73  1  0  0  0  0
 37 83  2  0  0  0  0
 38 67  1  0  0  0  0
 38 79  1  0  0  0  0
 38 84  2  0  0  0  0
 39 74  1  0  0  0  0
 39 75  1  0  0  0  0
 39 85  2  0  0  0  0
 40 43  1  0  0  0  0
 41 52  1  0  0  0  0
 42 73  1  0  0  0  0
 43 45  1  0  0  0  0
 44 46  1  0  0  0  0
 44 48  1  0  0  0  0
 45 51  1  0  0  0  0
 46 53  1  0  0  0  0
 47 54  1  0  0  0  0
 47 55  1  0  0  0  0
 48 74  1  0  0  0  0
 49 53  1  0  0  0  0
 49 74  1  0  0  0  0
 50 54  1  0  0  0  0
 50 75  1  0  0  0  0
 51 78  1  0  0  0  0
 52 73  1  0  0  0  0
 53 72  1  0  0  0  0
 54 71  1  0  0  0  0
 55 65  1  0  0  0  0
 55 75  1  0  0  0  0
 59 67  1  0  0  0  0
 60 68  1  0  0  0  0
 61 68  1  0  0  0  0
 62 68  1  0  0  0  0
 63 80  1  0  0  0  0
 64 88  1  0  0  0  0
 65 86  1  0  0  0  0
 66 68  1  0  0  0  0
 66 79  1  0  0  0  0
 67 80  1  0  0  0  0
 69 72  1  0  0  0  0
M  CHG  1  80   1
M  ISO  4  39 100  64 101  75 100  88 101
M  END
> <Batch ID>
0173

> <Smiles>
CNC(C)C(=O)NC(C(=O)N1Cc2cc([101O:1][101CH2:1]c3nc4c(cc3C)c(C)c(C)n4C3CC(CO)[100N:0]([100C:0](=O)N4CCCC(n5nc(-c6ccc(Oc7ccc(F)cc7F)cc6)c(C(N)=O)c5N)C4)C3)ccc2CC1C(=O)NC1CCCc2ccccc21)C(C)(C)C

> <Shape>
0.248

> <Color>
0.100

> <Negative vol penalty>
0.000

$$$$

  -OEChem-04052322423D

 84 93  0     1  0  0  0  0  0999 V2000
  -27.8986  -10.7894   19.4646 C   0  0  0  0  0  0  0  0  0  0  0  0
  -28.2583  -12.0401   18.9730 C   0  0  0  0  0  0  0  0  0  0  0  0
  -19.6885  -28.5310   21.9230 C   0  0  0  0  0  0  0  0  0  0  0  0
  -20.4292  -26.6729   23.2780 C   0  0  0  0  0  0  0  0  0  0  0  0
  -26.6667  -10.6171   20.0943 C   0  0  0  0  0  0  0  0  0  0  0  0
  -27.3858  -13.1191   19.1099 C   0  0  0  0  0  0  0  0  0  0  0  0
  -29.7335  -17.3324   20.6531 C   0  0  0  0  0  0  0  0  0  0  0  0
  -18.4073  -27.9822   21.8707 C   0  0  0  0  0  0  0  0  0  0  0  0
  -19.1479  -26.1241   23.2257 C   0  0  0  0  0  0  0  0  0  0  0  0
  -30.4546  -18.0462   19.6969 C   0  0  0  0  0  0  0  0  0  0  0  0
  -15.6971  -27.7867   23.8830 C   0  0  0  0  0  0  0  0  0  0  0  0
  -14.6161  -28.6427   24.0933 C   0  0  0  0  0  0  0  0  0  0  0  0
  -28.6175  -19.5938   19.4755 C   0  0  0  0  0  0  0  0  0  0  0  0
  -13.7676  -28.1114   21.8945 C   0  0  0  0  0  0  0  0  0  0  0  0
  -20.6995  -27.8764   22.6266 C   0  0  0  0  0  0  0  0  0  0  0  0
  -22.5248  -29.3421   23.6404 C   0  0  0  0  0  0  0  0  0  0  0  0
  -25.7827  -11.6968   20.2476 C   0  0  0  0  0  0  0  0  0  0  0  0
  -28.4425  -17.7384   21.0204 C   0  0  0  0  0  0  0  0  0  0  0  0
  -26.1403  -12.9608   19.7411 C   0  0  0  0  0  0  0  0  0  0  0  0
  -27.8831  -18.8849   20.4385 C   0  0  0  0  0  0  0  0  0  0  0  0
  -18.1370  -26.7787   22.5221 C   0  0  0  0  0  0  0  0  0  0  0  0
  -29.8955  -19.1753   19.1058 C   0  0  0  0  0  0  0  0  0  0  0  0
  -15.8134  -27.0930   22.6784 C   0  0  0  0  0  0  0  0  0  0  0  0
  -13.6513  -28.8050   23.0991 C   0  0  0  0  0  0  0  0  0  0  0  0
  -14.8486  -27.2554   21.6842 C   0  0  0  0  0  0  0  0  0  0  0  0
  -22.0234  -28.4426   22.6806 C   0  0  0  0  0  0  0  0  0  0  0  0
  -23.8212  -29.5732   23.2501 C   0  0  0  0  0  0  0  0  0  0  0  0
  -21.8767  -29.9173   24.7826 C   0  0  0  0  0  0  0  0  0  0  0  0
  -25.5485  -16.4343   20.8536 C   0  0  0  0  0  0  0  0  0  0  0  0
  -24.6894  -19.0723   22.5345 C   0  0  0  0  0  0  0  0  0  0  0  0
  -25.3636  -22.3045   23.3976 C   0  0  0  0  0  0  0  0  0  0  0  0
  -27.1319  -25.9293   19.5381 C   0  0  0  0  0  0  0  0  0  0  0  0
  -24.4420  -11.4512   20.8934 C   0  0  0  0  0  0  0  0  0  0  0  0
  -27.6883  -16.9731   22.0730 C   0  0  0  0  0  0  0  0  0  0  0  0
  -26.5087  -19.3742   20.8128 C   0  0  0  0  0  0  0  0  0  0  0  0
  -23.7334  -12.7304   21.3313 C   0  0  0  0  0  0  0  0  0  0  0  0
  -26.2421  -29.4761   19.0448 C   0  0  0  0  0  0  0  0  0  0  0  0
  -23.7841  -13.7755   20.2213 C   0  0  0  0  0  0  0  0  0  0  0  0
  -25.3510  -29.8411   20.2341 C   0  0  0  0  0  0  0  0  0  0  0  0
  -33.4046  -25.4290   18.6880 C   0  0  0  0  0  0  0  0  0  0  0  0
  -33.9361  -23.9841   18.5420 C   0  0  0  0  0  0  0  0  0  0  0  0
  -27.3162  -28.4605   19.4183 C   0  0  0  0  0  0  0  0  0  0  0  0
  -29.5718  -26.5663   19.6635 C   0  0  0  0  0  0  0  0  0  0  0  0
  -30.6431  -26.8032   18.6016 C   0  0  0  0  0  0  0  0  0  0  0  0
  -25.4525  -27.3401   20.6548 C   0  0  0  0  0  0  0  0  0  0  0  0
  -28.8739  -24.5186   18.5079 C   0  0  0  0  0  0  0  0  0  0  0  0
  -25.2314  -14.1613   19.8925 C   0  0  1  0  0  0  0  0  0  0  0  0
  -26.1788  -17.1800   21.9957 C   0  0  1  0  0  0  0  0  0  0  0  0
  -25.2753  -28.7245   21.2924 C   0  0  2  0  0  0  0  0  0  0  0  0
  -31.9880  -24.8139   18.7524 C   0  0  2  0  0  0  0  0  0  0  0  0
  -32.5524  -23.6164   17.9516 C   0  0  2  0  0  0  0  0  0  0  0  0
  -29.9629  -24.7411   17.4440 C   0  0  1  0  0  0  0  0  0  0  0  0
  -29.3612  -25.3473   16.1677 C   0  0  0  0  0  0  0  0  0  0  0  0
  -24.4595  -24.2098   24.7577 C   0  0  0  0  0  0  0  0  0  0  0  0
  -22.5785  -19.5953   20.3943 C   0  0  0  0  0  0  0  0  0  0  0  0
  -22.3755  -21.9339   21.2651 C   0  0  0  0  0  0  0  0  0  0  0  0
  -21.8100  -20.0025   22.7391 C   0  0  0  0  0  0  0  0  0  0  0  0
  -27.7767  -22.3798   25.1093 C   0  0  0  0  0  0  0  0  0  0  0  0
  -32.5899  -21.1335   17.6815 C   0  0  0  0  0  0  0  0  0  0  0  0
  -32.0182  -19.8660   18.2853 C   0  0  0  0  0  0  0  0  0  1  0  0
  -24.2311  -20.4655   22.1770 C   0  0  1  0  0  0  0  0  0  0  0  0
  -25.3857  -23.0037   24.7448 C   0  0  2  0  0  0  0  0  0  0  0  0
  -22.7739  -20.4892   21.6352 C   0  0  0  0  0  0  0  0  0  0  0  0
  -22.9275  -28.1241   21.7504 N   0  0  0  0  0  0  0  0  0  0  0  0
  -24.0101  -28.8274   22.1239 N   0  0  0  0  0  0  0  0  0  0  0  0
  -25.8085  -18.5884   21.8423 N   0  0  0  0  0  0  0  0  0  0  0  0
  -26.7246  -27.2151   19.9340 N   0  0  0  0  0  0  0  0  0  0  0  0
  -28.4630  -25.7744   19.1293 N   0  0  0  0  0  0  0  0  0  0  0  0
  -31.0828  -25.5837   17.9072 N   0  0  1  0  0  0  0  0  0  0  0  0
  -24.8067  -30.3397   23.7637 N   0  0  0  0  0  0  0  0  0  0  0  0
  -20.5424  -29.5725   25.0378 N   0  0  0  0  0  0  0  0  0  0  0  0
  -25.7524  -15.0682   20.8928 N   0  0  0  0  0  0  0  0  0  0  0  0
  -24.4391  -21.2819   23.3680 N   0  0  0  0  0  0  0  0  0  0  0  0
  -32.0531  -22.3174   18.4195 N   0  3  0  0  0  0  0  0  0  0  0  0
  -26.7654  -23.4672   25.0652 N   0  3  0  0  0  0  0  0  0  0  0  0
  -22.4582  -30.7262   25.5448 O   0  0  0  0  0  0  0  0  0  0  0  0
  -24.9222  -17.0525   20.0008 O   0  0  0  0  0  0  0  0  0  0  0  0
  -24.0813  -18.4394   23.4014 O   0  0  0  0  0  0  0  0  0  0  0  0
  -26.0908  -22.6351   22.4635 O   0  0  0  0  0  0  0  0  0  0  0  0
  -26.3396  -24.9782   19.5268 O   0  0  0  0  0  0  0  0  0  0  0  0
  -16.8868  -26.2430   22.4714 O   0  0  0  0  0  0  0  0  0  0  0  0
  -30.6019  -19.8785   18.1650 O   0  0  0  0  0  0  0  0  0  1  0  0
  -12.6124  -29.6259   23.3018 F   0  0  0  0  0  0  0  0  0  0  0  0
  -14.9543  -26.5908   20.5253 F   0  0  0  0  0  0  0  0  0  0  0  0
  1  2  1  0  0  0  0
  1  5  2  0  0  0  0
  2  6  2  0  0  0  0
  3  8  2  0  0  0  0
  3 15  1  0  0  0  0
  4  9  1  0  0  0  0
  4 15  2  0  0  0  0
  5 17  1  0  0  0  0
  6 19  1  0  0  0  0
  7 10  2  0  0  0  0
  7 18  1  0  0  0  0
  8 21  1  0  0  0  0
  9 21  2  0  0  0  0
 10 22  1  0  0  0  0
 11 12  2  0  0  0  0
 11 23  1  0  0  0  0
 12 24  1  0  0  0  0
 13 20  1  0  0  0  0
 13 22  2  0  0  0  0
 14 24  2  0  0  0  0
 14 25  1  0  0  0  0
 15 26  1  0  0  0  0
 16 26  1  0  0  0  0
 16 27  2  0  0  0  0
 16 28  1  0  0  0  0
 17 19  2  0  0  0  0
 17 33  1  0  0  0  0
 18 20  2  0  0  0  0
 18 34  1  0  0  0  0
 19 47  1  0  0  0  0
 20 35  1  0  0  0  0
 21 81  1  0  0  0  0
 22 82  1  0  0  0  0
 23 25  2  0  0  0  0
 23 81  1  0  0  0  0
 24 83  1  0  0  0  0
 25 84  1  0  0  0  0
 26 64  2  0  0  0  0
 27 65  1  0  0  0  0
 27 70  1  0  0  0  0
 28 71  1  0  0  0  0
 28 76  2  0  0  0  0
 29 48  1  0  0  0  0
 29 72  1  0  0  0  0
 29 77  2  0  0  0  0
 30 61  1  0  0  0  0
 30 66  1  0  0  0  0
 30 78  2  0  0  0  0
 31 62  1  0  0  0  0
 31 73  1  0  0  0  0
 31 79  2  0  0  0  0
 32 67  1  0  0  0  0
 32 68  1  0  0  0  0
 32 80  2  0  0  0  0
 33 36  1  0  0  0  0
 34 48  1  0  0  0  0
 35 66  1  0  0  0  0
 36 38  1  0  0  0  0
 37 39  1  0  0  0  0
 37 42  1  0  0  0  0
 38 47  1  0  0  0  0
 39 49  1  0  0  0  0
 40 41  1  0  0  0  0
 40 50  1  0  0  0  0
 41 51  1  0  0  0  0
 42 67  1  0  0  0  0
 43 44  1  0  0  0  0
 43 68  1  0  0  0  0
 44 69  1  0  0  0  0
 45 49  1  0  0  0  0
 45 67  1  0  0  0  0
 46 52  1  0  0  0  0
 46 68  1  0  0  0  0
 47 72  1  0  0  0  0
 48 66  1  0  0  0  0
 49 65  1  0  0  0  0
 50 51  1  0  0  0  0
 50 69  1  0  0  0  0
 51 74  1  0  0  0  0
 52 53  1  0  0  0  0
 52 69  1  0  0  0  0
 54 62  1  0  0  0  0
 55 63  1  0  0  0  0
 56 63  1  0  0  0  0
 57 63  1  0  0  0  0
 58 75  1  0  0  0  0
 59 60  1  0  0  0  0
 59 74  1  0  0  0  0
 60 82  1  0  0  0  0
 61 63  1  0  0  0  0
 61 73  1  0  0  0  0
 62 75  1  0  0  0  0
 64 65  1  0  0  0  0
M  CHG  2  74   1  75   1
M  ISO  4  32 100  60 101  68 100  82 101
M  END
> <Batch ID>
0173

> <Smiles>
CNC(C)C(=O)NC(C(=O)N1Cc2cc([101O:1][101CH2:1]CNC3CCC3N3CC[100N:0]([100C:0](=O)N4CCCC(n5nc(-c6ccc(Oc7ccc(F)cc7F)cc6)c(C(N)=O)c5N)C4)CC3C)ccc2CC1C(=O)NC1CCCc2ccccc21)C(C)(C)C

> <Shape>
0.242

> <Color>
0.064

> <Negative vol penalty>
0.000

$$$$

  -OEChem-04052322423D

 87 97  0     1  0  0  0  0  0999 V2000
  -25.7366  -16.0159   37.2456 C   0  0  0  0  0  0  0  0  0  0  0  0
  -26.2897  -16.1365   35.9748 C   0  0  0  0  0  0  0  0  0  0  0  0
  -23.0007   -9.8936   19.9815 C   0  0  0  0  0  0  0  0  0  0  0  0
  -23.7309   -9.9434   22.2840 C   0  0  0  0  0  0  0  0  0  0  0  0
  -24.9953  -14.8825   37.5772 C   0  0  0  0  0  0  0  0  0  0  0  0
  -26.1028  -15.1232   35.0352 C   0  0  0  0  0  0  0  0  0  0  0  0
  -24.8820  -16.9177   30.4598 C   0  0  0  0  0  0  0  0  0  0  0  0
  -22.2361   -8.7580   20.2485 C   0  0  0  0  0  0  0  0  0  0  0  0
  -22.9662   -8.8078   22.5510 C   0  0  0  0  0  0  0  0  0  0  0  0
  -25.9164  -17.4374   29.6828 C   0  0  0  0  0  0  0  0  0  0  0  0
  -23.2132   -5.4695   22.0756 C   0  0  0  0  0  0  0  0  0  0  0  0
  -23.8036   -4.4523   22.8256 C   0  0  0  0  0  0  0  0  0  0  0  0
  -26.0121  -15.3723   28.4396 C   0  0  0  0  0  0  0  0  0  0  0  0
  -22.0830   -4.6918   24.5047 C   0  0  0  0  0  0  0  0  0  0  0  0
  -23.7482  -10.4863   20.9992 C   0  0  0  0  0  0  0  0  0  0  0  0
  -24.1303  -13.0024   20.8246 C   0  0  0  0  0  0  0  0  0  0  0  0
  -24.7910  -13.8593   36.6381 C   0  0  0  0  0  0  0  0  0  0  0  0
  -24.4114  -15.6153   30.2392 C   0  0  0  0  0  0  0  0  0  0  0  0
  -25.3592  -13.9745   35.3550 C   0  0  0  0  0  0  0  0  0  0  0  0
  -24.9698  -14.8394   29.2134 C   0  0  0  0  0  0  0  0  0  0  0  0
  -30.9828  -19.2596   26.3397 C   0  0  0  0  0  0  0  0  0  0  0  0
  -22.2188   -8.2151   21.5332 C   0  0  0  0  0  0  0  0  0  0  0  0
  -26.4836  -16.6637   28.6745 C   0  0  0  0  0  0  0  0  0  0  0  0
  -22.0578   -6.0980   22.5403 C   0  0  0  0  0  0  0  0  0  0  0  0
  -23.2385   -4.0635   24.0401 C   0  0  0  0  0  0  0  0  0  0  0  0
  -21.4927   -5.7091   23.7548 C   0  0  0  0  0  0  0  0  0  0  0  0
  -24.5387  -11.6590   20.7239 C   0  0  0  0  0  0  0  0  0  0  0  0
  -29.9251  -19.3905   25.4200 C   0  0  0  0  0  0  0  0  0  0  0  0
  -30.3719  -18.9048   27.5175 C   0  0  0  0  0  0  0  0  0  0  0  0
  -25.2384  -13.7266   20.4584 C   0  0  0  0  0  0  0  0  0  0  0  0
  -22.8625  -13.5471   21.2144 C   0  0  0  0  0  0  0  0  0  0  0  0
  -24.2864  -12.9522   31.9702 C   0  0  0  0  0  0  0  0  0  0  0  0
  -22.6027  -11.8430   29.4292 C   0  0  0  0  0  0  0  0  0  0  0  0
  -21.8851  -12.0831   26.1014 C   0  0  0  0  0  0  0  0  0  0  0  0
  -30.7343  -14.6672   20.6959 C   0  0  0  0  0  0  0  0  0  0  0  0
  -24.0223  -12.6315   37.0579 C   0  0  0  0  0  0  0  0  0  0  0  0
  -23.2768  -15.0790   31.0684 C   0  0  0  0  0  0  0  0  0  0  0  0
  -24.4869  -13.4427   28.9230 C   0  0  0  0  0  0  0  0  0  0  0  0
  -23.5554  -11.7743   35.8843 C   0  0  0  0  0  0  0  0  0  0  0  0
  -29.5912  -12.2443   18.3507 C   0  0  0  0  0  0  0  0  0  0  0  0
  -33.2347  -20.4537   26.9522 C   0  0  0  0  0  0  0  0  0  0  0  0
  -32.9499  -20.7878   25.5212 C   0  0  0  0  0  0  0  0  0  0  0  0
  -24.6915  -11.5702   34.8871 C   0  0  0  0  0  0  0  0  0  0  0  0
  -28.1439  -11.9826   18.7712 C   0  0  0  0  0  0  0  0  0  0  0  0
  -30.5287  -17.9849   20.9283 C   0  0  0  0  0  0  0  0  0  0  0  0
  -30.4960  -12.4797   19.5582 C   0  0  0  0  0  0  0  0  0  0  0  0
  -28.5879  -13.2718   20.9018 C   0  0  0  0  0  0  0  0  0  0  0  0
  -30.9569  -19.2164   21.7110 C   0  0  0  0  0  0  0  0  0  0  0  0
  -30.3452  -17.3851   23.2130 C   0  0  0  0  0  0  0  0  0  0  0  0
  -32.4664  -19.4634   26.0912 C   0  0  0  0  0  0  0  0  0  0  0  0
  -25.1577  -12.9081   34.3004 C   0  0  1  0  0  0  0  0  0  0  0  0
  -23.2243  -13.5546   31.0946 C   0  0  1  0  0  0  0  0  0  0  0  0
  -27.6265  -13.0841   19.7157 C   0  0  2  0  0  0  0  0  0  0  0  0
  -30.8113  -16.8349   21.8796 C   0  0  1  0  0  0  0  0  0  0  0  0
  -30.9260  -18.6220   28.8549 C   0  0  0  0  0  0  0  0  0  0  0  0
  -20.4982  -11.0151   24.3032 C   0  0  0  0  0  0  0  0  0  0  0  0
  -24.5586   -9.5040   29.3133 C   0  0  0  0  0  0  0  0  0  0  0  0
  -23.7325   -9.0184   27.0003 C   0  0  0  0  0  0  0  0  0  0  0  0
  -22.1656   -8.8825   28.9365 C   0  0  0  0  0  0  0  0  0  0  0  0
  -20.3979  -14.5917   25.5971 C   0  0  0  0  0  0  0  0  0  0  0  0
  -30.0073  -19.7582   23.9954 C   0  0  0  0  0  0  0  0  0  0  0  0
  -27.9295  -18.5003   28.2014 C   0  0  0  0  0  0  0  0  0  1  0  0
  -22.9530  -11.1476   28.1358 C   0  0  1  0  0  0  0  0  0  0  0  0
  -20.5632  -12.1111   25.3554 C   0  0  2  0  0  0  0  0  0  0  0  0
  -23.3631   -9.6637   28.3530 C   0  0  0  0  0  0  0  0  0  0  0  0
  -25.8073  -11.5343   20.3249 N   0  0  0  0  0  0  0  0  0  0  0  0
  -28.7326  -19.1391   25.9665 N   0  0  0  0  0  0  0  0  0  0  0  0
  -29.0373  -18.8466   27.2423 N   0  0  0  0  0  0  0  0  0  0  0  0
  -26.2055  -12.8087   20.1715 N   0  0  0  0  0  0  0  0  0  0  0  0
  -23.3796  -12.9608   29.7651 N   0  0  0  0  0  0  0  0  0  0  0  0
  -29.9498  -13.5370   20.4124 N   0  0  0  0  0  0  0  0  0  0  0  0
  -25.4702  -15.0527   20.3570 N   0  0  0  0  0  0  0  0  0  0  0  0
  -21.8325  -12.6614   21.5593 N   0  0  0  0  0  0  0  0  0  0  0  0
  -24.2311  -13.3661   33.2874 N   0  0  0  0  0  0  0  0  0  0  0  0
  -21.8062  -11.3275   27.2521 N   0  0  0  0  0  0  0  0  0  0  0  0
  -30.1386  -15.6246   21.5078 N   0  0  0  0  0  0  0  0  0  0  0  0
  -30.8293  -18.8200   23.1715 N   0  3  2  0  0  0  0  0  0  0  0  0
  -20.3790  -13.4253   24.6772 N   0  3  0  0  0  0  0  0  0  0  0  0
  -22.6445  -14.7821   21.2397 O   0  0  0  0  0  0  0  0  0  0  0  0
  -25.0953  -12.1688   31.4869 O   0  0  0  0  0  0  0  0  0  0  0  0
  -21.6693  -11.4146   30.1126 O   0  0  0  0  0  0  0  0  0  0  0  0
  -22.8883  -12.6695   25.7012 O   0  0  0  0  0  0  0  0  0  0  0  0
  -31.8786  -14.8148   20.2534 O   0  0  0  0  0  0  0  0  0  0  0  0
  -21.4725   -7.1071   21.7942 O   0  0  0  0  0  0  0  0  0  0  0  0
  -27.4939  -17.1682   27.9151 O   0  0  0  0  0  0  0  0  0  1  0  0
  -23.8046   -3.0856   24.7594 F   0  0  0  0  0  0  0  0  0  0  0  0
  -20.3822   -6.3083   24.2058 F   0  0  0  0  0  0  0  0  0  0  0  0
  1  2  1  0  0  0  0
  1  5  2  0  0  0  0
  2  6  2  0  0  0  0
  3  8  2  0  0  0  0
  3 15  1  0  0  0  0
  4  9  1  0  0  0  0
  4 15  2  0  0  0  0
  5 17  1  0  0  0  0
  6 19  1  0  0  0  0
  7 10  2  0  0  0  0
  7 18  1  0  0  0  0
  8 22  1  0  0  0  0
  9 22  2  0  0  0  0
 10 23  1  0  0  0  0
 11 12  2  0  0  0  0
 11 24  1  0  0  0  0
 12 25  1  0  0  0  0
 13 20  1  0  0  0  0
 13 23  2  0  0  0  0
 14 25  2  0  0  0  0
 14 26  1  0  0  0  0
 15 27  1  0  0  0  0
 16 27  1  0  0  0  0
 16 30  2  0  0  0  0
 16 31  1  0  0  0  0
 17 19  2  0  0  0  0
 17 36  1  0  0  0  0
 18 20  2  0  0  0  0
 18 37  1  0  0  0  0
 19 51  1  0  0  0  0
 20 38  1  0  0  0  0
 21 28  1  0  0  0  0
 21 29  2  0  0  0  0
 21 50  1  0  0  0  0
 22 84  1  0  0  0  0
 23 85  1  0  0  0  0
 24 26  2  0  0  0  0
 24 84  1  0  0  0  0
 25 86  1  0  0  0  0
 26 87  1  0  0  0  0
 27 66  2  0  0  0  0
 28 61  1  0  0  0  0
 28 67  2  0  0  0  0
 29 55  1  0  0  0  0
 29 68  1  0  0  0  0
 30 69  1  0  0  0  0
 30 72  1  0  0  0  0
 31 73  1  0  0  0  0
 31 79  2  0  0  0  0
 32 52  1  0  0  0  0
 32 74  1  0  0  0  0
 32 80  2  0  0  0  0
 33 63  1  0  0  0  0
 33 70  1  0  0  0  0
 33 81  2  0  0  0  0
 34 64  1  0  0  0  0
 34 75  1  0  0  0  0
 34 82  2  0  0  0  0
 35 71  1  0  0  0  0
 35 76  1  0  0  0  0
 35 83  2  0  0  0  0
 36 39  1  0  0  0  0
 37 52  1  0  0  0  0
 38 70  1  0  0  0  0
 39 43  1  0  0  0  0
 40 44  1  0  0  0  0
 40 46  1  0  0  0  0
 41 42  1  0  0  0  0
 41 50  1  0  0  0  0
 42 50  1  0  0  0  0
 43 51  1  0  0  0  0
 44 53  1  0  0  0  0
 45 48  1  0  0  0  0
 45 54  1  0  0  0  0
 46 71  1  0  0  0  0
 47 53  1  0  0  0  0
 47 71  1  0  0  0  0
 48 77  1  0  0  0  0
 49 54  1  0  0  0  0
 49 77  1  0  0  0  0
 51 74  1  0  0  0  0
 52 70  1  0  0  0  0
 53 69  1  0  0  0  0
 54 76  1  0  0  0  0
 56 64  1  0  0  0  0
 57 65  1  0  0  0  0
 58 65  1  0  0  0  0
 59 65  1  0  0  0  0
 60 78  1  0  0  0  0
 61 77  1  0  0  0  0
 62 68  1  0  0  0  0
 62 85  1  0  0  0  0
 63 65  1  0  0  0  0
 63 75  1  0  0  0  0
 64 78  1  0  0  0  0
 66 69  1  0  0  0  0
 67 68  1  0  0  0  0
M  CHG  2  77   1  78   1
M  ISO  4  35 100  62 101  76 100  85 101
M  END
> <Batch ID>
0173

> <Smiles>
CNC(C)C(=O)NC(C(=O)N1Cc2cc([101O:1][101CH2:1]n3nc(CN4CCC([100NH:0][100C:0](=O)N5CCCC(n6nc(-c7ccc(Oc8ccc(F)cc8F)cc7)c(C(N)=O)c6N)C5)C4)c(C4CC4)c3C)ccc2CC1C(=O)NC1CCCc2ccccc21)C(C)(C)C

> <Shape>
0.175

> <Color>
0.189

> <Negative vol penalty>
0.000

$$$$

  -OEChem-04052322423D

 84 93  0     1  0  0  0  0  0999 V2000
  -32.0943  -29.8968   22.7791 C   0  0  0  0  0  0  0  0  0  0  0  0
  -31.8935  -28.6439   23.3494 C   0  0  0  0  0  0  0  0  0  0  0  0
  -23.0777   -9.8649   19.9409 C   0  0  0  0  0  0  0  0  0  0  0  0
  -23.8339   -9.8761   22.2355 C   0  0  0  0  0  0  0  0  0  0  0  0
  -31.0159  -30.7633   22.6052 C   0  0  0  0  0  0  0  0  0  0  0  0
  -30.6141  -28.2571   23.7470 C   0  0  0  0  0  0  0  0  0  0  0  0
  -29.4913  -23.5232   22.3419 C   0  0  0  0  0  0  0  0  0  0  0  0
  -22.3346   -8.7114   20.1915 C   0  0  0  0  0  0  0  0  0  0  0  0
  -23.0907   -8.7227   22.4861 C   0  0  0  0  0  0  0  0  0  0  0  0
  -30.0329  -22.4878   23.1025 C   0  0  0  0  0  0  0  0  0  0  0  0
  -19.8624   -7.9226   23.0847 C   0  0  0  0  0  0  0  0  0  0  0  0
  -19.1036   -7.8837   24.2545 C   0  0  0  0  0  0  0  0  0  0  0  0
  -27.9311  -22.2481   24.2619 C   0  0  0  0  0  0  0  0  0  0  0  0
  -20.3458   -5.9486   24.9959 C   0  0  0  0  0  0  0  0  0  0  0  0
  -23.8274  -10.4473   20.9629 C   0  0  0  0  0  0  0  0  0  0  0  0
  -24.1670  -12.9726   20.8396 C   0  0  0  0  0  0  0  0  0  0  0  0
  -29.7211  -30.3831   22.9920 C   0  0  0  0  0  0  0  0  0  0  0  0
  -28.1666  -23.9367   22.5435 C   0  0  0  0  0  0  0  0  0  0  0  0
  -29.5176  -29.1197   23.5793 C   0  0  0  0  0  0  0  0  0  0  0  0
  -27.3742  -23.2872   23.5008 C   0  0  0  0  0  0  0  0  0  0  0  0
  -31.5205  -19.3411   25.4445 C   0  0  0  0  0  0  0  0  0  0  0  0
  -22.3411   -8.1403   21.4641 C   0  0  0  0  0  0  0  0  0  0  0  0
  -29.2537  -21.8520   24.0646 C   0  0  0  0  0  0  0  0  0  0  0  0
  -20.8628   -6.9744   22.8705 C   0  0  0  0  0  0  0  0  0  0  0  0
  -19.3453   -6.8968   25.2100 C   0  0  0  0  0  0  0  0  0  0  0  0
  -21.1045   -5.9875   23.8260 C   0  0  0  0  0  0  0  0  0  0  0  0
  -24.5958  -11.6385   20.7046 C   0  0  0  0  0  0  0  0  0  0  0  0
  -31.7735  -19.5223   26.7889 C   0  0  0  0  0  0  0  0  0  0  0  0
  -31.6436  -18.0465   24.9830 C   0  0  0  0  0  0  0  0  0  0  0  0
  -25.2590  -13.7225   20.4769 C   0  0  0  0  0  0  0  0  0  0  0  0
  -32.2071  -17.3071   27.0573 C   0  0  0  0  0  0  0  0  0  0  0  0
  -22.8953  -13.4878   21.2557 C   0  0  0  0  0  0  0  0  0  0  0  0
  -26.7770  -26.6443   23.4611 C   0  0  0  0  0  0  0  0  0  0  0  0
  -24.0536  -25.0310   22.7520 C   0  0  0  0  0  0  0  0  0  0  0  0
  -22.4836  -22.0255   22.3659 C   0  0  0  0  0  0  0  0  0  0  0  0
  -30.7342  -14.7575   20.6548 C   0  0  0  0  0  0  0  0  0  0  0  0
  -28.5945  -31.3721   22.8274 C   0  0  0  0  0  0  0  0  0  0  0  0
  -27.5890  -25.0373   21.6964 C   0  0  0  0  0  0  0  0  0  0  0  0
  -25.9403  -23.6799   23.7419 C   0  0  0  0  0  0  0  0  0  0  0  0
  -27.2089  -30.7400   22.9316 C   0  0  0  0  0  0  0  0  0  0  0  0
  -29.6122  -12.3574   18.2901 C   0  0  0  0  0  0  0  0  0  0  0  0
  -27.1374  -29.8061   24.1356 C   0  0  0  0  0  0  0  0  0  0  0  0
  -28.1732  -12.0640   18.7183 C   0  0  0  0  0  0  0  0  0  0  0  0
  -30.5246  -12.5815   19.4940 C   0  0  0  0  0  0  0  0  0  0  0  0
  -28.6193  -13.3128   20.8729 C   0  0  0  0  0  0  0  0  0  0  0  0
  -31.9961  -16.7850   22.8347 C   0  0  0  0  0  0  0  0  0  0  0  0
  -30.1305  -17.7405   22.9960 C   0  0  0  0  0  0  0  0  0  0  0  0
  -28.1407  -28.6542   24.0007 C   0  0  1  0  0  0  0  0  0  0  0  0
  -26.3873  -25.7203   22.3421 C   0  0  1  0  0  0  0  0  0  0  0  0
  -27.6482  -13.1355   19.6930 C   0  0  2  0  0  0  0  0  0  0  0  0
  -30.8151  -16.9549   21.8687 C   0  0  0  0  0  0  0  0  0  0  0  0
  -31.6719  -20.8801   27.4024 C   0  0  0  0  0  0  0  0  0  0  0  0
  -32.5883  -16.1776   27.9529 C   0  0  0  0  0  0  0  0  0  0  0  0
  -20.2468  -21.0272   21.8206 C   0  0  0  0  0  0  0  0  0  0  0  0
  -23.0687  -25.7105   25.5588 C   0  0  0  0  0  0  0  0  0  0  0  0
  -21.3197  -23.9380   25.2987 C   0  0  0  0  0  0  0  0  0  0  0  0
  -21.3339  -25.9078   23.7683 C   0  0  0  0  0  0  0  0  0  0  0  0
  -23.5472  -20.6648   19.9626 C   0  0  0  0  0  0  0  0  0  0  0  0
  -31.1374  -20.4842   24.5512 C   0  0  0  0  0  0  0  0  0  1  0  0
  -23.1144  -24.1305   23.5174 C   0  0  1  0  0  0  0  0  0  0  0  0
  -21.5837  -21.4932   21.2654 C   0  0  2  0  0  0  0  0  0  0  0  0
  -22.2368  -24.9154   24.5328 C   0  0  0  0  0  0  0  0  0  0  0  0
  -25.8614  -11.5433   20.2885 N   0  0  0  0  0  0  0  0  0  0  0  0
  -32.1204  -18.5240   27.6275 N   0  0  0  0  0  0  0  0  0  0  0  0
  -31.9865  -17.0015   25.7644 N   0  0  0  0  0  0  0  0  0  0  0  0
  -26.2372  -12.8270   20.1588 N   0  0  0  0  0  0  0  0  0  0  0  0
  -31.3966  -17.7961   23.6105 N   0  0  0  0  0  0  0  0  0  0  0  0
  -25.4231  -24.7657   22.8928 N   0  0  0  0  0  0  0  0  0  0  0  0
  -29.9704  -13.6138   20.3737 N   0  0  0  0  0  0  0  0  0  0  0  0
  -25.4682  -15.0541   20.4021 N   0  0  0  0  0  0  0  0  0  0  0  0
  -21.8838  -12.5781   21.5927 N   0  0  0  0  0  0  0  0  0  0  0  0
  -27.6410  -27.6538   23.0820 N   0  0  0  0  0  0  0  0  0  0  0  0
  -22.3532  -23.3899   22.5171 N   0  0  0  0  0  0  0  0  0  0  0  0
  -30.1388  -15.6972   21.4899 N   0  0  0  0  0  0  0  0  0  0  0  0
  -22.2333  -20.3424   20.5764 N   0  3  0  0  0  0  0  0  0  0  0  0
  -22.6578  -14.7182   21.3108 O   0  0  0  0  0  0  0  0  0  0  0  0
  -26.3259  -26.4562   24.5848 O   0  0  0  0  0  0  0  0  0  0  0  0
  -23.5889  -25.9320   22.0492 O   0  0  0  0  0  0  0  0  0  0  0  0
  -23.2251  -21.3028   23.0280 O   0  0  0  0  0  0  0  0  0  0  0  0
  -31.8653  -14.9393   20.1913 O   0  0  0  0  0  0  0  0  0  0  0  0
  -21.6158   -7.0149   21.7090 O   0  0  0  0  0  0  0  0  0  0  0  0
  -29.7801  -20.8416   24.8088 O   0  0  0  0  0  0  0  0  0  1  0  0
  -18.6176   -6.8605   26.3340 F   0  0  0  0  0  0  0  0  0  0  0  0
  -22.0651   -5.0746   23.6264 F   0  0  0  0  0  0  0  0  0  0  0  0
  1  2  1  0  0  0  0
  1  5  2  0  0  0  0
  2  6  2  0  0  0  0
  3  8  2  0  0  0  0
  3 15  1  0  0  0  0
  4  9  1  0  0  0  0
  4 15  2  0  0  0  0
  5 17  1  0  0  0  0
  6 19  1  0  0  0  0
  7 10  2  0  0  0  0
  7 18  1  0  0  0  0
  8 22  1  0  0  0  0
  9 22  2  0  0  0  0
 10 23  1  0  0  0  0
 11 12  2  0  0  0  0
 11 24  1  0  0  0  0
 12 25  1  0  0  0  0
 13 20  1  0  0  0  0
 13 23  2  0  0  0  0
 14 25  2  0  0  0  0
 14 26  1  0  0  0  0
 15 27  1  0  0  0  0
 16 27  1  0  0  0  0
 16 30  2  0  0  0  0
 16 32  1  0  0  0  0
 17 19  2  0  0  0  0
 17 37  1  0  0  0  0
 18 20  2  0  0  0  0
 18 38  1  0  0  0  0
 19 48  1  0  0  0  0
 20 39  1  0  0  0  0
 21 28  1  0  0  0  0
 21 29  2  0  0  0  0
 21 59  1  0  0  0  0
 22 81  1  0  0  0  0
 23 82  1  0  0  0  0
 24 26  2  0  0  0  0
 24 81  1  0  0  0  0
 25 83  1  0  0  0  0
 26 84  1  0  0  0  0
 27 63  2  0  0  0  0
 28 52  1  0  0  0  0
 28 64  2  0  0  0  0
 29 65  1  0  0  0  0
 29 67  1  0  0  0  0
 30 66  1  0  0  0  0
 30 70  1  0  0  0  0
 31 53  1  0  0  0  0
 31 64  1  0  0  0  0
 31 65  2  0  0  0  0
 32 71  1  0  0  0  0
 32 76  2  0  0  0  0
 33 49  1  0  0  0  0
 33 72  1  0  0  0  0
 33 77  2  0  0  0  0
 34 60  1  0  0  0  0
 34 68  1  0  0  0  0
 34 78  2  0  0  0  0
 35 61  1  0  0  0  0
 35 73  1  0  0  0  0
 35 79  2  0  0  0  0
 36 69  1  0  0  0  0
 36 74  1  0  0  0  0
 36 80  2  0  0  0  0
 37 40  1  0  0  0  0
 38 49  1  0  0  0  0
 39 68  1  0  0  0  0
 40 42  1  0  0  0  0
 41 43  1  0  0  0  0
 41 44  1  0  0  0  0
 42 48  1  0  0  0  0
 43 50  1  0  0  0  0
 44 69  1  0  0  0  0
 45 50  1  0  0  0  0
 45 69  1  0  0  0  0
 46 51  1  0  0  0  0
 46 67  1  0  0  0  0
 47 51  1  0  0  0  0
 47 67  1  0  0  0  0
 48 72  1  0  0  0  0
 49 68  1  0  0  0  0
 50 66  1  0  0  0  0
 51 74  1  0  0  0  0
 54 61  1  0  0  0  0
 55 62  1  0  0  0  0
 56 62  1  0  0  0  0
 57 62  1  0  0  0  0
 58 75  1  0  0  0  0
 59 82  1  0  0  0  0
 60 62  1  0  0  0  0
 60 73  1  0  0  0  0
 61 75  1  0  0  0  0
 63 66  1  0  0  0  0
M  CHG  1  75   1
M  ISO  4  36 100  59 101  74 100  82 101
M  END
> <Batch ID>
0173

> <Smiles>
CNC(C)C(=O)NC(C(=O)N1Cc2cc([101O:1][101CH2:1]c3c(C)nc(C)nc3N3CC([100NH:0][100C:0](=O)N4CCCC(n5nc(-c6ccc(Oc7ccc(F)cc7F)cc6)c(C(N)=O)c5N)C4)C3)ccc2CC1C(=O)NC1CCCc2ccccc21)C(C)(C)C

> <Shape>
0.193

> <Color>
0.188

> <Negative vol penalty>
0.000

$$$$

  -OEChem-04052322423D

 83 92  0     1  0  0  0  0  0999 V2000
  -27.6297  -37.9522   21.8898 C   0  0  0  0  0  0  0  0  0  0  0  0
  -28.1382  -36.8856   21.1555 C   0  0  0  0  0  0  0  0  0  0  0  0
  -23.5348  -10.0606   22.0643 C   0  0  0  0  0  0  0  0  0  0  0  0
  -24.3177   -8.7809   20.1706 C   0  0  0  0  0  0  0  0  0  0  0  0
  -26.8926  -37.7109   23.0483 C   0  0  0  0  0  0  0  0  0  0  0  0
  -27.9108  -35.5770   21.5801 C   0  0  0  0  0  0  0  0  0  0  0  0
  -26.8878  -28.9706   19.0059 C   0  0  0  0  0  0  0  0  0  0  0  0
  -22.2503   -9.5494   21.8787 C   0  0  0  0  0  0  0  0  0  0  0  0
  -23.0333   -8.2696   19.9850 C   0  0  0  0  0  0  0  0  0  0  0  0
  -27.3795  -27.6732   19.1428 C   0  0  0  0  0  0  0  0  0  0  0  0
  -20.0394   -6.3488   19.2331 C   0  0  0  0  0  0  0  0  0  0  0  0
  -19.9138   -4.9809   18.9908 C   0  0  0  0  0  0  0  0  0  0  0  0
  -29.9352  -22.1314   20.9518 C   0  0  0  0  0  0  0  0  0  0  0  0
  -26.0247  -27.3746   21.1163 C   0  0  0  0  0  0  0  0  0  0  0  0
  -20.9552   -4.5082   21.1190 C   0  0  0  0  0  0  0  0  0  0  0  0
  -24.5685   -9.6764   21.2102 C   0  0  0  0  0  0  0  0  0  0  0  0
  -26.9219   -9.6580   22.1945 C   0  0  0  0  0  0  0  0  0  0  0  0
  -26.6477  -36.3985   23.4820 C   0  0  0  0  0  0  0  0  0  0  0  0
  -25.9676  -29.4844   19.9309 C   0  0  0  0  0  0  0  0  0  0  0  0
  -27.1708  -35.3180   22.7463 C   0  0  0  0  0  0  0  0  0  0  0  0
  -29.3952  -21.1358   20.1453 C   0  0  0  0  0  0  0  0  0  0  0  0
  -25.5209  -28.6779   20.9874 C   0  0  0  0  0  0  0  0  0  0  0  0
  -29.6125  -23.4627   20.7134 C   0  0  0  0  0  0  0  0  0  0  0  0
  -21.9996   -8.6539   20.8391 C   0  0  0  0  0  0  0  0  0  0  0  0
  -26.9502  -26.8760   20.1998 C   0  0  0  0  0  0  0  0  0  0  0  0
  -20.6231   -6.7964   20.4184 C   0  0  0  0  0  0  0  0  0  0  0  0
  -20.3717   -4.0606   19.9337 C   0  0  0  0  0  0  0  0  0  0  0  0
  -21.0809   -5.8761   21.3613 C   0  0  0  0  0  0  0  0  0  0  0  0
  -25.8954  -10.2045   21.4011 C   0  0  0  0  0  0  0  0  0  0  0  0
  -28.5445  -21.5207   19.1216 C   0  0  0  0  0  0  0  0  0  0  0  0
  -28.7522  -23.7434   19.6641 C   0  0  0  0  0  0  0  0  0  0  0  0
  -27.9742  -10.5273   22.0411 C   0  0  0  0  0  0  0  0  0  0  0  0
  -26.9240   -8.4707   22.9983 C   0  0  0  0  0  0  0  0  0  0  0  0
  -25.9711  -31.9060   21.9900 C   0  0  0  0  0  0  0  0  0  0  0  0
  -22.8732  -31.0417   22.4123 C   0  0  0  0  0  0  0  0  0  0  0  0
  -20.4937  -28.6029   22.2201 C   0  0  0  0  0  0  0  0  0  0  0  0
  -28.0022  -16.3187   20.6415 C   0  0  0  0  0  0  0  0  0  0  0  0
  -25.8856  -36.1886   24.7665 C   0  0  0  0  0  0  0  0  0  0  0  0
  -25.4265  -30.8766   19.7540 C   0  0  0  0  0  0  0  0  0  0  0  0
  -24.5188  -29.1752   21.9958 C   0  0  0  0  0  0  0  0  0  0  0  0
  -25.3711  -34.7624   24.9434 C   0  0  0  0  0  0  0  0  0  0  0  0
  -29.8669  -13.6227   18.9481 C   0  0  0  0  0  0  0  0  0  0  0  0
  -26.4696  -33.7546   24.6198 C   0  0  0  0  0  0  0  0  0  0  0  0
  -29.1037  -12.3918   19.4282 C   0  0  0  0  0  0  0  0  0  0  0  0
  -29.5084  -19.1266   21.7650 C   0  0  0  0  0  0  0  0  0  0  0  0
  -28.9514  -14.8341   18.7760 C   0  0  0  0  0  0  0  0  0  0  0  0
  -27.3942  -13.9256   20.4772 C   0  0  0  0  0  0  0  0  0  0  0  0
  -29.7361  -19.7070   20.3943 C   0  0  1  0  0  0  0  0  0  0  0  0
  -26.9242  -33.8836   23.1610 C   0  0  1  0  0  0  0  0  0  0  0  0
  -24.8829  -31.4753   21.0476 C   0  0  1  0  0  0  0  0  0  0  0  0
  -28.3070  -12.7104   20.7026 C   0  0  1  0  0  0  0  0  0  0  0  0
  -28.6177  -18.7172   20.6295 C   0  0  1  0  0  0  0  0  0  0  0  0
  -30.1876  -24.5340   21.5738 C   0  0  0  0  0  0  0  0  0  0  0  0
  -27.9342  -20.4954   18.2227 C   0  0  0  0  0  0  0  0  0  0  0  0
  -18.0605  -28.1849   22.6695 C   0  0  0  0  0  0  0  0  0  0  0  0
  -23.4550  -30.8859   25.4035 C   0  0  0  0  0  0  0  0  0  0  0  0
  -21.3365  -29.5800   25.6768 C   0  0  0  0  0  0  0  0  0  0  0  0
  -21.2545  -31.9218   24.8214 C   0  0  0  0  0  0  0  0  0  0  0  0
  -19.9567  -27.9783   19.3775 C   0  0  0  0  0  0  0  0  0  0  0  0
  -28.3689  -25.1619   19.3602 C   0  0  0  0  0  0  0  0  0  1  0  0
  -22.1449  -30.0870   23.3272 C   0  0  1  0  0  0  0  0  0  0  0  0
  -19.0928  -28.6063   21.6354 C   0  0  2  0  0  0  0  0  0  0  0  0
  -22.0681  -30.6097   24.7895 C   0  0  0  0  0  0  0  0  0  0  0  0
  -26.2624  -11.3336   20.7892 N   0  0  0  0  0  0  0  0  0  0  0  0
  -28.2079  -22.8034   18.8593 N   0  0  0  0  0  0  0  0  0  0  0  0
  -27.5312  -11.5038   21.1982 N   0  0  0  0  0  0  0  0  0  0  0  0
  -24.0240  -30.5454   21.7836 N   0  0  0  0  0  0  0  0  0  0  0  0
  -28.1508  -15.0835   19.9851 N   0  0  0  0  0  0  0  0  0  0  0  0
  -29.2259  -10.5441   22.5464 N   0  0  0  0  0  0  0  0  0  0  0  0
  -25.7593   -7.6925   23.0436 N   0  0  0  0  0  0  0  0  0  0  0  0
  -25.9656  -33.2579   22.2756 N   0  0  0  0  0  0  0  0  0  0  0  0
  -20.8453  -29.8425   22.7110 N   0  0  0  0  0  0  0  0  0  0  0  0
  -28.6796  -17.3918   20.0737 N   0  0  0  0  0  0  0  0  0  0  0  0
  -19.0113  -27.6678   20.4805 N   0  3  0  0  0  0  0  0  0  0  0  0
  -27.9236   -8.1194   23.6698 O   0  0  0  0  0  0  0  0  0  0  0  0
  -26.7567  -31.0730   22.4268 O   0  0  0  0  0  0  0  0  0  0  0  0
  -22.4332  -32.1834   22.2556 O   0  0  0  0  0  0  0  0  0  0  0  0
  -21.2037  -27.5999   22.2427 O   0  0  0  0  0  0  0  0  0  0  0  0
  -27.3118  -16.4587   21.6571 O   0  0  0  0  0  0  0  0  0  0  0  0
  -20.7464   -8.1547   20.6578 O   0  0  0  0  0  0  0  0  0  0  0  0
  -27.4290  -25.6095   20.3361 O   0  0  0  0  0  0  0  0  0  1  0  0
  -20.2495   -2.7471   19.7015 F   0  0  0  0  0  0  0  0  0  0  0  0
  -21.6414   -6.3001   22.5023 F   0  0  0  0  0  0  0  0  0  0  0  0
  1  2  1  0  0  0  0
  1  5  2  0  0  0  0
  2  6  2  0  0  0  0
  3  8  2  0  0  0  0
  3 16  1  0  0  0  0
  4  9  1  0  0  0  0
  4 16  2  0  0  0  0
  5 18  1  0  0  0  0
  6 20  1  0  0  0  0
  7 10  2  0  0  0  0
  7 19  1  0  0  0  0
  8 24  1  0  0  0  0
  9 24  2  0  0  0  0
 10 25  1  0  0  0  0
 11 12  2  0  0  0  0
 11 26  1  0  0  0  0
 12 27  1  0  0  0  0
 13 21  2  0  0  0  0
 13 23  1  0  0  0  0
 14 22  1  0  0  0  0
 14 25  2  0  0  0  0
 15 27  2  0  0  0  0
 15 28  1  0  0  0  0
 16 29  1  0  0  0  0
 17 29  1  0  0  0  0
 17 32  2  0  0  0  0
 17 33  1  0  0  0  0
 18 20  2  0  0  0  0
 18 38  1  0  0  0  0
 19 22  2  0  0  0  0
 19 39  1  0  0  0  0
 20 49  1  0  0  0  0
 21 30  1  0  0  0  0
 21 48  1  0  0  0  0
 22 40  1  0  0  0  0
 23 31  2  0  0  0  0
 23 53  1  0  0  0  0
 24 80  1  0  0  0  0
 25 81  1  0  0  0  0
 26 28  2  0  0  0  0
 26 80  1  0  0  0  0
 27 82  1  0  0  0  0
 28 83  1  0  0  0  0
 29 64  2  0  0  0  0
 30 54  1  0  0  0  0
 30 65  2  0  0  0  0
 31 60  1  0  0  0  0
 31 65  1  0  0  0  0
 32 66  1  0  0  0  0
 32 69  1  0  0  0  0
 33 70  1  0  0  0  0
 33 75  2  0  0  0  0
 34 50  1  0  0  0  0
 34 71  1  0  0  0  0
 34 76  2  0  0  0  0
 35 61  1  0  0  0  0
 35 67  1  0  0  0  0
 35 77  2  0  0  0  0
 36 62  1  0  0  0  0
 36 72  1  0  0  0  0
 36 78  2  0  0  0  0
 37 68  1  0  0  0  0
 37 73  1  0  0  0  0
 37 79  2  0  0  0  0
 38 41  1  0  0  0  0
 39 50  1  0  0  0  0
 40 67  1  0  0  0  0
 41 43  1  0  0  0  0
 42 44  1  0  0  0  0
 42 46  1  0  0  0  0
 43 49  1  0  0  0  0
 44 51  1  0  0  0  0
 45 48  1  0  0  0  0
 45 52  1  0  0  0  0
 46 68  1  0  0  0  0
 47 51  1  0  0  0  0
 47 68  1  0  0  0  0
 48 52  1  0  0  0  0
 49 71  1  0  0  0  0
 50 67  1  0  0  0  0
 51 66  1  0  0  0  0
 52 73  1  0  0  0  0
 55 62  1  0  0  0  0
 56 63  1  0  0  0  0
 57 63  1  0  0  0  0
 58 63  1  0  0  0  0
 59 74  1  0  0  0  0
 60 81  1  0  0  0  0
 61 63  1  0  0  0  0
 61 72  1  0  0  0  0
 62 74  1  0  0  0  0
 64 66  1  0  0  0  0
M  CHG  1  74   1
M  ISO  4  37 100  60 101  73 100  81 101
M  END
> <Batch ID>
0173

> <Smiles>
CNC(C)C(=O)NC(C(=O)N1Cc2cc([101O:1][101CH2:1]c3nc(C)c(C4CC4[100NH:0][100C:0](=O)N4CCCC(n5nc(-c6ccc(Oc7ccc(F)cc7F)cc6)c(C(N)=O)c5N)C4)cc3C)ccc2CC1C(=O)NC1CCCc2ccccc21)C(C)(C)C

> <Shape>
0.309

> <Color>
0.100

> <Negative vol penalty>
0.000

$$$$

  -OEChem-04052322423D

 88 97  0     1  0  0  0  0  0999 V2000
  -28.2112  -36.2172   26.1113 C   0  0  0  0  0  0  0  0  0  0  0  0
  -28.6977  -35.1036   25.4341 C   0  0  0  0  0  0  0  0  0  0  0  0
  -24.7793   -8.4313   21.5431 C   0  0  0  0  0  0  0  0  0  0  0  0
  -23.1297   -9.9684   20.6754 C   0  0  0  0  0  0  0  0  0  0  0  0
  -26.8847  -36.2468   26.5394 C   0  0  0  0  0  0  0  0  0  0  0  0
  -27.8581  -34.0183   25.1857 C   0  0  0  0  0  0  0  0  0  0  0  0
  -27.9124  -30.3724   20.2653 C   0  0  0  0  0  0  0  0  0  0  0  0
  -23.8311   -7.9108   22.4238 C   0  0  0  0  0  0  0  0  0  0  0  0
  -22.1814   -9.4479   21.5560 C   0  0  0  0  0  0  0  0  0  0  0  0
  -28.4662  -29.1135   20.0367 C   0  0  0  0  0  0  0  0  0  0  0  0
  -21.2317   -5.7523   22.2945 C   0  0  0  0  0  0  0  0  0  0  0  0
  -21.1521   -4.3650   22.4156 C   0  0  0  0  0  0  0  0  0  0  0  0
  -26.3403  -28.0928   20.5442 C   0  0  0  0  0  0  0  0  0  0  0  0
  -30.1581  -24.7862   18.0608 C   0  0  0  0  0  0  0  0  0  0  0  0
  -21.6665   -4.5410   24.7696 C   0  0  0  0  0  0  0  0  0  0  0  0
  -24.4286   -9.4602   20.6690 C   0  0  0  0  0  0  0  0  0  0  0  0
  -25.6857   -9.5587   18.4514 C   0  0  0  0  0  0  0  0  0  0  0  0
  -26.0258  -35.1654   26.2876 C   0  0  0  0  0  0  0  0  0  0  0  0
  -26.5689  -30.5005   20.6463 C   0  0  0  0  0  0  0  0  0  0  0  0
  -26.5192  -34.0329   25.6120 C   0  0  0  0  0  0  0  0  0  0  0  0
  -25.7711  -29.3545   20.7745 C   0  0  0  0  0  0  0  0  0  0  0  0
  -30.5242  -23.4603   17.8577 C   0  0  0  0  0  0  0  0  0  0  0  0
  -29.9903  -25.2648   19.3554 C   0  0  0  0  0  0  0  0  0  0  0  0
  -22.5322   -8.4190   22.4302 C   0  0  0  0  0  0  0  0  0  0  0  0
  -27.6809  -27.9733   20.1790 C   0  0  0  0  0  0  0  0  0  0  0  0
  -21.5287   -6.5340   23.4109 C   0  0  0  0  0  0  0  0  0  0  0  0
  -21.3695   -3.7593   23.6531 C   0  0  0  0  0  0  0  0  0  0  0  0
  -21.7461   -5.9283   24.6485 C   0  0  0  0  0  0  0  0  0  0  0  0
  -25.4078   -9.9987   19.7594 C   0  0  0  0  0  0  0  0  0  0  0  0
  -30.7089  -22.6603   18.9738 C   0  0  0  0  0  0  0  0  0  0  0  0
  -30.1987  -24.3839   20.4045 C   0  0  0  0  0  0  0  0  0  0  0  0
  -26.6884  -10.3899   18.0152 C   0  0  0  0  0  0  0  0  0  0  0  0
  -25.0905   -8.4939   17.6979 C   0  0  0  0  0  0  0  0  0  0  0  0
  -25.0608  -31.6436   23.2002 C   0  0  0  0  0  0  0  0  0  0  0  0
  -22.4165  -31.0789   21.4082 C   0  0  0  0  0  0  0  0  0  0  0  0
  -20.9625  -29.3392   18.8575 C   0  0  0  0  0  0  0  0  0  0  0  0
  -28.1754  -15.8960   19.5407 C   0  0  0  0  0  0  0  0  0  0  0  0
  -24.6126  -35.2236   26.8113 C   0  0  0  0  0  0  0  0  0  0  0  0
  -25.9795  -31.8672   20.8631 C   0  0  0  0  0  0  0  0  0  0  0  0
  -24.3181  -29.4392   21.1617 C   0  0  0  0  0  0  0  0  0  0  0  0
  -23.6856  -34.1886   26.1790 C   0  0  0  0  0  0  0  0  0  0  0  0
  -30.3533  -13.0071   19.6358 C   0  0  0  0  0  0  0  0  0  0  0  0
  -24.3556  -32.8186   26.1505 C   0  0  0  0  0  0  0  0  0  0  0  0
  -29.3428  -11.8616   19.5526 C   0  0  0  0  0  0  0  0  0  0  0  0
  -30.2659  -18.8368   18.6466 C   0  0  0  0  0  0  0  0  0  0  0  0
  -29.8155  -14.1583   20.4806 C   0  0  0  0  0  0  0  0  0  0  0  0
  -27.4885  -13.5492   19.9445 C   0  0  0  0  0  0  0  0  0  0  0  0
  -25.6325  -32.8464   25.3019 C   0  0  1  0  0  0  0  0  0  0  0  0
  -24.7365  -31.8484   21.7474 C   0  0  1  0  0  0  0  0  0  0  0  0
  -27.9638  -12.3637   19.0850 C   0  0  2  0  0  0  0  0  0  0  0  0
  -29.0083  -18.1959   19.1941 C   0  0  2  0  0  0  0  0  0  0  0  0
  -29.8987  -20.3095   18.7180 C   0  0  2  0  0  0  0  0  0  0  0  0
  -28.6006  -19.1686   20.3109 C   0  0  0  0  0  0  0  0  0  0  0  0
  -30.7057  -22.9415   16.4732 C   0  0  0  0  0  0  0  0  0  0  0  0
  -30.0339  -24.8440   21.8160 C   0  0  0  0  0  0  0  0  0  0  0  0
  -27.0840  -19.2385   20.4787 C   0  0  0  0  0  0  0  0  0  0  0  0
  -29.2634  -18.8859   21.6646 C   0  0  0  0  0  0  0  0  0  0  0  0
  -18.7784  -29.0679   17.6519 C   0  0  0  0  0  0  0  0  0  0  0  0
  -21.3258  -29.4601   23.7533 C   0  0  0  0  0  0  0  0  0  0  0  0
  -19.6470  -28.4572   22.1900 C   0  0  0  0  0  0  0  0  0  0  0  0
  -19.6394  -30.9151   22.6160 C   0  0  0  0  0  0  0  0  0  0  0  0
  -22.1431  -30.2010   16.2841 C   0  0  0  0  0  0  0  0  0  0  0  0
  -29.5950  -26.6945   19.5814 C   0  0  0  0  0  0  0  0  0  1  0  0
  -31.1015  -21.2277   18.8171 C   0  0  0  0  0  0  0  0  0  0  0  0
  -21.4863  -29.9057   21.2153 C   0  0  1  0  0  0  0  0  0  0  0  0
  -20.1145  -29.7936   17.6832 C   0  0  2  0  0  0  0  0  0  0  0  0
  -20.5525  -29.6825   22.4382 C   0  0  0  0  0  0  0  0  0  0  0  0
  -26.1724  -11.0292   20.1301 N   0  0  0  0  0  0  0  0  0  0  0  0
  -30.5551  -23.0895   20.2465 N   0  0  0  0  0  0  0  0  0  0  0  0
  -26.9406  -11.2437   19.0485 N   0  0  0  0  0  0  0  0  0  0  0  0
  -23.7895  -30.7976   21.3690 N   0  0  0  0  0  0  0  0  0  0  0  0
  -28.5098  -14.6015   19.9717 N   0  0  0  0  0  0  0  0  0  0  0  0
  -27.3701  -10.4664   16.8526 N   0  0  0  0  0  0  0  0  0  0  0  0
  -24.0730   -7.7390   18.2970 N   0  0  0  0  0  0  0  0  0  0  0  0
  -25.3038  -32.8143   23.8928 N   0  0  0  0  0  0  0  0  0  0  0  0
  -20.7810  -30.1459   19.9609 N   0  0  0  0  0  0  0  0  0  0  0  0
  -29.1972  -16.8354   19.6049 N   0  0  0  0  0  0  0  0  0  0  0  0
  -20.8234  -29.5288   16.3993 N   0  3  0  0  0  0  0  0  0  0  0  0
  -25.4617   -8.2096   16.5339 O   0  0  0  0  0  0  0  0  0  0  0  0
  -25.0870  -30.5076   23.6591 O   0  0  0  0  0  0  0  0  0  0  0  0
  -21.9424  -32.2047   21.5799 O   0  0  0  0  0  0  0  0  0  0  0  0
  -21.7082  -28.3638   18.8026 O   0  0  0  0  0  0  0  0  0  0  0  0
  -27.0503  -16.1919   19.1241 O   0  0  0  0  0  0  0  0  0  0  0  0
  -29.0704  -20.4681   19.8828 O   0  0  0  0  0  0  0  0  0  0  0  0
  -21.6066   -7.9112   23.2892 O   0  0  0  0  0  0  0  0  0  0  0  0
  -28.2192  -26.7433   19.9571 O   0  0  0  0  0  0  0  0  0  1  0  0
  -21.2915   -2.4272   23.7696 F   0  0  0  0  0  0  0  0  0  0  0  0
  -22.0306   -6.6741   25.7249 F   0  0  0  0  0  0  0  0  0  0  0  0
  1  2  1  0  0  0  0
  1  5  2  0  0  0  0
  2  6  2  0  0  0  0
  3  8  2  0  0  0  0
  3 16  1  0  0  0  0
  4  9  1  0  0  0  0
  4 16  2  0  0  0  0
  5 18  1  0  0  0  0
  6 20  1  0  0  0  0
  7 10  2  0  0  0  0
  7 19  1  0  0  0  0
  8 24  1  0  0  0  0
  9 24  2  0  0  0  0
 10 25  1  0  0  0  0
 11 12  2  0  0  0  0
 11 26  1  0  0  0  0
 12 27  1  0  0  0  0
 13 21  1  0  0  0  0
 13 25  2  0  0  0  0
 14 22  2  0  0  0  0
 14 23  1  0  0  0  0
 15 27  2  0  0  0  0
 15 28  1  0  0  0  0
 16 29  1  0  0  0  0
 17 29  1  0  0  0  0
 17 32  2  0  0  0  0
 17 33  1  0  0  0  0
 18 20  2  0  0  0  0
 18 38  1  0  0  0  0
 19 21  2  0  0  0  0
 19 39  1  0  0  0  0
 20 48  1  0  0  0  0
 21 40  1  0  0  0  0
 22 30  1  0  0  0  0
 22 54  1  0  0  0  0
 23 31  2  0  0  0  0
 23 63  1  0  0  0  0
 24 85  1  0  0  0  0
 25 86  1  0  0  0  0
 26 28  2  0  0  0  0
 26 85  1  0  0  0  0
 27 87  1  0  0  0  0
 28 88  1  0  0  0  0
 29 68  2  0  0  0  0
 30 64  1  0  0  0  0
 30 69  2  0  0  0  0
 31 55  1  0  0  0  0
 31 69  1  0  0  0  0
 32 70  1  0  0  0  0
 32 73  1  0  0  0  0
 33 74  1  0  0  0  0
 33 79  2  0  0  0  0
 34 49  1  0  0  0  0
 34 75  1  0  0  0  0
 34 80  2  0  0  0  0
 35 65  1  0  0  0  0
 35 71  1  0  0  0  0
 35 81  2  0  0  0  0
 36 66  1  0  0  0  0
 36 76  1  0  0  0  0
 36 82  2  0  0  0  0
 37 72  1  0  0  0  0
 37 77  1  0  0  0  0
 37 83  2  0  0  0  0
 38 41  1  0  0  0  0
 39 49  1  0  0  0  0
 40 71  1  0  0  0  0
 41 43  1  0  0  0  0
 42 44  1  0  0  0  0
 42 46  1  0  0  0  0
 43 48  1  0  0  0  0
 44 50  1  0  0  0  0
 45 51  1  0  0  0  0
 45 52  1  0  0  0  0
 46 72  1  0  0  0  0
 47 50  1  0  0  0  0
 47 72  1  0  0  0  0
 48 75  1  0  0  0  0
 49 71  1  0  0  0  0
 50 70  1  0  0  0  0
 51 53  1  0  0  0  0
 51 77  1  0  0  0  0
 52 64  1  0  0  0  0
 52 84  1  0  0  0  0
 53 56  1  0  0  0  0
 53 57  1  0  0  0  0
 53 84  1  0  0  0  0
 58 66  1  0  0  0  0
 59 67  1  0  0  0  0
 60 67  1  0  0  0  0
 61 67  1  0  0  0  0
 62 78  1  0  0  0  0
 63 86  1  0  0  0  0
 65 67  1  0  0  0  0
 65 76  1  0  0  0  0
 66 78  1  0  0  0  0
 68 70  1  0  0  0  0
M  CHG  1  78   1
M  ISO  4  37 100  63 101  77 100  86 101
M  END
> <Batch ID>
0173

> <Smiles>
CNC(C)C(=O)NC(C(=O)N1Cc2cc([101O:1][101CH2:1]c3cc(C)c(CC4CC([100NH:0][100C:0](=O)N5CCCC(n6nc(-c7ccc(Oc8ccc(F)cc8F)cc7)c(C(N)=O)c6N)C5)C(C)(C)O4)nc3C)ccc2CC1C(=O)NC1CCCc2ccccc21)C(C)(C)C

> <Shape>
0.357

> <Color>
0.112

> <Negative vol penalty>
0.000

$$$$

  -OEChem-04052322423D

 87 96  0     1  0  0  0  0  0999 V2000
  -27.8814  -37.9507   20.4393 C   0  0  0  0  0  0  0  0  0  0  0  0
  -28.0245  -36.8079   19.6589 C   0  0  0  0  0  0  0  0  0  0  0  0
  -30.0054   -7.0929   23.1376 C   0  0  0  0  0  0  0  0  0  0  0  0
  -29.5663   -6.0898   20.9840 C   0  0  0  0  0  0  0  0  0  0  0  0
  -27.6995  -37.8346   21.8167 C   0  0  0  0  0  0  0  0  0  0  0  0
  -27.9869  -35.5482   20.2558 C   0  0  0  0  0  0  0  0  0  0  0  0
  -25.9220  -28.8133   18.9548 C   0  0  0  0  0  0  0  0  0  0  0  0
  -29.4831   -5.9645   23.7697 C   0  0  0  0  0  0  0  0  0  0  0  0
  -29.0440   -4.9614   21.6161 C   0  0  0  0  0  0  0  0  0  0  0  0
  -26.4154  -27.5097   18.9893 C   0  0  0  0  0  0  0  0  0  0  0  0
  -26.4316   -4.6972   24.4813 C   0  0  0  0  0  0  0  0  0  0  0  0
  -25.5528   -4.8998   25.5454 C   0  0  0  0  0  0  0  0  0  0  0  0
  -26.0166  -27.4282   21.3670 C   0  0  0  0  0  0  0  0  0  0  0  0
  -27.4408  -21.3375   19.9214 C   0  0  0  0  0  0  0  0  0  0  0  0
  -27.0532   -3.7025   27.0124 C   0  0  0  0  0  0  0  0  0  0  0  0
  -30.0470   -7.1555   21.7447 C   0  0  0  0  0  0  0  0  0  0  0  0
  -31.9243   -8.5422   20.7150 C   0  0  0  0  0  0  0  0  0  0  0  0
  -27.6500  -36.5725   22.4295 C   0  0  0  0  0  0  0  0  0  0  0  0
  -25.4817  -29.4390   20.1300 C   0  0  0  0  0  0  0  0  0  0  0  0
  -27.8056  -35.4152   21.6430 C   0  0  0  0  0  0  0  0  0  0  0  0
  -25.5158  -28.7388   21.3443 C   0  0  0  0  0  0  0  0  0  0  0  0
  -26.9647  -22.6298   19.7307 C   0  0  0  0  0  0  0  0  0  0  0  0
  -29.0024   -4.8987   23.0090 C   0  0  0  0  0  0  0  0  0  0  0  0
  -26.4655  -26.8180   20.1960 C   0  0  0  0  0  0  0  0  0  0  0  0
  -27.6211   -3.9971   24.6827 C   0  0  0  0  0  0  0  0  0  0  0  0
  -28.7604  -21.0349   19.6045 C   0  0  0  0  0  0  0  0  0  0  0  0
  -25.8636   -4.4025   26.8109 C   0  0  0  0  0  0  0  0  0  0  0  0
  -27.9320   -3.4998   25.9483 C   0  0  0  0  0  0  0  0  0  0  0  0
  -30.5859   -8.3211   21.0912 C   0  0  0  0  0  0  0  0  0  0  0  0
  -27.8413  -23.5759   19.2245 C   0  0  0  0  0  0  0  0  0  0  0  0
  -29.5566  -22.0523   19.1037 C   0  0  0  0  0  0  0  0  0  0  0  0
  -31.9169   -9.7875   20.1356 C   0  0  0  0  0  0  0  0  0  0  0  0
  -33.0717   -7.6975   20.8750 C   0  0  0  0  0  0  0  0  0  0  0  0
  -26.3721  -32.0120   21.7703 C   0  0  0  0  0  0  0  0  0  0  0  0
  -23.7343  -31.3242   23.5286 C   0  0  0  0  0  0  0  0  0  0  0  0
  -21.4765  -28.9876   24.5724 C   0  0  0  0  0  0  0  0  0  0  0  0
  -30.5093  -14.9640   19.9462 C   0  0  0  0  0  0  0  0  0  0  0  0
  -27.4989  -36.4987   23.9283 C   0  0  0  0  0  0  0  0  0  0  0  0
  -24.9274  -30.8360   20.0715 C   0  0  0  0  0  0  0  0  0  0  0  0
  -25.0362  -29.3584   22.6307 C   0  0  0  0  0  0  0  0  0  0  0  0
  -27.0957  -35.1154   24.4324 C   0  0  0  0  0  0  0  0  0  0  0  0
  -28.0776  -12.7493   18.7199 C   0  0  0  0  0  0  0  0  0  0  0  0
  -27.9474  -34.0368   23.7704 C   0  0  0  0  0  0  0  0  0  0  0  0
  -28.6225  -11.4043   19.1999 C   0  0  0  0  0  0  0  0  0  0  0  0
  -29.5754  -18.0484   18.1127 C   0  0  0  0  0  0  0  0  0  0  0  0
  -27.9693  -17.7176   20.0416 C   0  0  0  0  0  0  0  0  0  0  0  0
  -28.2430  -13.8441   19.7753 C   0  0  0  0  0  0  0  0  0  0  0  0
  -30.5901  -17.1665   18.8387 C   0  0  0  0  0  0  0  0  0  0  0  0
  -29.0215  -16.8471   20.7246 C   0  0  0  0  0  0  0  0  0  0  0  0
  -30.1725  -12.6473   20.7557 C   0  0  0  0  0  0  0  0  0  0  0  0
  -27.7456  -34.0303   22.2503 C   0  0  1  0  0  0  0  0  0  0  0  0
  -24.9847  -31.5583   21.4140 C   0  0  1  0  0  0  0  0  0  0  0  0
  -30.0736  -11.5406   19.6942 C   0  0  1  0  0  0  0  0  0  0  0  0
  -28.5889  -18.7214   19.0677 C   0  0  0  0  0  0  0  0  0  0  0  0
  -25.5519  -22.9603   20.0682 C   0  0  0  0  0  0  0  0  0  0  0  0
  -31.8813  -21.7007   19.9747 C   0  0  0  0  0  0  0  0  0  0  0  0
  -19.4564  -28.7165   26.0363 C   0  0  0  0  0  0  0  0  0  0  0  0
  -25.5218  -31.3774   26.0009 C   0  0  0  0  0  0  0  0  0  0  0  0
  -23.7057  -30.1938   27.2537 C   0  0  0  0  0  0  0  0  0  0  0  0
  -23.2892  -32.4627   26.3042 C   0  0  0  0  0  0  0  0  0  0  0  0
  -19.7861  -28.1669   22.2859 C   0  0  0  0  0  0  0  0  0  0  0  0
  -30.9807  -21.7805   18.7457 C   0  0  0  0  0  0  0  0  0  0  0  0
  -27.3845  -24.9800   18.9990 C   0  0  0  0  0  0  0  0  0  1  0  0
  -23.4521  -30.4780   24.7465 C   0  0  1  0  0  0  0  0  0  0  0  0
  -19.9597  -29.0084   24.6312 C   0  0  2  0  0  0  0  0  0  0  0  0
  -24.0031  -31.1167   26.0526 C   0  0  0  0  0  0  0  0  0  0  0  0
  -29.7863   -9.3439   20.7773 N   0  0  0  0  0  0  0  0  0  0  0  0
  -29.1296  -23.3195   18.9049 N   0  0  0  0  0  0  0  0  0  0  0  0
  -30.6248  -10.2199   20.1978 N   0  0  0  0  0  0  0  0  0  0  0  0
  -24.5088  -30.7287   22.5229 N   0  0  0  0  0  0  0  0  0  0  0  0
  -29.6336  -13.9092   20.2442 N   0  0  0  0  0  0  0  0  0  0  0  0
  -29.9342  -16.2313   19.7520 N   0  0  0  0  0  0  0  0  0  0  0  0
  -32.8896  -10.5439   19.5842 N   0  0  0  0  0  0  0  0  0  0  0  0
  -32.9024   -6.4502   21.4913 N   0  0  0  0  0  0  0  0  0  0  0  0
  -26.4981  -33.3811   21.9088 N   0  0  0  0  0  0  0  0  0  0  0  0
  -22.0120  -30.2448   24.7567 N   0  0  0  0  0  0  0  0  0  0  0  0
  -19.3915  -27.9869   23.7068 N   0  3  0  0  0  0  0  0  0  0  0  0
  -34.2163   -8.0456   20.4978 O   0  0  0  0  0  0  0  0  0  0  0  0
  -27.2620  -31.1813   21.9106 O   0  0  0  0  0  0  0  0  0  0  0  0
  -23.2783  -32.4687   23.4686 O   0  0  0  0  0  0  0  0  0  0  0  0
  -22.1219  -27.9585   24.3856 O   0  0  0  0  0  0  0  0  0  0  0  0
  -31.7305  -14.7866   19.8551 O   0  0  0  0  0  0  0  0  0  0  0  0
  -28.4929   -3.7974   23.6254 O   0  0  0  0  0  0  0  0  0  0  0  0
  -29.2402  -19.7649   19.7888 O   0  0  0  0  0  0  0  0  0  0  0  0
  -26.9506  -25.5367   20.2329 O   0  0  0  0  0  0  0  0  0  1  0  0
  -25.0204   -4.5985   27.8331 F   0  0  0  0  0  0  0  0  0  0  0  0
  -29.0738   -2.8275   26.1482 F   0  0  0  0  0  0  0  0  0  0  0  0
  1  2  1  0  0  0  0
  1  5  2  0  0  0  0
  2  6  2  0  0  0  0
  3  8  2  0  0  0  0
  3 16  1  0  0  0  0
  4  9  1  0  0  0  0
  4 16  2  0  0  0  0
  5 18  1  0  0  0  0
  6 20  1  0  0  0  0
  7 10  2  0  0  0  0
  7 19  1  0  0  0  0
  8 23  1  0  0  0  0
  9 23  2  0  0  0  0
 10 24  1  0  0  0  0
 11 12  2  0  0  0  0
 11 25  1  0  0  0  0
 12 27  1  0  0  0  0
 13 21  1  0  0  0  0
 13 24  2  0  0  0  0
 14 22  2  0  0  0  0
 14 26  1  0  0  0  0
 15 27  2  0  0  0  0
 15 28  1  0  0  0  0
 16 29  1  0  0  0  0
 17 29  1  0  0  0  0
 17 32  2  0  0  0  0
 17 33  1  0  0  0  0
 18 20  2  0  0  0  0
 18 38  1  0  0  0  0
 19 21  2  0  0  0  0
 19 39  1  0  0  0  0
 20 51  1  0  0  0  0
 21 40  1  0  0  0  0
 22 30  1  0  0  0  0
 22 55  1  0  0  0  0
 23 83  1  0  0  0  0
 24 85  1  0  0  0  0
 25 28  2  0  0  0  0
 25 83  1  0  0  0  0
 26 31  2  0  0  0  0
 26 84  1  0  0  0  0
 27 86  1  0  0  0  0
 28 87  1  0  0  0  0
 29 67  2  0  0  0  0
 30 63  1  0  0  0  0
 30 68  2  0  0  0  0
 31 62  1  0  0  0  0
 31 68  1  0  0  0  0
 32 69  1  0  0  0  0
 32 73  1  0  0  0  0
 33 74  1  0  0  0  0
 33 78  2  0  0  0  0
 34 52  1  0  0  0  0
 34 75  1  0  0  0  0
 34 79  2  0  0  0  0
 35 64  1  0  0  0  0
 35 70  1  0  0  0  0
 35 80  2  0  0  0  0
 36 65  1  0  0  0  0
 36 76  1  0  0  0  0
 36 81  2  0  0  0  0
 37 71  1  0  0  0  0
 37 72  1  0  0  0  0
 37 82  2  0  0  0  0
 38 41  1  0  0  0  0
 39 52  1  0  0  0  0
 40 70  1  0  0  0  0
 41 43  1  0  0  0  0
 42 44  1  0  0  0  0
 42 47  1  0  0  0  0
 43 51  1  0  0  0  0
 44 53  1  0  0  0  0
 45 48  1  0  0  0  0
 45 54  1  0  0  0  0
 46 49  1  0  0  0  0
 46 54  1  0  0  0  0
 47 71  1  0  0  0  0
 48 72  1  0  0  0  0
 49 72  1  0  0  0  0
 50 53  1  0  0  0  0
 50 71  1  0  0  0  0
 51 75  1  0  0  0  0
 52 70  1  0  0  0  0
 53 69  1  0  0  0  0
 54 84  1  0  0  0  0
 56 62  1  0  0  0  0
 57 65  1  0  0  0  0
 58 66  1  0  0  0  0
 59 66  1  0  0  0  0
 60 66  1  0  0  0  0
 61 77  1  0  0  0  0
 63 85  1  0  0  0  0
 64 66  1  0  0  0  0
 64 76  1  0  0  0  0
 65 77  1  0  0  0  0
 67 69  1  0  0  0  0
M  CHG  1  77   1
M  ISO  4  37 100  63 101  72 100  85 101
M  END
> <Batch ID>
0173

> <Smiles>
CCc1nc([101CH2:1][101O:1]c2ccc3c(c2)CN(C(=O)C(NC(=O)C(C)NC)C(C)(C)C)C(C(=O)NC2CCCc4ccccc42)C3)c(C)cc1OC1CC[100N:0]([100C:0](=O)N2CCCC(n3nc(-c4ccc(Oc5ccc(F)cc5F)cc4)c(C(N)=O)c3N)C2)CC1

> <Shape>
0.226

> <Color>
0.118

> <Negative vol penalty>
0.000

$$$$

  -OEChem-04052322423D

 89 98  0     1  0  0  0  0  0999 V2000
  -14.0184  -16.8496    7.3420 C   0  0  0  0  0  0  0  0  0  0  0  0
  -15.2591  -16.8185    7.9705 C   0  0  0  0  0  0  0  0  0  0  0  0
  -23.2017   -9.8117   19.9248 C   0  0  0  0  0  0  0  0  0  0  0  0
  -23.5268  -10.0055   22.3110 C   0  0  0  0  0  0  0  0  0  0  0  0
  -13.5653  -18.0300    6.7543 C   0  0  0  0  0  0  0  0  0  0  0  0
  -16.0480  -17.9675    8.0107 C   0  0  0  0  0  0  0  0  0  0  0  0
  -18.0687  -18.7777   12.5830 C   0  0  0  0  0  0  0  0  0  0  0  0
  -22.4269   -8.6689   20.1232 C   0  0  0  0  0  0  0  0  0  0  0  0
  -22.7519   -8.8627   22.5094 C   0  0  0  0  0  0  0  0  0  0  0  0
  -19.1796  -18.0114   12.9330 C   0  0  0  0  0  0  0  0  0  0  0  0
  -21.1585   -5.7912   23.6215 C   0  0  0  0  0  0  0  0  0  0  0  0
  -21.6315   -4.8352   24.5203 C   0  0  0  0  0  0  0  0  0  0  0  0
  -20.6239  -19.8613   12.3750 C   0  0  0  0  0  0  0  0  0  0  0  0
  -22.9241  -15.6744   15.3339 C   0  0  0  0  0  0  0  0  0  0  0  0
  -23.6201   -4.5560   23.1769 C   0  0  0  0  0  0  0  0  0  0  0  0
  -23.7517  -10.4799   21.0188 C   0  0  0  0  0  0  0  0  0  0  0  0
  -24.1047  -12.9939   20.7674 C   0  0  0  0  0  0  0  0  0  0  0  0
  -14.3449  -19.1966    6.7958 C   0  0  0  0  0  0  0  0  0  0  0  0
  -18.2280  -20.0900   12.1152 C   0  0  0  0  0  0  0  0  0  0  0  0
  -15.6056  -19.1643    7.4219 C   0  0  0  0  0  0  0  0  0  0  0  0
  -19.5132  -20.6430   12.0221 C   0  0  0  0  0  0  0  0  0  0  0  0
  -24.1280  -15.0703   15.6960 C   0  0  0  0  0  0  0  0  0  0  0  0
  -22.5986  -15.8283   13.9863 C   0  0  0  0  0  0  0  0  0  0  0  0
  -23.4771  -15.3782   13.0008 C   0  0  0  0  0  0  0  0  0  0  0  0
  -24.6811  -14.7741   13.3629 C   0  0  0  0  0  0  0  0  0  0  0  0
  -25.0066  -14.6201   14.7105 C   0  0  0  0  0  0  0  0  0  0  0  0
  -22.2020   -8.1945   21.4154 C   0  0  0  0  0  0  0  0  0  0  0  0
  -20.4576  -18.5522   12.8263 C   0  0  0  0  0  0  0  0  0  0  0  0
  -21.9163   -6.1296   22.5003 C   0  0  0  0  0  0  0  0  0  0  0  0
  -22.8622   -4.2176   24.2981 C   0  0  0  0  0  0  0  0  0  0  0  0
  -23.1471   -5.5120   22.2781 C   0  0  0  0  0  0  0  0  0  0  0  0
  -24.5527  -11.6601   20.8145 C   0  0  0  0  0  0  0  0  0  0  0  0
  -25.2435  -13.7312   20.5533 C   0  0  0  0  0  0  0  0  0  0  0  0
  -22.7778  -13.5193   20.9051 C   0  0  0  0  0  0  0  0  0  0  0  0
  -17.5529  -21.6017    9.4018 C   0  0  0  0  0  0  0  0  0  0  0  0
  -18.5173  -24.2110   11.0703 C   0  0  0  0  0  0  0  0  0  0  0  0
  -20.3552  -25.4850   13.6482 C   0  0  0  0  0  0  0  0  0  0  0  0
  -30.0535  -14.6211   18.0579 C   0  0  0  0  0  0  0  0  0  0  0  0
  -13.8337  -20.4362    6.1053 C   0  0  0  0  0  0  0  0  0  0  0  0
  -17.0178  -20.9126   11.7671 C   0  0  0  0  0  0  0  0  0  0  0  0
  -19.7368  -22.0539   11.5448 C   0  0  0  0  0  0  0  0  0  0  0  0
  -14.5670  -21.7098    6.5183 C   0  0  0  0  0  0  0  0  0  0  0  0
  -30.1157  -12.4188   20.7400 C   0  0  0  0  0  0  0  0  0  0  0  0
  -16.0757  -21.4850    6.5059 C   0  0  0  0  0  0  0  0  0  0  0  0
  -28.6399  -12.1215   21.0030 C   0  0  0  0  0  0  0  0  0  0  0  0
  -30.4016  -12.4761   19.2440 C   0  0  0  0  0  0  0  0  0  0  0  0
  -28.0834  -13.1902   18.7625 C   0  0  0  0  0  0  0  0  0  0  0  0
  -29.9794  -16.4042   16.3551 C   0  0  0  0  0  0  0  0  0  0  0  0
  -29.5278  -14.0177   14.7484 C   0  0  0  0  0  0  0  0  0  0  0  0
  -16.4796  -20.3967    7.5079 C   0  0  1  0  0  0  0  0  0  0  0  0
  -17.3307  -22.0624   10.8145 C   0  0  1  0  0  0  0  0  0  0  0  0
  -27.7365  -13.1238   20.2636 C   0  0  1  0  0  0  0  0  0  0  0  0
  -28.6474  -14.3406   15.9642 C   0  0  2  0  0  0  0  0  0  0  0  0
  -30.8760  -16.1027   15.1546 C   0  0  2  0  0  0  0  0  0  0  0  0
  -24.4528  -14.9181   17.1461 C   0  0  0  0  0  0  0  0  0  0  0  0
  -23.1258  -15.5453   11.5562 C   0  0  0  0  0  0  0  0  0  0  0  0
  -25.6233  -14.2906   12.3058 C   0  0  0  0  0  0  0  0  0  0  0  0
  -31.3400  -17.3708   14.4538 C   0  0  0  0  0  0  0  0  0  0  0  0
  -20.9767  -27.6578   14.7391 C   0  0  0  0  0  0  0  0  0  0  0  0
  -20.4524  -24.8013    8.7862 C   0  0  0  0  0  0  0  0  0  0  0  0
  -21.6706  -26.3654   10.3153 C   0  0  0  0  0  0  0  0  0  0  0  0
  -19.2908  -26.8118    9.7154 C   0  0  0  0  0  0  0  0  0  0  0  0
  -19.1302  -24.6783   16.2187 C   0  0  0  0  0  0  0  0  0  0  0  0
  -26.3073  -13.9672   15.1047 C   0  0  0  0  0  0  0  0  0  0  0  0
  -21.3027  -16.4777   13.6253 C   0  0  0  0  0  0  0  0  0  1  0  0
  -27.3309  -15.0071   15.5509 C   0  0  0  0  0  0  0  0  0  0  0  0
  -19.8363  -24.9113   11.2911 C   0  0  1  0  0  0  0  0  0  0  0  0
  -20.0072  -26.4861   14.7350 C   0  0  2  0  0  0  0  0  0  0  0  0
  -20.3088  -25.6952   10.0342 C   0  0  0  0  0  0  0  0  0  0  0  0
  -25.8731  -11.5534   20.6438 N   0  0  0  0  0  0  0  0  0  0  0  0
  -26.2646  -12.8294   20.4873 N   0  0  0  0  0  0  0  0  0  0  0  0
  -18.5223  -22.8159   11.2103 N   0  0  0  0  0  0  0  0  0  0  0  0
  -29.5198  -13.4306   18.5718 N   0  0  0  0  0  0  0  0  0  0  0  0
  -29.4277  -15.1664   16.9172 N   0  0  0  0  0  0  0  0  0  0  0  0
  -25.4611  -15.0565   20.4167 N   0  0  0  0  0  0  0  0  0  0  0  0
  -21.7230  -12.6221   21.1209 N   0  0  0  0  0  0  0  0  0  0  0  0
  -16.4792  -20.9250    8.8552 N   0  0  0  0  0  0  0  0  0  0  0  0
  -19.6655  -25.7376   12.4813 N   0  0  0  0  0  0  0  0  0  0  0  0
  -30.0972  -15.2759   14.1700 N   0  3  0  0  0  0  0  0  0  0  0  0
  -20.0528  -25.8337   16.0741 N   0  3  0  0  0  0  0  0  0  0  0  0
  -22.5326  -14.7467   20.8223 O   0  0  0  0  0  0  0  0  0  0  0  0
  -18.6190  -21.8435    8.8480 O   0  0  0  0  0  0  0  0  0  0  0  0
  -17.5178  -24.8778   10.7910 O   0  0  0  0  0  0  0  0  0  0  0  0
  -21.1612  -24.5725   13.8164 O   0  0  0  0  0  0  0  0  0  0  0  0
  -31.0384  -15.1614   18.5775 O   0  0  0  0  0  0  0  0  0  0  0  0
  -21.4457   -7.0795   21.6093 O   0  0  0  0  0  0  0  0  0  0  0  0
  -21.5515  -17.8009   13.1691 O   0  0  0  0  0  0  0  0  0  1  0  0
  -23.3170   -3.3006   25.1621 F   0  0  0  0  0  0  0  0  0  0  0  0
  -23.8801   -5.8338   21.2034 F   0  0  0  0  0  0  0  0  0  0  0  0
  1  2  1  0  0  0  0
  1  5  2  0  0  0  0
  2  6  2  0  0  0  0
  3  8  2  0  0  0  0
  3 16  1  0  0  0  0
  4  9  1  0  0  0  0
  4 16  2  0  0  0  0
  5 18  1  0  0  0  0
  6 20  1  0  0  0  0
  7 10  2  0  0  0  0
  7 19  1  0  0  0  0
  8 27  1  0  0  0  0
  9 27  2  0  0  0  0
 10 28  1  0  0  0  0
 11 12  2  0  0  0  0
 11 29  1  0  0  0  0
 12 30  1  0  0  0  0
 13 21  1  0  0  0  0
 13 28  2  0  0  0  0
 14 22  2  0  0  0  0
 14 23  1  0  0  0  0
 15 30  2  0  0  0  0
 15 31  1  0  0  0  0
 16 32  1  0  0  0  0
 17 32  1  0  0  0  0
 17 33  2  0  0  0  0
 17 34  1  0  0  0  0
 18 20  2  0  0  0  0
 18 39  1  0  0  0  0
 19 21  2  0  0  0  0
 19 40  1  0  0  0  0
 20 50  1  0  0  0  0
 21 41  1  0  0  0  0
 22 26  1  0  0  0  0
 22 55  1  0  0  0  0
 23 24  2  0  0  0  0
 23 65  1  0  0  0  0
 24 25  1  0  0  0  0
 24 56  1  0  0  0  0
 25 26  2  0  0  0  0
 25 57  1  0  0  0  0
 26 64  1  0  0  0  0
 27 86  1  0  0  0  0
 28 87  1  0  0  0  0
 29 31  2  0  0  0  0
 29 86  1  0  0  0  0
 30 88  1  0  0  0  0
 31 89  1  0  0  0  0
 32 70  2  0  0  0  0
 33 71  1  0  0  0  0
 33 75  1  0  0  0  0
 34 76  1  0  0  0  0
 34 81  2  0  0  0  0
 35 51  1  0  0  0  0
 35 77  1  0  0  0  0
 35 82  2  0  0  0  0
 36 67  1  0  0  0  0
 36 72  1  0  0  0  0
 36 83  2  0  0  0  0
 37 68  1  0  0  0  0
 37 78  1  0  0  0  0
 37 84  2  0  0  0  0
 38 73  1  0  0  0  0
 38 74  1  0  0  0  0
 38 85  2  0  0  0  0
 39 42  1  0  0  0  0
 40 51  1  0  0  0  0
 41 72  1  0  0  0  0
 42 44  1  0  0  0  0
 43 45  1  0  0  0  0
 43 46  1  0  0  0  0
 44 50  1  0  0  0  0
 45 52  1  0  0  0  0
 46 73  1  0  0  0  0
 47 52  1  0  0  0  0
 47 73  1  0  0  0  0
 48 54  1  0  0  0  0
 48 74  1  0  0  0  0
 49 53  1  0  0  0  0
 49 79  1  0  0  0  0
 50 77  1  0  0  0  0
 51 72  1  0  0  0  0
 52 71  1  0  0  0  0
 53 66  1  0  0  0  0
 53 74  1  0  0  0  0
 54 58  1  0  0  0  0
 54 79  1  0  0  0  0
 59 68  1  0  0  0  0
 60 69  1  0  0  0  0
 61 69  1  0  0  0  0
 62 69  1  0  0  0  0
 63 80  1  0  0  0  0
 64 66  1  0  0  0  0
 65 87  1  0  0  0  0
 67 69  1  0  0  0  0
 67 78  1  0  0  0  0
 68 80  1  0  0  0  0
 70 71  1  0  0  0  0
M  CHG  2  79   1  80   1
M  ISO  4  38 100  65 101  74 100  87 101
M  END
> <Batch ID>
0173

> <Smiles>
CNC(C)C(=O)NC(C(=O)N1Cc2cc([101O:1][101CH2:1]c3cc(C)c(CCC4CNC(C)C[100N:0]4[100C:0](=O)N4CCCC(n5nc(-c6ccc(Oc7ccc(F)cc7F)cc6)c(C(N)=O)c5N)C4)c(C)c3C)ccc2CC1C(=O)NC1CCCc2ccccc21)C(C)(C)C

> <Shape>
0.136

> <Color>
0.183

> <Negative vol penalty>
0.000

$$$$

  -OEChem-04052322423D

 90 99  0     1  0  0  0  0  0999 V2000
  -18.3216  -29.2321   22.5506 C   0  0  0  0  0  0  0  0  0  0  0  0
  -19.5947  -28.6849   22.4282 C   0  0  0  0  0  0  0  0  0  0  0  0
  -27.3211  -12.9029   21.4502 C   0  0  0  0  0  0  0  0  0  0  0  0
  -27.0717  -13.9977   19.3110 C   0  0  0  0  0  0  0  0  0  0  0  0
  -17.3456  -28.5652   23.2901 C   0  0  0  0  0  0  0  0  0  0  0  0
  -19.8931  -27.4710   23.0461 C   0  0  0  0  0  0  0  0  0  0  0  0
  -22.4566  -24.3266   20.0153 C   0  0  0  0  0  0  0  0  0  0  0  0
  -26.4924  -11.8679   21.0172 C   0  0  0  0  0  0  0  0  0  0  0  0
  -26.2429  -12.9626   18.8779 C   0  0  0  0  0  0  0  0  0  0  0  0
  -23.8196  -24.5700   19.8517 C   0  0  0  0  0  0  0  0  0  0  0  0
  -24.1518   -9.1164   20.5993 C   0  0  0  0  0  0  0  0  0  0  0  0
  -23.1603   -8.6690   21.4724 C   0  0  0  0  0  0  0  0  0  0  0  0
  -24.3154  -22.8363   21.4541 C   0  0  0  0  0  0  0  0  0  0  0  0
  -22.1854  -10.8794   21.4979 C   0  0  0  0  0  0  0  0  0  0  0  0
  -27.6107  -13.9679   20.5971 C   0  0  0  0  0  0  0  0  0  0  0  0
  -29.8665  -15.1147   20.9200 C   0  0  0  0  0  0  0  0  0  0  0  0
  -17.6293  -27.3378   23.9094 C   0  0  0  0  0  0  0  0  0  0  0  0
  -22.0117  -23.3419   20.9091 C   0  0  0  0  0  0  0  0  0  0  0  0
  -18.9204  -26.7877   23.7957 C   0  0  0  0  0  0  0  0  0  0  0  0
  -22.9463  -22.5806   21.6253 C   0  0  0  0  0  0  0  0  0  0  0  0
  -28.7008  -24.0826   19.0536 C   0  0  0  0  0  0  0  0  0  0  0  0
  -25.9533  -11.8977   19.7311 C   0  0  0  0  0  0  0  0  0  0  0  0
  -24.7491  -23.8268   20.5733 C   0  0  0  0  0  0  0  0  0  0  0  0
  -24.1602  -10.4453   20.1756 C   0  0  0  0  0  0  0  0  0  0  0  0
  -22.1771   -9.5505   21.9217 C   0  0  0  0  0  0  0  0  0  0  0  0
  -23.1770  -11.3268   20.6249 C   0  0  0  0  0  0  0  0  0  0  0  0
  -28.4663  -15.0376   21.0440 C   0  0  0  0  0  0  0  0  0  0  0  0
  -27.9507  -25.1741   19.4411 C   0  0  0  0  0  0  0  0  0  0  0  0
  -30.0676  -24.2720   19.0396 C   0  0  0  0  0  0  0  0  0  0  0  0
  -30.1966  -16.3171   21.4959 C   0  0  0  0  0  0  0  0  0  0  0  0
  -29.8274  -26.4224   19.7361 C   0  0  0  0  0  0  0  0  0  0  0  0
  -30.7864  -14.1827   20.3362 C   0  0  0  0  0  0  0  0  0  0  0  0
  -20.2307  -23.3422   23.5420 C   0  0  0  0  0  0  0  0  0  0  0  0
  -20.5205  -20.1229   23.2696 C   0  0  0  0  0  0  0  0  0  0  0  0
  -22.3731  -17.1095   22.5590 C   0  0  0  0  0  0  0  0  0  0  0  0
  -29.2788  -21.7713   22.2409 C   0  0  0  0  0  0  0  0  0  0  0  0
  -16.5558  -26.6773   24.7377 C   0  0  0  0  0  0  0  0  0  0  0  0
  -20.5388  -23.0733   21.0542 C   0  0  0  0  0  0  0  0  0  0  0  0
  -22.5209  -21.4982   22.5824 C   0  0  0  0  0  0  0  0  0  0  0  0
  -16.8429  -25.2109   25.0496 C   0  0  0  0  0  0  0  0  0  0  0  0
  -27.4232  -19.5100   24.2708 C   0  0  0  0  0  0  0  0  0  0  0  0
  -18.2833  -25.0374   25.5209 C   0  0  0  0  0  0  0  0  0  0  0  0
  -33.1304  -23.6767   19.9284 C   0  0  0  0  0  0  0  0  0  0  0  0
  -33.4961  -23.6599   21.4163 C   0  0  0  0  0  0  0  0  0  0  0  0
  -27.6396  -18.1531   23.5985 C   0  0  0  0  0  0  0  0  0  0  0  0
  -27.3190  -20.6373   23.2459 C   0  0  0  0  0  0  0  0  0  0  0  0
  -28.6588  -19.3572   21.6211 C   0  0  0  0  0  0  0  0  0  0  0  0
  -19.2752  -25.4607   24.4307 C   0  0  1  0  0  0  0  0  0  0  0  0
  -20.1820  -22.3975   22.3746 C   0  0  1  0  0  0  0  0  0  0  0  0
  -31.9279  -22.7380   19.7743 C   0  0  1  0  0  0  0  0  0  0  0  0
  -32.4947  -22.7146   22.0903 C   0  0  2  0  0  0  0  0  0  0  0  0
  -28.8260  -18.1965   22.6168 C   0  0  2  0  0  0  0  0  0  0  0  0
  -31.2792  -22.7662   21.1604 C   0  0  2  0  0  0  0  0  0  0  0  0
  -28.0763  -22.7859   18.6773 C   0  0  0  0  0  0  0  0  0  0  0  0
  -30.4532  -27.7209   20.1178 C   0  0  0  0  0  0  0  0  0  0  0  0
  -31.7973  -23.5021   17.3755 C   0  0  0  0  0  0  0  0  0  0  0  0
  -21.6402  -14.7096   22.5416 C   0  0  0  0  0  0  0  0  0  0  0  0
  -33.4485  -23.0639   24.3864 C   0  0  0  0  0  0  0  0  0  0  0  0
  -31.5522  -24.4999   23.5828 C   0  0  0  0  0  0  0  0  0  0  0  0
  -21.5297  -20.0957   26.1490 C   0  0  0  0  0  0  0  0  0  0  0  0
  -22.4009  -17.7830   25.7483 C   0  0  0  0  0  0  0  0  0  0  0  0
  -19.9544  -18.2391   25.5781 C   0  0  0  0  0  0  0  0  0  0  0  0
  -23.3194  -16.7197   19.7820 C   0  0  0  0  0  0  0  0  0  0  0  0
  -26.4537  -25.0867   19.4949 C   0  0  0  0  0  0  0  0  0  1  0  0
  -30.9814  -23.1620   18.6362 C   0  0  2  0  0  0  0  0  0  0  0  0
  -21.5028  -19.0917   23.7705 C   0  0  1  0  0  0  0  0  0  0  0  0
  -21.9180  -15.9445   21.6987 C   0  0  2  0  0  0  0  0  0  0  0  0
  -32.1849  -23.1089   23.5262 C   0  0  0  0  0  0  0  0  0  0  0  0
  -21.3552  -18.8240   25.2950 C   0  0  0  0  0  0  0  0  0  0  0  0
  -27.9429  -16.1060   21.6513 N   0  0  0  0  0  0  0  0  0  0  0  0
  -28.4831  -26.3636   19.7903 N   0  0  0  0  0  0  0  0  0  0  0  0
  -30.6670  -25.4330   19.3759 N   0  0  0  0  0  0  0  0  0  0  0  0
  -29.0199  -16.8657   21.9139 N   0  0  0  0  0  0  0  0  0  0  0  0
  -21.0696  -21.2776   22.6943 N   0  0  0  0  0  0  0  0  0  0  0  0
  -28.4753  -20.6240   22.3466 N   0  0  0  0  0  0  0  0  0  0  0  0
  -31.3756  -16.9481   21.6805 N   0  0  0  0  0  0  0  0  0  0  0  0
  -30.2788  -12.9964   19.7892 N   0  0  0  0  0  0  0  0  0  0  0  0
  -19.3869  -24.4298   23.4211 N   0  0  0  0  0  0  0  0  0  0  0  0
  -21.3155  -17.9101   22.9355 N   0  0  0  0  0  0  0  0  0  0  0  0
  -30.3580  -21.6719   21.3713 N   0  0  0  0  0  0  0  0  0  0  0  0
  -22.9645  -15.6023   20.6944 N   0  3  0  0  0  0  0  0  0  0  0  0
  -32.0237  -14.3881   20.3155 O   0  0  0  0  0  0  0  0  0  0  0  0
  -20.9774  -23.1014   24.4833 O   0  0  0  0  0  0  0  0  0  0  0  0
  -19.3106  -19.9084   23.3781 O   0  0  0  0  0  0  0  0  0  0  0  0
  -23.5487  -17.2891   22.8692 O   0  0  0  0  0  0  0  0  0  0  0  0
  -29.0544  -22.8056   22.8787 O   0  0  0  0  0  0  0  0  0  0  0  0
  -25.1448  -10.8878   19.3081 O   0  0  0  0  0  0  0  0  0  0  0  0
  -26.0801  -24.0628   20.4160 O   0  0  0  0  0  0  0  0  0  1  0  0
  -21.2241   -9.1203   22.7589 F   0  0  0  0  0  0  0  0  0  0  0  0
  -23.1791  -12.6044   20.2203 F   0  0  0  0  0  0  0  0  0  0  0  0
  1  2  1  0  0  0  0
  1  5  2  0  0  0  0
  2  6  2  0  0  0  0
  3  8  2  0  0  0  0
  3 15  1  0  0  0  0
  4  9  1  0  0  0  0
  4 15  2  0  0  0  0
  5 17  1  0  0  0  0
  6 19  1  0  0  0  0
  7 10  2  0  0  0  0
  7 18  1  0  0  0  0
  8 22  1  0  0  0  0
  9 22  2  0  0  0  0
 10 23  1  0  0  0  0
 11 12  2  0  0  0  0
 11 24  1  0  0  0  0
 12 25  1  0  0  0  0
 13 20  1  0  0  0  0
 13 23  2  0  0  0  0
 14 25  2  0  0  0  0
 14 26  1  0  0  0  0
 15 27  1  0  0  0  0
 16 27  1  0  0  0  0
 16 30  2  0  0  0  0
 16 32  1  0  0  0  0
 17 19  2  0  0  0  0
 17 37  1  0  0  0  0
 18 20  2  0  0  0  0
 18 38  1  0  0  0  0
 19 48  1  0  0  0  0
 20 39  1  0  0  0  0
 21 28  2  0  0  0  0
 21 29  1  0  0  0  0
 21 54  1  0  0  0  0
 22 87  1  0  0  0  0
 23 88  1  0  0  0  0
 24 26  2  0  0  0  0
 24 87  1  0  0  0  0
 25 89  1  0  0  0  0
 26 90  1  0  0  0  0
 27 70  2  0  0  0  0
 28 64  1  0  0  0  0
 28 71  1  0  0  0  0
 29 65  1  0  0  0  0
 29 72  2  0  0  0  0
 30 73  1  0  0  0  0
 30 76  1  0  0  0  0
 31 55  1  0  0  0  0
 31 71  2  0  0  0  0
 31 72  1  0  0  0  0
 32 77  1  0  0  0  0
 32 82  2  0  0  0  0
 33 49  1  0  0  0  0
 33 78  1  0  0  0  0
 33 83  2  0  0  0  0
 34 66  1  0  0  0  0
 34 74  1  0  0  0  0
 34 84  2  0  0  0  0
 35 67  1  0  0  0  0
 35 79  1  0  0  0  0
 35 85  2  0  0  0  0
 36 75  1  0  0  0  0
 36 80  1  0  0  0  0
 36 86  2  0  0  0  0
 37 40  1  0  0  0  0
 38 49  1  0  0  0  0
 39 74  1  0  0  0  0
 40 42  1  0  0  0  0
 41 45  1  0  0  0  0
 41 46  1  0  0  0  0
 42 48  1  0  0  0  0
 43 44  1  0  0  0  0
 43 50  1  0  0  0  0
 44 51  1  0  0  0  0
 45 52  1  0  0  0  0
 46 75  1  0  0  0  0
 47 52  1  0  0  0  0
 47 75  1  0  0  0  0
 48 78  1  0  0  0  0
 49 74  1  0  0  0  0
 50 53  1  0  0  0  0
 50 65  1  0  0  0  0
 51 53  1  0  0  0  0
 51 68  1  0  0  0  0
 52 73  1  0  0  0  0
 53 80  1  0  0  0  0
 56 65  1  0  0  0  0
 57 67  1  0  0  0  0
 58 68  1  0  0  0  0
 59 68  1  0  0  0  0
 60 69  1  0  0  0  0
 61 69  1  0  0  0  0
 62 69  1  0  0  0  0
 63 81  1  0  0  0  0
 64 88  1  0  0  0  0
 66 69  1  0  0  0  0
 66 79  1  0  0  0  0
 67 81  1  0  0  0  0
 70 73  1  0  0  0  0
M  CHG  1  81   1
M  ISO  4  36 100  64 101  80 100  88 101
M  END
> <Batch ID>
0173

> <Smiles>
CNC(C)C(=O)NC(C(=O)N1Cc2cc([101O:1][101CH2:1]c3nc(C)nc(C(C)C4CCC(C(C)C)C4[100NH:0][100C:0](=O)N4CCCC(n5nc(-c6ccc(Oc7ccc(F)cc7F)cc6)c(C(N)=O)c5N)C4)c3C)ccc2CC1C(=O)NC1CCCc2ccccc21)C(C)(C)C

> <Shape>
0.199

> <Color>
0.067

> <Negative vol penalty>
0.000

$$$$

  -OEChem-04052322423D

 82 91  0     1  0  0  0  0  0999 V2000
  -28.5148   -6.4621   33.5983 C   0  0  0  0  0  0  0  0  0  0  0  0
  -28.8260   -7.3262   32.5533 C   0  0  0  0  0  0  0  0  0  0  0  0
  -23.2844   -9.7978   19.9098 C   0  0  0  0  0  0  0  0  0  0  0  0
  -23.7190   -9.9400   22.2821 C   0  0  0  0  0  0  0  0  0  0  0  0
  -27.2524   -5.8739   33.6625 C   0  0  0  0  0  0  0  0  0  0  0  0
  -27.8752   -7.6017   31.5712 C   0  0  0  0  0  0  0  0  0  0  0  0
  -27.6165  -12.5325   30.4463 C   0  0  0  0  0  0  0  0  0  0  0  0
  -22.5521   -8.6284   20.1140 C   0  0  0  0  0  0  0  0  0  0  0  0
  -22.9866   -8.7706   22.4864 C   0  0  0  0  0  0  0  0  0  0  0  0
  -28.6115  -13.0496   29.6178 C   0  0  0  0  0  0  0  0  0  0  0  0
  -23.1891   -5.3523   20.6484 C   0  0  0  0  0  0  0  0  0  0  0  0
  -23.4196   -4.2844   19.7812 C   0  0  0  0  0  0  0  0  0  0  0  0
  -27.1052  -12.9201   27.7381 C   0  0  0  0  0  0  0  0  0  0  0  0
  -32.8284  -14.8413   25.8425 C   0  0  0  0  0  0  0  0  0  0  0  0
  -30.7029  -14.5361   24.7591 C   0  0  0  0  0  0  0  0  0  0  0  0
  -21.1024   -4.3383   19.0992 C   0  0  0  0  0  0  0  0  0  0  0  0
  -23.8680  -10.4536   20.9938 C   0  0  0  0  0  0  0  0  0  0  0  0
  -24.1386  -12.9823   20.7936 C   0  0  0  0  0  0  0  0  0  0  0  0
  -26.2823   -6.1498   32.6860 C   0  0  0  0  0  0  0  0  0  0  0  0
  -26.3598  -12.1945   29.9239 C   0  0  0  0  0  0  0  0  0  0  0  0
  -26.5990   -7.0155   31.6217 C   0  0  0  0  0  0  0  0  0  0  0  0
  -26.0951  -12.4013   28.5625 C   0  0  0  0  0  0  0  0  0  0  0  0
  -31.4448  -14.9789   25.8485 C   0  0  0  0  0  0  0  0  0  0  0  0
  -22.4031   -8.1148   21.4023 C   0  0  0  0  0  0  0  0  0  0  0  0
  -28.3569  -13.2408   28.2629 C   0  0  0  0  0  0  0  0  0  0  0  0
  -21.9153   -5.9132   20.7411 C   0  0  0  0  0  0  0  0  0  0  0  0
  -22.3762   -3.7774   19.0066 C   0  0  0  0  0  0  0  0  0  0  0  0
  -20.8720   -5.4062   19.9665 C   0  0  0  0  0  0  0  0  0  0  0  0
  -24.6251  -11.6613   20.7834 C   0  0  0  0  0  0  0  0  0  0  0  0
  -33.4174  -14.2589   24.7318 C   0  0  0  0  0  0  0  0  0  0  0  0
  -31.3871  -13.9674   23.6968 C   0  0  0  0  0  0  0  0  0  0  0  0
  -25.2449  -13.7575   20.5453 C   0  0  0  0  0  0  0  0  0  0  0  0
  -22.8059  -13.4654   21.0084 C   0  0  0  0  0  0  0  0  0  0  0  0
  -24.6812   -9.5063   29.6798 C   0  0  0  0  0  0  0  0  0  0  0  0
  -22.3770  -11.5045   28.5751 C   0  0  0  0  0  0  0  0  0  0  0  0
  -21.5840  -14.4806   27.1050 C   0  0  0  0  0  0  0  0  0  0  0  0
  -31.0959  -12.9217   21.4235 C   0  0  0  0  0  0  0  0  0  0  0  0
  -24.9474   -5.4533   32.7716 C   0  0  0  0  0  0  0  0  0  0  0  0
  -25.2885  -11.6628   30.8360 C   0  0  0  0  0  0  0  0  0  0  0  0
  -24.7559  -12.0735   27.9564 C   0  0  0  0  0  0  0  0  0  0  0  0
  -23.8709   -6.0898   31.8963 C   0  0  0  0  0  0  0  0  0  0  0  0
  -29.4870  -13.6281   18.3268 C   0  0  0  0  0  0  0  0  0  0  0  0
  -24.4154   -6.3694   30.4991 C   0  0  0  0  0  0  0  0  0  0  0  0
  -28.0125  -13.3299   18.6081 C   0  0  0  0  0  0  0  0  0  0  0  0
  -29.9424  -16.8549   26.7791 C   0  0  0  0  0  0  0  0  0  0  0  0
  -31.2533  -16.9524   27.4947 C   0  0  0  0  0  0  0  0  0  0  0  0
  -30.4113  -12.6503   19.0502 C   0  0  0  0  0  0  0  0  0  0  0  0
  -28.7043  -12.2312   20.7763 C   0  0  0  0  0  0  0  0  0  0  0  0
  -25.5861   -7.3585   30.5509 C   0  0  1  0  0  0  0  0  0  0  0  0
  -24.2133  -10.8718   30.0973 C   0  0  1  0  0  0  0  0  0  0  0  0
  -27.7364  -13.2300   20.1211 C   0  0  2  0  0  0  0  0  0  0  0  0
  -30.7599  -15.5982   27.0180 C   0  0  0  0  0  0  0  0  0  0  0  0
  -34.9000  -14.0946   24.6912 C   0  0  0  0  0  0  0  0  0  0  0  0
  -19.6199  -15.8160   26.2950 C   0  0  0  0  0  0  0  0  0  0  0  0
  -22.1697   -9.7055   26.1194 C   0  0  0  0  0  0  0  0  0  0  0  0
  -20.9378  -11.5501   24.9583 C   0  0  0  0  0  0  0  0  0  0  0  0
  -19.9762  -10.5098   27.0116 C   0  0  0  0  0  0  0  0  0  0  0  0
  -22.1617  -16.6895   28.9880 C   0  0  0  0  0  0  0  0  0  0  0  0
  -30.2708  -14.6354   28.0446 C   0  0  0  0  0  0  0  0  0  1  0  0
  -21.9823  -12.0345   27.2178 C   0  0  1  0  0  0  0  0  0  0  0  0
  -20.5546  -15.5376   27.4618 C   0  0  2  0  0  0  0  0  0  0  0  0
  -21.2924  -10.9544   26.3375 C   0  0  0  0  0  0  0  0  0  0  0  0
  -25.9382  -11.5972   20.5472 N   0  0  0  0  0  0  0  0  0  0  0  0
  -32.7299  -13.8168   23.6550 N   0  0  0  0  0  0  0  0  0  0  0  0
  -26.2861  -12.8876   20.4066 N   0  0  0  0  0  0  0  0  0  0  0  0
  -23.7430  -11.5503   28.8880 N   0  0  0  0  0  0  0  0  0  0  0  0
  -30.0943  -12.6116   20.4794 N   0  0  0  0  0  0  0  0  0  0  0  0
  -25.4188  -15.0916   20.4342 N   0  0  0  0  0  0  0  0  0  0  0  0
  -21.7879  -12.5327   21.2500 N   0  0  0  0  0  0  0  0  0  0  0  0
  -30.6226  -13.5195   22.5910 N   0  0  0  0  0  0  0  0  0  0  0  0
  -25.0988   -8.7095   30.7287 N   0  0  0  0  0  0  0  0  0  0  0  0
  -21.1641  -13.2171   27.4635 N   0  0  0  0  0  0  0  0  0  0  0  0
  -21.2296  -16.8120   27.8377 N   0  3  0  0  0  0  0  0  0  0  0  0
  -22.5230  -14.6869   20.9703 O   0  0  0  0  0  0  0  0  0  0  0  0
  -24.6632   -9.1979   28.4939 O   0  0  0  0  0  0  0  0  0  0  0  0
  -21.5046  -11.0727   29.3328 O   0  0  0  0  0  0  0  0  0  0  0  0
  -22.6521  -14.7484   26.5592 O   0  0  0  0  0  0  0  0  0  0  0  0
  -32.2889  -12.6999   21.2005 O   0  0  0  0  0  0  0  0  0  0  0  0
  -21.6883   -6.9738   21.6020 O   0  0  0  0  0  0  0  0  0  0  0  0
  -29.3265  -13.7447   27.4519 O   0  0  0  0  0  0  0  0  0  1  0  0
  -22.5980   -2.7529   18.1727 F   0  0  0  0  0  0  0  0  0  0  0  0
  -19.6464   -5.9416   20.0503 F   0  0  0  0  0  0  0  0  0  0  0  0
  1  2  1  0  0  0  0
  1  5  2  0  0  0  0
  2  6  2  0  0  0  0
  3  8  2  0  0  0  0
  3 17  1  0  0  0  0
  4  9  1  0  0  0  0
  4 17  2  0  0  0  0
  5 19  1  0  0  0  0
  6 21  1  0  0  0  0
  7 10  2  0  0  0  0
  7 20  1  0  0  0  0
  8 24  1  0  0  0  0
  9 24  2  0  0  0  0
 10 25  1  0  0  0  0
 11 12  2  0  0  0  0
 11 26  1  0  0  0  0
 12 27  1  0  0  0  0
 13 22  1  0  0  0  0
 13 25  2  0  0  0  0
 14 23  1  0  0  0  0
 14 30  2  0  0  0  0
 15 23  2  0  0  0  0
 15 31  1  0  0  0  0
 16 27  2  0  0  0  0
 16 28  1  0  0  0  0
 17 29  1  0  0  0  0
 18 29  1  0  0  0  0
 18 32  2  0  0  0  0
 18 33  1  0  0  0  0
 19 21  2  0  0  0  0
 19 38  1  0  0  0  0
 20 22  2  0  0  0  0
 20 39  1  0  0  0  0
 21 49  1  0  0  0  0
 22 40  1  0  0  0  0
 23 52  1  0  0  0  0
 24 79  1  0  0  0  0
 25 80  1  0  0  0  0
 26 28  2  0  0  0  0
 26 79  1  0  0  0  0
 27 81  1  0  0  0  0
 28 82  1  0  0  0  0
 29 63  2  0  0  0  0
 30 53  1  0  0  0  0
 30 64  1  0  0  0  0
 31 64  2  0  0  0  0
 31 70  1  0  0  0  0
 32 65  1  0  0  0  0
 32 68  1  0  0  0  0
 33 69  1  0  0  0  0
 33 74  2  0  0  0  0
 34 50  1  0  0  0  0
 34 71  1  0  0  0  0
 34 75  2  0  0  0  0
 35 60  1  0  0  0  0
 35 66  1  0  0  0  0
 35 76  2  0  0  0  0
 36 61  1  0  0  0  0
 36 72  1  0  0  0  0
 36 77  2  0  0  0  0
 37 67  1  0  0  0  0
 37 70  1  0  0  0  0
 37 78  2  0  0  0  0
 38 41  1  0  0  0  0
 39 50  1  0  0  0  0
 40 66  1  0  0  0  0
 41 43  1  0  0  0  0
 42 44  1  0  0  0  0
 42 47  1  0  0  0  0
 43 49  1  0  0  0  0
 44 51  1  0  0  0  0
 45 46  1  0  0  0  0
 45 52  1  0  0  0  0
 46 52  1  0  0  0  0
 47 67  1  0  0  0  0
 48 51  1  0  0  0  0
 48 67  1  0  0  0  0
 49 71  1  0  0  0  0
 50 66  1  0  0  0  0
 51 65  1  0  0  0  0
 52 59  1  0  0  0  0
 54 61  1  0  0  0  0
 55 62  1  0  0  0  0
 56 62  1  0  0  0  0
 57 62  1  0  0  0  0
 58 73  1  0  0  0  0
 59 80  1  0  0  0  0
 60 62  1  0  0  0  0
 60 72  1  0  0  0  0
 61 73  1  0  0  0  0
 63 65  1  0  0  0  0
M  CHG  1  73   1
M  ISO  4  37 100  59 101  70 100  80 101
M  END
> <Batch ID>
0173

> <Smiles>
CNC(C)C(=O)NC(C(=O)N1Cc2cc([101O:1][101CH2:1]C3(c4cc(C)nc([100NH:0][100C:0](=O)N5CCCC(n6nc(-c7ccc(Oc8ccc(F)cc8F)cc7)c(C(N)=O)c6N)C5)c4)CC3)ccc2CC1C(=O)NC1CCCc2ccccc21)C(C)(C)C

> <Shape>
0.121

> <Color>
0.177

> <Negative vol penalty>
0.000

$$$$

  -OEChem-04052322423D

 88 98  0     1  0  0  0  0  0999 V2000
  -24.3041  -31.6832   21.1073 C   0  0  0  0  0  0  0  0  0  0  0  0
  -25.0115  -31.1184   22.1626 C   0  0  0  0  0  0  0  0  0  0  0  0
  -21.6115  -22.8718   21.6192 C   0  0  0  0  0  0  0  0  0  0  0  0
  -19.5802  -21.9894   20.6537 C   0  0  0  0  0  0  0  0  0  0  0  0
  -23.8809  -30.8819   20.0490 C   0  0  0  0  0  0  0  0  0  0  0  0
  -25.3061  -29.7546   22.1542 C   0  0  0  0  0  0  0  0  0  0  0  0
  -28.6393  -22.1676   23.0078 C   0  0  0  0  0  0  0  0  0  0  0  0
  -20.8825  -23.9040   22.2097 C   0  0  0  0  0  0  0  0  0  0  0  0
  -18.8511  -23.0215   21.2443 C   0  0  0  0  0  0  0  0  0  0  0  0
  -28.7116  -21.0319   22.2023 C   0  0  0  0  0  0  0  0  0  0  0  0
  -19.5215  -26.8496   21.2634 C   0  0  0  0  0  0  0  0  0  0  0  0
  -20.0404  -28.1413   21.1754 C   0  0  0  0  0  0  0  0  0  0  0  0
  -29.0906  -22.4309   20.2741 C   0  0  0  0  0  0  0  0  0  0  0  0
  -27.8572  -15.4193   19.8153 C   0  0  0  0  0  0  0  0  0  0  0  0
  -20.1267  -28.2709   23.5864 C   0  0  0  0  0  0  0  0  0  0  0  0
  -20.9604  -21.9145   20.8411 C   0  0  0  0  0  0  0  0  0  0  0  0
  -22.7657  -20.9733   19.3039 C   0  0  0  0  0  0  0  0  0  0  0  0
  -24.1600  -29.5054   20.0345 C   0  0  0  0  0  0  0  0  0  0  0  0
  -28.7815  -23.4462   22.4497 C   0  0  0  0  0  0  0  0  0  0  0  0
  -24.9083  -28.9336   21.0835 C   0  0  0  0  0  0  0  0  0  0  0  0
  -29.0223  -23.5811   21.0750 C   0  0  0  0  0  0  0  0  0  0  0  0
  -29.0726  -14.8244   19.5343 C   0  0  0  0  0  0  0  0  0  0  0  0
  -29.1870  -13.4327   19.5093 C   0  0  0  0  0  0  0  0  0  0  0  0
  -19.5023  -23.9788   22.0223 C   0  0  0  0  0  0  0  0  0  0  0  0
  -28.9344  -21.1636   20.8348 C   0  0  0  0  0  0  0  0  0  0  0  0
  -19.3051  -26.2685   22.5129 C   0  0  0  0  0  0  0  0  0  0  0  0
  -20.3431  -28.8519   22.3369 C   0  0  0  0  0  0  0  0  0  0  0  0
  -19.6077  -26.9791   23.6744 C   0  0  0  0  0  0  0  0  0  0  0  0
  -21.7130  -20.8484   20.2303 C   0  0  0  0  0  0  0  0  0  0  0  0
  -28.0790  -12.6651   19.7900 C   0  0  0  0  0  0  0  0  0  0  0  0
  -26.7986  -14.5653   20.0910 C   0  0  0  0  0  0  0  0  0  0  0  0
  -23.1407  -19.6799   19.0339 C   0  0  0  0  0  0  0  0  0  0  0  0
  -23.3521  -22.1531   18.7382 C   0  0  0  0  0  0  0  0  0  0  0  0
  -26.9185  -26.0109   22.2146 C   0  0  0  0  0  0  0  0  0  0  0  0
  -29.5961  -27.3613   20.9780 C   0  0  0  0  0  0  0  0  0  0  0  0
  -32.2209  -26.3952   18.6989 C   0  0  0  0  0  0  0  0  0  0  0  0
  -24.3567  -14.5105   20.7076 C   0  0  0  0  0  0  0  0  0  0  0  0
  -23.6849  -28.6864   18.8603 C   0  0  0  0  0  0  0  0  0  0  0  0
  -28.7276  -24.6600   23.3364 C   0  0  0  0  0  0  0  0  0  0  0  0
  -29.2019  -24.9303   20.4301 C   0  0  0  0  0  0  0  0  0  0  0  0
  -23.6557  -27.1897   19.1524 C   0  0  0  0  0  0  0  0  0  0  0  0
  -20.9170  -15.2899   20.2190 C   0  0  0  0  0  0  0  0  0  0  0  0
  -24.9791  -26.7534   19.7629 C   0  0  0  0  0  0  0  0  0  0  0  0
  -20.9041  -16.8158   20.1022 C   0  0  0  0  0  0  0  0  0  0  0  0
  -31.3597  -14.2957   19.3722 C   0  0  0  0  0  0  0  0  0  0  0  0
  -31.6065  -18.4462   19.1981 C   0  0  0  0  0  0  0  0  0  0  0  0
  -21.9474  -14.8079   21.2387 C   0  0  0  0  0  0  0  0  0  0  0  0
  -23.2960  -16.8443   20.9175 C   0  0  0  0  0  0  0  0  0  0  0  0
  -30.3768  -15.4666   19.1560 C   0  0  2  0  0  0  0  0  0  0  0  0
  -30.5681  -12.9927   19.1324 C   0  0  2  0  0  0  0  0  0  0  0  0
  -25.2138  -27.4469   21.1108 C   0  0  1  0  0  0  0  0  0  0  0  0
  -28.3740  -25.9370   22.5803 C   0  0  1  0  0  0  0  0  0  0  0  0
  -30.7264  -16.6466   20.0516 C   0  0  2  0  0  0  0  0  0  0  0  0
  -30.1728  -18.0187   19.5792 C   0  0  1  0  0  0  0  0  0  0  0  0
  -22.3193  -17.3740   19.8550 C   0  0  2  0  0  0  0  0  0  0  0  0
  -32.1654  -17.1884   19.8840 C   0  0  2  0  0  0  0  0  0  0  0  0
  -28.1369  -11.1781   19.8228 C   0  0  0  0  0  0  0  0  0  0  0  0
  -30.6444  -12.5218   17.6851 C   0  0  0  0  0  0  0  0  0  0  0  0
  -34.5995  -27.1758   18.5246 C   0  0  0  0  0  0  0  0  0  0  0  0
  -28.4958  -29.3264   18.9195 C   0  0  0  0  0  0  0  0  0  0  0  0
  -30.5796  -28.9782   17.5761 C   0  0  0  0  0  0  0  0  0  0  0  0
  -30.7239  -29.9492   19.8694 C   0  0  0  0  0  0  0  0  0  0  0  0
  -33.2651  -23.6349   18.9210 C   0  0  0  0  0  0  0  0  0  0  0  0
  -29.4945  -18.8597   20.6493 C   0  0  0  0  0  0  0  0  0  1  0  0
  -30.1852  -27.4944   19.5944 C   0  0  1  0  0  0  0  0  0  0  0  0
  -33.6668  -26.0966   19.0520 C   0  0  2  0  0  0  0  0  0  0  0  0
  -29.9796  -28.9150   18.9969 C   0  0  0  0  0  0  0  0  0  0  0  0
  -21.4369  -19.5761   20.5286 N   0  0  0  0  0  0  0  0  0  0  0  0
  -26.8774  -13.2080   20.0891 N   0  0  0  0  0  0  0  0  0  0  0  0
  -22.3215  -18.8897   19.7853 N   0  0  0  0  0  0  0  0  0  0  0  0
  -29.1345  -26.0873   21.3380 N   0  0  0  0  0  0  0  0  0  0  0  0
  -23.2646  -15.3735   20.9387 N   0  0  0  0  0  0  0  0  0  0  0  0
  -24.0878  -19.1529   18.2292 N   0  0  0  0  0  0  0  0  0  0  0  0
  -22.8147  -22.6614   17.5478 N   0  0  0  0  0  0  0  0  0  0  0  0
  -25.5508  -15.1615   20.3997 N   0  0  0  0  0  0  0  0  0  0  0  0
  -26.5624  -27.1716   21.5549 N   0  0  0  0  0  0  0  0  0  0  0  0
  -31.5823  -27.0890   19.7049 N   0  0  0  0  0  0  0  0  0  0  0  0
  -32.8224  -17.4802   21.1701 N   0  3  0  0  0  0  0  0  0  0  0  0
  -34.0831  -24.7897   18.4692 N   0  3  0  0  0  0  0  0  0  0  0  0
  -24.3344  -22.7296   19.2638 O   0  0  0  0  0  0  0  0  0  0  0  0
  -26.1740  -25.0828   22.5079 O   0  0  0  0  0  0  0  0  0  0  0  0
  -29.5538  -28.3496   21.7149 O   0  0  0  0  0  0  0  0  0  0  0  0
  -31.7102  -26.0509   17.6353 O   0  0  0  0  0  0  0  0  0  0  0  0
  -24.2348  -13.2836   20.7509 O   0  0  0  0  0  0  0  0  0  0  0  0
  -18.7906  -24.9857   22.5986 O   0  0  0  0  0  0  0  0  0  0  0  0
  -29.0047  -20.0567   20.0463 O   0  0  0  0  0  0  0  0  0  1  0  0
  -20.8428  -30.0918   22.2522 F   0  0  0  0  0  0  0  0  0  0  0  0
  -19.4031  -26.4257   24.8776 F   0  0  0  0  0  0  0  0  0  0  0  0
  1  2  1  0  0  0  0
  1  5  2  0  0  0  0
  2  6  2  0  0  0  0
  3  8  2  0  0  0  0
  3 16  1  0  0  0  0
  4  9  1  0  0  0  0
  4 16  2  0  0  0  0
  5 18  1  0  0  0  0
  6 20  1  0  0  0  0
  7 10  2  0  0  0  0
  7 19  1  0  0  0  0
  8 24  1  0  0  0  0
  9 24  2  0  0  0  0
 10 25  1  0  0  0  0
 11 12  2  0  0  0  0
 11 26  1  0  0  0  0
 12 27  1  0  0  0  0
 13 21  1  0  0  0  0
 13 25  2  0  0  0  0
 14 22  2  0  0  0  0
 14 31  1  0  0  0  0
 15 27  2  0  0  0  0
 15 28  1  0  0  0  0
 16 29  1  0  0  0  0
 17 29  1  0  0  0  0
 17 32  2  0  0  0  0
 17 33  1  0  0  0  0
 18 20  2  0  0  0  0
 18 38  1  0  0  0  0
 19 21  2  0  0  0  0
 19 39  1  0  0  0  0
 20 51  1  0  0  0  0
 21 40  1  0  0  0  0
 22 23  1  0  0  0  0
 22 49  1  0  0  0  0
 23 30  2  0  0  0  0
 23 50  1  0  0  0  0
 24 85  1  0  0  0  0
 25 86  1  0  0  0  0
 26 28  2  0  0  0  0
 26 85  1  0  0  0  0
 27 87  1  0  0  0  0
 28 88  1  0  0  0  0
 29 68  2  0  0  0  0
 30 57  1  0  0  0  0
 30 69  1  0  0  0  0
 31 69  2  0  0  0  0
 31 75  1  0  0  0  0
 32 70  1  0  0  0  0
 32 73  1  0  0  0  0
 33 74  1  0  0  0  0
 33 80  2  0  0  0  0
 34 52  1  0  0  0  0
 34 76  1  0  0  0  0
 34 81  2  0  0  0  0
 35 65  1  0  0  0  0
 35 71  1  0  0  0  0
 35 82  2  0  0  0  0
 36 66  1  0  0  0  0
 36 77  1  0  0  0  0
 36 83  2  0  0  0  0
 37 72  1  0  0  0  0
 37 75  1  0  0  0  0
 37 84  2  0  0  0  0
 38 41  1  0  0  0  0
 39 52  1  0  0  0  0
 40 71  1  0  0  0  0
 41 43  1  0  0  0  0
 42 44  1  0  0  0  0
 42 47  1  0  0  0  0
 43 51  1  0  0  0  0
 44 55  1  0  0  0  0
 45 49  1  0  0  0  0
 45 50  1  0  0  0  0
 46 54  1  0  0  0  0
 46 56  1  0  0  0  0
 47 72  1  0  0  0  0
 48 55  1  0  0  0  0
 48 72  1  0  0  0  0
 49 53  1  0  0  0  0
 50 58  1  0  0  0  0
 51 76  1  0  0  0  0
 52 71  1  0  0  0  0
 53 54  1  0  0  0  0
 53 56  1  0  0  0  0
 54 64  1  0  0  0  0
 55 70  1  0  0  0  0
 56 78  1  0  0  0  0
 59 66  1  0  0  0  0
 60 67  1  0  0  0  0
 61 67  1  0  0  0  0
 62 67  1  0  0  0  0
 63 79  1  0  0  0  0
 64 86  1  0  0  0  0
 65 67  1  0  0  0  0
 65 77  1  0  0  0  0
 66 79  1  0  0  0  0
 68 70  1  0  0  0  0
M  CHG  2  78   1  79   1
M  ISO  4  37 100  64 101  75 100  86 101
M  END
> <Batch ID>
0173

> <Smiles>
CNC(C)C(=O)NC(C(=O)N1Cc2cc([101O:1][101CH2:1]C3CC(N)C3C3CC(C)c4c3cc([100NH:0][100C:0](=O)N3CCCC(n5nc(-c6ccc(Oc7ccc(F)cc7F)cc6)c(C(N)=O)c5N)C3)nc4C)ccc2CC1C(=O)NC1CCCc2ccccc21)C(C)(C)C

> <Shape>
0.254

> <Color>
0.067

> <Negative vol penalty>
0.000

$$$$

  -OEChem-04052322423D

 88 98  0     1  0  0  0  0  0999 V2000
  -16.9923  -30.0224   24.5123 C   0  0  0  0  0  0  0  0  0  0  0  0
  -18.2605  -30.5487   24.7299 C   0  0  0  0  0  0  0  0  0  0  0  0
  -27.9900  -10.1913   19.3283 C   0  0  0  0  0  0  0  0  0  0  0  0
  -27.7153  -11.4167   17.2643 C   0  0  0  0  0  0  0  0  0  0  0  0
  -16.8377  -28.8977   23.7046 C   0  0  0  0  0  0  0  0  0  0  0  0
  -19.3733  -29.9578   24.1304 C   0  0  0  0  0  0  0  0  0  0  0  0
  -27.0788  -28.9279   22.2458 C   0  0  0  0  0  0  0  0  0  0  0  0
  -27.4383   -9.0588   18.7294 C   0  0  0  0  0  0  0  0  0  0  0  0
  -27.1637  -10.2841   16.6653 C   0  0  0  0  0  0  0  0  0  0  0  0
  -28.0006  -28.0118   21.7409 C   0  0  0  0  0  0  0  0  0  0  0  0
  -26.4347   -5.7399   17.6372 C   0  0  0  0  0  0  0  0  0  0  0  0
  -27.0724   -4.5178   17.8503 C   0  0  0  0  0  0  0  0  0  0  0  0
  -26.5922  -27.6662   19.8134 C   0  0  0  0  0  0  0  0  0  0  0  0
  -30.6300  -25.3797   17.9520 C   0  0  0  0  0  0  0  0  0  0  0  0
  -29.0837   -5.3906   16.8353 C   0  0  0  0  0  0  0  0  0  0  0  0
  -28.1284  -11.3703   18.5958 C   0  0  0  0  0  0  0  0  0  0  0  0
  -30.0564  -12.9070   19.2505 C   0  0  0  0  0  0  0  0  0  0  0  0
  -17.9510  -28.2858   23.1053 C   0  0  0  0  0  0  0  0  0  0  0  0
  -25.8996  -29.2132   21.5423 C   0  0  0  0  0  0  0  0  0  0  0  0
  -19.2353  -28.8363   23.2925 C   0  0  0  0  0  0  0  0  0  0  0  0
  -25.6596  -28.5899   20.3092 C   0  0  0  0  0  0  0  0  0  0  0  0
  -31.5919  -24.4351   17.6384 C   0  0  0  0  0  0  0  0  0  0  0  0
  -31.3140  -23.0755   17.7848 C   0  0  0  0  0  0  0  0  0  0  0  0
  -27.0252   -9.1052   17.3979 C   0  0  0  0  0  0  0  0  0  0  0  0
  -27.7562  -27.3791   20.5256 C   0  0  0  0  0  0  0  0  0  0  0  0
  -27.1214   -6.7873   17.0232 C   0  0  0  0  0  0  0  0  0  0  0  0
  -28.3970   -4.3432   17.4493 C   0  0  0  0  0  0  0  0  0  0  0  0
  -28.4459   -6.6126   16.6222 C   0  0  0  0  0  0  0  0  0  0  0  0
  -28.6977  -12.5406   19.2141 C   0  0  0  0  0  0  0  0  0  0  0  0
  -30.0745  -22.6933   18.2499 C   0  0  0  0  0  0  0  0  0  0  0  0
  -29.4134  -24.8999   18.4155 C   0  0  0  0  0  0  0  0  0  0  0  0
  -30.0745  -14.0895   19.9491 C   0  0  0  0  0  0  0  0  0  0  0  0
  -31.1999  -12.2384   18.7019 C   0  0  0  0  0  0  0  0  0  0  0  0
  -22.7557  -28.9574   22.0864 C   0  0  0  0  0  0  0  0  0  0  0  0
  -22.6489  -30.5387   19.1638 C   0  0  0  0  0  0  0  0  0  0  0  0
  -19.9159  -32.4162   19.9669 C   0  0  0  0  0  0  0  0  0  0  0  0
  -27.9390  -19.1381   20.9730 C   0  0  0  0  0  0  0  0  0  0  0  0
  -17.7256  -27.0752   22.2342 C   0  0  0  0  0  0  0  0  0  0  0  0
  -24.9324  -30.2276   22.0899 C   0  0  0  0  0  0  0  0  0  0  0  0
  -24.4115  -28.8647   19.5145 C   0  0  0  0  0  0  0  0  0  0  0  0
  -18.9955  -26.2616   22.0068 C   0  0  0  0  0  0  0  0  0  0  0  0
  -26.4985  -16.3869   22.6578 C   0  0  0  0  0  0  0  0  0  0  0  0
  -20.1296  -27.1785   21.5737 C   0  0  0  0  0  0  0  0  0  0  0  0
  -27.0202  -15.1678   21.9022 C   0  0  0  0  0  0  0  0  0  0  0  0
  -28.4965  -20.7032   17.7029 C   0  0  0  0  0  0  0  0  0  0  0  0
  -33.6102  -23.2457   17.2920 C   0  0  0  0  0  0  0  0  0  0  0  0
  -26.2073  -17.5337   21.6992 C   0  0  0  0  0  0  0  0  0  0  0  0
  -28.1726  -19.4084   18.4359 C   0  0  0  0  0  0  0  0  0  0  0  0
  -29.3313  -20.8929   19.9177 C   0  0  0  0  0  0  0  0  0  0  0  0
  -27.9547  -16.7403   20.1283 C   0  0  0  0  0  0  0  0  0  0  0  0
  -32.4652  -22.2112   17.3799 C   0  0  2  0  0  0  0  0  0  0  0  0
  -20.4636  -28.1921   22.6756 C   0  0  1  0  0  0  0  0  0  0  0  0
  -29.7140  -21.2411   18.4722 C   0  0  2  0  0  0  0  0  0  0  0  0
  -23.5267  -30.1084   21.5047 C   0  0  1  0  0  0  0  0  0  0  0  0
  -28.2454  -15.5402   21.0531 C   0  0  2  0  0  0  0  0  0  0  0  0
  -32.9827  -24.6563   17.0973 C   0  0  0  0  0  0  0  0  0  0  0  0
  -32.2184  -21.4680   16.0737 C   0  0  0  0  0  0  0  0  0  0  0  0
  -32.9357  -25.0582   15.6180 C   0  0  0  0  0  0  0  0  0  0  0  0
  -33.7664  -25.7073   17.8926 C   0  0  0  0  0  0  0  0  0  0  0  0
  -17.9225  -33.8983   19.6099 C   0  0  0  0  0  0  0  0  0  0  0  0
  -24.7495  -32.7507   19.1667 C   0  0  0  0  0  0  0  0  0  0  0  0
  -22.8871  -34.4224   19.0944 C   0  0  0  0  0  0  0  0  0  0  0  0
  -23.1812  -32.8036   17.2194 C   0  0  0  0  0  0  0  0  0  0  0  0
  -18.1251  -30.0997   19.5361 C   0  0  0  0  0  0  0  0  0  0  0  0
  -28.3419  -25.8734   18.7804 C   0  0  0  0  0  0  0  0  0  1  0  0
  -22.3008  -31.9797   19.4416 C   0  0  1  0  0  0  0  0  0  0  0  0
  -18.5556  -32.5493   19.3063 C   0  0  2  0  0  0  0  0  0  0  0  0
  -23.2810  -32.9698   18.7514 C   0  0  0  0  0  0  0  0  0  0  0  0
  -27.9098  -13.4190   19.8398 N   0  0  0  0  0  0  0  0  0  0  0  0
  -29.1109  -23.5849   18.5734 N   0  0  0  0  0  0  0  0  0  0  0  0
  -28.7762  -14.3491   20.2762 N   0  0  0  0  0  0  0  0  0  0  0  0
  -23.5429  -29.9218   20.0483 N   0  0  0  0  0  0  0  0  0  0  0  0
  -27.3718  -17.8627   20.8750 N   0  0  0  0  0  0  0  0  0  0  0  0
  -28.5198  -19.6832   19.8286 N   0  0  0  0  0  0  0  0  0  0  0  0
  -31.0743  -14.9220   20.3095 N   0  0  0  0  0  0  0  0  0  0  0  0
  -31.0029  -11.0335   18.0137 N   0  0  0  0  0  0  0  0  0  0  0  0
  -21.3919  -29.1698   22.1520 N   0  0  0  0  0  0  0  0  0  0  0  0
  -20.9064  -32.1462   19.0464 N   0  0  0  0  0  0  0  0  0  0  0  0
  -17.6377  -31.4798   19.7907 N   0  3  0  0  0  0  0  0  0  0  0  0
  -32.3639  -12.6875   18.8327 O   0  0  0  0  0  0  0  0  0  0  0  0
  -23.3537  -27.9506   22.4475 O   0  0  0  0  0  0  0  0  0  0  0  0
  -22.1494  -29.9755   18.1858 O   0  0  0  0  0  0  0  0  0  0  0  0
  -20.0836  -32.5431   21.1778 O   0  0  0  0  0  0  0  0  0  0  0  0
  -27.8925  -19.7829   22.0294 O   0  0  0  0  0  0  0  0  0  0  0  0
  -26.4871   -8.0002   16.8131 O   0  0  0  0  0  0  0  0  0  0  0  0
  -28.6609  -26.4786   20.0268 O   0  0  0  0  0  0  0  0  0  1  0  0
  -29.0098   -3.1701   17.6554 F   0  0  0  0  0  0  0  0  0  0  0  0
  -29.1112   -7.6156   16.0329 F   0  0  0  0  0  0  0  0  0  0  0  0
  1  2  1  0  0  0  0
  1  5  2  0  0  0  0
  2  6  2  0  0  0  0
  3  8  2  0  0  0  0
  3 16  1  0  0  0  0
  4  9  1  0  0  0  0
  4 16  2  0  0  0  0
  5 18  1  0  0  0  0
  6 20  1  0  0  0  0
  7 10  2  0  0  0  0
  7 19  1  0  0  0  0
  8 24  1  0  0  0  0
  9 24  2  0  0  0  0
 10 25  1  0  0  0  0
 11 12  2  0  0  0  0
 11 26  1  0  0  0  0
 12 27  1  0  0  0  0
 13 21  1  0  0  0  0
 13 25  2  0  0  0  0
 14 22  2  0  0  0  0
 14 31  1  0  0  0  0
 15 27  2  0  0  0  0
 15 28  1  0  0  0  0
 16 29  1  0  0  0  0
 17 29  1  0  0  0  0
 17 32  2  0  0  0  0
 17 33  1  0  0  0  0
 18 20  2  0  0  0  0
 18 38  1  0  0  0  0
 19 21  2  0  0  0  0
 19 39  1  0  0  0  0
 20 52  1  0  0  0  0
 21 40  1  0  0  0  0
 22 23  1  0  0  0  0
 22 56  1  0  0  0  0
 23 30  2  0  0  0  0
 23 51  1  0  0  0  0
 24 85  1  0  0  0  0
 25 86  1  0  0  0  0
 26 28  2  0  0  0  0
 26 85  1  0  0  0  0
 27 87  1  0  0  0  0
 28 88  1  0  0  0  0
 29 69  2  0  0  0  0
 30 53  1  0  0  0  0
 30 70  1  0  0  0  0
 31 65  1  0  0  0  0
 31 70  2  0  0  0  0
 32 71  1  0  0  0  0
 32 75  1  0  0  0  0
 33 76  1  0  0  0  0
 33 80  2  0  0  0  0
 34 54  1  0  0  0  0
 34 77  1  0  0  0  0
 34 81  2  0  0  0  0
 35 66  1  0  0  0  0
 35 72  1  0  0  0  0
 35 82  2  0  0  0  0
 36 67  1  0  0  0  0
 36 78  1  0  0  0  0
 36 83  2  0  0  0  0
 37 73  1  0  0  0  0
 37 74  1  0  0  0  0
 37 84  2  0  0  0  0
 38 41  1  0  0  0  0
 39 54  1  0  0  0  0
 40 72  1  0  0  0  0
 41 43  1  0  0  0  0
 42 44  1  0  0  0  0
 42 47  1  0  0  0  0
 43 52  1  0  0  0  0
 44 55  1  0  0  0  0
 45 48  1  0  0  0  0
 45 53  1  0  0  0  0
 46 51  1  0  0  0  0
 46 56  1  0  0  0  0
 47 73  1  0  0  0  0
 48 74  1  0  0  0  0
 49 53  1  0  0  0  0
 49 74  1  0  0  0  0
 50 55  1  0  0  0  0
 50 73  1  0  0  0  0
 51 57  1  0  0  0  0
 52 77  1  0  0  0  0
 54 72  1  0  0  0  0
 55 71  1  0  0  0  0
 56 58  1  0  0  0  0
 56 59  1  0  0  0  0
 60 67  1  0  0  0  0
 61 68  1  0  0  0  0
 62 68  1  0  0  0  0
 63 68  1  0  0  0  0
 64 79  1  0  0  0  0
 65 86  1  0  0  0  0
 66 68  1  0  0  0  0
 66 78  1  0  0  0  0
 67 79  1  0  0  0  0
 69 71  1  0  0  0  0
M  CHG  1  79   1
M  ISO  4  37 100  65 101  74 100  86 101
M  END
> <Batch ID>
0173

> <Smiles>
CNC(C)C(=O)NC(C(=O)N1Cc2cc([101O:1][101CH2:1]c3cc4c(c(C5CC[100N:0]([100C:0](=O)N6CCCC(n7nc(-c8ccc(Oc9ccc(F)cc9F)cc8)c(C(N)=O)c7N)C6)C5)n3)C(C)CC4(C)C)ccc2CC1C(=O)NC1CCCc2ccccc21)C(C)(C)C

> <Shape>
0.269

> <Color>
0.126

> <Negative vol penalty>
0.000

$$$$

  -OEChem-04052322423D

 85 95  0     1  0  0  0  0  0999 V2000
  -22.0475  -10.0799   12.9178 C   0  0  0  0  0  0  0  0  0  0  0  0
  -23.3091  -10.6629   12.9803 C   0  0  0  0  0  0  0  0  0  0  0  0
  -22.3247  -27.0711   20.3468 C   0  0  0  0  0  0  0  0  0  0  0  0
  -22.8174  -28.5692   22.1772 C   0  0  0  0  0  0  0  0  0  0  0  0
  -21.1906  -10.1559   14.0150 C   0  0  0  0  0  0  0  0  0  0  0  0
  -23.7141  -11.3232   14.1398 C   0  0  0  0  0  0  0  0  0  0  0  0
  -29.5689  -12.6715   18.0411 C   0  0  0  0  0  0  0  0  0  0  0  0
  -21.0604  -26.8302   20.8843 C   0  0  0  0  0  0  0  0  0  0  0  0
  -21.5529  -28.3284   22.7146 C   0  0  0  0  0  0  0  0  0  0  0  0
  -30.2627  -13.7394   18.6086 C   0  0  0  0  0  0  0  0  0  0  0  0
  -18.3768  -29.3379   22.1549 C   0  0  0  0  0  0  0  0  0  0  0  0
  -17.6454  -30.4371   22.6048 C   0  0  0  0  0  0  0  0  0  0  0  0
  -28.7284  -13.7392   20.4701 C   0  0  0  0  0  0  0  0  0  0  0  0
  -17.5880  -29.4896   24.8265 C   0  0  0  0  0  0  0  0  0  0  0  0
  -30.3621  -18.8496   20.2424 C   0  0  0  0  0  0  0  0  0  0  0  0
  -23.2033  -27.9406   20.9933 C   0  0  0  0  0  0  0  0  0  0  0  0
  -24.8660  -29.1949   19.5203 C   0  0  0  0  0  0  0  0  0  0  0  0
  -21.5889  -10.8091   15.1919 C   0  0  0  0  0  0  0  0  0  0  0  0
  -28.4412  -12.1356   18.6796 C   0  0  0  0  0  0  0  0  0  0  0  0
  -22.8612  -11.4092   15.2533 C   0  0  0  0  0  0  0  0  0  0  0  0
  -28.0236  -12.6628   19.9099 C   0  0  0  0  0  0  0  0  0  0  0  0
  -29.3129  -19.0731   19.3742 C   0  0  0  0  0  0  0  0  0  0  0  0
  -20.6744  -27.4589   22.0681 C   0  0  0  0  0  0  0  0  0  0  0  0
  -29.8408  -14.2753   19.8218 C   0  0  0  0  0  0  0  0  0  0  0  0
  -18.7138  -28.3145   23.0408 C   0  0  0  0  0  0  0  0  0  0  0  0
  -17.2510  -30.5130   23.9406 C   0  0  0  0  0  0  0  0  0  0  0  0
  -18.3194  -28.3904   24.3766 C   0  0  0  0  0  0  0  0  0  0  0  0
  -24.5098  -28.1894   20.4389 C   0  0  0  0  0  0  0  0  0  0  0  0
  -28.7023  -17.9420   18.8720 C   0  0  0  0  0  0  0  0  0  0  0  0
  -26.2108  -29.0087   19.3119 C   0  0  0  0  0  0  0  0  0  0  0  0
  -30.1138  -16.5989   20.0427 C   0  0  0  0  0  0  0  0  0  1  0  0
  -24.0540  -30.2068   18.9101 C   0  0  0  0  0  0  0  0  0  0  0  0
  -25.3639  -11.8542   17.9349 C   0  0  0  0  0  0  0  0  0  0  0  0
  -25.2558  -10.1401   20.6867 C   0  0  0  0  0  0  0  0  0  0  0  0
  -26.6293   -9.4692   23.7380 C   0  0  0  0  0  0  0  0  0  0  0  0
  -29.8410  -24.4128   19.6923 C   0  0  0  0  0  0  0  0  0  0  0  0
  -20.6100  -10.9064   16.3351 C   0  0  0  0  0  0  0  0  0  0  0  0
  -27.7197  -10.9663   18.0676 C   0  0  0  0  0  0  0  0  0  0  0  0
  -26.8311  -12.1103   20.6457 C   0  0  0  0  0  0  0  0  0  0  0  0
  -21.2579  -11.3000   17.6600 C   0  0  0  0  0  0  0  0  0  0  0  0
  -30.1502  -27.3679   21.4586 C   0  0  0  0  0  0  0  0  0  0  0  0
  -22.2066  -12.4779   17.4613 C   0  0  0  0  0  0  0  0  0  0  0  0
  -26.1670  -18.2476   18.4810 C   0  0  0  0  0  0  0  0  0  0  0  0
  -26.5527  -16.9561   17.8302 C   0  0  0  0  0  0  0  0  0  0  0  0
  -28.7771  -28.0235   21.3133 C   0  0  0  0  0  0  0  0  0  0  0  0
  -28.3853  -21.2666   20.2401 C   0  0  0  0  0  0  0  0  0  0  0  0
  -29.9991  -21.2583   18.2894 C   0  0  0  0  0  0  0  0  0  0  0  0
  -30.0167  -25.8670   21.6886 C   0  0  0  0  0  0  0  0  0  0  0  0
  -27.9840  -22.6983   19.8736 C   0  0  0  0  0  0  0  0  0  0  0  0
  -29.5424  -22.6753   17.9544 C   0  0  0  0  0  0  0  0  0  0  0  0
  -27.8672  -25.8041   20.4663 C   0  0  0  0  0  0  0  0  0  0  0  0
  -28.8833  -20.4824   19.0127 C   0  0  0  0  0  0  0  0  0  0  0  0
  -23.3461  -12.1127   16.5023 C   0  0  1  0  0  0  0  0  0  0  0  0
  -27.5545  -18.0750   17.9246 C   0  0  0  0  0  0  0  0  0  0  0  0
  -26.2788  -10.8338   18.5509 C   0  0  1  0  0  0  0  0  0  0  0  0
  -27.9435  -27.3253   20.2242 C   0  0  1  0  0  0  0  0  0  0  0  0
  -26.2966   -8.0463   25.7781 C   0  0  0  0  0  0  0  0  0  0  0  0
  -22.9898  -11.9720   21.5919 C   0  0  0  0  0  0  0  0  0  0  0  0
  -23.3474  -11.1447   23.9277 C   0  0  0  0  0  0  0  0  0  0  0  0
  -22.6564   -9.5537   22.1350 C   0  0  0  0  0  0  0  0  0  0  0  0
  -29.2370   -8.1204   23.3647 C   0  0  0  0  0  0  0  0  0  0  0  0
  -25.0141  -10.4664   22.1407 C   0  0  1  0  0  0  0  0  0  0  0  0
  -26.9740   -8.1581   24.4211 C   0  0  2  0  0  0  0  0  0  0  0  0
  -23.5233  -10.7961   22.4342 C   0  0  0  0  0  0  0  0  0  0  0  0
  -30.7906  -17.6212   20.5999 N   0  0  0  0  0  0  0  0  0  0  0  0
  -25.5447  -27.4213   20.7897 N   0  0  0  0  0  0  0  0  0  0  0  0
  -29.0784  -16.6849   19.1860 N   0  0  0  0  0  0  0  0  0  0  0  0
  -26.5644  -27.9442   20.0878 N   0  0  0  0  0  0  0  0  0  0  0  0
  -26.1550  -10.9710   20.0035 N   0  0  0  0  0  0  0  0  0  0  0  0
  -29.2160  -25.2417   20.6362 N   0  0  0  0  0  0  0  0  0  0  0  0
  -29.0707  -23.3730   19.1502 N   0  0  0  0  0  0  0  0  0  0  0  0
  -27.1134  -29.6532   18.5423 N   0  0  0  0  0  0  0  0  0  0  0  0
  -22.6916  -30.2563   19.2352 N   0  0  0  0  0  0  0  0  0  0  0  0
  -24.3409  -11.3107   17.1816 N   0  0  0  0  0  0  0  0  0  0  0  0
  -25.5384   -9.3394   22.9046 N   0  0  0  0  0  0  0  0  0  0  0  0
  -28.4469   -8.0496   24.6207 N   0  3  0  0  0  0  0  0  0  0  0  0
  -24.5194  -31.0320   18.0879 O   0  0  0  0  0  0  0  0  0  0  0  0
  -25.5699  -13.0464   18.1299 O   0  0  0  0  0  0  0  0  0  0  0  0
  -24.6738   -9.1789   20.1778 O   0  0  0  0  0  0  0  0  0  0  0  0
  -27.2619  -10.5056   23.9277 O   0  0  0  0  0  0  0  0  0  0  0  0
  -31.0175  -24.5910   19.3529 O   0  0  0  0  0  0  0  0  0  0  0  0
  -19.4406  -27.2242   22.5927 O   0  0  0  0  0  0  0  0  0  0  0  0
  -30.5243  -15.3313   20.3846 O   0  0  0  0  0  0  0  0  0  1  0  0
  -16.5500  -31.5693   24.3728 F   0  0  0  0  0  0  0  0  0  0  0  0
  -18.6412  -27.4108   25.2326 F   0  0  0  0  0  0  0  0  0  0  0  0
  1  2  1  0  0  0  0
  1  5  2  0  0  0  0
  2  6  2  0  0  0  0
  3  8  2  0  0  0  0
  3 16  1  0  0  0  0
  4  9  1  0  0  0  0
  4 16  2  0  0  0  0
  5 18  1  0  0  0  0
  6 20  1  0  0  0  0
  7 10  2  0  0  0  0
  7 19  1  0  0  0  0
  8 23  1  0  0  0  0
  9 23  2  0  0  0  0
 10 24  1  0  0  0  0
 11 12  2  0  0  0  0
 11 25  1  0  0  0  0
 12 26  1  0  0  0  0
 13 21  1  0  0  0  0
 13 24  2  0  0  0  0
 14 26  2  0  0  0  0
 14 27  1  0  0  0  0
 15 22  1  0  0  0  0
 15 65  2  0  0  0  0
 16 28  1  0  0  0  0
 17 28  1  0  0  0  0
 17 30  2  0  0  0  0
 17 32  1  0  0  0  0
 18 20  2  0  0  0  0
 18 37  1  0  0  0  0
 19 21  2  0  0  0  0
 19 38  1  0  0  0  0
 20 53  1  0  0  0  0
 21 39  1  0  0  0  0
 22 29  2  0  0  0  0
 22 52  1  0  0  0  0
 23 82  1  0  0  0  0
 24 83  1  0  0  0  0
 25 27  2  0  0  0  0
 25 82  1  0  0  0  0
 26 84  1  0  0  0  0
 27 85  1  0  0  0  0
 28 66  2  0  0  0  0
 29 54  1  0  0  0  0
 29 67  1  0  0  0  0
 30 68  1  0  0  0  0
 30 72  1  0  0  0  0
 31 65  1  0  0  0  0
 31 67  2  0  0  0  0
 31 83  1  0  0  0  0
 32 73  1  0  0  0  0
 32 77  2  0  0  0  0
 33 55  1  0  0  0  0
 33 74  1  0  0  0  0
 33 78  2  0  0  0  0
 34 62  1  0  0  0  0
 34 69  1  0  0  0  0
 34 79  2  0  0  0  0
 35 63  1  0  0  0  0
 35 75  1  0  0  0  0
 35 80  2  0  0  0  0
 36 70  1  0  0  0  0
 36 71  1  0  0  0  0
 36 81  2  0  0  0  0
 37 40  1  0  0  0  0
 38 55  1  0  0  0  0
 39 69  1  0  0  0  0
 40 42  1  0  0  0  0
 41 45  1  0  0  0  0
 41 48  1  0  0  0  0
 42 53  1  0  0  0  0
 43 44  1  0  0  0  0
 43 54  1  0  0  0  0
 44 54  1  0  0  0  0
 45 56  1  0  0  0  0
 46 49  1  0  0  0  0
 46 52  1  0  0  0  0
 47 50  1  0  0  0  0
 47 52  1  0  0  0  0
 48 70  1  0  0  0  0
 49 71  1  0  0  0  0
 50 71  1  0  0  0  0
 51 56  1  0  0  0  0
 51 70  1  0  0  0  0
 53 74  1  0  0  0  0
 55 69  1  0  0  0  0
 56 68  1  0  0  0  0
 57 63  1  0  0  0  0
 58 64  1  0  0  0  0
 59 64  1  0  0  0  0
 60 64  1  0  0  0  0
 61 76  1  0  0  0  0
 62 64  1  0  0  0  0
 62 75  1  0  0  0  0
 63 76  1  0  0  0  0
 66 68  1  0  0  0  0
M  CHG  1  76   1
M  ISO  4  31 101  36 100  71 100  83 101
M  END
> <Batch ID>
0173

> <Smiles>
CNC(C)C(=O)NC(C(=O)N1Cc2cc([101O:1][101c:1]3ncc(C4CC[100N:0]([100C:0](=O)N5CCCC(n6nc(-c7ccc(Oc8ccc(F)cc8F)cc7)c(C(N)=O)c6N)C5)CC4)c(C4CC4)n3)ccc2CC1C(=O)NC1CCCc2ccccc21)C(C)(C)C

> <Shape>
0.281

> <Color>
0.072

> <Negative vol penalty>
0.000

$$$$

  -OEChem-04052322423D

 84 93  0     1  0  0  0  0  0999 V2000
  -15.8137  -27.0016   25.1155 C   0  0  0  0  0  0  0  0  0  0  0  0
  -16.7803  -26.5076   24.2453 C   0  0  0  0  0  0  0  0  0  0  0  0
  -26.5463  -11.7227   21.1321 C   0  0  0  0  0  0  0  0  0  0  0  0
  -26.1145  -12.6818   18.9571 C   0  0  0  0  0  0  0  0  0  0  0  0
  -15.7026  -28.3755   25.3248 C   0  0  0  0  0  0  0  0  0  0  0  0
  -17.6357  -27.3875   23.5832 C   0  0  0  0  0  0  0  0  0  0  0  0
  -22.4566  -25.8391   23.6627 C   0  0  0  0  0  0  0  0  0  0  0  0
  -25.1963  -11.3941   21.2553 C   0  0  0  0  0  0  0  0  0  0  0  0
  -24.7644  -12.3532   19.0802 C   0  0  0  0  0  0  0  0  0  0  0  0
  -22.8159  -24.8297   22.7705 C   0  0  0  0  0  0  0  0  0  0  0  0
  -23.1023   -8.9962   20.1160 C   0  0  0  0  0  0  0  0  0  0  0  0
  -22.7856   -7.7214   20.5851 C   0  0  0  0  0  0  0  0  0  0  0  0
  -23.7586  -26.4834   21.2887 C   0  0  0  0  0  0  0  0  0  0  0  0
  -21.6111   -8.7014   22.4553 C   0  0  0  0  0  0  0  0  0  0  0  0
  -27.0054  -12.3666   19.9830 C   0  0  0  0  0  0  0  0  0  0  0  0
  -29.4214  -11.9121   19.3020 C   0  0  0  0  0  0  0  0  0  0  0  0
  -16.5635  -29.2721   24.6723 C   0  0  0  0  0  0  0  0  0  0  0  0
  -22.7363  -27.1814   23.3689 C   0  0  0  0  0  0  0  0  0  0  0  0
  -17.5352  -28.7748   23.7830 C   0  0  0  0  0  0  0  0  0  0  0  0
  -23.4040  -27.5077   22.1799 C   0  0  0  0  0  0  0  0  0  0  0  0
  -23.4532  -21.6196   18.7933 C   0  0  0  0  0  0  0  0  0  0  0  0
  -24.3054  -11.7093   20.2293 C   0  0  0  0  0  0  0  0  0  0  0  0
  -23.4644  -25.1521   21.5820 C   0  0  0  0  0  0  0  0  0  0  0  0
  -22.6735  -10.1237   20.8165 C   0  0  0  0  0  0  0  0  0  0  0  0
  -22.0400   -7.5739   21.7548 C   0  0  0  0  0  0  0  0  0  0  0  0
  -21.9279   -9.9762   21.9862 C   0  0  0  0  0  0  0  0  0  0  0  0
  -28.3997  -12.7068   19.8555 C   0  0  0  0  0  0  0  0  0  0  0  0
  -23.9841  -21.8780   20.0712 C   0  0  0  0  0  0  0  0  0  0  0  0
  -24.2831  -20.6618   18.2639 C   0  0  0  0  0  0  0  0  0  0  0  0
  -30.5539  -12.6810   19.4153 C   0  0  0  0  0  0  0  0  0  0  0  0
  -29.3529  -10.5965   18.7360 C   0  0  0  0  0  0  0  0  0  0  0  0
  -20.9795  -29.7909   22.9127 C   0  0  0  0  0  0  0  0  0  0  0  0
  -23.8749  -31.2500   22.8139 C   0  0  0  0  0  0  0  0  0  0  0  0
  -27.2311  -30.9929   22.2508 C   0  0  0  0  0  0  0  0  0  0  0  0
  -28.2560  -17.2513   21.4758 C   0  0  0  0  0  0  0  0  0  0  0  0
  -16.3743  -30.7518   24.8942 C   0  0  0  0  0  0  0  0  0  0  0  0
  -22.3660  -28.2560   24.3541 C   0  0  0  0  0  0  0  0  0  0  0  0
  -23.7453  -28.9316   21.8271 C   0  0  0  0  0  0  0  0  0  0  0  0
  -17.5650  -31.5928   24.4410 C   0  0  0  0  0  0  0  0  0  0  0  0
  -30.8278  -15.2203   22.8940 C   0  0  0  0  0  0  0  0  0  0  0  0
  -18.0304  -31.1563   23.0555 C   0  0  0  0  0  0  0  0  0  0  0  0
  -31.7249  -14.8483   21.7185 C   0  0  0  0  0  0  0  0  0  0  0  0
  -27.7567  -20.0841   19.2658 C   0  0  0  0  0  0  0  0  0  0  0  0
  -30.2900  -16.6336   22.7313 C   0  0  0  0  0  0  0  0  0  0  0  0
  -28.6479  -18.8878   19.5682 C   0  0  0  0  0  0  0  0  0  0  0  0
  -30.3306  -16.4177   20.2541 C   0  0  0  0  0  0  0  0  0  0  0  0
  -18.4978  -29.6958   23.0653 C   0  0  1  0  0  0  0  0  0  0  0  0
  -22.2406  -29.6354   23.7147 C   0  0  1  0  0  0  0  0  0  0  0  0
  -31.0295  -15.0426   20.3615 C   0  0  2  0  0  0  0  0  0  0  0  0
  -26.3724  -19.4376   19.1318 C   0  0  1  0  0  0  0  0  0  0  0  0
  -26.3915  -18.3577   20.2356 C   0  0  1  0  0  0  0  0  0  0  0  0
  -22.2735  -22.2362   18.1621 C   0  0  0  0  0  0  0  0  0  0  0  0
  -24.2680  -19.9728   16.9597 C   0  0  0  0  0  0  0  0  0  0  0  0
  -25.5421  -17.1456   19.8613 C   0  0  0  0  0  0  0  0  0  0  0  0
  -29.3324  -32.3640   22.2102 C   0  0  0  0  0  0  0  0  0  0  0  0
  -23.0449  -32.4381   20.1289 C   0  0  0  0  0  0  0  0  0  0  0  0
  -25.4512  -32.9850   19.7059 C   0  0  0  0  0  0  0  0  0  0  0  0
  -24.2600  -34.0191   21.6383 C   0  0  0  0  0  0  0  0  0  0  0  0
  -28.4654  -29.3764   24.4008 C   0  0  0  0  0  0  0  0  0  0  0  0
  -23.4852  -22.8271   21.0820 C   0  0  0  0  0  0  0  0  0  1  0  0
  -24.8751  -31.5685   21.7289 C   0  0  1  0  0  0  0  0  0  0  0  0
  -28.4267  -31.4776   23.0508 C   0  0  2  0  0  0  0  0  0  0  0  0
  -24.3998  -32.7259   20.8059 C   0  0  0  0  0  0  0  0  0  0  0  0
  -28.8438  -13.8897   20.2884 N   0  0  0  0  0  0  0  0  0  0  0  0
  -25.0674  -21.1436   20.3377 N   0  0  0  0  0  0  0  0  0  0  0  0
  -25.2239  -20.4141   19.2199 N   0  0  0  0  0  0  0  0  0  0  0  0
  -30.1571  -13.8440   20.0070 N   0  0  0  0  0  0  0  0  0  0  0  0
  -23.3569  -29.9471   22.8197 N   0  0  0  0  0  0  0  0  0  0  0  0
  -29.5868  -16.8079   21.4605 N   0  0  0  0  0  0  0  0  0  0  0  0
  -27.8123  -18.0096   20.3894 N   0  0  0  0  0  0  0  0  0  0  0  0
  -31.8404  -12.4689   19.0656 N   0  0  0  0  0  0  0  0  0  0  0  0
  -28.1104   -9.9493   18.6982 N   0  0  0  0  0  0  0  0  0  0  0  0
  -19.8218  -29.5928   23.6406 N   0  0  0  0  0  0  0  0  0  0  0  0
  -26.1424  -31.8250   22.4045 N   0  0  0  0  0  0  0  0  0  0  0  0
  -29.2261  -30.3192   23.5408 N   0  3  0  0  0  0  0  0  0  0  0  0
  -30.3666  -10.0057   18.2924 O   0  0  0  0  0  0  0  0  0  0  0  0
  -21.0514  -30.0713   21.7219 O   0  0  0  0  0  0  0  0  0  0  0  0
  -23.5701  -32.1228   23.6305 O   0  0  0  0  0  0  0  0  0  0  0  0
  -27.2611  -29.9796   21.5559 O   0  0  0  0  0  0  0  0  0  0  0  0
  -27.5006  -16.9891   22.4211 O   0  0  0  0  0  0  0  0  0  0  0  0
  -22.9880  -11.3886   20.3491 O   0  0  0  0  0  0  0  0  0  0  0  0
  -23.8174  -24.1641   20.7049 O   0  0  0  0  0  0  0  0  0  1  0  0
  -21.7346   -6.3497   22.2043 F   0  0  0  0  0  0  0  0  0  0  0  0
  -21.5121  -11.0556   22.6628 F   0  0  0  0  0  0  0  0  0  0  0  0
  1  2  1  0  0  0  0
  1  5  2  0  0  0  0
  2  6  2  0  0  0  0
  3  8  2  0  0  0  0
  3 15  1  0  0  0  0
  4  9  1  0  0  0  0
  4 15  2  0  0  0  0
  5 17  1  0  0  0  0
  6 19  1  0  0  0  0
  7 10  2  0  0  0  0
  7 18  1  0  0  0  0
  8 22  1  0  0  0  0
  9 22  2  0  0  0  0
 10 23  1  0  0  0  0
 11 12  2  0  0  0  0
 11 24  1  0  0  0  0
 12 25  1  0  0  0  0
 13 20  1  0  0  0  0
 13 23  2  0  0  0  0
 14 25  2  0  0  0  0
 14 26  1  0  0  0  0
 15 27  1  0  0  0  0
 16 27  1  0  0  0  0
 16 30  2  0  0  0  0
 16 31  1  0  0  0  0
 17 19  2  0  0  0  0
 17 36  1  0  0  0  0
 18 20  2  0  0  0  0
 18 37  1  0  0  0  0
 19 47  1  0  0  0  0
 20 38  1  0  0  0  0
 21 28  1  0  0  0  0
 21 29  2  0  0  0  0
 21 52  1  0  0  0  0
 22 81  1  0  0  0  0
 23 82  1  0  0  0  0
 24 26  2  0  0  0  0
 24 81  1  0  0  0  0
 25 83  1  0  0  0  0
 26 84  1  0  0  0  0
 27 64  2  0  0  0  0
 28 60  1  0  0  0  0
 28 65  2  0  0  0  0
 29 53  1  0  0  0  0
 29 66  1  0  0  0  0
 30 67  1  0  0  0  0
 30 71  1  0  0  0  0
 31 72  1  0  0  0  0
 31 76  2  0  0  0  0
 32 48  1  0  0  0  0
 32 73  1  0  0  0  0
 32 77  2  0  0  0  0
 33 61  1  0  0  0  0
 33 68  1  0  0  0  0
 33 78  2  0  0  0  0
 34 62  1  0  0  0  0
 34 74  1  0  0  0  0
 34 79  2  0  0  0  0
 35 69  1  0  0  0  0
 35 70  1  0  0  0  0
 35 80  2  0  0  0  0
 36 39  1  0  0  0  0
 37 48  1  0  0  0  0
 38 68  1  0  0  0  0
 39 41  1  0  0  0  0
 40 42  1  0  0  0  0
 40 44  1  0  0  0  0
 41 47  1  0  0  0  0
 42 49  1  0  0  0  0
 43 45  1  0  0  0  0
 43 50  1  0  0  0  0
 44 69  1  0  0  0  0
 45 70  1  0  0  0  0
 46 49  1  0  0  0  0
 46 69  1  0  0  0  0
 47 73  1  0  0  0  0
 48 68  1  0  0  0  0
 49 67  1  0  0  0  0
 50 51  1  0  0  0  0
 50 66  1  0  0  0  0
 51 54  1  0  0  0  0
 51 70  1  0  0  0  0
 55 62  1  0  0  0  0
 56 63  1  0  0  0  0
 57 63  1  0  0  0  0
 58 63  1  0  0  0  0
 59 75  1  0  0  0  0
 60 82  1  0  0  0  0
 61 63  1  0  0  0  0
 61 74  1  0  0  0  0
 62 75  1  0  0  0  0
 64 67  1  0  0  0  0
 65 66  1  0  0  0  0
M  CHG  1  75   1
M  ISO  4  35 100  60 101  70 100  82 101
M  END
> <Batch ID>
0173

> <Smiles>
CNC(C)C(=O)NC(C(=O)N1Cc2cc([101O:1][101CH2:1]c3nn(C4CC[100N:0]([100C:0](=O)N5CCCC(n6nc(-c7ccc(Oc8ccc(F)cc8F)cc7)c(C(N)=O)c6N)C5)C4C)c(C)c3C)ccc2CC1C(=O)NC1CCCc2ccccc21)C(C)(C)C

> <Shape>
0.275

> <Color>
0.057

> <Negative vol penalty>
0.000

$$$$

  -OEChem-04052322423D

 85 94  0     1  0  0  0  0  0999 V2000
  -22.4627   -7.3741   17.8591 C   0  0  0  0  0  0  0  0  0  0  0  0
  -21.7852   -8.5570   17.5819 C   0  0  0  0  0  0  0  0  0  0  0  0
  -22.3174  -28.5902   22.8277 C   0  0  0  0  0  0  0  0  0  0  0  0
  -22.3595  -29.3357   20.5300 C   0  0  0  0  0  0  0  0  0  0  0  0
  -23.1353   -7.2249   19.0713 C   0  0  0  0  0  0  0  0  0  0  0  0
  -21.7788   -9.5912   18.5173 C   0  0  0  0  0  0  0  0  0  0  0  0
  -24.0041  -17.0404   17.7528 C   0  0  0  0  0  0  0  0  0  0  0  0
  -20.9517  -28.3289   22.7179 C   0  0  0  0  0  0  0  0  0  0  0  0
  -20.9938  -29.0744   20.4202 C   0  0  0  0  0  0  0  0  0  0  0  0
  -24.5137  -18.3386   17.7850 C   0  0  0  0  0  0  0  0  0  0  0  0
  -18.0674  -30.0904   22.7670 C   0  0  0  0  0  0  0  0  0  0  0  0
  -17.2414  -30.5152   23.8076 C   0  0  0  0  0  0  0  0  0  0  0  0
  -24.8948  -18.1413   20.1649 C   0  0  0  0  0  0  0  0  0  0  0  0
  -16.5528  -28.2317   24.1932 C   0  0  0  0  0  0  0  0  0  0  0  0
  -23.0214  -29.0936   21.7337 C   0  0  0  0  0  0  0  0  0  0  0  0
  -25.0578  -30.2571   22.7372 C   0  0  0  0  0  0  0  0  0  0  0  0
  -23.1453   -8.2614   20.0180 C   0  0  0  0  0  0  0  0  0  0  0  0
  -23.9521  -16.2813   18.9251 C   0  0  0  0  0  0  0  0  0  0  0  0
  -22.4510   -9.4552   19.7438 C   0  0  0  0  0  0  0  0  0  0  0  0
  -24.3969  -16.8359   20.1365 C   0  0  0  0  0  0  0  0  0  0  0  0
  -20.2899  -28.5710   21.5142 C   0  0  0  0  0  0  0  0  0  0  0  0
  -24.9577  -18.8878   18.9882 C   0  0  0  0  0  0  0  0  0  0  0  0
  -18.1361  -28.7362   22.4395 C   0  0  0  0  0  0  0  0  0  0  0  0
  -16.4841  -29.5859   24.5207 C   0  0  0  0  0  0  0  0  0  0  0  0
  -17.3788  -27.8069   23.1526 C   0  0  0  0  0  0  0  0  0  0  0  0
  -24.4321  -29.3642   21.8467 C   0  0  0  0  0  0  0  0  0  0  0  0
  -26.3961  -30.1491   22.4479 C   0  0  0  0  0  0  0  0  0  0  0  0
  -24.4808  -31.1080   23.7366 C   0  0  0  0  0  0  0  0  0  0  0  0
  -23.0510  -13.0143   20.5348 C   0  0  0  0  0  0  0  0  0  0  0  0
  -25.7028  -13.9208   21.7823 C   0  0  0  0  0  0  0  0  0  0  0  0
  -28.7189  -14.7701   22.0737 C   0  0  0  0  0  0  0  0  0  0  0  0
  -29.7042  -25.7881   20.0211 C   0  0  0  0  0  0  0  0  0  0  0  0
  -23.8465   -8.0358   21.3340 C   0  0  0  0  0  0  0  0  0  0  0  0
  -23.3541  -14.9008   18.9486 C   0  0  0  0  0  0  0  0  0  0  0  0
  -24.2898  -15.9948   21.3790 C   0  0  0  0  0  0  0  0  0  0  0  0
  -24.1051   -9.3219   22.1147 C   0  0  0  0  0  0  0  0  0  0  0  0
  -31.9030  -23.2816   23.2346 C   0  0  0  0  0  0  0  0  0  0  0  0
  -30.9848  -22.2522   23.8884 C   0  0  0  0  0  0  0  0  0  0  0  0
  -29.3788  -29.1338   18.8475 C   0  0  0  0  0  0  0  0  0  0  0  0
  -22.8524  -10.1920   22.1401 C   0  0  0  0  0  0  0  0  0  0  0  0
  -28.1306  -29.6528   19.5634 C   0  0  0  0  0  0  0  0  0  0  0  0
  -31.1156  -24.4492   22.6409 C   0  0  0  0  0  0  0  0  0  0  0  0
  -29.9089  -21.7625   22.9210 C   0  0  0  0  0  0  0  0  0  0  0  0
  -25.8716  -21.4878   20.9474 C   0  0  0  0  0  0  0  0  0  0  0  0
  -29.2403  -27.6611   18.4677 C   0  0  0  0  0  0  0  0  0  0  0  0
  -27.6349  -27.2839   20.2992 C   0  0  0  0  0  0  0  0  0  0  0  0
  -26.8749  -21.9159   22.0041 C   0  0  0  0  0  0  0  0  0  0  0  0
  -28.7625  -21.3456   20.4551 C   0  0  0  0  0  0  0  0  0  0  0  0
  -22.4418  -10.6092   20.7227 C   0  0  1  0  0  0  0  0  0  0  0  0
  -24.0566  -13.9556   19.9397 C   0  0  1  0  0  0  0  0  0  0  0  0
  -27.7495  -28.7496   20.7518 C   0  0  2  0  0  0  0  0  0  0  0  0
  -30.0395  -23.9616   21.6652 C   0  0  1  0  0  0  0  0  0  0  0  0
  -29.1207  -22.9365   22.3414 C   0  0  1  0  0  0  0  0  0  0  0  0
  -26.4498  -20.4406   19.9948 C   0  0  2  0  0  0  0  0  0  1  0  0
  -27.7852  -20.8949   19.3488 C   0  0  0  0  0  0  0  0  0  0  0  0
  -27.5649  -22.0265   18.3216 C   0  0  0  0  0  0  0  0  0  0  0  0
  -28.4322  -19.7125   18.5971 C   0  0  0  0  0  0  0  0  0  0  0  0
  -31.1320  -15.1756   22.6302 C   0  0  0  0  0  0  0  0  0  0  0  0
  -24.1840  -14.9227   24.2304 C   0  0  0  0  0  0  0  0  0  0  0  0
  -26.3871  -15.2634   25.3699 C   0  0  0  0  0  0  0  0  0  0  0  0
  -25.6915  -12.9746   24.6627 C   0  0  0  0  0  0  0  0  0  0  0  0
  -29.5907  -12.3860   20.5522 C   0  0  0  0  0  0  0  0  0  0  0  0
  -26.3851  -14.6569   22.9075 C   0  0  1  0  0  0  0  0  0  0  0  0
  -30.0845  -14.1353   22.2653 C   0  0  2  0  0  0  0  0  0  0  0  0
  -25.6564  -14.4671   24.2678 C   0  0  0  0  0  0  0  0  0  0  0  0
  -25.3015  -28.7355   21.0511 N   0  0  0  0  0  0  0  0  0  0  0  0
  -26.4871  -29.2340   21.4407 N   0  0  0  0  0  0  0  0  0  0  0  0
  -24.7036  -14.6133   21.0877 N   0  0  0  0  0  0  0  0  0  0  0  0
  -28.8795  -26.8591   19.6393 N   0  0  0  0  0  0  0  0  0  0  0  0
  -27.4922  -30.7487   22.9594 N   0  0  0  0  0  0  0  0  0  0  0  0
  -24.3187  -30.6011   25.0331 N   0  0  0  0  0  0  0  0  0  0  0  0
  -23.2870  -11.6835   20.2473 N   0  0  0  0  0  0  0  0  0  0  0  0
  -27.7735  -14.2087   22.9058 N   0  0  0  0  0  0  0  0  0  0  0  0
  -29.2932  -25.0839   21.1462 N   0  0  0  0  0  0  0  0  0  0  0  0
  -28.1361  -22.4019   21.3361 N   0  3  2  0  0  0  0  0  0  0  0  0
  -30.5177  -13.4509   21.0143 N   0  3  0  0  0  0  0  0  0  0  0  0
  -24.1046  -32.2776   23.4832 O   0  0  0  0  0  0  0  0  0  0  0  0
  -22.1289  -13.4613   21.2070 O   0  0  0  0  0  0  0  0  0  0  0  0
  -26.0406  -12.7614   21.5278 O   0  0  0  0  0  0  0  0  0  0  0  0
  -28.5124  -15.6760   21.2693 O   0  0  0  0  0  0  0  0  0  0  0  0
  -30.7336  -25.4855   19.4082 O   0  0  0  0  0  0  0  0  0  0  0  0
  -18.9572  -28.3160   21.4066 O   0  0  0  0  0  0  0  0  0  0  0  0
  -25.4582  -20.1541   19.0118 O   0  0  0  0  0  0  0  0  0  1  0  0
  -15.6921  -29.9938   25.5210 F   0  0  0  0  0  0  0  0  0  0  0  0
  -17.4415  -26.5045   22.8432 F   0  0  0  0  0  0  0  0  0  0  0  0
  1  2  1  0  0  0  0
  1  5  2  0  0  0  0
  2  6  2  0  0  0  0
  3  8  2  0  0  0  0
  3 15  1  0  0  0  0
  4  9  1  0  0  0  0
  4 15  2  0  0  0  0
  5 17  1  0  0  0  0
  6 19  1  0  0  0  0
  7 10  2  0  0  0  0
  7 18  1  0  0  0  0
  8 21  1  0  0  0  0
  9 21  2  0  0  0  0
 10 22  1  0  0  0  0
 11 12  2  0  0  0  0
 11 23  1  0  0  0  0
 12 24  1  0  0  0  0
 13 20  1  0  0  0  0
 13 22  2  0  0  0  0
 14 24  2  0  0  0  0
 14 25  1  0  0  0  0
 15 26  1  0  0  0  0
 16 26  1  0  0  0  0
 16 27  2  0  0  0  0
 16 28  1  0  0  0  0
 17 19  2  0  0  0  0
 17 33  1  0  0  0  0
 18 20  2  0  0  0  0
 18 34  1  0  0  0  0
 19 49  1  0  0  0  0
 20 35  1  0  0  0  0
 21 82  1  0  0  0  0
 22 83  1  0  0  0  0
 23 25  2  0  0  0  0
 23 82  1  0  0  0  0
 24 84  1  0  0  0  0
 25 85  1  0  0  0  0
 26 66  2  0  0  0  0
 27 67  1  0  0  0  0
 27 70  1  0  0  0  0
 28 71  1  0  0  0  0
 28 77  2  0  0  0  0
 29 50  1  0  0  0  0
 29 72  1  0  0  0  0
 29 78  2  0  0  0  0
 30 63  1  0  0  0  0
 30 68  1  0  0  0  0
 30 79  2  0  0  0  0
 31 64  1  0  0  0  0
 31 73  1  0  0  0  0
 31 80  2  0  0  0  0
 32 69  1  0  0  0  0
 32 74  1  0  0  0  0
 32 81  2  0  0  0  0
 33 36  1  0  0  0  0
 34 50  1  0  0  0  0
 35 68  1  0  0  0  0
 36 40  1  0  0  0  0
 37 38  1  0  0  0  0
 37 42  1  0  0  0  0
 38 43  1  0  0  0  0
 39 41  1  0  0  0  0
 39 45  1  0  0  0  0
 40 49  1  0  0  0  0
 41 51  1  0  0  0  0
 42 52  1  0  0  0  0
 43 53  1  0  0  0  0
 44 47  1  0  0  0  0
 44 54  1  0  0  0  0
 45 69  1  0  0  0  0
 46 51  1  0  0  0  0
 46 69  1  0  0  0  0
 47 75  1  0  0  0  0
 48 55  1  0  0  0  0
 48 75  1  0  0  0  0
 49 72  1  0  0  0  0
 50 68  1  0  0  0  0
 51 67  1  0  0  0  0
 52 53  1  0  0  0  0
 52 74  1  0  0  0  0
 53 75  1  0  0  0  0
 54 55  1  0  0  0  0
 54 83  1  0  0  0  0
 55 56  1  0  0  0  0
 55 57  1  0  0  0  0
 58 64  1  0  0  0  0
 59 65  1  0  0  0  0
 60 65  1  0  0  0  0
 61 65  1  0  0  0  0
 62 76  1  0  0  0  0
 63 65  1  0  0  0  0
 63 73  1  0  0  0  0
 64 76  1  0  0  0  0
 66 67  1  0  0  0  0
M  CHG  2  75   1  76   1
M  ISO  4  32 100  54 101  74 100  83 101
M  END
> <Batch ID>
0173

> <Smiles>
CNC(C)C(=O)NC(C(=O)N1Cc2cc([101O:1][101CH:1]3CCN(C4CCCCC4[100NH:0][100C:0](=O)N4CCCC(n5nc(-c6ccc(Oc7ccc(F)cc7F)cc6)c(C(N)=O)c5N)C4)CC3(C)C)ccc2CC1C(=O)NC1CCCc2ccccc21)C(C)(C)C

> <Shape>
0.277

> <Color>
0.070

> <Negative vol penalty>
0.000

$$$$

  -OEChem-04052322423D

 85 94  0     1  0  0  0  0  0999 V2000
  -29.1493  -32.9360   26.1803 C   0  0  0  0  0  0  0  0  0  0  0  0
  -28.8820  -31.7111   25.5773 C   0  0  0  0  0  0  0  0  0  0  0  0
  -24.3242   -8.5185   20.4649 C   0  0  0  0  0  0  0  0  0  0  0  0
  -22.9869  -10.4620   20.9862 C   0  0  0  0  0  0  0  0  0  0  0  0
  -28.1096  -33.8310   26.4288 C   0  0  0  0  0  0  0  0  0  0  0  0
  -27.5745  -31.3801   25.2234 C   0  0  0  0  0  0  0  0  0  0  0  0
  -27.2690  -29.3544   20.5922 C   0  0  0  0  0  0  0  0  0  0  0  0
  -23.2991   -7.6905   20.9224 C   0  0  0  0  0  0  0  0  0  0  0  0
  -21.9618   -9.6339   21.4436 C   0  0  0  0  0  0  0  0  0  0  0  0
  -27.6367  -28.0164   20.4569 C   0  0  0  0  0  0  0  0  0  0  0  0
  -22.1000   -6.6229   23.8967 C   0  0  0  0  0  0  0  0  0  0  0  0
  -22.4501   -5.5565   24.7248 C   0  0  0  0  0  0  0  0  0  0  0  0
  -25.3100  -27.3804   20.4857 C   0  0  0  0  0  0  0  0  0  0  0  0
  -28.6072  -21.7397   20.8624 C   0  0  0  0  0  0  0  0  0  0  0  0
  -21.5276   -4.0058   23.1181 C   0  0  0  0  0  0  0  0  0  0  0  0
  -24.1681   -9.9043   20.4969 C   0  0  0  0  0  0  0  0  0  0  0  0
  -25.4122  -11.2395   18.7144 C   0  0  0  0  0  0  0  0  0  0  0  0
  -26.7900  -33.5148   26.0690 C   0  0  0  0  0  0  0  0  0  0  0  0
  -25.9172  -29.7151   20.6863 C   0  0  0  0  0  0  0  0  0  0  0  0
  -26.5159  -32.2711   25.4685 C   0  0  0  0  0  0  0  0  0  0  0  0
  -24.9277  -28.7239   20.6195 C   0  0  0  0  0  0  0  0  0  0  0  0
  -28.4201  -23.0921   21.0884 C   0  0  0  0  0  0  0  0  0  0  0  0
  -22.1179   -8.2482   21.4116 C   0  0  0  0  0  0  0  0  0  0  0  0
  -26.6573  -27.0289   20.4066 C   0  0  0  0  0  0  0  0  0  0  0  0
  -21.4636   -6.3808   22.6793 C   0  0  0  0  0  0  0  0  0  0  0  0
  -22.1640   -4.2480   24.3356 C   0  0  0  0  0  0  0  0  0  0  0  0
  -21.1775   -5.0722   22.2900 C   0  0  0  0  0  0  0  0  0  0  0  0
  -25.2268  -10.7602   20.0251 C   0  0  0  0  0  0  0  0  0  0  0  0
  -28.5943  -23.9549   20.0251 C   0  0  0  0  0  0  0  0  0  0  0  0
  -28.9558  -21.3397   19.5880 C   0  0  0  0  0  0  0  0  0  0  0  0
  -26.5506  -12.0046   18.7864 C   0  0  0  0  0  0  0  0  0  0  0  0
  -24.6256  -11.0134   17.5372 C   0  0  0  0  0  0  0  0  0  0  0  0
  -24.1229  -31.1350   22.8926 C   0  0  0  0  0  0  0  0  0  0  0  0
  -21.8571  -31.0038   20.5750 C   0  0  0  0  0  0  0  0  0  0  0  0
  -20.6973  -29.5010   17.7389 C   0  0  0  0  0  0  0  0  0  0  0  0
  -29.6825  -15.8389   21.3621 C   0  0  0  0  0  0  0  0  0  0  0  0
  -25.6925  -34.4946   26.4007 C   0  0  0  0  0  0  0  0  0  0  0  0
  -25.5360  -31.1652   20.8050 C   0  0  0  0  0  0  0  0  0  0  0  0
  -23.4616  -29.0605   20.6959 C   0  0  0  0  0  0  0  0  0  0  0  0
  -24.3885  -34.2242   25.6546 C   0  0  0  0  0  0  0  0  0  0  0  0
  -29.9756  -12.4711   22.4794 C   0  0  0  0  0  0  0  0  0  0  0  0
  -24.0338  -32.7420   25.7196 C   0  0  0  0  0  0  0  0  0  0  0  0
  -28.7786  -11.7673   21.8377 C   0  0  0  0  0  0  0  0  0  0  0  0
  -29.6320  -13.8982   22.9006 C   0  0  0  0  0  0  0  0  0  0  0  0
  -27.8627  -14.0347   21.1904 C   0  0  0  0  0  0  0  0  0  0  0  0
  -28.9936  -18.9592   20.3910 C   0  0  0  0  0  0  0  0  0  0  0  0
  -29.5166  -19.4197   18.0680 C   0  0  0  0  0  0  0  0  0  0  0  0
  -25.1142  -31.8862   25.0476 C   0  0  1  0  0  0  0  0  0  0  0  0
  -24.1503  -31.3713   21.4090 C   0  0  1  0  0  0  0  0  0  0  0  0
  -28.1766  -12.6115   20.6983 C   0  0  2  0  0  0  0  0  0  0  0  0
  -29.6081  -17.7158   19.7400 C   0  0  2  0  0  0  0  0  0  0  0  0
  -29.2776  -17.9251   18.2696 C   0  0  2  0  0  0  0  0  0  0  0  0
  -28.0432  -23.5763   22.4456 C   0  0  0  0  0  0  0  0  0  0  0  0
  -18.8013  -29.5888   16.0973 C   0  0  0  0  0  0  0  0  0  0  0  0
  -20.0399  -29.6283   22.6039 C   0  0  0  0  0  0  0  0  0  0  0  0
  -18.5815  -28.9040   20.7022 C   0  0  0  0  0  0  0  0  0  0  0  0
  -18.9016  -31.3330   21.1711 C   0  0  0  0  0  0  0  0  0  0  0  0
  -22.5205  -30.1121   15.4892 C   0  0  0  0  0  0  0  0  0  0  0  0
  -28.4088  -25.4341   20.1948 C   0  0  0  0  0  0  0  0  0  1  0  0
  -20.8028  -30.0036   20.1660 C   0  0  1  0  0  0  0  0  0  0  0  0
  -20.2043  -30.0764   16.4235 C   0  0  2  0  0  0  0  0  0  0  0  0
  -19.6091  -29.9604   21.1613 C   0  0  0  0  0  0  0  0  0  0  0  0
  -26.1718  -11.1850   20.8679 N   0  0  0  0  0  0  0  0  0  0  0  0
  -28.9357  -23.5355   18.7882 N   0  0  0  0  0  0  0  0  0  0  0  0
  -29.1192  -22.2063   18.5661 N   0  0  0  0  0  0  0  0  0  0  0  0
  -26.9620  -11.9393   20.0851 N   0  0  0  0  0  0  0  0  0  0  0  0
  -29.1422  -19.9927   19.3629 N   0  0  3  0  0  0  0  0  0  0  0  0
  -23.1396  -30.4919   20.8179 N   0  0  0  0  0  0  0  0  0  0  0  0
  -29.0672  -14.6455   21.7744 N   0  0  0  0  0  0  0  0  0  0  0  0
  -27.2298  -12.7200   17.8649 N   0  0  0  0  0  0  0  0  0  0  0  0
  -23.4875  -10.2019   17.6397 N   0  0  0  0  0  0  0  0  0  0  0  0
  -24.9834  -31.9461   23.6075 N   0  0  0  0  0  0  0  0  0  0  0  0
  -20.4278  -30.3425   18.7975 N   0  0  0  0  0  0  0  0  0  0  0  0
  -29.0871  -16.4812   20.2834 N   0  0  0  0  0  0  0  0  0  0  0  0
  -30.1513  -17.1213   17.3966 N   0  3  0  0  0  0  0  0  0  0  0  0
  -21.1114  -29.6764   15.3108 N   0  3  0  0  0  0  0  0  0  0  0  0
  -24.9323  -11.5028   16.4237 O   0  0  0  0  0  0  0  0  0  0  0  0
  -23.3752  -30.2811   23.3547 O   0  0  0  0  0  0  0  0  0  0  0  0
  -21.5555  -32.1962   20.6685 O   0  0  0  0  0  0  0  0  0  0  0  0
  -21.2614  -28.4121   17.8199 O   0  0  0  0  0  0  0  0  0  0  0  0
  -30.6912  -16.2953   21.9110 O   0  0  0  0  0  0  0  0  0  0  0  0
  -21.1174   -7.4405   21.8578 O   0  0  0  0  0  0  0  0  0  0  0  0
  -27.0135  -25.7221   20.2753 O   0  0  0  0  0  0  0  0  0  1  0  0
  -22.5016   -3.2239   25.1302 F   0  0  0  0  0  0  0  0  0  0  0  0
  -20.5673   -4.8333   21.1210 F   0  0  0  0  0  0  0  0  0  0  0  0
  1  2  1  0  0  0  0
  1  5  2  0  0  0  0
  2  6  2  0  0  0  0
  3  8  2  0  0  0  0
  3 16  1  0  0  0  0
  4  9  1  0  0  0  0
  4 16  2  0  0  0  0
  5 18  1  0  0  0  0
  6 20  1  0  0  0  0
  7 10  2  0  0  0  0
  7 19  1  0  0  0  0
  8 23  1  0  0  0  0
  9 23  2  0  0  0  0
 10 24  1  0  0  0  0
 11 12  2  0  0  0  0
 11 25  1  0  0  0  0
 12 26  1  0  0  0  0
 13 21  1  0  0  0  0
 13 24  2  0  0  0  0
 14 22  1  0  0  0  0
 14 30  2  0  0  0  0
 15 26  2  0  0  0  0
 15 27  1  0  0  0  0
 16 28  1  0  0  0  0
 17 28  1  0  0  0  0
 17 31  2  0  0  0  0
 17 32  1  0  0  0  0
 18 20  2  0  0  0  0
 18 37  1  0  0  0  0
 19 21  2  0  0  0  0
 19 38  1  0  0  0  0
 20 48  1  0  0  0  0
 21 39  1  0  0  0  0
 22 29  2  0  0  0  0
 22 53  1  0  0  0  0
 23 82  1  0  0  0  0
 24 83  1  0  0  0  0
 25 27  2  0  0  0  0
 25 82  1  0  0  0  0
 26 84  1  0  0  0  0
 27 85  1  0  0  0  0
 28 63  2  0  0  0  0
 29 59  1  0  0  0  0
 29 64  1  0  0  0  0
 30 65  1  0  0  0  0
 30 67  1  0  0  0  0
 31 66  1  0  0  0  0
 31 70  1  0  0  0  0
 32 71  1  0  0  0  0
 32 77  2  0  0  0  0
 33 49  1  0  0  0  0
 33 72  1  0  0  0  0
 33 78  2  0  0  0  0
 34 60  1  0  0  0  0
 34 68  1  0  0  0  0
 34 79  2  0  0  0  0
 35 61  1  0  0  0  0
 35 73  1  0  0  0  0
 35 80  2  0  0  0  0
 36 69  1  0  0  0  0
 36 74  1  0  0  0  0
 36 81  2  0  0  0  0
 37 40  1  0  0  0  0
 38 49  1  0  0  0  0
 39 68  1  0  0  0  0
 40 42  1  0  0  0  0
 41 43  1  0  0  0  0
 41 44  1  0  0  0  0
 42 48  1  0  0  0  0
 43 50  1  0  0  0  0
 44 69  1  0  0  0  0
 45 50  1  0  0  0  0
 45 69  1  0  0  0  0
 46 51  1  0  0  0  0
 46 67  1  0  0  0  0
 47 52  1  0  0  0  0
 47 67  1  0  0  0  0
 48 72  1  0  0  0  0
 49 68  1  0  0  0  0
 50 66  1  0  0  0  0
 51 52  1  0  0  0  0
 51 74  1  0  0  0  0
 52 75  1  0  0  0  0
 54 61  1  0  0  0  0
 55 62  1  0  0  0  0
 56 62  1  0  0  0  0
 57 62  1  0  0  0  0
 58 76  1  0  0  0  0
 59 83  1  0  0  0  0
 60 62  1  0  0  0  0
 60 73  1  0  0  0  0
 61 76  1  0  0  0  0
 63 66  1  0  0  0  0
 64 65  2  0  0  0  0
M  CHG  2  75   1  76   1
M  ISO  4  36 100  59 101  74 100  83 101
M  END
> <Batch ID>
0173

> <Smiles>
CNC(C)C(=O)NC(C(=O)N1Cc2cc([101O:1][101CH2:1]c3nnc(N4CC(N)C([100NH:0][100C:0](=O)N5CCCC(n6nc(-c7ccc(Oc8ccc(F)cc8F)cc7)c(C(N)=O)c6N)C5)C4)cc3C)ccc2CC1C(=O)NC1CCCc2ccccc21)C(C)(C)C

> <Shape>
0.343

> <Color>
0.117

> <Negative vol penalty>
0.000

$$$$

  -OEChem-04052322423D

 85 94  0     1  0  0  0  0  0999 V2000
  -17.4267  -10.0512   23.2132 C   0  0  0  0  0  0  0  0  0  0  0  0
  -18.7620  -10.3799   23.0027 C   0  0  0  0  0  0  0  0  0  0  0  0
  -23.1901  -10.2131   22.1501 C   0  0  0  0  0  0  0  0  0  0  0  0
  -23.8091   -9.4895   19.9297 C   0  0  0  0  0  0  0  0  0  0  0  0
  -16.6031  -10.9138   23.9353 C   0  0  0  0  0  0  0  0  0  0  0  0
  -19.2742  -11.5721   23.5134 C   0  0  0  0  0  0  0  0  0  0  0  0
  -24.9313  -12.5306   25.6543 C   0  0  0  0  0  0  0  0  0  0  0  0
  -22.4593   -9.0386   22.3291 C   0  0  0  0  0  0  0  0  0  0  0  0
  -23.0783   -8.3149   20.1087 C   0  0  0  0  0  0  0  0  0  0  0  0
  -26.0698  -13.0920   25.0777 C   0  0  0  0  0  0  0  0  0  0  0  0
  -23.4812   -5.3467   21.6733 C   0  0  0  0  0  0  0  0  0  0  0  0
  -24.0766   -4.1484   21.2796 C   0  0  0  0  0  0  0  0  0  0  0  0
  -25.5252  -15.2155   26.0843 C   0  0  0  0  0  0  0  0  0  0  0  0
  -22.2701   -3.7623   19.7225 C   0  0  0  0  0  0  0  0  0  0  0  0
  -23.8650  -10.4386   20.9503 C   0  0  0  0  0  0  0  0  0  0  0  0
  -24.1316  -12.9716   20.8082 C   0  0  0  0  0  0  0  0  0  0  0  0
  -17.1078  -12.1125   24.4633 C   0  0  0  0  0  0  0  0  0  0  0  0
  -24.0739  -13.3115   26.4426 C   0  0  0  0  0  0  0  0  0  0  0  0
  -18.4562  -12.4522   24.2421 C   0  0  0  0  0  0  0  0  0  0  0  0
  -24.3778  -14.6610   26.6719 C   0  0  0  0  0  0  0  0  0  0  0  0
  -31.8938  -14.2849   25.9181 C   0  0  0  0  0  0  0  0  0  0  0  0
  -31.1108  -14.0766   24.7881 C   0  0  0  0  0  0  0  0  0  0  0  0
  -31.4508  -13.0719   23.8891 C   0  0  0  0  0  0  0  0  0  0  0  0
  -22.4034   -8.0895   21.3085 C   0  0  0  0  0  0  0  0  0  0  0  0
  -26.3654  -14.4353   25.2903 C   0  0  0  0  0  0  0  0  0  0  0  0
  -22.2801   -5.7529   21.0916 C   0  0  0  0  0  0  0  0  0  0  0  0
  -23.4711   -3.3562   20.3042 C   0  0  0  0  0  0  0  0  0  0  0  0
  -21.6747   -4.9607   20.1162 C   0  0  0  0  0  0  0  0  0  0  0  0
  -24.6196  -11.6519   20.7645 C   0  0  0  0  0  0  0  0  0  0  0  0
  -32.9977  -13.4680   26.1018 C   0  0  0  0  0  0  0  0  0  0  0  0
  -32.5747  -12.3094   24.1636 C   0  0  0  0  0  0  0  0  0  0  0  0
  -25.2357  -13.7540   20.5726 C   0  0  0  0  0  0  0  0  0  0  0  0
  -22.7994  -13.4478   21.0411 C   0  0  0  0  0  0  0  0  0  0  0  0
  -21.0271  -14.1951   26.2435 C   0  0  0  0  0  0  0  0  0  0  0  0
  -21.6007  -15.4389   29.1840 C   0  0  0  0  0  0  0  0  0  0  0  0
  -23.8735  -16.6403   31.4285 C   0  0  0  0  0  0  0  0  0  0  0  0
  -31.0922  -12.9053   21.4012 C   0  0  0  0  0  0  0  0  0  0  0  0
  -16.1673  -13.0356   25.1968 C   0  0  0  0  0  0  0  0  0  0  0  0
  -22.8641  -12.6843   27.0794 C   0  0  0  0  0  0  0  0  0  0  0  0
  -23.5005  -15.5373   27.5268 C   0  0  0  0  0  0  0  0  0  0  0  0
  -16.8816  -14.1008   26.0246 C   0  0  0  0  0  0  0  0  0  0  0  0
  -29.4666  -13.6823   18.3302 C   0  0  0  0  0  0  0  0  0  0  0  0
  -31.3713  -14.9823   28.3501 C   0  0  0  0  0  0  0  0  0  0  0  0
  -30.1830  -15.3664   27.5250 C   0  0  0  0  0  0  0  0  0  0  0  0
  -17.9937  -14.7534   25.2096 C   0  0  0  0  0  0  0  0  0  0  0  0
  -27.9939  -13.3757   18.6118 C   0  0  0  0  0  0  0  0  0  0  0  0
  -30.3957  -12.6889   19.0256 C   0  0  0  0  0  0  0  0  0  0  0  0
  -28.6980  -12.2272   20.7501 C   0  0  0  0  0  0  0  0  0  0  0  0
  -31.5539  -15.3542   26.9028 C   0  0  0  0  0  0  0  0  0  0  0  0
  -19.0549  -13.7246   24.8013 C   0  0  1  0  0  0  0  0  0  0  0  0
  -21.7856  -13.7004   27.4425 C   0  0  1  0  0  0  0  0  0  0  0  0
  -27.7256  -13.2398   20.1235 C   0  0  2  0  0  0  0  0  0  0  0  0
  -33.8780  -13.6427   27.2965 C   0  0  0  0  0  0  0  0  0  0  0  0
  -32.9927  -11.2141   23.2370 C   0  0  0  0  0  0  0  0  0  0  0  0
  -30.0399  -15.7490   23.2429 C   0  0  0  0  0  0  0  0  0  0  0  0
  -24.0378  -17.6187   33.7336 C   0  0  0  0  0  0  0  0  0  0  0  0
  -20.5428  -18.0988   28.1277 C   0  0  0  0  0  0  0  0  0  0  0  0
  -21.5952  -19.2219   30.1024 C   0  0  0  0  0  0  0  0  0  0  0  0
  -19.7980  -17.5263   30.4455 C   0  0  0  0  0  0  0  0  0  0  0  0
  -25.5856  -14.4195   32.3750 C   0  0  0  0  0  0  0  0  0  0  0  0
  -28.5929  -14.1234   24.5177 C   0  0  0  0  0  0  0  0  0  1  0  0
  -29.8885  -14.9459   24.5378 C   0  0  1  0  0  0  0  0  0  0  0  0
  -22.0933  -16.7672   29.7054 C   0  0  1  0  0  0  0  0  0  0  0  0
  -24.0858  -16.3459   32.9026 C   0  0  2  0  0  0  0  0  0  0  0  0
  -21.0230  -17.8878   29.5775 C   0  0  0  0  0  0  0  0  0  0  0  0
  -25.9315  -11.5951   20.5202 N   0  0  0  0  0  0  0  0  0  0  0  0
  -33.3596  -12.4820   25.2506 N   0  0  0  0  0  0  0  0  0  0  0  0
  -26.2772  -12.8889   20.4082 N   0  0  0  0  0  0  0  0  0  0  0  0
  -22.3258  -14.8794   28.1224 N   0  0  0  0  0  0  0  0  0  0  0  0
  -30.0860  -12.6162   20.4552 N   0  0  0  0  0  0  0  0  0  0  0  0
  -25.4074  -15.0905   20.4921 N   0  0  0  0  0  0  0  0  0  0  0  0
  -22.4058  -13.7137   22.3597 N   0  0  0  0  0  0  0  0  0  0  0  0
  -30.6722  -12.8355   22.7291 N   0  0  0  0  0  0  0  0  0  0  0  0
  -19.9259  -13.4264   25.9180 N   0  0  0  0  0  0  0  0  0  0  0  0
  -22.5466  -16.5270   31.0711 N   0  0  0  0  0  0  0  0  0  0  0  0
  -25.4097  -15.6954   33.1154 N   0  3  0  0  0  0  0  0  0  0  0  0
  -21.9770  -13.6165   20.1090 O   0  0  0  0  0  0  0  0  0  0  0  0
  -21.4115  -15.2007   25.6581 O   0  0  0  0  0  0  0  0  0  0  0  0
  -20.6134  -14.9135   29.7043 O   0  0  0  0  0  0  0  0  0  0  0  0
  -24.7922  -16.9442   30.6709 O   0  0  0  0  0  0  0  0  0  0  0  0
  -32.2345  -13.2202   21.0578 O   0  0  0  0  0  0  0  0  0  0  0  0
  -21.6906   -6.9432   21.4830 O   0  0  0  0  0  0  0  0  0  0  0  0
  -27.4757  -14.9859   24.7282 O   0  0  0  0  0  0  0  0  0  1  0  0
  -24.0439   -2.2062   19.9252 F   0  0  0  0  0  0  0  0  0  0  0  0
  -20.5215   -5.3462   19.5529 F   0  0  0  0  0  0  0  0  0  0  0  0
  1  2  1  0  0  0  0
  1  5  2  0  0  0  0
  2  6  2  0  0  0  0
  3  8  2  0  0  0  0
  3 15  1  0  0  0  0
  4  9  1  0  0  0  0
  4 15  2  0  0  0  0
  5 17  1  0  0  0  0
  6 19  1  0  0  0  0
  7 10  2  0  0  0  0
  7 18  1  0  0  0  0
  8 24  1  0  0  0  0
  9 24  2  0  0  0  0
 10 25  1  0  0  0  0
 11 12  2  0  0  0  0
 11 26  1  0  0  0  0
 12 27  1  0  0  0  0
 13 20  1  0  0  0  0
 13 25  2  0  0  0  0
 14 27  2  0  0  0  0
 14 28  1  0  0  0  0
 15 29  1  0  0  0  0
 16 29  1  0  0  0  0
 16 32  2  0  0  0  0
 16 33  1  0  0  0  0
 17 19  2  0  0  0  0
 17 38  1  0  0  0  0
 18 20  2  0  0  0  0
 18 39  1  0  0  0  0
 19 50  1  0  0  0  0
 20 40  1  0  0  0  0
 21 22  2  0  0  0  0
 21 30  1  0  0  0  0
 21 49  1  0  0  0  0
 22 23  1  0  0  0  0
 22 62  1  0  0  0  0
 23 31  2  0  0  0  0
 23 73  1  0  0  0  0
 24 82  1  0  0  0  0
 25 83  1  0  0  0  0
 26 28  2  0  0  0  0
 26 82  1  0  0  0  0
 27 84  1  0  0  0  0
 28 85  1  0  0  0  0
 29 66  2  0  0  0  0
 30 53  1  0  0  0  0
 30 67  2  0  0  0  0
 31 54  1  0  0  0  0
 31 67  1  0  0  0  0
 32 68  1  0  0  0  0
 32 71  1  0  0  0  0
 33 72  1  0  0  0  0
 33 77  2  0  0  0  0
 34 51  1  0  0  0  0
 34 74  1  0  0  0  0
 34 78  2  0  0  0  0
 35 63  1  0  0  0  0
 35 69  1  0  0  0  0
 35 79  2  0  0  0  0
 36 64  1  0  0  0  0
 36 75  1  0  0  0  0
 36 80  2  0  0  0  0
 37 70  1  0  0  0  0
 37 73  1  0  0  0  0
 37 81  2  0  0  0  0
 38 41  1  0  0  0  0
 39 51  1  0  0  0  0
 40 69  1  0  0  0  0
 41 45  1  0  0  0  0
 42 46  1  0  0  0  0
 42 47  1  0  0  0  0
 43 44  1  0  0  0  0
 43 49  1  0  0  0  0
 44 49  1  0  0  0  0
 45 50  1  0  0  0  0
 46 52  1  0  0  0  0
 47 70  1  0  0  0  0
 48 52  1  0  0  0  0
 48 70  1  0  0  0  0
 50 74  1  0  0  0  0
 51 69  1  0  0  0  0
 52 68  1  0  0  0  0
 55 62  1  0  0  0  0
 56 64  1  0  0  0  0
 57 65  1  0  0  0  0
 58 65  1  0  0  0  0
 59 65  1  0  0  0  0
 60 76  1  0  0  0  0
 61 62  1  0  0  0  0
 61 83  1  0  0  0  0
 63 65  1  0  0  0  0
 63 75  1  0  0  0  0
 64 76  1  0  0  0  0
 66 68  1  0  0  0  0
M  CHG  1  76   1
M  ISO  4  37 100  61 101  73 100  83 101
M  END
> <Batch ID>
0173

> <Smiles>
CNC(C)C(=O)NC(C(=O)N1Cc2cc([101O:1][101CH2:1]C(C)c3c([100NH:0][100C:0](=O)N4CCCC(n5nc(-c6ccc(Oc7ccc(F)cc7F)cc6)c(C(N)=O)c5N)C4)c(C)nc(C)c3C3CC3)ccc2CC1C(=O)NC1CCCc2ccccc21)C(C)(C)C

> <Shape>
0.120

> <Color>
0.155

> <Negative vol penalty>
0.000

$$$$

  -OEChem-04052322423D

 83 92  0     1  0  0  0  0  0999 V2000
  -23.9899  -33.1797   28.5111 C   0  0  0  0  0  0  0  0  0  0  0  0
  -24.9490  -32.5280   27.7425 C   0  0  0  0  0  0  0  0  0  0  0  0
  -26.4605  -12.6463   21.5284 C   0  0  0  0  0  0  0  0  0  0  0  0
  -26.1671  -13.3714   19.2425 C   0  0  0  0  0  0  0  0  0  0  0  0
  -22.6403  -32.8683   28.3507 C   0  0  0  0  0  0  0  0  0  0  0  0
  -24.5592  -31.5636   26.8138 C   0  0  0  0  0  0  0  0  0  0  0  0
  -27.1644  -30.4073   21.3933 C   0  0  0  0  0  0  0  0  0  0  0  0
  -25.1821  -12.0885   21.5156 C   0  0  0  0  0  0  0  0  0  0  0  0
  -24.8887  -12.8136   19.2296 C   0  0  0  0  0  0  0  0  0  0  0  0
  -28.0810  -29.4414   20.9801 C   0  0  0  0  0  0  0  0  0  0  0  0
  -23.6994   -9.2850   20.3430 C   0  0  0  0  0  0  0  0  0  0  0  0
  -23.5446   -8.0065   20.8788 C   0  0  0  0  0  0  0  0  0  0  0  0
  -29.3161  -24.0758   19.8179 C   0  0  0  0  0  0  0  0  0  0  0  0
  -26.2642  -28.0613   20.1966 C   0  0  0  0  0  0  0  0  0  0  0  0
  -21.9803   -8.8760   22.5018 C   0  0  0  0  0  0  0  0  0  0  0  0
  -26.9530  -13.2879   20.3919 C   0  0  0  0  0  0  0  0  0  0  0  0
  -29.4803  -13.2335   20.0494 C   0  0  0  0  0  0  0  0  0  0  0  0
  -22.2330  -31.9065   27.4128 C   0  0  0  0  0  0  0  0  0  0  0  0
  -25.7880  -30.2023   21.2209 C   0  0  0  0  0  0  0  0  0  0  0  0
  -23.2031  -31.2381   26.6417 C   0  0  0  0  0  0  0  0  0  0  0  0
  -30.3525  -23.1930   19.5013 C   0  0  0  0  0  0  0  0  0  0  0  0
  -25.3324  -29.0273   20.6062 C   0  0  0  0  0  0  0  0  0  0  0  0
  -29.1004  -25.2066   19.0401 C   0  0  0  0  0  0  0  0  0  0  0  0
  -24.3962  -12.1721   20.3662 C   0  0  0  0  0  0  0  0  0  0  0  0
  -27.6308  -28.2669   20.3843 C   0  0  0  0  0  0  0  0  0  0  0  0
  -22.9947  -10.3591   20.8867 C   0  0  0  0  0  0  0  0  0  0  0  0
  -22.6850   -7.8020   21.9581 C   0  0  0  0  0  0  0  0  0  0  0  0
  -22.1351  -10.1545   21.9661 C   0  0  0  0  0  0  0  0  0  0  0  0
  -28.2732  -13.8648   20.4048 C   0  0  0  0  0  0  0  0  0  0  0  0
  -31.1564  -23.5036   18.4017 C   0  0  0  0  0  0  0  0  0  0  0  0
  -29.9416  -25.4195   17.9636 C   0  0  0  0  0  0  0  0  0  0  0  0
  -30.4396  -14.1995   20.2318 C   0  0  0  0  0  0  0  0  0  0  0  0
  -29.7135  -11.8939   19.5950 C   0  0  0  0  0  0  0  0  0  0  0  0
  -23.2941  -29.9583   23.1766 C   0  0  0  0  0  0  0  0  0  0  0  0
  -21.6167  -29.9103   20.4006 C   0  0  0  0  0  0  0  0  0  0  0  0
  -21.5803  -29.2726   17.0482 C   0  0  0  0  0  0  0  0  0  0  0  0
  -31.3268  -19.6824   19.5856 C   0  0  0  0  0  0  0  0  0  0  0  0
  -20.7666  -31.5696   27.3085 C   0  0  0  0  0  0  0  0  0  0  0  0
  -24.8137  -31.2658   21.6477 C   0  0  0  0  0  0  0  0  0  0  0  0
  -30.6033  -21.9836   20.3643 C   0  0  0  0  0  0  0  0  0  0  0  0
  -23.8661  -28.7679   20.3798 C   0  0  0  0  0  0  0  0  0  0  0  0
  -32.2758  -22.5843   17.9896 C   0  0  0  0  0  0  0  0  0  0  0  0
  -20.4063  -30.8044   26.0377 C   0  0  0  0  0  0  0  0  0  0  0  0
  -30.7359  -18.3875   22.8235 C   0  0  0  0  0  0  0  0  0  0  0  0
  -21.3946  -29.6668   25.8013 C   0  0  0  0  0  0  0  0  0  0  0  0
  -30.1429  -17.0177   22.4975 C   0  0  0  0  0  0  0  0  0  0  0  0
  -30.2371  -19.4731   21.8679 C   0  0  0  0  0  0  0  0  0  0  0  0
  -29.8369  -17.7753   20.1119 C   0  0  0  0  0  0  0  0  0  0  0  0
  -22.8176  -30.2039   25.6063 C   0  0  1  0  0  0  0  0  0  0  0  0
  -23.4076  -30.7255   21.8897 C   0  0  1  0  0  0  0  0  0  0  0  0
  -30.3717  -16.6573   21.0195 C   0  0  2  0  0  0  0  0  0  0  0  0
  -32.7496  -21.6660   19.1231 C   0  0  1  0  0  0  0  0  0  0  0  0
  -29.7576  -26.6169   17.0899 C   0  0  0  0  0  0  0  0  0  0  0  0
  -33.6496  -22.3910   20.1288 C   0  0  0  0  0  0  0  0  0  0  0  0
  -20.0544  -29.2904   15.0560 C   0  0  0  0  0  0  0  0  0  0  0  0
  -20.3158  -27.3287   21.3770 C   0  0  0  0  0  0  0  0  0  0  0  0
  -19.5610  -26.9028   19.0281 C   0  0  0  0  0  0  0  0  0  0  0  0
  -18.7532  -28.9226   20.2490 C   0  0  0  0  0  0  0  0  0  0  0  0
  -23.2404  -31.2838   15.6490 C   0  0  0  0  0  0  0  0  0  0  0  0
  -27.9923  -26.1428   19.3776 C   0  0  0  0  0  0  0  0  0  1  0  0
  -21.1507  -28.8327   19.4516 C   0  0  1  0  0  0  0  0  0  0  0  0
  -21.0617  -30.0833   15.8742 C   0  0  2  0  0  0  0  0  0  0  0  0
  -19.9727  -28.0004   20.0323 C   0  0  0  0  0  0  0  0  0  0  0  0
  -28.4471  -15.1335   20.7844 N   0  0  0  0  0  0  0  0  0  0  0  0
  -30.9590  -24.5977   17.6246 N   0  0  0  0  0  0  0  0  0  0  0  0
  -29.7747  -15.3073   20.6686 N   0  0  0  0  0  0  0  0  0  0  0  0
  -22.9524  -29.8351   20.8201 N   0  0  0  0  0  0  0  0  0  0  0  0
  -31.5860  -21.0506   19.7846 N   0  0  0  0  0  0  0  0  0  0  0  0
  -30.4262  -19.0679   20.4686 N   0  0  0  0  0  0  0  0  0  0  0  0
  -31.7785  -14.2007   20.0596 N   0  0  0  0  0  0  0  0  0  0  0  0
  -28.6159  -11.0323   19.4633 N   0  0  0  0  0  0  0  0  0  0  0  0
  -22.9772  -30.7396   24.2714 N   0  0  0  0  0  0  0  0  0  0  0  0
  -20.8452  -29.5023   18.1919 N   0  0  0  0  0  0  0  0  0  0  0  0
  -22.1867  -30.4780   14.9801 N   0  3  0  0  0  0  0  0  0  0  0  0
  -30.8633  -11.4683   19.3296 O   0  0  0  0  0  0  0  0  0  0  0  0
  -23.4789  -28.7468   23.1761 O   0  0  0  0  0  0  0  0  0  0  0  0
  -20.8267  -30.7905   20.7510 O   0  0  0  0  0  0  0  0  0  0  0  0
  -22.5390  -28.5088   16.9586 O   0  0  0  0  0  0  0  0  0  0  0  0
  -31.8608  -19.0482   18.6668 O   0  0  0  0  0  0  0  0  0  0  0  0
  -23.1488  -11.6276   20.3532 O   0  0  0  0  0  0  0  0  0  0  0  0
  -28.5292  -27.3159   19.9780 O   0  0  0  0  0  0  0  0  0  1  0  0
  -22.5353   -6.5739   22.4715 F   0  0  0  0  0  0  0  0  0  0  0  0
  -21.4546  -11.1823   22.4918 F   0  0  0  0  0  0  0  0  0  0  0  0
  1  2  1  0  0  0  0
  1  5  2  0  0  0  0
  2  6  2  0  0  0  0
  3  8  2  0  0  0  0
  3 16  1  0  0  0  0
  4  9  1  0  0  0  0
  4 16  2  0  0  0  0
  5 18  1  0  0  0  0
  6 20  1  0  0  0  0
  7 10  2  0  0  0  0
  7 19  1  0  0  0  0
  8 24  1  0  0  0  0
  9 24  2  0  0  0  0
 10 25  1  0  0  0  0
 11 12  2  0  0  0  0
 11 26  1  0  0  0  0
 12 27  1  0  0  0  0
 13 21  2  0  0  0  0
 13 23  1  0  0  0  0
 14 22  1  0  0  0  0
 14 25  2  0  0  0  0
 15 27  2  0  0  0  0
 15 28  1  0  0  0  0
 16 29  1  0  0  0  0
 17 29  1  0  0  0  0
 17 32  2  0  0  0  0
 17 33  1  0  0  0  0
 18 20  2  0  0  0  0
 18 38  1  0  0  0  0
 19 22  2  0  0  0  0
 19 39  1  0  0  0  0
 20 49  1  0  0  0  0
 21 30  1  0  0  0  0
 21 40  1  0  0  0  0
 22 41  1  0  0  0  0
 23 31  2  0  0  0  0
 23 60  1  0  0  0  0
 24 80  1  0  0  0  0
 25 81  1  0  0  0  0
 26 28  2  0  0  0  0
 26 80  1  0  0  0  0
 27 82  1  0  0  0  0
 28 83  1  0  0  0  0
 29 64  2  0  0  0  0
 30 42  1  0  0  0  0
 30 65  2  0  0  0  0
 31 53  1  0  0  0  0
 31 65  1  0  0  0  0
 32 66  1  0  0  0  0
 32 70  1  0  0  0  0
 33 71  1  0  0  0  0
 33 75  2  0  0  0  0
 34 50  1  0  0  0  0
 34 72  1  0  0  0  0
 34 76  2  0  0  0  0
 35 61  1  0  0  0  0
 35 67  1  0  0  0  0
 35 77  2  0  0  0  0
 36 62  1  0  0  0  0
 36 73  1  0  0  0  0
 36 78  2  0  0  0  0
 37 68  1  0  0  0  0
 37 69  1  0  0  0  0
 37 79  2  0  0  0  0
 38 43  1  0  0  0  0
 39 50  1  0  0  0  0
 40 68  1  0  0  0  0
 41 67  1  0  0  0  0
 42 52  1  0  0  0  0
 43 45  1  0  0  0  0
 44 46  1  0  0  0  0
 44 47  1  0  0  0  0
 45 49  1  0  0  0  0
 46 51  1  0  0  0  0
 47 69  1  0  0  0  0
 48 51  1  0  0  0  0
 48 69  1  0  0  0  0
 49 72  1  0  0  0  0
 50 67  1  0  0  0  0
 51 66  1  0  0  0  0
 52 54  1  0  0  0  0
 52 68  1  0  0  0  0
 55 62  1  0  0  0  0
 56 63  1  0  0  0  0
 57 63  1  0  0  0  0
 58 63  1  0  0  0  0
 59 74  1  0  0  0  0
 60 81  1  0  0  0  0
 61 63  1  0  0  0  0
 61 73  1  0  0  0  0
 62 74  1  0  0  0  0
 64 66  1  0  0  0  0
M  CHG  1  74   1
M  ISO  4  37 100  60 101  68 100  81 101
M  END
> <Batch ID>
0173

> <Smiles>
CNC(C)C(=O)NC(C(=O)N1Cc2cc([101O:1][101CH2:1]c3cc4c(nc3C)CC(C)[100N:0]([100C:0](=O)N3CCCC(n5nc(-c6ccc(Oc7ccc(F)cc7F)cc6)c(C(N)=O)c5N)C3)C4)ccc2CC1C(=O)NC1CCCc2ccccc21)C(C)(C)C

> <Shape>
0.297

> <Color>
0.103

> <Negative vol penalty>
0.000

$$$$

  -OEChem-04052322423D

 89 98  0     1  0  0  0  0  0999 V2000
  -28.4711  -24.1592   17.6468 C   0  0  0  0  0  0  0  0  0  0  0  0
  -27.2606  -24.3961   18.2902 C   0  0  0  0  0  0  0  0  0  0  0  0
  -23.5898  -14.3685   20.8892 C   0  0  0  0  0  0  0  0  0  0  0  0
  -25.6845  -15.1109   21.8370 C   0  0  0  0  0  0  0  0  0  0  0  0
  -29.6408  -24.7470   18.1264 C   0  0  0  0  0  0  0  0  0  0  0  0
  -27.2193  -25.2202   19.4143 C   0  0  0  0  0  0  0  0  0  0  0  0
  -23.3645  -28.5014   19.2774 C   0  0  0  0  0  0  0  0  0  0  0  0
  -24.1803  -13.1558   20.5340 C   0  0  0  0  0  0  0  0  0  0  0  0
  -26.2750  -13.8981   21.4819 C   0  0  0  0  0  0  0  0  0  0  0  0
  -22.0995  -28.0114   19.5992 C   0  0  0  0  0  0  0  0  0  0  0  0
  -27.5312  -12.4617   18.6909 C   0  0  0  0  0  0  0  0  0  0  0  0
  -28.7916  -12.5045   18.0950 C   0  0  0  0  0  0  0  0  0  0  0  0
  -22.3163  -28.9274   21.8203 C   0  0  0  0  0  0  0  0  0  0  0  0
  -29.6926  -11.1827   19.9056 C   0  0  0  0  0  0  0  0  0  0  0  0
  -20.3622  -23.4159   23.9092 C   0  0  0  0  0  0  0  0  0  0  0  0
  -24.3419  -15.3461   21.5406 C   0  0  0  0  0  0  0  0  0  0  0  0
  -23.0779  -16.9050   23.1154 C   0  0  0  0  0  0  0  0  0  0  0  0
  -29.6124  -25.5865   19.2512 C   0  0  0  0  0  0  0  0  0  0  0  0
  -24.1207  -29.1998   20.2297 C   0  0  0  0  0  0  0  0  0  0  0  0
  -28.3901  -25.8187   19.9102 C   0  0  0  0  0  0  0  0  0  0  0  0
  -23.5895  -29.4274   21.5073 C   0  0  0  0  0  0  0  0  0  0  0  0
  -19.3444  -23.7185   23.0380 C   0  0  0  0  0  0  0  0  0  0  0  0
  -25.5229  -12.9205   20.8304 C   0  0  0  0  0  0  0  0  0  0  0  0
  -21.5764  -28.2218   20.8717 C   0  0  0  0  0  0  0  0  0  0  0  0
  -27.3515  -11.7794   19.8942 C   0  0  0  0  0  0  0  0  0  0  0  0
  -29.8723  -11.8650   18.7023 C   0  0  0  0  0  0  0  0  0  0  0  0
  -28.4321  -11.1399   20.5016 C   0  0  0  0  0  0  0  0  0  0  0  0
  -23.7327  -16.5993   21.9072 C   0  0  0  0  0  0  0  0  0  0  0  0
  -19.7192  -24.9526   22.4738 C   0  0  0  0  0  0  0  0  0  0  0  0
  -22.6814  -18.2119   22.9700 C   0  0  0  0  0  0  0  0  0  0  0  0
  -22.8486  -16.0812   24.2662 C   0  0  0  0  0  0  0  0  0  0  0  0
  -26.9241  -28.7291   21.6520 C   0  0  0  0  0  0  0  0  0  0  0  0
  -26.3619  -31.6825   22.8700 C   0  0  0  0  0  0  0  0  0  0  0  0
  -24.0888  -34.0857   23.7093 C   0  0  0  0  0  0  0  0  0  0  0  0
  -23.7224  -23.4688   21.4119 C   0  0  0  0  0  0  0  0  0  0  0  0
  -30.9102  -26.1615   19.7608 C   0  0  0  0  0  0  0  0  0  0  0  0
  -25.4724  -29.7451   19.8586 C   0  0  0  0  0  0  0  0  0  0  0  0
  -24.3526  -30.1887   22.5593 C   0  0  0  0  0  0  0  0  0  0  0  0
  -30.7215  -27.3219   20.7345 C   0  0  0  0  0  0  0  0  0  0  0  0
  -22.6322  -21.2030   18.8910 C   0  0  0  0  0  0  0  0  0  0  0  0
  -29.6624  -26.9774   21.7768 C   0  0  0  0  0  0  0  0  0  0  0  0
  -22.7733  -19.8290   19.5484 C   0  0  0  0  0  0  0  0  0  0  0  0
  -25.0088  -24.8896   24.3557 C   0  0  0  0  0  0  0  0  0  0  0  0
  -22.4344  -25.8391   25.4406 C   0  0  0  0  0  0  0  0  0  0  0  0
  -23.7530  -22.1494   19.3155 C   0  0  0  0  0  0  0  0  0  0  0  0
  -24.0612  -20.9229   21.4308 C   0  0  0  0  0  0  0  0  0  0  0  0
  -28.3008  -26.7265   21.1177 C   0  0  1  0  0  0  0  0  0  0  0  0
  -26.3678  -29.9968   21.0678 C   0  0  1  0  0  0  0  0  0  0  0  0
  -24.9450  -26.1471   25.2440 C   0  0  1  0  0  0  0  0  0  0  0  0
  -22.9224  -19.9513   21.0768 C   0  0  2  0  0  0  0  0  0  0  0  0
  -22.4950  -24.5799   24.5530 C   0  0  2  0  0  0  0  0  0  0  0  0
  -23.7015  -24.6497   23.5945 C   0  0  2  0  0  0  0  0  0  0  0  0
  -23.7392  -26.1120   26.2363 C   0  0  0  0  0  0  0  0  0  0  0  0
  -18.1365  -22.9217   22.7647 C   0  0  0  0  0  0  0  0  0  0  0  0
  -26.3088  -26.3555   25.9147 C   0  0  0  0  0  0  0  0  0  0  0  0
  -23.9087  -25.0402   27.3334 C   0  0  0  0  0  0  0  0  0  0  0  0
  -23.5803  -27.4785   26.9381 C   0  0  0  0  0  0  0  0  0  0  0  0
  -17.9577  -26.7112   22.1054 C   0  0  0  0  0  0  0  0  0  0  0  0
  -23.9269  -36.3769   24.7200 C   0  0  0  0  0  0  0  0  0  0  0  0
  -26.8190  -30.4898   25.6410 C   0  0  0  0  0  0  0  0  0  0  0  0
  -25.7344  -32.5235   26.6188 C   0  0  0  0  0  0  0  0  0  0  0  0
  -27.8375  -32.7477   25.2962 C   0  0  0  0  0  0  0  0  0  0  0  0
  -22.9005  -35.2152   21.2454 C   0  0  0  0  0  0  0  0  0  0  0  0
  -19.9155  -26.5558   20.5229 C   0  0  0  0  0  0  0  0  0  1  0  0
  -18.9886  -25.7457   21.4698 C   0  0  1  0  0  0  0  0  0  0  0  0
  -25.6729  -32.2174   24.1022 C   0  0  1  0  0  0  0  0  0  0  0  0
  -24.0517  -35.5778   23.4322 C   0  0  2  0  0  0  0  0  0  0  0  0
  -26.5021  -31.9785   25.3956 C   0  0  0  0  0  0  0  0  0  0  0  0
  -23.7530  -17.6292   21.0569 N   0  0  0  0  0  0  0  0  0  0  0  0
  -20.8842  -25.4032   22.9470 N   0  0  0  0  0  0  0  0  0  0  0  0
  -21.2501  -24.4472   23.8177 N   0  0  0  0  0  0  0  0  0  0  0  0
  -23.1060  -18.5947   21.7316 N   0  0  0  0  0  0  0  0  0  0  0  0
  -25.6725  -30.6964   22.1501 N   0  0  0  0  0  0  0  0  0  0  0  0
  -23.8402  -22.2219   20.7760 N   0  0  0  0  0  0  0  0  0  0  0  0
  -22.0145  -19.0596   23.7818 N   0  0  0  0  0  0  0  0  0  0  0  0
  -23.3229  -14.7624   24.2491 N   0  0  0  0  0  0  0  0  0  0  0  0
  -27.6721  -27.9809   20.7630 N   0  0  0  0  0  0  0  0  0  0  0  0
  -25.3813  -33.6207   23.8300 N   0  0  0  0  0  0  0  0  0  0  0  0
  -23.8101  -23.4476   22.7984 N   0  0  0  0  0  0  0  0  0  0  0  0
  -22.8932  -35.9133   22.5567 N   0  3  0  0  0  0  0  0  0  0  0  0
  -22.2268  -16.4969   25.2732 O   0  0  0  0  0  0  0  0  0  0  0  0
  -26.6932  -28.4511   22.8229 O   0  0  0  0  0  0  0  0  0  0  0  0
  -27.4677  -32.1285   22.5538 O   0  0  0  0  0  0  0  0  0  0  0  0
  -23.0728  -33.4019   23.8124 O   0  0  0  0  0  0  0  0  0  0  0  0
  -23.5463  -24.5222   20.7903 O   0  0  0  0  0  0  0  0  0  0  0  0
  -26.0993  -11.7372   20.4842 O   0  0  0  0  0  0  0  0  0  0  0  0
  -20.3341  -27.7409   21.1906 O   0  0  0  0  0  0  0  0  0  1  0  0
  -31.0823  -11.9049   18.1292 F   0  0  0  0  0  0  0  0  0  0  0  0
  -28.2653  -10.4819   21.6570 F   0  0  0  0  0  0  0  0  0  0  0  0
  1  2  1  0  0  0  0
  1  5  2  0  0  0  0
  2  6  2  0  0  0  0
  3  8  2  0  0  0  0
  3 16  1  0  0  0  0
  4  9  1  0  0  0  0
  4 16  2  0  0  0  0
  5 18  1  0  0  0  0
  6 20  1  0  0  0  0
  7 10  2  0  0  0  0
  7 19  1  0  0  0  0
  8 23  1  0  0  0  0
  9 23  2  0  0  0  0
 10 24  1  0  0  0  0
 11 12  2  0  0  0  0
 11 25  1  0  0  0  0
 12 26  1  0  0  0  0
 13 21  1  0  0  0  0
 13 24  2  0  0  0  0
 14 26  2  0  0  0  0
 14 27  1  0  0  0  0
 15 22  2  0  0  0  0
 15 71  1  0  0  0  0
 16 28  1  0  0  0  0
 17 28  1  0  0  0  0
 17 30  2  0  0  0  0
 17 31  1  0  0  0  0
 18 20  2  0  0  0  0
 18 36  1  0  0  0  0
 19 21  2  0  0  0  0
 19 37  1  0  0  0  0
 20 47  1  0  0  0  0
 21 38  1  0  0  0  0
 22 29  1  0  0  0  0
 22 54  1  0  0  0  0
 23 86  1  0  0  0  0
 24 87  1  0  0  0  0
 25 27  2  0  0  0  0
 25 86  1  0  0  0  0
 26 88  1  0  0  0  0
 27 89  1  0  0  0  0
 28 69  2  0  0  0  0
 29 65  1  0  0  0  0
 29 70  2  0  0  0  0
 30 72  1  0  0  0  0
 30 75  1  0  0  0  0
 31 76  1  0  0  0  0
 31 81  2  0  0  0  0
 32 48  1  0  0  0  0
 32 77  1  0  0  0  0
 32 82  2  0  0  0  0
 33 66  1  0  0  0  0
 33 73  1  0  0  0  0
 33 83  2  0  0  0  0
 34 67  1  0  0  0  0
 34 78  1  0  0  0  0
 34 84  2  0  0  0  0
 35 74  1  0  0  0  0
 35 79  1  0  0  0  0
 35 85  2  0  0  0  0
 36 39  1  0  0  0  0
 37 48  1  0  0  0  0
 38 73  1  0  0  0  0
 39 41  1  0  0  0  0
 40 42  1  0  0  0  0
 40 45  1  0  0  0  0
 41 47  1  0  0  0  0
 42 50  1  0  0  0  0
 43 49  1  0  0  0  0
 43 52  1  0  0  0  0
 44 51  1  0  0  0  0
 44 53  1  0  0  0  0
 45 74  1  0  0  0  0
 46 50  1  0  0  0  0
 46 74  1  0  0  0  0
 47 77  1  0  0  0  0
 48 73  1  0  0  0  0
 49 53  1  0  0  0  0
 49 55  1  0  0  0  0
 50 72  1  0  0  0  0
 51 52  1  0  0  0  0
 51 71  1  0  0  0  0
 52 79  1  0  0  0  0
 53 56  1  0  0  0  0
 53 57  1  0  0  0  0
 58 65  1  0  0  0  0
 59 67  1  0  0  0  0
 60 68  1  0  0  0  0
 61 68  1  0  0  0  0
 62 68  1  0  0  0  0
 63 80  1  0  0  0  0
 64 65  1  0  0  0  0
 64 87  1  0  0  0  0
 66 68  1  0  0  0  0
 66 78  1  0  0  0  0
 67 80  1  0  0  0  0
 69 72  1  0  0  0  0
 70 71  1  0  0  0  0
M  CHG  1  80   1
M  ISO  4  35 100  64 101  79 100  87 101
M  END
> <Batch ID>
0173

> <Smiles>
CNC(C)C(=O)NC(C(=O)N1Cc2cc([101O:1][101CH2:1]C(C)c3nn(C4CC(C)(C)C(C)CC4[100NH:0][100C:0](=O)N4CCCC(n5nc(-c6ccc(Oc7ccc(F)cc7F)cc6)c(C(N)=O)c5N)C4)cc3C)ccc2CC1C(=O)NC1CCCc2ccccc21)C(C)(C)C

> <Shape>
0.269

> <Color>
0.071

> <Negative vol penalty>
0.000

$$$$

  -OEChem-04052322423D

 83 92  0     1  0  0  0  0  0999 V2000
  -30.0179  -24.5567   18.5115 C   0  0  0  0  0  0  0  0  0  0  0  0
  -28.7044  -24.7893   18.9065 C   0  0  0  0  0  0  0  0  0  0  0  0
  -26.9257  -16.7553   21.7480 C   0  0  0  0  0  0  0  0  0  0  0  0
  -25.2048  -17.0708   20.0818 C   0  0  0  0  0  0  0  0  0  0  0  0
  -31.0705  -25.1343   19.2203 C   0  0  0  0  0  0  0  0  0  0  0  0
  -28.4428  -25.5988   20.0114 C   0  0  0  0  0  0  0  0  0  0  0  0
  -24.6932  -28.8945   19.1606 C   0  0  0  0  0  0  0  0  0  0  0  0
  -27.0883  -15.4345   21.3300 C   0  0  0  0  0  0  0  0  0  0  0  0
  -25.3674  -15.7500   19.6638 C   0  0  0  0  0  0  0  0  0  0  0  0
  -23.3892  -28.4046   19.2199 C   0  0  0  0  0  0  0  0  0  0  0  0
  -28.6114  -13.7931   18.7965 C   0  0  0  0  0  0  0  0  0  0  0  0
  -29.9134  -13.3226   18.6267 C   0  0  0  0  0  0  0  0  0  0  0  0
  -23.1641  -29.2908   21.4522 C   0  0  0  0  0  0  0  0  0  0  0  0
  -29.5134  -11.6161   20.2896 C   0  0  0  0  0  0  0  0  0  0  0  0
  -25.9839  -17.5734   21.1239 C   0  0  0  0  0  0  0  0  0  0  0  0
  -26.4923  -20.0727   21.0708 C   0  0  0  0  0  0  0  0  0  0  0  0
  -30.8213  -25.9591   20.3285 C   0  0  0  0  0  0  0  0  0  0  0  0
  -25.2471  -29.5779   20.2527 C   0  0  0  0  0  0  0  0  0  0  0  0
  -29.4931  -26.1869   20.7365 C   0  0  0  0  0  0  0  0  0  0  0  0
  -24.4744  -29.7906   21.4033 C   0  0  0  0  0  0  0  0  0  0  0  0
  -19.2228  -26.2886   21.7178 C   0  0  0  0  0  0  0  0  0  0  0  0
  -26.3092  -14.9319   20.2880 C   0  0  0  0  0  0  0  0  0  0  0  0
  -22.6255  -28.6002   20.3668 C   0  0  0  0  0  0  0  0  0  0  0  0
  -27.7604  -13.1753   19.7129 C   0  0  0  0  0  0  0  0  0  0  0  0
  -30.3645  -12.2340   19.3733 C   0  0  0  0  0  0  0  0  0  0  0  0
  -28.2114  -12.0868   20.4594 C   0  0  0  0  0  0  0  0  0  0  0  0
  -25.8151  -18.9377   21.5556 C   0  0  0  0  0  0  0  0  0  0  0  0
  -18.7329  -25.9493   22.9674 C   0  0  0  0  0  0  0  0  0  0  0  0
  -19.6265  -25.2562   20.9126 C   0  0  0  0  0  0  0  0  0  0  0  0
  -25.9772  -21.1170   21.7993 C   0  0  0  0  0  0  0  0  0  0  0  0
  -19.0546  -23.7639   22.5549 C   0  0  0  0  0  0  0  0  0  0  0  0
  -27.4970  -20.1740   20.0530 C   0  0  0  0  0  0  0  0  0  0  0  0
  -27.7144  -29.0792   22.1937 C   0  0  0  0  0  0  0  0  0  0  0  0
  -26.9251  -32.0184   23.3164 C   0  0  0  0  0  0  0  0  0  0  0  0
  -24.5328  -34.4182   23.7229 C   0  0  0  0  0  0  0  0  0  0  0  0
  -20.7722  -21.9270   24.6458 C   0  0  0  0  0  0  0  0  0  0  0  0
  -31.9934  -26.5230   21.0919 C   0  0  0  0  0  0  0  0  0  0  0  0
  -26.6459  -30.1234   20.1629 C   0  0  0  0  0  0  0  0  0  0  0  0
  -25.0155  -30.5355   22.5953 C   0  0  0  0  0  0  0  0  0  0  0  0
  -18.3762  -27.1789   23.7508 C   0  0  0  0  0  0  0  0  0  0  0  0
  -31.6171  -27.6714   22.0247 C   0  0  0  0  0  0  0  0  0  0  0  0
  -18.2796  -28.2239   22.6262 C   0  0  0  0  0  0  0  0  0  0  0  0
  -24.0358  -22.1144   26.0568 C   0  0  0  0  0  0  0  0  0  0  0  0
  -30.3729  -27.3169   22.8328 C   0  0  0  0  0  0  0  0  0  0  0  0
  -24.9230  -21.4239   25.0195 C   0  0  0  0  0  0  0  0  0  0  0  0
  -22.6680  -21.4440   26.1655 C   0  0  0  0  0  0  0  0  0  0  0  0
  -22.8311  -20.6133   23.8509 C   0  0  0  0  0  0  0  0  0  0  0  0
  -19.2308  -27.7648   21.4968 C   0  0  1  0  0  0  0  0  0  0  0  0
  -29.1679  -27.0792   21.9147 C   0  0  1  0  0  0  0  0  0  0  0  0
  -27.2853  -30.3563   21.5283 C   0  0  1  0  0  0  0  0  0  0  0  0
  -24.2009  -21.2881   23.6654 C   0  0  2  0  0  0  0  0  0  0  0  0
  -20.1435  -25.4834   19.5360 C   0  0  0  0  0  0  0  0  0  0  0  0
  -24.1763  -36.6965   24.7124 C   0  0  0  0  0  0  0  0  0  0  0  0
  -26.8254  -30.7882   26.1068 C   0  0  0  0  0  0  0  0  0  0  0  0
  -25.5707  -32.8126   26.8786 C   0  0  0  0  0  0  0  0  0  0  0  0
  -27.8936  -33.0470   26.0001 C   0  0  0  0  0  0  0  0  0  0  0  0
  -23.8549  -35.5837   21.0883 C   0  0  0  0  0  0  0  0  0  0  0  0
  -18.9600  -22.3440   23.0023 C   0  0  0  0  0  0  0  0  0  0  0  0
  -20.6271  -28.3588   21.6334 C   0  0  0  0  0  0  0  0  0  1  0  0
  -26.0069  -32.5396   24.3954 C   0  0  1  0  0  0  0  0  0  0  0  0
  -24.5522  -35.9138   23.4639 C   0  0  2  0  0  0  0  0  0  0  0  0
  -26.5644  -32.2811   25.8237 C   0  0  0  0  0  0  0  0  0  0  0  0
  -24.9370  -19.2330   22.5178 N   0  0  0  0  0  0  0  0  0  0  0  0
  -18.6346  -24.6971   23.4348 N   0  0  0  0  0  0  0  0  0  0  0  0
  -19.5497  -23.9672   21.3090 N   0  0  0  0  0  0  0  0  0  0  0  0
  -25.0589  -20.5655   22.6435 N   0  0  0  0  0  0  0  0  0  0  0  0
  -26.3906  -31.0441   22.4614 N   0  0  0  0  0  0  0  0  0  0  0  0
  -22.0358  -21.3476   24.8475 N   0  0  0  0  0  0  0  0  0  0  0  0
  -26.2249  -22.4441   21.7937 N   0  0  0  0  0  0  0  0  0  0  0  0
  -27.9114  -19.0028   19.4043 N   0  0  0  0  0  0  0  0  0  0  0  0
  -28.6226  -28.3402   21.4598 N   0  0  0  0  0  0  0  0  0  0  0  0
  -25.7757  -33.9473   24.0899 N   0  0  0  0  0  0  0  0  0  0  0  0
  -20.2475  -21.7955   23.3659 N   0  0  0  0  0  0  0  0  0  0  0  0
  -23.5895  -36.2646   22.3817 N   0  3  0  0  0  0  0  0  0  0  0  0
  -28.0238  -21.2685   19.7397 O   0  0  0  0  0  0  0  0  0  0  0  0
  -27.2567  -28.7868   23.2922 O   0  0  0  0  0  0  0  0  0  0  0  0
  -28.0718  -32.4647   23.2306 O   0  0  0  0  0  0  0  0  0  0  0  0
  -23.5160  -33.7365   23.6143 O   0  0  0  0  0  0  0  0  0  0  0  0
  -20.1596  -22.5224   25.5387 O   0  0  0  0  0  0  0  0  0  0  0  0
  -26.4677  -13.6432   19.8797 O   0  0  0  0  0  0  0  0  0  0  0  0
  -21.3527  -28.1225   20.4275 O   0  0  0  0  0  0  0  0  0  1  0  0
  -31.6143  -11.7812   19.2090 F   0  0  0  0  0  0  0  0  0  0  0  0
  -27.3981  -11.4883   21.3404 F   0  0  0  0  0  0  0  0  0  0  0  0
  1  2  1  0  0  0  0
  1  5  2  0  0  0  0
  2  6  2  0  0  0  0
  3  8  2  0  0  0  0
  3 15  1  0  0  0  0
  4  9  1  0  0  0  0
  4 15  2  0  0  0  0
  5 17  1  0  0  0  0
  6 19  1  0  0  0  0
  7 10  2  0  0  0  0
  7 18  1  0  0  0  0
  8 22  1  0  0  0  0
  9 22  2  0  0  0  0
 10 23  1  0  0  0  0
 11 12  2  0  0  0  0
 11 24  1  0  0  0  0
 12 25  1  0  0  0  0
 13 20  1  0  0  0  0
 13 23  2  0  0  0  0
 14 25  2  0  0  0  0
 14 26  1  0  0  0  0
 15 27  1  0  0  0  0
 16 27  1  0  0  0  0
 16 30  2  0  0  0  0
 16 32  1  0  0  0  0
 17 19  2  0  0  0  0
 17 37  1  0  0  0  0
 18 20  2  0  0  0  0
 18 38  1  0  0  0  0
 19 49  1  0  0  0  0
 20 39  1  0  0  0  0
 21 28  2  0  0  0  0
 21 29  1  0  0  0  0
 21 48  1  0  0  0  0
 22 80  1  0  0  0  0
 23 81  1  0  0  0  0
 24 26  2  0  0  0  0
 24 80  1  0  0  0  0
 25 82  1  0  0  0  0
 26 83  1  0  0  0  0
 27 63  2  0  0  0  0
 28 40  1  0  0  0  0
 28 64  1  0  0  0  0
 29 52  1  0  0  0  0
 29 65  2  0  0  0  0
 30 66  1  0  0  0  0
 30 69  1  0  0  0  0
 31 58  1  0  0  0  0
 31 64  2  0  0  0  0
 31 65  1  0  0  0  0
 32 70  1  0  0  0  0
 32 75  2  0  0  0  0
 33 50  1  0  0  0  0
 33 71  1  0  0  0  0
 33 76  2  0  0  0  0
 34 60  1  0  0  0  0
 34 67  1  0  0  0  0
 34 77  2  0  0  0  0
 35 61  1  0  0  0  0
 35 72  1  0  0  0  0
 35 78  2  0  0  0  0
 36 68  1  0  0  0  0
 36 73  1  0  0  0  0
 36 79  2  0  0  0  0
 37 41  1  0  0  0  0
 38 50  1  0  0  0  0
 39 67  1  0  0  0  0
 40 42  1  0  0  0  0
 41 44  1  0  0  0  0
 42 48  1  0  0  0  0
 43 45  1  0  0  0  0
 43 46  1  0  0  0  0
 44 49  1  0  0  0  0
 45 51  1  0  0  0  0
 46 68  1  0  0  0  0
 47 51  1  0  0  0  0
 47 68  1  0  0  0  0
 48 59  1  0  0  0  0
 49 71  1  0  0  0  0
 50 67  1  0  0  0  0
 51 66  1  0  0  0  0
 53 61  1  0  0  0  0
 54 62  1  0  0  0  0
 55 62  1  0  0  0  0
 56 62  1  0  0  0  0
 57 74  1  0  0  0  0
 58 73  1  0  0  0  0
 59 81  1  0  0  0  0
 60 62  1  0  0  0  0
 60 72  1  0  0  0  0
 61 74  1  0  0  0  0
 63 66  1  0  0  0  0
M  CHG  1  74   1
M  ISO  4  36 100  59 101  73 100  81 101
M  END
> <Batch ID>
0173

> <Smiles>
CNC(C)C(=O)NC(C(=O)N1Cc2cc([101O:1][101CH2:1]C3CCc4nc(C[100NH:0][100C:0](=O)N5CCCC(n6nc(-c7ccc(Oc8ccc(F)cc8F)cc7)c(C(N)=O)c6N)C5)nc(C)c43)ccc2CC1C(=O)NC1CCCc2ccccc21)C(C)(C)C

> <Shape>
0.307

> <Color>
0.061

> <Negative vol penalty>
0.000

$$$$

  -OEChem-04052322423D

 84 93  0     1  0  0  0  0  0999 V2000
  -14.5004  -16.8727   26.6037 C   0  0  0  0  0  0  0  0  0  0  0  0
  -15.7541  -16.2699   26.6201 C   0  0  0  0  0  0  0  0  0  0  0  0
  -23.2886   -9.8145   19.9295 C   0  0  0  0  0  0  0  0  0  0  0  0
  -23.8152   -9.9461   22.2837 C   0  0  0  0  0  0  0  0  0  0  0  0
  -14.3966  -18.2606   26.5209 C   0  0  0  0  0  0  0  0  0  0  0  0
  -16.9047  -17.0546   26.5526 C   0  0  0  0  0  0  0  0  0  0  0  0
  -22.2658  -15.9723   29.3083 C   0  0  0  0  0  0  0  0  0  0  0  0
  -22.5828   -8.6324   20.1534 C   0  0  0  0  0  0  0  0  0  0  0  0
  -23.1094   -8.7641   22.5077 C   0  0  0  0  0  0  0  0  0  0  0  0
  -23.4568  -15.4076   28.8541 C   0  0  0  0  0  0  0  0  0  0  0  0
  -19.8818   -7.8143   22.8255 C   0  0  0  0  0  0  0  0  0  0  0  0
  -19.0151   -7.7759   23.9177 C   0  0  0  0  0  0  0  0  0  0  0  0
  -24.3311  -17.6140   28.4221 C   0  0  0  0  0  0  0  0  0  0  0  0
  -20.2734   -5.9369   24.8514 C   0  0  0  0  0  0  0  0  0  0  0  0
  -23.9049  -10.4713   20.9946 C   0  0  0  0  0  0  0  0  0  0  0  0
  -24.1289  -13.0053   20.8037 C   0  0  0  0  0  0  0  0  0  0  0  0
  -15.5467  -19.0634   26.4622 C   0  0  0  0  0  0  0  0  0  0  0  0
  -22.0941  -17.3641   29.3127 C   0  0  0  0  0  0  0  0  0  0  0  0
  -16.8162  -18.4545   26.4676 C   0  0  0  0  0  0  0  0  0  0  0  0
  -23.1380  -18.1940   28.8793 C   0  0  0  0  0  0  0  0  0  0  0  0
  -22.4931   -8.1072   21.4425 C   0  0  0  0  0  0  0  0  0  0  0  0
  -24.4886  -16.2283   28.4082 C   0  0  0  0  0  0  0  0  0  0  0  0
  -20.9442   -6.9140   22.7461 C   0  0  0  0  0  0  0  0  0  0  0  0
  -19.2109   -6.8372   24.9307 C   0  0  0  0  0  0  0  0  0  0  0  0
  -21.1401   -5.9753   23.7591 C   0  0  0  0  0  0  0  0  0  0  0  0
  -24.6346  -11.6921   20.7638 C   0  0  0  0  0  0  0  0  0  0  0  0
  -27.0725  -13.8130   27.5400 C   0  0  0  0  0  0  0  0  0  0  0  0
  -27.5816  -13.7868   26.2631 C   0  0  0  0  0  0  0  0  0  0  0  0
  -25.2125  -13.7994   20.5177 C   0  0  0  0  0  0  0  0  0  0  0  0
  -29.0522  -13.0554   27.7323 C   0  0  0  0  0  0  0  0  0  0  0  0
  -22.7986  -13.4661   21.0750 C   0  0  0  0  0  0  0  0  0  0  0  0
  -20.1037  -19.3832   27.8756 C   0  0  0  0  0  0  0  0  0  0  0  0
  -21.5734  -21.5686   29.7695 C   0  0  0  0  0  0  0  0  0  0  0  0
  -24.3318  -22.4484   31.5761 C   0  0  0  0  0  0  0  0  0  0  0  0
  -31.0120  -13.2181   21.1422 C   0  0  0  0  0  0  0  0  0  0  0  0
  -15.3836  -20.5565   26.3259 C   0  0  0  0  0  0  0  0  0  0  0  0
  -20.8133  -17.9586   29.8308 C   0  0  0  0  0  0  0  0  0  0  0  0
  -23.0115  -19.6948   28.8828 C   0  0  0  0  0  0  0  0  0  0  0  0
  -16.6571  -21.3391   26.6359 C   0  0  0  0  0  0  0  0  0  0  0  0
  -29.3662  -13.7778   18.1530 C   0  0  0  0  0  0  0  0  0  0  0  0
  -17.8555  -20.7085   25.9337 C   0  0  0  0  0  0  0  0  0  0  0  0
  -27.9104  -13.4378   18.4721 C   0  0  0  0  0  0  0  0  0  0  0  0
  -30.2250  -14.3774   24.5667 C   0  0  0  0  0  0  0  0  0  0  0  0
  -29.3517  -12.0211   24.2736 C   0  0  0  0  0  0  0  0  0  0  0  0
  -30.3161  -12.7799   18.8059 C   0  0  0  0  0  0  0  0  0  0  0  0
  -31.2109  -14.1291   23.4276 C   0  0  0  0  0  0  0  0  0  0  0  0
  -30.3581  -11.8253   23.1434 C   0  0  0  0  0  0  0  0  0  0  0  0
  -28.6974  -12.3275   20.6197 C   0  0  0  0  0  0  0  0  0  0  0  0
  -18.0880  -19.2733   26.4211 C   0  0  1  0  0  0  0  0  0  0  0  0
  -20.5549  -19.3686   29.3088 C   0  0  1  0  0  0  0  0  0  0  0  0
  -27.6931  -13.3136   19.9906 C   0  0  2  0  0  0  0  0  0  0  0  0
  -29.8500  -13.0691   25.2842 C   0  0  0  0  0  0  0  0  0  0  0  0
  -26.9984  -14.1673   24.9639 C   0  0  0  0  0  0  0  0  0  0  0  0
  -30.3258  -12.5133   28.2493 C   0  0  0  0  0  0  0  0  0  0  0  0
  -25.2538  -24.3110   32.9825 C   0  0  0  0  0  0  0  0  0  0  0  0
  -22.1349  -23.1916   27.2475 C   0  0  0  0  0  0  0  0  0  0  0  0
  -23.8294  -24.4968   28.5487 C   0  0  0  0  0  0  0  0  0  0  0  0
  -21.4291  -24.5489   29.2259 C   0  0  0  0  0  0  0  0  0  0  0  0
  -24.5435  -20.7023   33.9562 C   0  0  0  0  0  0  0  0  0  0  0  0
  -25.7398  -14.2507   27.9848 C   0  0  0  0  0  0  0  0  0  1  0  0
  -22.7872  -22.4559   29.6348 C   0  0  1  0  0  0  0  0  0  0  0  0
  -24.4809  -23.0013   32.9820 C   0  0  2  0  0  0  0  0  0  0  0  0
  -22.5471  -23.6450   28.6622 C   0  0  0  0  0  0  0  0  0  0  0  0
  -25.9380  -11.6501   20.4750 N   0  0  0  0  0  0  0  0  0  0  0  0
  -27.9930  -13.3567   28.4500 N   0  0  0  0  0  0  0  0  0  0  0  0
  -28.8506  -13.2996   26.4023 N   0  0  0  0  0  0  0  0  0  0  0  0
  -26.2605  -12.9467   20.3308 N   0  0  0  0  0  0  0  0  0  0  0  0
  -21.7375  -20.2281   29.3929 N   0  0  0  0  0  0  0  0  0  0  0  0
  -30.0737  -12.6852   20.2453 N   0  0  0  0  0  0  0  0  0  0  0  0
  -30.7186  -13.1015   22.5109 N   0  0  0  0  0  0  0  0  0  0  0  0
  -25.3615  -15.1368   20.4103 N   0  0  0  0  0  0  0  0  0  0  0  0
  -21.8054  -12.5161   21.3496 N   0  0  0  0  0  0  0  0  0  0  0  0
  -18.7353  -19.2777   27.7155 N   0  0  0  0  0  0  0  0  0  0  0  0
  -23.1526  -22.8562   30.9893 N   0  0  0  0  0  0  0  0  0  0  0  0
  -25.2052  -22.0279   33.8473 N   0  3  0  0  0  0  0  0  0  0  0  0
  -22.4959  -14.6833   21.0579 O   0  0  0  0  0  0  0  0  0  0  0  0
  -20.9355  -19.4843   26.9814 O   0  0  0  0  0  0  0  0  0  0  0  0
  -20.5204  -22.0456   30.1999 O   0  0  0  0  0  0  0  0  0  0  0  0
  -25.1786  -21.7298   31.0496 O   0  0  0  0  0  0  0  0  0  0  0  0
  -32.0466  -13.7698   20.7469 O   0  0  0  0  0  0  0  0  0  0  0  0
  -21.8043   -6.9539   21.6615 O   0  0  0  0  0  0  0  0  0  0  0  0
  -25.6573  -15.6771   27.9616 O   0  0  0  0  0  0  0  0  0  1  0  0
  -18.3795   -6.8014   25.9802 F   0  0  0  0  0  0  0  0  0  0  0  0
  -22.1597   -5.1086   23.6890 F   0  0  0  0  0  0  0  0  0  0  0  0
  1  2  1  0  0  0  0
  1  5  2  0  0  0  0
  2  6  2  0  0  0  0
  3  8  2  0  0  0  0
  3 15  1  0  0  0  0
  4  9  1  0  0  0  0
  4 15  2  0  0  0  0
  5 17  1  0  0  0  0
  6 19  1  0  0  0  0
  7 10  2  0  0  0  0
  7 18  1  0  0  0  0
  8 21  1  0  0  0  0
  9 21  2  0  0  0  0
 10 22  1  0  0  0  0
 11 12  2  0  0  0  0
 11 23  1  0  0  0  0
 12 24  1  0  0  0  0
 13 20  1  0  0  0  0
 13 22  2  0  0  0  0
 14 24  2  0  0  0  0
 14 25  1  0  0  0  0
 15 26  1  0  0  0  0
 16 26  1  0  0  0  0
 16 29  2  0  0  0  0
 16 31  1  0  0  0  0
 17 19  2  0  0  0  0
 17 36  1  0  0  0  0
 18 20  2  0  0  0  0
 18 37  1  0  0  0  0
 19 49  1  0  0  0  0
 20 38  1  0  0  0  0
 21 81  1  0  0  0  0
 22 82  1  0  0  0  0
 23 25  2  0  0  0  0
 23 81  1  0  0  0  0
 24 83  1  0  0  0  0
 25 84  1  0  0  0  0
 26 64  2  0  0  0  0
 27 28  2  0  0  0  0
 27 60  1  0  0  0  0
 27 65  1  0  0  0  0
 28 53  1  0  0  0  0
 28 66  1  0  0  0  0
 29 67  1  0  0  0  0
 29 71  1  0  0  0  0
 30 54  1  0  0  0  0
 30 65  2  0  0  0  0
 30 66  1  0  0  0  0
 31 72  1  0  0  0  0
 31 76  2  0  0  0  0
 32 50  1  0  0  0  0
 32 73  1  0  0  0  0
 32 77  2  0  0  0  0
 33 61  1  0  0  0  0
 33 68  1  0  0  0  0
 33 78  2  0  0  0  0
 34 62  1  0  0  0  0
 34 74  1  0  0  0  0
 34 79  2  0  0  0  0
 35 69  1  0  0  0  0
 35 70  1  0  0  0  0
 35 80  2  0  0  0  0
 36 39  1  0  0  0  0
 37 50  1  0  0  0  0
 38 68  1  0  0  0  0
 39 41  1  0  0  0  0
 40 42  1  0  0  0  0
 40 45  1  0  0  0  0
 41 49  1  0  0  0  0
 42 51  1  0  0  0  0
 43 46  1  0  0  0  0
 43 52  1  0  0  0  0
 44 47  1  0  0  0  0
 44 52  1  0  0  0  0
 45 69  1  0  0  0  0
 46 70  1  0  0  0  0
 47 70  1  0  0  0  0
 48 51  1  0  0  0  0
 48 69  1  0  0  0  0
 49 73  1  0  0  0  0
 50 68  1  0  0  0  0
 51 67  1  0  0  0  0
 52 66  1  0  0  0  0
 55 62  1  0  0  0  0
 56 63  1  0  0  0  0
 57 63  1  0  0  0  0
 58 63  1  0  0  0  0
 59 75  1  0  0  0  0
 60 82  1  0  0  0  0
 61 63  1  0  0  0  0
 61 74  1  0  0  0  0
 62 75  1  0  0  0  0
 64 67  1  0  0  0  0
M  CHG  1  75   1
M  ISO  4  35 100  60 101  70 100  82 101
M  END
> <Batch ID>
0173

> <Smiles>
CNC(C)C(=O)NC(C(=O)N1Cc2cc([101O:1][101CH2:1]c3nc(C)n(C4CC[100N:0]([100C:0](=O)N5CCCC(n6nc(-c7ccc(Oc8ccc(F)cc8F)cc7)c(C(N)=O)c6N)C5)CC4)c3C)ccc2CC1C(=O)NC1CCCc2ccccc21)C(C)(C)C

> <Shape>
0.139

> <Color>
0.177

> <Negative vol penalty>
0.000

$$$$

  -OEChem-04052322423D

 87 97  0     1  0  0  0  0  0999 V2000
  -27.6192  -37.1233   21.4961 C   0  0  0  0  0  0  0  0  0  0  0  0
  -28.1083  -35.8458   21.2428 C   0  0  0  0  0  0  0  0  0  0  0  0
  -26.1439  -10.1755   23.1128 C   0  0  0  0  0  0  0  0  0  0  0  0
  -25.4156   -8.8592   21.2224 C   0  0  0  0  0  0  0  0  0  0  0  0
  -26.5140  -37.2929   22.3291 C   0  0  0  0  0  0  0  0  0  0  0  0
  -27.4932  -34.7371   21.8232 C   0  0  0  0  0  0  0  0  0  0  0  0
  -26.7947  -29.1222   19.2973 C   0  0  0  0  0  0  0  0  0  0  0  0
  -25.6147   -9.2210   23.9814 C   0  0  0  0  0  0  0  0  0  0  0  0
  -24.8864   -7.9046   22.0909 C   0  0  0  0  0  0  0  0  0  0  0  0
  -27.4918  -27.9216   19.4257 C   0  0  0  0  0  0  0  0  0  0  0  0
  -23.0257   -5.2972   23.8083 C   0  0  0  0  0  0  0  0  0  0  0  0
  -21.7534   -4.7995   23.5272 C   0  0  0  0  0  0  0  0  0  0  0  0
  -25.9380  -27.2086   21.1274 C   0  0  0  0  0  0  0  0  0  0  0  0
  -20.8411   -7.0293   23.7084 C   0  0  0  0  0  0  0  0  0  0  0  0
  -27.8011  -22.4906   20.8259 C   0  0  0  0  0  0  0  0  0  0  0  0
  -26.0443   -9.9947   21.7333 C   0  0  0  0  0  0  0  0  0  0  0  0
  -27.8941  -11.0190   20.3063 C   0  0  0  0  0  0  0  0  0  0  0  0
  -25.8791  -36.1850   22.9123 C   0  0  0  0  0  0  0  0  0  0  0  0
  -25.6681  -29.3803   20.0915 C   0  0  0  0  0  0  0  0  0  0  0  0
  -26.3794  -34.8921   22.6659 C   0  0  0  0  0  0  0  0  0  0  0  0
  -25.2258  -28.4112   21.0036 C   0  0  0  0  0  0  0  0  0  0  0  0
  -28.8671  -21.6319   21.0003 C   0  0  0  0  0  0  0  0  0  0  0  0
  -29.8678  -22.3433   21.7064 C   0  0  0  0  0  0  0  0  0  0  0  0
  -24.9860   -8.0855   23.4704 C   0  0  0  0  0  0  0  0  0  0  0  0
  -27.0647  -26.9656   20.3424 C   0  0  0  0  0  0  0  0  0  0  0  0
  -23.2057   -6.6610   24.0395 C   0  0  0  0  0  0  0  0  0  0  0  0
  -20.6611   -5.6655   23.4773 C   0  0  0  0  0  0  0  0  0  0  0  0
  -22.1134   -7.5270   23.9896 C   0  0  0  0  0  0  0  0  0  0  0  0
  -26.5902  -10.9807   20.8356 C   0  0  0  0  0  0  0  0  0  0  0  0
  -29.3740  -23.6104   21.9418 C   0  0  0  0  0  0  0  0  0  0  0  0
  -27.9111  -12.1425   19.5164 C   0  0  0  0  0  0  0  0  0  0  0  0
  -28.9918  -10.1195   20.5103 C   0  0  0  0  0  0  0  0  0  0  0  0
  -24.8179  -31.5669   22.2690 C   0  0  0  0  0  0  0  0  0  0  0  0
  -21.9356  -29.9274   22.0282 C   0  0  0  0  0  0  0  0  0  0  0  0
  -20.4091  -32.4636   23.7244 C   0  0  0  0  0  0  0  0  0  0  0  0
  -26.7078  -17.3908   18.5018 C   0  0  0  0  0  0  0  0  0  0  0  0
  -24.7167  -36.4216   23.8436 C   0  0  0  0  0  0  0  0  0  0  0  0
  -24.9123  -30.6696   19.9159 C   0  0  0  0  0  0  0  0  0  0  0  0
  -24.0208  -28.6386   21.8760 C   0  0  0  0  0  0  0  0  0  0  0  0
  -30.0699  -24.6953   22.6817 C   0  0  0  0  0  0  0  0  0  0  0  0
  -23.8924  -35.1668   24.1200 C   0  0  0  0  0  0  0  0  0  0  0  0
  -24.1545  -15.1291   17.9417 C   0  0  0  0  0  0  0  0  0  0  0  0
  -24.8058  -33.9882   24.4414 C   0  0  0  0  0  0  0  0  0  0  0  0
  -24.6578  -13.8433   18.5972 C   0  0  0  0  0  0  0  0  0  0  0  0
  -27.8424  -19.3231   21.2030 C   0  0  0  0  0  0  0  0  0  0  0  0
  -28.8158  -20.0849   18.9935 C   0  0  0  0  0  0  0  0  0  0  0  0
  -24.4837  -16.3445   18.8008 C   0  0  0  0  0  0  0  0  0  0  0  0
  -27.8782  -17.8787   20.6956 C   0  0  0  0  0  0  0  0  0  0  0  0
  -28.8531  -18.6254   18.5497 C   0  0  0  0  0  0  0  0  0  0  0  0
  -26.4562  -15.2085   19.7687 C   0  0  0  0  0  0  0  0  0  0  0  0
  -31.5738  -24.4001   22.7528 C   0  0  0  0  0  0  0  0  0  0  0  0
  -28.9178  -20.1918   20.5258 C   0  0  0  0  0  0  0  0  0  0  0  0
  -25.7241  -33.6629   23.2572 C   0  0  1  0  0  0  0  0  0  0  0  0
  -31.2229  -21.9249   22.1642 C   0  0  1  0  0  0  0  0  0  0  0  0
  -24.0293  -31.0268   21.1098 C   0  0  1  0  0  0  0  0  0  0  0  0
  -26.1554  -13.9452   18.9368 C   0  0  1  0  0  0  0  0  0  0  0  0
  -32.2050  -21.7302   21.0134 C   0  0  0  0  0  0  0  0  0  0  0  0
  -18.1397  -33.2996   24.3941 C   0  0  0  0  0  0  0  0  0  0  0  0
  -21.4664  -30.9227   19.1831 C   0  0  0  0  0  0  0  0  0  0  0  0
  -19.7511  -32.5026   20.0941 C   0  0  0  0  0  0  0  0  0  0  0  0
  -19.4264  -30.0405   20.3297 C   0  0  0  0  0  0  0  0  0  0  0  0
  -21.0503  -32.2434   26.6052 C   0  0  0  0  0  0  0  0  0  0  0  0
  -27.2542  -24.8509   21.4289 C   0  0  0  0  0  0  0  0  0  1  0  0
  -21.1805  -31.1994   21.7341 C   0  0  1  0  0  0  0  0  0  0  0  0
  -19.3375  -32.4548   24.7996 C   0  0  2  0  0  0  0  0  0  0  0  0
  -20.4828  -31.1668   20.3450 C   0  0  0  0  0  0  0  0  0  0  0  0
  -25.8338  -11.9990   20.4174 N   0  0  0  0  0  0  0  0  0  0  0  0
  -28.1206  -23.6941   21.4047 N   0  0  0  0  0  0  0  0  0  0  0  0
  -26.6650  -12.6878   19.6170 N   0  0  0  0  0  0  0  0  0  0  0  0
  -23.2705  -29.8723   21.6075 N   0  0  0  0  0  0  0  0  0  0  0  0
  -25.9134  -16.4037   19.1043 N   0  0  0  0  0  0  0  0  0  0  0  0
  -27.8202  -17.8425   19.2277 N   0  0  0  0  0  0  0  0  0  0  0  0
  -28.8703  -12.7074   18.7526 N   0  0  0  0  0  0  0  0  0  0  0  0
  -28.8031   -9.0154   21.3527 N   0  0  0  0  0  0  0  0  0  0  0  0
  -24.9968  -32.9368   22.2383 N   0  0  0  0  0  0  0  0  0  0  0  0
  -20.2696  -31.4020   22.8556 N   0  0  0  0  0  0  0  0  0  0  0  0
  -31.8060  -22.9548   23.1291 N   0  3  0  0  0  0  0  0  0  0  0  0
  -19.8818  -32.9941   26.0778 N   0  3  0  0  0  0  0  0  0  0  0  0
  -30.1119  -10.2988   19.9748 O   0  0  0  0  0  0  0  0  0  0  0  0
  -25.2320  -30.7980   23.1286 O   0  0  0  0  0  0  0  0  0  0  0  0
  -21.3579  -29.0037   22.6080 O   0  0  0  0  0  0  0  0  0  0  0  0
  -21.2803  -33.3281   23.6594 O   0  0  0  0  0  0  0  0  0  0  0  0
  -26.4401  -17.8418   17.3811 O   0  0  0  0  0  0  0  0  0  0  0  0
  -24.4697   -7.1538   24.3177 O   0  0  0  0  0  0  0  0  0  0  0  0
  -27.7473  -25.7850   20.4702 O   0  0  0  0  0  0  0  0  0  1  0  0
  -19.4396   -5.1876   23.2058 F   0  0  0  0  0  0  0  0  0  0  0  0
  -22.2803   -8.8383   24.2097 F   0  0  0  0  0  0  0  0  0  0  0  0
  1  2  1  0  0  0  0
  1  5  2  0  0  0  0
  2  6  2  0  0  0  0
  3  8  2  0  0  0  0
  3 16  1  0  0  0  0
  4  9  1  0  0  0  0
  4 16  2  0  0  0  0
  5 18  1  0  0  0  0
  6 20  1  0  0  0  0
  7 10  2  0  0  0  0
  7 19  1  0  0  0  0
  8 24  1  0  0  0  0
  9 24  2  0  0  0  0
 10 25  1  0  0  0  0
 11 12  2  0  0  0  0
 11 26  1  0  0  0  0
 12 27  1  0  0  0  0
 13 21  1  0  0  0  0
 13 25  2  0  0  0  0
 14 27  2  0  0  0  0
 14 28  1  0  0  0  0
 15 22  2  0  0  0  0
 15 68  1  0  0  0  0
 16 29  1  0  0  0  0
 17 29  1  0  0  0  0
 17 31  2  0  0  0  0
 17 32  1  0  0  0  0
 18 20  2  0  0  0  0
 18 37  1  0  0  0  0
 19 21  2  0  0  0  0
 19 38  1  0  0  0  0
 20 53  1  0  0  0  0
 21 39  1  0  0  0  0
 22 23  1  0  0  0  0
 22 52  1  0  0  0  0
 23 30  2  0  0  0  0
 23 54  1  0  0  0  0
 24 84  1  0  0  0  0
 25 85  1  0  0  0  0
 26 28  2  0  0  0  0
 26 84  1  0  0  0  0
 27 86  1  0  0  0  0
 28 87  1  0  0  0  0
 29 67  2  0  0  0  0
 30 40  1  0  0  0  0
 30 68  1  0  0  0  0
 31 69  1  0  0  0  0
 31 73  1  0  0  0  0
 32 74  1  0  0  0  0
 32 79  2  0  0  0  0
 33 55  1  0  0  0  0
 33 75  1  0  0  0  0
 33 80  2  0  0  0  0
 34 64  1  0  0  0  0
 34 70  1  0  0  0  0
 34 81  2  0  0  0  0
 35 65  1  0  0  0  0
 35 76  1  0  0  0  0
 35 82  2  0  0  0  0
 36 71  1  0  0  0  0
 36 72  1  0  0  0  0
 36 83  2  0  0  0  0
 37 41  1  0  0  0  0
 38 55  1  0  0  0  0
 39 70  1  0  0  0  0
 40 51  1  0  0  0  0
 41 43  1  0  0  0  0
 42 44  1  0  0  0  0
 42 47  1  0  0  0  0
 43 53  1  0  0  0  0
 44 56  1  0  0  0  0
 45 48  1  0  0  0  0
 45 52  1  0  0  0  0
 46 49  1  0  0  0  0
 46 52  1  0  0  0  0
 47 71  1  0  0  0  0
 48 72  1  0  0  0  0
 49 72  1  0  0  0  0
 50 56  1  0  0  0  0
 50 71  1  0  0  0  0
 51 77  1  0  0  0  0
 53 75  1  0  0  0  0
 54 57  1  0  0  0  0
 54 77  1  0  0  0  0
 55 70  1  0  0  0  0
 56 69  1  0  0  0  0
 58 65  1  0  0  0  0
 59 66  1  0  0  0  0
 60 66  1  0  0  0  0
 61 66  1  0  0  0  0
 62 78  1  0  0  0  0
 63 68  1  0  0  0  0
 63 85  1  0  0  0  0
 64 66  1  0  0  0  0
 64 76  1  0  0  0  0
 65 78  1  0  0  0  0
 67 69  1  0  0  0  0
M  CHG  2  77   1  78   1
M  ISO  4  36 100  63 101  72 100  85 101
M  END
> <Batch ID>
0173

> <Smiles>
CNC(C)C(=O)NC(C(=O)N1Cc2cc([101O:1][101CH2:1]n3cc(C4CC[100N:0]([100C:0](=O)N5CCCC(n6nc(-c7ccc(Oc8ccc(F)cc8F)cc7)c(C(N)=O)c6N)C5)CC4)c4c3CCNC4C)ccc2CC1C(=O)NC1CCCc2ccccc21)C(C)(C)C

> <Shape>
0.261

> <Color>
0.059

> <Negative vol penalty>
0.000

$$$$

  -OEChem-04052322423D

 83 92  0     1  0  0  0  0  0999 V2000
  -16.9143  -29.0253   24.4210 C   0  0  0  0  0  0  0  0  0  0  0  0
  -17.3469  -27.8649   23.7871 C   0  0  0  0  0  0  0  0  0  0  0  0
  -24.4118   -9.2041   20.4763 C   0  0  0  0  0  0  0  0  0  0  0  0
  -22.8212  -10.9810   20.8633 C   0  0  0  0  0  0  0  0  0  0  0  0
  -17.5182  -30.2466   24.1250 C   0  0  0  0  0  0  0  0  0  0  0  0
  -18.3831  -27.9254   22.8558 C   0  0  0  0  0  0  0  0  0  0  0  0
  -22.6850  -23.6834   21.8540 C   0  0  0  0  0  0  0  0  0  0  0  0
  -23.5340   -8.2911   21.0605 C   0  0  0  0  0  0  0  0  0  0  0  0
  -21.9433  -10.0679   21.4475 C   0  0  0  0  0  0  0  0  0  0  0  0
  -22.8063  -22.6787   20.8950 C   0  0  0  0  0  0  0  0  0  0  0  0
  -22.5980   -7.3813   24.1783 C   0  0  0  0  0  0  0  0  0  0  0  0
  -23.1263   -6.4685   25.0911 C   0  0  0  0  0  0  0  0  0  0  0  0
  -24.1865  -24.1336   19.5542 C   0  0  0  0  0  0  0  0  0  0  0  0
  -22.3911   -4.6424   23.6906 C   0  0  0  0  0  0  0  0  0  0  0  0
  -23.7759  -20.9722   15.5144 C   0  0  0  0  0  0  0  0  0  0  0  0
  -24.0555  -10.5491   20.3778 C   0  0  0  0  0  0  0  0  0  0  0  0
  -25.0341  -11.8536   18.4161 C   0  0  0  0  0  0  0  0  0  0  0  0
  -18.5687  -30.3206   23.1968 C   0  0  0  0  0  0  0  0  0  0  0  0
  -23.3056  -24.9265   21.6649 C   0  0  0  0  0  0  0  0  0  0  0  0
  -19.0006  -29.1491   22.5461 C   0  0  0  0  0  0  0  0  0  0  0  0
  -24.0737  -25.1514   20.5135 C   0  0  0  0  0  0  0  0  0  0  0  0
  -22.2998   -8.7229   21.5461 C   0  0  0  0  0  0  0  0  0  0  0  0
  -23.5547  -22.9047   19.7435 C   0  0  0  0  0  0  0  0  0  0  0  0
  -21.9661   -6.9247   23.0216 C   0  0  0  0  0  0  0  0  0  0  0  0
  -23.0229   -5.0991   24.8473 C   0  0  0  0  0  0  0  0  0  0  0  0
  -21.8627   -5.5552   22.7778 C   0  0  0  0  0  0  0  0  0  0  0  0
  -24.9621  -11.4929   19.7749 C   0  0  0  0  0  0  0  0  0  0  0  0
  -24.4410  -21.1169   16.6991 C   0  0  0  0  0  0  0  0  0  0  0  0
  -26.0498  -12.7764   18.3591 C   0  0  0  0  0  0  0  0  0  0  0  0
  -24.9437  -19.1259   15.8722 C   0  0  0  0  0  0  0  0  0  0  0  0
  -24.2526  -11.3955   17.3047 C   0  0  0  0  0  0  0  0  0  0  0  0
  -22.2843  -27.9228   21.3770 C   0  0  0  0  0  0  0  0  0  0  0  0
  -25.4567  -28.5974   21.4303 C   0  0  0  0  0  0  0  0  0  0  0  0
  -28.6549  -27.5307   20.9004 C   0  0  0  0  0  0  0  0  0  0  0  0
  -28.7693  -17.1275   20.2522 C   0  0  0  0  0  0  0  0  0  0  0  0
  -19.1587  -31.6707   22.8743 C   0  0  0  0  0  0  0  0  0  0  0  0
  -23.1872  -25.9906   22.7214 C   0  0  0  0  0  0  0  0  0  0  0  0
  -24.7765  -26.4616   20.2725 C   0  0  0  0  0  0  0  0  0  0  0  0
  -20.5016  -31.5919   22.1528 C   0  0  0  0  0  0  0  0  0  0  0  0
  -29.4948  -14.1217   21.8000 C   0  0  0  0  0  0  0  0  0  0  0  0
  -20.4381  -30.5768   21.0160 C   0  0  0  0  0  0  0  0  0  0  0  0
  -28.3908  -13.1855   21.3083 C   0  0  0  0  0  0  0  0  0  0  0  0
  -27.5159  -19.4635   17.6709 C   0  0  0  0  0  0  0  0  0  0  0  0
  -25.5454  -18.4567   18.8975 C   0  0  0  0  0  0  0  0  0  0  0  0
  -28.9376  -15.5051   22.1161 C   0  0  0  0  0  0  0  0  0  0  0  0
  -28.3997  -19.1413   18.8735 C   0  0  0  0  0  0  0  0  0  0  0  0
  -26.4725  -18.1595   20.0725 C   0  0  0  0  0  0  0  0  0  0  0  0
  -27.1160  -15.2187   20.4684 C   0  0  0  0  0  0  0  0  0  0  0  0
  -20.1383  -29.1703   21.5484 C   0  0  1  0  0  0  0  0  0  0  0  0
  -23.4371  -27.3964   22.1842 C   0  0  1  0  0  0  0  0  0  0  0  0
  -27.6284  -13.8060   20.1241 C   0  0  2  0  0  0  0  0  0  0  0  0
  -26.0482  -19.6640   18.0863 C   0  0  0  0  0  0  0  0  0  0  0  0
  -25.5232  -17.7718   15.6906 C   0  0  0  0  0  0  0  0  0  0  0  0
  -31.0354  -28.3193   20.9933 C   0  0  0  0  0  0  0  0  0  0  0  0
  -25.0455  -30.1376   18.8287 C   0  0  0  0  0  0  0  0  0  0  0  0
  -27.5245  -30.0794   18.4837 C   0  0  0  0  0  0  0  0  0  0  0  0
  -26.5706  -31.2497   20.4694 C   0  0  0  0  0  0  0  0  0  0  0  0
  -29.3663  -25.5106   22.9429 C   0  0  0  0  0  0  0  0  0  0  0  0
  -24.4610  -22.2361   17.6489 C   0  0  0  0  0  0  0  0  0  1  0  0
  -26.5407  -28.7229   20.3872 C   0  0  1  0  0  0  0  0  0  0  0  0
  -29.9069  -27.6386   21.7520 C   0  0  2  0  0  0  0  0  0  0  0  0
  -26.4056  -30.0233   19.5456 C   0  0  0  0  0  0  0  0  0  0  0  0
  -25.8606  -12.1342   20.5269 N   0  0  0  0  0  0  0  0  0  0  0  0
  -25.1551  -19.9595   16.8959 N   0  0  0  0  0  0  0  0  0  0  0  0
  -26.5069  -12.9070   19.6375 N   0  0  0  0  0  0  0  0  0  0  0  0
  -24.1055  -19.7314   15.0247 N   0  3  0  0  0  0  0  0  0  0  0  0
  -24.6253  -27.4728   21.3318 N   0  0  0  0  0  0  0  0  0  0  0  0
  -28.2150  -16.0570   20.9701 N   0  0  0  0  0  0  0  0  0  0  0  0
  -27.8687  -18.0138   19.6386 N   0  0  0  0  0  0  0  0  0  0  0  0
  -26.5877  -13.4807   17.3407 N   0  0  0  0  0  0  0  0  0  0  0  0
  -23.2495  -10.4454   17.5397 N   0  0  0  0  0  0  0  0  0  0  0  0
  -21.3290  -28.5838   22.1253 N   0  0  0  0  0  0  0  0  0  0  0  0
  -27.8083  -28.6008   21.0989 N   0  0  0  0  0  0  0  0  0  0  0  0
  -30.3695  -26.2840   22.1668 N   0  3  0  0  0  0  0  0  0  0  0  0
  -24.4493  -11.8042   16.1351 O   0  0  0  0  0  0  0  0  0  0  0  0
  -22.2638  -27.7439   20.1649 O   0  0  0  0  0  0  0  0  0  0  0  0
  -25.3561  -29.4616   22.3048 O   0  0  0  0  0  0  0  0  0  0  0  0
  -28.4502  -26.5929   20.1328 O   0  0  0  0  0  0  0  0  0  0  0  0
  -29.9934  -17.2813   20.1586 O   0  0  0  0  0  0  0  0  0  0  0  0
  -21.4428   -7.8322   22.1160 O   0  0  0  0  0  0  0  0  0  0  0  0
  -23.6747  -21.9218   18.8015 O   0  0  0  0  0  0  0  0  0  1  0  0
  -23.5317   -4.2227   25.7232 F   0  0  0  0  0  0  0  0  0  0  0  0
  -21.2579   -5.1105   21.6677 F   0  0  0  0  0  0  0  0  0  0  0  0
  1  2  1  0  0  0  0
  1  5  2  0  0  0  0
  2  6  2  0  0  0  0
  3  8  2  0  0  0  0
  3 16  1  0  0  0  0
  4  9  1  0  0  0  0
  4 16  2  0  0  0  0
  5 18  1  0  0  0  0
  6 20  1  0  0  0  0
  7 10  2  0  0  0  0
  7 19  1  0  0  0  0
  8 22  1  0  0  0  0
  9 22  2  0  0  0  0
 10 23  1  0  0  0  0
 11 12  2  0  0  0  0
 11 24  1  0  0  0  0
 12 25  1  0  0  0  0
 13 21  1  0  0  0  0
 13 23  2  0  0  0  0
 14 25  2  0  0  0  0
 14 26  1  0  0  0  0
 15 28  2  0  0  0  0
 15 66  1  0  0  0  0
 16 27  1  0  0  0  0
 17 27  1  0  0  0  0
 17 29  2  0  0  0  0
 17 31  1  0  0  0  0
 18 20  2  0  0  0  0
 18 36  1  0  0  0  0
 19 21  2  0  0  0  0
 19 37  1  0  0  0  0
 20 49  1  0  0  0  0
 21 38  1  0  0  0  0
 22 80  1  0  0  0  0
 23 81  1  0  0  0  0
 24 26  2  0  0  0  0
 24 80  1  0  0  0  0
 25 82  1  0  0  0  0
 26 83  1  0  0  0  0
 27 63  2  0  0  0  0
 28 59  1  0  0  0  0
 28 64  1  0  0  0  0
 29 65  1  0  0  0  0
 29 70  1  0  0  0  0
 30 53  1  0  0  0  0
 30 64  1  0  0  0  0
 30 66  2  0  0  0  0
 31 71  1  0  0  0  0
 31 75  2  0  0  0  0
 32 50  1  0  0  0  0
 32 72  1  0  0  0  0
 32 76  2  0  0  0  0
 33 60  1  0  0  0  0
 33 67  1  0  0  0  0
 33 77  2  0  0  0  0
 34 61  1  0  0  0  0
 34 73  1  0  0  0  0
 34 78  2  0  0  0  0
 35 68  1  0  0  0  0
 35 69  1  0  0  0  0
 35 79  2  0  0  0  0
 36 39  1  0  0  0  0
 37 50  1  0  0  0  0
 38 67  1  0  0  0  0
 39 41  1  0  0  0  0
 40 42  1  0  0  0  0
 40 45  1  0  0  0  0
 41 49  1  0  0  0  0
 42 51  1  0  0  0  0
 43 46  1  0  0  0  0
 43 52  1  0  0  0  0
 44 47  1  0  0  0  0
 44 52  1  0  0  0  0
 45 68  1  0  0  0  0
 46 69  1  0  0  0  0
 47 69  1  0  0  0  0
 48 51  1  0  0  0  0
 48 68  1  0  0  0  0
 49 72  1  0  0  0  0
 50 67  1  0  0  0  0
 51 65  1  0  0  0  0
 52 64  1  0  0  0  0
 54 61  1  0  0  0  0
 55 62  1  0  0  0  0
 56 62  1  0  0  0  0
 57 62  1  0  0  0  0
 58 74  1  0  0  0  0
 59 81  1  0  0  0  0
 60 62  1  0  0  0  0
 60 73  1  0  0  0  0
 61 74  1  0  0  0  0
 63 65  1  0  0  0  0
M  CHG  2  66   1  74   1
M  ISO  4  35 100  59 101  69 100  81 101
M  END
> <Batch ID>
0173

> <Smiles>
CNC(C)C(=O)NC(C(=O)N1Cc2cc([101O:1][101CH2:1]c3cnc(C)n3C3CC[100N:0]([100C:0](=O)N4CCCC(n5nc(-c6ccc(Oc7ccc(F)cc7F)cc6)c(C(N)=O)c5N)C4)CC3)ccc2CC1C(=O)NC1CCCc2ccccc21)C(C)(C)C

> <Shape>
0.238

> <Color>
0.105

> <Negative vol penalty>
0.000

$$$$

  -OEChem-04052322423D

 86 95  0     1  0  0  0  0  0999 V2000
  -33.3114  -11.9460   19.1929 C   0  0  0  0  0  0  0  0  0  0  0  0
  -32.7912  -13.2338   19.2729 C   0  0  0  0  0  0  0  0  0  0  0  0
  -26.7350  -28.1301   22.4107 C   0  0  0  0  0  0  0  0  0  0  0  0
  -25.4859  -28.5521   20.3861 C   0  0  0  0  0  0  0  0  0  0  0  0
  -32.4840  -10.8821   18.8357 C   0  0  0  0  0  0  0  0  0  0  0  0
  -31.4435  -13.4586   18.9946 C   0  0  0  0  0  0  0  0  0  0  0  0
  -27.7699  -17.5698   21.6607 C   0  0  0  0  0  0  0  0  0  0  0  0
  -27.6830  -27.4169   21.6772 C   0  0  0  0  0  0  0  0  0  0  0  0
  -26.4340  -27.8389   19.6526 C   0  0  0  0  0  0  0  0  0  0  0  0
  -27.3510  -18.8426   21.2755 C   0  0  0  0  0  0  0  0  0  0  0  0
  -27.9786  -24.3356   20.3197 C   0  0  0  0  0  0  0  0  0  0  0  0
  -28.4150  -23.1164   20.8382 C   0  0  0  0  0  0  0  0  0  0  0  0
  -25.3279  -17.8947   20.3656 C   0  0  0  0  0  0  0  0  0  0  0  0
  -30.6789  -23.9569   20.9094 C   0  0  0  0  0  0  0  0  0  0  0  0
  -25.6364  -28.6977   21.7652 C   0  0  0  0  0  0  0  0  0  0  0  0
  -24.6619  -30.8130   22.8062 C   0  0  0  0  0  0  0  0  0  0  0  0
  -31.1233  -11.0925   18.5623 C   0  0  0  0  0  0  0  0  0  0  0  0
  -26.9746  -16.4468   21.3911 C   0  0  0  0  0  0  0  0  0  0  0  0
  -30.5974  -12.3968   18.6321 C   0  0  0  0  0  0  0  0  0  0  0  0
  -25.7378  -16.6091   20.7508 C   0  0  0  0  0  0  0  0  0  0  0  0
  -24.1953  -21.7665   19.2178 C   0  0  0  0  0  0  0  0  0  0  0  0
  -24.3265  -22.1827   17.8976 C   0  0  0  0  0  0  0  0  0  0  0  0
  -23.8181  -22.6809   20.1949 C   0  0  0  0  0  0  0  0  0  0  0  0
  -27.5326  -27.2713   20.2981 C   0  0  0  0  0  0  0  0  0  0  0  0
  -26.1311  -19.0048   20.6253 C   0  0  0  0  0  0  0  0  0  0  0  0
  -28.8925  -25.3655   20.0960 C   0  0  0  0  0  0  0  0  0  0  0  0
  -29.7651  -22.9271   21.1330 C   0  0  0  0  0  0  0  0  0  0  0  0
  -30.2426  -25.1761   20.3909 C   0  0  0  0  0  0  0  0  0  0  0  0
  -24.6564  -29.4341   22.5224 C   0  0  0  0  0  0  0  0  0  0  0  0
  -24.0712  -23.5135   17.6087 C   0  0  0  0  0  0  0  0  0  0  0  0
  -23.5857  -23.9895   19.8033 C   0  0  0  0  0  0  0  0  0  0  0  0
  -23.5245  -31.0152   23.5491 C   0  0  0  0  0  0  0  0  0  0  0  0
  -25.6103  -31.8209   22.4317 C   0  0  0  0  0  0  0  0  0  0  0  0
  -27.3404  -13.8003   19.6689 C   0  0  0  0  0  0  0  0  0  0  0  0
  -24.4975  -13.0004   21.0107 C   0  0  0  0  0  0  0  0  0  0  0  0
  -21.5911  -14.0322   22.4718 C   0  0  0  0  0  0  0  0  0  0  0  0
  -21.4524  -25.9051   23.3177 C   0  0  0  0  0  0  0  0  0  0  0  0
  -30.2788   -9.9185   18.1343 C   0  0  0  0  0  0  0  0  0  0  0  0
  -27.4284  -15.0838   21.8370 C   0  0  0  0  0  0  0  0  0  0  0  0
  -24.8376  -15.4381   20.4562 C   0  0  0  0  0  0  0  0  0  0  0  0
  -28.7781  -10.1843   18.2199 C   0  0  0  0  0  0  0  0  0  0  0  0
  -22.3517  -27.8177   26.1987 C   0  0  0  0  0  0  0  0  0  0  0  0
  -19.7471  -26.2787   20.1393 C   0  0  0  0  0  0  0  0  0  0  0  0
  -28.4398  -11.5388   17.6052 C   0  0  0  0  0  0  0  0  0  0  0  0
  -21.8771  -29.2336   25.8914 C   0  0  0  0  0  0  0  0  0  0  0  0
  -20.9813  -25.5273   19.6604 C   0  0  0  0  0  0  0  0  0  0  0  0
  -21.3887  -26.7924   25.6205 C   0  0  0  0  0  0  0  0  0  0  0  0
  -20.2634  -27.0202   21.3627 C   0  0  0  0  0  0  0  0  0  0  0  0
  -20.7952  -28.3277   23.7559 C   0  0  0  0  0  0  0  0  0  0  0  0
  -29.1351  -12.6771   18.3618 C   0  0  1  0  0  0  0  0  0  0  0  0
  -26.7747  -13.9502   21.0528 C   0  0  1  0  0  0  0  0  0  0  0  0
  -21.6337  -29.4610   24.3909 C   0  0  2  0  0  0  0  0  0  0  0  0
  -21.6630  -25.1039   20.9644 C   0  0  1  0  0  0  0  0  0  0  0  0
  -24.7286  -21.2247   16.8268 C   0  0  0  0  0  0  0  0  0  0  0  0
  -23.6687  -22.2654   21.6202 C   0  0  0  0  0  0  0  0  0  0  0  0
  -24.1952  -24.0195   16.2088 C   0  0  0  0  0  0  0  0  0  0  0  0
  -19.4452  -13.1495   23.4276 C   0  0  0  0  0  0  0  0  0  0  0  0
  -23.4470  -12.5060   18.1891 C   0  0  0  0  0  0  0  0  0  0  0  0
  -21.1232  -12.5648   19.1190 C   0  0  0  0  0  0  0  0  0  0  0  0
  -22.7262  -10.8125   19.8822 C   0  0  0  0  0  0  0  0  0  0  0  0
  -22.1825  -15.1589   25.1438 C   0  0  0  0  0  0  0  0  0  0  0  0
  -24.4611  -20.3416   19.5861 C   0  0  0  0  0  0  0  0  0  1  0  0
  -23.1770  -25.0259   20.8157 C   0  0  0  0  0  0  0  0  0  0  0  0
  -23.0473  -13.2021   20.6430 C   0  0  1  0  0  0  0  0  0  0  0  0
  -20.8756  -13.5694   23.7282 C   0  0  2  0  0  0  0  0  0  0  0  0
  -22.6036  -12.2934   19.4620 C   0  0  0  0  0  0  0  0  0  0  0  0
  -23.5994  -28.8048   23.0428 N   0  0  0  0  0  0  0  0  0  0  0  0
  -23.7028  -24.4310   18.5308 N   0  0  0  0  0  0  0  0  0  0  0  0
  -22.9302  -29.7927   23.6611 N   0  0  0  0  0  0  0  0  0  0  0  0
  -25.3283  -14.1250   20.9062 N   0  0  0  0  0  0  0  0  0  0  0  0
  -21.1904  -26.9777   24.1828 N   0  0  0  0  0  0  0  0  0  0  0  0
  -21.2438  -26.1063   21.9514 N   0  0  0  0  0  0  0  0  0  0  0  0
  -22.9847  -32.1176   24.1109 N   0  0  0  0  0  0  0  0  0  0  0  0
  -26.7221  -31.4412   21.6675 N   0  0  0  0  0  0  0  0  0  0  0  0
  -28.4373  -12.9630   19.5971 N   0  0  0  0  0  0  0  0  0  0  0  0
  -22.2836  -13.0029   21.8699 N   0  0  0  0  0  0  0  0  0  0  0  0
  -20.8416  -14.6647   24.7382 N   0  3  0  0  0  0  0  0  0  0  0  0
  -25.4844  -33.0197   22.7787 O   0  0  0  0  0  0  0  0  0  0  0  0
  -26.8193  -14.3988   18.7351 O   0  0  0  0  0  0  0  0  0  0  0  0
  -24.8777  -11.8879   21.3841 O   0  0  0  0  0  0  0  0  0  0  0  0
  -21.5377  -15.1900   22.0631 O   0  0  0  0  0  0  0  0  0  0  0  0
  -21.8458  -24.8125   23.7473 O   0  0  0  0  0  0  0  0  0  0  0  0
  -28.4576  -26.5756   19.5820 O   0  0  0  0  0  0  0  0  0  0  0  0
  -25.7172  -20.2551   20.2448 O   0  0  0  0  0  0  0  0  0  1  0  0
  -30.1837  -21.7568   21.6323 F   0  0  0  0  0  0  0  0  0  0  0  0
  -31.1250  -26.1622   20.1793 F   0  0  0  0  0  0  0  0  0  0  0  0
  1  2  1  0  0  0  0
  1  5  2  0  0  0  0
  2  6  2  0  0  0  0
  3  8  2  0  0  0  0
  3 15  1  0  0  0  0
  4  9  1  0  0  0  0
  4 15  2  0  0  0  0
  5 17  1  0  0  0  0
  6 19  1  0  0  0  0
  7 10  2  0  0  0  0
  7 18  1  0  0  0  0
  8 24  1  0  0  0  0
  9 24  2  0  0  0  0
 10 25  1  0  0  0  0
 11 12  2  0  0  0  0
 11 26  1  0  0  0  0
 12 27  1  0  0  0  0
 13 20  1  0  0  0  0
 13 25  2  0  0  0  0
 14 27  2  0  0  0  0
 14 28  1  0  0  0  0
 15 29  1  0  0  0  0
 16 29  1  0  0  0  0
 16 32  2  0  0  0  0
 16 33  1  0  0  0  0
 17 19  2  0  0  0  0
 17 38  1  0  0  0  0
 18 20  2  0  0  0  0
 18 39  1  0  0  0  0
 19 50  1  0  0  0  0
 20 40  1  0  0  0  0
 21 22  1  0  0  0  0
 21 23  2  0  0  0  0
 21 62  1  0  0  0  0
 22 30  2  0  0  0  0
 22 54  1  0  0  0  0
 23 31  1  0  0  0  0
 23 55  1  0  0  0  0
 24 83  1  0  0  0  0
 25 84  1  0  0  0  0
 26 28  2  0  0  0  0
 26 83  1  0  0  0  0
 27 85  1  0  0  0  0
 28 86  1  0  0  0  0
 29 67  2  0  0  0  0
 30 56  1  0  0  0  0
 30 68  1  0  0  0  0
 31 63  1  0  0  0  0
 31 68  2  0  0  0  0
 32 69  1  0  0  0  0
 32 73  1  0  0  0  0
 33 74  1  0  0  0  0
 33 78  2  0  0  0  0
 34 51  1  0  0  0  0
 34 75  1  0  0  0  0
 34 79  2  0  0  0  0
 35 64  1  0  0  0  0
 35 70  1  0  0  0  0
 35 80  2  0  0  0  0
 36 65  1  0  0  0  0
 36 76  1  0  0  0  0
 36 81  2  0  0  0  0
 37 71  1  0  0  0  0
 37 72  1  0  0  0  0
 37 82  2  0  0  0  0
 38 41  1  0  0  0  0
 39 51  1  0  0  0  0
 40 70  1  0  0  0  0
 41 44  1  0  0  0  0
 42 45  1  0  0  0  0
 42 47  1  0  0  0  0
 43 46  1  0  0  0  0
 43 48  1  0  0  0  0
 44 50  1  0  0  0  0
 45 52  1  0  0  0  0
 46 53  1  0  0  0  0
 47 71  1  0  0  0  0
 48 72  1  0  0  0  0
 49 52  1  0  0  0  0
 49 71  1  0  0  0  0
 50 75  1  0  0  0  0
 51 70  1  0  0  0  0
 52 69  1  0  0  0  0
 53 63  1  0  0  0  0
 53 72  1  0  0  0  0
 57 65  1  0  0  0  0
 58 66  1  0  0  0  0
 59 66  1  0  0  0  0
 60 66  1  0  0  0  0
 61 77  1  0  0  0  0
 62 84  1  0  0  0  0
 64 66  1  0  0  0  0
 64 76  1  0  0  0  0
 65 77  1  0  0  0  0
 67 69  1  0  0  0  0
M  CHG  1  77   1
M  ISO  4  37 100  62 101  72 100  84 101
M  END
> <Batch ID>
0173

> <Smiles>
CNC(C)C(=O)NC(C(=O)N1Cc2cc([101O:1][101CH2:1]c3c(C)c(C)nc(CC4CCC[100N:0]4[100C:0](=O)N4CCCC(n5nc(-c6ccc(Oc7ccc(F)cc7F)cc6)c(C(N)=O)c5N)C4)c3C)ccc2CC1C(=O)NC1CCCc2ccccc21)C(C)(C)C

> <Shape>
0.244

> <Color>
0.075

> <Negative vol penalty>
0.000

$$$$

  -OEChem-04052322423D

 85 95  0     1  0  0  0  0  0999 V2000
  -31.2880  -34.7106   21.2996 C   0  0  0  0  0  0  0  0  0  0  0  0
  -31.2975  -33.3257   21.1685 C   0  0  0  0  0  0  0  0  0  0  0  0
  -24.5361   -8.7367   21.7249 C   0  0  0  0  0  0  0  0  0  0  0  0
  -23.1048  -10.0037   20.2474 C   0  0  0  0  0  0  0  0  0  0  0  0
  -30.3221  -35.3279   22.0932 C   0  0  0  0  0  0  0  0  0  0  0  0
  -30.3417  -32.5571   21.8319 C   0  0  0  0  0  0  0  0  0  0  0  0
  -27.7613  -27.3710   19.8440 C   0  0  0  0  0  0  0  0  0  0  0  0
  -23.4447   -8.4657   22.5500 C   0  0  0  0  0  0  0  0  0  0  0  0
  -22.0132   -9.7327   21.0725 C   0  0  0  0  0  0  0  0  0  0  0  0
  -28.0254  -26.0287   20.1133 C   0  0  0  0  0  0  0  0  0  0  0  0
  -20.8008   -6.3580   22.5713 C   0  0  0  0  0  0  0  0  0  0  0  0
  -20.6426   -5.0497   23.0281 C   0  0  0  0  0  0  0  0  0  0  0  0
  -26.2948  -26.0317   21.7939 C   0  0  0  0  0  0  0  0  0  0  0  0
  -20.8060   -5.8267   25.3099 C   0  0  0  0  0  0  0  0  0  0  0  0
  -24.3662   -9.5057   20.5736 C   0  0  0  0  0  0  0  0  0  0  0  0
  -25.9442   -9.0218   18.6285 C   0  0  0  0  0  0  0  0  0  0  0  0
  -29.3481  -34.5672   22.7590 C   0  0  0  0  0  0  0  0  0  0  0  0
  -26.7678  -28.0578   20.5565 C   0  0  0  0  0  0  0  0  0  0  0  0
  -29.3627  -33.1647   22.6363 C   0  0  0  0  0  0  0  0  0  0  0  0
  -26.0184  -27.3819   21.5299 C   0  0  0  0  0  0  0  0  0  0  0  0
  -29.1045  -21.0258   20.1088 C   0  0  0  0  0  0  0  0  0  0  0  0
  -22.1832   -8.9637   22.2238 C   0  0  0  0  0  0  0  0  0  0  0  0
  -27.2940  -25.3597   21.0903 C   0  0  0  0  0  0  0  0  0  0  0  0
  -20.9617   -7.4008   23.4837 C   0  0  0  0  0  0  0  0  0  0  0  0
  -20.6451   -4.7840   24.3975 C   0  0  0  0  0  0  0  0  0  0  0  0
  -20.9642   -7.1351   24.8530 C   0  0  0  0  0  0  0  0  0  0  0  0
  -25.4935   -9.7864   19.7212 C   0  0  0  0  0  0  0  0  0  0  0  0
  -29.1697  -19.7366   20.5966 C   0  0  0  0  0  0  0  0  0  0  0  0
  -28.6917  -21.9852   21.0106 C   0  0  0  0  0  0  0  0  0  0  0  0
  -27.0367   -9.7077   18.1568 C   0  0  0  0  0  0  0  0  0  0  0  0
  -28.4698  -20.4234   22.6473 C   0  0  0  0  0  0  0  0  0  0  0  0
  -25.4220   -7.8008   18.0880 C   0  0  0  0  0  0  0  0  0  0  0  0
  -26.7345  -30.5709   22.5024 C   0  0  0  0  0  0  0  0  0  0  0  0
  -23.5205  -30.1627   22.3405 C   0  0  0  0  0  0  0  0  0  0  0  0
  -20.8921  -28.0638   21.7635 C   0  0  0  0  0  0  0  0  0  0  0  0
  -28.4212  -15.4784   18.5669 C   0  0  0  0  0  0  0  0  0  0  0  0
  -28.3531  -35.2758   23.6436 C   0  0  0  0  0  0  0  0  0  0  0  0
  -26.4770  -29.4982   20.2355 C   0  0  0  0  0  0  0  0  0  0  0  0
  -24.9272  -28.0684   22.3087 C   0  0  0  0  0  0  0  0  0  0  0  0
  -27.1465  -34.4167   24.0130 C   0  0  0  0  0  0  0  0  0  0  0  0
  -30.5298  -12.6288   19.5409 C   0  0  0  0  0  0  0  0  0  0  0  0
  -30.8142  -20.9520   18.1735 C   0  0  0  0  0  0  0  0  0  0  0  0
  -30.5102  -22.3954   18.4275 C   0  0  0  0  0  0  0  0  0  0  0  0
  -27.5954  -33.0271   24.4538 C   0  0  0  0  0  0  0  0  0  0  0  0
  -29.4873  -11.5236   19.6677 C   0  0  0  0  0  0  0  0  0  0  0  0
  -29.9768  -14.0004   19.9288 C   0  0  0  0  0  0  0  0  0  0  0  0
  -29.4746  -17.0682   20.3310 C   0  0  0  0  0  0  0  0  0  0  0  0
  -28.7090  -18.0018   18.5827 C   0  0  0  0  0  0  0  0  0  0  0  0
  -27.6837  -13.2475   19.3307 C   0  0  0  0  0  0  0  0  0  0  0  0
  -29.4585  -21.3497   18.7006 C   0  0  0  0  0  0  0  0  0  0  0  0
  -28.3274  -32.2985   23.3204 C   0  0  1  0  0  0  0  0  0  0  0  0
  -29.6188  -18.4862   19.7305 C   0  0  0  0  0  0  0  0  0  0  0  0
  -25.7923  -30.2390   21.3800 C   0  0  1  0  0  0  0  0  0  0  0  0
  -28.2241  -11.8859   18.8734 C   0  0  2  0  0  0  0  0  0  0  0  0
  -28.1174  -20.0889   24.0569 C   0  0  0  0  0  0  0  0  0  0  0  0
  -18.3834  -28.0079   21.7438 C   0  0  0  0  0  0  0  0  0  0  0  0
  -23.5004  -30.1018   25.3910 C   0  0  0  0  0  0  0  0  0  0  0  0
  -21.2020  -29.1146   25.2867 C   0  0  0  0  0  0  0  0  0  0  0  0
  -21.6223  -31.3925   24.3610 C   0  0  0  0  0  0  0  0  0  0  0  0
  -20.8148  -27.3554   18.8910 C   0  0  0  0  0  0  0  0  0  0  0  0
  -28.5820  -23.4227   20.5950 C   0  0  0  0  0  0  0  0  0  1  0  0
  -22.5027  -29.3704   23.1248 C   0  0  1  0  0  0  0  0  0  0  0  0
  -19.6417  -28.2243   20.9177 C   0  0  2  0  0  0  0  0  0  0  0  0
  -22.2286  -29.9821   24.5277 C   0  0  0  0  0  0  0  0  0  0  0  0
  -26.2388  -10.8747   19.9314 N   0  0  0  0  0  0  0  0  0  0  0  0
  -28.8585  -19.3984   21.8651 N   0  0  0  0  0  0  0  0  0  0  0  0
  -28.3651  -21.7182   22.2922 N   0  0  0  0  0  0  0  0  0  0  0  0
  -27.1690  -10.7987   18.9645 N   0  0  0  0  0  0  0  0  0  0  0  0
  -24.6848  -29.4788   21.9628 N   0  0  0  0  0  0  0  0  0  0  0  0
  -28.7066  -14.2962   19.2582 N   0  0  0  0  0  0  0  0  0  0  0  0
  -29.0157  -16.6411   19.0148 N   0  0  0  0  0  0  0  0  0  0  0  0
  -27.8876   -9.4779   17.1343 N   0  0  0  0  0  0  0  0  0  0  0  0
  -24.2937   -7.2308   18.6935 N   0  0  0  0  0  0  0  0  0  0  0  0
  -27.3796  -31.7840   22.3552 N   0  0  0  0  0  0  0  0  0  0  0  0
  -21.3207  -29.2702   22.2754 N   0  0  0  0  0  0  0  0  0  0  0  0
  -19.6439  -27.2407   19.7981 N   0  3  0  0  0  0  0  0  0  0  0  0
  -25.9502   -7.2234   17.1077 O   0  0  0  0  0  0  0  0  0  0  0  0
  -26.8653  -29.7854   23.4338 O   0  0  0  0  0  0  0  0  0  0  0  0
  -23.2879  -31.3427   22.0666 O   0  0  0  0  0  0  0  0  0  0  0  0
  -21.4323  -26.9764   21.9541 O   0  0  0  0  0  0  0  0  0  0  0  0
  -27.6403  -15.5062   17.6072 O   0  0  0  0  0  0  0  0  0  0  0  0
  -21.1178   -8.6993   23.0285 O   0  0  0  0  0  0  0  0  0  0  0  0
  -27.5501  -24.0498   21.3556 O   0  0  0  0  0  0  0  0  0  1  0  0
  -20.4916   -3.5277   24.8361 F   0  0  0  0  0  0  0  0  0  0  0  0
  -21.1172   -8.1329   25.7344 F   0  0  0  0  0  0  0  0  0  0  0  0
  1  2  1  0  0  0  0
  1  5  2  0  0  0  0
  2  6  2  0  0  0  0
  3  8  2  0  0  0  0
  3 15  1  0  0  0  0
  4  9  1  0  0  0  0
  4 15  2  0  0  0  0
  5 17  1  0  0  0  0
  6 19  1  0  0  0  0
  7 10  2  0  0  0  0
  7 18  1  0  0  0  0
  8 22  1  0  0  0  0
  9 22  2  0  0  0  0
 10 23  1  0  0  0  0
 11 12  2  0  0  0  0
 11 24  1  0  0  0  0
 12 25  1  0  0  0  0
 13 20  1  0  0  0  0
 13 23  2  0  0  0  0
 14 25  2  0  0  0  0
 14 26  1  0  0  0  0
 15 27  1  0  0  0  0
 16 27  1  0  0  0  0
 16 30  2  0  0  0  0
 16 32  1  0  0  0  0
 17 19  2  0  0  0  0
 17 37  1  0  0  0  0
 18 20  2  0  0  0  0
 18 38  1  0  0  0  0
 19 51  1  0  0  0  0
 20 39  1  0  0  0  0
 21 28  1  0  0  0  0
 21 29  2  0  0  0  0
 21 50  1  0  0  0  0
 22 82  1  0  0  0  0
 23 83  1  0  0  0  0
 24 26  2  0  0  0  0
 24 82  1  0  0  0  0
 25 84  1  0  0  0  0
 26 85  1  0  0  0  0
 27 65  2  0  0  0  0
 28 52  1  0  0  0  0
 28 66  2  0  0  0  0
 29 61  1  0  0  0  0
 29 67  1  0  0  0  0
 30 68  1  0  0  0  0
 30 72  1  0  0  0  0
 31 55  1  0  0  0  0
 31 66  1  0  0  0  0
 31 67  2  0  0  0  0
 32 73  1  0  0  0  0
 32 77  2  0  0  0  0
 33 53  1  0  0  0  0
 33 74  1  0  0  0  0
 33 78  2  0  0  0  0
 34 62  1  0  0  0  0
 34 69  1  0  0  0  0
 34 79  2  0  0  0  0
 35 63  1  0  0  0  0
 35 75  1  0  0  0  0
 35 80  2  0  0  0  0
 36 70  1  0  0  0  0
 36 71  1  0  0  0  0
 36 81  2  0  0  0  0
 37 40  1  0  0  0  0
 38 53  1  0  0  0  0
 39 69  1  0  0  0  0
 40 44  1  0  0  0  0
 41 45  1  0  0  0  0
 41 46  1  0  0  0  0
 42 43  1  0  0  0  0
 42 50  1  0  0  0  0
 43 50  1  0  0  0  0
 44 51  1  0  0  0  0
 45 54  1  0  0  0  0
 46 70  1  0  0  0  0
 47 52  1  0  0  0  0
 47 71  1  0  0  0  0
 48 52  1  0  0  0  0
 48 71  1  0  0  0  0
 49 54  1  0  0  0  0
 49 70  1  0  0  0  0
 51 74  1  0  0  0  0
 53 69  1  0  0  0  0
 54 68  1  0  0  0  0
 56 63  1  0  0  0  0
 57 64  1  0  0  0  0
 58 64  1  0  0  0  0
 59 64  1  0  0  0  0
 60 76  1  0  0  0  0
 61 83  1  0  0  0  0
 62 64  1  0  0  0  0
 62 75  1  0  0  0  0
 63 76  1  0  0  0  0
 65 68  1  0  0  0  0
M  CHG  1  76   1
M  ISO  4  36 100  61 101  71 100  83 101
M  END
> <Batch ID>
0173

> <Smiles>
CNC(C)C(=O)NC(C(=O)N1Cc2cc([101O:1][101CH2:1]c3nc(C)nc(C4C[100N:0]([100C:0](=O)N5CCCC(n6nc(-c7ccc(Oc8ccc(F)cc8F)cc7)c(C(N)=O)c6N)C5)C4)c3C3CC3)ccc2CC1C(=O)NC1CCCc2ccccc21)C(C)(C)C

> <Shape>
0.290

> <Color>
0.070

> <Negative vol penalty>
0.000

$$$$

  -OEChem-04052322423D

 91101  0     1  0  0  0  0  0999 V2000
  -21.8641  -34.2955   14.9069 C   0  0  0  0  0  0  0  0  0  0  0  0
  -22.6658  -33.1726   15.0859 C   0  0  0  0  0  0  0  0  0  0  0  0
  -25.3872   -9.7177   22.6824 C   0  0  0  0  0  0  0  0  0  0  0  0
  -23.8896   -8.9456   20.9509 C   0  0  0  0  0  0  0  0  0  0  0  0
  -21.9146  -35.3407   15.8282 C   0  0  0  0  0  0  0  0  0  0  0  0
  -23.5192  -33.0949   16.1859 C   0  0  0  0  0  0  0  0  0  0  0  0
  -26.6035  -22.5789   21.5445 C   0  0  0  0  0  0  0  0  0  0  0  0
  -27.4192  -23.6711   21.8447 C   0  0  0  0  0  0  0  0  0  0  0  0
  -25.0182  -28.0601   19.3339 C   0  0  0  0  0  0  0  0  0  0  0  0
  -25.2816   -8.4837   23.3240 C   0  0  0  0  0  0  0  0  0  0  0  0
  -23.7840   -7.7116   21.5925 C   0  0  0  0  0  0  0  0  0  0  0  0
  -26.1286  -27.2184   19.2838 C   0  0  0  0  0  0  0  0  0  0  0  0
  -22.8355   -4.4818   22.9632 C   0  0  0  0  0  0  0  0  0  0  0  0
  -21.5632   -3.9246   23.0916 C   0  0  0  0  0  0  0  0  0  0  0  0
  -28.1225  -21.8844   19.7828 C   0  0  0  0  0  0  0  0  0  0  0  0
  -27.1274  -28.4374   21.1102 C   0  0  0  0  0  0  0  0  0  0  0  0
  -20.8473   -5.8517   24.3608 C   0  0  0  0  0  0  0  0  0  0  0  0
  -24.6911   -9.9487   21.4959 C   0  0  0  0  0  0  0  0  0  0  0  0
  -25.7397  -11.5952   19.8536 C   0  0  0  0  0  0  0  0  0  0  0  0
  -26.9531  -21.6909   20.5198 C   0  0  0  0  0  0  0  0  0  0  0  0
  -22.7620  -35.2715   16.9452 C   0  0  0  0  0  0  0  0  0  0  0  0
  -24.9589  -29.1053   20.2669 C   0  0  0  0  0  0  0  0  0  0  0  0
  -23.5820  -34.1408   17.1223 C   0  0  0  0  0  0  0  0  0  0  0  0
  -28.5795  -23.8665   21.1044 C   0  0  0  0  0  0  0  0  0  0  0  0
  -28.9297  -22.9772   20.0781 C   0  0  0  0  0  0  0  0  0  0  0  0
  -26.0141  -29.2893   21.1717 C   0  0  0  0  0  0  0  0  0  0  0  0
  -24.4801   -7.4806   22.7790 C   0  0  0  0  0  0  0  0  0  0  0  0
  -27.1847  -27.4088   20.1701 C   0  0  0  0  0  0  0  0  0  0  0  0
  -23.1137   -5.7240   23.5337 C   0  0  0  0  0  0  0  0  0  0  0  0
  -20.5691   -4.6095   23.7904 C   0  0  0  0  0  0  0  0  0  0  0  0
  -22.1196   -6.4089   24.2325 C   0  0  0  0  0  0  0  0  0  0  0  0
  -24.7993  -11.2234   20.8330 C   0  0  0  0  0  0  0  0  0  0  0  0
  -25.4213  -12.8958   19.5480 C   0  0  0  0  0  0  0  0  0  0  0  0
  -26.8058  -10.8329   19.2721 C   0  0  0  0  0  0  0  0  0  0  0  0
  -24.7776  -32.2731   20.0779 C   0  0  0  0  0  0  0  0  0  0  0  0
  -24.4489  -32.0568   23.2978 C   0  0  0  0  0  0  0  0  0  0  0  0
  -24.9926  -30.2662   26.1517 C   0  0  0  0  0  0  0  0  0  0  0  0
  -24.2194  -17.9599   21.6824 C   0  0  0  0  0  0  0  0  0  0  0  0
  -22.8169  -36.4469   17.8887 C   0  0  0  0  0  0  0  0  0  0  0  0
  -23.7423  -29.9878   20.3257 C   0  0  0  0  0  0  0  0  0  0  0  0
  -25.9901  -30.3841   22.2058 C   0  0  0  0  0  0  0  0  0  0  0  0
  -23.4725  -36.1224   19.2285 C   0  0  0  0  0  0  0  0  0  0  0  0
  -21.3923  -15.6860   20.7596 C   0  0  0  0  0  0  0  0  0  0  0  0
  -24.7689  -35.3475   19.0147 C   0  0  0  0  0  0  0  0  0  0  0  0
  -22.1145  -14.3411   20.6913 C   0  0  0  0  0  0  0  0  0  0  0  0
  -26.0142  -20.0719   18.7273 C   0  0  0  0  0  0  0  0  0  0  0  0
  -30.4365  -24.8026   19.9688 C   0  0  0  0  0  0  0  0  0  0  0  0
  -22.0829  -16.6352   21.7316 C   0  0  0  0  0  0  0  0  0  0  0  0
  -25.3032  -17.7562   19.4702 C   0  0  0  0  0  0  0  0  0  0  0  0
  -24.2551  -15.5135   21.3776 C   0  0  0  0  0  0  0  0  0  0  0  0
  -26.0528  -20.5021   20.2113 C   0  0  1  0  0  0  0  0  0  0  0  0
  -24.5025  -34.0086   18.3163 C   0  0  1  0  0  0  0  0  0  0  0  0
  -24.0160  -31.3402   20.9764 C   0  0  1  0  0  0  0  0  0  0  0  0
  -25.0491  -18.8985   18.4748 C   0  0  1  0  0  0  0  0  0  0  0  0
  -23.6094  -14.5343   20.3836 C   0  0  1  0  0  0  0  0  0  0  0  0
  -26.3353  -19.2889   21.1451 C   0  0  2  0  0  0  0  0  0  0  0  0
  -29.6057  -24.9602   21.2733 C   0  0  2  0  0  0  0  0  0  0  0  0
  -30.2358  -23.3597   19.4258 C   0  0  0  0  0  0  0  0  0  0  0  0
  -23.5877  -19.3545   18.4896 C   0  0  0  0  0  0  0  0  0  0  0  0
  -27.7694  -18.7507   21.0373 C   0  0  0  0  0  0  0  0  0  0  0  0
  -30.4546  -24.7306   22.5299 C   0  0  0  0  0  0  0  0  0  0  0  0
  -31.3653  -22.4172   19.8597 C   0  0  0  0  0  0  0  0  0  0  0  0
  -30.1451  -23.3762   17.8937 C   0  0  0  0  0  0  0  0  0  0  0  0
  -24.6453  -30.3644   28.6351 C   0  0  0  0  0  0  0  0  0  0  0  0
  -26.7639  -34.0295   23.5411 C   0  0  0  0  0  0  0  0  0  0  0  0
  -26.9882  -33.3626   25.9438 C   0  0  0  0  0  0  0  0  0  0  0  0
  -24.8813  -34.4281   25.1385 C   0  0  0  0  0  0  0  0  0  0  0  0
  -23.2952  -27.8419   26.1270 C   0  0  0  0  0  0  0  0  0  0  0  0
  -28.9715  -26.3565   21.3345 C   0  0  0  0  0  0  0  0  0  1  0  0
  -25.3989  -32.0451   24.4710 C   0  0  1  0  0  0  0  0  0  0  0  0
  -24.0730  -29.9032   27.3037 C   0  0  2  0  0  0  0  0  0  0  0  0
  -26.0097  -33.4468   24.7529 C   0  0  0  0  0  0  0  0  0  0  0  0
  -23.9474  -12.2084   21.1300 N   0  0  0  0  0  0  0  0  0  0  0  0
  -24.3514  -13.2118   20.3326 N   0  0  0  0  0  0  0  0  0  0  0  0
  -24.7815  -31.2247   22.2194 N   0  0  0  0  0  0  0  0  0  0  0  0
  -23.5123  -16.7736   21.4340 N   0  0  0  0  0  0  0  0  0  0  0  0
  -25.3329  -18.2294   20.8592 N   0  0  0  0  0  0  0  0  0  0  0  0
  -25.9549  -13.7885   18.6873 N   0  0  0  0  0  0  0  0  0  0  0  0
  -26.9932   -9.5116   19.7002 N   0  0  0  0  0  0  0  0  0  0  0  0
  -23.9759  -33.0435   19.2575 N   0  0  0  0  0  0  0  0  0  0  0  0
  -24.6557  -31.4806   25.5924 N   0  0  0  0  0  0  0  0  0  0  0  0
  -23.8749  -28.4274   27.3632 N   0  3  0  0  0  0  0  0  0  0  0  0
  -27.5799  -11.3147   18.4105 O   0  0  0  0  0  0  0  0  0  0  0  0
  -26.0019  -32.2936   20.1265 O   0  0  0  0  0  0  0  0  0  0  0  0
  -23.4449  -32.7722   23.3397 O   0  0  0  0  0  0  0  0  0  0  0  0
  -25.9196  -29.5462   25.7871 O   0  0  0  0  0  0  0  0  0  0  0  0
  -23.8910  -18.7148   22.6066 O   0  0  0  0  0  0  0  0  0  0  0  0
  -24.3770   -6.2762   23.4047 O   0  0  0  0  0  0  0  0  0  0  0  0
  -28.2808  -26.5809   20.1225 O   0  0  0  0  0  0  0  0  0  1  0  0
  -19.3470   -4.0750   23.9123 F   0  0  0  0  0  0  0  0  0  0  0  0
  -22.3805   -7.6031   24.7816 F   0  0  0  0  0  0  0  0  0  0  0  0
  1  2  1  0  0  0  0
  1  5  2  0  0  0  0
  2  6  2  0  0  0  0
  3 10  2  0  0  0  0
  3 18  1  0  0  0  0
  4 11  1  0  0  0  0
  4 18  2  0  0  0  0
  5 21  1  0  0  0  0
  6 23  1  0  0  0  0
  7  8  2  0  0  0  0
  7 20  1  0  0  0  0
  8 24  1  0  0  0  0
  9 12  2  0  0  0  0
  9 22  1  0  0  0  0
 10 27  1  0  0  0  0
 11 27  2  0  0  0  0
 12 28  1  0  0  0  0
 13 14  2  0  0  0  0
 13 29  1  0  0  0  0
 14 30  1  0  0  0  0
 15 20  2  0  0  0  0
 15 25  1  0  0  0  0
 16 26  1  0  0  0  0
 16 28  2  0  0  0  0
 17 30  2  0  0  0  0
 17 31  1  0  0  0  0
 18 32  1  0  0  0  0
 19 32  1  0  0  0  0
 19 33  2  0  0  0  0
 19 34  1  0  0  0  0
 20 51  1  0  0  0  0
 21 23  2  0  0  0  0
 21 39  1  0  0  0  0
 22 26  2  0  0  0  0
 22 40  1  0  0  0  0
 23 52  1  0  0  0  0
 24 25  2  0  0  0  0
 24 57  1  0  0  0  0
 25 58  1  0  0  0  0
 26 41  1  0  0  0  0
 27 88  1  0  0  0  0
 28 89  1  0  0  0  0
 29 31  2  0  0  0  0
 29 88  1  0  0  0  0
 30 90  1  0  0  0  0
 31 91  1  0  0  0  0
 32 73  2  0  0  0  0
 33 74  1  0  0  0  0
 33 78  1  0  0  0  0
 34 79  1  0  0  0  0
 34 83  2  0  0  0  0
 35 53  1  0  0  0  0
 35 80  1  0  0  0  0
 35 84  2  0  0  0  0
 36 70  1  0  0  0  0
 36 75  1  0  0  0  0
 36 85  2  0  0  0  0
 37 71  1  0  0  0  0
 37 81  1  0  0  0  0
 37 86  2  0  0  0  0
 38 76  1  0  0  0  0
 38 77  1  0  0  0  0
 38 87  2  0  0  0  0
 39 42  1  0  0  0  0
 40 53  1  0  0  0  0
 41 75  1  0  0  0  0
 42 44  1  0  0  0  0
 43 45  1  0  0  0  0
 43 48  1  0  0  0  0
 44 52  1  0  0  0  0
 45 55  1  0  0  0  0
 46 51  1  0  0  0  0
 46 54  1  0  0  0  0
 47 57  1  0  0  0  0
 47 58  1  0  0  0  0
 48 76  1  0  0  0  0
 49 54  1  0  0  0  0
 49 77  1  0  0  0  0
 50 55  1  0  0  0  0
 50 76  1  0  0  0  0
 51 56  1  0  0  0  0
 52 80  1  0  0  0  0
 53 75  1  0  0  0  0
 54 59  1  0  0  0  0
 55 74  1  0  0  0  0
 56 60  1  0  0  0  0
 56 77  1  0  0  0  0
 57 61  1  0  0  0  0
 57 69  1  0  0  0  0
 58 62  1  0  0  0  0
 58 63  1  0  0  0  0
 64 71  1  0  0  0  0
 65 72  1  0  0  0  0
 66 72  1  0  0  0  0
 67 72  1  0  0  0  0
 68 82  1  0  0  0  0
 69 89  1  0  0  0  0
 70 72  1  0  0  0  0
 70 81  1  0  0  0  0
 71 82  1  0  0  0  0
 73 74  1  0  0  0  0
M  CHG  1  82   1
M  ISO  4  38 100  69 101  77 100  89 101
M  END
> <Batch ID>
0173

> <Smiles>
CNC(C)C(=O)NC(C(=O)N1Cc2cc([101O:1][101CH2:1]C3(C)CC(C)(C)c4cc(C5CC(C)C[100N:0]([100C:0](=O)N6CCCC(n7nc(-c8ccc(Oc9ccc(F)cc9F)cc8)c(C(N)=O)c7N)C6)C5C)ccc43)ccc2CC1C(=O)NC1CCCc2ccccc21)C(C)(C)C

> <Shape>
0.275

> <Color>
0.100

> <Negative vol penalty>
0.000

$$$$

  -OEChem-04052322423D

 83 92  0     1  0  0  0  0  0999 V2000
  -18.0425  -27.5796   23.2621 C   0  0  0  0  0  0  0  0  0  0  0  0
  -18.9683  -26.5468   23.3693 C   0  0  0  0  0  0  0  0  0  0  0  0
  -22.6368  -10.2763   20.2132 C   0  0  0  0  0  0  0  0  0  0  0  0
  -24.3414   -9.3862   21.6759 C   0  0  0  0  0  0  0  0  0  0  0  0
  -18.2989  -28.6593   22.4181 C   0  0  0  0  0  0  0  0  0  0  0  0
  -20.1508  -26.5926   22.6316 C   0  0  0  0  0  0  0  0  0  0  0  0
  -25.6484  -24.5171   24.3561 C   0  0  0  0  0  0  0  0  0  0  0  0
  -21.8887   -9.1103   20.3755 C   0  0  0  0  0  0  0  0  0  0  0  0
  -23.5932   -8.2202   21.8382 C   0  0  0  0  0  0  0  0  0  0  0  0
  -26.3329  -23.3340   24.0811 C   0  0  0  0  0  0  0  0  0  0  0  0
  -20.9052   -7.2157   23.6232 C   0  0  0  0  0  0  0  0  0  0  0  0
  -20.7694   -6.7093   24.9157 C   0  0  0  0  0  0  0  0  0  0  0  0
  -29.0200  -18.1062   21.6452 C   0  0  0  0  0  0  0  0  0  0  0  0
  -27.5135  -24.4400   22.2917 C   0  0  0  0  0  0  0  0  0  0  0  0
  -21.8275   -4.6516   24.2207 C   0  0  0  0  0  0  0  0  0  0  0  0
  -23.8632  -10.4142   20.8634 C   0  0  0  0  0  0  0  0  0  0  0  0
  -24.2476  -12.9311   21.0220 C   0  0  0  0  0  0  0  0  0  0  0  0
  -19.4895  -28.7231   21.6771 C   0  0  0  0  0  0  0  0  0  0  0  0
  -25.8838  -25.6695   23.5925 C   0  0  0  0  0  0  0  0  0  0  0  0
  -20.4228  -27.6735   21.7759 C   0  0  0  0  0  0  0  0  0  0  0  0
  -30.0970  -17.7409   22.4640 C   0  0  0  0  0  0  0  0  0  0  0  0
  -26.8326  -25.6371   22.5606 C   0  0  0  0  0  0  0  0  0  0  0  0
  -28.1960  -19.1696   21.9941 C   0  0  0  0  0  0  0  0  0  0  0  0
  -22.3668   -8.0823   21.1880 C   0  0  0  0  0  0  0  0  0  0  0  0
  -27.2635  -23.2945   23.0470 C   0  0  0  0  0  0  0  0  0  0  0  0
  -21.5021   -6.4400   22.6293 C   0  0  0  0  0  0  0  0  0  0  0  0
  -21.2306   -5.4273   25.2145 C   0  0  0  0  0  0  0  0  0  0  0  0
  -21.9633   -5.1580   22.9281 C   0  0  0  0  0  0  0  0  0  0  0  0
  -24.6368  -11.6182   20.6957 C   0  0  0  0  0  0  0  0  0  0  0  0
  -30.3197  -18.5163   23.6087 C   0  0  0  0  0  0  0  0  0  0  0  0
  -28.4855  -19.8534   23.1585 C   0  0  0  0  0  0  0  0  0  0  0  0
  -25.3270  -13.7058   20.6740 C   0  0  0  0  0  0  0  0  0  0  0  0
  -23.0200  -13.4078   21.5890 C   0  0  0  0  0  0  0  0  0  0  0  0
  -24.1128  -27.5021   21.6929 C   0  0  0  0  0  0  0  0  0  0  0  0
  -26.7794  -29.3484   21.6378 C   0  0  0  0  0  0  0  0  0  0  0  0
  -30.1657  -29.5589   22.0055 C   0  0  0  0  0  0  0  0  0  0  0  0
  -30.8304  -14.6288   20.5916 C   0  0  0  0  0  0  0  0  0  0  0  0
  -19.7011  -29.8874   20.7420 C   0  0  0  0  0  0  0  0  0  0  0  0
  -25.1567  -26.9451   23.9191 C   0  0  0  0  0  0  0  0  0  0  0  0
  -27.1366  -26.8524   21.7245 C   0  0  0  0  0  0  0  0  0  0  0  0
  -31.4544  -18.2125   24.5502 C   0  0  0  0  0  0  0  0  0  0  0  0
  -21.1476  -30.0423   20.2798 C   0  0  0  0  0  0  0  0  0  0  0  0
  -32.5638  -17.3926   23.9003 C   0  0  0  0  0  0  0  0  0  0  0  0
  -29.4815  -12.5636   18.0241 C   0  0  0  0  0  0  0  0  0  0  0  0
  -21.7163  -28.6953   19.8449 C   0  0  0  0  0  0  0  0  0  0  0  0
  -31.9678  -16.1787   23.1983 C   0  0  0  0  0  0  0  0  0  0  0  0
  -28.0718  -12.2370   18.5201 C   0  0  0  0  0  0  0  0  0  0  0  0
  -30.4840  -12.6269   19.1744 C   0  0  0  0  0  0  0  0  0  0  0  0
  -28.6983  -13.2080   20.7703 C   0  0  0  0  0  0  0  0  0  0  0  0
  -21.7282  -27.6992   21.0108 C   0  0  1  0  0  0  0  0  0  0  0  0
  -31.0258  -16.6135   22.0688 C   0  0  1  0  0  0  0  0  0  0  0  0
  -25.1010  -27.9182   22.7455 C   0  0  1  0  0  0  0  0  0  0  0  0
  -27.6415  -13.1885   19.6527 C   0  0  2  0  0  0  0  0  0  0  0  0
  -27.0485  -19.5414   21.1203 C   0  0  0  0  0  0  0  0  0  0  0  0
  -32.0652  -31.1924   21.8606 C   0  0  0  0  0  0  0  0  0  0  0  0
  -26.6514  -29.2234   18.5918 C   0  0  0  0  0  0  0  0  0  0  0  0
  -29.0220  -30.0263   18.5288 C   0  0  0  0  0  0  0  0  0  0  0  0
  -27.2444  -31.4688   19.5197 C   0  0  0  0  0  0  0  0  0  0  0  0
  -30.8691  -29.1711   24.8540 C   0  0  0  0  0  0  0  0  0  0  0  0
  -27.6317  -21.0089   23.5912 C   0  0  0  0  0  0  0  0  0  1  0  0
  -28.0164  -29.4144   20.7750 C   0  0  1  0  0  0  0  0  0  0  0  0
  -31.0369  -30.5387   22.7706 C   0  0  2  0  0  0  0  0  0  0  0  0
  -27.7267  -30.0096   19.3682 C   0  0  0  0  0  0  0  0  0  0  0  0
  -25.8674  -11.5584   20.1799 N   0  0  0  0  0  0  0  0  0  0  0  0
  -29.5218  -19.5541   23.9703 N   0  0  0  0  0  0  0  0  0  0  0  0
  -26.2608  -12.8434   20.1794 N   0  0  0  0  0  0  0  0  0  0  0  0
  -26.3952  -28.0741   22.0785 N   0  0  0  0  0  0  0  0  0  0  0  0
  -30.0173  -13.5475   20.2139 N   0  0  0  0  0  0  0  0  0  0  0  0
  -25.5591  -15.0337   20.7458 N   0  0  0  0  0  0  0  0  0  0  0  0
  -22.9150  -13.4873   22.9843 N   0  0  0  0  0  0  0  0  0  0  0  0
  -22.8329  -27.9785   21.9030 N   0  0  0  0  0  0  0  0  0  0  0  0
  -29.0112  -30.1547   21.5437 N   0  0  0  0  0  0  0  0  0  0  0  0
  -30.3101  -15.4564   21.5792 N   0  0  0  0  0  0  0  0  0  0  0  0
  -31.7596  -29.8397   23.8706 N   0  3  0  0  0  0  0  0  0  0  0  0
  -22.0392  -13.7375   20.8798 O   0  0  0  0  0  0  0  0  0  0  0  0
  -24.4845  -26.8019   20.7584 O   0  0  0  0  0  0  0  0  0  0  0  0
  -26.1802  -30.3901   21.9165 O   0  0  0  0  0  0  0  0  0  0  0  0
  -30.4799  -28.3835   21.8314 O   0  0  0  0  0  0  0  0  0  0  0  0
  -31.9355  -14.8441   20.0824 O   0  0  0  0  0  0  0  0  0  0  0  0
  -21.6369   -6.9445   21.3468 O   0  0  0  0  0  0  0  0  0  0  0  0
  -27.9325  -22.1409   22.7761 O   0  0  0  0  0  0  0  0  0  1  0  0
  -21.1015   -4.9417   26.4562 F   0  0  0  0  0  0  0  0  0  0  0  0
  -22.5387   -4.4085   21.9778 F   0  0  0  0  0  0  0  0  0  0  0  0
  1  2  1  0  0  0  0
  1  5  2  0  0  0  0
  2  6  2  0  0  0  0
  3  8  2  0  0  0  0
  3 16  1  0  0  0  0
  4  9  1  0  0  0  0
  4 16  2  0  0  0  0
  5 18  1  0  0  0  0
  6 20  1  0  0  0  0
  7 10  2  0  0  0  0
  7 19  1  0  0  0  0
  8 24  1  0  0  0  0
  9 24  2  0  0  0  0
 10 25  1  0  0  0  0
 11 12  2  0  0  0  0
 11 26  1  0  0  0  0
 12 27  1  0  0  0  0
 13 21  2  0  0  0  0
 13 23  1  0  0  0  0
 14 22  1  0  0  0  0
 14 25  2  0  0  0  0
 15 27  2  0  0  0  0
 15 28  1  0  0  0  0
 16 29  1  0  0  0  0
 17 29  1  0  0  0  0
 17 32  2  0  0  0  0
 17 33  1  0  0  0  0
 18 20  2  0  0  0  0
 18 38  1  0  0  0  0
 19 22  2  0  0  0  0
 19 39  1  0  0  0  0
 20 50  1  0  0  0  0
 21 30  1  0  0  0  0
 21 51  1  0  0  0  0
 22 40  1  0  0  0  0
 23 31  2  0  0  0  0
 23 54  1  0  0  0  0
 24 80  1  0  0  0  0
 25 81  1  0  0  0  0
 26 28  2  0  0  0  0
 26 80  1  0  0  0  0
 27 82  1  0  0  0  0
 28 83  1  0  0  0  0
 29 64  2  0  0  0  0
 30 41  1  0  0  0  0
 30 65  2  0  0  0  0
 31 60  1  0  0  0  0
 31 65  1  0  0  0  0
 32 66  1  0  0  0  0
 32 69  1  0  0  0  0
 33 70  1  0  0  0  0
 33 75  2  0  0  0  0
 34 52  1  0  0  0  0
 34 71  1  0  0  0  0
 34 76  2  0  0  0  0
 35 61  1  0  0  0  0
 35 67  1  0  0  0  0
 35 77  2  0  0  0  0
 36 62  1  0  0  0  0
 36 72  1  0  0  0  0
 36 78  2  0  0  0  0
 37 68  1  0  0  0  0
 37 73  1  0  0  0  0
 37 79  2  0  0  0  0
 38 42  1  0  0  0  0
 39 52  1  0  0  0  0
 40 67  1  0  0  0  0
 41 43  1  0  0  0  0
 42 45  1  0  0  0  0
 43 46  1  0  0  0  0
 44 47  1  0  0  0  0
 44 48  1  0  0  0  0
 45 50  1  0  0  0  0
 46 51  1  0  0  0  0
 47 53  1  0  0  0  0
 48 68  1  0  0  0  0
 49 53  1  0  0  0  0
 49 68  1  0  0  0  0
 50 71  1  0  0  0  0
 51 73  1  0  0  0  0
 52 67  1  0  0  0  0
 53 66  1  0  0  0  0
 55 62  1  0  0  0  0
 56 63  1  0  0  0  0
 57 63  1  0  0  0  0
 58 63  1  0  0  0  0
 59 74  1  0  0  0  0
 60 81  1  0  0  0  0
 61 63  1  0  0  0  0
 61 72  1  0  0  0  0
 62 74  1  0  0  0  0
 64 66  1  0  0  0  0
M  CHG  1  74   1
M  ISO  4  37 100  60 101  73 100  81 101
M  END
> <Batch ID>
0173

> <Smiles>
CNC(C)C(=O)NC(C(=O)N1Cc2cc([101O:1][101CH2:1]c3nc4c(cc3C)C([100NH:0][100C:0](=O)N3CCCC(n5nc(-c6ccc(Oc7ccc(F)cc7F)cc6)c(C(N)=O)c5N)C3)CCC4)ccc2CC1C(=O)NC1CCCc2ccccc21)C(C)(C)C

> <Shape>
0.297

> <Color>
0.202

> <Negative vol penalty>
0.000

$$$$

  -OEChem-04052322423D

 83 92  0     1  0  0  0  0  0999 V2000
  -28.8215  -36.8203   21.1617 C   0  0  0  0  0  0  0  0  0  0  0  0
  -29.1178  -35.5063   20.8140 C   0  0  0  0  0  0  0  0  0  0  0  0
  -24.6256   -9.0353   21.7172 C   0  0  0  0  0  0  0  0  0  0  0  0
  -23.1259  -10.2925   20.3004 C   0  0  0  0  0  0  0  0  0  0  0  0
  -27.8956  -37.0813   22.1709 C   0  0  0  0  0  0  0  0  0  0  0  0
  -28.4890  -34.4524   21.4761 C   0  0  0  0  0  0  0  0  0  0  0  0
  -26.8287  -29.0665   19.0798 C   0  0  0  0  0  0  0  0  0  0  0  0
  -23.5495   -8.6555   22.5192 C   0  0  0  0  0  0  0  0  0  0  0  0
  -22.0497   -9.9125   21.1024 C   0  0  0  0  0  0  0  0  0  0  0  0
  -27.4293  -27.8084   19.0943 C   0  0  0  0  0  0  0  0  0  0  0  0
  -21.1467   -7.0597   24.7318 C   0  0  0  0  0  0  0  0  0  0  0  0
  -21.0675   -5.7223   25.1199 C   0  0  0  0  0  0  0  0  0  0  0  0
  -26.0622  -27.1843   20.9813 C   0  0  0  0  0  0  0  0  0  0  0  0
  -20.9586   -5.0556   22.8002 C   0  0  0  0  0  0  0  0  0  0  0  0
  -24.4138   -9.8539   20.6078 C   0  0  0  0  0  0  0  0  0  0  0  0
  -26.0247   -9.5709   18.6500 C   0  0  0  0  0  0  0  0  0  0  0  0
  -27.2480  -36.0302   22.8390 C   0  0  0  0  0  0  0  0  0  0  0  0
  -25.8465  -29.3973   20.0245 C   0  0  0  0  0  0  0  0  0  0  0  0
  -27.5545  -34.6995   22.4961 C   0  0  0  0  0  0  0  0  0  0  0  0
  -25.4490  -28.4464   20.9751 C   0  0  0  0  0  0  0  0  0  0  0  0
  -22.2616   -9.0940   22.2118 C   0  0  0  0  0  0  0  0  0  0  0  0
  -27.0481  -26.8680   20.0470 C   0  0  0  0  0  0  0  0  0  0  0  0
  -21.1318   -7.3951   23.3779 C   0  0  0  0  0  0  0  0  0  0  0  0
  -20.9735   -4.7203   24.1541 C   0  0  0  0  0  0  0  0  0  0  0  0
  -21.0377   -6.3931   22.4121 C   0  0  0  0  0  0  0  0  0  0  0  0
  -25.5251  -10.2471   19.7792 C   0  0  0  0  0  0  0  0  0  0  0  0
  -29.3428  -21.8440   21.2207 C   0  0  0  0  0  0  0  0  0  0  0  0
  -28.6031  -21.5054   20.1123 C   0  0  0  0  0  0  0  0  0  0  0  0
  -27.0757  -10.3453   18.2232 C   0  0  0  0  0  0  0  0  0  0  0  0
  -27.9722  -23.4481   20.9398 C   0  0  0  0  0  0  0  0  0  0  0  0
  -25.5786   -8.3518   18.0414 C   0  0  0  0  0  0  0  0  0  0  0  0
  -25.5915  -31.5737   22.3270 C   0  0  0  0  0  0  0  0  0  0  0  0
  -22.5728  -30.4090   22.5576 C   0  0  0  0  0  0  0  0  0  0  0  0
  -20.4215  -27.8120   22.0335 C   0  0  0  0  0  0  0  0  0  0  0  0
  -28.0897  -16.1767   18.9766 C   0  0  0  0  0  0  0  0  0  0  0  0
  -26.2895  -36.3610   23.9556 C   0  0  0  0  0  0  0  0  0  0  0  0
  -25.1894  -30.7495   19.9787 C   0  0  0  0  0  0  0  0  0  0  0  0
  -24.3848  -28.7449   21.9983 C   0  0  0  0  0  0  0  0  0  0  0  0
  -25.3892  -35.1935   24.3514 C   0  0  0  0  0  0  0  0  0  0  0  0
  -30.3800  -13.3932   19.8045 C   0  0  0  0  0  0  0  0  0  0  0  0
  -26.2076  -33.9148   24.5000 C   0  0  0  0  0  0  0  0  0  0  0  0
  -29.4080  -12.2185   19.8452 C   0  0  0  0  0  0  0  0  0  0  0  0
  -29.7309  -14.6941   20.2758 C   0  0  0  0  0  0  0  0  0  0  0  0
  -27.5023  -13.8521   19.5832 C   0  0  0  0  0  0  0  0  0  0  0  0
  -29.7474  -19.6404   18.9570 C   0  0  0  0  0  0  0  0  0  0  0  0
  -27.6838  -19.3735   19.2568 C   0  0  0  0  0  0  0  0  0  0  0  0
  -26.8749  -33.5297   23.1742 C   0  0  1  0  0  0  0  0  0  0  0  0
  -24.5666  -31.1566   21.3105 C   0  0  1  0  0  0  0  0  0  0  0  0
  -28.1277  -12.5489   19.0637 C   0  0  2  0  0  0  0  0  0  0  0  0
  -28.7531  -18.5558   18.5186 C   0  0  0  0  0  0  0  0  0  0  0  0
  -30.4340  -21.0905   21.8597 C   0  0  0  0  0  0  0  0  0  0  0  0
  -18.0249  -27.1429   22.3592 C   0  0  0  0  0  0  0  0  0  0  0  0
  -23.0991  -29.9808   25.5324 C   0  0  0  0  0  0  0  0  0  0  0  0
  -21.0979  -28.4779   25.5990 C   0  0  0  0  0  0  0  0  0  0  0  0
  -20.8296  -30.8830   24.9938 C   0  0  0  0  0  0  0  0  0  0  0  0
  -26.7285  -22.6661   18.9079 C   0  0  0  0  0  0  0  0  0  0  0  0
  -20.0050  -27.4549   19.1252 C   0  0  0  0  0  0  0  0  0  0  0  0
  -27.1944  -24.7248   21.0674 C   0  0  0  0  0  0  0  0  0  1  0  0
  -21.9108  -29.3026   23.3429 C   0  0  1  0  0  0  0  0  0  0  0  0
  -19.0391  -27.7596   21.4084 C   0  0  2  0  0  0  0  0  0  0  0  0
  -21.7558  -29.6558   24.8491 C   0  0  0  0  0  0  0  0  0  0  0  0
  -26.2030  -11.3650   20.0526 N   0  0  0  0  0  0  0  0  0  0  0  0
  -28.9450  -23.0543   21.7313 N   0  0  0  0  0  0  0  0  0  0  0  0
  -27.7289  -22.5423   19.9449 N   0  0  0  0  0  0  0  0  0  0  0  0
  -27.1394  -11.3972   19.0891 N   0  0  0  0  0  0  0  0  0  0  0  0
  -28.6209  -20.4397   19.2861 N   0  0  0  0  0  0  0  0  0  0  0  0
  -23.7764  -30.0831   21.9166 N   0  0  0  0  0  0  0  0  0  0  0  0
  -28.4667  -14.9589   19.5706 N   0  0  0  0  0  0  0  0  0  0  0  0
  -27.9423  -10.2223   17.1955 N   0  0  0  0  0  0  0  0  0  0  0  0
  -24.4845   -7.6836   18.6078 N   0  0  0  0  0  0  0  0  0  0  0  0
  -25.9129  -32.9169   22.2834 N   0  0  0  0  0  0  0  0  0  0  0  0
  -20.6518  -29.0167   22.6635 N   0  0  0  0  0  0  0  0  0  0  0  0
  -29.0092  -17.2155   19.0843 N   0  0  0  0  0  0  0  0  0  0  0  0
  -19.0660  -26.9480   20.1589 N   0  3  0  0  0  0  0  0  0  0  0  0
  -26.1440   -7.8608   17.0350 O   0  0  0  0  0  0  0  0  0  0  0  0
  -26.0551  -30.7390   23.0952 O   0  0  0  0  0  0  0  0  0  0  0  0
  -22.0378  -31.5194   22.5086 O   0  0  0  0  0  0  0  0  0  0  0  0
  -21.2161  -26.8764   21.9723 O   0  0  0  0  0  0  0  0  0  0  0  0
  -27.0100  -16.3359   18.3969 O   0  0  0  0  0  0  0  0  0  0  0  0
  -21.2113   -8.7233   22.9941 O   0  0  0  0  0  0  0  0  0  0  0  0
  -27.6331  -25.6395   20.0637 O   0  0  0  0  0  0  0  0  0  1  0  0
  -20.8990   -3.4359   24.5269 F   0  0  0  0  0  0  0  0  0  0  0  0
  -21.0241   -6.7091   21.1099 F   0  0  0  0  0  0  0  0  0  0  0  0
  1  2  1  0  0  0  0
  1  5  2  0  0  0  0
  2  6  2  0  0  0  0
  3  8  2  0  0  0  0
  3 15  1  0  0  0  0
  4  9  1  0  0  0  0
  4 15  2  0  0  0  0
  5 17  1  0  0  0  0
  6 19  1  0  0  0  0
  7 10  2  0  0  0  0
  7 18  1  0  0  0  0
  8 21  1  0  0  0  0
  9 21  2  0  0  0  0
 10 22  1  0  0  0  0
 11 12  2  0  0  0  0
 11 23  1  0  0  0  0
 12 24  1  0  0  0  0
 13 20  1  0  0  0  0
 13 22  2  0  0  0  0
 14 24  2  0  0  0  0
 14 25  1  0  0  0  0
 15 26  1  0  0  0  0
 16 26  1  0  0  0  0
 16 29  2  0  0  0  0
 16 31  1  0  0  0  0
 17 19  2  0  0  0  0
 17 36  1  0  0  0  0
 18 20  2  0  0  0  0
 18 37  1  0  0  0  0
 19 47  1  0  0  0  0
 20 38  1  0  0  0  0
 21 80  1  0  0  0  0
 22 81  1  0  0  0  0
 23 25  2  0  0  0  0
 23 80  1  0  0  0  0
 24 82  1  0  0  0  0
 25 83  1  0  0  0  0
 26 62  2  0  0  0  0
 27 28  2  0  0  0  0
 27 51  1  0  0  0  0
 27 63  1  0  0  0  0
 28 64  1  0  0  0  0
 28 66  1  0  0  0  0
 29 65  1  0  0  0  0
 29 69  1  0  0  0  0
 30 58  1  0  0  0  0
 30 63  2  0  0  0  0
 30 64  1  0  0  0  0
 31 70  1  0  0  0  0
 31 75  2  0  0  0  0
 32 48  1  0  0  0  0
 32 71  1  0  0  0  0
 32 76  2  0  0  0  0
 33 59  1  0  0  0  0
 33 67  1  0  0  0  0
 33 77  2  0  0  0  0
 34 60  1  0  0  0  0
 34 72  1  0  0  0  0
 34 78  2  0  0  0  0
 35 68  1  0  0  0  0
 35 73  1  0  0  0  0
 35 79  2  0  0  0  0
 36 39  1  0  0  0  0
 37 48  1  0  0  0  0
 38 67  1  0  0  0  0
 39 41  1  0  0  0  0
 40 42  1  0  0  0  0
 40 43  1  0  0  0  0
 41 47  1  0  0  0  0
 42 49  1  0  0  0  0
 43 68  1  0  0  0  0
 44 49  1  0  0  0  0
 44 68  1  0  0  0  0
 45 50  1  0  0  0  0
 45 66  1  0  0  0  0
 46 50  1  0  0  0  0
 46 66  1  0  0  0  0
 47 71  1  0  0  0  0
 48 67  1  0  0  0  0
 49 65  1  0  0  0  0
 50 73  1  0  0  0  0
 52 60  1  0  0  0  0
 53 61  1  0  0  0  0
 54 61  1  0  0  0  0
 55 61  1  0  0  0  0
 56 64  1  0  0  0  0
 57 74  1  0  0  0  0
 58 81  1  0  0  0  0
 59 61  1  0  0  0  0
 59 72  1  0  0  0  0
 60 74  1  0  0  0  0
 62 65  1  0  0  0  0
M  CHG  1  74   1
M  ISO  4  35 100  58 101  73 100  81 101
M  END
> <Batch ID>
0173

> <Smiles>
CNC(C)C(=O)NC(C(=O)N1Cc2cc([101O:1][101CH2:1]c3nc(C)c(N4CC([100NH:0][100C:0](=O)N5CCCC(n6nc(-c7ccc(Oc8ccc(F)cc8F)cc7)c(C(N)=O)c6N)C5)C4)n3C)ccc2CC1C(=O)NC1CCCc2ccccc21)C(C)(C)C

> <Shape>
0.339

> <Color>
0.089

> <Negative vol penalty>
0.000

$$$$

  -OEChem-04052322423D

 85 93  0     1  0  0  0  0  0999 V2000
  -20.5489  -22.8386   20.7122 C   0  0  0  0  0  0  0  0  0  0  0  0
  -21.8326  -22.3253   20.8671 C   0  0  0  0  0  0  0  0  0  0  0  0
  -23.5926  -29.1764   19.9671 C   0  0  0  0  0  0  0  0  0  0  0  0
  -23.6099  -27.7441   21.9127 C   0  0  0  0  0  0  0  0  0  0  0  0
  -19.4470  -22.0976   21.1372 C   0  0  0  0  0  0  0  0  0  0  0  0
  -22.0152  -21.0709   21.4482 C   0  0  0  0  0  0  0  0  0  0  0  0
  -25.3545  -18.2255   18.9189 C   0  0  0  0  0  0  0  0  0  0  0  0
  -22.3681  -29.7091   20.3702 C   0  0  0  0  0  0  0  0  0  0  0  0
  -22.3854  -28.2769   22.3158 C   0  0  0  0  0  0  0  0  0  0  0  0
  -26.7064  -18.5050   19.1145 C   0  0  0  0  0  0  0  0  0  0  0  0
  -19.1218  -27.9042   21.5153 C   0  0  0  0  0  0  0  0  0  0  0  0
  -18.1404  -27.0145   21.9521 C   0  0  0  0  0  0  0  0  0  0  0  0
  -26.8589  -16.6568   20.6573 C   0  0  0  0  0  0  0  0  0  0  0  0
  -18.1069  -28.1090   24.1058 C   0  0  0  0  0  0  0  0  0  0  0  0
  -24.2135  -28.1939   20.7383 C   0  0  0  0  0  0  0  0  0  0  0  0
  -26.7619  -28.1132   20.6573 C   0  0  0  0  0  0  0  0  0  0  0  0
  -19.6156  -20.8294   21.7150 C   0  0  0  0  0  0  0  0  0  0  0  0
  -24.7411  -17.1646   19.6005 C   0  0  0  0  0  0  0  0  0  0  0  0
  -20.9146  -20.3128   21.8826 C   0  0  0  0  0  0  0  0  0  0  0  0
  -25.4998  -16.3644   20.4666 C   0  0  0  0  0  0  0  0  0  0  0  0
  -31.6762  -21.8910   21.2736 C   0  0  0  0  0  0  0  0  0  0  0  0
  -31.0646  -21.0800   22.2230 C   0  0  0  0  0  0  0  0  0  0  0  0
  -32.6747  -22.7767   21.6634 C   0  0  0  0  0  0  0  0  0  0  0  0
  -21.7645  -29.2594   21.5445 C   0  0  0  0  0  0  0  0  0  0  0  0
  -27.4581  -17.7224   19.9860 C   0  0  0  0  0  0  0  0  0  0  0  0
  -19.5959  -28.8962   22.3737 C   0  0  0  0  0  0  0  0  0  0  0  0
  -17.6329  -27.1169   23.2473 C   0  0  0  0  0  0  0  0  0  0  0  0
  -19.0884  -28.9986   23.6689 C   0  0  0  0  0  0  0  0  0  0  0  0
  -25.4781  -27.6428   20.3222 C   0  0  0  0  0  0  0  0  0  0  0  0
  -31.4841  -21.1920   23.5388 C   0  0  0  0  0  0  0  0  0  0  0  0
  -33.0220  -22.8129   23.0043 C   0  0  0  0  0  0  0  0  0  0  0  0
  -27.6206  -27.2531   20.0175 C   0  0  0  0  0  0  0  0  0  0  0  0
  -27.1441  -29.2279   21.4740 C   0  0  0  0  0  0  0  0  0  0  0  0
  -22.3724  -16.9221   21.7061 C   0  0  0  0  0  0  0  0  0  0  0  0
  -22.8376  -13.7407   21.2770 C   0  0  0  0  0  0  0  0  0  0  0  0
  -24.9469  -11.2184   20.3627 C   0  0  0  0  0  0  0  0  0  0  0  0
  -29.1472  -22.0849   18.5667 C   0  0  0  0  0  0  0  0  0  0  0  0
  -18.3972  -20.0859   22.2024 C   0  0  0  0  0  0  0  0  0  0  0  0
  -23.2883  -16.8597   19.3581 C   0  0  0  0  0  0  0  0  0  0  0  0
  -24.8935  -15.2013   21.2070 C   0  0  0  0  0  0  0  0  0  0  0  0
  -18.6530  -18.6043   22.4664 C   0  0  0  0  0  0  0  0  0  0  0  0
  -26.7307  -23.7103   16.5185 C   0  0  0  0  0  0  0  0  0  0  0  0
  -19.9400  -18.4186   23.2638 C   0  0  0  0  0  0  0  0  0  0  0  0
  -26.2911  -24.9128   17.3555 C   0  0  0  0  0  0  0  0  0  0  0  0
  -27.0049  -22.4863   17.3895 C   0  0  0  0  0  0  0  0  0  0  0  0
  -27.5159  -23.9153   19.3313 C   0  0  0  0  0  0  0  0  0  0  0  0
  -21.1519  -18.9453   22.4858 C   0  0  1  0  0  0  0  0  0  0  0  0
  -22.6448  -16.0737   20.4964 C   0  0  1  0  0  0  0  0  0  0  0  0
  -27.2817  -25.1898   18.5024 C   0  0  2  0  0  0  0  0  0  0  0  0
  -30.8645  -20.3470   24.6033 C   0  0  0  0  0  0  0  0  0  0  0  0
  -34.0858  -23.7455   23.4841 C   0  0  0  0  0  0  0  0  0  0  0  0
  -25.0554   -8.7202   20.1519 C   0  0  0  0  0  0  0  0  0  0  0  0
  -23.1133  -13.4995   24.3061 C   0  0  0  0  0  0  0  0  0  0  0  0
  -24.1400  -11.2420   23.9630 C   0  0  0  0  0  0  0  0  0  0  0  0
  -21.7941  -11.6678   23.2295 C   0  0  0  0  0  0  0  0  0  0  0  0
  -25.4531  -11.3700   17.4507 C   0  0  0  0  0  0  0  0  0  0  0  0
  -29.9797  -20.1089   21.8311 C   0  0  0  0  0  0  0  0  0  0  0  0
  -31.2606  -21.8130   19.8391 C   0  0  0  0  0  0  0  0  0  0  0  0
  -33.3502  -23.6602   20.6687 C   0  0  0  0  0  0  0  0  0  0  0  0
  -30.4487  -18.6536   21.7691 C   0  0  0  0  0  0  0  0  0  0  0  0
  -29.3267  -17.6705   21.4562 C   0  0  0  0  0  0  0  0  0  1  0  0
  -23.7048  -12.6898   21.9270 C   0  0  1  0  0  0  0  0  0  0  0  0
  -24.7543  -10.0293   19.4389 C   0  0  2  0  0  0  0  0  0  0  0  0
  -23.1993  -12.2978   23.3441 C   0  0  0  0  0  0  0  0  0  0  0  0
  -25.5133  -26.5674   19.5308 N   0  0  0  0  0  0  0  0  0  0  0  0
  -32.4505  -22.0406   23.9554 N   0  0  0  0  0  0  0  0  0  0  0  0
  -26.8297  -26.3550   19.3633 N   0  0  0  0  0  0  0  0  0  0  0  0
  -23.4679  -14.9473   20.9414 N   0  0  0  0  0  0  0  0  0  0  0  0
  -27.9528  -22.8158   18.4567 N   0  0  0  0  0  0  0  0  0  0  0  0
  -28.9674  -27.1850   19.9563 N   0  0  0  0  0  0  0  0  0  0  0  0
  -26.1348  -30.0072   22.0557 N   0  0  0  0  0  0  0  0  0  0  0  0
  -21.5444  -18.0011   21.4617 N   0  0  0  0  0  0  0  0  0  0  0  0
  -23.7705  -11.5761   20.9868 N   0  0  0  0  0  0  0  0  0  0  0  0
  -29.9925  -22.4660   19.6016 N   0  0  0  0  0  0  0  0  0  0  0  0
  -34.5595  -23.0438   20.0571 N   0  3  0  0  0  0  0  0  0  0  0  0
  -25.6564  -10.1395   18.2578 N   0  3  0  0  0  0  0  0  0  0  0  0
  -28.3450  -29.5340   21.6684 O   0  0  0  0  0  0  0  0  0  0  0  0
  -22.8749  -16.6194   22.7820 O   0  0  0  0  0  0  0  0  0  0  0  0
  -21.6465  -13.4972   21.0680 O   0  0  0  0  0  0  0  0  0  0  0  0
  -26.0331  -11.7721   20.5182 O   0  0  0  0  0  0  0  0  0  0  0  0
  -29.4412  -21.1647   17.7962 O   0  0  0  0  0  0  0  0  0  0  0  0
  -20.5698  -29.7791   21.9382 O   0  0  0  0  0  0  0  0  0  0  0  0
  -28.7776  -17.9933   20.1792 O   0  0  0  0  0  0  0  0  0  1  0  0
  -16.6893  -26.2635   23.6662 F   0  0  0  0  0  0  0  0  0  0  0  0
  -19.5391  -29.9503   24.4978 F   0  0  0  0  0  0  0  0  0  0  0  0
  1  2  1  0  0  0  0
  1  5  2  0  0  0  0
  2  6  2  0  0  0  0
  3  8  2  0  0  0  0
  3 15  1  0  0  0  0
  4  9  1  0  0  0  0
  4 15  2  0  0  0  0
  5 17  1  0  0  0  0
  6 19  1  0  0  0  0
  7 10  2  0  0  0  0
  7 18  1  0  0  0  0
  8 24  1  0  0  0  0
  9 24  2  0  0  0  0
 10 25  1  0  0  0  0
 11 12  2  0  0  0  0
 11 26  1  0  0  0  0
 12 27  1  0  0  0  0
 13 20  1  0  0  0  0
 13 25  2  0  0  0  0
 14 27  2  0  0  0  0
 14 28  1  0  0  0  0
 15 29  1  0  0  0  0
 16 29  1  0  0  0  0
 16 32  2  0  0  0  0
 16 33  1  0  0  0  0
 17 19  2  0  0  0  0
 17 38  1  0  0  0  0
 18 20  2  0  0  0  0
 18 39  1  0  0  0  0
 19 47  1  0  0  0  0
 20 40  1  0  0  0  0
 21 22  2  0  0  0  0
 21 23  1  0  0  0  0
 21 58  1  0  0  0  0
 22 30  1  0  0  0  0
 22 57  1  0  0  0  0
 23 31  2  0  0  0  0
 23 59  1  0  0  0  0
 24 82  1  0  0  0  0
 25 83  1  0  0  0  0
 26 28  2  0  0  0  0
 26 82  1  0  0  0  0
 27 84  1  0  0  0  0
 28 85  1  0  0  0  0
 29 65  2  0  0  0  0
 30 50  1  0  0  0  0
 30 66  2  0  0  0  0
 31 51  1  0  0  0  0
 31 66  1  0  0  0  0
 32 67  1  0  0  0  0
 32 70  1  0  0  0  0
 33 71  1  0  0  0  0
 33 77  2  0  0  0  0
 34 48  1  0  0  0  0
 34 72  1  0  0  0  0
 34 78  2  0  0  0  0
 35 62  1  0  0  0  0
 35 68  1  0  0  0  0
 35 79  2  0  0  0  0
 36 63  1  0  0  0  0
 36 73  1  0  0  0  0
 36 80  2  0  0  0  0
 37 69  1  0  0  0  0
 37 74  1  0  0  0  0
 37 81  2  0  0  0  0
 38 41  1  0  0  0  0
 39 48  1  0  0  0  0
 40 68  1  0  0  0  0
 41 43  1  0  0  0  0
 42 44  1  0  0  0  0
 42 45  1  0  0  0  0
 43 47  1  0  0  0  0
 44 49  1  0  0  0  0
 45 69  1  0  0  0  0
 46 49  1  0  0  0  0
 46 69  1  0  0  0  0
 47 72  1  0  0  0  0
 48 68  1  0  0  0  0
 49 67  1  0  0  0  0
 52 63  1  0  0  0  0
 53 64  1  0  0  0  0
 54 64  1  0  0  0  0
 55 64  1  0  0  0  0
 56 76  1  0  0  0  0
 57 60  1  0  0  0  0
 58 74  1  0  0  0  0
 59 75  1  0  0  0  0
 60 61  1  0  0  0  0
 61 83  1  0  0  0  0
 62 64  1  0  0  0  0
 62 73  1  0  0  0  0
 63 76  1  0  0  0  0
 65 67  1  0  0  0  0
M  CHG  2  75   1  76   1
M  ISO  4  37 100  61 101  74 100  83 101
M  END
> <Batch ID>
0173

> <Smiles>
CNC(C)C(=O)NC(C(=O)N1Cc2cc([101O:1][101CH2:1]CCc3c(C)nc(C)c(CN)c3C[100NH:0][100C:0](=O)N3CCCC(n4nc(-c5ccc(Oc6ccc(F)cc6F)cc5)c(C(N)=O)c4N)C3)ccc2CC1C(=O)NC1CCCc2ccccc21)C(C)(C)C

> <Shape>
0.211

> <Color>
0.048

> <Negative vol penalty>
0.000

$$$$

  -OEChem-04052322423D

 83 92  0     1  0  0  0  0  0999 V2000
  -16.6836  -25.9833   23.7752 C   0  0  0  0  0  0  0  0  0  0  0  0
  -17.7196  -25.8417   22.8576 C   0  0  0  0  0  0  0  0  0  0  0  0
  -26.6210  -13.3986   22.1401 C   0  0  0  0  0  0  0  0  0  0  0  0
  -26.3612  -12.6267   19.8655 C   0  0  0  0  0  0  0  0  0  0  0  0
  -16.3628  -27.2454   24.2733 C   0  0  0  0  0  0  0  0  0  0  0  0
  -18.4348  -26.9624   22.4368 C   0  0  0  0  0  0  0  0  0  0  0  0
  -23.4350  -26.1634   22.3691 C   0  0  0  0  0  0  0  0  0  0  0  0
  -25.4037  -12.8082   22.4795 C   0  0  0  0  0  0  0  0  0  0  0  0
  -25.1439  -12.0362   20.2049 C   0  0  0  0  0  0  0  0  0  0  0  0
  -23.9497  -25.4401   21.2941 C   0  0  0  0  0  0  0  0  0  0  0  0
  -22.1413  -10.0167   20.5570 C   0  0  0  0  0  0  0  0  0  0  0  0
  -21.8961   -8.7233   20.0959 C   0  0  0  0  0  0  0  0  0  0  0  0
  -24.6379  -27.5006   20.2452 C   0  0  0  0  0  0  0  0  0  0  0  0
  -23.8396   -7.9287   21.2910 C   0  0  0  0  0  0  0  0  0  0  0  0
  -26.8342  -23.5778   15.0023 C   0  0  0  0  0  0  0  0  0  0  0  0
  -25.3874  -25.1408   15.8637 C   0  0  0  0  0  0  0  0  0  0  0  0
  -27.0997  -13.3079   20.8331 C   0  0  0  0  0  0  0  0  0  0  0  0
  -29.6333  -13.3270   20.5363 C   0  0  0  0  0  0  0  0  0  0  0  0
  -17.0807  -28.3808   23.8657 C   0  0  0  0  0  0  0  0  0  0  0  0
  -23.5082  -27.5637   22.3852 C   0  0  0  0  0  0  0  0  0  0  0  0
  -18.1224  -28.2410   22.9289 C   0  0  0  0  0  0  0  0  0  0  0  0
  -24.1257  -28.2391   21.3229 C   0  0  0  0  0  0  0  0  0  0  0  0
  -27.6194  -23.5966   16.1437 C   0  0  0  0  0  0  0  0  0  0  0  0
  -26.1047  -25.2327   17.0456 C   0  0  0  0  0  0  0  0  0  0  0  0
  -27.2409  -24.4425   17.1802 C   0  0  0  0  0  0  0  0  0  0  0  0
  -24.6651  -12.1270   21.5119 C   0  0  0  0  0  0  0  0  0  0  0  0
  -24.5487  -26.1089   20.2306 C   0  0  0  0  0  0  0  0  0  0  0  0
  -23.2357  -10.2661   21.3852 C   0  0  0  0  0  0  0  0  0  0  0  0
  -22.7452   -7.6793   20.4629 C   0  0  0  0  0  0  0  0  0  0  0  0
  -24.0849   -9.2221   21.7522 C   0  0  0  0  0  0  0  0  0  0  0  0
  -28.3568  -13.9181   20.4817 C   0  0  0  0  0  0  0  0  0  0  0  0
  -30.4868  -14.3123   20.1036 C   0  0  0  0  0  0  0  0  0  0  0  0
  -30.0136  -12.0054   20.9419 C   0  0  0  0  0  0  0  0  0  0  0  0
  -21.3765  -29.9209   22.4372 C   0  0  0  0  0  0  0  0  0  0  0  0
  -24.0157  -31.7768   22.7724 C   0  0  0  0  0  0  0  0  0  0  0  0
  -27.3752  -32.1484   22.3005 C   0  0  0  0  0  0  0  0  0  0  0  0
  -29.6953  -19.1163   16.6258 C   0  0  0  0  0  0  0  0  0  0  0  0
  -16.6664  -29.7306   24.3959 C   0  0  0  0  0  0  0  0  0  0  0  0
  -22.9721  -28.3277   23.5648 C   0  0  0  0  0  0  0  0  0  0  0  0
  -24.2477  -29.7402   21.3015 C   0  0  0  0  0  0  0  0  0  0  0  0
  -17.7175  -30.8171   24.1837 C   0  0  0  0  0  0  0  0  0  0  0  0
  -30.9709  -19.0509   19.9199 C   0  0  0  0  0  0  0  0  0  0  0  0
  -18.2526  -30.7706   22.7561 C   0  0  0  0  0  0  0  0  0  0  0  0
  -30.5406  -17.6911   20.4632 C   0  0  0  0  0  0  0  0  0  0  0  0
  -29.5395  -22.3547   14.9105 C   0  0  0  0  0  0  0  0  0  0  0  0
  -29.8873  -19.6457   19.0306 C   0  0  0  0  0  0  0  0  0  0  0  0
  -30.4290  -21.1812   15.2984 C   0  0  0  0  0  0  0  0  0  0  0  0
  -28.5870  -21.3217   16.8246 C   0  0  0  0  0  0  0  0  0  0  0  0
  -29.0935  -17.3857   18.3882 C   0  0  0  0  0  0  0  0  0  0  0  0
  -28.8454  -22.7150   16.2341 C   0  0  2  0  0  0  0  0  0  0  0  0
  -18.9375  -29.4294   22.4670 C   0  0  1  0  0  0  0  0  0  0  0  0
  -22.6415  -29.7802   23.2357 C   0  0  1  0  0  0  0  0  0  0  0  0
  -30.1494  -16.7482   19.3148 C   0  0  2  0  0  0  0  0  0  0  0  0
  -28.0510  -24.5015   18.4354 C   0  0  0  0  0  0  0  0  0  0  0  0
  -29.2428  -33.7894   22.6420 C   0  0  0  0  0  0  0  0  0  0  0  0
  -23.0306  -33.3923   20.3788 C   0  0  0  0  0  0  0  0  0  0  0  0
  -25.3277  -34.3680   20.1804 C   0  0  0  0  0  0  0  0  0  0  0  0
  -23.9807  -34.7628   22.2425 C   0  0  0  0  0  0  0  0  0  0  0  0
  -28.8285  -30.2977   24.0954 C   0  0  0  0  0  0  0  0  0  0  0  0
  -25.6516  -26.1549   18.1240 C   0  0  0  0  0  0  0  0  0  1  0  0
  -24.9622  -32.4709   21.8230 C   0  0  1  0  0  0  0  0  0  0  0  0
  -28.4778  -32.6156   23.2335 C   0  0  2  0  0  0  0  0  0  0  0  0
  -24.3214  -33.7203   21.1554 C   0  0  0  0  0  0  0  0  0  0  0  0
  -25.7240  -24.3308   14.8350 N   0  0  0  0  0  0  0  0  0  0  0  0
  -28.3915  -15.1811   20.0486 N   0  0  0  0  0  0  0  0  0  0  0  0
  -29.7002  -15.3918   19.8272 N   0  0  0  0  0  0  0  0  0  0  0  0
  -23.7026  -30.4429   22.4747 N   0  0  0  0  0  0  0  0  0  0  0  0
  -29.5014  -18.7288   17.9563 N   0  0  0  0  0  0  0  0  0  0  0  0
  -29.6730  -20.4795   16.3336 N   0  0  0  0  0  0  0  0  0  0  0  0
  -31.8257  -14.3521   19.9364 N   0  0  0  0  0  0  0  0  0  0  0  0
  -29.0104  -11.1195   21.3579 N   0  0  0  0  0  0  0  0  0  0  0  0
  -20.2581  -29.3985   23.0583 N   0  0  0  0  0  0  0  0  0  0  0  0
  -26.1713  -32.7561   22.5879 N   0  0  0  0  0  0  0  0  0  0  0  0
  -29.4417  -31.5087   23.4915 N   0  3  0  0  0  0  0  0  0  0  0  0
  -31.2095  -11.6268   20.9511 O   0  0  0  0  0  0  0  0  0  0  0  0
  -21.4121  -30.4646   21.3396 O   0  0  0  0  0  0  0  0  0  0  0  0
  -23.5762  -32.3931   23.7464 O   0  0  0  0  0  0  0  0  0  0  0  0
  -27.5639  -31.3292   21.4039 O   0  0  0  0  0  0  0  0  0  0  0  0
  -29.9207  -18.2811   15.7394 O   0  0  0  0  0  0  0  0  0  0  0  0
  -23.4774  -11.5505   21.8428 O   0  0  0  0  0  0  0  0  0  0  0  0
  -25.0547  -25.4007   19.1727 O   0  0  0  0  0  0  0  0  0  1  0  0
  -22.5087   -6.4371   20.0212 F   0  0  0  0  0  0  0  0  0  0  0  0
  -25.1372   -9.4553   22.5484 F   0  0  0  0  0  0  0  0  0  0  0  0
  1  2  1  0  0  0  0
  1  5  2  0  0  0  0
  2  6  2  0  0  0  0
  3  8  2  0  0  0  0
  3 17  1  0  0  0  0
  4  9  1  0  0  0  0
  4 17  2  0  0  0  0
  5 19  1  0  0  0  0
  6 21  1  0  0  0  0
  7 10  2  0  0  0  0
  7 20  1  0  0  0  0
  8 26  1  0  0  0  0
  9 26  2  0  0  0  0
 10 27  1  0  0  0  0
 11 12  2  0  0  0  0
 11 28  1  0  0  0  0
 12 29  1  0  0  0  0
 13 22  1  0  0  0  0
 13 27  2  0  0  0  0
 14 29  2  0  0  0  0
 14 30  1  0  0  0  0
 15 23  2  0  0  0  0
 15 64  1  0  0  0  0
 16 24  1  0  0  0  0
 16 64  2  0  0  0  0
 17 31  1  0  0  0  0
 18 31  1  0  0  0  0
 18 32  2  0  0  0  0
 18 33  1  0  0  0  0
 19 21  2  0  0  0  0
 19 38  1  0  0  0  0
 20 22  2  0  0  0  0
 20 39  1  0  0  0  0
 21 51  1  0  0  0  0
 22 40  1  0  0  0  0
 23 25  1  0  0  0  0
 23 50  1  0  0  0  0
 24 25  2  0  0  0  0
 24 60  1  0  0  0  0
 25 54  1  0  0  0  0
 26 80  1  0  0  0  0
 27 81  1  0  0  0  0
 28 30  2  0  0  0  0
 28 80  1  0  0  0  0
 29 82  1  0  0  0  0
 30 83  1  0  0  0  0
 31 65  2  0  0  0  0
 32 66  1  0  0  0  0
 32 70  1  0  0  0  0
 33 71  1  0  0  0  0
 33 75  2  0  0  0  0
 34 52  1  0  0  0  0
 34 72  1  0  0  0  0
 34 76  2  0  0  0  0
 35 61  1  0  0  0  0
 35 67  1  0  0  0  0
 35 77  2  0  0  0  0
 36 62  1  0  0  0  0
 36 73  1  0  0  0  0
 36 78  2  0  0  0  0
 37 68  1  0  0  0  0
 37 69  1  0  0  0  0
 37 79  2  0  0  0  0
 38 41  1  0  0  0  0
 39 52  1  0  0  0  0
 40 67  1  0  0  0  0
 41 43  1  0  0  0  0
 42 44  1  0  0  0  0
 42 46  1  0  0  0  0
 43 51  1  0  0  0  0
 44 53  1  0  0  0  0
 45 47  1  0  0  0  0
 45 50  1  0  0  0  0
 46 68  1  0  0  0  0
 47 69  1  0  0  0  0
 48 50  1  0  0  0  0
 48 69  1  0  0  0  0
 49 53  1  0  0  0  0
 49 68  1  0  0  0  0
 51 72  1  0  0  0  0
 52 67  1  0  0  0  0
 53 66  1  0  0  0  0
 55 62  1  0  0  0  0
 56 63  1  0  0  0  0
 57 63  1  0  0  0  0
 58 63  1  0  0  0  0
 59 74  1  0  0  0  0
 60 81  1  0  0  0  0
 61 63  1  0  0  0  0
 61 73  1  0  0  0  0
 62 74  1  0  0  0  0
 65 66  1  0  0  0  0
M  CHG  1  74   1
M  ISO  4  37 100  60 101  69 100  81 101
M  END
> <Batch ID>
0173

> <Smiles>
CNC(C)C(=O)NC(C(=O)N1Cc2cc([101O:1][101CH2:1]c3cncc(C4CC[100N:0]([100C:0](=O)N5CCCC(n6nc(-c7ccc(Oc8ccc(F)cc8F)cc7)c(C(N)=O)c6N)C5)C4)c3C)ccc2CC1C(=O)NC1CCCc2ccccc21)C(C)(C)C

> <Shape>
0.268

> <Color>
0.087

> <Negative vol penalty>
0.000

$$$$

  -OEChem-04052322423D

 84 92  0     1  0  0  0  0  0999 V2000
  -28.6767  -35.0672   27.0594 C   0  0  0  0  0  0  0  0  0  0  0  0
  -29.1705  -34.1747   26.1134 C   0  0  0  0  0  0  0  0  0  0  0  0
  -26.5514  -12.1243   21.7307 C   0  0  0  0  0  0  0  0  0  0  0  0
  -25.7938  -13.5319   19.9192 C   0  0  0  0  0  0  0  0  0  0  0  0
  -27.3769  -34.9211   27.5422 C   0  0  0  0  0  0  0  0  0  0  0  0
  -28.3651  -33.1348   25.6504 C   0  0  0  0  0  0  0  0  0  0  0  0
  -27.1070  -29.2408   19.7708 C   0  0  0  0  0  0  0  0  0  0  0  0
  -25.3227  -11.4641   21.7316 C   0  0  0  0  0  0  0  0  0  0  0  0
  -24.5651  -12.8717   19.9200 C   0  0  0  0  0  0  0  0  0  0  0  0
  -27.0187  -27.9122   19.3573 C   0  0  0  0  0  0  0  0  0  0  0  0
  -23.7830   -9.0647   19.9136 C   0  0  0  0  0  0  0  0  0  0  0  0
  -23.7956   -7.6719   19.9888 C   0  0  0  0  0  0  0  0  0  0  0  0
  -24.7624  -27.8050   20.2038 C   0  0  0  0  0  0  0  0  0  0  0  0
  -22.5277   -7.7715   22.0430 C   0  0  0  0  0  0  0  0  0  0  0  0
  -30.6982  -21.6413   20.1314 C   0  0  0  0  0  0  0  0  0  0  0  0
  -26.7870  -13.1583   20.8245 C   0  0  0  0  0  0  0  0  0  0  0  0
  -29.2027  -13.5026   20.0807 C   0  0  0  0  0  0  0  0  0  0  0  0
  -26.5518  -33.8847   27.0777 C   0  0  0  0  0  0  0  0  0  0  0  0
  -26.0256  -29.8591   20.4147 C   0  0  0  0  0  0  0  0  0  0  0  0
  -27.0535  -32.9739   26.1284 C   0  0  0  0  0  0  0  0  0  0  0  0
  -24.8385  -29.1422   20.6222 C   0  0  0  0  0  0  0  0  0  0  0  0
  -28.4452  -21.6913   19.3712 C   0  0  0  0  0  0  0  0  0  0  0  0
  -28.8195  -22.6325   18.4186 C   0  0  0  0  0  0  0  0  0  0  0  0
  -29.3964  -21.1813   20.2477 C   0  0  0  0  0  0  0  0  0  0  0  0
  -24.3296  -11.8377   20.8262 C   0  0  0  0  0  0  0  0  0  0  0  0
  -25.8473  -27.1932   19.5763 C   0  0  0  0  0  0  0  0  0  0  0  0
  -23.1429   -9.8109   20.9031 C   0  0  0  0  0  0  0  0  0  0  0  0
  -23.1679   -7.0253   21.0535 C   0  0  0  0  0  0  0  0  0  0  0  0
  -22.5152   -9.1643   21.9678 C   0  0  0  0  0  0  0  0  0  0  0  0
  -28.0558  -13.8411   20.8236 C   0  0  0  0  0  0  0  0  0  0  0  0
  -30.1471  -23.0277   18.3843 C   0  0  0  0  0  0  0  0  0  0  0  0
  -30.1308  -14.4530   20.4299 C   0  0  0  0  0  0  0  0  0  0  0  0
  -29.4105  -12.4256   19.1574 C   0  0  0  0  0  0  0  0  0  0  0  0
  -25.5622  -31.1485   23.2829 C   0  0  0  0  0  0  0  0  0  0  0  0
  -22.7007  -31.9937   22.0103 C   0  0  0  0  0  0  0  0  0  0  0  0
  -20.2737  -31.3971   19.6864 C   0  0  0  0  0  0  0  0  0  0  0  0
  -29.6723  -20.0469   22.4801 C   0  0  0  0  0  0  0  0  0  0  0  0
  -25.1700  -33.7388   27.6641 C   0  0  0  0  0  0  0  0  0  0  0  0
  -26.1273  -31.3010   20.8307 C   0  0  0  0  0  0  0  0  0  0  0  0
  -23.6419  -29.7662   21.2909 C   0  0  0  0  0  0  0  0  0  0  0  0
  -24.2532  -32.8339   26.8449 C   0  0  0  0  0  0  0  0  0  0  0  0
  -31.3592  -17.3342   24.0526 C   0  0  0  0  0  0  0  0  0  0  0  0
  -24.9783  -31.5489   26.4579 C   0  0  0  0  0  0  0  0  0  0  0  0
  -30.8124  -16.1002   23.3313 C   0  0  0  0  0  0  0  0  0  0  0  0
  -30.2847  -18.4037   24.2407 C   0  0  0  0  0  0  0  0  0  0  0  0
  -29.0319  -17.5629   22.2932 C   0  0  0  0  0  0  0  0  0  0  0  0
  -26.2020  -31.8478   25.5835 C   0  0  1  0  0  0  0  0  0  0  0  0
  -25.1465  -31.6740   21.9381 C   0  0  1  0  0  0  0  0  0  0  0  0
  -30.0938  -16.4845   22.0230 C   0  0  2  0  0  0  0  0  0  0  0  0
  -30.6085  -24.0359   17.3831 C   0  0  0  0  0  0  0  0  0  0  0  0
  -26.4134  -21.4818   20.8252 C   0  0  0  0  0  0  0  0  0  0  0  0
  -18.0357  -32.2315   18.9165 C   0  0  0  0  0  0  0  0  0  0  0  0
  -21.3784  -30.6577   24.4138 C   0  0  0  0  0  0  0  0  0  0  0  0
  -19.2186  -30.6759   23.1476 C   0  0  0  0  0  0  0  0  0  0  0  0
  -20.3420  -32.8270   23.7251 C   0  0  0  0  0  0  0  0  0  0  0  0
  -21.3133  -32.0481   16.9930 C   0  0  0  0  0  0  0  0  0  0  0  0
  -27.0241  -21.2304   19.4510 C   0  0  0  0  0  0  0  0  0  0  0  0
  -26.6112  -23.8930   18.1264 C   0  0  0  0  0  0  0  0  0  0  0  0
  -26.9040  -25.3349   18.5343 C   0  0  0  0  0  0  0  0  0  1  0  0
  -27.8085  -23.2066   17.4506 C   0  0  2  0  0  0  0  0  0  0  0  0
  -21.3362  -31.3530   21.9277 C   0  0  1  0  0  0  0  0  0  0  0  0
  -19.5425  -32.3246   18.7327 C   0  0  2  0  0  0  0  0  0  0  0  0
  -20.5919  -31.3658   23.2927 C   0  0  0  0  0  0  0  0  0  0  0  0
  -31.0995  -22.5546   19.2190 N   0  0  0  0  0  0  0  0  0  0  0  0
  -28.2364  -14.9219   21.5872 N   0  0  0  0  0  0  0  0  0  0  0  0
  -29.5077  -15.2709   21.3261 N   0  0  0  0  0  0  0  0  0  0  0  0
  -23.7927  -31.1766   21.6851 N   0  0  0  0  0  0  0  0  0  0  0  0
  -29.6504  -18.7200   22.9591 N   0  0  0  0  0  0  0  0  0  0  0  0
  -31.4109  -14.6605   20.0548 N   0  0  0  0  0  0  0  0  0  0  0  0
  -28.3513  -11.5406   18.9138 N   0  0  0  0  0  0  0  0  0  0  0  0
  -29.0668  -20.2209   21.2360 N   0  0  0  0  0  0  0  0  0  0  0  0
  -25.7944  -32.1330   24.2244 N   0  0  0  0  0  0  0  0  0  0  0  0
  -20.6270  -32.0401   20.8538 N   0  0  0  0  0  0  0  0  0  0  0  0
  -27.2679  -22.1579   16.5255 N   0  3  0  0  0  0  0  0  0  0  0  0
  -19.8661  -31.9754   17.3205 N   0  3  0  0  0  0  0  0  0  0  0  0
  -30.5083  -12.2433   18.5785 O   0  0  0  0  0  0  0  0  0  0  0  0
  -25.6633  -29.9393   23.4542 O   0  0  0  0  0  0  0  0  0  0  0  0
  -22.7936  -33.1776   22.3440 O   0  0  0  0  0  0  0  0  0  0  0  0
  -20.5049  -30.2189   19.4236 O   0  0  0  0  0  0  0  0  0  0  0  0
  -30.2141  -20.9566   23.1133 O   0  0  0  0  0  0  0  0  0  0  0  0
  -23.1306  -11.1935   20.8266 O   0  0  0  0  0  0  0  0  0  0  0  0
  -25.7587  -25.8962   19.1743 O   0  0  0  0  0  0  0  0  0  1  0  0
  -23.1787   -5.6878   21.1248 F   0  0  0  0  0  0  0  0  0  0  0  0
  -21.8976   -9.8757   22.9208 F   0  0  0  0  0  0  0  0  0  0  0  0
  1  2  1  0  0  0  0
  1  5  2  0  0  0  0
  2  6  2  0  0  0  0
  3  8  2  0  0  0  0
  3 16  1  0  0  0  0
  4  9  1  0  0  0  0
  4 16  2  0  0  0  0
  5 18  1  0  0  0  0
  6 20  1  0  0  0  0
  7 10  2  0  0  0  0
  7 19  1  0  0  0  0
  8 25  1  0  0  0  0
  9 25  2  0  0  0  0
 10 26  1  0  0  0  0
 11 12  2  0  0  0  0
 11 27  1  0  0  0  0
 12 28  1  0  0  0  0
 13 21  1  0  0  0  0
 13 26  2  0  0  0  0
 14 28  2  0  0  0  0
 14 29  1  0  0  0  0
 15 24  2  0  0  0  0
 15 64  1  0  0  0  0
 16 30  1  0  0  0  0
 17 30  1  0  0  0  0
 17 32  2  0  0  0  0
 17 33  1  0  0  0  0
 18 20  2  0  0  0  0
 18 38  1  0  0  0  0
 19 21  2  0  0  0  0
 19 39  1  0  0  0  0
 20 47  1  0  0  0  0
 21 40  1  0  0  0  0
 22 23  2  0  0  0  0
 22 24  1  0  0  0  0
 22 57  1  0  0  0  0
 23 31  1  0  0  0  0
 23 60  1  0  0  0  0
 24 71  1  0  0  0  0
 25 81  1  0  0  0  0
 26 82  1  0  0  0  0
 27 29  2  0  0  0  0
 27 81  1  0  0  0  0
 28 83  1  0  0  0  0
 29 84  1  0  0  0  0
 30 65  2  0  0  0  0
 31 50  1  0  0  0  0
 31 64  2  0  0  0  0
 32 66  1  0  0  0  0
 32 69  1  0  0  0  0
 33 70  1  0  0  0  0
 33 76  2  0  0  0  0
 34 48  1  0  0  0  0
 34 72  1  0  0  0  0
 34 77  2  0  0  0  0
 35 61  1  0  0  0  0
 35 67  1  0  0  0  0
 35 78  2  0  0  0  0
 36 62  1  0  0  0  0
 36 73  1  0  0  0  0
 36 79  2  0  0  0  0
 37 68  1  0  0  0  0
 37 71  1  0  0  0  0
 37 80  2  0  0  0  0
 38 41  1  0  0  0  0
 39 48  1  0  0  0  0
 40 67  1  0  0  0  0
 41 43  1  0  0  0  0
 42 44  1  0  0  0  0
 42 45  1  0  0  0  0
 43 47  1  0  0  0  0
 44 49  1  0  0  0  0
 45 68  1  0  0  0  0
 46 49  1  0  0  0  0
 46 68  1  0  0  0  0
 47 72  1  0  0  0  0
 48 67  1  0  0  0  0
 49 66  1  0  0  0  0
 51 57  1  0  0  0  0
 52 62  1  0  0  0  0
 53 63  1  0  0  0  0
 54 63  1  0  0  0  0
 55 63  1  0  0  0  0
 56 75  1  0  0  0  0
 58 59  1  0  0  0  0
 58 60  1  0  0  0  0
 59 82  1  0  0  0  0
 60 74  1  0  0  0  0
 61 63  1  0  0  0  0
 61 73  1  0  0  0  0
 62 75  1  0  0  0  0
 65 66  1  0  0  0  0
M  CHG  2  74   1  75   1
M  ISO  4  37 100  59 101  71 100  82 101
M  END
> <Batch ID>
0173

> <Smiles>
CCc1c([100NH:0][100C:0](=O)N2CCCC(n3nc(-c4ccc(Oc5ccc(F)cc5F)cc4)c(C(N)=O)c3N)C2)cnc(C)c1C(N)C[101CH2:1][101O:1]c1ccc2c(c1)CN(C(=O)C(NC(=O)C(C)NC)C(C)(C)C)C(C(=O)NC1CCCc3ccccc31)C2

> <Shape>
0.317

> <Color>
0.075

> <Negative vol penalty>
0.000

$$$$

  -OEChem-04052322423D

 84 93  0     1  0  0  0  0  0999 V2000
  -17.1010  -28.4621   24.3415 C   0  0  0  0  0  0  0  0  0  0  0  0
  -17.8434  -27.5585   23.5880 C   0  0  0  0  0  0  0  0  0  0  0  0
  -22.8000   -9.9882   20.2459 C   0  0  0  0  0  0  0  0  0  0  0  0
  -24.3277   -9.3072   21.9893 C   0  0  0  0  0  0  0  0  0  0  0  0
  -17.3435  -29.8301   24.2248 C   0  0  0  0  0  0  0  0  0  0  0  0
  -18.8281  -28.0225   22.7166 C   0  0  0  0  0  0  0  0  0  0  0  0
  -23.1205  -25.3546   23.0376 C   0  0  0  0  0  0  0  0  0  0  0  0
  -22.2237   -8.7180   20.2547 C   0  0  0  0  0  0  0  0  0  0  0  0
  -23.7513   -8.0370   21.9981 C   0  0  0  0  0  0  0  0  0  0  0  0
  -23.1493  -24.1156   22.3990 C   0  0  0  0  0  0  0  0  0  0  0  0
  -22.4439   -4.7249   22.7322 C   0  0  0  0  0  0  0  0  0  0  0  0
  -22.1566   -4.1509   23.9706 C   0  0  0  0  0  0  0  0  0  0  0  0
  -23.0572  -19.4722   17.9714 C   0  0  0  0  0  0  0  0  0  0  0  0
  -24.3372  -25.1046   20.5470 C   0  0  0  0  0  0  0  0  0  0  0  0
  -20.6843   -5.9963   24.4845 C   0  0  0  0  0  0  0  0  0  0  0  0
  -23.8520  -10.2828   21.1132 C   0  0  0  0  0  0  0  0  0  0  0  0
  -24.0645  -12.7080   21.8755 C   0  0  0  0  0  0  0  0  0  0  0  0
  -18.3382  -30.3106   23.3586 C   0  0  0  0  0  0  0  0  0  0  0  0
  -23.6911  -26.4821   22.4297 C   0  0  0  0  0  0  0  0  0  0  0  0
  -19.0832  -29.3983   22.5872 C   0  0  0  0  0  0  0  0  0  0  0  0
  -24.2501  -18.7992   17.6907 C   0  0  0  0  0  0  0  0  0  0  0  0
  -24.3165  -26.3562   21.1811 C   0  0  0  0  0  0  0  0  0  0  0  0
  -23.0868  -20.7640   18.4806 C   0  0  0  0  0  0  0  0  0  0  0  0
  -22.6993   -7.7424   21.1308 C   0  0  0  0  0  0  0  0  0  0  0  0
  -23.7552  -23.9910   21.1522 C   0  0  0  0  0  0  0  0  0  0  0  0
  -21.8514   -5.9347   22.3700 C   0  0  0  0  0  0  0  0  0  0  0  0
  -21.2768   -4.7866   24.8467 C   0  0  0  0  0  0  0  0  0  0  0  0
  -20.9717   -6.5704   23.2461 C   0  0  0  0  0  0  0  0  0  0  0  0
  -24.4481  -11.5946   21.1041 C   0  0  0  0  0  0  0  0  0  0  0  0
  -25.4520  -19.4631   17.9528 C   0  0  0  0  0  0  0  0  0  0  0  0
  -24.3230  -21.3402   18.7031 C   0  0  0  0  0  0  0  0  0  0  0  0
  -24.9359  -13.7016   21.5012 C   0  0  0  0  0  0  0  0  0  0  0  0
  -23.0145  -12.8329   22.8437 C   0  0  0  0  0  0  0  0  0  0  0  0
  -22.5862  -29.2851   21.4169 C   0  0  0  0  0  0  0  0  0  0  0  0
  -25.7300  -29.8995   20.9058 C   0  0  0  0  0  0  0  0  0  0  0  0
  -28.8653  -28.6782   20.3356 C   0  0  0  0  0  0  0  0  0  0  0  0
  -27.7682  -16.5272   17.7863 C   0  0  0  0  0  0  0  0  0  0  0  0
  -18.5319  -31.8008   23.2311 C   0  0  0  0  0  0  0  0  0  0  0  0
  -23.6752  -27.8059   23.1437 C   0  0  0  0  0  0  0  0  0  0  0  0
  -24.2142  -17.3848   17.1847 C   0  0  0  0  0  0  0  0  0  0  0  0
  -24.9615  -27.5317   20.4951 C   0  0  0  0  0  0  0  0  0  0  0  0
  -19.8486  -32.1891   22.5635 C   0  0  0  0  0  0  0  0  0  0  0  0
  -29.1628  -13.5267   18.7428 C   0  0  0  0  0  0  0  0  0  0  0  0
  -20.0775  -31.3532   21.3082 C   0  0  0  0  0  0  0  0  0  0  0  0
  -28.0382  -12.8340   19.5117 C   0  0  0  0  0  0  0  0  0  0  0  0
  -25.5520  -16.9268   16.6147 C   0  0  0  0  0  0  0  0  0  0  0  0
  -28.6234  -14.2235   17.4991 C   0  0  0  0  0  0  0  0  0  0  0  0
  -26.4098  -14.5379   18.5542 C   0  0  0  0  0  0  0  0  0  0  0  0
  -20.1769  -29.8614   21.6493 C   0  0  1  0  0  0  0  0  0  0  0  0
  -26.7885  -18.8044   17.6771 C   0  0  2  0  0  0  0  0  0  0  0  0
  -23.8344  -28.9950   22.2013 C   0  0  1  0  0  0  0  0  0  0  0  0
  -26.8989  -13.8187   19.8277 C   0  0  1  0  0  0  0  0  0  0  0  0
  -21.8137  -21.4795   18.7732 C   0  0  0  0  0  0  0  0  0  0  0  0
  -27.6662  -20.9478   16.7365 C   0  0  0  0  0  0  0  0  0  0  0  0
  -31.2250  -29.4249   19.9215 C   0  0  0  0  0  0  0  0  0  0  0  0
  -24.9914  -30.6355   18.0383 C   0  0  0  0  0  0  0  0  0  0  0  0
  -27.4146  -30.4440   17.4388 C   0  0  0  0  0  0  0  0  0  0  0  0
  -26.6743  -32.1483   19.1032 C   0  0  0  0  0  0  0  0  0  0  0  0
  -29.8465  -27.3177   22.7738 C   0  0  0  0  0  0  0  0  0  0  0  0
  -24.4206  -22.7258   19.2516 C   0  0  0  0  0  0  0  0  0  1  0  0
  -27.4848  -19.4880   16.4931 C   0  0  0  0  0  0  0  0  0  0  0  0
  -26.6836  -29.7047   19.7518 C   0  0  1  0  0  0  0  0  0  0  0  0
  -30.2050  -29.0069   20.9692 C   0  0  2  0  0  0  0  0  0  0  0  0
  -26.4272  -30.7112   18.5948 C   0  0  0  0  0  0  0  0  0  0  0  0
  -25.4825  -11.8557   20.3004 N   0  0  0  0  0  0  0  0  0  0  0  0
  -25.4994  -20.7242   18.4550 N   0  0  0  0  0  0  0  0  0  0  0  0
  -25.7562  -13.1447   20.5647 N   0  0  0  0  0  0  0  0  0  0  0  0
  -24.9145  -28.8062   21.2306 N   0  0  0  0  0  0  0  0  0  0  0  0
  -27.5391  -15.1452   17.8369 N   0  0  0  0  0  0  0  0  0  0  0  0
  -26.6711  -17.3495   17.4677 N   0  0  0  0  0  0  0  0  0  0  0  0
  -25.0726  -14.9885   21.8851 N   0  0  0  0  0  0  0  0  0  0  0  0
  -22.2129  -11.7140   23.1081 N   0  0  0  0  0  0  0  0  0  0  0  0
  -21.4797  -29.5545   22.1996 N   0  0  0  0  0  0  0  0  0  0  0  0
  -28.0270  -29.7728   20.3164 N   0  0  0  0  0  0  0  0  0  0  0  0
  -30.7384  -27.8213   21.6977 N   0  3  0  0  0  0  0  0  0  0  0  0
  -22.7832  -13.9096   23.4444 O   0  0  0  0  0  0  0  0  0  0  0  0
  -22.6244  -29.2674   20.1922 O   0  0  0  0  0  0  0  0  0  0  0  0
  -25.7145  -30.9794   21.5018 O   0  0  0  0  0  0  0  0  0  0  0  0
  -28.5913  -27.5630   19.8977 O   0  0  0  0  0  0  0  0  0  0  0  0
  -28.8905  -16.9993   18.0081 O   0  0  0  0  0  0  0  0  0  0  0  0
  -22.1370   -6.5030   21.1399 O   0  0  0  0  0  0  0  0  0  0  0  0
  -23.7844  -22.7744   20.5220 O   0  0  0  0  0  0  0  0  0  1  0  0
  -20.9999   -4.2344   26.0352 F   0  0  0  0  0  0  0  0  0  0  0  0
  -20.3985   -7.7322   22.9032 F   0  0  0  0  0  0  0  0  0  0  0  0
  1  2  1  0  0  0  0
  1  5  2  0  0  0  0
  2  6  2  0  0  0  0
  3  8  2  0  0  0  0
  3 16  1  0  0  0  0
  4  9  1  0  0  0  0
  4 16  2  0  0  0  0
  5 18  1  0  0  0  0
  6 20  1  0  0  0  0
  7 10  2  0  0  0  0
  7 19  1  0  0  0  0
  8 24  1  0  0  0  0
  9 24  2  0  0  0  0
 10 25  1  0  0  0  0
 11 12  2  0  0  0  0
 11 26  1  0  0  0  0
 12 27  1  0  0  0  0
 13 21  1  0  0  0  0
 13 23  2  0  0  0  0
 14 22  1  0  0  0  0
 14 25  2  0  0  0  0
 15 27  2  0  0  0  0
 15 28  1  0  0  0  0
 16 29  1  0  0  0  0
 17 29  1  0  0  0  0
 17 32  2  0  0  0  0
 17 33  1  0  0  0  0
 18 20  2  0  0  0  0
 18 38  1  0  0  0  0
 19 22  2  0  0  0  0
 19 39  1  0  0  0  0
 20 49  1  0  0  0  0
 21 30  2  0  0  0  0
 21 40  1  0  0  0  0
 22 41  1  0  0  0  0
 23 31  1  0  0  0  0
 23 53  1  0  0  0  0
 24 81  1  0  0  0  0
 25 82  1  0  0  0  0
 26 28  2  0  0  0  0
 26 81  1  0  0  0  0
 27 83  1  0  0  0  0
 28 84  1  0  0  0  0
 29 65  2  0  0  0  0
 30 50  1  0  0  0  0
 30 66  1  0  0  0  0
 31 60  1  0  0  0  0
 31 66  2  0  0  0  0
 32 67  1  0  0  0  0
 32 71  1  0  0  0  0
 33 72  1  0  0  0  0
 33 76  2  0  0  0  0
 34 51  1  0  0  0  0
 34 73  1  0  0  0  0
 34 77  2  0  0  0  0
 35 62  1  0  0  0  0
 35 68  1  0  0  0  0
 35 78  2  0  0  0  0
 36 63  1  0  0  0  0
 36 74  1  0  0  0  0
 36 79  2  0  0  0  0
 37 69  1  0  0  0  0
 37 70  1  0  0  0  0
 37 80  2  0  0  0  0
 38 42  1  0  0  0  0
 39 51  1  0  0  0  0
 40 46  1  0  0  0  0
 41 68  1  0  0  0  0
 42 44  1  0  0  0  0
 43 45  1  0  0  0  0
 43 47  1  0  0  0  0
 44 49  1  0  0  0  0
 45 52  1  0  0  0  0
 46 70  1  0  0  0  0
 47 69  1  0  0  0  0
 48 52  1  0  0  0  0
 48 69  1  0  0  0  0
 49 73  1  0  0  0  0
 50 61  1  0  0  0  0
 50 70  1  0  0  0  0
 51 68  1  0  0  0  0
 52 67  1  0  0  0  0
 54 61  1  0  0  0  0
 55 63  1  0  0  0  0
 56 64  1  0  0  0  0
 57 64  1  0  0  0  0
 58 64  1  0  0  0  0
 59 75  1  0  0  0  0
 60 82  1  0  0  0  0
 62 64  1  0  0  0  0
 62 74  1  0  0  0  0
 63 75  1  0  0  0  0
 65 67  1  0  0  0  0
M  CHG  1  75   1
M  ISO  4  37 100  60 101  70 100  82 101
M  END
> <Batch ID>
0173

> <Smiles>
CCC1c2nc([101CH2:1][101O:1]c3ccc4c(c3)CN(C(=O)C(NC(=O)C(C)NC)C(C)(C)C)C(C(=O)NC3CCCc5ccccc53)C4)c(C)cc2CC[100N:0]1[100C:0](=O)N1CCCC(n2nc(-c3ccc(Oc4ccc(F)cc4F)cc3)c(C(N)=O)c2N)C1

> <Shape>
0.252

> <Color>
0.132

> <Negative vol penalty>
0.000

$$$$

  -OEChem-04052322423D

 84 93  0     1  0  0  0  0  0999 V2000
  -34.2357  -17.1739   24.1446 C   0  0  0  0  0  0  0  0  0  0  0  0
  -33.8557  -18.4508   23.7440 C   0  0  0  0  0  0  0  0  0  0  0  0
  -25.7722  -13.7211   21.5880 C   0  0  0  0  0  0  0  0  0  0  0  0
  -26.0093  -12.4138   19.5702 C   0  0  0  0  0  0  0  0  0  0  0  0
  -33.2685  -16.1886   24.3382 C   0  0  0  0  0  0  0  0  0  0  0  0
  -32.5082  -18.7428   23.5357 C   0  0  0  0  0  0  0  0  0  0  0  0
  -29.6788  -24.0593   24.6473 C   0  0  0  0  0  0  0  0  0  0  0  0
  -24.6197  -13.0068   21.9154 C   0  0  0  0  0  0  0  0  0  0  0  0
  -24.8569  -11.6994   19.8976 C   0  0  0  0  0  0  0  0  0  0  0  0
  -29.3266  -25.1252   23.8205 C   0  0  0  0  0  0  0  0  0  0  0  0
  -22.1793   -9.2883   20.3829 C   0  0  0  0  0  0  0  0  0  0  0  0
  -22.2125   -7.9013   20.2393 C   0  0  0  0  0  0  0  0  0  0  0  0
  -27.1099  -24.2032   23.5860 C   0  0  0  0  0  0  0  0  0  0  0  0
  -24.0315   -7.7805   21.8247 C   0  0  0  0  0  0  0  0  0  0  0  0
  -30.6968  -26.4610   18.5147 C   0  0  0  0  0  0  0  0  0  0  0  0
  -26.4669  -13.4246   20.4153 C   0  0  0  0  0  0  0  0  0  0  0  0
  -28.9822  -13.8498   20.4344 C   0  0  0  0  0  0  0  0  0  0  0  0
  -31.9076  -16.4713   24.1416 C   0  0  0  0  0  0  0  0  0  0  0  0
  -28.7509  -23.0498   24.9413 C   0  0  0  0  0  0  0  0  0  0  0  0
  -31.5220  -17.7600   23.7256 C   0  0  0  0  0  0  0  0  0  0  0  0
  -27.4519  -23.1268   24.4188 C   0  0  0  0  0  0  0  0  0  0  0  0
  -24.1621  -11.9959   21.0702 C   0  0  0  0  0  0  0  0  0  0  0  0
  -28.0429  -25.1958   23.2874 C   0  0  0  0  0  0  0  0  0  0  0  0
  -23.0723   -9.9215   21.2474 C   0  0  0  0  0  0  0  0  0  0  0  0
  -23.1385   -7.1474   20.9602 C   0  0  0  0  0  0  0  0  0  0  0  0
  -23.9984   -9.1676   21.9683 C   0  0  0  0  0  0  0  0  0  0  0  0
  -27.6572  -14.1626   20.0763 C   0  0  0  0  0  0  0  0  0  0  0  0
  -29.7649  -25.4436   18.5471 C   0  0  0  0  0  0  0  0  0  0  0  0
  -30.3079  -27.6458   19.1056 C   0  0  0  0  0  0  0  0  0  0  0  0
  -29.7353  -14.8517   19.8728 C   0  0  0  0  0  0  0  0  0  0  0  0
  -28.2845  -26.7668   19.6538 C   0  0  0  0  0  0  0  0  0  0  0  0
  -29.4871  -12.7517   21.2057 C   0  0  0  0  0  0  0  0  0  0  0  0
  -28.6041  -19.9174   24.4220 C   0  0  0  0  0  0  0  0  0  0  0  0
  -25.9351  -20.1328   26.2528 C   0  0  0  0  0  0  0  0  0  0  0  0
  -23.3918  -22.0677   27.4506 C   0  0  0  0  0  0  0  0  0  0  0  0
  -29.3289  -20.5120   18.9927 C   0  0  0  0  0  0  0  0  0  0  0  0
  -30.9026  -15.3606   24.3175 C   0  0  0  0  0  0  0  0  0  0  0  0
  -29.1381  -21.9207   25.8564 C   0  0  0  0  0  0  0  0  0  0  0  0
  -26.4125  -22.0793   24.7203 C   0  0  0  0  0  0  0  0  0  0  0  0
  -29.4634  -15.8549   24.4382 C   0  0  0  0  0  0  0  0  0  0  0  0
  -29.0815  -18.0905   16.2199 C   0  0  0  0  0  0  0  0  0  0  0  0
  -29.1635  -16.8933   23.3617 C   0  0  0  0  0  0  0  0  0  0  0  0
  -28.7606  -16.8067   16.9794 C   0  0  0  0  0  0  0  0  0  0  0  0
  -31.3591  -23.4189   18.3678 C   0  0  0  0  0  0  0  0  0  0  0  0
  -28.4694  -19.3207   16.8886 C   0  0  0  0  0  0  0  0  0  0  0  0
  -28.5176  -18.1761   19.0867 C   0  0  0  0  0  0  0  0  0  0  0  0
  -30.0680  -18.1222   23.5135 C   0  0  1  0  0  0  0  0  0  0  0  0
  -30.1073  -24.1299   17.9293 C   0  0  1  0  0  0  0  0  0  0  0  0
  -28.2708  -20.6790   25.6735 C   0  0  1  0  0  0  0  0  0  0  0  0
  -29.1657  -16.9341   18.4558 C   0  0  1  0  0  0  0  0  0  0  0  0
  -30.0194  -22.8800   18.7740 C   0  0  1  0  0  0  0  0  0  0  0  0
  -31.2482  -28.8040   19.1196 C   0  0  0  0  0  0  0  0  0  0  0  0
  -25.7981  -26.7781   19.2675 C   0  0  0  0  0  0  0  0  0  0  0  0
  -21.3425  -21.9547   28.8945 C   0  0  0  0  0  0  0  0  0  0  0  0
  -24.4284  -18.7304   24.0004 C   0  0  0  0  0  0  0  0  0  0  0  0
  -22.2876  -19.4882   25.0546 C   0  0  0  0  0  0  0  0  0  0  0  0
  -23.8176  -17.9620   26.3006 C   0  0  0  0  0  0  0  0  0  0  0  0
  -24.4828  -24.0528   29.3553 C   0  0  0  0  0  0  0  0  0  0  0  0
  -26.7136  -25.9789   21.4776 C   0  0  0  0  0  0  0  0  0  1  0  0
  -26.9184  -26.9401   20.2987 C   0  0  1  0  0  0  0  0  0  0  0  0
  -24.4710  -20.3836   25.9831 C   0  0  1  0  0  0  0  0  0  0  0  0
  -22.8347  -22.2449   28.8516 C   0  0  2  0  0  0  0  0  0  0  0  0
  -23.7711  -19.1600   25.3273 C   0  0  0  0  0  0  0  0  0  0  0  0
  -27.5701  -15.2762   19.3439 N   0  0  0  0  0  0  0  0  0  0  0  0
  -28.5448  -25.5624   19.1105 N   0  0  0  0  0  0  0  0  0  0  0  0
  -29.1048  -27.8344   19.6865 N   0  0  0  0  0  0  0  0  0  0  0  0
  -28.8500  -15.6720   19.2374 N   0  0  0  0  0  0  0  0  0  0  0  0
  -26.8414  -20.9917   25.6151 N   0  0  0  0  0  0  0  0  0  0  0  0
  -28.8170  -19.3897   18.3167 N   0  0  0  0  0  0  0  0  0  0  0  0
  -31.0618  -15.1024   19.8654 N   0  0  0  0  0  0  0  0  0  0  0  0
  -28.5757  -11.8129   21.7078 N   0  0  0  0  0  0  0  0  0  0  0  0
  -29.5949  -18.9685   24.5879 N   0  0  0  0  0  0  0  0  0  0  0  0
  -23.8865  -20.7957   27.2547 N   0  0  0  0  0  0  0  0  0  0  0  0
  -29.5099  -21.6539   18.2204 N   0  0  0  0  0  0  0  0  0  0  0  0
  -23.0559  -23.6408   29.3243 N   0  3  0  0  0  0  0  0  0  0  0  0
  -30.7087  -12.6164   21.4566 O   0  0  0  0  0  0  0  0  0  0  0  0
  -28.0057  -20.1707   23.3830 O   0  0  0  0  0  0  0  0  0  0  0  0
  -26.2621  -19.2133   27.0072 O   0  0  0  0  0  0  0  0  0  0  0  0
  -23.3852  -22.9667   26.6125 O   0  0  0  0  0  0  0  0  0  0  0  0
  -29.6005  -20.5013   20.1984 O   0  0  0  0  0  0  0  0  0  0  0  0
  -23.0377  -11.2985   21.3895 O   0  0  0  0  0  0  0  0  0  0  0  0
  -27.6968  -26.2348   22.4796 O   0  0  0  0  0  0  0  0  0  1  0  0
  -23.1692   -5.8153   20.8233 F   0  0  0  0  0  0  0  0  0  0  0  0
  -24.8580   -9.7701   22.8013 F   0  0  0  0  0  0  0  0  0  0  0  0
  1  2  1  0  0  0  0
  1  5  2  0  0  0  0
  2  6  2  0  0  0  0
  3  8  2  0  0  0  0
  3 16  1  0  0  0  0
  4  9  1  0  0  0  0
  4 16  2  0  0  0  0
  5 18  1  0  0  0  0
  6 20  1  0  0  0  0
  7 10  2  0  0  0  0
  7 19  1  0  0  0  0
  8 22  1  0  0  0  0
  9 22  2  0  0  0  0
 10 23  1  0  0  0  0
 11 12  2  0  0  0  0
 11 24  1  0  0  0  0
 12 25  1  0  0  0  0
 13 21  1  0  0  0  0
 13 23  2  0  0  0  0
 14 25  2  0  0  0  0
 14 26  1  0  0  0  0
 15 28  2  0  0  0  0
 15 29  1  0  0  0  0
 16 27  1  0  0  0  0
 17 27  1  0  0  0  0
 17 30  2  0  0  0  0
 17 32  1  0  0  0  0
 18 20  2  0  0  0  0
 18 37  1  0  0  0  0
 19 21  2  0  0  0  0
 19 38  1  0  0  0  0
 20 47  1  0  0  0  0
 21 39  1  0  0  0  0
 22 81  1  0  0  0  0
 23 82  1  0  0  0  0
 24 26  2  0  0  0  0
 24 81  1  0  0  0  0
 25 83  1  0  0  0  0
 26 84  1  0  0  0  0
 27 64  2  0  0  0  0
 28 48  1  0  0  0  0
 28 65  1  0  0  0  0
 29 52  1  0  0  0  0
 29 66  2  0  0  0  0
 30 67  1  0  0  0  0
 30 70  1  0  0  0  0
 31 60  1  0  0  0  0
 31 65  2  0  0  0  0
 31 66  1  0  0  0  0
 32 71  1  0  0  0  0
 32 76  2  0  0  0  0
 33 49  1  0  0  0  0
 33 72  1  0  0  0  0
 33 77  2  0  0  0  0
 34 61  1  0  0  0  0
 34 68  1  0  0  0  0
 34 78  2  0  0  0  0
 35 62  1  0  0  0  0
 35 73  1  0  0  0  0
 35 79  2  0  0  0  0
 36 69  1  0  0  0  0
 36 74  1  0  0  0  0
 36 80  2  0  0  0  0
 37 40  1  0  0  0  0
 38 49  1  0  0  0  0
 39 68  1  0  0  0  0
 40 42  1  0  0  0  0
 41 43  1  0  0  0  0
 41 45  1  0  0  0  0
 42 47  1  0  0  0  0
 43 50  1  0  0  0  0
 44 48  1  0  0  0  0
 44 51  1  0  0  0  0
 45 69  1  0  0  0  0
 46 50  1  0  0  0  0
 46 69  1  0  0  0  0
 47 72  1  0  0  0  0
 48 51  1  0  0  0  0
 49 68  1  0  0  0  0
 50 67  1  0  0  0  0
 51 74  1  0  0  0  0
 53 60  1  0  0  0  0
 54 62  1  0  0  0  0
 55 63  1  0  0  0  0
 56 63  1  0  0  0  0
 57 63  1  0  0  0  0
 58 75  1  0  0  0  0
 59 60  1  0  0  0  0
 59 82  1  0  0  0  0
 61 63  1  0  0  0  0
 61 73  1  0  0  0  0
 62 75  1  0  0  0  0
 64 67  1  0  0  0  0
M  CHG  1  75   1
M  ISO  4  36 100  59 101  74 100  82 101
M  END
> <Batch ID>
0173

> <Smiles>
CNC(C)C(=O)NC(C(=O)N1Cc2cc([101O:1][101CH2:1]C(C)c3nc(C)cc(C4CC4[100NH:0][100C:0](=O)N4CCCC(n5nc(-c6ccc(Oc7ccc(F)cc7F)cc6)c(C(N)=O)c5N)C4)n3)ccc2CC1C(=O)NC1CCCc2ccccc21)C(C)(C)C

> <Shape>
0.195

> <Color>
0.060

> <Negative vol penalty>
0.000

$$$$

  -OEChem-04052322423D

 85 94  0     1  0  0  0  0  0999 V2000
  -23.7875  -37.4381   17.5051 C   0  0  0  0  0  0  0  0  0  0  0  0
  -23.8870  -36.1404   17.0136 C   0  0  0  0  0  0  0  0  0  0  0  0
  -23.4048   -9.7195   22.0713 C   0  0  0  0  0  0  0  0  0  0  0  0
  -24.9277   -7.9373   21.4869 C   0  0  0  0  0  0  0  0  0  0  0  0
  -24.4308  -37.7836   18.6928 C   0  0  0  0  0  0  0  0  0  0  0  0
  -24.6307  -35.1877   17.7090 C   0  0  0  0  0  0  0  0  0  0  0  0
  -24.7697  -28.1702   19.1412 C   0  0  0  0  0  0  0  0  0  0  0  0
  -22.3227   -8.9007   21.7486 C   0  0  0  0  0  0  0  0  0  0  0  0
  -23.8455   -7.1184   21.1642 C   0  0  0  0  0  0  0  0  0  0  0  0
  -25.6321  -27.0762   19.0844 C   0  0  0  0  0  0  0  0  0  0  0  0
  -21.5692   -5.2383   22.8086 C   0  0  0  0  0  0  0  0  0  0  0  0
  -21.5930   -3.9229   23.2719 C   0  0  0  0  0  0  0  0  0  0  0  0
  -26.6351  -27.7663   21.1669 C   0  0  0  0  0  0  0  0  0  0  0  0
  -21.4986   -3.1194   20.9953 C   0  0  0  0  0  0  0  0  0  0  0  0
  -24.7073   -9.2378   21.9404 C   0  0  0  0  0  0  0  0  0  0  0  0
  -26.4534  -10.2083   23.5269 C   0  0  0  0  0  0  0  0  0  0  0  0
  -25.1749  -36.8322   19.4082 C   0  0  0  0  0  0  0  0  0  0  0  0
  -24.8410  -29.0781   20.2076 C   0  0  0  0  0  0  0  0  0  0  0  0
  -25.2857  -35.5212   18.9068 C   0  0  0  0  0  0  0  0  0  0  0  0
  -25.7708  -28.8696   21.2362 C   0  0  0  0  0  0  0  0  0  0  0  0
  -22.5430   -7.6002   21.2950 C   0  0  0  0  0  0  0  0  0  0  0  0
  -26.5669  -26.8757   20.0958 C   0  0  0  0  0  0  0  0  0  0  0  0
  -21.5100   -5.4943   21.4387 C   0  0  0  0  0  0  0  0  0  0  0  0
  -21.5577   -2.8634   22.3653 C   0  0  0  0  0  0  0  0  0  0  0  0
  -21.4748   -4.4349   20.5321 C   0  0  0  0  0  0  0  0  0  0  0  0
  -25.8256  -10.0833   22.2731 C   0  0  0  0  0  0  0  0  0  0  0  0
  -29.7696  -22.3820   18.7150 C   0  0  0  0  0  0  0  0  0  0  0  0
  -27.4522  -11.1283   23.3206 C   0  0  0  0  0  0  0  0  0  0  0  0
  -29.1704  -22.0110   19.8956 C   0  0  0  0  0  0  0  0  0  0  0  0
  -28.2186  -23.8037   19.0370 C   0  0  0  0  0  0  0  0  0  0  0  0
  -26.1600   -9.5515   24.7672 C   0  0  0  0  0  0  0  0  0  0  0  0
  -25.4800  -32.1804   20.4734 C   0  0  0  0  0  0  0  0  0  0  0  0
  -24.6585  -31.6863   23.5723 C   0  0  0  0  0  0  0  0  0  0  0  0
  -24.3339  -29.4967   26.1698 C   0  0  0  0  0  0  0  0  0  0  0  0
  -29.3668  -15.7473   21.3701 C   0  0  0  0  0  0  0  0  0  0  0  0
  -25.8916  -37.2650   20.6627 C   0  0  0  0  0  0  0  0  0  0  0  0
  -23.8857  -30.2383   20.2679 C   0  0  0  0  0  0  0  0  0  0  0  0
  -25.8741  -29.8038   22.4131 C   0  0  0  0  0  0  0  0  0  0  0  0
  -26.3508  -36.0992   21.5347 C   0  0  0  0  0  0  0  0  0  0  0  0
  -29.2884  -13.1108   19.0525 C   0  0  0  0  0  0  0  0  0  0  0  0
  -27.0316  -35.0318   20.6838 C   0  0  0  0  0  0  0  0  0  0  0  0
  -28.4237  -12.0867   19.7871 C   0  0  0  0  0  0  0  0  0  0  0  0
  -28.8251  -18.8408   19.7810 C   0  0  0  0  0  0  0  0  0  0  0  0
  -30.5488  -18.9949   21.6175 C   0  0  0  0  0  0  0  0  0  0  0  0
  -28.7618  -14.5364   19.2275 C   0  0  0  0  0  0  0  0  0  0  0  0
  -29.3105  -17.4223   19.4681 C   0  0  0  0  0  0  0  0  0  0  0  0
  -31.0172  -17.5894   21.2509 C   0  0  0  0  0  0  0  0  0  0  0  0
  -27.7041  -13.9114   21.3744 C   0  0  0  0  0  0  0  0  0  0  0  0
  -26.0628  -34.4533   19.6455 C   0  0  1  0  0  0  0  0  0  0  0  0
  -24.3922  -31.3848   21.1376 C   0  0  1  0  0  0  0  0  0  0  0  0
  -28.2417  -12.4761   21.2649 C   0  0  1  0  0  0  0  0  0  0  0  0
  -29.9366  -19.6918   20.3997 C   0  0  0  0  0  0  0  0  0  0  0  0
  -30.9007  -21.7446   18.0212 C   0  0  0  0  0  0  0  0  0  0  0  0
  -23.6762  -29.3942   28.5894 C   0  0  0  0  0  0  0  0  0  0  0  0
  -27.3327  -32.9333   24.3495 C   0  0  0  0  0  0  0  0  0  0  0  0
  -27.0443  -31.9563   26.6366 C   0  0  0  0  0  0  0  0  0  0  0  0
  -25.4026  -33.6279   25.7802 C   0  0  0  0  0  0  0  0  0  0  0  0
  -27.2535  -22.9793   21.1994 C   0  0  0  0  0  0  0  0  0  0  0  0
  -22.1089  -27.6286   25.6058 C   0  0  0  0  0  0  0  0  0  0  0  0
  -27.2780  -24.9365   18.9169 C   0  0  0  0  0  0  0  0  0  1  0  0
  -25.4011  -31.2872   24.8246 C   0  0  1  0  0  0  0  0  0  0  0  0
  -23.2005  -29.2591   27.1513 C   0  0  2  0  0  0  0  0  0  0  0  0
  -26.2948  -32.4345   25.3747 C   0  0  0  0  0  0  0  0  0  0  0  0
  -26.3791  -10.8617   21.3395 N   0  0  0  0  0  0  0  0  0  0  0  0
  -29.1727  -23.4988   18.1857 N   0  0  0  0  0  0  0  0  0  0  0  0
  -28.1790  -22.9313   20.0890 N   0  0  0  0  0  0  0  0  0  0  0  0
  -27.3651  -11.4848   22.0070 N   0  0  0  0  0  0  0  0  0  0  0  0
  -24.9224  -30.9271   22.4235 N   0  0  0  0  0  0  0  0  0  0  0  0
  -28.5663  -14.8478   20.6503 N   0  0  0  0  0  0  0  0  0  0  0  0
  -29.9320  -16.8117   20.6520 N   0  0  0  0  0  0  0  0  0  0  0  0
  -28.3876  -11.6590   24.1365 N   0  0  0  0  0  0  0  0  0  0  0  0
  -25.1002   -8.6351   24.8036 N   0  0  0  0  0  0  0  0  0  0  0  0
  -29.4031  -20.9790   20.7873 N   0  0  0  0  0  0  0  0  0  0  0  0
  -25.1598  -33.5089   20.2677 N   0  0  0  0  0  0  0  0  0  0  0  0
  -24.3910  -30.8135   25.7647 N   0  0  0  0  0  0  0  0  0  0  0  0
  -22.6360  -27.8919   26.9695 N   0  3  0  0  0  0  0  0  0  0  0  0
  -26.8077   -9.7831   25.8162 O   0  0  0  0  0  0  0  0  0  0  0  0
  -26.5324  -31.6303   20.1712 O   0  0  0  0  0  0  0  0  0  0  0  0
  -23.8679  -32.6323   23.6136 O   0  0  0  0  0  0  0  0  0  0  0  0
  -25.0950  -28.6044   25.8024 O   0  0  0  0  0  0  0  0  0  0  0  0
  -29.5650  -15.6080   22.5836 O   0  0  0  0  0  0  0  0  0  0  0  0
  -21.4873   -6.8009   20.9802 O   0  0  0  0  0  0  0  0  0  0  0  0
  -27.4148  -25.8034   20.0421 O   0  0  0  0  0  0  0  0  0  1  0  0
  -21.5821   -1.6003   22.8103 F   0  0  0  0  0  0  0  0  0  0  0  0
  -21.4191   -4.6746   19.2148 F   0  0  0  0  0  0  0  0  0  0  0  0
  1  2  1  0  0  0  0
  1  5  2  0  0  0  0
  2  6  2  0  0  0  0
  3  8  2  0  0  0  0
  3 15  1  0  0  0  0
  4  9  1  0  0  0  0
  4 15  2  0  0  0  0
  5 17  1  0  0  0  0
  6 19  1  0  0  0  0
  7 10  2  0  0  0  0
  7 18  1  0  0  0  0
  8 21  1  0  0  0  0
  9 21  2  0  0  0  0
 10 22  1  0  0  0  0
 11 12  2  0  0  0  0
 11 23  1  0  0  0  0
 12 24  1  0  0  0  0
 13 20  1  0  0  0  0
 13 22  2  0  0  0  0
 14 24  2  0  0  0  0
 14 25  1  0  0  0  0
 15 26  1  0  0  0  0
 16 26  1  0  0  0  0
 16 28  2  0  0  0  0
 16 31  1  0  0  0  0
 17 19  2  0  0  0  0
 17 36  1  0  0  0  0
 18 20  2  0  0  0  0
 18 37  1  0  0  0  0
 19 49  1  0  0  0  0
 20 38  1  0  0  0  0
 21 82  1  0  0  0  0
 22 83  1  0  0  0  0
 23 25  2  0  0  0  0
 23 82  1  0  0  0  0
 24 84  1  0  0  0  0
 25 85  1  0  0  0  0
 26 64  2  0  0  0  0
 27 29  2  0  0  0  0
 27 53  1  0  0  0  0
 27 65  1  0  0  0  0
 28 67  1  0  0  0  0
 28 71  1  0  0  0  0
 29 66  1  0  0  0  0
 29 73  1  0  0  0  0
 30 60  1  0  0  0  0
 30 65  2  0  0  0  0
 30 66  1  0  0  0  0
 31 72  1  0  0  0  0
 31 77  2  0  0  0  0
 32 50  1  0  0  0  0
 32 74  1  0  0  0  0
 32 78  2  0  0  0  0
 33 61  1  0  0  0  0
 33 68  1  0  0  0  0
 33 79  2  0  0  0  0
 34 62  1  0  0  0  0
 34 75  1  0  0  0  0
 34 80  2  0  0  0  0
 35 69  1  0  0  0  0
 35 70  1  0  0  0  0
 35 81  2  0  0  0  0
 36 39  1  0  0  0  0
 37 50  1  0  0  0  0
 38 68  1  0  0  0  0
 39 41  1  0  0  0  0
 40 42  1  0  0  0  0
 40 45  1  0  0  0  0
 41 49  1  0  0  0  0
 42 51  1  0  0  0  0
 43 46  1  0  0  0  0
 43 52  1  0  0  0  0
 44 47  1  0  0  0  0
 44 52  1  0  0  0  0
 45 69  1  0  0  0  0
 46 70  1  0  0  0  0
 47 70  1  0  0  0  0
 48 51  1  0  0  0  0
 48 69  1  0  0  0  0
 49 74  1  0  0  0  0
 50 68  1  0  0  0  0
 51 67  1  0  0  0  0
 52 73  1  0  0  0  0
 54 62  1  0  0  0  0
 55 63  1  0  0  0  0
 56 63  1  0  0  0  0
 57 63  1  0  0  0  0
 58 66  1  0  0  0  0
 59 76  1  0  0  0  0
 60 83  1  0  0  0  0
 61 63  1  0  0  0  0
 61 75  1  0  0  0  0
 62 76  1  0  0  0  0
 64 67  1  0  0  0  0
M  CHG  1  76   1
M  ISO  4  35 100  60 101  70 100  83 101
M  END
> <Batch ID>
0173

> <Smiles>
CNC(C)C(=O)NC(C(=O)N1Cc2cc([101O:1][101CH2:1]c3nc(C)c(NC4CC[100N:0]([100C:0](=O)N5CCCC(n6nc(-c7ccc(Oc8ccc(F)cc8F)cc7)c(C(N)=O)c6N)C5)CC4)n3C)ccc2CC1C(=O)NC1CCCc2ccccc21)C(C)(C)C

> <Shape>
0.293

> <Color>
0.094

> <Negative vol penalty>
0.000

$$$$

  -OEChem-04052322423D

 85 94  0     1  0  0  0  0  0999 V2000
  -31.2789  -32.8236   17.1946 C   0  0  0  0  0  0  0  0  0  0  0  0
  -31.1628  -31.4716   17.5009 C   0  0  0  0  0  0  0  0  0  0  0  0
  -22.6082  -10.4684   20.6522 C   0  0  0  0  0  0  0  0  0  0  0  0
  -24.4690   -8.9363   20.8179 C   0  0  0  0  0  0  0  0  0  0  0  0
  -30.6134  -33.7725   17.9696 C   0  0  0  0  0  0  0  0  0  0  0  0
  -30.3820  -31.0676   18.5834 C   0  0  0  0  0  0  0  0  0  0  0  0
  -27.0239  -25.9631   18.9987 C   0  0  0  0  0  0  0  0  0  0  0  0
  -21.7287   -9.4352   20.9755 C   0  0  0  0  0  0  0  0  0  0  0  0
  -23.5894   -7.9031   21.1412 C   0  0  0  0  0  0  0  0  0  0  0  0
  -27.2658  -24.7273   19.5970 C   0  0  0  0  0  0  0  0  0  0  0  0
  -21.8923   -6.8390   23.8629 C   0  0  0  0  0  0  0  0  0  0  0  0
  -22.2413   -6.0002   24.9213 C   0  0  0  0  0  0  0  0  0  0  0  0
  -26.0746  -25.4537   21.5650 C   0  0  0  0  0  0  0  0  0  0  0  0
  -22.2201   -4.1034   23.4251 C   0  0  0  0  0  0  0  0  0  0  0  0
  -23.9784  -10.2190   20.5734 C   0  0  0  0  0  0  0  0  0  0  0  0
  -24.8981  -12.0552   19.0601 C   0  0  0  0  0  0  0  0  0  0  0  0
  -29.8162  -33.3793   19.0562 C   0  0  0  0  0  0  0  0  0  0  0  0
  -26.3137  -26.9591   19.6844 C   0  0  0  0  0  0  0  0  0  0  0  0
  -29.7063  -32.0122   19.3745 C   0  0  0  0  0  0  0  0  0  0  0  0
  -25.8228  -26.7004   20.9721 C   0  0  0  0  0  0  0  0  0  0  0  0
  -22.2193   -8.1525   21.2200 C   0  0  0  0  0  0  0  0  0  0  0  0
  -26.7936  -24.4735   20.8815 C   0  0  0  0  0  0  0  0  0  0  0  0
  -21.7071   -6.3100   22.5856 C   0  0  0  0  0  0  0  0  0  0  0  0
  -22.4053   -4.6324   24.7024 C   0  0  0  0  0  0  0  0  0  0  0  0
  -21.8710   -4.9422   22.3667 C   0  0  0  0  0  0  0  0  0  0  0  0
  -24.8874  -11.2857   20.2389 C   0  0  0  0  0  0  0  0  0  0  0  0
  -25.9455  -12.9275   19.2291 C   0  0  0  0  0  0  0  0  0  0  0  0
  -24.0382  -11.9875   17.9149 C   0  0  0  0  0  0  0  0  0  0  0  0
  -26.9839  -29.8952   20.7011 C   0  0  0  0  0  0  0  0  0  0  0  0
  -23.8324  -29.9284   21.4688 C   0  0  0  0  0  0  0  0  0  0  0  0
  -21.0184  -28.1563   22.2351 C   0  0  0  0  0  0  0  0  0  0  0  0
  -28.7635  -16.4680   22.1830 C   0  0  0  0  0  0  0  0  0  0  0  0
  -29.1540  -34.4445   19.8937 C   0  0  0  0  0  0  0  0  0  0  0  0
  -26.0381  -28.2774   19.0147 C   0  0  0  0  0  0  0  0  0  0  0  0
  -25.0376  -27.7289   21.7429 C   0  0  0  0  0  0  0  0  0  0  0  0
  -28.0453  -33.9085   20.7957 C   0  0  0  0  0  0  0  0  0  0  0  0
  -29.6303  -13.0442   22.6724 C   0  0  0  0  0  0  0  0  0  0  0  0
  -28.5090  -32.6491   21.5208 C   0  0  0  0  0  0  0  0  0  0  0  0
  -28.4532  -12.3374   22.0041 C   0  0  0  0  0  0  0  0  0  0  0  0
  -29.5963  -18.3883   25.2721 C   0  0  0  0  0  0  0  0  0  0  0  0
  -29.4550  -19.6720   23.0811 C   0  0  0  0  0  0  0  0  0  0  0  0
  -26.8944  -21.8130   25.4799 C   0  0  0  0  0  0  0  0  0  0  0  0
  -29.1969  -14.3008   23.4300 C   0  0  0  0  0  0  0  0  0  0  0  0
  -29.5455  -17.0446   24.5309 C   0  0  0  0  0  0  0  0  0  0  0  0
  -30.2060  -18.4281   22.5982 C   0  0  0  0  0  0  0  0  0  0  0  0
  -27.2313  -14.5399   21.9404 C   0  0  0  0  0  0  0  0  0  0  0  0
  -27.2397  -21.2734   26.8570 C   0  0  0  0  0  0  0  0  0  0  0  0
  -28.8488  -31.5330   20.5256 C   0  0  1  0  0  0  0  0  0  0  0  0
  -25.7476  -29.4012   20.0046 C   0  0  1  0  0  0  0  0  0  0  0  0
  -27.6600  -13.3145   21.1204 C   0  0  2  0  0  0  0  0  0  0  0  0
  -29.0746  -20.8362   25.2781 C   0  0  1  0  0  0  0  0  0  0  0  0
  -28.8767  -19.5288   24.5169 C   0  0  0  0  0  0  0  0  0  0  0  0
  -28.2491  -22.0473   24.7970 C   0  0  2  0  0  0  0  0  0  0  0  0
  -27.3615  -19.2475   24.4501 C   0  0  0  0  0  0  0  0  0  0  0  0
  -28.8855  -23.3613   25.2971 C   0  0  0  0  0  0  0  0  0  0  0  0
  -18.6049  -28.4615   22.8510 C   0  0  0  0  0  0  0  0  0  0  0  0
  -24.6575  -30.7315   24.2944 C   0  0  0  0  0  0  0  0  0  0  0  0
  -22.3624  -30.0990   25.0694 C   0  0  0  0  0  0  0  0  0  0  0  0
  -22.6537  -31.9386   23.4099 C   0  0  0  0  0  0  0  0  0  0  0  0
  -20.1001  -26.6876   19.8354 C   0  0  0  0  0  0  0  0  0  0  0  0
  -28.0952  -22.1365   23.2755 C   0  0  0  0  0  0  0  0  0  0  0  0
  -27.1424  -23.2467   22.8888 C   0  0  0  0  0  0  0  0  0  1  0  0
  -23.0242  -29.5451   22.6848 C   0  0  1  0  0  0  0  0  0  0  0  0
  -19.5951  -28.2520   21.7159 C   0  0  2  0  0  0  0  0  0  0  0  0
  -23.1909  -30.5596   23.8511 C   0  0  0  0  0  0  0  0  0  0  0  0
  -25.8515  -11.6381   21.0935 N   0  0  0  0  0  0  0  0  0  0  0  0
  -26.4779  -12.6385   20.4510 N   0  0  0  0  0  0  0  0  0  0  0  0
  -24.7995  -29.0046   21.0477 N   0  0  0  0  0  0  0  0  0  0  0  0
  -28.3831  -15.1793   22.5812 N   0  0  0  0  0  0  0  0  0  0  0  0
  -29.5625  -17.2083   23.0704 N   0  0  0  0  0  0  0  0  0  0  0  0
  -26.4539  -13.9058   18.4500 N   0  0  0  0  0  0  0  0  0  0  0  0
  -24.3997  -11.1423   16.8569 N   0  0  0  0  0  0  0  0  0  0  0  0
  -27.6391  -30.9110   20.0315 N   0  0  0  0  0  0  0  0  0  0  0  0
  -21.6488  -29.3825   22.2262 N   0  0  0  0  0  0  0  0  0  0  0  0
  -28.5846  -20.6250   26.6961 N   0  3  0  0  0  0  0  0  0  0  0  0
  -19.2228  -27.0038   20.9918 N   0  3  0  0  0  0  0  0  0  0  0  0
  -22.9891  -12.6692   17.8250 O   0  0  0  0  0  0  0  0  0  0  0  0
  -27.3179  -29.3930   21.7678 O   0  0  0  0  0  0  0  0  0  0  0  0
  -23.6089  -31.0045   20.9087 O   0  0  0  0  0  0  0  0  0  0  0  0
  -21.5194  -27.1000   22.6144 O   0  0  0  0  0  0  0  0  0  0  0  0
  -28.3841  -16.9453   21.1056 O   0  0  0  0  0  0  0  0  0  0  0  0
  -21.3614   -7.1441   21.5357 O   0  0  0  0  0  0  0  0  0  0  0  0
  -27.0307  -23.2594   21.4724 O   0  0  0  0  0  0  0  0  0  1  0  0
  -22.7419   -3.8273   25.7186 F   0  0  0  0  0  0  0  0  0  0  0  0
  -21.6957   -4.4283   21.1415 F   0  0  0  0  0  0  0  0  0  0  0  0
  1  2  1  0  0  0  0
  1  5  2  0  0  0  0
  2  6  2  0  0  0  0
  3  8  2  0  0  0  0
  3 15  1  0  0  0  0
  4  9  1  0  0  0  0
  4 15  2  0  0  0  0
  5 17  1  0  0  0  0
  6 19  1  0  0  0  0
  7 10  2  0  0  0  0
  7 18  1  0  0  0  0
  8 21  1  0  0  0  0
  9 21  2  0  0  0  0
 10 22  1  0  0  0  0
 11 12  2  0  0  0  0
 11 23  1  0  0  0  0
 12 24  1  0  0  0  0
 13 20  1  0  0  0  0
 13 22  2  0  0  0  0
 14 24  2  0  0  0  0
 14 25  1  0  0  0  0
 15 26  1  0  0  0  0
 16 26  1  0  0  0  0
 16 27  2  0  0  0  0
 16 28  1  0  0  0  0
 17 19  2  0  0  0  0
 17 33  1  0  0  0  0
 18 20  2  0  0  0  0
 18 34  1  0  0  0  0
 19 48  1  0  0  0  0
 20 35  1  0  0  0  0
 21 82  1  0  0  0  0
 22 83  1  0  0  0  0
 23 25  2  0  0  0  0
 23 82  1  0  0  0  0
 24 84  1  0  0  0  0
 25 85  1  0  0  0  0
 26 66  2  0  0  0  0
 27 67  1  0  0  0  0
 27 71  1  0  0  0  0
 28 72  1  0  0  0  0
 28 77  2  0  0  0  0
 29 49  1  0  0  0  0
 29 73  1  0  0  0  0
 29 78  2  0  0  0  0
 30 63  1  0  0  0  0
 30 68  1  0  0  0  0
 30 79  2  0  0  0  0
 31 64  1  0  0  0  0
 31 74  1  0  0  0  0
 31 80  2  0  0  0  0
 32 69  1  0  0  0  0
 32 70  1  0  0  0  0
 32 81  2  0  0  0  0
 33 36  1  0  0  0  0
 34 49  1  0  0  0  0
 35 68  1  0  0  0  0
 36 38  1  0  0  0  0
 37 39  1  0  0  0  0
 37 43  1  0  0  0  0
 38 48  1  0  0  0  0
 39 50  1  0  0  0  0
 40 44  1  0  0  0  0
 40 52  1  0  0  0  0
 41 45  1  0  0  0  0
 41 52  1  0  0  0  0
 42 47  1  0  0  0  0
 42 53  1  0  0  0  0
 43 69  1  0  0  0  0
 44 70  1  0  0  0  0
 45 70  1  0  0  0  0
 46 50  1  0  0  0  0
 46 69  1  0  0  0  0
 47 75  1  0  0  0  0
 48 73  1  0  0  0  0
 49 68  1  0  0  0  0
 50 67  1  0  0  0  0
 51 52  1  0  0  0  0
 51 53  1  0  0  0  0
 51 75  1  0  0  0  0
 52 54  1  0  0  0  0
 53 55  1  0  0  0  0
 53 61  1  0  0  0  0
 56 64  1  0  0  0  0
 57 65  1  0  0  0  0
 58 65  1  0  0  0  0
 59 65  1  0  0  0  0
 60 76  1  0  0  0  0
 61 62  1  0  0  0  0
 62 83  1  0  0  0  0
 63 65  1  0  0  0  0
 63 74  1  0  0  0  0
 64 76  1  0  0  0  0
 66 67  1  0  0  0  0
M  CHG  2  75   1  76   1
M  ISO  4  32 100  62 101  70 100  83 101
M  END
> <Batch ID>
0173

> <Smiles>
CNC(C)C(=O)NC(C(=O)N1Cc2cc([101O:1][101CH2:1]CC3(C)CCNC3C3(C)CC[100N:0]([100C:0](=O)N4CCCC(n5nc(-c6ccc(Oc7ccc(F)cc7F)cc6)c(C(N)=O)c5N)C4)CC3)ccc2CC1C(=O)NC1CCCc2ccccc21)C(C)(C)C

> <Shape>
0.235

> <Color>
0.107

> <Negative vol penalty>
0.000

$$$$

  -OEChem-04052322423D

 89 99  0     1  0  0  0  0  0999 V2000
  -23.3002  -34.1541   24.9782 C   0  0  0  0  0  0  0  0  0  0  0  0
  -23.7122  -32.8314   25.1048 C   0  0  0  0  0  0  0  0  0  0  0  0
  -23.1327   -9.7726   19.9341 C   0  0  0  0  0  0  0  0  0  0  0  0
  -23.8774   -9.8155   22.2321 C   0  0  0  0  0  0  0  0  0  0  0  0
  -22.7554  -34.6013   23.7752 C   0  0  0  0  0  0  0  0  0  0  0  0
  -23.5787  -31.9547   24.0287 C   0  0  0  0  0  0  0  0  0  0  0  0
  -27.3578  -27.3787   22.5173 C   0  0  0  0  0  0  0  0  0  0  0  0
  -22.4243   -8.5977   20.1856 C   0  0  0  0  0  0  0  0  0  0  0  0
  -23.1689   -8.6406   22.4836 C   0  0  0  0  0  0  0  0  0  0  0  0
  -27.3088  -26.0053   22.7521 C   0  0  0  0  0  0  0  0  0  0  0  0
  -19.9640   -7.7437   23.0704 C   0  0  0  0  0  0  0  0  0  0  0  0
  -19.2013   -7.6857   24.2368 C   0  0  0  0  0  0  0  0  0  0  0  0
  -26.3294  -25.6739   20.5726 C   0  0  0  0  0  0  0  0  0  0  0  0
  -20.4989   -5.7925   24.9913 C   0  0  0  0  0  0  0  0  0  0  0  0
  -23.8594  -10.3815   20.9573 C   0  0  0  0  0  0  0  0  0  0  0  0
  -24.1216  -12.9155   20.8260 C   0  0  0  0  0  0  0  0  0  0  0  0
  -22.6241  -33.7321   22.6807 C   0  0  0  0  0  0  0  0  0  0  0  0
  -26.8822  -27.9120   21.3108 C   0  0  0  0  0  0  0  0  0  0  0  0
  -23.0304  -32.3903   22.8103 C   0  0  0  0  0  0  0  0  0  0  0  0
  -26.3759  -27.0541   20.3239 C   0  0  0  0  0  0  0  0  0  0  0  0
  -28.2654  -19.7814   23.0240 C   0  0  0  0  0  0  0  0  0  0  0  0
  -29.0977  -19.0132   22.2176 C   0  0  0  0  0  0  0  0  0  0  0  0
  -29.7294  -17.8935   22.7473 C   0  0  0  0  0  0  0  0  0  0  0  0
  -22.4423   -8.0317   21.4604 C   0  0  0  0  0  0  0  0  0  0  0  0
  -26.7918  -25.1530   21.7808 C   0  0  0  0  0  0  0  0  0  0  0  0
  -20.9941   -6.8260   22.8644 C   0  0  0  0  0  0  0  0  0  0  0  0
  -19.4687   -6.7102   25.1973 C   0  0  0  0  0  0  0  0  0  0  0  0
  -21.2616   -5.8504   23.8248 C   0  0  0  0  0  0  0  0  0  0  0  0
  -24.5919  -11.5948   20.6980 C   0  0  0  0  0  0  0  0  0  0  0  0
  -28.0990  -19.3907   24.3429 C   0  0  0  0  0  0  0  0  0  0  0  0
  -29.4977  -17.5874   24.0787 C   0  0  0  0  0  0  0  0  0  0  0  0
  -25.1917  -13.6975   20.4654 C   0  0  0  0  0  0  0  0  0  0  0  0
  -22.8328  -13.3929   21.2343 C   0  0  0  0  0  0  0  0  0  0  0  0
  -24.5678  -29.9392   20.5121 C   0  0  0  0  0  0  0  0  0  0  0  0
  -25.8584  -29.6375   17.5515 C   0  0  0  0  0  0  0  0  0  0  0  0
  -27.6984  -27.7661   15.3700 C   0  0  0  0  0  0  0  0  0  0  0  0
  -30.6390  -14.8912   20.6822 C   0  0  0  0  0  0  0  0  0  0  0  0
  -21.9858  -34.2490   21.4157 C   0  0  0  0  0  0  0  0  0  0  0  0
  -26.9668  -29.3931   21.0622 C   0  0  0  0  0  0  0  0  0  0  0  0
  -25.8712  -27.5745   19.0037 C   0  0  0  0  0  0  0  0  0  0  0  0
  -22.2245  -33.3532   20.2030 C   0  0  0  0  0  0  0  0  0  0  0  0
  -29.5929  -12.4595   18.3012 C   0  0  0  0  0  0  0  0  0  0  0  0
  -26.5854  -20.7054   21.3248 C   0  0  0  0  0  0  0  0  0  0  0  0
  -21.9669  -31.8925   20.5593 C   0  0  0  0  0  0  0  0  0  0  0  0
  -27.7859  -21.3827   25.9578 C   0  0  0  0  0  0  0  0  0  0  0  0
  -27.4613  -20.1432   26.7315 C   0  0  0  0  0  0  0  0  0  0  0  0
  -28.1627  -12.1225   18.7268 C   0  0  0  0  0  0  0  0  0  0  0  0
  -26.4967  -21.9794   20.4761 C   0  0  0  0  0  0  0  0  0  0  0  0
  -28.4508  -22.1087   21.8744 C   0  0  0  0  0  0  0  0  0  0  0  0
  -30.4949  -12.7156   19.5065 C   0  0  0  0  0  0  0  0  0  0  0  0
  -28.5621  -13.3930   20.8774 C   0  0  0  0  0  0  0  0  0  0  0  0
  -27.5648  -21.0061   22.4741 C   0  0  2  0  0  0  0  0  0  0  0  0
  -22.9248  -31.4154   21.6577 C   0  0  1  0  0  0  0  0  0  0  0  0
  -27.2140  -20.1857   25.2481 C   0  0  0  0  0  0  0  0  0  0  0  0
  -25.9806  -29.8787   20.0043 C   0  0  1  0  0  0  0  0  0  0  0  0
  -27.6015  -13.1814   19.6948 C   0  0  2  0  0  0  0  0  0  0  0  0
  -27.4614  -22.9756   21.1078 C   0  0  2  0  0  0  0  0  0  1  0  0
  -29.3123  -19.3890   20.7862 C   0  0  0  0  0  0  0  0  0  0  0  0
  -29.5355  -16.0457   26.0556 C   0  0  0  0  0  0  0  0  0  0  0  0
  -28.5517  -27.7637   13.0101 C   0  0  0  0  0  0  0  0  0  0  0  0
  -23.0703  -28.9117   16.5466 C   0  0  0  0  0  0  0  0  0  0  0  0
  -24.1306  -28.0152   14.4632 C   0  0  0  0  0  0  0  0  0  0  0  0
  -24.3603  -30.4320   15.0369 C   0  0  0  0  0  0  0  0  0  0  0  0
  -30.5181  -27.7043   16.2667 C   0  0  0  0  0  0  0  0  0  0  0  0
  -30.6287  -17.0491   21.9080 C   0  0  0  0  0  0  0  0  0  0  0  0
  -30.1490  -16.3972   24.7037 C   0  0  0  0  0  0  0  0  0  0  0  0
  -25.6390  -28.7126   16.3788 C   0  0  1  0  0  0  0  0  0  0  0  0
  -28.8530  -28.1314   14.4546 C   0  0  2  0  0  0  0  0  0  0  0  0
  -24.3077  -29.0079   15.6319 C   0  0  0  0  0  0  0  0  0  0  0  0
  -25.8618  -11.5371   20.2880 N   0  0  0  0  0  0  0  0  0  0  0  0
  -28.6959  -18.3096   24.8930 N   0  0  0  0  0  0  0  0  0  0  0  0
  -26.1985  -12.8313   20.1552 N   0  0  0  0  0  0  0  0  0  0  0  0
  -25.9693  -29.0307   18.8105 N   0  0  0  0  0  0  0  0  0  0  0  0
  -29.9063  -13.7306   20.3836 N   0  0  0  0  0  0  0  0  0  0  0  0
  -25.3602  -15.0346   20.3866 N   0  0  0  0  0  0  0  0  0  0  0  0
  -21.8481  -12.4537   21.5701 N   0  0  0  0  0  0  0  0  0  0  0  0
  -24.2336  -31.1426   21.1034 N   0  0  0  0  0  0  0  0  0  0  0  0
  -26.8300  -28.8230   15.5434 N   0  0  0  0  0  0  0  0  0  0  0  0
  -30.0054  -15.8049   21.5156 N   0  0  0  0  0  0  0  0  0  0  0  0
  -30.0919  -27.4165   14.8730 N   0  3  0  0  0  0  0  0  0  0  0  0
  -22.5572  -14.6156   21.2836 O   0  0  0  0  0  0  0  0  0  0  0  0
  -23.8347  -28.9667   20.3762 O   0  0  0  0  0  0  0  0  0  0  0  0
  -25.9359  -30.8531   17.3566 O   0  0  0  0  0  0  0  0  0  0  0  0
  -27.5769  -26.6532   15.8772 O   0  0  0  0  0  0  0  0  0  0  0  0
  -31.7717  -15.1004   20.2347 O   0  0  0  0  0  0  0  0  0  0  0  0
  -21.7509   -6.8853   21.7062 O   0  0  0  0  0  0  0  0  0  0  0  0
  -26.7421  -23.8121   22.0077 O   0  0  0  0  0  0  0  0  0  1  0  0
  -18.7372   -6.6556   26.3180 F   0  0  0  0  0  0  0  0  0  0  0  0
  -22.2507   -4.9669   23.6330 F   0  0  0  0  0  0  0  0  0  0  0  0
  1  2  1  0  0  0  0
  1  5  2  0  0  0  0
  2  6  2  0  0  0  0
  3  8  2  0  0  0  0
  3 15  1  0  0  0  0
  4  9  1  0  0  0  0
  4 15  2  0  0  0  0
  5 17  1  0  0  0  0
  6 19  1  0  0  0  0
  7 10  2  0  0  0  0
  7 18  1  0  0  0  0
  8 24  1  0  0  0  0
  9 24  2  0  0  0  0
 10 25  1  0  0  0  0
 11 12  2  0  0  0  0
 11 26  1  0  0  0  0
 12 27  1  0  0  0  0
 13 20  1  0  0  0  0
 13 25  2  0  0  0  0
 14 27  2  0  0  0  0
 14 28  1  0  0  0  0
 15 29  1  0  0  0  0
 16 29  1  0  0  0  0
 16 32  2  0  0  0  0
 16 33  1  0  0  0  0
 17 19  2  0  0  0  0
 17 38  1  0  0  0  0
 18 20  2  0  0  0  0
 18 39  1  0  0  0  0
 19 53  1  0  0  0  0
 20 40  1  0  0  0  0
 21 22  2  0  0  0  0
 21 30  1  0  0  0  0
 21 52  1  0  0  0  0
 22 23  1  0  0  0  0
 22 58  1  0  0  0  0
 23 31  2  0  0  0  0
 23 65  1  0  0  0  0
 24 86  1  0  0  0  0
 25 87  1  0  0  0  0
 26 28  2  0  0  0  0
 26 86  1  0  0  0  0
 27 88  1  0  0  0  0
 28 89  1  0  0  0  0
 29 70  2  0  0  0  0
 30 54  1  0  0  0  0
 30 71  2  0  0  0  0
 31 66  1  0  0  0  0
 31 71  1  0  0  0  0
 32 72  1  0  0  0  0
 32 75  1  0  0  0  0
 33 76  1  0  0  0  0
 33 81  2  0  0  0  0
 34 55  1  0  0  0  0
 34 77  1  0  0  0  0
 34 82  2  0  0  0  0
 35 67  1  0  0  0  0
 35 73  1  0  0  0  0
 35 83  2  0  0  0  0
 36 68  1  0  0  0  0
 36 78  1  0  0  0  0
 36 84  2  0  0  0  0
 37 74  1  0  0  0  0
 37 79  1  0  0  0  0
 37 85  2  0  0  0  0
 38 41  1  0  0  0  0
 39 55  1  0  0  0  0
 40 73  1  0  0  0  0
 41 44  1  0  0  0  0
 42 47  1  0  0  0  0
 42 50  1  0  0  0  0
 43 48  1  0  0  0  0
 43 52  1  0  0  0  0
 44 53  1  0  0  0  0
 45 46  1  0  0  0  0
 45 54  1  0  0  0  0
 46 54  1  0  0  0  0
 47 56  1  0  0  0  0
 48 57  1  0  0  0  0
 49 52  1  0  0  0  0
 49 57  1  0  0  0  0
 50 74  1  0  0  0  0
 51 56  1  0  0  0  0
 51 74  1  0  0  0  0
 53 77  1  0  0  0  0
 55 73  1  0  0  0  0
 56 72  1  0  0  0  0
 57 87  1  0  0  0  0
 59 66  1  0  0  0  0
 60 68  1  0  0  0  0
 61 69  1  0  0  0  0
 62 69  1  0  0  0  0
 63 69  1  0  0  0  0
 64 80  1  0  0  0  0
 65 79  1  0  0  0  0
 67 69  1  0  0  0  0
 67 78  1  0  0  0  0
 68 80  1  0  0  0  0
 70 72  1  0  0  0  0
M  CHG  1  80   1
M  ISO  4  37 100  57 101  79 100  87 101
M  END
> <Batch ID>
0173

> <Smiles>
CCc1nc(C2CC2)c(C2CC[101CH:1]([101O:1]c3ccc4c(c3)CN(C(=O)C(NC(=O)C(C)NC)C(C)(C)C)C(C(=O)NC3CCCc5ccccc53)C4)C2)c(C)c1C[100NH:0][100C:0](=O)N1CCCC(n2nc(-c3ccc(Oc4ccc(F)cc4F)cc3)c(C(N)=O)c2N)C1

> <Shape>
0.265

> <Color>
0.206

> <Negative vol penalty>
0.000

$$$$

  -OEChem-04052322423D

 85 94  0     1  0  0  0  0  0999 V2000
  -18.9145  -29.7488   19.2527 C   0  0  0  0  0  0  0  0  0  0  0  0
  -20.1009  -29.0562   19.0333 C   0  0  0  0  0  0  0  0  0  0  0  0
  -23.0638   -9.8724   19.9169 C   0  0  0  0  0  0  0  0  0  0  0  0
  -23.8903   -9.7835   22.1854 C   0  0  0  0  0  0  0  0  0  0  0  0
  -18.2462  -29.6165   20.4692 C   0  0  0  0  0  0  0  0  0  0  0  0
  -20.6203  -28.2317   20.0307 C   0  0  0  0  0  0  0  0  0  0  0  0
  -24.3307  -22.1641   20.8878 C   0  0  0  0  0  0  0  0  0  0  0  0
  -22.3262   -8.7098   20.1400 C   0  0  0  0  0  0  0  0  0  0  0  0
  -23.1527   -8.6208   22.4085 C   0  0  0  0  0  0  0  0  0  0  0  0
  -25.4592  -21.6754   21.5445 C   0  0  0  0  0  0  0  0  0  0  0  0
  -19.9426   -7.7983   23.0713 C   0  0  0  0  0  0  0  0  0  0  0  0
  -19.2202   -7.7093   24.2611 C   0  0  0  0  0  0  0  0  0  0  0  0
  -24.1770  -21.4620   23.5766 C   0  0  0  0  0  0  0  0  0  0  0  0
  -20.4803   -5.7428   24.8792 C   0  0  0  0  0  0  0  0  0  0  0  0
  -23.8459  -10.4093   20.9396 C   0  0  0  0  0  0  0  0  0  0  0  0
  -24.1870  -12.9373   20.9154 C   0  0  0  0  0  0  0  0  0  0  0  0
  -18.7526  -28.7825   21.4784 C   0  0  0  0  0  0  0  0  0  0  0  0
  -23.1175  -22.3160   21.5746 C   0  0  0  0  0  0  0  0  0  0  0  0
  -19.9588  -28.0891   21.2623 C   0  0  0  0  0  0  0  0  0  0  0  0
  -23.0338  -21.9505   22.9257 C   0  0  0  0  0  0  0  0  0  0  0  0
  -29.7471  -19.3874   24.4064 C   0  0  0  0  0  0  0  0  0  0  0  0
  -28.3850  -19.0852   24.4718 C   0  0  0  0  0  0  0  0  0  0  0  0
  -30.5978  -18.6591   23.5990 C   0  0  0  0  0  0  0  0  0  0  0  0
  -22.3706   -8.0840   21.3858 C   0  0  0  0  0  0  0  0  0  0  0  0
  -25.3833  -21.3270   22.8898 C   0  0  0  0  0  0  0  0  0  0  0  0
  -20.9339   -6.8595   22.7853 C   0  0  0  0  0  0  0  0  0  0  0  0
  -19.4890   -6.6816   25.1651 C   0  0  0  0  0  0  0  0  0  0  0  0
  -21.2028   -5.8318   23.6893 C   0  0  0  0  0  0  0  0  0  0  0  0
  -24.6085  -11.6100   20.7095 C   0  0  0  0  0  0  0  0  0  0  0  0
  -27.9041  -18.0471   23.7043 C   0  0  0  0  0  0  0  0  0  0  0  0
  -30.0188  -17.6388   22.8596 C   0  0  0  0  0  0  0  0  0  0  0  0
  -25.2689  -13.7014   20.5520 C   0  0  0  0  0  0  0  0  0  0  0  0
  -22.9299  -13.4350   21.3925 C   0  0  0  0  0  0  0  0  0  0  0  0
  -21.2361  -24.7769   22.2872 C   0  0  0  0  0  0  0  0  0  0  0  0
  -19.2725  -22.4501   23.4064 C   0  0  0  0  0  0  0  0  0  0  0  0
  -18.9367  -19.2780   24.6195 C   0  0  0  0  0  0  0  0  0  0  0  0
  -30.7570  -14.7120   20.6224 C   0  0  0  0  0  0  0  0  0  0  0  0
  -18.0197  -28.7082   22.7945 C   0  0  0  0  0  0  0  0  0  0  0  0
  -21.9023  -22.8194   20.8450 C   0  0  0  0  0  0  0  0  0  0  0  0
  -30.0941  -20.5101   25.3310 C   0  0  0  0  0  0  0  0  0  0  0  0
  -21.7498  -22.0754   23.7029 C   0  0  0  0  0  0  0  0  0  0  0  0
  -18.4399  -27.5227   23.6596 C   0  0  0  0  0  0  0  0  0  0  0  0
  -28.7088  -21.1330   25.5703 C   0  0  0  0  0  0  0  0  0  0  0  0
  -29.5474  -12.4294   18.1722 C   0  0  0  0  0  0  0  0  0  0  0  0
  -19.9604  -27.4102   23.7087 C   0  0  0  0  0  0  0  0  0  0  0  0
  -28.1229  -12.1178   18.6343 C   0  0  0  0  0  0  0  0  0  0  0  0
  -30.4995  -12.5999   19.3540 C   0  0  0  0  0  0  0  0  0  0  0  0
  -28.6399  -13.2721   20.8250 C   0  0  0  0  0  0  0  0  0  0  0  0
  -20.5409  -27.1658   22.3105 C   0  0  1  0  0  0  0  0  0  0  0  0
  -20.8518  -23.4174   21.7755 C   0  0  1  0  0  0  0  0  0  0  0  0
  -27.6315  -13.1469   19.6700 C   0  0  2  0  0  0  0  0  0  0  0  0
  -27.6693  -19.9860   25.4433 C   0  0  2  0  0  0  0  0  0  0  0  0
  -32.0526  -18.9617   23.5298 C   0  0  0  0  0  0  0  0  0  0  0  0
  -26.4616  -17.6778   23.6895 C   0  0  0  0  0  0  0  0  0  0  0  0
  -27.4622  -19.2724   26.7855 C   0  0  0  0  0  0  0  0  0  0  0  0
  -17.2132  -17.6715   25.4834 C   0  0  0  0  0  0  0  0  0  0  0  0
  -19.1865  -23.9687   26.0515 C   0  0  0  0  0  0  0  0  0  0  0  0
  -18.2754  -21.9006   27.1291 C   0  0  0  0  0  0  0  0  0  0  0  0
  -16.9883  -23.0303   25.3153 C   0  0  0  0  0  0  0  0  0  0  0  0
  -19.4937  -17.3364   22.4563 C   0  0  0  0  0  0  0  0  0  0  0  0
  -30.8614  -16.8089   21.9457 C   0  0  0  0  0  0  0  0  0  0  0  0
  -26.3344  -20.5128   24.9118 C   0  0  0  0  0  0  0  0  0  1  0  0
  -19.0898  -21.7515   24.7321 C   0  0  1  0  0  0  0  0  0  0  0  0
  -17.9755  -18.1590   24.2611 C   0  0  2  0  0  0  0  0  0  0  0  0
  -18.4099  -22.6621   25.7931 C   0  0  0  0  0  0  0  0  0  0  0  0
  -25.8605  -11.5318   20.2508 N   0  0  0  0  0  0  0  0  0  0  0  0
  -28.6984  -17.3148   22.8895 N   0  0  0  0  0  0  0  0  0  0  0  0
  -26.2350  -12.8197   20.1653 N   0  0  0  0  0  0  0  0  0  0  0  0
  -20.5909  -22.5784   22.9469 N   0  0  0  0  0  0  0  0  0  0  0  0
  -29.9762  -13.5904   20.2979 N   0  0  0  0  0  0  0  0  0  0  0  0
  -25.4786  -15.0347   20.5286 N   0  0  0  0  0  0  0  0  0  0  0  0
  -21.9272  -12.5124   21.7208 N   0  0  0  0  0  0  0  0  0  0  0  0
  -20.3615  -25.7829   21.9234 N   0  0  0  0  0  0  0  0  0  0  0  0
  -18.3620  -20.5195   24.4474 N   0  0  0  0  0  0  0  0  0  0  0  0
  -30.1838  -15.6047   21.5197 N   0  0  0  0  0  0  0  0  0  0  0  0
  -18.7176  -17.0051   23.6790 N   0  3  0  0  0  0  0  0  0  0  0  0
  -22.6968  -14.6621   21.5081 O   0  0  0  0  0  0  0  0  0  0  0  0
  -22.2502  -24.9035   22.9634 O   0  0  0  0  0  0  0  0  0  0  0  0
  -18.2813  -22.8603   22.7974 O   0  0  0  0  0  0  0  0  0  0  0  0
  -20.0814  -19.0712   25.0161 O   0  0  0  0  0  0  0  0  0  0  0  0
  -31.8794  -14.9064   20.1435 O   0  0  0  0  0  0  0  0  0  0  0  0
  -21.6508   -6.9496   21.6040 O   0  0  0  0  0  0  0  0  0  0  0  0
  -26.4835  -20.8504   23.5333 O   0  0  0  0  0  0  0  0  0  1  0  0
  -18.7962   -6.5972   26.3084 F   0  0  0  0  0  0  0  0  0  0  0  0
  -22.1547   -4.9276   23.4207 F   0  0  0  0  0  0  0  0  0  0  0  0
  1  2  1  0  0  0  0
  1  5  2  0  0  0  0
  2  6  2  0  0  0  0
  3  8  2  0  0  0  0
  3 15  1  0  0  0  0
  4  9  1  0  0  0  0
  4 15  2  0  0  0  0
  5 17  1  0  0  0  0
  6 19  1  0  0  0  0
  7 10  2  0  0  0  0
  7 18  1  0  0  0  0
  8 24  1  0  0  0  0
  9 24  2  0  0  0  0
 10 25  1  0  0  0  0
 11 12  2  0  0  0  0
 11 26  1  0  0  0  0
 12 27  1  0  0  0  0
 13 20  1  0  0  0  0
 13 25  2  0  0  0  0
 14 27  2  0  0  0  0
 14 28  1  0  0  0  0
 15 29  1  0  0  0  0
 16 29  1  0  0  0  0
 16 32  2  0  0  0  0
 16 33  1  0  0  0  0
 17 19  2  0  0  0  0
 17 38  1  0  0  0  0
 18 20  2  0  0  0  0
 18 39  1  0  0  0  0
 19 49  1  0  0  0  0
 20 41  1  0  0  0  0
 21 22  2  0  0  0  0
 21 23  1  0  0  0  0
 21 40  1  0  0  0  0
 22 30  1  0  0  0  0
 22 52  1  0  0  0  0
 23 31  2  0  0  0  0
 23 53  1  0  0  0  0
 24 82  1  0  0  0  0
 25 83  1  0  0  0  0
 26 28  2  0  0  0  0
 26 82  1  0  0  0  0
 27 84  1  0  0  0  0
 28 85  1  0  0  0  0
 29 66  2  0  0  0  0
 30 54  1  0  0  0  0
 30 67  2  0  0  0  0
 31 61  1  0  0  0  0
 31 67  1  0  0  0  0
 32 68  1  0  0  0  0
 32 71  1  0  0  0  0
 33 72  1  0  0  0  0
 33 77  2  0  0  0  0
 34 50  1  0  0  0  0
 34 73  1  0  0  0  0
 34 78  2  0  0  0  0
 35 63  1  0  0  0  0
 35 69  1  0  0  0  0
 35 79  2  0  0  0  0
 36 64  1  0  0  0  0
 36 74  1  0  0  0  0
 36 80  2  0  0  0  0
 37 70  1  0  0  0  0
 37 75  1  0  0  0  0
 37 81  2  0  0  0  0
 38 42  1  0  0  0  0
 39 50  1  0  0  0  0
 40 43  1  0  0  0  0
 41 69  1  0  0  0  0
 42 45  1  0  0  0  0
 43 52  1  0  0  0  0
 44 46  1  0  0  0  0
 44 47  1  0  0  0  0
 45 49  1  0  0  0  0
 46 51  1  0  0  0  0
 47 70  1  0  0  0  0
 48 51  1  0  0  0  0
 48 70  1  0  0  0  0
 49 73  1  0  0  0  0
 50 69  1  0  0  0  0
 51 68  1  0  0  0  0
 52 55  1  0  0  0  0
 52 62  1  0  0  0  0
 56 64  1  0  0  0  0
 57 65  1  0  0  0  0
 58 65  1  0  0  0  0
 59 65  1  0  0  0  0
 60 76  1  0  0  0  0
 61 75  1  0  0  0  0
 62 83  1  0  0  0  0
 63 65  1  0  0  0  0
 63 74  1  0  0  0  0
 64 76  1  0  0  0  0
 66 68  1  0  0  0  0
M  CHG  1  76   1
M  ISO  4  37 100  62 101  75 100  83 101
M  END
> <Batch ID>
0173

> <Smiles>
CNC(C)C(=O)NC(C(=O)N1Cc2cc([101O:1][101CH2:1]C3(C)CCc4c(C)c(C[100NH:0][100C:0](=O)N5CCCC(n6nc(-c7ccc(Oc8ccc(F)cc8F)cc7)c(C(N)=O)c6N)C5)nc(C)c43)ccc2CC1C(=O)NC1CCCc2ccccc21)C(C)(C)C

> <Shape>
0.212

> <Color>
0.213

> <Negative vol penalty>
0.000

$$$$

  -OEChem-04052322423D

 94105  0     1  0  0  0  0  0999 V2000
  -16.4466  -26.7789   23.5975 C   0  0  0  0  0  0  0  0  0  0  0  0
  -17.5301  -26.5579   22.7533 C   0  0  0  0  0  0  0  0  0  0  0  0
  -22.9550   -9.9076   22.0296 C   0  0  0  0  0  0  0  0  0  0  0  0
  -24.0464   -9.1613   20.0074 C   0  0  0  0  0  0  0  0  0  0  0  0
  -16.1751  -28.0662   24.0590 C   0  0  0  0  0  0  0  0  0  0  0  0
  -18.3422  -27.6244   22.3694 C   0  0  0  0  0  0  0  0  0  0  0  0
  -23.2741  -26.5090   22.6474 C   0  0  0  0  0  0  0  0  0  0  0  0
  -22.2860   -8.6869   22.1190 C   0  0  0  0  0  0  0  0  0  0  0  0
  -23.3774   -7.9406   20.0969 C   0  0  0  0  0  0  0  0  0  0  0  0
  -23.8117  -25.7383   21.6175 C   0  0  0  0  0  0  0  0  0  0  0  0
  -22.9802   -5.5334   23.1222 C   0  0  0  0  0  0  0  0  0  0  0  0
  -22.9336   -4.9096   24.3689 C   0  0  0  0  0  0  0  0  0  0  0  0
  -24.6991  -27.7347   20.5948 C   0  0  0  0  0  0  0  0  0  0  0  0
  -20.5199   -5.0057   24.3267 C   0  0  0  0  0  0  0  0  0  0  0  0
  -23.8352  -10.1448   20.9737 C   0  0  0  0  0  0  0  0  0  0  0  0
  -25.7781  -11.7321   21.4355 C   0  0  0  0  0  0  0  0  0  0  0  0
  -16.9901  -29.1475   23.6883 C   0  0  0  0  0  0  0  0  0  0  0  0
  -23.4360  -27.9019   22.6531 C   0  0  0  0  0  0  0  0  0  0  0  0
  -18.0806  -28.9276   22.8253 C   0  0  0  0  0  0  0  0  0  0  0  0
  -24.1649  -28.5206   21.6273 C   0  0  0  0  0  0  0  0  0  0  0  0
  -29.4653  -18.1433   19.0807 C   0  0  0  0  0  0  0  0  0  0  0  0
  -29.4026  -20.4303   19.8349 C   0  0  0  0  0  0  0  0  0  0  0  0
  -29.8135  -19.1131   20.0159 C   0  0  0  0  0  0  0  0  0  0  0  0
  -22.4972   -7.7034   21.1527 C   0  0  0  0  0  0  0  0  0  0  0  0
  -24.5218  -26.3514   20.5894 C   0  0  0  0  0  0  0  0  0  0  0  0
  -21.7967   -5.8935   22.4778 C   0  0  0  0  0  0  0  0  0  0  0  0
  -21.7034   -4.6457   24.9711 C   0  0  0  0  0  0  0  0  0  0  0  0
  -20.5665   -5.6296   23.0800 C   0  0  0  0  0  0  0  0  0  0  0  0
  -24.5262  -11.4057   20.8805 C   0  0  0  0  0  0  0  0  0  0  0  0
  -28.7091  -18.5181   17.9792 C   0  0  0  0  0  0  0  0  0  0  0  0
  -28.6481  -20.7472   18.7143 C   0  0  0  0  0  0  0  0  0  0  0  0
  -25.9877  -13.0381   21.0656 C   0  0  0  0  0  0  0  0  0  0  0  0
  -26.6717  -10.9267   22.2155 C   0  0  0  0  0  0  0  0  0  0  0  0
  -21.4615  -30.3901   22.5355 C   0  0  0  0  0  0  0  0  0  0  0  0
  -24.1865  -32.0798   23.0274 C   0  0  0  0  0  0  0  0  0  0  0  0
  -27.5868  -32.2304   22.7787 C   0  0  0  0  0  0  0  0  0  0  0  0
  -25.8680  -17.0886   17.2283 C   0  0  0  0  0  0  0  0  0  0  0  0
  -16.6291  -30.5287   24.1745 C   0  0  0  0  0  0  0  0  0  0  0  0
  -22.8729  -28.7163   23.7854 C   0  0  0  0  0  0  0  0  0  0  0  0
  -24.3843  -30.0104   21.5978 C   0  0  0  0  0  0  0  0  0  0  0  0
  -17.7596  -31.5430   24.0217 C   0  0  0  0  0  0  0  0  0  0  0  0
  -22.8472  -16.4161   18.9888 C   0  0  0  0  0  0  0  0  0  0  0  0
  -31.3584  -16.4180   19.4172 C   0  0  0  0  0  0  0  0  0  0  0  0
  -30.6636  -16.0548   18.1422 C   0  0  0  0  0  0  0  0  0  0  0  0
  -18.3845  -31.4410   22.6339 C   0  0  0  0  0  0  0  0  0  0  0  0
  -23.1159  -15.0772   19.6781 C   0  0  0  0  0  0  0  0  0  0  0  0
  -33.4068  -20.9208   25.5632 C   0  0  0  0  0  0  0  0  0  0  0  0
  -33.7249  -19.4540   25.4952 C   0  0  0  0  0  0  0  0  0  0  0  0
  -23.4969  -16.4805   17.6082 C   0  0  0  0  0  0  0  0  0  0  0  0
  -25.2089  -14.8389   18.2776 C   0  0  0  0  0  0  0  0  0  0  0  0
  -31.8482  -19.2868   21.4873 C   0  0  0  0  0  0  0  0  0  0  0  0
  -30.1046  -18.6318   22.4692 C   0  0  0  0  0  0  0  0  0  0  0  0
  -29.8942  -16.7219   19.2501 C   0  0  0  0  0  0  0  0  0  0  0  0
  -18.9994  -30.0548   22.4064 C   0  0  1  0  0  0  0  0  0  0  0  0
  -22.6590  -30.1816   23.4188 C   0  0  1  0  0  0  0  0  0  0  0  0
  -24.6207  -14.7478   19.6961 C   0  0  2  0  0  0  0  0  0  0  0  0
  -33.1553  -20.1557   24.2954 C   0  0  0  0  0  0  0  0  0  0  0  0
  -31.5597  -18.8156   22.9181 C   0  0  0  0  0  0  0  0  0  0  0  0
  -29.7616  -21.4911   20.8236 C   0  0  0  0  0  0  0  0  0  0  0  0
  -29.5292  -33.7547   23.2272 C   0  0  0  0  0  0  0  0  0  0  0  0
  -23.4686  -33.7178   20.5552 C   0  0  0  0  0  0  0  0  0  0  0  0
  -25.8318  -34.5427   20.5013 C   0  0  0  0  0  0  0  0  0  0  0  0
  -24.3788  -35.0535   22.4636 C   0  0  0  0  0  0  0  0  0  0  0  0
  -28.7956  -30.3188   24.6876 C   0  0  0  0  0  0  0  0  0  0  0  0
  -28.2856  -17.5597   16.9242 C   0  0  0  0  0  0  0  0  0  0  0  0
  -28.1564  -22.1366   18.4280 C   0  0  0  0  0  0  0  0  0  0  0  0
  -26.5776  -23.8555   18.9877 C   0  0  0  0  0  0  0  0  0  0  0  0
  -25.4326  -24.2650   19.9012 C   0  0  0  0  0  0  0  0  0  1  0  0
  -25.2367  -32.6979   22.1363 C   0  0  1  0  0  0  0  0  0  0  0  0
  -28.6527  -32.6409   23.7786 C   0  0  2  0  0  0  0  0  0  0  0  0
  -24.7234  -33.9751   21.4133 C   0  0  0  0  0  0  0  0  0  0  0  0
  -23.9788  -12.4225   20.2093 N   0  0  0  0  0  0  0  0  0  0  0  0
  -24.8911  -13.4006   20.3401 N   0  0  0  0  0  0  0  0  0  0  0  0
  -28.3269  -19.7936   17.8294 N   0  3  0  0  0  0  0  0  0  0  0  0
  -30.5835  -18.7620   21.1489 N   0  0  0  0  0  0  0  0  0  0  0  0
  -23.8088  -30.7641   22.7239 N   0  0  0  0  0  0  0  0  0  0  0  0
  -24.9235  -16.1596   17.6952 N   0  0  0  0  0  0  0  0  0  0  0  0
  -27.0011  -13.9004   21.2934 N   0  0  0  0  0  0  0  0  0  0  0  0
  -26.3016   -9.6061   22.5041 N   0  0  0  0  0  0  0  0  0  0  0  0
  -20.2730  -29.9492   23.0856 N   0  0  0  0  0  0  0  0  0  0  0  0
  -26.4081  -32.9175   22.9778 N   0  0  0  0  0  0  0  0  0  0  0  0
  -27.1986  -16.7084   17.3537 N   0  0  0  0  0  0  0  0  0  0  0  0
  -27.0295  -22.5016   19.2759 N   0  0  0  0  0  0  0  0  0  0  0  0
  -31.7353  -19.8646   23.9292 N   0  3  0  0  0  0  0  0  0  0  0  0
  -29.5241  -31.4791   24.1132 N   0  3  0  0  0  0  0  0  0  0  0  0
  -27.7585  -11.3703   22.6579 O   0  0  0  0  0  0  0  0  0  0  0  0
  -21.6049  -30.9137   21.4369 O   0  0  0  0  0  0  0  0  0  0  0  0
  -23.7236  -32.7375   23.9627 O   0  0  0  0  0  0  0  0  0  0  0  0
  -27.7816  -31.3873   21.9059 O   0  0  0  0  0  0  0  0  0  0  0  0
  -25.5493  -18.1785   16.7410 O   0  0  0  0  0  0  0  0  0  0  0  0
  -21.8447   -6.5121   21.2398 O   0  0  0  0  0  0  0  0  0  0  0  0
  -25.0470  -25.6015   19.5826 O   0  0  0  0  0  0  0  0  0  1  0  0
  -21.6588   -4.0452   26.1676 F   0  0  0  0  0  0  0  0  0  0  0  0
  -19.4261   -5.9721   22.4652 F   0  0  0  0  0  0  0  0  0  0  0  0
  1  2  1  0  0  0  0
  1  5  2  0  0  0  0
  2  6  2  0  0  0  0
  3  8  2  0  0  0  0
  3 15  1  0  0  0  0
  4  9  1  0  0  0  0
  4 15  2  0  0  0  0
  5 17  1  0  0  0  0
  6 19  1  0  0  0  0
  7 10  2  0  0  0  0
  7 18  1  0  0  0  0
  8 24  1  0  0  0  0
  9 24  2  0  0  0  0
 10 25  1  0  0  0  0
 11 12  2  0  0  0  0
 11 26  1  0  0  0  0
 12 27  1  0  0  0  0
 13 20  1  0  0  0  0
 13 25  2  0  0  0  0
 14 27  2  0  0  0  0
 14 28  1  0  0  0  0
 15 29  1  0  0  0  0
 16 29  1  0  0  0  0
 16 32  2  0  0  0  0
 16 33  1  0  0  0  0
 17 19  2  0  0  0  0
 17 38  1  0  0  0  0
 18 20  2  0  0  0  0
 18 39  1  0  0  0  0
 19 54  1  0  0  0  0
 20 40  1  0  0  0  0
 21 23  2  0  0  0  0
 21 30  1  0  0  0  0
 21 53  1  0  0  0  0
 22 23  1  0  0  0  0
 22 31  2  0  0  0  0
 22 59  1  0  0  0  0
 23 75  1  0  0  0  0
 24 91  1  0  0  0  0
 25 92  1  0  0  0  0
 26 28  2  0  0  0  0
 26 91  1  0  0  0  0
 27 93  1  0  0  0  0
 28 94  1  0  0  0  0
 29 72  2  0  0  0  0
 30 65  1  0  0  0  0
 30 74  2  0  0  0  0
 31 66  1  0  0  0  0
 31 74  1  0  0  0  0
 32 73  1  0  0  0  0
 32 78  1  0  0  0  0
 33 79  1  0  0  0  0
 33 86  2  0  0  0  0
 34 55  1  0  0  0  0
 34 80  1  0  0  0  0
 34 87  2  0  0  0  0
 35 69  1  0  0  0  0
 35 76  1  0  0  0  0
 35 88  2  0  0  0  0
 36 70  1  0  0  0  0
 36 81  1  0  0  0  0
 36 89  2  0  0  0  0
 37 77  1  0  0  0  0
 37 82  1  0  0  0  0
 37 90  2  0  0  0  0
 38 41  1  0  0  0  0
 39 55  1  0  0  0  0
 40 76  1  0  0  0  0
 41 45  1  0  0  0  0
 42 46  1  0  0  0  0
 42 49  1  0  0  0  0
 43 44  1  0  0  0  0
 43 53  1  0  0  0  0
 44 53  1  0  0  0  0
 45 54  1  0  0  0  0
 46 56  1  0  0  0  0
 47 48  1  0  0  0  0
 47 57  1  0  0  0  0
 48 57  1  0  0  0  0
 49 77  1  0  0  0  0
 50 56  1  0  0  0  0
 50 77  1  0  0  0  0
 51 58  1  0  0  0  0
 51 75  1  0  0  0  0
 52 58  1  0  0  0  0
 52 75  1  0  0  0  0
 54 80  1  0  0  0  0
 55 76  1  0  0  0  0
 56 73  1  0  0  0  0
 57 84  1  0  0  0  0
 58 84  1  0  0  0  0
 60 70  1  0  0  0  0
 61 71  1  0  0  0  0
 62 71  1  0  0  0  0
 63 71  1  0  0  0  0
 64 85  1  0  0  0  0
 65 82  1  0  0  0  0
 66 83  1  0  0  0  0
 67 68  1  0  0  0  0
 67 83  1  0  0  0  0
 68 92  1  0  0  0  0
 69 71  1  0  0  0  0
 69 81  1  0  0  0  0
 70 85  1  0  0  0  0
 72 73  1  0  0  0  0
M  CHG  3  74   1  84   1  85   1
M  ISO  4  37 100  68 101  82 100  92 101
M  END
> <Batch ID>
0173

> <Smiles>
CNC(C)C(=O)NC(C(=O)N1Cc2cc([101O:1][101CH2:1]CNCc3nc(C[100NH:0][100C:0](=O)N4CCCC(n5nc(-c6ccc(Oc7ccc(F)cc7F)cc6)c(C(N)=O)c5N)C4)c(C4CC4)c(N4CC(NC5CC5)C4)c3C)ccc2CC1C(=O)NC1CCCc2ccccc21)C(C)(C)C

> <Shape>
0.280

> <Color>
0.089

> <Negative vol penalty>
0.000

$$$$

  -OEChem-04052322423D

 84 93  0     1  0  0  0  0  0999 V2000
  -27.3647  -35.0321   23.3291 C   0  0  0  0  0  0  0  0  0  0  0  0
  -27.6788  -33.7067   23.0458 C   0  0  0  0  0  0  0  0  0  0  0  0
  -25.7041  -10.1666   22.2378 C   0  0  0  0  0  0  0  0  0  0  0  0
  -25.2616  -12.0093   23.7364 C   0  0  0  0  0  0  0  0  0  0  0  0
  -26.1186  -35.3526   23.8660 C   0  0  0  0  0  0  0  0  0  0  0  0
  -26.7471  -32.7009   23.3004 C   0  0  0  0  0  0  0  0  0  0  0  0
  -26.3762  -29.3865   19.4896 C   0  0  0  0  0  0  0  0  0  0  0  0
  -25.8001   -9.3025   23.3285 C   0  0  0  0  0  0  0  0  0  0  0  0
  -25.3574  -11.1452   24.8272 C   0  0  0  0  0  0  0  0  0  0  0  0
  -27.3778  -28.4223   19.3846 C   0  0  0  0  0  0  0  0  0  0  0  0
  -23.6905   -7.6843   25.4175 C   0  0  0  0  0  0  0  0  0  0  0  0
  -23.0368   -6.4552   25.3303 C   0  0  0  0  0  0  0  0  0  0  0  0
  -25.9269  -26.8092   20.4392 C   0  0  0  0  0  0  0  0  0  0  0  0
  -31.3068  -23.4772   20.5346 C   0  0  0  0  0  0  0  0  0  0  0  0
  -25.1474   -5.3130   25.6093 C   0  0  0  0  0  0  0  0  0  0  0  0
  -25.4349  -11.5200   22.4417 C   0  0  0  0  0  0  0  0  0  0  0  0
  -24.1777  -12.7317   20.5820 C   0  0  0  0  0  0  0  0  0  0  0  0
  -25.1676  -34.3513   24.1183 C   0  0  0  0  0  0  0  0  0  0  0  0
  -25.1443  -29.0717   20.0811 C   0  0  0  0  0  0  0  0  0  0  0  0
  -25.4876  -33.0082   23.8425 C   0  0  0  0  0  0  0  0  0  0  0  0
  -24.9105  -27.7705   20.5482 C   0  0  0  0  0  0  0  0  0  0  0  0
  -31.1532  -22.3325   19.7605 C   0  0  0  0  0  0  0  0  0  0  0  0
  -30.2286  -24.3359   20.7177 C   0  0  0  0  0  0  0  0  0  0  0  0
  -25.6267   -9.7918   24.6232 C   0  0  0  0  0  0  0  0  0  0  0  0
  -27.1542  -27.1342   19.8621 C   0  0  0  0  0  0  0  0  0  0  0  0
  -25.0726   -7.7278   25.6006 C   0  0  0  0  0  0  0  0  0  0  0  0
  -23.7653   -5.2696   25.4262 C   0  0  0  0  0  0  0  0  0  0  0  0
  -25.8011   -6.5421   25.6965 C   0  0  0  0  0  0  0  0  0  0  0  0
  -25.3363  -12.4132   21.3154 C   0  0  0  0  0  0  0  0  0  0  0  0
  -29.9108  -22.0936   19.1956 C   0  0  0  0  0  0  0  0  0  0  0  0
  -29.0277  -24.0073   20.1098 C   0  0  0  0  0  0  0  0  0  0  0  0
  -24.6100  -13.6159   19.6239 C   0  0  0  0  0  0  0  0  0  0  0  0
  -22.8310  -12.2698   20.7516 C   0  0  0  0  0  0  0  0  0  0  0  0
  -23.5514  -30.1037   22.6309 C   0  0  0  0  0  0  0  0  0  0  0  0
  -21.2210  -28.1657   21.4753 C   0  0  0  0  0  0  0  0  0  0  0  0
  -20.3820  -25.4607   19.5711 C   0  0  0  0  0  0  0  0  0  0  0  0
  -27.4599  -18.1157   18.3003 C   0  0  0  0  0  0  0  0  0  0  0  0
  -23.8516  -34.7410   24.7434 C   0  0  0  0  0  0  0  0  0  0  0  0
  -24.0647  -30.1159   20.1626 C   0  0  0  0  0  0  0  0  0  0  0  0
  -23.5981  -27.3762   21.1731 C   0  0  0  0  0  0  0  0  0  0  0  0
  -22.7811  -33.6582   24.6342 C   0  0  0  0  0  0  0  0  0  0  0  0
  -29.2536  -14.9262   18.1823 C   0  0  0  0  0  0  0  0  0  0  0  0
  -23.3546  -32.2993   25.0231 C   0  0  0  0  0  0  0  0  0  0  0  0
  -28.3186  -14.0318   18.9896 C   0  0  0  0  0  0  0  0  0  0  0  0
  -29.2636  -16.3681   18.6907 C   0  0  0  0  0  0  0  0  0  0  0  0
  -29.5911  -19.4281   18.9453 C   0  0  0  0  0  0  0  0  0  0  0  0
  -26.9701  -16.0694   19.5998 C   0  0  0  0  0  0  0  0  0  0  0  0
  -24.4944  -31.8917   24.0816 C   0  0  1  0  0  0  0  0  0  0  0  0
  -29.5842  -20.8288   18.2917 C   0  0  1  0  0  0  0  0  0  0  0  0
  -23.0331  -29.8252   21.2483 C   0  0  1  0  0  0  0  0  0  0  0  0
  -26.9090  -14.6394   19.0454 C   0  0  2  0  0  0  0  0  0  0  0  0
  -28.1119  -20.5477   17.8926 C   0  0  1  0  0  0  0  0  0  0  0  0
  -32.2972  -21.4031   19.5533 C   0  0  0  0  0  0  0  0  0  0  0  0
  -30.3865  -25.5633   21.5471 C   0  0  0  0  0  0  0  0  0  0  0  0
  -27.7529  -20.7840   16.4394 C   0  0  0  0  0  0  0  0  0  0  0  0
  -18.4025  -24.0979   18.8487 C   0  0  0  0  0  0  0  0  0  0  0  0
  -21.1319  -26.8428   24.2234 C   0  0  0  0  0  0  0  0  0  0  0  0
  -19.8788  -24.9381   23.1888 C   0  0  0  0  0  0  0  0  0  0  0  0
  -18.8928  -27.2295   23.1787 C   0  0  0  0  0  0  0  0  0  0  0  0
  -20.8445  -26.0892   16.7163 C   0  0  0  0  0  0  0  0  0  0  0  0
  -27.8352  -24.8925   20.2704 C   0  0  0  0  0  0  0  0  0  1  0  0
  -20.8477  -26.7147   21.6604 C   0  0  1  0  0  0  0  0  0  0  0  0
  -19.3131  -25.2679   18.5105 C   0  0  2  0  0  0  0  0  0  0  0  0
  -20.2133  -26.4389   23.0528 C   0  0  0  0  0  0  0  0  0  0  0  0
  -26.4231  -13.0436   20.8621 N   0  0  0  0  0  0  0  0  0  0  0  0
  -28.8402  -22.9043   19.3509 N   0  0  0  0  0  0  0  0  0  0  0  0
  -25.9492  -13.7670   19.8334 N   0  0  0  0  0  0  0  0  0  0  0  0
  -22.5761  -28.4341   21.2358 N   0  0  0  0  0  0  0  0  0  0  0  0
  -27.9077  -16.9062   18.8442 N   0  0  0  0  0  0  0  0  0  0  0  0
  -28.3882  -19.1338   18.1704 N   0  0  0  0  0  0  0  0  0  0  0  0
  -23.9715  -14.2709   18.6311 N   0  0  0  0  0  0  0  0  0  0  0  0
  -22.5609  -11.3630   21.7856 N   0  0  0  0  0  0  0  0  0  0  0  0
  -23.9635  -31.4082   22.8250 N   0  0  0  0  0  0  0  0  0  0  0  0
  -19.9892  -26.3670   20.5332 N   0  0  0  0  0  0  0  0  0  0  0  0
  -19.9406  -25.0070   17.1842 N   0  3  0  0  0  0  0  0  0  0  0  0
  -21.8979  -12.6372   19.9979 O   0  0  0  0  0  0  0  0  0  0  0  0
  -23.5743  -29.2021   23.4605 O   0  0  0  0  0  0  0  0  0  0  0  0
  -20.3414  -29.0285   21.5337 O   0  0  0  0  0  0  0  0  0  0  0  0
  -21.4562  -24.8639   19.5504 O   0  0  0  0  0  0  0  0  0  0  0  0
  -26.2807  -18.2928   17.9710 O   0  0  0  0  0  0  0  0  0  0  0  0
  -25.7200   -8.9489   25.6878 O   0  0  0  0  0  0  0  0  0  0  0  0
  -28.1373  -26.1846   19.7607 O   0  0  0  0  0  0  0  0  0  1  0  0
  -23.1373   -4.0893   25.3440 F   0  0  0  0  0  0  0  0  0  0  0  0
  -27.1289   -6.5776   25.8736 F   0  0  0  0  0  0  0  0  0  0  0  0
  1  2  1  0  0  0  0
  1  5  2  0  0  0  0
  2  6  2  0  0  0  0
  3  8  2  0  0  0  0
  3 16  1  0  0  0  0
  4  9  1  0  0  0  0
  4 16  2  0  0  0  0
  5 18  1  0  0  0  0
  6 20  1  0  0  0  0
  7 10  2  0  0  0  0
  7 19  1  0  0  0  0
  8 24  1  0  0  0  0
  9 24  2  0  0  0  0
 10 25  1  0  0  0  0
 11 12  2  0  0  0  0
 11 26  1  0  0  0  0
 12 27  1  0  0  0  0
 13 21  1  0  0  0  0
 13 25  2  0  0  0  0
 14 22  2  0  0  0  0
 14 23  1  0  0  0  0
 15 27  2  0  0  0  0
 15 28  1  0  0  0  0
 16 29  1  0  0  0  0
 17 29  1  0  0  0  0
 17 32  2  0  0  0  0
 17 33  1  0  0  0  0
 18 20  2  0  0  0  0
 18 38  1  0  0  0  0
 19 21  2  0  0  0  0
 19 39  1  0  0  0  0
 20 48  1  0  0  0  0
 21 40  1  0  0  0  0
 22 30  1  0  0  0  0
 22 53  1  0  0  0  0
 23 31  2  0  0  0  0
 23 54  1  0  0  0  0
 24 81  1  0  0  0  0
 25 82  1  0  0  0  0
 26 28  2  0  0  0  0
 26 81  1  0  0  0  0
 27 83  1  0  0  0  0
 28 84  1  0  0  0  0
 29 65  2  0  0  0  0
 30 49  1  0  0  0  0
 30 66  2  0  0  0  0
 31 61  1  0  0  0  0
 31 66  1  0  0  0  0
 32 67  1  0  0  0  0
 32 71  1  0  0  0  0
 33 72  1  0  0  0  0
 33 76  2  0  0  0  0
 34 50  1  0  0  0  0
 34 73  1  0  0  0  0
 34 77  2  0  0  0  0
 35 62  1  0  0  0  0
 35 68  1  0  0  0  0
 35 78  2  0  0  0  0
 36 63  1  0  0  0  0
 36 74  1  0  0  0  0
 36 79  2  0  0  0  0
 37 69  1  0  0  0  0
 37 70  1  0  0  0  0
 37 80  2  0  0  0  0
 38 41  1  0  0  0  0
 39 50  1  0  0  0  0
 40 68  1  0  0  0  0
 41 43  1  0  0  0  0
 42 44  1  0  0  0  0
 42 45  1  0  0  0  0
 43 48  1  0  0  0  0
 44 51  1  0  0  0  0
 45 69  1  0  0  0  0
 46 49  1  0  0  0  0
 46 70  1  0  0  0  0
 47 51  1  0  0  0  0
 47 69  1  0  0  0  0
 48 73  1  0  0  0  0
 49 52  1  0  0  0  0
 50 68  1  0  0  0  0
 51 67  1  0  0  0  0
 52 55  1  0  0  0  0
 52 70  1  0  0  0  0
 56 63  1  0  0  0  0
 57 64  1  0  0  0  0
 58 64  1  0  0  0  0
 59 64  1  0  0  0  0
 60 75  1  0  0  0  0
 61 82  1  0  0  0  0
 62 64  1  0  0  0  0
 62 74  1  0  0  0  0
 63 75  1  0  0  0  0
 65 67  1  0  0  0  0
M  CHG  1  75   1
M  ISO  4  37 100  61 101  70 100  82 101
M  END
> <Batch ID>
0173

> <Smiles>
CNC(C)C(=O)NC(C(=O)N1Cc2cc([101O:1][101CH2:1]c3nc(C4C[100N:0]([100C:0](=O)N5CCCC(n6nc(-c7ccc(Oc8ccc(F)cc8F)cc7)c(C(N)=O)c6N)C5)C4C)c(C)cc3C)ccc2CC1C(=O)NC1CCCc2ccccc21)C(C)(C)C

> <Shape>
0.260

> <Color>
0.084

> <Negative vol penalty>
0.000

$$$$

  -OEChem-04052322423D

 87 97  0     1  0  0  0  0  0999 V2000
  -30.7927  -31.8113   25.0113 C   0  0  0  0  0  0  0  0  0  0  0  0
  -30.1578  -30.6558   24.5674 C   0  0  0  0  0  0  0  0  0  0  0  0
  -24.7537   -8.8455   21.5325 C   0  0  0  0  0  0  0  0  0  0  0  0
  -23.1407  -10.4802   20.7823 C   0  0  0  0  0  0  0  0  0  0  0  0
  -30.0364  -32.9229   25.3806 C   0  0  0  0  0  0  0  0  0  0  0  0
  -28.7661  -30.6108   24.4936 C   0  0  0  0  0  0  0  0  0  0  0  0
  -27.1155  -28.5414   20.1764 C   0  0  0  0  0  0  0  0  0  0  0  0
  -23.8096   -8.3183   22.4136 C   0  0  0  0  0  0  0  0  0  0  0  0
  -22.1965   -9.9529   21.6633 C   0  0  0  0  0  0  0  0  0  0  0  0
  -27.1583  -27.1513   20.0795 C   0  0  0  0  0  0  0  0  0  0  0  0
  -21.7115   -6.3115   24.6012 C   0  0  0  0  0  0  0  0  0  0  0  0
  -21.5860   -4.9237   24.6628 C   0  0  0  0  0  0  0  0  0  0  0  0
  -24.8043  -27.0486   20.5965 C   0  0  0  0  0  0  0  0  0  0  0  0
  -21.0050   -4.8722   22.3182 C   0  0  0  0  0  0  0  0  0  0  0  0
  -24.4193   -9.9266   20.7169 C   0  0  0  0  0  0  0  0  0  0  0  0
  -25.6221  -10.0849   18.4728 C   0  0  0  0  0  0  0  0  0  0  0  0
  -28.6351  -32.8948   25.3021 C   0  0  0  0  0  0  0  0  0  0  0  0
  -25.9171  -29.1961   20.4954 C   0  0  0  0  0  0  0  0  0  0  0  0
  -27.9903  -31.7226   24.8635 C   0  0  0  0  0  0  0  0  0  0  0  0
  -24.7483  -28.4474   20.6944 C   0  0  0  0  0  0  0  0  0  0  0  0
  -25.4546  -20.8919   19.0233 C   0  0  0  0  0  0  0  0  0  0  0  0
  -25.2359  -22.2634   19.0894 C   0  0  0  0  0  0  0  0  0  0  0  0
  -25.0621  -22.8753   20.3258 C   0  0  0  0  0  0  0  0  0  0  0  0
  -22.5310   -8.8719   22.4789 C   0  0  0  0  0  0  0  0  0  0  0  0
  -26.0033  -26.4045   20.2924 C   0  0  0  0  0  0  0  0  0  0  0  0
  -21.4837   -6.9797   23.3981 C   0  0  0  0  0  0  0  0  0  0  0  0
  -21.2328   -4.2040   23.5214 C   0  0  0  0  0  0  0  0  0  0  0  0
  -21.1305   -6.2600   22.2567 C   0  0  0  0  0  0  0  0  0  0  0  0
  -25.3943  -10.4721   19.8070 C   0  0  0  0  0  0  0  0  0  0  0  0
  -25.4905  -20.1828   20.2131 C   0  0  0  0  0  0  0  0  0  0  0  0
  -25.1153  -22.0774   21.4573 C   0  0  0  0  0  0  0  0  0  0  0  0
  -26.6435  -10.8993   18.0486 C   0  0  0  0  0  0  0  0  0  0  0  0
  -24.9688   -9.0790   17.6872 C   0  0  0  0  0  0  0  0  0  0  0  0
  -24.9434  -31.0555   22.8824 C   0  0  0  0  0  0  0  0  0  0  0  0
  -22.2818  -31.3486   21.0515 C   0  0  0  0  0  0  0  0  0  0  0  0
  -20.2852  -30.0415   18.6118 C   0  0  0  0  0  0  0  0  0  0  0  0
  -28.5377  -16.2857   19.8367 C   0  0  0  0  0  0  0  0  0  0  0  0
  -27.8582  -34.1048   25.7571 C   0  0  0  0  0  0  0  0  0  0  0  0
  -25.8815  -30.6979   20.5699 C   0  0  0  0  0  0  0  0  0  0  0  0
  -23.4320  -29.1033   21.0193 C   0  0  0  0  0  0  0  0  0  0  0  0
  -26.4036  -34.1042   25.2939 C   0  0  0  0  0  0  0  0  0  0  0  0
  -30.4345  -13.3115   19.6396 C   0  0  0  0  0  0  0  0  0  0  0  0
  -24.5873  -20.3570   16.6494 C   0  0  0  0  0  0  0  0  0  0  0  0
  -24.7488  -19.0476   17.3563 C   0  0  0  0  0  0  0  0  0  0  0  0
  -25.7653  -32.7409   25.5406 C   0  0  0  0  0  0  0  0  0  0  0  0
  -29.3887  -12.2021   19.5700 C   0  0  0  0  0  0  0  0  0  0  0  0
  -25.7958  -17.9920   21.5758 C   0  0  0  0  0  0  0  0  0  0  0  0
  -29.9820  -14.4236   20.5762 C   0  0  0  0  0  0  0  0  0  0  0  0
  -26.4269  -16.6466   21.2433 C   0  0  0  0  0  0  0  0  0  0  0  0
  -27.0563  -18.2533   19.5805 C   0  0  0  0  0  0  0  0  0  0  0  0
  -27.5983  -13.9375   20.0947 C   0  0  0  0  0  0  0  0  0  0  0  0
  -25.6435  -20.2053   17.7113 C   0  0  0  0  0  0  0  0  0  0  0  0
  -26.4836  -31.6436   24.7460 C   0  0  1  0  0  0  0  0  0  0  0  0
  -25.7239  -18.6882   20.2070 C   0  0  2  0  0  0  0  0  0  0  0  0
  -24.7208  -31.2274   21.4064 C   0  0  1  0  0  0  0  0  0  0  0  0
  -28.0185  -12.7735   19.1737 C   0  0  2  0  0  0  0  0  0  0  0  0
  -25.1855  -23.0789   17.8365 C   0  0  0  0  0  0  0  0  0  0  0  0
  -24.9327  -22.6773   22.8135 C   0  0  0  0  0  0  0  0  0  0  0  0
  -18.1596  -30.4898   17.3556 C   0  0  0  0  0  0  0  0  0  0  0  0
  -20.6622  -30.4829   23.4881 C   0  0  0  0  0  0  0  0  0  0  0  0
  -18.7318  -30.0336   21.9585 C   0  0  0  0  0  0  0  0  0  0  0  0
  -19.6437  -32.3461   22.1668 C   0  0  0  0  0  0  0  0  0  0  0  0
  -21.7053  -30.1532   16.0176 C   0  0  0  0  0  0  0  0  0  0  0  0
  -24.8229  -24.3444   20.4292 C   0  0  0  0  0  0  0  0  0  1  0  0
  -20.9804  -30.5935   20.9283 C   0  0  1  0  0  0  0  0  0  0  0  0
  -19.6701  -30.6652   17.3720 C   0  0  2  0  0  0  0  0  0  0  0  0
  -20.0296  -30.8512   22.1312 C   0  0  0  0  0  0  0  0  0  0  0  0
  -26.2057  -11.4558   20.2041 N   0  0  0  0  0  0  0  0  0  0  0  0
  -25.3259  -20.7422   21.4328 N   0  0  0  0  0  0  0  0  0  0  0  0
  -26.9535  -11.6936   19.1131 N   0  0  0  0  0  0  0  0  0  0  0  0
  -23.4499  -30.5739   21.0873 N   0  0  0  0  0  0  0  0  0  0  0  0
  -28.6635  -14.9423   20.2075 N   0  0  0  0  0  0  0  0  0  0  0  0
  -27.3442  -16.9380   20.1436 N   0  0  0  0  0  0  0  0  0  0  0  0
  -27.2977  -11.0062   16.8726 N   0  0  0  0  0  0  0  0  0  0  0  0
  -23.9396   -8.3335   18.2782 N   0  0  0  0  0  0  0  0  0  0  0  0
  -26.0812  -31.6802   23.3563 N   0  0  0  0  0  0  0  0  0  0  0  0
  -20.4176  -30.9587   19.6329 N   0  0  0  0  0  0  0  0  0  0  0  0
  -20.2298  -30.0350   16.1430 N   0  3  0  0  0  0  0  0  0  0  0  0
  -25.2994   -8.8369   16.5016 O   0  0  0  0  0  0  0  0  0  0  0  0
  -24.1413  -30.4056   23.5428 O   0  0  0  0  0  0  0  0  0  0  0  0
  -22.2632  -32.5808   21.1064 O   0  0  0  0  0  0  0  0  0  0  0  0
  -20.6120  -28.8582   18.6699 O   0  0  0  0  0  0  0  0  0  0  0  0
  -29.4694  -16.8916   19.2901 O   0  0  0  0  0  0  0  0  0  0  0  0
  -21.6095   -8.3575   23.3384 O   0  0  0  0  0  0  0  0  0  0  0  0
  -26.0428  -25.0380   20.1984 O   0  0  0  0  0  0  0  0  0  1  0  0
  -21.1138   -2.8711   23.5803 F   0  0  0  0  0  0  0  0  0  0  0  0
  -20.9116   -6.8962   21.0977 F   0  0  0  0  0  0  0  0  0  0  0  0
  1  2  1  0  0  0  0
  1  5  2  0  0  0  0
  2  6  2  0  0  0  0
  3  8  2  0  0  0  0
  3 15  1  0  0  0  0
  4  9  1  0  0  0  0
  4 15  2  0  0  0  0
  5 17  1  0  0  0  0
  6 19  1  0  0  0  0
  7 10  2  0  0  0  0
  7 18  1  0  0  0  0
  8 24  1  0  0  0  0
  9 24  2  0  0  0  0
 10 25  1  0  0  0  0
 11 12  2  0  0  0  0
 11 26  1  0  0  0  0
 12 27  1  0  0  0  0
 13 20  1  0  0  0  0
 13 25  2  0  0  0  0
 14 27  2  0  0  0  0
 14 28  1  0  0  0  0
 15 29  1  0  0  0  0
 16 29  1  0  0  0  0
 16 32  2  0  0  0  0
 16 33  1  0  0  0  0
 17 19  2  0  0  0  0
 17 38  1  0  0  0  0
 18 20  2  0  0  0  0
 18 39  1  0  0  0  0
 19 53  1  0  0  0  0
 20 40  1  0  0  0  0
 21 22  1  0  0  0  0
 21 30  2  0  0  0  0
 21 52  1  0  0  0  0
 22 23  2  0  0  0  0
 22 57  1  0  0  0  0
 23 31  1  0  0  0  0
 23 64  1  0  0  0  0
 24 84  1  0  0  0  0
 25 85  1  0  0  0  0
 26 28  2  0  0  0  0
 26 84  1  0  0  0  0
 27 86  1  0  0  0  0
 28 87  1  0  0  0  0
 29 68  2  0  0  0  0
 30 54  1  0  0  0  0
 30 69  1  0  0  0  0
 31 58  1  0  0  0  0
 31 69  2  0  0  0  0
 32 70  1  0  0  0  0
 32 74  1  0  0  0  0
 33 75  1  0  0  0  0
 33 79  2  0  0  0  0
 34 55  1  0  0  0  0
 34 76  1  0  0  0  0
 34 80  2  0  0  0  0
 35 65  1  0  0  0  0
 35 71  1  0  0  0  0
 35 81  2  0  0  0  0
 36 66  1  0  0  0  0
 36 77  1  0  0  0  0
 36 82  2  0  0  0  0
 37 72  1  0  0  0  0
 37 73  1  0  0  0  0
 37 83  2  0  0  0  0
 38 41  1  0  0  0  0
 39 55  1  0  0  0  0
 40 71  1  0  0  0  0
 41 45  1  0  0  0  0
 42 46  1  0  0  0  0
 42 48  1  0  0  0  0
 43 44  1  0  0  0  0
 43 52  1  0  0  0  0
 44 52  1  0  0  0  0
 45 53  1  0  0  0  0
 46 56  1  0  0  0  0
 47 49  1  0  0  0  0
 47 54  1  0  0  0  0
 48 72  1  0  0  0  0
 49 73  1  0  0  0  0
 50 54  1  0  0  0  0
 50 73  1  0  0  0  0
 51 56  1  0  0  0  0
 51 72  1  0  0  0  0
 53 76  1  0  0  0  0
 55 71  1  0  0  0  0
 56 70  1  0  0  0  0
 59 66  1  0  0  0  0
 60 67  1  0  0  0  0
 61 67  1  0  0  0  0
 62 67  1  0  0  0  0
 63 78  1  0  0  0  0
 64 85  1  0  0  0  0
 65 67  1  0  0  0  0
 65 77  1  0  0  0  0
 66 78  1  0  0  0  0
 68 70  1  0  0  0  0
M  CHG  1  78   1
M  ISO  4  37 100  64 101  73 100  85 101
M  END
> <Batch ID>
0173

> <Smiles>
CNC(C)C(=O)NC(C(=O)N1Cc2cc([101O:1][101CH2:1]c3c(C)nc(C4CC[100N:0]([100C:0](=O)N5CCCC(n6nc(-c7ccc(Oc8ccc(F)cc8F)cc7)c(C(N)=O)c6N)C5)C4)c(C4CC4)c3C)ccc2CC1C(=O)NC1CCCc2ccccc21)C(C)(C)C

> <Shape>
0.257

> <Color>
0.093

> <Negative vol penalty>
0.000

$$$$

  -OEChem-04052322423D

 88 97  0     1  0  0  0  0  0999 V2000
  -27.2001  -37.9043   26.1017 C   0  0  0  0  0  0  0  0  0  0  0  0
  -28.0450  -37.0766   25.3693 C   0  0  0  0  0  0  0  0  0  0  0  0
  -24.3105   -9.2630   21.3460 C   0  0  0  0  0  0  0  0  0  0  0  0
  -24.2535   -8.1714   19.1914 C   0  0  0  0  0  0  0  0  0  0  0  0
  -25.9929  -37.4080   26.5920 C   0  0  0  0  0  0  0  0  0  0  0  0
  -27.6837  -35.7516   25.1277 C   0  0  0  0  0  0  0  0  0  0  0  0
  -28.3190  -30.6039   20.1867 C   0  0  0  0  0  0  0  0  0  0  0  0
  -23.2354   -8.4822   21.7701 C   0  0  0  0  0  0  0  0  0  0  0  0
  -23.1783   -7.3905   19.6156 C   0  0  0  0  0  0  0  0  0  0  0  0
  -28.7236  -29.2756   20.0611 C   0  0  0  0  0  0  0  0  0  0  0  0
  -20.7379   -6.5233   23.5423 C   0  0  0  0  0  0  0  0  0  0  0  0
  -20.8138   -5.9496   24.8114 C   0  0  0  0  0  0  0  0  0  0  0  0
  -26.5775  -28.5498   20.8896 C   0  0  0  0  0  0  0  0  0  0  0  0
  -28.3270  -23.8888   21.6414 C   0  0  0  0  0  0  0  0  0  0  0  0
  -22.8073   -4.7546   24.1518 C   0  0  0  0  0  0  0  0  0  0  0  0
  -24.8196   -9.1076   20.0566 C   0  0  0  0  0  0  0  0  0  0  0  0
  -27.2996   -9.6112   19.7348 C   0  0  0  0  0  0  0  0  0  0  0  0
  -25.6122  -36.0790   26.3480 C   0  0  0  0  0  0  0  0  0  0  0  0
  -27.0424  -30.9158   20.6759 C   0  0  0  0  0  0  0  0  0  0  0  0
  -26.4709  -35.2367   25.6163 C   0  0  0  0  0  0  0  0  0  0  0  0
  -26.1582  -29.8828   21.0181 C   0  0  0  0  0  0  0  0  0  0  0  0
  -27.9144  -24.5988   20.5194 C   0  0  0  0  0  0  0  0  0  0  0  0
  -28.8955  -22.6290   21.4898 C   0  0  0  0  0  0  0  0  0  0  0  0
  -22.6692   -7.5459   20.9050 C   0  0  0  0  0  0  0  0  0  0  0  0
  -27.8539  -28.2484   20.4152 C   0  0  0  0  0  0  0  0  0  0  0  0
  -21.6966   -6.2126   22.5778 C   0  0  0  0  0  0  0  0  0  0  0  0
  -21.8486   -5.0653   25.1161 C   0  0  0  0  0  0  0  0  0  0  0  0
  -22.7313   -5.3283   22.8826 C   0  0  0  0  0  0  0  0  0  0  0  0
  -25.9298   -9.9143   19.6177 C   0  0  0  0  0  0  0  0  0  0  0  0
  -28.0909  -24.0095   19.2778 C   0  0  0  0  0  0  0  0  0  0  0  0
  -29.0278  -22.1278   20.2048 C   0  0  0  0  0  0  0  0  0  0  0  0
  -27.9390  -10.6882   19.1712 C   0  0  0  0  0  0  0  0  0  0  0  0
  -27.9370   -8.4590   20.3022 C   0  0  0  0  0  0  0  0  0  0  0  0
  -25.9319  -32.4901   23.2042 C   0  0  0  0  0  0  0  0  0  0  0  0
  -23.0691  -32.0142   21.7550 C   0  0  0  0  0  0  0  0  0  0  0  0
  -21.1918  -30.1661   19.5854 C   0  0  0  0  0  0  0  0  0  0  0  0
  -28.6812  -15.9509   18.4235 C   0  0  0  0  0  0  0  0  0  0  0  0
  -24.3196  -35.5742   26.9387 C   0  0  0  0  0  0  0  0  0  0  0  0
  -26.6115  -32.3531   20.7803 C   0  0  0  0  0  0  0  0  0  0  0  0
  -24.7696  -30.1642   21.5292 C   0  0  0  0  0  0  0  0  0  0  0  0
  -23.8373  -34.2649   26.3194 C   0  0  0  0  0  0  0  0  0  0  0  0
  -26.1408  -14.5451   16.4490 C   0  0  0  0  0  0  0  0  0  0  0  0
  -24.9865  -33.2670   26.2183 C   0  0  0  0  0  0  0  0  0  0  0  0
  -25.9645  -13.1781   17.1096 C   0  0  0  0  0  0  0  0  0  0  0  0
  -27.9264  -19.2840   19.2654 C   0  0  0  0  0  0  0  0  0  0  0  0
  -30.3794  -18.9503   18.7768 C   0  0  0  0  0  0  0  0  0  0  0  0
  -26.3478  -15.6570   17.4790 C   0  0  0  0  0  0  0  0  0  0  0  0
  -27.5898  -18.2288   18.2077 C   0  0  0  0  0  0  0  0  0  0  0  0
  -29.9945  -17.9261   17.7129 C   0  0  0  0  0  0  0  0  0  0  0  0
  -27.2725  -14.0269   19.0934 C   0  0  0  0  0  0  0  0  0  0  0  0
  -26.1026  -33.8007   25.3122 C   0  0  1  0  0  0  0  0  0  0  0  0
  -25.4744  -32.5653   21.7750 C   0  0  1  0  0  0  0  0  0  0  0  0
  -27.1206  -12.8809   18.0812 C   0  0  1  0  0  0  0  0  0  0  0  0
  -29.2584  -19.9756   18.9659 C   0  0  0  0  0  0  0  0  0  0  0  0
  -27.6665  -24.7262   18.0380 C   0  0  0  0  0  0  0  0  0  0  0  0
  -28.1693  -21.5428   23.6453 C   0  0  0  0  0  0  0  0  0  0  0  0
  -30.4538  -22.5942   23.4708 C   0  0  0  0  0  0  0  0  0  0  0  0
  -18.8751  -29.9964   18.6359 C   0  0  0  0  0  0  0  0  0  0  0  0
  -22.0883  -30.7918   24.3729 C   0  0  0  0  0  0  0  0  0  0  0  0
  -20.1642  -29.8056   23.1107 C   0  0  0  0  0  0  0  0  0  0  0  0
  -20.4347  -32.2823   23.2335 C   0  0  0  0  0  0  0  0  0  0  0  0
  -22.1656  -30.6057   16.8254 C   0  0  0  0  0  0  0  0  0  0  0  0
  -27.3046  -25.9491   20.6753 C   0  0  0  0  0  0  0  0  0  1  0  0
  -29.3368  -21.8704   22.6950 C   0  0  0  0  0  0  0  0  0  0  0  0
  -22.0168  -30.9325   21.7959 C   0  0  1  0  0  0  0  0  0  0  0  0
  -20.2695  -30.5747   18.4510 C   0  0  2  0  0  0  0  0  0  0  0  0
  -21.2028  -30.9475   23.1205 C   0  0  0  0  0  0  0  0  0  0  0  0
  -25.7110  -11.0918   19.0263 N   0  0  0  0  0  0  0  0  0  0  0  0
  -28.6389  -22.7879   19.0910 N   0  0  0  0  0  0  0  0  0  0  0  0
  -26.9518  -11.5381   18.7669 N   0  0  0  0  0  0  0  0  0  0  0  0
  -24.3972  -31.5857   21.6194 N   0  0  0  0  0  0  0  0  0  0  0  0
  -27.4330  -15.3107   18.4075 N   0  0  0  0  0  0  0  0  0  0  0  0
  -28.7117  -17.2963   18.0272 N   0  0  0  0  0  0  0  0  0  0  0  0
  -29.2437  -10.9818   18.9871 N   0  0  0  0  0  0  0  0  0  0  0  0
  -27.1308   -7.4454   20.8379 N   0  0  0  0  0  0  0  0  0  0  0  0
  -29.5925  -20.8743   20.0487 N   0  0  0  0  0  0  0  0  0  0  0  0
  -25.7359  -33.6558   23.9198 N   0  0  0  0  0  0  0  0  0  0  0  0
  -21.2069  -31.1053   20.5948 N   0  0  0  0  0  0  0  0  0  0  0  0
  -20.8082  -30.0948   17.1470 N   0  3  0  0  0  0  0  0  0  0  0  0
  -29.1848   -8.3396   20.3479 O   0  0  0  0  0  0  0  0  0  0  0  0
  -26.4249  -31.4508   23.6269 O   0  0  0  0  0  0  0  0  0  0  0  0
  -22.7248  -33.1961   21.8331 O   0  0  0  0  0  0  0  0  0  0  0  0
  -21.8318  -29.1169   19.5785 O   0  0  0  0  0  0  0  0  0  0  0  0
  -29.7086  -15.3556   18.7717 O   0  0  0  0  0  0  0  0  0  0  0  0
  -21.6202   -6.7837   21.3186 O   0  0  0  0  0  0  0  0  0  0  0  0
  -28.2491  -26.9424   20.2934 O   0  0  0  0  0  0  0  0  0  1  0  0
  -21.9223   -4.5156   26.3354 F   0  0  0  0  0  0  0  0  0  0  0  0
  -23.6560   -5.0269   21.9607 F   0  0  0  0  0  0  0  0  0  0  0  0
  1  2  1  0  0  0  0
  1  5  2  0  0  0  0
  2  6  2  0  0  0  0
  3  8  2  0  0  0  0
  3 16  1  0  0  0  0
  4  9  1  0  0  0  0
  4 16  2  0  0  0  0
  5 18  1  0  0  0  0
  6 20  1  0  0  0  0
  7 10  2  0  0  0  0
  7 19  1  0  0  0  0
  8 24  1  0  0  0  0
  9 24  2  0  0  0  0
 10 25  1  0  0  0  0
 11 12  2  0  0  0  0
 11 26  1  0  0  0  0
 12 27  1  0  0  0  0
 13 21  1  0  0  0  0
 13 25  2  0  0  0  0
 14 22  1  0  0  0  0
 14 23  2  0  0  0  0
 15 27  2  0  0  0  0
 15 28  1  0  0  0  0
 16 29  1  0  0  0  0
 17 29  1  0  0  0  0
 17 32  2  0  0  0  0
 17 33  1  0  0  0  0
 18 20  2  0  0  0  0
 18 38  1  0  0  0  0
 19 21  2  0  0  0  0
 19 39  1  0  0  0  0
 20 51  1  0  0  0  0
 21 40  1  0  0  0  0
 22 30  2  0  0  0  0
 22 63  1  0  0  0  0
 23 31  1  0  0  0  0
 23 64  1  0  0  0  0
 24 85  1  0  0  0  0
 25 86  1  0  0  0  0
 26 28  2  0  0  0  0
 26 85  1  0  0  0  0
 27 87  1  0  0  0  0
 28 88  1  0  0  0  0
 29 68  2  0  0  0  0
 30 55  1  0  0  0  0
 30 69  1  0  0  0  0
 31 69  2  0  0  0  0
 31 76  1  0  0  0  0
 32 70  1  0  0  0  0
 32 74  1  0  0  0  0
 33 75  1  0  0  0  0
 33 80  2  0  0  0  0
 34 52  1  0  0  0  0
 34 77  1  0  0  0  0
 34 81  2  0  0  0  0
 35 65  1  0  0  0  0
 35 71  1  0  0  0  0
 35 82  2  0  0  0  0
 36 66  1  0  0  0  0
 36 78  1  0  0  0  0
 36 83  2  0  0  0  0
 37 72  1  0  0  0  0
 37 73  1  0  0  0  0
 37 84  2  0  0  0  0
 38 41  1  0  0  0  0
 39 52  1  0  0  0  0
 40 71  1  0  0  0  0
 41 43  1  0  0  0  0
 42 44  1  0  0  0  0
 42 47  1  0  0  0  0
 43 51  1  0  0  0  0
 44 53  1  0  0  0  0
 45 48  1  0  0  0  0
 45 54  1  0  0  0  0
 46 49  1  0  0  0  0
 46 54  1  0  0  0  0
 47 72  1  0  0  0  0
 48 73  1  0  0  0  0
 49 73  1  0  0  0  0
 50 53  1  0  0  0  0
 50 72  1  0  0  0  0
 51 77  1  0  0  0  0
 52 71  1  0  0  0  0
 53 70  1  0  0  0  0
 54 76  1  0  0  0  0
 56 64  1  0  0  0  0
 57 64  1  0  0  0  0
 58 66  1  0  0  0  0
 59 67  1  0  0  0  0
 60 67  1  0  0  0  0
 61 67  1  0  0  0  0
 62 79  1  0  0  0  0
 63 86  1  0  0  0  0
 65 67  1  0  0  0  0
 65 78  1  0  0  0  0
 66 79  1  0  0  0  0
 68 70  1  0  0  0  0
M  CHG  1  79   1
M  ISO  4  37 100  63 101  73 100  86 101
M  END
> <Batch ID>
0173

> <Smiles>
CNC(C)C(=O)NC(C(=O)N1Cc2cc([101O:1][101CH2:1]c3cc(C(C)C)c(NC4CC[100N:0]([100C:0](=O)N5CCCC(n6nc(-c7ccc(Oc8ccc(F)cc8F)cc7)c(C(N)=O)c6N)C5)CC4)nc3C)ccc2CC1C(=O)NC1CCCc2ccccc21)C(C)(C)C

> <Shape>
0.270

> <Color>
0.088

> <Negative vol penalty>
0.000

$$$$

  -OEChem-04052322423D

 87 96  0     1  0  0  0  0  0999 V2000
  -33.9748  -19.4653   24.9292 C   0  0  0  0  0  0  0  0  0  0  0  0
  -32.8799  -20.0839   24.3343 C   0  0  0  0  0  0  0  0  0  0  0  0
  -25.5822  -30.9835   23.8173 C   0  0  0  0  0  0  0  0  0  0  0  0
  -26.0415  -28.7115   24.4986 C   0  0  0  0  0  0  0  0  0  0  0  0
  -34.3573  -18.1873   24.5238 C   0  0  0  0  0  0  0  0  0  0  0  0
  -32.1674  -19.4252   23.3328 C   0  0  0  0  0  0  0  0  0  0  0  0
  -26.1422  -19.7441   22.2835 C   0  0  0  0  0  0  0  0  0  0  0  0
  -26.5340  -31.4481   24.7249 C   0  0  0  0  0  0  0  0  0  0  0  0
  -26.9934  -29.1761   25.4062 C   0  0  0  0  0  0  0  0  0  0  0  0
  -25.3860  -20.4859   21.3771 C   0  0  0  0  0  0  0  0  0  0  0  0
  -29.9016  -31.7024   24.8913 C   0  0  0  0  0  0  0  0  0  0  0  0
  -30.7956  -32.6780   24.4505 C   0  0  0  0  0  0  0  0  0  0  0  0
  -25.3657  -18.6064   19.8651 C   0  0  0  0  0  0  0  0  0  0  0  0
  -19.7830  -23.5595   17.6978 C   0  0  0  0  0  0  0  0  0  0  0  0
  -29.9971  -34.1835   26.1630 C   0  0  0  0  0  0  0  0  0  0  0  0
  -25.3359  -29.6151   23.7042 C   0  0  0  0  0  0  0  0  0  0  0  0
  -24.5638  -28.7741   21.4229 C   0  0  0  0  0  0  0  0  0  0  0  0
  -33.6433  -17.5087   23.5236 C   0  0  0  0  0  0  0  0  0  0  0  0
  -26.5258  -18.4294   21.9823 C   0  0  0  0  0  0  0  0  0  0  0  0
  -32.5415  -18.1375   22.9127 C   0  0  0  0  0  0  0  0  0  0  0  0
  -26.1246  -17.8492   20.7705 C   0  0  0  0  0  0  0  0  0  0  0  0
  -20.7259  -22.9658   16.8661 C   0  0  0  0  0  0  0  0  0  0  0  0
  -19.7333  -23.2112   19.0430 C   0  0  0  0  0  0  0  0  0  0  0  0
  -27.2396  -30.5444   25.5194 C   0  0  0  0  0  0  0  0  0  0  0  0
  -25.0000  -19.9181   20.1665 C   0  0  0  0  0  0  0  0  0  0  0  0
  -29.0552  -31.9673   25.9680 C   0  0  0  0  0  0  0  0  0  0  0  0
  -30.8434  -33.9186   25.0863 C   0  0  0  0  0  0  0  0  0  0  0  0
  -29.1030  -33.2079   26.6038 C   0  0  0  0  0  0  0  0  0  0  0  0
  -24.3524  -29.1346   22.7672 C   0  0  0  0  0  0  0  0  0  0  0  0
  -21.5895  -22.0370   17.4239 C   0  0  0  0  0  0  0  0  0  0  0  0
  -20.6413  -22.2713   19.5034 C   0  0  0  0  0  0  0  0  0  0  0  0
  -23.3252  -28.3876   20.9722 C   0  0  0  0  0  0  0  0  0  0  0  0
  -25.7718  -28.7872   20.6507 C   0  0  0  0  0  0  0  0  0  0  0  0
  -29.3052  -16.9366   21.5947 C   0  0  0  0  0  0  0  0  0  0  0  0
  -27.4196  -14.3048   21.3938 C   0  0  0  0  0  0  0  0  0  0  0  0
  -24.3465  -12.9879   20.7091 C   0  0  0  0  0  0  0  0  0  0  0  0
  -18.5397  -25.6045   21.6782 C   0  0  0  0  0  0  0  0  0  0  0  0
  -34.1231  -16.1476   23.0856 C   0  0  0  0  0  0  0  0  0  0  0  0
  -27.3189  -17.6334   22.9822 C   0  0  0  0  0  0  0  0  0  0  0  0
  -26.4934  -16.4345   20.4081 C   0  0  0  0  0  0  0  0  0  0  0  0
  -33.0878  -15.3669   22.2801 C   0  0  0  0  0  0  0  0  0  0  0  0
  -18.7552  -28.8674   23.0866 C   0  0  0  0  0  0  0  0  0  0  0  0
  -32.4629  -16.2561   21.2098 C   0  0  0  0  0  0  0  0  0  0  0  0
  -22.5034  -19.8232   16.4652 C   0  0  0  0  0  0  0  0  0  0  0  0
  -20.2480  -29.1951   23.0238 C   0  0  0  0  0  0  0  0  0  0  0  0
  -23.4710  -19.2260   17.4881 C   0  0  0  0  0  0  0  0  0  0  0  0
  -18.5138  -27.3911   23.3939 C   0  0  0  0  0  0  0  0  0  0  0  0
  -20.6973  -26.7776   22.4298 C   0  0  0  0  0  0  0  0  0  0  0  0
  -31.7284  -17.4453   21.8404 C   0  0  1  0  0  0  0  0  0  0  0  0
  -22.6417  -21.3534   16.5630 C   0  0  2  0  0  0  0  0  0  0  0  0
  -28.0899  -16.4786   22.3502 C   0  0  1  0  0  0  0  0  0  0  0  0
  -20.9912  -28.2434   22.0672 C   0  0  2  0  0  0  0  0  0  0  0  0
  -24.4362  -20.3426   17.8988 C   0  0  1  0  0  0  0  0  0  1  0  0
  -24.1355  -21.5517   16.9787 C   0  0  0  0  0  0  0  0  0  0  0  0
  -20.7843  -23.3348   15.4240 C   0  0  0  0  0  0  0  0  0  0  0  0
  -20.6344  -21.8603   20.9394 C   0  0  0  0  0  0  0  0  0  0  0  0
  -25.0257  -21.4429   15.7143 C   0  0  0  0  0  0  0  0  0  0  0  0
  -24.4523  -22.9021   17.6388 C   0  0  0  0  0  0  0  0  0  0  0  0
  -23.1216  -10.8006   20.5950 C   0  0  0  0  0  0  0  0  0  0  0  0
  -28.7934  -13.6765   18.7428 C   0  0  0  0  0  0  0  0  0  0  0  0
  -26.9294  -12.0845   18.2339 C   0  0  0  0  0  0  0  0  0  0  0  0
  -28.3996  -11.6900   20.2102 C   0  0  0  0  0  0  0  0  0  0  0  0
  -22.4339  -13.8167   22.8101 C   0  0  0  0  0  0  0  0  0  0  0  0
  -18.7253  -23.8434   19.9394 C   0  0  0  0  0  0  0  0  0  0  0  0
  -26.7170  -13.5760   20.2739 C   0  0  1  0  0  0  0  0  0  0  0  0
  -23.4857  -11.9928   21.4662 C   0  0  2  0  0  0  0  0  0  0  0  0
  -27.7044  -12.7841   19.3709 C   0  0  0  0  0  0  0  0  0  0  0  0
  -23.0796  -28.9903   23.1457 N   0  0  0  0  0  0  0  0  0  0  0  0
  -21.5715  -21.6732   18.7258 N   0  0  0  0  0  0  0  0  0  0  0  0
  -22.4801  -28.5348   22.0325 N   0  0  0  0  0  0  0  0  0  0  0  0
  -27.2750  -15.6992   21.4161 N   0  0  0  0  0  0  0  0  0  0  0  0
  -19.2451  -26.5426   22.4499 N   0  0  0  0  0  0  0  0  0  0  0  0
  -22.8875  -27.9398   19.7763 N   0  0  0  0  0  0  0  0  0  0  0  0
  -26.9554  -29.2127   21.2690 N   0  0  0  0  0  0  0  0  0  0  0  0
  -30.4473  -17.0263   22.3674 N   0  0  0  0  0  0  0  0  0  0  0  0
  -25.6910  -12.7518   20.9036 N   0  0  0  0  0  0  0  0  0  0  0  0
  -19.3080  -24.8452   20.8041 N   0  0  0  0  0  0  0  0  0  0  0  0
  -22.2251  -12.6421   21.9248 N   0  3  0  0  0  0  0  0  0  0  0  0
  -25.7975  -28.4477   19.4434 O   0  0  0  0  0  0  0  0  0  0  0  0
  -29.2139  -17.1884   20.3989 O   0  0  0  0  0  0  0  0  0  0  0  0
  -28.0669  -13.6599   22.2226 O   0  0  0  0  0  0  0  0  0  0  0  0
  -23.8736  -13.8826   20.0117 O   0  0  0  0  0  0  0  0  0  0  0  0
  -17.3153  -25.4583   21.7582 O   0  0  0  0  0  0  0  0  0  0  0  0
  -28.1686  -30.9974   26.4049 O   0  0  0  0  0  0  0  0  0  0  0  0
  -24.2623  -20.6401   19.2797 O   0  0  0  0  0  0  0  0  0  1  0  0
  -31.7032  -34.8548   24.6639 F   0  0  0  0  0  0  0  0  0  0  0  0
  -28.2932  -33.4679   27.6394 F   0  0  0  0  0  0  0  0  0  0  0  0
  1  2  1  0  0  0  0
  1  5  2  0  0  0  0
  2  6  2  0  0  0  0
  3  8  2  0  0  0  0
  3 16  1  0  0  0  0
  4  9  1  0  0  0  0
  4 16  2  0  0  0  0
  5 18  1  0  0  0  0
  6 20  1  0  0  0  0
  7 10  2  0  0  0  0
  7 19  1  0  0  0  0
  8 24  1  0  0  0  0
  9 24  2  0  0  0  0
 10 25  1  0  0  0  0
 11 12  2  0  0  0  0
 11 26  1  0  0  0  0
 12 27  1  0  0  0  0
 13 21  1  0  0  0  0
 13 25  2  0  0  0  0
 14 22  1  0  0  0  0
 14 23  2  0  0  0  0
 15 27  2  0  0  0  0
 15 28  1  0  0  0  0
 16 29  1  0  0  0  0
 17 29  1  0  0  0  0
 17 32  2  0  0  0  0
 17 33  1  0  0  0  0
 18 20  2  0  0  0  0
 18 38  1  0  0  0  0
 19 21  2  0  0  0  0
 19 39  1  0  0  0  0
 20 49  1  0  0  0  0
 21 40  1  0  0  0  0
 22 30  2  0  0  0  0
 22 55  1  0  0  0  0
 23 31  1  0  0  0  0
 23 64  1  0  0  0  0
 24 84  1  0  0  0  0
 25 85  1  0  0  0  0
 26 28  2  0  0  0  0
 26 84  1  0  0  0  0
 27 86  1  0  0  0  0
 28 87  1  0  0  0  0
 29 68  2  0  0  0  0
 30 50  1  0  0  0  0
 30 69  1  0  0  0  0
 31 56  1  0  0  0  0
 31 69  2  0  0  0  0
 32 70  1  0  0  0  0
 32 73  1  0  0  0  0
 33 74  1  0  0  0  0
 33 79  2  0  0  0  0
 34 51  1  0  0  0  0
 34 75  1  0  0  0  0
 34 80  2  0  0  0  0
 35 65  1  0  0  0  0
 35 71  1  0  0  0  0
 35 81  2  0  0  0  0
 36 66  1  0  0  0  0
 36 76  1  0  0  0  0
 36 82  2  0  0  0  0
 37 72  1  0  0  0  0
 37 77  1  0  0  0  0
 37 83  2  0  0  0  0
 38 41  1  0  0  0  0
 39 51  1  0  0  0  0
 40 71  1  0  0  0  0
 41 43  1  0  0  0  0
 42 45  1  0  0  0  0
 42 47  1  0  0  0  0
 43 49  1  0  0  0  0
 44 46  1  0  0  0  0
 44 50  1  0  0  0  0
 45 52  1  0  0  0  0
 46 53  1  0  0  0  0
 47 72  1  0  0  0  0
 48 52  1  0  0  0  0
 48 72  1  0  0  0  0
 49 75  1  0  0  0  0
 50 54  1  0  0  0  0
 51 71  1  0  0  0  0
 52 70  1  0  0  0  0
 53 54  1  0  0  0  0
 53 85  1  0  0  0  0
 54 57  1  0  0  0  0
 54 58  1  0  0  0  0
 59 66  1  0  0  0  0
 60 67  1  0  0  0  0
 61 67  1  0  0  0  0
 62 67  1  0  0  0  0
 63 78  1  0  0  0  0
 64 77  1  0  0  0  0
 65 67  1  0  0  0  0
 65 76  1  0  0  0  0
 66 78  1  0  0  0  0
 68 70  1  0  0  0  0
M  CHG  1  78   1
M  ISO  4  37 100  53 101  77 100  85 101
M  END
> <Batch ID>
0173

> <Smiles>
CNC(C)C(=O)NC(C(=O)N1Cc2cc([101O:1][101CH:1]3CCC(c4nc(C)c(C[100NH:0][100C:0](=O)N5CCCC(n6nc(-c7ccc(Oc8ccc(F)cc8F)cc7)c(C(N)=O)c6N)C5)cc4C)C3(C)C)ccc2CC1C(=O)NC1CCCc2ccccc21)C(C)(C)C

> <Shape>
0.228

> <Color>
0.053

> <Negative vol penalty>
0.000

$$$$

  -OEChem-04052322423D

 85 93  0     1  0  0  0  0  0999 V2000
  -21.4383  -28.9763   20.9868 C   0  0  0  0  0  0  0  0  0  0  0  0
  -22.0264  -27.8695   20.3830 C   0  0  0  0  0  0  0  0  0  0  0  0
  -32.0243  -19.8397   19.3373 C   0  0  0  0  0  0  0  0  0  0  0  0
  -30.0270  -19.4039   18.0497 C   0  0  0  0  0  0  0  0  0  0  0  0
  -22.2296  -30.0496   21.3937 C   0  0  0  0  0  0  0  0  0  0  0  0
  -23.4063  -27.8360   20.1848 C   0  0  0  0  0  0  0  0  0  0  0  0
  -25.4453  -23.3813   21.4667 C   0  0  0  0  0  0  0  0  0  0  0  0
  -32.5077  -20.6528   18.3123 C   0  0  0  0  0  0  0  0  0  0  0  0
  -30.5104  -20.2171   17.0247 C   0  0  0  0  0  0  0  0  0  0  0  0
  -25.2973  -22.3297   20.5633 C   0  0  0  0  0  0  0  0  0  0  0  0
  -30.7478  -23.5247   16.3733 C   0  0  0  0  0  0  0  0  0  0  0  0
  -29.8622  -24.4370   15.7997 C   0  0  0  0  0  0  0  0  0  0  0  0
  -27.5417  -22.7082   19.7642 C   0  0  0  0  0  0  0  0  0  0  0  0
  -30.1684  -23.3812   13.6482 C   0  0  0  0  0  0  0  0  0  0  0  0
  -30.7840  -19.2151   19.2060 C   0  0  0  0  0  0  0  0  0  0  0  0
  -30.0226  -18.7493   21.5957 C   0  0  0  0  0  0  0  0  0  0  0  0
  -23.6210  -30.0250   21.2092 C   0  0  0  0  0  0  0  0  0  0  0  0
  -26.6408  -24.1125   21.5182 C   0  0  0  0  0  0  0  0  0  0  0  0
  -24.2169  -28.9106   20.5885 C   0  0  0  0  0  0  0  0  0  0  0  0
  -27.7033  -23.7670   20.6709 C   0  0  0  0  0  0  0  0  0  0  0  0
  -31.7508  -20.8416   17.1560 C   0  0  0  0  0  0  0  0  0  0  0  0
  -26.3445  -21.9949   19.7099 C   0  0  0  0  0  0  0  0  0  0  0  0
  -31.3437  -22.5407   15.5845 C   0  0  0  0  0  0  0  0  0  0  0  0
  -29.5725  -24.3652   14.4371 C   0  0  0  0  0  0  0  0  0  0  0  0
  -31.0540  -22.4689   14.2219 C   0  0  0  0  0  0  0  0  0  0  0  0
  -30.2843  -18.3746   20.2642 C   0  0  0  0  0  0  0  0  0  0  0  0
  -29.5674  -17.5992   22.1929 C   0  0  0  0  0  0  0  0  0  0  0  0
  -25.8086  -14.8219   19.2733 C   0  0  0  0  0  0  0  0  0  0  0  0
  -26.8424  -13.5197   17.5973 C   0  0  0  0  0  0  0  0  0  0  0  0
  -30.1771  -20.0230   22.2355 C   0  0  0  0  0  0  0  0  0  0  0  0
  -26.9445  -12.6801   19.9489 C   0  0  0  0  0  0  0  0  0  0  0  0
  -27.4364  -27.1488   21.0171 C   0  0  0  0  0  0  0  0  0  0  0  0
  -30.3374  -26.1571   22.0769 C   0  0  0  0  0  0  0  0  0  0  0  0
  -32.5279  -23.5811   22.5381 C   0  0  0  0  0  0  0  0  0  0  0  0
  -24.4295  -31.2292   21.6226 C   0  0  0  0  0  0  0  0  0  0  0  0
  -26.7942  -25.2267   22.5168 C   0  0  0  0  0  0  0  0  0  0  0  0
  -29.0144  -24.5076   20.7006 C   0  0  0  0  0  0  0  0  0  0  0  0
  -25.9281  -30.9539   21.7160 C   0  0  0  0  0  0  0  0  0  0  0  0
  -29.9233  -12.8427   21.9340 C   0  0  0  0  0  0  0  0  0  0  0  0
  -26.4080  -30.1890   20.4865 C   0  0  0  0  0  0  0  0  0  0  0  0
  -30.3455  -14.3075   21.8285 C   0  0  0  0  0  0  0  0  0  0  0  0
  -29.2969  -12.3471   20.6343 C   0  0  0  0  0  0  0  0  0  0  0  0
  -28.5647  -14.6385   20.0553 C   0  0  0  0  0  0  0  0  0  0  0  0
  -25.7132  -28.8263   20.3787 C   0  0  1  0  0  0  0  0  0  0  0  0
  -26.1851  -15.7941   18.1866 C   0  0  2  0  0  0  0  0  0  0  0  0
  -27.8714  -26.2343   22.1270 C   0  0  1  0  0  0  0  0  0  0  0  0
  -29.1744  -15.1878   21.3572 C   0  0  2  0  0  0  0  0  0  0  0  0
  -26.1040  -13.3860   18.9149 C   0  0  1  0  0  0  0  0  0  0  0  0
  -24.7993  -12.6256   18.6898 C   0  0  0  0  0  0  0  0  0  0  0  0
  -28.9657  -15.7395   16.4036 C   0  0  0  0  0  0  0  0  0  0  0  0
  -34.5980  -22.3963   23.3179 C   0  0  0  0  0  0  0  0  0  0  0  0
  -22.9458  -17.9302   18.0521 C   0  0  0  0  0  0  0  0  0  0  0  0
  -31.5308  -27.3281   19.5245 C   0  0  0  0  0  0  0  0  0  0  0  0
  -33.6056  -25.9989   19.9678 C   0  0  0  0  0  0  0  0  0  0  0  0
  -32.8749  -27.7458   21.5917 C   0  0  0  0  0  0  0  0  0  0  0  0
  -31.3148  -22.9429   25.1611 C   0  0  0  0  0  0  0  0  0  0  0  0
  -24.9486  -16.4386   17.5753 C   0  0  0  0  0  0  0  0  0  0  0  0
  -25.3057  -18.8738   18.0800 C   0  0  0  0  0  0  0  0  0  0  0  0
  -27.5471  -15.3964   16.0994 C   0  0  0  0  0  0  0  0  0  0  0  0
  -25.3362  -19.9007   19.2062 C   0  0  0  0  0  0  0  0  0  1  0  0
  -31.5740  -25.5841   21.4278 C   0  0  1  0  0  0  0  0  0  0  0  0
  -33.3569  -23.1669   23.7404 C   0  0  2  0  0  0  0  0  0  0  0  0
  -24.4168  -17.6483   18.3722 C   0  0  1  0  0  0  0  0  0  0  0  0
  -32.3711  -26.6513   20.6258 C   0  0  0  0  0  0  0  0  0  0  0  0
  -30.0177  -17.0871   20.0290 N   0  0  0  0  0  0  0  0  0  0  0  0
  -25.2852  -15.2054   20.3898 N   0  0  0  0  0  0  0  0  0  0  0  0
  -29.5838  -16.6427   21.2207 N   0  0  0  0  0  0  0  0  0  0  0  0
  -26.8695  -14.8811   17.2747 N   0  0  0  0  0  0  0  0  0  0  0  0
  -28.2034  -13.2224   20.2085 N   0  0  0  0  0  0  0  0  0  0  0  0
  -29.1134  -25.5932   21.6901 N   0  0  0  0  0  0  0  0  0  0  0  0
  -29.1587  -17.3229   23.4495 N   0  0  0  0  0  0  0  0  0  0  0  0
  -29.0940  -20.9125   22.2234 N   0  0  0  0  0  0  0  0  0  0  0  0
  -26.3024  -27.8838   21.3056 N   0  0  0  0  0  0  0  0  0  0  0  0
  -32.3369  -24.9460   22.4952 N   0  0  0  0  0  0  0  0  0  0  0  0
  -32.5537  -22.3019   24.6502 N   0  3  0  0  0  0  0  0  0  0  0  0
  -27.3270  -12.5890   16.9688 O   0  0  0  0  0  0  0  0  0  0  0  0
  -31.2493  -20.3688   22.7870 O   0  0  0  0  0  0  0  0  0  0  0  0
  -26.4929  -11.6786   20.5103 O   0  0  0  0  0  0  0  0  0  0  0  0
  -28.0827  -27.1861   19.9766 O   0  0  0  0  0  0  0  0  0  0  0  0
  -30.4537  -27.0666   22.9022 O   0  0  0  0  0  0  0  0  0  0  0  0
  -32.0963  -22.7750   21.7169 O   0  0  0  0  0  0  0  0  0  0  0  0
  -32.2221  -21.6352   16.1557 O   0  0  0  0  0  0  0  0  0  0  0  0
  -26.2024  -20.9694   18.8267 O   0  0  0  0  0  0  0  0  0  1  0  0
  -28.7209  -25.2404   13.8866 F   0  0  0  0  0  0  0  0  0  0  0  0
  -31.6225  -21.5251   13.4592 F   0  0  0  0  0  0  0  0  0  0  0  0
  1  2  1  0  0  0  0
  1  5  2  0  0  0  0
  2  6  2  0  0  0  0
  3  8  2  0  0  0  0
  3 15  1  0  0  0  0
  4  9  1  0  0  0  0
  4 15  2  0  0  0  0
  5 17  1  0  0  0  0
  6 19  1  0  0  0  0
  7 10  2  0  0  0  0
  7 18  1  0  0  0  0
  8 21  1  0  0  0  0
  9 21  2  0  0  0  0
 10 22  1  0  0  0  0
 11 12  2  0  0  0  0
 11 23  1  0  0  0  0
 12 24  1  0  0  0  0
 13 20  1  0  0  0  0
 13 22  2  0  0  0  0
 14 24  2  0  0  0  0
 14 25  1  0  0  0  0
 15 26  1  0  0  0  0
 16 26  1  0  0  0  0
 16 27  2  0  0  0  0
 16 30  1  0  0  0  0
 17 19  2  0  0  0  0
 17 35  1  0  0  0  0
 18 20  2  0  0  0  0
 18 36  1  0  0  0  0
 19 44  1  0  0  0  0
 20 37  1  0  0  0  0
 21 82  1  0  0  0  0
 22 83  1  0  0  0  0
 23 25  2  0  0  0  0
 23 82  1  0  0  0  0
 24 84  1  0  0  0  0
 25 85  1  0  0  0  0
 26 65  2  0  0  0  0
 27 67  1  0  0  0  0
 27 71  1  0  0  0  0
 28 45  1  0  0  0  0
 28 48  1  0  0  0  0
 28 66  2  0  0  0  0
 29 48  1  0  0  0  0
 29 68  1  0  0  0  0
 29 76  2  0  0  0  0
 30 72  1  0  0  0  0
 30 77  2  0  0  0  0
 31 48  1  0  0  0  0
 31 69  1  0  0  0  0
 31 78  2  0  0  0  0
 32 46  1  0  0  0  0
 32 73  1  0  0  0  0
 32 79  2  0  0  0  0
 33 61  1  0  0  0  0
 33 70  1  0  0  0  0
 33 80  2  0  0  0  0
 34 62  1  0  0  0  0
 34 74  1  0  0  0  0
 34 81  2  0  0  0  0
 35 38  1  0  0  0  0
 36 46  1  0  0  0  0
 37 70  1  0  0  0  0
 38 40  1  0  0  0  0
 39 41  1  0  0  0  0
 39 42  1  0  0  0  0
 40 44  1  0  0  0  0
 41 47  1  0  0  0  0
 42 69  1  0  0  0  0
 43 47  1  0  0  0  0
 43 69  1  0  0  0  0
 44 73  1  0  0  0  0
 45 57  1  0  0  0  0
 45 68  1  0  0  0  0
 46 70  1  0  0  0  0
 47 67  1  0  0  0  0
 48 49  1  0  0  0  0
 50 59  1  0  0  0  0
 51 62  1  0  0  0  0
 52 63  1  0  0  0  0
 53 64  1  0  0  0  0
 54 64  1  0  0  0  0
 55 64  1  0  0  0  0
 56 75  1  0  0  0  0
 57 63  1  0  0  0  0
 58 60  1  0  0  0  0
 58 63  1  0  0  0  0
 59 68  1  0  0  0  0
 60 83  1  0  0  0  0
 61 64  1  0  0  0  0
 61 74  1  0  0  0  0
 62 75  1  0  0  0  0
 65 67  1  0  0  0  0
M  CHG  1  75   1
M  ISO  4  31 100  48 100  60 101  83 101
M  END
> <Batch ID>
0173

> <Smiles>
CCN1C(=O)[100C:0](C)([100C:0](=O)N2CCCC(n3nc(-c4ccc(Oc5ccc(F)cc5F)cc4)c(C(N)=O)c3N)C2)C(=N)C1CC(C)C[101CH2:1][101O:1]c1ccc2c(c1)CN(C(=O)C(NC(=O)C(C)NC)C(C)(C)C)C(C(=O)NC1CCCc3ccccc31)C2

> <Shape>
0.191

> <Color>
0.096

> <Negative vol penalty>
0.000

$$$$

  -OEChem-04052322423D

 89 98  0     1  0  0  0  0  0999 V2000
  -27.8660  -32.2094   27.4575 C   0  0  0  0  0  0  0  0  0  0  0  0
  -28.0131  -31.1785   26.5350 C   0  0  0  0  0  0  0  0  0  0  0  0
  -23.1627  -10.5193   21.7521 C   0  0  0  0  0  0  0  0  0  0  0  0
  -24.4660   -8.6399   20.9736 C   0  0  0  0  0  0  0  0  0  0  0  0
  -26.5922  -32.6647   27.7952 C   0  0  0  0  0  0  0  0  0  0  0  0
  -26.8863  -30.6016   25.9504 C   0  0  0  0  0  0  0  0  0  0  0  0
  -27.4071  -29.9507   20.9554 C   0  0  0  0  0  0  0  0  0  0  0  0
  -21.9892   -9.8033   21.5161 C   0  0  0  0  0  0  0  0  0  0  0  0
  -23.2925   -7.9238   20.7376 C   0  0  0  0  0  0  0  0  0  0  0  0
  -28.1736  -28.8662   20.5311 C   0  0  0  0  0  0  0  0  0  0  0  0
  -20.6522   -5.4686   20.2694 C   0  0  0  0  0  0  0  0  0  0  0  0
  -20.6068   -4.1396   20.6902 C   0  0  0  0  0  0  0  0  0  0  0  0
  -26.1561  -27.6124   20.1106 C   0  0  0  0  0  0  0  0  0  0  0  0
  -20.9869   -4.8481   22.9686 C   0  0  0  0  0  0  0  0  0  0  0  0
  -24.4012   -9.9376   21.4808 C   0  0  0  0  0  0  0  0  0  0  0  0
  -26.3674  -10.7069   22.9125 C   0  0  0  0  0  0  0  0  0  0  0  0
  -25.4496  -32.0996   27.2072 C   0  0  0  0  0  0  0  0  0  0  0  0
  -26.0072  -29.8702   20.9708 C   0  0  0  0  0  0  0  0  0  0  0  0
  -25.5959  -31.0488   26.2815 C   0  0  0  0  0  0  0  0  0  0  0  0
  -25.3740  -28.6982   20.5331 C   0  0  0  0  0  0  0  0  0  0  0  0
  -28.5689  -24.4034   18.8975 C   0  0  0  0  0  0  0  0  0  0  0  0
  -29.2561  -24.4897   17.6918 C   0  0  0  0  0  0  0  0  0  0  0  0
  -28.7959  -23.3247   19.7450 C   0  0  0  0  0  0  0  0  0  0  0  0
  -22.0540   -8.5055   21.0089 C   0  0  0  0  0  0  0  0  0  0  0  0
  -27.5483  -27.6958   20.1113 C   0  0  0  0  0  0  0  0  0  0  0  0
  -20.8651   -6.4874   21.1980 C   0  0  0  0  0  0  0  0  0  0  0  0
  -20.7741   -3.8293   22.0398 C   0  0  0  0  0  0  0  0  0  0  0  0
  -21.0324   -6.1772   22.5476 C   0  0  0  0  0  0  0  0  0  0  0  0
  -25.6138  -10.6770   21.7238 C   0  0  0  0  0  0  0  0  0  0  0  0
  -30.1524  -23.4794   17.3824 C   0  0  0  0  0  0  0  0  0  0  0  0
  -29.7126  -22.3664   19.3436 C   0  0  0  0  0  0  0  0  0  0  0  0
  -27.4160  -11.5488   22.6331 C   0  0  0  0  0  0  0  0  0  0  0  0
  -26.1399  -10.0339   24.1579 C   0  0  0  0  0  0  0  0  0  0  0  0
  -23.7750  -30.0451   23.2270 C   0  0  0  0  0  0  0  0  0  0  0  0
  -21.7556  -29.9271   20.6912 C   0  0  0  0  0  0  0  0  0  0  0  0
  -21.2304  -29.0110   17.4459 C   0  0  0  0  0  0  0  0  0  0  0  0
  -29.5187  -16.0605   20.6259 C   0  0  0  0  0  0  0  0  0  0  0  0
  -24.0914  -32.5929   27.6390 C   0  0  0  0  0  0  0  0  0  0  0  0
  -25.1940  -31.0584   21.4060 C   0  0  0  0  0  0  0  0  0  0  0  0
  -23.8737  -28.5682   20.5113 C   0  0  0  0  0  0  0  0  0  0  0  0
  -22.9653  -32.1821   26.6939 C   0  0  0  0  0  0  0  0  0  0  0  0
  -28.9951  -13.5207   18.2585 C   0  0  0  0  0  0  0  0  0  0  0  0
  -23.0812  -30.7038   26.3362 C   0  0  0  0  0  0  0  0  0  0  0  0
  -28.1214  -12.5460   19.0475 C   0  0  0  0  0  0  0  0  0  0  0  0
  -29.0908  -19.2409   19.1800 C   0  0  0  0  0  0  0  0  0  0  0  0
  -30.9897  -19.1902   20.8411 C   0  0  0  0  0  0  0  0  0  0  0  0
  -28.6104  -14.9777   18.5221 C   0  0  0  0  0  0  0  0  0  0  0  0
  -29.4220  -17.7991   18.7834 C   0  0  0  0  0  0  0  0  0  0  0  0
  -31.3000  -17.7646   20.3932 C   0  0  0  0  0  0  0  0  0  0  0  0
  -27.7146  -14.3675   20.7456 C   0  0  0  0  0  0  0  0  0  0  0  0
  -24.3989  -30.4143   25.6072 C   0  0  1  0  0  0  0  0  0  0  0  0
  -23.7887  -30.6840   21.8671 C   0  0  1  0  0  0  0  0  0  0  0  0
  -28.1158  -12.8977   20.5458 C   0  0  1  0  0  0  0  0  0  0  0  0
  -30.3246  -19.9764   19.7083 C   0  0  0  0  0  0  0  0  0  0  0  0
  -29.0348  -25.6352   16.7617 C   0  0  0  0  0  0  0  0  0  0  0  0
  -30.9197  -23.5172   16.1013 C   0  0  0  0  0  0  0  0  0  0  0  0
  -26.5448  -23.0918   20.8549 C   0  0  0  0  0  0  0  0  0  0  0  0
  -28.3871  -24.3774   21.9986 C   0  0  0  0  0  0  0  0  0  0  0  0
  -19.4676  -29.0103   15.6599 C   0  0  0  0  0  0  0  0  0  0  0  0
  -20.3687  -27.5817   22.0644 C   0  0  0  0  0  0  0  0  0  0  0  0
  -19.2822  -27.0334   19.8764 C   0  0  0  0  0  0  0  0  0  0  0  0
  -18.8205  -29.2210   20.9827 C   0  0  0  0  0  0  0  0  0  0  0  0
  -22.8671  -30.7190   15.6674 C   0  0  0  0  0  0  0  0  0  0  0  0
  -27.5907  -25.4678   19.2806 C   0  0  0  0  0  0  0  0  0  1  0  0
  -28.0682  -23.2122   21.0440 C   0  0  0  0  0  0  0  0  0  0  0  0
  -21.0775  -28.8241   19.9150 C   0  0  1  0  0  0  0  0  0  0  0  0
  -20.6383  -29.7658   16.2694 C   0  0  2  0  0  0  0  0  0  0  0  0
  -19.9155  -28.1665   20.7117 C   0  0  0  0  0  0  0  0  0  0  0  0
  -26.1389  -11.4393   20.7610 N   0  0  0  0  0  0  0  0  0  0  0  0
  -30.3993  -22.4162   18.1801 N   0  0  0  0  0  0  0  0  0  0  0  0
  -27.2337  -11.9563   21.3443 N   0  0  0  0  0  0  0  0  0  0  0  0
  -23.1224  -29.7550   20.9522 N   0  0  0  0  0  0  0  0  0  0  0  0
  -28.5795  -15.2547   19.9650 N   0  0  0  0  0  0  0  0  0  0  0  0
  -30.1004  -17.0993   19.8839 N   0  0  0  0  0  0  0  0  0  0  0  0
  -28.4670  -11.9729   23.3665 N   0  0  0  0  0  0  0  0  0  0  0  0
  -25.0147   -9.2064   24.2743 N   0  0  0  0  0  0  0  0  0  0  0  0
  -29.9417  -21.2887   20.1805 N   0  0  0  0  0  0  0  0  0  0  0  0
  -24.3146  -30.8343   24.2248 N   0  0  0  0  0  0  0  0  0  0  0  0
  -20.6724  -29.4103   18.6419 N   0  0  0  0  0  0  0  0  0  0  0  0
  -21.6689  -29.9681   15.2121 N   0  3  0  0  0  0  0  0  0  0  0  0
  -26.9026  -10.1754   25.1437 O   0  0  0  0  0  0  0  0  0  0  0  0
  -23.3081  -28.9201   23.3613 O   0  0  0  0  0  0  0  0  0  0  0  0
  -21.0984  -30.9086   21.0466 O   0  0  0  0  0  0  0  0  0  0  0  0
  -22.0983  -28.1505   17.3165 O   0  0  0  0  0  0  0  0  0  0  0  0
  -29.8200  -15.8636   21.8097 O   0  0  0  0  0  0  0  0  0  0  0  0
  -20.9091   -7.8065   20.7787 O   0  0  0  0  0  0  0  0  0  0  0  0
  -28.2996  -26.6278   19.6943 O   0  0  0  0  0  0  0  0  0  1  0  0
  -20.7289   -2.5531   22.4441 F   0  0  0  0  0  0  0  0  0  0  0  0
  -21.2359   -7.1517   23.4446 F   0  0  0  0  0  0  0  0  0  0  0  0
  1  2  1  0  0  0  0
  1  5  2  0  0  0  0
  2  6  2  0  0  0  0
  3  8  2  0  0  0  0
  3 15  1  0  0  0  0
  4  9  1  0  0  0  0
  4 15  2  0  0  0  0
  5 17  1  0  0  0  0
  6 19  1  0  0  0  0
  7 10  2  0  0  0  0
  7 18  1  0  0  0  0
  8 24  1  0  0  0  0
  9 24  2  0  0  0  0
 10 25  1  0  0  0  0
 11 12  2  0  0  0  0
 11 26  1  0  0  0  0
 12 27  1  0  0  0  0
 13 20  1  0  0  0  0
 13 25  2  0  0  0  0
 14 27  2  0  0  0  0
 14 28  1  0  0  0  0
 15 29  1  0  0  0  0
 16 29  1  0  0  0  0
 16 32  2  0  0  0  0
 16 33  1  0  0  0  0
 17 19  2  0  0  0  0
 17 38  1  0  0  0  0
 18 20  2  0  0  0  0
 18 39  1  0  0  0  0
 19 51  1  0  0  0  0
 20 40  1  0  0  0  0
 21 22  1  0  0  0  0
 21 23  2  0  0  0  0
 21 64  1  0  0  0  0
 22 30  2  0  0  0  0
 22 55  1  0  0  0  0
 23 31  1  0  0  0  0
 23 65  1  0  0  0  0
 24 86  1  0  0  0  0
 25 87  1  0  0  0  0
 26 28  2  0  0  0  0
 26 86  1  0  0  0  0
 27 88  1  0  0  0  0
 28 89  1  0  0  0  0
 29 69  2  0  0  0  0
 30 56  1  0  0  0  0
 30 70  1  0  0  0  0
 31 70  2  0  0  0  0
 31 77  1  0  0  0  0
 32 71  1  0  0  0  0
 32 75  1  0  0  0  0
 33 76  1  0  0  0  0
 33 81  2  0  0  0  0
 34 52  1  0  0  0  0
 34 78  1  0  0  0  0
 34 82  2  0  0  0  0
 35 66  1  0  0  0  0
 35 72  1  0  0  0  0
 35 83  2  0  0  0  0
 36 67  1  0  0  0  0
 36 79  1  0  0  0  0
 36 84  2  0  0  0  0
 37 73  1  0  0  0  0
 37 74  1  0  0  0  0
 37 85  2  0  0  0  0
 38 41  1  0  0  0  0
 39 52  1  0  0  0  0
 40 72  1  0  0  0  0
 41 43  1  0  0  0  0
 42 44  1  0  0  0  0
 42 47  1  0  0  0  0
 43 51  1  0  0  0  0
 44 53  1  0  0  0  0
 45 48  1  0  0  0  0
 45 54  1  0  0  0  0
 46 49  1  0  0  0  0
 46 54  1  0  0  0  0
 47 73  1  0  0  0  0
 48 74  1  0  0  0  0
 49 74  1  0  0  0  0
 50 53  1  0  0  0  0
 50 73  1  0  0  0  0
 51 78  1  0  0  0  0
 52 72  1  0  0  0  0
 53 71  1  0  0  0  0
 54 77  1  0  0  0  0
 57 65  1  0  0  0  0
 58 65  1  0  0  0  0
 59 67  1  0  0  0  0
 60 68  1  0  0  0  0
 61 68  1  0  0  0  0
 62 68  1  0  0  0  0
 63 80  1  0  0  0  0
 64 87  1  0  0  0  0
 66 68  1  0  0  0  0
 66 79  1  0  0  0  0
 67 80  1  0  0  0  0
 69 71  1  0  0  0  0
M  CHG  1  80   1
M  ISO  4  37 100  64 101  74 100  87 101
M  END
> <Batch ID>
0173

> <Smiles>
CNC(C)C(=O)NC(C(=O)N1Cc2cc([101O:1][101CH2:1]c3c(C)c(C)nc(NC4CC[100N:0]([100C:0](=O)N5CCCC(n6nc(-c7ccc(Oc8ccc(F)cc8F)cc7)c(C(N)=O)c6N)C5)CC4)c3C(C)C)ccc2CC1C(=O)NC1CCCc2ccccc21)C(C)(C)C

> <Shape>
0.329

> <Color>
0.104

> <Negative vol penalty>
0.000

$$$$

  -OEChem-04052322423D

 86 95  0     1  0  0  0  0  0999 V2000
  -27.9129  -10.5480   19.5747 C   0  0  0  0  0  0  0  0  0  0  0  0
  -28.2416  -11.7393   18.9359 C   0  0  0  0  0  0  0  0  0  0  0  0
  -23.2431  -25.6657   18.3228 C   0  0  0  0  0  0  0  0  0  0  0  0
  -23.7140  -24.4811   20.3752 C   0  0  0  0  0  0  0  0  0  0  0  0
  -26.7353  -10.4577   20.3158 C   0  0  0  0  0  0  0  0  0  0  0  0
  -27.3924  -12.8407   19.0368 C   0  0  0  0  0  0  0  0  0  0  0  0
  -29.0243  -18.7391   19.2634 C   0  0  0  0  0  0  0  0  0  0  0  0
  -23.5760  -24.5271   17.5892 C   0  0  0  0  0  0  0  0  0  0  0  0
  -24.0469  -23.3424   19.6415 C   0  0  0  0  0  0  0  0  0  0  0  0
  -29.0742  -19.7366   18.2906 C   0  0  0  0  0  0  0  0  0  0  0  0
  -23.9551  -21.8211   15.1914 C   0  0  0  0  0  0  0  0  0  0  0  0
  -23.1098  -21.4542   14.1444 C   0  0  0  0  0  0  0  0  0  0  0  0
  -26.8908  -20.5026   18.9726 C   0  0  0  0  0  0  0  0  0  0  0  0
  -21.2789  -21.2228   15.7036 C   0  0  0  0  0  0  0  0  0  0  0  0
  -28.6503  -23.8277   16.6093 C   0  0  0  0  0  0  0  0  0  0  0  0
  -23.3122  -25.6428   19.7159 C   0  0  0  0  0  0  0  0  0  0  0  0
  -21.6988  -27.1706   20.9690 C   0  0  0  0  0  0  0  0  0  0  0  0
  -25.8761  -11.5615   20.4339 C   0  0  0  0  0  0  0  0  0  0  0  0
  -27.9007  -18.6088   20.0923 C   0  0  0  0  0  0  0  0  0  0  0  0
  -26.2016  -12.7646   19.7791 C   0  0  0  0  0  0  0  0  0  0  0  0
  -26.8302  -19.5042   19.9568 C   0  0  0  0  0  0  0  0  0  0  0  0
  -23.9779  -23.3654   18.2485 C   0  0  0  0  0  0  0  0  0  0  0  0
  -28.0062  -20.6167   18.1431 C   0  0  0  0  0  0  0  0  0  0  0  0
  -23.4623  -21.8889   16.4946 C   0  0  0  0  0  0  0  0  0  0  0  0
  -21.7717  -21.1551   14.4004 C   0  0  0  0  0  0  0  0  0  0  0  0
  -22.1242  -21.5897   16.7507 C   0  0  0  0  0  0  0  0  0  0  0  0
  -22.9689  -26.8188   20.4742 C   0  0  0  0  0  0  0  0  0  0  0  0
  -29.2005  -25.0131   17.0526 C   0  0  0  0  0  0  0  0  0  0  0  0
  -28.5871  -22.8131   17.5425 C   0  0  0  0  0  0  0  0  0  1  0  0
  -21.9006  -28.3664   21.6138 C   0  0  0  0  0  0  0  0  0  0  0  0
  -29.5392  -24.1398   19.1237 C   0  0  0  0  0  0  0  0  0  0  0  0
  -20.4483  -26.4783   20.8558 C   0  0  0  0  0  0  0  0  0  0  0  0
  -25.7326  -16.3386   20.5912 C   0  0  0  0  0  0  0  0  0  0  0  0
  -24.7481  -18.3401   22.9465 C   0  0  0  0  0  0  0  0  0  0  0  0
  -24.6119  -21.5202   24.1774 C   0  0  0  0  0  0  0  0  0  0  0  0
  -27.3740  -28.7325   21.0078 C   0  0  0  0  0  0  0  0  0  0  0  0
  -24.5909  -11.4015   21.2067 C   0  0  0  0  0  0  0  0  0  0  0  0
  -27.8737  -17.5444   21.1546 C   0  0  0  0  0  0  0  0  0  0  0  0
  -25.6095  -19.4195   20.8351 C   0  0  0  0  0  0  0  0  0  0  0  0
  -23.9314  -12.7285   21.5735 C   0  0  0  0  0  0  0  0  0  0  0  0
  -24.8517  -31.0105   19.9053 C   0  0  0  0  0  0  0  0  0  0  0  0
  -29.4812  -27.9728   23.8595 C   0  0  0  0  0  0  0  0  0  0  0  0
  -23.8998  -13.6605   20.3663 C   0  0  0  0  0  0  0  0  0  0  0  0
  -23.8456  -31.0632   21.0497 C   0  0  0  0  0  0  0  0  0  0  0  0
  -29.5012  -26.6111   23.1794 C   0  0  0  0  0  0  0  0  0  0  0  0
  -26.2671  -30.8654   20.4425 C   0  0  0  0  0  0  0  0  0  0  0  0
  -28.1376  -28.5399   23.4284 C   0  0  0  0  0  0  0  0  0  0  0  0
  -25.4406  -29.6042   22.4204 C   0  0  0  0  0  0  0  0  0  0  0  0
  -25.3184  -13.9889   19.8855 C   0  0  1  0  0  0  0  0  0  0  0  0
  -26.4608  -17.1807   21.6003 C   0  0  1  0  0  0  0  0  0  0  0  0
  -23.9747  -29.8648   22.0035 C   0  0  2  0  0  0  0  0  0  0  0  0
  -28.8340  -26.8833   21.8284 C   0  0  1  0  0  0  0  0  0  0  0  0
  -29.3110  -26.1682   16.1146 C   0  0  0  0  0  0  0  0  0  0  0  0
  -23.7067  -22.8499   26.1035 C   0  0  0  0  0  0  0  0  0  0  0  0
  -26.7626  -25.4540   22.0305 C   0  0  0  0  0  0  0  0  0  0  0  0
  -21.9534  -18.1942   21.7307 C   0  0  0  0  0  0  0  0  0  0  0  0
  -21.3418  -20.2207   23.0677 C   0  0  0  0  0  0  0  0  0  0  0  0
  -22.0092  -18.1167   24.2298 C   0  0  0  0  0  0  0  0  0  0  0  0
  -27.3211  -22.3631   25.0193 C   0  0  0  0  0  0  0  0  0  0  0  0
  -30.0340  -24.3138   20.5294 C   0  0  0  0  0  0  0  0  0  0  0  0
  -23.7685  -19.4852   23.0364 C   0  0  1  0  0  0  0  0  0  0  0  0
  -24.8991  -22.0785   25.5595 C   0  0  2  0  0  0  0  0  0  0  0  0
  -28.0827  -25.6642   21.3089 C   0  0  2  0  0  0  0  0  0  0  0  0
  -22.2903  -19.0048   22.9982 C   0  0  0  0  0  0  0  0  0  0  0  0
  -23.9081  -27.7185   20.7785 N   0  0  0  0  0  0  0  0  0  0  0  0
  -29.6566  -25.2047   18.3078 N   0  0  0  0  0  0  0  0  0  0  0  0
  -29.0238  -22.9350   18.8132 N   0  0  0  0  0  0  0  0  0  0  0  0
  -23.2276  -28.6474   21.4714 N   0  0  0  0  0  0  0  0  0  0  0  0
  -25.6278  -18.3578   21.8549 N   0  0  0  0  0  0  0  0  0  0  0  0
  -26.4046  -29.6988   21.3146 N   0  0  0  0  0  0  0  0  0  0  0  0
  -27.9504  -28.0305   22.0689 N   0  0  0  0  0  0  0  0  0  0  0  0
  -21.0706  -29.1945   22.2831 N   0  0  0  0  0  0  0  0  0  0  0  0
  -20.4185  -25.2622   20.1598 N   0  0  0  0  0  0  0  0  0  0  0  0
  -25.9274  -14.9795   20.7471 N   0  0  0  0  0  0  0  0  0  0  0  0
  -24.1231  -20.2323   24.2383 N   0  0  0  0  0  0  0  0  0  0  0  0
  -26.0718  -22.9970   25.5137 N   0  3  0  0  0  0  0  0  0  0  0  0
  -28.9350  -24.4634   21.5194 N   0  3  0  0  0  0  0  0  0  0  0  0
  -19.3856  -26.9331   21.3429 O   0  0  0  0  0  0  0  0  0  0  0  0
  -25.0437  -16.8817   19.7355 O   0  0  0  0  0  0  0  0  0  0  0  0
  -24.7381  -17.4659   23.8168 O   0  0  0  0  0  0  0  0  0  0  0  0
  -24.7987  -22.1636   23.1470 O   0  0  0  0  0  0  0  0  0  0  0  0
  -27.7172  -28.5132   19.8385 O   0  0  0  0  0  0  0  0  0  0  0  0
  -24.3026  -22.2541   17.5330 O   0  0  0  0  0  0  0  0  0  0  0  0
  -28.0527  -21.6050   17.1801 O   0  0  0  0  0  0  0  0  0  1  0  0
  -20.9597  -20.8042   13.3946 F   0  0  0  0  0  0  0  0  0  0  0  0
  -21.6448  -21.6542   18.0004 F   0  0  0  0  0  0  0  0  0  0  0  0
  1  2  1  0  0  0  0
  1  5  2  0  0  0  0
  2  6  2  0  0  0  0
  3  8  2  0  0  0  0
  3 16  1  0  0  0  0
  4  9  1  0  0  0  0
  4 16  2  0  0  0  0
  5 18  1  0  0  0  0
  6 20  1  0  0  0  0
  7 10  2  0  0  0  0
  7 19  1  0  0  0  0
  8 22  1  0  0  0  0
  9 22  2  0  0  0  0
 10 23  1  0  0  0  0
 11 12  2  0  0  0  0
 11 24  1  0  0  0  0
 12 25  1  0  0  0  0
 13 21  1  0  0  0  0
 13 23  2  0  0  0  0
 14 25  2  0  0  0  0
 14 26  1  0  0  0  0
 15 28  2  0  0  0  0
 15 29  1  0  0  0  0
 16 27  1  0  0  0  0
 17 27  1  0  0  0  0
 17 30  2  0  0  0  0
 17 32  1  0  0  0  0
 18 20  2  0  0  0  0
 18 37  1  0  0  0  0
 19 21  2  0  0  0  0
 19 38  1  0  0  0  0
 20 49  1  0  0  0  0
 21 39  1  0  0  0  0
 22 83  1  0  0  0  0
 23 84  1  0  0  0  0
 24 26  2  0  0  0  0
 24 83  1  0  0  0  0
 25 85  1  0  0  0  0
 26 86  1  0  0  0  0
 27 65  2  0  0  0  0
 28 53  1  0  0  0  0
 28 66  1  0  0  0  0
 29 67  2  0  0  0  0
 29 84  1  0  0  0  0
 30 68  1  0  0  0  0
 30 72  1  0  0  0  0
 31 60  1  0  0  0  0
 31 66  2  0  0  0  0
 31 67  1  0  0  0  0
 32 73  1  0  0  0  0
 32 78  2  0  0  0  0
 33 50  1  0  0  0  0
 33 74  1  0  0  0  0
 33 79  2  0  0  0  0
 34 61  1  0  0  0  0
 34 69  1  0  0  0  0
 34 80  2  0  0  0  0
 35 62  1  0  0  0  0
 35 75  1  0  0  0  0
 35 81  2  0  0  0  0
 36 70  1  0  0  0  0
 36 71  1  0  0  0  0
 36 82  2  0  0  0  0
 37 40  1  0  0  0  0
 38 50  1  0  0  0  0
 39 69  1  0  0  0  0
 40 43  1  0  0  0  0
 41 44  1  0  0  0  0
 41 46  1  0  0  0  0
 42 45  1  0  0  0  0
 42 47  1  0  0  0  0
 43 49  1  0  0  0  0
 44 51  1  0  0  0  0
 45 52  1  0  0  0  0
 46 70  1  0  0  0  0
 47 71  1  0  0  0  0
 48 51  1  0  0  0  0
 48 70  1  0  0  0  0
 49 74  1  0  0  0  0
 50 69  1  0  0  0  0
 51 68  1  0  0  0  0
 52 63  1  0  0  0  0
 52 71  1  0  0  0  0
 54 62  1  0  0  0  0
 55 63  1  0  0  0  0
 56 64  1  0  0  0  0
 57 64  1  0  0  0  0
 58 64  1  0  0  0  0
 59 76  1  0  0  0  0
 60 77  1  0  0  0  0
 61 64  1  0  0  0  0
 61 75  1  0  0  0  0
 62 76  1  0  0  0  0
 63 77  1  0  0  0  0
 65 68  1  0  0  0  0
M  CHG  2  76   1  77   1
M  ISO  4  29 101  36 100  71 100  84 101
M  END
> <Batch ID>
0173

> <Smiles>
CNC(C)C(=O)NC(C(=O)N1Cc2cc([101O:1][101c:1]3cc(C)nc(CNC(C)C4CCC[100N:0]4[100C:0](=O)N4CCCC(n5nc(-c6ccc(Oc7ccc(F)cc7F)cc6)c(C(N)=O)c5N)C4)n3)ccc2CC1C(=O)NC1CCCc2ccccc21)C(C)(C)C

> <Shape>
0.201

> <Color>
0.081

> <Negative vol penalty>
0.000

$$$$

  -OEChem-04052322423D

 91101  0     1  0  0  0  0  0999 V2000
  -24.6374  -31.4479   24.2608 C   0  0  0  0  0  0  0  0  0  0  0  0
  -25.0911  -30.1887   24.6401 C   0  0  0  0  0  0  0  0  0  0  0  0
  -21.0624  -21.9834   21.5097 C   0  0  0  0  0  0  0  0  0  0  0  0
  -21.3364  -22.9353   23.7133 C   0  0  0  0  0  0  0  0  0  0  0  0
  -24.4009  -31.7263   22.9152 C   0  0  0  0  0  0  0  0  0  0  0  0
  -25.3075  -29.2067   23.6741 C   0  0  0  0  0  0  0  0  0  0  0  0
  -29.5640  -23.6254   22.2428 C   0  0  0  0  0  0  0  0  0  0  0  0
  -20.1513  -22.9895   21.1884 C   0  0  0  0  0  0  0  0  0  0  0  0
  -20.4254  -23.9414   23.3920 C   0  0  0  0  0  0  0  0  0  0  0  0
  -29.4920  -22.2772   21.8954 C   0  0  0  0  0  0  0  0  0  0  0  0
  -20.4274  -26.8384   21.6518 C   0  0  0  0  0  0  0  0  0  0  0  0
  -20.7589  -28.1470   22.0028 C   0  0  0  0  0  0  0  0  0  0  0  0
  -29.1252  -22.8963   19.5929 C   0  0  0  0  0  0  0  0  0  0  0  0
  -28.3118  -17.3936   21.1634 C   0  0  0  0  0  0  0  0  0  0  0  0
  -18.7785  -28.2792   23.3803 C   0  0  0  0  0  0  0  0  0  0  0  0
  -21.6549  -21.9563   22.7722 C   0  0  0  0  0  0  0  0  0  0  0  0
  -23.9911  -20.9424   22.9205 C   0  0  0  0  0  0  0  0  0  0  0  0
  -24.6237  -30.7502   21.9312 C   0  0  0  0  0  0  0  0  0  0  0  0
  -29.4061  -24.6211   21.2680 C   0  0  0  0  0  0  0  0  0  0  0  0
  -25.0725  -29.4718   22.3142 C   0  0  0  0  0  0  0  0  0  0  0  0
  -29.1983  -24.2564   19.9301 C   0  0  0  0  0  0  0  0  0  0  0  0
  -28.2856  -16.1097   20.6319 C   0  0  0  0  0  0  0  0  0  0  0  0
  -29.2348  -15.7346   19.6811 C   0  0  0  0  0  0  0  0  0  0  0  0
  -19.8328  -23.9685   22.1295 C   0  0  0  0  0  0  0  0  0  0  0  0
  -29.2696  -21.9124   20.5707 C   0  0  0  0  0  0  0  0  0  0  0  0
  -19.2713  -26.2502   22.1650 C   0  0  0  0  0  0  0  0  0  0  0  0
  -19.9345  -28.8674   22.8670 C   0  0  0  0  0  0  0  0  0  0  0  0
  -18.4469  -26.9706   23.0293 C   0  0  0  0  0  0  0  0  0  0  0  0
  -22.5957  -20.9169   23.1048 C   0  0  0  0  0  0  0  0  0  0  0  0
  -30.1818  -16.6822   19.2930 C   0  0  0  0  0  0  0  0  0  0  0  0
  -29.2928  -18.2620   20.7151 C   0  0  0  0  0  0  0  0  0  0  0  0
  -24.4222  -19.7269   23.3928 C   0  0  0  0  0  0  0  0  0  0  0  0
  -24.8233  -21.9729   22.3714 C   0  0  0  0  0  0  0  0  0  0  0  0
  -27.3276  -26.9767   20.7839 C   0  0  0  0  0  0  0  0  0  0  0  0
  -29.3545  -27.7454   18.3708 C   0  0  0  0  0  0  0  0  0  0  0  0
  -31.7498  -26.7265   16.1636 C   0  0  0  0  0  0  0  0  0  0  0  0
  -24.0126  -14.2985   23.9205 C   0  0  0  0  0  0  0  0  0  0  0  0
  -24.3088  -31.0829   20.4943 C   0  0  0  0  0  0  0  0  0  0  0  0
  -29.5132  -26.0707   21.6546 C   0  0  0  0  0  0  0  0  0  0  0  0
  -29.0424  -25.2866   18.8424 C   0  0  0  0  0  0  0  0  0  0  0  0
  -31.1478  -16.3296   18.2019 C   0  0  0  0  0  0  0  0  0  0  0  0
  -24.9207  -30.1050   19.4945 C   0  0  0  0  0  0  0  0  0  0  0  0
  -22.0102  -16.1610   26.0354 C   0  0  0  0  0  0  0  0  0  0  0  0
  -24.6790  -28.6660   19.9390 C   0  0  0  0  0  0  0  0  0  0  0  0
  -22.0891  -17.5739   25.4570 C   0  0  0  0  0  0  0  0  0  0  0  0
  -27.4535  -14.9197   22.7081 C   0  0  0  0  0  0  0  0  0  0  0  0
  -25.8080  -15.6840   20.9448 C   0  0  0  0  0  0  0  0  0  0  0  0
  -21.9035  -15.1213   24.9255 C   0  0  0  0  0  0  0  0  0  0  0  0
  -26.3776  -13.9998   23.2803 C   0  0  0  0  0  0  0  0  0  0  0  0
  -24.7706  -14.7462   21.5551 C   0  0  0  0  0  0  0  0  0  0  0  0
  -23.1048  -16.5929   23.3427 C   0  0  0  0  0  0  0  0  0  0  0  0
  -30.7267  -13.8940   18.9336 C   0  0  0  0  0  0  0  0  0  0  0  0
  -27.2369  -15.1760   21.2067 C   0  0  0  0  0  0  0  0  0  0  0  0
  -29.2708  -14.3551   19.0769 C   0  0  2  0  0  0  0  0  0  0  0  0
  -25.3427  -28.3880   21.2932 C   0  0  1  0  0  0  0  0  0  0  0  0
  -28.8251  -27.0055   20.6646 C   0  0  1  0  0  0  0  0  0  0  0  0
  -23.2248  -17.6850   24.4244 C   0  0  1  0  0  0  0  0  0  0  0  0
  -28.4850  -14.2920   17.7670 C   0  0  0  0  0  0  0  0  0  0  0  0
  -33.1898  -27.5718   14.2903 C   0  0  0  0  0  0  0  0  0  0  0  0
  -32.8480  -13.1769   16.9327 C   0  0  0  0  0  0  0  0  0  0  0  0
  -32.6937  -15.5534   16.0945 C   0  0  0  0  0  0  0  0  0  0  0  0
  -26.9462  -27.6908   16.4980 C   0  0  0  0  0  0  0  0  0  0  0  0
  -28.5375  -27.5913   14.5677 C   0  0  0  0  0  0  0  0  0  0  0  0
  -28.5448  -29.5696   16.0872 C   0  0  0  0  0  0  0  0  0  0  0  0
  -34.2379  -26.0973   17.6375 C   0  0  0  0  0  0  0  0  0  0  0  0
  -29.3598  -19.6434   21.2773 C   0  0  0  0  0  0  0  0  0  1  0  0
  -29.4739  -27.3684   16.9138 C   0  0  1  0  0  0  0  0  0  0  0  0
  -33.0933  -27.3251   15.7879 C   0  0  2  0  0  0  0  0  0  0  0  0
  -31.9786  -14.4178   16.8087 C   0  0  0  0  0  0  0  0  0  0  0  0
  -28.3765  -28.0354   16.0373 C   0  0  0  0  0  0  0  0  0  0  0  0
  -22.1687  -19.7755   23.6515 N   0  0  0  0  0  0  0  0  0  0  0  0
  -30.2236  -17.9414   19.7889 N   0  0  0  0  0  0  0  0  0  0  0  0
  -23.3024  -19.0725   23.8146 N   0  0  0  0  0  0  0  0  0  0  0  0
  -29.1487  -26.6909   19.2716 N   0  0  0  0  0  0  0  0  0  0  0  0
  -22.9955  -15.2641   23.9628 N   0  0  0  0  0  0  0  0  0  0  0  0
  -25.0356  -14.4962   22.9785 N   0  0  0  0  0  0  0  0  0  0  0  0
  -25.6461  -19.1647   23.4843 N   0  0  0  0  0  0  0  0  0  0  0  0
  -24.2175  -23.1586   21.9338 N   0  0  0  0  0  0  0  0  0  0  0  0
  -26.7670  -28.1921   21.1272 N   0  0  0  0  0  0  0  0  0  0  0  0
  -30.8383  -27.6990   16.5172 N   0  0  0  0  0  0  0  0  0  0  0  0
  -31.6090  -14.8816   18.1920 N   0  3  1  0  0  0  0  0  0  0  0  0
  -34.1984  -26.4076   16.1852 N   0  3  0  0  0  0  0  0  0  0  0  0
  -26.0653  -21.8394   22.2567 O   0  0  0  0  0  0  0  0  0  0  0  0
  -26.7251  -25.9296   20.5780 O   0  0  0  0  0  0  0  0  0  0  0  0
  -29.4478  -28.9310   18.6982 O   0  0  0  0  0  0  0  0  0  0  0  0
  -31.5296  -25.5176   16.1418 O   0  0  0  0  0  0  0  0  0  0  0  0
  -24.0124  -13.3218   24.6802 O   0  0  0  0  0  0  0  0  0  0  0  0
  -18.9440  -24.9506   21.8162 O   0  0  0  0  0  0  0  0  0  0  0  0
  -29.1977  -20.5880   20.2266 O   0  0  0  0  0  0  0  0  0  1  0  0
  -20.2538  -30.1235   23.2052 F   0  0  0  0  0  0  0  0  0  0  0  0
  -17.3357  -26.4104   23.5265 F   0  0  0  0  0  0  0  0  0  0  0  0
  1  2  1  0  0  0  0
  1  5  2  0  0  0  0
  2  6  2  0  0  0  0
  3  8  2  0  0  0  0
  3 16  1  0  0  0  0
  4  9  1  0  0  0  0
  4 16  2  0  0  0  0
  5 18  1  0  0  0  0
  6 20  1  0  0  0  0
  7 10  2  0  0  0  0
  7 19  1  0  0  0  0
  8 24  1  0  0  0  0
  9 24  2  0  0  0  0
 10 25  1  0  0  0  0
 11 12  2  0  0  0  0
 11 26  1  0  0  0  0
 12 27  1  0  0  0  0
 13 21  1  0  0  0  0
 13 25  2  0  0  0  0
 14 22  2  0  0  0  0
 14 31  1  0  0  0  0
 15 27  2  0  0  0  0
 15 28  1  0  0  0  0
 16 29  1  0  0  0  0
 17 29  1  0  0  0  0
 17 32  2  0  0  0  0
 17 33  1  0  0  0  0
 18 20  2  0  0  0  0
 18 38  1  0  0  0  0
 19 21  2  0  0  0  0
 19 39  1  0  0  0  0
 20 55  1  0  0  0  0
 21 40  1  0  0  0  0
 22 23  1  0  0  0  0
 22 53  1  0  0  0  0
 23 30  2  0  0  0  0
 23 54  1  0  0  0  0
 24 88  1  0  0  0  0
 25 89  1  0  0  0  0
 26 28  2  0  0  0  0
 26 88  1  0  0  0  0
 27 90  1  0  0  0  0
 28 91  1  0  0  0  0
 29 71  2  0  0  0  0
 30 41  1  0  0  0  0
 30 72  1  0  0  0  0
 31 66  1  0  0  0  0
 31 72  2  0  0  0  0
 32 73  1  0  0  0  0
 32 77  1  0  0  0  0
 33 78  1  0  0  0  0
 33 83  2  0  0  0  0
 34 56  1  0  0  0  0
 34 79  1  0  0  0  0
 34 84  2  0  0  0  0
 35 67  1  0  0  0  0
 35 74  1  0  0  0  0
 35 85  2  0  0  0  0
 36 68  1  0  0  0  0
 36 80  1  0  0  0  0
 36 86  2  0  0  0  0
 37 75  1  0  0  0  0
 37 76  1  0  0  0  0
 37 87  2  0  0  0  0
 38 42  1  0  0  0  0
 39 56  1  0  0  0  0
 40 74  1  0  0  0  0
 41 81  1  0  0  0  0
 42 44  1  0  0  0  0
 43 45  1  0  0  0  0
 43 48  1  0  0  0  0
 44 55  1  0  0  0  0
 45 57  1  0  0  0  0
 46 49  1  0  0  0  0
 46 53  1  0  0  0  0
 47 50  1  0  0  0  0
 47 53  1  0  0  0  0
 48 75  1  0  0  0  0
 49 76  1  0  0  0  0
 50 76  1  0  0  0  0
 51 57  1  0  0  0  0
 51 75  1  0  0  0  0
 52 54  1  0  0  0  0
 52 81  1  0  0  0  0
 54 58  1  0  0  0  0
 55 79  1  0  0  0  0
 56 74  1  0  0  0  0
 57 73  1  0  0  0  0
 59 68  1  0  0  0  0
 60 69  1  0  0  0  0
 61 69  1  0  0  0  0
 62 70  1  0  0  0  0
 63 70  1  0  0  0  0
 64 70  1  0  0  0  0
 65 82  1  0  0  0  0
 66 89  1  0  0  0  0
 67 70  1  0  0  0  0
 67 80  1  0  0  0  0
 68 82  1  0  0  0  0
 69 81  1  0  0  0  0
 71 73  1  0  0  0  0
M  CHG  2  81   1  82   1
M  ISO  4  37 100  66 101  76 100  89 101
M  END
> <Batch ID>
0173

> <Smiles>
CNC(C)C(=O)NC(C(=O)N1Cc2cc([101O:1][101CH2:1]c3cc(C4CC[100N:0]([100C:0](=O)N5CCCC(n6nc(-c7ccc(Oc8ccc(F)cc8F)cc7)c(C(N)=O)c6N)C5)CC4)c4c(n3)CN(C(C)C)CC4C)ccc2CC1C(=O)NC1CCCc2ccccc21)C(C)(C)C

> <Shape>
0.209

> <Color>
0.065

> <Negative vol penalty>
0.000

$$$$

  -OEChem-04052322423D

 86 96  0     1  0  0  0  0  0999 V2000
  -26.7181  -31.5493   21.9989 C   0  0  0  0  0  0  0  0  0  0  0  0
  -26.6026  -30.5686   22.9788 C   0  0  0  0  0  0  0  0  0  0  0  0
  -23.2043  -10.0779   19.9119 C   0  0  0  0  0  0  0  0  0  0  0  0
  -24.2177   -9.5737   22.0464 C   0  0  0  0  0  0  0  0  0  0  0  0
  -26.6481  -31.1983   20.6514 C   0  0  0  0  0  0  0  0  0  0  0  0
  -26.4159  -29.2364   22.6118 C   0  0  0  0  0  0  0  0  0  0  0  0
  -28.0190  -22.5842   24.7321 C   0  0  0  0  0  0  0  0  0  0  0  0
  -22.5841   -8.8285   19.9112 C   0  0  0  0  0  0  0  0  0  0  0  0
  -23.5975   -8.3242   22.0457 C   0  0  0  0  0  0  0  0  0  0  0  0
  -27.4044  -21.3621   25.0013 C   0  0  0  0  0  0  0  0  0  0  0  0
  -20.5296   -7.0678   22.7011 C   0  0  0  0  0  0  0  0  0  0  0  0
  -19.9163   -6.6498   23.8820 C   0  0  0  0  0  0  0  0  0  0  0  0
  -27.3781  -20.8623   22.6415 C   0  0  0  0  0  0  0  0  0  0  0  0
  -21.3780   -4.7278   23.9608 C   0  0  0  0  0  0  0  0  0  0  0  0
  -24.0211  -10.4505   20.9795 C   0  0  0  0  0  0  0  0  0  0  0  0
  -24.1529  -12.9429   21.5067 C   0  0  0  0  0  0  0  0  0  0  0  0
  -26.4701  -29.8598   20.2674 C   0  0  0  0  0  0  0  0  0  0  0  0
  -28.3083  -22.9600   23.4124 C   0  0  0  0  0  0  0  0  0  0  0  0
  -26.3421  -28.8673   21.2579 C   0  0  0  0  0  0  0  0  0  0  0  0
  -27.9987  -22.0886   22.3584 C   0  0  0  0  0  0  0  0  0  0  0  0
  -22.7807   -7.9517   20.9781 C   0  0  0  0  0  0  0  0  0  0  0  0
  -27.0813  -20.5022   23.9557 C   0  0  0  0  0  0  0  0  0  0  0  0
  -21.5671   -6.3158   22.1499 C   0  0  0  0  0  0  0  0  0  0  0  0
  -20.3405   -5.4798   24.5119 C   0  0  0  0  0  0  0  0  0  0  0  0
  -21.9913   -5.1458   22.7798 C   0  0  0  0  0  0  0  0  0  0  0  0
  -24.6625  -11.7407   20.9805 C   0  0  0  0  0  0  0  0  0  0  0  0
  -25.1360  -13.8697   21.2598 C   0  0  0  0  0  0  0  0  0  0  0  0
  -29.0801  -14.5069   25.2588 C   0  0  0  0  0  0  0  0  0  0  0  0
  -30.8558  -13.6287   24.2043 C   0  0  0  0  0  0  0  0  0  0  0  0
  -30.6434  -13.3982   26.4266 C   0  0  0  0  0  0  0  0  0  0  0  0
  -22.9027  -13.1989   22.1603 C   0  0  0  0  0  0  0  0  0  0  0  0
  -27.3995  -25.3356   21.5060 C   0  0  0  0  0  0  0  0  0  0  0  0
  -29.6168  -24.0624   19.5098 C   0  0  0  0  0  0  0  0  0  0  0  0
  -31.4268  -21.3315   18.5540 C   0  0  0  0  0  0  0  0  0  0  0  0
  -31.0196  -13.4042   20.5224 C   0  0  0  0  0  0  0  0  0  0  0  0
  -26.3532  -29.5351   18.7993 C   0  0  0  0  0  0  0  0  0  0  0  0
  -28.9957  -24.2700   23.1408 C   0  0  0  0  0  0  0  0  0  0  0  0
  -28.3067  -22.4362   20.9256 C   0  0  0  0  0  0  0  0  0  0  0  0
  -26.5290  -28.0511   18.4877 C   0  0  0  0  0  0  0  0  0  0  0  0
  -28.7058  -14.8562   18.2263 C   0  0  0  0  0  0  0  0  0  0  0  0
  -25.7047  -27.2022   19.4504 C   0  0  0  0  0  0  0  0  0  0  0  0
  -27.3552  -14.3166   18.7017 C   0  0  0  0  0  0  0  0  0  0  0  0
  -27.5990  -16.5365   24.2514 C   0  0  0  0  0  0  0  0  0  0  0  0
  -27.3980  -16.3209   26.3579 C   0  0  0  0  0  0  0  0  0  0  0  0
  -29.8137  -13.8176   18.3838 C   0  0  0  0  0  0  0  0  0  0  0  0
  -28.5844  -12.7151   20.2267 C   0  0  0  0  0  0  0  0  0  0  0  0
  -26.1637  -27.4080   20.8990 C   0  0  1  0  0  0  0  0  0  0  0  0
  -27.7184  -15.3150   25.2116 C   0  0  0  0  0  0  0  0  0  0  0  0
  -31.6286  -13.3787   22.9343 C   0  0  1  0  0  0  0  0  0  0  0  0
  -28.7776  -24.7756   21.7181 C   0  0  1  0  0  0  0  0  0  0  0  0
  -26.6692  -17.1893   25.3035 C   0  0  0  0  0  0  0  0  0  0  0  0
  -27.4552  -13.7549   20.1322 C   0  0  2  0  0  0  0  0  0  0  0  0
  -31.8698  -12.0104   22.3865 C   0  0  1  0  0  0  0  0  0  0  0  0
  -31.1620  -12.8848   27.7266 C   0  0  0  0  0  0  0  0  0  0  0  0
  -31.3961  -10.7600   23.0425 C   0  0  0  0  0  0  0  0  0  0  0  0
  -33.1292  -20.5887   16.8666 C   0  0  0  0  0  0  0  0  0  0  0  0
  -27.4438  -23.9492   17.3708 C   0  0  0  0  0  0  0  0  0  0  0  0
  -28.8951  -22.3702   16.0790 C   0  0  0  0  0  0  0  0  0  0  0  0
  -29.6844  -24.6905   16.5435 C   0  0  0  0  0  0  0  0  0  0  0  0
  -33.3990  -20.6755   20.6608 C   0  0  0  0  0  0  0  0  0  0  0  0
  -26.7786  -18.6910   25.4670 C   0  0  0  0  0  0  0  0  0  1  0  0
  -29.6027  -23.0084   18.4291 C   0  0  1  0  0  0  0  0  0  0  0  0
  -32.9056  -21.1558   18.2599 C   0  0  2  0  0  0  0  0  0  0  0  0
  -28.8988  -23.4986   17.1323 C   0  0  0  0  0  0  0  0  0  0  0  0
  -25.8750  -11.8875   20.4400 N   0  0  0  0  0  0  0  0  0  0  0  0
  -29.7118  -14.3218   24.0883 N   0  0  0  0  0  0  0  0  0  0  0  0
  -29.4845  -14.0753   26.4644 N   0  0  0  0  0  0  0  0  0  0  0  0
  -31.3831  -13.1366   25.3369 N   0  0  0  0  0  0  0  0  0  0  0  0
  -26.1356  -13.1928   20.6252 N   0  0  0  0  0  0  0  0  0  0  0  0
  -28.9737  -23.7310   20.7108 N   0  0  0  0  0  0  0  0  0  0  0  0
  -29.8468  -13.2975   19.7504 N   0  0  0  0  0  0  0  0  0  0  0  0
  -30.8919  -12.8693   21.8032 N   0  0  0  0  0  0  0  0  0  0  0  0
  -25.2343  -15.1896   21.5258 N   0  0  0  0  0  0  0  0  0  0  0  0
  -22.0084  -12.1337   22.3325 N   0  0  0  0  0  0  0  0  0  0  0  0
  -27.3833  -26.6713   21.1523 N   0  0  0  0  0  0  0  0  0  0  0  0
  -30.9905  -22.6009   18.2382 N   0  0  0  0  0  0  0  0  0  0  0  0
  -33.5240  -20.2289   19.2495 N   0  3  0  0  0  0  0  0  0  0  0  0
  -22.5811  -14.3420   22.5646 O   0  0  0  0  0  0  0  0  0  0  0  0
  -26.4232  -24.6092   21.6509 O   0  0  0  0  0  0  0  0  0  0  0  0
  -30.1840  -25.1373   19.2988 O   0  0  0  0  0  0  0  0  0  0  0  0
  -30.7276  -20.4315   19.0141 O   0  0  0  0  0  0  0  0  0  0  0  0
  -32.0588  -13.9256   20.1094 O   0  0  0  0  0  0  0  0  0  0  0  0
  -22.1755   -6.7325   20.9778 O   0  0  0  0  0  0  0  0  0  0  0  0
  -26.4808  -19.3090   24.2157 O   0  0  0  0  0  0  0  0  0  1  0  0
  -19.7525   -5.0793   25.6469 F   0  0  0  0  0  0  0  0  0  0  0  0
  -22.9884   -4.4198   22.2558 F   0  0  0  0  0  0  0  0  0  0  0  0
  1  2  1  0  0  0  0
  1  5  2  0  0  0  0
  2  6  2  0  0  0  0
  3  8  2  0  0  0  0
  3 15  1  0  0  0  0
  4  9  1  0  0  0  0
  4 15  2  0  0  0  0
  5 17  1  0  0  0  0
  6 19  1  0  0  0  0
  7 10  2  0  0  0  0
  7 18  1  0  0  0  0
  8 21  1  0  0  0  0
  9 21  2  0  0  0  0
 10 22  1  0  0  0  0
 11 12  2  0  0  0  0
 11 23  1  0  0  0  0
 12 24  1  0  0  0  0
 13 20  1  0  0  0  0
 13 22  2  0  0  0  0
 14 24  2  0  0  0  0
 14 25  1  0  0  0  0
 15 26  1  0  0  0  0
 16 26  1  0  0  0  0
 16 27  2  0  0  0  0
 16 31  1  0  0  0  0
 17 19  2  0  0  0  0
 17 36  1  0  0  0  0
 18 20  2  0  0  0  0
 18 37  1  0  0  0  0
 19 47  1  0  0  0  0
 20 38  1  0  0  0  0
 21 83  1  0  0  0  0
 22 84  1  0  0  0  0
 23 25  2  0  0  0  0
 23 83  1  0  0  0  0
 24 85  1  0  0  0  0
 25 86  1  0  0  0  0
 26 65  2  0  0  0  0
 27 69  1  0  0  0  0
 27 73  1  0  0  0  0
 28 48  1  0  0  0  0
 28 66  2  0  0  0  0
 28 67  1  0  0  0  0
 29 49  1  0  0  0  0
 29 66  1  0  0  0  0
 29 68  2  0  0  0  0
 30 54  1  0  0  0  0
 30 67  2  0  0  0  0
 30 68  1  0  0  0  0
 31 74  1  0  0  0  0
 31 78  2  0  0  0  0
 32 50  1  0  0  0  0
 32 75  1  0  0  0  0
 32 79  2  0  0  0  0
 33 62  1  0  0  0  0
 33 70  1  0  0  0  0
 33 80  2  0  0  0  0
 34 63  1  0  0  0  0
 34 76  1  0  0  0  0
 34 81  2  0  0  0  0
 35 71  1  0  0  0  0
 35 72  1  0  0  0  0
 35 82  2  0  0  0  0
 36 39  1  0  0  0  0
 37 50  1  0  0  0  0
 38 70  1  0  0  0  0
 39 41  1  0  0  0  0
 40 42  1  0  0  0  0
 40 45  1  0  0  0  0
 41 47  1  0  0  0  0
 42 52  1  0  0  0  0
 43 48  1  0  0  0  0
 43 51  1  0  0  0  0
 44 48  1  0  0  0  0
 44 51  1  0  0  0  0
 45 71  1  0  0  0  0
 46 52  1  0  0  0  0
 46 71  1  0  0  0  0
 47 75  1  0  0  0  0
 49 53  1  0  0  0  0
 49 72  1  0  0  0  0
 50 70  1  0  0  0  0
 51 61  1  0  0  0  0
 52 69  1  0  0  0  0
 53 55  1  0  0  0  0
 53 72  1  0  0  0  0
 56 63  1  0  0  0  0
 57 64  1  0  0  0  0
 58 64  1  0  0  0  0
 59 64  1  0  0  0  0
 60 77  1  0  0  0  0
 61 84  1  0  0  0  0
 62 64  1  0  0  0  0
 62 76  1  0  0  0  0
 63 77  1  0  0  0  0
 65 69  1  0  0  0  0
M  CHG  1  77   1
M  ISO  4  35 100  61 101  72 100  84 101
M  END
> <Batch ID>
0173

> <Smiles>
CNC(C)C(=O)NC(C(=O)N1Cc2cc([101O:1][101CH2:1]C3CC(c4nc(C)nc(C5C(C)[100N:0]5[100C:0](=O)N5CCCC(n6nc(-c7ccc(Oc8ccc(F)cc8F)cc7)c(C(N)=O)c6N)C5)n4)C3)ccc2CC1C(=O)NC1CCCc2ccccc21)C(C)(C)C

> <Shape>
0.245

> <Color>
0.145

> <Negative vol penalty>
0.000

$$$$

  -OEChem-04052322423D

 83 92  0     1  0  0  0  0  0999 V2000
  -30.6174  -20.8356   17.0940 C   0  0  0  0  0  0  0  0  0  0  0  0
  -30.4363  -21.2639   18.4051 C   0  0  0  0  0  0  0  0  0  0  0  0
  -26.6412  -12.0133   21.7267 C   0  0  0  0  0  0  0  0  0  0  0  0
  -25.8430  -13.8133   20.3266 C   0  0  0  0  0  0  0  0  0  0  0  0
  -30.5010  -21.7440   16.0427 C   0  0  0  0  0  0  0  0  0  0  0  0
  -30.1397  -22.6012   18.6659 C   0  0  0  0  0  0  0  0  0  0  0  0
  -26.4209  -23.1401   22.0608 C   0  0  0  0  0  0  0  0  0  0  0  0
  -25.3750  -11.4289   21.6972 C   0  0  0  0  0  0  0  0  0  0  0  0
  -24.5768  -13.2288   20.2971 C   0  0  0  0  0  0  0  0  0  0  0  0
  -26.7528  -22.9595   23.4028 C   0  0  0  0  0  0  0  0  0  0  0  0
  -22.4473   -9.2739   21.6937 C   0  0  0  0  0  0  0  0  0  0  0  0
  -22.3730   -7.8982   21.4762 C   0  0  0  0  0  0  0  0  0  0  0  0
  -26.8614  -25.3520   23.6916 C   0  0  0  0  0  0  0  0  0  0  0  0
  -23.4711   -8.1763   19.3422 C   0  0  0  0  0  0  0  0  0  0  0  0
  -26.8752  -13.2055   21.0414 C   0  0  0  0  0  0  0  0  0  0  0  0
  -29.2448  -13.5843   20.1759 C   0  0  0  0  0  0  0  0  0  0  0  0
  -30.1933  -23.0912   16.2901 C   0  0  0  0  0  0  0  0  0  0  0  0
  -26.3173  -24.4300   21.5205 C   0  0  0  0  0  0  0  0  0  0  0  0
  -30.0204  -23.5288   17.6171 C   0  0  0  0  0  0  0  0  0  0  0  0
  -26.5256  -25.5463   22.3431 C   0  0  0  0  0  0  0  0  0  0  0  0
  -24.3428  -12.0366   20.9824 C   0  0  0  0  0  0  0  0  0  0  0  0
  -26.9760  -24.0655   24.2177 C   0  0  0  0  0  0  0  0  0  0  0  0
  -23.0335  -10.1009   20.7354 C   0  0  0  0  0  0  0  0  0  0  0  0
  -22.8849   -7.3493   20.3004 C   0  0  0  0  0  0  0  0  0  0  0  0
  -23.5454   -9.5521   19.5597 C   0  0  0  0  0  0  0  0  0  0  0  0
  -28.1827  -13.8100   21.0719 C   0  0  0  0  0  0  0  0  0  0  0  0
  -30.2578  -14.3908   20.6339 C   0  0  0  0  0  0  0  0  0  0  0  0
  -29.3098  -12.7226   19.0318 C   0  0  0  0  0  0  0  0  0  0  0  0
  -27.8334  -26.0316   19.2314 C   0  0  0  0  0  0  0  0  0  0  0  0
  -25.5670  -28.2719   19.8370 C   0  0  0  0  0  0  0  0  0  0  0  0
  -23.3226  -29.6015   22.0373 C   0  0  0  0  0  0  0  0  0  0  0  0
  -31.1966  -19.4154   22.8799 C   0  0  0  0  0  0  0  0  0  0  0  0
  -30.1243  -24.0459   15.1246 C   0  0  0  0  0  0  0  0  0  0  0  0
  -25.9322  -24.6083   20.0775 C   0  0  0  0  0  0  0  0  0  0  0  0
  -26.4068  -26.9525   21.8167 C   0  0  0  0  0  0  0  0  0  0  0  0
  -29.4381  -25.3677   15.4597 C   0  0  0  0  0  0  0  0  0  0  0  0
  -31.3368  -16.5554   24.9287 C   0  0  0  0  0  0  0  0  0  0  0  0
  -29.9666  -25.9243   16.7779 C   0  0  0  0  0  0  0  0  0  0  0  0
  -34.5371  -24.1026   23.4807 C   0  0  0  0  0  0  0  0  0  0  0  0
  -33.7821  -24.8395   24.5516 C   0  0  0  0  0  0  0  0  0  0  0  0
  -30.6185  -15.5244   24.0611 C   0  0  0  0  0  0  0  0  0  0  0  0
  -30.6806  -17.9358   24.8529 C   0  0  0  0  0  0  0  0  0  0  0  0
  -32.7419  -21.2821   23.4325 C   0  0  0  0  0  0  0  0  0  0  0  0
  -29.7871  -17.4024   22.6031 C   0  0  0  0  0  0  0  0  0  0  0  0
  -30.7004  -21.1469   24.6971 C   0  0  0  0  0  0  0  0  0  0  0  0
  -29.6731  -24.9662   17.9386 C   0  0  1  0  0  0  0  0  0  0  0  0
  -26.3583  -25.9579   19.5078 C   0  0  1  0  0  0  0  0  0  0  0  0
  -33.7346  -23.3377   24.4965 C   0  0  0  0  0  0  0  0  0  0  0  0
  -32.4748  -22.6382   24.0910 C   0  0  2  0  0  0  0  0  0  0  0  0
  -30.4771  -16.0307   22.6160 C   0  0  2  0  0  0  0  0  0  0  0  0
  -31.5844  -22.2446   25.2677 C   0  0  1  0  0  0  0  0  0  0  0  0
  -21.6420  -31.4517   22.2603 C   0  0  0  0  0  0  0  0  0  0  0  0
  -29.8877  -25.3120   27.8918 C   0  0  0  0  0  0  0  0  0  0  0  0
  -27.8323  -30.2806   20.2161 C   0  0  0  0  0  0  0  0  0  0  0  0
  -26.1970  -31.8072   21.3401 C   0  0  0  0  0  0  0  0  0  0  0  0
  -25.8593  -31.1590   18.9551 C   0  0  0  0  0  0  0  0  0  0  0  0
  -21.1002  -27.6904   22.4468 C   0  0  0  0  0  0  0  0  0  0  0  0
  -29.7491  -23.0352   26.7662 C   0  0  0  0  0  0  0  0  0  0  0  0
  -28.1238  -24.8895   26.1307 C   0  0  0  0  0  0  0  0  0  1  0  0
  -25.4520  -29.4504   20.7735 C   0  0  1  0  0  0  0  0  0  0  0  0
  -21.8662  -29.9979   21.8746 C   0  0  2  0  0  0  0  0  0  0  0  0
  -28.9716  -24.2660   27.2465 C   0  0  2  0  0  0  0  0  0  0  0  0
  -26.3393  -30.6479   20.3310 C   0  0  0  0  0  0  0  0  0  0  0  0
  -28.4923  -14.6909   22.0270 N   0  0  0  0  0  0  0  0  0  0  0  0
  -29.7604  -15.0257   21.7338 N   0  0  0  0  0  0  0  0  0  0  0  0
  -26.0342  -27.0748   20.3976 N   0  0  0  0  0  0  0  0  0  0  0  0
  -30.4885  -18.3583   23.4618 N   0  0  0  0  0  0  0  0  0  0  0  0
  -31.5583  -20.4726   23.7167 N   0  0  0  0  0  0  0  0  0  0  0  0
  -31.5166  -14.6118   20.1991 N   0  0  0  0  0  0  0  0  0  0  0  0
  -28.1787  -11.9634   18.7020 N   0  0  0  0  0  0  0  0  0  0  0  0
  -28.2883  -25.0740   18.3451 N   0  0  0  0  0  0  0  0  0  0  0  0
  -24.0297  -29.7621   20.8645 N   0  0  0  0  0  0  0  0  0  0  0  0
  -30.7705  -23.3829   25.7363 N   0  3  0  0  0  0  0  0  0  0  0  0
  -20.9980  -29.1443   22.7340 N   0  3  0  0  0  0  0  0  0  0  0  0
  -30.3458  -12.6162   18.3326 O   0  0  0  0  0  0  0  0  0  0  0  0
  -28.5086  -26.8944   19.7805 O   0  0  0  0  0  0  0  0  0  0  0  0
  -25.2471  -28.4067   18.6533 O   0  0  0  0  0  0  0  0  0  0  0  0
  -23.7873  -29.1941   23.0996 O   0  0  0  0  0  0  0  0  0  0  0  0
  -31.4540  -19.4291   21.6699 O   0  0  0  0  0  0  0  0  0  0  0  0
  -23.1072  -11.4665   20.9532 O   0  0  0  0  0  0  0  0  0  0  0  0
  -27.3029  -23.8909   25.5367 O   0  0  0  0  0  0  0  0  0  1  0  0
  -22.8148   -6.0280   20.0923 F   0  0  0  0  0  0  0  0  0  0  0  0
  -24.1107  -10.3413   18.6360 F   0  0  0  0  0  0  0  0  0  0  0  0
  1  2  1  0  0  0  0
  1  5  2  0  0  0  0
  2  6  2  0  0  0  0
  3  8  2  0  0  0  0
  3 15  1  0  0  0  0
  4  9  1  0  0  0  0
  4 15  2  0  0  0  0
  5 17  1  0  0  0  0
  6 19  1  0  0  0  0
  7 10  2  0  0  0  0
  7 18  1  0  0  0  0
  8 21  1  0  0  0  0
  9 21  2  0  0  0  0
 10 22  1  0  0  0  0
 11 12  2  0  0  0  0
 11 23  1  0  0  0  0
 12 24  1  0  0  0  0
 13 20  1  0  0  0  0
 13 22  2  0  0  0  0
 14 24  2  0  0  0  0
 14 25  1  0  0  0  0
 15 26  1  0  0  0  0
 16 26  1  0  0  0  0
 16 27  2  0  0  0  0
 16 28  1  0  0  0  0
 17 19  2  0  0  0  0
 17 33  1  0  0  0  0
 18 20  2  0  0  0  0
 18 34  1  0  0  0  0
 19 46  1  0  0  0  0
 20 35  1  0  0  0  0
 21 80  1  0  0  0  0
 22 81  1  0  0  0  0
 23 25  2  0  0  0  0
 23 80  1  0  0  0  0
 24 82  1  0  0  0  0
 25 83  1  0  0  0  0
 26 64  2  0  0  0  0
 27 65  1  0  0  0  0
 27 69  1  0  0  0  0
 28 70  1  0  0  0  0
 28 75  2  0  0  0  0
 29 47  1  0  0  0  0
 29 71  1  0  0  0  0
 29 76  2  0  0  0  0
 30 60  1  0  0  0  0
 30 66  1  0  0  0  0
 30 77  2  0  0  0  0
 31 61  1  0  0  0  0
 31 72  1  0  0  0  0
 31 78  2  0  0  0  0
 32 67  1  0  0  0  0
 32 68  1  0  0  0  0
 32 79  2  0  0  0  0
 33 36  1  0  0  0  0
 34 47  1  0  0  0  0
 35 66  1  0  0  0  0
 36 38  1  0  0  0  0
 37 41  1  0  0  0  0
 37 42  1  0  0  0  0
 38 46  1  0  0  0  0
 39 40  1  0  0  0  0
 39 48  1  0  0  0  0
 40 48  1  0  0  0  0
 41 50  1  0  0  0  0
 42 67  1  0  0  0  0
 43 49  1  0  0  0  0
 43 68  1  0  0  0  0
 44 50  1  0  0  0  0
 44 67  1  0  0  0  0
 45 51  1  0  0  0  0
 45 68  1  0  0  0  0
 46 71  1  0  0  0  0
 47 66  1  0  0  0  0
 48 49  1  0  0  0  0
 49 51  1  0  0  0  0
 50 65  1  0  0  0  0
 51 73  1  0  0  0  0
 52 61  1  0  0  0  0
 53 62  1  0  0  0  0
 54 63  1  0  0  0  0
 55 63  1  0  0  0  0
 56 63  1  0  0  0  0
 57 74  1  0  0  0  0
 58 62  1  0  0  0  0
 58 73  1  0  0  0  0
 59 62  1  0  0  0  0
 59 81  1  0  0  0  0
 60 63  1  0  0  0  0
 60 72  1  0  0  0  0
 61 74  1  0  0  0  0
 64 65  1  0  0  0  0
M  CHG  2  73   1  74   1
M  ISO  4  32 100  59 101  68 100  81 101
M  END
> <Batch ID>
0173

> <Smiles>
CNC(C)C(=O)NC(C(=O)N1Cc2cc([101O:1][101CH2:1]C(C)CNC3C[100N:0]([100C:0](=O)N4CCCC(n5nc(-c6ccc(Oc7ccc(F)cc7F)cc6)c(C(N)=O)c5N)C4)CC3C3CC3)ccc2CC1C(=O)NC1CCCc2ccccc21)C(C)(C)C

> <Shape>
0.246

> <Color>
0.088

> <Negative vol penalty>
0.000

$$$$

  -OEChem-04052322423D

 94105  0     1  0  0  0  0  0999 V2000
  -17.6545  -25.8119   23.1262 C   0  0  0  0  0  0  0  0  0  0  0  0
  -18.9208  -25.4387   22.6875 C   0  0  0  0  0  0  0  0  0  0  0  0
  -24.3213  -15.1329   18.9406 C   0  0  0  0  0  0  0  0  0  0  0  0
  -23.2266  -14.8346   21.0736 C   0  0  0  0  0  0  0  0  0  0  0  0
  -17.2513  -27.1436   23.0366 C   0  0  0  0  0  0  0  0  0  0  0  0
  -19.7844  -26.3969   22.1578 C   0  0  0  0  0  0  0  0  0  0  0  0
  -25.8817  -26.5627   22.7068 C   0  0  0  0  0  0  0  0  0  0  0  0
  -24.9870  -13.9193   19.1125 C   0  0  0  0  0  0  0  0  0  0  0  0
  -23.8923  -13.6209   21.2455 C   0  0  0  0  0  0  0  0  0  0  0  0
  -26.9113  -26.1639   21.8556 C   0  0  0  0  0  0  0  0  0  0  0  0
  -23.5940  -10.4404   20.1427 C   0  0  0  0  0  0  0  0  0  0  0  0
  -22.8483   -9.3527   20.5970 C   0  0  0  0  0  0  0  0  0  0  0  0
  -27.1052  -28.4260   21.0403 C   0  0  0  0  0  0  0  0  0  0  0  0
  -24.2801   -9.1808   22.5355 C   0  0  0  0  0  0  0  0  0  0  0  0
  -23.4411  -15.5906   19.9212 C   0  0  0  0  0  0  0  0  0  0  0  0
  -21.5030  -17.0493   19.1315 C   0  0  0  0  0  0  0  0  0  0  0  0
  -18.1140  -28.1202   22.5145 C   0  0  0  0  0  0  0  0  0  0  0  0
  -25.4480  -27.8961   22.7234 C   0  0  0  0  0  0  0  0  0  0  0  0
  -19.3919  -27.7427   22.0599 C   0  0  0  0  0  0  0  0  0  0  0  0
  -26.0716  -28.8396   21.8946 C   0  0  0  0  0  0  0  0  0  0  0  0
  -31.2491  -25.7922   19.4281 C   0  0  0  0  0  0  0  0  0  0  0  0
  -29.8823  -24.2056   18.2256 C   0  0  0  0  0  0  0  0  0  0  0  0
  -30.0405  -25.1082   19.2685 C   0  0  0  0  0  0  0  0  0  0  0  0
  -24.7724  -13.1633   20.2649 C   0  0  0  0  0  0  0  0  0  0  0  0
  -27.5213  -27.0950   21.0201 C   0  0  0  0  0  0  0  0  0  0  0  0
  -24.6828  -10.8983   20.8848 C   0  0  0  0  0  0  0  0  0  0  0  0
  -23.1913   -8.7229   21.7934 C   0  0  0  0  0  0  0  0  0  0  0  0
  -25.0258  -10.2685   22.0812 C   0  0  0  0  0  0  0  0  0  0  0  0
  -22.7536  -16.8445   19.7445 C   0  0  0  0  0  0  0  0  0  0  0  0
  -32.2861  -25.5156   18.5315 C   0  0  0  0  0  0  0  0  0  0  0  0
  -30.9521  -24.0160   17.3723 C   0  0  0  0  0  0  0  0  0  0  0  0
  -21.2969  -18.4046   19.2163 C   0  0  0  0  0  0  0  0  0  0  0  0
  -20.6076  -16.0993   18.5386 C   0  0  0  0  0  0  0  0  0  0  0  0
  -22.7082  -29.3720   22.0758 C   0  0  0  0  0  0  0  0  0  0  0  0
  -24.2979  -31.9732   23.1843 C   0  0  0  0  0  0  0  0  0  0  0  0
  -27.2890  -33.5079   23.7715 C   0  0  0  0  0  0  0  0  0  0  0  0
  -24.8104  -23.0890   19.6117 C   0  0  0  0  0  0  0  0  0  0  0  0
  -17.6162  -29.5388   22.3940 C   0  0  0  0  0  0  0  0  0  0  0  0
  -24.3542  -28.3157   23.6667 C   0  0  0  0  0  0  0  0  0  0  0  0
  -25.6567  -30.2875   21.8891 C   0  0  0  0  0  0  0  0  0  0  0  0
  -31.4221  -26.7530   20.5663 C   0  0  0  0  0  0  0  0  0  0  0  0
  -18.7299  -30.5578   22.1666 C   0  0  0  0  0  0  0  0  0  0  0  0
  -22.3766  -22.2049   21.9015 C   0  0  0  0  0  0  0  0  0  0  0  0
  -19.6888  -30.0684   21.0859 C   0  0  0  0  0  0  0  0  0  0  0  0
  -31.1142  -21.6017   16.4676 C   0  0  0  0  0  0  0  0  0  0  0  0
  -32.0806  -22.4262   15.6761 C   0  0  0  0  0  0  0  0  0  0  0  0
  -22.0648  -20.7489   21.5564 C   0  0  0  0  0  0  0  0  0  0  0  0
  -28.2555  -22.5406   19.2272 C   0  0  0  0  0  0  0  0  0  0  0  0
  -27.4024  -24.4060   17.7433 C   0  0  0  0  0  0  0  0  0  0  0  0
  -23.8744  -22.4761   21.8205 C   0  0  0  0  0  0  0  0  0  0  0  0
  -26.9223  -21.8111   19.0393 C   0  0  0  0  0  0  0  0  0  0  0  0
  -26.1041  -23.6232   17.5697 C   0  0  0  0  0  0  0  0  0  0  0  0
  -24.1735  -20.6909   20.1349 C   0  0  0  0  0  0  0  0  0  0  0  0
  -33.8439  -26.8652   20.0194 C   0  0  0  0  0  0  0  0  0  0  0  0
  -28.5782  -23.4551   18.0318 C   0  0  0  0  0  0  0  0  0  0  0  0
  -20.3664  -28.7573   21.5023 C   0  0  1  0  0  0  0  0  0  0  0  0
  -30.8333  -23.0604   16.2292 C   0  0  0  0  0  0  0  0  0  0  0  0
  -33.6078  -26.2560   18.6308 C   0  0  1  0  0  0  0  0  0  0  0  0
  -23.6454  -29.5938   23.2291 C   0  0  1  0  0  0  0  0  0  0  0  0
  -22.6679  -20.3621   20.1944 C   0  0  1  0  0  0  0  0  0  0  0  0
  -34.7999  -25.3620   18.2728 C   0  0  0  0  0  0  0  0  0  0  0  0
  -28.2675  -35.6453   24.6499 C   0  0  0  0  0  0  0  0  0  0  0  0
  -33.7018  -29.6920   21.2659 C   0  0  0  0  0  0  0  0  0  0  0  0
  -33.5446  -27.6158   22.6938 C   0  0  0  0  0  0  0  0  0  0  0  0
  -23.5601  -33.3790   20.5787 C   0  0  0  0  0  0  0  0  0  0  0  0
  -25.3141  -35.0916   21.0873 C   0  0  0  0  0  0  0  0  0  0  0  0
  -23.3699  -34.8057   22.6239 C   0  0  0  0  0  0  0  0  0  0  0  0
  -28.7024  -32.0985   25.9567 C   0  0  0  0  0  0  0  0  0  0  0  0
  -28.9067  -25.3355   20.2197 C   0  0  0  0  0  0  0  0  0  1  0  0
  -25.1738  -33.0352   22.5646 C   0  0  1  0  0  0  0  0  0  0  0  0
  -27.8277  -34.2305   24.9930 C   0  0  2  0  0  0  0  0  0  0  0  0
  -32.8611  -28.4854   21.6509 C   0  0  0  0  0  0  0  0  0  0  0  0
  -24.3612  -34.0503   21.7121 C   0  0  0  0  0  0  0  0  0  0  0  0
  -23.3034  -17.9789   20.1859 N   0  0  0  0  0  0  0  0  0  0  0  0
  -32.1390  -24.6499   17.4958 N   0  0  0  0  0  0  0  0  0  0  0  0
  -22.3940  -18.9096   19.8499 N   0  0  0  0  0  0  0  0  0  0  0  0
  -24.5784  -30.6474   22.8246 N   0  0  0  0  0  0  0  0  0  0  0  0
  -24.4097  -22.0925   20.5144 N   0  0  0  0  0  0  0  0  0  0  0  0
  -25.8487  -22.7643   18.7257 N   0  0  0  0  0  0  0  0  0  0  0  0
  -20.2860  -19.2017   18.8098 N   0  0  0  0  0  0  0  0  0  0  0  0
  -20.9742  -14.7465   18.5367 N   0  0  0  0  0  0  0  0  0  0  0  0
  -21.4272  -29.0161   22.4522 N   0  0  0  0  0  0  0  0  0  0  0  0
  -25.9208  -33.6398   23.6622 N   0  0  0  0  0  0  0  0  0  0  0  0
  -32.6255  -27.6568   20.4201 N   0  3  2  0  0  0  0  0  0  0  0  0
  -28.9978  -33.4977   25.5542 N   0  3  0  0  0  0  0  0  0  0  0  0
  -19.5224  -16.4420   18.0111 O   0  0  0  0  0  0  0  0  0  0  0  0
  -23.1168  -29.5146   20.9293 O   0  0  0  0  0  0  0  0  0  0  0  0
  -23.4026  -32.3071   23.9644 O   0  0  0  0  0  0  0  0  0  0  0  0
  -28.0103  -32.8915   22.9902 O   0  0  0  0  0  0  0  0  0  0  0  0
  -24.2722  -24.2032   19.5970 O   0  0  0  0  0  0  0  0  0  0  0  0
  -25.4217  -11.9788   20.4328 O   0  0  0  0  0  0  0  0  0  0  0  0
  -28.5336  -26.7054   20.1814 O   0  0  0  0  0  0  0  0  0  1  0  0
  -22.4742   -7.6793   22.2303 F   0  0  0  0  0  0  0  0  0  0  0  0
  -26.0700  -10.7047   22.7990 F   0  0  0  0  0  0  0  0  0  0  0  0
  1  2  1  0  0  0  0
  1  5  2  0  0  0  0
  2  6  2  0  0  0  0
  3  8  2  0  0  0  0
  3 15  1  0  0  0  0
  4  9  1  0  0  0  0
  4 15  2  0  0  0  0
  5 17  1  0  0  0  0
  6 19  1  0  0  0  0
  7 10  2  0  0  0  0
  7 18  1  0  0  0  0
  8 24  1  0  0  0  0
  9 24  2  0  0  0  0
 10 25  1  0  0  0  0
 11 12  2  0  0  0  0
 11 26  1  0  0  0  0
 12 27  1  0  0  0  0
 13 20  1  0  0  0  0
 13 25  2  0  0  0  0
 14 27  2  0  0  0  0
 14 28  1  0  0  0  0
 15 29  1  0  0  0  0
 16 29  1  0  0  0  0
 16 32  2  0  0  0  0
 16 33  1  0  0  0  0
 17 19  2  0  0  0  0
 17 38  1  0  0  0  0
 18 20  2  0  0  0  0
 18 39  1  0  0  0  0
 19 56  1  0  0  0  0
 20 40  1  0  0  0  0
 21 23  1  0  0  0  0
 21 30  2  0  0  0  0
 21 41  1  0  0  0  0
 22 23  2  0  0  0  0
 22 31  1  0  0  0  0
 22 55  1  0  0  0  0
 23 69  1  0  0  0  0
 24 91  1  0  0  0  0
 25 92  1  0  0  0  0
 26 28  2  0  0  0  0
 26 91  1  0  0  0  0
 27 93  1  0  0  0  0
 28 94  1  0  0  0  0
 29 74  2  0  0  0  0
 30 58  1  0  0  0  0
 30 75  1  0  0  0  0
 31 57  1  0  0  0  0
 31 75  2  0  0  0  0
 32 76  1  0  0  0  0
 32 80  1  0  0  0  0
 33 81  1  0  0  0  0
 33 86  2  0  0  0  0
 34 59  1  0  0  0  0
 34 82  1  0  0  0  0
 34 87  2  0  0  0  0
 35 70  1  0  0  0  0
 35 77  1  0  0  0  0
 35 88  2  0  0  0  0
 36 71  1  0  0  0  0
 36 83  1  0  0  0  0
 36 89  2  0  0  0  0
 37 78  1  0  0  0  0
 37 79  1  0  0  0  0
 37 90  2  0  0  0  0
 38 42  1  0  0  0  0
 39 59  1  0  0  0  0
 40 77  1  0  0  0  0
 41 84  1  0  0  0  0
 42 44  1  0  0  0  0
 43 47  1  0  0  0  0
 43 50  1  0  0  0  0
 44 56  1  0  0  0  0
 45 46  1  0  0  0  0
 45 57  1  0  0  0  0
 46 57  1  0  0  0  0
 47 60  1  0  0  0  0
 48 51  1  0  0  0  0
 48 55  1  0  0  0  0
 49 52  1  0  0  0  0
 49 55  1  0  0  0  0
 50 78  1  0  0  0  0
 51 79  1  0  0  0  0
 52 79  1  0  0  0  0
 53 60  1  0  0  0  0
 53 78  1  0  0  0  0
 54 58  1  0  0  0  0
 54 84  1  0  0  0  0
 56 82  1  0  0  0  0
 58 61  1  0  0  0  0
 59 77  1  0  0  0  0
 60 76  1  0  0  0  0
 62 71  1  0  0  0  0
 63 72  1  0  0  0  0
 64 72  1  0  0  0  0
 65 73  1  0  0  0  0
 66 73  1  0  0  0  0
 67 73  1  0  0  0  0
 68 85  1  0  0  0  0
 69 92  1  0  0  0  0
 70 73  1  0  0  0  0
 70 83  1  0  0  0  0
 71 85  1  0  0  0  0
 72 84  1  0  0  0  0
 74 76  1  0  0  0  0
M  CHG  2  84   1  85   1
M  ISO  4  37 100  69 101  79 100  92 101
M  END
> <Batch ID>
0173

> <Smiles>
CNC(C)C(=O)NC(C(=O)N1Cc2cc([101O:1][101CH2:1]c3c4c(nc(C5CC5)c3C3CC[100N:0]([100C:0](=O)N5CCCC(n6nc(-c7ccc(Oc8ccc(F)cc8F)cc7)c(C(N)=O)c6N)C5)CC3)C(C)CN(C(C)C)C4)ccc2CC1C(=O)NC1CCCc2ccccc21)C(C)(C)C

> <Shape>
0.254

> <Color>
0.090

> <Negative vol penalty>
0.000

$$$$

  -OEChem-04052322423D

 80 89  0     1  0  0  0  0  0999 V2000
  -18.8750  -33.0398   20.4150 C   0  0  0  0  0  0  0  0  0  0  0  0
  -20.1573  -32.6625   20.0294 C   0  0  0  0  0  0  0  0  0  0  0  0
  -24.3902  -12.1278   20.6316 C   0  0  0  0  0  0  0  0  0  0  0  0
  -24.9435  -13.1274   22.7604 C   0  0  0  0  0  0  0  0  0  0  0  0
  -18.3651  -32.6183   21.6423 C   0  0  0  0  0  0  0  0  0  0  0  0
  -20.9309  -31.8644   20.8714 C   0  0  0  0  0  0  0  0  0  0  0  0
  -24.9431  -27.5521   19.1944 C   0  0  0  0  0  0  0  0  0  0  0  0
  -24.4879  -10.8587   21.2021 C   0  0  0  0  0  0  0  0  0  0  0  0
  -25.0412  -11.8582   23.3309 C   0  0  0  0  0  0  0  0  0  0  0  0
  -26.3313  -27.5616   19.0657 C   0  0  0  0  0  0  0  0  0  0  0  0
  -22.5882   -8.8492   23.1479 C   0  0  0  0  0  0  0  0  0  0  0  0
  -21.5846   -7.9267   22.8525 C   0  0  0  0  0  0  0  0  0  0  0  0
  -26.5371  -26.6337   21.2829 C   0  0  0  0  0  0  0  0  0  0  0  0
  -23.2312   -6.4437   21.8897 C   0  0  0  0  0  0  0  0  0  0  0  0
  -24.6180  -13.2622   21.4108 C   0  0  0  0  0  0  0  0  0  0  0  0
  -23.3690  -15.3831   20.7405 C   0  0  0  0  0  0  0  0  0  0  0  0
  -19.1291  -31.8066   22.4955 C   0  0  0  0  0  0  0  0  0  0  0  0
  -24.3408  -27.0927   20.3745 C   0  0  0  0  0  0  0  0  0  0  0  0
  -20.4312  -31.4328   22.1118 C   0  0  0  0  0  0  0  0  0  0  0  0
  -25.1410  -26.6169   21.4230 C   0  0  0  0  0  0  0  0  0  0  0  0
  -24.8134  -10.7239   22.5517 C   0  0  0  0  0  0  0  0  0  0  0  0
  -27.1287  -27.1051   20.1112 C   0  0  0  0  0  0  0  0  0  0  0  0
  -23.9133   -8.5691   22.8141 C   0  0  0  0  0  0  0  0  0  0  0  0
  -21.9061   -6.7239   22.2234 C   0  0  0  0  0  0  0  0  0  0  0  0
  -24.2348   -7.3664   22.1851 C   0  0  0  0  0  0  0  0  0  0  0  0
  -24.5177  -14.5734   20.8219 C   0  0  0  0  0  0  0  0  0  0  0  0
  -23.7949  -16.5195   20.0972 C   0  0  0  0  0  0  0  0  0  0  0  0
  -22.0363  -15.1307   21.2050 C   0  0  0  0  0  0  0  0  0  0  0  0
  -22.4790  -28.3957   22.5970 C   0  0  0  0  0  0  0  0  0  0  0  0
  -22.3562  -25.3554   23.7213 C   0  0  0  0  0  0  0  0  0  0  0  0
  -23.8122  -22.2745   23.9080 C   0  0  0  0  0  0  0  0  0  0  0  0
  -28.3400  -19.9408   19.8764 C   0  0  0  0  0  0  0  0  0  0  0  0
  -18.5531  -31.4150   23.8332 C   0  0  0  0  0  0  0  0  0  0  0  0
  -22.8412  -27.0639   20.4872 C   0  0  0  0  0  0  0  0  0  0  0  0
  -24.5430  -26.0945   22.7028 C   0  0  0  0  0  0  0  0  0  0  0  0
  -19.2957  -30.2611   24.5019 C   0  0  0  0  0  0  0  0  0  0  0  0
  -27.6218  -17.6433   17.1740 C   0  0  0  0  0  0  0  0  0  0  0  0
  -20.8028  -30.4884   24.4390 C   0  0  0  0  0  0  0  0  0  0  0  0
  -26.6276  -16.6907   17.8407 C   0  0  0  0  0  0  0  0  0  0  0  0
  -31.3626  -23.8325   19.0098 C   0  0  0  0  0  0  0  0  0  0  0  0
  -28.7115  -18.0769   18.1500 C   0  0  0  0  0  0  0  0  0  0  0  0
  -27.2089  -17.7445   20.0749 C   0  0  0  0  0  0  0  0  0  0  0  0
  -28.3944  -23.0914   19.3768 C   0  0  0  0  0  0  0  0  0  0  0  0
  -21.2917  -30.5472   22.9868 C   0  0  1  0  0  0  0  0  0  0  0  0
  -22.3507  -27.0545   21.9318 C   0  0  1  0  0  0  0  0  0  0  0  0
  -26.0693  -17.2874   19.1462 C   0  0  2  0  0  0  0  0  0  0  0  0
  -29.5422  -22.0862   19.5465 C   0  0  2  0  0  0  0  0  0  0  0  0
  -30.2830  -22.8969   18.4778 C   0  0  1  0  0  0  0  0  0  0  0  0
  -30.2439  -24.8315   19.3435 C   0  0  1  0  0  0  0  0  0  0  0  0
  -23.4957  -20.0048   24.9307 C   0  0  0  0  0  0  0  0  0  0  0  0
  -31.3874  -27.0455   19.4985 C   0  0  0  0  0  0  0  0  0  0  0  0
  -23.2461  -26.4525   26.4258 C   0  0  0  0  0  0  0  0  0  0  0  0
  -23.8224  -24.1133   27.1069 C   0  0  0  0  0  0  0  0  0  0  0  0
  -21.4642  -24.7018   26.5454 C   0  0  0  0  0  0  0  0  0  0  0  0
  -23.6884  -20.9686   21.2551 C   0  0  0  0  0  0  0  0  0  0  0  0
  -29.0182  -26.9523   18.6752 C   0  0  0  0  0  0  0  0  0  1  0  0
  -23.1764  -24.5406   24.6921 C   0  0  1  0  0  0  0  0  0  0  0  0
  -23.2466  -20.8795   23.7118 C   0  0  2  0  0  0  0  0  0  0  0  0
  -30.3619  -26.2196   18.7177 C   0  0  2  0  0  0  0  0  0  0  0  0
  -22.9389  -24.9636   26.1693 C   0  0  0  0  0  0  0  0  0  0  0  0
  -25.5925  -15.1466   20.2740 N   0  0  0  0  0  0  0  0  0  0  0  0
  -25.1210  -16.3286   19.8421 N   0  0  0  0  0  0  0  0  0  0  0  0
  -23.0721  -26.0926   22.7674 N   0  0  0  0  0  0  0  0  0  0  0  0
  -28.1139  -18.6529   19.3629 N   0  0  0  0  0  0  0  0  0  0  0  0
  -23.1606  -17.6533   19.7306 N   0  0  0  0  0  0  0  0  0  0  0  0
  -21.7713  -13.9123   21.8451 N   0  0  0  0  0  0  0  0  0  0  0  0
  -21.3790  -29.2149   22.4285 N   0  0  0  0  0  0  0  0  0  0  0  0
  -22.8676  -23.1421   24.4140 N   0  0  0  0  0  0  0  0  0  0  0  0
  -29.2154  -20.7356   19.1466 N   0  0  0  0  0  0  0  0  0  0  0  0
  -29.2842  -23.9777   18.6177 N   0  3  2  0  0  0  0  0  0  0  0  0
  -23.8757  -20.2272   22.5287 N   0  3  0  0  0  0  0  0  0  0  0  0
  -21.1041  -15.9541   21.0421 O   0  0  0  0  0  0  0  0  0  0  0  0
  -23.4998  -28.6666   23.2185 O   0  0  0  0  0  0  0  0  0  0  0  0
  -21.1255  -25.3328   23.8016 O   0  0  0  0  0  0  0  0  0  0  0  0
  -24.9767  -22.5645   23.6428 O   0  0  0  0  0  0  0  0  0  0  0  0
  -27.7973  -20.3542   20.9069 O   0  0  0  0  0  0  0  0  0  0  0  0
  -24.9087   -9.4857   23.1087 O   0  0  0  0  0  0  0  0  0  0  0  0
  -28.4839  -27.1139   19.9885 O   0  0  0  0  0  0  0  0  0  1  0  0
  -20.9424   -5.8374   21.9412 F   0  0  0  0  0  0  0  0  0  0  0  0
  -25.5062   -7.0911   21.8631 F   0  0  0  0  0  0  0  0  0  0  0  0
  1  2  1  0  0  0  0
  1  5  2  0  0  0  0
  2  6  2  0  0  0  0
  3  8  2  0  0  0  0
  3 15  1  0  0  0  0
  4  9  1  0  0  0  0
  4 15  2  0  0  0  0
  5 17  1  0  0  0  0
  6 19  1  0  0  0  0
  7 10  2  0  0  0  0
  7 18  1  0  0  0  0
  8 21  1  0  0  0  0
  9 21  2  0  0  0  0
 10 22  1  0  0  0  0
 11 12  2  0  0  0  0
 11 23  1  0  0  0  0
 12 24  1  0  0  0  0
 13 20  1  0  0  0  0
 13 22  2  0  0  0  0
 14 24  2  0  0  0  0
 14 25  1  0  0  0  0
 15 26  1  0  0  0  0
 16 26  1  0  0  0  0
 16 27  2  0  0  0  0
 16 28  1  0  0  0  0
 17 19  2  0  0  0  0
 17 33  1  0  0  0  0
 18 20  2  0  0  0  0
 18 34  1  0  0  0  0
 19 44  1  0  0  0  0
 20 35  1  0  0  0  0
 21 77  1  0  0  0  0
 22 78  1  0  0  0  0
 23 25  2  0  0  0  0
 23 77  1  0  0  0  0
 24 79  1  0  0  0  0
 25 80  1  0  0  0  0
 26 61  2  0  0  0  0
 27 62  1  0  0  0  0
 27 65  1  0  0  0  0
 28 66  1  0  0  0  0
 28 72  2  0  0  0  0
 29 45  1  0  0  0  0
 29 67  1  0  0  0  0
 29 73  2  0  0  0  0
 30 57  1  0  0  0  0
 30 63  1  0  0  0  0
 30 74  2  0  0  0  0
 31 58  1  0  0  0  0
 31 68  1  0  0  0  0
 31 75  2  0  0  0  0
 32 64  1  0  0  0  0
 32 69  1  0  0  0  0
 32 76  2  0  0  0  0
 33 36  1  0  0  0  0
 34 45  1  0  0  0  0
 35 63  1  0  0  0  0
 36 38  1  0  0  0  0
 37 39  1  0  0  0  0
 37 41  1  0  0  0  0
 38 44  1  0  0  0  0
 39 46  1  0  0  0  0
 40 48  1  0  0  0  0
 40 49  1  0  0  0  0
 41 64  1  0  0  0  0
 42 46  1  0  0  0  0
 42 64  1  0  0  0  0
 43 47  1  0  0  0  0
 43 70  1  0  0  0  0
 44 67  1  0  0  0  0
 45 63  1  0  0  0  0
 46 62  1  0  0  0  0
 47 48  1  0  0  0  0
 47 69  1  0  0  0  0
 48 70  1  0  0  0  0
 49 59  1  0  0  0  0
 49 70  1  0  0  0  0
 50 58  1  0  0  0  0
 51 59  1  0  0  0  0
 52 60  1  0  0  0  0
 53 60  1  0  0  0  0
 54 60  1  0  0  0  0
 55 71  1  0  0  0  0
 56 59  1  0  0  0  0
 56 78  1  0  0  0  0
 57 60  1  0  0  0  0
 57 68  1  0  0  0  0
 58 71  1  0  0  0  0
 61 62  1  0  0  0  0
M  CHG  2  70   1  71   1
M  ISO  4  32 100  56 101  69 100  78 101
M  END
> <Batch ID>
0173

> <Smiles>
CNC(C)C(=O)NC(C(=O)N1Cc2cc([101O:1][101CH2:1]C(C)C3CC4C([100NH:0][100C:0](=O)N5CCCC(n6nc(-c7ccc(Oc8ccc(F)cc8F)cc7)c(C(N)=O)c6N)C5)CN43)ccc2CC1C(=O)NC1CCCc2ccccc21)C(C)(C)C

> <Shape>
0.226

> <Color>
0.077

> <Negative vol penalty>
0.000

$$$$

  -OEChem-04052322423D

 88 98  0     1  0  0  0  0  0999 V2000
  -22.3343  -23.0304   22.8558 C   0  0  0  0  0  0  0  0  0  0  0  0
  -23.5523  -22.3788   22.6907 C   0  0  0  0  0  0  0  0  0  0  0  0
  -22.3569  -28.5145   20.7368 C   0  0  0  0  0  0  0  0  0  0  0  0
  -23.4750  -27.3087   22.5068 C   0  0  0  0  0  0  0  0  0  0  0  0
  -21.2480  -22.3474   23.4011 C   0  0  0  0  0  0  0  0  0  0  0  0
  -23.6850  -21.0441   23.0718 C   0  0  0  0  0  0  0  0  0  0  0  0
  -26.1285  -18.2693   19.6112 C   0  0  0  0  0  0  0  0  0  0  0  0
  -21.1292  -28.2907   21.3599 C   0  0  0  0  0  0  0  0  0  0  0  0
  -22.2473  -27.0850   23.1300 C   0  0  0  0  0  0  0  0  0  0  0  0
  -27.5169  -18.3868   19.5656 C   0  0  0  0  0  0  0  0  0  0  0  0
  -19.3805  -29.5770   23.9524 C   0  0  0  0  0  0  0  0  0  0  0  0
  -18.4988  -30.6531   24.0525 C   0  0  0  0  0  0  0  0  0  0  0  0
  -27.7256  -16.3359   20.8183 C   0  0  0  0  0  0  0  0  0  0  0  0
  -16.8565  -29.4264   22.7737 C   0  0  0  0  0  0  0  0  0  0  0  0
  -23.5298  -28.0234   21.3102 C   0  0  0  0  0  0  0  0  0  0  0  0
  -25.6653  -29.3453   20.8629 C   0  0  0  0  0  0  0  0  0  0  0  0
  -21.3647  -21.0008   23.7801 C   0  0  0  0  0  0  0  0  0  0  0  0
  -25.5269  -17.1881   20.2712 C   0  0  0  0  0  0  0  0  0  0  0  0
  -22.5996  -20.3428   23.6239 C   0  0  0  0  0  0  0  0  0  0  0  0
  -26.3293  -16.2056   20.8686 C   0  0  0  0  0  0  0  0  0  0  0  0
  -21.0744  -27.5761   22.5565 C   0  0  0  0  0  0  0  0  0  0  0  0
  -28.3157  -17.4216   20.1717 C   0  0  0  0  0  0  0  0  0  0  0  0
  -19.0004  -28.4256   23.2628 C   0  0  0  0  0  0  0  0  0  0  0  0
  -17.2368  -30.5779   23.4632 C   0  0  0  0  0  0  0  0  0  0  0  0
  -17.7383  -28.3503   22.6735 C   0  0  0  0  0  0  0  0  0  0  0  0
  -24.7983  -28.2537   20.6667 C   0  0  0  0  0  0  0  0  0  0  0  0
  -32.3247  -19.0773   22.0120 C   0  0  0  0  0  0  0  0  0  0  0  0
  -31.0453  -18.9547   21.4815 C   0  0  0  0  0  0  0  0  0  0  0  0
  -30.9373  -21.2436   21.2484 C   0  0  0  0  0  0  0  0  0  0  0  0
  -32.2078  -21.3612   21.7558 C   0  0  0  0  0  0  0  0  0  0  0  0
  -26.7251  -29.0969   20.0253 C   0  0  0  0  0  0  0  0  0  0  0  0
  -25.5252  -30.4822   21.7252 C   0  0  0  0  0  0  0  0  0  0  0  0
  -23.5760  -16.8849   22.7623 C   0  0  0  0  0  0  0  0  0  0  0  0
  -23.5632  -13.7642   21.8770 C   0  0  0  0  0  0  0  0  0  0  0  0
  -25.1446  -11.2019   20.2705 C   0  0  0  0  0  0  0  0  0  0  0  0
  -28.9413  -24.0571   17.6826 C   0  0  0  0  0  0  0  0  0  0  0  0
  -20.1760  -20.3180   24.4089 C   0  0  0  0  0  0  0  0  0  0  0  0
  -24.0282  -17.0617   20.2884 C   0  0  0  0  0  0  0  0  0  0  0  0
  -25.7331  -15.0148   21.5723 C   0  0  0  0  0  0  0  0  0  0  0  0
  -33.1435  -17.8807   22.4148 C   0  0  0  0  0  0  0  0  0  0  0  0
  -20.2938  -18.7963   24.4402 C   0  0  0  0  0  0  0  0  0  0  0  0
  -27.8531  -26.9275   15.9334 C   0  0  0  0  0  0  0  0  0  0  0  0
  -21.6736  -18.3778   24.9381 C   0  0  0  0  0  0  0  0  0  0  0  0
  -26.9987  -27.6842   16.9467 C   0  0  0  0  0  0  0  0  0  0  0  0
  -28.6032  -22.3302   20.9009 C   0  0  0  0  0  0  0  0  0  0  0  0
  -31.3084  -16.4328   21.5100 C   0  0  0  0  0  0  0  0  0  0  0  0
  -27.6568  -25.4242   16.0759 C   0  0  0  0  0  0  0  0  0  0  0  0
  -28.1206  -23.4922   20.0430 C   0  0  0  0  0  0  0  0  0  0  0  0
  -30.3213  -22.8491   19.3463 C   0  0  0  0  0  0  0  0  0  0  0  0
  -27.1426  -25.6620   18.4902 C   0  0  0  0  0  0  0  0  0  0  0  0
  -22.7760  -18.8882   24.0023 C   0  0  1  0  0  0  0  0  0  0  0  0
  -30.1335  -22.4503   20.8168 C   0  0  2  0  0  0  0  0  0  0  0  0
  -30.3526  -17.6226   21.3827 C   0  0  2  0  0  0  0  0  0  1  0  0
  -23.5151  -16.1908   21.4311 C   0  0  1  0  0  0  0  0  0  0  0  0
  -27.2886  -27.1934   18.3735 C   0  0  2  0  0  0  0  0  0  0  0  0
  -32.3199  -16.5966   22.6617 C   0  0  0  0  0  0  0  0  0  0  0  0
  -33.2687  -15.3838   22.6736 C   0  0  0  0  0  0  0  0  0  0  0  0
  -31.6096  -16.6607   24.0277 C   0  0  0  0  0  0  0  0  0  0  0  0
  -24.9074   -8.7587   19.7492 C   0  0  0  0  0  0  0  0  0  0  0  0
  -24.3620  -13.0781   24.7408 C   0  0  0  0  0  0  0  0  0  0  0  0
  -25.0252  -10.8018   23.9365 C   0  0  0  0  0  0  0  0  0  0  0  0
  -22.6538  -11.5503   23.7397 C   0  0  0  0  0  0  0  0  0  0  0  0
  -25.1191  -11.7079   17.3547 C   0  0  0  0  0  0  0  0  0  0  0  0
  -24.4011  -12.5542   22.2130 C   0  0  1  0  0  0  0  0  0  0  0  0
  -24.6415  -10.1773   19.2698 C   0  0  2  0  0  0  0  0  0  0  0  0
  -24.1220  -12.0194   23.6460 C   0  0  0  0  0  0  0  0  0  0  0  0
  -25.2666  -27.3771   19.7744 N   0  0  0  0  0  0  0  0  0  0  0  0
  -30.3366  -20.0473   21.1089 N   0  0  0  0  0  0  0  0  0  0  0  0
  -32.9198  -20.2864   22.1417 N   0  0  0  0  0  0  0  0  0  0  0  0
  -26.4394  -27.9177   19.4023 N   0  0  0  0  0  0  0  0  0  0  0  0
  -24.2628  -14.9392   21.5675 N   0  0  0  0  0  0  0  0  0  0  0  0
  -27.9079  -24.9701   17.4449 N   0  0  0  0  0  0  0  0  0  0  0  0
  -29.1267  -23.6076   18.9894 N   0  0  0  0  0  0  0  0  0  0  0  0
  -32.7888  -22.6430   21.8784 N   0  0  0  0  0  0  0  0  0  0  0  0
  -27.8641  -29.7743   19.7682 N   0  0  0  0  0  0  0  0  0  0  0  0
  -24.3741  -30.5811   22.5187 N   0  0  0  0  0  0  0  0  0  0  0  0
  -22.8548  -18.0623   22.8165 N   0  0  0  0  0  0  0  0  0  0  0  0
  -24.1561  -11.5812   21.1538 N   0  0  0  0  0  0  0  0  0  0  0  0
  -25.3167  -10.3631   17.9543 N   0  3  0  0  0  0  0  0  0  0  0  0
  -26.3873  -31.3919   21.7780 O   0  0  0  0  0  0  0  0  0  0  0  0
  -24.2278  -16.3881   23.6734 O   0  0  0  0  0  0  0  0  0  0  0  0
  -22.3334  -13.6685   21.8819 O   0  0  0  0  0  0  0  0  0  0  0  0
  -26.3000  -11.6210   20.2711 O   0  0  0  0  0  0  0  0  0  0  0  0
  -29.6449  -23.6278   16.7582 O   0  0  0  0  0  0  0  0  0  0  0  0
  -19.8766  -27.3578   23.1650 O   0  0  0  0  0  0  0  0  0  0  0  0
  -29.6789  -17.5348   20.1290 O   0  0  0  0  0  0  0  0  0  1  0  0
  -16.3895  -31.6107   23.5607 F   0  0  0  0  0  0  0  0  0  0  0  0
  -17.3670  -27.2463   22.0109 F   0  0  0  0  0  0  0  0  0  0  0  0
  1  2  1  0  0  0  0
  1  5  2  0  0  0  0
  2  6  2  0  0  0  0
  3  8  2  0  0  0  0
  3 15  1  0  0  0  0
  4  9  1  0  0  0  0
  4 15  2  0  0  0  0
  5 17  1  0  0  0  0
  6 19  1  0  0  0  0
  7 10  2  0  0  0  0
  7 18  1  0  0  0  0
  8 21  1  0  0  0  0
  9 21  2  0  0  0  0
 10 22  1  0  0  0  0
 11 12  2  0  0  0  0
 11 23  1  0  0  0  0
 12 24  1  0  0  0  0
 13 20  1  0  0  0  0
 13 22  2  0  0  0  0
 14 24  2  0  0  0  0
 14 25  1  0  0  0  0
 15 26  1  0  0  0  0
 16 26  1  0  0  0  0
 16 31  2  0  0  0  0
 16 32  1  0  0  0  0
 17 19  2  0  0  0  0
 17 37  1  0  0  0  0
 18 20  2  0  0  0  0
 18 38  1  0  0  0  0
 19 51  1  0  0  0  0
 20 39  1  0  0  0  0
 21 85  1  0  0  0  0
 22 86  1  0  0  0  0
 23 25  2  0  0  0  0
 23 85  1  0  0  0  0
 24 87  1  0  0  0  0
 25 88  1  0  0  0  0
 26 67  2  0  0  0  0
 27 28  2  0  0  0  0
 27 40  1  0  0  0  0
 27 69  1  0  0  0  0
 28 53  1  0  0  0  0
 28 68  1  0  0  0  0
 29 30  1  0  0  0  0
 29 52  1  0  0  0  0
 29 68  2  0  0  0  0
 30 69  2  0  0  0  0
 30 74  1  0  0  0  0
 31 70  1  0  0  0  0
 31 75  1  0  0  0  0
 32 76  1  0  0  0  0
 32 80  2  0  0  0  0
 33 54  1  0  0  0  0
 33 77  1  0  0  0  0
 33 81  2  0  0  0  0
 34 64  1  0  0  0  0
 34 71  1  0  0  0  0
 34 82  2  0  0  0  0
 35 65  1  0  0  0  0
 35 78  1  0  0  0  0
 35 83  2  0  0  0  0
 36 72  1  0  0  0  0
 36 73  1  0  0  0  0
 36 84  2  0  0  0  0
 37 41  1  0  0  0  0
 38 54  1  0  0  0  0
 39 71  1  0  0  0  0
 40 56  1  0  0  0  0
 41 43  1  0  0  0  0
 42 44  1  0  0  0  0
 42 47  1  0  0  0  0
 43 51  1  0  0  0  0
 44 55  1  0  0  0  0
 45 48  1  0  0  0  0
 45 52  1  0  0  0  0
 46 53  1  0  0  0  0
 46 56  1  0  0  0  0
 47 72  1  0  0  0  0
 48 73  1  0  0  0  0
 49 52  1  0  0  0  0
 49 73  1  0  0  0  0
 50 55  1  0  0  0  0
 50 72  1  0  0  0  0
 51 77  1  0  0  0  0
 53 86  1  0  0  0  0
 54 71  1  0  0  0  0
 55 70  1  0  0  0  0
 56 57  1  0  0  0  0
 56 58  1  0  0  0  0
 59 65  1  0  0  0  0
 60 66  1  0  0  0  0
 61 66  1  0  0  0  0
 62 66  1  0  0  0  0
 63 79  1  0  0  0  0
 64 66  1  0  0  0  0
 64 78  1  0  0  0  0
 65 79  1  0  0  0  0
 67 70  1  0  0  0  0
M  CHG  1  79   1
M  ISO  4  36 100  53 101  73 100  86 101
M  END
> <Batch ID>
0173

> <Smiles>
CNC(C)C(=O)NC(C(=O)N1Cc2cc([101O:1][101CH:1]3CC(C)(C)Cc4nc(N)c(C5CC[100N:0]([100C:0](=O)N6CCCC(n7nc(-c8ccc(Oc9ccc(F)cc9F)cc8)c(C(N)=O)c7N)C6)C5)nc43)ccc2CC1C(=O)NC1CCCc2ccccc21)C(C)(C)C

> <Shape>
0.246

> <Color>
0.060

> <Negative vol penalty>
0.000

$$$$

  -OEChem-04052322423D

 85 94  0     1  0  0  0  0  0999 V2000
  -27.1941  -37.9923   23.4461 C   0  0  0  0  0  0  0  0  0  0  0  0
  -27.7719  -37.0924   22.5563 C   0  0  0  0  0  0  0  0  0  0  0  0
  -27.6970  -13.8340   15.2186 C   0  0  0  0  0  0  0  0  0  0  0  0
  -27.5737  -11.6506   16.2457 C   0  0  0  0  0  0  0  0  0  0  0  0
  -26.4553  -37.5213   24.5307 C   0  0  0  0  0  0  0  0  0  0  0  0
  -27.6120  -35.7210   22.7511 C   0  0  0  0  0  0  0  0  0  0  0  0
  -26.9971  -29.5960   19.0873 C   0  0  0  0  0  0  0  0  0  0  0  0
  -27.9581  -13.2387   13.9845 C   0  0  0  0  0  0  0  0  0  0  0  0
  -27.8349  -11.0553   15.0115 C   0  0  0  0  0  0  0  0  0  0  0  0
  -27.5587  -28.3218   19.0173 C   0  0  0  0  0  0  0  0  0  0  0  0
  -28.2997  -12.2815   10.4942 C   0  0  0  0  0  0  0  0  0  0  0  0
  -27.6101  -12.7648    9.3822 C   0  0  0  0  0  0  0  0  0  0  0  0
  -26.1950  -27.6249   20.8810 C   0  0  0  0  0  0  0  0  0  0  0  0
  -25.5126  -12.1790   10.4282 C   0  0  0  0  0  0  0  0  0  0  0  0
  -28.8034  -22.3140   19.6369 C   0  0  0  0  0  0  0  0  0  0  0  0
  -27.5048  -13.0399   16.3492 C   0  0  0  0  0  0  0  0  0  0  0  0
  -25.9759  -13.9785   18.1628 C   0  0  0  0  0  0  0  0  0  0  0  0
  -26.2782  -36.1436   24.7334 C   0  0  0  0  0  0  0  0  0  0  0  0
  -26.0366  -29.8978   20.0634 C   0  0  0  0  0  0  0  0  0  0  0  0
  -26.8713  -35.2311   23.8401 C   0  0  0  0  0  0  0  0  0  0  0  0
  -25.6209  -28.9029   20.9597 C   0  0  0  0  0  0  0  0  0  0  0  0
  -28.0270  -11.8494   13.8809 C   0  0  0  0  0  0  0  0  0  0  0  0
  -27.1598  -27.3369   19.9160 C   0  0  0  0  0  0  0  0  0  0  0  0
  -27.5956  -11.7468   11.5732 C   0  0  0  0  0  0  0  0  0  0  0  0
  -26.2166  -12.7136    9.3492 C   0  0  0  0  0  0  0  0  0  0  0  0
  -26.2021  -11.6956   11.5402 C   0  0  0  0  0  0  0  0  0  0  0  0
  -27.2356  -13.6543   17.6244 C   0  0  0  0  0  0  0  0  0  0  0  0
  -30.2799  -24.0362   18.2293 C   0  0  0  0  0  0  0  0  0  0  0  0
  -29.1399  -24.4470   18.8844 C   0  0  0  0  0  0  0  0  0  0  0  0
  -29.9430  -21.9029   18.9813 C   0  0  0  0  0  0  0  0  0  0  0  0
  -26.2584  -14.5368   19.3855 C   0  0  0  0  0  0  0  0  0  0  0  0
  -24.6674  -13.7915   17.6074 C   0  0  0  0  0  0  0  0  0  0  0  0
  -25.8754  -31.9360   22.4972 C   0  0  0  0  0  0  0  0  0  0  0  0
  -22.8250  -30.8507   22.6969 C   0  0  0  0  0  0  0  0  0  0  0  0
  -20.5888  -28.3565   22.0449 C   0  0  0  0  0  0  0  0  0  0  0  0
  -31.4561  -17.1563   21.2561 C   0  0  0  0  0  0  0  0  0  0  0  0
  -25.5109  -35.6811   25.9467 C   0  0  0  0  0  0  0  0  0  0  0  0
  -25.4209  -31.2694   20.1086 C   0  0  0  0  0  0  0  0  0  0  0  0
  -24.5783  -29.1702   22.0133 C   0  0  0  0  0  0  0  0  0  0  0  0
  -25.0746  -34.2202   25.8711 C   0  0  0  0  0  0  0  0  0  0  0  0
  -29.5136  -14.4659   22.8909 C   0  0  0  0  0  0  0  0  0  0  0  0
  -26.2322  -33.3406   25.4096 C   0  0  0  0  0  0  0  0  0  0  0  0
  -28.6523  -13.9360   21.7448 C   0  0  0  0  0  0  0  0  0  0  0  0
  -30.8279  -15.0566   22.3881 C   0  0  0  0  0  0  0  0  0  0  0  0
  -31.7252  -20.1940   19.0012 C   0  0  0  0  0  0  0  0  0  0  0  0
  -32.0662  -19.2693   20.1644 C   0  0  0  0  0  0  0  0  0  0  0  0
  -29.8029  -15.5669   20.1998 C   0  0  0  0  0  0  0  0  0  0  0  0
  -30.0046  -18.1126   19.3968 C   0  0  0  0  0  0  0  0  0  0  0  0
  -26.6996  -33.7365   24.0037 C   0  0  1  0  0  0  0  0  0  0  0  0
  -24.8264  -31.6128   21.4710 C   0  0  1  0  0  0  0  0  0  0  0  0
  -28.4481  -15.0153   20.6669 C   0  0  1  0  0  0  0  0  0  0  0  0
  -29.3260  -19.4963   19.3445 C   0  0  2  0  0  0  0  0  0  0  0  0
  -31.1106  -24.9908   17.4418 C   0  0  0  0  0  0  0  0  0  0  0  0
  -28.2422  -19.4535   18.2604 C   0  0  0  0  0  0  0  0  0  0  0  0
  -18.1766  -27.7411   22.3614 C   0  0  0  0  0  0  0  0  0  0  0  0
  -23.3722  -30.2258   25.6329 C   0  0  0  0  0  0  0  0  0  0  0  0
  -21.3265  -28.7824   25.6349 C   0  0  0  0  0  0  0  0  0  0  0  0
  -21.1256  -31.2270   25.1806 C   0  0  0  0  0  0  0  0  0  0  0  0
  -20.1279  -28.1906   19.1262 C   0  0  0  0  0  0  0  0  0  0  0  0
  -28.6839  -25.8652   18.8357 C   0  0  0  0  0  0  0  0  0  1  0  0
  -22.1384  -29.7187   23.4224 C   0  0  1  0  0  0  0  0  0  0  0  0
  -19.1983  -28.3840   21.4364 C   0  0  2  0  0  0  0  0  0  0  0  0
  -22.0117  -29.9837   24.9492 C   0  0  0  0  0  0  0  0  0  0  0  0
  -28.3813  -23.5934   19.6001 N   0  0  0  0  0  0  0  0  0  0  0  0
  -28.2434  -13.9797   18.4383 N   0  0  0  0  0  0  0  0  0  0  0  0
  -30.7018  -22.7567   18.2658 N   0  0  0  0  0  0  0  0  0  0  0  0
  -27.6173  -14.5143   19.5005 N   0  0  0  0  0  0  0  0  0  0  0  0
  -30.3094  -20.5611   19.0701 N   0  0  3  0  0  0  0  0  0  0  0  0
  -24.0106  -30.5285   22.0213 N   0  0  0  0  0  0  0  0  0  0  0  0
  -30.6003  -16.0479   21.3365 N   0  0  0  0  0  0  0  0  0  0  0  0
  -31.1979  -18.0997   20.2480 N   0  0  0  0  0  0  0  0  0  0  0  0
  -25.4746  -15.0400   20.3627 N   0  0  0  0  0  0  0  0  0  0  0  0
  -24.5572  -13.2025   16.3404 N   0  0  0  0  0  0  0  0  0  0  0  0
  -25.7901  -33.2186   23.0042 N   0  0  0  0  0  0  0  0  0  0  0  0
  -20.8634  -29.5129   22.7439 N   0  0  0  0  0  0  0  0  0  0  0  0
  -19.1858  -27.6499   20.1396 N   0  3  0  0  0  0  0  0  0  0  0  0
  -23.6275  -14.1516   18.2096 O   0  0  0  0  0  0  0  0  0  0  0  0
  -26.7001  -31.0842   22.8071 O   0  0  0  0  0  0  0  0  0  0  0  0
  -22.3241  -31.9776   22.7227 O   0  0  0  0  0  0  0  0  0  0  0  0
  -21.3534  -27.4029   21.9164 O   0  0  0  0  0  0  0  0  0  0  0  0
  -32.3912  -17.3068   22.0533 O   0  0  0  0  0  0  0  0  0  0  0  0
  -28.2816  -11.2681   12.6768 O   0  0  0  0  0  0  0  0  0  0  0  0
  -27.7105  -26.0841   19.8498 O   0  0  0  0  0  0  0  0  0  1  0  0
  -25.5545  -13.1791    8.2819 F   0  0  0  0  0  0  0  0  0  0  0  0
  -25.5203  -11.1843   12.5743 F   0  0  0  0  0  0  0  0  0  0  0  0
  1  2  1  0  0  0  0
  1  5  2  0  0  0  0
  2  6  2  0  0  0  0
  3  8  2  0  0  0  0
  3 16  1  0  0  0  0
  4  9  1  0  0  0  0
  4 16  2  0  0  0  0
  5 18  1  0  0  0  0
  6 20  1  0  0  0  0
  7 10  2  0  0  0  0
  7 19  1  0  0  0  0
  8 22  1  0  0  0  0
  9 22  2  0  0  0  0
 10 23  1  0  0  0  0
 11 12  2  0  0  0  0
 11 24  1  0  0  0  0
 12 25  1  0  0  0  0
 13 21  1  0  0  0  0
 13 23  2  0  0  0  0
 14 25  2  0  0  0  0
 14 26  1  0  0  0  0
 15 30  1  0  0  0  0
 15 64  2  0  0  0  0
 16 27  1  0  0  0  0
 17 27  1  0  0  0  0
 17 31  2  0  0  0  0
 17 32  1  0  0  0  0
 18 20  2  0  0  0  0
 18 37  1  0  0  0  0
 19 21  2  0  0  0  0
 19 38  1  0  0  0  0
 20 49  1  0  0  0  0
 21 39  1  0  0  0  0
 22 82  1  0  0  0  0
 23 83  1  0  0  0  0
 24 26  2  0  0  0  0
 24 82  1  0  0  0  0
 25 84  1  0  0  0  0
 26 85  1  0  0  0  0
 27 65  2  0  0  0  0
 28 29  2  0  0  0  0
 28 53  1  0  0  0  0
 28 66  1  0  0  0  0
 29 60  1  0  0  0  0
 29 64  1  0  0  0  0
 30 66  2  0  0  0  0
 30 68  1  0  0  0  0
 31 67  1  0  0  0  0
 31 72  1  0  0  0  0
 32 73  1  0  0  0  0
 32 77  2  0  0  0  0
 33 50  1  0  0  0  0
 33 74  1  0  0  0  0
 33 78  2  0  0  0  0
 34 61  1  0  0  0  0
 34 69  1  0  0  0  0
 34 79  2  0  0  0  0
 35 62  1  0  0  0  0
 35 75  1  0  0  0  0
 35 80  2  0  0  0  0
 36 70  1  0  0  0  0
 36 71  1  0  0  0  0
 36 81  2  0  0  0  0
 37 40  1  0  0  0  0
 38 50  1  0  0  0  0
 39 69  1  0  0  0  0
 40 42  1  0  0  0  0
 41 43  1  0  0  0  0
 41 44  1  0  0  0  0
 42 49  1  0  0  0  0
 43 51  1  0  0  0  0
 44 70  1  0  0  0  0
 45 46  1  0  0  0  0
 45 68  1  0  0  0  0
 46 71  1  0  0  0  0
 47 51  1  0  0  0  0
 47 70  1  0  0  0  0
 48 52  1  0  0  0  0
 48 71  1  0  0  0  0
 49 74  1  0  0  0  0
 50 69  1  0  0  0  0
 51 67  1  0  0  0  0
 52 54  1  0  0  0  0
 52 68  1  0  0  0  0
 55 62  1  0  0  0  0
 56 63  1  0  0  0  0
 57 63  1  0  0  0  0
 58 63  1  0  0  0  0
 59 76  1  0  0  0  0
 60 83  1  0  0  0  0
 61 63  1  0  0  0  0
 61 75  1  0  0  0  0
 62 76  1  0  0  0  0
 65 67  1  0  0  0  0
M  CHG  1  76   1
M  ISO  4  36 100  60 101  71 100  83 101
M  END
> <Batch ID>
0173

> <Smiles>
CNC(C)C(=O)NC(C(=O)N1Cc2cc([101O:1][101CH2:1]c3ncc(N4CC[100N:0]([100C:0](=O)N5CCCC(n6nc(-c7ccc(Oc8ccc(F)cc8F)cc7)c(C(N)=O)c6N)C5)CC4C)nc3C)ccc2CC1C(=O)NC1CCCc2ccccc21)C(C)(C)C

> <Shape>
0.282

> <Color>
0.098

> <Negative vol penalty>
0.000

$$$$

  -OEChem-04052322423D

 85 94  0     1  0  0  0  0  0999 V2000
  -28.1516  -37.8637   21.6903 C   0  0  0  0  0  0  0  0  0  0  0  0
  -28.2534  -36.8687   20.7233 C   0  0  0  0  0  0  0  0  0  0  0  0
  -23.3602  -10.2122   22.0655 C   0  0  0  0  0  0  0  0  0  0  0  0
  -24.2436   -8.7247   20.3790 C   0  0  0  0  0  0  0  0  0  0  0  0
  -27.9788  -37.5173   23.0297 C   0  0  0  0  0  0  0  0  0  0  0  0
  -28.1837  -35.5266   21.0954 C   0  0  0  0  0  0  0  0  0  0  0  0
  -25.9070  -29.1762   18.6861 C   0  0  0  0  0  0  0  0  0  0  0  0
  -22.0859   -9.6813   21.8662 C   0  0  0  0  0  0  0  0  0  0  0  0
  -22.9692   -8.1938   20.1797 C   0  0  0  0  0  0  0  0  0  0  0  0
  -26.3615  -27.8730   18.4893 C   0  0  0  0  0  0  0  0  0  0  0  0
  -20.0133   -6.1953   19.4822 C   0  0  0  0  0  0  0  0  0  0  0  0
  -19.8946   -4.8085   19.3914 C   0  0  0  0  0  0  0  0  0  0  0  0
  -25.9821  -27.3946   20.8230 C   0  0  0  0  0  0  0  0  0  0  0  0
  -20.8100   -4.5845   21.6161 C   0  0  0  0  0  0  0  0  0  0  0  0
  -27.0600  -21.2512   19.9606 C   0  0  0  0  0  0  0  0  0  0  0  0
  -24.4391   -9.7339   21.3218 C   0  0  0  0  0  0  0  0  0  0  0  0
  -26.7322   -9.8318   22.4353 C   0  0  0  0  0  0  0  0  0  0  0  0
  -27.8973  -36.1706   23.4173 C   0  0  0  0  0  0  0  0  0  0  0  0
  -25.4962  -29.6024   19.9573 C   0  0  0  0  0  0  0  0  0  0  0  0
  -28.0111  -35.1619   22.4415 C   0  0  0  0  0  0  0  0  0  0  0  0
  -25.5204  -28.7030   21.0328 C   0  0  0  0  0  0  0  0  0  0  0  0
  -28.3264  -21.0377   19.4406 C   0  0  0  0  0  0  0  0  0  0  0  0
  -29.1522  -22.1423   19.2640 C   0  0  0  0  0  0  0  0  0  0  0  0
  -28.6928  -23.4088   19.6079 C   0  0  0  0  0  0  0  0  0  0  0  0
  -21.8903   -8.6721   20.9234 C   0  0  0  0  0  0  0  0  0  0  0  0
  -26.4019  -26.9828   19.5584 C   0  0  0  0  0  0  0  0  0  0  0  0
  -20.5305   -6.7767   20.6399 C   0  0  0  0  0  0  0  0  0  0  0  0
  -20.2929   -4.0031   20.4583 C   0  0  0  0  0  0  0  0  0  0  0  0
  -20.9288   -5.9713   21.7068 C   0  0  0  0  0  0  0  0  0  0  0  0
  -25.7557  -10.2823   21.5268 C   0  0  0  0  0  0  0  0  0  0  0  0
  -27.4099  -23.5162   20.1202 C   0  0  0  0  0  0  0  0  0  0  0  0
  -27.7961  -10.6792   22.2440 C   0  0  0  0  0  0  0  0  0  0  0  0
  -26.6821   -8.7446   23.3686 C   0  0  0  0  0  0  0  0  0  0  0  0
  -26.4778  -31.8288   22.0025 C   0  0  0  0  0  0  0  0  0  0  0  0
  -23.8368  -30.9224   23.6535 C   0  0  0  0  0  0  0  0  0  0  0  0
  -21.5198  -28.5049   24.3121 C   0  0  0  0  0  0  0  0  0  0  0  0
  -28.1540  -16.2012   20.3629 C   0  0  0  0  0  0  0  0  0  0  0  0
  -27.7576  -35.8441   24.8831 C   0  0  0  0  0  0  0  0  0  0  0  0
  -24.9833  -31.0035   20.1475 C   0  0  0  0  0  0  0  0  0  0  0  0
  -25.0712  -29.1050   22.4130 C   0  0  0  0  0  0  0  0  0  0  0  0
  -27.3179  -34.4064   25.1477 C   0  0  0  0  0  0  0  0  0  0  0  0
  -29.8774  -13.4045   18.9271 C   0  0  0  0  0  0  0  0  0  0  0  0
  -28.1310  -33.4346   24.2983 C   0  0  0  0  0  0  0  0  0  0  0  0
  -29.0801  -12.2354   19.4998 C   0  0  0  0  0  0  0  0  0  0  0  0
  -27.9043  -18.9582   18.0187 C   0  0  0  0  0  0  0  0  0  0  0  0
  -28.9869  -14.5981   18.5762 C   0  0  0  0  0  0  0  0  0  0  0  0
  -28.2858  -17.4931   18.1740 C   0  0  0  0  0  0  0  0  0  0  0  0
  -27.3250  -13.8721   20.2653 C   0  0  0  0  0  0  0  0  0  0  0  0
  -28.7714  -19.6391   19.0849 C   0  0  2  0  0  0  0  0  0  0  0  0
  -27.9153  -33.6955   22.8027 C   0  0  1  0  0  0  0  0  0  0  0  0
  -25.0743  -31.4820   21.5932 C   0  0  1  0  0  0  0  0  0  0  0  0
  -28.2161  -12.6946   20.6856 C   0  0  1  0  0  0  0  0  0  0  0  0
  -28.7337  -18.6299   20.2538 C   0  0  2  0  0  0  0  0  0  0  0  0
  -30.5283  -21.9665   18.7063 C   0  0  0  0  0  0  0  0  0  0  0  0
  -29.5553  -24.6134   19.4320 C   0  0  0  0  0  0  0  0  0  0  0  0
  -30.0249  -18.6552   21.0678 C   0  0  0  0  0  0  0  0  0  0  0  0
  -19.5059  -28.0421   25.7360 C   0  0  0  0  0  0  0  0  0  0  0  0
  -25.6474  -30.4995   26.0728 C   0  0  0  0  0  0  0  0  0  0  0  0
  -23.8083  -29.1691   27.1291 C   0  0  0  0  0  0  0  0  0  0  0  0
  -23.4510  -31.5782   26.5894 C   0  0  0  0  0  0  0  0  0  0  0  0
  -19.7850  -28.1372   21.9427 C   0  0  0  0  0  0  0  0  0  0  0  0
  -26.8610  -24.8507   20.5067 C   0  0  0  0  0  0  0  0  0  1  0  0
  -23.5405  -29.8874   24.7118 C   0  0  1  0  0  0  0  0  0  0  0  0
  -20.0049  -28.5574   24.3950 C   0  0  2  0  0  0  0  0  0  0  0  0
  -24.1222  -30.2762   26.1003 C   0  0  0  0  0  0  0  0  0  0  0  0
  -26.5787  -22.4663   20.3062 N   0  0  0  0  0  0  0  0  0  0  0  0
  -26.1630  -11.3343   20.8116 N   0  0  0  0  0  0  0  0  0  0  0  0
  -27.4071  -11.5519   21.2707 N   0  0  0  0  0  0  0  0  0  0  0  0
  -24.5840  -30.4876   22.5497 N   0  0  0  0  0  0  0  0  0  0  0  0
  -28.1195  -14.9669   19.7014 N   0  0  0  0  0  0  0  0  0  0  0  0
  -28.5076  -17.3257   19.6117 N   0  0  0  0  0  0  0  0  0  0  0  0
  -29.0169  -10.7556   22.8151 N   0  0  0  0  0  0  0  0  0  0  0  0
  -25.5127   -7.9751   23.4359 N   0  0  0  0  0  0  0  0  0  0  0  0
  -26.6459  -33.1496   22.3724 N   0  0  0  0  0  0  0  0  0  0  0  0
  -22.0942  -29.6962   24.7021 N   0  0  0  0  0  0  0  0  0  0  0  0
  -19.3981  -27.7264   23.3169 N   0  3  0  0  0  0  0  0  0  0  0  0
  -27.6398   -8.4740   24.1323 O   0  0  0  0  0  0  0  0  0  0  0  0
  -27.3438  -30.9620   21.9856 O   0  0  0  0  0  0  0  0  0  0  0  0
  -23.4146  -32.0725   23.7974 O   0  0  0  0  0  0  0  0  0  0  0  0
  -22.1325  -27.5057   23.9423 O   0  0  0  0  0  0  0  0  0  0  0  0
  -27.8543  -16.2991   21.5600 O   0  0  0  0  0  0  0  0  0  0  0  0
  -20.6470   -8.1537   20.7288 O   0  0  0  0  0  0  0  0  0  0  0  0
  -26.8489  -25.7013   19.3678 O   0  0  0  0  0  0  0  0  0  1  0  0
  -20.1774   -2.6714   20.3716 F   0  0  0  0  0  0  0  0  0  0  0  0
  -21.4252   -6.5242   22.8220 F   0  0  0  0  0  0  0  0  0  0  0  0
  1  2  1  0  0  0  0
  1  5  2  0  0  0  0
  2  6  2  0  0  0  0
  3  8  2  0  0  0  0
  3 16  1  0  0  0  0
  4  9  1  0  0  0  0
  4 16  2  0  0  0  0
  5 18  1  0  0  0  0
  6 20  1  0  0  0  0
  7 10  2  0  0  0  0
  7 19  1  0  0  0  0
  8 25  1  0  0  0  0
  9 25  2  0  0  0  0
 10 26  1  0  0  0  0
 11 12  2  0  0  0  0
 11 27  1  0  0  0  0
 12 28  1  0  0  0  0
 13 21  1  0  0  0  0
 13 26  2  0  0  0  0
 14 28  2  0  0  0  0
 14 29  1  0  0  0  0
 15 22  1  0  0  0  0
 15 66  2  0  0  0  0
 16 30  1  0  0  0  0
 17 30  1  0  0  0  0
 17 32  2  0  0  0  0
 17 33  1  0  0  0  0
 18 20  2  0  0  0  0
 18 38  1  0  0  0  0
 19 21  2  0  0  0  0
 19 39  1  0  0  0  0
 20 50  1  0  0  0  0
 21 40  1  0  0  0  0
 22 23  2  0  0  0  0
 22 49  1  0  0  0  0
 23 24  1  0  0  0  0
 23 54  1  0  0  0  0
 24 31  2  0  0  0  0
 24 55  1  0  0  0  0
 25 82  1  0  0  0  0
 26 83  1  0  0  0  0
 27 29  2  0  0  0  0
 27 82  1  0  0  0  0
 28 84  1  0  0  0  0
 29 85  1  0  0  0  0
 30 67  2  0  0  0  0
 31 62  1  0  0  0  0
 31 66  1  0  0  0  0
 32 68  1  0  0  0  0
 32 72  1  0  0  0  0
 33 73  1  0  0  0  0
 33 77  2  0  0  0  0
 34 51  1  0  0  0  0
 34 74  1  0  0  0  0
 34 78  2  0  0  0  0
 35 63  1  0  0  0  0
 35 69  1  0  0  0  0
 35 79  2  0  0  0  0
 36 64  1  0  0  0  0
 36 75  1  0  0  0  0
 36 80  2  0  0  0  0
 37 70  1  0  0  0  0
 37 71  1  0  0  0  0
 37 81  2  0  0  0  0
 38 41  1  0  0  0  0
 39 51  1  0  0  0  0
 40 69  1  0  0  0  0
 41 43  1  0  0  0  0
 42 44  1  0  0  0  0
 42 46  1  0  0  0  0
 43 50  1  0  0  0  0
 44 52  1  0  0  0  0
 45 47  1  0  0  0  0
 45 49  1  0  0  0  0
 46 70  1  0  0  0  0
 47 71  1  0  0  0  0
 48 52  1  0  0  0  0
 48 70  1  0  0  0  0
 49 53  1  0  0  0  0
 50 74  1  0  0  0  0
 51 69  1  0  0  0  0
 52 68  1  0  0  0  0
 53 56  1  0  0  0  0
 53 71  1  0  0  0  0
 57 64  1  0  0  0  0
 58 65  1  0  0  0  0
 59 65  1  0  0  0  0
 60 65  1  0  0  0  0
 61 76  1  0  0  0  0
 62 83  1  0  0  0  0
 63 65  1  0  0  0  0
 63 75  1  0  0  0  0
 64 76  1  0  0  0  0
 67 68  1  0  0  0  0
M  CHG  1  76   1
M  ISO  4  37 100  62 101  71 100  83 101
M  END
> <Batch ID>
0173

> <Smiles>
CNC(C)C(=O)NC(C(=O)N1Cc2cc([101O:1][101CH2:1]c3ncc(C4CC[100N:0]([100C:0](=O)N5CCCC(n6nc(-c7ccc(Oc8ccc(F)cc8F)cc7)c(C(N)=O)c6N)C5)C4C)c(C)c3C)ccc2CC1C(=O)NC1CCCc2ccccc21)C(C)(C)C

> <Shape>
0.292

> <Color>
0.098

> <Negative vol penalty>
0.000

$$$$

  -OEChem-04052322423D

 92102  0     1  0  0  0  0  0999 V2000
  -23.5902  -36.7236   20.8337 C   0  0  0  0  0  0  0  0  0  0  0  0
  -24.3574  -36.0594   19.8820 C   0  0  0  0  0  0  0  0  0  0  0  0
  -23.9129   -9.0606   21.0096 C   0  0  0  0  0  0  0  0  0  0  0  0
  -25.3476   -9.7226   22.8373 C   0  0  0  0  0  0  0  0  0  0  0  0
  -23.5971  -36.2904   22.1589 C   0  0  0  0  0  0  0  0  0  0  0  0
  -25.1328  -34.9622   20.2553 C   0  0  0  0  0  0  0  0  0  0  0  0
  -25.1491  -27.6667   17.4620 C   0  0  0  0  0  0  0  0  0  0  0  0
  -23.7750   -7.7938   21.5766 C   0  0  0  0  0  0  0  0  0  0  0  0
  -25.2097   -8.4557   23.4044 C   0  0  0  0  0  0  0  0  0  0  0  0
  -25.1344  -26.3051   17.1589 C   0  0  0  0  0  0  0  0  0  0  0  0
  -22.0044   -6.3631   24.0769 C   0  0  0  0  0  0  0  0  0  0  0  0
  -20.7241   -5.8121   24.1290 C   0  0  0  0  0  0  0  0  0  0  0  0
  -25.9433  -25.7914   19.3793 C   0  0  0  0  0  0  0  0  0  0  0  0
  -21.4709   -3.9495   22.7836 C   0  0  0  0  0  0  0  0  0  0  0  0
  -24.6993  -10.0251   21.6399 C   0  0  0  0  0  0  0  0  0  0  0  0
  -23.8180  -12.2599   20.7817 C   0  0  0  0  0  0  0  0  0  0  0  0
  -24.3655  -35.1814   22.5467 C   0  0  0  0  0  0  0  0  0  0  0  0
  -25.5467  -28.0954   18.7314 C   0  0  0  0  0  0  0  0  0  0  0  0
  -25.1511  -34.5146   21.5872 C   0  0  0  0  0  0  0  0  0  0  0  0
  -25.9481  -27.1532   19.6926 C   0  0  0  0  0  0  0  0  0  0  0  0
  -31.6613  -18.7442   19.8251 C   0  0  0  0  0  0  0  0  0  0  0  0
  -24.4234   -7.4913   22.7741 C   0  0  0  0  0  0  0  0  0  0  0  0
  -25.5308  -25.3698   18.1152 C   0  0  0  0  0  0  0  0  0  0  0  0
  -23.0180   -5.7073   23.3780 C   0  0  0  0  0  0  0  0  0  0  0  0
  -20.4573   -4.6053   23.4825 C   0  0  0  0  0  0  0  0  0  0  0  0
  -22.7513   -4.5005   22.7315 C   0  0  0  0  0  0  0  0  0  0  0  0
  -24.8426  -11.3338   21.0543 C   0  0  0  0  0  0  0  0  0  0  0  0
  -31.5144  -18.9531   18.4689 C   0  0  0  0  0  0  0  0  0  0  0  0
  -30.7837  -19.4365   20.6343 C   0  0  0  0  0  0  0  0  0  0  0  0
  -24.4673  -13.3384   20.2323 C   0  0  0  0  0  0  0  0  0  0  0  0
  -29.7898  -20.3902   18.8261 C   0  0  0  0  0  0  0  0  0  0  0  0
  -22.4057  -12.1548   21.0051 C   0  0  0  0  0  0  0  0  0  0  0  0
  -26.1096  -30.9859   21.0561 C   0  0  0  0  0  0  0  0  0  0  0  0
  -24.8314  -28.7442   22.7148 C   0  0  0  0  0  0  0  0  0  0  0  0
  -23.0338  -26.1890   24.0847 C   0  0  0  0  0  0  0  0  0  0  0  0
  -30.1146  -15.1493   20.8873 C   0  0  0  0  0  0  0  0  0  0  0  0
  -24.3777  -34.7793   24.0003 C   0  0  0  0  0  0  0  0  0  0  0  0
  -25.6368  -29.5559   19.0817 C   0  0  0  0  0  0  0  0  0  0  0  0
  -26.4011  -27.6624   21.0337 C   0  0  0  0  0  0  0  0  0  0  0  0
  -24.9350  -33.3785   24.2400 C   0  0  0  0  0  0  0  0  0  0  0  0
  -28.3372  -14.5059   17.7085 C   0  0  0  0  0  0  0  0  0  0  0  0
  -26.2287  -33.1775   23.4571 C   0  0  0  0  0  0  0  0  0  0  0  0
  -28.9424  -22.7737   18.7154 C   0  0  0  0  0  0  0  0  0  0  0  0
  -27.3081  -20.8360   18.5988 C   0  0  0  0  0  0  0  0  0  0  0  0
  -27.1744  -13.6462   18.1937 C   0  0  0  0  0  0  0  0  0  0  0  0
  -27.8762  -23.6994   18.1354 C   0  0  0  0  0  0  0  0  0  0  0  0
  -26.2507  -21.7718   18.0188 C   0  0  0  0  0  0  0  0  0  0  0  0
  -33.2198  -15.7506   21.7821 C   0  0  0  0  0  0  0  0  0  0  0  0
  -29.6052  -14.2759   18.5300 C   0  0  0  0  0  0  0  0  0  0  0  0
  -28.2359  -13.5927   20.4827 C   0  0  0  0  0  0  0  0  0  0  0  0
  -34.2061  -16.5573   22.6141 C   0  0  0  0  0  0  0  0  0  0  0  0
  -33.7251  -18.5997   21.2424 C   0  0  0  0  0  0  0  0  0  0  0  0
  -32.7204  -17.8101   20.3905 C   0  0  1  0  0  0  0  0  0  0  0  0
  -25.9860  -33.3052   21.9484 C   0  0  1  0  0  0  0  0  0  0  0  0
  -28.7301  -21.3185   18.2613 C   0  0  0  0  0  0  0  0  0  0  0  0
  -25.2733  -29.8481   20.5486 C   0  0  1  0  0  0  0  0  0  0  0  0
  -26.9411  -13.8517   19.6979 C   0  0  2  0  0  0  0  0  0  0  0  0
  -32.1180  -16.6341   21.1911 C   0  0  1  0  0  0  0  0  0  0  0  0
  -26.4662  -23.2149   18.4684 C   0  0  0  0  0  0  0  0  0  1  0  0
  -32.4079  -18.2570   17.4956 C   0  0  0  0  0  0  0  0  0  0  0  0
  -30.8479  -19.2910   22.1191 C   0  0  0  0  0  0  0  0  0  0  0  0
  -21.9731  -25.4604   26.2391 C   0  0  0  0  0  0  0  0  0  0  0  0
  -27.5813  -28.0238   23.8208 C   0  0  0  0  0  0  0  0  0  0  0  0
  -26.4479  -26.4971   25.4495 C   0  0  0  0  0  0  0  0  0  0  0  0
  -25.9861  -28.9477   25.5108 C   0  0  0  0  0  0  0  0  0  0  0  0
  -35.8698  -18.4090   22.5008 C   0  0  0  0  0  0  0  0  0  0  0  0
  -20.3361  -26.1244   22.8694 C   0  0  0  0  0  0  0  0  0  0  0  0
  -25.0500  -27.5570   23.6182 C   0  0  1  0  0  0  0  0  0  0  0  0
  -21.7645  -26.1832   24.9175 C   0  0  2  0  0  0  0  0  0  0  0  0
  -26.2623  -27.7532   24.5718 C   0  0  0  0  0  0  0  0  0  0  0  0
  -26.0509  -11.7844   20.7066 N   0  0  0  0  0  0  0  0  0  0  0  0
  -30.5859  -19.7722   17.9329 N   0  0  0  0  0  0  0  0  0  0  0  0
  -29.8322  -20.2711   20.1668 N   0  0  0  0  0  0  0  0  0  0  0  0
  -25.7897  -13.0055   20.2098 N   0  0  0  0  0  0  0  0  0  0  0  0
  -25.5088  -28.7398   21.4895 N   0  0  0  0  0  0  0  0  0  0  0  0
  -29.3496  -14.4025   19.9736 N   0  0  0  0  0  0  0  0  0  0  0  0
  -24.0303  -14.5295   19.7711 N   0  0  0  0  0  0  0  0  0  0  0  0
  -21.8889  -12.5928   22.2321 N   0  0  0  0  0  0  0  0  0  0  0  0
  -25.3794  -32.0978   21.4300 N   0  0  0  0  0  0  0  0  0  0  0  0
  -23.7826  -27.3261   24.3028 N   0  0  0  0  0  0  0  0  0  0  0  0
  -31.2145  -15.8161   20.3564 N   0  0  0  0  0  0  0  0  0  0  0  0
  -34.7870  -17.6635   21.7695 N   0  3  1  0  0  0  0  0  0  0  0  0
  -20.6633  -25.5033   24.1786 N   0  3  0  0  0  0  0  0  0  0  0  0
  -21.6272  -11.6712   20.1486 O   0  0  0  0  0  0  0  0  0  0  0  0
  -27.3280  -30.8646   21.1067 O   0  0  0  0  0  0  0  0  0  0  0  0
  -24.0853  -29.6548   23.0855 O   0  0  0  0  0  0  0  0  0  0  0  0
  -23.3330  -25.2743   23.3202 O   0  0  0  0  0  0  0  0  0  0  0  0
  -29.8468  -15.2157   22.0919 O   0  0  0  0  0  0  0  0  0  0  0  0
  -24.2888   -6.2553   23.3278 O   0  0  0  0  0  0  0  0  0  0  0  0
  -25.5098  -24.0417   17.8142 O   0  0  0  0  0  0  0  0  0  1  0  0
  -19.2282   -4.0755   23.5339 F   0  0  0  0  0  0  0  0  0  0  0  0
  -23.7212   -3.8653   22.0595 F   0  0  0  0  0  0  0  0  0  0  0  0
  1  2  1  0  0  0  0
  1  5  2  0  0  0  0
  2  6  2  0  0  0  0
  3  8  2  0  0  0  0
  3 15  1  0  0  0  0
  4  9  1  0  0  0  0
  4 15  2  0  0  0  0
  5 17  1  0  0  0  0
  6 19  1  0  0  0  0
  7 10  2  0  0  0  0
  7 18  1  0  0  0  0
  8 22  1  0  0  0  0
  9 22  2  0  0  0  0
 10 23  1  0  0  0  0
 11 12  2  0  0  0  0
 11 24  1  0  0  0  0
 12 25  1  0  0  0  0
 13 20  1  0  0  0  0
 13 23  2  0  0  0  0
 14 25  2  0  0  0  0
 14 26  1  0  0  0  0
 15 27  1  0  0  0  0
 16 27  1  0  0  0  0
 16 30  2  0  0  0  0
 16 32  1  0  0  0  0
 17 19  2  0  0  0  0
 17 37  1  0  0  0  0
 18 20  2  0  0  0  0
 18 38  1  0  0  0  0
 19 54  1  0  0  0  0
 20 39  1  0  0  0  0
 21 28  1  0  0  0  0
 21 29  2  0  0  0  0
 21 53  1  0  0  0  0
 22 89  1  0  0  0  0
 23 90  1  0  0  0  0
 24 26  2  0  0  0  0
 24 89  1  0  0  0  0
 25 91  1  0  0  0  0
 26 92  1  0  0  0  0
 27 71  2  0  0  0  0
 28 60  1  0  0  0  0
 28 72  2  0  0  0  0
 29 61  1  0  0  0  0
 29 73  1  0  0  0  0
 30 74  1  0  0  0  0
 30 77  1  0  0  0  0
 31 55  1  0  0  0  0
 31 72  1  0  0  0  0
 31 73  2  0  0  0  0
 32 78  1  0  0  0  0
 32 84  2  0  0  0  0
 33 56  1  0  0  0  0
 33 79  1  0  0  0  0
 33 85  2  0  0  0  0
 34 68  1  0  0  0  0
 34 75  1  0  0  0  0
 34 86  2  0  0  0  0
 35 69  1  0  0  0  0
 35 80  1  0  0  0  0
 35 87  2  0  0  0  0
 36 76  1  0  0  0  0
 36 81  1  0  0  0  0
 36 88  2  0  0  0  0
 37 40  1  0  0  0  0
 38 56  1  0  0  0  0
 39 75  1  0  0  0  0
 40 42  1  0  0  0  0
 41 45  1  0  0  0  0
 41 49  1  0  0  0  0
 42 54  1  0  0  0  0
 43 46  1  0  0  0  0
 43 55  1  0  0  0  0
 44 47  1  0  0  0  0
 44 55  1  0  0  0  0
 45 57  1  0  0  0  0
 46 59  1  0  0  0  0
 47 59  1  0  0  0  0
 48 51  1  0  0  0  0
 48 58  1  0  0  0  0
 49 76  1  0  0  0  0
 50 57  1  0  0  0  0
 50 76  1  0  0  0  0
 51 82  1  0  0  0  0
 52 53  1  0  0  0  0
 52 82  1  0  0  0  0
 53 58  1  0  0  0  0
 54 79  1  0  0  0  0
 56 75  1  0  0  0  0
 57 74  1  0  0  0  0
 58 81  1  0  0  0  0
 59 90  1  0  0  0  0
 62 69  1  0  0  0  0
 63 70  1  0  0  0  0
 64 70  1  0  0  0  0
 65 70  1  0  0  0  0
 66 82  1  0  0  0  0
 67 83  1  0  0  0  0
 68 70  1  0  0  0  0
 68 80  1  0  0  0  0
 69 83  1  0  0  0  0
 71 74  1  0  0  0  0
M  CHG  2  82   1  83   1
M  ISO  4  36 100  59 101  81 100  90 101
M  END
> <Batch ID>
0173

> <Smiles>
CNC(C)C(=O)NC(C(=O)N1Cc2cc([101O:1][101CH:1]3CCC(c4nc(C)c(C5CN(C)CCC5[100NH:0][100C:0](=O)N5CCCC(n6nc(-c7ccc(Oc8ccc(F)cc8F)cc7)c(C(N)=O)c6N)C5)c(C)n4)CC3)ccc2CC1C(=O)NC1CCCc2ccccc21)C(C)(C)C

> <Shape>
0.265

> <Color>
0.108

> <Negative vol penalty>
0.000

$$$$

  -OEChem-04052322423D

 84 93  0     1  0  0  0  0  0999 V2000
  -26.9058  -31.2744   26.8513 C   0  0  0  0  0  0  0  0  0  0  0  0
  -27.0279  -29.9380   26.4846 C   0  0  0  0  0  0  0  0  0  0  0  0
  -23.0551   -9.9353   21.6036 C   0  0  0  0  0  0  0  0  0  0  0  0
  -24.4246  -10.7160   23.4345 C   0  0  0  0  0  0  0  0  0  0  0  0
  -25.9567  -32.0833   26.2277 C   0  0  0  0  0  0  0  0  0  0  0  0
  -26.2001  -29.4094   25.4947 C   0  0  0  0  0  0  0  0  0  0  0  0
  -28.7299  -26.5448   22.1722 C   0  0  0  0  0  0  0  0  0  0  0  0
  -22.5045   -8.9577   22.4323 C   0  0  0  0  0  0  0  0  0  0  0  0
  -23.8740   -9.7384   24.2632 C   0  0  0  0  0  0  0  0  0  0  0  0
  -29.0654  -25.2519   22.5719 C   0  0  0  0  0  0  0  0  0  0  0  0
  -23.3951   -5.9314   23.6459 C   0  0  0  0  0  0  0  0  0  0  0  0
  -23.2771   -4.6397   23.1331 C   0  0  0  0  0  0  0  0  0  0  0  0
  -27.1888  -24.3866   21.3275 C   0  0  0  0  0  0  0  0  0  0  0  0
  -20.8842   -4.7309   23.4544 C   0  0  0  0  0  0  0  0  0  0  0  0
  -24.0152  -10.8144   22.1047 C   0  0  0  0  0  0  0  0  0  0  0  0
  -23.9004  -12.8568   20.5805 C   0  0  0  0  0  0  0  0  0  0  0  0
  -25.1234  -31.5668   25.2229 C   0  0  0  0  0  0  0  0  0  0  0  0
  -27.6130  -26.7697   21.3547 C   0  0  0  0  0  0  0  0  0  0  0  0
  -25.2381  -30.2117   24.8581 C   0  0  0  0  0  0  0  0  0  0  0  0
  -26.8427  -25.6830   20.9167 C   0  0  0  0  0  0  0  0  0  0  0  0
  -29.9716  -21.3066   23.6732 C   0  0  0  0  0  0  0  0  0  0  0  0
  -22.9139   -8.8593   23.7621 C   0  0  0  0  0  0  0  0  0  0  0  0
  -28.2932  -24.1729   22.1519 C   0  0  0  0  0  0  0  0  0  0  0  0
  -22.2578   -6.6229   24.0630 C   0  0  0  0  0  0  0  0  0  0  0  0
  -22.0216   -4.0394   23.0374 C   0  0  0  0  0  0  0  0  0  0  0  0
  -21.0024   -6.0227   23.9672 C   0  0  0  0  0  0  0  0  0  0  0  0
  -24.5848  -11.8241   21.2490 C   0  0  0  0  0  0  0  0  0  0  0  0
  -29.2378  -20.4882   24.5527 C   0  0  0  0  0  0  0  0  0  0  0  0
  -30.9245  -20.4721   23.1421 C   0  0  0  0  0  0  0  0  0  0  0  0
  -24.8829  -13.5389   19.9052 C   0  0  0  0  0  0  0  0  0  0  0  0
  -22.5016  -13.1715   20.5710 C   0  0  0  0  0  0  0  0  0  0  0  0
  -24.8858  -28.3711   21.6736 C   0  0  0  0  0  0  0  0  0  0  0  0
  -24.5050  -27.5735   18.5525 C   0  0  0  0  0  0  0  0  0  0  0  0
  -25.2771  -25.4589   15.9876 C   0  0  0  0  0  0  0  0  0  0  0  0
  -30.7688  -14.1649   20.8076 C   0  0  0  0  0  0  0  0  0  0  0  0
  -24.0802  -32.4677   24.6108 C   0  0  0  0  0  0  0  0  0  0  0  0
  -27.2800  -28.1676   20.9104 C   0  0  0  0  0  0  0  0  0  0  0  0
  -25.6456  -25.8690   20.0218 C   0  0  0  0  0  0  0  0  0  0  0  0
  -23.4966  -31.9264   23.3082 C   0  0  0  0  0  0  0  0  0  0  0  0
  -29.1734  -12.9003   17.8867 C   0  0  0  0  0  0  0  0  0  0  0  0
  -23.1341  -30.4522   23.4576 C   0  0  0  0  0  0  0  0  0  0  0  0
  -27.7547  -12.5742   18.3569 C   0  0  0  0  0  0  0  0  0  0  0  0
  -31.5544  -17.0208   24.6713 C   0  0  0  0  0  0  0  0  0  0  0  0
  -30.8964  -15.7258   24.2030 C   0  0  0  0  0  0  0  0  0  0  0  0
  -30.9252  -17.1544   22.2984 C   0  0  0  0  0  0  0  0  0  0  0  0
  -30.2090  -12.6024   18.9687 C   0  0  0  0  0  0  0  0  0  0  0  0
  -28.5260  -12.9151   20.7417 C   0  0  0  0  0  0  0  0  0  0  0  0
  -24.3752  -29.6080   23.7713 C   0  0  1  0  0  0  0  0  0  0  0  0
  -25.8205  -28.3317   20.4978 C   0  0  1  0  0  0  0  0  0  0  0  0
  -31.4957  -17.9830   23.4653 C   0  0  1  0  0  0  0  0  0  0  0  0
  -27.4411  -13.2516   19.7045 C   0  0  2  0  0  0  0  0  0  0  0  0
  -31.1785  -15.7079   22.7077 C   0  0  2  0  0  0  0  0  0  0  0  0
  -28.0895  -20.8680   25.3945 C   0  0  0  0  0  0  0  0  0  0  0  0
  -31.9989  -20.7196   22.1620 C   0  0  0  0  0  0  0  0  0  0  0  0
  -24.7822  -25.0394   13.5634 C   0  0  0  0  0  0  0  0  0  0  0  0
  -21.7888  -26.4086   19.3111 C   0  0  0  0  0  0  0  0  0  0  0  0
  -21.7760  -25.1946   17.1215 C   0  0  0  0  0  0  0  0  0  0  0  0
  -21.8118  -27.6885   17.1627 C   0  0  0  0  0  0  0  0  0  0  0  0
  -28.1113  -25.8370   15.2238 C   0  0  0  0  0  0  0  0  0  0  0  0
  -29.7632  -22.7633   23.3799 C   0  0  0  0  0  0  0  0  0  1  0  0
  -23.8923  -26.4082   17.8139 C   0  0  1  0  0  0  0  0  0  0  0  0
  -25.7069  -25.7261   14.5564 C   0  0  2  0  0  0  0  0  0  0  0  0
  -22.3386  -26.4213   17.8708 C   0  0  0  0  0  0  0  0  0  0  0  0
  -25.9004  -11.8443   21.0191 N   0  0  0  0  0  0  0  0  0  0  0  0
  -29.6859  -19.2303   24.5814 N   0  0  0  0  0  0  0  0  0  0  0  0
  -30.7115  -19.2520   23.7133 N   0  0  0  0  0  0  0  0  0  0  0  0
  -26.0505  -12.8980   20.1985 N   0  0  0  0  0  0  0  0  0  0  0  0
  -25.3569  -27.2555   19.6197 N   0  0  0  0  0  0  0  0  0  0  0  0
  -29.8539  -13.2755   20.2204 N   0  0  0  0  0  0  0  0  0  0  0  0
  -24.8532  -14.6182   19.0949 N   0  0  0  0  0  0  0  0  0  0  0  0
  -22.0088  -14.0546   21.5414 N   0  0  0  0  0  0  0  0  0  0  0  0
  -25.1530  -29.3874   22.5709 N   0  0  0  0  0  0  0  0  0  0  0  0
  -24.4411  -26.4471   16.4628 N   0  0  0  0  0  0  0  0  0  0  0  0
  -30.3508  -14.7649   21.9891 N   0  0  0  0  0  0  0  0  0  0  0  0
  -27.0930  -25.2276   14.3301 N   0  3  0  0  0  0  0  0  0  0  0  0
  -21.7092  -12.6713   19.7371 O   0  0  0  0  0  0  0  0  0  0  0  0
  -23.9877  -27.5418   21.7595 O   0  0  0  0  0  0  0  0  0  0  0  0
  -24.2432  -28.7236   18.1912 O   0  0  0  0  0  0  0  0  0  0  0  0
  -25.6431  -24.4703   16.6194 O   0  0  0  0  0  0  0  0  0  0  0  0
  -31.8741  -14.4105   20.3126 O   0  0  0  0  0  0  0  0  0  0  0  0
  -22.3766   -7.9057   24.5711 O   0  0  0  0  0  0  0  0  0  0  0  0
  -28.6181  -22.9100   22.5411 O   0  0  0  0  0  0  0  0  0  1  0  0
  -21.9082   -2.7995   22.5435 F   0  0  0  0  0  0  0  0  0  0  0  0
  -19.9060   -6.6825   24.3653 F   0  0  0  0  0  0  0  0  0  0  0  0
  1  2  1  0  0  0  0
  1  5  2  0  0  0  0
  2  6  2  0  0  0  0
  3  8  2  0  0  0  0
  3 15  1  0  0  0  0
  4  9  1  0  0  0  0
  4 15  2  0  0  0  0
  5 17  1  0  0  0  0
  6 19  1  0  0  0  0
  7 10  2  0  0  0  0
  7 18  1  0  0  0  0
  8 22  1  0  0  0  0
  9 22  2  0  0  0  0
 10 23  1  0  0  0  0
 11 12  2  0  0  0  0
 11 24  1  0  0  0  0
 12 25  1  0  0  0  0
 13 20  1  0  0  0  0
 13 23  2  0  0  0  0
 14 25  2  0  0  0  0
 14 26  1  0  0  0  0
 15 27  1  0  0  0  0
 16 27  1  0  0  0  0
 16 30  2  0  0  0  0
 16 31  1  0  0  0  0
 17 19  2  0  0  0  0
 17 36  1  0  0  0  0
 18 20  2  0  0  0  0
 18 37  1  0  0  0  0
 19 48  1  0  0  0  0
 20 38  1  0  0  0  0
 21 28  1  0  0  0  0
 21 29  2  0  0  0  0
 21 60  1  0  0  0  0
 22 81  1  0  0  0  0
 23 82  1  0  0  0  0
 24 26  2  0  0  0  0
 24 81  1  0  0  0  0
 25 83  1  0  0  0  0
 26 84  1  0  0  0  0
 27 64  2  0  0  0  0
 28 53  1  0  0  0  0
 28 65  2  0  0  0  0
 29 54  1  0  0  0  0
 29 66  1  0  0  0  0
 30 67  1  0  0  0  0
 30 70  1  0  0  0  0
 31 71  1  0  0  0  0
 31 76  2  0  0  0  0
 32 49  1  0  0  0  0
 32 72  1  0  0  0  0
 32 77  2  0  0  0  0
 33 61  1  0  0  0  0
 33 68  1  0  0  0  0
 33 78  2  0  0  0  0
 34 62  1  0  0  0  0
 34 73  1  0  0  0  0
 34 79  2  0  0  0  0
 35 69  1  0  0  0  0
 35 74  1  0  0  0  0
 35 80  2  0  0  0  0
 36 39  1  0  0  0  0
 37 49  1  0  0  0  0
 38 68  1  0  0  0  0
 39 41  1  0  0  0  0
 40 42  1  0  0  0  0
 40 46  1  0  0  0  0
 41 48  1  0  0  0  0
 42 51  1  0  0  0  0
 43 44  1  0  0  0  0
 43 50  1  0  0  0  0
 44 52  1  0  0  0  0
 45 50  1  0  0  0  0
 45 52  1  0  0  0  0
 46 69  1  0  0  0  0
 47 51  1  0  0  0  0
 47 69  1  0  0  0  0
 48 72  1  0  0  0  0
 49 68  1  0  0  0  0
 50 66  1  0  0  0  0
 51 67  1  0  0  0  0
 52 74  1  0  0  0  0
 55 62  1  0  0  0  0
 56 63  1  0  0  0  0
 57 63  1  0  0  0  0
 58 63  1  0  0  0  0
 59 75  1  0  0  0  0
 60 82  1  0  0  0  0
 61 63  1  0  0  0  0
 61 73  1  0  0  0  0
 62 75  1  0  0  0  0
 64 67  1  0  0  0  0
 65 66  1  0  0  0  0
M  CHG  1  75   1
M  ISO  4  35 100  60 101  74 100  82 101
M  END
> <Batch ID>
0173

> <Smiles>
CNC(C)C(=O)NC(C(=O)N1Cc2cc([101O:1][101CH2:1]c3c(C)nn(C4CCC([100NH:0][100C:0](=O)N5CCCC(n6nc(-c7ccc(Oc8ccc(F)cc8F)cc7)c(C(N)=O)c6N)C5)C4)c3C)ccc2CC1C(=O)NC1CCCc2ccccc21)C(C)(C)C

> <Shape>
0.251

> <Color>
0.094

> <Negative vol penalty>
0.000

$$$$

  -OEChem-04052322423D

 84 93  0     1  0  0  0  0  0999 V2000
  -28.3581  -33.3342   23.6136 C   0  0  0  0  0  0  0  0  0  0  0  0
  -28.4681  -31.9519   23.5006 C   0  0  0  0  0  0  0  0  0  0  0  0
  -23.0559   -9.8335   20.0390 C   0  0  0  0  0  0  0  0  0  0  0  0
  -23.6551  -10.0936   22.3650 C   0  0  0  0  0  0  0  0  0  0  0  0
  -27.1179  -33.9146   23.8760 C   0  0  0  0  0  0  0  0  0  0  0  0
  -27.3379  -31.1492   23.6511 C   0  0  0  0  0  0  0  0  0  0  0  0
  -27.0335  -27.5396   20.1123 C   0  0  0  0  0  0  0  0  0  0  0  0
  -22.2963   -8.7087   20.3604 C   0  0  0  0  0  0  0  0  0  0  0  0
  -22.8954   -8.9688   22.6865 C   0  0  0  0  0  0  0  0  0  0  0  0
  -27.8438  -26.4170   20.2765 C   0  0  0  0  0  0  0  0  0  0  0  0
  -23.2235   -5.6083   22.5133 C   0  0  0  0  0  0  0  0  0  0  0  0
  -23.7876   -4.6710   23.3787 C   0  0  0  0  0  0  0  0  0  0  0  0
  -25.9608  -25.1942   21.1585 C   0  0  0  0  0  0  0  0  0  0  0  0
  -29.1738  -19.0940   21.7319 C   0  0  0  0  0  0  0  0  0  0  0  0
  -21.9721   -5.0155   24.9351 C   0  0  0  0  0  0  0  0  0  0  0  0
  -23.7354  -10.5260   21.0413 C   0  0  0  0  0  0  0  0  0  0  0  0
  -24.0853  -13.0258   20.6725 C   0  0  0  0  0  0  0  0  0  0  0  0
  -25.9702  -33.1192   24.0203 C   0  0  0  0  0  0  0  0  0  0  0  0
  -25.6810  -27.5012   20.4808 C   0  0  0  0  0  0  0  0  0  0  0  0
  -26.0813  -31.7194   23.9171 C   0  0  0  0  0  0  0  0  0  0  0  0
  -25.1348  -26.3168   20.9956 C   0  0  0  0  0  0  0  0  0  0  0  0
  -29.7139  -18.0327   22.4496 C   0  0  0  0  0  0  0  0  0  0  0  0
  -29.3875  -17.8705   23.7914 C   0  0  0  0  0  0  0  0  0  0  0  0
  -22.2160   -8.2764   21.6842 C   0  0  0  0  0  0  0  0  0  0  0  0
  -27.3082  -25.2450   20.8023 C   0  0  0  0  0  0  0  0  0  0  0  0
  -22.0337   -6.2493   22.8588 C   0  0  0  0  0  0  0  0  0  0  0  0
  -23.1618   -4.3746   24.5895 C   0  0  0  0  0  0  0  0  0  0  0  0
  -21.4080   -5.9528   24.0697 C   0  0  0  0  0  0  0  0  0  0  0  0
  -24.5207  -11.6876   20.7098 C   0  0  0  0  0  0  0  0  0  0  0  0
  -28.3192  -19.9584   22.3968 C   0  0  0  0  0  0  0  0  0  0  0  0
  -28.5234  -18.7898   24.3642 C   0  0  0  0  0  0  0  0  0  0  0  0
  -25.2001  -13.7396   20.3064 C   0  0  0  0  0  0  0  0  0  0  0  0
  -22.7889  -13.5746   20.9447 C   0  0  0  0  0  0  0  0  0  0  0  0
  -23.8858  -29.0598   22.5907 C   0  0  0  0  0  0  0  0  0  0  0  0
  -21.4764  -27.4190   21.1679 C   0  0  0  0  0  0  0  0  0  0  0  0
  -20.4993  -24.6960   19.3575 C   0  0  0  0  0  0  0  0  0  0  0  0
  -30.6579  -14.8129   20.7607 C   0  0  0  0  0  0  0  0  0  0  0  0
  -24.6597  -33.7887   24.3502 C   0  0  0  0  0  0  0  0  0  0  0  0
  -24.8138  -28.7124   20.2725 C   0  0  0  0  0  0  0  0  0  0  0  0
  -23.6840  -26.2175   21.3878 C   0  0  0  0  0  0  0  0  0  0  0  0
  -23.4443  -32.8932   24.1244 C   0  0  0  0  0  0  0  0  0  0  0  0
  -29.6878  -12.1765   18.5733 C   0  0  0  0  0  0  0  0  0  0  0  0
  -23.6823  -31.5097   24.7212 C   0  0  0  0  0  0  0  0  0  0  0  0
  -28.2238  -11.9207   18.9354 C   0  0  0  0  0  0  0  0  0  0  0  0
  -30.5196  -12.5323   19.8036 C   0  0  0  0  0  0  0  0  0  0  0  0
  -28.5265  -13.3950   20.9686 C   0  0  0  0  0  0  0  0  0  0  0  0
  -28.3908  -21.6834   20.5665 C   0  0  0  0  0  0  0  0  0  0  0  0
  -27.1327  -22.1668   22.1825 C   0  0  0  0  0  0  0  0  0  0  0  0
  -24.8740  -30.8167   24.0494 C   0  0  1  0  0  0  0  0  0  0  0  0
  -23.5737  -28.7193   21.1609 C   0  0  1  0  0  0  0  0  0  0  0  0
  -27.6362  -13.0872   19.7525 C   0  0  2  0  0  0  0  0  0  0  0  0
  -27.4655  -22.8727   20.8601 C   0  0  0  0  0  0  0  0  0  1  0  0
  -29.9576  -16.7369   24.5785 C   0  0  0  0  0  0  0  0  0  0  0  0
  -18.4597  -23.6086   18.3802 C   0  0  0  0  0  0  0  0  0  0  0  0
  -20.6697  -26.4428   23.9439 C   0  0  0  0  0  0  0  0  0  0  0  0
  -19.2877  -24.6694   22.8424 C   0  0  0  0  0  0  0  0  0  0  0  0
  -18.7559  -27.0770   22.4642 C   0  0  0  0  0  0  0  0  0  0  0  0
  -21.5586  -24.9179   16.6029 C   0  0  0  0  0  0  0  0  0  0  0  0
  -30.6384  -17.0849   21.7592 C   0  0  0  0  0  0  0  0  0  0  0  0
  -20.8168  -26.0796   21.3920 C   0  0  1  0  0  0  0  0  0  0  0  0
  -19.6143  -24.5666   18.1310 C   0  0  2  0  0  0  0  0  0  0  0  0
  -19.9104  -26.0693   22.6551 C   0  0  0  0  0  0  0  0  0  0  0  0
  -25.8115  -11.5564   20.3925 N   0  0  0  0  0  0  0  0  0  0  0  0
  -27.9788  -19.8332   23.6992 N   0  0  0  0  0  0  0  0  0  0  0  0
  -26.1967  -12.8213   20.1523 N   0  0  0  0  0  0  0  0  0  0  0  0
  -27.7867  -21.0149   21.6662 N   0  0  0  0  0  0  0  0  0  0  0  0
  -22.8784  -27.4306   21.1710 N   0  0  0  0  0  0  0  0  0  0  0  0
  -29.9092  -13.6465   20.5330 N   0  0  0  0  0  0  0  0  0  0  0  0
  -28.1866  -18.6305   25.7317 N   0  0  0  0  0  0  0  0  0  0  0  0
  -25.4154  -15.0569   20.1044 N   0  0  0  0  0  0  0  0  0  0  0  0
  -21.7559  -12.6998   21.3078 N   0  0  0  0  0  0  0  0  0  0  0  0
  -24.4901  -30.2914   22.7567 N   0  0  0  0  0  0  0  0  0  0  0  0
  -20.1184  -25.7561   20.1526 N   0  0  0  0  0  0  0  0  0  0  0  0
  -30.0020  -15.8229   21.4540 N   0  0  0  0  0  0  0  0  0  0  0  0
  -20.4041  -24.0595   16.9734 N   0  3  0  0  0  0  0  0  0  0  0  0
  -22.5495  -14.8025   20.8521 O   0  0  0  0  0  0  0  0  0  0  0  0
  -23.5983  -28.2648   23.4778 O   0  0  0  0  0  0  0  0  0  0  0  0
  -20.7735  -28.4168   20.9894 O   0  0  0  0  0  0  0  0  0  0  0  0
  -21.4328  -23.9307   19.5891 O   0  0  0  0  0  0  0  0  0  0  0  0
  -31.8226  -14.9467   20.3701 O   0  0  0  0  0  0  0  0  0  0  0  0
  -21.4746   -7.1790   21.9982 O   0  0  0  0  0  0  0  0  0  0  0  0
  -28.0971  -24.1480   20.9642 O   0  0  0  0  0  0  0  0  0  1  0  0
  -23.7028   -3.4733   25.4198 F   0  0  0  0  0  0  0  0  0  0  0  0
  -20.2642   -6.5645   24.4066 F   0  0  0  0  0  0  0  0  0  0  0  0
  1  2  1  0  0  0  0
  1  5  2  0  0  0  0
  2  6  2  0  0  0  0
  3  8  2  0  0  0  0
  3 16  1  0  0  0  0
  4  9  1  0  0  0  0
  4 16  2  0  0  0  0
  5 18  1  0  0  0  0
  6 20  1  0  0  0  0
  7 10  2  0  0  0  0
  7 19  1  0  0  0  0
  8 24  1  0  0  0  0
  9 24  2  0  0  0  0
 10 25  1  0  0  0  0
 11 12  2  0  0  0  0
 11 26  1  0  0  0  0
 12 27  1  0  0  0  0
 13 21  1  0  0  0  0
 13 25  2  0  0  0  0
 14 22  2  0  0  0  0
 14 30  1  0  0  0  0
 15 27  2  0  0  0  0
 15 28  1  0  0  0  0
 16 29  1  0  0  0  0
 17 29  1  0  0  0  0
 17 32  2  0  0  0  0
 17 33  1  0  0  0  0
 18 20  2  0  0  0  0
 18 38  1  0  0  0  0
 19 21  2  0  0  0  0
 19 39  1  0  0  0  0
 20 49  1  0  0  0  0
 21 40  1  0  0  0  0
 22 23  1  0  0  0  0
 22 59  1  0  0  0  0
 23 31  2  0  0  0  0
 23 53  1  0  0  0  0
 24 81  1  0  0  0  0
 25 82  1  0  0  0  0
 26 28  2  0  0  0  0
 26 81  1  0  0  0  0
 27 83  1  0  0  0  0
 28 84  1  0  0  0  0
 29 63  2  0  0  0  0
 30 64  2  0  0  0  0
 30 66  1  0  0  0  0
 31 64  1  0  0  0  0
 31 69  1  0  0  0  0
 32 65  1  0  0  0  0
 32 70  1  0  0  0  0
 33 71  1  0  0  0  0
 33 76  2  0  0  0  0
 34 50  1  0  0  0  0
 34 72  1  0  0  0  0
 34 77  2  0  0  0  0
 35 60  1  0  0  0  0
 35 67  1  0  0  0  0
 35 78  2  0  0  0  0
 36 61  1  0  0  0  0
 36 73  1  0  0  0  0
 36 79  2  0  0  0  0
 37 68  1  0  0  0  0
 37 74  1  0  0  0  0
 37 80  2  0  0  0  0
 38 41  1  0  0  0  0
 39 50  1  0  0  0  0
 40 67  1  0  0  0  0
 41 43  1  0  0  0  0
 42 44  1  0  0  0  0
 42 45  1  0  0  0  0
 43 49  1  0  0  0  0
 44 51  1  0  0  0  0
 45 68  1  0  0  0  0
 46 51  1  0  0  0  0
 46 68  1  0  0  0  0
 47 52  1  0  0  0  0
 47 66  1  0  0  0  0
 48 52  1  0  0  0  0
 48 66  1  0  0  0  0
 49 72  1  0  0  0  0
 50 67  1  0  0  0  0
 51 65  1  0  0  0  0
 52 82  1  0  0  0  0
 54 61  1  0  0  0  0
 55 62  1  0  0  0  0
 56 62  1  0  0  0  0
 57 62  1  0  0  0  0
 58 75  1  0  0  0  0
 59 74  1  0  0  0  0
 60 62  1  0  0  0  0
 60 73  1  0  0  0  0
 61 75  1  0  0  0  0
 63 65  1  0  0  0  0
M  CHG  1  75   1
M  ISO  4  37 100  52 101  74 100  82 101
M  END
> <Batch ID>
0173

> <Smiles>
CNC(C)C(=O)NC(C(=O)N1Cc2cc([101O:1][101CH:1]3CN(c4cc(C[100NH:0][100C:0](=O)N5CCCC(n6nc(-c7ccc(Oc8ccc(F)cc8F)cc7)c(C(N)=O)c6N)C5)c(C)c(N)n4)C3)ccc2CC1C(=O)NC1CCCc2ccccc21)C(C)(C)C

> <Shape>
0.344

> <Color>
0.198

> <Negative vol penalty>
0.000

$$$$

  -OEChem-04052322423D

 89 98  0     1  0  0  0  0  0999 V2000
  -18.2643  -27.8327   26.1757 C   0  0  0  0  0  0  0  0  0  0  0  0
  -19.6488  -27.7713   26.2976 C   0  0  0  0  0  0  0  0  0  0  0  0
  -24.2767  -10.5410   22.8396 C   0  0  0  0  0  0  0  0  0  0  0  0
  -24.1441  -12.1726   24.6165 C   0  0  0  0  0  0  0  0  0  0  0  0
  -17.6697  -27.7024   24.9214 C   0  0  0  0  0  0  0  0  0  0  0  0
  -20.4395  -27.5785   25.1653 C   0  0  0  0  0  0  0  0  0  0  0  0
  -26.8349  -29.3332   22.4570 C   0  0  0  0  0  0  0  0  0  0  0  0
  -23.7717   -9.5647   23.6983 C   0  0  0  0  0  0  0  0  0  0  0  0
  -23.6390  -11.1963   25.4752 C   0  0  0  0  0  0  0  0  0  0  0  0
  -27.9657  -28.7419   21.8953 C   0  0  0  0  0  0  0  0  0  0  0  0
  -22.1782   -6.7277   25.3193 C   0  0  0  0  0  0  0  0  0  0  0  0
  -21.1799   -5.8862   24.8287 C   0  0  0  0  0  0  0  0  0  0  0  0
  -26.8330  -28.6089   19.7697 C   0  0  0  0  0  0  0  0  0  0  0  0
  -27.5763  -20.4126   20.4962 C   0  0  0  0  0  0  0  0  0  0  0  0
  -19.7596   -7.8006   24.4348 C   0  0  0  0  0  0  0  0  0  0  0  0
  -24.4630  -11.8449   23.2987 C   0  0  0  0  0  0  0  0  0  0  0  0
  -24.2493  -13.7100   21.5714 C   0  0  0  0  0  0  0  0  0  0  0  0
  -18.4540  -27.5175   23.7719 C   0  0  0  0  0  0  0  0  0  0  0  0
  -25.6889  -29.5572   21.6806 C   0  0  0  0  0  0  0  0  0  0  0  0
  -19.8547  -27.4442   23.8946 C   0  0  0  0  0  0  0  0  0  0  0  0
  -25.6898  -29.2056   20.3232 C   0  0  0  0  0  0  0  0  0  0  0  0
  -28.7656  -22.3167   19.6334 C   0  0  0  0  0  0  0  0  0  0  0  0
  -27.5760  -21.7294   20.0500 C   0  0  0  0  0  0  0  0  0  0  0  0
  -23.4528   -9.8923   25.0161 C   0  0  0  0  0  0  0  0  0  0  0  0
  -27.9639  -28.3770   20.5522 C   0  0  0  0  0  0  0  0  0  0  0  0
  -21.9673   -8.1058   25.3677 C   0  0  0  0  0  0  0  0  0  0  0  0
  -19.9706   -6.4226   24.3865 C   0  0  0  0  0  0  0  0  0  0  0  0
  -20.7580   -8.6422   24.9254 C   0  0  0  0  0  0  0  0  0  0  0  0
  -24.9852  -12.8537   22.4123 C   0  0  0  0  0  0  0  0  0  0  0  0
  -29.9190  -21.5505   19.6822 C   0  0  0  0  0  0  0  0  0  0  0  0
  -28.7829  -19.7315   20.5061 C   0  0  0  0  0  0  0  0  0  0  0  0
  -25.2012  -14.4742   20.9418 C   0  0  0  0  0  0  0  0  0  0  0  0
  -22.8321  -13.8060   21.3768 C   0  0  0  0  0  0  0  0  0  0  0  0
  -22.6788  -28.5407   21.7792 C   0  0  0  0  0  0  0  0  0  0  0  0
  -22.2899  -30.6721   19.3650 C   0  0  0  0  0  0  0  0  0  0  0  0
  -23.7000  -32.4573   16.8211 C   0  0  0  0  0  0  0  0  0  0  0  0
  -29.8596  -17.5219   21.0582 C   0  0  0  0  0  0  0  0  0  0  0  0
  -17.7634  -27.3344   22.4436 C   0  0  0  0  0  0  0  0  0  0  0  0
  -24.4867  -30.2204   22.2948 C   0  0  0  0  0  0  0  0  0  0  0  0
  -24.4920  -29.4432   19.4416 C   0  0  0  0  0  0  0  0  0  0  0  0
  -18.6927  -27.5075   21.2450 C   0  0  0  0  0  0  0  0  0  0  0  0
  -30.2375  -13.9921   20.7848 C   0  0  0  0  0  0  0  0  0  0  0  0
  -19.9910  -26.7362   21.4603 C   0  0  0  0  0  0  0  0  0  0  0  0
  -28.8442  -13.4517   21.1147 C   0  0  0  0  0  0  0  0  0  0  0  0
  -30.5862  -15.2155   21.6306 C   0  0  0  0  0  0  0  0  0  0  0  0
  -28.2011  -15.7575   21.9251 C   0  0  0  0  0  0  0  0  0  0  0  0
  -30.0878  -25.1498   17.5721 C   0  0  0  0  0  0  0  0  0  0  0  0
  -20.7476  -27.2609   22.6866 C   0  0  1  0  0  0  0  0  0  0  0  0
  -28.7964  -23.7458   19.1423 C   0  0  1  0  0  0  0  0  0  0  0  0
  -23.1935  -29.9317   21.5387 C   0  0  1  0  0  0  0  0  0  0  0  0
  -29.9711  -25.8441   18.9268 C   0  0  2  0  0  0  0  0  0  0  0  0
  -29.7717  -24.6679   19.8943 C   0  0  1  0  0  0  0  0  0  0  0  0
  -27.7791  -14.5640   21.0526 C   0  0  2  0  0  0  0  0  0  0  0  0
  -26.2912  -22.4895   20.0281 C   0  0  0  0  0  0  0  0  0  0  0  0
  -31.2267  -22.1286   19.2485 C   0  0  0  0  0  0  0  0  0  0  0  0
  -29.2805  -25.0535   21.2847 C   0  0  0  0  0  0  0  0  0  0  0  0
  -23.1225  -34.0846   15.0003 C   0  0  0  0  0  0  0  0  0  0  0  0
  -28.6910  -23.8586   15.2939 C   0  0  0  0  0  0  0  0  0  0  0  0
  -27.1868  -25.0149   16.9597 C   0  0  0  0  0  0  0  0  0  0  0  0
  -21.0813  -28.4021   17.7230 C   0  0  0  0  0  0  0  0  0  0  0  0
  -21.4070  -29.8039   15.6743 C   0  0  0  0  0  0  0  0  0  0  0  0
  -19.9007  -30.5953   17.4985 C   0  0  0  0  0  0  0  0  0  0  0  0
  -25.4841  -34.5315   17.9497 C   0  0  0  0  0  0  0  0  0  0  0  0
  -28.8519  -26.8863   18.9259 C   0  0  0  0  0  0  0  0  0  1  0  0
  -22.4028  -30.6159   17.8607 C   0  0  1  0  0  0  0  0  0  0  0  0
  -23.5917  -33.9221   16.4377 C   0  0  2  0  0  0  0  0  0  0  0  0
  -28.1108  -23.8362   16.6989 C   0  0  0  0  0  0  0  0  0  0  0  0
  -21.2200  -29.8479   17.2060 C   0  0  0  0  0  0  0  0  0  0  0  0
  -26.3029  -13.0546   22.3269 N   0  0  0  0  0  0  0  0  0  0  0  0
  -29.9584  -20.2685   20.1093 N   0  0  0  0  0  0  0  0  0  0  0  0
  -26.4025  -14.0457   21.4248 N   0  0  0  0  0  0  0  0  0  0  0  0
  -23.3387  -30.0888   20.0901 N   0  0  0  0  0  0  0  0  0  0  0  0
  -29.5345  -16.2287   21.5193 N   0  0  0  0  0  0  0  0  0  0  0  0
  -25.1193  -15.4642   20.0276 N   0  0  0  0  0  0  0  0  0  0  0  0
  -21.9981  -12.9455   22.1037 N   0  0  0  0  0  0  0  0  0  0  0  0
  -28.7726  -18.3902   20.9628 N   0  0  0  0  0  0  0  0  0  0  0  0
  -21.4298  -28.4970   22.3687 N   0  0  0  0  0  0  0  0  0  0  0  0
  -22.5415  -31.9964   17.4099 N   0  0  0  0  0  0  0  0  0  0  0  0
  -29.2417  -23.8923   17.6810 N   0  3  1  0  0  0  0  0  0  0  0  0
  -24.9145  -34.5938   16.5791 N   0  3  0  0  0  0  0  0  0  0  0  0
  -22.3213  -14.6192   20.5698 O   0  0  0  0  0  0  0  0  0  0  0  0
  -23.3635  -27.5782   21.4526 O   0  0  0  0  0  0  0  0  0  0  0  0
  -21.3109  -31.2200   19.8780 O   0  0  0  0  0  0  0  0  0  0  0  0
  -24.7100  -31.7878   16.6154 O   0  0  0  0  0  0  0  0  0  0  0  0
  -31.0125  -17.8279   20.7433 O   0  0  0  0  0  0  0  0  0  0  0  0
  -22.9597   -8.9400   25.8542 O   0  0  0  0  0  0  0  0  0  0  0  0
  -29.0660  -27.7991   20.0016 O   0  0  0  0  0  0  0  0  0  1  0  0
  -19.0126   -5.6144   23.9140 F   0  0  0  0  0  0  0  0  0  0  0  0
  -20.5500   -9.9653   24.9683 F   0  0  0  0  0  0  0  0  0  0  0  0
  1  2  1  0  0  0  0
  1  5  2  0  0  0  0
  2  6  2  0  0  0  0
  3  8  2  0  0  0  0
  3 16  1  0  0  0  0
  4  9  1  0  0  0  0
  4 16  2  0  0  0  0
  5 18  1  0  0  0  0
  6 20  1  0  0  0  0
  7 10  2  0  0  0  0
  7 19  1  0  0  0  0
  8 24  1  0  0  0  0
  9 24  2  0  0  0  0
 10 25  1  0  0  0  0
 11 12  2  0  0  0  0
 11 26  1  0  0  0  0
 12 27  1  0  0  0  0
 13 21  1  0  0  0  0
 13 25  2  0  0  0  0
 14 23  2  0  0  0  0
 14 31  1  0  0  0  0
 15 27  2  0  0  0  0
 15 28  1  0  0  0  0
 16 29  1  0  0  0  0
 17 29  1  0  0  0  0
 17 32  2  0  0  0  0
 17 33  1  0  0  0  0
 18 20  2  0  0  0  0
 18 38  1  0  0  0  0
 19 21  2  0  0  0  0
 19 39  1  0  0  0  0
 20 48  1  0  0  0  0
 21 40  1  0  0  0  0
 22 23  1  0  0  0  0
 22 30  2  0  0  0  0
 22 49  1  0  0  0  0
 23 54  1  0  0  0  0
 24 86  1  0  0  0  0
 25 87  1  0  0  0  0
 26 28  2  0  0  0  0
 26 86  1  0  0  0  0
 27 88  1  0  0  0  0
 28 89  1  0  0  0  0
 29 69  2  0  0  0  0
 30 55  1  0  0  0  0
 30 70  1  0  0  0  0
 31 70  2  0  0  0  0
 31 76  1  0  0  0  0
 32 71  1  0  0  0  0
 32 74  1  0  0  0  0
 33 75  1  0  0  0  0
 33 81  2  0  0  0  0
 34 50  1  0  0  0  0
 34 77  1  0  0  0  0
 34 82  2  0  0  0  0
 35 65  1  0  0  0  0
 35 72  1  0  0  0  0
 35 83  2  0  0  0  0
 36 66  1  0  0  0  0
 36 78  1  0  0  0  0
 36 84  2  0  0  0  0
 37 73  1  0  0  0  0
 37 76  1  0  0  0  0
 37 85  2  0  0  0  0
 38 41  1  0  0  0  0
 39 50  1  0  0  0  0
 40 72  1  0  0  0  0
 41 43  1  0  0  0  0
 42 44  1  0  0  0  0
 42 45  1  0  0  0  0
 43 48  1  0  0  0  0
 44 53  1  0  0  0  0
 45 73  1  0  0  0  0
 46 53  1  0  0  0  0
 46 73  1  0  0  0  0
 47 51  1  0  0  0  0
 47 79  1  0  0  0  0
 48 77  1  0  0  0  0
 49 52  1  0  0  0  0
 49 79  1  0  0  0  0
 50 72  1  0  0  0  0
 51 52  1  0  0  0  0
 51 64  1  0  0  0  0
 52 56  1  0  0  0  0
 53 71  1  0  0  0  0
 57 66  1  0  0  0  0
 58 67  1  0  0  0  0
 59 67  1  0  0  0  0
 60 68  1  0  0  0  0
 61 68  1  0  0  0  0
 62 68  1  0  0  0  0
 63 80  1  0  0  0  0
 64 87  1  0  0  0  0
 65 68  1  0  0  0  0
 65 78  1  0  0  0  0
 66 80  1  0  0  0  0
 67 79  1  0  0  0  0
 69 71  1  0  0  0  0
M  CHG  2  79   1  80   1
M  ISO  4  37 100  64 101  76 100  87 101
M  END
> <Batch ID>
0173

> <Smiles>
CNC(C)C(=O)NC(C(=O)N1Cc2cc([101O:1][101CH2:1]C3CN(C(C)C)C(c4c(C)cc([100NH:0][100C:0](=O)N5CCCC(n6nc(-c7ccc(Oc8ccc(F)cc8F)cc7)c(C(N)=O)c6N)C5)nc4C)C3C)ccc2CC1C(=O)NC1CCCc2ccccc21)C(C)(C)C

> <Shape>
0.292

> <Color>
0.136

> <Negative vol penalty>
0.000

$$$$

  -OEChem-04052322423D

 85 94  0     1  0  0  0  0  0999 V2000
  -26.0881  -36.2581   22.6101 C   0  0  0  0  0  0  0  0  0  0  0  0
  -27.1270  -35.3888   22.2929 C   0  0  0  0  0  0  0  0  0  0  0  0
  -23.2106   -9.8244   21.6491 C   0  0  0  0  0  0  0  0  0  0  0  0
  -23.9066  -11.0568   23.6072 C   0  0  0  0  0  0  0  0  0  0  0  0
  -24.9179  -35.7637   23.1846 C   0  0  0  0  0  0  0  0  0  0  0  0
  -26.9966  -34.0247   22.5511 C   0  0  0  0  0  0  0  0  0  0  0  0
  -28.9678  -27.6405   19.9680 C   0  0  0  0  0  0  0  0  0  0  0  0
  -22.5418   -8.9097   22.4625 C   0  0  0  0  0  0  0  0  0  0  0  0
  -23.2378  -10.1421   24.4206 C   0  0  0  0  0  0  0  0  0  0  0  0
  -29.5762  -26.4545   20.3766 C   0  0  0  0  0  0  0  0  0  0  0  0
  -23.3340   -6.2570   24.4015 C   0  0  0  0  0  0  0  0  0  0  0  0
  -23.4969   -4.9006   24.1202 C   0  0  0  0  0  0  0  0  0  0  0  0
  -27.4777  -25.7029   21.2989 C   0  0  0  0  0  0  0  0  0  0  0  0
  -21.1169   -4.6889   23.7627 C   0  0  0  0  0  0  0  0  0  0  0  0
  -23.8931  -10.8979   22.2214 C   0  0  0  0  0  0  0  0  0  0  0  0
  -24.0627  -13.0250   20.8234 C   0  0  0  0  0  0  0  0  0  0  0  0
  -24.7693  -34.3915   23.4411 C   0  0  0  0  0  0  0  0  0  0  0  0
  -27.6101  -27.8717   20.2318 C   0  0  0  0  0  0  0  0  0  0  0  0
  -25.8238  -33.5117   23.1308 C   0  0  0  0  0  0  0  0  0  0  0  0
  -26.8538  -26.8916   20.8903 C   0  0  0  0  0  0  0  0  0  0  0  0
  -22.5553   -9.0686   23.8482 C   0  0  0  0  0  0  0  0  0  0  0  0
  -28.8318  -25.4867   21.0447 C   0  0  0  0  0  0  0  0  0  0  0  0
  -22.0625   -6.8294   24.3635 C   0  0  0  0  0  0  0  0  0  0  0  0
  -22.3884   -4.1165   23.8008 C   0  0  0  0  0  0  0  0  0  0  0  0
  -20.9540   -6.0454   24.0441 C   0  0  0  0  0  0  0  0  0  0  0  0
  -24.5847  -11.8428   21.3818 C   0  0  0  0  0  0  0  0  0  0  0  0
  -25.1098  -13.5614   20.1147 C   0  0  0  0  0  0  0  0  0  0  0  0
  -22.7489  -13.5880   20.9356 C   0  0  0  0  0  0  0  0  0  0  0  0
  -25.9868  -30.0275   21.9115 C   0  0  0  0  0  0  0  0  0  0  0  0
  -23.4184  -28.5467   20.5951 C   0  0  0  0  0  0  0  0  0  0  0  0
  -22.1059  -25.7290   19.1864 C   0  0  0  0  0  0  0  0  0  0  0  0
  -30.5873  -14.9346   20.0833 C   0  0  0  0  0  0  0  0  0  0  0  0
  -23.5045  -33.9103   24.1068 C   0  0  0  0  0  0  0  0  0  0  0  0
  -26.9624  -29.1449   19.7608 C   0  0  0  0  0  0  0  0  0  0  0  0
  -25.3882  -27.0826   21.1798 C   0  0  0  0  0  0  0  0  0  0  0  0
  -23.2979  -32.4013   24.0034 C   0  0  0  0  0  0  0  0  0  0  0  0
  -29.6038  -11.6119   18.8644 C   0  0  0  0  0  0  0  0  0  0  0  0
  -24.5856  -31.6612   24.3507 C   0  0  0  0  0  0  0  0  0  0  0  0
  -28.1843  -11.4569   19.4115 C   0  0  0  0  0  0  0  0  0  0  0  0
  -28.6337  -20.7768   21.6135 C   0  0  0  0  0  0  0  0  0  0  0  0
  -28.3728  -22.2208   22.0532 C   0  0  0  0  0  0  0  0  0  0  0  0
  -28.5181  -17.8627   19.5055 C   0  0  0  0  0  0  0  0  0  0  0  0
  -30.4708  -12.4871   19.7664 C   0  0  0  0  0  0  0  0  0  0  0  0
  -28.5168  -16.4076   19.9584 C   0  0  0  0  0  0  0  0  0  0  0  0
  -28.4713  -13.6511   20.6224 C   0  0  0  0  0  0  0  0  0  0  0  0
  -25.7104  -32.0222   23.3729 C   0  0  1  0  0  0  0  0  0  0  0  0
  -25.6964  -29.4939   20.5372 C   0  0  1  0  0  0  0  0  0  0  0  0
  -27.5519  -12.8292   19.7082 C   0  0  2  0  0  0  0  0  0  0  0  0
  -29.2116  -20.8927   20.2060 C   0  0  1  0  0  0  0  0  0  0  0  0
  -29.5563  -18.4695   20.4358 C   0  0  1  0  0  0  0  0  0  0  0  0
  -28.9030  -23.1125   20.9251 C   0  0  2  0  0  0  0  0  0  1  0  0
  -30.6472  -17.3990   20.5058 C   0  0  1  0  0  0  0  0  0  0  0  0
  -29.9474  -22.2458   20.1844 C   0  0  0  0  0  0  0  0  0  0  0  0
  -31.4124  -17.4447   21.8231 C   0  0  0  0  0  0  0  0  0  0  0  0
  -30.1732  -22.7478   18.7526 C   0  0  0  0  0  0  0  0  0  0  0  0
  -31.3050  -22.2309   20.9158 C   0  0  0  0  0  0  0  0  0  0  0  0
  -19.9691  -24.8086   18.2460 C   0  0  0  0  0  0  0  0  0  0  0  0
  -22.3248  -28.2030   23.4228 C   0  0  0  0  0  0  0  0  0  0  0  0
  -20.7312  -26.4940   22.5239 C   0  0  0  0  0  0  0  0  0  0  0  0
  -20.6164  -28.8511   21.7152 C   0  0  0  0  0  0  0  0  0  0  0  0
  -23.3251  -25.3044   16.5233 C   0  0  0  0  0  0  0  0  0  0  0  0
  -30.3705  -19.6717   18.4131 C   0  0  0  0  0  0  0  0  0  0  0  0
  -22.5401  -27.3822   20.9844 C   0  0  1  0  0  0  0  0  0  0  0  0
  -21.2748  -25.5228   17.9330 C   0  0  2  0  0  0  0  0  0  0  0  0
  -21.5812  -27.7295   22.1580 C   0  0  0  0  0  0  0  0  0  0  0  0
  -25.8639  -11.6395   21.0556 N   0  0  0  0  0  0  0  0  0  0  0  0
  -26.1545  -12.7012   20.2846 N   0  0  0  0  0  0  0  0  0  0  0  0
  -24.8018  -28.3468   20.7049 N   0  0  0  0  0  0  0  0  0  0  0  0
  -29.8162  -13.7653   20.0459 N   0  0  0  0  0  0  0  0  0  0  0  0
  -29.9138  -16.1373   20.3171 N   0  0  0  0  0  0  0  0  0  0  0  0
  -25.2296  -14.6802   19.3688 N   0  0  0  0  0  0  0  0  0  0  0  0
  -21.7936  -12.9073   21.7026 N   0  0  0  0  0  0  0  0  0  0  0  0
  -25.5372  -31.3172   22.1209 N   0  0  0  0  0  0  0  0  0  0  0  0
  -21.8621  -26.9567   19.7647 N   0  0  0  0  0  0  0  0  0  0  0  0
  -22.0295  -24.7081   16.9392 N   0  3  0  0  0  0  0  0  0  0  0  0
  -30.0761  -19.7389   19.8952 N   0  3  1  0  0  0  0  0  0  0  0  0
  -22.4268  -14.6543   20.3588 O   0  0  0  0  0  0  0  0  0  0  0  0
  -26.5741  -29.3209   22.7223 O   0  0  0  0  0  0  0  0  0  0  0  0
  -22.8965  -29.5927   20.2012 O   0  0  0  0  0  0  0  0  0  0  0  0
  -22.8901  -24.8838   19.6122 O   0  0  0  0  0  0  0  0  0  0  0  0
  -31.8087  -14.9093   19.8852 O   0  0  0  0  0  0  0  0  0  0  0  0
  -21.9026   -8.1764   24.6423 O   0  0  0  0  0  0  0  0  0  0  0  0
  -29.4287  -24.3178   21.4489 O   0  0  0  0  0  0  0  0  0  1  0  0
  -22.5452   -2.8143   23.5292 F   0  0  0  0  0  0  0  0  0  0  0  0
  -19.7302   -6.5899   24.0048 F   0  0  0  0  0  0  0  0  0  0  0  0
  1  2  1  0  0  0  0
  1  5  2  0  0  0  0
  2  6  2  0  0  0  0
  3  8  2  0  0  0  0
  3 15  1  0  0  0  0
  4  9  1  0  0  0  0
  4 15  2  0  0  0  0
  5 17  1  0  0  0  0
  6 19  1  0  0  0  0
  7 10  2  0  0  0  0
  7 18  1  0  0  0  0
  8 21  1  0  0  0  0
  9 21  2  0  0  0  0
 10 22  1  0  0  0  0
 11 12  2  0  0  0  0
 11 23  1  0  0  0  0
 12 24  1  0  0  0  0
 13 20  1  0  0  0  0
 13 22  2  0  0  0  0
 14 24  2  0  0  0  0
 14 25  1  0  0  0  0
 15 26  1  0  0  0  0
 16 26  1  0  0  0  0
 16 27  2  0  0  0  0
 16 28  1  0  0  0  0
 17 19  2  0  0  0  0
 17 33  1  0  0  0  0
 18 20  2  0  0  0  0
 18 34  1  0  0  0  0
 19 46  1  0  0  0  0
 20 35  1  0  0  0  0
 21 82  1  0  0  0  0
 22 83  1  0  0  0  0
 23 25  2  0  0  0  0
 23 82  1  0  0  0  0
 24 84  1  0  0  0  0
 25 85  1  0  0  0  0
 26 66  2  0  0  0  0
 27 67  1  0  0  0  0
 27 71  1  0  0  0  0
 28 72  1  0  0  0  0
 28 77  2  0  0  0  0
 29 47  1  0  0  0  0
 29 73  1  0  0  0  0
 29 78  2  0  0  0  0
 30 63  1  0  0  0  0
 30 68  1  0  0  0  0
 30 79  2  0  0  0  0
 31 64  1  0  0  0  0
 31 74  1  0  0  0  0
 31 80  2  0  0  0  0
 32 69  1  0  0  0  0
 32 70  1  0  0  0  0
 32 81  2  0  0  0  0
 33 36  1  0  0  0  0
 34 47  1  0  0  0  0
 35 68  1  0  0  0  0
 36 38  1  0  0  0  0
 37 39  1  0  0  0  0
 37 43  1  0  0  0  0
 38 46  1  0  0  0  0
 39 48  1  0  0  0  0
 40 41  1  0  0  0  0
 40 49  1  0  0  0  0
 41 51  1  0  0  0  0
 42 44  1  0  0  0  0
 42 50  1  0  0  0  0
 43 69  1  0  0  0  0
 44 70  1  0  0  0  0
 45 48  1  0  0  0  0
 45 69  1  0  0  0  0
 46 73  1  0  0  0  0
 47 68  1  0  0  0  0
 48 67  1  0  0  0  0
 49 53  1  0  0  0  0
 49 76  1  0  0  0  0
 50 52  1  0  0  0  0
 50 76  1  0  0  0  0
 51 53  1  0  0  0  0
 51 83  1  0  0  0  0
 52 54  1  0  0  0  0
 52 70  1  0  0  0  0
 53 55  1  0  0  0  0
 53 56  1  0  0  0  0
 57 64  1  0  0  0  0
 58 65  1  0  0  0  0
 59 65  1  0  0  0  0
 60 65  1  0  0  0  0
 61 75  1  0  0  0  0
 62 76  1  0  0  0  0
 63 65  1  0  0  0  0
 63 74  1  0  0  0  0
 64 75  1  0  0  0  0
 66 67  1  0  0  0  0
M  CHG  2  75   1  76   1
M  ISO  4  32 100  51 101  70 100  83 101
M  END
> <Batch ID>
0173

> <Smiles>
CNC(C)C(=O)NC(C(=O)N1Cc2cc([101O:1][101CH:1]3CCC(N(C)C4CC[100N:0]([100C:0](=O)N5CCCC(n6nc(-c7ccc(Oc8ccc(F)cc8F)cc7)c(C(N)=O)c6N)C5)C4C)C3(C)C)ccc2CC1C(=O)NC1CCCc2ccccc21)C(C)(C)C

> <Shape>
0.382

> <Color>
0.146

> <Negative vol penalty>
0.000

$$$$

  -OEChem-04052322423D

 87 96  0     1  0  0  0  0  0999 V2000
  -28.2630  -34.8693   15.6430 C   0  0  0  0  0  0  0  0  0  0  0  0
  -28.6031  -33.5208   15.6782 C   0  0  0  0  0  0  0  0  0  0  0  0
  -23.0187  -10.1397   19.9288 C   0  0  0  0  0  0  0  0  0  0  0  0
  -23.7256   -9.7694   22.2092 C   0  0  0  0  0  0  0  0  0  0  0  0
  -27.7807  -35.4956   16.7915 C   0  0  0  0  0  0  0  0  0  0  0  0
  -28.4620  -32.7980   16.8623 C   0  0  0  0  0  0  0  0  0  0  0  0
  -26.8708  -26.9099   17.4140 C   0  0  0  0  0  0  0  0  0  0  0  0
  -22.1691   -9.0366   20.0130 C   0  0  0  0  0  0  0  0  0  0  0  0
  -22.8760   -8.6664   22.2934 C   0  0  0  0  0  0  0  0  0  0  0  0
  -27.6201  -25.7497   17.6041 C   0  0  0  0  0  0  0  0  0  0  0  0
  -21.1623   -5.5383   22.9924 C   0  0  0  0  0  0  0  0  0  0  0  0
  -21.6660   -4.3749   23.5740 C   0  0  0  0  0  0  0  0  0  0  0  0
  -27.2248  -25.8907   19.9796 C   0  0  0  0  0  0  0  0  0  0  0  0
  -23.3841   -4.2712   21.8786 C   0  0  0  0  0  0  0  0  0  0  0  0
  -23.7970  -10.5060   21.0268 C   0  0  0  0  0  0  0  0  0  0  0  0
  -24.3665  -12.9823   21.2533 C   0  0  0  0  0  0  0  0  0  0  0  0
  -27.6245  -34.7778   17.9878 C   0  0  0  0  0  0  0  0  0  0  0  0
  -26.3011  -27.5765   18.5084 C   0  0  0  0  0  0  0  0  0  0  0  0
  -27.9784  -33.4156   18.0283 C   0  0  0  0  0  0  0  0  0  0  0  0
  -26.4666  -27.0578   19.8005 C   0  0  0  0  0  0  0  0  0  0  0  0
  -29.8211  -22.2517   18.3125 C   0  0  0  0  0  0  0  0  0  0  0  0
  -31.0639  -22.3444   18.9290 C   0  0  0  0  0  0  0  0  0  0  0  0
  -29.2646  -21.0013   18.0670 C   0  0  0  0  0  0  0  0  0  0  0  0
  -22.0977   -8.3000   21.1953 C   0  0  0  0  0  0  0  0  0  0  0  0
  -27.7996  -25.2415   18.8873 C   0  0  0  0  0  0  0  0  0  0  0  0
  -21.7694   -6.0682   21.8538 C   0  0  0  0  0  0  0  0  0  0  0  0
  -22.7769   -3.7414   23.0171 C   0  0  0  0  0  0  0  0  0  0  0  0
  -22.8803   -5.4347   21.2969 C   0  0  0  0  0  0  0  0  0  0  0  0
  -24.6753  -11.6450   20.9402 C   0  0  0  0  0  0  0  0  0  0  0  0
  -31.7045  -21.1663   19.2777 C   0  0  0  0  0  0  0  0  0  0  0  0
  -29.9858  -19.8834   18.4541 C   0  0  0  0  0  0  0  0  0  0  0  0
  -25.5291  -13.6702   21.0055 C   0  0  0  0  0  0  0  0  0  0  0  0
  -23.1385  -13.5518   21.7260 C   0  0  0  0  0  0  0  0  0  0  0  0
  -26.6312  -30.4638   19.7960 C   0  0  0  0  0  0  0  0  0  0  0  0
  -24.1741  -29.4808   21.6717 C   0  0  0  0  0  0  0  0  0  0  0  0
  -22.4326  -26.8843   23.0401 C   0  0  0  0  0  0  0  0  0  0  0  0
  -29.7714  -14.5245   17.3448 C   0  0  0  0  0  0  0  0  0  0  0  0
  -27.1440  -35.5094   19.2160 C   0  0  0  0  0  0  0  0  0  0  0  0
  -25.4732  -28.8121   18.2838 C   0  0  0  0  0  0  0  0  0  0  0  0
  -25.8587  -27.7244   21.0065 C   0  0  0  0  0  0  0  0  0  0  0  0
  -26.6703  -34.5813   20.3315 C   0  0  0  0  0  0  0  0  0  0  0  0
  -30.2126  -12.0364   20.0464 C   0  0  0  0  0  0  0  0  0  0  0  0
  -27.6728  -33.4523   20.5484 C   0  0  0  0  0  0  0  0  0  0  0  0
  -28.7746  -11.7741   20.4931 C   0  0  0  0  0  0  0  0  0  0  0  0
  -30.2854  -12.4520   18.5797 C   0  0  0  0  0  0  0  0  0  0  0  0
  -29.1329  -18.2278   16.8328 C   0  0  0  0  0  0  0  0  0  0  0  0
  -29.7290  -16.8510   16.5613 C   0  0  0  0  0  0  0  0  0  0  0  0
  -27.9842  -13.3431   18.6809 C   0  0  0  0  0  0  0  0  0  0  0  0
  -28.6293  -16.3299   18.7283 C   0  0  0  0  0  0  0  0  0  0  0  0
  -27.8160  -32.5918   19.2872 C   0  0  1  0  0  0  0  0  0  0  0  0
  -25.3693  -29.6951   19.5235 C   0  0  1  0  0  0  0  0  0  0  0  0
  -27.8705  -12.9763   20.1676 C   0  0  1  0  0  0  0  0  0  0  0  0
  -29.2475  -17.6302   19.2803 C   0  0  2  0  0  0  0  0  0  0  0  0
  -31.6868  -23.6716   19.2065 C   0  0  0  0  0  0  0  0  0  0  0  0
  -27.9315  -20.8791   17.4055 C   0  0  0  0  0  0  0  0  0  0  0  0
  -33.0418  -21.2024   19.9423 C   0  0  0  0  0  0  0  0  0  0  0  0
  -28.3212  -18.1685   20.3776 C   0  0  0  0  0  0  0  0  0  0  0  0
  -20.4975  -26.3945   24.5608 C   0  0  0  0  0  0  0  0  0  0  0  0
  -25.8902  -30.2108   24.0867 C   0  0  0  0  0  0  0  0  0  0  0  0
  -24.3434  -28.8502   25.5095 C   0  0  0  0  0  0  0  0  0  0  0  0
  -23.4801  -30.8471   24.2890 C   0  0  0  0  0  0  0  0  0  0  0  0
  -20.9669  -25.4527   20.9044 C   0  0  0  0  0  0  0  0  0  0  0  0
  -29.0863  -23.4927   17.9166 C   0  0  0  0  0  0  0  0  0  1  0  0
  -24.0598  -28.7563   22.9912 C   0  0  1  0  0  0  0  0  0  0  0  0
  -20.9432  -26.6023   23.1217 C   0  0  2  0  0  0  0  0  0  0  0  0
  -24.4566  -29.6544   24.1968 C   0  0  0  0  0  0  0  0  0  0  0  0
  -25.9353  -11.4904   20.5250 N   0  0  0  0  0  0  0  0  0  0  0  0
  -31.1956  -19.9338   19.0553 N   0  0  0  0  0  0  0  0  0  0  0  0
  -26.4285  -12.7395   20.5754 N   0  0  0  0  0  0  0  0  0  0  0  0
  -29.4356  -18.6265   18.2087 N   0  0  3  0  0  0  0  0  0  0  0  0
  -25.0631  -28.9333   20.7360 N   0  0  0  0  0  0  0  0  0  0  0  0
  -29.3842  -13.5688   18.2956 N   0  0  0  0  0  0  0  0  0  0  0  0
  -29.3175  -15.8407   17.5301 N   0  0  0  0  0  0  0  0  0  0  0  0
  -25.8597  -14.9745   21.1155 N   0  0  0  0  0  0  0  0  0  0  0  0
  -22.0419  -12.7024   21.9272 N   0  0  0  0  0  0  0  0  0  0  0  0
  -26.6916  -31.6895   19.1607 N   0  0  0  0  0  0  0  0  0  0  0  0
  -22.6979  -28.2373   23.0553 N   0  0  0  0  0  0  0  0  0  0  0  0
  -20.6045  -25.3776   22.3432 N   0  3  0  0  0  0  0  0  0  0  0  0
  -23.0123  -14.7801   21.9472 O   0  0  0  0  0  0  0  0  0  0  0  0
  -27.4861  -29.9814   20.5295 O   0  0  0  0  0  0  0  0  0  0  0  0
  -23.4941  -30.4912   21.4758 O   0  0  0  0  0  0  0  0  0  0  0  0
  -23.2766  -25.9933   22.9734 O   0  0  0  0  0  0  0  0  0  0  0  0
  -30.4995  -14.2239   16.3896 O   0  0  0  0  0  0  0  0  0  0  0  0
  -21.2686   -7.2238   21.2780 O   0  0  0  0  0  0  0  0  0  0  0  0
  -28.5364  -24.1012   19.0770 O   0  0  0  0  0  0  0  0  0  1  0  0
  -23.2615   -2.6250   23.5766 F   0  0  0  0  0  0  0  0  0  0  0  0
  -23.4686   -5.9396   20.2039 F   0  0  0  0  0  0  0  0  0  0  0  0
  1  2  1  0  0  0  0
  1  5  2  0  0  0  0
  2  6  2  0  0  0  0
  3  8  2  0  0  0  0
  3 15  1  0  0  0  0
  4  9  1  0  0  0  0
  4 15  2  0  0  0  0
  5 17  1  0  0  0  0
  6 19  1  0  0  0  0
  7 10  2  0  0  0  0
  7 18  1  0  0  0  0
  8 24  1  0  0  0  0
  9 24  2  0  0  0  0
 10 25  1  0  0  0  0
 11 12  2  0  0  0  0
 11 26  1  0  0  0  0
 12 27  1  0  0  0  0
 13 20  1  0  0  0  0
 13 25  2  0  0  0  0
 14 27  2  0  0  0  0
 14 28  1  0  0  0  0
 15 29  1  0  0  0  0
 16 29  1  0  0  0  0
 16 32  2  0  0  0  0
 16 33  1  0  0  0  0
 17 19  2  0  0  0  0
 17 38  1  0  0  0  0
 18 20  2  0  0  0  0
 18 39  1  0  0  0  0
 19 50  1  0  0  0  0
 20 40  1  0  0  0  0
 21 22  1  0  0  0  0
 21 23  2  0  0  0  0
 21 63  1  0  0  0  0
 22 30  2  0  0  0  0
 22 54  1  0  0  0  0
 23 31  1  0  0  0  0
 23 55  1  0  0  0  0
 24 84  1  0  0  0  0
 25 85  1  0  0  0  0
 26 28  2  0  0  0  0
 26 84  1  0  0  0  0
 27 86  1  0  0  0  0
 28 87  1  0  0  0  0
 29 67  2  0  0  0  0
 30 56  1  0  0  0  0
 30 68  1  0  0  0  0
 31 68  2  0  0  0  0
 31 70  1  0  0  0  0
 32 69  1  0  0  0  0
 32 74  1  0  0  0  0
 33 75  1  0  0  0  0
 33 79  2  0  0  0  0
 34 51  1  0  0  0  0
 34 76  1  0  0  0  0
 34 80  2  0  0  0  0
 35 64  1  0  0  0  0
 35 71  1  0  0  0  0
 35 81  2  0  0  0  0
 36 65  1  0  0  0  0
 36 77  1  0  0  0  0
 36 82  2  0  0  0  0
 37 72  1  0  0  0  0
 37 73  1  0  0  0  0
 37 83  2  0  0  0  0
 38 41  1  0  0  0  0
 39 51  1  0  0  0  0
 40 71  1  0  0  0  0
 41 43  1  0  0  0  0
 42 44  1  0  0  0  0
 42 45  1  0  0  0  0
 43 50  1  0  0  0  0
 44 52  1  0  0  0  0
 45 72  1  0  0  0  0
 46 47  1  0  0  0  0
 46 70  1  0  0  0  0
 47 73  1  0  0  0  0
 48 52  1  0  0  0  0
 48 72  1  0  0  0  0
 49 53  1  0  0  0  0
 49 73  1  0  0  0  0
 50 76  1  0  0  0  0
 51 71  1  0  0  0  0
 52 69  1  0  0  0  0
 53 57  1  0  0  0  0
 53 70  1  0  0  0  0
 58 65  1  0  0  0  0
 59 66  1  0  0  0  0
 60 66  1  0  0  0  0
 61 66  1  0  0  0  0
 62 78  1  0  0  0  0
 63 85  1  0  0  0  0
 64 66  1  0  0  0  0
 64 77  1  0  0  0  0
 65 78  1  0  0  0  0
 67 69  1  0  0  0  0
M  CHG  1  78   1
M  ISO  4  37 100  63 101  73 100  85 101
M  END
> <Batch ID>
0173

> <Smiles>
CNC(C)C(=O)NC(C(=O)N1Cc2cc([101O:1][101CH2:1]c3c(C)c(C)nc(N4CC[100N:0]([100C:0](=O)N5CCCC(n6nc(-c7ccc(Oc8ccc(F)cc8F)cc7)c(C(N)=O)c6N)C5)CC4C)c3C)ccc2CC1C(=O)NC1CCCc2ccccc21)C(C)(C)C

> <Shape>
0.296

> <Color>
0.163

> <Negative vol penalty>
0.000

$$$$

  -OEChem-04052322423D

 90100  0     1  0  0  0  0  0999 V2000
  -25.8839  -20.1749   26.2630 C   0  0  0  0  0  0  0  0  0  0  0  0
  -26.6355  -20.9654   25.3995 C   0  0  0  0  0  0  0  0  0  0  0  0
  -22.4853  -12.3514   18.7370 C   0  0  0  0  0  0  0  0  0  0  0  0
  -22.8694  -10.1703   19.7025 C   0  0  0  0  0  0  0  0  0  0  0  0
  -24.5090  -20.3785   26.3739 C   0  0  0  0  0  0  0  0  0  0  0  0
  -26.0125  -21.9591   24.6454 C   0  0  0  0  0  0  0  0  0  0  0  0
  -28.5854  -26.3208   24.6753 C   0  0  0  0  0  0  0  0  0  0  0  0
  -30.3471  -22.6119   21.5896 C   0  0  0  0  0  0  0  0  0  0  0  0
  -21.3944  -11.8462   18.0297 C   0  0  0  0  0  0  0  0  0  0  0  0
  -21.7784   -9.6651   18.9952 C   0  0  0  0  0  0  0  0  0  0  0  0
  -29.7048  -26.4054   23.8485 C   0  0  0  0  0  0  0  0  0  0  0  0
  -18.4100   -9.6859   19.2670 C   0  0  0  0  0  0  0  0  0  0  0  0
  -17.5162   -8.8662   19.9561 C   0  0  0  0  0  0  0  0  0  0  0  0
  -30.1081  -21.2972   21.9835 C   0  0  0  0  0  0  0  0  0  0  0  0
  -28.4012  -27.6133   22.2173 C   0  0  0  0  0  0  0  0  0  0  0  0
  -17.9798   -7.0647   18.4143 C   0  0  0  0  0  0  0  0  0  0  0  0
  -23.2229  -11.5134   19.5734 C   0  0  0  0  0  0  0  0  0  0  0  0
  -24.3396  -12.6026   21.5918 C   0  0  0  0  0  0  0  0  0  0  0  0
  -23.8704  -21.3817   25.6280 C   0  0  0  0  0  0  0  0  0  0  0  0
  -27.3606  -26.8732   24.2738 C   0  0  0  0  0  0  0  0  0  0  0  0
  -24.6276  -22.1754   24.7454 C   0  0  0  0  0  0  0  0  0  0  0  0
  -30.4760  -22.8708   20.2397 C   0  0  0  0  0  0  0  0  0  0  0  0
  -27.2684  -27.5366   23.0419 C   0  0  0  0  0  0  0  0  0  0  0  0
  -21.0409  -10.5031   18.1588 C   0  0  0  0  0  0  0  0  0  0  0  0
  -29.6121  -27.0492   22.6181 C   0  0  0  0  0  0  0  0  0  0  0  0
  -19.0887   -9.1950   18.1516 C   0  0  0  0  0  0  0  0  0  0  0  0
  -17.3011   -7.5556   19.5298 C   0  0  0  0  0  0  0  0  0  0  0  0
  -18.8736   -7.8844   17.7253 C   0  0  0  0  0  0  0  0  0  0  0  0
  -24.3502  -12.0345   20.3038 C   0  0  0  0  0  0  0  0  0  0  0  0
  -29.9966  -20.3133   21.0010 C   0  0  0  0  0  0  0  0  0  0  0  0
  -30.3473  -21.8179   19.3357 C   0  0  0  0  0  0  0  0  0  0  0  0
  -25.6500  -12.9379   21.8300 C   0  0  0  0  0  0  0  0  0  0  0  0
  -23.2432  -12.8087   22.4924 C   0  0  0  0  0  0  0  0  0  0  0  0
  -24.4610  -25.7113   23.6857 C   0  0  0  0  0  0  0  0  0  0  0  0
  -23.6915  -28.8477   23.3810 C   0  0  0  0  0  0  0  0  0  0  0  0
  -24.7241  -32.0337   22.7248 C   0  0  0  0  0  0  0  0  0  0  0  0
  -30.4923  -15.0054   20.3135 C   0  0  0  0  0  0  0  0  0  0  0  0
  -22.3744  -21.5329   25.7461 C   0  0  0  0  0  0  0  0  0  0  0  0
  -26.1693  -26.7969   25.1888 C   0  0  0  0  0  0  0  0  0  0  0  0
  -25.9818  -28.1640   22.5733 C   0  0  0  0  0  0  0  0  0  0  0  0
  -21.8502  -22.8551   25.1918 C   0  0  0  0  0  0  0  0  0  0  0  0
  -29.8703  -11.7534   19.3204 C   0  0  0  0  0  0  0  0  0  0  0  0
  -22.4679  -23.1443   23.8273 C   0  0  0  0  0  0  0  0  0  0  0  0
  -28.3770  -11.5703   19.5907 C   0  0  0  0  0  0  0  0  0  0  0  0
  -28.8810  -18.1224   20.3869 C   0  0  0  0  0  0  0  0  0  0  0  0
  -31.0329  -18.1152   21.7206 C   0  0  0  0  0  0  0  0  0  0  0  0
  -31.1829  -23.6653   18.1495 C   0  0  0  0  0  0  0  0  0  0  0  0
  -30.1533  -13.1307   18.7319 C   0  0  0  0  0  0  0  0  0  0  0  0
  -28.6438  -16.6679   20.8033 C   0  0  0  0  0  0  0  0  0  0  0  0
  -30.7330  -16.6749   22.1255 C   0  0  0  0  0  0  0  0  0  0  0  0
  -28.1712  -14.0917   19.8569 C   0  0  0  0  0  0  0  0  0  0  0  0
  -23.9919  -23.2799   23.9292 C   0  0  1  0  0  0  0  0  0  0  0  0
  -30.6892  -24.1641   19.5222 C   0  0  2  0  0  0  0  0  0  0  0  0
  -29.7307  -18.8804   21.4227 C   0  0  0  0  0  0  0  0  0  0  0  0
  -30.4564  -22.3263   17.9245 C   0  0  1  0  0  0  0  0  0  0  0  0
  -24.8407  -26.9456   24.4537 C   0  0  1  0  0  0  0  0  0  0  0  0
  -27.8281  -12.7147   20.4609 C   0  0  1  0  0  0  0  0  0  0  0  0
  -23.8599  -34.3799   22.5115 C   0  0  0  0  0  0  0  0  0  0  0  0
  -32.9411  -27.1582   19.8886 C   0  0  0  0  0  0  0  0  0  0  0  0
  -22.5245  -28.1667   20.6452 C   0  0  0  0  0  0  0  0  0  0  0  0
  -22.5547  -30.6104   20.1014 C   0  0  0  0  0  0  0  0  0  0  0  0
  -21.1591  -29.7722   21.9915 C   0  0  0  0  0  0  0  0  0  0  0  0
  -26.4321  -32.9882   24.9452 C   0  0  0  0  0  0  0  0  0  0  0  0
  -30.4671  -27.1721   20.4022 C   0  0  0  0  0  0  0  0  0  1  0  0
  -23.6741  -29.8385   22.2420 C   0  0  1  0  0  0  0  0  0  0  0  0
  -24.4666  -33.3446   23.4457 C   0  0  2  0  0  0  0  0  0  0  0  0
  -31.5991  -26.4869   19.6452 C   0  0  2  0  0  0  0  0  0  0  0  0
  -22.5020  -29.5835   21.2527 C   0  0  0  0  0  0  0  0  0  0  0  0
  -25.5706  -12.0089   19.7616 N   0  0  0  0  0  0  0  0  0  0  0  0
  -30.1031  -20.5398   19.6700 N   0  0  0  0  0  0  0  0  0  0  0  0
  -26.3391  -12.5651   20.7136 N   0  0  0  0  0  0  0  0  0  0  0  0
  -24.8434  -28.0574   23.5008 N   0  0  0  0  0  0  0  0  0  0  0  0
  -29.6137  -14.1895   19.5848 N   0  0  0  0  0  0  0  0  0  0  0  0
  -29.9167  -16.0030   21.1147 N   0  0  0  0  0  0  0  0  0  0  0  0
  -26.2687  -13.5124   22.8835 N   0  0  0  0  0  0  0  0  0  0  0  0
  -21.9627  -12.4057   22.0895 N   0  0  0  0  0  0  0  0  0  0  0  0
  -24.3493  -24.5758   24.4653 N   0  0  0  0  0  0  0  0  0  0  0  0
  -23.6626  -31.1630   22.8534 N   0  0  0  0  0  0  0  0  0  0  0  0
  -31.2359  -21.4758   17.0001 N   0  3  0  0  0  0  0  0  0  0  0  0
  -31.6942  -25.0754   20.1128 N   0  3  0  0  0  0  0  0  0  0  0  0
  -25.7396  -33.8936   23.9925 N   0  3  0  0  0  0  0  0  0  0  0  0
  -23.3918  -13.3496   23.6144 O   0  0  0  0  0  0  0  0  0  0  0  0
  -24.2811  -25.7840   22.4758 O   0  0  0  0  0  0  0  0  0  0  0  0
  -22.7219  -28.7826   24.1407 O   0  0  0  0  0  0  0  0  0  0  0  0
  -25.7614  -31.8062   22.1061 O   0  0  0  0  0  0  0  0  0  0  0  0
  -31.7186  -14.8517   20.2529 O   0  0  0  0  0  0  0  0  0  0  0  0
  -19.9763  -10.0098   17.4690 O   0  0  0  0  0  0  0  0  0  0  0  0
  -30.7104  -27.1331   21.8034 O   0  0  0  0  0  0  0  0  0  1  0  0
  -16.4439   -6.7681   20.1925 F   0  0  0  0  0  0  0  0  0  0  0  0
  -19.5236   -7.4069   16.6551 F   0  0  0  0  0  0  0  0  0  0  0  0
  1  2  1  0  0  0  0
  1  5  2  0  0  0  0
  2  6  2  0  0  0  0
  3  9  2  0  0  0  0
  3 17  1  0  0  0  0
  4 10  1  0  0  0  0
  4 17  2  0  0  0  0
  5 19  1  0  0  0  0
  6 21  1  0  0  0  0
  7 11  2  0  0  0  0
  7 20  1  0  0  0  0
  8 14  2  0  0  0  0
  8 22  1  0  0  0  0
  9 24  1  0  0  0  0
 10 24  2  0  0  0  0
 11 25  1  0  0  0  0
 12 13  2  0  0  0  0
 12 26  1  0  0  0  0
 13 27  1  0  0  0  0
 14 30  1  0  0  0  0
 15 23  1  0  0  0  0
 15 25  2  0  0  0  0
 16 27  2  0  0  0  0
 16 28  1  0  0  0  0
 17 29  1  0  0  0  0
 18 29  1  0  0  0  0
 18 32  2  0  0  0  0
 18 33  1  0  0  0  0
 19 21  2  0  0  0  0
 19 38  1  0  0  0  0
 20 23  2  0  0  0  0
 20 39  1  0  0  0  0
 21 52  1  0  0  0  0
 22 31  2  0  0  0  0
 22 53  1  0  0  0  0
 23 40  1  0  0  0  0
 24 87  1  0  0  0  0
 25 88  1  0  0  0  0
 26 28  2  0  0  0  0
 26 87  1  0  0  0  0
 27 89  1  0  0  0  0
 28 90  1  0  0  0  0
 29 69  2  0  0  0  0
 30 54  1  0  0  0  0
 30 70  2  0  0  0  0
 31 55  1  0  0  0  0
 31 70  1  0  0  0  0
 32 71  1  0  0  0  0
 32 75  1  0  0  0  0
 33 76  1  0  0  0  0
 33 82  2  0  0  0  0
 34 56  1  0  0  0  0
 34 77  1  0  0  0  0
 34 83  2  0  0  0  0
 35 65  1  0  0  0  0
 35 72  1  0  0  0  0
 35 84  2  0  0  0  0
 36 66  1  0  0  0  0
 36 78  1  0  0  0  0
 36 85  2  0  0  0  0
 37 73  1  0  0  0  0
 37 74  1  0  0  0  0
 37 86  2  0  0  0  0
 38 41  1  0  0  0  0
 39 56  1  0  0  0  0
 40 72  1  0  0  0  0
 41 43  1  0  0  0  0
 42 44  1  0  0  0  0
 42 48  1  0  0  0  0
 43 52  1  0  0  0  0
 44 57  1  0  0  0  0
 45 49  1  0  0  0  0
 45 54  1  0  0  0  0
 46 50  1  0  0  0  0
 46 54  1  0  0  0  0
 47 53  1  0  0  0  0
 47 55  1  0  0  0  0
 48 73  1  0  0  0  0
 49 74  1  0  0  0  0
 50 74  1  0  0  0  0
 51 57  1  0  0  0  0
 51 73  1  0  0  0  0
 52 77  1  0  0  0  0
 53 80  1  0  0  0  0
 55 79  1  0  0  0  0
 56 72  1  0  0  0  0
 57 71  1  0  0  0  0
 58 66  1  0  0  0  0
 59 67  1  0  0  0  0
 60 68  1  0  0  0  0
 61 68  1  0  0  0  0
 62 68  1  0  0  0  0
 63 81  1  0  0  0  0
 64 67  1  0  0  0  0
 64 88  1  0  0  0  0
 65 68  1  0  0  0  0
 65 78  1  0  0  0  0
 66 81  1  0  0  0  0
 67 80  1  0  0  0  0
 69 71  1  0  0  0  0
M  CHG  3  79   1  80   1  81   1
M  ISO  4  37 100  64 101  74 100  88 101
M  END
> <Batch ID>
0173

> <Smiles>
CNC(C)C(=O)NC(C(=O)N1Cc2cc([101O:1][101CH2:1]C(C)NC3CC(N)c4nc(C5CC[100N:0]([100C:0](=O)N6CCCC(n7nc(-c8ccc(Oc9ccc(F)cc9F)cc8)c(C(N)=O)c7N)C6)CC5)ccc43)ccc2CC1C(=O)NC1CCCc2ccccc21)C(C)(C)C

> <Shape>
0.248

> <Color>
0.107

> <Negative vol penalty>
0.000

$$$$

  -OEChem-04052322423D

 85 94  0     1  0  0  0  0  0999 V2000
  -27.2518  -27.0412   21.7984 C   0  0  0  0  0  0  0  0  0  0  0  0
  -28.3054  -26.1614   21.5719 C   0  0  0  0  0  0  0  0  0  0  0  0
  -23.0752   -9.8693   19.9403 C   0  0  0  0  0  0  0  0  0  0  0  0
  -23.8324   -9.8772   22.2346 C   0  0  0  0  0  0  0  0  0  0  0  0
  -26.4234  -27.4212   20.7434 C   0  0  0  0  0  0  0  0  0  0  0  0
  -28.5305  -25.6602   20.2903 C   0  0  0  0  0  0  0  0  0  0  0  0
  -33.4247  -25.7678   18.9942 C   0  0  0  0  0  0  0  0  0  0  0  0
  -22.3312   -8.7162   20.1898 C   0  0  0  0  0  0  0  0  0  0  0  0
  -23.0884   -8.7240   22.4841 C   0  0  0  0  0  0  0  0  0  0  0  0
  -34.2448  -24.7706   19.5203 C   0  0  0  0  0  0  0  0  0  0  0  0
  -19.3814   -7.9196   21.6379 C   0  0  0  0  0  0  0  0  0  0  0  0
  -18.0751   -7.8731   21.1511 C   0  0  0  0  0  0  0  0  0  0  0  0
  -34.1010  -23.5619   17.4376 C   0  0  0  0  0  0  0  0  0  0  0  0
  -18.6366   -5.9296   19.8301 C   0  0  0  0  0  0  0  0  0  0  0  0
  -31.8168  -17.4689   21.6544 C   0  0  0  0  0  0  0  0  0  0  0  0
  -23.8259  -10.4498   20.9627 C   0  0  0  0  0  0  0  0  0  0  0  0
  -24.1675  -12.9750   20.8423 C   0  0  0  0  0  0  0  0  0  0  0  0
  -26.6443  -26.9320   19.4462 C   0  0  0  0  0  0  0  0  0  0  0  0
  -32.9269  -25.6640   17.6873 C   0  0  0  0  0  0  0  0  0  0  0  0
  -27.7034  -26.0330   19.2171 C   0  0  0  0  0  0  0  0  0  0  0  0
  -33.2769  -24.5604   16.8963 C   0  0  0  0  0  0  0  0  0  0  0  0
  -30.5811  -16.9393   21.9352 C   0  0  0  0  0  0  0  0  0  0  0  0
  -22.3378   -8.1435   21.4616 C   0  0  0  0  0  0  0  0  0  0  0  0
  -34.5807  -23.6660   18.7430 C   0  0  0  0  0  0  0  0  0  0  0  0
  -20.3154   -6.9712   21.2207 C   0  0  0  0  0  0  0  0  0  0  0  0
  -17.7027   -6.8781   20.2473 C   0  0  0  0  0  0  0  0  0  0  0  0
  -19.9430   -5.9763   20.3169 C   0  0  0  0  0  0  0  0  0  0  0  0
  -24.5951  -11.6407   20.7055 C   0  0  0  0  0  0  0  0  0  0  0  0
  -29.9651  -17.9006   22.7588 C   0  0  0  0  0  0  0  0  0  0  0  0
  -25.2600  -13.7245   20.4800 C   0  0  0  0  0  0  0  0  0  0  0  0
  -22.8965  -13.4908   21.2596 C   0  0  0  0  0  0  0  0  0  0  0  0
  -30.0271  -25.4665   16.4006 C   0  0  0  0  0  0  0  0  0  0  0  0
  -31.6731  -25.6953   13.6149 C   0  0  0  0  0  0  0  0  0  0  0  0
  -34.6188  -25.2641   11.9464 C   0  0  0  0  0  0  0  0  0  0  0  0
  -30.7257  -14.7711   20.6607 C   0  0  0  0  0  0  0  0  0  0  0  0
  -25.6934  -27.3344   18.3469 C   0  0  0  0  0  0  0  0  0  0  0  0
  -32.0653  -26.7613   17.1253 C   0  0  0  0  0  0  0  0  0  0  0  0
  -32.7852  -24.4116   15.4805 C   0  0  0  0  0  0  0  0  0  0  0  0
  -26.2279  -27.0511   16.9453 C   0  0  0  0  0  0  0  0  0  0  0  0
  -29.6146  -12.3561   18.2921 C   0  0  0  0  0  0  0  0  0  0  0  0
  -26.8132  -25.6444   16.8714 C   0  0  0  0  0  0  0  0  0  0  0  0
  -28.1744  -12.0645   18.7201 C   0  0  0  0  0  0  0  0  0  0  0  0
  -30.5282  -12.5856   19.4947 C   0  0  0  0  0  0  0  0  0  0  0  0
  -28.6195  -13.3103   20.8734 C   0  0  0  0  0  0  0  0  0  0  0  0
  -35.3353  -19.9579   22.3111 C   0  0  0  0  0  0  0  0  0  0  0  0
  -33.3374  -20.0401   20.8935 C   0  0  0  0  0  0  0  0  0  0  0  0
  -27.9949  -25.4872   17.8361 C   0  0  1  0  0  0  0  0  0  0  0  0
  -31.1962  -26.3007   15.9591 C   0  0  1  0  0  0  0  0  0  0  0  0
  -34.2790  -18.9690   22.7974 C   0  0  2  0  0  0  0  0  0  0  0  0
  -27.6481  -13.1364   19.6945 C   0  0  2  0  0  0  0  0  0  0  0  0
  -32.9664  -19.5932   22.3048 C   0  0  2  0  0  0  0  0  0  0  0  0
  -28.6196  -17.8488   23.3586 C   0  0  0  0  0  0  0  0  0  0  0  0
  -34.3302  -18.7612   24.3038 C   0  0  0  0  0  0  0  0  0  0  0  0
  -35.6459  -25.5014    9.6691 C   0  0  0  0  0  0  0  0  0  0  0  0
  -30.2527  -23.1504   12.7117 C   0  0  0  0  0  0  0  0  0  0  0  0
  -31.9696  -22.9168   10.9045 C   0  0  0  0  0  0  0  0  0  0  0  0
  -30.4676  -24.9080   10.9456 C   0  0  0  0  0  0  0  0  0  0  0  0
  -36.5943  -27.2429   12.9162 C   0  0  0  0  0  0  0  0  0  0  0  0
  -35.5967  -20.3652   19.8260 C   0  0  0  0  0  0  0  0  0  0  0  0
  -35.1824  -21.3653   18.7647 C   0  0  0  0  0  0  0  0  0  1  0  0
  -32.3101  -24.7096   12.6654 C   0  0  1  0  0  0  0  0  0  0  0  0
  -35.3874  -26.1761   11.0073 C   0  0  2  0  0  0  0  0  0  0  0  0
  -31.2579  -23.9227   11.8341 C   0  0  0  0  0  0  0  0  0  0  0  0
  -25.8605  -11.5449   20.2887 N   0  0  0  0  0  0  0  0  0  0  0  0
  -30.7452  -18.9606   22.9864 N   0  0  0  0  0  0  0  0  0  0  0  0
  -31.8642  -18.6684   22.3018 N   0  0  0  0  0  0  0  0  0  0  0  0
  -26.2373  -12.8285   20.1604 N   0  0  0  0  0  0  0  0  0  0  0  0
  -31.9403  -25.5078   14.9784 N   0  0  0  0  0  0  0  0  0  0  0  0
  -29.9680  -13.6167   20.3710 N   0  0  0  0  0  0  0  0  0  0  0  0
  -25.4703  -15.0560   20.4069 N   0  0  0  0  0  0  0  0  0  0  0  0
  -21.8843  -12.5815   21.5959 N   0  0  0  0  0  0  0  0  0  0  0  0
  -30.0772  -15.6964   21.4780 N   0  0  0  0  0  0  0  0  0  0  0  0
  -29.1818  -26.1068   17.2866 N   0  0  0  0  0  0  0  0  0  0  0  0
  -33.2584  -25.4722   11.8608 N   0  0  0  0  0  0  0  0  0  0  0  0
  -34.7589  -20.5595   21.0362 N   0  3  2  0  0  0  0  0  0  0  0  0
  -36.6998  -26.5494   11.6067 N   0  3  0  0  0  0  0  0  0  0  0  0
  -22.6600  -14.7214   21.3162 O   0  0  0  0  0  0  0  0  0  0  0  0
  -29.9005  -24.3269   15.9683 O   0  0  0  0  0  0  0  0  0  0  0  0
  -30.9703  -26.6027   13.1628 O   0  0  0  0  0  0  0  0  0  0  0  0
  -35.1698  -24.4460   12.6797 O   0  0  0  0  0  0  0  0  0  0  0  0
  -31.8554  -14.9398   20.1944 O   0  0  0  0  0  0  0  0  0  0  0  0
  -21.6117   -7.0184   21.7055 O   0  0  0  0  0  0  0  0  0  0  0  0
  -35.3805  -22.6909   19.2544 O   0  0  0  0  0  0  0  0  0  1  0  0
  -16.4478   -6.8325   19.7811 F   0  0  0  0  0  0  0  0  0  0  0  0
  -20.8355   -5.0617   19.9134 F   0  0  0  0  0  0  0  0  0  0  0  0
  1  2  1  0  0  0  0
  1  5  2  0  0  0  0
  2  6  2  0  0  0  0
  3  8  2  0  0  0  0
  3 16  1  0  0  0  0
  4  9  1  0  0  0  0
  4 16  2  0  0  0  0
  5 18  1  0  0  0  0
  6 20  1  0  0  0  0
  7 10  2  0  0  0  0
  7 19  1  0  0  0  0
  8 23  1  0  0  0  0
  9 23  2  0  0  0  0
 10 24  1  0  0  0  0
 11 12  2  0  0  0  0
 11 25  1  0  0  0  0
 12 26  1  0  0  0  0
 13 21  1  0  0  0  0
 13 24  2  0  0  0  0
 14 26  2  0  0  0  0
 14 27  1  0  0  0  0
 15 22  2  0  0  0  0
 15 66  1  0  0  0  0
 16 28  1  0  0  0  0
 17 28  1  0  0  0  0
 17 30  2  0  0  0  0
 17 31  1  0  0  0  0
 18 20  2  0  0  0  0
 18 36  1  0  0  0  0
 19 21  2  0  0  0  0
 19 37  1  0  0  0  0
 20 47  1  0  0  0  0
 21 38  1  0  0  0  0
 22 29  1  0  0  0  0
 22 72  1  0  0  0  0
 23 82  1  0  0  0  0
 24 83  1  0  0  0  0
 25 27  2  0  0  0  0
 25 82  1  0  0  0  0
 26 84  1  0  0  0  0
 27 85  1  0  0  0  0
 28 64  2  0  0  0  0
 29 52  1  0  0  0  0
 29 65  2  0  0  0  0
 30 67  1  0  0  0  0
 30 70  1  0  0  0  0
 31 71  1  0  0  0  0
 31 77  2  0  0  0  0
 32 48  1  0  0  0  0
 32 73  1  0  0  0  0
 32 78  2  0  0  0  0
 33 61  1  0  0  0  0
 33 68  1  0  0  0  0
 33 79  2  0  0  0  0
 34 62  1  0  0  0  0
 34 74  1  0  0  0  0
 34 80  2  0  0  0  0
 35 69  1  0  0  0  0
 35 72  1  0  0  0  0
 35 81  2  0  0  0  0
 36 39  1  0  0  0  0
 37 48  1  0  0  0  0
 38 68  1  0  0  0  0
 39 41  1  0  0  0  0
 40 42  1  0  0  0  0
 40 43  1  0  0  0  0
 41 47  1  0  0  0  0
 42 50  1  0  0  0  0
 43 69  1  0  0  0  0
 44 50  1  0  0  0  0
 44 69  1  0  0  0  0
 45 49  1  0  0  0  0
 45 75  1  0  0  0  0
 46 51  1  0  0  0  0
 46 75  1  0  0  0  0
 47 73  1  0  0  0  0
 48 68  1  0  0  0  0
 49 51  1  0  0  0  0
 49 53  1  0  0  0  0
 50 67  1  0  0  0  0
 51 66  1  0  0  0  0
 54 62  1  0  0  0  0
 55 63  1  0  0  0  0
 56 63  1  0  0  0  0
 57 63  1  0  0  0  0
 58 76  1  0  0  0  0
 59 60  1  0  0  0  0
 59 75  1  0  0  0  0
 60 83  1  0  0  0  0
 61 63  1  0  0  0  0
 61 74  1  0  0  0  0
 62 76  1  0  0  0  0
 64 67  1  0  0  0  0
 65 66  1  0  0  0  0
M  CHG  2  75   1  76   1
M  ISO  4  35 100  60 101  72 100  83 101
M  END
> <Batch ID>
0173

> <Smiles>
CNC(C)C(=O)NC(C(=O)N1Cc2cc([101O:1][101CH2:1]CN3CC(C)C(n4cc([100NH:0][100C:0](=O)N5CCCC(n6nc(-c7ccc(Oc8ccc(F)cc8F)cc7)c(C(N)=O)c6N)C5)c(C)n4)C3)ccc2CC1C(=O)NC1CCCc2ccccc21)C(C)(C)C

> <Shape>
0.191

> <Color>
0.184

> <Negative vol penalty>
0.000

$$$$

  -OEChem-04052322423D

 85 94  0     1  0  0  0  0  0999 V2000
  -26.6118  -25.4845   15.8610 C   0  0  0  0  0  0  0  0  0  0  0  0
  -25.5135  -25.7229   16.6810 C   0  0  0  0  0  0  0  0  0  0  0  0
  -27.1004  -19.6125   15.3356 C   0  0  0  0  0  0  0  0  0  0  0  0
  -25.4899  -21.3812   15.6748 C   0  0  0  0  0  0  0  0  0  0  0  0
  -27.8942  -25.8045   16.3048 C   0  0  0  0  0  0  0  0  0  0  0  0
  -25.6972  -26.2805   17.9458 C   0  0  0  0  0  0  0  0  0  0  0  0
  -22.1348  -23.7070   23.5587 C   0  0  0  0  0  0  0  0  0  0  0  0
  -22.3681  -29.9626   18.9477 C   0  0  0  0  0  0  0  0  0  0  0  0
  -22.0986  -22.3091   23.5272 C   0  0  0  0  0  0  0  0  0  0  0  0
  -26.8894  -19.6844   13.9587 C   0  0  0  0  0  0  0  0  0  0  0  0
  -25.2788  -21.4531   14.2979 C   0  0  0  0  0  0  0  0  0  0  0  0
  -21.0801  -29.5742   19.3139 C   0  0  0  0  0  0  0  0  0  0  0  0
  -26.5086  -19.1564   10.3810 C   0  0  0  0  0  0  0  0  0  0  0  0
  -26.3561  -17.9583    9.6833 C   0  0  0  0  0  0  0  0  0  0  0  0
  -19.8909  -22.3325   22.5008 C   0  0  0  0  0  0  0  0  0  0  0  0
  -21.6324  -29.9496   21.6319 C   0  0  0  0  0  0  0  0  0  0  0  0
  -24.4270  -17.4175   11.0335 C   0  0  0  0  0  0  0  0  0  0  0  0
  -26.4006  -20.4609   16.1937 C   0  0  0  0  0  0  0  0  0  0  0  0
  -19.9508  -23.7130   22.5434 C   0  0  0  0  0  0  0  0  0  0  0  0
  -27.5651  -21.1050   18.3701 C   0  0  0  0  0  0  0  0  0  0  0  0
  -21.0480  -24.4052   23.0608 C   0  0  0  0  0  0  0  0  0  0  0  0
  -28.0927  -26.3753   17.5719 C   0  0  0  0  0  0  0  0  0  0  0  0
  -23.3028  -30.3376   19.9234 C   0  0  0  0  0  0  0  0  0  0  0  0
  -26.9836  -26.6072   18.4075 C   0  0  0  0  0  0  0  0  0  0  0  0
  -22.9308  -30.3448   21.2753 C   0  0  0  0  0  0  0  0  0  0  0  0
  -20.9859  -21.6280   23.0025 C   0  0  0  0  0  0  0  0  0  0  0  0
  -25.9786  -20.6047   13.4398 C   0  0  0  0  0  0  0  0  0  0  0  0
  -20.7130  -29.5649   20.6563 C   0  0  0  0  0  0  0  0  0  0  0  0
  -25.6203  -19.4851   11.4050 C   0  0  0  0  0  0  0  0  0  0  0  0
  -25.3153  -17.0888   10.0095 C   0  0  0  0  0  0  0  0  0  0  0  0
  -24.5795  -18.6157   11.7313 C   0  0  0  0  0  0  0  0  0  0  0  0
  -26.6178  -20.3867   17.6161 C   0  0  0  0  0  0  0  0  0  0  0  0
  -27.3696  -20.6803   19.6615 C   0  0  0  0  0  0  0  0  0  0  0  0
  -18.9445  -24.6738   22.0858 C   0  0  0  0  0  0  0  0  0  0  0  0
  -19.5013  -26.0317   22.3589 C   0  0  0  0  0  0  0  0  0  0  0  0
  -18.8428  -27.1593   22.0656 C   0  0  0  0  0  0  0  0  0  0  0  0
  -28.5351  -22.0699   17.9413 C   0  0  0  0  0  0  0  0  0  0  0  0
  -26.1263  -29.2256   20.8696 C   0  0  0  0  0  0  0  0  0  0  0  0
  -26.1171  -31.8884   22.7221 C   0  0  0  0  0  0  0  0  0  0  0  0
  -24.3074  -34.3124   24.3021 C   0  0  0  0  0  0  0  0  0  0  0  0
  -22.6477  -18.3597   22.5198 C   0  0  0  0  0  0  0  0  0  0  0  0
  -20.8628  -25.8911   22.9904 C   0  0  0  0  0  0  0  0  0  0  0  0
  -29.5021  -26.6606   18.0268 C   0  0  0  0  0  0  0  0  0  0  0  0
  -24.6798  -30.7797   19.5099 C   0  0  0  0  0  0  0  0  0  0  0  0
  -23.8908  -30.7581   22.3598 C   0  0  0  0  0  0  0  0  0  0  0  0
  -29.5759  -27.5949   19.2317 C   0  0  0  0  0  0  0  0  0  0  0  0
  -25.8728  -16.8921   22.1715 C   0  0  0  0  0  0  0  0  0  0  0  0
  -28.5784  -27.1647   20.3026 C   0  0  0  0  0  0  0  0  0  0  0  0
  -26.5149  -17.6861   21.0325 C   0  0  0  0  0  0  0  0  0  0  0  0
  -24.3776  -16.6837   21.9412 C   0  0  0  0  0  0  0  0  0  0  0  0
  -24.2544  -18.7124   20.5473 C   0  0  0  0  0  0  0  0  0  0  0  0
  -27.1398  -27.2336   19.7762 C   0  0  1  0  0  0  0  0  0  0  0  0
  -25.7100  -30.6489   20.6275 C   0  0  1  0  0  0  0  0  0  0  0  0
  -25.7509  -18.9962   20.7621 C   0  0  2  0  0  0  0  0  0  0  0  0
  -18.4027  -29.4519   23.1533 C   0  0  0  0  0  0  0  0  0  0  0  0
  -24.5763  -36.3299   25.7699 C   0  0  0  0  0  0  0  0  0  0  0  0
  -26.6482  -30.0728   25.1162 C   0  0  0  0  0  0  0  0  0  0  0  0
  -25.9677  -31.9621   26.6115 C   0  0  0  0  0  0  0  0  0  0  0  0
  -27.9500  -32.2082   25.1172 C   0  0  0  0  0  0  0  0  0  0  0  0
  -23.0750  -36.0900   22.2821 C   0  0  0  0  0  0  0  0  0  0  0  0
  -20.9773  -20.1355   22.9836 C   0  0  0  0  0  0  0  0  0  0  0  0
  -19.3054  -28.5711   22.2956 C   0  0  2  0  0  0  0  0  0  1  0  0
  -25.6304  -32.2225   24.1116 C   0  0  1  0  0  0  0  0  0  0  0  0
  -24.4636  -35.8218   24.3409 C   0  0  2  0  0  0  0  0  0  0  0  0
  -26.5313  -31.6067   25.2191 C   0  0  0  0  0  0  0  0  0  0  0  0
  -25.8756  -19.5677   18.3662 N   0  0  0  0  0  0  0  0  0  0  0  0
  -26.3567  -19.7687   19.6048 N   0  0  0  0  0  0  0  0  0  0  0  0
  -25.2274  -31.1760   21.9056 N   0  0  0  0  0  0  0  0  0  0  0  0
  -23.7117  -17.9645   21.6922 N   0  0  0  0  0  0  0  0  0  0  0  0
  -27.9670  -21.0014   20.8288 N   0  0  0  0  0  0  0  0  0  0  0  0
  -28.6013  -22.3906   16.5786 N   0  0  0  0  0  0  0  0  0  0  0  0
  -26.6715  -28.6029   19.7631 N   0  0  0  0  0  0  0  0  0  0  0  0
  -25.5234  -33.6763   24.1681 N   0  0  0  0  0  0  0  0  0  0  0  0
  -22.0765  -19.5901   22.2189 N   0  0  0  0  0  0  0  0  0  0  0  0
  -23.2910  -36.4807   23.6991 N   0  3  0  0  0  0  0  0  0  0  0  0
  -17.8734  -24.4000   21.5853 O   0  0  0  0  0  0  0  0  0  0  0  0
  -29.3309  -22.6189   18.7406 O   0  0  0  0  0  0  0  0  0  0  0  0
  -25.9661  -28.7296   21.9786 O   0  0  0  0  0  0  0  0  0  0  0  0
  -27.2423  -32.2526   22.3717 O   0  0  0  0  0  0  0  0  0  0  0  0
  -23.2161  -33.7533   24.3862 O   0  0  0  0  0  0  0  0  0  0  0  0
  -22.2406  -17.6697   23.4606 O   0  0  0  0  0  0  0  0  0  0  0  0
  -25.7726  -20.6753   12.0963 O   0  0  0  0  0  0  0  0  0  0  0  0
  -19.4567  -29.1855   21.0165 O   0  0  0  0  0  0  0  0  0  1  0  0
  -25.1681  -15.9390    9.3384 F   0  0  0  0  0  0  0  0  0  0  0  0
  -23.7223  -18.9265   12.7133 F   0  0  0  0  0  0  0  0  0  0  0  0
  1  2  1  0  0  0  0
  1  5  2  0  0  0  0
  2  6  2  0  0  0  0
  3 10  2  0  0  0  0
  3 18  1  0  0  0  0
  4 11  1  0  0  0  0
  4 18  2  0  0  0  0
  5 22  1  0  0  0  0
  6 24  1  0  0  0  0
  7  9  2  0  0  0  0
  7 21  1  0  0  0  0
  8 12  2  0  0  0  0
  8 23  1  0  0  0  0
  9 26  1  0  0  0  0
 10 27  1  0  0  0  0
 11 27  2  0  0  0  0
 12 28  1  0  0  0  0
 13 14  2  0  0  0  0
 13 29  1  0  0  0  0
 14 30  1  0  0  0  0
 15 19  1  0  0  0  0
 15 26  2  0  0  0  0
 16 25  1  0  0  0  0
 16 28  2  0  0  0  0
 17 30  2  0  0  0  0
 17 31  1  0  0  0  0
 18 32  1  0  0  0  0
 19 21  2  0  0  0  0
 19 34  1  0  0  0  0
 20 32  1  0  0  0  0
 20 33  2  0  0  0  0
 20 37  1  0  0  0  0
 21 42  1  0  0  0  0
 22 24  2  0  0  0  0
 22 43  1  0  0  0  0
 23 25  2  0  0  0  0
 23 44  1  0  0  0  0
 24 52  1  0  0  0  0
 25 45  1  0  0  0  0
 26 61  1  0  0  0  0
 27 82  1  0  0  0  0
 28 83  1  0  0  0  0
 29 31  2  0  0  0  0
 29 82  1  0  0  0  0
 30 84  1  0  0  0  0
 31 85  1  0  0  0  0
 32 66  2  0  0  0  0
 33 67  1  0  0  0  0
 33 70  1  0  0  0  0
 34 35  1  0  0  0  0
 34 76  2  0  0  0  0
 35 36  2  0  0  0  0
 35 42  1  0  0  0  0
 36 62  1  0  0  0  0
 37 71  1  0  0  0  0
 37 77  2  0  0  0  0
 38 53  1  0  0  0  0
 38 72  1  0  0  0  0
 38 78  2  0  0  0  0
 39 63  1  0  0  0  0
 39 68  1  0  0  0  0
 39 79  2  0  0  0  0
 40 64  1  0  0  0  0
 40 73  1  0  0  0  0
 40 80  2  0  0  0  0
 41 69  1  0  0  0  0
 41 74  1  0  0  0  0
 41 81  2  0  0  0  0
 43 46  1  0  0  0  0
 44 53  1  0  0  0  0
 45 68  1  0  0  0  0
 46 48  1  0  0  0  0
 47 49  1  0  0  0  0
 47 50  1  0  0  0  0
 48 52  1  0  0  0  0
 49 54  1  0  0  0  0
 50 69  1  0  0  0  0
 51 54  1  0  0  0  0
 51 69  1  0  0  0  0
 52 72  1  0  0  0  0
 53 68  1  0  0  0  0
 54 67  1  0  0  0  0
 55 62  1  0  0  0  0
 56 64  1  0  0  0  0
 57 65  1  0  0  0  0
 58 65  1  0  0  0  0
 59 65  1  0  0  0  0
 60 75  1  0  0  0  0
 61 74  1  0  0  0  0
 62 83  1  0  0  0  0
 63 65  1  0  0  0  0
 63 73  1  0  0  0  0
 64 75  1  0  0  0  0
 66 67  1  0  0  0  0
M  CHG  1  75   1
M  ISO  4  41 100  62 101  74 100  83 101
M  END
> <Batch ID>
0173

> <Smiles>
CNC(C)C(=O)NC(C(=O)N1Cc2cc([101O:1][101CH:1](C)C=C3Cc4ccc(C[100NH:0][100C:0](=O)N5CCCC(n6nc(-c7ccc(Oc8ccc(F)cc8F)cc7)c(C(N)=O)c6N)C5)cc4C3=O)ccc2CC1C(=O)NC1CCCc2ccccc21)C(C)(C)C

> <Shape>
0.214

> <Color>
0.064

> <Negative vol penalty>
0.000

$$$$

  -OEChem-04052322423D

 86 96  0     1  0  0  0  0  0999 V2000
  -23.3869  -28.4482   19.7342 C   0  0  0  0  0  0  0  0  0  0  0  0
  -23.6762  -27.0905   19.6423 C   0  0  0  0  0  0  0  0  0  0  0  0
  -28.0556  -23.1698   20.7762 C   0  0  0  0  0  0  0  0  0  0  0  0
  -28.5545  -23.5955   18.4510 C   0  0  0  0  0  0  0  0  0  0  0  0
  -22.5146  -28.9088   20.7195 C   0  0  0  0  0  0  0  0  0  0  0  0
  -23.0942  -26.1927   20.5366 C   0  0  0  0  0  0  0  0  0  0  0  0
  -21.3571  -20.4374   19.3683 C   0  0  0  0  0  0  0  0  0  0  0  0
  -28.0188  -24.5427   21.0198 C   0  0  0  0  0  0  0  0  0  0  0  0
  -28.5176  -24.9685   18.6945 C   0  0  0  0  0  0  0  0  0  0  0  0
  -21.9693  -19.2070   19.6027 C   0  0  0  0  0  0  0  0  0  0  0  0
  -28.9107  -28.5808   18.7777 C   0  0  0  0  0  0  0  0  0  0  0  0
  -29.9270  -29.3638   18.2303 C   0  0  0  0  0  0  0  0  0  0  0  0
  -20.7124  -18.9782   21.6490 C   0  0  0  0  0  0  0  0  0  0  0  0
  -31.5692  -28.1030   19.4756 C   0  0  0  0  0  0  0  0  0  0  0  0
  -28.3235  -22.6962   19.4918 C   0  0  0  0  0  0  0  0  0  0  0  0
  -27.2875  -20.4528   18.8579 C   0  0  0  0  0  0  0  0  0  0  0  0
  -21.9141  -28.0150   21.6202 C   0  0  0  0  0  0  0  0  0  0  0  0
  -20.4245  -20.9535   20.2796 C   0  0  0  0  0  0  0  0  0  0  0  0
  -22.2141  -26.6420   21.5357 C   0  0  0  0  0  0  0  0  0  0  0  0
  -20.0879  -20.2143   21.4226 C   0  0  0  0  0  0  0  0  0  0  0  0
  -24.6708  -13.0979   21.1004 C   0  0  0  0  0  0  0  0  0  0  0  0
  -28.2498  -25.4421   19.9789 C   0  0  0  0  0  0  0  0  0  0  0  0
  -21.6492  -18.4785   20.7446 C   0  0  0  0  0  0  0  0  0  0  0  0
  -29.2237  -27.5589   19.6741 C   0  0  0  0  0  0  0  0  0  0  0  0
  -31.2562  -29.1249   18.5792 C   0  0  0  0  0  0  0  0  0  0  0  0
  -30.5529  -27.3200   20.0230 C   0  0  0  0  0  0  0  0  0  0  0  0
  -28.3622  -21.2781   19.2398 C   0  0  0  0  0  0  0  0  0  0  0  0
  -23.3248  -13.3170   20.8654 C   0  0  0  0  0  0  0  0  0  0  0  0
  -25.5050  -14.1751   20.9670 C   0  0  0  0  0  0  0  0  0  0  0  0
  -27.8395  -19.2001   18.7461 C   0  0  0  0  0  0  0  0  0  0  0  0
  -23.7084  -15.4814   20.4019 C   0  0  0  0  0  0  0  0  0  0  0  0
  -25.9133  -20.7887   18.6251 C   0  0  0  0  0  0  0  0  0  0  0  0
  -20.2742  -23.5496   22.1075 C   0  0  0  0  0  0  0  0  0  0  0  0
  -17.2835  -22.4604   22.7333 C   0  0  0  0  0  0  0  0  0  0  0  0
  -15.1314  -19.8149   22.8617 C   0  0  0  0  0  0  0  0  0  0  0  0
  -31.0867  -15.1514   20.4716 C   0  0  0  0  0  0  0  0  0  0  0  0
  -21.0145  -28.5656   22.6983 C   0  0  0  0  0  0  0  0  0  0  0  0
  -19.7531  -22.2698   19.9988 C   0  0  0  0  0  0  0  0  0  0  0  0
  -24.9428  -11.6952   21.5110 C   0  0  0  0  0  0  0  0  0  0  0  0
  -19.0780  -20.7147   22.4217 C   0  0  0  0  0  0  0  0  0  0  0  0
  -22.5350  -12.0625   21.1048 C   0  0  0  0  0  0  0  0  0  0  0  0
  -20.1480  -27.5034   23.3698 C   0  0  0  0  0  0  0  0  0  0  0  0
  -23.6482  -11.0037   21.0490 C   0  0  0  0  0  0  0  0  0  0  0  0
  -32.6626  -17.6987   18.7454 C   0  0  0  0  0  0  0  0  0  0  0  0
  -20.9852  -26.2794   23.7275 C   0  0  0  0  0  0  0  0  0  0  0  0
  -31.6045  -18.8001   18.6806 C   0  0  0  0  0  0  0  0  0  0  0  0
  -27.7617  -13.6077   19.9649 C   0  0  0  0  0  0  0  0  0  0  0  0
  -27.5937  -15.3426   21.7986 C   0  0  0  0  0  0  0  0  0  0  0  0
  -32.6669  -17.0248   20.1130 C   0  0  0  0  0  0  0  0  0  0  0  0
  -29.2621  -13.5069   20.2293 C   0  0  0  0  0  0  0  0  0  0  0  0
  -29.0965  -15.2015   22.0229 C   0  0  0  0  0  0  0  0  0  0  0  0
  -30.2751  -17.5521   20.4524 C   0  0  0  0  0  0  0  0  0  0  0  0
  -21.5833  -25.6339   22.4717 C   0  0  1  0  0  0  0  0  0  0  0  0
  -26.9948  -14.0466   21.2242 C   0  0  0  0  0  0  0  0  0  0  0  0
  -19.1997  -22.9380   21.2536 C   0  0  1  0  0  0  0  0  0  0  0  0
  -30.2208  -18.2608   19.0843 C   0  0  1  0  0  0  0  0  0  0  0  0
  -12.7624  -19.2293   23.4467 C   0  0  0  0  0  0  0  0  0  0  0  0
  -17.9742  -22.6395   25.6999 C   0  0  0  0  0  0  0  0  0  0  0  0
  -15.9937  -21.1843   26.1776 C   0  0  0  0  0  0  0  0  0  0  0  0
  -15.6706  -23.4186   25.1164 C   0  0  0  0  0  0  0  0  0  0  0  0
  -14.5612  -18.8799   20.1123 C   0  0  0  0  0  0  0  0  0  0  0  0
  -23.1900  -16.8235   20.0081 C   0  0  0  0  0  0  0  0  0  1  0  0
  -16.6754  -21.5361   23.7604 C   0  0  1  0  0  0  0  0  0  0  0  0
  -13.7177  -19.6400   22.3370 C   0  0  2  0  0  0  0  0  0  0  0  0
  -16.5990  -22.1858   25.1709 C   0  0  0  0  0  0  0  0  0  0  0  0
  -29.5100  -20.6061   19.3625 N   0  0  0  0  0  0  0  0  0  0  0  0
  -22.7929  -14.4963   20.5161 N   0  0  0  0  0  0  0  0  0  0  0  0
  -25.0461  -15.3939   20.6082 N   0  0  0  0  0  0  0  0  0  0  0  0
  -29.1597  -19.3454   19.0560 N   0  0  0  0  0  0  0  0  0  0  0  0
  -18.4536  -22.0100   22.1059 N   0  0  0  0  0  0  0  0  0  0  0  0
  -31.3345  -16.5325   20.4622 N   0  0  0  0  0  0  0  0  0  0  0  0
  -29.7858  -14.7432   20.8090 N   0  0  0  0  0  0  0  0  0  0  0  0
  -27.3194  -17.9994   18.4139 N   0  0  0  0  0  0  0  0  0  0  0  0
  -25.5152  -22.1230   18.7848 N   0  0  0  0  0  0  0  0  0  0  0  0
  -20.5802  -24.8559   21.7768 N   0  0  0  0  0  0  0  0  0  0  0  0
  -15.3842  -21.1214   23.2228 N   0  0  0  0  0  0  0  0  0  0  0  0
  -13.6845  -18.5932   21.2768 N   0  3  0  0  0  0  0  0  0  0  0  0
  -25.0600  -19.9280   18.3014 O   0  0  0  0  0  0  0  0  0  0  0  0
  -20.7866  -22.8860   23.0012 O   0  0  0  0  0  0  0  0  0  0  0  0
  -16.7363  -23.5392   22.4914 O   0  0  0  0  0  0  0  0  0  0  0  0
  -15.9302  -18.8847   22.9466 O   0  0  0  0  0  0  0  0  0  0  0  0
  -31.9698  -14.3315   20.1909 O   0  0  0  0  0  0  0  0  0  0  0  0
  -28.2136  -26.7818   20.2161 O   0  0  0  0  0  0  0  0  0  0  0  0
  -22.2498  -17.2692   20.9777 O   0  0  0  0  0  0  0  0  0  1  0  0
  -32.2321  -29.8759   18.0522 F   0  0  0  0  0  0  0  0  0  0  0  0
  -30.8598  -26.3389   20.8827 F   0  0  0  0  0  0  0  0  0  0  0  0
  1  2  1  0  0  0  0
  1  5  2  0  0  0  0
  2  6  2  0  0  0  0
  3  8  2  0  0  0  0
  3 15  1  0  0  0  0
  4  9  1  0  0  0  0
  4 15  2  0  0  0  0
  5 17  1  0  0  0  0
  6 19  1  0  0  0  0
  7 10  2  0  0  0  0
  7 18  1  0  0  0  0
  8 22  1  0  0  0  0
  9 22  2  0  0  0  0
 10 23  1  0  0  0  0
 11 12  2  0  0  0  0
 11 24  1  0  0  0  0
 12 25  1  0  0  0  0
 13 20  1  0  0  0  0
 13 23  2  0  0  0  0
 14 25  2  0  0  0  0
 14 26  1  0  0  0  0
 15 27  1  0  0  0  0
 16 27  1  0  0  0  0
 16 30  2  0  0  0  0
 16 32  1  0  0  0  0
 17 19  2  0  0  0  0
 17 37  1  0  0  0  0
 18 20  2  0  0  0  0
 18 38  1  0  0  0  0
 19 53  1  0  0  0  0
 20 40  1  0  0  0  0
 21 28  1  0  0  0  0
 21 29  2  0  0  0  0
 21 39  1  0  0  0  0
 22 83  1  0  0  0  0
 23 84  1  0  0  0  0
 24 26  2  0  0  0  0
 24 83  1  0  0  0  0
 25 85  1  0  0  0  0
 26 86  1  0  0  0  0
 27 66  2  0  0  0  0
 28 41  1  0  0  0  0
 28 67  2  0  0  0  0
 29 54  1  0  0  0  0
 29 68  1  0  0  0  0
 30 69  1  0  0  0  0
 30 73  1  0  0  0  0
 31 62  1  0  0  0  0
 31 67  1  0  0  0  0
 31 68  2  0  0  0  0
 32 74  1  0  0  0  0
 32 78  2  0  0  0  0
 33 55  1  0  0  0  0
 33 75  1  0  0  0  0
 33 79  2  0  0  0  0
 34 63  1  0  0  0  0
 34 70  1  0  0  0  0
 34 80  2  0  0  0  0
 35 64  1  0  0  0  0
 35 76  1  0  0  0  0
 35 81  2  0  0  0  0
 36 71  1  0  0  0  0
 36 72  1  0  0  0  0
 36 82  2  0  0  0  0
 37 42  1  0  0  0  0
 38 55  1  0  0  0  0
 39 43  1  0  0  0  0
 40 70  1  0  0  0  0
 41 43  1  0  0  0  0
 42 45  1  0  0  0  0
 44 46  1  0  0  0  0
 44 49  1  0  0  0  0
 45 53  1  0  0  0  0
 46 56  1  0  0  0  0
 47 50  1  0  0  0  0
 47 54  1  0  0  0  0
 48 51  1  0  0  0  0
 48 54  1  0  0  0  0
 49 71  1  0  0  0  0
 50 72  1  0  0  0  0
 51 72  1  0  0  0  0
 52 56  1  0  0  0  0
 52 71  1  0  0  0  0
 53 75  1  0  0  0  0
 55 70  1  0  0  0  0
 56 69  1  0  0  0  0
 57 64  1  0  0  0  0
 58 65  1  0  0  0  0
 59 65  1  0  0  0  0
 60 65  1  0  0  0  0
 61 77  1  0  0  0  0
 62 84  1  0  0  0  0
 63 65  1  0  0  0  0
 63 76  1  0  0  0  0
 64 77  1  0  0  0  0
 66 69  1  0  0  0  0
M  CHG  1  77   1
M  ISO  4  36 100  62 101  72 100  84 101
M  END
> <Batch ID>
0173

> <Smiles>
CNC(C)C(=O)NC(C(=O)N1Cc2cc([101O:1][101CH2:1]c3nc4c(c(C5CC[100N:0]([100C:0](=O)N6CCCC(n7nc(-c8ccc(Oc9ccc(F)cc9F)cc8)c(C(N)=O)c7N)C6)CC5)n3)CCC4)ccc2CC1C(=O)NC1CCCc2ccccc21)C(C)(C)C

> <Shape>
0.208

> <Color>
0.080

> <Negative vol penalty>
0.000

$$$$

  -OEChem-04052322423D

 84 93  0     1  0  0  0  0  0999 V2000
  -27.0855  -27.1647   28.6132 C   0  0  0  0  0  0  0  0  0  0  0  0
  -27.2529  -26.5083   27.3980 C   0  0  0  0  0  0  0  0  0  0  0  0
  -23.0802   -9.8693   19.9540 C   0  0  0  0  0  0  0  0  0  0  0  0
  -23.7442   -9.9526   22.2754 C   0  0  0  0  0  0  0  0  0  0  0  0
  -27.5843  -28.4557   28.7813 C   0  0  0  0  0  0  0  0  0  0  0  0
  -27.9183  -27.1431   26.3499 C   0  0  0  0  0  0  0  0  0  0  0  0
  -31.2497  -24.1070   24.0415 C   0  0  0  0  0  0  0  0  0  0  0  0
  -22.3318   -8.7202   20.2092 C   0  0  0  0  0  0  0  0  0  0  0  0
  -22.9958   -8.8035   22.5307 C   0  0  0  0  0  0  0  0  0  0  0  0
  -30.7412  -23.1709   23.1421 C   0  0  0  0  0  0  0  0  0  0  0  0
  -23.3246   -5.4674   22.0910 C   0  0  0  0  0  0  0  0  0  0  0  0
  -23.9144   -4.4687   22.8658 C   0  0  0  0  0  0  0  0  0  0  0  0
  -31.3456  -24.6149   21.3067 C   0  0  0  0  0  0  0  0  0  0  0  0
  -22.1429   -4.6859   24.4942 C   0  0  0  0  0  0  0  0  0  0  0  0
  -23.7864  -10.4854   20.9870 C   0  0  0  0  0  0  0  0  0  0  0  0
  -24.1215  -13.0075   20.8016 C   0  0  0  0  0  0  0  0  0  0  0  0
  -28.2647  -29.1030   27.7379 C   0  0  0  0  0  0  0  0  0  0  0  0
  -31.8010  -25.3110   23.5800 C   0  0  0  0  0  0  0  0  0  0  0  0
  -28.4256  -28.4446   26.5038 C   0  0  0  0  0  0  0  0  0  0  0  0
  -31.8627  -25.5636   22.2021 C   0  0  0  0  0  0  0  0  0  0  0  0
  -22.2896   -8.1873   21.4976 C   0  0  0  0  0  0  0  0  0  0  0  0
  -30.7865  -23.4260   21.7746 C   0  0  0  0  0  0  0  0  0  0  0  0
  -22.1439   -6.0754   22.5179 C   0  0  0  0  0  0  0  0  0  0  0  0
  -23.3235   -4.0779   24.0674 C   0  0  0  0  0  0  0  0  0  0  0  0
  -21.5531   -5.6846   23.7194 C   0  0  0  0  0  0  0  0  0  0  0  0
  -24.5602  -11.6721   20.7238 C   0  0  0  0  0  0  0  0  0  0  0  0
  -25.2244  -13.7516   20.4603 C   0  0  0  0  0  0  0  0  0  0  0  0
  -22.8324  -13.5288   21.1512 C   0  0  0  0  0  0  0  0  0  0  0  0
  -31.0976  -28.3884   23.9524 C   0  0  0  0  0  0  0  0  0  0  0  0
  -33.8684  -28.8180   22.3212 C   0  0  0  0  0  0  0  0  0  0  0  0
  -36.1727  -27.5579   20.1420 C   0  0  0  0  0  0  0  0  0  0  0  0
  -30.8003  -14.4970   21.3050 C   0  0  0  0  0  0  0  0  0  0  0  0
  -28.7447  -30.5168   27.9513 C   0  0  0  0  0  0  0  0  0  0  0  0
  -32.3695  -26.2987   24.5617 C   0  0  0  0  0  0  0  0  0  0  0  0
  -32.4627  -26.8319   21.6545 C   0  0  0  0  0  0  0  0  0  0  0  0
  -29.7661  -30.9763   26.9140 C   0  0  0  0  0  0  0  0  0  0  0  0
  -29.6617  -12.3801   18.4830 C   0  0  0  0  0  0  0  0  0  0  0  0
  -29.3012  -30.6097   25.5082 C   0  0  0  0  0  0  0  0  0  0  0  0
  -28.2191  -12.0609   18.8711 C   0  0  0  0  0  0  0  0  0  0  0  0
  -31.6305  -17.8630   21.4383 C   0  0  0  0  0  0  0  0  0  0  0  0
  -29.5582  -17.5376   20.0305 C   0  0  0  0  0  0  0  0  0  0  0  0
  -30.4320  -21.5970   18.6795 C   0  0  0  0  0  0  0  0  0  0  0  0
  -30.5349  -12.6342   19.7077 C   0  0  0  0  0  0  0  0  0  0  0  0
  -31.1608  -16.7206   22.3350 C   0  0  0  0  0  0  0  0  0  0  0  0
  -29.1416  -16.3801   20.9428 C   0  0  0  0  0  0  0  0  0  0  0  0
  -28.5603  -13.3704   21.0044 C   0  0  0  0  0  0  0  0  0  0  0  0
  -29.8193  -20.2613   19.0468 C   0  0  0  0  0  0  0  0  0  0  0  0
  -29.1635  -29.0905   25.3513 C   0  0  1  0  0  0  0  0  0  0  0  0
  -32.4413  -27.7182   24.0074 C   0  0  1  0  0  0  0  0  0  0  0  0
  -27.6449  -13.1529   19.7901 C   0  0  2  0  0  0  0  0  0  0  0  0
  -30.4314  -18.5419   20.7795 C   0  0  0  0  0  0  0  0  0  0  0  0
  -31.2021  -21.9788   19.9338 C   0  0  2  0  0  0  0  0  0  1  0  0
  -31.7908  -20.6658   20.4552 C   0  0  2  0  0  0  0  0  0  0  0  0
  -38.3089  -28.1571   18.9695 C   0  0  0  0  0  0  0  0  0  0  0  0
  -33.4154  -20.8541   18.5502 C   0  0  0  0  0  0  0  0  0  0  0  0
  -34.1975  -21.2189   20.9079 C   0  0  0  0  0  0  0  0  0  0  0  0
  -32.3056  -30.5755   20.3773 C   0  0  0  0  0  0  0  0  0  0  0  0
  -34.2059  -30.3581   18.7619 C   0  0  0  0  0  0  0  0  0  0  0  0
  -34.5727  -31.4441   20.9774 C   0  0  0  0  0  0  0  0  0  0  0  0
  -37.6433  -25.3427   21.4417 C   0  0  0  0  0  0  0  0  0  0  0  0
  -34.2432  -28.9400   20.8640 C   0  0  1  0  0  0  0  0  0  0  0  0
  -37.6889  -27.5077   20.1969 C   0  0  2  0  0  0  0  0  0  0  0  0
  -33.2310  -20.4454   20.0115 C   0  0  0  0  0  0  0  0  0  0  0  0
  -33.8187  -30.3063   20.2552 C   0  0  0  0  0  0  0  0  0  0  0  0
  -25.8417  -11.5706   20.3614 N   0  0  0  0  0  0  0  0  0  0  0  0
  -26.2178  -12.8517   20.2083 N   0  0  0  0  0  0  0  0  0  0  0  0
  -32.9997  -27.7692   22.6547 N   0  0  0  0  0  0  0  0  0  0  0  0
  -29.9454  -13.6414   20.5901 N   0  0  0  0  0  0  0  0  0  0  0  0
  -30.3158  -15.7815   21.5948 N   0  0  0  0  0  0  0  0  0  0  0  0
  -25.4317  -15.0813   20.3540 N   0  0  0  0  0  0  0  0  0  0  0  0
  -21.8115  -12.6248   21.4749 N   0  0  0  0  0  0  0  0  0  0  0  0
  -30.4642  -28.4805   25.1770 N   0  0  0  0  0  0  0  0  0  0  0  0
  -35.6749  -28.6704   20.7868 N   0  0  0  0  0  0  0  0  0  0  0  0
  -30.9202  -19.5687   19.8232 N   0  3  2  0  0  0  0  0  0  0  0  0
  -38.1581  -26.0950   20.2687 N   0  3  0  0  0  0  0  0  0  0  0  0
  -22.5885  -14.7592   21.1598 O   0  0  0  0  0  0  0  0  0  0  0  0
  -30.6680  -28.7934   22.8785 O   0  0  0  0  0  0  0  0  0  0  0  0
  -34.3350  -29.6192   23.1348 O   0  0  0  0  0  0  0  0  0  0  0  0
  -35.4977  -26.6983   19.5799 O   0  0  0  0  0  0  0  0  0  0  0  0
  -31.9288  -14.1343   21.6601 O   0  0  0  0  0  0  0  0  0  0  0  0
  -21.5592   -7.0662   21.7471 O   0  0  0  0  0  0  0  0  0  0  0  0
  -30.2873  -22.5089   20.8894 O   0  0  0  0  0  0  0  0  0  1  0  0
  -23.8892   -3.1178   24.8106 F   0  0  0  0  0  0  0  0  0  0  0  0
  -20.4182   -6.2642   24.1341 F   0  0  0  0  0  0  0  0  0  0  0  0
  1  2  1  0  0  0  0
  1  5  2  0  0  0  0
  2  6  2  0  0  0  0
  3  8  2  0  0  0  0
  3 15  1  0  0  0  0
  4  9  1  0  0  0  0
  4 15  2  0  0  0  0
  5 17  1  0  0  0  0
  6 19  1  0  0  0  0
  7 10  2  0  0  0  0
  7 18  1  0  0  0  0
  8 21  1  0  0  0  0
  9 21  2  0  0  0  0
 10 22  1  0  0  0  0
 11 12  2  0  0  0  0
 11 23  1  0  0  0  0
 12 24  1  0  0  0  0
 13 20  1  0  0  0  0
 13 22  2  0  0  0  0
 14 24  2  0  0  0  0
 14 25  1  0  0  0  0
 15 26  1  0  0  0  0
 16 26  1  0  0  0  0
 16 27  2  0  0  0  0
 16 28  1  0  0  0  0
 17 19  2  0  0  0  0
 17 33  1  0  0  0  0
 18 20  2  0  0  0  0
 18 34  1  0  0  0  0
 19 48  1  0  0  0  0
 20 35  1  0  0  0  0
 21 81  1  0  0  0  0
 22 82  1  0  0  0  0
 23 25  2  0  0  0  0
 23 81  1  0  0  0  0
 24 83  1  0  0  0  0
 25 84  1  0  0  0  0
 26 65  2  0  0  0  0
 27 66  1  0  0  0  0
 27 70  1  0  0  0  0
 28 71  1  0  0  0  0
 28 76  2  0  0  0  0
 29 49  1  0  0  0  0
 29 72  1  0  0  0  0
 29 77  2  0  0  0  0
 30 61  1  0  0  0  0
 30 67  1  0  0  0  0
 30 78  2  0  0  0  0
 31 62  1  0  0  0  0
 31 73  1  0  0  0  0
 31 79  2  0  0  0  0
 32 68  1  0  0  0  0
 32 69  1  0  0  0  0
 32 80  2  0  0  0  0
 33 36  1  0  0  0  0
 34 49  1  0  0  0  0
 35 67  1  0  0  0  0
 36 38  1  0  0  0  0
 37 39  1  0  0  0  0
 37 43  1  0  0  0  0
 38 48  1  0  0  0  0
 39 50  1  0  0  0  0
 40 44  1  0  0  0  0
 40 51  1  0  0  0  0
 41 45  1  0  0  0  0
 41 51  1  0  0  0  0
 42 47  1  0  0  0  0
 42 52  1  0  0  0  0
 43 68  1  0  0  0  0
 44 69  1  0  0  0  0
 45 69  1  0  0  0  0
 46 50  1  0  0  0  0
 46 68  1  0  0  0  0
 47 74  1  0  0  0  0
 48 72  1  0  0  0  0
 49 67  1  0  0  0  0
 50 66  1  0  0  0  0
 51 74  1  0  0  0  0
 52 53  1  0  0  0  0
 52 82  1  0  0  0  0
 53 63  1  0  0  0  0
 53 74  1  0  0  0  0
 54 62  1  0  0  0  0
 55 63  1  0  0  0  0
 56 63  1  0  0  0  0
 57 64  1  0  0  0  0
 58 64  1  0  0  0  0
 59 64  1  0  0  0  0
 60 75  1  0  0  0  0
 61 64  1  0  0  0  0
 61 73  1  0  0  0  0
 62 75  1  0  0  0  0
 65 66  1  0  0  0  0
M  CHG  2  74   1  75   1
M  ISO  4  32 100  52 101  69 100  82 101
M  END
> <Batch ID>
0173

> <Smiles>
CNC(C)C(=O)NC(C(=O)N1Cc2cc([101O:1][101CH:1]3CCN(C4CC[100N:0]([100C:0](=O)N5CCCC(n6nc(-c7ccc(Oc8ccc(F)cc8F)cc7)c(C(N)=O)c6N)C5)CC4)C3C(C)C)ccc2CC1C(=O)NC1CCCc2ccccc21)C(C)(C)C

> <Shape>
0.209

> <Color>
0.173

> <Negative vol penalty>
0.000

$$$$

  -OEChem-04052322423D

 85 94  0     1  0  0  0  0  0999 V2000
  -28.5985  -32.0999   27.0059 C   0  0  0  0  0  0  0  0  0  0  0  0
  -28.6858  -30.8711   26.3595 C   0  0  0  0  0  0  0  0  0  0  0  0
  -23.1586   -9.7598   21.5807 C   0  0  0  0  0  0  0  0  0  0  0  0
  -23.6439  -11.0085   23.5913 C   0  0  0  0  0  0  0  0  0  0  0  0
  -27.3718  -32.7573   27.0884 C   0  0  0  0  0  0  0  0  0  0  0  0
  -27.5460  -30.2984   25.7961 C   0  0  0  0  0  0  0  0  0  0  0  0
  -28.3942  -28.4374   21.1633 C   0  0  0  0  0  0  0  0  0  0  0  0
  -22.4582   -8.8182   22.3346 C   0  0  0  0  0  0  0  0  0  0  0  0
  -22.9434  -10.0669   24.3452 C   0  0  0  0  0  0  0  0  0  0  0  0
  -29.0445  -27.2070   21.0807 C   0  0  0  0  0  0  0  0  0  0  0  0
  -23.1824   -6.1879   24.3299 C   0  0  0  0  0  0  0  0  0  0  0  0
  -23.4174   -4.8394   24.0617 C   0  0  0  0  0  0  0  0  0  0  0  0
  -26.9222  -26.1159   20.7277 C   0  0  0  0  0  0  0  0  0  0  0  0
  -29.0038  -18.6077   20.3981 C   0  0  0  0  0  0  0  0  0  0  0  0
  -21.0847   -4.5432   23.5069 C   0  0  0  0  0  0  0  0  0  0  0  0
  -23.7515  -10.8550   22.2091 C   0  0  0  0  0  0  0  0  0  0  0  0
  -23.9593  -12.9926   20.8325 C   0  0  0  0  0  0  0  0  0  0  0  0
  -26.2183  -32.1970   26.5173 C   0  0  0  0  0  0  0  0  0  0  0  0
  -26.9996  -28.5152   21.0394 C   0  0  0  0  0  0  0  0  0  0  0  0
  -26.3024  -30.9483   25.8722 C   0  0  0  0  0  0  0  0  0  0  0  0
  -26.2569  -27.3489   20.8066 C   0  0  0  0  0  0  0  0  0  0  0  0
  -29.3307  -19.9552   20.1762 C   0  0  0  0  0  0  0  0  0  0  0  0
  -30.6066  -20.2542   19.6652 C   0  0  0  0  0  0  0  0  0  0  0  0
  -22.3505   -8.9717   23.7168 C   0  0  0  0  0  0  0  0  0  0  0  0
  -28.3082  -26.0456   20.8657 C   0  0  0  0  0  0  0  0  0  0  0  0
  -21.8984   -6.7140   24.1867 C   0  0  0  0  0  0  0  0  0  0  0  0
  -22.3686   -4.0171   23.6501 C   0  0  0  0  0  0  0  0  0  0  0  0
  -20.8497   -5.8917   23.7751 C   0  0  0  0  0  0  0  0  0  0  0  0
  -24.4757  -11.8277   21.4310 C   0  0  0  0  0  0  0  0  0  0  0  0
  -31.4862  -19.1886   19.4683 C   0  0  0  0  0  0  0  0  0  0  0  0
  -29.9561  -17.6316   20.1502 C   0  0  0  0  0  0  0  0  0  0  0  0
  -25.0415  -13.5695   20.2140 C   0  0  0  0  0  0  0  0  0  0  0  0
  -22.6211  -13.5072   20.8353 C   0  0  0  0  0  0  0  0  0  0  0  0
  -24.6283  -29.4574   22.9349 C   0  0  0  0  0  0  0  0  0  0  0  0
  -22.8309  -28.9655   20.2798 C   0  0  0  0  0  0  0  0  0  0  0  0
  -22.4643  -27.3738   17.2834 C   0  0  0  0  0  0  0  0  0  0  0  0
  -30.3807  -15.1493   20.2131 C   0  0  0  0  0  0  0  0  0  0  0  0
  -24.9053  -32.9225   26.6731 C   0  0  0  0  0  0  0  0  0  0  0  0
  -26.3159  -29.8534   21.1043 C   0  0  0  0  0  0  0  0  0  0  0  0
  -24.7596  -27.3809   20.6464 C   0  0  0  0  0  0  0  0  0  0  0  0
  -23.8182  -32.4253   25.7237 C   0  0  0  0  0  0  0  0  0  0  0  0
  -29.6911  -11.7643   19.3508 C   0  0  0  0  0  0  0  0  0  0  0  0
  -23.7686  -30.9008   25.7206 C   0  0  0  0  0  0  0  0  0  0  0  0
  -28.2303  -11.5749   19.7659 C   0  0  0  0  0  0  0  0  0  0  0  0
  -30.4449  -12.6677   20.3252 C   0  0  0  0  0  0  0  0  0  0  0  0
  -30.0641  -22.6293   19.3864 C   0  0  0  0  0  0  0  0  0  0  0  0
  -28.3513  -13.7780   20.9982 C   0  0  0  0  0  0  0  0  0  0  0  0
  -25.0933  -30.3066   25.2270 C   0  0  1  0  0  0  0  0  0  0  0  0
  -24.8400  -29.7529   21.4770 C   0  0  1  0  0  0  0  0  0  0  0  0
  -29.0588  -22.4616   20.5333 C   0  0  2  0  0  0  0  0  0  0  0  0
  -27.5342  -12.9279   20.0116 C   0  0  2  0  0  0  0  0  0  0  0  0
  -28.3123  -21.0806   20.4459 C   0  0  0  0  0  0  0  0  0  0  0  0
  -32.8772  -19.4298   18.9707 C   0  0  0  0  0  0  0  0  0  0  0  0
  -27.2682  -21.0551   19.3085 C   0  0  0  0  0  0  0  0  0  0  0  0
  -27.5763  -20.8423   21.7881 C   0  0  0  0  0  0  0  0  0  0  0  0
  -20.8729  -27.1438   15.3567 C   0  0  0  0  0  0  0  0  0  0  0  0
  -21.0375  -27.1740   21.9780 C   0  0  0  0  0  0  0  0  0  0  0  0
  -20.0760  -26.2473   19.8603 C   0  0  0  0  0  0  0  0  0  0  0  0
  -19.8145  -28.6706   20.3910 C   0  0  0  0  0  0  0  0  0  0  0  0
  -24.4547  -28.4271   15.3631 C   0  0  0  0  0  0  0  0  0  0  0  0
  -28.1418  -23.6923   20.5652 C   0  0  0  0  0  0  0  0  0  1  0  0
  -22.0814  -27.7910   19.6987 C   0  0  1  0  0  0  0  0  0  0  0  0
  -22.0773  -27.8900   15.9092 C   0  0  2  0  0  0  0  0  0  0  0  0
  -20.7803  -27.4695   20.4869 C   0  0  0  0  0  0  0  0  0  0  0  0
  -25.7842  -11.6723   21.2124 N   0  0  0  0  0  0  0  0  0  0  0  0
  -31.1968  -17.8894   19.6975 N   0  0  0  0  0  0  0  0  0  0  0  0
  -26.0991  -12.7470   20.4695 N   0  0  0  0  0  0  0  0  0  0  0  0
  -31.0168  -21.5443   19.3873 N   0  0  0  0  0  0  0  0  0  0  0  0
  -24.1365  -28.7125   20.7240 N   0  0  0  0  0  0  0  0  0  0  0  0
  -29.7290  -13.9325   20.5055 N   0  0  0  0  0  0  0  0  0  0  0  0
  -25.1822  -14.6950   19.4819 N   0  0  0  0  0  0  0  0  0  0  0  0
  -21.6307  -12.7892   21.5194 N   0  0  0  0  0  0  0  0  0  0  0  0
  -29.5902  -16.2841   20.3912 N   0  0  0  0  0  0  0  0  0  0  0  0
  -25.1812  -30.3959   23.7852 N   0  0  0  0  0  0  0  0  0  0  0  0
  -21.8651  -28.1015   18.2897 N   0  0  0  0  0  0  0  0  0  0  0  0
  -23.2107  -27.7247   14.9557 N   0  3  0  0  0  0  0  0  0  0  0  0
  -22.3094  -14.5635   20.2349 O   0  0  0  0  0  0  0  0  0  0  0  0
  -24.0080  -28.4532   23.2640 O   0  0  0  0  0  0  0  0  0  0  0  0
  -22.2809  -30.0685   20.3310 O   0  0  0  0  0  0  0  0  0  0  0  0
  -23.2193  -26.4180   17.4475 O   0  0  0  0  0  0  0  0  0  0  0  0
  -31.5451  -15.1805   19.8066 O   0  0  0  0  0  0  0  0  0  0  0  0
  -21.6669   -8.0532   24.4526 O   0  0  0  0  0  0  0  0  0  0  0  0
  -28.9471  -24.8305   20.7844 O   0  0  0  0  0  0  0  0  0  1  0  0
  -22.5948   -2.7225   23.3911 F   0  0  0  0  0  0  0  0  0  0  0  0
  -19.6143   -6.3917   23.6346 F   0  0  0  0  0  0  0  0  0  0  0  0
  1  2  1  0  0  0  0
  1  5  2  0  0  0  0
  2  6  2  0  0  0  0
  3  8  2  0  0  0  0
  3 16  1  0  0  0  0
  4  9  1  0  0  0  0
  4 16  2  0  0  0  0
  5 18  1  0  0  0  0
  6 20  1  0  0  0  0
  7 10  2  0  0  0  0
  7 19  1  0  0  0  0
  8 24  1  0  0  0  0
  9 24  2  0  0  0  0
 10 25  1  0  0  0  0
 11 12  2  0  0  0  0
 11 26  1  0  0  0  0
 12 27  1  0  0  0  0
 13 21  1  0  0  0  0
 13 25  2  0  0  0  0
 14 22  2  0  0  0  0
 14 31  1  0  0  0  0
 15 27  2  0  0  0  0
 15 28  1  0  0  0  0
 16 29  1  0  0  0  0
 17 29  1  0  0  0  0
 17 32  2  0  0  0  0
 17 33  1  0  0  0  0
 18 20  2  0  0  0  0
 18 38  1  0  0  0  0
 19 21  2  0  0  0  0
 19 39  1  0  0  0  0
 20 48  1  0  0  0  0
 21 40  1  0  0  0  0
 22 23  1  0  0  0  0
 22 52  1  0  0  0  0
 23 30  2  0  0  0  0
 23 68  1  0  0  0  0
 24 82  1  0  0  0  0
 25 83  1  0  0  0  0
 26 28  2  0  0  0  0
 26 82  1  0  0  0  0
 27 84  1  0  0  0  0
 28 85  1  0  0  0  0
 29 65  2  0  0  0  0
 30 53  1  0  0  0  0
 30 66  1  0  0  0  0
 31 66  2  0  0  0  0
 31 73  1  0  0  0  0
 32 67  1  0  0  0  0
 32 71  1  0  0  0  0
 33 72  1  0  0  0  0
 33 77  2  0  0  0  0
 34 49  1  0  0  0  0
 34 74  1  0  0  0  0
 34 78  2  0  0  0  0
 35 62  1  0  0  0  0
 35 69  1  0  0  0  0
 35 79  2  0  0  0  0
 36 63  1  0  0  0  0
 36 75  1  0  0  0  0
 36 80  2  0  0  0  0
 37 70  1  0  0  0  0
 37 73  1  0  0  0  0
 37 81  2  0  0  0  0
 38 41  1  0  0  0  0
 39 49  1  0  0  0  0
 40 69  1  0  0  0  0
 41 43  1  0  0  0  0
 42 44  1  0  0  0  0
 42 45  1  0  0  0  0
 43 48  1  0  0  0  0
 44 51  1  0  0  0  0
 45 70  1  0  0  0  0
 46 50  1  0  0  0  0
 46 68  1  0  0  0  0
 47 51  1  0  0  0  0
 47 70  1  0  0  0  0
 48 74  1  0  0  0  0
 49 69  1  0  0  0  0
 50 52  1  0  0  0  0
 50 61  1  0  0  0  0
 51 67  1  0  0  0  0
 52 54  1  0  0  0  0
 52 55  1  0  0  0  0
 56 63  1  0  0  0  0
 57 64  1  0  0  0  0
 58 64  1  0  0  0  0
 59 64  1  0  0  0  0
 60 76  1  0  0  0  0
 61 83  1  0  0  0  0
 62 64  1  0  0  0  0
 62 75  1  0  0  0  0
 63 76  1  0  0  0  0
 65 67  1  0  0  0  0
M  CHG  1  76   1
M  ISO  4  37 100  61 101  73 100  83 101
M  END
> <Batch ID>
0173

> <Smiles>
CNC(C)C(=O)NC(C(=O)N1Cc2cc([101O:1][101CH2:1]C3CNc4c(cc([100NH:0][100C:0](=O)N5CCCC(n6nc(-c7ccc(Oc8ccc(F)cc8F)cc7)c(C(N)=O)c6N)C5)nc4C)C3(C)C)ccc2CC1C(=O)NC1CCCc2ccccc21)C(C)(C)C

> <Shape>
0.348

> <Color>
0.145

> <Negative vol penalty>
0.000

$$$$

  -OEChem-04052322423D

 86 95  0     1  0  0  0  0  0999 V2000
  -23.1563   -8.0010   20.4002 C   0  0  0  0  0  0  0  0  0  0  0  0
  -22.5501   -9.0113   19.6605 C   0  0  0  0  0  0  0  0  0  0  0  0
  -29.3598  -28.3823   19.9304 C   0  0  0  0  0  0  0  0  0  0  0  0
  -27.6143  -26.9553   19.0621 C   0  0  0  0  0  0  0  0  0  0  0  0
  -23.7100   -8.2879   21.6472 C   0  0  0  0  0  0  0  0  0  0  0  0
  -22.4962  -10.3090   20.1679 C   0  0  0  0  0  0  0  0  0  0  0  0
  -22.6109  -17.1466   18.0348 C   0  0  0  0  0  0  0  0  0  0  0  0
  -30.2508  -27.3095   19.9024 C   0  0  0  0  0  0  0  0  0  0  0  0
  -28.5053  -25.8825   19.0339 C   0  0  0  0  0  0  0  0  0  0  0  0
  -21.8864  -18.3299   18.1718 C   0  0  0  0  0  0  0  0  0  0  0  0
  -31.0104  -24.7786   17.0524 C   0  0  0  0  0  0  0  0  0  0  0  0
  -31.0239  -23.9791   15.9096 C   0  0  0  0  0  0  0  0  0  0  0  0
  -22.9463  -18.7251   20.3024 C   0  0  0  0  0  0  0  0  0  0  0  0
  -30.4294  -22.0570   17.2472 C   0  0  0  0  0  0  0  0  0  0  0  0
  -18.9710  -25.5218   21.8528 C   0  0  0  0  0  0  0  0  0  0  0  0
  -20.4827  -26.9813   21.0785 C   0  0  0  0  0  0  0  0  0  0  0  0
  -28.0415  -28.2052   19.5103 C   0  0  0  0  0  0  0  0  0  0  0  0
  -26.8738  -30.2408   18.5101 C   0  0  0  0  0  0  0  0  0  0  0  0
  -23.6714   -9.5918   22.1659 C   0  0  0  0  0  0  0  0  0  0  0  0
  -23.5019  -16.7375   19.0374 C   0  0  0  0  0  0  0  0  0  0  0  0
  -23.0487  -10.6134   21.4236 C   0  0  0  0  0  0  0  0  0  0  0  0
  -23.6828  -17.5375   20.1746 C   0  0  0  0  0  0  0  0  0  0  0  0
  -18.7753  -26.7102   22.5212 C   0  0  0  0  0  0  0  0  0  0  0  0
  -19.7317  -27.6335   22.0314 C   0  0  0  0  0  0  0  0  0  0  0  0
  -29.8236  -26.0596   19.4541 C   0  0  0  0  0  0  0  0  0  0  0  0
  -22.0518  -19.1179   19.3070 C   0  0  0  0  0  0  0  0  0  0  0  0
  -30.7066  -24.2173   18.2928 C   0  0  0  0  0  0  0  0  0  0  0  0
  -30.7334  -22.6183   16.0070 C   0  0  0  0  0  0  0  0  0  0  0  0
  -30.4160  -22.8565   18.3901 C   0  0  0  0  0  0  0  0  0  0  0  0
  -27.1205  -29.3129   19.5396 C   0  0  0  0  0  0  0  0  0  0  0  0
  -25.9236  -31.0855   19.0297 C   0  0  0  0  0  0  0  0  0  0  0  0
  -27.4519  -30.3310   17.2011 C   0  0  0  0  0  0  0  0  0  0  0  0
  -23.7029  -14.2215   20.9695 C   0  0  0  0  0  0  0  0  0  0  0  0
  -26.5360  -15.5702   21.7922 C   0  0  0  0  0  0  0  0  0  0  0  0
  -28.4552  -18.3851   21.9922 C   0  0  0  0  0  0  0  0  0  0  0  0
  -21.7780  -30.4258   23.2993 C   0  0  0  0  0  0  0  0  0  0  0  0
  -24.2415   -9.8439   23.5393 C   0  0  0  0  0  0  0  0  0  0  0  0
  -24.2958  -15.4720   18.8622 C   0  0  0  0  0  0  0  0  0  0  0  0
  -24.6420  -17.1531   21.2703 C   0  0  0  0  0  0  0  0  0  0  0  0
  -24.4744  -11.3222   23.8401 C   0  0  0  0  0  0  0  0  0  0  0  0
  -24.3685  -32.8659   23.1893 C   0  0  0  0  0  0  0  0  0  0  0  0
  -23.2571  -12.1476   23.4357 C   0  0  0  0  0  0  0  0  0  0  0  0
  -25.3453  -32.3157   22.1486 C   0  0  0  0  0  0  0  0  0  0  0  0
  -20.0725  -23.1175   20.0939 C   0  0  0  0  0  0  0  0  0  0  0  0
  -23.7433  -31.7492   24.0224 C   0  0  0  0  0  0  0  0  0  0  0  0
  -24.0789  -30.1265   22.1981 C   0  0  0  0  0  0  0  0  0  0  0  0
  -22.9924  -12.0386   21.9292 C   0  0  1  0  0  0  0  0  0  0  0  0
  -24.7934  -14.8913   20.1822 C   0  0  1  0  0  0  0  0  0  0  0  0
  -21.4773  -22.6532   19.6412 C   0  0  1  0  0  0  0  0  0  0  0  0
  -24.6927  -31.2109   21.2961 C   0  0  2  0  0  0  0  0  0  0  0  0
  -20.5838  -24.5852   19.9973 C   0  0  2  0  0  0  0  0  0  0  0  0
  -22.0350  -24.0000   20.2355 C   0  0  0  0  0  0  0  0  0  0  0  0
  -17.7531  -26.9628   23.5561 C   0  0  0  0  0  0  0  0  0  0  0  0
  -22.5027  -23.9454   21.6938 C   0  0  0  0  0  0  0  0  0  0  0  0
  -23.1110  -24.6301   19.3498 C   0  0  0  0  0  0  0  0  0  0  0  0
  -19.0527  -30.0306   21.6382 C   0  0  0  0  0  0  0  0  0  0  0  0
  -30.4971  -19.7874   22.3941 C   0  0  0  0  0  0  0  0  0  0  0  0
  -25.6164  -15.4295   24.6981 C   0  0  0  0  0  0  0  0  0  0  0  0
  -27.4296  -17.0558   25.2778 C   0  0  0  0  0  0  0  0  0  0  0  0
  -28.0149  -14.8227   24.3324 C   0  0  0  0  0  0  0  0  0  0  0  0
  -29.4051  -18.0045   19.2152 C   0  0  0  0  0  0  0  0  0  0  0  0
  -21.9563  -21.3233   20.1920 C   0  0  0  0  0  0  0  0  0  1  0  0
  -19.9019  -29.0374   22.4558 C   0  0  2  0  0  0  0  0  0  0  0  0
  -26.9817  -16.5731   22.8288 C   0  0  1  0  0  0  0  0  0  0  0  0
  -29.8896  -18.6579   21.5768 C   0  0  2  0  0  0  0  0  0  0  0  0
  -26.9911  -15.9768   24.2647 C   0  0  0  0  0  0  0  0  0  0  0  0
  -26.3863  -29.5460   20.6308 N   0  0  0  0  0  0  0  0  0  0  0  0
  -20.0112  -25.6985   20.9781 N   0  0  0  0  0  0  0  0  0  0  0  0
  -25.6691  -30.6302   20.2898 N   0  0  0  0  0  0  0  0  0  0  0  0
  -25.3905  -15.9036   21.0557 N   0  0  0  0  0  0  0  0  0  0  0  0
  -23.1405  -30.7349   23.1542 N   0  0  0  0  0  0  0  0  0  0  0  0
  -25.2894  -32.1660   18.5270 N   0  0  0  0  0  0  0  0  0  0  0  0
  -28.4138  -29.3822   16.8287 N   0  0  0  0  0  0  0  0  0  0  0  0
  -23.9157  -12.8744   21.1921 N   0  0  0  0  0  0  0  0  0  0  0  0
  -28.2767  -17.0744   22.3815 N   0  0  0  0  0  0  0  0  0  0  0  0
  -21.2851  -29.4580   22.4326 N   0  0  0  0  0  0  0  0  0  0  0  0
  -29.9488  -19.0355   20.1364 N   0  3  0  0  0  0  0  0  0  0  0  0
  -27.1370  -31.2363   16.3919 O   0  0  0  0  0  0  0  0  0  0  0  0
  -22.7404  -14.8786   21.3483 O   0  0  0  0  0  0  0  0  0  0  0  0
  -27.1846  -14.5325   21.6366 O   0  0  0  0  0  0  0  0  0  0  0  0
  -27.5814  -19.2492   21.9767 O   0  0  0  0  0  0  0  0  0  0  0  0
  -21.0532  -30.9756   24.1356 O   0  0  0  0  0  0  0  0  0  0  0  0
  -30.6929  -25.0126   19.4263 O   0  0  0  0  0  0  0  0  0  0  0  0
  -21.3455  -20.2730   19.4435 O   0  0  0  0  0  0  0  0  0  1  0  0
  -30.7448  -21.8509   14.9091 F   0  0  0  0  0  0  0  0  0  0  0  0
  -30.1222  -22.3119   19.5788 F   0  0  0  0  0  0  0  0  0  0  0  0
  1  2  1  0  0  0  0
  1  5  2  0  0  0  0
  2  6  2  0  0  0  0
  3  8  2  0  0  0  0
  3 17  1  0  0  0  0
  4  9  1  0  0  0  0
  4 17  2  0  0  0  0
  5 19  1  0  0  0  0
  6 21  1  0  0  0  0
  7 10  2  0  0  0  0
  7 20  1  0  0  0  0
  8 25  1  0  0  0  0
  9 25  2  0  0  0  0
 10 26  1  0  0  0  0
 11 12  2  0  0  0  0
 11 27  1  0  0  0  0
 12 28  1  0  0  0  0
 13 22  1  0  0  0  0
 13 26  2  0  0  0  0
 14 28  2  0  0  0  0
 14 29  1  0  0  0  0
 15 23  2  0  0  0  0
 15 68  1  0  0  0  0
 16 24  2  0  0  0  0
 16 68  1  0  0  0  0
 17 30  1  0  0  0  0
 18 30  1  0  0  0  0
 18 31  2  0  0  0  0
 18 32  1  0  0  0  0
 19 21  2  0  0  0  0
 19 37  1  0  0  0  0
 20 22  2  0  0  0  0
 20 38  1  0  0  0  0
 21 47  1  0  0  0  0
 22 39  1  0  0  0  0
 23 24  1  0  0  0  0
 23 53  1  0  0  0  0
 24 63  1  0  0  0  0
 25 83  1  0  0  0  0
 26 84  1  0  0  0  0
 27 29  2  0  0  0  0
 27 83  1  0  0  0  0
 28 85  1  0  0  0  0
 29 86  1  0  0  0  0
 30 67  2  0  0  0  0
 31 69  1  0  0  0  0
 31 72  1  0  0  0  0
 32 73  1  0  0  0  0
 32 78  2  0  0  0  0
 33 48  1  0  0  0  0
 33 74  1  0  0  0  0
 33 79  2  0  0  0  0
 34 64  1  0  0  0  0
 34 70  1  0  0  0  0
 34 80  2  0  0  0  0
 35 65  1  0  0  0  0
 35 75  1  0  0  0  0
 35 81  2  0  0  0  0
 36 71  1  0  0  0  0
 36 76  1  0  0  0  0
 36 82  2  0  0  0  0
 37 40  1  0  0  0  0
 38 48  1  0  0  0  0
 39 70  1  0  0  0  0
 40 42  1  0  0  0  0
 41 43  1  0  0  0  0
 41 45  1  0  0  0  0
 42 47  1  0  0  0  0
 43 50  1  0  0  0  0
 44 49  1  0  0  0  0
 44 51  1  0  0  0  0
 45 71  1  0  0  0  0
 46 50  1  0  0  0  0
 46 71  1  0  0  0  0
 47 74  1  0  0  0  0
 48 70  1  0  0  0  0
 49 52  1  0  0  0  0
 49 62  1  0  0  0  0
 50 69  1  0  0  0  0
 51 52  1  0  0  0  0
 51 68  1  0  0  0  0
 52 54  1  0  0  0  0
 52 55  1  0  0  0  0
 56 63  1  0  0  0  0
 57 65  1  0  0  0  0
 58 66  1  0  0  0  0
 59 66  1  0  0  0  0
 60 66  1  0  0  0  0
 61 77  1  0  0  0  0
 62 84  1  0  0  0  0
 63 76  1  0  0  0  0
 64 66  1  0  0  0  0
 64 75  1  0  0  0  0
 65 77  1  0  0  0  0
 67 69  1  0  0  0  0
M  CHG  1  77   1
M  ISO  4  36 100  62 101  76 100  84 101
M  END
> <Batch ID>
0173

> <Smiles>
CNC(C)C(=O)NC(C(=O)N1Cc2cc([101O:1][101CH2:1]C3CC(n4cc(C)c(C(C)[100NH:0][100C:0](=O)N5CCCC(n6nc(-c7ccc(Oc8ccc(F)cc8F)cc7)c(C(N)=O)c6N)C5)c4)C3(C)C)ccc2CC1C(=O)NC1CCCc2ccccc21)C(C)(C)C

> <Shape>
0.256

> <Color>
0.066

> <Negative vol penalty>
0.000

$$$$

  -OEChem-04052322423D

 85 94  0     1  0  0  0  0  0999 V2000
  -26.1521  -35.0907   24.1477 C   0  0  0  0  0  0  0  0  0  0  0  0
  -26.6831  -33.8563   23.7873 C   0  0  0  0  0  0  0  0  0  0  0  0
  -29.7594  -11.3844   19.4112 C   0  0  0  0  0  0  0  0  0  0  0  0
  -28.8339  -10.4290   21.4280 C   0  0  0  0  0  0  0  0  0  0  0  0
  -24.8285  -35.1805   24.5764 C   0  0  0  0  0  0  0  0  0  0  0  0
  -25.8910  -32.7108   23.8565 C   0  0  0  0  0  0  0  0  0  0  0  0
  -26.3639  -29.7715   19.7600 C   0  0  0  0  0  0  0  0  0  0  0  0
  -30.5555  -10.2520   19.2400 C   0  0  0  0  0  0  0  0  0  0  0  0
  -29.6300   -9.2965   21.2568 C   0  0  0  0  0  0  0  0  0  0  0  0
  -27.5022  -28.9706   19.6789 C   0  0  0  0  0  0  0  0  0  0  0  0
  -30.1771   -7.0895   18.1049 C   0  0  0  0  0  0  0  0  0  0  0  0
  -30.2456   -6.5323   16.8281 C   0  0  0  0  0  0  0  0  0  0  0  0
  -26.2153  -27.0754   20.4348 C   0  0  0  0  0  0  0  0  0  0  0  0
  -32.6338   -6.8967   16.7972 C   0  0  0  0  0  0  0  0  0  0  0  0
  -28.8987  -11.4730   20.5053 C   0  0  0  0  0  0  0  0  0  0  0  0
  -26.7762  -12.8516   20.1854 C   0  0  0  0  0  0  0  0  0  0  0  0
  -24.0168  -34.0370   24.6416 C   0  0  0  0  0  0  0  0  0  0  0  0
  -25.1431  -29.2319   20.1902 C   0  0  0  0  0  0  0  0  0  0  0  0
  -24.5556  -32.7853   24.2878 C   0  0  0  0  0  0  0  0  0  0  0  0
  -25.0624  -27.8709   20.5180 C   0  0  0  0  0  0  0  0  0  0  0  0
  -30.4908   -9.2080   20.1628 C   0  0  0  0  0  0  0  0  0  0  0  0
  -27.4288  -27.6230   20.0191 C   0  0  0  0  0  0  0  0  0  0  0  0
  -31.3369   -7.5504   18.7279 C   0  0  0  0  0  0  0  0  0  0  0  0
  -31.4739   -6.4358   16.1742 C   0  0  0  0  0  0  0  0  0  0  0  0
  -32.5652   -7.4539   18.0741 C   0  0  0  0  0  0  0  0  0  0  0  0
  -28.1615  -23.7820   16.5954 C   0  0  0  0  0  0  0  0  0  0  0  0
  -28.0765  -12.6428   20.6830 C   0  0  0  0  0  0  0  0  0  0  0  0
  -28.3193  -23.1576   17.8472 C   0  0  0  0  0  0  0  0  0  0  0  0
  -28.8983  -24.9370   16.6925 C   0  0  0  0  0  0  0  0  0  0  0  0
  -26.4376  -14.1077   20.6260 C   0  0  0  0  0  0  0  0  0  0  0  0
  -25.9485  -11.9874   19.3957 C   0  0  0  0  0  0  0  0  0  0  0  0
  -23.1888  -29.7750   22.6375 C   0  0  0  0  0  0  0  0  0  0  0  0
  -21.2858  -27.6569   21.0837 C   0  0  0  0  0  0  0  0  0  0  0  0
  -21.0333  -25.0640   18.8791 C   0  0  0  0  0  0  0  0  0  0  0  0
  -27.5519  -19.3837   21.5970 C   0  0  0  0  0  0  0  0  0  0  0  0
  -22.6061  -34.1766   25.1563 C   0  0  0  0  0  0  0  0  0  0  0  0
  -23.9182  -30.1029   20.2466 C   0  0  0  0  0  0  0  0  0  0  0  0
  -23.7711  -27.2385   20.9662 C   0  0  0  0  0  0  0  0  0  0  0  0
  -21.7218  -32.9721   24.8440 C   0  0  0  0  0  0  0  0  0  0  0  0
  -28.6808  -17.1473   23.9787 C   0  0  0  0  0  0  0  0  0  0  0  0
  -22.4519  -31.6740   25.1738 C   0  0  0  0  0  0  0  0  0  0  0  0
  -28.5206  -15.7855   23.3032 C   0  0  0  0  0  0  0  0  0  0  0  0
  -28.8139  -20.8042   18.6462 C   0  0  0  0  0  0  0  0  0  0  0  0
  -26.7799  -22.0341   19.5178 C   0  0  0  0  0  0  0  0  0  0  0  0
  -29.2076  -18.1857   22.9950 C   0  0  0  0  0  0  0  0  0  0  0  0
  -28.2097  -19.4912   19.1523 C   0  0  0  0  0  0  0  0  0  0  0  0
  -26.2136  -20.6940   19.9781 C   0  0  0  0  0  0  0  0  0  0  0  0
  -28.1956  -16.9852   21.0838 C   0  0  0  0  0  0  0  0  0  0  0  0
  -23.7206  -31.5237   24.3257 C   0  0  1  0  0  0  0  0  0  0  0  0
  -27.7264  -21.8432   18.3188 C   0  0  0  0  0  0  0  0  0  0  0  0
  -22.8460  -29.5659   21.1896 C   0  0  1  0  0  0  0  0  0  0  0  0
  -27.6576  -15.8960   22.0338 C   0  0  1  0  0  0  0  0  0  0  0  0
  -29.1420  -26.0251   15.7255 C   0  0  0  0  0  0  0  0  0  0  0  0
  -19.3514  -23.5184   17.8402 C   0  0  0  0  0  0  0  0  0  0  0  0
  -21.1422  -26.0685   23.6849 C   0  0  0  0  0  0  0  0  0  0  0  0
  -20.2842  -24.1206   22.3666 C   0  0  0  0  0  0  0  0  0  0  0  0
  -18.9756  -26.2428   22.4480 C   0  0  0  0  0  0  0  0  0  0  0  0
  -21.6571  -26.0306   16.1523 C   0  0  0  0  0  0  0  0  0  0  0  0
  -30.2865  -25.9426   18.5304 C   0  0  0  0  0  0  0  0  0  0  0  0
  -29.5106  -27.1842   18.9565 C   0  0  0  0  0  0  0  0  0  1  0  0
  -21.1157  -26.1570   21.1047 C   0  0  1  0  0  0  0  0  0  0  0  0
  -20.1062  -24.8311   17.6999 C   0  0  2  0  0  0  0  0  0  0  0  0
  -20.4044  -25.6593   22.3945 C   0  0  0  0  0  0  0  0  0  0  0  0
  -28.5329  -13.6830   21.3857 N   0  0  0  0  0  0  0  0  0  0  0  0
  -29.0956  -23.8579   18.6785 N   0  0  0  0  0  0  0  0  0  0  0  0
  -29.4322  -24.9342   17.9475 N   0  0  0  0  0  0  0  0  0  0  0  0
  -27.5138  -14.5575   21.3329 N   0  0  0  0  0  0  0  0  0  0  0  0
  -22.6026  -28.1330   21.0112 N   0  0  0  0  0  0  0  0  0  0  0  0
  -28.3636  -18.2579   21.8024 N   0  0  0  0  0  0  0  0  0  0  0  0
  -27.2850  -19.7409   20.2668 N   0  0  0  0  0  0  0  0  0  0  0  0
  -25.3272  -14.8602   20.4738 N   0  0  0  0  0  0  0  0  0  0  0  0
  -26.4513  -10.7312   19.0304 N   0  0  0  0  0  0  0  0  0  0  0  0
  -23.3841  -31.0984   22.9840 N   0  0  0  0  0  0  0  0  0  0  0  0
  -20.4247  -25.8072   19.8683 N   0  0  0  0  0  0  0  0  0  0  0  0
  -20.8840  -24.7926   16.4292 N   0  3  0  0  0  0  0  0  0  0  0  0
  -24.8035  -12.3259   19.0110 O   0  0  0  0  0  0  0  0  0  0  0  0
  -23.2687  -28.8075   23.3854 O   0  0  0  0  0  0  0  0  0  0  0  0
  -20.2868  -28.3794   21.1227 O   0  0  0  0  0  0  0  0  0  0  0  0
  -22.1813  -24.6269   18.9204 O   0  0  0  0  0  0  0  0  0  0  0  0
  -27.0919  -20.0316   22.5456 O   0  0  0  0  0  0  0  0  0  0  0  0
  -31.2673   -8.1026   19.9959 O   0  0  0  0  0  0  0  0  0  0  0  0
  -28.5463  -26.8338   19.9410 O   0  0  0  0  0  0  0  0  0  1  0  0
  -31.5398   -5.8993   14.9487 F   0  0  0  0  0  0  0  0  0  0  0  0
  -33.6830   -7.8939   18.6680 F   0  0  0  0  0  0  0  0  0  0  0  0
  -27.2584  -23.2134   15.2816 Cl  0  0  0  0  0  0  0  0  0  0  0  0
  1  2  1  0  0  0  0
  1  5  2  0  0  0  0
  2  6  2  0  0  0  0
  3  8  2  0  0  0  0
  3 15  1  0  0  0  0
  4  9  1  0  0  0  0
  4 15  2  0  0  0  0
  5 17  1  0  0  0  0
  6 19  1  0  0  0  0
  7 10  2  0  0  0  0
  7 18  1  0  0  0  0
  8 21  1  0  0  0  0
  9 21  2  0  0  0  0
 10 22  1  0  0  0  0
 11 12  2  0  0  0  0
 11 23  1  0  0  0  0
 12 24  1  0  0  0  0
 13 20  1  0  0  0  0
 13 22  2  0  0  0  0
 14 24  2  0  0  0  0
 14 25  1  0  0  0  0
 15 27  1  0  0  0  0
 16 27  1  0  0  0  0
 16 30  2  0  0  0  0
 16 31  1  0  0  0  0
 17 19  2  0  0  0  0
 17 36  1  0  0  0  0
 18 20  2  0  0  0  0
 18 37  1  0  0  0  0
 19 49  1  0  0  0  0
 20 38  1  0  0  0  0
 21 81  1  0  0  0  0
 22 82  1  0  0  0  0
 23 25  2  0  0  0  0
 23 81  1  0  0  0  0
 24 83  1  0  0  0  0
 25 84  1  0  0  0  0
 26 28  1  0  0  0  0
 26 29  2  0  0  0  0
 26 85  1  0  0  0  0
 27 64  2  0  0  0  0
 28 50  1  0  0  0  0
 28 65  2  0  0  0  0
 29 53  1  0  0  0  0
 29 66  1  0  0  0  0
 30 67  1  0  0  0  0
 30 71  1  0  0  0  0
 31 72  1  0  0  0  0
 31 76  2  0  0  0  0
 32 51  1  0  0  0  0
 32 73  1  0  0  0  0
 32 77  2  0  0  0  0
 33 61  1  0  0  0  0
 33 68  1  0  0  0  0
 33 78  2  0  0  0  0
 34 62  1  0  0  0  0
 34 74  1  0  0  0  0
 34 79  2  0  0  0  0
 35 69  1  0  0  0  0
 35 70  1  0  0  0  0
 35 80  2  0  0  0  0
 36 39  1  0  0  0  0
 37 51  1  0  0  0  0
 38 68  1  0  0  0  0
 39 41  1  0  0  0  0
 40 42  1  0  0  0  0
 40 45  1  0  0  0  0
 41 49  1  0  0  0  0
 42 52  1  0  0  0  0
 43 46  1  0  0  0  0
 43 50  1  0  0  0  0
 44 47  1  0  0  0  0
 44 50  1  0  0  0  0
 45 69  1  0  0  0  0
 46 70  1  0  0  0  0
 47 70  1  0  0  0  0
 48 52  1  0  0  0  0
 48 69  1  0  0  0  0
 49 73  1  0  0  0  0
 51 68  1  0  0  0  0
 52 67  1  0  0  0  0
 54 62  1  0  0  0  0
 55 63  1  0  0  0  0
 56 63  1  0  0  0  0
 57 63  1  0  0  0  0
 58 75  1  0  0  0  0
 59 60  1  0  0  0  0
 59 66  1  0  0  0  0
 60 82  1  0  0  0  0
 61 63  1  0  0  0  0
 61 74  1  0  0  0  0
 62 75  1  0  0  0  0
 64 67  1  0  0  0  0
 65 66  1  0  0  0  0
M  CHG  1  75   1
M  ISO  4  35 100  60 101  70 100  82 101
M  END
> <Batch ID>
0173

> <Smiles>
CNC(C)C(=O)NC(C(=O)N1Cc2cc([101O:1][101CH2:1]Cn3nc(C4CC[100N:0]([100C:0](=O)N5CCCC(n6nc(-c7ccc(Oc8ccc(F)cc8F)cc7)c(C(N)=O)c6N)C5)CC4)c(Cl)c3C)ccc2CC1C(=O)NC1CCCc2ccccc21)C(C)(C)C

> <Shape>
0.249

> <Color>
0.104

> <Negative vol penalty>
0.000

$$$$

  -OEChem-04052322423D

 82 90  0     1  0  0  0  0  0999 V2000
  -23.6579  -36.0077   16.0402 C   0  0  0  0  0  0  0  0  0  0  0  0
  -24.2092  -34.7323   15.9698 C   0  0  0  0  0  0  0  0  0  0  0  0
  -24.4666   -9.2301   22.0848 C   0  0  0  0  0  0  0  0  0  0  0  0
  -23.4700  -10.0111   20.0272 C   0  0  0  0  0  0  0  0  0  0  0  0
  -23.7625  -36.7471   17.2176 C   0  0  0  0  0  0  0  0  0  0  0  0
  -24.8664  -34.1960   17.0765 C   0  0  0  0  0  0  0  0  0  0  0  0
  -24.9605  -28.3240   18.8135 C   0  0  0  0  0  0  0  0  0  0  0  0
  -23.4456   -8.2899   22.2225 C   0  0  0  0  0  0  0  0  0  0  0  0
  -22.4490   -9.0708   20.1648 C   0  0  0  0  0  0  0  0  0  0  0  0
  -25.8961  -27.3066   18.6305 C   0  0  0  0  0  0  0  0  0  0  0  0
  -22.6531   -5.2664   20.9327 C   0  0  0  0  0  0  0  0  0  0  0  0
  -23.0126   -3.9666   21.2889 C   0  0  0  0  0  0  0  0  0  0  0  0
  -26.8237  -27.7765   20.8072 C   0  0  0  0  0  0  0  0  0  0  0  0
  -21.6597   -4.1390   23.2832 C   0  0  0  0  0  0  0  0  0  0  0  0
  -24.4788  -10.0908   20.9872 C   0  0  0  0  0  0  0  0  0  0  0  0
  -26.7638  -10.8911   20.1833 C   0  0  0  0  0  0  0  0  0  0  0  0
  -24.4128  -36.2157   18.3425 C   0  0  0  0  0  0  0  0  0  0  0  0
  -24.9565  -29.0838   19.9921 C   0  0  0  0  0  0  0  0  0  0  0  0
  -24.9809  -34.9295   18.2697 C   0  0  0  0  0  0  0  0  0  0  0  0
  -25.8855  -28.8012   21.0037 C   0  0  0  0  0  0  0  0  0  0  0  0
  -22.4368   -8.2102   21.2625 C   0  0  0  0  0  0  0  0  0  0  0  0
  -26.8297  -27.0346   19.6262 C   0  0  0  0  0  0  0  0  0  0  0  0
  -21.7970   -6.0026   21.7518 C   0  0  0  0  0  0  0  0  0  0  0  0
  -22.5159   -3.4029   22.4641 C   0  0  0  0  0  0  0  0  0  0  0  0
  -21.3003   -5.4388   22.9270 C   0  0  0  0  0  0  0  0  0  0  0  0
  -25.5330  -11.0627   20.8447 C   0  0  0  0  0  0  0  0  0  0  0  0
  -27.4037  -12.0975   20.3303 C   0  0  0  0  0  0  0  0  0  0  0  0
  -27.2822   -9.7438   19.4973 C   0  0  0  0  0  0  0  0  0  0  0  0
  -25.3794  -32.1580   20.6807 C   0  0  0  0  0  0  0  0  0  0  0  0
  -24.5549  -31.2007   23.6684 C   0  0  0  0  0  0  0  0  0  0  0  0
  -27.4698  -23.1426   19.7438 C   0  0  0  0  0  0  0  0  0  0  0  0
  -24.3478  -28.6667   25.9449 C   0  0  0  0  0  0  0  0  0  0  0  0
  -27.5248  -17.4779   20.2089 C   0  0  0  0  0  0  0  0  0  0  0  0
  -24.5420  -37.0712   19.5778 C   0  0  0  0  0  0  0  0  0  0  0  0
  -23.9237  -30.1601   20.1853 C   0  0  0  0  0  0  0  0  0  0  0  0
  -25.9102  -29.5744   22.2961 C   0  0  0  0  0  0  0  0  0  0  0  0
  -24.9275  -36.2830   20.8270 C   0  0  0  0  0  0  0  0  0  0  0  0
  -26.3160  -16.0836   23.2285 C   0  0  0  0  0  0  0  0  0  0  0  0
  -26.0797  -35.3308   20.5230 C   0  0  0  0  0  0  0  0  0  0  0  0
  -26.0882  -14.6298   22.8192 C   0  0  0  0  0  0  0  0  0  0  0  0
  -25.9160  -17.0641   22.1242 C   0  0  0  0  0  0  0  0  0  0  0  0
  -28.5852  -21.0847   20.6932 C   0  0  0  0  0  0  0  0  0  0  0  0
  -28.7272  -19.6157   20.3232 C   0  0  0  0  0  0  0  0  0  0  0  0
  -26.3203  -15.3264   20.4080 C   0  0  0  0  0  0  0  0  0  0  0  0
  -26.2360  -19.6634   20.3712 C   0  0  0  0  0  0  0  0  0  0  0  0
  -25.6798  -34.3035   19.4570 C   0  0  1  0  0  0  0  0  0  0  0  0
  -24.3401  -31.2107   21.2100 C   0  0  1  0  0  0  0  0  0  0  0  0
  -26.7764  -14.3235   21.4782 C   0  0  2  0  0  0  0  0  0  0  0  0
  -26.3640  -20.9394   19.5282 C   0  0  2  0  0  0  0  0  0  0  0  0
  -26.4471  -20.6242   18.0310 C   0  0  0  0  0  0  0  0  0  0  0  0
  -23.6685  -28.1984   28.3148 C   0  0  0  0  0  0  0  0  0  0  0  0
  -27.1280  -32.5058   24.6613 C   0  0  0  0  0  0  0  0  0  0  0  0
  -26.8783  -31.2148   26.7918 C   0  0  0  0  0  0  0  0  0  0  0  0
  -25.1374  -32.8742   26.1297 C   0  0  0  0  0  0  0  0  0  0  0  0
  -22.2624  -26.7484   25.0905 C   0  0  0  0  0  0  0  0  0  0  0  0
  -28.2047  -25.3678   20.6196 C   0  0  0  0  0  0  0  0  0  1  0  0
  -25.3073  -30.6874   24.8723 C   0  0  1  0  0  0  0  0  0  0  0  0
  -28.6180  -23.9429   20.3078 C   0  0  2  0  0  0  0  0  0  0  0  0
  -23.2210  -28.2258   26.8616 C   0  0  2  0  0  0  0  0  0  0  0  0
  -26.1138  -31.8071   25.5887 C   0  0  0  0  0  0  0  0  0  0  0  0
  -25.3970  -12.2820   21.3728 N   0  0  0  0  0  0  0  0  0  0  0  0
  -26.5506  -12.8875   21.0433 N   0  0  0  0  0  0  0  0  0  0  0  0
  -24.8842  -30.6210   22.4350 N   0  0  0  0  0  0  0  0  0  0  0  0
  -27.5081  -21.7609   19.9603 N   0  0  0  0  0  0  0  0  0  0  0  0
  -26.5456  -16.7055   20.8470 N   0  0  0  0  0  0  0  0  0  0  0  0
  -27.4719  -18.8706   20.3892 N   0  0  0  0  0  0  0  0  0  0  0  0
  -28.6072  -12.5490   19.9179 N   0  0  0  0  0  0  0  0  0  0  0  0
  -26.4938   -8.5864   19.4407 N   0  0  0  0  0  0  0  0  0  0  0  0
  -24.8571  -33.2650   20.0394 N   0  0  0  0  0  0  0  0  0  0  0  0
  -24.3201  -30.0267   25.7193 N   0  0  0  0  0  0  0  0  0  0  0  0
  -29.7290  -23.9371   19.3285 N   0  3  0  0  0  0  0  0  0  0  0  0
  -22.7533  -26.8610   26.4881 N   0  3  0  0  0  0  0  0  0  0  0  0
  -28.4180   -9.7396   18.9648 O   0  0  0  0  0  0  0  0  0  0  0  0
  -26.5672  -31.9041   20.8433 O   0  0  0  0  0  0  0  0  0  0  0  0
  -23.7012  -32.0785   23.8178 O   0  0  0  0  0  0  0  0  0  0  0  0
  -26.5701  -23.7214   19.1297 O   0  0  0  0  0  0  0  0  0  0  0  0
  -25.1724  -27.8836   25.4788 O   0  0  0  0  0  0  0  0  0  0  0  0
  -28.3925  -16.9562   19.4961 O   0  0  0  0  0  0  0  0  0  0  0  0
  -21.4404   -7.2926   21.3964 O   0  0  0  0  0  0  0  0  0  0  0  0
  -27.7506  -26.0358   19.4487 O   0  0  0  0  0  0  0  0  0  1  0  0
  -22.8599   -2.1541   22.8053 F   0  0  0  0  0  0  0  0  0  0  0  0
  -20.4765   -6.1407   23.7173 F   0  0  0  0  0  0  0  0  0  0  0  0
  1  2  1  0  0  0  0
  1  5  2  0  0  0  0
  2  6  2  0  0  0  0
  3  8  2  0  0  0  0
  3 15  1  0  0  0  0
  4  9  1  0  0  0  0
  4 15  2  0  0  0  0
  5 17  1  0  0  0  0
  6 19  1  0  0  0  0
  7 10  2  0  0  0  0
  7 18  1  0  0  0  0
  8 21  1  0  0  0  0
  9 21  2  0  0  0  0
 10 22  1  0  0  0  0
 11 12  2  0  0  0  0
 11 23  1  0  0  0  0
 12 24  1  0  0  0  0
 13 20  1  0  0  0  0
 13 22  2  0  0  0  0
 14 24  2  0  0  0  0
 14 25  1  0  0  0  0
 15 26  1  0  0  0  0
 16 26  1  0  0  0  0
 16 27  2  0  0  0  0
 16 28  1  0  0  0  0
 17 19  2  0  0  0  0
 17 34  1  0  0  0  0
 18 20  2  0  0  0  0
 18 35  1  0  0  0  0
 19 46  1  0  0  0  0
 20 36  1  0  0  0  0
 21 79  1  0  0  0  0
 22 80  1  0  0  0  0
 23 25  2  0  0  0  0
 23 79  1  0  0  0  0
 24 81  1  0  0  0  0
 25 82  1  0  0  0  0
 26 61  2  0  0  0  0
 27 62  1  0  0  0  0
 27 67  1  0  0  0  0
 28 68  1  0  0  0  0
 28 73  2  0  0  0  0
 29 47  1  0  0  0  0
 29 69  1  0  0  0  0
 29 74  2  0  0  0  0
 30 57  1  0  0  0  0
 30 63  1  0  0  0  0
 30 75  2  0  0  0  0
 31 58  1  0  0  0  0
 31 64  1  0  0  0  0
 31 76  2  0  0  0  0
 32 59  1  0  0  0  0
 32 70  1  0  0  0  0
 32 77  2  0  0  0  0
 33 65  1  0  0  0  0
 33 66  1  0  0  0  0
 33 78  2  0  0  0  0
 34 37  1  0  0  0  0
 35 47  1  0  0  0  0
 36 63  1  0  0  0  0
 37 39  1  0  0  0  0
 38 40  1  0  0  0  0
 38 41  1  0  0  0  0
 39 46  1  0  0  0  0
 40 48  1  0  0  0  0
 41 65  1  0  0  0  0
 42 43  1  0  0  0  0
 42 64  1  0  0  0  0
 43 66  1  0  0  0  0
 44 48  1  0  0  0  0
 44 65  1  0  0  0  0
 45 49  1  0  0  0  0
 45 66  1  0  0  0  0
 46 69  1  0  0  0  0
 47 63  1  0  0  0  0
 48 62  1  0  0  0  0
 49 50  1  0  0  0  0
 49 64  1  0  0  0  0
 51 59  1  0  0  0  0
 52 60  1  0  0  0  0
 53 60  1  0  0  0  0
 54 60  1  0  0  0  0
 55 72  1  0  0  0  0
 56 58  1  0  0  0  0
 56 80  1  0  0  0  0
 57 60  1  0  0  0  0
 57 70  1  0  0  0  0
 58 71  1  0  0  0  0
 59 72  1  0  0  0  0
 61 62  1  0  0  0  0
M  CHG  2  71   1  72   1
M  ISO  4  33 100  56 101  66 100  80 101
M  END
> <Batch ID>
0173

> <Smiles>
CNC(C)C(=O)NC(C(=O)N1Cc2cc([101O:1][101CH2:1]C(N)C(=O)N3CC[100N:0]([100C:0](=O)N4CCCC(n5nc(-c6ccc(Oc7ccc(F)cc7F)cc6)c(C(N)=O)c5N)C4)CC3C)ccc2CC1C(=O)NC1CCCc2ccccc21)C(C)(C)C

> <Shape>
0.275

> <Color>
0.114

> <Negative vol penalty>
0.000

$$$$

  -OEChem-04052322423D

 89 98  0     1  0  0  0  0  0999 V2000
  -19.9437  -22.9062   15.6767 C   0  0  0  0  0  0  0  0  0  0  0  0
  -20.7224  -21.7535   15.6552 C   0  0  0  0  0  0  0  0  0  0  0  0
  -26.5752  -28.6260   19.1403 C   0  0  0  0  0  0  0  0  0  0  0  0
  -26.0359  -27.2143   21.0254 C   0  0  0  0  0  0  0  0  0  0  0  0
  -19.8591  -23.6673   16.8418 C   0  0  0  0  0  0  0  0  0  0  0  0
  -21.4178  -21.3618   16.7986 C   0  0  0  0  0  0  0  0  0  0  0  0
  -22.5126  -15.6307   18.6591 C   0  0  0  0  0  0  0  0  0  0  0  0
  -25.5440  -29.4953   19.4963 C   0  0  0  0  0  0  0  0  0  0  0  0
  -25.0047  -28.0836   21.3814 C   0  0  0  0  0  0  0  0  0  0  0  0
  -23.6261  -14.8010   18.5355 C   0  0  0  0  0  0  0  0  0  0  0  0
  -21.8387  -28.7323   20.3883 C   0  0  0  0  0  0  0  0  0  0  0  0
  -20.6092  -28.1720   20.7347 C   0  0  0  0  0  0  0  0  0  0  0  0
  -24.3556  -15.4618   20.7378 C   0  0  0  0  0  0  0  0  0  0  0  0
  -31.3910  -16.8773   18.6122 C   0  0  0  0  0  0  0  0  0  0  0  0
  -20.7674  -29.1791   22.9251 C   0  0  0  0  0  0  0  0  0  0  0  0
  -26.8211  -27.4855   19.9049 C   0  0  0  0  0  0  0  0  0  0  0  0
  -29.2271  -26.6398   19.9610 C   0  0  0  0  0  0  0  0  0  0  0  0
  -20.5461  -23.2795   18.0029 C   0  0  0  0  0  0  0  0  0  0  0  0
  -22.3176  -16.3918   19.8207 C   0  0  0  0  0  0  0  0  0  0  0  0
  -21.3434  -22.1192   17.9800 C   0  0  0  0  0  0  0  0  0  0  0  0
  -23.2374  -16.2984   20.8748 C   0  0  0  0  0  0  0  0  0  0  0  0
  -29.9410  -15.4506   19.9156 C   0  0  0  0  0  0  0  0  0  0  0  0
  -30.8335  -15.6225   18.8575 C   0  0  0  0  0  0  0  0  0  0  0  0
  -31.0560  -17.9603   19.4251 C   0  0  0  0  0  0  0  0  0  0  0  0
  -29.6060  -16.5335   20.7285 C   0  0  0  0  0  0  0  0  0  0  0  0
  -30.1636  -17.7884   20.4832 C   0  0  0  0  0  0  0  0  0  0  0  0
  -24.7588  -29.2241   20.6168 C   0  0  0  0  0  0  0  0  0  0  0  0
  -24.5494  -14.7186   19.5737 C   0  0  0  0  0  0  0  0  0  0  0  0
  -22.5326  -29.5160   21.3103 C   0  0  0  0  0  0  0  0  0  0  0  0
  -20.0736  -28.3954   22.0031 C   0  0  0  0  0  0  0  0  0  0  0  0
  -21.9969  -29.7394   22.5787 C   0  0  0  0  0  0  0  0  0  0  0  0
  -27.8857  -26.5868   19.5373 C   0  0  0  0  0  0  0  0  0  0  0  0
  -29.8270  -25.5741   19.3357 C   0  0  0  0  0  0  0  0  0  0  0  0
  -29.8732  -27.5691   20.8412 C   0  0  0  0  0  0  0  0  0  0  0  0
  -22.1382  -19.4999   20.4620 C   0  0  0  0  0  0  0  0  0  0  0  0
  -21.3736  -18.4457   23.4329 C   0  0  0  0  0  0  0  0  0  0  0  0
  -21.5360  -15.9464   25.7512 C   0  0  0  0  0  0  0  0  0  0  0  0
  -29.8204  -20.2185   17.7666 C   0  0  0  0  0  0  0  0  0  0  0  0
  -20.4619  -24.1600   19.2245 C   0  0  0  0  0  0  0  0  0  0  0  0
  -21.0973  -17.2617   19.9494 C   0  0  0  0  0  0  0  0  0  0  0  0
  -23.0633  -17.0795   22.1508 C   0  0  0  0  0  0  0  0  0  0  0  0
  -20.9305  -23.4725   20.5044 C   0  0  0  0  0  0  0  0  0  0  0  0
  -28.1412  -22.5417   15.6548 C   0  0  0  0  0  0  0  0  0  0  0  0
  -22.2502  -22.7452   20.2672 C   0  0  0  0  0  0  0  0  0  0  0  0
  -28.0303  -23.8027   16.5136 C   0  0  0  0  0  0  0  0  0  0  0  0
  -29.3520  -11.7439   19.8287 C   0  0  0  0  0  0  0  0  0  0  0  0
  -28.0081  -12.2430   19.2938 C   0  0  0  0  0  0  0  0  0  0  0  0
  -27.9782  -21.2739   16.4902 C   0  0  0  0  0  0  0  0  0  0  0  0
  -28.7687  -22.4397   18.5125 C   0  0  0  0  0  0  0  0  0  0  0  0
  -29.3466  -14.1079   20.1758 C   0  0  2  0  0  0  0  0  0  0  0  0
  -22.0927  -21.6481   19.2074 C   0  0  1  0  0  0  0  0  0  0  0  0
  -21.2684  -18.3842   20.9683 C   0  0  1  0  0  0  0  0  0  0  0  0
  -28.9822  -23.7428   17.7234 C   0  0  2  0  0  0  0  0  0  0  0  0
  -30.2630  -12.9562   19.7418 C   0  0  1  0  0  0  0  0  0  0  0  0
  -28.0287  -13.7974   19.3922 C   0  0  1  0  0  0  0  0  0  0  0  0
  -31.2084  -14.4795   17.9719 C   0  0  0  0  0  0  0  0  0  0  0  0
  -28.6491  -16.3490   21.8639 C   0  0  0  0  0  0  0  0  0  0  0  0
  -29.8055  -18.9518   21.3528 C   0  0  0  0  0  0  0  0  0  0  0  0
  -28.0070  -14.3921   17.9698 C   0  0  0  0  0  0  0  0  0  0  0  0
  -20.8513  -15.3915   28.1008 C   0  0  0  0  0  0  0  0  0  0  0  0
  -23.6174  -20.2154   24.5023 C   0  0  0  0  0  0  0  0  0  0  0  0
  -23.5161  -18.9281   26.6472 C   0  0  0  0  0  0  0  0  0  0  0  0
  -21.5308  -20.2294   25.8808 C   0  0  0  0  0  0  0  0  0  0  0  0
  -19.8777  -13.6657   24.8527 C   0  0  0  0  0  0  0  0  0  0  0  0
  -31.6677  -19.2932   19.1415 C   0  0  0  0  0  0  0  0  0  0  0  0
  -26.8202  -14.3071   20.1479 C   0  0  0  0  0  0  0  0  0  1  0  0
  -22.1541  -18.0954   24.6768 C   0  0  1  0  0  0  0  0  0  0  0  0
  -20.4704  -15.3172   26.6304 C   0  0  2  0  0  0  0  0  0  0  0  0
  -22.7092  -19.3537   25.4021 C   0  0  0  0  0  0  0  0  0  0  0  0
  -27.6471  -25.5683   18.7069 N   0  0  0  0  0  0  0  0  0  0  0  0
  -28.8467  -24.9714   18.6037 N   0  0  0  0  0  0  0  0  0  0  0  0
  -21.8574  -17.9207   22.2262 N   0  0  0  0  0  0  0  0  0  0  0  0
  -28.9105  -21.2785   17.6202 N   0  0  0  0  0  0  0  0  0  0  0  0
  -31.0922  -25.1033   19.3460 N   0  0  0  0  0  0  0  0  0  0  0  0
  -29.1094  -28.6044   21.3971 N   0  0  0  0  0  0  0  0  0  0  0  0
  -21.4501  -20.4833   19.7773 N   0  0  0  0  0  0  0  0  0  0  0  0
  -21.2690  -17.2750   25.4965 N   0  0  0  0  0  0  0  0  0  0  0  0
  -30.6726  -20.3040   18.8607 N   0  0  0  0  0  0  0  0  0  0  0  0
  -31.4142  -12.8028   20.6560 N   0  3  0  0  0  0  0  0  0  0  0  0
  -20.2780  -13.8849   26.2665 N   0  3  0  0  0  0  0  0  0  0  0  0
  -31.0954  -27.4936   21.1134 O   0  0  0  0  0  0  0  0  0  0  0  0
  -23.3441  -19.4715   20.6780 O   0  0  0  0  0  0  0  0  0  0  0  0
  -20.3676  -19.1529   23.5294 O   0  0  0  0  0  0  0  0  0  0  0  0
  -22.5100  -15.3228   25.3353 O   0  0  0  0  0  0  0  0  0  0  0  0
  -29.8733  -19.2691   16.9774 O   0  0  0  0  0  0  0  0  0  0  0  0
  -23.7527  -30.0723   20.9646 O   0  0  0  0  0  0  0  0  0  0  0  0
  -25.6375  -13.9100   19.4553 O   0  0  0  0  0  0  0  0  0  1  0  0
  -18.8922  -27.8585   22.3351 F   0  0  0  0  0  0  0  0  0  0  0  0
  -22.6583  -30.4923   23.4683 F   0  0  0  0  0  0  0  0  0  0  0  0
  1  2  1  0  0  0  0
  1  5  2  0  0  0  0
  2  6  2  0  0  0  0
  3  8  2  0  0  0  0
  3 16  1  0  0  0  0
  4  9  1  0  0  0  0
  4 16  2  0  0  0  0
  5 18  1  0  0  0  0
  6 20  1  0  0  0  0
  7 10  2  0  0  0  0
  7 19  1  0  0  0  0
  8 27  1  0  0  0  0
  9 27  2  0  0  0  0
 10 28  1  0  0  0  0
 11 12  2  0  0  0  0
 11 29  1  0  0  0  0
 12 30  1  0  0  0  0
 13 21  1  0  0  0  0
 13 28  2  0  0  0  0
 14 23  2  0  0  0  0
 14 24  1  0  0  0  0
 15 30  2  0  0  0  0
 15 31  1  0  0  0  0
 16 32  1  0  0  0  0
 17 32  1  0  0  0  0
 17 33  2  0  0  0  0
 17 34  1  0  0  0  0
 18 20  2  0  0  0  0
 18 39  1  0  0  0  0
 19 21  2  0  0  0  0
 19 40  1  0  0  0  0
 20 51  1  0  0  0  0
 21 41  1  0  0  0  0
 22 23  1  0  0  0  0
 22 25  2  0  0  0  0
 22 50  1  0  0  0  0
 23 56  1  0  0  0  0
 24 26  2  0  0  0  0
 24 65  1  0  0  0  0
 25 26  1  0  0  0  0
 25 57  1  0  0  0  0
 26 58  1  0  0  0  0
 27 86  1  0  0  0  0
 28 87  1  0  0  0  0
 29 31  2  0  0  0  0
 29 86  1  0  0  0  0
 30 88  1  0  0  0  0
 31 89  1  0  0  0  0
 32 70  2  0  0  0  0
 33 71  1  0  0  0  0
 33 74  1  0  0  0  0
 34 75  1  0  0  0  0
 34 81  2  0  0  0  0
 35 52  1  0  0  0  0
 35 76  1  0  0  0  0
 35 82  2  0  0  0  0
 36 67  1  0  0  0  0
 36 72  1  0  0  0  0
 36 83  2  0  0  0  0
 37 68  1  0  0  0  0
 37 77  1  0  0  0  0
 37 84  2  0  0  0  0
 38 73  1  0  0  0  0
 38 78  1  0  0  0  0
 38 85  2  0  0  0  0
 39 42  1  0  0  0  0
 40 52  1  0  0  0  0
 41 72  1  0  0  0  0
 42 44  1  0  0  0  0
 43 45  1  0  0  0  0
 43 48  1  0  0  0  0
 44 51  1  0  0  0  0
 45 53  1  0  0  0  0
 46 47  1  0  0  0  0
 46 54  1  0  0  0  0
 47 55  1  0  0  0  0
 48 73  1  0  0  0  0
 49 53  1  0  0  0  0
 49 73  1  0  0  0  0
 50 54  1  0  0  0  0
 50 55  1  0  0  0  0
 51 76  1  0  0  0  0
 52 72  1  0  0  0  0
 53 71  1  0  0  0  0
 54 79  1  0  0  0  0
 55 59  1  0  0  0  0
 55 66  1  0  0  0  0
 60 68  1  0  0  0  0
 61 69  1  0  0  0  0
 62 69  1  0  0  0  0
 63 69  1  0  0  0  0
 64 80  1  0  0  0  0
 65 78  1  0  0  0  0
 66 87  1  0  0  0  0
 67 69  1  0  0  0  0
 67 77  1  0  0  0  0
 68 80  1  0  0  0  0
 70 71  1  0  0  0  0
M  CHG  2  79   1  80   1
M  ISO  4  38 100  66 101  78 100  87 101
M  END
> <Batch ID>
0173

> <Smiles>
CNC(C)C(=O)NC(C(=O)N1Cc2cc([101O:1][101CH2:1]C3(C)CCC(N)C3c3c(C)cc(C[100NH:0][100C:0](=O)N4CCCC(n5nc(-c6ccc(Oc7ccc(F)cc7F)cc6)c(C(N)=O)c5N)C4)c(C)c3C)ccc2CC1C(=O)NC1CCCc2ccccc21)C(C)(C)C

> <Shape>
0.209

> <Color>
0.052

> <Negative vol penalty>
0.000

$$$$

  -OEChem-04052322423D

 83 92  0     1  0  0  0  0  0999 V2000
  -16.4113   -9.2906   17.7089 C   0  0  0  0  0  0  0  0  0  0  0  0
  -17.4556  -10.0739   18.1898 C   0  0  0  0  0  0  0  0  0  0  0  0
  -23.2853   -9.7952   19.9086 C   0  0  0  0  0  0  0  0  0  0  0  0
  -23.7129   -9.9384   22.2821 C   0  0  0  0  0  0  0  0  0  0  0  0
  -16.3171   -9.0175   16.3449 C   0  0  0  0  0  0  0  0  0  0  0  0
  -18.4070  -10.5837   17.3069 C   0  0  0  0  0  0  0  0  0  0  0  0
  -22.6367  -16.2837   16.3390 C   0  0  0  0  0  0  0  0  0  0  0  0
  -22.5511   -8.6266   20.1114 C   0  0  0  0  0  0  0  0  0  0  0  0
  -22.9788   -8.7699   22.4850 C   0  0  0  0  0  0  0  0  0  0  0  0
  -23.9722  -16.6060   16.1021 C   0  0  0  0  0  0  0  0  0  0  0  0
  -20.2614   -5.8039   20.0467 C   0  0  0  0  0  0  0  0  0  0  0  0
  -19.0400   -5.6822   19.3842 C   0  0  0  0  0  0  0  0  0  0  0  0
  -23.6638  -16.1347   13.7565 C   0  0  0  0  0  0  0  0  0  0  0  0
  -28.7500  -16.4337   13.8781 C   0  0  0  0  0  0  0  0  0  0  0  0
  -18.2317   -7.6606   20.5108 C   0  0  0  0  0  0  0  0  0  0  0  0
  -23.8663  -10.4511   20.9940 C   0  0  0  0  0  0  0  0  0  0  0  0
  -24.1400  -12.9793   20.7930 C   0  0  0  0  0  0  0  0  0  0  0  0
  -17.2623   -9.5323   15.4437 C   0  0  0  0  0  0  0  0  0  0  0  0
  -21.8061  -15.8733   15.2863 C   0  0  0  0  0  0  0  0  0  0  0  0
  -18.3261  -10.3162   15.9298 C   0  0  0  0  0  0  0  0  0  0  0  0
  -22.3173  -15.8102   13.9822 C   0  0  0  0  0  0  0  0  0  0  0  0
  -27.7080  -17.0965   13.1838 C   0  0  0  0  0  0  0  0  0  0  0  0
  -22.3978   -8.1140   21.3996 C   0  0  0  0  0  0  0  0  0  0  0  0
  -24.4868  -16.5288   14.8112 C   0  0  0  0  0  0  0  0  0  0  0  0
  -20.4679   -6.8540   20.9414 C   0  0  0  0  0  0  0  0  0  0  0  0
  -18.0252   -6.6105   19.6162 C   0  0  0  0  0  0  0  0  0  0  0  0
  -19.4530   -7.7823   21.1734 C   0  0  0  0  0  0  0  0  0  0  0  0
  -24.6252  -11.6579   20.7851 C   0  0  0  0  0  0  0  0  0  0  0  0
  -28.2807  -18.1211   12.4631 C   0  0  0  0  0  0  0  0  0  0  0  0
  -29.9277  -17.0737   13.5608 C   0  0  0  0  0  0  0  0  0  0  0  0
  -25.2478  -13.7533   20.5475 C   0  0  0  0  0  0  0  0  0  0  0  0
  -22.8071  -13.4639   21.0034 C   0  0  0  0  0  0  0  0  0  0  0  0
  -20.1856  -13.2237   14.6099 C   0  0  0  0  0  0  0  0  0  0  0  0
  -19.0605  -15.0069   12.1449 C   0  0  0  0  0  0  0  0  0  0  0  0
  -19.5221  -17.6458   10.0307 C   0  0  0  0  0  0  0  0  0  0  0  0
  -29.7381  -14.7130   17.5031 C   0  0  0  0  0  0  0  0  0  0  0  0
  -17.1457   -9.1709   13.9841 C   0  0  0  0  0  0  0  0  0  0  0  0
  -20.3606  -15.5547   15.5541 C   0  0  0  0  0  0  0  0  0  0  0  0
  -21.4619  -15.3947   12.8143 C   0  0  0  0  0  0  0  0  0  0  0  0
  -17.9830  -10.0595   13.0678 C   0  0  0  0  0  0  0  0  0  0  0  0
  -30.1504  -12.5834   20.4877 C   0  0  0  0  0  0  0  0  0  0  0  0
  -19.3922  -10.2258   13.6274 C   0  0  0  0  0  0  0  0  0  0  0  0
  -28.6997  -12.2220   20.7928 C   0  0  0  0  0  0  0  0  0  0  0  0
  -32.8776  -15.8595   15.6616 C   0  0  0  0  0  0  0  0  0  0  0  0
  -30.4020  -12.7277   18.9873 C   0  0  0  0  0  0  0  0  0  0  0  0
  -28.0238  -13.3248   18.6244 C   0  0  0  0  0  0  0  0  0  0  0  0
  -19.3636  -10.9079   15.0005 C   0  0  1  0  0  0  0  0  0  0  0  0
  -19.7404  -14.6538   14.4906 C   0  0  1  0  0  0  0  0  0  0  0  0
  -27.7405  -13.2232   20.1310 C   0  0  1  0  0  0  0  0  0  0  0  0
  -31.6044  -15.7694   14.8696 C   0  0  1  0  0  0  0  0  0  0  0  0
  -31.5518  -15.9563   16.3644 C   0  0  1  0  0  0  0  0  0  0  0  0
  -27.6579  -19.1205   11.5691 C   0  0  0  0  0  0  0  0  0  0  0  0
  -18.4492  -18.8316    8.0967 C   0  0  0  0  0  0  0  0  0  0  0  0
  -19.9443  -12.7596   10.2798 C   0  0  0  0  0  0  0  0  0  0  0  0
  -19.7353  -14.3600    8.3659 C   0  0  0  0  0  0  0  0  0  0  0  0
  -17.7255  -13.7682    9.7196 C   0  0  0  0  0  0  0  0  0  0  0  0
  -30.5893  -19.0190   12.1247 C   0  0  0  0  0  0  0  0  0  0  0  0
  -19.2997  -20.1736   11.5539 C   0  0  0  0  0  0  0  0  0  0  0  0
  -26.2510  -16.7410   13.2306 C   0  0  0  0  0  0  0  0  0  1  0  0
  -19.4995  -15.2638   10.7235 C   0  0  1  0  0  0  0  0  0  0  0  0
  -18.5964  -18.7727    9.6092 C   0  0  2  0  0  0  0  0  0  0  0  0
  -19.2430  -14.0439    9.7943 C   0  0  0  0  0  0  0  0  0  0  0  0
  -25.9389  -11.5923   20.5529 N   0  0  0  0  0  0  0  0  0  0  0  0
  -29.6303  -18.0980   12.7002 N   0  0  0  0  0  0  0  0  0  0  0  0
  -26.2886  -12.8823   20.4124 N   0  0  0  0  0  0  0  0  0  0  0  0
  -20.0567  -15.0872   13.1281 N   0  0  0  0  0  0  0  0  0  0  0  0
  -29.4331  -13.6412   18.3615 N   0  0  0  0  0  0  0  0  0  0  0  0
  -25.4233  -15.0872   20.4361 N   0  0  0  0  0  0  0  0  0  0  0  0
  -21.7875  -12.5325   21.2426 N   0  0  0  0  0  0  0  0  0  0  0  0
  -31.1981  -16.8366   13.9546 N   0  0  0  0  0  0  0  0  0  0  0  0
  -19.1576  -12.3328   14.8528 N   0  0  0  0  0  0  0  0  0  0  0  0
  -18.8255  -16.4874   10.3030 N   0  0  0  0  0  0  0  0  0  0  0  0
  -31.0877  -14.9050   17.2297 N   0  0  0  0  0  0  0  0  0  0  0  0
  -19.1270  -20.0829   10.0812 N   0  3  0  0  0  0  0  0  0  0  0  0
  -22.5256  -14.6857   20.9638 O   0  0  0  0  0  0  0  0  0  0  0  0
  -21.3737  -12.9486   14.4891 O   0  0  0  0  0  0  0  0  0  0  0  0
  -17.8758  -14.7516   12.3751 O   0  0  0  0  0  0  0  0  0  0  0  0
  -20.7415  -17.7788   10.1069 O   0  0  0  0  0  0  0  0  0  0  0  0
  -28.8718  -15.4439   17.0103 O   0  0  0  0  0  0  0  0  0  0  0  0
  -21.6813   -6.9739   21.5978 O   0  0  0  0  0  0  0  0  0  0  0  0
  -25.7902  -16.8422   14.5774 O   0  0  0  0  0  0  0  0  0  1  0  0
  -16.8529   -6.4944   18.9787 F   0  0  0  0  0  0  0  0  0  0  0  0
  -19.6460   -8.7939   22.0309 F   0  0  0  0  0  0  0  0  0  0  0  0
  1  2  1  0  0  0  0
  1  5  2  0  0  0  0
  2  6  2  0  0  0  0
  3  8  2  0  0  0  0
  3 16  1  0  0  0  0
  4  9  1  0  0  0  0
  4 16  2  0  0  0  0
  5 18  1  0  0  0  0
  6 20  1  0  0  0  0
  7 10  2  0  0  0  0
  7 19  1  0  0  0  0
  8 23  1  0  0  0  0
  9 23  2  0  0  0  0
 10 24  1  0  0  0  0
 11 12  2  0  0  0  0
 11 25  1  0  0  0  0
 12 26  1  0  0  0  0
 13 21  1  0  0  0  0
 13 24  2  0  0  0  0
 14 22  1  0  0  0  0
 14 30  2  0  0  0  0
 15 26  2  0  0  0  0
 15 27  1  0  0  0  0
 16 28  1  0  0  0  0
 17 28  1  0  0  0  0
 17 31  2  0  0  0  0
 17 32  1  0  0  0  0
 18 20  2  0  0  0  0
 18 37  1  0  0  0  0
 19 21  2  0  0  0  0
 19 38  1  0  0  0  0
 20 47  1  0  0  0  0
 21 39  1  0  0  0  0
 22 29  2  0  0  0  0
 22 59  1  0  0  0  0
 23 80  1  0  0  0  0
 24 81  1  0  0  0  0
 25 27  2  0  0  0  0
 25 80  1  0  0  0  0
 26 82  1  0  0  0  0
 27 83  1  0  0  0  0
 28 63  2  0  0  0  0
 29 52  1  0  0  0  0
 29 64  1  0  0  0  0
 30 64  1  0  0  0  0
 30 70  1  0  0  0  0
 31 65  1  0  0  0  0
 31 68  1  0  0  0  0
 32 69  1  0  0  0  0
 32 75  2  0  0  0  0
 33 48  1  0  0  0  0
 33 71  1  0  0  0  0
 33 76  2  0  0  0  0
 34 60  1  0  0  0  0
 34 66  1  0  0  0  0
 34 77  2  0  0  0  0
 35 61  1  0  0  0  0
 35 72  1  0  0  0  0
 35 78  2  0  0  0  0
 36 67  1  0  0  0  0
 36 73  1  0  0  0  0
 36 79  2  0  0  0  0
 37 40  1  0  0  0  0
 38 48  1  0  0  0  0
 39 66  1  0  0  0  0
 40 42  1  0  0  0  0
 41 43  1  0  0  0  0
 41 45  1  0  0  0  0
 42 47  1  0  0  0  0
 43 49  1  0  0  0  0
 44 50  1  0  0  0  0
 44 51  1  0  0  0  0
 45 67  1  0  0  0  0
 46 49  1  0  0  0  0
 46 67  1  0  0  0  0
 47 71  1  0  0  0  0
 48 66  1  0  0  0  0
 49 65  1  0  0  0  0
 50 51  1  0  0  0  0
 50 70  1  0  0  0  0
 51 73  1  0  0  0  0
 53 61  1  0  0  0  0
 54 62  1  0  0  0  0
 55 62  1  0  0  0  0
 56 62  1  0  0  0  0
 57 64  1  0  0  0  0
 58 74  1  0  0  0  0
 59 81  1  0  0  0  0
 60 62  1  0  0  0  0
 60 72  1  0  0  0  0
 61 74  1  0  0  0  0
 63 65  1  0  0  0  0
M  CHG  1  74   1
M  ISO  4  36 100  59 101  73 100  81 101
M  END
> <Batch ID>
0173

> <Smiles>
CNC(C)C(=O)NC(C(=O)N1Cc2cc([101O:1][101CH2:1]c3cc(NC4CC4[100NH:0][100C:0](=O)N4CCCC(n5nc(-c6ccc(Oc7ccc(F)cc7F)cc6)c(C(N)=O)c5N)C4)n(C)c3C)ccc2CC1C(=O)NC1CCCc2ccccc21)C(C)(C)C

> <Shape>
0.114

> <Color>
0.177

> <Negative vol penalty>
0.000

$$$$

  -OEChem-04052322423D

 87 96  0     1  0  0  0  0  0999 V2000
  -26.7692  -19.5672   26.1665 C   0  0  0  0  0  0  0  0  0  0  0  0
  -27.1138  -20.7778   25.5762 C   0  0  0  0  0  0  0  0  0  0  0  0
  -25.1140  -13.5680   21.4176 C   0  0  0  0  0  0  0  0  0  0  0  0
  -26.8400  -12.9603   19.8401 C   0  0  0  0  0  0  0  0  0  0  0  0
  -25.4522  -19.1166   26.1061 C   0  0  0  0  0  0  0  0  0  0  0  0
  -26.1393  -21.5441   24.9358 C   0  0  0  0  0  0  0  0  0  0  0  0
  -27.4756  -26.0178   23.3856 C   0  0  0  0  0  0  0  0  0  0  0  0
  -24.3301  -12.5048   20.9696 C   0  0  0  0  0  0  0  0  0  0  0  0
  -26.0562  -11.8971   19.3920 C   0  0  0  0  0  0  0  0  0  0  0  0
  -28.3198  -26.2162   22.2939 C   0  0  0  0  0  0  0  0  0  0  0  0
  -24.1853   -9.1561   21.4148 C   0  0  0  0  0  0  0  0  0  0  0  0
  -23.5629   -8.3595   22.3759 C   0  0  0  0  0  0  0  0  0  0  0  0
  -26.4180  -26.8281   20.9420 C   0  0  0  0  0  0  0  0  0  0  0  0
  -30.3833  -24.5809   17.9107 C   0  0  0  0  0  0  0  0  0  0  0  0
  -21.4047   -8.9339   21.4544 C   0  0  0  0  0  0  0  0  0  0  0  0
  -26.3689  -13.7958   20.8528 C   0  0  0  0  0  0  0  0  0  0  0  0
  -28.1246  -14.8735   22.3574 C   0  0  0  0  0  0  0  0  0  0  0  0
  -24.4642  -19.8724   25.4536 C   0  0  0  0  0  0  0  0  0  0  0  0
  -26.0926  -26.2129   23.2605 C   0  0  0  0  0  0  0  0  0  0  0  0
  -24.7998  -21.1179   24.8850 C   0  0  0  0  0  0  0  0  0  0  0  0
  -25.5586  -26.6340   22.0342 C   0  0  0  0  0  0  0  0  0  0  0  0
  -30.2321  -25.9683   17.7656 C   0  0  0  0  0  0  0  0  0  0  0  0
  -29.6434  -26.4678   16.5913 C   0  0  0  0  0  0  0  0  0  0  0  0
  -24.8012  -11.6693   19.9568 C   0  0  0  0  0  0  0  0  0  0  0  0
  -27.7907  -26.6186   21.0711 C   0  0  0  0  0  0  0  0  0  0  0  0
  -23.4173   -9.8417   20.4736 C   0  0  0  0  0  0  0  0  0  0  0  0
  -22.1726   -8.2484   22.3957 C   0  0  0  0  0  0  0  0  0  0  0  0
  -22.0270   -9.7306   20.4934 C   0  0  0  0  0  0  0  0  0  0  0  0
  -27.1788  -14.8943   21.3148 C   0  0  0  0  0  0  0  0  0  0  0  0
  -29.9013  -23.7454   16.9186 C   0  0  0  0  0  0  0  0  0  0  0  0
  -29.1764  -25.5251   15.6709 C   0  0  0  0  0  0  0  0  0  0  0  0
  -28.6163  -16.1553   22.4004 C   0  0  0  0  0  0  0  0  0  0  0  0
  -28.5231  -13.7923   23.2105 C   0  0  0  0  0  0  0  0  0  0  0  0
  -23.5294  -24.3569   23.5590 C   0  0  0  0  0  0  0  0  0  0  0  0
  -21.9380  -27.1540   23.1518 C   0  0  0  0  0  0  0  0  0  0  0  0
  -21.9490  -30.3433   21.9373 C   0  0  0  0  0  0  0  0  0  0  0  0
  -29.0305  -20.3501   18.2668 C   0  0  0  0  0  0  0  0  0  0  0  0
  -23.0527  -19.3411   25.4249 C   0  0  0  0  0  0  0  0  0  0  0  0
  -25.1985  -26.0205   24.4547 C   0  0  0  0  0  0  0  0  0  0  0  0
  -24.0833  -26.8768   21.8532 C   0  0  0  0  0  0  0  0  0  0  0  0
  -22.1919  -19.9983   24.3510 C   0  0  0  0  0  0  0  0  0  0  0  0
  -27.3661  -20.6793   21.4635 C   0  0  0  0  0  0  0  0  0  0  0  0
  -22.3207  -21.5119   24.4358 C   0  0  0  0  0  0  0  0  0  0  0  0
  -27.2221  -19.2154   21.8836 C   0  0  0  0  0  0  0  0  0  0  0  0
  -27.1650  -20.8454   19.9601 C   0  0  0  0  0  0  0  0  0  0  0  0
  -27.9191  -18.5371   19.5396 C   0  0  0  0  0  0  0  0  0  0  0  0
  -30.6254  -28.7064   17.1232 C   0  0  0  0  0  0  0  0  0  0  0  0
  -23.7629  -21.9537   24.1565 C   0  0  1  0  0  0  0  0  0  0  0  0
  -30.7295  -26.8831   18.8727 C   0  0  2  0  0  0  0  0  0  0  0  0
  -23.7455  -25.7510   24.0760 C   0  0  1  0  0  0  0  0  0  0  0  0
  -28.1338  -18.2997   21.0455 C   0  0  2  0  0  0  0  0  0  0  0  0
  -29.5109  -27.9654   16.3562 C   0  0  0  0  0  0  0  0  0  0  0  0
  -28.4097  -25.8904   14.4446 C   0  0  0  0  0  0  0  0  0  0  0  0
  -28.1094  -28.4220   16.8082 C   0  0  0  0  0  0  0  0  0  0  0  0
  -29.6863  -28.3488   14.8680 C   0  0  0  0  0  0  0  0  0  0  0  0
  -20.4905  -32.3740   21.7213 C   0  0  0  0  0  0  0  0  0  0  0  0
  -20.3963  -25.8033   20.8916 C   0  0  0  0  0  0  0  0  0  0  0  0
  -19.6793  -28.0738   20.1176 C   0  0  0  0  0  0  0  0  0  0  0  0
  -19.0076  -27.2587   22.3774 C   0  0  0  0  0  0  0  0  0  0  0  0
  -31.5744  -29.2237   19.3524 C   0  0  0  0  0  0  0  0  0  0  0  0
  -23.8133  -31.9952   23.5356 C   0  0  0  0  0  0  0  0  0  0  0  0
  -30.0489  -22.2682   17.0664 C   0  0  0  0  0  0  0  0  0  0  0  0
  -30.0008  -26.5898   20.1932 C   0  0  0  0  0  0  0  0  0  1  0  0
  -21.4119  -27.9215   21.9630 C   0  0  1  0  0  0  0  0  0  0  0  0
  -21.5358  -31.6619   22.5658 C   0  0  2  0  0  0  0  0  0  0  0  0
  -20.1514  -27.2579   21.3400 C   0  0  0  0  0  0  0  0  0  0  0  0
  -27.0741  -16.0941   20.7374 N   0  0  0  0  0  0  0  0  0  0  0  0
  -29.2887  -24.1836   15.8039 N   0  0  0  0  0  0  0  0  0  0  0  0
  -27.9605  -16.8393   21.4195 N   0  0  0  0  0  0  0  0  0  0  0  0
  -23.2495  -26.6691   23.0487 N   0  0  0  0  0  0  0  0  0  0  0  0
  -28.0754  -19.9600   19.2201 N   0  0  0  0  0  0  0  0  0  0  0  0
  -29.5414  -16.7527   23.1813 N   0  0  0  0  0  0  0  0  0  0  0  0
  -27.9174  -12.5413   23.0308 N   0  0  0  0  0  0  0  0  0  0  0  0
  -23.8897  -23.3642   24.4501 N   0  0  0  0  0  0  0  0  0  0  0  0
  -21.2018  -29.2904   22.4215 N   0  0  0  0  0  0  0  0  0  0  0  0
  -29.1102  -21.7147   18.0169 N   0  0  0  0  0  0  0  0  0  0  0  0
  -30.5754  -28.3820   18.5933 N   0  3  1  0  0  0  0  0  0  0  0  0
  -22.7163  -32.5602   22.7084 N   0  3  0  0  0  0  0  0  0  0  0  0
  -29.3788  -13.9357   24.1165 O   0  0  0  0  0  0  0  0  0  0  0  0
  -23.0684  -24.1939   22.4353 O   0  0  0  0  0  0  0  0  0  0  0  0
  -21.2146  -26.9969   24.1385 O   0  0  0  0  0  0  0  0  0  0  0  0
  -22.8425  -30.2565   21.0979 O   0  0  0  0  0  0  0  0  0  0  0  0
  -29.7624  -19.5423   17.6847 O   0  0  0  0  0  0  0  0  0  0  0  0
  -24.0367  -10.6315   19.5195 O   0  0  0  0  0  0  0  0  0  0  0  0
  -28.6208  -26.8144   19.9930 O   0  0  0  0  0  0  0  0  0  1  0  0
  -21.5752   -7.4821   23.3177 F   0  0  0  0  0  0  0  0  0  0  0  0
  -21.2840  -10.3859   19.5910 F   0  0  0  0  0  0  0  0  0  0  0  0
  1  2  1  0  0  0  0
  1  5  2  0  0  0  0
  2  6  2  0  0  0  0
  3  8  2  0  0  0  0
  3 16  1  0  0  0  0
  4  9  1  0  0  0  0
  4 16  2  0  0  0  0
  5 18  1  0  0  0  0
  6 20  1  0  0  0  0
  7 10  2  0  0  0  0
  7 19  1  0  0  0  0
  8 24  1  0  0  0  0
  9 24  2  0  0  0  0
 10 25  1  0  0  0  0
 11 12  2  0  0  0  0
 11 26  1  0  0  0  0
 12 27  1  0  0  0  0
 13 21  1  0  0  0  0
 13 25  2  0  0  0  0
 14 22  1  0  0  0  0
 14 30  2  0  0  0  0
 15 27  2  0  0  0  0
 15 28  1  0  0  0  0
 16 29  1  0  0  0  0
 17 29  1  0  0  0  0
 17 32  2  0  0  0  0
 17 33  1  0  0  0  0
 18 20  2  0  0  0  0
 18 38  1  0  0  0  0
 19 21  2  0  0  0  0
 19 39  1  0  0  0  0
 20 48  1  0  0  0  0
 21 40  1  0  0  0  0
 22 23  2  0  0  0  0
 22 49  1  0  0  0  0
 23 31  1  0  0  0  0
 23 52  1  0  0  0  0
 24 84  1  0  0  0  0
 25 85  1  0  0  0  0
 26 28  2  0  0  0  0
 26 84  1  0  0  0  0
 27 86  1  0  0  0  0
 28 87  1  0  0  0  0
 29 67  2  0  0  0  0
 30 62  1  0  0  0  0
 30 68  1  0  0  0  0
 31 53  1  0  0  0  0
 31 68  2  0  0  0  0
 32 69  1  0  0  0  0
 32 72  1  0  0  0  0
 33 73  1  0  0  0  0
 33 79  2  0  0  0  0
 34 50  1  0  0  0  0
 34 74  1  0  0  0  0
 34 80  2  0  0  0  0
 35 64  1  0  0  0  0
 35 70  1  0  0  0  0
 35 81  2  0  0  0  0
 36 65  1  0  0  0  0
 36 75  1  0  0  0  0
 36 82  2  0  0  0  0
 37 71  1  0  0  0  0
 37 76  1  0  0  0  0
 37 83  2  0  0  0  0
 38 41  1  0  0  0  0
 39 50  1  0  0  0  0
 40 70  1  0  0  0  0
 41 43  1  0  0  0  0
 42 44  1  0  0  0  0
 42 45  1  0  0  0  0
 43 48  1  0  0  0  0
 44 51  1  0  0  0  0
 45 71  1  0  0  0  0
 46 51  1  0  0  0  0
 46 71  1  0  0  0  0
 47 52  1  0  0  0  0
 47 77  1  0  0  0  0
 48 74  1  0  0  0  0
 49 63  1  0  0  0  0
 49 77  1  0  0  0  0
 50 70  1  0  0  0  0
 51 69  1  0  0  0  0
 52 54  1  0  0  0  0
 52 55  1  0  0  0  0
 56 65  1  0  0  0  0
 57 66  1  0  0  0  0
 58 66  1  0  0  0  0
 59 66  1  0  0  0  0
 60 77  1  0  0  0  0
 61 78  1  0  0  0  0
 62 76  1  0  0  0  0
 63 85  1  0  0  0  0
 64 66  1  0  0  0  0
 64 75  1  0  0  0  0
 65 78  1  0  0  0  0
 67 69  1  0  0  0  0
M  CHG  2  77   1  78   1
M  ISO  4  37 100  63 101  76 100  85 101
M  END
> <Batch ID>
0173

> <Smiles>
CNC(C)C(=O)NC(C(=O)N1Cc2cc([101O:1][101CH2:1]C3c4cc(C[100NH:0][100C:0](=O)N5CCCC(n6nc(-c7ccc(Oc8ccc(F)cc8F)cc7)c(C(N)=O)c6N)C5)nc(C)c4C(C)(C)CN3C)ccc2CC1C(=O)NC1CCCc2ccccc21)C(C)(C)C

> <Shape>
0.230

> <Color>
0.064

> <Negative vol penalty>
0.000

$$$$

  -OEChem-04052322423D

 84 93  0     1  0  0  0  0  0999 V2000
  -27.5557  -11.5304   23.4858 C   0  0  0  0  0  0  0  0  0  0  0  0
  -28.0883  -12.7812   23.1903 C   0  0  0  0  0  0  0  0  0  0  0  0
  -22.3229  -27.6712   22.5750 C   0  0  0  0  0  0  0  0  0  0  0  0
  -23.0943  -29.3748   21.0454 C   0  0  0  0  0  0  0  0  0  0  0  0
  -26.5448  -10.9981   22.6866 C   0  0  0  0  0  0  0  0  0  0  0  0
  -27.6111  -13.4999   22.0948 C   0  0  0  0  0  0  0  0  0  0  0  0
  -27.0187  -19.5795   21.6552 C   0  0  0  0  0  0  0  0  0  0  0  0
  -21.3779  -28.5596   23.0880 C   0  0  0  0  0  0  0  0  0  0  0  0
  -22.1493  -30.2633   21.5584 C   0  0  0  0  0  0  0  0  0  0  0  0
  -27.8214  -20.5606   21.0747 C   0  0  0  0  0  0  0  0  0  0  0  0
  -18.3477  -29.7638   22.1933 C   0  0  0  0  0  0  0  0  0  0  0  0
  -17.0505  -29.2894   22.3877 C   0  0  0  0  0  0  0  0  0  0  0  0
  -26.4776  -20.4674   19.0735 C   0  0  0  0  0  0  0  0  0  0  0  0
  -29.4236  -26.3144   17.6188 C   0  0  0  0  0  0  0  0  0  0  0  0
  -17.2206  -29.7906   24.7451 C   0  0  0  0  0  0  0  0  0  0  0  0
  -23.1812  -28.0787   21.5537 C   0  0  0  0  0  0  0  0  0  0  0  0
  -23.9910  -26.2705   19.9468 C   0  0  0  0  0  0  0  0  0  0  0  0
  -26.0483  -11.7148   21.5864 C   0  0  0  0  0  0  0  0  0  0  0  0
  -25.9443  -19.0263   20.9439 C   0  0  0  0  0  0  0  0  0  0  0  0
  -26.5936  -12.9760   21.2793 C   0  0  0  0  0  0  0  0  0  0  0  0
  -25.6613  -19.4813   19.6482 C   0  0  0  0  0  0  0  0  0  0  0  0
  -29.2916  -25.0036   17.1743 C   0  0  0  0  0  0  0  0  0  0  0  0
  -29.9373  -23.9766   17.8537 C   0  0  0  0  0  0  0  0  0  0  0  0
  -21.2911  -29.8557   22.5797 C   0  0  0  0  0  0  0  0  0  0  0  0
  -27.5527  -21.0027   19.7827 C   0  0  0  0  0  0  0  0  0  0  0  0
  -19.0814  -30.2515   23.2747 C   0  0  0  0  0  0  0  0  0  0  0  0
  -16.4869  -29.3029   23.6636 C   0  0  0  0  0  0  0  0  0  0  0  0
  -18.5179  -30.2650   24.5506 C   0  0  0  0  0  0  0  0  0  0  0  0
  -24.1580  -27.1616   21.0238 C   0  0  0  0  0  0  0  0  0  0  0  0
  -30.2064  -26.5437   18.7388 C   0  0  0  0  0  0  0  0  0  0  0  0
  -30.6973  -24.3105   18.9631 C   0  0  0  0  0  0  0  0  0  0  0  0
  -25.2008  -25.6290   19.8412 C   0  0  0  0  0  0  0  0  0  0  0  0
  -22.8447  -26.0431   19.1161 C   0  0  0  0  0  0  0  0  0  0  0  0
  -25.1990  -16.1132   19.9133 C   0  0  0  0  0  0  0  0  0  0  0  0
  -22.4123  -17.5464   19.0750 C   0  0  0  0  0  0  0  0  0  0  0  0
  -20.7627  -20.4216   18.2635 C   0  0  0  0  0  0  0  0  0  0  0  0
  -30.6950  -27.4881   21.9293 C   0  0  0  0  0  0  0  0  0  0  0  0
  -24.9878  -11.0777   20.7238 C   0  0  0  0  0  0  0  0  0  0  0  0
  -25.0717  -17.9879   21.5941 C   0  0  0  0  0  0  0  0  0  0  0  0
  -24.5073  -18.9340   18.8498 C   0  0  0  0  0  0  0  0  0  0  0  0
  -24.2772  -12.0660   19.8026 C   0  0  0  0  0  0  0  0  0  0  0  0
  -28.9562  -24.2528   22.4183 C   0  0  0  0  0  0  0  0  0  0  0  0
  -25.2903  -12.9646   19.1006 C   0  0  0  0  0  0  0  0  0  0  0  0
  -27.5029  -24.5990   22.1093 C   0  0  0  0  0  0  0  0  0  0  0  0
  -31.7437  -28.7042   18.9310 C   0  0  0  0  0  0  0  0  0  0  0  0
  -29.7263  -25.4651   22.9297 C   0  0  0  0  0  0  0  0  0  0  0  0
  -31.9955  -29.0436   20.3955 C   0  0  0  0  0  0  0  0  0  0  0  0
  -28.2256  -26.9847   21.6842 C   0  0  0  0  0  0  0  0  0  0  0  0
  -26.0850  -13.7968   20.1141 C   0  0  1  0  0  0  0  0  0  0  0  0
  -30.4388  -27.9894   19.3484 C   0  0  2  0  0  0  0  0  0  0  0  0
  -24.3168  -17.1260   20.5868 C   0  0  1  0  0  0  0  0  0  0  0  0
  -27.4267  -25.7887   21.1406 C   0  0  2  0  0  0  0  0  0  0  0  0
  -28.4541  -24.7255   15.9699 C   0  0  0  0  0  0  0  0  0  0  0  0
  -31.4146  -23.2501   19.7329 C   0  0  0  0  0  0  0  0  0  0  0  0
  -18.4993  -21.2713   17.5909 C   0  0  0  0  0  0  0  0  0  0  0  0
  -22.8388  -16.4475   16.2607 C   0  0  0  0  0  0  0  0  0  0  0  0
  -21.1196  -18.0724   15.4409 C   0  0  0  0  0  0  0  0  0  0  0  0
  -20.4827  -16.3106   17.0880 C   0  0  0  0  0  0  0  0  0  0  0  0
  -20.5731  -22.1526   20.6566 C   0  0  0  0  0  0  0  0  0  0  0  0
  -29.8120  -22.5442   17.3945 C   0  0  0  0  0  0  0  0  0  0  0  0
  -28.4787  -21.9217   17.7943 C   0  0  0  0  0  0  0  0  0  1  0  0
  -21.9045  -18.2593   17.8450 C   0  0  1  0  0  0  0  0  0  0  0  0
  -19.4455  -20.9987   18.7498 C   0  0  2  0  0  0  0  0  0  0  0  0
  -21.6094  -17.2816   16.6727 C   0  0  0  0  0  0  0  0  0  0  0  0
  -25.3777  -27.0949   21.5639 N   0  0  0  0  0  0  0  0  0  0  0  0
  -30.8490  -25.5720   19.4249 N   0  0  0  0  0  0  0  0  0  0  0  0
  -25.9882  -26.1541   20.8233 N   0  0  0  0  0  0  0  0  0  0  0  0
  -23.6871  -17.9159   19.5268 N   0  0  0  0  0  0  0  0  0  0  0  0
  -29.6047  -26.6152   22.0299 N   0  0  0  0  0  0  0  0  0  0  0  0
  -30.9142  -28.1250   20.7296 N   0  0  0  0  0  0  0  0  0  0  0  0
  -25.6574  -24.6725   19.0050 N   0  0  0  0  0  0  0  0  0  0  0  0
  -21.6833  -26.7882   19.3615 N   0  0  0  0  0  0  0  0  0  0  0  0
  -25.2909  -14.9103   20.5872 N   0  0  0  0  0  0  0  0  0  0  0  0
  -20.7512  -19.0428   18.2743 N   0  0  0  0  0  0  0  0  0  0  0  0
  -19.6779  -22.2782   19.4777 N   0  3  0  0  0  0  0  0  0  0  0  0
  -22.8450  -25.1922   18.1944 O   0  0  0  0  0  0  0  0  0  0  0  0
  -25.7539  -16.4011   18.8593 O   0  0  0  0  0  0  0  0  0  0  0  0
  -21.7010  -16.6981   19.6192 O   0  0  0  0  0  0  0  0  0  0  0  0
  -21.7060  -21.1237   17.9061 O   0  0  0  0  0  0  0  0  0  0  0  0
  -31.4693  -27.6729   22.8782 O   0  0  0  0  0  0  0  0  0  0  0  0
  -20.3689  -30.7228   23.0798 O   0  0  0  0  0  0  0  0  0  0  0  0
  -28.3349  -21.9597   19.2135 O   0  0  0  0  0  0  0  0  0  1  0  0
  -15.2406  -28.8488   23.8500 F   0  0  0  0  0  0  0  0  0  0  0  0
  -19.2174  -30.7334   25.5932 F   0  0  0  0  0  0  0  0  0  0  0  0
  1  2  1  0  0  0  0
  1  5  2  0  0  0  0
  2  6  2  0  0  0  0
  3  8  2  0  0  0  0
  3 16  1  0  0  0  0
  4  9  1  0  0  0  0
  4 16  2  0  0  0  0
  5 18  1  0  0  0  0
  6 20  1  0  0  0  0
  7 10  2  0  0  0  0
  7 19  1  0  0  0  0
  8 24  1  0  0  0  0
  9 24  2  0  0  0  0
 10 25  1  0  0  0  0
 11 12  2  0  0  0  0
 11 26  1  0  0  0  0
 12 27  1  0  0  0  0
 13 21  1  0  0  0  0
 13 25  2  0  0  0  0
 14 22  2  0  0  0  0
 14 30  1  0  0  0  0
 15 27  2  0  0  0  0
 15 28  1  0  0  0  0
 16 29  1  0  0  0  0
 17 29  1  0  0  0  0
 17 32  2  0  0  0  0
 17 33  1  0  0  0  0
 18 20  2  0  0  0  0
 18 38  1  0  0  0  0
 19 21  2  0  0  0  0
 19 39  1  0  0  0  0
 20 49  1  0  0  0  0
 21 40  1  0  0  0  0
 22 23  1  0  0  0  0
 22 53  1  0  0  0  0
 23 31  2  0  0  0  0
 23 60  1  0  0  0  0
 24 81  1  0  0  0  0
 25 82  1  0  0  0  0
 26 28  2  0  0  0  0
 26 81  1  0  0  0  0
 27 83  1  0  0  0  0
 28 84  1  0  0  0  0
 29 65  2  0  0  0  0
 30 50  1  0  0  0  0
 30 66  2  0  0  0  0
 31 54  1  0  0  0  0
 31 66  1  0  0  0  0
 32 67  1  0  0  0  0
 32 71  1  0  0  0  0
 33 72  1  0  0  0  0
 33 76  2  0  0  0  0
 34 51  1  0  0  0  0
 34 73  1  0  0  0  0
 34 77  2  0  0  0  0
 35 62  1  0  0  0  0
 35 68  1  0  0  0  0
 35 78  2  0  0  0  0
 36 63  1  0  0  0  0
 36 74  1  0  0  0  0
 36 79  2  0  0  0  0
 37 69  1  0  0  0  0
 37 70  1  0  0  0  0
 37 80  2  0  0  0  0
 38 41  1  0  0  0  0
 39 51  1  0  0  0  0
 40 68  1  0  0  0  0
 41 43  1  0  0  0  0
 42 44  1  0  0  0  0
 42 46  1  0  0  0  0
 43 49  1  0  0  0  0
 44 52  1  0  0  0  0
 45 47  1  0  0  0  0
 45 50  1  0  0  0  0
 46 69  1  0  0  0  0
 47 70  1  0  0  0  0
 48 52  1  0  0  0  0
 48 69  1  0  0  0  0
 49 73  1  0  0  0  0
 50 70  1  0  0  0  0
 51 68  1  0  0  0  0
 52 67  1  0  0  0  0
 55 63  1  0  0  0  0
 56 64  1  0  0  0  0
 57 64  1  0  0  0  0
 58 64  1  0  0  0  0
 59 75  1  0  0  0  0
 60 61  1  0  0  0  0
 61 82  1  0  0  0  0
 62 64  1  0  0  0  0
 62 74  1  0  0  0  0
 63 75  1  0  0  0  0
 65 67  1  0  0  0  0
M  CHG  1  75   1
M  ISO  4  37 100  61 101  70 100  82 101
M  END
> <Batch ID>
0173

> <Smiles>
CNC(C)C(=O)NC(C(=O)N1Cc2cc([101O:1][101CH2:1]Cc3c(C)cc(C4CC[100N:0]4[100C:0](=O)N4CCCC(n5nc(-c6ccc(Oc7ccc(F)cc7F)cc6)c(C(N)=O)c5N)C4)nc3C)ccc2CC1C(=O)NC1CCCc2ccccc21)C(C)(C)C

> <Shape>
0.197

> <Color>
0.074

> <Negative vol penalty>
0.000

$$$$

  -OEChem-04052322423D

 86 95  0     1  0  0  0  0  0999 V2000
  -27.5298  -33.8173   21.0888 C   0  0  0  0  0  0  0  0  0  0  0  0
  -27.1295  -32.6294   20.4855 C   0  0  0  0  0  0  0  0  0  0  0  0
  -26.7834  -12.4411   21.8462 C   0  0  0  0  0  0  0  0  0  0  0  0
  -26.0372  -14.1022   20.2584 C   0  0  0  0  0  0  0  0  0  0  0  0
  -27.2061  -34.0642   22.4223 C   0  0  0  0  0  0  0  0  0  0  0  0
  -26.4062  -31.6871   21.2158 C   0  0  0  0  0  0  0  0  0  0  0  0
  -22.4774  -29.8191   18.6234 C   0  0  0  0  0  0  0  0  0  0  0  0
  -25.4943  -11.9108   21.8973 C   0  0  0  0  0  0  0  0  0  0  0  0
  -24.7480  -13.5719   20.3095 C   0  0  0  0  0  0  0  0  0  0  0  0
  -22.7532  -28.8500   17.6598 C   0  0  0  0  0  0  0  0  0  0  0  0
  -23.5576   -9.8847   20.0061 C   0  0  0  0  0  0  0  0  0  0  0  0
  -23.4243   -8.4976   19.9442 C   0  0  0  0  0  0  0  0  0  0  0  0
  -27.1802  -21.1784   19.1318 C   0  0  0  0  0  0  0  0  0  0  0  0
  -22.0763  -27.1275   19.2071 C   0  0  0  0  0  0  0  0  0  0  0  0
  -22.3484   -8.5044   22.1074 C   0  0  0  0  0  0  0  0  0  0  0  0
  -27.0548  -13.5369   21.0268 C   0  0  0  0  0  0  0  0  0  0  0  0
  -29.4241  -13.7150   20.0982 C   0  0  0  0  0  0  0  0  0  0  0  0
  -26.4701  -33.1287   23.1664 C   0  0  0  0  0  0  0  0  0  0  0  0
  -22.0085  -29.4484   19.8919 C   0  0  0  0  0  0  0  0  0  0  0  0
  -26.0735  -31.9211   22.5608 C   0  0  0  0  0  0  0  0  0  0  0  0
  -27.6104  -22.0562   20.1205 C   0  0  0  0  0  0  0  0  0  0  0  0
  -21.7928  -28.0940   20.1842 C   0  0  0  0  0  0  0  0  0  0  0  0
  -26.5955  -21.6776   17.9732 C   0  0  0  0  0  0  0  0  0  0  0  0
  -24.4766  -12.4762   21.1289 C   0  0  0  0  0  0  0  0  0  0  0  0
  -22.5554  -27.5038   17.9526 C   0  0  0  0  0  0  0  0  0  0  0  0
  -23.0863  -10.5817   21.1187 C   0  0  0  0  0  0  0  0  0  0  0  0
  -22.8197   -7.8075   20.9948 C   0  0  0  0  0  0  0  0  0  0  0  0
  -22.4818   -9.8915   22.1693 C   0  0  0  0  0  0  0  0  0  0  0  0
  -28.3861  -14.0855   20.9740 C   0  0  0  0  0  0  0  0  0  0  0  0
  -27.4346  -23.4134   19.9042 C   0  0  0  0  0  0  0  0  0  0  0  0
  -26.4650  -23.0518   17.8530 C   0  0  0  0  0  0  0  0  0  0  0  0
  -30.4759  -14.5251   20.4502 C   0  0  0  0  0  0  0  0  0  0  0  0
  -29.4365  -12.7269   19.0594 C   0  0  0  0  0  0  0  0  0  0  0  0
  -23.0965  -29.7532   22.8629 C   0  0  0  0  0  0  0  0  0  0  0  0
  -20.1994  -28.5154   23.6355 C   0  0  0  0  0  0  0  0  0  0  0  0
  -17.4988  -26.6546   22.6917 C   0  0  0  0  0  0  0  0  0  0  0  0
  -30.6038  -19.9037   23.2459 C   0  0  0  0  0  0  0  0  0  0  0  0
  -26.1847  -33.4191   24.6186 C   0  0  0  0  0  0  0  0  0  0  0  0
  -21.6902  -30.5076   20.9113 C   0  0  0  0  0  0  0  0  0  0  0  0
  -21.2717  -27.6451   21.5241 C   0  0  0  0  0  0  0  0  0  0  0  0
  -25.0926  -32.5338   25.2136 C   0  0  0  0  0  0  0  0  0  0  0  0
  -32.3295  -16.8817   24.1527 C   0  0  0  0  0  0  0  0  0  0  0  0
  -25.3221  -31.0745   24.8334 C   0  0  0  0  0  0  0  0  0  0  0  0
  -31.5785  -15.7813   23.4106 C   0  0  0  0  0  0  0  0  0  0  0  0
  -31.3793  -17.9873   24.5928 C   0  0  0  0  0  0  0  0  0  0  0  0
  -28.6207  -19.9901   21.5372 C   0  0  0  0  0  0  0  0  0  0  0  0
  -29.7804  -21.7574   21.6957 C   0  0  0  0  0  0  0  0  0  0  0  0
  -29.8732  -17.5234   22.6770 C   0  0  0  0  0  0  0  0  0  0  0  0
  -28.2772  -21.4967   21.4455 C   0  0  0  0  0  0  0  0  0  0  0  0
  -25.2661  -30.8852   23.3127 C   0  0  1  0  0  0  0  0  0  0  0  0
  -21.7054  -29.9824   22.3435 C   0  0  1  0  0  0  0  0  0  0  0  0
  -30.7926  -16.3696   22.2300 C   0  0  2  0  0  0  0  0  0  0  0  0
  -26.1316  -20.7424   16.9106 C   0  0  0  0  0  0  0  0  0  0  0  0
  -27.8788  -24.4004   20.9331 C   0  0  0  0  0  0  0  0  0  0  0  0
  -15.3066  -25.7872   23.5515 C   0  0  0  0  0  0  0  0  0  0  0  0
  -21.6774  -26.3960   25.2585 C   0  0  0  0  0  0  0  0  0  0  0  0
  -19.5667  -25.0498   25.2920 C   0  0  0  0  0  0  0  0  0  0  0  0
  -19.6224  -27.3053   26.3560 C   0  0  0  0  0  0  0  0  0  0  0  0
  -15.9746  -28.1187   20.6199 C   0  0  0  0  0  0  0  0  0  0  0  0
  -25.8446  -23.6444   16.6301 C   0  0  0  0  0  0  0  0  0  0  0  0
  -24.5664  -25.5671   15.6771 C   0  0  0  0  0  0  0  0  0  0  0  0
  -23.8554  -26.8462   16.0728 C   0  0  0  0  0  0  0  0  0  1  0  0
  -19.6502  -27.1233   23.8345 C   0  0  1  0  0  0  0  0  0  0  0  0
  -16.0074  -26.9131   22.8072 C   0  0  2  0  0  0  0  0  0  0  0  0
  -20.1408  -26.4766   25.1606 C   0  0  0  0  0  0  0  0  0  0  0  0
  -28.7459  -15.0554   21.8189 N   0  0  0  0  0  0  0  0  0  0  0  0
  -26.8710  -23.9357   18.7919 N   0  0  0  0  0  0  0  0  0  0  0  0
  -30.0217  -15.3012   21.4757 N   0  0  0  0  0  0  0  0  0  0  0  0
  -20.9814  -28.7180   22.4895 N   0  0  0  0  0  0  0  0  0  0  0  0
  -30.5992  -18.5229   23.4729 N   0  0  0  0  0  0  0  0  0  0  0  0
  -29.8413  -20.3958   22.2130 N   0  0  0  0  0  0  0  0  0  0  0  0
  -31.7357  -14.6422   19.9795 N   0  0  0  0  0  0  0  0  0  0  0  0
  -28.2707  -11.9834   18.8306 N   0  0  0  0  0  0  0  0  0  0  0  0
  -23.8935  -30.8820   22.8540 N   0  0  0  0  0  0  0  0  0  0  0  0
  -18.1998  -27.2374   23.7261 N   0  0  0  0  0  0  0  0  0  0  0  0
  -15.3961  -27.0335   21.4534 N   0  3  0  0  0  0  0  0  0  0  0  0
  -25.1428  -24.9305   16.8905 N   0  3  0  0  0  0  0  0  0  0  0  0
  -30.4564  -12.4983   18.3658 O   0  0  0  0  0  0  0  0  0  0  0  0
  -23.4223  -28.6353   23.2449 O   0  0  0  0  0  0  0  0  0  0  0  0
  -19.9382  -29.3925   24.4626 O   0  0  0  0  0  0  0  0  0  0  0  0
  -17.9922  -25.9980   21.7773 O   0  0  0  0  0  0  0  0  0  0  0  0
  -31.2469  -20.6814   23.9633 O   0  0  0  0  0  0  0  0  0  0  0  0
  -23.2187  -11.9588   21.1783 O   0  0  0  0  0  0  0  0  0  0  0  0
  -22.8265  -26.5490   17.0074 O   0  0  0  0  0  0  0  0  0  1  0  0
  -22.6904   -6.4756   20.9345 F   0  0  0  0  0  0  0  0  0  0  0  0
  -22.0260  -10.5557   23.2403 F   0  0  0  0  0  0  0  0  0  0  0  0
  1  2  1  0  0  0  0
  1  5  2  0  0  0  0
  2  6  2  0  0  0  0
  3  8  2  0  0  0  0
  3 16  1  0  0  0  0
  4  9  1  0  0  0  0
  4 16  2  0  0  0  0
  5 18  1  0  0  0  0
  6 20  1  0  0  0  0
  7 10  2  0  0  0  0
  7 19  1  0  0  0  0
  8 24  1  0  0  0  0
  9 24  2  0  0  0  0
 10 25  1  0  0  0  0
 11 12  2  0  0  0  0
 11 26  1  0  0  0  0
 12 27  1  0  0  0  0
 13 21  2  0  0  0  0
 13 23  1  0  0  0  0
 14 22  1  0  0  0  0
 14 25  2  0  0  0  0
 15 27  2  0  0  0  0
 15 28  1  0  0  0  0
 16 29  1  0  0  0  0
 17 29  1  0  0  0  0
 17 32  2  0  0  0  0
 17 33  1  0  0  0  0
 18 20  2  0  0  0  0
 18 38  1  0  0  0  0
 19 22  2  0  0  0  0
 19 39  1  0  0  0  0
 20 50  1  0  0  0  0
 21 30  1  0  0  0  0
 21 49  1  0  0  0  0
 22 40  1  0  0  0  0
 23 31  2  0  0  0  0
 23 53  1  0  0  0  0
 24 83  1  0  0  0  0
 25 84  1  0  0  0  0
 26 28  2  0  0  0  0
 26 83  1  0  0  0  0
 27 85  1  0  0  0  0
 28 86  1  0  0  0  0
 29 66  2  0  0  0  0
 30 54  1  0  0  0  0
 30 67  2  0  0  0  0
 31 60  1  0  0  0  0
 31 67  1  0  0  0  0
 32 68  1  0  0  0  0
 32 72  1  0  0  0  0
 33 73  1  0  0  0  0
 33 78  2  0  0  0  0
 34 51  1  0  0  0  0
 34 74  1  0  0  0  0
 34 79  2  0  0  0  0
 35 63  1  0  0  0  0
 35 69  1  0  0  0  0
 35 80  2  0  0  0  0
 36 64  1  0  0  0  0
 36 75  1  0  0  0  0
 36 81  2  0  0  0  0
 37 70  1  0  0  0  0
 37 71  1  0  0  0  0
 37 82  2  0  0  0  0
 38 41  1  0  0  0  0
 39 51  1  0  0  0  0
 40 69  1  0  0  0  0
 41 43  1  0  0  0  0
 42 44  1  0  0  0  0
 42 45  1  0  0  0  0
 43 50  1  0  0  0  0
 44 52  1  0  0  0  0
 45 70  1  0  0  0  0
 46 49  1  0  0  0  0
 46 71  1  0  0  0  0
 47 49  1  0  0  0  0
 47 71  1  0  0  0  0
 48 52  1  0  0  0  0
 48 70  1  0  0  0  0
 50 74  1  0  0  0  0
 51 69  1  0  0  0  0
 52 68  1  0  0  0  0
 55 64  1  0  0  0  0
 56 65  1  0  0  0  0
 57 65  1  0  0  0  0
 58 65  1  0  0  0  0
 59 76  1  0  0  0  0
 60 77  1  0  0  0  0
 61 62  1  0  0  0  0
 61 77  1  0  0  0  0
 62 84  1  0  0  0  0
 63 65  1  0  0  0  0
 63 75  1  0  0  0  0
 64 76  1  0  0  0  0
 66 68  1  0  0  0  0
M  CHG  2  76   1  77   1
M  ISO  4  37 100  62 101  71 100  84 101
M  END
> <Batch ID>
0173

> <Smiles>
CNC(C)C(=O)NC(C(=O)N1Cc2cc([101O:1][101CH2:1]CNCc3nc(C)c(C4C[100N:0]([100C:0](=O)N5CCCC(n6nc(-c7ccc(Oc8ccc(F)cc8F)cc7)c(C(N)=O)c6N)C5)C4)cc3C)ccc2CC1C(=O)NC1CCCc2ccccc21)C(C)(C)C

> <Shape>
0.292

> <Color>
0.065

> <Negative vol penalty>
0.000

$$$$

  -OEChem-04052322423D

 83 92  0     1  0  0  0  0  0999 V2000
  -16.6282  -30.6434   23.9432 C   0  0  0  0  0  0  0  0  0  0  0  0
  -17.1457  -29.4776   24.4987 C   0  0  0  0  0  0  0  0  0  0  0  0
  -23.3588   -9.5590   20.1407 C   0  0  0  0  0  0  0  0  0  0  0  0
  -23.7714  -10.0884   22.4616 C   0  0  0  0  0  0  0  0  0  0  0  0
  -17.2865  -31.2592   22.8796 C   0  0  0  0  0  0  0  0  0  0  0  0
  -18.3213  -28.9264   23.9902 C   0  0  0  0  0  0  0  0  0  0  0  0
  -24.1221  -25.2671   26.0581 C   0  0  0  0  0  0  0  0  0  0  0  0
  -22.6798   -8.4028   20.5251 C   0  0  0  0  0  0  0  0  0  0  0  0
  -23.0924   -8.9322   22.8460 C   0  0  0  0  0  0  0  0  0  0  0  0
  -24.8421  -24.1177   25.7354 C   0  0  0  0  0  0  0  0  0  0  0  0
  -23.7234   -5.6155   23.0249 C   0  0  0  0  0  0  0  0  0  0  0  0
  -24.3061   -4.8192   24.0108 C   0  0  0  0  0  0  0  0  0  0  0  0
  -25.9361  -25.3120   23.9477 C   0  0  0  0  0  0  0  0  0  0  0  0
  -22.3646   -5.1354   25.4136 C   0  0  0  0  0  0  0  0  0  0  0  0
  -27.2393  -18.6175   23.8252 C   0  0  0  0  0  0  0  0  0  0  0  0
  -23.9047  -10.4017   21.1089 C   0  0  0  0  0  0  0  0  0  0  0  0
  -24.0598  -12.8783   20.5173 C   0  0  0  0  0  0  0  0  0  0  0  0
  -18.4759  -30.7206   22.3640 C   0  0  0  0  0  0  0  0  0  0  0  0
  -24.2960  -26.4466   25.3198 C   0  0  0  0  0  0  0  0  0  0  0  0
  -18.9954  -29.5349   22.9178 C   0  0  0  0  0  0  0  0  0  0  0  0
  -25.2190  -26.4758   24.2646 C   0  0  0  0  0  0  0  0  0  0  0  0
  -28.6241  -18.6594   23.8107 C   0  0  0  0  0  0  0  0  0  0  0  0
  -29.2450  -19.8181   24.2636 C   0  0  0  0  0  0  0  0  0  0  0  0
  -28.4730  -20.8845   24.7109 C   0  0  0  0  0  0  0  0  0  0  0  0
  -22.5466   -8.0894   21.8777 C   0  0  0  0  0  0  0  0  0  0  0  0
  -25.7471  -24.1391   24.6783 C   0  0  0  0  0  0  0  0  0  0  0  0
  -22.4613   -6.1718   23.2334 C   0  0  0  0  0  0  0  0  0  0  0  0
  -23.6267   -4.5792   25.2052 C   0  0  0  0  0  0  0  0  0  0  0  0
  -21.7819   -5.9317   24.4277 C   0  0  0  0  0  0  0  0  0  0  0  0
  -24.6067  -11.5959   20.7124 C   0  0  0  0  0  0  0  0  0  0  0  0
  -27.0949  -20.7431   24.6850 C   0  0  0  0  0  0  0  0  0  0  0  0
  -25.1307  -13.6561   20.1504 C   0  0  0  0  0  0  0  0  0  0  0  0
  -22.7049  -13.3265   20.6555 C   0  0  0  0  0  0  0  0  0  0  0  0
  -22.4121  -28.2602   23.5128 C   0  0  0  0  0  0  0  0  0  0  0  0
  -25.0073  -30.2050   23.4419 C   0  0  0  0  0  0  0  0  0  0  0  0
  -28.3919  -30.5314   23.7327 C   0  0  0  0  0  0  0  0  0  0  0  0
  -30.4947  -15.1778   21.0285 C   0  0  0  0  0  0  0  0  0  0  0  0
  -19.1264  -31.3958   21.1826 C   0  0  0  0  0  0  0  0  0  0  0  0
  -23.5314  -27.6856   25.6975 C   0  0  0  0  0  0  0  0  0  0  0  0
  -25.4574  -27.7225   23.4538 C   0  0  0  0  0  0  0  0  0  0  0  0
  -20.5686  -30.9545   20.9468 C   0  0  0  0  0  0  0  0  0  0  0  0
  -29.8287  -12.4110   18.8298 C   0  0  0  0  0  0  0  0  0  0  0  0
  -20.6809  -29.4351   21.0218 C   0  0  0  0  0  0  0  0  0  0  0  0
  -28.3884  -12.0189   19.1423 C   0  0  0  0  0  0  0  0  0  0  0  0
  -30.5436  -12.8994   20.0825 C   0  0  0  0  0  0  0  0  0  0  0  0
  -28.7028  -16.2370   22.6182 C   0  0  0  0  0  0  0  0  0  0  0  0
  -30.2439  -17.5386   21.9670 C   0  0  0  0  0  0  0  0  0  0  0  0
  -28.4060  -13.7079   21.0472 C   0  0  0  0  0  0  0  0  0  0  0  0
  -29.4532  -17.4128   23.2895 C   0  0  0  0  0  0  0  0  0  0  0  0
  -20.2816  -28.9202   22.4100 C   0  0  1  0  0  0  0  0  0  0  0  0
  -23.4106  -28.6857   24.5518 C   0  0  1  0  0  0  0  0  0  0  0  0
  -27.6474  -13.1857   19.8110 C   0  0  2  0  0  0  0  0  0  0  0  0
  -30.7370  -19.9115   24.2676 C   0  0  0  0  0  0  0  0  0  0  0  0
  -29.1098  -22.1406   25.2038 C   0  0  0  0  0  0  0  0  0  0  0  0
  -30.2263  -32.2374   23.5850 C   0  0  0  0  0  0  0  0  0  0  0  0
  -24.8072  -30.1530   20.3976 C   0  0  0  0  0  0  0  0  0  0  0  0
  -27.1446  -31.0446   20.2984 C   0  0  0  0  0  0  0  0  0  0  0  0
  -25.3412  -32.3945   21.3699 C   0  0  0  0  0  0  0  0  0  0  0  0
  -29.1806  -30.0974   26.5520 C   0  0  0  0  0  0  0  0  0  0  0  0
  -26.2134  -21.8555   25.1512 C   0  0  0  0  0  0  0  0  0  1  0  0
  -26.2189  -30.3388   22.5514 C   0  0  1  0  0  0  0  0  0  0  0  0
  -29.2458  -31.5230   24.5021 C   0  0  2  0  0  0  0  0  0  0  0  0
  -25.8723  -30.9585   21.1682 C   0  0  0  0  0  0  0  0  0  0  0  0
  -26.4558  -19.6332   24.2522 N   0  0  0  0  0  0  0  0  0  0  0  0
  -25.9228  -11.5570   20.4878 N   0  0  0  0  0  0  0  0  0  0  0  0
  -26.2118  -12.8246   20.1477 N   0  0  0  0  0  0  0  0  0  0  0  0
  -24.6811  -28.9064   23.8579 N   0  0  0  0  0  0  0  0  0  0  0  0
  -29.8166  -13.9871   20.7443 N   0  0  0  0  0  0  0  0  0  0  0  0
  -29.8101  -16.1769   21.6794 N   0  0  0  0  0  0  0  0  0  0  0  0
  -25.2437  -14.9634   19.8328 N   0  0  0  0  0  0  0  0  0  0  0  0
  -21.7295  -12.3965   21.0402 N   0  0  0  0  0  0  0  0  0  0  0  0
  -21.3545  -29.1358   23.3569 N   0  0  0  0  0  0  0  0  0  0  0  0
  -27.2051  -31.0956   23.3150 N   0  0  0  0  0  0  0  0  0  0  0  0
  -30.0211  -30.8234   25.5654 N   0  3  0  0  0  0  0  0  0  0  0  0
  -22.3663  -14.5127   20.4281 O   0  0  0  0  0  0  0  0  0  0  0  0
  -22.5888  -27.2156   22.8970 O   0  0  0  0  0  0  0  0  0  0  0  0
  -24.3778  -31.2162   23.7625 O   0  0  0  0  0  0  0  0  0  0  0  0
  -28.7442  -29.3733   23.5201 O   0  0  0  0  0  0  0  0  0  0  0  0
  -31.6876  -15.3357   20.7367 O   0  0  0  0  0  0  0  0  0  0  0  0
  -21.8838   -6.9614   22.2532 O   0  0  0  0  0  0  0  0  0  0  0  0
  -26.4557  -23.0104   24.3586 O   0  0  0  0  0  0  0  0  0  1  0  0
  -24.1857   -3.8133   26.1512 F   0  0  0  0  0  0  0  0  0  0  0  0
  -20.5687   -6.4624   24.6332 F   0  0  0  0  0  0  0  0  0  0  0  0
  1  2  1  0  0  0  0
  1  5  2  0  0  0  0
  2  6  2  0  0  0  0
  3  8  2  0  0  0  0
  3 16  1  0  0  0  0
  4  9  1  0  0  0  0
  4 16  2  0  0  0  0
  5 18  1  0  0  0  0
  6 20  1  0  0  0  0
  7 10  2  0  0  0  0
  7 19  1  0  0  0  0
  8 25  1  0  0  0  0
  9 25  2  0  0  0  0
 10 26  1  0  0  0  0
 11 12  2  0  0  0  0
 11 27  1  0  0  0  0
 12 28  1  0  0  0  0
 13 21  1  0  0  0  0
 13 26  2  0  0  0  0
 14 28  2  0  0  0  0
 14 29  1  0  0  0  0
 15 22  1  0  0  0  0
 15 64  2  0  0  0  0
 16 30  1  0  0  0  0
 17 30  1  0  0  0  0
 17 32  2  0  0  0  0
 17 33  1  0  0  0  0
 18 20  2  0  0  0  0
 18 38  1  0  0  0  0
 19 21  2  0  0  0  0
 19 39  1  0  0  0  0
 20 50  1  0  0  0  0
 21 40  1  0  0  0  0
 22 23  2  0  0  0  0
 22 49  1  0  0  0  0
 23 24  1  0  0  0  0
 23 53  1  0  0  0  0
 24 31  2  0  0  0  0
 24 54  1  0  0  0  0
 25 80  1  0  0  0  0
 26 81  1  0  0  0  0
 27 29  2  0  0  0  0
 27 80  1  0  0  0  0
 28 82  1  0  0  0  0
 29 83  1  0  0  0  0
 30 65  2  0  0  0  0
 31 60  1  0  0  0  0
 31 64  1  0  0  0  0
 32 66  1  0  0  0  0
 32 70  1  0  0  0  0
 33 71  1  0  0  0  0
 33 75  2  0  0  0  0
 34 51  1  0  0  0  0
 34 72  1  0  0  0  0
 34 76  2  0  0  0  0
 35 61  1  0  0  0  0
 35 67  1  0  0  0  0
 35 77  2  0  0  0  0
 36 62  1  0  0  0  0
 36 73  1  0  0  0  0
 36 78  2  0  0  0  0
 37 68  1  0  0  0  0
 37 69  1  0  0  0  0
 37 79  2  0  0  0  0
 38 41  1  0  0  0  0
 39 51  1  0  0  0  0
 40 67  1  0  0  0  0
 41 43  1  0  0  0  0
 42 44  1  0  0  0  0
 42 45  1  0  0  0  0
 43 50  1  0  0  0  0
 44 52  1  0  0  0  0
 45 68  1  0  0  0  0
 46 49  1  0  0  0  0
 46 69  1  0  0  0  0
 47 49  1  0  0  0  0
 47 69  1  0  0  0  0
 48 52  1  0  0  0  0
 48 68  1  0  0  0  0
 50 72  1  0  0  0  0
 51 67  1  0  0  0  0
 52 66  1  0  0  0  0
 55 62  1  0  0  0  0
 56 63  1  0  0  0  0
 57 63  1  0  0  0  0
 58 63  1  0  0  0  0
 59 74  1  0  0  0  0
 60 81  1  0  0  0  0
 61 63  1  0  0  0  0
 61 73  1  0  0  0  0
 62 74  1  0  0  0  0
 65 66  1  0  0  0  0
M  CHG  1  74   1
M  ISO  4  37 100  60 101  69 100  81 101
M  END
> <Batch ID>
0173

> <Smiles>
CNC(C)C(=O)NC(C(=O)N1Cc2cc([101O:1][101CH2:1]c3ncc(C4C[100N:0]([100C:0](=O)N5CCCC(n6nc(-c7ccc(Oc8ccc(F)cc8F)cc7)c(C(N)=O)c6N)C5)C4)c(C)c3C)ccc2CC1C(=O)NC1CCCc2ccccc21)C(C)(C)C

> <Shape>
0.276

> <Color>
0.181

> <Negative vol penalty>
0.000

$$$$

  -OEChem-04052322423D

 85 95  0     1  0  0  0  0  0999 V2000
  -27.2912  -33.0828   27.0731 C   0  0  0  0  0  0  0  0  0  0  0  0
  -27.6022  -32.0203   26.2306 C   0  0  0  0  0  0  0  0  0  0  0  0
  -26.3338  -12.4999   21.6992 C   0  0  0  0  0  0  0  0  0  0  0  0
  -25.8388  -13.7178   19.6722 C   0  0  0  0  0  0  0  0  0  0  0  0
  -25.9624  -33.3385   27.4093 C   0  0  0  0  0  0  0  0  0  0  0  0
  -26.5847  -31.2122   25.7246 C   0  0  0  0  0  0  0  0  0  0  0  0
  -27.1415  -30.2527   20.7836 C   0  0  0  0  0  0  0  0  0  0  0  0
  -25.0446  -11.9675   21.6941 C   0  0  0  0  0  0  0  0  0  0  0  0
  -24.5496  -13.1853   19.6670 C   0  0  0  0  0  0  0  0  0  0  0  0
  -28.0787  -29.2850   20.4245 C   0  0  0  0  0  0  0  0  0  0  0  0
  -21.6165  -13.7453   21.2527 C   0  0  0  0  0  0  0  0  0  0  0  0
  -20.5571  -14.6151   20.9944 C   0  0  0  0  0  0  0  0  0  0  0  0
  -26.3038  -27.6729   20.1600 C   0  0  0  0  0  0  0  0  0  0  0  0
  -19.9501  -13.3014   19.0598 C   0  0  0  0  0  0  0  0  0  0  0  0
  -26.7309  -13.3752   20.6883 C   0  0  0  0  0  0  0  0  0  0  0  0
  -29.2098  -13.3817   20.0859 C   0  0  0  0  0  0  0  0  0  0  0  0
  -24.9273  -32.5391   26.8994 C   0  0  0  0  0  0  0  0  0  0  0  0
  -25.7771  -29.9344   20.8442 C   0  0  0  0  0  0  0  0  0  0  0  0
  -25.2409  -31.4567   26.0554 C   0  0  0  0  0  0  0  0  0  0  0  0
  -25.3510  -28.6390   20.5176 C   0  0  0  0  0  0  0  0  0  0  0  0
  -31.0460  -25.2348   20.1698 C   0  0  0  0  0  0  0  0  0  0  0  0
  -30.7822  -26.2799   19.3021 C   0  0  0  0  0  0  0  0  0  0  0  0
  -24.1525  -12.3101   20.6780 C   0  0  0  0  0  0  0  0  0  0  0  0
  -27.6602  -27.9941   20.1155 C   0  0  0  0  0  0  0  0  0  0  0  0
  -21.8428  -12.6536   20.4144 C   0  0  0  0  0  0  0  0  0  0  0  0
  -19.7239  -14.3932   19.8980 C   0  0  0  0  0  0  0  0  0  0  0  0
  -21.0096  -12.4316   19.3180 C   0  0  0  0  0  0  0  0  0  0  0  0
  -28.0623  -13.9260   20.6933 C   0  0  0  0  0  0  0  0  0  0  0  0
  -31.8247  -24.1926   19.7082 C   0  0  0  0  0  0  0  0  0  0  0  0
  -31.3149  -26.2139   18.0303 C   0  0  0  0  0  0  0  0  0  0  0  0
  -30.2101  -14.2764   20.3782 C   0  0  0  0  0  0  0  0  0  0  0  0
  -29.3581  -12.1753   19.3254 C   0  0  0  0  0  0  0  0  0  0  0  0
  -23.5799  -29.9076   23.1409 C   0  0  0  0  0  0  0  0  0  0  0  0
  -21.5767  -29.2365   20.6793 C   0  0  0  0  0  0  0  0  0  0  0  0
  -21.1737  -27.9805   17.5318 C   0  0  0  0  0  0  0  0  0  0  0  0
  -31.9520  -19.4919   20.5442 C   0  0  0  0  0  0  0  0  0  0  0  0
  -23.5102  -32.8254   27.3289 C   0  0  0  0  0  0  0  0  0  0  0  0
  -24.7761  -30.9967   21.2073 C   0  0  0  0  0  0  0  0  0  0  0  0
  -23.8958  -28.2517   20.5477 C   0  0  0  0  0  0  0  0  0  0  0  0
  -22.4595  -32.1509   26.4506 C   0  0  0  0  0  0  0  0  0  0  0  0
  -30.3491  -18.1622   23.5736 C   0  0  0  0  0  0  0  0  0  0  0  0
  -22.8253  -30.6903   26.2069 C   0  0  0  0  0  0  0  0  0  0  0  0
  -29.8081  -27.2774   16.2213 C   0  0  0  0  0  0  0  0  0  0  0  0
  -31.1300  -27.0012   15.5758 C   0  0  0  0  0  0  0  0  0  0  0  0
  -29.6439  -16.9314   23.0150 C   0  0  0  0  0  0  0  0  0  0  0  0
  -30.4171  -19.3059   22.5613 C   0  0  0  0  0  0  0  0  0  0  0  0
  -31.1169  -21.9148   20.9707 C   0  0  0  0  0  0  0  0  0  0  0  0
  -32.9325  -21.7391   19.8811 C   0  0  0  0  0  0  0  0  0  0  0  0
  -30.2950  -17.6657   20.6965 C   0  0  0  0  0  0  0  0  0  0  0  0
  -24.1630  -30.5727   25.4665 C   0  0  1  0  0  0  0  0  0  0  0  0
  -32.2205  -22.9216   20.5701 C   0  0  0  0  0  0  0  0  0  0  0  0
  -31.0659  -27.3100   17.0480 C   0  0  0  0  0  0  0  0  0  0  0  0
  -23.4637  -30.4256   21.7352 C   0  0  1  0  0  0  0  0  0  0  0  0
  -30.2918  -16.4978   21.6921 C   0  0  2  0  0  0  0  0  0  0  0  0
  -30.5106  -25.2252   21.5611 C   0  0  0  0  0  0  0  0  0  0  0  0
  -19.4134  -27.5302   15.8010 C   0  0  0  0  0  0  0  0  0  0  0  0
  -20.6370  -26.8084   22.2704 C   0  0  0  0  0  0  0  0  0  0  0  0
  -19.6321  -25.9038   20.1632 C   0  0  0  0  0  0  0  0  0  0  0  0
  -18.8130  -28.0628   21.1068 C   0  0  0  0  0  0  0  0  0  0  0  0
  -22.4645  -29.7924   15.5800 C   0  0  0  0  0  0  0  0  0  0  0  0
  -29.9429  -27.4458   19.7351 C   0  0  0  0  0  0  0  0  0  1  0  0
  -21.0897  -27.9734   20.0112 C   0  0  1  0  0  0  0  0  0  0  0  0
  -20.4434  -28.5231   16.3166 C   0  0  2  0  0  0  0  0  0  0  0  0
  -20.0706  -27.1936   20.8891 C   0  0  0  0  0  0  0  0  0  0  0  0
  -28.3096  -15.0771   21.3240 N   0  0  0  0  0  0  0  0  0  0  0  0
  -32.3329  -24.1543   18.4582 N   0  0  0  0  0  0  0  0  0  0  0  0
  -32.0740  -25.1817   17.6056 N   0  0  0  0  0  0  0  0  0  0  0  0
  -29.6239  -15.2635   21.1145 N   0  0  0  0  0  0  0  0  0  0  0  0
  -22.9561  -29.3239   20.9149 N   0  0  0  0  0  0  0  0  0  0  0  0
  -30.9262  -18.8643   21.2588 N   0  0  0  0  0  0  0  0  0  0  0  0
  -32.0797  -20.8602   20.6764 N   0  0  0  0  0  0  0  0  0  0  0  0
  -31.5251  -14.3071   20.0747 N   0  0  0  0  0  0  0  0  0  0  0  0
  -28.2282  -11.3721   19.1196 N   0  0  0  0  0  0  0  0  0  0  0  0
  -23.9880  -30.8570   24.0583 N   0  0  0  0  0  0  0  0  0  0  0  0
  -20.5715  -28.3747   18.7079 N   0  0  0  0  0  0  0  0  0  0  0  0
  -21.4085  -28.8120   15.2185 N   0  3  0  0  0  0  0  0  0  0  0  0
  -30.4634  -11.8119   18.8566 O   0  0  0  0  0  0  0  0  0  0  0  0
  -23.3171  -28.7340   23.3760 O   0  0  0  0  0  0  0  0  0  0  0  0
  -20.7641  -30.1163   20.9747 O   0  0  0  0  0  0  0  0  0  0  0  0
  -22.1759  -27.2742   17.4462 O   0  0  0  0  0  0  0  0  0  0  0  0
  -32.7062  -18.8646   19.7897 O   0  0  0  0  0  0  0  0  0  0  0  0
  -22.8945  -11.7905   20.6726 O   0  0  0  0  0  0  0  0  0  0  0  0
  -28.5729  -27.0474   19.7654 O   0  0  0  0  0  0  0  0  0  1  0  0
  -18.7056  -15.2276   19.6510 F   0  0  0  0  0  0  0  0  0  0  0  0
  -21.2212  -11.3838   18.5099 F   0  0  0  0  0  0  0  0  0  0  0  0
  1  2  1  0  0  0  0
  1  5  2  0  0  0  0
  2  6  2  0  0  0  0
  3  8  2  0  0  0  0
  3 15  1  0  0  0  0
  4  9  1  0  0  0  0
  4 15  2  0  0  0  0
  5 17  1  0  0  0  0
  6 19  1  0  0  0  0
  7 10  2  0  0  0  0
  7 18  1  0  0  0  0
  8 23  1  0  0  0  0
  9 23  2  0  0  0  0
 10 24  1  0  0  0  0
 11 12  2  0  0  0  0
 11 25  1  0  0  0  0
 12 26  1  0  0  0  0
 13 20  1  0  0  0  0
 13 24  2  0  0  0  0
 14 26  2  0  0  0  0
 14 27  1  0  0  0  0
 15 28  1  0  0  0  0
 16 28  1  0  0  0  0
 16 31  2  0  0  0  0
 16 32  1  0  0  0  0
 17 19  2  0  0  0  0
 17 37  1  0  0  0  0
 18 20  2  0  0  0  0
 18 38  1  0  0  0  0
 19 50  1  0  0  0  0
 20 39  1  0  0  0  0
 21 22  2  0  0  0  0
 21 29  1  0  0  0  0
 21 55  1  0  0  0  0
 22 30  1  0  0  0  0
 22 61  1  0  0  0  0
 23 82  1  0  0  0  0
 24 83  1  0  0  0  0
 25 27  2  0  0  0  0
 25 82  1  0  0  0  0
 26 84  1  0  0  0  0
 27 85  1  0  0  0  0
 28 65  2  0  0  0  0
 29 51  1  0  0  0  0
 29 66  2  0  0  0  0
 30 52  1  0  0  0  0
 30 67  2  0  0  0  0
 31 68  1  0  0  0  0
 31 72  1  0  0  0  0
 32 73  1  0  0  0  0
 32 77  2  0  0  0  0
 33 53  1  0  0  0  0
 33 74  1  0  0  0  0
 33 78  2  0  0  0  0
 34 62  1  0  0  0  0
 34 69  1  0  0  0  0
 34 79  2  0  0  0  0
 35 63  1  0  0  0  0
 35 75  1  0  0  0  0
 35 80  2  0  0  0  0
 36 70  1  0  0  0  0
 36 71  1  0  0  0  0
 36 81  2  0  0  0  0
 37 40  1  0  0  0  0
 38 53  1  0  0  0  0
 39 69  1  0  0  0  0
 40 42  1  0  0  0  0
 41 45  1  0  0  0  0
 41 46  1  0  0  0  0
 42 50  1  0  0  0  0
 43 44  1  0  0  0  0
 43 52  1  0  0  0  0
 44 52  1  0  0  0  0
 45 54  1  0  0  0  0
 46 70  1  0  0  0  0
 47 51  1  0  0  0  0
 47 71  1  0  0  0  0
 48 51  1  0  0  0  0
 48 71  1  0  0  0  0
 49 54  1  0  0  0  0
 49 70  1  0  0  0  0
 50 74  1  0  0  0  0
 53 69  1  0  0  0  0
 54 68  1  0  0  0  0
 56 63  1  0  0  0  0
 57 64  1  0  0  0  0
 58 64  1  0  0  0  0
 59 64  1  0  0  0  0
 60 76  1  0  0  0  0
 61 83  1  0  0  0  0
 62 64  1  0  0  0  0
 62 75  1  0  0  0  0
 63 76  1  0  0  0  0
 65 68  1  0  0  0  0
 66 67  1  0  0  0  0
M  CHG  1  76   1
M  ISO  4  36 100  61 101  71 100  83 101
M  END
> <Batch ID>
0173

> <Smiles>
CNC(C)C(=O)NC(C(=O)N1Cc2cc([101O:1][101CH2:1]c3c(C4CC4)nnc(C4C[100N:0]([100C:0](=O)N5CCCC(n6nc(-c7ccc(Oc8ccc(F)cc8F)cc7)c(C(N)=O)c6N)C5)C4)c3C)ccc2CC1C(=O)NC1CCCc2ccccc21)C(C)(C)C

> <Shape>
0.295

> <Color>
0.089

> <Negative vol penalty>
0.000

$$$$

  -OEChem-04052322423D

 86 95  0     1  0  0  0  0  0999 V2000
  -21.0858  -22.4461   16.1816 C   0  0  0  0  0  0  0  0  0  0  0  0
  -21.5186  -21.2399   16.7231 C   0  0  0  0  0  0  0  0  0  0  0  0
  -25.7136  -25.5591   17.5956 C   0  0  0  0  0  0  0  0  0  0  0  0
  -26.3355  -25.4893   19.9291 C   0  0  0  0  0  0  0  0  0  0  0  0
  -21.0529  -23.5928   16.9741 C   0  0  0  0  0  0  0  0  0  0  0  0
  -21.9198  -21.1799   18.0572 C   0  0  0  0  0  0  0  0  0  0  0  0
  -20.0349  -17.1482   20.4733 C   0  0  0  0  0  0  0  0  0  0  0  0
  -24.8500  -26.6226   17.8575 C   0  0  0  0  0  0  0  0  0  0  0  0
  -25.4719  -26.5530   20.1911 C   0  0  0  0  0  0  0  0  0  0  0  0
  -20.6521  -15.9201   20.2400 C   0  0  0  0  0  0  0  0  0  0  0  0
  -25.4793  -29.9128   19.8280 C   0  0  0  0  0  0  0  0  0  0  0  0
  -25.9527  -30.9459   20.6368 C   0  0  0  0  0  0  0  0  0  0  0  0
  -21.8583  -16.1384   22.3176 C   0  0  0  0  0  0  0  0  0  0  0  0
  -28.6276  -11.2337   19.7529 C   0  0  0  0  0  0  0  0  0  0  0  0
  -24.1775  -30.5202   22.2194 C   0  0  0  0  0  0  0  0  0  0  0  0
  -26.4563  -24.9924   18.6314 C   0  0  0  0  0  0  0  0  0  0  0  0
  -28.7070  -23.9698   18.0019 C   0  0  0  0  0  0  0  0  0  0  0  0
  -21.4448  -23.5447   18.3213 C   0  0  0  0  0  0  0  0  0  0  0  0
  -20.3334  -17.8871   21.6272 C   0  0  0  0  0  0  0  0  0  0  0  0
  -21.8934  -22.3273   18.8681 C   0  0  0  0  0  0  0  0  0  0  0  0
  -21.2416  -17.3745   22.5645 C   0  0  0  0  0  0  0  0  0  0  0  0
  -30.0033  -11.4350   19.7341 C   0  0  0  0  0  0  0  0  0  0  0  0
  -30.5119  -12.7280   19.7870 C   0  0  0  0  0  0  0  0  0  0  0  0
  -24.7291  -27.1196   19.1552 C   0  0  0  0  0  0  0  0  0  0  0  0
  -21.5661  -15.4163   21.1608 C   0  0  0  0  0  0  0  0  0  0  0  0
  -24.3550  -29.1835   20.2148 C   0  0  0  0  0  0  0  0  0  0  0  0
  -25.3019  -31.2496   21.8326 C   0  0  0  0  0  0  0  0  0  0  0  0
  -23.7041  -29.4871   21.4106 C   0  0  0  0  0  0  0  0  0  0  0  0
  -27.3481  -23.8933   18.3616 C   0  0  0  0  0  0  0  0  0  0  0  0
  -27.8098  -12.3498   19.8247 C   0  0  0  0  0  0  0  0  0  0  0  0
  -29.6096  -13.7772   19.8571 C   0  0  0  0  0  0  0  0  0  0  0  0
  -29.0986  -22.6611   17.8593 C   0  0  0  0  0  0  0  0  0  0  0  0
  -29.5408  -25.1209   17.8136 C   0  0  0  0  0  0  0  0  0  0  0  0
  -21.6040  -20.7449   22.1946 C   0  0  0  0  0  0  0  0  0  0  0  0
  -20.8246  -20.0499   25.2657 C   0  0  0  0  0  0  0  0  0  0  0  0
  -20.1638  -17.6684   27.6192 C   0  0  0  0  0  0  0  0  0  0  0  0
  -29.2559  -17.5142   19.7119 C   0  0  0  0  0  0  0  0  0  0  0  0
  -21.4369  -24.8206   19.1256 C   0  0  0  0  0  0  0  0  0  0  0  0
  -19.6390  -19.1977   21.8773 C   0  0  0  0  0  0  0  0  0  0  0  0
  -21.5814  -18.1191   23.8288 C   0  0  0  0  0  0  0  0  0  0  0  0
  -21.5233  -24.5913   20.6323 C   0  0  0  0  0  0  0  0  0  0  0  0
  -26.3712  -18.4029   17.7155 C   0  0  0  0  0  0  0  0  0  0  0  0
  -22.6162  -23.5776   20.9562 C   0  0  0  0  0  0  0  0  0  0  0  0
  -26.4853  -19.9280   17.6781 C   0  0  0  0  0  0  0  0  0  0  0  0
  -25.6731  -12.8271   21.0635 C   0  0  0  0  0  0  0  0  0  0  0  0
  -26.7916  -17.8502   19.0741 C   0  0  0  0  0  0  0  0  0  0  0  0
  -28.2754  -19.7776   19.4705 C   0  0  0  0  0  0  0  0  0  0  0  0
  -24.4554  -13.5996   19.1746 C   0  0  0  0  0  0  0  0  0  0  0  0
  -22.3131  -22.2167   20.3179 C   0  0  1  0  0  0  0  0  0  0  0  0
  -26.3342  -12.1724   19.8481 C   0  0  1  0  0  0  0  0  0  0  0  0
  -20.4041  -20.1061   22.8347 C   0  0  1  0  0  0  0  0  0  0  0  0
  -24.2471  -13.0775   20.5863 C   0  0  2  0  0  0  0  0  0  0  0  0
  -27.8859  -20.3960   18.1155 C   0  0  2  0  0  0  0  0  0  0  0  0
  -30.9091  -10.2508   19.6543 C   0  0  0  0  0  0  0  0  0  0  0  0
  -31.9831  -12.9742   19.7709 C   0  0  0  0  0  0  0  0  0  0  0  0
  -19.5973  -17.4045   30.0496 C   0  0  0  0  0  0  0  0  0  0  0  0
  -23.7264  -20.6371   26.0034 C   0  0  0  0  0  0  0  0  0  0  0  0
  -23.3368  -19.4656   28.1815 C   0  0  0  0  0  0  0  0  0  0  0  0
  -22.0388  -21.5214   27.6234 C   0  0  0  0  0  0  0  0  0  0  0  0
  -17.5826  -16.3620   26.9950 C   0  0  0  0  0  0  0  0  0  0  0  0
  -30.0958  -15.1884   19.9178 C   0  0  0  0  0  0  0  0  0  0  0  0
  -23.4827  -14.0421   21.4676 C   0  0  0  0  0  0  0  0  0  1  0  0
  -21.5197  -19.3618   26.4156 C   0  0  1  0  0  0  0  0  0  0  0  0
  -19.0463  -17.5427   28.6389 C   0  0  2  0  0  0  0  0  0  0  0  0
  -22.6507  -20.2331   27.0313 C   0  0  0  0  0  0  0  0  0  0  0  0
  -26.9061  -22.6355   18.4423 N   0  0  0  0  0  0  0  0  0  0  0  0
  -28.2670  -13.6209   19.8775 N   0  0  0  0  0  0  0  0  0  0  0  0
  -27.9935  -21.9095   18.1313 N   0  0  0  0  0  0  0  0  0  0  0  0
  -20.8809  -19.3991   24.0251 N   0  0  0  0  0  0  0  0  0  0  0  0
  -28.1406  -18.3179   19.4227 N   0  0  0  0  0  0  0  0  0  0  0  0
  -30.2771  -22.0914   17.5290 N   0  0  0  0  0  0  0  0  0  0  0  0
  -28.9784  -26.3910   18.0007 N   0  0  0  0  0  0  0  0  0  0  0  0
  -21.3077  -21.5118   21.0839 N   0  0  0  0  0  0  0  0  0  0  0  0
  -20.4728  -18.9870   27.3601 N   0  0  0  0  0  0  0  0  0  0  0  0
  -29.0424  -16.1426   19.6515 N   0  0  0  0  0  0  0  0  0  0  0  0
  -25.6282  -12.8109   18.6658 N   0  3  0  0  0  0  0  0  0  0  0  0
  -18.2071  -16.3473   28.3429 N   0  3  0  0  0  0  0  0  0  0  0  0
  -30.7444  -25.0265   17.4731 O   0  0  0  0  0  0  0  0  0  0  0  0
  -22.7162  -20.5573   22.6738 O   0  0  0  0  0  0  0  0  0  0  0  0
  -20.2466  -21.1217   25.4626 O   0  0  0  0  0  0  0  0  0  0  0  0
  -20.7107  -16.6943   27.1068 O   0  0  0  0  0  0  0  0  0  0  0  0
  -30.3624  -17.9844   19.9978 O   0  0  0  0  0  0  0  0  0  0  0  0
  -23.8867  -28.1576   19.4111 O   0  0  0  0  0  0  0  0  0  0  0  0
  -22.1705  -14.2181   20.9352 O   0  0  0  0  0  0  0  0  0  1  0  0
  -25.7575  -32.2407   22.6099 F   0  0  0  0  0  0  0  0  0  0  0  0
  -22.6243  -28.7892   21.7881 F   0  0  0  0  0  0  0  0  0  0  0  0
  1  2  1  0  0  0  0
  1  5  2  0  0  0  0
  2  6  2  0  0  0  0
  3  8  2  0  0  0  0
  3 16  1  0  0  0  0
  4  9  1  0  0  0  0
  4 16  2  0  0  0  0
  5 18  1  0  0  0  0
  6 20  1  0  0  0  0
  7 10  2  0  0  0  0
  7 19  1  0  0  0  0
  8 24  1  0  0  0  0
  9 24  2  0  0  0  0
 10 25  1  0  0  0  0
 11 12  2  0  0  0  0
 11 26  1  0  0  0  0
 12 27  1  0  0  0  0
 13 21  1  0  0  0  0
 13 25  2  0  0  0  0
 14 22  2  0  0  0  0
 14 30  1  0  0  0  0
 15 27  2  0  0  0  0
 15 28  1  0  0  0  0
 16 29  1  0  0  0  0
 17 29  1  0  0  0  0
 17 32  2  0  0  0  0
 17 33  1  0  0  0  0
 18 20  2  0  0  0  0
 18 38  1  0  0  0  0
 19 21  2  0  0  0  0
 19 39  1  0  0  0  0
 20 49  1  0  0  0  0
 21 40  1  0  0  0  0
 22 23  1  0  0  0  0
 22 54  1  0  0  0  0
 23 31  2  0  0  0  0
 23 55  1  0  0  0  0
 24 83  1  0  0  0  0
 25 84  1  0  0  0  0
 26 28  2  0  0  0  0
 26 83  1  0  0  0  0
 27 85  1  0  0  0  0
 28 86  1  0  0  0  0
 29 66  2  0  0  0  0
 30 50  1  0  0  0  0
 30 67  2  0  0  0  0
 31 61  1  0  0  0  0
 31 67  1  0  0  0  0
 32 68  1  0  0  0  0
 32 71  1  0  0  0  0
 33 72  1  0  0  0  0
 33 78  2  0  0  0  0
 34 51  1  0  0  0  0
 34 73  1  0  0  0  0
 34 79  2  0  0  0  0
 35 63  1  0  0  0  0
 35 69  1  0  0  0  0
 35 80  2  0  0  0  0
 36 64  1  0  0  0  0
 36 74  1  0  0  0  0
 36 81  2  0  0  0  0
 37 70  1  0  0  0  0
 37 75  1  0  0  0  0
 37 82  2  0  0  0  0
 38 41  1  0  0  0  0
 39 51  1  0  0  0  0
 40 69  1  0  0  0  0
 41 43  1  0  0  0  0
 42 44  1  0  0  0  0
 42 46  1  0  0  0  0
 43 49  1  0  0  0  0
 44 53  1  0  0  0  0
 45 50  1  0  0  0  0
 45 52  1  0  0  0  0
 46 70  1  0  0  0  0
 47 53  1  0  0  0  0
 47 70  1  0  0  0  0
 48 52  1  0  0  0  0
 48 76  1  0  0  0  0
 49 73  1  0  0  0  0
 50 76  1  0  0  0  0
 51 69  1  0  0  0  0
 52 62  1  0  0  0  0
 53 68  1  0  0  0  0
 56 64  1  0  0  0  0
 57 65  1  0  0  0  0
 58 65  1  0  0  0  0
 59 65  1  0  0  0  0
 60 77  1  0  0  0  0
 61 75  1  0  0  0  0
 62 84  1  0  0  0  0
 63 65  1  0  0  0  0
 63 74  1  0  0  0  0
 64 77  1  0  0  0  0
 66 68  1  0  0  0  0
M  CHG  2  76   1  77   1
M  ISO  4  37 100  62 101  75 100  84 101
M  END
> <Batch ID>
0173

> <Smiles>
CNC(C)C(=O)NC(C(=O)N1Cc2cc([101O:1][101CH2:1]C3CNC(c4cc(C)c(C)c(C[100NH:0][100C:0](=O)N5CCCC(n6nc(-c7ccc(Oc8ccc(F)cc8F)cc7)c(C(N)=O)c6N)C5)n4)C3)ccc2CC1C(=O)NC1CCCc2ccccc21)C(C)(C)C

> <Shape>
0.195

> <Color>
0.076

> <Negative vol penalty>
0.000

$$$$

  -OEChem-04052322423D

 86 96  0     1  0  0  0  0  0999 V2000
  -26.8463  -35.5037   22.2129 C   0  0  0  0  0  0  0  0  0  0  0  0
  -27.2726  -34.1876   22.0658 C   0  0  0  0  0  0  0  0  0  0  0  0
  -24.8545  -14.6470   22.2657 C   0  0  0  0  0  0  0  0  0  0  0  0
  -26.7007  -14.9396   20.7350 C   0  0  0  0  0  0  0  0  0  0  0  0
  -25.6418  -35.7769   22.8596 C   0  0  0  0  0  0  0  0  0  0  0  0
  -26.4950  -33.1439   22.5663 C   0  0  0  0  0  0  0  0  0  0  0  0
  -26.0649  -29.3006   19.2970 C   0  0  0  0  0  0  0  0  0  0  0  0
  -24.3892  -13.5778   21.5002 C   0  0  0  0  0  0  0  0  0  0  0  0
  -26.2354  -13.8704   19.9695 C   0  0  0  0  0  0  0  0  0  0  0  0
  -27.1496  -28.4314   19.1898 C   0  0  0  0  0  0  0  0  0  0  0  0
  -25.1387  -10.3086   21.0721 C   0  0  0  0  0  0  0  0  0  0  0  0
  -24.7393   -9.1544   21.7457 C   0  0  0  0  0  0  0  0  0  0  0  0
  -26.0192  -26.8538   20.6224 C   0  0  0  0  0  0  0  0  0  0  0  0
  -22.5183   -9.3843   20.8230 C   0  0  0  0  0  0  0  0  0  0  0  0
  -26.0102  -15.3279   21.8831 C   0  0  0  0  0  0  0  0  0  0  0  0
  -27.3942  -16.3773   23.7515 C   0  0  0  0  0  0  0  0  0  0  0  0
  -24.8443  -34.7355   23.3598 C   0  0  0  0  0  0  0  0  0  0  0  0
  -24.9519  -28.9571   20.0778 C   0  0  0  0  0  0  0  0  0  0  0  0
  -25.2793  -33.4036   23.2215 C   0  0  0  0  0  0  0  0  0  0  0  0
  -24.9205  -27.7193   20.7358 C   0  0  0  0  0  0  0  0  0  0  0  0
  -32.1965  -23.7181   19.0068 C   0  0  0  0  0  0  0  0  0  0  0  0
  -32.1003  -24.5239   17.8778 C   0  0  0  0  0  0  0  0  0  0  0  0
  -31.1513  -25.5393   17.8341 C   0  0  0  0  0  0  0  0  0  0  0  0
  -25.0797  -13.1895   20.3522 C   0  0  0  0  0  0  0  0  0  0  0  0
  -27.1282  -27.2090   19.8549 C   0  0  0  0  0  0  0  0  0  0  0  0
  -24.2279  -11.0008   20.2739 C   0  0  0  0  0  0  0  0  0  0  0  0
  -23.4292   -8.6922   21.6212 C   0  0  0  0  0  0  0  0  0  0  0  0
  -22.9177  -10.5386   20.1494 C   0  0  0  0  0  0  0  0  0  0  0  0
  -26.4910  -16.4328   22.6731 C   0  0  0  0  0  0  0  0  0  0  0  0
  -31.3275  -23.9665   20.0569 C   0  0  0  0  0  0  0  0  0  0  0  0
  -30.3289  -25.7060   18.9366 C   0  0  0  0  0  0  0  0  0  0  0  0
  -27.5249  -17.6829   24.1575 C   0  0  0  0  0  0  0  0  0  0  0  0
  -28.0559  -15.2467   24.3342 C   0  0  0  0  0  0  0  0  0  0  0  0
  -23.5555  -30.1847   22.6559 C   0  0  0  0  0  0  0  0  0  0  0  0
  -21.3403  -27.8883   22.0708 C   0  0  0  0  0  0  0  0  0  0  0  0
  -20.5979  -24.8721   20.6573 C   0  0  0  0  0  0  0  0  0  0  0  0
  -28.2370  -23.1062   22.7785 C   0  0  0  0  0  0  0  0  0  0  0  0
  -23.5730  -35.0828   24.0932 C   0  0  0  0  0  0  0  0  0  0  0  0
  -23.7784  -29.8943   20.1615 C   0  0  0  0  0  0  0  0  0  0  0  0
  -23.7408  -27.2945   21.5702 C   0  0  0  0  0  0  0  0  0  0  0  0
  -22.6253  -33.8982   24.2640 C   0  0  0  0  0  0  0  0  0  0  0  0
  -24.8944  -21.8033   22.9479 C   0  0  0  0  0  0  0  0  0  0  0  0
  -33.2236  -21.5626   18.0204 C   0  0  0  0  0  0  0  0  0  0  0  0
  -32.7308  -21.2191   19.3913 C   0  0  0  0  0  0  0  0  0  0  0  0
  -23.3885  -32.6696   24.7486 C   0  0  0  0  0  0  0  0  0  0  0  0
  -25.0782  -20.2894   22.9249 C   0  0  0  0  0  0  0  0  0  0  0  0
  -25.9478  -22.4921   22.0909 C   0  0  0  0  0  0  0  0  0  0  0  0
  -30.6980  -23.7638   22.6846 C   0  0  0  0  0  0  0  0  0  0  0  0
  -30.2779  -21.9907   21.5866 C   0  0  0  0  0  0  0  0  0  0  0  0
  -27.5634  -20.6577   22.5136 C   0  0  0  0  0  0  0  0  0  0  0  0
  -33.2008  -22.6187   19.0938 C   0  0  0  0  0  0  0  0  0  0  0  0
  -24.4515  -32.2428   23.7291 C   0  0  1  0  0  0  0  0  0  0  0  0
  -31.3159  -23.1281   21.4166 C   0  0  0  0  0  0  0  0  0  0  0  0
  -22.9170  -29.6640   21.3994 C   0  0  1  0  0  0  0  0  0  0  0  0
  -26.5046  -19.9148   23.3525 C   0  0  2  0  0  0  0  0  0  0  0  0
  -33.0134  -24.3003   16.7148 C   0  0  0  0  0  0  0  0  0  0  0  0
  -31.0234  -26.4215   16.6379 C   0  0  0  0  0  0  0  0  0  0  0  0
  -18.7143  -23.2376   20.3784 C   0  0  0  0  0  0  0  0  0  0  0  0
  -21.7152  -26.9677   24.9556 C   0  0  0  0  0  0  0  0  0  0  0  0
  -20.5737  -24.8243   24.3465 C   0  0  0  0  0  0  0  0  0  0  0  0
  -19.3422  -26.9862   24.1665 C   0  0  0  0  0  0  0  0  0  0  0  0
  -20.6574  -25.1290   17.7095 C   0  0  0  0  0  0  0  0  0  0  0  0
  -29.2847  -26.7834   18.9470 C   0  0  0  0  0  0  0  0  0  1  0  0
  -21.1559  -26.4495   22.4889 C   0  0  1  0  0  0  0  0  0  0  0  0
  -19.4432  -24.4292   19.7770 C   0  0  2  0  0  0  0  0  0  0  0  0
  -20.7200  -26.3155   23.9753 C   0  0  0  0  0  0  0  0  0  0  0  0
  -26.0770  -17.6753   22.4106 N   0  0  0  0  0  0  0  0  0  0  0  0
  -30.3928  -24.9432   20.0509 N   0  0  0  0  0  0  0  0  0  0  0  0
  -26.7230  -18.4126   23.3300 N   0  0  0  0  0  0  0  0  0  0  0  0
  -22.6205  -28.2480   21.6262 N   0  0  0  0  0  0  0  0  0  0  0  0
  -27.3088  -22.1045   22.4736 N   0  0  0  0  0  0  0  0  0  0  0  0
  -29.5628  -22.8721   22.4922 N   0  0  0  0  0  0  0  0  0  0  0  0
  -28.2463  -18.2665   25.1380 N   0  0  0  0  0  0  0  0  0  0  0  0
  -27.8089  -13.9769   23.7948 N   0  0  0  0  0  0  0  0  0  0  0  0
  -23.8380  -31.5369   22.6247 N   0  0  0  0  0  0  0  0  0  0  0  0
  -20.2186  -25.8645   21.5362 N   0  0  0  0  0  0  0  0  0  0  0  0
  -19.9401  -24.0432   18.4260 N   0  3  0  0  0  0  0  0  0  0  0  0
  -28.8301  -15.3571   25.3149 O   0  0  0  0  0  0  0  0  0  0  0  0
  -23.7741  -29.4167   23.5855 O   0  0  0  0  0  0  0  0  0  0  0  0
  -20.3820  -28.6627   22.1296 O   0  0  0  0  0  0  0  0  0  0  0  0
  -21.7228  -24.3837   20.5760 O   0  0  0  0  0  0  0  0  0  0  0  0
  -27.8909  -24.1916   23.2634 O   0  0  0  0  0  0  0  0  0  0  0  0
  -24.6261  -12.1461   19.6051 O   0  0  0  0  0  0  0  0  0  0  0  0
  -28.1859  -26.3590   19.7526 O   0  0  0  0  0  0  0  0  0  1  0  0
  -23.0462   -7.5829   22.2670 F   0  0  0  0  0  0  0  0  0  0  0  0
  -22.0385  -11.1986   19.3831 F   0  0  0  0  0  0  0  0  0  0  0  0
  1  2  1  0  0  0  0
  1  5  2  0  0  0  0
  2  6  2  0  0  0  0
  3  8  2  0  0  0  0
  3 15  1  0  0  0  0
  4  9  1  0  0  0  0
  4 15  2  0  0  0  0
  5 17  1  0  0  0  0
  6 19  1  0  0  0  0
  7 10  2  0  0  0  0
  7 18  1  0  0  0  0
  8 24  1  0  0  0  0
  9 24  2  0  0  0  0
 10 25  1  0  0  0  0
 11 12  2  0  0  0  0
 11 26  1  0  0  0  0
 12 27  1  0  0  0  0
 13 20  1  0  0  0  0
 13 25  2  0  0  0  0
 14 27  2  0  0  0  0
 14 28  1  0  0  0  0
 15 29  1  0  0  0  0
 16 29  1  0  0  0  0
 16 32  2  0  0  0  0
 16 33  1  0  0  0  0
 17 19  2  0  0  0  0
 17 38  1  0  0  0  0
 18 20  2  0  0  0  0
 18 39  1  0  0  0  0
 19 52  1  0  0  0  0
 20 40  1  0  0  0  0
 21 22  2  0  0  0  0
 21 30  1  0  0  0  0
 21 51  1  0  0  0  0
 22 23  1  0  0  0  0
 22 56  1  0  0  0  0
 23 31  2  0  0  0  0
 23 57  1  0  0  0  0
 24 83  1  0  0  0  0
 25 84  1  0  0  0  0
 26 28  2  0  0  0  0
 26 83  1  0  0  0  0
 27 85  1  0  0  0  0
 28 86  1  0  0  0  0
 29 67  2  0  0  0  0
 30 53  1  0  0  0  0
 30 68  2  0  0  0  0
 31 63  1  0  0  0  0
 31 68  1  0  0  0  0
 32 69  1  0  0  0  0
 32 73  1  0  0  0  0
 33 74  1  0  0  0  0
 33 78  2  0  0  0  0
 34 54  1  0  0  0  0
 34 75  1  0  0  0  0
 34 79  2  0  0  0  0
 35 64  1  0  0  0  0
 35 70  1  0  0  0  0
 35 80  2  0  0  0  0
 36 65  1  0  0  0  0
 36 76  1  0  0  0  0
 36 81  2  0  0  0  0
 37 71  1  0  0  0  0
 37 72  1  0  0  0  0
 37 82  2  0  0  0  0
 38 41  1  0  0  0  0
 39 54  1  0  0  0  0
 40 70  1  0  0  0  0
 41 45  1  0  0  0  0
 42 46  1  0  0  0  0
 42 47  1  0  0  0  0
 43 44  1  0  0  0  0
 43 51  1  0  0  0  0
 44 51  1  0  0  0  0
 45 52  1  0  0  0  0
 46 55  1  0  0  0  0
 47 71  1  0  0  0  0
 48 53  1  0  0  0  0
 48 72  1  0  0  0  0
 49 53  1  0  0  0  0
 49 72  1  0  0  0  0
 50 55  1  0  0  0  0
 50 71  1  0  0  0  0
 52 75  1  0  0  0  0
 54 70  1  0  0  0  0
 55 69  1  0  0  0  0
 58 65  1  0  0  0  0
 59 66  1  0  0  0  0
 60 66  1  0  0  0  0
 61 66  1  0  0  0  0
 62 77  1  0  0  0  0
 63 84  1  0  0  0  0
 64 66  1  0  0  0  0
 64 76  1  0  0  0  0
 65 77  1  0  0  0  0
 67 69  1  0  0  0  0
M  CHG  1  77   1
M  ISO  4  37 100  63 101  72 100  84 101
M  END
> <Batch ID>
0173

> <Smiles>
CNC(C)C(=O)NC(C(=O)N1Cc2cc([101O:1][101CH2:1]c3nc(C4C[100N:0]([100C:0](=O)N5CCCC(n6nc(-c7ccc(Oc8ccc(F)cc8F)cc7)c(C(N)=O)c6N)C5)C4)c(C4CC4)c(C)c3C)ccc2CC1C(=O)NC1CCCc2ccccc21)C(C)(C)C

> <Shape>
0.240

> <Color>
0.066

> <Negative vol penalty>
0.000

$$$$

  -OEChem-04052322423D

 94104  0     1  0  0  0  0  0999 V2000
  -28.5738  -33.3171   26.2174 C   0  0  0  0  0  0  0  0  0  0  0  0
  -29.0575  -32.1140   25.7134 C   0  0  0  0  0  0  0  0  0  0  0  0
  -23.2499   -9.7013   21.4858 C   0  0  0  0  0  0  0  0  0  0  0  0
  -23.9043  -10.7298   23.5717 C   0  0  0  0  0  0  0  0  0  0  0  0
  -27.2161  -33.6179   26.1174 C   0  0  0  0  0  0  0  0  0  0  0  0
  -28.1835  -31.2105   25.1100 C   0  0  0  0  0  0  0  0  0  0  0  0
  -29.3969  -27.5132   20.3809 C   0  0  0  0  0  0  0  0  0  0  0  0
  -22.5944   -8.6910   22.1896 C   0  0  0  0  0  0  0  0  0  0  0  0
  -23.2487   -9.7196   24.2755 C   0  0  0  0  0  0  0  0  0  0  0  0
  -29.7441  -26.1649   20.3095 C   0  0  0  0  0  0  0  0  0  0  0  0
  -23.4278   -5.8618   23.8405 C   0  0  0  0  0  0  0  0  0  0  0  0
  -23.6217   -4.5471   23.4169 C   0  0  0  0  0  0  0  0  0  0  0  0
  -27.4313  -25.5959   19.9263 C   0  0  0  0  0  0  0  0  0  0  0  0
  -21.2496   -4.3268   23.0149 C   0  0  0  0  0  0  0  0  0  0  0  0
  -23.9049  -10.7206   22.1769 C   0  0  0  0  0  0  0  0  0  0  0  0
  -24.0401  -12.9887   21.0171 C   0  0  0  0  0  0  0  0  0  0  0  0
  -26.3265  -32.7218   25.5038 C   0  0  0  0  0  0  0  0  0  0  0  0
  -28.0605  -27.9128   20.2362 C   0  0  0  0  0  0  0  0  0  0  0  0
  -26.8123  -31.4989   25.0028 C   0  0  0  0  0  0  0  0  0  0  0  0
  -27.0702  -26.9502   19.9938 C   0  0  0  0  0  0  0  0  0  0  0  0
  -22.5938   -8.7002   23.5844 C   0  0  0  0  0  0  0  0  0  0  0  0
  -28.7609  -25.2057   20.0850 C   0  0  0  0  0  0  0  0  0  0  0  0
  -22.1448   -6.4090   23.8514 C   0  0  0  0  0  0  0  0  0  0  0  0
  -22.5327   -3.7796   23.0040 C   0  0  0  0  0  0  0  0  0  0  0  0
  -21.0557   -5.6415   23.4385 C   0  0  0  0  0  0  0  0  0  0  0  0
  -24.5828  -11.7642   21.4505 C   0  0  0  0  0  0  0  0  0  0  0  0
  -25.0810  -13.6194   20.3805 C   0  0  0  0  0  0  0  0  0  0  0  0
  -31.6600  -21.3742   16.9548 C   0  0  0  0  0  0  0  0  0  0  0  0
  -30.7547  -22.2540   17.4342 C   0  0  0  0  0  0  0  0  0  0  0  0
  -30.3517  -22.2180   18.8556 C   0  0  0  0  0  0  0  0  0  0  0  0
  -30.2975  -21.0126   19.4978 C   0  0  0  0  0  0  0  0  0  0  0  0
  -32.1616  -20.2643   17.8410 C   0  0  0  0  0  0  0  0  0  0  0  0
  -22.7138  -13.5096   21.1758 C   0  0  0  0  0  0  0  0  0  0  0  0
  -25.9470  -29.3897   22.0951 C   0  0  0  0  0  0  0  0  0  0  0  0
  -24.1222  -29.3170   19.4142 C   0  0  0  0  0  0  0  0  0  0  0  0
  -23.4377  -27.8403   16.4146 C   0  0  0  0  0  0  0  0  0  0  0  0
  -30.4471  -15.1365   20.1574 C   0  0  0  0  0  0  0  0  0  0  0  0
  -24.8596  -33.0699   25.4613 C   0  0  0  0  0  0  0  0  0  0  0  0
  -27.7061  -29.3736   20.2892 C   0  0  0  0  0  0  0  0  0  0  0  0
  -25.6239  -27.3289   19.8114 C   0  0  0  0  0  0  0  0  0  0  0  0
  -24.0614  -32.2240   24.4726 C   0  0  0  0  0  0  0  0  0  0  0  0
  -29.6190  -11.8816   18.9756 C   0  0  0  0  0  0  0  0  0  0  0  0
  -24.4168  -30.7484   24.6238 C   0  0  0  0  0  0  0  0  0  0  0  0
  -28.1932  -11.6598   19.4835 C   0  0  0  0  0  0  0  0  0  0  0  0
  -29.0508  -19.7966   17.4794 C   0  0  0  0  0  0  0  0  0  0  0  0
  -28.9366  -17.5063   18.3095 C   0  0  0  0  0  0  0  0  0  0  0  0
  -30.4604  -12.6657   19.9802 C   0  0  0  0  0  0  0  0  0  0  0  0
  -28.4448  -13.7230   20.9252 C   0  0  0  0  0  0  0  0  0  0  0  0
  -32.6517  -21.1560   20.6667 C   0  0  0  0  0  0  0  0  0  0  0  0
  -25.8997  -30.5040   24.3192 C   0  0  1  0  0  0  0  0  0  0  0  0
  -31.1167  -20.8503   20.8082 C   0  0  1  0  0  0  0  0  0  0  0  0
  -26.2422  -29.6209   20.6401 C   0  0  1  0  0  0  0  0  0  0  0  0
  -27.5417  -12.9851   19.9222 C   0  0  2  0  0  0  0  0  0  0  0  0
  -30.0511  -19.6772   18.6780 C   0  0  2  0  0  0  0  0  0  0  0  0
  -28.5764  -18.3794   17.1039 C   0  0  0  0  0  0  0  0  0  0  0  0
  -29.3839  -18.4534   19.4559 C   0  0  1  0  0  0  0  0  0  0  0  0
  -30.1733  -23.3120   16.5407 C   0  0  0  0  0  0  0  0  0  0  0  0
  -30.5358  -21.5919   22.0187 C   0  0  0  0  0  0  0  0  0  0  0  0
  -29.3021  -17.8734   15.8446 C   0  0  0  0  0  0  0  0  0  0  0  0
  -27.0667  -18.3639   16.8256 C   0  0  0  0  0  0  0  0  0  0  0  0
  -28.1511  -18.8939   20.2772 C   0  0  0  0  0  0  0  0  0  0  0  0
  -21.8639  -27.9779   14.4648 C   0  0  0  0  0  0  0  0  0  0  0  0
  -21.9373  -27.9999   21.0878 C   0  0  0  0  0  0  0  0  0  0  0  0
  -20.8166  -27.3124   18.9572 C   0  0  0  0  0  0  0  0  0  0  0  0
  -21.1187  -29.7326   19.4809 C   0  0  0  0  0  0  0  0  0  0  0  0
  -34.8641  -19.9812   20.2489 C   0  0  0  0  0  0  0  0  0  0  0  0
  -25.6456  -28.3926   14.5228 C   0  0  0  0  0  0  0  0  0  0  0  0
  -30.3903  -23.5637   19.5329 C   0  0  0  0  0  0  0  0  0  1  0  0
  -30.2786  -17.6020   20.3855 C   0  0  0  0  0  0  0  0  0  0  0  0
  -23.1283  -28.3464   18.8234 C   0  0  1  0  0  0  0  0  0  0  0  0
  -23.2010  -28.4260   15.0342 C   0  0  2  0  0  0  0  0  0  0  0  0
  -21.7771  -28.3402   19.5927 C   0  0  0  0  0  0  0  0  0  0  0  0
  -25.8685  -11.6232   21.1172 N   0  0  0  0  0  0  0  0  0  0  0  0
  -31.4018  -19.2671   18.2252 N   0  0  0  0  0  0  0  0  0  0  0  0
  -26.1424  -12.7673   20.4676 N   0  0  0  0  0  0  0  0  0  0  0  0
  -33.4023  -20.4246   18.4297 N   0  0  0  0  0  0  0  0  0  0  0  0
  -25.3267  -28.7693   19.8780 N   0  0  0  0  0  0  0  0  0  0  0  0
  -29.7873  -13.9120   20.3537 N   0  0  0  0  0  0  0  0  0  0  0  0
  -25.1828  -14.8141   19.7603 N   0  0  0  0  0  0  0  0  0  0  0  0
  -21.7672  -12.7311   21.8557 N   0  0  0  0  0  0  0  0  0  0  0  0
  -26.1290  -30.5050   22.8903 N   0  0  0  0  0  0  0  0  0  0  0  0
  -23.0102  -28.6921   17.4110 N   0  0  0  0  0  0  0  0  0  0  0  0
  -29.7359  -16.2698   20.5322 N   0  0  0  0  0  0  0  0  0  0  0  0
  -33.4179  -20.0835   19.8936 N   0  3  2  0  0  0  0  0  0  0  0  0
  -24.2781  -27.9970   14.0979 N   0  3  0  0  0  0  0  0  0  0  0  0
  -22.3735  -14.6250   20.7136 O   0  0  0  0  0  0  0  0  0  0  0  0
  -25.5798  -28.2818   22.4684 O   0  0  0  0  0  0  0  0  0  0  0  0
  -23.8433  -30.5179   19.4558 O   0  0  0  0  0  0  0  0  0  0  0  0
  -23.9472  -26.7359   16.5912 O   0  0  0  0  0  0  0  0  0  0  0  0
  -31.5834  -15.2143   19.6782 O   0  0  0  0  0  0  0  0  0  0  0  0
  -21.9540   -7.7147   24.2715 O   0  0  0  0  0  0  0  0  0  0  0  0
  -29.1004  -23.8751   20.0148 O   0  0  0  0  0  0  0  0  0  1  0  0
  -22.7193   -2.5176   22.5958 F   0  0  0  0  0  0  0  0  0  0  0  0
  -19.8209   -6.1621   23.4456 F   0  0  0  0  0  0  0  0  0  0  0  0
  1  2  1  0  0  0  0
  1  5  2  0  0  0  0
  2  6  2  0  0  0  0
  3  8  2  0  0  0  0
  3 15  1  0  0  0  0
  4  9  1  0  0  0  0
  4 15  2  0  0  0  0
  5 17  1  0  0  0  0
  6 19  1  0  0  0  0
  7 10  2  0  0  0  0
  7 18  1  0  0  0  0
  8 21  1  0  0  0  0
  9 21  2  0  0  0  0
 10 22  1  0  0  0  0
 11 12  2  0  0  0  0
 11 23  1  0  0  0  0
 12 24  1  0  0  0  0
 13 20  1  0  0  0  0
 13 22  2  0  0  0  0
 14 24  2  0  0  0  0
 14 25  1  0  0  0  0
 15 26  1  0  0  0  0
 16 26  1  0  0  0  0
 16 27  2  0  0  0  0
 16 33  1  0  0  0  0
 17 19  2  0  0  0  0
 17 38  1  0  0  0  0
 18 20  2  0  0  0  0
 18 39  1  0  0  0  0
 19 50  1  0  0  0  0
 20 40  1  0  0  0  0
 21 91  1  0  0  0  0
 22 92  1  0  0  0  0
 23 25  2  0  0  0  0
 23 91  1  0  0  0  0
 24 93  1  0  0  0  0
 25 94  1  0  0  0  0
 26 73  2  0  0  0  0
 27 75  1  0  0  0  0
 27 79  1  0  0  0  0
 28 29  2  0  0  0  0
 28 32  1  0  0  0  0
 29 30  1  0  0  0  0
 29 57  1  0  0  0  0
 30 31  2  0  0  0  0
 30 68  1  0  0  0  0
 31 51  1  0  0  0  0
 31 54  1  0  0  0  0
 32 74  2  0  0  0  0
 32 76  1  0  0  0  0
 33 80  1  0  0  0  0
 33 86  2  0  0  0  0
 34 52  1  0  0  0  0
 34 81  1  0  0  0  0
 34 87  2  0  0  0  0
 35 70  1  0  0  0  0
 35 77  1  0  0  0  0
 35 88  2  0  0  0  0
 36 71  1  0  0  0  0
 36 82  1  0  0  0  0
 36 89  2  0  0  0  0
 37 78  1  0  0  0  0
 37 83  1  0  0  0  0
 37 90  2  0  0  0  0
 38 41  1  0  0  0  0
 39 52  1  0  0  0  0
 40 77  1  0  0  0  0
 41 43  1  0  0  0  0
 42 44  1  0  0  0  0
 42 47  1  0  0  0  0
 43 50  1  0  0  0  0
 44 53  1  0  0  0  0
 45 54  1  0  0  0  0
 45 55  1  0  0  0  0
 46 55  1  0  0  0  0
 46 56  1  0  0  0  0
 47 78  1  0  0  0  0
 48 53  1  0  0  0  0
 48 78  1  0  0  0  0
 49 51  1  0  0  0  0
 49 84  1  0  0  0  0
 50 81  1  0  0  0  0
 51 58  1  0  0  0  0
 52 77  1  0  0  0  0
 53 75  1  0  0  0  0
 54 56  1  0  0  0  0
 54 74  1  0  0  0  0
 55 59  1  0  0  0  0
 55 60  1  0  0  0  0
 56 61  1  0  0  0  0
 56 69  1  0  0  0  0
 62 71  1  0  0  0  0
 63 72  1  0  0  0  0
 64 72  1  0  0  0  0
 65 72  1  0  0  0  0
 66 84  1  0  0  0  0
 67 85  1  0  0  0  0
 68 92  1  0  0  0  0
 69 83  1  0  0  0  0
 70 72  1  0  0  0  0
 70 82  1  0  0  0  0
 71 85  1  0  0  0  0
 73 75  1  0  0  0  0
 76 84  1  0  0  0  0
M  CHG  2  84   1  85   1
M  ISO  4  37 100  68 101  83 100  92 101
M  END
> <Batch ID>
0173

> <Smiles>
CNC(C)C(=O)NC(C(=O)N1Cc2cc([101O:1][101CH2:1]C3=C4C(C)CN(C)N=C(C=C3C)NC43CC(C)(C)CC3(C)C[100NH:0][100C:0](=O)N3CCCC(n4nc(-c5ccc(Oc6ccc(F)cc6F)cc5)c(C(N)=O)c4N)C3)ccc2CC1C(=O)NC1CCCc2ccccc21)C(C)(C)C

> <Shape>
0.356

> <Color>
0.147

> <Negative vol penalty>
0.000

$$$$

  -OEChem-04052322423D

 84 93  0     1  0  0  0  0  0999 V2000
  -29.1215  -36.0993   24.0824 C   0  0  0  0  0  0  0  0  0  0  0  0
  -29.3280  -34.7989   23.6334 C   0  0  0  0  0  0  0  0  0  0  0  0
  -23.1815  -10.4885   21.6690 C   0  0  0  0  0  0  0  0  0  0  0  0
  -24.7566   -8.6636   21.5086 C   0  0  0  0  0  0  0  0  0  0  0  0
  -27.8960  -36.4552   24.6441 C   0  0  0  0  0  0  0  0  0  0  0  0
  -28.3096  -33.8532   23.7469 C   0  0  0  0  0  0  0  0  0  0  0  0
  -27.0653  -29.2968   19.8486 C   0  0  0  0  0  0  0  0  0  0  0  0
  -22.1267   -9.5762   21.6922 C   0  0  0  0  0  0  0  0  0  0  0  0
  -23.7018   -7.7512   21.5319 C   0  0  0  0  0  0  0  0  0  0  0  0
  -27.3856  -27.9400   19.8587 C   0  0  0  0  0  0  0  0  0  0  0  0
  -21.4444   -4.9267   21.9125 C   0  0  0  0  0  0  0  0  0  0  0  0
  -21.5719   -3.8077   22.7354 C   0  0  0  0  0  0  0  0  0  0  0  0
  -26.8967  -21.4084   19.6866 C   0  0  0  0  0  0  0  0  0  0  0  0
  -25.2368  -27.4461   20.8373 C   0  0  0  0  0  0  0  0  0  0  0  0
  -21.7812   -5.2491   24.6630 C   0  0  0  0  0  0  0  0  0  0  0  0
  -27.1908  -21.6250   22.0368 C   0  0  0  0  0  0  0  0  0  0  0  0
  -24.4965  -10.0322   21.5771 C   0  0  0  0  0  0  0  0  0  0  0  0
  -26.2926  -11.4864   22.6574 C   0  0  0  0  0  0  0  0  0  0  0  0
  -26.8587  -35.5160   24.7558 C   0  0  0  0  0  0  0  0  0  0  0  0
  -25.8305  -29.7403   20.3437 C   0  0  0  0  0  0  0  0  0  0  0  0
  -27.0695  -34.1965   24.3119 C   0  0  0  0  0  0  0  0  0  0  0  0
  -27.3020  -20.8499   20.8937 C   0  0  0  0  0  0  0  0  0  0  0  0
  -24.9021  -28.8088   20.8300 C   0  0  0  0  0  0  0  0  0  0  0  0
  -26.3996  -22.7067   19.6599 C   0  0  0  0  0  0  0  0  0  0  0  0
  -22.3868   -8.2075   21.6237 C   0  0  0  0  0  0  0  0  0  0  0  0
  -26.4725  -27.0147   20.3557 C   0  0  0  0  0  0  0  0  0  0  0  0
  -21.4853   -6.2070   22.4648 C   0  0  0  0  0  0  0  0  0  0  0  0
  -21.7403   -3.9689   24.1107 C   0  0  0  0  0  0  0  0  0  0  0  0
  -21.6537   -6.3681   23.8401 C   0  0  0  0  0  0  0  0  0  0  0  0
  -25.5865  -10.9743   21.5524 C   0  0  0  0  0  0  0  0  0  0  0  0
  -26.3286  -23.3986   20.8582 C   0  0  0  0  0  0  0  0  0  0  0  0
  -27.2217  -12.3354   22.1075 C   0  0  0  0  0  0  0  0  0  0  0  0
  -26.1239  -11.2184   24.0558 C   0  0  0  0  0  0  0  0  0  0  0  0
  -24.9202  -31.6494   22.7165 C   0  0  0  0  0  0  0  0  0  0  0  0
  -21.9767  -31.1985   21.4299 C   0  0  0  0  0  0  0  0  0  0  0  0
  -19.9059  -29.2453   19.5476 C   0  0  0  0  0  0  0  0  0  0  0  0
  -28.7588  -16.2270   18.5701 C   0  0  0  0  0  0  0  0  0  0  0  0
  -25.5676  -35.9350   25.4132 C   0  0  0  0  0  0  0  0  0  0  0  0
  -25.4894  -31.2047   20.3011 C   0  0  0  0  0  0  0  0  0  0  0  0
  -23.5549  -29.2315   21.3541 C   0  0  0  0  0  0  0  0  0  0  0  0
  -24.4118  -34.9719   25.1547 C   0  0  0  0  0  0  0  0  0  0  0  0
  -28.6465  -13.0106   17.3090 C   0  0  0  0  0  0  0  0  0  0  0  0
  -24.8602  -33.5299   25.3702 C   0  0  0  0  0  0  0  0  0  0  0  0
  -27.8998  -12.2239   18.3861 C   0  0  0  0  0  0  0  0  0  0  0  0
  -26.8033  -18.3937   20.5192 C   0  0  0  0  0  0  0  0  0  0  0  0
  -29.1446  -19.2804   20.1423 C   0  0  0  0  0  0  0  0  0  0  0  0
  -28.0140  -14.3812   17.0973 C   0  0  0  0  0  0  0  0  0  0  0  0
  -27.3712  -16.9720   20.5551 C   0  0  0  0  0  0  0  0  0  0  0  0
  -29.6588  -17.8454   20.2131 C   0  0  0  0  0  0  0  0  0  0  0  0
  -27.1859  -14.4322   19.4275 C   0  0  0  0  0  0  0  0  0  0  0  0
  -27.8480  -19.4359   20.9575 C   0  0  0  0  0  0  0  0  0  0  0  0
  -25.9807  -33.1489   24.3951 C   0  0  1  0  0  0  0  0  0  0  0  0
  -24.4090  -31.5959   21.3046 C   0  0  1  0  0  0  0  0  0  0  0  0
  -27.7892  -13.0370   19.6880 C   0  0  1  0  0  0  0  0  0  0  0  0
  -25.9653  -23.3119   18.3697 C   0  0  0  0  0  0  0  0  0  0  0  0
  -17.5458  -29.1186   18.7040 C   0  0  0  0  0  0  0  0  0  0  0  0
  -21.0352  -30.3351   24.2008 C   0  0  0  0  0  0  0  0  0  0  0  0
  -19.0058  -29.3394   23.1245 C   0  0  0  0  0  0  0  0  0  0  0  0
  -19.4261  -31.7927   22.9595 C   0  0  0  0  0  0  0  0  0  0  0  0
  -20.7885  -29.3170   16.7236 C   0  0  0  0  0  0  0  0  0  0  0  0
  -25.8022  -24.7963   20.8901 C   0  0  0  0  0  0  0  0  0  1  0  0
  -20.8654  -30.1963   21.6283 C   0  0  1  0  0  0  0  0  0  0  0  0
  -18.9629  -29.5841   18.4072 C   0  0  2  0  0  0  0  0  0  0  0  0
  -20.1092  -30.4078   22.9703 C   0  0  0  0  0  0  0  0  0  0  0  0
  -26.7128  -22.8895   22.0502 N   0  0  0  0  0  0  0  0  0  0  0  0
  -26.0289  -11.4578   20.3886 N   0  0  0  0  0  0  0  0  0  0  0  0
  -27.0231  -12.2826   20.7592 N   0  0  0  0  0  0  0  0  0  0  0  0
  -23.2706  -30.6749   21.2972 N   0  0  0  0  0  0  0  0  0  0  0  0
  -27.9235  -15.1202   18.3565 N   0  0  0  0  0  0  0  0  0  0  0  0
  -28.6275  -16.8955   19.7966 N   0  0  0  0  0  0  0  0  0  0  0  0
  -28.1810  -13.1147   22.6507 N   0  0  0  0  0  0  0  0  0  0  0  0
  -25.1219  -10.3202   24.4478 N   0  0  0  0  0  0  0  0  0  0  0  0
  -25.4370  -32.8779   23.0816 N   0  0  0  0  0  0  0  0  0  0  0  0
  -20.0179  -30.2868   20.4442 N   0  0  0  0  0  0  0  0  0  0  0  0
  -19.4180  -28.9310   17.1473 N   0  3  0  0  0  0  0  0  0  0  0  0
  -26.8295  -11.7720   24.9327 O   0  0  0  0  0  0  0  0  0  0  0  0
  -24.8494  -30.6506   23.4229 O   0  0  0  0  0  0  0  0  0  0  0  0
  -21.7059  -32.4012   21.3869 O   0  0  0  0  0  0  0  0  0  0  0  0
  -20.4823  -28.1634   19.6362 O   0  0  0  0  0  0  0  0  0  0  0  0
  -29.5746  -16.5964   17.7161 O   0  0  0  0  0  0  0  0  0  0  0  0
  -21.3578   -7.3169   21.6466 O   0  0  0  0  0  0  0  0  0  0  0  0
  -26.7851  -25.6803   20.3674 O   0  0  0  0  0  0  0  0  0  1  0  0
  -21.8612   -2.8942   24.9010 F   0  0  0  0  0  0  0  0  0  0  0  0
  -21.6926   -7.5955   24.3766 F   0  0  0  0  0  0  0  0  0  0  0  0
  1  2  1  0  0  0  0
  1  5  2  0  0  0  0
  2  6  2  0  0  0  0
  3  8  2  0  0  0  0
  3 17  1  0  0  0  0
  4  9  1  0  0  0  0
  4 17  2  0  0  0  0
  5 19  1  0  0  0  0
  6 21  1  0  0  0  0
  7 10  2  0  0  0  0
  7 20  1  0  0  0  0
  8 25  1  0  0  0  0
  9 25  2  0  0  0  0
 10 26  1  0  0  0  0
 11 12  2  0  0  0  0
 11 27  1  0  0  0  0
 12 28  1  0  0  0  0
 13 22  2  0  0  0  0
 13 24  1  0  0  0  0
 14 23  1  0  0  0  0
 14 26  2  0  0  0  0
 15 28  2  0  0  0  0
 15 29  1  0  0  0  0
 16 22  1  0  0  0  0
 16 65  2  0  0  0  0
 17 30  1  0  0  0  0
 18 30  1  0  0  0  0
 18 32  2  0  0  0  0
 18 33  1  0  0  0  0
 19 21  2  0  0  0  0
 19 38  1  0  0  0  0
 20 23  2  0  0  0  0
 20 39  1  0  0  0  0
 21 52  1  0  0  0  0
 22 51  1  0  0  0  0
 23 40  1  0  0  0  0
 24 31  2  0  0  0  0
 24 55  1  0  0  0  0
 25 81  1  0  0  0  0
 26 82  1  0  0  0  0
 27 29  2  0  0  0  0
 27 81  1  0  0  0  0
 28 83  1  0  0  0  0
 29 84  1  0  0  0  0
 30 66  2  0  0  0  0
 31 61  1  0  0  0  0
 31 65  1  0  0  0  0
 32 67  1  0  0  0  0
 32 71  1  0  0  0  0
 33 72  1  0  0  0  0
 33 76  2  0  0  0  0
 34 53  1  0  0  0  0
 34 73  1  0  0  0  0
 34 77  2  0  0  0  0
 35 62  1  0  0  0  0
 35 68  1  0  0  0  0
 35 78  2  0  0  0  0
 36 63  1  0  0  0  0
 36 74  1  0  0  0  0
 36 79  2  0  0  0  0
 37 69  1  0  0  0  0
 37 70  1  0  0  0  0
 37 80  2  0  0  0  0
 38 41  1  0  0  0  0
 39 53  1  0  0  0  0
 40 68  1  0  0  0  0
 41 43  1  0  0  0  0
 42 44  1  0  0  0  0
 42 47  1  0  0  0  0
 43 52  1  0  0  0  0
 44 54  1  0  0  0  0
 45 48  1  0  0  0  0
 45 51  1  0  0  0  0
 46 49  1  0  0  0  0
 46 51  1  0  0  0  0
 47 69  1  0  0  0  0
 48 70  1  0  0  0  0
 49 70  1  0  0  0  0
 50 54  1  0  0  0  0
 50 69  1  0  0  0  0
 52 73  1  0  0  0  0
 53 68  1  0  0  0  0
 54 67  1  0  0  0  0
 56 63  1  0  0  0  0
 57 64  1  0  0  0  0
 58 64  1  0  0  0  0
 59 64  1  0  0  0  0
 60 75  1  0  0  0  0
 61 82  1  0  0  0  0
 62 64  1  0  0  0  0
 62 74  1  0  0  0  0
 63 75  1  0  0  0  0
 66 67  1  0  0  0  0
M  CHG  1  75   1
M  ISO  4  37 100  61 101  70 100  82 101
M  END
> <Batch ID>
0173

> <Smiles>
CNC(C)C(=O)NC(C(=O)N1Cc2cc([101O:1][101CH2:1]c3ncc(C4CC[100N:0]([100C:0](=O)N5CCCC(n6nc(-c7ccc(Oc8ccc(F)cc8F)cc7)c(C(N)=O)c6N)C5)CC4)cc3C)ccc2CC1C(=O)NC1CCCc2ccccc21)C(C)(C)C

> <Shape>
0.305

> <Color>
0.109

> <Negative vol penalty>
0.000

$$$$

  -OEChem-04052322423D

 81 90  0     1  0  0  0  0  0999 V2000
  -30.4197  -33.0807   24.7346 C   0  0  0  0  0  0  0  0  0  0  0  0
  -30.1403  -31.9522   23.9704 C   0  0  0  0  0  0  0  0  0  0  0  0
  -28.0090  -11.6182   23.1303 C   0  0  0  0  0  0  0  0  0  0  0  0
  -26.6564  -12.7457   21.4761 C   0  0  0  0  0  0  0  0  0  0  0  0
  -29.4699  -33.5655   25.6328 C   0  0  0  0  0  0  0  0  0  0  0  0
  -28.9114  -31.3072   24.1049 C   0  0  0  0  0  0  0  0  0  0  0  0
  -26.8550  -30.0946   19.6388 C   0  0  0  0  0  0  0  0  0  0  0  0
  -27.4821  -21.7671   18.8733 C   0  0  0  0  0  0  0  0  0  0  0  0
  -26.9130  -10.8353   23.4929 C   0  0  0  0  0  0  0  0  0  0  0  0
  -25.5604  -11.9628   21.8386 C   0  0  0  0  0  0  0  0  0  0  0  0
  -27.3645  -28.9724   18.9869 C   0  0  0  0  0  0  0  0  0  0  0  0
  -22.5018  -10.0121   22.0802 C   0  0  0  0  0  0  0  0  0  0  0  0
  -21.7319   -9.4594   21.0569 C   0  0  0  0  0  0  0  0  0  0  0  0
  -27.9155  -20.6926   19.6419 C   0  0  0  0  0  0  0  0  0  0  0  0
  -25.4968  -27.6696   19.7829 C   0  0  0  0  0  0  0  0  0  0  0  0
  -23.6706   -8.2715   20.2399 C   0  0  0  0  0  0  0  0  0  0  0  0
  -27.8807  -12.5735   22.1220 C   0  0  0  0  0  0  0  0  0  0  0  0
  -29.9756  -13.0936   20.7624 C   0  0  0  0  0  0  0  0  0  0  0  0
  -28.2249  -32.9318   25.7713 C   0  0  0  0  0  0  0  0  0  0  0  0
  -25.6663  -30.0099   20.3779 C   0  0  0  0  0  0  0  0  0  0  0  0
  -27.9445  -31.7833   25.0067 C   0  0  0  0  0  0  0  0  0  0  0  0
  -27.9709  -23.0426   19.1333 C   0  0  0  0  0  0  0  0  0  0  0  0
  -24.9730  -28.7928   20.4411 C   0  0  0  0  0  0  0  0  0  0  0  0
  -25.6887  -11.0075   22.8470 C   0  0  0  0  0  0  0  0  0  0  0  0
  -26.6869  -27.7590   19.0613 C   0  0  0  0  0  0  0  0  0  0  0  0
  -23.8562   -9.6946   22.1834 C   0  0  0  0  0  0  0  0  0  0  0  0
  -22.3162   -8.5891   20.1367 C   0  0  0  0  0  0  0  0  0  0  0  0
  -24.4405   -8.8243   21.2632 C   0  0  0  0  0  0  0  0  0  0  0  0
  -29.0123  -13.3829   21.7474 C   0  0  0  0  0  0  0  0  0  0  0  0
  -28.8842  -23.1893   20.1648 C   0  0  0  0  0  0  0  0  0  0  0  0
  -28.8315  -20.9445   20.6505 C   0  0  0  0  0  0  0  0  0  0  0  0
  -30.8314  -14.1674   20.7933 C   0  0  0  0  0  0  0  0  0  0  0  0
  -30.0867  -11.9561   19.8968 C   0  0  0  0  0  0  0  0  0  0  0  0
  -24.8885  -30.4301   23.4311 C   0  0  0  0  0  0  0  0  0  0  0  0
  -21.8711  -30.0149   22.3154 C   0  0  0  0  0  0  0  0  0  0  0  0
  -19.8246  -28.7330   19.9038 C   0  0  0  0  0  0  0  0  0  0  0  0
  -30.1777  -19.8613   22.4838 C   0  0  0  0  0  0  0  0  0  0  0  0
  -27.2483  -33.4649   26.7895 C   0  0  0  0  0  0  0  0  0  0  0  0
  -25.1159  -31.2361   21.0532 C   0  0  0  0  0  0  0  0  0  0  0  0
  -23.6822  -28.6541   21.2047 C   0  0  0  0  0  0  0  0  0  0  0  0
  -25.8260  -32.9439   26.6003 C   0  0  0  0  0  0  0  0  0  0  0  0
  -32.5316  -17.5168   23.7641 C   0  0  0  0  0  0  0  0  0  0  0  0
  -25.8355  -31.4350   26.3765 C   0  0  0  0  0  0  0  0  0  0  0  0
  -31.9872  -16.1647   23.2974 C   0  0  0  0  0  0  0  0  0  0  0  0
  -26.0340  -24.4745   18.1982 C   0  0  0  0  0  0  0  0  0  0  0  0
  -31.4083  -18.4802   24.1431 C   0  0  0  0  0  0  0  0  0  0  0  0
  -29.8344  -17.3174   22.6465 C   0  0  0  0  0  0  0  0  0  0  0  0
  -27.5136  -24.1935   18.3186 C   0  0  1  0  0  0  0  0  0  0  0  0
  -26.6133  -31.0706   25.1062 C   0  0  1  0  0  0  0  0  0  0  0  0
  -24.1679  -30.9101   22.2032 C   0  0  1  0  0  0  0  0  0  0  0  0
  -30.9266  -16.3354   22.1922 C   0  0  2  0  0  0  0  0  0  0  0  0
  -26.8983  -25.3908   19.0093 C   0  0  1  0  0  0  0  0  0  1  0  0
  -29.4422  -24.5359   20.4922 C   0  0  0  0  0  0  0  0  0  0  0  0
  -17.4020  -28.5209   19.2847 C   0  0  0  0  0  0  0  0  0  0  0  0
  -21.5262  -27.8346   24.4219 C   0  0  0  0  0  0  0  0  0  0  0  0
  -19.5135  -27.0359   23.1652 C   0  0  0  0  0  0  0  0  0  0  0  0
  -19.5443  -29.3330   24.1373 C   0  0  0  0  0  0  0  0  0  0  0  0
  -20.2172  -30.2351   17.3842 C   0  0  0  0  0  0  0  0  0  0  0  0
  -20.9625  -28.8275   22.1063 C   0  0  1  0  0  0  0  0  0  0  0  0
  -18.6701  -29.3463   19.1321 C   0  0  2  0  0  0  0  0  0  0  0  0
  -20.4119  -28.2595   23.4448 C   0  0  0  0  0  0  0  0  0  0  0  0
  -29.2349  -14.5490   22.3595 N   0  0  0  0  0  0  0  0  0  0  0  0
  -29.3287  -22.1695   20.9328 N   0  0  0  0  0  0  0  0  0  0  0  0
  -30.3478  -15.0019   21.7576 N   0  0  0  0  0  0  0  0  0  0  0  0
  -23.1879  -29.8800   21.8531 N   0  0  0  0  0  0  0  0  0  0  0  0
  -30.4440  -18.5953   23.0469 N   0  0  0  0  0  0  0  0  0  0  0  0
  -31.9430  -14.4698   20.0894 N   0  0  0  0  0  0  0  0  0  0  0  0
  -29.1224  -10.9439   19.9965 N   0  0  0  0  0  0  0  0  0  0  0  0
  -29.2684  -19.8425   21.4267 N   0  0  0  0  0  0  0  0  0  0  0  0
  -25.8106  -31.3301   23.9302 N   0  0  0  0  0  0  0  0  0  0  0  0
  -19.9299  -29.2632   21.1723 N   0  0  0  0  0  0  0  0  0  0  0  0
  -19.0036  -29.4317   17.6821 N   0  3  0  0  0  0  0  0  0  0  0  0
  -31.0230  -11.8328   19.0711 O   0  0  0  0  0  0  0  0  0  0  0  0
  -24.6263  -29.3255   23.8925 O   0  0  0  0  0  0  0  0  0  0  0  0
  -21.4268  -31.0274   22.8622 O   0  0  0  0  0  0  0  0  0  0  0  0
  -20.5573  -27.8674   19.4302 O   0  0  0  0  0  0  0  0  0  0  0  0
  -30.7371  -20.8830   22.8902 O   0  0  0  0  0  0  0  0  0  0  0  0
  -24.6191  -10.2436   23.2004 O   0  0  0  0  0  0  0  0  0  0  0  0
  -27.1823  -26.6620   18.4265 O   0  0  0  0  0  0  0  0  0  1  0  0
  -21.5764   -8.0571   19.1550 F   0  0  0  0  0  0  0  0  0  0  0  0
  -25.7409   -8.5146   21.3579 F   0  0  0  0  0  0  0  0  0  0  0  0
  1  2  1  0  0  0  0
  1  5  2  0  0  0  0
  2  6  2  0  0  0  0
  3  9  2  0  0  0  0
  3 17  1  0  0  0  0
  4 10  1  0  0  0  0
  4 17  2  0  0  0  0
  5 19  1  0  0  0  0
  6 21  1  0  0  0  0
  7 11  2  0  0  0  0
  7 20  1  0  0  0  0
  8 14  2  0  0  0  0
  8 22  1  0  0  0  0
  9 24  1  0  0  0  0
 10 24  2  0  0  0  0
 11 25  1  0  0  0  0
 12 13  2  0  0  0  0
 12 26  1  0  0  0  0
 13 27  1  0  0  0  0
 14 31  1  0  0  0  0
 15 23  1  0  0  0  0
 15 25  2  0  0  0  0
 16 27  2  0  0  0  0
 16 28  1  0  0  0  0
 17 29  1  0  0  0  0
 18 29  1  0  0  0  0
 18 32  2  0  0  0  0
 18 33  1  0  0  0  0
 19 21  2  0  0  0  0
 19 38  1  0  0  0  0
 20 23  2  0  0  0  0
 20 39  1  0  0  0  0
 21 49  1  0  0  0  0
 22 30  2  0  0  0  0
 22 48  1  0  0  0  0
 23 40  1  0  0  0  0
 24 78  1  0  0  0  0
 25 79  1  0  0  0  0
 26 28  2  0  0  0  0
 26 78  1  0  0  0  0
 27 80  1  0  0  0  0
 28 81  1  0  0  0  0
 29 62  2  0  0  0  0
 30 53  1  0  0  0  0
 30 63  1  0  0  0  0
 31 63  2  0  0  0  0
 31 69  1  0  0  0  0
 32 64  1  0  0  0  0
 32 67  1  0  0  0  0
 33 68  1  0  0  0  0
 33 73  2  0  0  0  0
 34 50  1  0  0  0  0
 34 70  1  0  0  0  0
 34 74  2  0  0  0  0
 35 59  1  0  0  0  0
 35 65  1  0  0  0  0
 35 75  2  0  0  0  0
 36 60  1  0  0  0  0
 36 71  1  0  0  0  0
 36 76  2  0  0  0  0
 37 66  1  0  0  0  0
 37 69  1  0  0  0  0
 37 77  2  0  0  0  0
 38 41  1  0  0  0  0
 39 50  1  0  0  0  0
 40 65  1  0  0  0  0
 41 43  1  0  0  0  0
 42 44  1  0  0  0  0
 42 46  1  0  0  0  0
 43 49  1  0  0  0  0
 44 51  1  0  0  0  0
 45 48  1  0  0  0  0
 45 52  1  0  0  0  0
 46 66  1  0  0  0  0
 47 51  1  0  0  0  0
 47 66  1  0  0  0  0
 48 52  1  0  0  0  0
 49 70  1  0  0  0  0
 50 65  1  0  0  0  0
 51 64  1  0  0  0  0
 52 79  1  0  0  0  0
 54 60  1  0  0  0  0
 55 61  1  0  0  0  0
 56 61  1  0  0  0  0
 57 61  1  0  0  0  0
 58 72  1  0  0  0  0
 59 61  1  0  0  0  0
 59 71  1  0  0  0  0
 60 72  1  0  0  0  0
 62 64  1  0  0  0  0
M  CHG  1  72   1
M  ISO  4  37 100  52 101  69 100  79 101
M  END
> <Batch ID>
0173

> <Smiles>
CNC(C)C(=O)NC(C(=O)N1Cc2cc([101O:1][101CH:1]3CC3c3ccc([100NH:0][100C:0](=O)N4CCCC(n5nc(-c6ccc(Oc7ccc(F)cc7F)cc6)c(C(N)=O)c5N)C4)nc3C)ccc2CC1C(=O)NC1CCCc2ccccc21)C(C)(C)C

> <Shape>
0.313

> <Color>
0.069

> <Negative vol penalty>
0.000

$$$$

  -OEChem-04052322423D

 85 94  0     1  0  0  0  0  0999 V2000
  -16.2734  -29.4212   23.2586 C   0  0  0  0  0  0  0  0  0  0  0  0
  -17.0799  -28.3326   22.9424 C   0  0  0  0  0  0  0  0  0  0  0  0
  -22.6785  -11.3492   19.5396 C   0  0  0  0  0  0  0  0  0  0  0  0
  -23.1851  -10.1731   21.5883 C   0  0  0  0  0  0  0  0  0  0  0  0
  -16.8520  -30.6604   23.5300 C   0  0  0  0  0  0  0  0  0  0  0  0
  -18.4654  -28.4829   22.8963 C   0  0  0  0  0  0  0  0  0  0  0  0
  -22.6741  -24.3258   24.4808 C   0  0  0  0  0  0  0  0  0  0  0  0
  -21.5918  -10.5023   19.3221 C   0  0  0  0  0  0  0  0  0  0  0  0
  -22.0983   -9.3262   21.3709 C   0  0  0  0  0  0  0  0  0  0  0  0
  -23.4376  -23.4314   23.7318 C   0  0  0  0  0  0  0  0  0  0  0  0
  -21.3876   -6.6236   19.4678 C   0  0  0  0  0  0  0  0  0  0  0  0
  -21.5822   -5.2563   19.6633 C   0  0  0  0  0  0  0  0  0  0  0  0
  -25.2630  -25.0084   23.7207 C   0  0  0  0  0  0  0  0  0  0  0  0
  -26.1233  -21.1083   20.1878 C   0  0  0  0  0  0  0  0  0  0  0  0
  -19.8687   -5.2560   21.3666 C   0  0  0  0  0  0  0  0  0  0  0  0
  -23.4752  -11.1846   20.6727 C   0  0  0  0  0  0  0  0  0  0  0  0
  -24.5983  -13.2795   21.5986 C   0  0  0  0  0  0  0  0  0  0  0  0
  -18.2458  -30.8236   23.4966 C   0  0  0  0  0  0  0  0  0  0  0  0
  -23.1963  -25.5747   24.8467 C   0  0  0  0  0  0  0  0  0  0  0  0
  -19.0631  -29.7258   23.1661 C   0  0  0  0  0  0  0  0  0  0  0  0
  -24.5051  -25.9158   24.4765 C   0  0  0  0  0  0  0  0  0  0  0  0
  -27.0288  -20.3213   19.4850 C   0  0  0  0  0  0  0  0  0  0  0  0
  -25.8435  -20.8168   21.5183 C   0  0  0  0  0  0  0  0  0  0  0  0
  -21.3016   -9.4908   20.2377 C   0  0  0  0  0  0  0  0  0  0  0  0
  -24.7312  -23.7738   23.3492 C   0  0  0  0  0  0  0  0  0  0  0  0
  -20.4336   -7.3071   20.2218 C   0  0  0  0  0  0  0  0  0  0  0  0
  -20.8228   -4.5725   20.6127 C   0  0  0  0  0  0  0  0  0  0  0  0
  -19.6742   -6.6233   21.1711 C   0  0  0  0  0  0  0  0  0  0  0  0
  -24.5983  -12.0587   20.8976 C   0  0  0  0  0  0  0  0  0  0  0  0
  -27.6229  -19.2626   20.1529 C   0  0  0  0  0  0  0  0  0  0  0  0
  -26.4906  -19.7359   22.0951 C   0  0  0  0  0  0  0  0  0  0  0  0
  -25.8988  -13.7157   21.5285 C   0  0  0  0  0  0  0  0  0  0  0  0
  -23.5193  -13.9585   22.2546 C   0  0  0  0  0  0  0  0  0  0  0  0
  -22.4094  -28.5965   24.2522 C   0  0  0  0  0  0  0  0  0  0  0  0
  -24.7782  -29.2231   26.3779 C   0  0  0  0  0  0  0  0  0  0  0  0
  -27.6433  -28.1831   27.9130 C   0  0  0  0  0  0  0  0  0  0  0  0
  -30.5924  -14.5870   18.8590 C   0  0  0  0  0  0  0  0  0  0  0  0
  -18.8226  -32.1938   23.7509 C   0  0  0  0  0  0  0  0  0  0  0  0
  -22.3696  -26.5173   25.6776 C   0  0  0  0  0  0  0  0  0  0  0  0
  -25.1195  -27.2360   24.8613 C   0  0  0  0  0  0  0  0  0  0  0  0
  -20.3198  -32.1789   24.0480 C   0  0  0  0  0  0  0  0  0  0  0  0
  -30.0993  -11.3616   20.0017 C   0  0  0  0  0  0  0  0  0  0  0  0
  -21.0545  -31.2959   23.0442 C   0  0  0  0  0  0  0  0  0  0  0  0
  -28.6233  -11.3405   20.3993 C   0  0  0  0  0  0  0  0  0  0  0  0
  -29.7042  -17.8374   20.3892 C   0  0  0  0  0  0  0  0  0  0  0  0
  -27.9249  -17.2060   18.7050 C   0  0  0  0  0  0  0  0  0  0  0  0
  -30.3042  -12.1318   18.7020 C   0  0  0  0  0  0  0  0  0  0  0  0
  -30.6843  -16.9186   19.6636 C   0  0  0  0  0  0  0  0  0  0  0  0
  -28.9448  -16.3035   18.0168 C   0  0  0  0  0  0  0  0  0  0  0  0
  -28.3082  -13.5250   19.1371 C   0  0  0  0  0  0  0  0  0  0  0  0
  -20.5714  -29.8431   23.1303 C   0  0  1  0  0  0  0  0  0  0  0  0
  -28.6182  -18.3683   19.4376 C   0  0  0  0  0  0  0  0  0  0  0  0
  -22.8173  -27.9707   25.5559 C   0  0  1  0  0  0  0  0  0  0  0  0
  -28.0457  -12.7659   20.4532 C   0  0  1  0  0  0  0  0  0  0  0  0
  -27.3329  -20.6284   18.0595 C   0  0  0  0  0  0  0  0  0  0  0  0
  -26.2294  -19.3775   23.5215 C   0  0  0  0  0  0  0  0  0  0  0  0
  -29.3699  -28.9281   29.5746 C   0  0  0  0  0  0  0  0  0  0  0  0
  -26.0188  -31.0451   24.2681 C   0  0  0  0  0  0  0  0  0  0  0  0
  -28.1510  -30.9956   25.5794 C   0  0  0  0  0  0  0  0  0  0  0  0
  -26.0843  -31.9515   26.5980 C   0  0  0  0  0  0  0  0  0  0  0  0
  -27.0181  -25.9420   29.7421 C   0  0  0  0  0  0  0  0  0  0  0  0
  -24.8741  -21.6559   22.2768 C   0  0  0  0  0  0  0  0  0  1  0  0
  -26.2677  -29.4497   26.2827 C   0  0  1  0  0  0  0  0  0  0  0  0
  -28.0605  -28.1815   29.3725 C   0  0  2  0  0  0  0  0  0  0  0  0
  -26.6184  -30.8363   25.6730 C   0  0  0  0  0  0  0  0  0  0  0  0
  -25.8032  -11.7399   20.4173 N   0  0  0  0  0  0  0  0  0  0  0  0
  -27.3763  -18.9485   21.4445 N   0  0  0  0  0  0  0  0  0  0  0  0
  -26.5724  -12.7668   20.8171 N   0  0  0  0  0  0  0  0  0  0  0  0
  -24.2690  -28.1262   25.6685 N   0  0  0  0  0  0  0  0  0  0  0  0
  -29.7366  -13.4770   18.7915 N   0  0  0  0  0  0  0  0  0  0  0  0
  -29.9856  -15.8505   18.9498 N   0  0  0  0  0  0  0  0  0  0  0  0
  -26.5205  -14.8146   22.0064 N   0  0  0  0  0  0  0  0  0  0  0  0
  -22.2472  -13.3707   22.2308 N   0  0  0  0  0  0  0  0  0  0  0  0
  -21.1582  -29.1824   24.2765 N   0  0  0  0  0  0  0  0  0  0  0  0
  -26.7998  -29.2349   27.6240 N   0  0  0  0  0  0  0  0  0  0  0  0
  -28.2363  -26.7841   29.8596 N   0  3  0  0  0  0  0  0  0  0  0  0
  -23.6750  -15.0621   22.8303 O   0  0  0  0  0  0  0  0  0  0  0  0
  -23.1739  -28.5523   23.2955 O   0  0  0  0  0  0  0  0  0  0  0  0
  -24.0928  -29.9869   27.0624 O   0  0  0  0  0  0  0  0  0  0  0  0
  -28.0301  -27.3380   27.1087 O   0  0  0  0  0  0  0  0  0  0  0  0
  -31.8230  -14.4596   18.8449 O   0  0  0  0  0  0  0  0  0  0  0  0
  -20.2411   -8.6644   20.0260 O   0  0  0  0  0  0  0  0  0  0  0  0
  -25.4833  -22.8971   22.6126 O   0  0  0  0  0  0  0  0  0  1  0  0
  -21.0087   -3.2591   20.7992 F   0  0  0  0  0  0  0  0  0  0  0  0
  -18.7554   -7.2743   21.8976 F   0  0  0  0  0  0  0  0  0  0  0  0
  1  2  1  0  0  0  0
  1  5  2  0  0  0  0
  2  6  2  0  0  0  0
  3  8  2  0  0  0  0
  3 16  1  0  0  0  0
  4  9  1  0  0  0  0
  4 16  2  0  0  0  0
  5 18  1  0  0  0  0
  6 20  1  0  0  0  0
  7 10  2  0  0  0  0
  7 19  1  0  0  0  0
  8 24  1  0  0  0  0
  9 24  2  0  0  0  0
 10 25  1  0  0  0  0
 11 12  2  0  0  0  0
 11 26  1  0  0  0  0
 12 27  1  0  0  0  0
 13 21  1  0  0  0  0
 13 25  2  0  0  0  0
 14 22  2  0  0  0  0
 14 23  1  0  0  0  0
 15 27  2  0  0  0  0
 15 28  1  0  0  0  0
 16 29  1  0  0  0  0
 17 29  1  0  0  0  0
 17 32  2  0  0  0  0
 17 33  1  0  0  0  0
 18 20  2  0  0  0  0
 18 38  1  0  0  0  0
 19 21  2  0  0  0  0
 19 39  1  0  0  0  0
 20 51  1  0  0  0  0
 21 40  1  0  0  0  0
 22 30  1  0  0  0  0
 22 55  1  0  0  0  0
 23 31  2  0  0  0  0
 23 62  1  0  0  0  0
 24 82  1  0  0  0  0
 25 83  1  0  0  0  0
 26 28  2  0  0  0  0
 26 82  1  0  0  0  0
 27 84  1  0  0  0  0
 28 85  1  0  0  0  0
 29 66  2  0  0  0  0
 30 52  1  0  0  0  0
 30 67  2  0  0  0  0
 31 56  1  0  0  0  0
 31 67  1  0  0  0  0
 32 68  1  0  0  0  0
 32 72  1  0  0  0  0
 33 73  1  0  0  0  0
 33 77  2  0  0  0  0
 34 53  1  0  0  0  0
 34 74  1  0  0  0  0
 34 78  2  0  0  0  0
 35 63  1  0  0  0  0
 35 69  1  0  0  0  0
 35 79  2  0  0  0  0
 36 64  1  0  0  0  0
 36 75  1  0  0  0  0
 36 80  2  0  0  0  0
 37 70  1  0  0  0  0
 37 71  1  0  0  0  0
 37 81  2  0  0  0  0
 38 41  1  0  0  0  0
 39 53  1  0  0  0  0
 40 69  1  0  0  0  0
 41 43  1  0  0  0  0
 42 44  1  0  0  0  0
 42 47  1  0  0  0  0
 43 51  1  0  0  0  0
 44 54  1  0  0  0  0
 45 48  1  0  0  0  0
 45 52  1  0  0  0  0
 46 49  1  0  0  0  0
 46 52  1  0  0  0  0
 47 70  1  0  0  0  0
 48 71  1  0  0  0  0
 49 71  1  0  0  0  0
 50 54  1  0  0  0  0
 50 70  1  0  0  0  0
 51 74  1  0  0  0  0
 53 69  1  0  0  0  0
 54 68  1  0  0  0  0
 57 64  1  0  0  0  0
 58 65  1  0  0  0  0
 59 65  1  0  0  0  0
 60 65  1  0  0  0  0
 61 76  1  0  0  0  0
 62 83  1  0  0  0  0
 63 65  1  0  0  0  0
 63 75  1  0  0  0  0
 64 76  1  0  0  0  0
 66 68  1  0  0  0  0
M  CHG  1  76   1
M  ISO  4  37 100  62 101  71 100  83 101
M  END
> <Batch ID>
0173

> <Smiles>
CNC(C)C(=O)NC(C(=O)N1Cc2cc([101O:1][101CH2:1]c3cc(C)c(C4CC[100N:0]([100C:0](=O)N5CCCC(n6nc(-c7ccc(Oc8ccc(F)cc8F)cc7)c(C(N)=O)c6N)C5)CC4)nc3C)ccc2CC1C(=O)NC1CCCc2ccccc21)C(C)(C)C

> <Shape>
0.232

> <Color>
0.131

> <Negative vol penalty>
0.000

$$$$

  -OEChem-04052322423D

 84 93  0     1  0  0  0  0  0999 V2000
  -29.7880  -37.3944   17.5705 C   0  0  0  0  0  0  0  0  0  0  0  0
  -29.9895  -36.0192   17.5092 C   0  0  0  0  0  0  0  0  0  0  0  0
  -24.3167  -10.0280   22.0695 C   0  0  0  0  0  0  0  0  0  0  0  0
  -25.0594  -11.6121   23.7357 C   0  0  0  0  0  0  0  0  0  0  0  0
  -29.2375  -37.9667   18.7165 C   0  0  0  0  0  0  0  0  0  0  0  0
  -29.6416  -35.2157   18.5944 C   0  0  0  0  0  0  0  0  0  0  0  0
  -27.4345  -29.5066   18.3897 C   0  0  0  0  0  0  0  0  0  0  0  0
  -24.0954   -9.0805   23.0689 C   0  0  0  0  0  0  0  0  0  0  0  0
  -24.8381  -10.6646   24.7351 C   0  0  0  0  0  0  0  0  0  0  0  0
  -28.0406  -28.2606   18.5441 C   0  0  0  0  0  0  0  0  0  0  0  0
  -21.7343   -8.4213   25.3977 C   0  0  0  0  0  0  0  0  0  0  0  0
  -20.5426   -7.6978   25.3526 C   0  0  0  0  0  0  0  0  0  0  0  0
  -30.8085  -22.0975   19.7957 C   0  0  0  0  0  0  0  0  0  0  0  0
  -27.3855  -28.2363   20.8656 C   0  0  0  0  0  0  0  0  0  0  0  0
  -21.7981   -5.6412   25.1754 C   0  0  0  0  0  0  0  0  0  0  0  0
  -31.4078  -23.2769   20.1885 C   0  0  0  0  0  0  0  0  0  0  0  0
  -24.7987  -11.2938   22.4028 C   0  0  0  0  0  0  0  0  0  0  0  0
  -24.1105  -13.2206   20.8791 C   0  0  0  0  0  0  0  0  0  0  0  0
  -28.8737  -37.1686   19.8126 C   0  0  0  0  0  0  0  0  0  0  0  0
  -26.8078  -30.1329   19.4767 C   0  0  0  0  0  0  0  0  0  0  0  0
  -29.0869  -35.7780   19.7566 C   0  0  0  0  0  0  0  0  0  0  0  0
  -26.7700  -29.4892   20.7218 C   0  0  0  0  0  0  0  0  0  0  0  0
  -24.3561   -9.3988   24.4017 C   0  0  0  0  0  0  0  0  0  0  0  0
  -28.0187  -27.6266   19.7829 C   0  0  0  0  0  0  0  0  0  0  0  0
  -22.9579   -7.7548   25.3316 C   0  0  0  0  0  0  0  0  0  0  0  0
  -20.5745   -6.3077   25.2415 C   0  0  0  0  0  0  0  0  0  0  0  0
  -22.9898   -6.3648   25.2205 C   0  0  0  0  0  0  0  0  0  0  0  0
  -25.0280  -12.2729   21.3708 C   0  0  0  0  0  0  0  0  0  0  0  0
  -29.6562  -22.2333   19.0488 C   0  0  0  0  0  0  0  0  0  0  0  0
  -24.8089  -13.9072   19.9162 C   0  0  0  0  0  0  0  0  0  0  0  0
  -29.7985  -24.4998   19.1485 C   0  0  0  0  0  0  0  0  0  0  0  0
  -22.7486  -13.4589   21.2589 C   0  0  0  0  0  0  0  0  0  0  0  0
  -27.2628  -32.8453   21.0702 C   0  0  0  0  0  0  0  0  0  0  0  0
  -24.5196  -31.9724   22.5651 C   0  0  0  0  0  0  0  0  0  0  0  0
  -22.3869  -29.4686   23.4760 C   0  0  0  0  0  0  0  0  0  0  0  0
  -29.4440  -16.4786   18.1700 C   0  0  0  0  0  0  0  0  0  0  0  0
  -28.3258  -37.8381   21.0480 C   0  0  0  0  0  0  0  0  0  0  0  0
  -26.1354  -31.4649   19.2871 C   0  0  0  0  0  0  0  0  0  0  0  0
  -26.0925  -30.1099   21.9152 C   0  0  0  0  0  0  0  0  0  0  0  0
  -27.6372  -36.8727   22.0093 C   0  0  0  0  0  0  0  0  0  0  0  0
  -29.2938  -12.9422   17.7851 C   0  0  0  0  0  0  0  0  0  0  0  0
  -28.4935  -35.6281   22.2206 C   0  0  0  0  0  0  0  0  0  0  0  0
  -28.0993  -12.5308   18.6477 C   0  0  0  0  0  0  0  0  0  0  0  0
  -30.0734  -14.0951   18.4136 C   0  0  0  0  0  0  0  0  0  0  0  0
  -28.0669  -14.8662   19.6192 C   0  0  0  0  0  0  0  0  0  0  0  0
  -29.5084  -19.7274   18.9413 C   0  0  0  0  0  0  0  0  0  0  0  0
  -27.8019  -21.0494   17.8357 C   0  0  0  0  0  0  0  0  0  0  0  0
  -28.6994  -34.8700   20.9036 C   0  0  1  0  0  0  0  0  0  0  0  0
  -25.9730  -32.2430   20.5893 C   0  0  1  0  0  0  0  0  0  0  0  0
  -27.2171  -13.7439   18.9990 C   0  0  2  0  0  0  0  0  0  0  0  0
  -28.6790  -18.8343   18.0129 C   0  0  2  0  0  0  0  0  0  0  0  0
  -27.3613  -19.5906   17.9307 C   0  0  2  0  0  0  0  0  0  0  0  0
  -20.2488  -29.0589   24.7243 C   0  0  0  0  0  0  0  0  0  0  0  0
  -26.0038  -32.3015   25.2105 C   0  0  0  0  0  0  0  0  0  0  0  0
  -24.1768  -30.9962   26.3180 C   0  0  0  0  0  0  0  0  0  0  0  0
  -23.6595  -33.1727   25.2142 C   0  0  0  0  0  0  0  0  0  0  0  0
  -21.0495  -28.3934   21.0648 C   0  0  0  0  0  0  0  0  0  0  0  0
  -29.2348  -25.8423   18.7862 C   0  0  0  0  0  0  0  0  0  1  0  0
  -24.1821  -31.1524   23.7868 C   0  0  1  0  0  0  0  0  0  0  0  0
  -20.8779  -29.3420   23.3690 C   0  0  2  0  0  0  0  0  0  0  0  0
  -24.5201  -31.8946   25.1106 C   0  0  0  0  0  0  0  0  0  0  0  0
  -30.9282  -24.5000   19.8815 N   0  0  0  0  0  0  0  0  0  0  0  0
  -26.2185  -12.3477   20.7698 N   0  0  0  0  0  0  0  0  0  0  0  0
  -29.1211  -23.4234   18.7058 N   0  0  0  0  0  0  0  0  0  0  0  0
  -26.0538  -13.3505   19.8905 N   0  0  0  0  0  0  0  0  0  0  0  0
  -29.0283  -21.0777   18.6360 N   0  0  3  0  0  0  0  0  0  0  0  0
  -25.4548  -31.4160   21.6810 N   0  0  0  0  0  0  0  0  0  0  0  0
  -29.1792  -15.2140   18.7211 N   0  0  0  0  0  0  0  0  0  0  0  0
  -24.4735  -14.9268   19.0974 N   0  0  0  0  0  0  0  0  0  0  0  0
  -22.1865  -12.6623   22.2657 N   0  0  0  0  0  0  0  0  0  0  0  0
  -27.5155  -34.1080   20.5688 N   0  0  0  0  0  0  0  0  0  0  0  0
  -22.7782  -30.7789   23.6528 N   0  0  0  0  0  0  0  0  0  0  0  0
  -28.5438  -17.4820   18.5069 N   0  0  0  0  0  0  0  0  0  0  0  0
  -26.5781  -19.1904   16.7483 N   0  3  0  0  0  0  0  0  0  0  0  0
  -20.5157  -28.2329   22.4418 N   0  3  0  0  0  0  0  0  0  0  0  0
  -22.0458  -14.3411   20.7098 O   0  0  0  0  0  0  0  0  0  0  0  0
  -27.9753  -32.2121   21.8403 O   0  0  0  0  0  0  0  0  0  0  0  0
  -23.9681  -33.0630   22.3975 O   0  0  0  0  0  0  0  0  0  0  0  0
  -23.1426  -28.5015   23.4131 O   0  0  0  0  0  0  0  0  0  0  0  0
  -30.4080  -16.6960   17.4281 O   0  0  0  0  0  0  0  0  0  0  0  0
  -24.1401   -8.4745   25.3772 O   0  0  0  0  0  0  0  0  0  0  0  0
  -28.6100  -26.4106   19.9365 O   0  0  0  0  0  0  0  0  0  1  0  0
  -19.4301   -5.6129   25.1998 F   0  0  0  0  0  0  0  0  0  0  0  0
  -24.1622   -5.7188   25.1577 F   0  0  0  0  0  0  0  0  0  0  0  0
  1  2  1  0  0  0  0
  1  5  2  0  0  0  0
  2  6  2  0  0  0  0
  3  8  2  0  0  0  0
  3 17  1  0  0  0  0
  4  9  1  0  0  0  0
  4 17  2  0  0  0  0
  5 19  1  0  0  0  0
  6 21  1  0  0  0  0
  7 10  2  0  0  0  0
  7 20  1  0  0  0  0
  8 23  1  0  0  0  0
  9 23  2  0  0  0  0
 10 24  1  0  0  0  0
 11 12  2  0  0  0  0
 11 25  1  0  0  0  0
 12 26  1  0  0  0  0
 13 16  1  0  0  0  0
 13 29  2  0  0  0  0
 14 22  1  0  0  0  0
 14 24  2  0  0  0  0
 15 26  2  0  0  0  0
 15 27  1  0  0  0  0
 16 62  2  0  0  0  0
 17 28  1  0  0  0  0
 18 28  1  0  0  0  0
 18 30  2  0  0  0  0
 18 32  1  0  0  0  0
 19 21  2  0  0  0  0
 19 37  1  0  0  0  0
 20 22  2  0  0  0  0
 20 38  1  0  0  0  0
 21 48  1  0  0  0  0
 22 39  1  0  0  0  0
 23 81  1  0  0  0  0
 24 82  1  0  0  0  0
 25 27  2  0  0  0  0
 25 81  1  0  0  0  0
 26 83  1  0  0  0  0
 27 84  1  0  0  0  0
 28 63  2  0  0  0  0
 29 64  1  0  0  0  0
 29 66  1  0  0  0  0
 30 65  1  0  0  0  0
 30 69  1  0  0  0  0
 31 58  1  0  0  0  0
 31 62  1  0  0  0  0
 31 64  2  0  0  0  0
 32 70  1  0  0  0  0
 32 76  2  0  0  0  0
 33 49  1  0  0  0  0
 33 71  1  0  0  0  0
 33 77  2  0  0  0  0
 34 59  1  0  0  0  0
 34 67  1  0  0  0  0
 34 78  2  0  0  0  0
 35 60  1  0  0  0  0
 35 72  1  0  0  0  0
 35 79  2  0  0  0  0
 36 68  1  0  0  0  0
 36 73  1  0  0  0  0
 36 80  2  0  0  0  0
 37 40  1  0  0  0  0
 38 49  1  0  0  0  0
 39 67  1  0  0  0  0
 40 42  1  0  0  0  0
 41 43  1  0  0  0  0
 41 44  1  0  0  0  0
 42 48  1  0  0  0  0
 43 50  1  0  0  0  0
 44 68  1  0  0  0  0
 45 50  1  0  0  0  0
 45 68  1  0  0  0  0
 46 51  1  0  0  0  0
 46 66  1  0  0  0  0
 47 52  1  0  0  0  0
 47 66  1  0  0  0  0
 48 71  1  0  0  0  0
 49 67  1  0  0  0  0
 50 65  1  0  0  0  0
 51 52  1  0  0  0  0
 51 73  1  0  0  0  0
 52 74  1  0  0  0  0
 53 60  1  0  0  0  0
 54 61  1  0  0  0  0
 55 61  1  0  0  0  0
 56 61  1  0  0  0  0
 57 75  1  0  0  0  0
 58 82  1  0  0  0  0
 59 61  1  0  0  0  0
 59 72  1  0  0  0  0
 60 75  1  0  0  0  0
 63 65  1  0  0  0  0
M  CHG  2  74   1  75   1
M  ISO  4  36 100  58 101  73 100  82 101
M  END
> <Batch ID>
0173

> <Smiles>
CNC(C)C(=O)NC(C(=O)N1Cc2cc([101O:1][101CH2:1]c3nccc(N4CC(N)C([100NH:0][100C:0](=O)N5CCCC(n6nc(-c7ccc(Oc8ccc(F)cc8F)cc7)c(C(N)=O)c6N)C5)C4)n3)ccc2CC1C(=O)NC1CCCc2ccccc21)C(C)(C)C

> <Shape>
0.272

> <Color>
0.127

> <Negative vol penalty>
0.000

$$$$

  -OEChem-04052322423D

 87 97  0     1  0  0  0  0  0999 V2000
  -29.0068  -32.4355   26.1236 C   0  0  0  0  0  0  0  0  0  0  0  0
  -28.8947  -31.2854   25.3490 C   0  0  0  0  0  0  0  0  0  0  0  0
  -23.0772  -10.6205   21.5372 C   0  0  0  0  0  0  0  0  0  0  0  0
  -24.4472   -8.6975   21.0250 C   0  0  0  0  0  0  0  0  0  0  0  0
  -27.8611  -33.0480   26.6298 C   0  0  0  0  0  0  0  0  0  0  0  0
  -27.6369  -30.7464   25.0810 C   0  0  0  0  0  0  0  0  0  0  0  0
  -27.0889  -29.4130   20.2264 C   0  0  0  0  0  0  0  0  0  0  0  0
  -21.9318   -9.8866   21.2291 C   0  0  0  0  0  0  0  0  0  0  0  0
  -23.3017   -7.9635   20.7169 C   0  0  0  0  0  0  0  0  0  0  0  0
  -27.6796  -28.2158   19.8244 C   0  0  0  0  0  0  0  0  0  0  0  0
  -20.7151   -5.4741   20.1423 C   0  0  0  0  0  0  0  0  0  0  0  0
  -20.6213   -4.1760   20.6439 C   0  0  0  0  0  0  0  0  0  0  0  0
  -25.5399  -27.1134   19.9844 C   0  0  0  0  0  0  0  0  0  0  0  0
  -29.6034  -24.3408   17.2450 C   0  0  0  0  0  0  0  0  0  0  0  0
  -29.4676  -23.5356   19.5072 C   0  0  0  0  0  0  0  0  0  0  0  0
  -20.7660   -5.0361   22.8970 C   0  0  0  0  0  0  0  0  0  0  0  0
  -24.3350  -10.0260   21.4350 C   0  0  0  0  0  0  0  0  0  0  0  0
  -26.1451  -10.8954   23.0083 C   0  0  0  0  0  0  0  0  0  0  0  0
  -26.5880  -32.5218   26.3598 C   0  0  0  0  0  0  0  0  0  0  0  0
  -25.7191  -29.4669   20.5215 C   0  0  0  0  0  0  0  0  0  0  0  0
  -26.4732  -31.3517   25.5852 C   0  0  0  0  0  0  0  0  0  0  0  0
  -24.9337  -28.3131   20.3875 C   0  0  0  0  0  0  0  0  0  0  0  0
  -29.3263  -24.5694   18.5882 C   0  0  0  0  0  0  0  0  0  0  0  0
  -22.0440   -8.5581   20.8190 C   0  0  0  0  0  0  0  0  0  0  0  0
  -26.9056  -27.0651   19.7061 C   0  0  0  0  0  0  0  0  0  0  0  0
  -20.8343   -6.5533   21.0181 C   0  0  0  0  0  0  0  0  0  0  0  0
  -20.6467   -3.9570   22.0213 C   0  0  0  0  0  0  0  0  0  0  0  0
  -20.8597   -6.3343   22.3954 C   0  0  0  0  0  0  0  0  0  0  0  0
  -25.5186  -10.7838   21.7526 C   0  0  0  0  0  0  0  0  0  0  0  0
  -30.0155  -23.0707   16.8749 C   0  0  0  0  0  0  0  0  0  0  0  0
  -29.8856  -22.3015   19.0358 C   0  0  0  0  0  0  0  0  0  0  0  0
  -27.2202  -11.7201   22.7835 C   0  0  0  0  0  0  0  0  0  0  0  0
  -25.7873  -10.3062   24.2655 C   0  0  0  0  0  0  0  0  0  0  0  0
  -24.0078  -30.1392   23.1144 C   0  0  0  0  0  0  0  0  0  0  0  0
  -21.5125  -29.8864   21.0572 C   0  0  0  0  0  0  0  0  0  0  0  0
  -20.2801  -28.6142   18.1401 C   0  0  0  0  0  0  0  0  0  0  0  0
  -29.5363  -16.0946   20.7087 C   0  0  0  0  0  0  0  0  0  0  0  0
  -25.3815  -33.1919   26.9682 C   0  0  0  0  0  0  0  0  0  0  0  0
  -25.0919  -30.7722   20.9281 C   0  0  0  0  0  0  0  0  0  0  0  0
  -23.4549  -28.3228   20.6729 C   0  0  0  0  0  0  0  0  0  0  0  0
  -24.0623  -32.7706   26.3261 C   0  0  0  0  0  0  0  0  0  0  0  0
  -29.2514  -13.4009   18.4744 C   0  0  0  0  0  0  0  0  0  0  0  0
  -24.0047  -31.2542   26.1704 C   0  0  0  0  0  0  0  0  0  0  0  0
  -29.2622  -23.0923   14.4038 C   0  0  0  0  0  0  0  0  0  0  0  0
  -29.6045  -21.6744   14.7395 C   0  0  0  0  0  0  0  0  0  0  0  0
  -28.2970  -12.4781   19.2319 C   0  0  0  0  0  0  0  0  0  0  0  0
  -29.2724  -19.1700   19.0175 C   0  0  0  0  0  0  0  0  0  0  0  0
  -30.9888  -19.2363   20.8660 C   0  0  0  0  0  0  0  0  0  0  0  0
  -28.8468  -14.8709   18.5990 C   0  0  0  0  0  0  0  0  0  0  0  0
  -29.6375  -17.7061   18.7544 C   0  0  0  0  0  0  0  0  0  0  0  0
  -31.3385  -17.7851   20.5488 C   0  0  0  0  0  0  0  0  0  0  0  0
  -27.7233  -14.4075   20.7534 C   0  0  0  0  0  0  0  0  0  0  0  0
  -25.1248  -30.7510   25.2519 C   0  0  1  0  0  0  0  0  0  0  0  0
  -30.3170  -22.8020   15.4386 C   0  0  0  0  0  0  0  0  0  0  0  0
  -23.7878  -30.5939   21.6993 C   0  0  1  0  0  0  0  0  0  0  0  0
  -28.1374  -12.9291   20.6948 C   0  0  1  0  0  0  0  0  0  0  0  0
  -30.4476  -19.9431   19.6206 C   0  0  0  0  0  0  0  0  0  0  0  0
  -18.1956  -28.5495   16.7445 C   0  0  0  0  0  0  0  0  0  0  0  0
  -20.2802  -27.8776   22.9953 C   0  0  0  0  0  0  0  0  0  0  0  0
  -18.7384  -27.1572   21.1590 C   0  0  0  0  0  0  0  0  0  0  0  0
  -18.6573  -29.5024   22.0051 C   0  0  0  0  0  0  0  0  0  0  0  0
  -21.6318  -29.9181   15.8528 C   0  0  0  0  0  0  0  0  0  0  0  0
  -28.8797  -25.9179   19.0409 C   0  0  0  0  0  0  0  0  0  1  0  0
  -20.6193  -28.7613   20.5932 C   0  0  1  0  0  0  0  0  0  0  0  0
  -19.5131  -29.2638   17.0024 C   0  0  2  0  0  0  0  0  0  0  0  0
  -19.6020  -28.3237   21.6846 C   0  0  0  0  0  0  0  0  0  0  0  0
  -26.1435  -11.4819   20.8007 N   0  0  0  0  0  0  0  0  0  0  0  0
  -30.1643  -22.0415   17.7387 N   0  0  0  0  0  0  0  0  0  0  0  0
  -27.1739  -12.0401   21.4585 N   0  0  0  0  0  0  0  0  0  0  0  0
  -22.8893  -29.6217   21.0733 N   0  0  0  0  0  0  0  0  0  0  0  0
  -28.6676  -15.2435   20.0092 N   0  0  0  0  0  0  0  0  0  0  0  0
  -30.1956  -17.0834   19.9633 N   0  0  0  0  0  0  0  0  0  0  0  0
  -28.1911  -12.1955   23.5920 N   0  0  0  0  0  0  0  0  0  0  0  0
  -24.6531   -9.4847   24.3196 N   0  0  0  0  0  0  0  0  0  0  0  0
  -30.0226  -21.2828   19.9619 N   0  0  0  0  0  0  0  0  0  0  0  0
  -24.7898  -30.9958   23.8655 N   0  0  0  0  0  0  0  0  0  0  0  0
  -20.0042  -29.2145   19.3504 N   0  0  0  0  0  0  0  0  0  0  0  0
  -20.3189  -29.2308   15.7492 N   0  3  0  0  0  0  0  0  0  0  0  0
  -26.4443  -10.5156   25.3134 O   0  0  0  0  0  0  0  0  0  0  0  0
  -23.5040  -29.0897   23.4971 O   0  0  0  0  0  0  0  0  0  0  0  0
  -21.0079  -30.9628   21.3863 O   0  0  0  0  0  0  0  0  0  0  0  0
  -21.0445  -27.6665   17.9725 O   0  0  0  0  0  0  0  0  0  0  0  0
  -29.7126  -15.9781   21.9279 O   0  0  0  0  0  0  0  0  0  0  0  0
  -20.9265   -7.8416   20.5186 O   0  0  0  0  0  0  0  0  0  0  0  0
  -27.4837  -25.8871   19.3119 O   0  0  0  0  0  0  0  0  0  1  0  0
  -20.5552   -2.7104   22.5029 F   0  0  0  0  0  0  0  0  0  0  0  0
  -20.9729   -7.3671   23.2417 F   0  0  0  0  0  0  0  0  0  0  0  0
  1  2  1  0  0  0  0
  1  5  2  0  0  0  0
  2  6  2  0  0  0  0
  3  8  2  0  0  0  0
  3 17  1  0  0  0  0
  4  9  1  0  0  0  0
  4 17  2  0  0  0  0
  5 19  1  0  0  0  0
  6 21  1  0  0  0  0
  7 10  2  0  0  0  0
  7 20  1  0  0  0  0
  8 24  1  0  0  0  0
  9 24  2  0  0  0  0
 10 25  1  0  0  0  0
 11 12  2  0  0  0  0
 11 26  1  0  0  0  0
 12 27  1  0  0  0  0
 13 22  1  0  0  0  0
 13 25  2  0  0  0  0
 14 23  2  0  0  0  0
 14 30  1  0  0  0  0
 15 23  1  0  0  0  0
 15 31  2  0  0  0  0
 16 27  2  0  0  0  0
 16 28  1  0  0  0  0
 17 29  1  0  0  0  0
 18 29  1  0  0  0  0
 18 32  2  0  0  0  0
 18 33  1  0  0  0  0
 19 21  2  0  0  0  0
 19 38  1  0  0  0  0
 20 22  2  0  0  0  0
 20 39  1  0  0  0  0
 21 53  1  0  0  0  0
 22 40  1  0  0  0  0
 23 63  1  0  0  0  0
 24 84  1  0  0  0  0
 25 85  1  0  0  0  0
 26 28  2  0  0  0  0
 26 84  1  0  0  0  0
 27 86  1  0  0  0  0
 28 87  1  0  0  0  0
 29 67  2  0  0  0  0
 30 54  1  0  0  0  0
 30 68  2  0  0  0  0
 31 68  1  0  0  0  0
 31 75  1  0  0  0  0
 32 69  1  0  0  0  0
 32 73  1  0  0  0  0
 33 74  1  0  0  0  0
 33 79  2  0  0  0  0
 34 55  1  0  0  0  0
 34 76  1  0  0  0  0
 34 80  2  0  0  0  0
 35 64  1  0  0  0  0
 35 70  1  0  0  0  0
 35 81  2  0  0  0  0
 36 65  1  0  0  0  0
 36 77  1  0  0  0  0
 36 82  2  0  0  0  0
 37 71  1  0  0  0  0
 37 72  1  0  0  0  0
 37 83  2  0  0  0  0
 38 41  1  0  0  0  0
 39 55  1  0  0  0  0
 40 70  1  0  0  0  0
 41 43  1  0  0  0  0
 42 46  1  0  0  0  0
 42 49  1  0  0  0  0
 43 53  1  0  0  0  0
 44 45  1  0  0  0  0
 44 54  1  0  0  0  0
 45 54  1  0  0  0  0
 46 56  1  0  0  0  0
 47 50  1  0  0  0  0
 47 57  1  0  0  0  0
 48 51  1  0  0  0  0
 48 57  1  0  0  0  0
 49 71  1  0  0  0  0
 50 72  1  0  0  0  0
 51 72  1  0  0  0  0
 52 56  1  0  0  0  0
 52 71  1  0  0  0  0
 53 76  1  0  0  0  0
 55 70  1  0  0  0  0
 56 69  1  0  0  0  0
 57 75  1  0  0  0  0
 58 65  1  0  0  0  0
 59 66  1  0  0  0  0
 60 66  1  0  0  0  0
 61 66  1  0  0  0  0
 62 78  1  0  0  0  0
 63 85  1  0  0  0  0
 64 66  1  0  0  0  0
 64 77  1  0  0  0  0
 65 78  1  0  0  0  0
 67 69  1  0  0  0  0
M  CHG  1  78   1
M  ISO  4  37 100  63 101  72 100  85 101
M  END
> <Batch ID>
0173

> <Smiles>
CNC(C)C(=O)NC(C(=O)N1Cc2cc([101O:1][101CH2:1]c3cc(NC4CC[100N:0]([100C:0](=O)N5CCCC(n6nc(-c7ccc(Oc8ccc(F)cc8F)cc7)c(C(N)=O)c6N)C5)CC4)nc(C4CC4)c3)ccc2CC1C(=O)NC1CCCc2ccccc21)C(C)(C)C

> <Shape>
0.341

> <Color>
0.093

> <Negative vol penalty>
0.000

$$$$

  -OEChem-04052322423D

 84 93  0     1  0  0  0  0  0999 V2000
  -27.6633  -32.6205   19.1816 C   0  0  0  0  0  0  0  0  0  0  0  0
  -28.1926  -31.4541   19.7245 C   0  0  0  0  0  0  0  0  0  0  0  0
  -22.9838   -9.9112   19.9542 C   0  0  0  0  0  0  0  0  0  0  0  0
  -23.7724   -9.8552   22.2372 C   0  0  0  0  0  0  0  0  0  0  0  0
  -26.3077  -32.9072   19.3359 C   0  0  0  0  0  0  0  0  0  0  0  0
  -27.3666  -30.5742   20.4231 C   0  0  0  0  0  0  0  0  0  0  0  0
  -27.7770  -24.4654   20.5629 C   0  0  0  0  0  0  0  0  0  0  0  0
  -22.2162   -8.7710   20.1913 C   0  0  0  0  0  0  0  0  0  0  0  0
  -23.0046   -8.7150   22.4744 C   0  0  0  0  0  0  0  0  0  0  0  0
  -28.3373  -23.5838   21.4863 C   0  0  0  0  0  0  0  0  0  0  0  0
  -23.2102   -5.3987   21.8488 C   0  0  0  0  0  0  0  0  0  0  0  0
  -23.8103   -4.3454   22.5386 C   0  0  0  0  0  0  0  0  0  0  0  0
  -26.1703  -23.2799   22.5017 C   0  0  0  0  0  0  0  0  0  0  0  0
  -22.1349   -4.5249   24.2701 C   0  0  0  0  0  0  0  0  0  0  0  0
  -23.7620  -10.4533   20.9771 C   0  0  0  0  0  0  0  0  0  0  0  0
  -24.1617  -12.9716   20.9018 C   0  0  0  0  0  0  0  0  0  0  0  0
  -25.4627  -32.0257   20.0285 C   0  0  0  0  0  0  0  0  0  0  0  0
  -26.4089  -24.7697   20.6088 C   0  0  0  0  0  0  0  0  0  0  0  0
  -25.9986  -30.8501   20.5880 C   0  0  0  0  0  0  0  0  0  0  0  0
  -25.5947  -24.1636   21.5762 C   0  0  0  0  0  0  0  0  0  0  0  0
  -31.6718  -19.1148   22.8330 C   0  0  0  0  0  0  0  0  0  0  0  0
  -22.2266   -8.1729   21.4514 C   0  0  0  0  0  0  0  0  0  0  0  0
  -27.5345  -22.9931   22.4577 C   0  0  0  0  0  0  0  0  0  0  0  0
  -22.0725   -6.0153   22.3696 C   0  0  0  0  0  0  0  0  0  0  0  0
  -23.2726   -3.9084   23.7493 C   0  0  0  0  0  0  0  0  0  0  0  0
  -21.5349   -5.5783   23.5803 C   0  0  0  0  0  0  0  0  0  0  0  0
  -24.5556  -11.6307   20.7326 C   0  0  0  0  0  0  0  0  0  0  0  0
  -30.4048  -18.6775   23.2031 C   0  0  0  0  0  0  0  0  0  0  0  0
  -32.3714  -18.2756   21.9794 C   0  0  0  0  0  0  0  0  0  0  0  0
  -25.2666  -13.7025   20.5390 C   0  0  0  0  0  0  0  0  0  0  0  0
  -30.6703  -16.7756   21.9583 C   0  0  0  0  0  0  0  0  0  0  0  0
  -22.9091  -13.5086   21.3471 C   0  0  0  0  0  0  0  0  0  0  0  0
  -24.7147  -27.4192   21.0711 C   0  0  0  0  0  0  0  0  0  0  0  0
  -22.2143  -25.4781   20.3624 C   0  0  0  0  0  0  0  0  0  0  0  0
  -20.9506  -22.3105   20.2360 C   0  0  0  0  0  0  0  0  0  0  0  0
  -30.7577  -14.6166   20.6631 C   0  0  0  0  0  0  0  0  0  0  0  0
  -24.0134  -32.4016   20.2102 C   0  0  0  0  0  0  0  0  0  0  0  0
  -25.8149  -25.7021   19.5889 C   0  0  0  0  0  0  0  0  0  0  0  0
  -32.2301  -20.4378   23.2581 C   0  0  0  0  0  0  0  0  0  0  0  0
  -24.1165  -24.4414   21.6555 C   0  0  0  0  0  0  0  0  0  0  0  0
  -23.1307  -31.2334   20.6419 C   0  0  0  0  0  0  0  0  0  0  0  0
  -29.5571  -12.2767   18.2630 C   0  0  0  0  0  0  0  0  0  0  0  0
  -23.7902  -30.4571   21.7773 C   0  0  0  0  0  0  0  0  0  0  0  0
  -28.1165  -12.0103   18.7054 C   0  0  0  0  0  0  0  0  0  0  0  0
  -30.4923  -12.4603   19.4569 C   0  0  0  0  0  0  0  0  0  0  0  0
  -28.6204  -13.2016   20.8766 C   0  0  0  0  0  0  0  0  0  0  0  0
  -31.5213  -21.0310   24.4696 C   0  0  0  0  0  0  0  0  0  0  0  0
  -25.1298  -29.8587   21.3312 C   0  0  1  0  0  0  0  0  0  0  0  0
  -29.5408  -19.5030   24.1264 C   0  0  1  0  0  0  0  0  0  0  0  0
  -24.5065  -26.3368   20.0499 C   0  0  1  0  0  0  0  0  0  0  0  0
  -27.6291  -13.0744   19.7083 C   0  0  2  0  0  0  0  0  0  0  0  0
  -33.7390  -18.6356   21.4965 C   0  0  0  0  0  0  0  0  0  0  0  0
  -29.4266  -18.8476   25.5059 C   0  0  0  0  0  0  0  0  0  0  0  0
  -18.8654  -21.0434   19.6498 C   0  0  0  0  0  0  0  0  0  0  0  0
  -20.9312  -26.3842   22.9783 C   0  0  0  0  0  0  0  0  0  0  0  0
  -19.3720  -24.4327   22.8085 C   0  0  0  0  0  0  0  0  0  0  0  0
  -19.3500  -26.2012   21.0493 C   0  0  0  0  0  0  0  0  0  0  0  0
  -22.3353  -20.7860   18.1106 C   0  0  0  0  0  0  0  0  0  0  0  0
  -29.4808  -21.8781   23.2573 C   0  0  0  0  0  0  0  0  0  1  0  0
  -21.2929  -24.5871   21.1601 C   0  0  1  0  0  0  0  0  0  0  0  0
  -20.2005  -21.5680   19.1449 C   0  0  2  0  0  0  0  0  0  0  0  0
  -20.2647  -25.3974   21.9990 C   0  0  0  0  0  0  0  0  0  0  0  0
  -25.8126  -11.5137   20.2962 N   0  0  0  0  0  0  0  0  0  0  0  0
  -29.8846  -17.5024   22.7746 N   0  0  0  0  0  0  0  0  0  0  0  0
  -31.9021  -17.0956   21.5272 N   0  0  0  0  0  0  0  0  0  0  0  0
  -26.2180  -12.7904   20.1880 N   0  0  0  0  0  0  0  0  0  0  0  0
  -23.5839  -25.3648   20.6401 N   0  0  0  0  0  0  0  0  0  0  0  0
  -29.9688  -13.4864   20.3613 N   0  0  0  0  0  0  0  0  0  0  0  0
  -25.5074  -15.0298   20.4892 N   0  0  0  0  0  0  0  0  0  0  0  0
  -21.8803  -12.6168   21.6798 N   0  0  0  0  0  0  0  0  0  0  0  0
  -30.1426  -15.5402   21.5076 N   0  0  0  0  0  0  0  0  0  0  0  0
  -24.9119  -28.6745   20.5282 N   0  0  0  0  0  0  0  0  0  0  0  0
  -20.6897  -23.6640   20.2049 N   0  0  0  0  0  0  0  0  0  0  0  0
  -30.0214  -20.9431   24.3099 N   0  3  2  0  0  0  0  0  0  0  0  0
  -21.0054  -20.4125   18.6572 N   0  3  0  0  0  0  0  0  0  0  0  0
  -22.7027  -14.7430   21.4315 O   0  0  0  0  0  0  0  0  0  0  0  0
  -24.6963  -27.1366   22.2634 O   0  0  0  0  0  0  0  0  0  0  0  0
  -21.7369  -26.2412   19.5189 O   0  0  0  0  0  0  0  0  0  0  0  0
  -21.6908  -21.7456   21.0383 O   0  0  0  0  0  0  0  0  0  0  0  0
  -31.8845  -14.7682   20.1842 O   0  0  0  0  0  0  0  0  0  0  0  0
  -21.4774   -7.0604   21.6832 O   0  0  0  0  0  0  0  0  0  0  0  0
  -28.0789  -22.1328   23.3606 O   0  0  0  0  0  0  0  0  0  1  0  0
  -23.8481   -2.8958   24.4108 F   0  0  0  0  0  0  0  0  0  0  0  0
  -20.4414   -6.1659   24.0851 F   0  0  0  0  0  0  0  0  0  0  0  0
  1  2  1  0  0  0  0
  1  5  2  0  0  0  0
  2  6  2  0  0  0  0
  3  8  2  0  0  0  0
  3 15  1  0  0  0  0
  4  9  1  0  0  0  0
  4 15  2  0  0  0  0
  5 17  1  0  0  0  0
  6 19  1  0  0  0  0
  7 10  2  0  0  0  0
  7 18  1  0  0  0  0
  8 22  1  0  0  0  0
  9 22  2  0  0  0  0
 10 23  1  0  0  0  0
 11 12  2  0  0  0  0
 11 24  1  0  0  0  0
 12 25  1  0  0  0  0
 13 20  1  0  0  0  0
 13 23  2  0  0  0  0
 14 25  2  0  0  0  0
 14 26  1  0  0  0  0
 15 27  1  0  0  0  0
 16 27  1  0  0  0  0
 16 30  2  0  0  0  0
 16 32  1  0  0  0  0
 17 19  2  0  0  0  0
 17 37  1  0  0  0  0
 18 20  2  0  0  0  0
 18 38  1  0  0  0  0
 19 48  1  0  0  0  0
 20 40  1  0  0  0  0
 21 28  2  0  0  0  0
 21 29  1  0  0  0  0
 21 39  1  0  0  0  0
 22 81  1  0  0  0  0
 23 82  1  0  0  0  0
 24 26  2  0  0  0  0
 24 81  1  0  0  0  0
 25 83  1  0  0  0  0
 26 84  1  0  0  0  0
 27 63  2  0  0  0  0
 28 49  1  0  0  0  0
 28 64  1  0  0  0  0
 29 52  1  0  0  0  0
 29 65  2  0  0  0  0
 30 66  1  0  0  0  0
 30 69  1  0  0  0  0
 31 64  2  0  0  0  0
 31 65  1  0  0  0  0
 31 71  1  0  0  0  0
 32 70  1  0  0  0  0
 32 76  2  0  0  0  0
 33 50  1  0  0  0  0
 33 72  1  0  0  0  0
 33 77  2  0  0  0  0
 34 60  1  0  0  0  0
 34 67  1  0  0  0  0
 34 78  2  0  0  0  0
 35 61  1  0  0  0  0
 35 73  1  0  0  0  0
 35 79  2  0  0  0  0
 36 68  1  0  0  0  0
 36 71  1  0  0  0  0
 36 80  2  0  0  0  0
 37 41  1  0  0  0  0
 38 50  1  0  0  0  0
 39 47  1  0  0  0  0
 40 67  1  0  0  0  0
 41 43  1  0  0  0  0
 42 44  1  0  0  0  0
 42 45  1  0  0  0  0
 43 48  1  0  0  0  0
 44 51  1  0  0  0  0
 45 68  1  0  0  0  0
 46 51  1  0  0  0  0
 46 68  1  0  0  0  0
 47 74  1  0  0  0  0
 48 72  1  0  0  0  0
 49 53  1  0  0  0  0
 49 74  1  0  0  0  0
 50 67  1  0  0  0  0
 51 66  1  0  0  0  0
 54 61  1  0  0  0  0
 55 62  1  0  0  0  0
 56 62  1  0  0  0  0
 57 62  1  0  0  0  0
 58 75  1  0  0  0  0
 59 74  1  0  0  0  0
 59 82  1  0  0  0  0
 60 62  1  0  0  0  0
 60 73  1  0  0  0  0
 61 75  1  0  0  0  0
 63 66  1  0  0  0  0
M  CHG  2  74   1  75   1
M  ISO  4  36 100  59 101  71 100  82 101
M  END
> <Batch ID>
0173

> <Smiles>
CNC(C)C(=O)NC(C(=O)N1Cc2cc([101O:1][101CH2:1]N3CCc4c(C)nc([100NH:0][100C:0](=O)N5CCCC(n6nc(-c7ccc(Oc8ccc(F)cc8F)cc7)c(C(N)=O)c6N)C5)nc4C3C)ccc2CC1C(=O)NC1CCCc2ccccc21)C(C)(C)C

> <Shape>
0.265

> <Color>
0.192

> <Negative vol penalty>
0.000

$$$$

  -OEChem-04052322423D

 87 96  0     1  0  0  0  0  0999 V2000
  -21.4086   -9.0118   15.8128 C   0  0  0  0  0  0  0  0  0  0  0  0
  -22.3887   -9.9951   15.9032 C   0  0  0  0  0  0  0  0  0  0  0  0
  -25.7940  -28.9945   23.5059 C   0  0  0  0  0  0  0  0  0  0  0  0
  -27.0693  -30.7239   22.4015 C   0  0  0  0  0  0  0  0  0  0  0  0
  -20.3189   -9.0334   16.6822 C   0  0  0  0  0  0  0  0  0  0  0  0
  -22.2789  -11.0012   16.8624 C   0  0  0  0  0  0  0  0  0  0  0  0
  -26.6467  -11.8730   19.2721 C   0  0  0  0  0  0  0  0  0  0  0  0
  -25.9049  -29.6838   24.7135 C   0  0  0  0  0  0  0  0  0  0  0  0
  -27.1802  -31.4133   23.6091 C   0  0  0  0  0  0  0  0  0  0  0  0
  -27.6053  -12.6292   18.5991 C   0  0  0  0  0  0  0  0  0  0  0  0
  -27.4914  -33.8084   26.3266 C   0  0  0  0  0  0  0  0  0  0  0  0
  -27.2668  -35.1850   26.3114 C   0  0  0  0  0  0  0  0  0  0  0  0
  -26.9472  -14.5764   19.8619 C   0  0  0  0  0  0  0  0  0  0  0  0
  -25.0234  -34.8100   25.4967 C   0  0  0  0  0  0  0  0  0  0  0  0
  -31.8908  -16.7769   21.4414 C   0  0  0  0  0  0  0  0  0  0  0  0
  -26.3762  -29.5146   22.3500 C   0  0  0  0  0  0  0  0  0  0  0  0
  -25.2464  -28.9359   20.1372 C   0  0  0  0  0  0  0  0  0  0  0  0
  -20.2006  -10.0348   17.6589 C   0  0  0  0  0  0  0  0  0  0  0  0
  -25.8223  -12.4663   20.2390 C   0  0  0  0  0  0  0  0  0  0  0  0
  -21.1858  -11.0370   17.7448 C   0  0  0  0  0  0  0  0  0  0  0  0
  -25.9806  -13.8249   20.5476 C   0  0  0  0  0  0  0  0  0  0  0  0
  -26.5980  -30.8932   24.7651 C   0  0  0  0  0  0  0  0  0  0  0  0
  -27.7537  -13.9817   18.8918 C   0  0  0  0  0  0  0  0  0  0  0  0
  -26.4820  -32.9326   25.9268 C   0  0  0  0  0  0  0  0  0  0  0  0
  -26.0328  -35.6858   25.8965 C   0  0  0  0  0  0  0  0  0  0  0  0
  -25.2480  -33.4334   25.5119 C   0  0  0  0  0  0  0  0  0  0  0  0
  -26.2625  -28.8027   21.1024 C   0  0  0  0  0  0  0  0  0  0  0  0
  -31.9887  -15.4171   21.2279 C   0  0  0  0  0  0  0  0  0  0  0  0
  -31.4949  -17.5253   20.3516 C   0  0  0  0  0  0  0  0  0  0  0  0
  -25.5941  -28.0489   19.1479 C   0  0  0  0  0  0  0  0  0  0  0  0
  -31.3463  -15.6600   19.0610 C   0  0  0  0  0  0  0  0  0  0  0  0
  -24.0915  -29.7856   20.1351 C   0  0  0  0  0  0  0  0  0  0  0  0
  -22.6915  -12.9248   20.5415 C   0  0  0  0  0  0  0  0  0  0  0  0
  -23.5299  -14.0203   23.4774 C   0  0  0  0  0  0  0  0  0  0  0  0
  -25.9365  -15.3632   25.4902 C   0  0  0  0  0  0  0  0  0  0  0  0
  -28.5838  -23.1048   19.0642 C   0  0  0  0  0  0  0  0  0  0  0  0
  -18.9804  -10.0438   18.5453 C   0  0  0  0  0  0  0  0  0  0  0  0
  -24.8113  -11.6307   20.9751 C   0  0  0  0  0  0  0  0  0  0  0  0
  -25.1344  -14.5048   21.5917 C   0  0  0  0  0  0  0  0  0  0  0  0
  -19.1306  -10.9298   19.7793 C   0  0  0  0  0  0  0  0  0  0  0  0
  -29.3983  -25.9426   17.1636 C   0  0  0  0  0  0  0  0  0  0  0  0
  -19.7151  -12.2854   19.3953 C   0  0  0  0  0  0  0  0  0  0  0  0
  -28.5807  -27.0247   17.8684 C   0  0  0  0  0  0  0  0  0  0  0  0
  -31.4598  -21.2179   19.8105 C   0  0  0  0  0  0  0  0  0  0  0  0
  -29.4620  -19.7617   19.3045 C   0  0  0  0  0  0  0  0  0  0  0  0
  -30.0389  -24.9706   18.1560 C   0  0  0  0  0  0  0  0  0  0  0  0
  -30.9512  -22.2405   18.7900 C   0  0  0  0  0  0  0  0  0  0  0  0
  -29.0096  -20.7959   18.2774 C   0  0  0  0  0  0  0  0  0  0  0  0
  -28.2615  -25.4448   19.8098 C   0  0  0  0  0  0  0  0  0  0  0  0
  -21.1147  -12.1307   18.7883 C   0  0  1  0  0  0  0  0  0  0  0  0
  -23.6768  -12.4560   21.5745 C   0  0  1  0  0  0  0  0  0  0  0  0
  -27.5579  -26.4022   18.8355 C   0  0  1  0  0  0  0  0  0  0  0  0
  -30.9829  -19.8030   19.4743 C   0  0  0  0  0  0  0  0  0  0  0  0
  -32.4099  -14.5254   22.3474 C   0  0  0  0  0  0  0  0  0  0  0  0
  -32.2772  -14.3439   17.1290 C   0  0  0  0  0  0  0  0  0  0  0  0
  -26.3134  -16.1852   27.8311 C   0  0  0  0  0  0  0  0  0  0  0  0
  -21.9936  -16.5746   22.8253 C   0  0  0  0  0  0  0  0  0  0  0  0
  -23.1737  -17.6882   24.7320 C   0  0  0  0  0  0  0  0  0  0  0  0
  -21.6806  -15.7364   25.1607 C   0  0  0  0  0  0  0  0  0  0  0  0
  -28.0415  -13.3425   25.9847 C   0  0  0  0  0  0  0  0  0  0  0  0
  -29.8635  -14.0426   17.7959 C   0  0  0  0  0  0  0  0  0  1  0  0
  -31.0437  -15.0397   17.7393 C   0  0  1  0  0  0  0  0  0  0  0  0
  -23.9191  -15.3633   24.0464 C   0  0  1  0  0  0  0  0  0  0  0  0
  -26.4012  -14.9955   26.8878 C   0  0  2  0  0  0  0  0  0  0  0  0
  -22.7065  -16.3285   24.1700 C   0  0  0  0  0  0  0  0  0  0  0  0
  -27.1864  -27.9019   20.7575 N   0  0  0  0  0  0  0  0  0  0  0  0
  -31.7230  -14.8227   20.0462 N   0  0  0  0  0  0  0  0  0  0  0  0
  -31.2138  -16.9977   19.1421 N   0  0  0  0  0  0  0  0  0  0  0  0
  -26.7521  -27.4610   19.5646 N   0  0  0  0  0  0  0  0  0  0  0  0
  -24.1555  -13.6468   22.2795 N   0  0  0  0  0  0  0  0  0  0  0  0
  -29.0321  -24.4340   19.0824 N   0  0  0  0  0  0  0  0  0  0  0  0
  -29.4945  -22.1318   18.6259 N   0  0  0  0  0  0  0  0  0  0  0  0
  -25.0192  -27.7222   17.9710 N   0  0  0  0  0  0  0  0  0  0  0  0
  -23.8855  -30.6357   21.2301 N   0  0  0  0  0  0  0  0  0  0  0  0
  -31.3845  -18.8936   20.5248 N   0  0  0  0  0  0  0  0  0  0  0  0
  -22.0945  -11.9027   19.8287 N   0  0  0  0  0  0  0  0  0  0  0  0
  -24.5970  -15.0907   25.3091 N   0  0  0  0  0  0  0  0  0  0  0  0
  -27.8145  -14.5238   26.8564 N   0  3  0  0  0  0  0  0  0  0  0  0
  -23.2579  -29.7789   19.1977 O   0  0  0  0  0  0  0  0  0  0  0  0
  -22.4870  -14.1251   20.4025 O   0  0  0  0  0  0  0  0  0  0  0  0
  -22.7065  -13.3249   24.0776 O   0  0  0  0  0  0  0  0  0  0  0  0
  -26.6859  -15.8475   24.6450 O   0  0  0  0  0  0  0  0  0  0  0  0
  -27.4370  -22.8045   19.4190 O   0  0  0  0  0  0  0  0  0  0  0  0
  -26.7062  -31.5662   25.9432 O   0  0  0  0  0  0  0  0  0  0  0  0
  -28.6943  -14.7272   18.2316 O   0  0  0  0  0  0  0  0  0  1  0  0
  -25.8167  -37.0076   25.8834 F   0  0  0  0  0  0  0  0  0  0  0  0
  -24.2740  -32.5969   25.1278 F   0  0  0  0  0  0  0  0  0  0  0  0
  1  2  1  0  0  0  0
  1  5  2  0  0  0  0
  2  6  2  0  0  0  0
  3  8  2  0  0  0  0
  3 16  1  0  0  0  0
  4  9  1  0  0  0  0
  4 16  2  0  0  0  0
  5 18  1  0  0  0  0
  6 20  1  0  0  0  0
  7 10  2  0  0  0  0
  7 19  1  0  0  0  0
  8 22  1  0  0  0  0
  9 22  2  0  0  0  0
 10 23  1  0  0  0  0
 11 12  2  0  0  0  0
 11 24  1  0  0  0  0
 12 25  1  0  0  0  0
 13 21  1  0  0  0  0
 13 23  2  0  0  0  0
 14 25  2  0  0  0  0
 14 26  1  0  0  0  0
 15 28  1  0  0  0  0
 15 29  2  0  0  0  0
 16 27  1  0  0  0  0
 17 27  1  0  0  0  0
 17 30  2  0  0  0  0
 17 32  1  0  0  0  0
 18 20  2  0  0  0  0
 18 37  1  0  0  0  0
 19 21  2  0  0  0  0
 19 38  1  0  0  0  0
 20 50  1  0  0  0  0
 21 39  1  0  0  0  0
 22 84  1  0  0  0  0
 23 85  1  0  0  0  0
 24 26  2  0  0  0  0
 24 84  1  0  0  0  0
 25 86  1  0  0  0  0
 26 87  1  0  0  0  0
 27 66  2  0  0  0  0
 28 54  1  0  0  0  0
 28 67  2  0  0  0  0
 29 68  1  0  0  0  0
 29 75  1  0  0  0  0
 30 69  1  0  0  0  0
 30 73  1  0  0  0  0
 31 62  1  0  0  0  0
 31 67  1  0  0  0  0
 31 68  2  0  0  0  0
 32 74  1  0  0  0  0
 32 79  2  0  0  0  0
 33 51  1  0  0  0  0
 33 76  1  0  0  0  0
 33 80  2  0  0  0  0
 34 63  1  0  0  0  0
 34 70  1  0  0  0  0
 34 81  2  0  0  0  0
 35 64  1  0  0  0  0
 35 77  1  0  0  0  0
 35 82  2  0  0  0  0
 36 71  1  0  0  0  0
 36 72  1  0  0  0  0
 36 83  2  0  0  0  0
 37 40  1  0  0  0  0
 38 51  1  0  0  0  0
 39 70  1  0  0  0  0
 40 42  1  0  0  0  0
 41 43  1  0  0  0  0
 41 46  1  0  0  0  0
 42 50  1  0  0  0  0
 43 52  1  0  0  0  0
 44 47  1  0  0  0  0
 44 53  1  0  0  0  0
 45 48  1  0  0  0  0
 45 53  1  0  0  0  0
 46 71  1  0  0  0  0
 47 72  1  0  0  0  0
 48 72  1  0  0  0  0
 49 52  1  0  0  0  0
 49 71  1  0  0  0  0
 50 76  1  0  0  0  0
 51 70  1  0  0  0  0
 52 69  1  0  0  0  0
 53 75  1  0  0  0  0
 55 62  1  0  0  0  0
 56 64  1  0  0  0  0
 57 65  1  0  0  0  0
 58 65  1  0  0  0  0
 59 65  1  0  0  0  0
 60 78  1  0  0  0  0
 61 62  1  0  0  0  0
 61 85  1  0  0  0  0
 63 65  1  0  0  0  0
 63 77  1  0  0  0  0
 64 78  1  0  0  0  0
 66 69  1  0  0  0  0
M  CHG  1  78   1
M  ISO  4  36 100  61 101  72 100  85 101
M  END
> <Batch ID>
0173

> <Smiles>
CNC(C)C(=O)NC(C(=O)N1Cc2cc([101O:1][101CH2:1]C(C)c3nc(C)cc(NC4CC[100N:0]([100C:0](=O)N5CCCC(n6nc(-c7ccc(Oc8ccc(F)cc8F)cc7)c(C(N)=O)c6N)C5)CC4)n3)ccc2CC1C(=O)NC1CCCc2ccccc21)C(C)(C)C

> <Shape>
0.254

> <Color>
0.065

> <Negative vol penalty>
0.000

$$$$

  -OEChem-04052322423D

 83 92  0     1  0  0  0  0  0999 V2000
  -17.1299  -29.3344   24.6549 C   0  0  0  0  0  0  0  0  0  0  0  0
  -17.3433  -28.0724   24.1096 C   0  0  0  0  0  0  0  0  0  0  0  0
  -23.1053  -10.3041   21.1275 C   0  0  0  0  0  0  0  0  0  0  0  0
  -24.6481   -8.8006   22.2213 C   0  0  0  0  0  0  0  0  0  0  0  0
  -17.7995  -30.4404   24.1330 C   0  0  0  0  0  0  0  0  0  0  0  0
  -18.2256  -27.9159   23.0412 C   0  0  0  0  0  0  0  0  0  0  0  0
  -22.8875  -23.2227   20.2923 C   0  0  0  0  0  0  0  0  0  0  0  0
  -22.2138   -9.2489   20.9346 C   0  0  0  0  0  0  0  0  0  0  0  0
  -23.7565   -7.7454   22.0284 C   0  0  0  0  0  0  0  0  0  0  0  0
  -23.1845  -22.5759   19.0934 C   0  0  0  0  0  0  0  0  0  0  0  0
  -20.9202   -6.5905   23.4572 C   0  0  0  0  0  0  0  0  0  0  0  0
  -20.6897   -5.7338   24.5336 C   0  0  0  0  0  0  0  0  0  0  0  0
  -24.3456  -24.5459   18.3252 C   0  0  0  0  0  0  0  0  0  0  0  0
  -21.5002   -3.8716   23.2250 C   0  0  0  0  0  0  0  0  0  0  0  0
  -25.4501  -19.5475   16.4768 C   0  0  0  0  0  0  0  0  0  0  0  0
  -24.3226  -10.0800   21.7708 C   0  0  0  0  0  0  0  0  0  0  0  0
  -25.3073  -12.0384   23.0756 C   0  0  0  0  0  0  0  0  0  0  0  0
  -18.6978  -30.2959   23.0640 C   0  0  0  0  0  0  0  0  0  0  0  0
  -23.3087  -24.5420   20.5126 C   0  0  0  0  0  0  0  0  0  0  0  0
  -18.9068  -29.0212   22.5036 C   0  0  0  0  0  0  0  0  0  0  0  0
  -24.0549  -25.2063   19.5287 C   0  0  0  0  0  0  0  0  0  0  0  0
  -27.6739  -19.5142   18.0690 C   0  0  0  0  0  0  0  0  0  0  0  0
  -26.3008  -20.6367   16.4317 C   0  0  0  0  0  0  0  0  0  0  0  0
  -27.4305  -20.6117   17.2399 C   0  0  0  0  0  0  0  0  0  0  0  0
  -22.5393   -7.9695   21.3851 C   0  0  0  0  0  0  0  0  0  0  0  0
  -23.9112  -23.2385   18.1085 C   0  0  0  0  0  0  0  0  0  0  0  0
  -21.4405   -6.0877   22.2647 C   0  0  0  0  0  0  0  0  0  0  0  0
  -20.9798   -4.3744   24.4175 C   0  0  0  0  0  0  0  0  0  0  0  0
  -21.7306   -4.7283   22.1486 C   0  0  0  0  0  0  0  0  0  0  0  0
  -25.2442  -11.1695   21.9698 C   0  0  0  0  0  0  0  0  0  0  0  0
  -26.7633  -18.4527   18.0326 C   0  0  0  0  0  0  0  0  0  0  0  0
  -26.3448  -12.8899   22.7845 C   0  0  0  0  0  0  0  0  0  0  0  0
  -24.5001  -12.0726   24.2602 C   0  0  0  0  0  0  0  0  0  0  0  0
  -21.8351  -27.3088   21.0388 C   0  0  0  0  0  0  0  0  0  0  0  0
  -24.8604  -28.3876   21.4933 C   0  0  0  0  0  0  0  0  0  0  0  0
  -28.1964  -27.9988   20.8880 C   0  0  0  0  0  0  0  0  0  0  0  0
  -29.1821  -16.0910   19.3309 C   0  0  0  0  0  0  0  0  0  0  0  0
  -19.3625  -31.5279   22.5028 C   0  0  0  0  0  0  0  0  0  0  0  0
  -23.0032  -25.2164   21.8219 C   0  0  0  0  0  0  0  0  0  0  0  0
  -28.9109  -19.4631   18.9236 C   0  0  0  0  0  0  0  0  0  0  0  0
  -24.5477  -26.6161   19.7243 C   0  0  0  0  0  0  0  0  0  0  0  0
  -26.9528  -17.2330   18.9034 C   0  0  0  0  0  0  0  0  0  0  0  0
  -20.5648  -31.2200   21.6140 C   0  0  0  0  0  0  0  0  0  0  0  0
  -29.8661  -12.6930   19.1707 C   0  0  0  0  0  0  0  0  0  0  0  0
  -20.2279  -30.1069   20.6269 C   0  0  0  0  0  0  0  0  0  0  0  0
  -28.7329  -12.0517   19.9703 C   0  0  0  0  0  0  0  0  0  0  0  0
  -28.7872  -18.4291   20.0382 C   0  0  0  0  0  0  0  0  0  0  0  0
  -29.3459  -13.8407   18.3137 C   0  0  0  0  0  0  0  0  0  0  0  0
  -27.5005  -14.2773   19.9027 C   0  0  0  0  0  0  0  0  0  0  0  0
  -19.8750  -28.8073   21.3604 C   0  0  1  0  0  0  0  0  0  0  0  0
  -23.0399  -26.7389   21.7327 C   0  0  1  0  0  0  0  0  0  0  0  0
  -27.9713  -13.1074   20.7906 C   0  0  1  0  0  0  0  0  0  0  0  0
  -28.3811  -21.7672   17.2011 C   0  0  0  0  0  0  0  0  0  0  0  0
  -30.4210  -29.0592   21.3613 C   0  0  0  0  0  0  0  0  0  0  0  0
  -24.2646  -30.5534   19.4283 C   0  0  0  0  0  0  0  0  0  0  0  0
  -26.7285  -30.9583   19.2446 C   0  0  0  0  0  0  0  0  0  0  0  0
  -25.5626  -31.3370   21.4172 C   0  0  0  0  0  0  0  0  0  0  0  0
  -29.1752  -25.5889   22.2997 C   0  0  0  0  0  0  0  0  0  0  0  0
  -25.9940  -21.7844   15.5331 C   0  0  0  0  0  0  0  0  0  0  0  0
  -25.4081  -22.9890   16.2775 C   0  0  0  0  0  0  0  0  0  1  0  0
  -25.9319  -28.9716   20.6047 C   0  0  1  0  0  0  0  0  0  0  0  0
  -29.3985  -28.0289   21.8146 C   0  0  2  0  0  0  0  0  0  0  0  0
  -25.6111  -30.4292   20.1689 C   0  0  0  0  0  0  0  0  0  0  0  0
  -25.6518  -18.4612   17.2547 N   0  0  0  0  0  0  0  0  0  0  0  0
  -26.1681  -11.4439   21.0451 N   0  0  0  0  0  0  0  0  0  0  0  0
  -26.8214  -12.4949   21.5691 N   0  0  0  0  0  0  0  0  0  0  0  0
  -24.2182  -27.2350   21.0188 N   0  0  0  0  0  0  0  0  0  0  0  0
  -28.2932  -17.1626   19.5022 N   0  0  0  0  0  0  0  0  0  0  0  0
  -28.6233  -14.8215   19.1239 N   0  0  0  0  0  0  0  0  0  0  0  0
  -26.8868  -13.9306   23.4520 N   0  0  0  0  0  0  0  0  0  0  0  0
  -23.4770  -11.1249   24.3991 N   0  0  0  0  0  0  0  0  0  0  0  0
  -21.0758  -28.1498   21.8298 N   0  0  0  0  0  0  0  0  0  0  0  0
  -27.1884  -28.8282   21.3321 N   0  0  0  0  0  0  0  0  0  0  0  0
  -30.0598  -26.6938   21.8485 N   0  3  0  0  0  0  0  0  0  0  0  0
  -24.6703  -12.9289   25.1609 O   0  0  0  0  0  0  0  0  0  0  0  0
  -21.6119  -27.0090   19.8718 O   0  0  0  0  0  0  0  0  0  0  0  0
  -24.6075  -28.9298   22.5720 O   0  0  0  0  0  0  0  0  0  0  0  0
  -28.1572  -27.3115   19.8699 O   0  0  0  0  0  0  0  0  0  0  0  0
  -30.4079  -16.2604   19.3537 O   0  0  0  0  0  0  0  0  0  0  0  0
  -21.6695   -6.9397   21.1972 O   0  0  0  0  0  0  0  0  0  0  0  0
  -24.2039  -22.6054   16.9289 O   0  0  0  0  0  0  0  0  0  1  0  0
  -20.7599   -3.5521   25.4518 F   0  0  0  0  0  0  0  0  0  0  0  0
  -22.2318   -4.2397   21.0058 F   0  0  0  0  0  0  0  0  0  0  0  0
  1  2  1  0  0  0  0
  1  5  2  0  0  0  0
  2  6  2  0  0  0  0
  3  8  2  0  0  0  0
  3 16  1  0  0  0  0
  4  9  1  0  0  0  0
  4 16  2  0  0  0  0
  5 18  1  0  0  0  0
  6 20  1  0  0  0  0
  7 10  2  0  0  0  0
  7 19  1  0  0  0  0
  8 25  1  0  0  0  0
  9 25  2  0  0  0  0
 10 26  1  0  0  0  0
 11 12  2  0  0  0  0
 11 27  1  0  0  0  0
 12 28  1  0  0  0  0
 13 21  1  0  0  0  0
 13 26  2  0  0  0  0
 14 28  2  0  0  0  0
 14 29  1  0  0  0  0
 15 23  1  0  0  0  0
 15 64  2  0  0  0  0
 16 30  1  0  0  0  0
 17 30  1  0  0  0  0
 17 32  2  0  0  0  0
 17 33  1  0  0  0  0
 18 20  2  0  0  0  0
 18 38  1  0  0  0  0
 19 21  2  0  0  0  0
 19 39  1  0  0  0  0
 20 50  1  0  0  0  0
 21 41  1  0  0  0  0
 22 24  1  0  0  0  0
 22 31  2  0  0  0  0
 22 40  1  0  0  0  0
 23 24  2  0  0  0  0
 23 59  1  0  0  0  0
 24 53  1  0  0  0  0
 25 80  1  0  0  0  0
 26 81  1  0  0  0  0
 27 29  2  0  0  0  0
 27 80  1  0  0  0  0
 28 82  1  0  0  0  0
 29 83  1  0  0  0  0
 30 65  2  0  0  0  0
 31 42  1  0  0  0  0
 31 64  1  0  0  0  0
 32 66  1  0  0  0  0
 32 70  1  0  0  0  0
 33 71  1  0  0  0  0
 33 75  2  0  0  0  0
 34 51  1  0  0  0  0
 34 72  1  0  0  0  0
 34 76  2  0  0  0  0
 35 61  1  0  0  0  0
 35 67  1  0  0  0  0
 35 77  2  0  0  0  0
 36 62  1  0  0  0  0
 36 73  1  0  0  0  0
 36 78  2  0  0  0  0
 37 68  1  0  0  0  0
 37 69  1  0  0  0  0
 37 79  2  0  0  0  0
 38 43  1  0  0  0  0
 39 51  1  0  0  0  0
 40 47  1  0  0  0  0
 41 67  1  0  0  0  0
 42 68  1  0  0  0  0
 43 45  1  0  0  0  0
 44 46  1  0  0  0  0
 44 48  1  0  0  0  0
 45 50  1  0  0  0  0
 46 52  1  0  0  0  0
 47 68  1  0  0  0  0
 48 69  1  0  0  0  0
 49 52  1  0  0  0  0
 49 69  1  0  0  0  0
 50 72  1  0  0  0  0
 51 67  1  0  0  0  0
 52 66  1  0  0  0  0
 54 62  1  0  0  0  0
 55 63  1  0  0  0  0
 56 63  1  0  0  0  0
 57 63  1  0  0  0  0
 58 74  1  0  0  0  0
 59 60  1  0  0  0  0
 60 81  1  0  0  0  0
 61 63  1  0  0  0  0
 61 73  1  0  0  0  0
 62 74  1  0  0  0  0
 65 66  1  0  0  0  0
M  CHG  1  74   1
M  ISO  4  37 100  60 101  68 100  81 101
M  END
> <Batch ID>
0173

> <Smiles>
CNC(C)C(=O)NC(C(=O)N1Cc2cc([101O:1][101CH2:1]Cc3cnc4c(c3C)CC[100N:0]([100C:0](=O)N3CCCC(n5nc(-c6ccc(Oc7ccc(F)cc7F)cc6)c(C(N)=O)c5N)C3)C4)ccc2CC1C(=O)NC1CCCc2ccccc21)C(C)(C)C

> <Shape>
0.265

> <Color>
0.117

> <Negative vol penalty>
0.000

$$$$

  -OEChem-04052322423D

 86 96  0     1  0  0  0  0  0999 V2000
  -23.4469  -36.0855   21.4855 C   0  0  0  0  0  0  0  0  0  0  0  0
  -23.8911  -35.4212   20.3467 C   0  0  0  0  0  0  0  0  0  0  0  0
  -26.4314  -12.7465   21.6914 C   0  0  0  0  0  0  0  0  0  0  0  0
  -25.9315  -13.8498   19.6010 C   0  0  0  0  0  0  0  0  0  0  0  0
  -23.8547  -35.6535   22.7468 C   0  0  0  0  0  0  0  0  0  0  0  0
  -24.7443  -34.3250   20.4686 C   0  0  0  0  0  0  0  0  0  0  0  0
  -26.2885  -28.0757   17.3258 C   0  0  0  0  0  0  0  0  0  0  0  0
  -25.1898  -12.1120   21.6535 C   0  0  0  0  0  0  0  0  0  0  0  0
  -24.6899  -13.2153   19.5631 C   0  0  0  0  0  0  0  0  0  0  0  0
  -27.3751  -27.3651   16.8176 C   0  0  0  0  0  0  0  0  0  0  0  0
  -22.3000   -9.9233   21.9248 C   0  0  0  0  0  0  0  0  0  0  0  0
  -22.2577   -8.5623   22.2270 C   0  0  0  0  0  0  0  0  0  0  0  0
  -27.9504  -26.6592   19.0515 C   0  0  0  0  0  0  0  0  0  0  0  0
  -23.7473   -8.1059   20.3805 C   0  0  0  0  0  0  0  0  0  0  0  0
  -26.8023  -13.6154   20.6652 C   0  0  0  0  0  0  0  0  0  0  0  0
  -29.2970  -13.8008   20.1654 C   0  0  0  0  0  0  0  0  0  0  0  0
  -24.7056  -34.5455   22.8847 C   0  0  0  0  0  0  0  0  0  0  0  0
  -26.0307  -28.0923   18.7040 C   0  0  0  0  0  0  0  0  0  0  0  0
  -25.1650  -33.8786   21.7329 C   0  0  0  0  0  0  0  0  0  0  0  0
  -26.8584  -27.3687   19.5743 C   0  0  0  0  0  0  0  0  0  0  0  0
  -24.3190  -12.3464   20.5894 C   0  0  0  0  0  0  0  0  0  0  0  0
  -28.2079  -26.6591   17.6808 C   0  0  0  0  0  0  0  0  0  0  0  0
  -23.0659  -10.3757   20.8503 C   0  0  0  0  0  0  0  0  0  0  0  0
  -22.9814   -7.6536   21.4549 C   0  0  0  0  0  0  0  0  0  0  0  0
  -23.7896   -9.4670   20.0782 C   0  0  0  0  0  0  0  0  0  0  0  0
  -28.0845  -14.2715   20.7040 C   0  0  0  0  0  0  0  0  0  0  0  0
  -30.2097  -14.7827   20.4644 C   0  0  0  0  0  0  0  0  0  0  0  0
  -30.6793  -22.3424   19.0717 C   0  0  0  0  0  0  0  0  0  0  0  0
  -29.5735  -12.5848   19.4580 C   0  0  0  0  0  0  0  0  0  0  0  0
  -25.9220  -30.3503   20.9387 C   0  0  0  0  0  0  0  0  0  0  0  0
  -24.8803  -27.9086   22.8029 C   0  0  0  0  0  0  0  0  0  0  0  0
  -24.7578  -24.5457   23.3711 C   0  0  0  0  0  0  0  0  0  0  0  0
  -29.6812  -20.6476   21.5479 C   0  0  0  0  0  0  0  0  0  0  0  0
  -25.1572  -34.1446   24.2667 C   0  0  0  0  0  0  0  0  0  0  0  0
  -24.8389  -28.8419   19.2335 C   0  0  0  0  0  0  0  0  0  0  0  0
  -26.6129  -27.3379   21.0600 C   0  0  0  0  0  0  0  0  0  0  0  0
  -25.7626  -32.7445   24.3275 C   0  0  0  0  0  0  0  0  0  0  0  0
  -31.1158  -18.1950   23.6934 C   0  0  0  0  0  0  0  0  0  0  0  0
  -26.7591  -32.5440   23.1901 C   0  0  0  0  0  0  0  0  0  0  0  0
  -30.6110  -16.8689   23.1219 C   0  0  0  0  0  0  0  0  0  0  0  0
  -30.5429  -18.5597   17.8447 C   0  0  0  0  0  0  0  0  0  0  0  0
  -29.5820  -17.9775   16.8472 C   0  0  0  0  0  0  0  0  0  0  0  0
  -30.0603  -19.2935   23.5873 C   0  0  0  0  0  0  0  0  0  0  0  0
  -29.0082  -18.1716   21.6616 C   0  0  0  0  0  0  0  0  0  0  0  0
  -27.8271  -20.9137   16.4192 C   0  0  0  0  0  0  0  0  0  0  0  0
  -26.0713  -32.6702   21.8254 C   0  0  1  0  0  0  0  0  0  0  0  0
  -30.3564  -22.3780   17.5491 C   0  0  1  0  0  0  0  0  0  0  0  0
  -29.2498  -21.8682   19.4305 C   0  0  1  0  0  0  0  0  0  0  0  0
  -24.9713  -29.2098   20.7081 C   0  0  1  0  0  0  0  0  0  0  0  0
  -27.7332  -22.1764   17.3084 C   0  0  2  0  0  0  0  0  0  0  0  0
  -30.0577  -17.0474   21.6953 C   0  0  2  0  0  0  0  0  0  0  0  0
  -29.8184  -19.4603   16.8856 C   0  0  0  0  0  0  0  0  0  0  0  0
  -29.0374  -21.6650   17.9278 C   0  0  1  0  0  0  0  0  0  0  0  0
  -26.4801  -22.2403   18.1730 C   0  0  0  0  0  0  0  0  0  0  0  0
  -23.8651  -22.8535   24.9950 C   0  0  0  0  0  0  0  0  0  0  0  0
  -31.7748  -24.2295   16.6531 C   0  0  0  0  0  0  0  0  0  0  0  0
  -27.0982  -28.6299   24.7702 C   0  0  0  0  0  0  0  0  0  0  0  0
  -26.7745  -26.3933   25.8476 C   0  0  0  0  0  0  0  0  0  0  0  0
  -24.9096  -28.0500   25.8323 C   0  0  0  0  0  0  0  0  0  0  0  0
  -23.0892  -23.2597   21.2924 C   0  0  0  0  0  0  0  0  0  0  0  0
  -29.6743  -24.8000   17.9030 C   0  0  0  0  0  0  0  0  0  1  0  0
  -25.5438  -26.8778   23.6839 C   0  0  1  0  0  0  0  0  0  0  0  0
  -23.6011  -23.6229   23.7100 C   0  0  2  0  0  0  0  0  0  0  0  0
  -30.3415  -23.7827   16.9676 C   0  0  2  0  0  0  0  0  0  0  0  0
  -26.0876  -27.4897   25.0058 C   0  0  0  0  0  0  0  0  0  0  0  0
  -28.2120  -15.4599   21.3002 N   0  0  0  0  0  0  0  0  0  0  0  0
  -29.5155  -15.7442   21.1380 N   0  0  0  0  0  0  0  0  0  0  0  0
  -25.4387  -28.0915   21.5299 N   0  0  0  0  0  0  0  0  0  0  0  0
  -29.5781  -19.4127   22.2092 N   0  0  0  0  0  0  0  0  0  0  0  0
  -31.5302  -14.9087   20.2143 N   0  0  0  0  0  0  0  0  0  0  0  0
  -28.5207  -11.6865   19.2365 N   0  0  0  0  0  0  0  0  0  0  0  0
  -25.3378  -31.4619   21.5153 N   0  0  0  0  0  0  0  0  0  0  0  0
  -24.5643  -25.8139   23.8764 N   0  0  0  0  0  0  0  0  0  0  0  0
  -29.2064  -20.6724   20.2423 N   0  0  0  0  0  0  0  0  0  0  0  0
  -28.7365  -20.3170   17.4276 N   0  3  1  0  0  0  0  0  0  0  0  0
  -23.3827  -22.6407   22.6106 N   0  3  0  0  0  0  0  0  0  0  0  0
  -31.6692  -22.5950   19.7258 O   0  0  0  0  0  0  0  0  0  0  0  0
  -30.7236  -12.2956   19.0491 O   0  0  0  0  0  0  0  0  0  0  0  0
  -27.0987  -30.2301   20.6185 O   0  0  0  0  0  0  0  0  0  0  0  0
  -23.8981  -28.5235   23.2259 O   0  0  0  0  0  0  0  0  0  0  0  0
  -25.7369  -24.1773   22.7261 O   0  0  0  0  0  0  0  0  0  0  0  0
  -30.1656  -21.6523   22.0798 O   0  0  0  0  0  0  0  0  0  0  0  0
  -23.1075  -11.7273   20.5519 O   0  0  0  0  0  0  0  0  0  0  0  0
  -29.2771  -25.9603   17.1840 O   0  0  0  0  0  0  0  0  0  1  0  0
  -22.9419   -6.3468   21.7463 F   0  0  0  0  0  0  0  0  0  0  0  0
  -24.5281   -9.8957   19.0454 F   0  0  0  0  0  0  0  0  0  0  0  0
  1  2  1  0  0  0  0
  1  5  2  0  0  0  0
  2  6  2  0  0  0  0
  3  8  2  0  0  0  0
  3 15  1  0  0  0  0
  4  9  1  0  0  0  0
  4 15  2  0  0  0  0
  5 17  1  0  0  0  0
  6 19  1  0  0  0  0
  7 10  2  0  0  0  0
  7 18  1  0  0  0  0
  8 21  1  0  0  0  0
  9 21  2  0  0  0  0
 10 22  1  0  0  0  0
 11 12  2  0  0  0  0
 11 23  1  0  0  0  0
 12 24  1  0  0  0  0
 13 20  1  0  0  0  0
 13 22  2  0  0  0  0
 14 24  2  0  0  0  0
 14 25  1  0  0  0  0
 15 26  1  0  0  0  0
 16 26  1  0  0  0  0
 16 27  2  0  0  0  0
 16 29  1  0  0  0  0
 17 19  2  0  0  0  0
 17 34  1  0  0  0  0
 18 20  2  0  0  0  0
 18 35  1  0  0  0  0
 19 46  1  0  0  0  0
 20 36  1  0  0  0  0
 21 83  1  0  0  0  0
 22 84  1  0  0  0  0
 23 25  2  0  0  0  0
 23 83  1  0  0  0  0
 24 85  1  0  0  0  0
 25 86  1  0  0  0  0
 26 66  2  0  0  0  0
 27 67  1  0  0  0  0
 27 70  1  0  0  0  0
 28 47  1  0  0  0  0
 28 48  1  0  0  0  0
 28 77  2  0  0  0  0
 29 71  1  0  0  0  0
 29 78  2  0  0  0  0
 30 49  1  0  0  0  0
 30 72  1  0  0  0  0
 30 79  2  0  0  0  0
 31 62  1  0  0  0  0
 31 68  1  0  0  0  0
 31 80  2  0  0  0  0
 32 63  1  0  0  0  0
 32 73  1  0  0  0  0
 32 81  2  0  0  0  0
 33 69  1  0  0  0  0
 33 74  1  0  0  0  0
 33 82  2  0  0  0  0
 34 37  1  0  0  0  0
 35 49  1  0  0  0  0
 36 68  1  0  0  0  0
 37 39  1  0  0  0  0
 38 40  1  0  0  0  0
 38 43  1  0  0  0  0
 39 46  1  0  0  0  0
 40 51  1  0  0  0  0
 41 42  1  0  0  0  0
 41 52  1  0  0  0  0
 42 52  1  0  0  0  0
 43 69  1  0  0  0  0
 44 51  1  0  0  0  0
 44 69  1  0  0  0  0
 45 50  1  0  0  0  0
 45 75  1  0  0  0  0
 46 72  1  0  0  0  0
 47 53  1  0  0  0  0
 47 64  1  0  0  0  0
 48 53  1  0  0  0  0
 48 74  1  0  0  0  0
 49 68  1  0  0  0  0
 50 53  1  0  0  0  0
 50 54  1  0  0  0  0
 51 67  1  0  0  0  0
 52 75  1  0  0  0  0
 53 75  1  0  0  0  0
 55 63  1  0  0  0  0
 56 64  1  0  0  0  0
 57 65  1  0  0  0  0
 58 65  1  0  0  0  0
 59 65  1  0  0  0  0
 60 76  1  0  0  0  0
 61 64  1  0  0  0  0
 61 84  1  0  0  0  0
 62 65  1  0  0  0  0
 62 73  1  0  0  0  0
 63 76  1  0  0  0  0
 66 67  1  0  0  0  0
M  CHG  2  75   1  76   1
M  ISO  4  33 100  61 101  74 100  84 101
M  END
> <Batch ID>
0173

> <Smiles>
CNC(C)C(=O)NC(C(=O)N1Cc2cc([101O:1][101CH2:1]C(C)C3C(=O)C([100NH:0][100C:0](=O)N4CCCC(n5nc(-c6ccc(Oc7ccc(F)cc7F)cc6)c(C(N)=O)c5N)C4)C34C(C)CN4C3CC3)ccc2CC1C(=O)NC1CCCc2ccccc21)C(C)(C)C

> <Shape>
0.279

> <Color>
0.078

> <Negative vol penalty>
0.000

$$$$

  -OEChem-04052322423D

 89 98  0     1  0  0  0  0  0999 V2000
  -18.3098  -22.7221   18.3934 C   0  0  0  0  0  0  0  0  0  0  0  0
  -19.2465  -21.6952   18.4530 C   0  0  0  0  0  0  0  0  0  0  0  0
  -27.9017  -25.8799   17.8031 C   0  0  0  0  0  0  0  0  0  0  0  0
  -27.4963  -25.4535   20.1464 C   0  0  0  0  0  0  0  0  0  0  0  0
  -18.5404  -23.9149   19.0775 C   0  0  0  0  0  0  0  0  0  0  0  0
  -20.4148  -21.8609   19.1959 C   0  0  0  0  0  0  0  0  0  0  0  0
  -21.5081  -17.8071   22.0272 C   0  0  0  0  0  0  0  0  0  0  0  0
  -26.8045  -26.7404   17.7698 C   0  0  0  0  0  0  0  0  0  0  0  0
  -26.3991  -26.3141   20.1131 C   0  0  0  0  0  0  0  0  0  0  0  0
  -22.0833  -16.7146   21.3797 C   0  0  0  0  0  0  0  0  0  0  0  0
  -23.7076  -28.6782   20.7339 C   0  0  0  0  0  0  0  0  0  0  0  0
  -23.5685  -29.5934   21.7773 C   0  0  0  0  0  0  0  0  0  0  0  0
  -24.2567  -17.3956   22.1745 C   0  0  0  0  0  0  0  0  0  0  0  0
  -29.7839  -12.2463   18.6514 C   0  0  0  0  0  0  0  0  0  0  0  0
  -25.7066  -30.5649   21.2102 C   0  0  0  0  0  0  0  0  0  0  0  0
  -28.2476  -25.2363   18.9914 C   0  0  0  0  0  0  0  0  0  0  0  0
  -30.7161  -24.6823   19.3185 C   0  0  0  0  0  0  0  0  0  0  0  0
  -19.7077  -24.0917   19.8371 C   0  0  0  0  0  0  0  0  0  0  0  0
  -22.3055  -18.7097   22.7454 C   0  0  0  0  0  0  0  0  0  0  0  0
  -20.6618  -23.0577   19.8897 C   0  0  0  0  0  0  0  0  0  0  0  0
  -23.6888  -18.4973   22.8324 C   0  0  0  0  0  0  0  0  0  0  0  0
  -27.6427  -12.5623   19.7247 C   0  0  0  0  0  0  0  0  0  0  0  0
  -28.4899  -11.8004   18.9202 C   0  0  0  0  0  0  0  0  0  0  0  0
  -30.2307  -13.4542   19.1872 C   0  0  0  0  0  0  0  0  0  0  0  0
  -28.0895  -13.7703   20.2605 C   0  0  0  0  0  0  0  0  0  0  0  0
  -29.3835  -14.2162   19.9918 C   0  0  0  0  0  0  0  0  0  0  0  0
  -26.0532  -26.9576   18.9248 C   0  0  0  0  0  0  0  0  0  0  0  0
  -23.4582  -16.5103   21.4509 C   0  0  0  0  0  0  0  0  0  0  0  0
  -24.8463  -28.7063   19.9287 C   0  0  0  0  0  0  0  0  0  0  0  0
  -24.5679  -30.5368   22.0154 C   0  0  0  0  0  0  0  0  0  0  0  0
  -25.8458  -29.6497   20.1669 C   0  0  0  0  0  0  0  0  0  0  0  0
  -29.3805  -24.3468   19.0262 C   0  0  0  0  0  0  0  0  0  0  0  0
  -31.3979  -23.4940   19.2211 C   0  0  0  0  0  0  0  0  0  0  0  0
  -31.2892  -25.9544   19.6487 C   0  0  0  0  0  0  0  0  0  0  0  0
  -22.9565  -21.8116   22.5040 C   0  0  0  0  0  0  0  0  0  0  0  0
  -24.5294  -21.3008   25.2946 C   0  0  0  0  0  0  0  0  0  0  0  0
  -26.1040  -19.0977   27.3716 C   0  0  0  0  0  0  0  0  0  0  0  0
  -29.6575  -17.8936   19.9011 C   0  0  0  0  0  0  0  0  0  0  0  0
  -19.9350  -25.4165   20.5210 C   0  0  0  0  0  0  0  0  0  0  0  0
  -21.6663  -19.8683   23.4605 C   0  0  0  0  0  0  0  0  0  0  0  0
  -24.5864  -19.4257   23.6075 C   0  0  0  0  0  0  0  0  0  0  0  0
  -21.0235  -25.3711   21.5904 C   0  0  0  0  0  0  0  0  0  0  0  0
  -31.2645  -19.2740   16.9669 C   0  0  0  0  0  0  0  0  0  0  0  0
  -22.2575  -24.6442   21.0654 C   0  0  0  0  0  0  0  0  0  0  0  0
  -31.0850  -20.7752   17.1997 C   0  0  0  0  0  0  0  0  0  0  0  0
  -26.0310  -11.8815   21.5252 C   0  0  0  0  0  0  0  0  0  0  0  0
  -30.0403  -18.4919   17.4336 C   0  0  0  0  0  0  0  0  0  0  0  0
  -29.4829  -20.2292   19.0905 C   0  0  0  0  0  0  0  0  0  0  0  0
  -26.2577  -12.0825   20.0111 C   0  0  1  0  0  0  0  0  0  0  0  0
  -21.9298  -23.1902   20.7051 C   0  0  1  0  0  0  0  0  0  0  0  0
  -22.6389  -21.0110   23.7353 C   0  0  1  0  0  0  0  0  0  0  0  0
  -24.9696  -12.9094   21.9312 C   0  0  1  0  0  0  0  0  0  0  0  0
  -25.1999  -13.1222   19.5622 C   0  0  2  0  0  0  0  0  0  0  0  0
  -24.1226  -13.0578   20.6595 C   0  0  2  0  0  0  0  0  0  0  0  0
  -30.6963  -21.0733   18.6599 C   0  0  2  0  0  0  0  0  0  0  0  0
  -28.0359  -10.5038   18.3337 C   0  0  0  0  0  0  0  0  0  0  0  0
  -31.6212  -13.9087   18.8848 C   0  0  0  0  0  0  0  0  0  0  0  0
  -27.1808  -14.5873   21.1241 C   0  0  0  0  0  0  0  0  0  0  0  0
  -24.1804  -12.4751   23.1575 C   0  0  0  0  0  0  0  0  0  0  0  0
  -24.6589  -12.8315   18.1665 C   0  0  0  0  0  0  0  0  0  0  0  0
  -27.3211  -18.9821   29.5631 C   0  0  0  0  0  0  0  0  0  0  0  0
  -26.9903  -22.5474   23.9909 C   0  0  0  0  0  0  0  0  0  0  0  0
  -28.3773  -21.5586   25.8258 C   0  0  0  0  0  0  0  0  0  0  0  0
  -26.6080  -23.2322   26.3656 C   0  0  0  0  0  0  0  0  0  0  0  0
  -24.1120  -17.2293   28.5118 C   0  0  0  0  0  0  0  0  0  0  0  0
  -29.8651  -15.5116   20.5644 C   0  0  0  0  0  0  0  0  0  0  0  0
  -23.2203  -14.2730   20.6802 C   0  0  0  0  0  0  0  0  0  1  0  0
  -25.9342  -20.8964   25.6715 C   0  0  1  0  0  0  0  0  0  0  0  0
  -25.9764  -18.8535   28.8645 C   0  0  2  0  0  0  0  0  0  0  0  0
  -26.9610  -22.0421   25.4472 C   0  0  0  0  0  0  0  0  0  0  0  0
  -29.2212  -23.0471   18.7627 N   0  0  0  0  0  0  0  0  0  0  0  0
  -30.4656  -22.5555   18.8890 N   0  0  0  0  0  0  0  0  0  0  0  0
  -23.9149  -20.5476   24.2842 N   0  0  0  0  0  0  0  0  0  0  0  0
  -29.7350  -18.8068   18.8364 N   0  0  0  0  0  0  0  0  0  0  0  0
  -32.6979  -23.1707   19.3880 N   0  0  0  0  0  0  0  0  0  0  0  0
  -30.4460  -27.0725   19.7055 N   0  0  0  0  0  0  0  0  0  0  0  0
  -21.8502  -22.3788   21.9009 N   0  0  0  0  0  0  0  0  0  0  0  0
  -25.8655  -20.4165   27.0476 N   0  0  0  0  0  0  0  0  0  0  0  0
  -29.9028  -16.5654   19.5749 N   0  0  0  0  0  0  0  0  0  0  0  0
  -25.4418  -17.4865   29.1219 N   0  3  0  0  0  0  0  0  0  0  0  0
  -32.5155  -26.0983   19.8702 O   0  0  0  0  0  0  0  0  0  0  0  0
  -24.1194  -21.9087   22.1298 O   0  0  0  0  0  0  0  0  0  0  0  0
  -23.9943  -22.2454   25.8803 O   0  0  0  0  0  0  0  0  0  0  0  0
  -26.3905  -18.2082   26.5733 O   0  0  0  0  0  0  0  0  0  0  0  0
  -29.3944  -18.2372   21.0585 O   0  0  0  0  0  0  0  0  0  0  0  0
  -24.9826  -27.7975   18.8928 O   0  0  0  0  0  0  0  0  0  0  0  0
  -24.0223  -15.4451   20.8193 O   0  0  0  0  0  0  0  0  0  1  0  0
  -24.4335  -31.4166   23.0164 F   0  0  0  0  0  0  0  0  0  0  0  0
  -26.9414  -29.6823   19.3959 F   0  0  0  0  0  0  0  0  0  0  0  0
  1  2  1  0  0  0  0
  1  5  2  0  0  0  0
  2  6  2  0  0  0  0
  3  8  2  0  0  0  0
  3 16  1  0  0  0  0
  4  9  1  0  0  0  0
  4 16  2  0  0  0  0
  5 18  1  0  0  0  0
  6 20  1  0  0  0  0
  7 10  2  0  0  0  0
  7 19  1  0  0  0  0
  8 27  1  0  0  0  0
  9 27  2  0  0  0  0
 10 28  1  0  0  0  0
 11 12  2  0  0  0  0
 11 29  1  0  0  0  0
 12 30  1  0  0  0  0
 13 21  1  0  0  0  0
 13 28  2  0  0  0  0
 14 23  2  0  0  0  0
 14 24  1  0  0  0  0
 15 30  2  0  0  0  0
 15 31  1  0  0  0  0
 16 32  1  0  0  0  0
 17 32  1  0  0  0  0
 17 33  2  0  0  0  0
 17 34  1  0  0  0  0
 18 20  2  0  0  0  0
 18 39  1  0  0  0  0
 19 21  2  0  0  0  0
 19 40  1  0  0  0  0
 20 50  1  0  0  0  0
 21 41  1  0  0  0  0
 22 23  1  0  0  0  0
 22 25  2  0  0  0  0
 22 49  1  0  0  0  0
 23 56  1  0  0  0  0
 24 26  2  0  0  0  0
 24 57  1  0  0  0  0
 25 26  1  0  0  0  0
 25 58  1  0  0  0  0
 26 66  1  0  0  0  0
 27 86  1  0  0  0  0
 28 87  1  0  0  0  0
 29 31  2  0  0  0  0
 29 86  1  0  0  0  0
 30 88  1  0  0  0  0
 31 89  1  0  0  0  0
 32 71  2  0  0  0  0
 33 72  1  0  0  0  0
 33 75  1  0  0  0  0
 34 76  1  0  0  0  0
 34 81  2  0  0  0  0
 35 51  1  0  0  0  0
 35 77  1  0  0  0  0
 35 82  2  0  0  0  0
 36 68  1  0  0  0  0
 36 73  1  0  0  0  0
 36 83  2  0  0  0  0
 37 69  1  0  0  0  0
 37 78  1  0  0  0  0
 37 84  2  0  0  0  0
 38 74  1  0  0  0  0
 38 79  1  0  0  0  0
 38 85  2  0  0  0  0
 39 42  1  0  0  0  0
 40 51  1  0  0  0  0
 41 73  1  0  0  0  0
 42 44  1  0  0  0  0
 43 45  1  0  0  0  0
 43 47  1  0  0  0  0
 44 50  1  0  0  0  0
 45 55  1  0  0  0  0
 46 49  1  0  0  0  0
 46 52  1  0  0  0  0
 47 74  1  0  0  0  0
 48 55  1  0  0  0  0
 48 74  1  0  0  0  0
 49 53  1  0  0  0  0
 50 77  1  0  0  0  0
 51 73  1  0  0  0  0
 52 54  1  0  0  0  0
 52 59  1  0  0  0  0
 53 54  1  0  0  0  0
 53 60  1  0  0  0  0
 54 67  1  0  0  0  0
 55 72  1  0  0  0  0
 61 69  1  0  0  0  0
 62 70  1  0  0  0  0
 63 70  1  0  0  0  0
 64 70  1  0  0  0  0
 65 80  1  0  0  0  0
 66 79  1  0  0  0  0
 67 87  1  0  0  0  0
 68 70  1  0  0  0  0
 68 78  1  0  0  0  0
 69 80  1  0  0  0  0
 71 72  1  0  0  0  0
M  CHG  1  80   1
M  ISO  4  38 100  67 101  79 100  87 101
M  END
> <Batch ID>
0173

> <Smiles>
CNC(C)C(=O)NC(C(=O)N1Cc2cc([101O:1][101CH2:1]C3C(C)CC(c4c(C)cc(C)c(C[100NH:0][100C:0](=O)N5CCCC(n6nc(-c7ccc(Oc8ccc(F)cc8F)cc7)c(C(N)=O)c6N)C5)c4C)C3C)ccc2CC1C(=O)NC1CCCc2ccccc21)C(C)(C)C

> <Shape>
0.222

> <Color>
0.076

> <Negative vol penalty>
0.000

$$$$

  -OEChem-04052322423D

 89 99  0     1  0  0  0  0  0999 V2000
  -19.4186  -18.7046   29.3139 C   0  0  0  0  0  0  0  0  0  0  0  0
  -18.8385  -17.5633   28.7720 C   0  0  0  0  0  0  0  0  0  0  0  0
  -23.2011   -9.8514   19.9520 C   0  0  0  0  0  0  0  0  0  0  0  0
  -23.9119   -9.9301   22.2597 C   0  0  0  0  0  0  0  0  0  0  0  0
  -20.4228  -19.3707   28.6145 C   0  0  0  0  0  0  0  0  0  0  0  0
  -19.2706  -17.0808   27.5361 C   0  0  0  0  0  0  0  0  0  0  0  0
  -25.1035  -13.1417   24.4190 C   0  0  0  0  0  0  0  0  0  0  0  0
  -22.5095   -8.6668   20.2053 C   0  0  0  0  0  0  0  0  0  0  0  0
  -23.2203   -8.7455   22.5131 C   0  0  0  0  0  0  0  0  0  0  0  0
  -26.4480  -13.1322   24.7879 C   0  0  0  0  0  0  0  0  0  0  0  0
  -20.0233   -7.7987   23.0636 C   0  0  0  0  0  0  0  0  0  0  0  0
  -19.2451   -7.7390   24.2196 C   0  0  0  0  0  0  0  0  0  0  0  0
  -30.5879  -14.9007   25.3364 C   0  0  0  0  0  0  0  0  0  0  0  0
  -25.8038  -13.0391   27.1107 C   0  0  0  0  0  0  0  0  0  0  0  0
  -20.5643   -5.8763   25.0115 C   0  0  0  0  0  0  0  0  0  0  0  0
  -30.1987  -17.0570   24.4555 C   0  0  0  0  0  0  0  0  0  0  0  0
  -23.9023  -10.4830   20.9791 C   0  0  0  0  0  0  0  0  0  0  0  0
  -24.1225  -13.0198   20.8257 C   0  0  0  0  0  0  0  0  0  0  0  0
  -20.8582  -18.9025   27.3638 C   0  0  0  0  0  0  0  0  0  0  0  0
  -24.0973  -13.1109   25.3953 C   0  0  0  0  0  0  0  0  0  0  0  0
  -20.2995  -17.7253   26.8258 C   0  0  0  0  0  0  0  0  0  0  0  0
  -29.9678  -15.2782   26.5421 C   0  0  0  0  0  0  0  0  0  0  0  0
  -24.4473  -13.0457   26.7515 C   0  0  0  0  0  0  0  0  0  0  0  0
  -30.7115  -15.7921   24.2801 C   0  0  0  0  0  0  0  0  0  0  0  0
  -22.5191   -8.1139   21.4859 C   0  0  0  0  0  0  0  0  0  0  0  0
  -26.7983  -13.0839   26.1340 C   0  0  0  0  0  0  0  0  0  0  0  0
  -21.0720   -6.8971   22.8814 C   0  0  0  0  0  0  0  0  0  0  0  0
  -19.5156   -6.7778   25.1935 C   0  0  0  0  0  0  0  0  0  0  0  0
  -21.3425   -5.9360   23.8554 C   0  0  0  0  0  0  0  0  0  0  0  0
  -24.6174  -11.7063   20.7179 C   0  0  0  0  0  0  0  0  0  0  0  0
  -29.4785  -16.5897   26.6224 C   0  0  0  0  0  0  0  0  0  0  0  0
  -25.1840  -13.8167   20.4725 C   0  0  0  0  0  0  0  0  0  0  0  0
  -22.8199  -13.4786   21.2109 C   0  0  0  0  0  0  0  0  0  0  0  0
  -21.7485  -15.0709   26.2584 C   0  0  0  0  0  0  0  0  0  0  0  0
  -20.9393  -12.6112   28.2122 C   0  0  0  0  0  0  0  0  0  0  0  0
  -21.9176   -9.8169   29.9096 C   0  0  0  0  0  0  0  0  0  0  0  0
  -30.9476  -14.0587   20.9592 C   0  0  0  0  0  0  0  0  0  0  0  0
  -21.9538  -19.6577   26.6535 C   0  0  0  0  0  0  0  0  0  0  0  0
  -22.6518  -13.0946   24.9800 C   0  0  0  0  0  0  0  0  0  0  0  0
  -23.4053  -12.9907   27.8377 C   0  0  0  0  0  0  0  0  0  0  0  0
  -22.0326  -19.3315   25.1657 C   0  0  0  0  0  0  0  0  0  0  0  0
  -29.3572  -13.1285   17.9125 C   0  0  0  0  0  0  0  0  0  0  0  0
  -22.0390  -17.8236   24.9638 C   0  0  0  0  0  0  0  0  0  0  0  0
  -27.9268  -12.7890   18.3354 C   0  0  0  0  0  0  0  0  0  0  0  0
  -28.3742  -18.5912   27.7830 C   0  0  0  0  0  0  0  0  0  0  0  0
  -29.6840  -15.7097   29.7939 C   0  0  0  0  0  0  0  0  0  0  0  0
  -30.3743  -12.7007   18.9682 C   0  0  0  0  0  0  0  0  0  0  0  0
  -28.6793  -12.8724   20.7490 C   0  0  0  0  0  0  0  0  0  0  0  0
  -27.9886  -18.9183   29.2100 C   0  0  0  0  0  0  0  0  0  0  0  0
  -29.8684  -14.2343   27.6407 C   0  0  1  0  0  0  0  0  0  0  0  0
  -20.7321  -17.1995   25.4691 C   0  0  1  0  0  0  0  0  0  0  0  0
  -28.7661  -17.1110   27.8474 C   0  0  2  0  0  0  0  0  0  0  0  0
  -21.7094  -13.5798   26.0772 C   0  0  1  0  0  0  0  0  0  0  0  0
  -30.4642  -14.6383   29.0146 C   0  0  1  0  0  0  0  0  0  0  0  0
  -27.6131  -13.3352   19.7413 C   0  0  2  0  0  0  0  0  0  0  0  0
  -29.6176  -17.0753   29.1173 C   0  0  1  0  0  0  0  0  0  0  0  0
  -31.9543  -14.9936   28.9031 C   0  0  0  0  0  0  0  0  0  0  0  0
  -21.0417   -8.0402   31.4503 C   0  0  0  0  0  0  0  0  0  0  0  0
  -20.9860  -14.5988   30.5268 C   0  0  0  0  0  0  0  0  0  0  0  0
  -21.0531  -12.6549   32.1032 C   0  0  0  0  0  0  0  0  0  0  0  0
  -19.0929  -12.9658   30.5920 C   0  0  0  0  0  0  0  0  0  0  0  0
  -29.8433  -18.8511   30.9148 C   0  0  0  0  0  0  0  0  0  0  0  0
  -22.5495   -7.6662   27.9771 C   0  0  0  0  0  0  0  0  0  0  0  0
  -31.3696  -15.3944   23.0078 C   0  0  0  0  0  0  0  0  0  0  0  0
  -28.4492  -13.6608   27.7457 C   0  0  0  0  0  0  0  0  0  1  0  0
  -21.2983  -12.2016   29.6202 C   0  0  1  0  0  0  0  0  0  0  0  0
  -21.3067   -8.4304   30.0045 C   0  0  2  0  0  0  0  0  0  0  0  0
  -20.6274  -13.1083   30.6904 C   0  0  0  0  0  0  0  0  0  0  0  0
  -29.5901  -17.4673   25.5870 N   0  0  0  0  0  0  0  0  0  0  0  0
  -25.8938  -11.6667   20.3266 N   0  0  0  0  0  0  0  0  0  0  0  0
  -26.2100  -12.9652   20.1853 N   0  0  0  0  0  0  0  0  0  0  0  0
  -22.0056  -12.9833   27.3813 N   0  0  0  0  0  0  0  0  0  0  0  0
  -30.0201  -13.2531   20.2779 N   0  0  0  0  0  0  0  0  0  0  0  0
  -25.3304  -15.1557   20.3824 N   0  0  0  0  0  0  0  0  0  0  0  0
  -21.8469  -12.5258   21.5423 N   0  0  0  0  0  0  0  0  0  0  0  0
  -20.8602  -15.7589   25.4540 N   0  0  0  0  0  0  0  0  0  0  0  0
  -20.9549  -10.7883   29.7342 N   0  0  0  0  0  0  0  0  0  0  0  0
  -30.5297  -14.5468   22.1912 N   0  0  0  0  0  0  0  0  0  0  0  0
  -28.9044  -18.0579   30.0559 N   0  3  1  0  0  0  0  0  0  0  0  0
  -22.2223   -7.4188   29.4050 N   0  3  0  0  0  0  0  0  0  0  0  0
  -22.5225  -14.6968   21.2438 O   0  0  0  0  0  0  0  0  0  0  0  0
  -22.5260  -15.5608   27.0690 O   0  0  0  0  0  0  0  0  0  0  0  0
  -19.7571  -12.5946   27.8604 O   0  0  0  0  0  0  0  0  0  0  0  0
  -23.1276  -10.0184   29.9873 O   0  0  0  0  0  0  0  0  0  0  0  0
  -32.0631  -14.3276   20.5008 O   0  0  0  0  0  0  0  0  0  0  0  0
  -21.8442   -6.9582   21.7336 O   0  0  0  0  0  0  0  0  0  0  0  0
  -28.1223  -13.0752   26.5002 O   0  0  0  0  0  0  0  0  0  1  0  0
  -18.7691   -6.7216   26.3043 F   0  0  0  0  0  0  0  0  0  0  0  0
  -22.3494   -5.0679   23.6866 F   0  0  0  0  0  0  0  0  0  0  0  0
  1  2  1  0  0  0  0
  1  5  2  0  0  0  0
  2  6  2  0  0  0  0
  3  8  2  0  0  0  0
  3 17  1  0  0  0  0
  4  9  1  0  0  0  0
  4 17  2  0  0  0  0
  5 19  1  0  0  0  0
  6 21  1  0  0  0  0
  7 10  2  0  0  0  0
  7 20  1  0  0  0  0
  8 25  1  0  0  0  0
  9 25  2  0  0  0  0
 10 26  1  0  0  0  0
 11 12  2  0  0  0  0
 11 27  1  0  0  0  0
 12 28  1  0  0  0  0
 13 22  1  0  0  0  0
 13 24  2  0  0  0  0
 14 23  1  0  0  0  0
 14 26  2  0  0  0  0
 15 28  2  0  0  0  0
 15 29  1  0  0  0  0
 16 24  1  0  0  0  0
 16 69  2  0  0  0  0
 17 30  1  0  0  0  0
 18 30  1  0  0  0  0
 18 32  2  0  0  0  0
 18 33  1  0  0  0  0
 19 21  2  0  0  0  0
 19 38  1  0  0  0  0
 20 23  2  0  0  0  0
 20 39  1  0  0  0  0
 21 51  1  0  0  0  0
 22 31  2  0  0  0  0
 22 50  1  0  0  0  0
 23 40  1  0  0  0  0
 24 64  1  0  0  0  0
 25 86  1  0  0  0  0
 26 87  1  0  0  0  0
 27 29  2  0  0  0  0
 27 86  1  0  0  0  0
 28 88  1  0  0  0  0
 29 89  1  0  0  0  0
 30 70  2  0  0  0  0
 31 52  1  0  0  0  0
 31 69  1  0  0  0  0
 32 71  1  0  0  0  0
 32 74  1  0  0  0  0
 33 75  1  0  0  0  0
 33 81  2  0  0  0  0
 34 53  1  0  0  0  0
 34 76  1  0  0  0  0
 34 82  2  0  0  0  0
 35 66  1  0  0  0  0
 35 72  1  0  0  0  0
 35 83  2  0  0  0  0
 36 67  1  0  0  0  0
 36 77  1  0  0  0  0
 36 84  2  0  0  0  0
 37 73  1  0  0  0  0
 37 78  1  0  0  0  0
 37 85  2  0  0  0  0
 38 41  1  0  0  0  0
 39 53  1  0  0  0  0
 40 72  1  0  0  0  0
 41 43  1  0  0  0  0
 42 44  1  0  0  0  0
 42 47  1  0  0  0  0
 43 51  1  0  0  0  0
 44 55  1  0  0  0  0
 45 49  1  0  0  0  0
 45 52  1  0  0  0  0
 46 54  1  0  0  0  0
 46 56  1  0  0  0  0
 47 73  1  0  0  0  0
 48 55  1  0  0  0  0
 48 73  1  0  0  0  0
 49 79  1  0  0  0  0
 50 54  1  0  0  0  0
 50 65  1  0  0  0  0
 51 76  1  0  0  0  0
 52 56  1  0  0  0  0
 53 72  1  0  0  0  0
 54 57  1  0  0  0  0
 55 71  1  0  0  0  0
 56 79  1  0  0  0  0
 58 67  1  0  0  0  0
 59 68  1  0  0  0  0
 60 68  1  0  0  0  0
 61 68  1  0  0  0  0
 62 79  1  0  0  0  0
 63 80  1  0  0  0  0
 64 78  1  0  0  0  0
 65 87  1  0  0  0  0
 66 68  1  0  0  0  0
 66 77  1  0  0  0  0
 67 80  1  0  0  0  0
 70 71  1  0  0  0  0
M  CHG  2  79   1  80   1
M  ISO  4  37 100  65 101  78 100  87 101
M  END
> <Batch ID>
0173

> <Smiles>
CNC(C)C(=O)NC(C(=O)N1Cc2cc([101O:1][101CH2:1]C3c4cc(C[100NH:0][100C:0](=O)N5CCCC(n6nc(-c7ccc(Oc8ccc(F)cc8F)cc7)c(C(N)=O)c6N)C5)cnc4C4CCN(C)C4CC3C)ccc2CC1C(=O)NC1CCCc2ccccc21)C(C)(C)C

> <Shape>
0.151

> <Color>
0.174

> <Negative vol penalty>
0.000

$$$$

  -OEChem-04052322423D

 84 93  0     1  0  0  0  0  0999 V2000
  -27.9752  -35.4799   13.5929 C   0  0  0  0  0  0  0  0  0  0  0  0
  -27.9323  -34.1458   13.9848 C   0  0  0  0  0  0  0  0  0  0  0  0
  -23.9595   -9.7080   22.2787 C   0  0  0  0  0  0  0  0  0  0  0  0
  -24.4069   -9.0238   20.0052 C   0  0  0  0  0  0  0  0  0  0  0  0
  -28.3843  -36.4583   14.4981 C   0  0  0  0  0  0  0  0  0  0  0  0
  -28.2995  -33.7891   15.2819 C   0  0  0  0  0  0  0  0  0  0  0  0
  -25.8902  -29.3070   18.6895 C   0  0  0  0  0  0  0  0  0  0  0  0
  -22.9486   -8.7512   22.3678 C   0  0  0  0  0  0  0  0  0  0  0  0
  -23.3959   -8.0668   20.0943 C   0  0  0  0  0  0  0  0  0  0  0  0
  -26.3047  -28.0020   18.9518 C   0  0  0  0  0  0  0  0  0  0  0  0
  -22.7141   -5.4128   22.8504 C   0  0  0  0  0  0  0  0  0  0  0  0
  -22.6634   -4.6287   24.0028 C   0  0  0  0  0  0  0  0  0  0  0  0
  -27.3446  -28.7497   20.9960 C   0  0  0  0  0  0  0  0  0  0  0  0
  -20.4424   -5.4575   24.4690 C   0  0  0  0  0  0  0  0  0  0  0  0
  -26.7602  -23.1133   20.3701 C   0  0  0  0  0  0  0  0  0  0  0  0
  -24.6887   -9.8444   21.0974 C   0  0  0  0  0  0  0  0  0  0  0  0
  -27.0937  -10.6646   21.3228 C   0  0  0  0  0  0  0  0  0  0  0  0
  -28.7475  -36.1146   15.8098 C   0  0  0  0  0  0  0  0  0  0  0  0
  -26.2097  -30.3468   19.5745 C   0  0  0  0  0  0  0  0  0  0  0  0
  -28.7152  -34.7637   16.2050 C   0  0  0  0  0  0  0  0  0  0  0  0
  -26.9308  -30.0666   20.7439 C   0  0  0  0  0  0  0  0  0  0  0  0
  -27.5317  -24.1241   19.8511 C   0  0  0  0  0  0  0  0  0  0  0  0
  -22.6668   -7.9306   21.2756 C   0  0  0  0  0  0  0  0  0  0  0  0
  -27.0345  -27.7236   20.1038 C   0  0  0  0  0  0  0  0  0  0  0  0
  -21.6289   -6.2193   22.5072 C   0  0  0  0  0  0  0  0  0  0  0  0
  -21.5275   -4.6510   24.8122 C   0  0  0  0  0  0  0  0  0  0  0  0
  -20.4931   -6.2417   23.3165 C   0  0  0  0  0  0  0  0  0  0  0  0
  -25.7327  -10.8330   21.0046 C   0  0  0  0  0  0  0  0  0  0  0  0
  -28.8393  -23.6026   19.8477 C   0  0  0  0  0  0  0  0  0  0  0  0
  -27.6606  -11.8888   21.0650 C   0  0  0  0  0  0  0  0  0  0  0  0
  -27.7837   -9.5053   21.8081 C   0  0  0  0  0  0  0  0  0  0  0  0
  -27.8989  -33.0313   19.3650 C   0  0  0  0  0  0  0  0  0  0  0  0
  -26.7466  -33.5301   22.3559 C   0  0  0  0  0  0  0  0  0  0  0  0
  -25.4830  -32.1993   25.2332 C   0  0  0  0  0  0  0  0  0  0  0  0
  -27.5424  -17.3408   21.6541 C   0  0  0  0  0  0  0  0  0  0  0  0
  -29.2283  -37.2015   16.7383 C   0  0  0  0  0  0  0  0  0  0  0  0
  -25.7321  -31.7446   19.2906 C   0  0  0  0  0  0  0  0  0  0  0  0
  -27.2821  -31.1438   21.7363 C   0  0  0  0  0  0  0  0  0  0  0  0
  -29.2426  -36.7857   18.2070 C   0  0  0  0  0  0  0  0  0  0  0  0
  -25.8477  -15.9434   18.6967 C   0  0  0  0  0  0  0  0  0  0  0  0
  -29.8810  -35.4094   18.3660 C   0  0  0  0  0  0  0  0  0  0  0  0
  -25.7213  -14.4794   19.1019 C   0  0  0  0  0  0  0  0  0  0  0  0
  -25.7451  -16.8917   19.8923 C   0  0  0  0  0  0  0  0  0  0  0  0
  -26.5582  -15.0931   21.3947 C   0  0  0  0  0  0  0  0  0  0  0  0
  -26.9152  -19.5032   20.3074 C   0  0  0  0  0  0  0  0  0  0  0  0
  -29.0822  -34.3402   17.6108 C   0  0  1  0  0  0  0  0  0  0  0  0
  -26.5557  -32.8135   20.0023 C   0  0  1  0  0  0  0  0  0  0  0  0
  -26.7345  -14.1404   20.2044 C   0  0  1  0  0  0  0  0  0  0  0  0
  -27.1631  -20.6959   21.2522 C   0  0  1  0  0  0  0  0  0  0  0  0
  -28.2223  -19.8139   21.9640 C   0  0  1  0  0  0  0  0  0  0  0  0
  -28.1239  -19.8097   23.4766 C   0  0  0  0  0  0  0  0  0  0  0  0
  -30.7458  -23.5400   18.2000 C   0  0  0  0  0  0  0  0  0  0  0  0
  -31.1152  -24.4515   20.5212 C   0  0  0  0  0  0  0  0  0  0  0  0
  -24.6696  -32.8537   27.5152 C   0  0  0  0  0  0  0  0  0  0  0  0
  -29.6306  -33.9407   23.2634 C   0  0  0  0  0  0  0  0  0  0  0  0
  -28.8566  -33.6408   25.6254 C   0  0  0  0  0  0  0  0  0  0  0  0
  -27.9857  -35.5387   24.2608 C   0  0  0  0  0  0  0  0  0  0  0  0
  -22.7798  -31.1148   24.7080 C   0  0  0  0  0  0  0  0  0  0  0  0
  -27.0799  -25.4517   19.4022 C   0  0  0  0  0  0  0  0  0  1  0  0
  -30.0744  -24.2639   19.3916 C   0  0  0  0  0  0  0  0  0  0  0  0
  -27.2099  -33.1870   23.7511 C   0  0  1  0  0  0  0  0  0  0  0  0
  -24.2759  -32.5771   26.0726 C   0  0  2  0  0  0  0  0  0  0  0  0
  -28.4159  -34.0566   24.2057 C   0  0  0  0  0  0  0  0  0  0  0  0
  -25.4520  -12.0670   20.5774 N   0  0  0  0  0  0  0  0  0  0  0  0
  -28.8989  -22.3572   20.3267 N   0  0  0  0  0  0  0  0  0  0  0  0
  -27.6191  -22.0878   20.6360 N   0  0  0  0  0  0  0  0  0  0  0  0
  -26.6443  -12.6851   20.6255 N   0  0  0  0  0  0  0  0  0  0  0  0
  -26.7980  -32.4956   21.4110 N   0  0  0  0  0  0  0  0  0  0  0  0
  -26.6410  -16.5016   20.9873 N   0  0  0  0  0  0  0  0  0  0  0  0
  -27.5855  -18.6711   21.2963 N   0  0  0  0  0  0  0  0  0  0  0  0
  -28.9243  -12.3510   21.1738 N   0  0  0  0  0  0  0  0  0  0  0  0
  -27.0496   -8.3300   22.0181 N   0  0  0  0  0  0  0  0  0  0  0  0
  -27.8964  -33.9751   18.3557 N   0  0  0  0  0  0  0  0  0  0  0  0
  -26.0358  -33.2980   24.6099 N   0  0  0  0  0  0  0  0  0  0  0  0
  -23.2724  -31.4753   26.0623 N   0  3  0  0  0  0  0  0  0  0  0  0
  -29.0117   -9.5161   22.0638 O   0  0  0  0  0  0  0  0  0  0  0  0
  -28.8663  -32.3915   19.7607 O   0  0  0  0  0  0  0  0  0  0  0  0
  -26.3468  -34.6720   22.1151 O   0  0  0  0  0  0  0  0  0  0  0  0
  -25.8965  -31.0454   25.1427 O   0  0  0  0  0  0  0  0  0  0  0  0
  -28.2576  -16.9128   22.5695 O   0  0  0  0  0  0  0  0  0  0  0  0
  -21.6805   -6.9966   21.3623 O   0  0  0  0  0  0  0  0  0  0  0  0
  -27.4429  -26.4447   20.3631 O   0  0  0  0  0  0  0  0  0  1  0  0
  -21.4784   -3.8969   25.9180 F   0  0  0  0  0  0  0  0  0  0  0  0
  -19.4470   -7.0136   22.9914 F   0  0  0  0  0  0  0  0  0  0  0  0
  1  2  1  0  0  0  0
  1  5  2  0  0  0  0
  2  6  2  0  0  0  0
  3  8  2  0  0  0  0
  3 16  1  0  0  0  0
  4  9  1  0  0  0  0
  4 16  2  0  0  0  0
  5 18  1  0  0  0  0
  6 20  1  0  0  0  0
  7 10  2  0  0  0  0
  7 19  1  0  0  0  0
  8 23  1  0  0  0  0
  9 23  2  0  0  0  0
 10 24  1  0  0  0  0
 11 12  2  0  0  0  0
 11 25  1  0  0  0  0
 12 26  1  0  0  0  0
 13 21  1  0  0  0  0
 13 24  2  0  0  0  0
 14 26  2  0  0  0  0
 14 27  1  0  0  0  0
 15 22  2  0  0  0  0
 15 66  1  0  0  0  0
 16 28  1  0  0  0  0
 17 28  1  0  0  0  0
 17 30  2  0  0  0  0
 17 31  1  0  0  0  0
 18 20  2  0  0  0  0
 18 36  1  0  0  0  0
 19 21  2  0  0  0  0
 19 37  1  0  0  0  0
 20 46  1  0  0  0  0
 21 38  1  0  0  0  0
 22 29  1  0  0  0  0
 22 59  1  0  0  0  0
 23 81  1  0  0  0  0
 24 82  1  0  0  0  0
 25 27  2  0  0  0  0
 25 81  1  0  0  0  0
 26 83  1  0  0  0  0
 27 84  1  0  0  0  0
 28 64  2  0  0  0  0
 29 60  1  0  0  0  0
 29 65  2  0  0  0  0
 30 67  1  0  0  0  0
 30 71  1  0  0  0  0
 31 72  1  0  0  0  0
 31 76  2  0  0  0  0
 32 47  1  0  0  0  0
 32 73  1  0  0  0  0
 32 77  2  0  0  0  0
 33 61  1  0  0  0  0
 33 68  1  0  0  0  0
 33 78  2  0  0  0  0
 34 62  1  0  0  0  0
 34 74  1  0  0  0  0
 34 79  2  0  0  0  0
 35 69  1  0  0  0  0
 35 70  1  0  0  0  0
 35 80  2  0  0  0  0
 36 39  1  0  0  0  0
 37 47  1  0  0  0  0
 38 68  1  0  0  0  0
 39 41  1  0  0  0  0
 40 42  1  0  0  0  0
 40 43  1  0  0  0  0
 41 46  1  0  0  0  0
 42 48  1  0  0  0  0
 43 69  1  0  0  0  0
 44 48  1  0  0  0  0
 44 69  1  0  0  0  0
 45 49  1  0  0  0  0
 45 70  1  0  0  0  0
 46 73  1  0  0  0  0
 47 68  1  0  0  0  0
 48 67  1  0  0  0  0
 49 50  1  0  0  0  0
 49 66  1  0  0  0  0
 50 51  1  0  0  0  0
 50 70  1  0  0  0  0
 52 60  1  0  0  0  0
 53 60  1  0  0  0  0
 54 62  1  0  0  0  0
 55 63  1  0  0  0  0
 56 63  1  0  0  0  0
 57 63  1  0  0  0  0
 58 75  1  0  0  0  0
 59 82  1  0  0  0  0
 61 63  1  0  0  0  0
 61 74  1  0  0  0  0
 62 75  1  0  0  0  0
 64 67  1  0  0  0  0
 65 66  1  0  0  0  0
M  CHG  1  75   1
M  ISO  4  35 100  59 101  70 100  82 101
M  END
> <Batch ID>
0173

> <Smiles>
CNC(C)C(=O)NC(C(=O)N1Cc2cc([101O:1][101CH2:1]c3cn(C4C[100N:0]([100C:0](=O)N5CCCC(n6nc(-c7ccc(Oc8ccc(F)cc8F)cc7)c(C(N)=O)c6N)C5)C4C)nc3C(C)C)ccc2CC1C(=O)NC1CCCc2ccccc21)C(C)(C)C

> <Shape>
0.246

> <Color>
0.108

> <Negative vol penalty>
0.000

$$$$

  -OEChem-04052322423D

 82 91  0     1  0  0  0  0  0999 V2000
  -31.4856  -26.2227   17.0989 C   0  0  0  0  0  0  0  0  0  0  0  0
  -30.3077  -25.9909   17.8021 C   0  0  0  0  0  0  0  0  0  0  0  0
  -23.9644   -9.5908   21.9329 C   0  0  0  0  0  0  0  0  0  0  0  0
  -22.0429  -10.3585   20.6858 C   0  0  0  0  0  0  0  0  0  0  0  0
  -32.3974  -27.1704   17.5618 C   0  0  0  0  0  0  0  0  0  0  0  0
  -30.0416  -26.7060   18.9692 C   0  0  0  0  0  0  0  0  0  0  0  0
  -25.2752  -28.4057   19.1620 C   0  0  0  0  0  0  0  0  0  0  0  0
  -23.4927   -8.2806   21.8533 C   0  0  0  0  0  0  0  0  0  0  0  0
  -21.5711   -9.0482   20.6062 C   0  0  0  0  0  0  0  0  0  0  0  0
  -24.2851  -27.4870   19.5077 C   0  0  0  0  0  0  0  0  0  0  0  0
  -22.6103   -4.7798   22.2884 C   0  0  0  0  0  0  0  0  0  0  0  0
  -22.6465   -4.0043   23.4472 C   0  0  0  0  0  0  0  0  0  0  0  0
  -24.2893  -28.3406   21.7640 C   0  0  0  0  0  0  0  0  0  0  0  0
  -21.2044   -5.5941   24.5562 C   0  0  0  0  0  0  0  0  0  0  0  0
  -21.8458  -20.2156   20.2168 C   0  0  0  0  0  0  0  0  0  0  0  0
  -23.2395  -10.6298   21.3492 C   0  0  0  0  0  0  0  0  0  0  0  0
  -24.5778  -12.6376   20.5213 C   0  0  0  0  0  0  0  0  0  0  0  0
  -32.1379  -27.9043   18.7300 C   0  0  0  0  0  0  0  0  0  0  0  0
  -25.7884  -29.2929   20.1191 C   0  0  0  0  0  0  0  0  0  0  0  0
  -30.9515  -27.6634   19.4489 C   0  0  0  0  0  0  0  0  0  0  0  0
  -25.2841  -29.2713   21.4272 C   0  0  0  0  0  0  0  0  0  0  0  0
  -22.2960   -8.0093   21.1900 C   0  0  0  0  0  0  0  0  0  0  0  0
  -23.7940  -27.4524   20.8095 C   0  0  0  0  0  0  0  0  0  0  0  0
  -21.8711   -5.9625   22.2634 C   0  0  0  0  0  0  0  0  0  0  0  0
  -21.9436   -4.4115   24.5811 C   0  0  0  0  0  0  0  0  0  0  0  0
  -21.1682   -6.3696   23.3973 C   0  0  0  0  0  0  0  0  0  0  0  0
  -23.7260  -11.9835   21.4315 C   0  0  0  0  0  0  0  0  0  0  0  0
  -21.8768  -21.4854   19.6772 C   0  0  0  0  0  0  0  0  0  0  0  0
  -22.2841  -20.1103   21.5210 C   0  0  0  0  0  0  0  0  0  0  0  0
  -24.7392  -13.8966   21.0460 C   0  0  0  0  0  0  0  0  0  0  0  0
  -22.7026  -22.3427   21.6137 C   0  0  0  0  0  0  0  0  0  0  0  0
  -25.1701  -12.1506   19.3098 C   0  0  0  0  0  0  0  0  0  0  0  0
  -28.6529  -29.7989   21.4006 C   0  0  0  0  0  0  0  0  0  0  0  0
  -27.1535  -32.3144   22.7958 C   0  0  0  0  0  0  0  0  0  0  0  0
  -24.2294  -33.7215   23.8524 C   0  0  0  0  0  0  0  0  0  0  0  0
  -22.6648  -18.4902   23.4122 C   0  0  0  0  0  0  0  0  0  0  0  0
  -33.1755  -28.8845   19.2170 C   0  0  0  0  0  0  0  0  0  0  0  0
  -26.8373  -30.2958   19.7235 C   0  0  0  0  0  0  0  0  0  0  0  0
  -25.7872  -30.2161   22.4868 C   0  0  0  0  0  0  0  0  0  0  0  0
  -32.6443  -29.8667   20.2579 C   0  0  0  0  0  0  0  0  0  0  0  0
  -23.4539  -15.7697   25.5694 C   0  0  0  0  0  0  0  0  0  0  0  0
  -31.8357  -29.1315   21.3221 C   0  0  0  0  0  0  0  0  0  0  0  0
  -23.6651  -14.5960   24.6103 C   0  0  0  0  0  0  0  0  0  0  0  0
  -22.5460  -23.8268   23.7251 C   0  0  0  0  0  0  0  0  0  0  0  0
  -22.3330  -16.6937   25.0967 C   0  0  0  0  0  0  0  0  0  0  0  0
  -22.6782  -16.0029   22.7573 C   0  0  0  0  0  0  0  0  0  0  0  0
  -30.6156  -28.4367   20.7057 C   0  0  1  0  0  0  0  0  0  0  0  0
  -23.1770  -23.5170   22.3848 C   0  0  2  0  0  0  0  0  0  0  0  0
  -27.6528  -30.8061   20.9076 C   0  0  1  0  0  0  0  0  0  0  0  0
  -22.2613  -24.7123   22.5486 C   0  0  2  0  0  0  0  0  0  0  0  0
  -23.8408  -15.0799   23.1575 C   0  0  2  0  0  0  0  0  0  0  0  0
  -21.4225  -21.6993   18.2724 C   0  0  0  0  0  0  0  0  0  0  0  0
  -23.3260  -35.7680   24.9894 C   0  0  0  0  0  0  0  0  0  0  0  0
  -28.1579  -31.2643   25.4788 C   0  0  0  0  0  0  0  0  0  0  0  0
  -26.4819  -32.7436   26.6062 C   0  0  0  0  0  0  0  0  0  0  0  0
  -28.2921  -33.7475   25.2141 C   0  0  0  0  0  0  0  0  0  0  0  0
  -22.5818  -34.4418   21.5018 C   0  0  0  0  0  0  0  0  0  0  0  0
  -22.8179  -26.0935   22.4996 C   0  0  0  0  0  0  0  0  0  1  0  0
  -26.3907  -32.5254   24.0813 C   0  0  1  0  0  0  0  0  0  0  0  0
  -23.6521  -35.1118   23.6568 C   0  0  2  0  0  0  0  0  0  0  0  0
  -27.3223  -32.5509   25.3258 C   0  0  0  0  0  0  0  0  0  0  0  0
  -23.3713  -12.7626   22.4568 N   0  0  0  0  0  0  0  0  0  0  0  0
  -22.3007  -22.5755   20.3497 N   0  0  0  0  0  0  0  0  0  0  0  0
  -22.7211  -21.1569   22.2519 N   0  0  0  0  0  0  0  0  0  0  0  0
  -24.0033  -13.9191   22.1941 N   0  0  0  0  0  0  0  0  0  0  0  0
  -26.8174  -31.1740   22.0526 N   0  0  0  0  0  0  0  0  0  0  0  0
  -22.5688  -17.1153   23.7141 N   0  0  0  0  0  0  0  0  0  0  0  0
  -25.4376  -14.9755   20.6328 N   0  0  0  0  0  0  0  0  0  0  0  0
  -24.8998  -10.8328   18.9166 N   0  0  0  0  0  0  0  0  0  0  0  0
  -22.2698  -18.8251   22.1174 N   0  0  0  0  0  0  0  0  0  0  0  0
  -29.5655  -29.3975   20.4438 N   0  0  0  0  0  0  0  0  0  0  0  0
  -25.6074  -33.7421   23.8962 N   0  0  0  0  0  0  0  0  0  0  0  0
  -22.4024  -35.0446   22.8477 N   0  3  0  0  0  0  0  0  0  0  0  0
  -25.9302  -12.8577   18.6056 O   0  0  0  0  0  0  0  0  0  0  0  0
  -28.6014  -29.4156   22.5634 O   0  0  0  0  0  0  0  0  0  0  0  0
  -28.0109  -33.1352   22.4597 O   0  0  0  0  0  0  0  0  0  0  0  0
  -23.5279  -32.7180   23.9596 O   0  0  0  0  0  0  0  0  0  0  0  0
  -23.0935  -19.3063   24.2321 O   0  0  0  0  0  0  0  0  0  0  0  0
  -21.8355   -6.7309   21.1119 O   0  0  0  0  0  0  0  0  0  0  0  0
  -22.8281  -26.5563   21.1498 O   0  0  0  0  0  0  0  0  0  1  0  0
  -21.9772   -3.6659   25.6934 F   0  0  0  0  0  0  0  0  0  0  0  0
  -20.4554   -7.5043   23.3790 F   0  0  0  0  0  0  0  0  0  0  0  0
  1  2  1  0  0  0  0
  1  5  2  0  0  0  0
  2  6  2  0  0  0  0
  3  8  2  0  0  0  0
  3 16  1  0  0  0  0
  4  9  1  0  0  0  0
  4 16  2  0  0  0  0
  5 18  1  0  0  0  0
  6 20  1  0  0  0  0
  7 10  2  0  0  0  0
  7 19  1  0  0  0  0
  8 22  1  0  0  0  0
  9 22  2  0  0  0  0
 10 23  1  0  0  0  0
 11 12  2  0  0  0  0
 11 24  1  0  0  0  0
 12 25  1  0  0  0  0
 13 21  1  0  0  0  0
 13 23  2  0  0  0  0
 14 25  2  0  0  0  0
 14 26  1  0  0  0  0
 15 28  1  0  0  0  0
 15 29  2  0  0  0  0
 16 27  1  0  0  0  0
 17 27  1  0  0  0  0
 17 30  2  0  0  0  0
 17 32  1  0  0  0  0
 18 20  2  0  0  0  0
 18 37  1  0  0  0  0
 19 21  2  0  0  0  0
 19 38  1  0  0  0  0
 20 47  1  0  0  0  0
 21 39  1  0  0  0  0
 22 79  1  0  0  0  0
 23 80  1  0  0  0  0
 24 26  2  0  0  0  0
 24 79  1  0  0  0  0
 25 81  1  0  0  0  0
 26 82  1  0  0  0  0
 27 62  2  0  0  0  0
 28 52  1  0  0  0  0
 28 63  2  0  0  0  0
 29 64  1  0  0  0  0
 29 70  1  0  0  0  0
 30 65  1  0  0  0  0
 30 68  1  0  0  0  0
 31 48  1  0  0  0  0
 31 63  1  0  0  0  0
 31 64  2  0  0  0  0
 32 69  1  0  0  0  0
 32 74  2  0  0  0  0
 33 49  1  0  0  0  0
 33 71  1  0  0  0  0
 33 75  2  0  0  0  0
 34 59  1  0  0  0  0
 34 66  1  0  0  0  0
 34 76  2  0  0  0  0
 35 60  1  0  0  0  0
 35 72  1  0  0  0  0
 35 77  2  0  0  0  0
 36 67  1  0  0  0  0
 36 70  1  0  0  0  0
 36 78  2  0  0  0  0
 37 40  1  0  0  0  0
 38 49  1  0  0  0  0
 39 66  1  0  0  0  0
 40 42  1  0  0  0  0
 41 43  1  0  0  0  0
 41 45  1  0  0  0  0
 42 47  1  0  0  0  0
 43 51  1  0  0  0  0
 44 48  1  0  0  0  0
 44 50  1  0  0  0  0
 45 67  1  0  0  0  0
 46 51  1  0  0  0  0
 46 67  1  0  0  0  0
 47 71  1  0  0  0  0
 48 50  1  0  0  0  0
 49 66  1  0  0  0  0
 50 58  1  0  0  0  0
 51 65  1  0  0  0  0
 53 60  1  0  0  0  0
 54 61  1  0  0  0  0
 55 61  1  0  0  0  0
 56 61  1  0  0  0  0
 57 73  1  0  0  0  0
 58 80  1  0  0  0  0
 59 61  1  0  0  0  0
 59 72  1  0  0  0  0
 60 73  1  0  0  0  0
 62 65  1  0  0  0  0
M  CHG  1  73   1
M  ISO  4  36 100  58 101  70 100  80 101
M  END
> <Batch ID>
0173

> <Smiles>
CNC(C)C(=O)NC(C(=O)N1Cc2cc([101O:1][101CH2:1]C3CC3c3nc(C)cc([100NH:0][100C:0](=O)N4CCCC(n5nc(-c6ccc(Oc7ccc(F)cc7F)cc6)c(C(N)=O)c5N)C4)n3)ccc2CC1C(=O)NC1CCCc2ccccc21)C(C)(C)C

> <Shape>
0.242

> <Color>
0.130

> <Negative vol penalty>
0.000

$$$$

  -OEChem-04052322423D

 83 92  0     1  0  0  0  0  0999 V2000
  -25.4890  -30.2882   20.6231 C   0  0  0  0  0  0  0  0  0  0  0  0
  -26.3297  -29.2377   20.9768 C   0  0  0  0  0  0  0  0  0  0  0  0
  -23.7011   -9.7765   21.3511 C   0  0  0  0  0  0  0  0  0  0  0  0
  -24.3043  -10.7456   23.4804 C   0  0  0  0  0  0  0  0  0  0  0  0
  -24.1071  -30.1425   20.7374 C   0  0  0  0  0  0  0  0  0  0  0  0
  -25.7889  -28.0411   21.4461 C   0  0  0  0  0  0  0  0  0  0  0  0
  -27.9600  -22.3950   20.4904 C   0  0  0  0  0  0  0  0  0  0  0  0
  -23.1483   -8.6772   22.0080 C   0  0  0  0  0  0  0  0  0  0  0  0
  -23.7515   -9.6463   24.1373 C   0  0  0  0  0  0  0  0  0  0  0  0
  -28.7435  -21.5466   21.2716 C   0  0  0  0  0  0  0  0  0  0  0  0
  -20.2920   -7.9404   23.6607 C   0  0  0  0  0  0  0  0  0  0  0  0
  -19.0445   -7.4883   23.2307 C   0  0  0  0  0  0  0  0  0  0  0  0
  -31.2036  -17.2964   23.6872 C   0  0  0  0  0  0  0  0  0  0  0  0
  -26.7491  -20.4483   22.0686 C   0  0  0  0  0  0  0  0  0  0  0  0
  -20.0055   -5.3341   22.7082 C   0  0  0  0  0  0  0  0  0  0  0  0
  -24.2791  -10.8107   22.0873 C   0  0  0  0  0  0  0  0  0  0  0  0
  -24.1968  -13.1405   21.0513 C   0  0  0  0  0  0  0  0  0  0  0  0
  -23.5487  -28.9401   21.1992 C   0  0  0  0  0  0  0  0  0  0  0  0
  -26.5622  -22.2833   20.5009 C   0  0  0  0  0  0  0  0  0  0  0  0
  -24.3983  -27.8796   21.5679 C   0  0  0  0  0  0  0  0  0  0  0  0
  -30.5893  -18.1198   24.6109 C   0  0  0  0  0  0  0  0  0  0  0  0
  -25.9502  -21.2948   21.2847 C   0  0  0  0  0  0  0  0  0  0  0  0
  -31.2009  -15.9238   23.9262 C   0  0  0  0  0  0  0  0  0  0  0  0
  -23.1735   -8.6121   23.4011 C   0  0  0  0  0  0  0  0  0  0  0  0
  -28.1380  -20.5750   22.0630 C   0  0  0  0  0  0  0  0  0  0  0  0
  -21.3963   -7.0894   23.6144 C   0  0  0  0  0  0  0  0  0  0  0  0
  -18.9012   -6.1851   22.7544 C   0  0  0  0  0  0  0  0  0  0  0  0
  -21.2530   -5.7863   23.1381 C   0  0  0  0  0  0  0  0  0  0  0  0
  -24.8508  -11.9463   21.4093 C   0  0  0  0  0  0  0  0  0  0  0  0
  -30.0117  -17.5453   25.7404 C   0  0  0  0  0  0  0  0  0  0  0  0
  -30.5915  -15.4481   25.0867 C   0  0  0  0  0  0  0  0  0  0  0  0
  -25.1674  -13.8921   20.4353 C   0  0  0  0  0  0  0  0  0  0  0  0
  -22.8339  -13.5350   21.2574 C   0  0  0  0  0  0  0  0  0  0  0  0
  -24.1650  -24.1998   21.3279 C   0  0  0  0  0  0  0  0  0  0  0  0
  -22.3458  -21.8053   20.1116 C   0  0  0  0  0  0  0  0  0  0  0  0
  -22.0613  -18.4971   19.3234 C   0  0  0  0  0  0  0  0  0  0  0  0
  -31.1424  -13.9422   20.8192 C   0  0  0  0  0  0  0  0  0  0  0  0
  -22.0511  -28.8462   21.3505 C   0  0  0  0  0  0  0  0  0  0  0  0
  -25.7326  -23.1885   19.6321 C   0  0  0  0  0  0  0  0  0  0  0  0
  -24.4545  -21.1205   21.3157 C   0  0  0  0  0  0  0  0  0  0  0  0
  -29.4388  -18.6000   26.6436 C   0  0  0  0  0  0  0  0  0  0  0  0
  -21.5427  -27.4147   21.5014 C   0  0  0  0  0  0  0  0  0  0  0  0
  -29.3203  -19.7803   25.6688 C   0  0  0  0  0  0  0  0  0  0  0  0
  -29.1899  -13.4485   17.8831 C   0  0  0  0  0  0  0  0  0  0  0  0
  -22.3884  -26.6521   22.5163 C   0  0  0  0  0  0  0  0  0  0  0  0
  -27.7974  -13.1153   18.4216 C   0  0  0  0  0  0  0  0  0  0  0  0
  -30.2908  -12.8578   18.7612 C   0  0  0  0  0  0  0  0  0  0  0  0
  -28.8069  -12.8775   20.7288 C   0  0  0  0  0  0  0  0  0  0  0  0
  -30.4636  -19.6134   24.6436 C   0  0  2  0  0  0  0  0  0  0  0  0
  -23.8486  -26.5574   22.0576 C   0  0  1  0  0  0  0  0  0  0  0  0
  -24.2915  -23.3232   20.1141 C   0  0  1  0  0  0  0  0  0  0  0  0
  -27.6642  -13.4991   19.9076 C   0  0  2  0  0  0  0  0  0  0  0  0
  -30.5753  -13.9812   25.3727 C   0  0  0  0  0  0  0  0  0  0  0  0
  -20.4417  -16.8295   18.3782 C   0  0  0  0  0  0  0  0  0  0  0  0
  -20.8282  -21.7826   22.7586 C   0  0  0  0  0  0  0  0  0  0  0  0
  -19.9071  -19.5407   22.1312 C   0  0  0  0  0  0  0  0  0  0  0  0
  -19.3885  -21.5372   20.7285 C   0  0  0  0  0  0  0  0  0  0  0  0
  -23.8513  -17.8726   17.0508 C   0  0  0  0  0  0  0  0  0  0  0  0
  -31.8489  -15.0034   22.9484 C   0  0  0  0  0  0  0  0  0  0  0  0
  -30.1405  -20.2633   23.3075 C   0  0  0  0  0  0  0  0  0  1  0  0
  -21.7161  -20.5520   20.6698 C   0  0  1  0  0  0  0  0  0  0  0  0
  -21.5710  -17.7994   18.0675 C   0  0  2  0  0  0  0  0  0  0  0  0
  -20.4881  -20.8574   21.5731 C   0  0  0  0  0  0  0  0  0  0  0  0
  -26.1373  -11.9354   21.0504 N   0  0  0  0  0  0  0  0  0  0  0  0
  -29.9931  -16.2304   26.0161 N   0  0  0  0  0  0  0  0  0  0  0  0
  -26.2995  -13.1320   20.4604 N   0  0  0  0  0  0  0  0  0  0  0  0
  -23.6862  -22.0338   20.4537 N   0  0  0  0  0  0  0  0  0  0  0  0
  -30.1074  -13.2610   20.1575 N   0  0  0  0  0  0  0  0  0  0  0  0
  -25.1543  -15.1224   19.8799 N   0  0  0  0  0  0  0  0  0  0  0  0
  -21.9708  -12.6422   21.9073 N   0  0  0  0  0  0  0  0  0  0  0  0
  -23.9933  -25.5401   21.0385 N   0  0  0  0  0  0  0  0  0  0  0  0
  -21.4176  -19.6999   19.5237 N   0  0  0  0  0  0  0  0  0  0  0  0
  -30.8842  -14.2934   22.1385 N   0  0  0  0  0  0  0  0  0  0  0  0
  -22.6825  -17.0379   17.4305 N   0  3  0  0  0  0  0  0  0  0  0  0
  -22.3903  -14.6396   20.8618 O   0  0  0  0  0  0  0  0  0  0  0  0
  -24.2177  -23.6973   22.4443 O   0  0  0  0  0  0  0  0  0  0  0  0
  -21.6754  -22.5504   19.3926 O   0  0  0  0  0  0  0  0  0  0  0  0
  -22.9258  -18.0208   20.0557 O   0  0  0  0  0  0  0  0  0  0  0  0
  -32.2149  -14.2218   20.2728 O   0  0  0  0  0  0  0  0  0  0  0  0
  -22.6340   -7.5396   24.0424 O   0  0  0  0  0  0  0  0  0  0  0  0
  -28.9003  -19.7461   22.8269 O   0  0  0  0  0  0  0  0  0  1  0  0
  -17.7029   -5.7505   22.3430 F   0  0  0  0  0  0  0  0  0  0  0  0
  -22.3099   -4.9637   23.0924 F   0  0  0  0  0  0  0  0  0  0  0  0
  1  2  1  0  0  0  0
  1  5  2  0  0  0  0
  2  6  2  0  0  0  0
  3  8  2  0  0  0  0
  3 16  1  0  0  0  0
  4  9  1  0  0  0  0
  4 16  2  0  0  0  0
  5 18  1  0  0  0  0
  6 20  1  0  0  0  0
  7 10  2  0  0  0  0
  7 19  1  0  0  0  0
  8 24  1  0  0  0  0
  9 24  2  0  0  0  0
 10 25  1  0  0  0  0
 11 12  2  0  0  0  0
 11 26  1  0  0  0  0
 12 27  1  0  0  0  0
 13 21  1  0  0  0  0
 13 23  2  0  0  0  0
 14 22  1  0  0  0  0
 14 25  2  0  0  0  0
 15 27  2  0  0  0  0
 15 28  1  0  0  0  0
 16 29  1  0  0  0  0
 17 29  1  0  0  0  0
 17 32  2  0  0  0  0
 17 33  1  0  0  0  0
 18 20  2  0  0  0  0
 18 38  1  0  0  0  0
 19 22  2  0  0  0  0
 19 39  1  0  0  0  0
 20 50  1  0  0  0  0
 21 30  2  0  0  0  0
 21 49  1  0  0  0  0
 22 40  1  0  0  0  0
 23 31  1  0  0  0  0
 23 59  1  0  0  0  0
 24 80  1  0  0  0  0
 25 81  1  0  0  0  0
 26 28  2  0  0  0  0
 26 80  1  0  0  0  0
 27 82  1  0  0  0  0
 28 83  1  0  0  0  0
 29 64  2  0  0  0  0
 30 41  1  0  0  0  0
 30 65  1  0  0  0  0
 31 53  1  0  0  0  0
 31 65  2  0  0  0  0
 32 66  1  0  0  0  0
 32 69  1  0  0  0  0
 33 70  1  0  0  0  0
 33 75  2  0  0  0  0
 34 51  1  0  0  0  0
 34 71  1  0  0  0  0
 34 76  2  0  0  0  0
 35 61  1  0  0  0  0
 35 67  1  0  0  0  0
 35 77  2  0  0  0  0
 36 62  1  0  0  0  0
 36 72  1  0  0  0  0
 36 78  2  0  0  0  0
 37 68  1  0  0  0  0
 37 73  1  0  0  0  0
 37 79  2  0  0  0  0
 38 42  1  0  0  0  0
 39 51  1  0  0  0  0
 40 67  1  0  0  0  0
 41 43  1  0  0  0  0
 42 45  1  0  0  0  0
 43 49  1  0  0  0  0
 44 46  1  0  0  0  0
 44 47  1  0  0  0  0
 45 50  1  0  0  0  0
 46 52  1  0  0  0  0
 47 68  1  0  0  0  0
 48 52  1  0  0  0  0
 48 68  1  0  0  0  0
 49 60  1  0  0  0  0
 50 71  1  0  0  0  0
 51 67  1  0  0  0  0
 52 66  1  0  0  0  0
 54 62  1  0  0  0  0
 55 63  1  0  0  0  0
 56 63  1  0  0  0  0
 57 63  1  0  0  0  0
 58 74  1  0  0  0  0
 59 73  1  0  0  0  0
 60 81  1  0  0  0  0
 61 63  1  0  0  0  0
 61 72  1  0  0  0  0
 62 74  1  0  0  0  0
 64 66  1  0  0  0  0
M  CHG  1  74   1
M  ISO  4  37 100  60 101  73 100  81 101
M  END
> <Batch ID>
0173

> <Smiles>
CNC(C)C(=O)NC(C(=O)N1Cc2cc([101O:1][101CH2:1]C3CCc4nc(C)c(C[100NH:0][100C:0](=O)N5CCCC(n6nc(-c7ccc(Oc8ccc(F)cc8F)cc7)c(C(N)=O)c6N)C5)cc43)ccc2CC1C(=O)NC1CCCc2ccccc21)C(C)(C)C

> <Shape>
0.202

> <Color>
0.139

> <Negative vol penalty>
0.000

$$$$

  -OEChem-04052322423D

 85 95  0     1  0  0  0  0  0999 V2000
  -28.9043  -35.7684   22.3012 C   0  0  0  0  0  0  0  0  0  0  0  0
  -29.5391  -34.7048   21.6678 C   0  0  0  0  0  0  0  0  0  0  0  0
  -24.7552   -8.5821   21.5376 C   0  0  0  0  0  0  0  0  0  0  0  0
  -23.0688  -10.0601   20.6384 C   0  0  0  0  0  0  0  0  0  0  0  0
  -27.8433  -35.5265   23.1727 C   0  0  0  0  0  0  0  0  0  0  0  0
  -29.1139  -33.3984   21.9065 C   0  0  0  0  0  0  0  0  0  0  0  0
  -28.4844  -27.0492   18.6495 C   0  0  0  0  0  0  0  0  0  0  0  0
  -23.8165   -8.0481   22.4203 C   0  0  0  0  0  0  0  0  0  0  0  0
  -22.1301   -9.5261   21.5211 C   0  0  0  0  0  0  0  0  0  0  0  0
  -28.8305  -25.7101   18.8243 C   0  0  0  0  0  0  0  0  0  0  0  0
  -21.7752   -6.0434   24.6630 C   0  0  0  0  0  0  0  0  0  0  0  0
  -21.7357   -4.6566   24.8067 C   0  0  0  0  0  0  0  0  0  0  0  0
  -26.9358  -25.4178   20.2886 C   0  0  0  0  0  0  0  0  0  0  0  0
  -21.2405   -4.4268   22.4532 C   0  0  0  0  0  0  0  0  0  0  0  0
  -25.0368  -17.6252   17.9131 C   0  0  0  0  0  0  0  0  0  0  0  0
  -24.3814   -9.5881   20.6466 C   0  0  0  0  0  0  0  0  0  0  0  0
  -25.6485   -9.6898   18.4349 C   0  0  0  0  0  0  0  0  0  0  0  0
  -27.3986  -34.2172   23.4148 C   0  0  0  0  0  0  0  0  0  0  0  0
  -27.3658  -27.5864   19.3026 C   0  0  0  0  0  0  0  0  0  0  0  0
  -28.0468  -33.1386   22.7831 C   0  0  0  0  0  0  0  0  0  0  0  0
  -26.5762  -26.7635   20.1184 C   0  0  0  0  0  0  0  0  0  0  0  0
  -22.5040   -8.5200   22.4121 C   0  0  0  0  0  0  0  0  0  0  0  0
  -28.0578  -24.8948   19.6462 C   0  0  0  0  0  0  0  0  0  0  0  0
  -21.5473   -6.6220   23.4144 C   0  0  0  0  0  0  0  0  0  0  0  0
  -21.4684   -3.8482   23.7018 C   0  0  0  0  0  0  0  0  0  0  0  0
  -21.2800   -5.8137   22.3095 C   0  0  0  0  0  0  0  0  0  0  0  0
  -25.3507  -10.1406   19.7349 C   0  0  0  0  0  0  0  0  0  0  0  0
  -26.6009  -19.7829   17.7541 C   0  0  0  0  0  0  0  0  0  0  0  0
  -26.3387  -17.5939   18.3620 C   0  0  0  0  0  0  0  0  0  0  0  0
  -25.2992  -19.8139   17.3046 C   0  0  0  0  0  0  0  0  0  0  0  0
  -26.6304  -10.5422   17.9924 C   0  0  0  0  0  0  0  0  0  0  0  0
  -25.0877   -8.5982   17.6936 C   0  0  0  0  0  0  0  0  0  0  0  0
  -26.9121  -29.8839   21.4519 C   0  0  0  0  0  0  0  0  0  0  0  0
  -23.7800  -29.2576   20.8861 C   0  0  0  0  0  0  0  0  0  0  0  0
  -21.4152  -27.0383   19.8232 C   0  0  0  0  0  0  0  0  0  0  0  0
  -28.1135  -16.1520   19.4192 C   0  0  0  0  0  0  0  0  0  0  0  0
  -26.2785  -34.0017   24.4015 C   0  0  0  0  0  0  0  0  0  0  0  0
  -26.9904  -29.0262   19.0825 C   0  0  0  0  0  0  0  0  0  0  0  0
  -25.3538  -27.2865   20.8259 C   0  0  0  0  0  0  0  0  0  0  0  0
  -25.6457  -32.6154   24.3114 C   0  0  0  0  0  0  0  0  0  0  0  0
  -30.2139  -13.2827   19.5995 C   0  0  0  0  0  0  0  0  0  0  0  0
  -26.7247  -31.5393   24.2460 C   0  0  0  0  0  0  0  0  0  0  0  0
  -29.2327  -12.1103   19.5303 C   0  0  0  0  0  0  0  0  0  0  0  0
  -22.3754  -21.1719   17.3675 C   0  0  0  0  0  0  0  0  0  0  0  0
  -22.6755  -22.2005   16.3167 C   0  0  0  0  0  0  0  0  0  0  0  0
  -27.0595  -22.4376   18.0006 C   0  0  0  0  0  0  0  0  0  0  0  0
  -28.5734  -21.2426   18.8931 C   0  0  0  0  0  0  0  0  0  0  0  0
  -29.6424  -14.4542   20.3963 C   0  0  0  0  0  0  0  0  0  0  0  0
  -27.3386  -13.7447   19.8880 C   0  0  0  0  0  0  0  0  0  0  0  0
  -27.5984  -31.7092   22.9973 C   0  0  1  0  0  0  0  0  0  0  0  0
  -27.6010  -21.0103   17.7012 C   0  0  0  0  0  0  0  0  0  0  0  0
  -26.1270  -29.5967   20.2034 C   0  0  1  0  0  0  0  0  0  0  0  0
  -27.8440  -12.5657   19.0406 C   0  0  2  0  0  0  0  0  0  0  0  0
  -23.4220  -20.8974   16.3257 C   0  0  0  0  0  0  0  0  0  0  0  0
  -28.4259  -22.7597   18.6449 C   0  0  0  0  0  0  0  0  0  1  0  0
  -18.9368  -26.7996   19.5110 C   0  0  0  0  0  0  0  0  0  0  0  0
  -23.4384  -28.8918   23.8960 C   0  0  0  0  0  0  0  0  0  0  0  0
  -21.2560  -27.7529   23.4395 C   0  0  0  0  0  0  0  0  0  0  0  0
  -21.5792  -30.1365   22.7787 C   0  0  0  0  0  0  0  0  0  0  0  0
  -21.7061  -26.6158   16.9085 C   0  0  0  0  0  0  0  0  0  0  0  0
  -22.7545  -28.3181   21.4733 C   0  0  1  0  0  0  0  0  0  0  0  0
  -20.2536  -27.1895   18.8577 C   0  0  2  0  0  0  0  0  0  0  0  0
  -22.2811  -28.7652   22.8852 C   0  0  0  0  0  0  0  0  0  0  0  0
  -24.4937  -18.7358   17.3763 N   0  0  0  0  0  0  0  0  0  0  0  0
  -26.0842  -11.1972   20.0949 N   0  0  0  0  0  0  0  0  0  0  0  0
  -27.1442  -18.6722   18.2906 N   0  0  0  0  0  0  0  0  0  0  0  0
  -26.8526  -11.4175   19.0145 N   0  0  0  0  0  0  0  0  0  0  0  0
  -25.0316  -28.7026   20.5839 N   0  0  0  0  0  0  0  0  0  0  0  0
  -28.3281  -14.8335   19.8732 N   0  0  0  0  0  0  0  0  0  0  0  0
  -27.3168  -10.6210   16.8326 N   0  0  0  0  0  0  0  0  0  0  0  0
  -24.0879   -7.8239   18.2979 N   0  0  0  0  0  0  0  0  0  0  0  0
  -26.8353  -16.3869   18.9136 N   0  0  0  0  0  0  0  0  0  0  0  0
  -26.9075  -31.2142   21.8259 N   0  0  0  0  0  0  0  0  0  0  0  0
  -21.6831  -28.2160   20.4884 N   0  0  0  0  0  0  0  0  0  0  0  0
  -20.4587  -26.3252   17.6611 N   0  3  0  0  0  0  0  0  0  0  0  0
  -25.4737   -8.3076   16.5360 O   0  0  0  0  0  0  0  0  0  0  0  0
  -27.4787  -28.9663   22.0338 O   0  0  0  0  0  0  0  0  0  0  0  0
  -23.4792  -30.4386   20.6956 O   0  0  0  0  0  0  0  0  0  0  0  0
  -22.0218  -25.9802   19.9751 O   0  0  0  0  0  0  0  0  0  0  0  0
  -29.0068  -17.0024   19.4497 O   0  0  0  0  0  0  0  0  0  0  0  0
  -21.5877   -7.9990   23.2732 O   0  0  0  0  0  0  0  0  0  0  0  0
  -28.3938  -23.5875   19.8191 O   0  0  0  0  0  0  0  0  0  1  0  0
  -24.7758  -20.9548   16.7647 O   0  0  0  0  0  0  0  0  0  0  0  0
  -21.4320   -2.5164   23.8397 F   0  0  0  0  0  0  0  0  0  0  0  0
  -21.0614   -6.3637   21.1072 F   0  0  0  0  0  0  0  0  0  0  0  0
  1  2  1  0  0  0  0
  1  5  2  0  0  0  0
  2  6  2  0  0  0  0
  3  8  2  0  0  0  0
  3 16  1  0  0  0  0
  4  9  1  0  0  0  0
  4 16  2  0  0  0  0
  5 18  1  0  0  0  0
  6 20  1  0  0  0  0
  7 10  2  0  0  0  0
  7 19  1  0  0  0  0
  8 22  1  0  0  0  0
  9 22  2  0  0  0  0
 10 23  1  0  0  0  0
 11 12  2  0  0  0  0
 11 24  1  0  0  0  0
 12 25  1  0  0  0  0
 13 21  1  0  0  0  0
 13 23  2  0  0  0  0
 14 25  2  0  0  0  0
 14 26  1  0  0  0  0
 15 29  1  0  0  0  0
 15 64  2  0  0  0  0
 16 27  1  0  0  0  0
 17 27  1  0  0  0  0
 17 31  2  0  0  0  0
 17 32  1  0  0  0  0
 18 20  2  0  0  0  0
 18 37  1  0  0  0  0
 19 21  2  0  0  0  0
 19 38  1  0  0  0  0
 20 50  1  0  0  0  0
 21 39  1  0  0  0  0
 22 81  1  0  0  0  0
 23 82  1  0  0  0  0
 24 26  2  0  0  0  0
 24 81  1  0  0  0  0
 25 84  1  0  0  0  0
 26 85  1  0  0  0  0
 27 65  2  0  0  0  0
 28 30  2  0  0  0  0
 28 51  1  0  0  0  0
 28 66  1  0  0  0  0
 29 66  2  0  0  0  0
 29 72  1  0  0  0  0
 30 64  1  0  0  0  0
 30 83  1  0  0  0  0
 31 67  1  0  0  0  0
 31 70  1  0  0  0  0
 32 71  1  0  0  0  0
 32 76  2  0  0  0  0
 33 52  1  0  0  0  0
 33 73  1  0  0  0  0
 33 77  2  0  0  0  0
 34 61  1  0  0  0  0
 34 68  1  0  0  0  0
 34 78  2  0  0  0  0
 35 62  1  0  0  0  0
 35 74  1  0  0  0  0
 35 79  2  0  0  0  0
 36 69  1  0  0  0  0
 36 72  1  0  0  0  0
 36 80  2  0  0  0  0
 37 40  1  0  0  0  0
 38 52  1  0  0  0  0
 39 68  1  0  0  0  0
 40 42  1  0  0  0  0
 41 43  1  0  0  0  0
 41 48  1  0  0  0  0
 42 50  1  0  0  0  0
 43 53  1  0  0  0  0
 44 45  1  0  0  0  0
 44 54  1  0  0  0  0
 45 54  1  0  0  0  0
 46 51  1  0  0  0  0
 46 55  1  0  0  0  0
 47 51  1  0  0  0  0
 47 55  1  0  0  0  0
 48 69  1  0  0  0  0
 49 53  1  0  0  0  0
 49 69  1  0  0  0  0
 50 73  1  0  0  0  0
 52 68  1  0  0  0  0
 53 67  1  0  0  0  0
 54 83  1  0  0  0  0
 55 82  1  0  0  0  0
 56 62  1  0  0  0  0
 57 63  1  0  0  0  0
 58 63  1  0  0  0  0
 59 63  1  0  0  0  0
 60 75  1  0  0  0  0
 61 63  1  0  0  0  0
 61 74  1  0  0  0  0
 62 75  1  0  0  0  0
 65 67  1  0  0  0  0
M  CHG  1  75   1
M  ISO  4  36 100  55 101  72 100  82 101
M  END
> <Batch ID>
0173

> <Smiles>
CNC(C)C(=O)NC(C(=O)N1Cc2cc([101O:1][101CH:1]3CC(c4nc([100NH:0][100C:0](=O)N5CCCC(n6nc(-c7ccc(Oc8ccc(F)cc8F)cc7)c(C(N)=O)c6N)C5)cnc4OC4CC4)C3)ccc2CC1C(=O)NC1CCCc2ccccc21)C(C)(C)C

> <Shape>
0.272

> <Color>
0.078

> <Negative vol penalty>
0.000

$$$$

  -OEChem-04052322423D

 87 96  0     1  0  0  0  0  0999 V2000
  -29.2997  -37.1359   24.3604 C   0  0  0  0  0  0  0  0  0  0  0  0
  -29.6097  -35.9216   23.7565 C   0  0  0  0  0  0  0  0  0  0  0  0
  -25.6219   -9.5629   23.0867 C   0  0  0  0  0  0  0  0  0  0  0  0
  -24.0267   -9.1375   21.3227 C   0  0  0  0  0  0  0  0  0  0  0  0
  -28.1751  -37.2395   25.1780 C   0  0  0  0  0  0  0  0  0  0  0  0
  -28.7957  -34.8098   23.9707 C   0  0  0  0  0  0  0  0  0  0  0  0
  -27.5039  -30.3654   19.9601 C   0  0  0  0  0  0  0  0  0  0  0  0
  -24.8459   -8.8119   23.9695 C   0  0  0  0  0  0  0  0  0  0  0  0
  -23.2507   -8.3864   22.2056 C   0  0  0  0  0  0  0  0  0  0  0  0
  -28.0266  -29.0859   19.7774 C   0  0  0  0  0  0  0  0  0  0  0  0
  -23.2914   -5.2772   23.5292 C   0  0  0  0  0  0  0  0  0  0  0  0
  -22.7964   -4.0546   23.0756 C   0  0  0  0  0  0  0  0  0  0  0  0
  -26.2271  -28.1690   21.0965 C   0  0  0  0  0  0  0  0  0  0  0  0
  -20.5387   -4.8315   23.4453 C   0  0  0  0  0  0  0  0  0  0  0  0
  -25.2122   -9.7257   21.7632 C   0  0  0  0  0  0  0  0  0  0  0  0
  -27.0521  -10.0353   20.0235 C   0  0  0  0  0  0  0  0  0  0  0  0
  -27.3416  -36.1310   25.3946 C   0  0  0  0  0  0  0  0  0  0  0  0
  -26.3430  -30.5578   20.7229 C   0  0  0  0  0  0  0  0  0  0  0  0
  -27.6597  -34.8983   24.7930 C   0  0  0  0  0  0  0  0  0  0  0  0
  -25.6903  -29.4516   21.2854 C   0  0  0  0  0  0  0  0  0  0  0  0
  -23.6604   -8.2237   23.5290 C   0  0  0  0  0  0  0  0  0  0  0  0
  -27.3898  -27.9877   20.3480 C   0  0  0  0  0  0  0  0  0  0  0  0
  -22.4101   -6.2770   23.9409 C   0  0  0  0  0  0  0  0  0  0  0  0
  -21.4201   -3.8317   23.0336 C   0  0  0  0  0  0  0  0  0  0  0  0
  -21.0338   -6.0541   23.8989 C   0  0  0  0  0  0  0  0  0  0  0  0
  -26.0131  -10.5019   20.8509 C   0  0  0  0  0  0  0  0  0  0  0  0
  -31.0337  -23.5583   19.6420 C   0  0  0  0  0  0  0  0  0  0  0  0
  -29.4735  -25.1884   19.2702 C   0  0  0  0  0  0  0  0  0  0  0  0
  -30.1968  -22.6264   19.0687 C   0  0  0  0  0  0  0  0  0  0  0  0
  -28.6368  -24.2567   18.6961 C   0  0  0  0  0  0  0  0  0  0  0  0
  -27.4891  -11.1541   19.3573 C   0  0  0  0  0  0  0  0  0  0  0  0
  -27.5753   -8.7092   19.8707 C   0  0  0  0  0  0  0  0  0  0  0  0
  -25.6521  -32.1270   23.3995 C   0  0  0  0  0  0  0  0  0  0  0  0
  -22.6144  -31.2603   22.6623 C   0  0  0  0  0  0  0  0  0  0  0  0
  -20.5315  -29.1045   21.0310 C   0  0  0  0  0  0  0  0  0  0  0  0
  -28.9819  -16.3045   19.1329 C   0  0  0  0  0  0  0  0  0  0  0  0
  -26.1633  -36.2793   26.3243 C   0  0  0  0  0  0  0  0  0  0  0  0
  -25.7769  -31.9415   20.8883 C   0  0  0  0  0  0  0  0  0  0  0  0
  -24.4299  -29.6024   22.0960 C   0  0  0  0  0  0  0  0  0  0  0  0
  -25.1432  -35.1504   26.1997 C   0  0  0  0  0  0  0  0  0  0  0  0
  -25.5099  -15.7905   19.0327 C   0  0  0  0  0  0  0  0  0  0  0  0
  -25.8449  -33.7961   26.1849 C   0  0  0  0  0  0  0  0  0  0  0  0
  -25.4093  -14.3191   19.4337 C   0  0  0  0  0  0  0  0  0  0  0  0
  -28.7434  -19.8056   19.4049 C   0  0  0  0  0  0  0  0  0  0  0  0
  -30.7053  -19.0850   17.9910 C   0  0  0  0  0  0  0  0  0  0  0  0
  -26.5631  -16.5375   19.8530 C   0  0  0  0  0  0  0  0  0  0  0  0
  -27.9481  -18.6056   18.8822 C   0  0  0  0  0  0  0  0  0  0  0  0
  -29.8646  -17.9197   17.4767 C   0  0  0  0  0  0  0  0  0  0  0  0
  -27.7988  -14.4293   20.2370 C   0  0  0  0  0  0  0  0  0  0  0  0
  -26.7874  -33.6761   24.9812 C   0  0  1  0  0  0  0  0  0  0  0  0
  -24.8774  -32.0766   22.1130 C   0  0  1  0  0  0  0  0  0  0  0  0
  -26.7894  -13.6391   19.3899 C   0  0  1  0  0  0  0  0  0  0  0  0
  -29.8076  -20.2552   18.4010 C   0  0  0  0  0  0  0  0  0  0  0  0
  -32.3758  -23.1866   20.1759 C   0  0  0  0  0  0  0  0  0  0  0  0
  -18.0978  -28.6285   20.6463 C   0  0  0  0  0  0  0  0  0  0  0  0
  -22.4060  -30.0731   25.4654 C   0  0  0  0  0  0  0  0  0  0  0  0
  -20.3794  -28.8143   24.7061 C   0  0  0  0  0  0  0  0  0  0  0  0
  -20.3702  -31.3088   24.7019 C   0  0  0  0  0  0  0  0  0  0  0  0
  -26.4505  -23.7670   17.5981 C   0  0  0  0  0  0  0  0  0  0  0  0
  -20.7952  -29.5066   18.1108 C   0  0  0  0  0  0  0  0  0  0  0  0
  -29.0866  -26.6237   19.3909 C   0  0  0  0  0  0  0  0  0  1  0  0
  -21.7368  -30.0715   22.9718 C   0  0  1  0  0  0  0  0  0  0  0  0
  -19.3341  -29.3484   20.1304 C   0  0  2  0  0  0  0  0  0  0  0  0
  -21.2479  -30.0640   24.4477 C   0  0  0  0  0  0  0  0  0  0  0  0
  -25.8027  -11.8147   20.7238 N   0  0  0  0  0  0  0  0  0  0  0  0
  -30.6870  -24.8560   19.7531 N   0  0  0  0  0  0  0  0  0  0  0  0
  -28.9833  -22.9589   18.5854 N   0  0  0  0  0  0  0  0  0  0  0  0
  -26.7157  -12.1827   19.8088 N   0  0  0  0  0  0  0  0  0  0  0  0
  -23.9190  -30.9762   22.2345 N   0  0  0  0  0  0  0  0  0  0  0  0
  -27.8508  -15.8303   19.8140 N   0  0  0  0  0  0  0  0  0  0  0  0
  -28.8520  -17.5271   18.4574 N   0  0  0  0  0  0  0  0  0  0  0  0
  -28.4558  -11.3485   18.4352 N   0  0  0  0  0  0  0  0  0  0  0  0
  -27.0107   -7.6764   20.6315 N   0  0  0  0  0  0  0  0  0  0  0  0
  -30.6095  -21.3086   18.9836 N   0  0  0  0  0  0  0  0  0  0  0  0
  -27.3762  -24.6682   18.2082 N   0  0  0  0  0  0  0  0  0  0  0  0
  -26.0352  -33.4001   23.7760 N   0  0  0  0  0  0  0  0  0  0  0  0
  -20.6614  -30.0904   21.9861 N   0  0  0  0  0  0  0  0  0  0  0  0
  -19.6175  -28.8648   18.7495 N   0  3  0  0  0  0  0  0  0  0  0  0
  -28.5267   -8.4508   19.0951 O   0  0  0  0  0  0  0  0  0  0  0  0
  -25.8837  -31.0878   24.0063 O   0  0  0  0  0  0  0  0  0  0  0  0
  -22.1568  -32.3988   22.7885 O   0  0  0  0  0  0  0  0  0  0  0  0
  -21.2750  -28.1343   20.9026 O   0  0  0  0  0  0  0  0  0  0  0  0
  -30.0458  -15.6728   19.1287 O   0  0  0  0  0  0  0  0  0  0  0  0
  -22.9030   -7.4906   24.3902 O   0  0  0  0  0  0  0  0  0  0  0  0
  -27.9017  -26.7292   20.1705 O   0  0  0  0  0  0  0  0  0  1  0  0
  -20.9448   -2.6582   22.5965 F   0  0  0  0  0  0  0  0  0  0  0  0
  -20.1822   -7.0112   24.2920 F   0  0  0  0  0  0  0  0  0  0  0  0
  1  2  1  0  0  0  0
  1  5  2  0  0  0  0
  2  6  2  0  0  0  0
  3  8  2  0  0  0  0
  3 15  1  0  0  0  0
  4  9  1  0  0  0  0
  4 15  2  0  0  0  0
  5 17  1  0  0  0  0
  6 19  1  0  0  0  0
  7 10  2  0  0  0  0
  7 18  1  0  0  0  0
  8 21  1  0  0  0  0
  9 21  2  0  0  0  0
 10 22  1  0  0  0  0
 11 12  2  0  0  0  0
 11 23  1  0  0  0  0
 12 24  1  0  0  0  0
 13 20  1  0  0  0  0
 13 22  2  0  0  0  0
 14 24  2  0  0  0  0
 14 25  1  0  0  0  0
 15 26  1  0  0  0  0
 16 26  1  0  0  0  0
 16 31  2  0  0  0  0
 16 32  1  0  0  0  0
 17 19  2  0  0  0  0
 17 37  1  0  0  0  0
 18 20  2  0  0  0  0
 18 38  1  0  0  0  0
 19 50  1  0  0  0  0
 20 39  1  0  0  0  0
 21 84  1  0  0  0  0
 22 85  1  0  0  0  0
 23 25  2  0  0  0  0
 23 84  1  0  0  0  0
 24 86  1  0  0  0  0
 25 87  1  0  0  0  0
 26 65  2  0  0  0  0
 27 29  1  0  0  0  0
 27 54  1  0  0  0  0
 27 66  2  0  0  0  0
 28 30  2  0  0  0  0
 28 61  1  0  0  0  0
 28 66  1  0  0  0  0
 29 67  2  0  0  0  0
 29 74  1  0  0  0  0
 30 67  1  0  0  0  0
 30 75  1  0  0  0  0
 31 68  1  0  0  0  0
 31 72  1  0  0  0  0
 32 73  1  0  0  0  0
 32 79  2  0  0  0  0
 33 51  1  0  0  0  0
 33 76  1  0  0  0  0
 33 80  2  0  0  0  0
 34 62  1  0  0  0  0
 34 69  1  0  0  0  0
 34 81  2  0  0  0  0
 35 63  1  0  0  0  0
 35 77  1  0  0  0  0
 35 82  2  0  0  0  0
 36 70  1  0  0  0  0
 36 71  1  0  0  0  0
 36 83  2  0  0  0  0
 37 40  1  0  0  0  0
 38 51  1  0  0  0  0
 39 69  1  0  0  0  0
 40 42  1  0  0  0  0
 41 43  1  0  0  0  0
 41 46  1  0  0  0  0
 42 50  1  0  0  0  0
 43 52  1  0  0  0  0
 44 47  1  0  0  0  0
 44 53  1  0  0  0  0
 45 48  1  0  0  0  0
 45 53  1  0  0  0  0
 46 70  1  0  0  0  0
 47 71  1  0  0  0  0
 48 71  1  0  0  0  0
 49 52  1  0  0  0  0
 49 70  1  0  0  0  0
 50 76  1  0  0  0  0
 51 69  1  0  0  0  0
 52 68  1  0  0  0  0
 53 74  1  0  0  0  0
 55 63  1  0  0  0  0
 56 64  1  0  0  0  0
 57 64  1  0  0  0  0
 58 64  1  0  0  0  0
 59 75  1  0  0  0  0
 60 78  1  0  0  0  0
 61 85  1  0  0  0  0
 62 64  1  0  0  0  0
 62 77  1  0  0  0  0
 63 78  1  0  0  0  0
 65 68  1  0  0  0  0
M  CHG  1  78   1
M  ISO  4  36 100  61 101  71 100  85 101
M  END
> <Batch ID>
0173

> <Smiles>
CNc1nc(NC2CC[100N:0]([100C:0](=O)N3CCCC(n4nc(-c5ccc(Oc6ccc(F)cc6F)cc5)c(C(N)=O)c4N)C3)CC2)c(C)nc1[101CH2:1][101O:1]c1ccc2c(c1)CN(C(=O)C(NC(=O)C(C)NC)C(C)(C)C)C(C(=O)NC1CCCc3ccccc31)C2

> <Shape>
0.311

> <Color>
0.109

> <Negative vol penalty>
0.000

$$$$

  -OEChem-04052322423D

 86 96  0     1  0  0  0  0  0999 V2000
  -21.0273  -25.9610   21.9873 C   0  0  0  0  0  0  0  0  0  0  0  0
  -21.7399  -24.8178   21.6402 C   0  0  0  0  0  0  0  0  0  0  0  0
  -27.4011  -22.5054   21.5326 C   0  0  0  0  0  0  0  0  0  0  0  0
  -28.2467  -23.4315   19.4676 C   0  0  0  0  0  0  0  0  0  0  0  0
  -19.8958  -25.8573   22.7952 C   0  0  0  0  0  0  0  0  0  0  0  0
  -21.3219  -23.5701   22.1016 C   0  0  0  0  0  0  0  0  0  0  0  0
  -21.7145  -18.2268   19.1349 C   0  0  0  0  0  0  0  0  0  0  0  0
  -27.2374  -23.7931   22.0431 C   0  0  0  0  0  0  0  0  0  0  0  0
  -28.0830  -24.7192   19.9780 C   0  0  0  0  0  0  0  0  0  0  0  0
  -22.6310  -17.1788   19.2075 C   0  0  0  0  0  0  0  0  0  0  0  0
  -25.5512  -26.9086   20.4445 C   0  0  0  0  0  0  0  0  0  0  0  0
  -24.9682  -27.8644   19.6127 C   0  0  0  0  0  0  0  0  0  0  0  0
  -21.1709  -16.0156   20.7353 C   0  0  0  0  0  0  0  0  0  0  0  0
  -26.9638  -29.2173   19.7684 C   0  0  0  0  0  0  0  0  0  0  0  0
  -24.8982  -10.8231   21.3293 C   0  0  0  0  0  0  0  0  0  0  0  0
  -27.9059  -22.3246   20.2449 C   0  0  0  0  0  0  0  0  0  0  0  0
  -27.1332  -20.2406   18.9929 C   0  0  0  0  0  0  0  0  0  0  0  0
  -19.4581  -24.6066   23.2589 C   0  0  0  0  0  0  0  0  0  0  0  0
  -20.5222  -18.1820   19.8717 C   0  0  0  0  0  0  0  0  0  0  0  0
  -20.1842  -23.4496   22.9176 C   0  0  0  0  0  0  0  0  0  0  0  0
  -20.2397  -17.0632   20.6684 C   0  0  0  0  0  0  0  0  0  0  0  0
  -23.8109  -11.6706   21.3912 C   0  0  0  0  0  0  0  0  0  0  0  0
  -27.5783  -24.9000   21.2657 C   0  0  0  0  0  0  0  0  0  0  0  0
  -22.3607  -16.0743   20.0100 C   0  0  0  0  0  0  0  0  0  0  0  0
  -26.8406  -27.1071   20.9383 C   0  0  0  0  0  0  0  0  0  0  0  0
  -25.6744  -29.0188   19.2746 C   0  0  0  0  0  0  0  0  0  0  0  0
  -27.5469  -28.2614   20.6003 C   0  0  0  0  0  0  0  0  0  0  0  0
  -28.0758  -20.9946   19.7173 C   0  0  0  0  0  0  0  0  0  0  0  0
  -24.0207  -12.9470   20.9105 C   0  0  0  0  0  0  0  0  0  0  0  0
  -27.7747  -19.0563   18.7236 C   0  0  0  0  0  0  0  0  0  0  0  0
  -26.1802  -12.4540   20.3998 C   0  0  0  0  0  0  0  0  0  0  0  0
  -25.7972  -20.5803   18.5987 C   0  0  0  0  0  0  0  0  0  0  0  0
  -19.2454  -19.9523   22.1824 C   0  0  0  0  0  0  0  0  0  0  0  0
  -16.6873  -18.0116   21.7217 C   0  0  0  0  0  0  0  0  0  0  0  0
  -15.4881  -15.0094   20.6284 C   0  0  0  0  0  0  0  0  0  0  0  0
  -30.8985  -14.8594   20.9170 C   0  0  0  0  0  0  0  0  0  0  0  0
  -18.2565  -24.5496   24.1686 C   0  0  0  0  0  0  0  0  0  0  0  0
  -19.5316  -19.3085   19.7618 C   0  0  0  0  0  0  0  0  0  0  0  0
  -18.9648  -16.9572   21.4633 C   0  0  0  0  0  0  0  0  0  0  0  0
  -17.6638  -23.1497   24.3078 C   0  0  0  0  0  0  0  0  0  0  0  0
  -32.6105  -17.7024   19.2589 C   0  0  0  0  0  0  0  0  0  0  0  0
  -18.7666  -22.1253   24.5554 C   0  0  0  0  0  0  0  0  0  0  0  0
  -31.5212  -18.7743   19.2457 C   0  0  0  0  0  0  0  0  0  0  0  0
  -29.5506  -13.4523   18.0314 C   0  0  0  0  0  0  0  0  0  0  0  0
  -29.1932  -12.0225   18.4645 C   0  0  0  0  0  0  0  0  0  0  0  0
  -32.4302  -16.7241   20.4158 C   0  0  0  0  0  0  0  0  0  0  0  0
  -30.0002  -17.1627   20.4539 C   0  0  0  0  0  0  0  0  0  0  0  0
  -27.5989  -14.2288   19.3801 C   0  0  0  0  0  0  0  0  0  0  0  0
  -29.6413  -12.7319   20.8188 C   0  0  0  0  0  0  0  0  0  0  0  0
  -19.7479  -22.0757   23.3781 C   0  0  1  0  0  0  0  0  0  0  0  0
  -18.5850  -19.3904   20.9553 C   0  0  1  0  0  0  0  0  0  0  0  0
  -30.1228  -18.1331   19.2703 C   0  0  1  0  0  0  0  0  0  0  0  0
  -29.1047  -14.4443   19.1230 C   0  0  1  0  0  0  0  0  0  0  0  0
  -28.6261  -12.0325   19.9010 C   0  0  1  0  0  0  0  0  0  0  0  0
  -22.5103  -11.2134   21.9432 C   0  0  0  0  0  0  0  0  0  0  0  0
  -13.3591  -13.6981   20.4154 C   0  0  0  0  0  0  0  0  0  0  0  0
  -16.7546  -17.4209   24.7145 C   0  0  0  0  0  0  0  0  0  0  0  0
  -15.2801  -15.4433   24.2866 C   0  0  0  0  0  0  0  0  0  0  0  0
  -14.4630  -17.7419   23.7658 C   0  0  0  0  0  0  0  0  0  0  0  0
  -15.7327  -14.8695   17.6823 C   0  0  0  0  0  0  0  0  0  0  0  0
  -22.9143  -13.9497   20.9240 C   0  0  0  0  0  0  0  0  0  1  0  0
  -16.2301  -16.6915   22.2940 C   0  0  1  0  0  0  0  0  0  0  0  0
  -14.3162  -14.6600   19.7289 C   0  0  2  0  0  0  0  0  0  0  0  0
  -15.7069  -16.8270   23.7519 C   0  0  0  0  0  0  0  0  0  0  0  0
  -26.1021  -11.1830   20.8379 N   0  0  0  0  0  0  0  0  0  0  0  0
  -29.2283  -20.3439   19.8969 N   0  0  0  0  0  0  0  0  0  0  0  0
  -25.1969  -13.3742   20.4061 N   0  0  0  0  0  0  0  0  0  0  0  0
  -29.0141  -19.1685   19.2815 N   0  0  0  0  0  0  0  0  0  0  0  0
  -27.4043  -12.8583   19.8869 N   0  0  3  0  0  0  0  0  0  0  0  0
  -18.0308  -18.0871   21.3276 N   0  0  0  0  0  0  0  0  0  0  0  0
  -31.0784  -16.1658   20.4412 N   0  0  0  0  0  0  0  0  0  0  0  0
  -29.8500  -14.1138   20.3638 N   0  0  0  0  0  0  0  0  0  0  0  0
  -27.3938  -17.9404   18.0663 N   0  0  0  0  0  0  0  0  0  0  0  0
  -25.2941  -21.8382   18.9576 N   0  0  0  0  0  0  0  0  0  0  0  0
  -19.1785  -21.3293   22.2766 N   0  0  0  0  0  0  0  0  0  0  0  0
  -15.2501  -16.1570   21.3547 N   0  0  0  0  0  0  0  0  0  0  0  0
  -14.8003  -14.0238   18.4712 N   0  3  0  0  0  0  0  0  0  0  0  0
  -25.0653  -19.7853   17.9616 O   0  0  0  0  0  0  0  0  0  0  0  0
  -19.7750  -19.1928   22.9851 O   0  0  0  0  0  0  0  0  0  0  0  0
  -15.8804  -18.9391   21.6213 O   0  0  0  0  0  0  0  0  0  0  0  0
  -16.5107  -14.3299   20.6842 O   0  0  0  0  0  0  0  0  0  0  0  0
  -31.6481  -14.3791   21.7769 O   0  0  0  0  0  0  0  0  0  0  0  0
  -27.4184  -26.1568   21.7634 O   0  0  0  0  0  0  0  0  0  0  0  0
  -23.2603  -15.0430   20.0836 O   0  0  0  0  0  0  0  0  0  1  0  0
  -25.1150  -29.9359   18.4746 F   0  0  0  0  0  0  0  0  0  0  0  0
  -28.7863  -28.4571   21.0707 F   0  0  0  0  0  0  0  0  0  0  0  0
  1  2  1  0  0  0  0
  1  5  2  0  0  0  0
  2  6  2  0  0  0  0
  3  8  2  0  0  0  0
  3 16  1  0  0  0  0
  4  9  1  0  0  0  0
  4 16  2  0  0  0  0
  5 18  1  0  0  0  0
  6 20  1  0  0  0  0
  7 10  2  0  0  0  0
  7 19  1  0  0  0  0
  8 23  1  0  0  0  0
  9 23  2  0  0  0  0
 10 24  1  0  0  0  0
 11 12  2  0  0  0  0
 11 25  1  0  0  0  0
 12 26  1  0  0  0  0
 13 21  1  0  0  0  0
 13 24  2  0  0  0  0
 14 26  2  0  0  0  0
 14 27  1  0  0  0  0
 15 22  1  0  0  0  0
 15 65  2  0  0  0  0
 16 28  1  0  0  0  0
 17 28  1  0  0  0  0
 17 30  2  0  0  0  0
 17 32  1  0  0  0  0
 18 20  2  0  0  0  0
 18 37  1  0  0  0  0
 19 21  2  0  0  0  0
 19 38  1  0  0  0  0
 20 50  1  0  0  0  0
 21 39  1  0  0  0  0
 22 29  2  0  0  0  0
 22 55  1  0  0  0  0
 23 83  1  0  0  0  0
 24 84  1  0  0  0  0
 25 27  2  0  0  0  0
 25 83  1  0  0  0  0
 26 85  1  0  0  0  0
 27 86  1  0  0  0  0
 28 66  2  0  0  0  0
 29 61  1  0  0  0  0
 29 67  1  0  0  0  0
 30 68  1  0  0  0  0
 30 73  1  0  0  0  0
 31 65  1  0  0  0  0
 31 67  2  0  0  0  0
 31 69  1  0  0  0  0
 32 74  1  0  0  0  0
 32 78  2  0  0  0  0
 33 51  1  0  0  0  0
 33 75  1  0  0  0  0
 33 79  2  0  0  0  0
 34 62  1  0  0  0  0
 34 70  1  0  0  0  0
 34 80  2  0  0  0  0
 35 63  1  0  0  0  0
 35 76  1  0  0  0  0
 35 81  2  0  0  0  0
 36 71  1  0  0  0  0
 36 72  1  0  0  0  0
 36 82  2  0  0  0  0
 37 40  1  0  0  0  0
 38 51  1  0  0  0  0
 39 70  1  0  0  0  0
 40 42  1  0  0  0  0
 41 43  1  0  0  0  0
 41 46  1  0  0  0  0
 42 50  1  0  0  0  0
 43 52  1  0  0  0  0
 44 45  1  0  0  0  0
 44 53  1  0  0  0  0
 45 54  1  0  0  0  0
 46 71  1  0  0  0  0
 47 52  1  0  0  0  0
 47 71  1  0  0  0  0
 48 53  1  0  0  0  0
 48 69  1  0  0  0  0
 49 54  1  0  0  0  0
 49 72  1  0  0  0  0
 50 75  1  0  0  0  0
 51 70  1  0  0  0  0
 52 68  1  0  0  0  0
 53 72  1  0  0  0  0
 54 69  1  0  0  0  0
 56 63  1  0  0  0  0
 57 64  1  0  0  0  0
 58 64  1  0  0  0  0
 59 64  1  0  0  0  0
 60 77  1  0  0  0  0
 61 84  1  0  0  0  0
 62 64  1  0  0  0  0
 62 76  1  0  0  0  0
 63 77  1  0  0  0  0
 66 68  1  0  0  0  0
M  CHG  1  77   1
M  ISO  4  36 100  61 101  72 100  84 101
M  END
> <Batch ID>
0173

> <Smiles>
CNC(C)C(=O)NC(C(=O)N1Cc2cc([101O:1][101CH2:1]c3nc(N4CC5CCC4C[100N:0]5[100C:0](=O)N4CCCC(n5nc(-c6ccc(Oc7ccc(F)cc7F)cc6)c(C(N)=O)c5N)C4)ncc3C)ccc2CC1C(=O)NC1CCCc2ccccc21)C(C)(C)C

> <Shape>
0.202

> <Color>
0.100

> <Negative vol penalty>
0.000

$$$$
