
  -OEChem-04052322453D

 84 93  0     1  0  0  0  0  0999 V2000
  -25.2244  -15.2637   11.6065 C   0  0  0  0  0  0  0  0  0  0  0  0
  -25.0697  -15.1302   12.9827 C   0  0  0  0  0  0  0  0  0  0  0  0
  -27.8084  -23.2253   20.4021 C   0  0  0  0  0  0  0  0  0  0  0  0
  -29.3623  -23.5575   18.5822 C   0  0  0  0  0  0  0  0  0  0  0  0
  -25.0489  -16.5087   11.0040 C   0  0  0  0  0  0  0  0  0  0  0  0
  -24.7405  -16.2421   13.7572 C   0  0  0  0  0  0  0  0  0  0  0  0
  -21.1105  -15.2443   17.1443 C   0  0  0  0  0  0  0  0  0  0  0  0
  -27.7371  -24.6051   20.5932 C   0  0  0  0  0  0  0  0  0  0  0  0
  -29.2910  -24.9374   18.7733 C   0  0  0  0  0  0  0  0  0  0  0  0
  -21.4878  -14.5605   18.2992 C   0  0  0  0  0  0  0  0  0  0  0  0
  -26.1850  -27.2422   19.1547 C   0  0  0  0  0  0  0  0  0  0  0  0
  -24.9228  -27.8070   19.3375 C   0  0  0  0  0  0  0  0  0  0  0  0
  -21.5323  -16.6454   19.5118 C   0  0  0  0  0  0  0  0  0  0  0  0
  -25.6026  -28.6241   21.5071 C   0  0  0  0  0  0  0  0  0  0  0  0
  -25.5178  -15.3568   20.8734 C   0  0  0  0  0  0  0  0  0  0  0  0
  -28.6210  -22.7015   19.3966 C   0  0  0  0  0  0  0  0  0  0  0  0
  -27.6361  -20.4056   18.8801 C   0  0  0  0  0  0  0  0  0  0  0  0
  -24.7080  -17.6344   11.7702 C   0  0  0  0  0  0  0  0  0  0  0  0
  -20.9516  -16.6375   17.1618 C   0  0  0  0  0  0  0  0  0  0  0  0
  -24.5617  -17.5036   13.1645 C   0  0  0  0  0  0  0  0  0  0  0  0
  -21.1504  -17.3442   18.3564 C   0  0  0  0  0  0  0  0  0  0  0  0
  -26.1005  -14.1679   21.2817 C   0  0  0  0  0  0  0  0  0  0  0  0
  -25.2705  -13.0693   21.4760 C   0  0  0  0  0  0  0  0  0  0  0  0
  -23.9025  -13.1917   21.2592 C   0  0  0  0  0  0  0  0  0  0  0  0
  -28.4784  -25.4612   19.7788 C   0  0  0  0  0  0  0  0  0  0  0  0
  -21.7016  -15.2614   19.4825 C   0  0  0  0  0  0  0  0  0  0  0  0
  -27.1560  -27.3683   20.1482 C   0  0  0  0  0  0  0  0  0  0  0  0
  -24.6316  -28.4980   20.5137 C   0  0  0  0  0  0  0  0  0  0  0  0
  -26.8648  -28.0593   21.3243 C   0  0  0  0  0  0  0  0  0  0  0  0
  -28.6955  -21.2761   19.1990 C   0  0  0  0  0  0  0  0  0  0  0  0
  -23.4181  -14.4243   20.8519 C   0  0  0  0  0  0  0  0  0  1  0  0
  -28.2222  -19.1659   18.8016 C   0  0  0  0  0  0  0  0  0  0  0  0
  -26.2466  -20.6920   18.6731 C   0  0  0  0  0  0  0  0  0  0  0  0
  -22.3490  -19.0735   15.6729 C   0  0  0  0  0  0  0  0  0  0  0  0
  -20.0347  -20.7988   17.1526 C   0  0  0  0  0  0  0  0  0  0  0  0
  -17.8178  -21.0581   19.7343 C   0  0  0  0  0  0  0  0  0  0  0  0
  -31.6349  -15.2847   20.5915 C   0  0  0  0  0  0  0  0  0  0  0  0
  -24.5751  -18.9689   11.0804 C   0  0  0  0  0  0  0  0  0  0  0  0
  -20.5182  -17.3571   15.9141 C   0  0  0  0  0  0  0  0  0  0  0  0
  -20.9732  -18.8379   18.4330 C   0  0  0  0  0  0  0  0  0  0  0  0
  -23.8594  -20.0216   11.9230 C   0  0  0  0  0  0  0  0  0  0  0  0
  -33.0864  -17.8058   18.7236 C   0  0  0  0  0  0  0  0  0  0  0  0
  -24.4100  -20.0314   13.3455 C   0  0  0  0  0  0  0  0  0  0  0  0
  -31.9943  -18.8728   18.6458 C   0  0  0  0  0  0  0  0  0  0  0  0
  -28.3453  -13.6266   20.2393 C   0  0  0  0  0  0  0  0  0  0  0  0
  -28.1749  -15.4275   22.0080 C   0  0  0  0  0  0  0  0  0  0  0  0
  -33.1479  -17.1873   20.1157 C   0  0  0  0  0  0  0  0  0  0  0  0
  -29.8546  -13.5798   20.4651 C   0  0  0  0  0  0  0  0  0  0  0  0
  -29.6867  -15.3390   22.1951 C   0  0  0  0  0  0  0  0  0  0  0  0
  -30.7514  -17.6583   20.5016 C   0  0  0  0  0  0  0  0  0  0  0  0
  -27.5999  -14.0929   21.5016 C   0  0  0  0  0  0  0  0  0  0  0  0
  -24.1806  -18.6811   14.0352 C   0  0  1  0  0  0  0  0  0  0  0  0
  -20.8858  -18.8377   15.9201 C   0  0  1  0  0  0  0  0  0  0  0  0
  -30.6389  -18.3102   19.1090 C   0  0  1  0  0  0  0  0  0  0  0  0
  -25.8480  -11.7619   21.9152 C   0  0  0  0  0  0  0  0  0  0  0  0
  -22.9819  -12.0351   21.4577 C   0  0  0  0  0  0  0  0  0  0  0  0
  -16.0892  -22.6004   20.6990 C   0  0  0  0  0  0  0  0  0  0  0  0
  -22.2482  -22.5817   18.2625 C   0  0  0  0  0  0  0  0  0  0  0  0
  -20.6017  -23.4721   19.9251 C   0  0  0  0  0  0  0  0  0  0  0  0
  -20.2125  -23.8083   17.4842 C   0  0  0  0  0  0  0  0  0  0  0  0
  -15.6679  -19.0543   19.3861 C   0  0  0  0  0  0  0  0  0  0  0  0
  -19.9120  -21.5046   18.4815 C   0  0  1  0  0  0  0  0  0  0  0  0
  -16.3459  -21.4282   19.7647 C   0  0  2  0  0  0  0  0  0  0  0  0
  -20.7489  -22.8138   18.5367 C   0  0  0  0  0  0  0  0  0  0  0  0
  -24.1933  -15.5138   20.6527 N   0  0  0  0  0  0  0  0  0  0  0  0
  -29.8658  -20.6431   19.3154 N   0  0  0  0  0  0  0  0  0  0  0  0
  -29.5453  -19.3616   19.0683 N   0  0  0  0  0  0  0  0  0  0  0  0
  -20.5547  -19.4972   17.1849 N   0  0  0  0  0  0  0  0  0  0  0  0
  -31.8408  -16.6709   20.5212 N   0  0  0  0  0  0  0  0  0  0  0  0
  -30.3564  -14.8528   20.9811 N   0  0  0  0  0  0  0  0  0  0  0  0
  -27.7295  -17.9384   18.5313 N   0  0  0  0  0  0  0  0  0  0  0  0
  -25.8144  -21.0031   17.3767 N   0  0  0  0  0  0  0  0  0  0  0  0
  -22.8060  -18.5640   14.4725 N   0  0  0  0  0  0  0  0  0  0  0  0
  -18.4843  -21.6979   18.7107 N   0  0  0  0  0  0  0  0  0  0  0  0
  -15.5301  -20.2704   20.2282 N   0  3  0  0  0  0  0  0  0  0  0  0
  -25.4158  -20.6887   19.6130 O   0  0  0  0  0  0  0  0  0  0  0  0
  -23.0138  -19.6745   16.5087 O   0  0  0  0  0  0  0  0  0  0  0  0
  -19.6755  -21.3784   16.1247 O   0  0  0  0  0  0  0  0  0  0  0  0
  -18.3264  -20.2822   20.5404 O   0  0  0  0  0  0  0  0  0  0  0  0
  -32.5344  -14.4803   20.3182 O   0  0  0  0  0  0  0  0  0  0  0  0
  -28.4089  -26.8077   19.9649 O   0  0  0  0  0  0  0  0  0  0  0  0
  -22.0758  -14.5869   20.6272 O   0  0  0  0  0  0  0  0  0  1  0  0
  -23.4199  -29.0416   20.6884 F   0  0  0  0  0  0  0  0  0  0  0  0
  -27.7940  -28.1848   22.2818 F   0  0  0  0  0  0  0  0  0  0  0  0
  1  2  1  0  0  0  0
  1  5  2  0  0  0  0
  2  6  2  0  0  0  0
  3  8  2  0  0  0  0
  3 16  1  0  0  0  0
  4  9  1  0  0  0  0
  4 16  2  0  0  0  0
  5 18  1  0  0  0  0
  6 20  1  0  0  0  0
  7 10  2  0  0  0  0
  7 19  1  0  0  0  0
  8 25  1  0  0  0  0
  9 25  2  0  0  0  0
 10 26  1  0  0  0  0
 11 12  2  0  0  0  0
 11 27  1  0  0  0  0
 12 28  1  0  0  0  0
 13 21  1  0  0  0  0
 13 26  2  0  0  0  0
 14 28  2  0  0  0  0
 14 29  1  0  0  0  0
 15 22  1  0  0  0  0
 15 65  2  0  0  0  0
 16 30  1  0  0  0  0
 17 30  1  0  0  0  0
 17 32  2  0  0  0  0
 17 33  1  0  0  0  0
 18 20  2  0  0  0  0
 18 38  1  0  0  0  0
 19 21  2  0  0  0  0
 19 39  1  0  0  0  0
 20 52  1  0  0  0  0
 21 40  1  0  0  0  0
 22 23  2  0  0  0  0
 22 51  1  0  0  0  0
 23 24  1  0  0  0  0
 23 55  1  0  0  0  0
 24 31  2  0  0  0  0
 24 56  1  0  0  0  0
 25 81  1  0  0  0  0
 26 82  1  0  0  0  0
 27 29  2  0  0  0  0
 27 81  1  0  0  0  0
 28 83  1  0  0  0  0
 29 84  1  0  0  0  0
 30 66  2  0  0  0  0
 31 65  1  0  0  0  0
 31 82  1  0  0  0  0
 32 67  1  0  0  0  0
 32 71  1  0  0  0  0
 33 72  1  0  0  0  0
 33 76  2  0  0  0  0
 34 53  1  0  0  0  0
 34 73  1  0  0  0  0
 34 77  2  0  0  0  0
 35 62  1  0  0  0  0
 35 68  1  0  0  0  0
 35 78  2  0  0  0  0
 36 63  1  0  0  0  0
 36 74  1  0  0  0  0
 36 79  2  0  0  0  0
 37 69  1  0  0  0  0
 37 70  1  0  0  0  0
 37 80  2  0  0  0  0
 38 41  1  0  0  0  0
 39 53  1  0  0  0  0
 40 68  1  0  0  0  0
 41 43  1  0  0  0  0
 42 44  1  0  0  0  0
 42 47  1  0  0  0  0
 43 52  1  0  0  0  0
 44 54  1  0  0  0  0
 45 48  1  0  0  0  0
 45 51  1  0  0  0  0
 46 49  1  0  0  0  0
 46 51  1  0  0  0  0
 47 69  1  0  0  0  0
 48 70  1  0  0  0  0
 49 70  1  0  0  0  0
 50 54  1  0  0  0  0
 50 69  1  0  0  0  0
 52 73  1  0  0  0  0
 53 68  1  0  0  0  0
 54 67  1  0  0  0  0
 57 63  1  0  0  0  0
 58 64  1  0  0  0  0
 59 64  1  0  0  0  0
 60 64  1  0  0  0  0
 61 75  1  0  0  0  0
 62 64  1  0  0  0  0
 62 74  1  0  0  0  0
 63 75  1  0  0  0  0
 66 67  1  0  0  0  0
M  CHG  1  75   1
M  ISO  4  31 101  37 100  70 100  82 101
M  END
> <Batch ID>
0174

> <Smiles>
CNC(C)C(=O)NC(C(=O)N1Cc2cc([101O:1][101c:1]3ncc(C4CC[100N:0]([100C:0](=O)N5CCCC(n6nc(-c7ccc(Oc8ccc(F)cc8F)cc7)c(C(N)=O)c6N)C5)CC4)c(C)c3C)ccc2CC1C(=O)NC1CCCc2ccccc21)C(C)(C)C

> <Shape>
0.175

> <Color>
0.079

> <Negative vol penalty>
0.000

$$$$

  -OEChem-04052322453D

 84 94  0     1  0  0  0  0  0999 V2000
  -28.5068  -29.9915   27.1084 C   0  0  0  0  0  0  0  0  0  0  0  0
  -28.2378  -28.8548   26.3529 C   0  0  0  0  0  0  0  0  0  0  0  0
  -22.9144  -10.2547   20.3708 C   0  0  0  0  0  0  0  0  0  0  0  0
  -24.2567   -9.2778   22.1260 C   0  0  0  0  0  0  0  0  0  0  0  0
  -27.7108  -31.1271   26.9647 C   0  0  0  0  0  0  0  0  0  0  0  0
  -27.1718  -28.8526   25.4539 C   0  0  0  0  0  0  0  0  0  0  0  0
  -28.4056  -26.8215   20.9821 C   0  0  0  0  0  0  0  0  0  0  0  0
  -22.1465   -9.0918   20.3108 C   0  0  0  0  0  0  0  0  0  0  0  0
  -23.4888   -8.1149   22.0660 C   0  0  0  0  0  0  0  0  0  0  0  0
  -28.4613  -25.4304   20.9083 C   0  0  0  0  0  0  0  0  0  0  0  0
  -19.6271   -7.6770   22.0669 C   0  0  0  0  0  0  0  0  0  0  0  0
  -18.2408   -7.8180   22.0056 C   0  0  0  0  0  0  0  0  0  0  0  0
  -26.2703  -25.4023   19.8992 C   0  0  0  0  0  0  0  0  0  0  0  0
  -18.2165   -6.6589   19.8859 C   0  0  0  0  0  0  0  0  0  0  0  0
  -28.5796  -20.4058   21.6997 C   0  0  0  0  0  0  0  0  0  0  0  0
  -23.9695  -10.3477   21.2784 C   0  0  0  0  0  0  0  0  0  0  0  0
  -24.5328  -12.6793   22.1465 C   0  0  0  0  0  0  0  0  0  0  0  0
  -26.6404  -31.1422   26.0565 C   0  0  0  0  0  0  0  0  0  0  0  0
  -27.2754  -27.5139   20.5243 C   0  0  0  0  0  0  0  0  0  0  0  0
  -26.3599  -29.9891   25.2989 C   0  0  0  0  0  0  0  0  0  0  0  0
  -26.2039  -26.8024   19.9660 C   0  0  0  0  0  0  0  0  0  0  0  0
  -28.2959  -19.3195   19.2331 C   0  0  0  0  0  0  0  0  0  0  0  0
  -28.5234  -21.2552   20.5942 C   0  0  0  0  0  0  0  0  0  0  0  0
  -28.3796  -20.6945   19.3271 C   0  0  0  0  0  0  0  0  0  0  0  0
  -22.4337   -8.0219   21.1584 C   0  0  0  0  0  0  0  0  0  0  0  0
  -27.3923  -24.7204   20.3694 C   0  0  0  0  0  0  0  0  0  0  0  0
  -20.3082   -7.0270   21.0376 C   0  0  0  0  0  0  0  0  0  0  0  0
  -17.5355   -7.3090   20.9152 C   0  0  0  0  0  0  0  0  0  0  0  0
  -19.6029   -6.5179   19.9472 C   0  0  0  0  0  0  0  0  0  0  0  0
  -24.7635  -11.5485   21.3405 C   0  0  0  0  0  0  0  0  0  0  0  0
  -28.3688  -18.5600   20.3953 C   0  0  0  0  0  0  0  0  0  0  0  0
  -25.5611  -13.5362   21.8382 C   0  0  0  0  0  0  0  0  0  0  0  0
  -23.4831  -12.9326   23.0897 C   0  0  0  0  0  0  0  0  0  0  0  0
  -25.1087  -29.4103   21.8707 C   0  0  0  0  0  0  0  0  0  0  0  0
  -24.0997  -29.7797   18.8100 C   0  0  0  0  0  0  0  0  0  0  0  0
  -23.9454  -28.5273   15.6392 C   0  0  0  0  0  0  0  0  0  0  0  0
  -28.6201  -15.9902   17.7940 C   0  0  0  0  0  0  0  0  0  0  0  0
  -25.7789  -32.3771   25.9703 C   0  0  0  0  0  0  0  0  0  0  0  0
  -27.2421  -29.0164   20.5865 C   0  0  0  0  0  0  0  0  0  0  0  0
  -24.9761  -27.4998   19.4419 C   0  0  0  0  0  0  0  0  0  0  0  0
  -28.2481  -17.1003   20.0721 C   0  0  0  0  0  0  0  0  0  0  0  0
  -24.8989  -32.4200   24.7237 C   0  0  0  0  0  0  0  0  0  0  0  0
  -29.7959  -12.7980   19.1709 C   0  0  0  0  0  0  0  0  0  0  0  0
  -24.2050  -31.0779   24.5135 C   0  0  0  0  0  0  0  0  0  0  0  0
  -26.7878  -19.4166   16.0548 C   0  0  0  0  0  0  0  0  0  0  0  0
  -26.5560  -17.9313   16.0533 C   0  0  0  0  0  0  0  0  0  0  0  0
  -28.5529  -12.2643   19.8859 C   0  0  0  0  0  0  0  0  0  0  0  0
  -29.4360  -13.6649   17.9660 C   0  0  0  0  0  0  0  0  0  0  0  0
  -27.2527  -14.2178   18.9658 C   0  0  0  0  0  0  0  0  0  0  0  0
  -28.1543  -18.4395   18.0307 C   0  0  2  0  0  0  0  0  0  0  0  0
  -25.2277  -29.9563   24.2953 C   0  0  1  0  0  0  0  0  0  0  0  0
  -25.8264  -29.5842   20.5621 C   0  0  1  0  0  0  0  0  0  0  0  0
  -26.8399  -18.6463   17.3374 C   0  0  0  0  0  0  0  0  0  0  0  0
  -27.5732  -13.4036   20.2264 C   0  0  1  0  0  0  0  0  0  0  0  0
  -28.3418  -21.5551   18.1109 C   0  0  0  0  0  0  0  0  0  0  0  0
  -23.0208  -29.0371   13.3626 C   0  0  0  0  0  0  0  0  0  0  0  0
  -21.3156  -28.9724   19.7625 C   0  0  0  0  0  0  0  0  0  0  0  0
  -20.6879  -28.5781   17.3712 C   0  0  0  0  0  0  0  0  0  0  0  0
  -21.3506  -30.8619   18.1246 C   0  0  0  0  0  0  0  0  0  0  0  0
  -26.6453  -28.5867   14.4286 C   0  0  0  0  0  0  0  0  0  0  0  0
  -28.6231  -22.7295   20.7909 C   0  0  0  0  0  0  0  0  0  1  0  0
  -23.1166  -29.0649   17.9148 C   0  0  1  0  0  0  0  0  0  0  0  0
  -24.2196  -29.1658   14.2895 C   0  0  2  0  0  0  0  0  0  0  0  0
  -21.6398  -29.3558   18.3048 C   0  0  0  0  0  0  0  0  0  0  0  0
  -28.5047  -19.0547   21.6362 N   0  0  0  0  0  0  0  0  0  0  0  0
  -25.8526  -11.6727   20.5773 N   0  0  0  0  0  0  0  0  0  0  0  0
  -26.3155  -12.8917   20.9024 N   0  0  0  0  0  0  0  0  0  0  0  0
  -24.9884  -28.9693   19.5306 N   0  0  0  0  0  0  0  0  0  0  0  0
  -28.2361  -17.0713   18.5946 N   0  0  0  0  0  0  0  0  0  0  0  0
  -28.4849  -14.7099   18.3421 N   0  0  0  0  0  0  0  0  0  0  0  0
  -25.8844  -14.7706   22.2790 N   0  0  0  0  0  0  0  0  0  0  0  0
  -22.5078  -11.9452   23.2850 N   0  0  0  0  0  0  0  0  0  0  0  0
  -25.7464  -30.0010   22.9449 N   0  0  0  0  0  0  0  0  0  0  0  0
  -23.4592  -29.4431   16.5481 N   0  0  0  0  0  0  0  0  0  0  0  0
  -25.3904  -28.5145   13.6367 N   0  3  0  0  0  0  0  0  0  0  0  0
  -23.4028  -14.0095   23.7280 O   0  0  0  0  0  0  0  0  0  0  0  0
  -24.0538  -28.7876   21.9031 O   0  0  0  0  0  0  0  0  0  0  0  0
  -24.0845  -31.0121   18.8625 O   0  0  0  0  0  0  0  0  0  0  0  0
  -24.1392  -27.3345   15.8635 O   0  0  0  0  0  0  0  0  0  0  0  0
  -29.1026  -16.1611   16.6673 O   0  0  0  0  0  0  0  0  0  0  0  0
  -21.6845   -6.8871   21.1003 O   0  0  0  0  0  0  0  0  0  0  0  0
  -27.4441  -23.3532   20.2963 O   0  0  0  0  0  0  0  0  0  1  0  0
  -16.2040   -7.4431   20.8572 F   0  0  0  0  0  0  0  0  0  0  0  0
  -20.2516   -5.8914   18.9559 F   0  0  0  0  0  0  0  0  0  0  0  0
  1  2  1  0  0  0  0
  1  5  2  0  0  0  0
  2  6  2  0  0  0  0
  3  8  2  0  0  0  0
  3 16  1  0  0  0  0
  4  9  1  0  0  0  0
  4 16  2  0  0  0  0
  5 18  1  0  0  0  0
  6 20  1  0  0  0  0
  7 10  2  0  0  0  0
  7 19  1  0  0  0  0
  8 25  1  0  0  0  0
  9 25  2  0  0  0  0
 10 26  1  0  0  0  0
 11 12  2  0  0  0  0
 11 27  1  0  0  0  0
 12 28  1  0  0  0  0
 13 21  1  0  0  0  0
 13 26  2  0  0  0  0
 14 28  2  0  0  0  0
 14 29  1  0  0  0  0
 15 23  1  0  0  0  0
 15 65  2  0  0  0  0
 16 30  1  0  0  0  0
 17 30  1  0  0  0  0
 17 32  2  0  0  0  0
 17 33  1  0  0  0  0
 18 20  2  0  0  0  0
 18 38  1  0  0  0  0
 19 21  2  0  0  0  0
 19 39  1  0  0  0  0
 20 51  1  0  0  0  0
 21 40  1  0  0  0  0
 22 24  1  0  0  0  0
 22 31  2  0  0  0  0
 22 50  1  0  0  0  0
 23 24  2  0  0  0  0
 23 61  1  0  0  0  0
 24 55  1  0  0  0  0
 25 81  1  0  0  0  0
 26 82  1  0  0  0  0
 27 29  2  0  0  0  0
 27 81  1  0  0  0  0
 28 83  1  0  0  0  0
 29 84  1  0  0  0  0
 30 66  2  0  0  0  0
 31 41  1  0  0  0  0
 31 65  1  0  0  0  0
 32 67  1  0  0  0  0
 32 71  1  0  0  0  0
 33 72  1  0  0  0  0
 33 76  2  0  0  0  0
 34 52  1  0  0  0  0
 34 73  1  0  0  0  0
 34 77  2  0  0  0  0
 35 62  1  0  0  0  0
 35 68  1  0  0  0  0
 35 78  2  0  0  0  0
 36 63  1  0  0  0  0
 36 74  1  0  0  0  0
 36 79  2  0  0  0  0
 37 69  1  0  0  0  0
 37 70  1  0  0  0  0
 37 80  2  0  0  0  0
 38 42  1  0  0  0  0
 39 52  1  0  0  0  0
 40 68  1  0  0  0  0
 41 69  1  0  0  0  0
 42 44  1  0  0  0  0
 43 47  1  0  0  0  0
 43 48  1  0  0  0  0
 44 51  1  0  0  0  0
 45 46  1  0  0  0  0
 45 53  1  0  0  0  0
 46 53  1  0  0  0  0
 47 54  1  0  0  0  0
 48 70  1  0  0  0  0
 49 54  1  0  0  0  0
 49 70  1  0  0  0  0
 50 53  1  0  0  0  0
 50 69  1  0  0  0  0
 51 73  1  0  0  0  0
 52 68  1  0  0  0  0
 54 67  1  0  0  0  0
 56 63  1  0  0  0  0
 57 64  1  0  0  0  0
 58 64  1  0  0  0  0
 59 64  1  0  0  0  0
 60 75  1  0  0  0  0
 61 82  1  0  0  0  0
 62 64  1  0  0  0  0
 62 74  1  0  0  0  0
 63 75  1  0  0  0  0
 66 67  1  0  0  0  0
M  CHG  1  75   1
M  ISO  4  37 100  61 101  69 100  82 101
M  END
> <Batch ID>
0174

> <Smiles>
CNC(C)C(=O)NC(C(=O)N1Cc2cc([101O:1][101CH2:1]c3cnc4c(c3C)C(C3CC3)[100N:0]([100C:0](=O)N3CCCC(n5nc(-c6ccc(Oc7ccc(F)cc7F)cc6)c(C(N)=O)c5N)C3)C4)ccc2CC1C(=O)NC1CCCc2ccccc21)C(C)(C)C

> <Shape>
0.269

> <Color>
0.101

> <Negative vol penalty>
0.000

$$$$

  -OEChem-04052322453D

 88 97  0     1  0  0  0  0  0999 V2000
  -20.5286  -32.9824   14.5361 C   0  0  0  0  0  0  0  0  0  0  0  0
  -21.4058  -31.9362   14.8035 C   0  0  0  0  0  0  0  0  0  0  0  0
  -27.9706  -10.7550   22.4047 C   0  0  0  0  0  0  0  0  0  0  0  0
  -28.6972  -12.7698   21.2869 C   0  0  0  0  0  0  0  0  0  0  0  0
  -20.7051  -34.2158   15.1617 C   0  0  0  0  0  0  0  0  0  0  0  0
  -22.4608  -32.1233   15.6960 C   0  0  0  0  0  0  0  0  0  0  0  0
  -24.8005  -27.9792   19.5506 C   0  0  0  0  0  0  0  0  0  0  0  0
  -29.2590  -10.5679   22.9051 C   0  0  0  0  0  0  0  0  0  0  0  0
  -29.9857  -12.5828   21.7873 C   0  0  0  0  0  0  0  0  0  0  0  0
  -25.9210  -27.1532   19.4727 C   0  0  0  0  0  0  0  0  0  0  0  0
  -31.6193  -13.0774   24.7040 C   0  0  0  0  0  0  0  0  0  0  0  0
  -32.2717  -14.1872   25.2409 C   0  0  0  0  0  0  0  0  0  0  0  0
  -27.1945  -28.7723   20.7282 C   0  0  0  0  0  0  0  0  0  0  0  0
  -34.0322  -13.9440   23.6043 C   0  0  0  0  0  0  0  0  0  0  0  0
  -27.6896  -11.8559   21.5955 C   0  0  0  0  0  0  0  0  0  0  0  0
  -25.6358  -11.1755   20.2440 C   0  0  0  0  0  0  0  0  0  0  0  0
  -21.7570  -34.4151   16.0697 C   0  0  0  0  0  0  0  0  0  0  0  0
  -24.8718  -29.2150   20.2096 C   0  0  0  0  0  0  0  0  0  0  0  0
  -22.6523  -33.3609   16.3334 C   0  0  0  0  0  0  0  0  0  0  0  0
  -26.0728  -29.6110   20.8152 C   0  0  0  0  0  0  0  0  0  0  0  0
  -30.2666  -11.4818   22.5965 C   0  0  0  0  0  0  0  0  0  0  0  0
  -27.1190  -27.5510   20.0590 C   0  0  0  0  0  0  0  0  0  0  0  0
  -32.1733  -12.4009   23.6172 C   0  0  0  0  0  0  0  0  0  0  0  0
  -33.4782  -14.6205   24.6911 C   0  0  0  0  0  0  0  0  0  0  0  0
  -33.3797  -12.8342   23.0673 C   0  0  0  0  0  0  0  0  0  0  0  0
  -26.3590  -12.0493   21.0778 C   0  0  0  0  0  0  0  0  0  0  0  0
  -24.4361  -11.8117   20.0380 C   0  0  0  0  0  0  0  0  0  0  0  0
  -26.0146   -9.9024   19.7041 C   0  0  0  0  0  0  0  0  0  0  0  0
  -24.4962  -32.2480   19.3358 C   0  0  0  0  0  0  0  0  0  0  0  0
  -24.8151  -32.7971   22.5168 C   0  0  0  0  0  0  0  0  0  0  0  0
  -25.9968  -31.7329   25.5364 C   0  0  0  0  0  0  0  0  0  0  0  0
  -25.6704  -15.9909   18.9760 C   0  0  0  0  0  0  0  0  0  0  0  0
  -21.9356  -35.7803   16.6855 C   0  0  0  0  0  0  0  0  0  0  0  0
  -23.6469  -30.0825   20.3079 C   0  0  0  0  0  0  0  0  0  0  0  0
  -26.1960  -30.9189   21.5518 C   0  0  0  0  0  0  0  0  0  0  0  0
  -22.8562  -35.7835   17.9032 C   0  0  0  0  0  0  0  0  0  0  0  0
  -24.4036  -15.9900   22.2594 C   0  0  0  0  0  0  0  0  0  0  0  0
  -29.1329  -21.5339   22.0208 C   0  0  0  0  0  0  0  0  0  0  0  0
  -24.1234  -34.9843   17.6164 C   0  0  0  0  0  0  0  0  0  0  0  0
  -23.3702  -14.8636   22.1591 C   0  0  0  0  0  0  0  0  0  0  0  0
  -29.1654  -22.9233   21.4052 C   0  0  0  0  0  0  0  0  0  0  0  0
  -28.7105  -18.0816   19.3728 C   0  0  0  0  0  0  0  0  0  0  0  0
  -26.6890  -19.5838   19.2923 C   0  0  0  0  0  0  0  0  0  0  0  0
  -24.4374  -16.8694   21.0121 C   0  0  0  0  0  0  0  0  0  0  0  0
  -28.3547  -20.5688   21.1326 C   0  0  0  0  0  0  0  0  0  0  0  0
  -27.9047  -16.9899   18.6728 C   0  0  0  0  0  0  0  0  0  0  0  0
  -25.9228  -18.4683   18.5877 C   0  0  0  0  0  0  0  0  0  0  0  0
  -23.4798  -15.0490   19.6524 C   0  0  0  0  0  0  0  0  0  0  0  0
  -23.7940  -33.5174   17.3143 C   0  0  1  0  0  0  0  0  0  0  0  0
  -23.9735  -31.5512   20.5601 C   0  0  1  0  0  0  0  0  0  0  0  0
  -23.4396  -14.0633   20.8388 C   0  0  1  0  0  0  0  0  0  0  0  0
  -28.1919  -19.4774   19.0119 C   0  0  0  0  0  0  0  0  0  0  0  0
  -29.6984  -22.8444   19.9770 C   0  0  1  0  0  0  0  0  0  0  0  0
  -28.9113  -21.8296   19.1092 C   0  0  1  0  0  0  0  0  0  0  0  0
  -29.5105  -21.7577   17.6929 C   0  0  0  0  0  0  0  0  0  0  0  0
  -26.1374  -32.4137   27.9477 C   0  0  0  0  0  0  0  0  0  0  0  0
  -27.0296  -34.7791   21.8256 C   0  0  0  0  0  0  0  0  0  0  0  0
  -27.7532  -34.6992   24.2211 C   0  0  0  0  0  0  0  0  0  0  0  0
  -25.4781  -35.5374   23.6345 C   0  0  0  0  0  0  0  0  0  0  0  0
  -24.4529  -29.3658   26.4151 C   0  0  0  0  0  0  0  0  0  0  0  0
  -30.6844  -25.1356   19.8486 C   0  0  0  0  0  0  0  0  0  0  0  0
  -29.4902  -27.3881   19.9767 C   0  0  0  0  0  0  0  0  0  1  0  0
  -25.9755  -33.0659   23.4443 C   0  0  1  0  0  0  0  0  0  0  0  0
  -25.3400  -31.6493   26.9024 C   0  0  2  0  0  0  0  0  0  0  0  0
  -30.5044  -26.5201   19.2255 C   0  0  1  0  0  0  0  0  0  0  0  0
  -26.5576  -34.4966   23.2659 C   0  0  0  0  0  0  0  0  0  0  0  0
  -25.6758  -13.1564   21.3806 N   0  0  0  0  0  0  0  0  0  0  0  0
  -24.5108  -12.9825   20.7336 N   0  0  0  0  0  0  0  0  0  0  0  0
  -24.9722  -31.7350   21.6151 N   0  0  0  0  0  0  0  0  0  0  0  0
  -24.5381  -16.0477   19.8020 N   0  0  0  0  0  0  0  0  0  0  0  0
  -26.4700  -17.1439   18.9133 N   0  0  0  0  0  0  0  0  0  0  0  0
  -28.9198  -20.4980   19.7734 N   0  0  1  0  0  0  0  0  0  0  0  0
  -23.3352  -11.4782   19.3315 N   0  0  0  0  0  0  0  0  0  0  0  0
  -26.6588   -9.8694   18.4598 N   0  0  0  0  0  0  0  0  0  0  0  0
  -31.8073  -27.1958   19.2356 N   0  0  0  0  0  0  0  0  0  0  0  0
  -23.5114  -32.8002   18.5391 N   0  0  0  0  0  0  0  0  0  0  0  0
  -25.4957  -32.7798   24.7920 N   0  0  0  0  0  0  0  0  0  0  0  0
  -29.6116  -24.2153   19.3940 N   0  3  0  0  0  0  0  0  0  0  0  0
  -25.2327  -30.2286   27.3395 N   0  3  0  0  0  0  0  0  0  0  0  0
  -25.7739   -8.8249   20.2996 O   0  0  0  0  0  0  0  0  0  0  0  0
  -25.7037  -32.2834   19.1299 O   0  0  0  0  0  0  0  0  0  0  0  0
  -23.8037  -33.4989   22.5946 O   0  0  0  0  0  0  0  0  0  0  0  0
  -26.8700  -30.9503   25.1681 O   0  0  0  0  0  0  0  0  0  0  0  0
  -25.9578  -14.9723   18.3351 O   0  0  0  0  0  0  0  0  0  0  0  0
  -31.5239  -11.2998   23.0848 O   0  0  0  0  0  0  0  0  0  0  0  0
  -28.2212  -26.7418   19.9834 O   0  0  0  0  0  0  0  0  0  1  0  0
  -34.1038  -15.6872   25.2058 F   0  0  0  0  0  0  0  0  0  0  0  0
  -33.9163  -12.1891   22.0225 F   0  0  0  0  0  0  0  0  0  0  0  0
  1  2  1  0  0  0  0
  1  5  2  0  0  0  0
  2  6  2  0  0  0  0
  3  8  2  0  0  0  0
  3 15  1  0  0  0  0
  4  9  1  0  0  0  0
  4 15  2  0  0  0  0
  5 17  1  0  0  0  0
  6 19  1  0  0  0  0
  7 10  2  0  0  0  0
  7 18  1  0  0  0  0
  8 21  1  0  0  0  0
  9 21  2  0  0  0  0
 10 22  1  0  0  0  0
 11 12  2  0  0  0  0
 11 23  1  0  0  0  0
 12 24  1  0  0  0  0
 13 20  1  0  0  0  0
 13 22  2  0  0  0  0
 14 24  2  0  0  0  0
 14 25  1  0  0  0  0
 15 26  1  0  0  0  0
 16 26  1  0  0  0  0
 16 27  2  0  0  0  0
 16 28  1  0  0  0  0
 17 19  2  0  0  0  0
 17 33  1  0  0  0  0
 18 20  2  0  0  0  0
 18 34  1  0  0  0  0
 19 49  1  0  0  0  0
 20 35  1  0  0  0  0
 21 85  1  0  0  0  0
 22 86  1  0  0  0  0
 23 25  2  0  0  0  0
 23 85  1  0  0  0  0
 24 87  1  0  0  0  0
 25 88  1  0  0  0  0
 26 67  2  0  0  0  0
 27 68  1  0  0  0  0
 27 73  1  0  0  0  0
 28 74  1  0  0  0  0
 28 80  2  0  0  0  0
 29 50  1  0  0  0  0
 29 76  1  0  0  0  0
 29 81  2  0  0  0  0
 30 63  1  0  0  0  0
 30 69  1  0  0  0  0
 30 82  2  0  0  0  0
 31 64  1  0  0  0  0
 31 77  1  0  0  0  0
 31 83  2  0  0  0  0
 32 70  1  0  0  0  0
 32 71  1  0  0  0  0
 32 84  2  0  0  0  0
 33 36  1  0  0  0  0
 34 50  1  0  0  0  0
 35 69  1  0  0  0  0
 36 39  1  0  0  0  0
 37 40  1  0  0  0  0
 37 44  1  0  0  0  0
 38 41  1  0  0  0  0
 38 45  1  0  0  0  0
 39 49  1  0  0  0  0
 40 51  1  0  0  0  0
 41 53  1  0  0  0  0
 42 46  1  0  0  0  0
 42 52  1  0  0  0  0
 43 47  1  0  0  0  0
 43 52  1  0  0  0  0
 44 70  1  0  0  0  0
 45 72  1  0  0  0  0
 46 71  1  0  0  0  0
 47 71  1  0  0  0  0
 48 51  1  0  0  0  0
 48 70  1  0  0  0  0
 49 76  1  0  0  0  0
 50 69  1  0  0  0  0
 51 68  1  0  0  0  0
 52 72  1  0  0  0  0
 53 54  1  0  0  0  0
 53 78  1  0  0  0  0
 54 55  1  0  0  0  0
 54 72  1  0  0  0  0
 56 64  1  0  0  0  0
 57 66  1  0  0  0  0
 58 66  1  0  0  0  0
 59 66  1  0  0  0  0
 60 79  1  0  0  0  0
 61 65  1  0  0  0  0
 61 78  1  0  0  0  0
 62 65  1  0  0  0  0
 62 86  1  0  0  0  0
 63 66  1  0  0  0  0
 63 77  1  0  0  0  0
 64 79  1  0  0  0  0
 65 75  1  0  0  0  0
 67 68  1  0  0  0  0
M  CHG  2  78   1  79   1
M  ISO  4  32 100  62 101  71 100  86 101
M  END
> <Batch ID>
0174

> <Smiles>
CNC(C)C(=O)NC(C(=O)N1Cc2cc([101O:1][101CH2:1]C(N)CNC3CCCN(C4CC[100N:0]([100C:0](=O)N5CCCC(n6nc(-c7ccc(Oc8ccc(F)cc8F)cc7)c(C(N)=O)c6N)C5)CC4)C3C)ccc2CC1C(=O)NC1CCCc2ccccc21)C(C)(C)C

> <Shape>
0.273

> <Color>
0.071

> <Negative vol penalty>
0.000

$$$$

  -OEChem-04052322453D

 86 95  0     1  0  0  0  0  0999 V2000
  -24.3748  -18.2933   28.3673 C   0  0  0  0  0  0  0  0  0  0  0  0
  -25.0166  -19.2096   27.5404 C   0  0  0  0  0  0  0  0  0  0  0  0
  -23.5528  -28.0875   22.9390 C   0  0  0  0  0  0  0  0  0  0  0  0
  -22.4643  -29.4261   21.2477 C   0  0  0  0  0  0  0  0  0  0  0  0
  -24.5217  -16.9261   28.1372 C   0  0  0  0  0  0  0  0  0  0  0  0
  -25.8067  -18.7592   26.4834 C   0  0  0  0  0  0  0  0  0  0  0  0
  -26.5117  -21.4276   21.0164 C   0  0  0  0  0  0  0  0  0  0  0  0
  -22.5685  -28.4493   23.8588 C   0  0  0  0  0  0  0  0  0  0  0  0
  -21.4800  -29.7878   22.1675 C   0  0  0  0  0  0  0  0  0  0  0  0
  -27.5052  -22.2577   20.4989 C   0  0  0  0  0  0  0  0  0  0  0  0
  -18.4812  -30.7759   23.9700 C   0  0  0  0  0  0  0  0  0  0  0  0
  -17.1525  -30.7385   23.5474 C   0  0  0  0  0  0  0  0  0  0  0  0
  -28.5768  -20.3417   19.4990 C   0  0  0  0  0  0  0  0  0  0  0  0
  -17.3663  -28.3770   23.0839 C   0  0  0  0  0  0  0  0  0  0  0  0
  -32.7605  -23.0593   18.6305 C   0  0  0  0  0  0  0  0  0  0  0  0
  -23.5007  -28.5760   21.6335 C   0  0  0  0  0  0  0  0  0  0  0  0
  -24.5041  -27.0952   19.8146 C   0  0  0  0  0  0  0  0  0  0  0  0
  -25.3063  -16.4588   27.0710 C   0  0  0  0  0  0  0  0  0  0  0  0
  -26.5494  -20.0446   20.7878 C   0  0  0  0  0  0  0  0  0  0  0  0
  -25.9654  -17.3844   26.2396 C   0  0  0  0  0  0  0  0  0  0  0  0
  -27.5813  -19.4966   20.0125 C   0  0  0  0  0  0  0  0  0  0  0  0
  -31.5235  -22.9431   18.0299 C   0  0  0  0  0  0  0  0  0  0  0  0
  -21.5321  -29.2994   23.4730 C   0  0  0  0  0  0  0  0  0  0  0  0
  -28.5395  -21.7144   19.7425 C   0  0  0  0  0  0  0  0  0  0  0  0
  -19.2526  -29.6138   23.9495 C   0  0  0  0  0  0  0  0  0  0  0  0
  -16.5950  -29.5391   23.1044 C   0  0  0  0  0  0  0  0  0  0  0  0
  -18.6951  -28.4144   23.5065 C   0  0  0  0  0  0  0  0  0  0  0  0
  -24.5175  -28.2031   20.6831 C   0  0  0  0  0  0  0  0  0  0  0  0
  -31.2657  -23.8422   17.0152 C   0  0  0  0  0  0  0  0  0  0  0  0
  -25.6877  -27.1862   19.1237 C   0  0  0  0  0  0  0  0  0  0  0  0
  -33.3122  -24.7974   17.2734 C   0  0  0  0  0  0  0  0  0  0  0  0
  -23.5105  -26.0751   19.6473 C   0  0  0  0  0  0  0  0  0  0  0  0
  -26.7867  -17.4709   22.6381 C   0  0  0  0  0  0  0  0  0  0  0  0
  -26.3002  -15.8967   19.8438 C   0  0  0  0  0  0  0  0  0  0  0  0
  -26.4898  -15.9163   16.4364 C   0  0  0  0  0  0  0  0  0  0  0  0
  -31.1511  -27.8887   19.2194 C   0  0  0  0  0  0  0  0  0  0  0  0
  -25.4735  -14.9708   26.8904 C   0  0  0  0  0  0  0  0  0  0  0  0
  -25.4556  -19.1662   21.3305 C   0  0  0  0  0  0  0  0  0  0  0  0
  -27.6562  -18.0208   19.7212 C   0  0  0  0  0  0  0  0  0  0  0  0
  -26.0259  -14.5816   25.5216 C   0  0  0  0  0  0  0  0  0  0  0  0
  -29.0708  -30.9120   18.8387 C   0  0  0  0  0  0  0  0  0  0  0  0
  -27.2190  -15.4597   25.1580 C   0  0  0  0  0  0  0  0  0  0  0  0
  -27.7052  -30.3845   19.2691 C   0  0  0  0  0  0  0  0  0  0  0  0
  -34.6572  -28.2856   17.7590 C   0  0  0  0  0  0  0  0  0  0  0  0
  -30.2113  -30.2450   19.6065 C   0  0  0  0  0  0  0  0  0  0  0  0
  -28.8168  -28.2277   19.9674 C   0  0  0  0  0  0  0  0  0  0  0  0
  -26.8110  -16.9351   25.0677 C   0  0  1  0  0  0  0  0  0  0  0  0
  -25.8746  -17.7057   21.4674 C   0  0  1  0  0  0  0  0  0  0  0  0
  -33.7633  -27.2460   17.1443 C   0  0  2  0  0  0  0  0  0  0  0  0
  -27.6603  -28.8519   19.1716 C   0  0  1  0  0  0  0  0  0  0  0  0
  -33.5315  -27.6918   18.5657 C   0  0  2  0  0  0  0  0  0  0  0  0
  -29.9594  -23.8105   16.2928 C   0  0  0  0  0  0  0  0  0  0  0  0
  -26.0559  -14.4715   14.4310 C   0  0  0  0  0  0  0  0  0  0  0  0
  -35.3906  -24.2970   15.1109 C   0  0  0  0  0  0  0  0  0  0  0  0
  -35.7795  -26.7520   14.9292 C   0  0  0  0  0  0  0  0  0  0  0  0
  -28.8385  -14.3118   20.4395 C   0  0  0  0  0  0  0  0  0  0  0  0
  -28.8755  -13.6023   18.0388 C   0  0  0  0  0  0  0  0  0  0  0  0
  -26.9589  -12.9564   19.4990 C   0  0  0  0  0  0  0  0  0  0  0  0
  -24.4961  -17.8169   15.3539 C   0  0  0  0  0  0  0  0  0  0  0  0
  -30.5407  -21.8986   18.4709 C   0  0  0  0  0  0  0  0  0  1  0  0
  -34.3059  -25.8268   16.8526 C   0  0  2  0  0  0  0  0  0  0  0  0
  -27.1915  -15.3599   18.7500 C   0  0  1  0  0  0  0  0  0  0  0  0
  -25.4843  -15.5230   15.3693 C   0  0  2  0  0  0  0  0  0  0  0  0
  -34.7702  -25.6800   15.3589 C   0  0  0  0  0  0  0  0  0  0  0  0
  -27.9660  -14.0852   19.1888 C   0  0  0  0  0  0  0  0  0  0  0  0
  -33.6825  -23.9782   18.2761 N   0  0  0  0  0  0  0  0  0  0  0  0
  -25.6221  -28.9434   20.5574 N   0  0  0  0  0  0  0  0  0  0  0  0
  -32.1404  -24.7861   16.6098 N   0  0  0  0  0  0  0  0  0  0  0  0
  -26.3138  -28.2995   19.6020 N   0  0  0  0  0  0  0  0  0  0  0  0
  -26.5668  -17.2026   20.2791 N   0  0  0  0  0  0  0  0  0  0  0  0
  -30.1137  -28.7778   19.5539 N   0  0  0  0  0  0  0  0  0  0  0  0
  -26.2435  -26.4217   18.1599 N   0  0  0  0  0  0  0  0  0  0  0  0
  -22.3545  -26.1323   20.4376 N   0  0  0  0  0  0  0  0  0  0  0  0
  -26.1257  -17.1944   23.8197 N   0  0  0  0  0  0  0  0  0  0  0  0
  -26.3360  -15.1676   17.5840 N   0  0  0  0  0  0  0  0  0  0  0  0
  -32.3765  -28.4731   18.9195 N   0  0  0  0  0  0  0  0  0  0  0  0
  -25.0950  -16.7127   14.5607 N   0  3  0  0  0  0  0  0  0  0  0  0
  -23.6514  -25.1314   18.8331 O   0  0  0  0  0  0  0  0  0  0  0  0
  -28.0003  -17.5342   22.4807 O   0  0  0  0  0  0  0  0  0  0  0  0
  -25.3961  -15.1862   20.2905 O   0  0  0  0  0  0  0  0  0  0  0  0
  -27.3303  -16.7970   16.2674 O   0  0  0  0  0  0  0  0  0  0  0  0
  -31.0003  -26.6622   19.1946 O   0  0  0  0  0  0  0  0  0  0  0  0
  -20.5714  -29.6524   24.3702 O   0  0  0  0  0  0  0  0  0  0  0  0
  -29.5108  -22.5223   19.2368 O   0  0  0  0  0  0  0  0  0  1  0  0
  -15.3186  -29.5030   22.7000 F   0  0  0  0  0  0  0  0  0  0  0  0
  -19.4308  -27.2946   23.4857 F   0  0  0  0  0  0  0  0  0  0  0  0
  1  2  1  0  0  0  0
  1  5  2  0  0  0  0
  2  6  2  0  0  0  0
  3  8  2  0  0  0  0
  3 16  1  0  0  0  0
  4  9  1  0  0  0  0
  4 16  2  0  0  0  0
  5 18  1  0  0  0  0
  6 20  1  0  0  0  0
  7 10  2  0  0  0  0
  7 19  1  0  0  0  0
  8 23  1  0  0  0  0
  9 23  2  0  0  0  0
 10 24  1  0  0  0  0
 11 12  2  0  0  0  0
 11 25  1  0  0  0  0
 12 26  1  0  0  0  0
 13 21  1  0  0  0  0
 13 24  2  0  0  0  0
 14 26  2  0  0  0  0
 14 27  1  0  0  0  0
 15 22  1  0  0  0  0
 15 66  2  0  0  0  0
 16 28  1  0  0  0  0
 17 28  1  0  0  0  0
 17 30  2  0  0  0  0
 17 32  1  0  0  0  0
 18 20  2  0  0  0  0
 18 37  1  0  0  0  0
 19 21  2  0  0  0  0
 19 38  1  0  0  0  0
 20 47  1  0  0  0  0
 21 39  1  0  0  0  0
 22 29  2  0  0  0  0
 22 60  1  0  0  0  0
 23 83  1  0  0  0  0
 24 84  1  0  0  0  0
 25 27  2  0  0  0  0
 25 83  1  0  0  0  0
 26 85  1  0  0  0  0
 27 86  1  0  0  0  0
 28 67  2  0  0  0  0
 29 52  1  0  0  0  0
 29 68  1  0  0  0  0
 30 69  1  0  0  0  0
 30 72  1  0  0  0  0
 31 61  1  0  0  0  0
 31 66  1  0  0  0  0
 31 68  2  0  0  0  0
 32 73  1  0  0  0  0
 32 78  2  0  0  0  0
 33 48  1  0  0  0  0
 33 74  1  0  0  0  0
 33 79  2  0  0  0  0
 34 62  1  0  0  0  0
 34 70  1  0  0  0  0
 34 80  2  0  0  0  0
 35 63  1  0  0  0  0
 35 75  1  0  0  0  0
 35 81  2  0  0  0  0
 36 71  1  0  0  0  0
 36 76  1  0  0  0  0
 36 82  2  0  0  0  0
 37 40  1  0  0  0  0
 38 48  1  0  0  0  0
 39 70  1  0  0  0  0
 40 42  1  0  0  0  0
 41 43  1  0  0  0  0
 41 45  1  0  0  0  0
 42 47  1  0  0  0  0
 43 50  1  0  0  0  0
 44 49  1  0  0  0  0
 44 51  1  0  0  0  0
 45 71  1  0  0  0  0
 46 50  1  0  0  0  0
 46 71  1  0  0  0  0
 47 74  1  0  0  0  0
 48 70  1  0  0  0  0
 49 51  1  0  0  0  0
 49 61  1  0  0  0  0
 50 69  1  0  0  0  0
 51 76  1  0  0  0  0
 53 63  1  0  0  0  0
 54 64  1  0  0  0  0
 55 64  1  0  0  0  0
 56 65  1  0  0  0  0
 57 65  1  0  0  0  0
 58 65  1  0  0  0  0
 59 77  1  0  0  0  0
 60 84  1  0  0  0  0
 61 64  1  0  0  0  0
 62 65  1  0  0  0  0
 62 75  1  0  0  0  0
 63 77  1  0  0  0  0
 67 69  1  0  0  0  0
M  CHG  1  77   1
M  ISO  4  36 100  60 101  76 100  84 101
M  END
> <Batch ID>
0174

> <Smiles>
CNC(C)C(=O)NC(C(=O)N1Cc2cc([101O:1][101CH2:1]c3cnc(C(C(C)C)C4CC4[100NH:0][100C:0](=O)N4CCCC(n5nc(-c6ccc(Oc7ccc(F)cc7F)cc6)c(C(N)=O)c5N)C4)nc3C)ccc2CC1C(=O)NC1CCCc2ccccc21)C(C)(C)C

> <Shape>
0.202

> <Color>
0.059

> <Negative vol penalty>
0.000

$$$$

  -OEChem-04052322453D

 88 97  0     1  0  0  0  0  0999 V2000
  -26.4571  -20.6599   28.4189 C   0  0  0  0  0  0  0  0  0  0  0  0
  -26.5356  -20.9571   27.0621 C   0  0  0  0  0  0  0  0  0  0  0  0
  -23.0343   -9.8733   20.8044 C   0  0  0  0  0  0  0  0  0  0  0  0
  -23.7204  -10.4989   23.0349 C   0  0  0  0  0  0  0  0  0  0  0  0
  -25.3152  -21.0032   29.1416 C   0  0  0  0  0  0  0  0  0  0  0  0
  -25.4718  -21.5968   26.4269 C   0  0  0  0  0  0  0  0  0  0  0  0
  -26.9963  -25.3520   23.3906 C   0  0  0  0  0  0  0  0  0  0  0  0
  -22.2607   -8.8397   21.3322 C   0  0  0  0  0  0  0  0  0  0  0  0
  -22.9467   -9.4653   23.5627 C   0  0  0  0  0  0  0  0  0  0  0  0
  -27.5146  -24.9944   22.1467 C   0  0  0  0  0  0  0  0  0  0  0  0
  -19.6861   -8.8942   24.2431 C   0  0  0  0  0  0  0  0  0  0  0  0
  -18.8914   -9.1830   25.3524 C   0  0  0  0  0  0  0  0  0  0  0  0
  -29.7438  -17.8324   18.8909 C   0  0  0  0  0  0  0  0  0  0  0  0
  -25.3963  -25.5207   21.1195 C   0  0  0  0  0  0  0  0  0  0  0  0
  -20.0709   -7.5082   26.6334 C   0  0  0  0  0  0  0  0  0  0  0  0
  -23.7642  -10.7029   21.6557 C   0  0  0  0  0  0  0  0  0  0  0  0
  -24.1585  -13.0958   20.8643 C   0  0  0  0  0  0  0  0  0  0  0  0
  -24.2408  -21.6560   28.5171 C   0  0  0  0  0  0  0  0  0  0  0  0
  -25.6686  -25.7870   23.5101 C   0  0  0  0  0  0  0  0  0  0  0  0
  -24.3139  -21.9479   27.1416 C   0  0  0  0  0  0  0  0  0  0  0  0
  -30.1517  -18.1334   20.1980 C   0  0  0  0  0  0  0  0  0  0  0  0
  -24.8644  -25.8857   22.3657 C   0  0  0  0  0  0  0  0  0  0  0  0
  -29.1488  -18.8026   18.0933 C   0  0  0  0  0  0  0  0  0  0  0  0
  -22.2168   -8.6356   22.7114 C   0  0  0  0  0  0  0  0  0  0  0  0
  -26.7137  -25.0760   21.0113 C   0  0  0  0  0  0  0  0  0  0  0  0
  -20.6731   -7.9123   24.3288 C   0  0  0  0  0  0  0  0  0  0  0  0
  -19.0838   -8.4901   26.5476 C   0  0  0  0  0  0  0  0  0  0  0  0
  -20.8656   -7.2194   25.5240 C   0  0  0  0  0  0  0  0  0  0  0  0
  -24.5640  -11.7705   21.1110 C   0  0  0  0  0  0  0  0  0  0  0  0
  -29.9698  -19.4513   20.6319 C   0  0  0  0  0  0  0  0  0  0  0  0
  -28.9889  -20.0654   18.6276 C   0  0  0  0  0  0  0  0  0  0  0  0
  -25.2760  -13.7068   20.3501 C   0  0  0  0  0  0  0  0  0  0  0  0
  -22.8854  -13.7189   21.0806 C   0  0  0  0  0  0  0  0  0  0  0  0
  -23.0901  -24.7280   25.0378 C   0  0  0  0  0  0  0  0  0  0  0  0
  -21.7986  -27.5081   23.9771 C   0  0  0  0  0  0  0  0  0  0  0  0
  -21.8504  -30.0397   21.6890 C   0  0  0  0  0  0  0  0  0  0  0  0
  -30.7696  -14.6844   20.4513 C   0  0  0  0  0  0  0  0  0  0  0  0
  -23.0079  -21.9648   29.3291 C   0  0  0  0  0  0  0  0  0  0  0  0
  -25.1327  -26.1945   24.8551 C   0  0  0  0  0  0  0  0  0  0  0  0
  -23.4387  -26.3659   22.4374 C   0  0  0  0  0  0  0  0  0  0  0  0
  -30.3870  -19.8836   22.0103 C   0  0  0  0  0  0  0  0  0  0  0  0
  -22.0784  -22.9768   28.6643 C   0  0  0  0  0  0  0  0  0  0  0  0
  -31.4500  -18.9755   22.6184 C   0  0  0  0  0  0  0  0  0  0  0  0
  -29.6631  -11.7500   18.7655 C   0  0  0  0  0  0  0  0  0  0  0  0
  -21.8671  -22.6232   27.1956 C   0  0  0  0  0  0  0  0  0  0  0  0
  -28.2071  -11.5999   19.2099 C   0  0  0  0  0  0  0  0  0  0  0  0
  -30.5454  -12.2814   19.8930 C   0  0  0  0  0  0  0  0  0  0  0  0
  -28.6147  -13.3821   20.9582 C   0  0  0  0  0  0  0  0  0  0  0  0
  -23.1909  -22.6633   26.4225 C   0  0  1  0  0  0  0  0  0  0  0  0
  -30.8373  -17.0902   21.0566 C   0  0  1  0  0  0  0  0  0  0  0  0
  -23.6104  -26.1339   24.9352 C   0  0  1  0  0  0  0  0  0  0  0  0
  -31.0008  -17.5121   22.5355 C   0  0  1  0  0  0  0  0  0  0  0  0
  -27.6756  -12.9021   19.8384 C   0  0  2  0  0  0  0  0  0  0  0  0
  -28.7112  -18.4654   16.7099 C   0  0  0  0  0  0  0  0  0  0  0  0
  -32.1556  -17.0202   24.6973 C   0  0  0  0  0  0  0  0  0  0  0  0
  -20.6469  -32.1492   21.0576 C   0  0  0  0  0  0  0  0  0  0  0  0
  -19.5288  -25.8535   22.7852 C   0  0  0  0  0  0  0  0  0  0  0  0
  -18.9017  -27.8411   21.3979 C   0  0  0  0  0  0  0  0  0  0  0  0
  -18.8037  -27.9785   23.8867 C   0  0  0  0  0  0  0  0  0  0  0  0
  -24.2762  -31.6844   22.1007 C   0  0  0  0  0  0  0  0  0  0  0  0
  -28.3501  -21.1560   17.8192 C   0  0  0  0  0  0  0  0  0  0  0  0
  -31.9975  -16.6119   23.2709 C   0  0  0  0  0  0  0  0  0  0  0  0
  -27.0318  -23.2764   17.8871 C   0  0  0  0  0  0  0  0  0  0  0  0
  -26.2983  -24.1996   18.8398 C   0  0  0  0  0  0  0  0  0  1  0  0
  -21.0542  -27.9360   22.7354 C   0  0  1  0  0  0  0  0  0  0  0  0
  -21.7944  -31.5477   21.8539 C   0  0  2  0  0  0  0  0  0  0  0  0
  -19.5984  -27.3913   22.6999 C   0  0  0  0  0  0  0  0  0  0  0  0
  -25.8396  -11.5516   20.7806 N   0  0  0  0  0  0  0  0  0  0  0  0
  -29.3831  -20.4117   19.8712 N   0  0  0  0  0  0  0  0  0  0  0  0
  -26.2451  -12.7475   20.3209 N   0  0  0  0  0  0  0  0  0  0  0  0
  -22.9586  -26.7468   23.7760 N   0  0  0  0  0  0  0  0  0  0  0  0
  -29.9867  -13.5181   20.4445 N   0  0  0  0  0  0  0  0  0  0  0  0
  -25.5143  -14.9655   19.9245 N   0  0  0  0  0  0  0  0  0  0  0  0
  -21.8459  -12.9464   21.6162 N   0  0  0  0  0  0  0  0  0  0  0  0
  -23.5653  -24.0307   26.1321 N   0  0  0  0  0  0  0  0  0  0  0  0
  -21.1493  -29.3909   22.6834 N   0  0  0  0  0  0  0  0  0  0  0  0
  -30.1618  -15.8137   20.9860 N   0  0  0  0  0  0  0  0  0  0  0  0
  -23.0665  -32.1675   21.3863 N   0  3  0  0  0  0  0  0  0  0  0  0
  -27.6245  -22.1515   18.6536 N   0  3  0  0  0  0  0  0  0  0  0  0
  -22.6713  -14.9207   20.7917 O   0  0  0  0  0  0  0  0  0  0  0  0
  -22.3138  -24.3076   24.1879 O   0  0  0  0  0  0  0  0  0  0  0  0
  -21.3705  -27.8433   25.0844 O   0  0  0  0  0  0  0  0  0  0  0  0
  -22.4526  -29.4922   20.7680 O   0  0  0  0  0  0  0  0  0  0  0  0
  -31.9226  -14.7181   20.0083 O   0  0  0  0  0  0  0  0  0  0  0  0
  -21.4618   -7.6273   23.2268 O   0  0  0  0  0  0  0  0  0  0  0  0
  -27.2169  -24.7270   19.7961 O   0  0  0  0  0  0  0  0  0  1  0  0
  -18.3217   -8.7686   27.6133 F   0  0  0  0  0  0  0  0  0  0  0  0
  -21.8130   -6.2759   25.6128 F   0  0  0  0  0  0  0  0  0  0  0  0
  1  2  1  0  0  0  0
  1  5  2  0  0  0  0
  2  6  2  0  0  0  0
  3  8  2  0  0  0  0
  3 16  1  0  0  0  0
  4  9  1  0  0  0  0
  4 16  2  0  0  0  0
  5 18  1  0  0  0  0
  6 20  1  0  0  0  0
  7 10  2  0  0  0  0
  7 19  1  0  0  0  0
  8 24  1  0  0  0  0
  9 24  2  0  0  0  0
 10 25  1  0  0  0  0
 11 12  2  0  0  0  0
 11 26  1  0  0  0  0
 12 27  1  0  0  0  0
 13 21  1  0  0  0  0
 13 23  2  0  0  0  0
 14 22  1  0  0  0  0
 14 25  2  0  0  0  0
 15 27  2  0  0  0  0
 15 28  1  0  0  0  0
 16 29  1  0  0  0  0
 17 29  1  0  0  0  0
 17 32  2  0  0  0  0
 17 33  1  0  0  0  0
 18 20  2  0  0  0  0
 18 38  1  0  0  0  0
 19 22  2  0  0  0  0
 19 39  1  0  0  0  0
 20 49  1  0  0  0  0
 21 30  2  0  0  0  0
 21 50  1  0  0  0  0
 22 40  1  0  0  0  0
 23 31  1  0  0  0  0
 23 54  1  0  0  0  0
 24 85  1  0  0  0  0
 25 86  1  0  0  0  0
 26 28  2  0  0  0  0
 26 85  1  0  0  0  0
 27 87  1  0  0  0  0
 28 88  1  0  0  0  0
 29 68  2  0  0  0  0
 30 41  1  0  0  0  0
 30 69  1  0  0  0  0
 31 61  1  0  0  0  0
 31 69  2  0  0  0  0
 32 70  1  0  0  0  0
 32 73  1  0  0  0  0
 33 74  1  0  0  0  0
 33 80  2  0  0  0  0
 34 51  1  0  0  0  0
 34 75  1  0  0  0  0
 34 81  2  0  0  0  0
 35 65  1  0  0  0  0
 35 71  1  0  0  0  0
 35 82  2  0  0  0  0
 36 66  1  0  0  0  0
 36 76  1  0  0  0  0
 36 83  2  0  0  0  0
 37 72  1  0  0  0  0
 37 77  1  0  0  0  0
 37 84  2  0  0  0  0
 38 42  1  0  0  0  0
 39 51  1  0  0  0  0
 40 71  1  0  0  0  0
 41 43  1  0  0  0  0
 42 45  1  0  0  0  0
 43 52  1  0  0  0  0
 44 46  1  0  0  0  0
 44 47  1  0  0  0  0
 45 49  1  0  0  0  0
 46 53  1  0  0  0  0
 47 72  1  0  0  0  0
 48 53  1  0  0  0  0
 48 72  1  0  0  0  0
 49 75  1  0  0  0  0
 50 52  1  0  0  0  0
 50 77  1  0  0  0  0
 51 71  1  0  0  0  0
 52 62  1  0  0  0  0
 53 70  1  0  0  0  0
 55 62  1  0  0  0  0
 56 66  1  0  0  0  0
 57 67  1  0  0  0  0
 58 67  1  0  0  0  0
 59 67  1  0  0  0  0
 60 78  1  0  0  0  0
 61 79  1  0  0  0  0
 63 64  1  0  0  0  0
 63 79  1  0  0  0  0
 64 86  1  0  0  0  0
 65 67  1  0  0  0  0
 65 76  1  0  0  0  0
 66 78  1  0  0  0  0
 68 70  1  0  0  0  0
M  CHG  2  78   1  79   1
M  ISO  4  37 100  64 101  77 100  86 101
M  END
> <Batch ID>
0174

> <Smiles>
CCC1CCc2nc(CNC[101CH2:1][101O:1]c3ccc4c(c3)CN(C(=O)C(NC(=O)C(C)NC)C(C)(C)C)C(C(=O)NC3CCCc5ccccc53)C4)c(C)cc2C1[100NH:0][100C:0](=O)N1CCCC(n2nc(-c3ccc(Oc4ccc(F)cc4F)cc3)c(C(N)=O)c2N)C1

> <Shape>
0.259

> <Color>
0.182

> <Negative vol penalty>
0.000

$$$$

  -OEChem-04052322453D

 88 98  0     1  0  0  0  0  0999 V2000
  -25.4611  -35.7437   19.9318 C   0  0  0  0  0  0  0  0  0  0  0  0
  -25.5651  -34.3585   20.0091 C   0  0  0  0  0  0  0  0  0  0  0  0
  -23.0394   -9.9425   20.0238 C   0  0  0  0  0  0  0  0  0  0  0  0
  -23.8018  -10.0008   22.3156 C   0  0  0  0  0  0  0  0  0  0  0  0
  -25.7124  -36.5244   21.0593 C   0  0  0  0  0  0  0  0  0  0  0  0
  -25.9215  -33.7534   21.2137 C   0  0  0  0  0  0  0  0  0  0  0  0
  -23.9417  -28.3685   23.3558 C   0  0  0  0  0  0  0  0  0  0  0  0
  -22.2760   -8.8099   20.3065 C   0  0  0  0  0  0  0  0  0  0  0  0
  -23.0383   -8.8682   22.5983 C   0  0  0  0  0  0  0  0  0  0  0  0
  -24.5009  -27.0914   23.3440 C   0  0  0  0  0  0  0  0  0  0  0  0
  -22.7912   -5.4915   20.6902 C   0  0  0  0  0  0  0  0  0  0  0  0
  -22.8393   -4.4350   19.7809 C   0  0  0  0  0  0  0  0  0  0  0  0
  -29.4822  -18.9174   22.0149 C   0  0  0  0  0  0  0  0  0  0  0  0
  -29.0184  -18.3480   24.7580 C   0  0  0  0  0  0  0  0  0  0  0  0
  -25.3609  -27.4541   25.5685 C   0  0  0  0  0  0  0  0  0  0  0  0
  -20.4576   -4.6320   19.4260 C   0  0  0  0  0  0  0  0  0  0  0  0
  -23.8023  -10.5380   21.0283 C   0  0  0  0  0  0  0  0  0  0  0  0
  -28.7008  -19.7316   22.8114 C   0  0  0  0  0  0  0  0  0  0  0  0
  -24.1876  -13.0525   20.8372 C   0  0  0  0  0  0  0  0  0  0  0  0
  -26.0626  -35.9280   22.2808 C   0  0  0  0  0  0  0  0  0  0  0  0
  -24.0974  -29.2034   24.4716 C   0  0  0  0  0  0  0  0  0  0  0  0
  -26.1790  -34.5270   22.3583 C   0  0  0  0  0  0  0  0  0  0  0  0
  -28.4644  -19.4643   24.1606 C   0  0  0  0  0  0  0  0  0  0  0  0
  -24.8005  -28.7403   25.5929 C   0  0  0  0  0  0  0  0  0  0  0  0
  -30.0439  -17.7891   22.6143 C   0  0  0  0  0  0  0  0  0  0  0  0
  -29.8143  -17.5067   23.9735 C   0  0  0  0  0  0  0  0  0  0  0  0
  -22.2754   -8.2727   21.5938 C   0  0  0  0  0  0  0  0  0  0  0  0
  -25.2131  -26.6351   24.4493 C   0  0  0  0  0  0  0  0  0  0  0  0
  -21.5763   -6.1183   20.9676 C   0  0  0  0  0  0  0  0  0  0  0  0
  -21.6725   -4.0052   19.1488 C   0  0  0  0  0  0  0  0  0  0  0  0
  -20.4095   -5.6886   20.3355 C   0  0  0  0  0  0  0  0  0  0  0  0
  -24.5916  -11.7076   20.7368 C   0  0  0  0  0  0  0  0  0  0  0  0
  -25.2921  -13.7724   20.4523 C   0  0  0  0  0  0  0  0  0  0  0  0
  -27.9951  -20.9676   22.4550 C   0  0  0  0  0  0  0  0  0  0  0  0
  -22.9267  -13.6017   21.2422 C   0  0  0  0  0  0  0  0  0  0  0  0
  -25.4551  -32.0313   24.9851 C   0  0  0  0  0  0  0  0  0  0  0  0
  -24.1335  -31.6949   27.9283 C   0  0  0  0  0  0  0  0  0  0  0  0
  -22.9283  -29.6039   30.3413 C   0  0  0  0  0  0  0  0  0  0  0  0
  -30.7929  -14.7014   20.6088 C   0  0  0  0  0  0  0  0  0  0  0  0
  -26.3708  -36.8160   23.4603 C   0  0  0  0  0  0  0  0  0  0  0  0
  -23.4652  -30.5682   24.4791 C   0  0  0  0  0  0  0  0  0  0  0  0
  -27.5899  -20.5152   24.7544 C   0  0  0  0  0  0  0  0  0  0  0  0
  -24.9789  -29.5900   26.8236 C   0  0  0  0  0  0  0  0  0  0  0  0
  -26.3776  -36.0753   24.7951 C   0  0  0  0  0  0  0  0  0  0  0  0
  -29.6117  -12.2708   18.2906 C   0  0  0  0  0  0  0  0  0  0  0  0
  -27.1715  -34.7778   24.6816 C   0  0  0  0  0  0  0  0  0  0  0  0
  -28.1698  -12.0142   18.7325 C   0  0  0  0  0  0  0  0  0  0  0  0
  -25.3527  -22.5888   22.7746 C   0  0  0  0  0  0  0  0  0  0  0  0
  -24.9996  -24.0680   22.5826 C   0  0  0  0  0  0  0  0  0  0  0  0
  -27.2896  -23.8577   23.3696 C   0  0  0  0  0  0  0  0  0  0  0  0
  -30.5338  -12.5094   19.4843 C   0  0  0  0  0  0  0  0  0  0  0  0
  -28.6464  -13.3119   20.8509 C   0  0  0  0  0  0  0  0  0  0  0  0
  -26.5389  -33.8321   23.6535 C   0  0  1  0  0  0  0  0  0  0  0  0
  -24.1242  -31.5265   25.4664 C   0  0  1  0  0  0  0  0  0  0  0  0
  -27.6681  -13.1212   19.6792 C   0  0  2  0  0  0  0  0  0  0  0  0
  -26.5390  -22.5816   23.7323 C   0  0  2  0  0  0  0  0  0  0  0  0
  -26.1620  -24.8666   23.1771 C   0  0  2  0  0  0  0  0  0  1  0  0
  -30.4191  -16.2958   24.6088 C   0  0  0  0  0  0  0  0  0  0  0  0
  -21.9521  -29.6192   32.6530 C   0  0  0  0  0  0  0  0  0  0  0  0
  -26.9083  -32.1962   29.0942 C   0  0  0  0  0  0  0  0  0  0  0  0
  -26.0839  -31.2748   31.2712 C   0  0  0  0  0  0  0  0  0  0  0  0
  -25.0434  -33.3304   30.3149 C   0  0  0  0  0  0  0  0  0  0  0  0
  -20.3998  -28.3823   29.4071 C   0  0  0  0  0  0  0  0  0  0  0  0
  -30.8972  -16.8844   21.7847 C   0  0  0  0  0  0  0  0  0  0  0  0
  -24.5796  -31.0905   29.2378 C   0  0  1  0  0  0  0  0  0  0  0  0
  -21.6521  -29.6430   31.1623 C   0  0  2  0  0  0  0  0  0  0  0  0
  -25.6523  -31.9575   29.9557 C   0  0  0  0  0  0  0  0  0  0  0  0
  -25.8542  -11.5782   20.3206 N   0  0  0  0  0  0  0  0  0  0  0  0
  -26.2530  -12.8510   20.1560 N   0  0  0  0  0  0  0  0  0  0  0  0
  -27.3510  -21.4051   23.6158 N   0  0  0  0  0  0  0  0  0  0  0  0
  -24.3475  -30.9193   26.7801 N   0  0  0  0  0  0  0  0  0  0  0  0
  -30.0020  -13.5717   20.3413 N   0  0  0  0  0  0  0  0  0  0  0  0
  -25.5254  -15.0975   20.3418 N   0  0  0  0  0  0  0  0  0  0  0  0
  -21.8995  -12.7200   21.6055 N   0  0  0  0  0  0  0  0  0  0  0  0
  -25.3778  -33.1771   24.2167 N   0  0  0  0  0  0  0  0  0  0  0  0
  -23.3678  -30.8707   30.0198 N   0  0  0  0  0  0  0  0  0  0  0  0
  -30.2107  -15.6637   21.4247 N   0  0  0  0  0  0  0  0  0  0  0  0
  -20.7911  -28.4708   30.8375 N   0  3  0  0  0  0  0  0  0  0  0  0
  -28.0090  -21.4640   21.3436 O   0  0  0  0  0  0  0  0  0  0  0  0
  -22.7118  -14.8374   21.2650 O   0  0  0  0  0  0  0  0  0  0  0  0
  -26.4766  -31.4267   25.2896 O   0  0  0  0  0  0  0  0  0  0  0  0
  -23.6079  -32.8108   27.9253 O   0  0  0  0  0  0  0  0  0  0  0  0
  -23.4822  -28.5547   30.0206 O   0  0  0  0  0  0  0  0  0  0  0  0
  -31.9312  -14.8444   20.1497 O   0  0  0  0  0  0  0  0  0  0  0  0
  -21.5304   -7.1676   21.8700 O   0  0  0  0  0  0  0  0  0  0  0  0
  -25.7606  -25.3893   24.4402 O   0  0  0  0  0  0  0  0  0  1  0  0
  -21.7190   -2.9916   18.2744 F   0  0  0  0  0  0  0  0  0  0  0  0
  -19.2397   -6.2876   20.5970 F   0  0  0  0  0  0  0  0  0  0  0  0
  1  2  1  0  0  0  0
  1  5  2  0  0  0  0
  2  6  2  0  0  0  0
  3  8  2  0  0  0  0
  3 17  1  0  0  0  0
  4  9  1  0  0  0  0
  4 17  2  0  0  0  0
  5 20  1  0  0  0  0
  6 22  1  0  0  0  0
  7 10  2  0  0  0  0
  7 21  1  0  0  0  0
  8 27  1  0  0  0  0
  9 27  2  0  0  0  0
 10 28  1  0  0  0  0
 11 12  2  0  0  0  0
 11 29  1  0  0  0  0
 12 30  1  0  0  0  0
 13 18  1  0  0  0  0
 13 25  2  0  0  0  0
 14 23  1  0  0  0  0
 14 26  2  0  0  0  0
 15 24  1  0  0  0  0
 15 28  2  0  0  0  0
 16 30  2  0  0  0  0
 16 31  1  0  0  0  0
 17 32  1  0  0  0  0
 18 23  2  0  0  0  0
 18 34  1  0  0  0  0
 19 32  1  0  0  0  0
 19 33  2  0  0  0  0
 19 35  1  0  0  0  0
 20 22  2  0  0  0  0
 20 40  1  0  0  0  0
 21 24  2  0  0  0  0
 21 41  1  0  0  0  0
 22 53  1  0  0  0  0
 23 42  1  0  0  0  0
 24 43  1  0  0  0  0
 25 26  1  0  0  0  0
 25 64  1  0  0  0  0
 26 58  1  0  0  0  0
 27 85  1  0  0  0  0
 28 86  1  0  0  0  0
 29 31  2  0  0  0  0
 29 85  1  0  0  0  0
 30 87  1  0  0  0  0
 31 88  1  0  0  0  0
 32 68  2  0  0  0  0
 33 69  1  0  0  0  0
 33 73  1  0  0  0  0
 34 70  1  0  0  0  0
 34 79  2  0  0  0  0
 35 74  1  0  0  0  0
 35 80  2  0  0  0  0
 36 54  1  0  0  0  0
 36 75  1  0  0  0  0
 36 81  2  0  0  0  0
 37 65  1  0  0  0  0
 37 71  1  0  0  0  0
 37 82  2  0  0  0  0
 38 66  1  0  0  0  0
 38 76  1  0  0  0  0
 38 83  2  0  0  0  0
 39 72  1  0  0  0  0
 39 77  1  0  0  0  0
 39 84  2  0  0  0  0
 40 44  1  0  0  0  0
 41 54  1  0  0  0  0
 42 70  1  0  0  0  0
 43 71  1  0  0  0  0
 44 46  1  0  0  0  0
 45 47  1  0  0  0  0
 45 51  1  0  0  0  0
 46 53  1  0  0  0  0
 47 55  1  0  0  0  0
 48 49  1  0  0  0  0
 48 56  1  0  0  0  0
 49 57  1  0  0  0  0
 50 56  1  0  0  0  0
 50 57  1  0  0  0  0
 51 72  1  0  0  0  0
 52 55  1  0  0  0  0
 52 72  1  0  0  0  0
 53 75  1  0  0  0  0
 54 71  1  0  0  0  0
 55 69  1  0  0  0  0
 56 70  1  0  0  0  0
 57 86  1  0  0  0  0
 59 66  1  0  0  0  0
 60 67  1  0  0  0  0
 61 67  1  0  0  0  0
 62 67  1  0  0  0  0
 63 78  1  0  0  0  0
 64 77  1  0  0  0  0
 65 67  1  0  0  0  0
 65 76  1  0  0  0  0
 66 78  1  0  0  0  0
 68 69  1  0  0  0  0
M  CHG  1  78   1
M  ISO  4  39 100  57 101  77 100  86 101
M  END
> <Batch ID>
0174

> <Smiles>
CNC(C)C(=O)NC(C(=O)N1Cc2cc([101O:1][101CH:1]3CCC(N4Cc5cc(C)c(C[100NH:0][100C:0](=O)N6CCCC(n7nc(-c8ccc(Oc9ccc(F)cc9F)cc8)c(C(N)=O)c7N)C6)cc5C4=O)C3)ccc2CC1C(=O)NC1CCCc2ccccc21)C(C)(C)C

> <Shape>
0.243

> <Color>
0.199

> <Negative vol penalty>
0.000

$$$$

  -OEChem-04052322453D

 82 91  0     1  0  0  0  0  0999 V2000
  -28.7065  -32.6867   25.8029 C   0  0  0  0  0  0  0  0  0  0  0  0
  -29.1018  -31.5288   25.1408 C   0  0  0  0  0  0  0  0  0  0  0  0
  -26.5167  -12.4808   21.2880 C   0  0  0  0  0  0  0  0  0  0  0  0
  -24.7889  -12.1651   19.6291 C   0  0  0  0  0  0  0  0  0  0  0  0
  -27.3522  -32.9353   26.0220 C   0  0  0  0  0  0  0  0  0  0  0  0
  -28.1429  -30.6181   24.6985 C   0  0  0  0  0  0  0  0  0  0  0  0
  -28.4206  -21.9351   17.0499 C   0  0  0  0  0  0  0  0  0  0  0  0
  -29.0361  -28.9919   19.9865 C   0  0  0  0  0  0  0  0  0  0  0  0
  -29.3676  -22.8908   16.6752 C   0  0  0  0  0  0  0  0  0  0  0  0
  -26.3103  -11.1811   21.7503 C   0  0  0  0  0  0  0  0  0  0  0  0
  -24.5825  -10.8653   20.0913 C   0  0  0  0  0  0  0  0  0  0  0  0
  -30.0230  -28.0205   19.8245 C   0  0  0  0  0  0  0  0  0  0  0  0
  -23.0025   -9.3613   22.6744 C   0  0  0  0  0  0  0  0  0  0  0  0
  -21.6855   -8.9396   22.8563 C   0  0  0  0  0  0  0  0  0  0  0  0
  -28.3180  -26.3190   19.6926 C   0  0  0  0  0  0  0  0  0  0  0  0
  -22.0318   -7.1662   21.2524 C   0  0  0  0  0  0  0  0  0  0  0  0
  -25.7559  -12.9728   20.2274 C   0  0  0  0  0  0  0  0  0  0  0  0
  -26.8602  -14.7282   18.7419 C   0  0  0  0  0  0  0  0  0  0  0  0
  -26.3757  -32.0319   25.5736 C   0  0  0  0  0  0  0  0  0  0  0  0
  -27.6810  -28.6322   20.0137 C   0  0  0  0  0  0  0  0  0  0  0  0
  -28.1109  -21.8144   18.3931 C   0  0  0  0  0  0  0  0  0  0  0  0
  -26.7744  -30.8541   24.9130 C   0  0  0  0  0  0  0  0  0  0  0  0
  -27.3158  -27.2880   19.8525 C   0  0  0  0  0  0  0  0  0  0  0  0
  -28.7284  -22.6216   19.3536 C   0  0  0  0  0  0  0  0  0  0  0  0
  -29.9878  -23.7017   17.6398 C   0  0  0  0  0  0  0  0  0  0  0  0
  -29.6694  -23.5698   18.9933 C   0  0  0  0  0  0  0  0  0  0  0  0
  -25.3433  -10.3733   21.1519 C   0  0  0  0  0  0  0  0  0  0  0  0
  -29.6642  -26.6835   19.6804 C   0  0  0  0  0  0  0  0  0  0  0  0
  -23.8343   -8.6855   21.7815 C   0  0  0  0  0  0  0  0  0  0  0  0
  -21.2001   -7.8420   22.1453 C   0  0  0  0  0  0  0  0  0  0  0  0
  -23.3489   -7.5879   21.0705 C   0  0  0  0  0  0  0  0  0  0  0  0
  -25.9682  -14.3156   19.7498 C   0  0  0  0  0  0  0  0  0  0  0  0
  -26.6851  -16.0883   18.6642 C   0  0  0  0  0  0  0  0  0  0  0  0
  -27.7660  -13.9516   17.9469 C   0  0  0  0  0  0  0  0  0  0  0  0
  -25.3465  -28.8447   22.1605 C   0  0  0  0  0  0  0  0  0  0  0  0
  -23.5223  -27.7543   19.7098 C   0  0  0  0  0  0  0  0  0  0  0  0
  -23.3551  -26.0510   16.7572 C   0  0  0  0  0  0  0  0  0  0  0  0
  -26.2397  -20.9646   21.4437 C   0  0  0  0  0  0  0  0  0  0  0  0
  -24.9265  -32.3204   25.8753 C   0  0  0  0  0  0  0  0  0  0  0  0
  -26.6273  -29.6952   20.1625 C   0  0  0  0  0  0  0  0  0  0  0  0
  -27.1595  -20.8651   19.0461 C   0  0  0  0  0  0  0  0  0  0  0  0
  -25.8741  -26.8523   19.8543 C   0  0  0  0  0  0  0  0  0  0  0  0
  -28.2136  -22.2931   20.7144 C   0  0  0  0  0  0  0  0  0  0  0  0
  -23.9538  -31.4880   25.0441 C   0  0  0  0  0  0  0  0  0  0  0  0
  -23.1694  -19.0933   20.7167 C   0  0  0  0  0  0  0  0  0  0  0  0
  -24.3785  -30.0229   25.0340 C   0  0  0  0  0  0  0  0  0  0  0  0
  -23.7022  -17.7040   20.3594 C   0  0  0  0  0  0  0  0  0  0  0  0
  -24.0718  -19.8137   21.7166 C   0  0  0  0  0  0  0  0  0  0  0  0
  -26.0148  -18.4934   20.9761 C   0  0  0  0  0  0  0  0  0  0  0  0
  -25.7628  -29.8542   24.3962 C   0  0  1  0  0  0  0  0  0  0  0  0
  -25.3025  -29.1536   20.6907 C   0  0  1  0  0  0  0  0  0  0  0  0
  -25.1763  -17.7684   19.9151 C   0  0  1  0  0  0  0  0  0  0  0  0
  -30.9959  -24.7085   17.1883 C   0  0  0  0  0  0  0  0  0  0  0  0
  -31.6159  -23.8173   20.5722 C   0  0  0  0  0  0  0  0  0  0  0  0
  -21.7207  -25.2919   15.0108 C   0  0  0  0  0  0  0  0  0  0  0  0
  -22.5596  -25.5407   21.5762 C   0  0  0  0  0  0  0  0  0  0  0  0
  -21.7163  -24.3087   19.5665 C   0  0  0  0  0  0  0  0  0  0  0  0
  -20.7744  -26.5457   20.1419 C   0  0  0  0  0  0  0  0  0  0  0  0
  -24.7092  -27.6178   14.6429 C   0  0  0  0  0  0  0  0  0  0  0  0
  -30.3195  -24.4239   20.0279 C   0  0  1  0  0  0  0  0  0  1  0  0
  -23.1167  -26.3913   19.2030 C   0  0  1  0  0  0  0  0  0  0  0  0
  -22.6858  -26.3873   15.4369 C   0  0  2  0  0  0  0  0  0  0  0  0
  -22.0691  -25.7043   20.1238 C   0  0  0  0  0  0  0  0  0  0  0  0
  -25.2778  -15.3313   20.2748 N   0  0  0  0  0  0  0  0  0  0  0  0
  -25.7361  -16.3957   19.5943 N   0  0  0  0  0  0  0  0  0  0  0  0
  -24.8810  -27.9280   20.0092 N   0  0  0  0  0  0  0  0  0  0  0  0
  -27.2021  -21.2508   20.4722 N   0  0  0  0  0  0  0  0  0  0  0  0
  -25.4583  -19.8207   21.2527 N   0  0  0  0  0  0  0  0  0  0  0  0
  -27.2519  -17.0394   17.8918 N   0  0  0  0  0  0  0  0  0  0  0  0
  -27.8196  -12.5668   18.1558 N   0  0  0  0  0  0  0  0  0  0  0  0
  -25.6674  -29.9294   22.9541 N   0  0  0  0  0  0  0  0  0  0  0  0
  -22.6688  -26.5838   17.8280 N   0  0  0  0  0  0  0  0  0  0  0  0
  -23.7083  -26.5555   14.3659 N   0  3  0  0  0  0  0  0  0  0  0  0
  -28.5179  -14.4725   17.0885 O   0  0  0  0  0  0  0  0  0  0  0  0
  -25.1055  -27.7067   22.5461 O   0  0  0  0  0  0  0  0  0  0  0  0
  -22.6663  -28.6346   19.8287 O   0  0  0  0  0  0  0  0  0  0  0  0
  -24.3817  -25.3795   16.8316 O   0  0  0  0  0  0  0  0  0  0  0  0
  -26.0489  -21.7215   22.4041 O   0  0  0  0  0  0  0  0  0  0  0  0
  -25.1418   -9.1049   21.6026 O   0  0  0  0  0  0  0  0  0  0  0  0
  -30.6282  -25.7306   19.5223 O   0  0  0  0  0  0  0  0  0  1  0  0
  -19.9358   -7.4362   22.3212 F   0  0  0  0  0  0  0  0  0  0  0  0
  -24.1436   -6.9340   20.2122 F   0  0  0  0  0  0  0  0  0  0  0  0
  1  2  1  0  0  0  0
  1  5  2  0  0  0  0
  2  6  2  0  0  0  0
  3 10  2  0  0  0  0
  3 17  1  0  0  0  0
  4 11  1  0  0  0  0
  4 17  2  0  0  0  0
  5 19  1  0  0  0  0
  6 22  1  0  0  0  0
  7  9  1  0  0  0  0
  7 21  2  0  0  0  0
  8 12  2  0  0  0  0
  8 20  1  0  0  0  0
  9 25  2  0  0  0  0
 10 27  1  0  0  0  0
 11 27  2  0  0  0  0
 12 28  1  0  0  0  0
 13 14  2  0  0  0  0
 13 29  1  0  0  0  0
 14 30  1  0  0  0  0
 15 23  1  0  0  0  0
 15 28  2  0  0  0  0
 16 30  2  0  0  0  0
 16 31  1  0  0  0  0
 17 32  1  0  0  0  0
 18 32  1  0  0  0  0
 18 33  2  0  0  0  0
 18 34  1  0  0  0  0
 19 22  2  0  0  0  0
 19 39  1  0  0  0  0
 20 23  2  0  0  0  0
 20 40  1  0  0  0  0
 21 24  1  0  0  0  0
 21 41  1  0  0  0  0
 22 50  1  0  0  0  0
 23 42  1  0  0  0  0
 24 26  2  0  0  0  0
 24 43  1  0  0  0  0
 25 26  1  0  0  0  0
 25 53  1  0  0  0  0
 26 60  1  0  0  0  0
 27 79  1  0  0  0  0
 28 80  1  0  0  0  0
 29 31  2  0  0  0  0
 29 79  1  0  0  0  0
 30 81  1  0  0  0  0
 31 82  1  0  0  0  0
 32 64  2  0  0  0  0
 33 65  1  0  0  0  0
 33 69  1  0  0  0  0
 34 70  1  0  0  0  0
 34 74  2  0  0  0  0
 35 51  1  0  0  0  0
 35 71  1  0  0  0  0
 35 75  2  0  0  0  0
 36 61  1  0  0  0  0
 36 66  1  0  0  0  0
 36 76  2  0  0  0  0
 37 62  1  0  0  0  0
 37 72  1  0  0  0  0
 37 77  2  0  0  0  0
 38 67  1  0  0  0  0
 38 68  1  0  0  0  0
 38 78  2  0  0  0  0
 39 44  1  0  0  0  0
 40 51  1  0  0  0  0
 41 67  1  0  0  0  0
 42 66  1  0  0  0  0
 43 67  1  0  0  0  0
 44 46  1  0  0  0  0
 45 47  1  0  0  0  0
 45 48  1  0  0  0  0
 46 50  1  0  0  0  0
 47 52  1  0  0  0  0
 48 68  1  0  0  0  0
 49 52  1  0  0  0  0
 49 68  1  0  0  0  0
 50 71  1  0  0  0  0
 51 66  1  0  0  0  0
 52 65  1  0  0  0  0
 54 60  1  0  0  0  0
 55 62  1  0  0  0  0
 56 63  1  0  0  0  0
 57 63  1  0  0  0  0
 58 63  1  0  0  0  0
 59 73  1  0  0  0  0
 60 80  1  0  0  0  0
 61 63  1  0  0  0  0
 61 72  1  0  0  0  0
 62 73  1  0  0  0  0
 64 65  1  0  0  0  0
M  CHG  1  73   1
M  ISO  4  38 100  60 101  67 100  80 101
M  END
> <Batch ID>
0174

> <Smiles>
CNC(C)C(=O)NC(C(=O)N1Cc2cc([101O:1][101CH:1](C)c3c(C)ccc4c3C[100N:0]([100C:0](=O)N3CCCC(n5nc(-c6ccc(Oc7ccc(F)cc7F)cc6)c(C(N)=O)c5N)C3)C4)ccc2CC1C(=O)NC1CCCc2ccccc21)C(C)(C)C

> <Shape>
0.268

> <Color>
0.064

> <Negative vol penalty>
0.000

$$$$

  -OEChem-04052322453D

 85 94  0     1  0  0  0  0  0999 V2000
  -28.9335  -36.8688   18.5666 C   0  0  0  0  0  0  0  0  0  0  0  0
  -28.9186  -35.5077   18.2790 C   0  0  0  0  0  0  0  0  0  0  0  0
  -24.6304   -8.3862   20.5821 C   0  0  0  0  0  0  0  0  0  0  0  0
  -23.0361  -10.2001   20.5128 C   0  0  0  0  0  0  0  0  0  0  0  0
  -28.6785  -37.3085   19.8649 C   0  0  0  0  0  0  0  0  0  0  0  0
  -28.6499  -34.5855   19.2898 C   0  0  0  0  0  0  0  0  0  0  0  0
  -25.6320  -29.2859   18.7310 C   0  0  0  0  0  0  0  0  0  0  0  0
  -23.6176   -7.5109   20.9742 C   0  0  0  0  0  0  0  0  0  0  0  0
  -22.0232   -9.3249   20.9049 C   0  0  0  0  0  0  0  0  0  0  0  0
  -26.0673  -27.9687   18.5926 C   0  0  0  0  0  0  0  0  0  0  0  0
  -21.9473   -6.7460   23.8114 C   0  0  0  0  0  0  0  0  0  0  0  0
  -22.2221   -5.8649   24.8571 C   0  0  0  0  0  0  0  0  0  0  0  0
  -25.8265  -27.6457   20.9711 C   0  0  0  0  0  0  0  0  0  0  0  0
  -21.7969   -3.9923   23.3909 C   0  0  0  0  0  0  0  0  0  0  0  0
  -28.5740  -23.6286   18.8145 C   0  0  0  0  0  0  0  0  0  0  0  0
  -24.3397   -9.7308   20.3515 C   0  0  0  0  0  0  0  0  0  0  0  0
  -25.7865  -10.9379   18.6318 C   0  0  0  0  0  0  0  0  0  0  0  0
  -28.3970  -36.3918   20.8901 C   0  0  0  0  0  0  0  0  0  0  0  0
  -25.3005  -29.7971   19.9940 C   0  0  0  0  0  0  0  0  0  0  0  0
  -28.3922  -35.0133   20.6033 C   0  0  0  0  0  0  0  0  0  0  0  0
  -25.3848  -28.9690   21.1224 C   0  0  0  0  0  0  0  0  0  0  0  0
  -22.3140   -7.9803   21.1356 C   0  0  0  0  0  0  0  0  0  0  0  0
  -26.1674  -27.1492   19.7132 C   0  0  0  0  0  0  0  0  0  0  0  0
  -21.5972   -6.2503   22.5554 C   0  0  0  0  0  0  0  0  0  0  0  0
  -22.1470   -4.4880   24.6469 C   0  0  0  0  0  0  0  0  0  0  0  0
  -21.5221   -4.8735   22.3452 C   0  0  0  0  0  0  0  0  0  0  0  0
  -25.3856  -10.6355   19.9470 C   0  0  0  0  0  0  0  0  0  0  0  0
  -27.3356  -23.9789   18.3234 C   0  0  0  0  0  0  0  0  0  0  0  0
  -26.8610  -21.7736   17.9475 C   0  0  0  0  0  0  0  0  0  0  0  0
  -28.0997  -21.4234   18.4379 C   0  0  0  0  0  0  0  0  0  0  0  0
  -26.8084  -11.8430   18.7838 C   0  0  0  0  0  0  0  0  0  0  0  0
  -25.2804  -10.4448   17.3842 C   0  0  0  0  0  0  0  0  0  0  0  0
  -26.4145  -32.1424   21.8276 C   0  0  0  0  0  0  0  0  0  0  0  0
  -23.8730  -31.3682   23.6888 C   0  0  0  0  0  0  0  0  0  0  0  0
  -21.5877  -29.0191   24.6405 C   0  0  0  0  0  0  0  0  0  0  0  0
  -28.9724  -16.3770   21.2139 C   0  0  0  0  0  0  0  0  0  0  0  0
  -28.1742  -36.9120   22.2881 C   0  0  0  0  0  0  0  0  0  0  0  0
  -24.8070  -31.2121   20.1228 C   0  0  0  0  0  0  0  0  0  0  0  0
  -25.0214  -29.4635   22.4979 C   0  0  0  0  0  0  0  0  0  0  0  0
  -27.5287  -35.8915   23.2220 C   0  0  0  0  0  0  0  0  0  0  0  0
  -29.3524  -13.2727   22.9155 C   0  0  0  0  0  0  0  0  0  0  0  0
  -28.2178  -34.5370   23.0910 C   0  0  0  0  0  0  0  0  0  0  0  0
  -28.3832  -12.3372   22.1906 C   0  0  0  0  0  0  0  0  0  0  0  0
  -28.7960  -14.6909   23.0201 C   0  0  0  0  0  0  0  0  0  0  0  0
  -27.4057  -14.3517   21.0136 C   0  0  0  0  0  0  0  0  0  0  0  0
  -28.2005  -19.2097   19.6222 C   0  0  0  0  0  0  0  0  0  0  0  0
  -29.1377  -19.3886   17.3924 C   0  0  0  0  0  0  0  0  0  0  0  0
  -28.0804  -33.9836   21.6675 C   0  0  1  0  0  0  0  0  0  0  0  0
  -24.9872  -31.7823   21.5262 C   0  0  1  0  0  0  0  0  0  0  0  0
  -27.9472  -12.9230   20.8342 C   0  0  2  0  0  0  0  0  0  0  0  0
  -29.0500  -17.9724   19.3144 C   0  0  2  0  0  0  0  0  0  0  0  0
  -29.0064  -17.9214   17.7943 C   0  0  2  0  0  0  0  0  0  0  0  0
  -25.8911  -20.7512   17.4589 C   0  0  0  0  0  0  0  0  0  0  0  0
  -19.6607  -28.6675   26.2091 C   0  0  0  0  0  0  0  0  0  0  0  0
  -25.8236  -31.0867   26.0181 C   0  0  0  0  0  0  0  0  0  0  0  0
  -24.0447  -29.8438   27.2667 C   0  0  0  0  0  0  0  0  0  0  0  0
  -23.6677  -32.2160   26.5935 C   0  0  0  0  0  0  0  0  0  0  0  0
  -19.7117  -28.5144   22.4078 C   0  0  0  0  0  0  0  0  0  0  0  0
  -26.9197  -25.4193   18.2649 C   0  0  0  0  0  0  0  0  0  1  0  0
  -23.6357  -30.4066   24.8280 C   0  0  1  0  0  0  0  0  0  0  0  0
  -20.0808  -29.0904   24.8101 C   0  0  2  0  0  0  0  0  0  0  0  0
  -24.3017  -30.8792   26.1511 C   0  0  0  0  0  0  0  0  0  0  0  0
  -28.9783  -22.3446   18.8806 N   0  0  0  0  0  0  0  0  0  0  0  0
  -26.0950  -11.2948   20.8667 N   0  0  0  0  0  0  0  0  0  0  0  0
  -26.4568  -23.0576   17.8811 N   0  0  0  0  0  0  0  0  0  0  0  0
  -26.9521  -12.0205   20.1285 N   0  0  0  0  0  0  0  0  0  0  0  0
  -28.4554  -20.0924   18.4807 N   0  0  3  0  0  0  0  0  0  0  0  0
  -24.5503  -30.8563   22.5730 N   0  0  0  0  0  0  0  0  0  0  0  0
  -28.4028  -15.1884   21.6996 N   0  0  0  0  0  0  0  0  0  0  0  0
  -27.5891  -12.4962   17.8972 N   0  0  0  0  0  0  0  0  0  0  0  0
  -24.2278   -9.5197   17.4090 N   0  0  0  0  0  0  0  0  0  0  0  0
  -26.7582  -33.4309   21.4655 N   0  0  0  0  0  0  0  0  0  0  0  0
  -22.1905  -30.2280   24.9171 N   0  0  0  0  0  0  0  0  0  0  0  0
  -28.5497  -16.7745   19.9513 N   0  0  0  0  0  0  0  0  0  0  0  0
  -30.1116  -17.1156   17.2458 N   0  3  0  0  0  0  0  0  0  0  0  0
  -19.4061  -28.1969   23.8265 N   0  3  0  0  0  0  0  0  0  0  0  0
  -25.7586  -10.8013   16.2807 O   0  0  0  0  0  0  0  0  0  0  0  0
  -27.1491  -31.3131   22.3514 O   0  0  0  0  0  0  0  0  0  0  0  0
  -23.4660  -32.5289   23.7824 O   0  0  0  0  0  0  0  0  0  0  0  0
  -22.1719  -27.9927   24.3006 O   0  0  0  0  0  0  0  0  0  0  0  0
  -29.8005  -17.0324   21.8555 O   0  0  0  0  0  0  0  0  0  0  0  0
  -21.3254   -7.1265   21.5180 O   0  0  0  0  0  0  0  0  0  0  0  0
  -26.5927  -25.8633   19.5810 O   0  0  0  0  0  0  0  0  0  1  0  0
  -22.4124   -3.6419   25.6508 F   0  0  0  0  0  0  0  0  0  0  0  0
  -21.1874   -4.3913   21.1404 F   0  0  0  0  0  0  0  0  0  0  0  0
  1  2  1  0  0  0  0
  1  5  2  0  0  0  0
  2  6  2  0  0  0  0
  3  8  2  0  0  0  0
  3 16  1  0  0  0  0
  4  9  1  0  0  0  0
  4 16  2  0  0  0  0
  5 18  1  0  0  0  0
  6 20  1  0  0  0  0
  7 10  2  0  0  0  0
  7 19  1  0  0  0  0
  8 22  1  0  0  0  0
  9 22  2  0  0  0  0
 10 23  1  0  0  0  0
 11 12  2  0  0  0  0
 11 24  1  0  0  0  0
 12 25  1  0  0  0  0
 13 21  1  0  0  0  0
 13 23  2  0  0  0  0
 14 25  2  0  0  0  0
 14 26  1  0  0  0  0
 15 28  1  0  0  0  0
 15 63  2  0  0  0  0
 16 27  1  0  0  0  0
 17 27  1  0  0  0  0
 17 31  2  0  0  0  0
 17 32  1  0  0  0  0
 18 20  2  0  0  0  0
 18 37  1  0  0  0  0
 19 21  2  0  0  0  0
 19 38  1  0  0  0  0
 20 48  1  0  0  0  0
 21 39  1  0  0  0  0
 22 82  1  0  0  0  0
 23 83  1  0  0  0  0
 24 26  2  0  0  0  0
 24 82  1  0  0  0  0
 25 84  1  0  0  0  0
 26 85  1  0  0  0  0
 27 64  2  0  0  0  0
 28 59  1  0  0  0  0
 28 65  2  0  0  0  0
 29 30  2  0  0  0  0
 29 53  1  0  0  0  0
 29 65  1  0  0  0  0
 30 63  1  0  0  0  0
 30 67  1  0  0  0  0
 31 66  1  0  0  0  0
 31 70  1  0  0  0  0
 32 71  1  0  0  0  0
 32 77  2  0  0  0  0
 33 49  1  0  0  0  0
 33 72  1  0  0  0  0
 33 78  2  0  0  0  0
 34 60  1  0  0  0  0
 34 68  1  0  0  0  0
 34 79  2  0  0  0  0
 35 61  1  0  0  0  0
 35 73  1  0  0  0  0
 35 80  2  0  0  0  0
 36 69  1  0  0  0  0
 36 74  1  0  0  0  0
 36 81  2  0  0  0  0
 37 40  1  0  0  0  0
 38 49  1  0  0  0  0
 39 68  1  0  0  0  0
 40 42  1  0  0  0  0
 41 43  1  0  0  0  0
 41 44  1  0  0  0  0
 42 48  1  0  0  0  0
 43 50  1  0  0  0  0
 44 69  1  0  0  0  0
 45 50  1  0  0  0  0
 45 69  1  0  0  0  0
 46 51  1  0  0  0  0
 46 67  1  0  0  0  0
 47 52  1  0  0  0  0
 47 67  1  0  0  0  0
 48 72  1  0  0  0  0
 49 68  1  0  0  0  0
 50 66  1  0  0  0  0
 51 52  1  0  0  0  0
 51 74  1  0  0  0  0
 52 75  1  0  0  0  0
 54 61  1  0  0  0  0
 55 62  1  0  0  0  0
 56 62  1  0  0  0  0
 57 62  1  0  0  0  0
 58 76  1  0  0  0  0
 59 83  1  0  0  0  0
 60 62  1  0  0  0  0
 60 73  1  0  0  0  0
 61 76  1  0  0  0  0
 64 66  1  0  0  0  0
M  CHG  2  75   1  76   1
M  ISO  4  36 100  59 101  74 100  83 101
M  END
> <Batch ID>
0174

> <Smiles>
CNC(C)C(=O)NC(C(=O)N1Cc2cc([101O:1][101CH2:1]c3cnc(N4CC(N)C([100NH:0][100C:0](=O)N5CCCC(n6nc(-c7ccc(Oc8ccc(F)cc8F)cc7)c(C(N)=O)c6N)C5)C4)c(C)n3)ccc2CC1C(=O)NC1CCCc2ccccc21)C(C)(C)C

> <Shape>
0.285

> <Color>
0.123

> <Negative vol penalty>
0.000

$$$$

  -OEChem-04052322452D

  0  0  0     0  0  0  0  0  0999 V2000
M  END
$$$$

  -OEChem-04052322453D

 85 94  0     1  0  0  0  0  0999 V2000
  -19.5708   -9.6511   20.6349 C   0  0  0  0  0  0  0  0  0  0  0  0
  -19.8243  -10.7550   21.4427 C   0  0  0  0  0  0  0  0  0  0  0  0
  -28.2812  -26.3134   20.9887 C   0  0  0  0  0  0  0  0  0  0  0  0
  -28.3574  -26.8322   18.6303 C   0  0  0  0  0  0  0  0  0  0  0  0
  -20.6142   -8.8010   20.2708 C   0  0  0  0  0  0  0  0  0  0  0  0
  -21.1211  -11.0087   21.8879 C   0  0  0  0  0  0  0  0  0  0  0  0
  -22.4065  -15.8872   21.4481 C   0  0  0  0  0  0  0  0  0  0  0  0
  -29.3342  -25.4134   20.8247 C   0  0  0  0  0  0  0  0  0  0  0  0
  -29.4104  -25.9322   18.4663 C   0  0  0  0  0  0  0  0  0  0  0  0
  -21.9117  -16.7653   22.4113 C   0  0  0  0  0  0  0  0  0  0  0  0
  -31.8796  -23.5059   17.3591 C   0  0  0  0  0  0  0  0  0  0  0  0
  -31.8255  -22.6362   16.2700 C   0  0  0  0  0  0  0  0  0  0  0  0
  -24.0326  -16.6924   23.5584 C   0  0  0  0  0  0  0  0  0  0  0  0
  -19.4679  -22.9812   23.0587 C   0  0  0  0  0  0  0  0  0  0  0  0
  -29.7554  -21.7150   17.1086 C   0  0  0  0  0  0  0  0  0  0  0  0
  -27.7928  -27.0227   19.8914 C   0  0  0  0  0  0  0  0  0  0  0  0
  -26.7975  -29.3234   20.3645 C   0  0  0  0  0  0  0  0  0  0  0  0
  -21.9261   -9.0498   20.7038 C   0  0  0  0  0  0  0  0  0  0  0  0
  -23.7167  -15.3957   21.5389 C   0  0  0  0  0  0  0  0  0  0  0  0
  -22.1828  -10.1604   21.5304 C   0  0  0  0  0  0  0  0  0  0  0  0
  -24.5424  -15.8102   22.5936 C   0  0  0  0  0  0  0  0  0  0  0  0
  -20.4424  -22.0441   23.3839 C   0  0  0  0  0  0  0  0  0  0  0  0
  -20.2683  -21.2249   24.4938 C   0  0  0  0  0  0  0  0  0  0  0  0
  -29.8988  -25.2228   19.5636 C   0  0  0  0  0  0  0  0  0  0  0  0
  -22.7238  -17.1658   23.4683 C   0  0  0  0  0  0  0  0  0  0  0  0
  -30.8717  -23.4802   18.3230 C   0  0  0  0  0  0  0  0  0  0  0  0
  -30.7634  -21.7407   16.1447 C   0  0  0  0  0  0  0  0  0  0  0  0
  -29.8096  -22.5848   18.1977 C   0  0  0  0  0  0  0  0  0  0  0  0
  -26.7047  -27.9521   20.0601 C   0  0  0  0  0  0  0  0  0  0  0  0
  -19.1113  -21.3810   25.2400 C   0  0  0  0  0  0  0  0  0  0  0  0
  -18.3467  -23.0585   23.8691 C   0  0  0  0  0  0  0  0  0  0  0  0
  -25.4938  -29.7527   20.4160 C   0  0  0  0  0  0  0  0  0  0  0  0
  -27.9583  -30.1366   20.5813 C   0  0  0  0  0  0  0  0  0  0  0  0
  -25.0130  -12.5120   21.8665 C   0  0  0  0  0  0  0  0  0  0  0  0
  -27.7876  -14.1399   21.4503 C   0  0  0  0  0  0  0  0  0  0  0  0
  -29.4652  -17.1050   21.6517 C   0  0  0  0  0  0  0  0  0  0  0  0
  -20.4967  -26.7314   21.5994 C   0  0  0  0  0  0  0  0  0  0  0  0
  -23.0132   -8.0761   20.3232 C   0  0  0  0  0  0  0  0  0  0  0  0
  -24.2440  -14.4700   20.4771 C   0  0  0  0  0  0  0  0  0  0  0  0
  -25.9629  -15.3273   22.7255 C   0  0  0  0  0  0  0  0  0  0  0  0
  -24.4225   -8.6256   20.5288 C   0  0  0  0  0  0  0  0  0  0  0  0
  -21.1652  -28.8331   18.6416 C   0  0  0  0  0  0  0  0  0  0  0  0
  -24.5410   -9.2935   21.8951 C   0  0  0  0  0  0  0  0  0  0  0  0
  -22.6882  -28.9185   18.6805 C   0  0  0  0  0  0  0  0  0  0  0  0
  -16.7587  -26.1952   22.3333 C   0  0  0  0  0  0  0  0  0  0  0  0
  -20.6531  -27.4869   19.1520 C   0  0  0  0  0  0  0  0  0  0  0  0
  -22.6833  -27.2202   20.5489 C   0  0  0  0  0  0  0  0  0  0  0  0
  -23.5804  -10.4829   22.0129 C   0  0  1  0  0  0  0  0  0  0  0  0
  -25.4257  -13.6292   20.9505 C   0  0  1  0  0  0  0  0  0  0  0  0
  -23.2144  -28.5851   20.0849 C   0  0  1  0  0  0  0  0  0  0  0  0
  -17.4912  -24.8855   22.4008 C   0  0  1  0  0  0  0  0  0  0  0  0
  -18.2538  -26.1824   22.4938 C   0  0  1  0  0  0  0  0  0  0  0  0
  -21.6622  -21.9369   22.5299 C   0  0  0  0  0  0  0  0  0  0  0  0
  -18.8700  -20.5294   26.4434 C   0  0  0  0  0  0  0  0  0  0  0  0
  -31.7323  -18.1149   21.2802 C   0  0  0  0  0  0  0  0  0  0  0  0
  -28.7746  -12.8727   24.0446 C   0  0  0  0  0  0  0  0  0  0  0  0
  -30.5860  -14.5994   24.1172 C   0  0  0  0  0  0  0  0  0  0  0  0
  -30.4826  -12.9818   22.2211 C   0  0  0  0  0  0  0  0  0  0  0  0
  -28.4292  -18.9601   19.5915 C   0  0  0  0  0  0  0  0  0  0  0  0
  -21.3113  -20.2018   24.8726 C   0  0  0  0  0  0  0  0  0  0  0  0
  -21.2519  -18.9592   23.9908 C   0  0  0  0  0  0  0  0  0  1  0  0
  -28.7676  -14.8338   22.3653 C   0  0  1  0  0  0  0  0  0  0  0  0
  -30.3733  -17.8176   20.6658 C   0  0  2  0  0  0  0  0  0  0  0  0
  -29.6254  -13.8297   23.1859 C   0  0  0  0  0  0  0  0  0  0  0  0
  -25.4419  -27.5376   19.9276 N   0  0  0  0  0  0  0  0  0  0  0  0
  -18.1426  -22.2799   24.9553 N   0  0  0  0  0  0  0  0  0  0  0  0
  -24.7292  -28.6551   20.1500 N   0  0  0  0  0  0  0  0  0  0  0  0
  -26.4305  -14.4186   21.6657 N   0  0  0  0  0  0  0  0  0  0  0  0
  -21.2187  -27.1570   20.4697 N   0  0  0  0  0  0  0  0  0  0  0  0
  -24.9384  -30.9582   20.6625 N   0  0  0  0  0  0  0  0  0  0  0  0
  -29.2213  -29.5358   20.4907 N   0  0  0  0  0  0  0  0  0  0  0  0
  -17.3623  -24.0184   23.5263 N   0  0  0  0  0  0  0  0  0  0  0  0
  -24.1079  -11.6306   21.3066 N   0  0  0  0  0  0  0  0  0  0  0  0
  -29.5459  -15.7347   21.5220 N   0  0  0  0  0  0  0  0  0  0  0  0
  -19.1218  -26.6128   21.4304 N   0  0  0  0  0  0  0  0  0  0  0  0
  -29.7604  -19.1058   20.2347 N   0  3  0  0  0  0  0  0  0  0  0  0
  -27.8774  -31.3561   20.8637 O   0  0  0  0  0  0  0  0  0  0  0  0
  -25.4821  -12.4530   22.9971 O   0  0  0  0  0  0  0  0  0  0  0  0
  -28.2111  -13.3842   20.5721 O   0  0  0  0  0  0  0  0  0  0  0  0
  -28.7580  -17.7041   22.4589 O   0  0  0  0  0  0  0  0  0  0  0  0
  -21.0368  -26.4699   22.6800 O   0  0  0  0  0  0  0  0  0  0  0  0
  -30.9265  -24.3449   19.4033 O   0  0  0  0  0  0  0  0  0  0  0  0
  -22.2432  -18.0224   24.4102 O   0  0  0  0  0  0  0  0  0  1  0  0
  -30.7107  -20.9066   15.0980 F   0  0  0  0  0  0  0  0  0  0  0  0
  -28.8377  -22.5562   19.1199 F   0  0  0  0  0  0  0  0  0  0  0  0
  1  2  1  0  0  0  0
  1  5  2  0  0  0  0
  2  6  2  0  0  0  0
  3  8  2  0  0  0  0
  3 16  1  0  0  0  0
  4  9  1  0  0  0  0
  4 16  2  0  0  0  0
  5 18  1  0  0  0  0
  6 20  1  0  0  0  0
  7 10  2  0  0  0  0
  7 19  1  0  0  0  0
  8 24  1  0  0  0  0
  9 24  2  0  0  0  0
 10 25  1  0  0  0  0
 11 12  2  0  0  0  0
 11 26  1  0  0  0  0
 12 27  1  0  0  0  0
 13 21  1  0  0  0  0
 13 25  2  0  0  0  0
 14 22  2  0  0  0  0
 14 31  1  0  0  0  0
 15 27  2  0  0  0  0
 15 28  1  0  0  0  0
 16 29  1  0  0  0  0
 17 29  1  0  0  0  0
 17 32  2  0  0  0  0
 17 33  1  0  0  0  0
 18 20  2  0  0  0  0
 18 38  1  0  0  0  0
 19 21  2  0  0  0  0
 19 39  1  0  0  0  0
 20 48  1  0  0  0  0
 21 40  1  0  0  0  0
 22 23  1  0  0  0  0
 22 53  1  0  0  0  0
 23 30  2  0  0  0  0
 23 60  1  0  0  0  0
 24 82  1  0  0  0  0
 25 83  1  0  0  0  0
 26 28  2  0  0  0  0
 26 82  1  0  0  0  0
 27 84  1  0  0  0  0
 28 85  1  0  0  0  0
 29 65  2  0  0  0  0
 30 54  1  0  0  0  0
 30 66  1  0  0  0  0
 31 66  2  0  0  0  0
 31 72  1  0  0  0  0
 32 67  1  0  0  0  0
 32 70  1  0  0  0  0
 33 71  1  0  0  0  0
 33 77  2  0  0  0  0
 34 49  1  0  0  0  0
 34 73  1  0  0  0  0
 34 78  2  0  0  0  0
 35 62  1  0  0  0  0
 35 68  1  0  0  0  0
 35 79  2  0  0  0  0
 36 63  1  0  0  0  0
 36 74  1  0  0  0  0
 36 80  2  0  0  0  0
 37 69  1  0  0  0  0
 37 75  1  0  0  0  0
 37 81  2  0  0  0  0
 38 41  1  0  0  0  0
 39 49  1  0  0  0  0
 40 68  1  0  0  0  0
 41 43  1  0  0  0  0
 42 44  1  0  0  0  0
 42 46  1  0  0  0  0
 43 48  1  0  0  0  0
 44 50  1  0  0  0  0
 45 51  1  0  0  0  0
 45 52  1  0  0  0  0
 46 69  1  0  0  0  0
 47 50  1  0  0  0  0
 47 69  1  0  0  0  0
 48 73  1  0  0  0  0
 49 68  1  0  0  0  0
 50 67  1  0  0  0  0
 51 52  1  0  0  0  0
 51 72  1  0  0  0  0
 52 75  1  0  0  0  0
 55 63  1  0  0  0  0
 56 64  1  0  0  0  0
 57 64  1  0  0  0  0
 58 64  1  0  0  0  0
 59 76  1  0  0  0  0
 60 61  1  0  0  0  0
 61 83  1  0  0  0  0
 62 64  1  0  0  0  0
 62 74  1  0  0  0  0
 63 76  1  0  0  0  0
 65 67  1  0  0  0  0
M  CHG  1  76   1
M  ISO  4  37 100  61 101  75 100  83 101
M  END
> <Batch ID>
0174

> <Smiles>
CNC(C)C(=O)NC(C(=O)N1Cc2cc([101O:1][101CH2:1]Cc3c(C)cc(NC4CC4[100NH:0][100C:0](=O)N4CCCC(n5nc(-c6ccc(Oc7ccc(F)cc7F)cc6)c(C(N)=O)c5N)C4)nc3C)ccc2CC1C(=O)NC1CCCc2ccccc21)C(C)(C)C

> <Shape>
0.251

> <Color>
0.041

> <Negative vol penalty>
0.000

$$$$

  -OEChem-04052322453D

 83 92  0     1  0  0  0  0  0999 V2000
  -29.3241  -37.1643   23.7794 C   0  0  0  0  0  0  0  0  0  0  0  0
  -29.6399  -36.0856   22.9597 C   0  0  0  0  0  0  0  0  0  0  0  0
  -24.5280   -8.9397   21.5224 C   0  0  0  0  0  0  0  0  0  0  0  0
  -24.0973  -10.5170   23.3010 C   0  0  0  0  0  0  0  0  0  0  0  0
  -28.3451  -37.0281   24.7627 C   0  0  0  0  0  0  0  0  0  0  0  0
  -28.9774  -34.8695   23.1234 C   0  0  0  0  0  0  0  0  0  0  0  0
  -26.6364  -29.2372   19.3667 C   0  0  0  0  0  0  0  0  0  0  0  0
  -24.1363   -7.8924   22.3562 C   0  0  0  0  0  0  0  0  0  0  0  0
  -23.7055   -9.4697   24.1349 C   0  0  0  0  0  0  0  0  0  0  0  0
  -26.7078  -27.8449   19.3559 C   0  0  0  0  0  0  0  0  0  0  0  0
  -21.2423   -6.5392   23.4639 C   0  0  0  0  0  0  0  0  0  0  0  0
  -20.3907   -5.5710   22.9320 C   0  0  0  0  0  0  0  0  0  0  0  0
  -24.9785  -27.7492   21.0350 C   0  0  0  0  0  0  0  0  0  0  0  0
  -25.6146  -22.9986   19.0830 C   0  0  0  0  0  0  0  0  0  0  0  0
  -22.0510   -3.8710   23.3683 C   0  0  0  0  0  0  0  0  0  0  0  0
  -27.8928  -22.9003   19.7589 C   0  0  0  0  0  0  0  0  0  0  0  0
  -24.5086  -10.2520   21.9948 C   0  0  0  0  0  0  0  0  0  0  0  0
  -24.0947  -12.0853   20.2699 C   0  0  0  0  0  0  0  0  0  0  0  0
  -27.6635  -35.8126   24.9322 C   0  0  0  0  0  0  0  0  0  0  0  0
  -25.7417  -29.8974   20.2211 C   0  0  0  0  0  0  0  0  0  0  0  0
  -27.9893  -34.7165   24.1108 C   0  0  0  0  0  0  0  0  0  0  0  0
  -24.8959  -29.1499   21.0529 C   0  0  0  0  0  0  0  0  0  0  0  0
  -26.7995  -23.6626   19.3800 C   0  0  0  0  0  0  0  0  0  0  0  0
  -25.5599  -21.6121   19.1726 C   0  0  0  0  0  0  0  0  0  0  0  0
  -23.7250   -8.1574   23.6624 C   0  0  0  0  0  0  0  0  0  0  0  0
  -25.8808  -27.1008   20.1922 C   0  0  0  0  0  0  0  0  0  0  0  0
  -22.4984   -6.1734   23.9479 C   0  0  0  0  0  0  0  0  0  0  0  0
  -20.7950   -4.2369   22.8843 C   0  0  0  0  0  0  0  0  0  0  0  0
  -22.9027   -4.8393   23.9002 C   0  0  0  0  0  0  0  0  0  0  0  0
  -24.9137  -11.3342   21.1341 C   0  0  0  0  0  0  0  0  0  0  0  0
  -26.7087  -20.9416   19.5605 C   0  0  0  0  0  0  0  0  0  0  0  0
  -24.9502  -12.9842   19.6811 C   0  0  0  0  0  0  0  0  0  0  0  0
  -22.6865  -11.9800   20.0217 C   0  0  0  0  0  0  0  0  0  0  0  0
  -26.0409  -31.9468   22.6324 C   0  0  0  0  0  0  0  0  0  0  0  0
  -22.8032  -32.0293   22.4522 C   0  0  0  0  0  0  0  0  0  0  0  0
  -19.9131  -30.4751   21.5149 C   0  0  0  0  0  0  0  0  0  0  0  0
  -29.1383  -16.6458   20.0683 C   0  0  0  0  0  0  0  0  0  0  0  0
  -26.6462  -35.6992   26.0399 C   0  0  0  0  0  0  0  0  0  0  0  0
  -25.6581  -31.3991   20.2015 C   0  0  0  0  0  0  0  0  0  0  0  0
  -23.9038  -29.8100   21.9741 C   0  0  0  0  0  0  0  0  0  0  0  0
  -25.7270  -34.4884   25.9010 C   0  0  0  0  0  0  0  0  0  0  0  0
  -29.9838  -13.2390   19.6661 C   0  0  0  0  0  0  0  0  0  0  0  0
  -26.5373  -33.2373   25.5769 C   0  0  0  0  0  0  0  0  0  0  0  0
  -28.6890  -12.4913   19.9720 C   0  0  0  0  0  0  0  0  0  0  0  0
  -26.3703  -18.8420   21.0527 C   0  0  0  0  0  0  0  0  0  0  0  0
  -30.1398  -14.4469   20.5802 C   0  0  0  0  0  0  0  0  0  0  0  0
  -26.8483  -17.4010   20.9343 C   0  0  0  0  0  0  0  0  0  0  0  0
  -28.0652  -18.7722   19.3911 C   0  0  0  0  0  0  0  0  0  0  0  0
  -27.6795  -14.6880   20.7769 C   0  0  0  0  0  0  0  0  0  0  0  0
  -27.2753  -33.3886   24.2412 C   0  0  1  0  0  0  0  0  0  0  0  0
  -26.7088  -19.4331   19.6746 C   0  0  2  0  0  0  0  0  0  0  0  0
  -25.0725  -31.9817   21.4841 C   0  0  1  0  0  0  0  0  0  0  0  0
  -27.4834  -13.4404   19.8910 C   0  0  2  0  0  0  0  0  0  0  0  0
  -24.2929  -20.8945   18.8575 C   0  0  0  0  0  0  0  0  0  0  0  0
  -17.4214  -30.7729   21.5315 C   0  0  0  0  0  0  0  0  0  0  0  0
  -22.7453  -31.3584   25.4282 C   0  0  0  0  0  0  0  0  0  0  0  0
  -20.3327  -30.7411   25.1710 C   0  0  0  0  0  0  0  0  0  0  0  0
  -21.0759  -33.0780   24.7138 C   0  0  0  0  0  0  0  0  0  0  0  0
  -19.7653  -30.3777   18.5606 C   0  0  0  0  0  0  0  0  0  0  0  0
  -26.8911  -25.1445   19.2931 C   0  0  0  0  0  0  0  0  0  1  0  0
  -21.6771  -31.2443   23.0804 C   0  0  1  0  0  0  0  0  0  0  0  0
  -18.7056  -30.9746   20.7423 C   0  0  2  0  0  0  0  0  0  0  0  0
  -21.4777  -31.5928   24.5825 C   0  0  0  0  0  0  0  0  0  0  0  0
  -27.8778  -21.5521   19.8571 N   0  0  0  0  0  0  0  0  0  0  0  0
  -26.1914  -11.7221   21.1003 N   0  0  0  0  0  0  0  0  0  0  0  0
  -26.1817  -12.7266   20.2076 N   0  0  0  0  0  0  0  0  0  0  0  0
  -23.8641  -31.2808   21.9231 N   0  0  0  0  0  0  0  0  0  0  0  0
  -28.9743  -15.3307   20.5173 N   0  0  0  0  0  0  0  0  0  0  0  0
  -28.0193  -17.4776   20.0632 N   0  0  0  0  0  0  0  0  0  0  0  0
  -24.7616  -13.9618   18.7694 N   0  0  0  0  0  0  0  0  0  0  0  0
  -21.9578  -11.0017   20.7117 N   0  0  0  0  0  0  0  0  0  0  0  0
  -26.3631  -33.1931   23.1349 N   0  0  0  0  0  0  0  0  0  0  0  0
  -20.5010  -31.4822   22.2506 N   0  0  0  0  0  0  0  0  0  0  0  0
  -18.5812  -30.2462   19.4481 N   0  3  0  0  0  0  0  0  0  0  0  0
  -22.0951  -12.7203   19.1997 O   0  0  0  0  0  0  0  0  0  0  0  0
  -26.4634  -30.8688   23.0338 O   0  0  0  0  0  0  0  0  0  0  0  0
  -22.7403  -33.2610   22.4253 O   0  0  0  0  0  0  0  0  0  0  0  0
  -20.2942  -29.3074   21.4731 O   0  0  0  0  0  0  0  0  0  0  0  0
  -30.2484  -17.0738   19.7242 O   0  0  0  0  0  0  0  0  0  0  0  0
  -23.3424   -7.1357   24.4763 O   0  0  0  0  0  0  0  0  0  0  0  0
  -25.9493  -25.7329   20.1840 O   0  0  0  0  0  0  0  0  0  1  0  0
  -19.9765   -3.3070   22.3750 F   0  0  0  0  0  0  0  0  0  0  0  0
  -24.1077   -4.4815   24.3647 F   0  0  0  0  0  0  0  0  0  0  0  0
  1  2  1  0  0  0  0
  1  5  2  0  0  0  0
  2  6  2  0  0  0  0
  3  8  2  0  0  0  0
  3 17  1  0  0  0  0
  4  9  1  0  0  0  0
  4 17  2  0  0  0  0
  5 19  1  0  0  0  0
  6 21  1  0  0  0  0
  7 10  2  0  0  0  0
  7 20  1  0  0  0  0
  8 25  1  0  0  0  0
  9 25  2  0  0  0  0
 10 26  1  0  0  0  0
 11 12  2  0  0  0  0
 11 27  1  0  0  0  0
 12 28  1  0  0  0  0
 13 22  1  0  0  0  0
 13 26  2  0  0  0  0
 14 23  2  0  0  0  0
 14 24  1  0  0  0  0
 15 28  2  0  0  0  0
 15 29  1  0  0  0  0
 16 23  1  0  0  0  0
 16 64  2  0  0  0  0
 17 30  1  0  0  0  0
 18 30  1  0  0  0  0
 18 32  2  0  0  0  0
 18 33  1  0  0  0  0
 19 21  2  0  0  0  0
 19 38  1  0  0  0  0
 20 22  2  0  0  0  0
 20 39  1  0  0  0  0
 21 50  1  0  0  0  0
 22 40  1  0  0  0  0
 23 60  1  0  0  0  0
 24 31  2  0  0  0  0
 24 54  1  0  0  0  0
 25 80  1  0  0  0  0
 26 81  1  0  0  0  0
 27 29  2  0  0  0  0
 27 80  1  0  0  0  0
 28 82  1  0  0  0  0
 29 83  1  0  0  0  0
 30 65  2  0  0  0  0
 31 51  1  0  0  0  0
 31 64  1  0  0  0  0
 32 66  1  0  0  0  0
 32 70  1  0  0  0  0
 33 71  1  0  0  0  0
 33 75  2  0  0  0  0
 34 52  1  0  0  0  0
 34 72  1  0  0  0  0
 34 76  2  0  0  0  0
 35 61  1  0  0  0  0
 35 67  1  0  0  0  0
 35 77  2  0  0  0  0
 36 62  1  0  0  0  0
 36 73  1  0  0  0  0
 36 78  2  0  0  0  0
 37 68  1  0  0  0  0
 37 69  1  0  0  0  0
 37 79  2  0  0  0  0
 38 41  1  0  0  0  0
 39 52  1  0  0  0  0
 40 67  1  0  0  0  0
 41 43  1  0  0  0  0
 42 44  1  0  0  0  0
 42 46  1  0  0  0  0
 43 50  1  0  0  0  0
 44 53  1  0  0  0  0
 45 47  1  0  0  0  0
 45 51  1  0  0  0  0
 46 68  1  0  0  0  0
 47 69  1  0  0  0  0
 48 51  1  0  0  0  0
 48 69  1  0  0  0  0
 49 53  1  0  0  0  0
 49 68  1  0  0  0  0
 50 72  1  0  0  0  0
 52 67  1  0  0  0  0
 53 66  1  0  0  0  0
 55 62  1  0  0  0  0
 56 63  1  0  0  0  0
 57 63  1  0  0  0  0
 58 63  1  0  0  0  0
 59 74  1  0  0  0  0
 60 81  1  0  0  0  0
 61 63  1  0  0  0  0
 61 73  1  0  0  0  0
 62 74  1  0  0  0  0
 65 66  1  0  0  0  0
M  CHG  1  74   1
M  ISO  4  37 100  60 101  69 100  81 101
M  END
> <Batch ID>
0174

> <Smiles>
CNC(C)C(=O)NC(C(=O)N1Cc2cc([101O:1][101CH2:1]c3cnc(C4CC[100N:0]([100C:0](=O)N5CCCC(n6nc(-c7ccc(Oc8ccc(F)cc8F)cc7)c(C(N)=O)c6N)C5)C4)c(C)c3)ccc2CC1C(=O)NC1CCCc2ccccc21)C(C)(C)C

> <Shape>
0.279

> <Color>
0.103

> <Negative vol penalty>
0.000

$$$$

  -OEChem-04052322453D

 92102  0     1  0  0  0  0  0999 V2000
  -16.3708  -29.3507   23.6905 C   0  0  0  0  0  0  0  0  0  0  0  0
  -17.2306  -28.2923   23.9662 C   0  0  0  0  0  0  0  0  0  0  0  0
  -24.4695   -9.4385   22.1718 C   0  0  0  0  0  0  0  0  0  0  0  0
  -24.5086   -8.7831   19.8467 C   0  0  0  0  0  0  0  0  0  0  0  0
  -16.8690  -30.5218   23.1212 C   0  0  0  0  0  0  0  0  0  0  0  0
  -18.5889  -28.4040   23.6716 C   0  0  0  0  0  0  0  0  0  0  0  0
  -23.2517  -26.0069   26.8368 C   0  0  0  0  0  0  0  0  0  0  0  0
  -23.3102   -8.6872   22.3641 C   0  0  0  0  0  0  0  0  0  0  0  0
  -23.3492   -8.0317   20.0391 C   0  0  0  0  0  0  0  0  0  0  0  0
  -24.0128  -24.8528   26.6564 C   0  0  0  0  0  0  0  0  0  0  0  0
  -20.5432   -6.6510   23.5527 C   0  0  0  0  0  0  0  0  0  0  0  0
  -20.4748   -5.8433   24.6878 C   0  0  0  0  0  0  0  0  0  0  0  0
  -30.5245  -20.1065   24.7548 C   0  0  0  0  0  0  0  0  0  0  0  0
  -31.8594  -20.0873   27.1968 C   0  0  0  0  0  0  0  0  0  0  0  0
  -25.6945  -26.1481   25.5105 C   0  0  0  0  0  0  0  0  0  0  0  0
  -22.4240   -4.6274   23.9400 C   0  0  0  0  0  0  0  0  0  0  0  0
  -25.0687   -9.4865   20.9130 C   0  0  0  0  0  0  0  0  0  0  0  0
  -27.5964   -9.8264   20.8588 C   0  0  0  0  0  0  0  0  0  0  0  0
  -18.2358  -30.6517   22.8284 C   0  0  0  0  0  0  0  0  0  0  0  0
  -23.7020  -27.2405   26.3450 C   0  0  0  0  0  0  0  0  0  0  0  0
  -19.1056  -29.5775   23.0966 C   0  0  0  0  0  0  0  0  0  0  0  0
  -30.6213  -21.2967   25.4946 C   0  0  0  0  0  0  0  0  0  0  0  0
  -31.0888  -18.9233   25.2304 C   0  0  0  0  0  0  0  0  0  0  0  0
  -31.2875  -21.2831   26.7347 C   0  0  0  0  0  0  0  0  0  0  0  0
  -24.9385  -27.3169   25.6882 C   0  0  0  0  0  0  0  0  0  0  0  0
  -31.7567  -18.9138   26.4507 C   0  0  0  0  0  0  0  0  0  0  0  0
  -22.7501   -7.9837   21.2978 C   0  0  0  0  0  0  0  0  0  0  0  0
  -25.2330  -24.9228   25.9907 C   0  0  0  0  0  0  0  0  0  0  0  0
  -21.5519   -6.4469   22.6112 C   0  0  0  0  0  0  0  0  0  0  0  0
  -21.4152   -4.8315   24.8815 C   0  0  0  0  0  0  0  0  0  0  0  0
  -22.4923   -5.4351   22.8049 C   0  0  0  0  0  0  0  0  0  0  0  0
  -26.2659  -10.2630   20.7136 C   0  0  0  0  0  0  0  0  0  0  0  0
  -28.3550  -10.9314   20.5592 C   0  0  0  0  0  0  0  0  0  0  0  0
  -28.1013   -8.5371   21.2312 C   0  0  0  0  0  0  0  0  0  0  0  0
  -22.6193  -29.3360   24.2141 C   0  0  0  0  0  0  0  0  0  0  0  0
  -25.1161  -31.1149   25.2741 C   0  0  0  0  0  0  0  0  0  0  0  0
  -28.1866  -31.2023   26.7611 C   0  0  0  0  0  0  0  0  0  0  0  0
  -29.4596  -16.2909   20.8362 C   0  0  0  0  0  0  0  0  0  0  0  0
  -18.7199  -31.9191   22.1697 C   0  0  0  0  0  0  0  0  0  0  0  0
  -22.8817  -28.4809   26.5712 C   0  0  0  0  0  0  0  0  0  0  0  0
  -31.4663  -22.5370   27.5541 C   0  0  0  0  0  0  0  0  0  0  0  0
  -25.4761  -28.6204   25.1590 C   0  0  0  0  0  0  0  0  0  0  0  0
  -20.2345  -32.0986   22.2337 C   0  0  0  0  0  0  0  0  0  0  0  0
  -30.5158  -23.6657   27.1614 C   0  0  0  0  0  0  0  0  0  0  0  0
  -27.0648  -15.3687   18.5204 C   0  0  0  0  0  0  0  0  0  0  0  0
  -20.9423  -30.8046   21.8449 C   0  0  0  0  0  0  0  0  0  0  0  0
  -30.4774  -23.8271   25.6453 C   0  0  0  0  0  0  0  0  0  0  0  0
  -26.7447  -13.9196   18.8862 C   0  0  0  0  0  0  0  0  0  0  0  0
  -29.4939  -17.2352   24.2162 C   0  0  0  0  0  0  0  0  0  0  0  0
  -31.6616  -17.7953   23.0343 C   0  0  0  0  0  0  0  0  0  0  0  0
  -27.2252  -16.2246   19.7715 C   0  0  0  0  0  0  0  0  0  0  0  0
  -29.3714  -15.9788   23.3493 C   0  0  0  0  0  0  0  0  0  0  0  0
  -31.5022  -16.5168   22.2166 C   0  0  0  0  0  0  0  0  0  0  0  0
  -27.9535  -14.2675   21.0972 C   0  0  0  0  0  0  0  0  0  0  0  0
  -30.9619  -17.6606   24.3990 C   0  0  0  0  0  0  0  0  0  0  0  0
  -20.5895  -29.6700   22.8143 C   0  0  1  0  0  0  0  0  0  0  0  0
  -29.9722  -22.5521   24.9588 C   0  0  2  0  0  0  0  0  0  0  0  0
  -23.1961  -29.5946   25.5772 C   0  0  1  0  0  0  0  0  0  0  0  0
  -27.7874  -13.3533   19.8662 C   0  0  1  0  0  0  0  0  0  0  0  0
  -31.3360  -16.7111   27.5721 C   0  0  0  0  0  0  0  0  0  0  0  0
  -29.9934  -32.7985   27.4574 C   0  0  0  0  0  0  0  0  0  0  0  0
  -25.6493  -22.0529   24.1765 C   0  0  0  0  0  0  0  0  0  0  0  0
  -26.0026  -31.3760   22.3662 C   0  0  0  0  0  0  0  0  0  0  0  0
  -28.2442  -32.1276   23.1899 C   0  0  0  0  0  0  0  0  0  0  0  0
  -26.2100  -33.4735   23.7123 C   0  0  0  0  0  0  0  0  0  0  0  0
  -27.9189  -30.4446   29.6095 C   0  0  0  0  0  0  0  0  0  0  0  0
  -32.3731  -17.6609   26.9803 C   0  0  0  0  0  0  0  0  0  0  0  0
  -27.7695  -23.4829   24.2377 C   0  0  0  0  0  0  0  0  0  0  0  0
  -26.5669  -31.2612   24.8830 C   0  0  1  0  0  0  0  0  0  0  0  0
  -28.7362  -32.0587   27.8875 C   0  0  2  0  0  0  0  0  0  0  0  0
  -26.2628  -23.4168   24.4651 C   0  0  2  0  0  0  0  0  0  1  0  0
  -26.7452  -32.0345   23.5460 C   0  0  0  0  0  0  0  0  0  0  0  0
  -26.1809  -11.5454   20.3501 N   0  0  0  0  0  0  0  0  0  0  0  0
  -27.4675  -11.9242   20.2645 N   0  0  0  0  0  0  0  0  0  0  0  0
  -24.6344  -29.8042   25.3994 N   0  0  0  0  0  0  0  0  0  0  0  0
  -28.2205  -15.6521   20.6778 N   0  0  0  0  0  0  0  0  0  0  0  0
  -30.0925  -16.1513   22.0805 N   0  0  0  0  0  0  0  0  0  0  0  0
  -29.6881  -11.1410   20.5217 N   0  0  0  0  0  0  0  0  0  0  0  0
  -27.1836   -7.5138   21.5050 N   0  0  0  0  0  0  0  0  0  0  0  0
  -21.3321  -29.8106   24.0485 N   0  0  0  0  0  0  0  0  0  0  0  0
  -27.2369  -31.8769   26.0233 N   0  0  0  0  0  0  0  0  0  0  0  0
  -28.4809  -22.5032   25.0930 N   0  3  0  0  0  0  0  0  0  0  0  0
  -29.0700  -31.2113   29.0671 N   0  3  0  0  0  0  0  0  0  0  0  0
  -29.3295   -8.3041   21.3345 O   0  0  0  0  0  0  0  0  0  0  0  0
  -23.2927  -28.7505   23.3742 O   0  0  0  0  0  0  0  0  0  0  0  0
  -24.4372  -32.1264   25.4683 O   0  0  0  0  0  0  0  0  0  0  0  0
  -28.5647  -30.0513   26.5540 O   0  0  0  0  0  0  0  0  0  0  0  0
  -29.9714  -16.9467   19.9201 O   0  0  0  0  0  0  0  0  0  0  0  0
  -21.6189   -7.2502   21.4852 O   0  0  0  0  0  0  0  0  0  0  0  0
  -25.9819  -23.7911   25.8117 O   0  0  0  0  0  0  0  0  0  1  0  0
  -21.3503   -4.0568   25.9723 F   0  0  0  0  0  0  0  0  0  0  0  0
  -23.4644   -5.2350   21.9044 F   0  0  0  0  0  0  0  0  0  0  0  0
  1  2  1  0  0  0  0
  1  5  2  0  0  0  0
  2  6  2  0  0  0  0
  3  8  2  0  0  0  0
  3 17  1  0  0  0  0
  4  9  1  0  0  0  0
  4 17  2  0  0  0  0
  5 19  1  0  0  0  0
  6 21  1  0  0  0  0
  7 10  2  0  0  0  0
  7 20  1  0  0  0  0
  8 27  1  0  0  0  0
  9 27  2  0  0  0  0
 10 28  1  0  0  0  0
 11 12  2  0  0  0  0
 11 29  1  0  0  0  0
 12 30  1  0  0  0  0
 13 22  2  0  0  0  0
 13 23  1  0  0  0  0
 14 24  2  0  0  0  0
 14 26  1  0  0  0  0
 15 25  1  0  0  0  0
 15 28  2  0  0  0  0
 16 30  2  0  0  0  0
 16 31  1  0  0  0  0
 17 32  1  0  0  0  0
 18 32  1  0  0  0  0
 18 33  2  0  0  0  0
 18 34  1  0  0  0  0
 19 21  2  0  0  0  0
 19 39  1  0  0  0  0
 20 25  2  0  0  0  0
 20 40  1  0  0  0  0
 21 56  1  0  0  0  0
 22 24  1  0  0  0  0
 22 57  1  0  0  0  0
 23 26  2  0  0  0  0
 23 55  1  0  0  0  0
 24 41  1  0  0  0  0
 25 42  1  0  0  0  0
 26 67  1  0  0  0  0
 27 89  1  0  0  0  0
 28 90  1  0  0  0  0
 29 31  2  0  0  0  0
 29 89  1  0  0  0  0
 30 91  1  0  0  0  0
 31 92  1  0  0  0  0
 32 73  2  0  0  0  0
 33 74  1  0  0  0  0
 33 78  1  0  0  0  0
 34 79  1  0  0  0  0
 34 84  2  0  0  0  0
 35 58  1  0  0  0  0
 35 80  1  0  0  0  0
 35 85  2  0  0  0  0
 36 69  1  0  0  0  0
 36 75  1  0  0  0  0
 36 86  2  0  0  0  0
 37 70  1  0  0  0  0
 37 81  1  0  0  0  0
 37 87  2  0  0  0  0
 38 76  1  0  0  0  0
 38 77  1  0  0  0  0
 38 88  2  0  0  0  0
 39 43  1  0  0  0  0
 40 58  1  0  0  0  0
 41 44  1  0  0  0  0
 42 75  1  0  0  0  0
 43 46  1  0  0  0  0
 44 47  1  0  0  0  0
 45 48  1  0  0  0  0
 45 51  1  0  0  0  0
 46 56  1  0  0  0  0
 47 57  1  0  0  0  0
 48 59  1  0  0  0  0
 49 52  1  0  0  0  0
 49 55  1  0  0  0  0
 50 53  1  0  0  0  0
 50 55  1  0  0  0  0
 51 76  1  0  0  0  0
 52 77  1  0  0  0  0
 53 77  1  0  0  0  0
 54 59  1  0  0  0  0
 54 76  1  0  0  0  0
 56 80  1  0  0  0  0
 57 82  1  0  0  0  0
 58 75  1  0  0  0  0
 59 74  1  0  0  0  0
 60 67  1  0  0  0  0
 61 70  1  0  0  0  0
 62 71  1  0  0  0  0
 63 72  1  0  0  0  0
 64 72  1  0  0  0  0
 65 72  1  0  0  0  0
 66 83  1  0  0  0  0
 68 71  1  0  0  0  0
 68 82  1  0  0  0  0
 69 72  1  0  0  0  0
 69 81  1  0  0  0  0
 70 83  1  0  0  0  0
 71 90  1  0  0  0  0
 73 74  1  0  0  0  0
M  CHG  2  82   1  83   1
M  ISO  4  38 100  71 101  77 100  90 101
M  END
> <Batch ID>
0174

> <Smiles>
CCc1cc2c(cc1C1CC[100N:0]([100C:0](=O)N3CCCC(n4nc(-c5ccc(Oc6ccc(F)cc6F)cc5)c(C(N)=O)c4N)C3)CC1)C(NC[101CH:1](C)[101O:1]c1ccc3c(c1)CN(C(=O)C(NC(=O)C(C)NC)C(C)(C)C)C(C(=O)NC1CCCc4ccccc41)C3)CCC2

> <Shape>
0.228

> <Color>
0.106

> <Negative vol penalty>
0.000

$$$$

  -OEChem-04052322452D

  0  0  0     0  0  0  0  0  0999 V2000
M  END
$$$$

  -OEChem-04052322453D

 83 92  0     1  0  0  0  0  0999 V2000
  -18.5760  -28.8465   15.7578 C   0  0  0  0  0  0  0  0  0  0  0  0
  -19.2961  -27.7187   16.1385 C   0  0  0  0  0  0  0  0  0  0  0  0
  -23.0617   -9.8871   19.9678 C   0  0  0  0  0  0  0  0  0  0  0  0
  -23.9260   -9.8832   22.2239 C   0  0  0  0  0  0  0  0  0  0  0  0
  -18.5958  -29.9879   16.5583 C   0  0  0  0  0  0  0  0  0  0  0  0
  -20.0374  -27.7321   17.3196 C   0  0  0  0  0  0  0  0  0  0  0  0
  -20.9634  -23.0345   21.1382 C   0  0  0  0  0  0  0  0  0  0  0  0
  -22.3438   -8.7228   20.2408 C   0  0  0  0  0  0  0  0  0  0  0  0
  -23.2080   -8.7189   22.4969 C   0  0  0  0  0  0  0  0  0  0  0  0
  -22.0270  -22.1463   21.2918 C   0  0  0  0  0  0  0  0  0  0  0  0
  -20.0206   -7.8763   23.2392 C   0  0  0  0  0  0  0  0  0  0  0  0
  -19.3188   -7.8168   24.4432 C   0  0  0  0  0  0  0  0  0  0  0  0
  -22.9140  -23.5241   23.0621 C   0  0  0  0  0  0  0  0  0  0  0  0
  -26.5144  -18.2109   23.3795 C   0  0  0  0  0  0  0  0  0  0  0  0
  -20.6155   -5.8883   25.1038 C   0  0  0  0  0  0  0  0  0  0  0  0
  -23.8528  -10.4673   20.9593 C   0  0  0  0  0  0  0  0  0  0  0  0
  -24.1589  -12.9974   20.8473 C   0  0  0  0  0  0  0  0  0  0  0  0
  -19.3298  -30.0119   17.7546 C   0  0  0  0  0  0  0  0  0  0  0  0
  -20.8729  -24.1819   21.9393 C   0  0  0  0  0  0  0  0  0  0  0  0
  -20.0680  -28.8753   18.1361 C   0  0  0  0  0  0  0  0  0  0  0  0
  -21.8470  -24.4240   22.9184 C   0  0  0  0  0  0  0  0  0  0  0  0
  -25.3980  -18.9923   23.1389 C   0  0  0  0  0  0  0  0  0  0  0  0
  -22.4169   -8.1387   21.5053 C   0  0  0  0  0  0  0  0  0  0  0  0
  -23.0040  -22.3925   22.2520 C   0  0  0  0  0  0  0  0  0  0  0  0
  -21.0199   -6.9418   22.9675 C   0  0  0  0  0  0  0  0  0  0  0  0
  -19.6162   -6.8229   25.3755 C   0  0  0  0  0  0  0  0  0  0  0  0
  -21.3173   -5.9478   23.8998 C   0  0  0  0  0  0  0  0  0  0  0  0
  -24.5951  -11.6697   20.6777 C   0  0  0  0  0  0  0  0  0  0  0  0
  -27.4080  -18.0246   22.3441 C   0  0  0  0  0  0  0  0  0  0  0  0
  -25.2494  -19.5360   21.8787 C   0  0  0  0  0  0  0  0  0  0  0  0
  -25.2242  -13.7634   20.4414 C   0  0  0  0  0  0  0  0  0  0  0  0
  -22.9030  -13.4939   21.3288 C   0  0  0  0  0  0  0  0  0  0  0  0
  -20.8798  -27.3117   21.3841 C   0  0  0  0  0  0  0  0  0  0  0  0
  -20.2398  -27.4821   24.5595 C   0  0  0  0  0  0  0  0  0  0  0  0
  -20.4171  -26.0109   27.6338 C   0  0  0  0  0  0  0  0  0  0  0  0
  -30.7584  -14.6727   20.7235 C   0  0  0  0  0  0  0  0  0  0  0  0
  -19.3589  -31.2848   18.5630 C   0  0  0  0  0  0  0  0  0  0  0  0
  -19.7051  -25.1163   21.7792 C   0  0  0  0  0  0  0  0  0  0  0  0
  -21.7848  -25.6307   23.8175 C   0  0  0  0  0  0  0  0  0  0  0  0
  -19.8678  -31.0894   19.9889 C   0  0  0  0  0  0  0  0  0  0  0  0
  -29.4979  -12.4985   18.0439 C   0  0  0  0  0  0  0  0  0  0  0  0
  -21.1352  -30.2405   19.9917 C   0  0  0  0  0  0  0  0  0  0  0  0
  -28.0874  -12.1602   18.5333 C   0  0  0  0  0  0  0  0  0  0  0  0
  -29.9999  -17.8554   22.3057 C   0  0  0  0  0  0  0  0  0  0  0  0
  -30.4630  -12.7490   19.2013 C   0  0  0  0  0  0  0  0  0  0  0  0
  -30.9574  -16.6826   22.1672 C   0  0  0  0  0  0  0  0  0  0  0  0
  -28.7375  -15.9469   21.6378 C   0  0  0  0  0  0  0  0  0  0  0  0
  -28.5948  -13.3842   20.6757 C   0  0  0  0  0  0  0  0  0  0  0  0
  -20.8641  -28.8426   19.4227 C   0  0  1  0  0  0  0  0  0  0  0  0
  -28.6448  -17.1784   22.5542 C   0  0  2  0  0  0  0  0  0  0  0  0
  -19.9886  -26.5218   22.3003 C   0  0  1  0  0  0  0  0  0  0  0  0
  -27.5786  -13.2112   19.5393 C   0  0  2  0  0  0  0  0  0  0  0  0
  -24.4029  -19.2254   24.2224 C   0  0  0  0  0  0  0  0  0  0  0  0
  -19.8444  -26.4094   30.0443 C   0  0  0  0  0  0  0  0  0  0  0  0
  -22.6239  -29.3695   24.8114 C   0  0  0  0  0  0  0  0  0  0  0  0
  -22.5862  -28.9751   27.2835 C   0  0  0  0  0  0  0  0  0  0  0  0
  -20.6240  -30.0293   26.1604 C   0  0  0  0  0  0  0  0  0  0  0  0
  -18.6023  -23.6743   27.7093 C   0  0  0  0  0  0  0  0  0  0  0  0
  -24.0712  -20.3879   21.5459 C   0  0  0  0  0  0  0  0  0  1  0  0
  -21.0736  -27.5654   25.8152 C   0  0  1  0  0  0  0  0  0  0  0  0
  -19.3755  -25.8226   28.7220 C   0  0  2  0  0  0  0  0  0  0  0  0
  -21.7294  -28.9630   25.9995 C   0  0  0  0  0  0  0  0  0  0  0  0
  -25.8405  -11.5931   20.2011 N   0  0  0  0  0  0  0  0  0  0  0  0
  -27.2372  -18.5689   21.1207 N   0  0  0  0  0  0  0  0  0  0  0  0
  -26.1402  -19.3372   20.8843 N   0  0  0  0  0  0  0  0  0  0  0  0
  -26.1959  -12.8822   20.0676 N   0  0  0  0  0  0  0  0  0  0  0  0
  -20.6270  -26.5179   23.6181 N   0  0  0  0  0  0  0  0  0  0  0  0
  -29.9107  -13.7311   20.1321 N   0  0  0  0  0  0  0  0  0  0  0  0
  -30.1646  -15.6243   21.5565 N   0  0  0  0  0  0  0  0  0  0  0  0
  -25.4153  -15.0979   20.3713 N   0  0  0  0  0  0  0  0  0  0  0  0
  -21.9184  -12.5695   21.7036 N   0  0  0  0  0  0  0  0  0  0  0  0
  -20.2008  -28.0157   20.4080 N   0  0  0  0  0  0  0  0  0  0  0  0
  -20.1995  -27.1660   26.9129 N   0  0  0  0  0  0  0  0  0  0  0  0
  -19.0941  -24.3732   28.9244 N   0  3  0  0  0  0  0  0  0  0  0  0
  -22.6550  -14.7210   21.4084 O   0  0  0  0  0  0  0  0  0  0  0  0
  -22.0935  -27.2855   21.5512 O   0  0  0  0  0  0  0  0  0  0  0  0
  -19.2760  -28.2396   24.4223 O   0  0  0  0  0  0  0  0  0  0  0  0
  -21.3343  -25.2150   27.4448 O   0  0  0  0  0  0  0  0  0  0  0  0
  -31.9703  -14.6921   20.4745 O   0  0  0  0  0  0  0  0  0  0  0  0
  -21.7163   -7.0026   21.7722 O   0  0  0  0  0  0  0  0  0  0  0  0
  -24.0507  -21.5215   22.4046 O   0  0  0  0  0  0  0  0  0  1  0  0
  -18.9432   -6.7668   26.5322 F   0  0  0  0  0  0  0  0  0  0  0  0
  -22.2771   -5.0480   23.6450 F   0  0  0  0  0  0  0  0  0  0  0  0
  1  2  1  0  0  0  0
  1  5  2  0  0  0  0
  2  6  2  0  0  0  0
  3  8  2  0  0  0  0
  3 16  1  0  0  0  0
  4  9  1  0  0  0  0
  4 16  2  0  0  0  0
  5 18  1  0  0  0  0
  6 20  1  0  0  0  0
  7 10  2  0  0  0  0
  7 19  1  0  0  0  0
  8 23  1  0  0  0  0
  9 23  2  0  0  0  0
 10 24  1  0  0  0  0
 11 12  2  0  0  0  0
 11 25  1  0  0  0  0
 12 26  1  0  0  0  0
 13 21  1  0  0  0  0
 13 24  2  0  0  0  0
 14 22  1  0  0  0  0
 14 29  2  0  0  0  0
 15 26  2  0  0  0  0
 15 27  1  0  0  0  0
 16 28  1  0  0  0  0
 17 28  1  0  0  0  0
 17 31  2  0  0  0  0
 17 32  1  0  0  0  0
 18 20  2  0  0  0  0
 18 37  1  0  0  0  0
 19 21  2  0  0  0  0
 19 38  1  0  0  0  0
 20 49  1  0  0  0  0
 21 39  1  0  0  0  0
 22 30  2  0  0  0  0
 22 53  1  0  0  0  0
 23 80  1  0  0  0  0
 24 81  1  0  0  0  0
 25 27  2  0  0  0  0
 25 80  1  0  0  0  0
 26 82  1  0  0  0  0
 27 83  1  0  0  0  0
 28 63  2  0  0  0  0
 29 50  1  0  0  0  0
 29 64  1  0  0  0  0
 30 59  1  0  0  0  0
 30 65  1  0  0  0  0
 31 66  1  0  0  0  0
 31 70  1  0  0  0  0
 32 71  1  0  0  0  0
 32 75  2  0  0  0  0
 33 51  1  0  0  0  0
 33 72  1  0  0  0  0
 33 76  2  0  0  0  0
 34 60  1  0  0  0  0
 34 67  1  0  0  0  0
 34 77  2  0  0  0  0
 35 61  1  0  0  0  0
 35 73  1  0  0  0  0
 35 78  2  0  0  0  0
 36 68  1  0  0  0  0
 36 69  1  0  0  0  0
 36 79  2  0  0  0  0
 37 40  1  0  0  0  0
 38 51  1  0  0  0  0
 39 67  1  0  0  0  0
 40 42  1  0  0  0  0
 41 43  1  0  0  0  0
 41 45  1  0  0  0  0
 42 49  1  0  0  0  0
 43 52  1  0  0  0  0
 44 46  1  0  0  0  0
 44 50  1  0  0  0  0
 45 68  1  0  0  0  0
 46 69  1  0  0  0  0
 47 50  1  0  0  0  0
 47 69  1  0  0  0  0
 48 52  1  0  0  0  0
 48 68  1  0  0  0  0
 49 72  1  0  0  0  0
 51 67  1  0  0  0  0
 52 66  1  0  0  0  0
 54 61  1  0  0  0  0
 55 62  1  0  0  0  0
 56 62  1  0  0  0  0
 57 62  1  0  0  0  0
 58 74  1  0  0  0  0
 59 81  1  0  0  0  0
 60 62  1  0  0  0  0
 60 73  1  0  0  0  0
 61 74  1  0  0  0  0
 63 66  1  0  0  0  0
 64 65  2  0  0  0  0
M  CHG  1  74   1
M  ISO  4  36 100  59 101  69 100  81 101
M  END
> <Batch ID>
0174

> <Smiles>
CNC(C)C(=O)NC(C(=O)N1Cc2cc([101O:1][101CH2:1]c3nnc(C4CC[100N:0]([100C:0](=O)N5CCCC(n6nc(-c7ccc(Oc8ccc(F)cc8F)cc7)c(C(N)=O)c6N)C5)C4)cc3C)ccc2CC1C(=O)NC1CCCc2ccccc21)C(C)(C)C

> <Shape>
0.224

> <Color>
0.184

> <Negative vol penalty>
0.000

$$$$

  -OEChem-04052322453D

 85 94  0     1  0  0  0  0  0999 V2000
  -28.6448  -37.1847   20.3522 C   0  0  0  0  0  0  0  0  0  0  0  0
  -28.9728  -35.8574   20.0951 C   0  0  0  0  0  0  0  0  0  0  0  0
  -22.0076  -13.0900   21.6389 C   0  0  0  0  0  0  0  0  0  0  0  0
  -22.5234  -10.9433   20.6577 C   0  0  0  0  0  0  0  0  0  0  0  0
  -27.7444  -37.4944   21.3707 C   0  0  0  0  0  0  0  0  0  0  0  0
  -28.4013  -34.8390   20.8571 C   0  0  0  0  0  0  0  0  0  0  0  0
  -26.8423  -29.2365   18.9368 C   0  0  0  0  0  0  0  0  0  0  0  0
  -20.6868  -12.6849   21.8310 C   0  0  0  0  0  0  0  0  0  0  0  0
  -21.2026  -10.5382   20.8499 C   0  0  0  0  0  0  0  0  0  0  0  0
  -27.4843  -28.0021   19.0256 C   0  0  0  0  0  0  0  0  0  0  0  0
  -18.0541   -8.8088   21.4111 C   0  0  0  0  0  0  0  0  0  0  0  0
  -17.8355   -7.5342   21.9335 C   0  0  0  0  0  0  0  0  0  0  0  0
  -26.2014  -27.4838   21.0016 C   0  0  0  0  0  0  0  0  0  0  0  0
  -19.0685   -8.1375   23.9216 C   0  0  0  0  0  0  0  0  0  0  0  0
  -22.9259  -12.2193   21.0521 C   0  0  0  0  0  0  0  0  0  0  0  0
  -25.3654  -12.4859   21.7490 C   0  0  0  0  0  0  0  0  0  0  0  0
  -27.1542  -36.4786   22.1392 C   0  0  0  0  0  0  0  0  0  0  0  0
  -25.8813  -29.6090   19.8876 C   0  0  0  0  0  0  0  0  0  0  0  0
  -27.4932  -35.1354   21.8877 C   0  0  0  0  0  0  0  0  0  0  0  0
  -25.5468  -28.7224   20.9212 C   0  0  0  0  0  0  0  0  0  0  0  0
  -20.2843  -11.4090   21.4366 C   0  0  0  0  0  0  0  0  0  0  0  0
  -27.1660  -27.1267   20.0598 C   0  0  0  0  0  0  0  0  0  0  0  0
  -18.7800   -9.7479   22.1439 C   0  0  0  0  0  0  0  0  0  0  0  0
  -18.3426   -7.1985   23.1888 C   0  0  0  0  0  0  0  0  0  0  0  0
  -19.2872   -9.4122   23.3992 C   0  0  0  0  0  0  0  0  0  0  0  0
  -24.2903  -12.6374   20.8529 C   0  0  0  0  0  0  0  0  0  0  0  0
  -26.4381  -13.0414   21.0954 C   0  0  0  0  0  0  0  0  0  0  0  0
  -25.3920  -11.8957   23.0554 C   0  0  0  0  0  0  0  0  0  0  0  0
  -25.6301  -31.9475   22.0259 C   0  0  0  0  0  0  0  0  0  0  0  0
  -22.6608  -30.7125   22.4505 C   0  0  0  0  0  0  0  0  0  0  0  0
  -20.5806  -28.0186   22.2014 C   0  0  0  0  0  0  0  0  0  0  0  0
  -28.7033  -17.0478   18.0198 C   0  0  0  0  0  0  0  0  0  0  0  0
  -26.2225  -36.8650   23.2605 C   0  0  0  0  0  0  0  0  0  0  0  0
  -25.1786  -30.9330   19.7625 C   0  0  0  0  0  0  0  0  0  0  0  0
  -24.5075  -29.0663   21.9557 C   0  0  0  0  0  0  0  0  0  0  0  0
  -25.3748  -35.7046   23.7753 C   0  0  0  0  0  0  0  0  0  0  0  0
  -26.9798  -14.5302   16.3052 C   0  0  0  0  0  0  0  0  0  0  0  0
  -26.2395  -34.4667   23.9916 C   0  0  0  0  0  0  0  0  0  0  0  0
  -26.1967  -13.8047   17.3972 C   0  0  0  0  0  0  0  0  0  0  0  0
  -27.8926  -21.2191   19.9308 C   0  0  0  0  0  0  0  0  0  0  0  0
  -26.9894  -16.0331   16.5529 C   0  0  0  0  0  0  0  0  0  0  0  0
  -30.5561  -17.4901   19.5926 C   0  0  0  0  0  0  0  0  0  0  0  0
  -28.2569  -17.9122   20.3672 C   0  0  0  0  0  0  0  0  0  0  0  0
  -26.7911  -15.6939   18.9990 C   0  0  0  0  0  0  0  0  0  0  0  0
  -28.1446  -22.2502   21.0240 C   0  0  0  0  0  0  0  0  0  0  0  0
  -30.9758  -18.9536   19.6818 C   0  0  0  0  0  0  0  0  0  0  0  0
  -28.9354  -19.0227   21.1691 C   0  0  0  0  0  0  0  0  0  0  0  0
  -30.3304  -22.8719   19.9497 C   0  0  0  0  0  0  0  0  0  0  0  0
  -26.8753  -34.0011   22.6762 C   0  0  1  0  0  0  0  0  0  0  0  0
  -24.5868  -31.4223   21.0807 C   0  0  1  0  0  0  0  0  0  0  0  0
  -30.0920  -21.8422   18.8402 C   0  0  2  0  0  0  0  0  0  0  0  0
  -26.7383  -14.1663   18.7903 C   0  0  1  0  0  0  0  0  0  0  0  0
  -29.1812  -20.6890   19.2991 C   0  0  1  0  0  0  0  0  0  0  0  0
  -31.4286  -21.3577   18.2734 C   0  0  0  0  0  0  0  0  0  0  0  0
  -18.2194  -27.3038   22.6613 C   0  0  0  0  0  0  0  0  0  0  0  0
  -23.2984  -30.5310   25.4289 C   0  0  0  0  0  0  0  0  0  0  0  0
  -21.3513  -28.9774   25.6799 C   0  0  0  0  0  0  0  0  0  0  0  0
  -20.9839  -31.3195   24.9037 C   0  0  0  0  0  0  0  0  0  0  0  0
  -20.0808  -27.4260   19.3452 C   0  0  0  0  0  0  0  0  0  0  0  0
  -29.1798  -24.4710   21.4793 C   0  0  0  0  0  0  0  0  0  0  0  0
  -27.9602  -25.3711   21.4537 C   0  0  0  0  0  0  0  0  0  1  0  0
  -22.0620  -29.6503   23.3405 C   0  0  1  0  0  0  0  0  0  0  0  0
  -19.1809  -27.8761   21.6313 C   0  0  2  0  0  0  0  0  0  0  0  0
  -21.9449  -30.1136   24.8200 C   0  0  0  0  0  0  0  0  0  0  0  0
  -24.6474  -13.2419   19.7166 N   0  0  0  0  0  0  0  0  0  0  0  0
  -25.9589  -13.4753   19.8944 N   0  0  0  0  0  0  0  0  0  0  0  0
  -23.8529  -30.3750   21.7941 N   0  0  0  0  0  0  0  0  0  0  0  0
  -27.4931  -16.3530   17.8890 N   0  0  0  0  0  0  0  0  0  0  0  0
  -29.1297  -17.3618   19.3209 N   0  0  0  0  0  0  0  0  0  0  0  0
  -27.7350  -13.1962   21.4366 N   0  0  0  0  0  0  0  0  0  0  0  0
  -24.2009  -11.3722   23.5764 N   0  0  0  0  0  0  0  0  0  0  0  0
  -25.9054  -33.2925   21.8690 N   0  0  0  0  0  0  0  0  0  0  0  0
  -20.7914  -29.2747   22.7296 N   0  0  0  0  0  0  0  0  0  0  0  0
  -29.8853  -19.8105   20.2998 N   0  3  0  0  0  0  0  0  0  0  0  0
  -29.0017  -23.3648   20.4754 N   0  3  2  0  0  0  0  0  0  0  0  0
  -19.1936  -26.9718   20.4468 N   0  3  0  0  0  0  0  0  0  0  0  0
  -26.4374  -11.8491   23.7471 O   0  0  0  0  0  0  0  0  0  0  0  0
  -26.1461  -31.1890   22.8383 O   0  0  0  0  0  0  0  0  0  0  0  0
  -22.0881  -31.7991   22.3363 O   0  0  0  0  0  0  0  0  0  0  0  0
  -21.4032  -27.1057   22.1835 O   0  0  0  0  0  0  0  0  0  0  0  0
  -29.3546  -17.3962   17.0265 O   0  0  0  0  0  0  0  0  0  0  0  0
  -18.9956  -11.0132   21.6242 O   0  0  0  0  0  0  0  0  0  0  0  0
  -27.7960  -25.9129   20.1498 O   0  0  0  0  0  0  0  0  0  1  0  0
  -18.1313   -5.9749   23.6910 F   0  0  0  0  0  0  0  0  0  0  0  0
  -19.9843  -10.3105   24.1083 F   0  0  0  0  0  0  0  0  0  0  0  0
  1  2  1  0  0  0  0
  1  5  2  0  0  0  0
  2  6  2  0  0  0  0
  3  8  2  0  0  0  0
  3 15  1  0  0  0  0
  4  9  1  0  0  0  0
  4 15  2  0  0  0  0
  5 17  1  0  0  0  0
  6 19  1  0  0  0  0
  7 10  2  0  0  0  0
  7 18  1  0  0  0  0
  8 21  1  0  0  0  0
  9 21  2  0  0  0  0
 10 22  1  0  0  0  0
 11 12  2  0  0  0  0
 11 23  1  0  0  0  0
 12 24  1  0  0  0  0
 13 20  1  0  0  0  0
 13 22  2  0  0  0  0
 14 24  2  0  0  0  0
 14 25  1  0  0  0  0
 15 26  1  0  0  0  0
 16 26  1  0  0  0  0
 16 27  2  0  0  0  0
 16 28  1  0  0  0  0
 17 19  2  0  0  0  0
 17 33  1  0  0  0  0
 18 20  2  0  0  0  0
 18 34  1  0  0  0  0
 19 49  1  0  0  0  0
 20 35  1  0  0  0  0
 21 82  1  0  0  0  0
 22 83  1  0  0  0  0
 23 25  2  0  0  0  0
 23 82  1  0  0  0  0
 24 84  1  0  0  0  0
 25 85  1  0  0  0  0
 26 65  2  0  0  0  0
 27 66  1  0  0  0  0
 27 70  1  0  0  0  0
 28 71  1  0  0  0  0
 28 77  2  0  0  0  0
 29 50  1  0  0  0  0
 29 72  1  0  0  0  0
 29 78  2  0  0  0  0
 30 62  1  0  0  0  0
 30 67  1  0  0  0  0
 30 79  2  0  0  0  0
 31 63  1  0  0  0  0
 31 73  1  0  0  0  0
 31 80  2  0  0  0  0
 32 68  1  0  0  0  0
 32 69  1  0  0  0  0
 32 81  2  0  0  0  0
 33 36  1  0  0  0  0
 34 50  1  0  0  0  0
 35 67  1  0  0  0  0
 36 38  1  0  0  0  0
 37 39  1  0  0  0  0
 37 41  1  0  0  0  0
 38 49  1  0  0  0  0
 39 52  1  0  0  0  0
 40 45  1  0  0  0  0
 40 53  1  0  0  0  0
 41 68  1  0  0  0  0
 42 46  1  0  0  0  0
 42 69  1  0  0  0  0
 43 47  1  0  0  0  0
 43 69  1  0  0  0  0
 44 52  1  0  0  0  0
 44 68  1  0  0  0  0
 45 75  1  0  0  0  0
 46 74  1  0  0  0  0
 47 74  1  0  0  0  0
 48 51  1  0  0  0  0
 48 75  1  0  0  0  0
 49 72  1  0  0  0  0
 50 67  1  0  0  0  0
 51 53  1  0  0  0  0
 51 54  1  0  0  0  0
 52 66  1  0  0  0  0
 53 74  1  0  0  0  0
 55 63  1  0  0  0  0
 56 64  1  0  0  0  0
 57 64  1  0  0  0  0
 58 64  1  0  0  0  0
 59 76  1  0  0  0  0
 60 61  1  0  0  0  0
 60 75  1  0  0  0  0
 61 83  1  0  0  0  0
 62 64  1  0  0  0  0
 62 73  1  0  0  0  0
 63 76  1  0  0  0  0
 65 66  1  0  0  0  0
M  CHG  3  74   1  75   1  76   1
M  ISO  4  32 100  61 101  69 100  83 101
M  END
> <Batch ID>
0174

> <Smiles>
CNC(C)C(=O)NC(C(=O)N1Cc2cc([101O:1][101CH2:1]CN3CCC(N4CC[100N:0]([100C:0](=O)N5CCCC(n6nc(-c7ccc(Oc8ccc(F)cc8F)cc7)c(C(N)=O)c6N)C5)CC4)C(C)C3)ccc2CC1C(=O)NC1CCCc2ccccc21)C(C)(C)C

> <Shape>
0.279

> <Color>
0.066

> <Negative vol penalty>
0.000

$$$$

  -OEChem-04052322453D

 88 98  0     1  0  0  0  0  0999 V2000
  -26.5996  -38.0854   22.0200 C   0  0  0  0  0  0  0  0  0  0  0  0
  -27.2203  -37.1220   21.2313 C   0  0  0  0  0  0  0  0  0  0  0  0
  -27.6419   -8.2777   23.8194 C   0  0  0  0  0  0  0  0  0  0  0  0
  -27.6406   -6.9361   21.8101 C   0  0  0  0  0  0  0  0  0  0  0  0
  -25.9430  -37.7087   23.1909 C   0  0  0  0  0  0  0  0  0  0  0  0
  -27.1856  -35.7815   21.6136 C   0  0  0  0  0  0  0  0  0  0  0  0
  -26.9676  -29.1855   18.8275 C   0  0  0  0  0  0  0  0  0  0  0  0
  -26.7470   -7.3881   24.4139 C   0  0  0  0  0  0  0  0  0  0  0  0
  -26.7457   -6.0465   22.4046 C   0  0  0  0  0  0  0  0  0  0  0  0
  -27.6334  -27.9628   18.9008 C   0  0  0  0  0  0  0  0  0  0  0  0
  -24.1828   -3.6163   23.2621 C   0  0  0  0  0  0  0  0  0  0  0  0
  -23.0976   -3.1825   22.5006 C   0  0  0  0  0  0  0  0  0  0  0  0
  -26.4017  -27.4190   20.9024 C   0  0  0  0  0  0  0  0  0  0  0  0
  -30.3217  -22.4439   21.8456 C   0  0  0  0  0  0  0  0  0  0  0  0
  -22.3418   -5.4663   22.2768 C   0  0  0  0  0  0  0  0  0  0  0  0
  -28.0887   -8.0517   22.5175 C   0  0  0  0  0  0  0  0  0  0  0  0
  -30.4188   -8.9141   21.9392 C   0  0  0  0  0  0  0  0  0  0  0  0
  -25.8920  -36.3617   23.5827 C   0  0  0  0  0  0  0  0  0  0  0  0
  -26.0201  -29.5394   19.7988 C   0  0  0  0  0  0  0  0  0  0  0  0
  -26.5288  -35.3866   22.7915 C   0  0  0  0  0  0  0  0  0  0  0  0
  -25.7234  -28.6457   20.8377 C   0  0  0  0  0  0  0  0  0  0  0  0
  -29.5632  -23.6067   21.9219 C   0  0  0  0  0  0  0  0  0  0  0  0
  -28.4979  -23.7938   21.0482 C   0  0  0  0  0  0  0  0  0  0  0  0
  -26.2989   -6.2726   23.7065 C   0  0  0  0  0  0  0  0  0  0  0  0
  -27.3526  -27.0805   19.9400 C   0  0  0  0  0  0  0  0  0  0  0  0
  -24.3475   -4.9751   23.5310 C   0  0  0  0  0  0  0  0  0  0  0  0
  -22.1771   -4.1075   22.0080 C   0  0  0  0  0  0  0  0  0  0  0  0
  -23.4270   -5.9001   23.0383 C   0  0  0  0  0  0  0  0  0  0  0  0
  -29.0127   -8.9706   21.9026 C   0  0  0  0  0  0  0  0  0  0  0  0
  -28.2344  -22.7959   20.1237 C   0  0  0  0  0  0  0  0  0  0  0  0
  -29.9765  -21.5064   20.8855 C   0  0  0  0  0  0  0  0  0  0  0  0
  -30.8254  -10.0046   21.2099 C   0  0  0  0  0  0  0  0  0  0  0  0
  -31.2805   -7.9610   22.5756 C   0  0  0  0  0  0  0  0  0  0  0  0
  -25.7717  -31.8703   21.9456 C   0  0  0  0  0  0  0  0  0  0  0  0
  -22.8347  -30.5815   22.4303 C   0  0  0  0  0  0  0  0  0  0  0  0
  -20.7985  -27.8507   22.2203 C   0  0  0  0  0  0  0  0  0  0  0  0
  -30.5957  -15.1860   19.8292 C   0  0  0  0  0  0  0  0  0  0  0  0
  -25.2108  -36.0086   24.8812 C   0  0  0  0  0  0  0  0  0  0  0  0
  -25.2912  -30.8507   19.6905 C   0  0  0  0  0  0  0  0  0  0  0  0
  -24.7000  -28.9694   21.8942 C   0  0  0  0  0  0  0  0  0  0  0  0
  -24.8989  -34.5208   25.0205 C   0  0  0  0  0  0  0  0  0  0  0  0
  -28.2194  -13.1495   18.2371 C   0  0  0  0  0  0  0  0  0  0  0  0
  -30.1789  -26.0483   22.4993 C   0  0  0  0  0  0  0  0  0  0  0  0
  -31.3083  -25.1919   22.9802 C   0  0  0  0  0  0  0  0  0  0  0  0
  -26.1105  -33.6822   24.6260 C   0  0  0  0  0  0  0  0  0  0  0  0
  -28.3243  -11.8635   19.0563 C   0  0  0  0  0  0  0  0  0  0  0  0
  -29.3283  -18.4266   20.3585 C   0  0  0  0  0  0  0  0  0  0  0  0
  -31.7668  -18.4447   19.7094 C   0  0  0  0  0  0  0  0  0  0  0  0
  -28.2943  -14.3980   19.1180 C   0  0  0  0  0  0  0  0  0  0  0  0
  -29.1145  -17.2089   19.4546 C   0  0  0  0  0  0  0  0  0  0  0  0
  -31.4997  -17.2487   18.7999 C   0  0  0  0  0  0  0  0  0  0  0  0
  -29.5865  -13.1527   20.8204 C   0  0  0  0  0  0  0  0  0  0  0  0
  -29.9095  -24.6359   22.9459 C   0  0  0  0  0  0  0  0  0  0  0  0
  -26.4918  -33.9193   23.1598 C   0  0  1  0  0  0  0  0  0  0  0  0
  -24.7184  -31.3276   21.0217 C   0  0  1  0  0  0  0  0  0  0  0  0
  -29.5728  -11.8822   19.9563 C   0  0  1  0  0  0  0  0  0  0  0  0
  -30.4990  -19.2865   19.8761 C   0  0  0  0  0  0  0  0  0  0  0  0
  -27.1031  -22.9401   19.1588 C   0  0  0  0  0  0  0  0  0  0  0  0
  -18.4608  -27.0929   22.7283 C   0  0  0  0  0  0  0  0  0  0  0  0
  -23.5377  -30.4078   25.3943 C   0  0  0  0  0  0  0  0  0  0  0  0
  -21.6245  -28.8189   25.6835 C   0  0  0  0  0  0  0  0  0  0  0  0
  -21.1988  -31.1549   24.9190 C   0  0  0  0  0  0  0  0  0  0  0  0
  -20.2498  -27.2528   19.3742 C   0  0  0  0  0  0  0  0  0  0  0  0
  -27.6655  -25.0308   21.1048 C   0  0  0  0  0  0  0  0  0  1  0  0
  -22.2738  -29.5074   23.3308 C   0  0  1  0  0  0  0  0  0  0  0  0
  -19.3900  -27.6837   21.6794 C   0  0  2  0  0  0  0  0  0  0  0  0
  -22.1794  -29.9667   24.8132 C   0  0  0  0  0  0  0  0  0  0  0  0
  -28.5565  -10.0145   21.2053 N   0  0  0  0  0  0  0  0  0  0  0  0
  -28.9488  -21.6530   20.0195 N   0  0  0  0  0  0  0  0  0  0  0  0
  -29.6825  -10.6241   20.7971 N   0  0  0  0  0  0  0  0  0  0  0  0
  -24.0186  -30.2663   21.7485 N   0  0  0  0  0  0  0  0  0  0  0  0
  -29.4789  -14.3516   19.9865 N   0  0  0  0  0  0  0  0  0  0  0  0
  -30.3676  -16.4592   19.2862 N   0  0  0  0  0  0  0  0  0  0  0  0
  -32.0454  -10.4845   20.8878 N   0  0  0  0  0  0  0  0  0  0  0  0
  -30.6973   -6.9017   23.2841 N   0  0  0  0  0  0  0  0  0  0  0  0
  -30.7391  -20.3537   20.8224 N   0  0  0  0  0  0  0  0  0  0  0  0
  -25.5949  -33.1990   22.2815 N   0  0  0  0  0  0  0  0  0  0  0  0
  -20.9978  -29.1097   22.7461 N   0  0  0  0  0  0  0  0  0  0  0  0
  -19.3942  -26.7813   20.4934 N   0  3  0  0  0  0  0  0  0  0  0  0
  -32.5305   -8.0555   22.5314 O   0  0  0  0  0  0  0  0  0  0  0  0
  -26.6769  -31.1375   22.3268 O   0  0  0  0  0  0  0  0  0  0  0  0
  -22.2402  -31.6576   22.3298 O   0  0  0  0  0  0  0  0  0  0  0  0
  -21.6369  -26.9528   22.1837 O   0  0  0  0  0  0  0  0  0  0  0  0
  -31.7304  -14.8153   20.1551 O   0  0  0  0  0  0  0  0  0  0  0  0
  -25.4258   -5.4042   24.2864 O   0  0  0  0  0  0  0  0  0  0  0  0
  -28.0061  -25.8784   20.0148 O   0  0  0  0  0  0  0  0  0  1  0  0
  -21.1359   -3.6910   21.2755 F   0  0  0  0  0  0  0  0  0  0  0  0
  -23.5806   -7.2069   23.2924 F   0  0  0  0  0  0  0  0  0  0  0  0
  1  2  1  0  0  0  0
  1  5  2  0  0  0  0
  2  6  2  0  0  0  0
  3  8  2  0  0  0  0
  3 16  1  0  0  0  0
  4  9  1  0  0  0  0
  4 16  2  0  0  0  0
  5 18  1  0  0  0  0
  6 20  1  0  0  0  0
  7 10  2  0  0  0  0
  7 19  1  0  0  0  0
  8 24  1  0  0  0  0
  9 24  2  0  0  0  0
 10 25  1  0  0  0  0
 11 12  2  0  0  0  0
 11 26  1  0  0  0  0
 12 27  1  0  0  0  0
 13 21  1  0  0  0  0
 13 25  2  0  0  0  0
 14 22  2  0  0  0  0
 14 31  1  0  0  0  0
 15 27  2  0  0  0  0
 15 28  1  0  0  0  0
 16 29  1  0  0  0  0
 17 29  1  0  0  0  0
 17 32  2  0  0  0  0
 17 33  1  0  0  0  0
 18 20  2  0  0  0  0
 18 38  1  0  0  0  0
 19 21  2  0  0  0  0
 19 39  1  0  0  0  0
 20 54  1  0  0  0  0
 21 40  1  0  0  0  0
 22 23  1  0  0  0  0
 22 53  1  0  0  0  0
 23 30  2  0  0  0  0
 23 64  1  0  0  0  0
 24 85  1  0  0  0  0
 25 86  1  0  0  0  0
 26 28  2  0  0  0  0
 26 85  1  0  0  0  0
 27 87  1  0  0  0  0
 28 88  1  0  0  0  0
 29 68  2  0  0  0  0
 30 58  1  0  0  0  0
 30 69  1  0  0  0  0
 31 69  2  0  0  0  0
 31 76  1  0  0  0  0
 32 70  1  0  0  0  0
 32 74  1  0  0  0  0
 33 75  1  0  0  0  0
 33 80  2  0  0  0  0
 34 55  1  0  0  0  0
 34 77  1  0  0  0  0
 34 81  2  0  0  0  0
 35 65  1  0  0  0  0
 35 71  1  0  0  0  0
 35 82  2  0  0  0  0
 36 66  1  0  0  0  0
 36 78  1  0  0  0  0
 36 83  2  0  0  0  0
 37 72  1  0  0  0  0
 37 73  1  0  0  0  0
 37 84  2  0  0  0  0
 38 41  1  0  0  0  0
 39 55  1  0  0  0  0
 40 71  1  0  0  0  0
 41 45  1  0  0  0  0
 42 46  1  0  0  0  0
 42 49  1  0  0  0  0
 43 44  1  0  0  0  0
 43 53  1  0  0  0  0
 44 53  1  0  0  0  0
 45 54  1  0  0  0  0
 46 56  1  0  0  0  0
 47 50  1  0  0  0  0
 47 57  1  0  0  0  0
 48 51  1  0  0  0  0
 48 57  1  0  0  0  0
 49 72  1  0  0  0  0
 50 73  1  0  0  0  0
 51 73  1  0  0  0  0
 52 56  1  0  0  0  0
 52 72  1  0  0  0  0
 54 77  1  0  0  0  0
 55 71  1  0  0  0  0
 56 70  1  0  0  0  0
 57 76  1  0  0  0  0
 59 66  1  0  0  0  0
 60 67  1  0  0  0  0
 61 67  1  0  0  0  0
 62 67  1  0  0  0  0
 63 79  1  0  0  0  0
 64 86  1  0  0  0  0
 65 67  1  0  0  0  0
 65 78  1  0  0  0  0
 66 79  1  0  0  0  0
 68 70  1  0  0  0  0
M  CHG  1  79   1
M  ISO  4  37 100  64 101  73 100  86 101
M  END
> <Batch ID>
0174

> <Smiles>
CNC(C)C(=O)NC(C(=O)N1Cc2cc([101O:1][101CH2:1]c3c(C4CC4)cc(NC4CC[100N:0]([100C:0](=O)N5CCCC(n6nc(-c7ccc(Oc8ccc(F)cc8F)cc7)c(C(N)=O)c6N)C5)CC4)nc3C)ccc2CC1C(=O)NC1CCCc2ccccc21)C(C)(C)C

> <Shape>
0.281

> <Color>
0.091

> <Negative vol penalty>
0.000

$$$$

  -OEChem-04052322453D

 86 95  0     1  0  0  0  0  0999 V2000
  -28.0575  -33.2050   22.2335 C   0  0  0  0  0  0  0  0  0  0  0  0
  -28.5672  -32.0153   22.7435 C   0  0  0  0  0  0  0  0  0  0  0  0
  -22.9828  -10.0657   19.8793 C   0  0  0  0  0  0  0  0  0  0  0  0
  -24.0308   -9.7057   22.0262 C   0  0  0  0  0  0  0  0  0  0  0  0
  -27.3329  -33.1977   21.0424 C   0  0  0  0  0  0  0  0  0  0  0  0
  -28.3516  -30.8173   22.0633 C   0  0  0  0  0  0  0  0  0  0  0  0
  -32.5327  -27.9764   21.7587 C   0  0  0  0  0  0  0  0  0  0  0  0
  -22.2680   -8.8773   20.0290 C   0  0  0  0  0  0  0  0  0  0  0  0
  -23.3160   -8.5173   22.1759 C   0  0  0  0  0  0  0  0  0  0  0  0
  -32.8977  -27.2567   22.8957 C   0  0  0  0  0  0  0  0  0  0  0  0
  -20.1856   -7.5884   23.0467 C   0  0  0  0  0  0  0  0  0  0  0  0
  -19.5849   -7.3464   24.2821 C   0  0  0  0  0  0  0  0  0  0  0  0
  -31.9226  -25.2671   21.9420 C   0  0  0  0  0  0  0  0  0  0  0  0
  -33.1473  -21.5569   23.7313 C   0  0  0  0  0  0  0  0  0  0  0  0
  -20.8950   -5.3310   24.5244 C   0  0  0  0  0  0  0  0  0  0  0  0
  -23.8643  -10.4799   20.8779 C   0  0  0  0  0  0  0  0  0  0  0  0
  -24.2080  -12.9947   21.1328 C   0  0  0  0  0  0  0  0  0  0  0  0
  -27.1165  -32.0004   20.3421 C   0  0  0  0  0  0  0  0  0  0  0  0
  -31.8490  -27.3482   20.7078 C   0  0  0  0  0  0  0  0  0  0  0  0
  -27.6222  -30.7938   20.8624 C   0  0  0  0  0  0  0  0  0  0  0  0
  -31.5522  -25.9804   20.7917 C   0  0  0  0  0  0  0  0  0  0  0  0
  -33.5032  -22.9000   23.6757 C   0  0  0  0  0  0  0  0  0  0  0  0
  -22.4345   -8.1031   21.1773 C   0  0  0  0  0  0  0  0  0  0  0  0
  -32.5901  -25.9025   22.9887 C   0  0  0  0  0  0  0  0  0  0  0  0
  -21.1410   -6.7016   22.5501 C   0  0  0  0  0  0  0  0  0  0  0  0
  -32.6282  -23.8659   24.1604 C   0  0  0  0  0  0  0  0  0  1  0  0
  -19.9396   -6.2178   25.0209 C   0  0  0  0  0  0  0  0  0  0  0  0
  -21.4957   -5.5729   23.2890 C   0  0  0  0  0  0  0  0  0  0  0  0
  -24.6034  -11.7070   20.7237 C   0  0  0  0  0  0  0  0  0  0  0  0
  -31.9151  -21.2345   24.2768 C   0  0  0  0  0  0  0  0  0  0  0  0
  -31.4192  -23.4402   24.6867 C   0  0  0  0  0  0  0  0  0  0  0  0
  -25.2505  -13.8082   20.7612 C   0  0  0  0  0  0  0  0  0  0  0  0
  -23.0060  -13.4177   21.7899 C   0  0  0  0  0  0  0  0  0  0  0  0
  -29.0022  -27.7209   19.3439 C   0  0  0  0  0  0  0  0  0  0  0  0
  -30.1383  -25.4998   17.2706 C   0  0  0  0  0  0  0  0  0  0  0  0
  -32.3017  -22.9276   16.6787 C   0  0  0  0  0  0  0  0  0  0  0  0
  -30.9013  -14.4622   20.7795 C   0  0  0  0  0  0  0  0  0  0  0  0
  -26.2867  -32.0355   19.0832 C   0  0  0  0  0  0  0  0  0  0  0  0
  -31.4859  -28.1324   19.4766 C   0  0  0  0  0  0  0  0  0  0  0  0
  -30.8376  -25.2545   19.6822 C   0  0  0  0  0  0  0  0  0  0  0  0
  -26.4227  -30.7778   18.2288 C   0  0  0  0  0  0  0  0  0  0  0  0
  -29.2649  -12.9178   17.8336 C   0  0  0  0  0  0  0  0  0  0  0  0
  -26.3088  -29.5282   19.0963 C   0  0  0  0  0  0  0  0  0  0  0  0
  -27.9032  -12.5065   18.3904 C   0  0  0  0  0  0  0  0  0  0  0  0
  -31.8200  -16.8953   23.0757 C   0  0  0  0  0  0  0  0  0  0  0  0
  -29.6841  -17.5701   21.9073 C   0  0  0  0  0  0  0  0  0  0  0  0
  -30.3368  -12.9422   18.9187 C   0  0  0  0  0  0  0  0  0  0  0  0
  -31.3591  -15.4417   23.0080 C   0  0  0  0  0  0  0  0  0  0  0  0
  -29.2766  -16.0954   21.8386 C   0  0  0  0  0  0  0  0  0  0  0  0
  -28.6230  -13.3807   20.6487 C   0  0  0  0  0  0  0  0  0  0  0  0
  -27.4305  -29.4775   20.1406 C   0  0  1  0  0  0  0  0  0  0  0  0
  -30.3377  -27.5095   18.6886 C   0  0  1  0  0  0  0  0  0  0  0  0
  -27.5120  -13.3895   19.5878 C   0  0  2  0  0  0  0  0  0  0  0  0
  -30.6122  -17.8300   23.0920 C   0  0  0  0  0  0  0  0  0  0  0  0
  -34.8235  -23.2839   23.0951 C   0  0  0  0  0  0  0  0  0  0  0  0
  -30.4428  -24.4361   25.2207 C   0  0  0  0  0  0  0  0  0  0  0  0
  -32.9708  -21.2854   14.9031 C   0  0  0  0  0  0  0  0  0  0  0  0
  -27.6226  -23.8681   17.8351 C   0  0  0  0  0  0  0  0  0  0  0  0
  -28.7652  -21.8851   16.8200 C   0  0  0  0  0  0  0  0  0  0  0  0
  -28.3211  -23.9111   15.4342 C   0  0  0  0  0  0  0  0  0  0  0  0
  -35.0688  -23.9737   16.5905 C   0  0  0  0  0  0  0  0  0  0  0  0
  -31.4976  -19.7955   24.3535 C   0  0  0  0  0  0  0  0  0  0  0  0
  -30.1234  -23.9916   17.2054 C   0  0  1  0  0  0  0  0  0  0  0  0
  -33.2420  -22.6487   15.5200 C   0  0  2  0  0  0  0  0  0  0  0  0
  -28.7198  -23.4278   16.8456 C   0  0  0  0  0  0  0  0  0  0  0  0
  -25.8033  -11.6981   20.1370 N   0  0  0  0  0  0  0  0  0  0  0  0
  -31.0388  -22.1448   24.7577 N   0  0  0  0  0  0  0  0  0  0  0  0
  -26.1709  -12.9903   20.1747 N   0  0  0  0  0  0  0  0  0  0  0  0
  -30.4980  -26.0660   18.5018 N   0  0  0  0  0  0  0  0  0  0  0  0
  -29.9228  -13.7489   20.0669 N   0  0  0  0  0  0  0  0  0  0  0  0
  -30.4613  -15.2249   21.8718 N   0  0  0  0  0  0  0  0  0  0  0  0
  -25.4604  -15.1362   20.8822 N   0  0  0  0  0  0  0  0  0  0  0  0
  -22.0385  -12.4520   22.0995 N   0  0  0  0  0  0  0  0  0  0  0  0
  -28.6708  -29.0494   19.5299 N   0  0  0  0  0  0  0  0  0  0  0  0
  -31.1772  -23.6131   16.2702 N   0  0  0  0  0  0  0  0  0  0  0  0
  -31.0868  -19.2370   23.0376 N   0  3  0  0  0  0  0  0  0  0  0  0
  -34.6582  -22.6818   15.9828 N   0  3  0  0  0  0  0  0  0  0  0  0
  -22.7889  -14.6189   22.0789 O   0  0  0  0  0  0  0  0  0  0  0  0
  -28.3221  -26.7505   19.6561 O   0  0  0  0  0  0  0  0  0  0  0  0
  -29.8485  -26.1515   16.2641 O   0  0  0  0  0  0  0  0  0  0  0  0
  -32.5390  -22.5697   17.8302 O   0  0  0  0  0  0  0  0  0  0  0  0
  -32.0951  -14.4207   20.4565 O   0  0  0  0  0  0  0  0  0  0  0  0
  -21.7370   -6.9436   21.3238 O   0  0  0  0  0  0  0  0  0  0  0  0
  -32.9512  -25.1849   24.1180 O   0  0  0  0  0  0  0  0  0  1  0  0
  -19.3638   -5.9864   26.2080 F   0  0  0  0  0  0  0  0  0  0  0  0
  -22.4138   -4.7181   22.8176 F   0  0  0  0  0  0  0  0  0  0  0  0
  1  2  1  0  0  0  0
  1  5  2  0  0  0  0
  2  6  2  0  0  0  0
  3  8  2  0  0  0  0
  3 16  1  0  0  0  0
  4  9  1  0  0  0  0
  4 16  2  0  0  0  0
  5 18  1  0  0  0  0
  6 20  1  0  0  0  0
  7 10  2  0  0  0  0
  7 19  1  0  0  0  0
  8 23  1  0  0  0  0
  9 23  2  0  0  0  0
 10 24  1  0  0  0  0
 11 12  2  0  0  0  0
 11 25  1  0  0  0  0
 12 27  1  0  0  0  0
 13 21  1  0  0  0  0
 13 24  2  0  0  0  0
 14 22  2  0  0  0  0
 14 30  1  0  0  0  0
 15 27  2  0  0  0  0
 15 28  1  0  0  0  0
 16 29  1  0  0  0  0
 17 29  1  0  0  0  0
 17 32  2  0  0  0  0
 17 33  1  0  0  0  0
 18 20  2  0  0  0  0
 18 38  1  0  0  0  0
 19 21  2  0  0  0  0
 19 39  1  0  0  0  0
 20 51  1  0  0  0  0
 21 40  1  0  0  0  0
 22 26  1  0  0  0  0
 22 55  1  0  0  0  0
 23 83  1  0  0  0  0
 24 84  1  0  0  0  0
 25 28  2  0  0  0  0
 25 83  1  0  0  0  0
 26 31  2  0  0  0  0
 26 84  1  0  0  0  0
 27 85  1  0  0  0  0
 28 86  1  0  0  0  0
 29 66  2  0  0  0  0
 30 62  1  0  0  0  0
 30 67  2  0  0  0  0
 31 56  1  0  0  0  0
 31 67  1  0  0  0  0
 32 68  1  0  0  0  0
 32 72  1  0  0  0  0
 33 73  1  0  0  0  0
 33 78  2  0  0  0  0
 34 52  1  0  0  0  0
 34 74  1  0  0  0  0
 34 79  2  0  0  0  0
 35 63  1  0  0  0  0
 35 69  1  0  0  0  0
 35 80  2  0  0  0  0
 36 64  1  0  0  0  0
 36 75  1  0  0  0  0
 36 81  2  0  0  0  0
 37 70  1  0  0  0  0
 37 71  1  0  0  0  0
 37 82  2  0  0  0  0
 38 41  1  0  0  0  0
 39 52  1  0  0  0  0
 40 69  1  0  0  0  0
 41 43  1  0  0  0  0
 42 44  1  0  0  0  0
 42 47  1  0  0  0  0
 43 51  1  0  0  0  0
 44 53  1  0  0  0  0
 45 48  1  0  0  0  0
 45 54  1  0  0  0  0
 46 49  1  0  0  0  0
 46 54  1  0  0  0  0
 47 70  1  0  0  0  0
 48 71  1  0  0  0  0
 49 71  1  0  0  0  0
 50 53  1  0  0  0  0
 50 70  1  0  0  0  0
 51 74  1  0  0  0  0
 52 69  1  0  0  0  0
 53 68  1  0  0  0  0
 54 76  1  0  0  0  0
 57 64  1  0  0  0  0
 58 65  1  0  0  0  0
 59 65  1  0  0  0  0
 60 65  1  0  0  0  0
 61 77  1  0  0  0  0
 62 76  1  0  0  0  0
 63 65  1  0  0  0  0
 63 75  1  0  0  0  0
 64 77  1  0  0  0  0
 66 68  1  0  0  0  0
M  CHG  2  76   1  77   1
M  ISO  4  26 101  37 100  71 100  84 101
M  END
> <Batch ID>
0174

> <Smiles>
CNC(C)C(=O)NC(C(=O)N1Cc2cc([101O:1][101c:1]3c(C)cc(CNC4CC[100N:0]([100C:0](=O)N5CCCC(n6nc(-c7ccc(Oc8ccc(F)cc8F)cc7)c(C(N)=O)c6N)C5)CC4)nc3C)ccc2CC1C(=O)NC1CCCc2ccccc21)C(C)(C)C

> <Shape>
0.265

> <Color>
0.181

> <Negative vol penalty>
0.000

$$$$

  -OEChem-04052322453D

 87 97  0     1  0  0  0  0  0999 V2000
  -30.4483  -26.7892   16.4980 C   0  0  0  0  0  0  0  0  0  0  0  0
  -29.0776  -26.6418   16.6847 C   0  0  0  0  0  0  0  0  0  0  0  0
  -25.3570   -9.5938   23.1281 C   0  0  0  0  0  0  0  0  0  0  0  0
  -23.1292   -9.7773   22.2113 C   0  0  0  0  0  0  0  0  0  0  0  0
  -31.2482  -27.2453   17.5450 C   0  0  0  0  0  0  0  0  0  0  0  0
  -28.5062  -26.9494   17.9189 C   0  0  0  0  0  0  0  0  0  0  0  0
  -22.9688  -29.3698   18.9112 C   0  0  0  0  0  0  0  0  0  0  0  0
  -24.9416   -8.5262   23.9238 C   0  0  0  0  0  0  0  0  0  0  0  0
  -22.7138   -8.7096   23.0071 C   0  0  0  0  0  0  0  0  0  0  0  0
  -21.7456  -28.8006   19.2629 C   0  0  0  0  0  0  0  0  0  0  0  0
  -22.9375   -5.3379   22.9633 C   0  0  0  0  0  0  0  0  0  0  0  0
  -22.1559   -4.3504   22.3637 C   0  0  0  0  0  0  0  0  0  0  0  0
  -19.9195  -17.2303   19.9786 C   0  0  0  0  0  0  0  0  0  0  0  0
  -22.1825  -29.3083   21.5804 C   0  0  0  0  0  0  0  0  0  0  0  0
  -20.3741   -4.8104   23.9292 C   0  0  0  0  0  0  0  0  0  0  0  0
  -19.0829  -18.2585   19.6191 C   0  0  0  0  0  0  0  0  0  0  0  0
  -24.4507  -10.2194   22.2718 C   0  0  0  0  0  0  0  0  0  0  0  0
  -25.4094  -11.2568   20.1476 C   0  0  0  0  0  0  0  0  0  0  0  0
  -30.6849  -27.5678   18.7897 C   0  0  0  0  0  0  0  0  0  0  0  0
  -23.8143  -29.9036   19.8944 C   0  0  0  0  0  0  0  0  0  0  0  0
  -29.2995  -27.4089   18.9839 C   0  0  0  0  0  0  0  0  0  0  0  0
  -23.4147  -29.8860   21.2383 C   0  0  0  0  0  0  0  0  0  0  0  0
  -23.6201   -8.0841   23.8633 C   0  0  0  0  0  0  0  0  0  0  0  0
  -21.3536  -28.7672   20.5979 C   0  0  0  0  0  0  0  0  0  0  0  0
  -22.4375   -6.0616   24.0458 C   0  0  0  0  0  0  0  0  0  0  0  0
  -20.8741   -4.0867   22.8466 C   0  0  0  0  0  0  0  0  0  0  0  0
  -21.1558   -5.7978   24.5288 C   0  0  0  0  0  0  0  0  0  0  0  0
  -24.8791  -11.3227   21.4500 C   0  0  0  0  0  0  0  0  0  0  0  0
  -21.0415  -17.8693   20.5395 C   0  0  0  0  0  0  0  0  0  0  0  0
  -25.6550  -12.5654   19.8103 C   0  0  0  0  0  0  0  0  0  0  0  0
  -25.6576  -10.1149   19.3169 C   0  0  0  0  0  0  0  0  0  0  0  0
  -26.7502  -29.2512   20.9231 C   0  0  0  0  0  0  0  0  0  0  0  0
  -26.2997  -31.9244   22.7044 C   0  0  0  0  0  0  0  0  0  0  0  0
  -24.1116  -34.0844   24.1854 C   0  0  0  0  0  0  0  0  0  0  0  0
  -23.3139  -17.7563   21.6211 C   0  0  0  0  0  0  0  0  0  0  0  0
  -31.5966  -28.0121   19.9059 C   0  0  0  0  0  0  0  0  0  0  0  0
  -25.1185  -30.5381   19.4957 C   0  0  0  0  0  0  0  0  0  0  0  0
  -24.2769  -30.4639   22.3296 C   0  0  0  0  0  0  0  0  0  0  0  0
  -30.8596  -28.6731   21.0679 C   0  0  0  0  0  0  0  0  0  0  0  0
  -26.7397  -16.7977   21.7714 C   0  0  0  0  0  0  0  0  0  0  0  0
  -29.6366  -27.8506   21.4612 C   0  0  0  0  0  0  0  0  0  0  0  0
  -26.7000  -15.2797   21.5814 C   0  0  0  0  0  0  0  0  0  0  0  0
  -20.9638  -23.5946   20.6792 C   0  0  0  0  0  0  0  0  0  0  0  0
  -18.6873  -23.7392   19.6019 C   0  0  0  0  0  0  0  0  0  0  0  0
  -20.2055  -21.7016   19.1045 C   0  0  0  0  0  0  0  0  0  0  0  0
  -19.2897  -21.6270   21.0336 C   0  0  0  0  0  0  0  0  0  0  0  0
  -25.5537  -17.2974   22.5946 C   0  0  0  0  0  0  0  0  0  0  0  0
  -24.1959  -15.3579   21.9135 C   0  0  0  0  0  0  0  0  0  0  0  0
  -20.4978  -24.5439   21.7744 C   0  0  0  0  0  0  0  0  0  0  0  0
  -18.2380  -24.6985   20.6968 C   0  0  0  0  0  0  0  0  0  0  0  0
  -28.6389  -27.7558   20.3005 C   0  0  1  0  0  0  0  0  0  0  0  0
  -26.1309  -30.5897   20.6357 C   0  0  1  0  0  0  0  0  0  0  0  0
  -25.3354  -14.8155   21.0355 C   0  0  2  0  0  0  0  0  0  0  0  0
  -19.1801  -20.7354   19.7637 C   0  0  0  0  0  0  0  0  0  0  0  0
  -19.7798  -22.7969   20.1258 C   0  0  0  0  0  0  0  0  0  0  0  0
  -24.0415  -36.1529   25.6045 C   0  0  0  0  0  0  0  0  0  0  0  0
  -27.0424  -30.2653   25.1551 C   0  0  0  0  0  0  0  0  0  0  0  0
  -26.0525  -32.0648   26.5869 C   0  0  0  0  0  0  0  0  0  0  0  0
  -28.0090  -32.5716   25.1248 C   0  0  0  0  0  0  0  0  0  0  0  0
  -22.6730  -35.6093   22.0963 C   0  0  0  0  0  0  0  0  0  0  0  0
  -19.0299  -26.5122   22.2153 C   0  0  0  0  0  0  0  0  0  0  0  0
  -20.0739  -27.6111   22.2356 C   0  0  0  0  0  0  0  0  0  1  0  0
  -25.7370  -32.2135   24.0751 C   0  0  1  0  0  0  0  0  0  0  0  0
  -24.0388  -35.6007   24.1876 C   0  0  2  0  0  0  0  0  0  0  0  0
  -26.6946  -31.7661   25.2154 C   0  0  0  0  0  0  0  0  0  0  0  0
  -24.7927  -12.5741   21.9089 N   0  0  0  0  0  0  0  0  0  0  0  0
  -20.9310  -19.2004   20.5385 N   0  0  0  0  0  0  0  0  0  0  0  0
  -19.7296  -19.4062   19.9724 N   0  0  0  0  0  0  0  0  0  0  0  0
  -25.2721  -13.3066   20.8893 N   0  0  0  0  0  0  0  0  0  0  0  0
  -25.5458  -31.0675   21.8901 N   0  0  0  0  0  0  0  0  0  0  0  0
  -24.2952  -16.8223   22.0157 N   0  0  0  0  0  0  0  0  0  0  0  0
  -26.1591  -13.1429   18.6991 N   0  0  0  0  0  0  0  0  0  0  0  0
  -25.3473   -8.8436   19.8186 N   0  0  0  0  0  0  0  0  0  0  0  0
  -22.1731  -17.1892   21.0540 N   0  0  0  0  0  0  0  0  0  0  0  0
  -27.8849  -28.9852   20.1805 N   0  0  0  0  0  0  0  0  0  0  0  0
  -25.4120  -33.6356   24.0913 N   0  0  0  0  0  0  0  0  0  0  0  0
  -19.4287  -25.4754   21.2303 N   0  3  0  0  0  0  0  0  0  0  0  0
  -22.7956  -36.0606   23.5064 N   0  3  0  0  0  0  0  0  0  0  0  0
  -26.1557  -10.2176   18.1702 O   0  0  0  0  0  0  0  0  0  0  0  0
  -26.2376  -28.5149   21.7578 O   0  0  0  0  0  0  0  0  0  0  0  0
  -27.3653  -32.4456   22.3660 O   0  0  0  0  0  0  0  0  0  0  0  0
  -23.1148  -33.3696   24.2634 O   0  0  0  0  0  0  0  0  0  0  0  0
  -23.4853  -18.9712   21.7500 O   0  0  0  0  0  0  0  0  0  0  0  0
  -23.2145   -7.0422   24.6395 O   0  0  0  0  0  0  0  0  0  0  0  0
  -20.1605  -28.2116   20.9440 O   0  0  0  0  0  0  0  0  0  1  0  0
  -20.1230   -3.1394   22.2698 F   0  0  0  0  0  0  0  0  0  0  0  0
  -20.6695   -6.4906   25.5677 F   0  0  0  0  0  0  0  0  0  0  0  0
  1  2  1  0  0  0  0
  1  5  2  0  0  0  0
  2  6  2  0  0  0  0
  3  8  2  0  0  0  0
  3 17  1  0  0  0  0
  4  9  1  0  0  0  0
  4 17  2  0  0  0  0
  5 19  1  0  0  0  0
  6 21  1  0  0  0  0
  7 10  2  0  0  0  0
  7 20  1  0  0  0  0
  8 23  1  0  0  0  0
  9 23  2  0  0  0  0
 10 24  1  0  0  0  0
 11 12  2  0  0  0  0
 11 25  1  0  0  0  0
 12 26  1  0  0  0  0
 13 16  2  0  0  0  0
 13 29  1  0  0  0  0
 14 22  1  0  0  0  0
 14 24  2  0  0  0  0
 15 26  2  0  0  0  0
 15 27  1  0  0  0  0
 16 68  1  0  0  0  0
 17 28  1  0  0  0  0
 18 28  1  0  0  0  0
 18 30  2  0  0  0  0
 18 31  1  0  0  0  0
 19 21  2  0  0  0  0
 19 36  1  0  0  0  0
 20 22  2  0  0  0  0
 20 37  1  0  0  0  0
 21 51  1  0  0  0  0
 22 38  1  0  0  0  0
 23 84  1  0  0  0  0
 24 85  1  0  0  0  0
 25 27  2  0  0  0  0
 25 84  1  0  0  0  0
 26 86  1  0  0  0  0
 27 87  1  0  0  0  0
 28 66  2  0  0  0  0
 29 67  2  0  0  0  0
 29 74  1  0  0  0  0
 30 69  1  0  0  0  0
 30 72  1  0  0  0  0
 31 73  1  0  0  0  0
 31 79  2  0  0  0  0
 32 52  1  0  0  0  0
 32 75  1  0  0  0  0
 32 80  2  0  0  0  0
 33 63  1  0  0  0  0
 33 70  1  0  0  0  0
 33 81  2  0  0  0  0
 34 64  1  0  0  0  0
 34 76  1  0  0  0  0
 34 82  2  0  0  0  0
 35 71  1  0  0  0  0
 35 74  1  0  0  0  0
 35 83  2  0  0  0  0
 36 39  1  0  0  0  0
 37 52  1  0  0  0  0
 38 70  1  0  0  0  0
 39 41  1  0  0  0  0
 40 42  1  0  0  0  0
 40 47  1  0  0  0  0
 41 51  1  0  0  0  0
 42 53  1  0  0  0  0
 43 49  1  0  0  0  0
 43 55  1  0  0  0  0
 44 50  1  0  0  0  0
 44 55  1  0  0  0  0
 45 54  1  0  0  0  0
 45 55  1  0  0  0  0
 46 54  1  0  0  0  0
 46 55  1  0  0  0  0
 47 71  1  0  0  0  0
 48 53  1  0  0  0  0
 48 71  1  0  0  0  0
 49 77  1  0  0  0  0
 50 77  1  0  0  0  0
 51 75  1  0  0  0  0
 52 70  1  0  0  0  0
 53 69  1  0  0  0  0
 54 68  1  0  0  0  0
 56 64  1  0  0  0  0
 57 65  1  0  0  0  0
 58 65  1  0  0  0  0
 59 65  1  0  0  0  0
 60 78  1  0  0  0  0
 61 62  1  0  0  0  0
 61 77  1  0  0  0  0
 62 85  1  0  0  0  0
 63 65  1  0  0  0  0
 63 76  1  0  0  0  0
 64 78  1  0  0  0  0
 66 69  1  0  0  0  0
 67 68  1  0  0  0  0
M  CHG  2  77   1  78   1
M  ISO  4  35 100  62 101  74 100  85 101
M  END
> <Batch ID>
0174

> <Smiles>
CNC(C)C(=O)NC(C(=O)N1Cc2cc([101O:1][101CH2:1]CN3CCC4(CC3)CC(n3ccc([100NH:0][100C:0](=O)N5CCCC(n6nc(-c7ccc(Oc8ccc(F)cc8F)cc7)c(C(N)=O)c6N)C5)n3)C4)ccc2CC1C(=O)NC1CCCc2ccccc21)C(C)(C)C

> <Shape>
0.279

> <Color>
0.084

> <Negative vol penalty>
0.000

$$$$

  -OEChem-04052322453D

 85 95  0     1  0  0  0  0  0999 V2000
  -29.4123  -31.9050   17.7493 C   0  0  0  0  0  0  0  0  0  0  0  0
  -29.3632  -30.8998   16.7889 C   0  0  0  0  0  0  0  0  0  0  0  0
  -23.2899   -9.7905   19.9121 C   0  0  0  0  0  0  0  0  0  0  0  0
  -23.7164   -9.9394   22.2855 C   0  0  0  0  0  0  0  0  0  0  0  0
  -30.3502  -31.8388   18.7788 C   0  0  0  0  0  0  0  0  0  0  0  0
  -30.2528  -29.8281   16.8567 C   0  0  0  0  0  0  0  0  0  0  0  0
  -29.1447  -24.0175   15.2711 C   0  0  0  0  0  0  0  0  0  0  0  0
  -29.6000  -18.4985   13.2641 C   0  0  0  0  0  0  0  0  0  0  0  0
  -22.5592   -8.6202   20.1168 C   0  0  0  0  0  0  0  0  0  0  0  0
  -22.9857   -8.7690   22.4902 C   0  0  0  0  0  0  0  0  0  0  0  0
  -29.4319  -23.2889   14.1176 C   0  0  0  0  0  0  0  0  0  0  0  0
  -23.2011   -5.3467   20.6614 C   0  0  0  0  0  0  0  0  0  0  0  0
  -23.4366   -4.2771   19.7975 C   0  0  0  0  0  0  0  0  0  0  0  0
  -29.9473  -17.4521   14.1111 C   0  0  0  0  0  0  0  0  0  0  0  0
  -31.4294  -22.4316   15.1637 C   0  0  0  0  0  0  0  0  0  0  0  0
  -21.1216   -4.3246   19.1077 C   0  0  0  0  0  0  0  0  0  0  0  0
  -23.8686  -10.4501   20.9964 C   0  0  0  0  0  0  0  0  0  0  0  0
  -24.1347  -12.9789   20.7909 C   0  0  0  0  0  0  0  0  0  0  0  0
  -31.2454  -30.7608   18.8648 C   0  0  0  0  0  0  0  0  0  0  0  0
  -30.0049  -23.9671   16.3774 C   0  0  0  0  0  0  0  0  0  0  0  0
  -31.2045  -29.7481   17.8876 C   0  0  0  0  0  0  0  0  0  0  0  0
  -31.1496  -23.1585   16.3309 C   0  0  0  0  0  0  0  0  0  0  0  0
  -30.5082  -18.9442   12.3102 C   0  0  0  0  0  0  0  0  0  0  0  0
  -22.4071   -8.1094   21.4058 C   0  0  0  0  0  0  0  0  0  0  0  0
  -30.5759  -22.4981   14.0627 C   0  0  0  0  0  0  0  0  0  0  0  0
  -21.9259   -5.9052   20.7485 C   0  0  0  0  0  0  0  0  0  0  0  0
  -22.3968   -3.7661   19.0207 C   0  0  0  0  0  0  0  0  0  0  0  0
  -20.8862   -5.3942   19.9716 C   0  0  0  0  0  0  0  0  0  0  0  0
  -24.6239  -11.6589   20.7855 C   0  0  0  0  0  0  0  0  0  0  0  0
  -31.2051  -16.8895   13.9650 C   0  0  0  0  0  0  0  0  0  0  0  0
  -31.7410  -18.3150   12.2449 C   0  0  0  0  0  0  0  0  0  0  0  0
  -25.2403  -13.7558   20.5443 C   0  0  0  0  0  0  0  0  0  0  0  0
  -22.8003  -13.4598   21.0000 C   0  0  0  0  0  0  0  0  0  0  0  0
  -31.7658  -26.0965   17.9485 C   0  0  0  0  0  0  0  0  0  0  0  0
  -32.2926  -23.6018   19.9538 C   0  0  0  0  0  0  0  0  0  0  0  0
  -32.3923  -20.2209   20.4081 C   0  0  0  0  0  0  0  0  0  0  0  0
  -29.7286  -14.7234   17.4995 C   0  0  0  0  0  0  0  0  0  0  0  0
  -32.2728  -30.7568   19.9689 C   0  0  0  0  0  0  0  0  0  0  0  0
  -29.6670  -24.7380   17.6239 C   0  0  0  0  0  0  0  0  0  0  0  0
  -32.0947  -23.0541   17.4990 C   0  0  0  0  0  0  0  0  0  0  0  0
  -32.9321  -29.3967   20.1825 C   0  0  0  0  0  0  0  0  0  0  0  0
  -30.1464  -12.6005   20.4881 C   0  0  0  0  0  0  0  0  0  0  0  0
  -33.3515  -28.7911   18.8468 C   0  0  0  0  0  0  0  0  0  0  0  0
  -34.2086  -18.5232   11.5091 C   0  0  0  0  0  0  0  0  0  0  0  0
  -33.6568  -19.9131   11.5710 C   0  0  0  0  0  0  0  0  0  0  0  0
  -28.6967  -12.2353   20.7935 C   0  0  0  0  0  0  0  0  0  0  0  0
  -32.8664  -15.8802   15.6663 C   0  0  0  0  0  0  0  0  0  0  0  0
  -30.3980  -12.7428   18.9876 C   0  0  0  0  0  0  0  0  0  0  0  0
  -28.0181  -13.3321   18.6228 C   0  0  0  0  0  0  0  0  0  0  0  0
  -32.1363  -28.5569   17.9413 C   0  0  1  0  0  0  0  0  0  0  0  0
  -31.5990  -15.7653   14.8634 C   0  0  1  0  0  0  0  0  0  0  0  0
  -32.7484  -18.7615   11.2353 C   0  0  0  0  0  0  0  0  0  0  0  0
  -30.8826  -25.0149   18.5032 C   0  0  1  0  0  0  0  0  0  0  0  0
  -27.7347  -13.2324   20.1295 C   0  0  1  0  0  0  0  0  0  0  0  0
  -31.5389  -15.9701   16.3591 C   0  0  1  0  0  0  0  0  0  0  0  0
  -32.8924  -18.4807   22.1457 C   0  0  0  0  0  0  0  0  0  0  0  0
  -35.2803  -24.1093   19.5987 C   0  0  0  0  0  0  0  0  0  0  0  0
  -35.7089  -21.8317   20.5458 C   0  0  0  0  0  0  0  0  0  0  0  0
  -34.5850  -23.5687   21.9393 C   0  0  0  0  0  0  0  0  0  0  0  0
  -29.6436  -19.1319   20.2756 C   0  0  0  0  0  0  0  0  0  0  0  0
  -30.1339  -20.0805   11.3898 C   0  0  0  0  0  0  0  0  0  0  0  0
  -29.7519  -21.3436   12.1538 C   0  0  0  0  0  0  0  0  0  1  0  0
  -33.3145  -22.4936   20.0361 C   0  0  1  0  0  0  0  0  0  0  0  0
  -31.8139  -19.3331   21.4953 C   0  0  2  0  0  0  0  0  0  0  0  0
  -34.7056  -23.0041   20.5071 C   0  0  0  0  0  0  0  0  0  0  0  0
  -25.9379  -11.5969   20.5538 N   0  0  0  0  0  0  0  0  0  0  0  0
  -32.1141  -17.2955   13.0504 N   0  0  0  0  0  0  0  0  0  0  0  0
  -26.2837  -12.8876   20.4112 N   0  0  0  0  0  0  0  0  0  0  0  0
  -31.7242  -23.8317   18.6929 N   0  0  0  0  0  0  0  0  0  0  0  0
  -29.4265  -13.6523   18.3598 N   0  0  0  0  0  0  0  0  0  0  0  0
  -25.4118  -15.0899   20.4305 N   0  0  0  0  0  0  0  0  0  0  0  0
  -21.7835  -12.5257   21.2406 N   0  0  0  0  0  0  0  0  0  0  0  0
  -31.4185  -27.3705   18.3556 N   0  0  0  0  0  0  0  0  0  0  0  0
  -32.7338  -21.4656   20.8931 N   0  0  0  0  0  0  0  0  0  0  0  0
  -31.0777  -14.9189   17.2261 N   0  0  0  0  0  0  0  0  0  0  0  0
  -30.7773  -18.4261   20.9265 N   0  3  0  0  0  0  0  0  0  0  0  0
  -22.5151  -14.6806   20.9581 O   0  0  0  0  0  0  0  0  0  0  0  0
  -32.6947  -25.7972   17.2073 O   0  0  0  0  0  0  0  0  0  0  0  0
  -32.0040  -24.2351   20.9722 O   0  0  0  0  0  0  0  0  0  0  0  0
  -32.5310  -19.8462   19.2459 O   0  0  0  0  0  0  0  0  0  0  0  0
  -28.8602  -15.4508   17.0051 O   0  0  0  0  0  0  0  0  0  0  0  0
  -21.6939   -6.9675   21.6060 O   0  0  0  0  0  0  0  0  0  0  0  0
  -30.8589  -21.7864   12.9379 O   0  0  0  0  0  0  0  0  0  1  0  0
  -22.6234   -2.7400   18.1901 F   0  0  0  0  0  0  0  0  0  0  0  0
  -19.6592   -5.9274   20.0501 F   0  0  0  0  0  0  0  0  0  0  0  0
  1  2  1  0  0  0  0
  1  5  2  0  0  0  0
  2  6  2  0  0  0  0
  3  9  2  0  0  0  0
  3 17  1  0  0  0  0
  4 10  1  0  0  0  0
  4 17  2  0  0  0  0
  5 19  1  0  0  0  0
  6 21  1  0  0  0  0
  7 11  2  0  0  0  0
  7 20  1  0  0  0  0
  8 14  2  0  0  0  0
  8 23  1  0  0  0  0
  9 24  1  0  0  0  0
 10 24  2  0  0  0  0
 11 25  1  0  0  0  0
 12 13  2  0  0  0  0
 12 26  1  0  0  0  0
 13 27  1  0  0  0  0
 14 30  1  0  0  0  0
 15 22  1  0  0  0  0
 15 25  2  0  0  0  0
 16 27  2  0  0  0  0
 16 28  1  0  0  0  0
 17 29  1  0  0  0  0
 18 29  1  0  0  0  0
 18 32  2  0  0  0  0
 18 33  1  0  0  0  0
 19 21  2  0  0  0  0
 19 38  1  0  0  0  0
 20 22  2  0  0  0  0
 20 39  1  0  0  0  0
 21 50  1  0  0  0  0
 22 40  1  0  0  0  0
 23 31  2  0  0  0  0
 23 61  1  0  0  0  0
 24 82  1  0  0  0  0
 25 83  1  0  0  0  0
 26 28  2  0  0  0  0
 26 82  1  0  0  0  0
 27 84  1  0  0  0  0
 28 85  1  0  0  0  0
 29 66  2  0  0  0  0
 30 51  1  0  0  0  0
 30 67  2  0  0  0  0
 31 52  1  0  0  0  0
 31 67  1  0  0  0  0
 32 68  1  0  0  0  0
 32 71  1  0  0  0  0
 33 72  1  0  0  0  0
 33 77  2  0  0  0  0
 34 53  1  0  0  0  0
 34 73  1  0  0  0  0
 34 78  2  0  0  0  0
 35 63  1  0  0  0  0
 35 69  1  0  0  0  0
 35 79  2  0  0  0  0
 36 64  1  0  0  0  0
 36 74  1  0  0  0  0
 36 80  2  0  0  0  0
 37 70  1  0  0  0  0
 37 75  1  0  0  0  0
 37 81  2  0  0  0  0
 38 41  1  0  0  0  0
 39 53  1  0  0  0  0
 40 69  1  0  0  0  0
 41 43  1  0  0  0  0
 42 46  1  0  0  0  0
 42 48  1  0  0  0  0
 43 50  1  0  0  0  0
 44 45  1  0  0  0  0
 44 52  1  0  0  0  0
 45 52  1  0  0  0  0
 46 54  1  0  0  0  0
 47 51  1  0  0  0  0
 47 55  1  0  0  0  0
 48 70  1  0  0  0  0
 49 54  1  0  0  0  0
 49 70  1  0  0  0  0
 50 73  1  0  0  0  0
 51 55  1  0  0  0  0
 53 69  1  0  0  0  0
 54 68  1  0  0  0  0
 55 75  1  0  0  0  0
 56 64  1  0  0  0  0
 57 65  1  0  0  0  0
 58 65  1  0  0  0  0
 59 65  1  0  0  0  0
 60 76  1  0  0  0  0
 61 62  1  0  0  0  0
 62 83  1  0  0  0  0
 63 65  1  0  0  0  0
 63 74  1  0  0  0  0
 64 76  1  0  0  0  0
 66 68  1  0  0  0  0
M  CHG  1  76   1
M  ISO  4  37 100  62 101  75 100  83 101
M  END
> <Batch ID>
0174

> <Smiles>
CNC(C)C(=O)NC(C(=O)N1Cc2cc([101O:1][101CH2:1]Cc3ccc(C4CC4[100NH:0][100C:0](=O)N4CCCC(n5nc(-c6ccc(Oc7ccc(F)cc7F)cc6)c(C(N)=O)c5N)C4)nc3C3CC3)ccc2CC1C(=O)NC1CCCc2ccccc21)C(C)(C)C

> <Shape>
0.161

> <Color>
0.177

> <Negative vol penalty>
0.000

$$$$

  -OEChem-04052322453D

 95105  0     1  0  0  0  0  0999 V2000
  -29.0613  -32.6370   25.2912 C   0  0  0  0  0  0  0  0  0  0  0  0
  -28.9762  -31.4512   24.5687 C   0  0  0  0  0  0  0  0  0  0  0  0
  -23.3803  -15.8626   20.2556 C   0  0  0  0  0  0  0  0  0  0  0  0
  -23.1703  -14.1114   18.6045 C   0  0  0  0  0  0  0  0  0  0  0  0
  -27.9379  -33.1307   25.9533 C   0  0  0  0  0  0  0  0  0  0  0  0
  -27.7679  -30.7577   24.5089 C   0  0  0  0  0  0  0  0  0  0  0  0
  -26.6675  -29.1729   19.8267 C   0  0  0  0  0  0  0  0  0  0  0  0
  -22.4460  -16.6302   19.5604 C   0  0  0  0  0  0  0  0  0  0  0  0
  -22.2359  -14.8789   17.9093 C   0  0  0  0  0  0  0  0  0  0  0  0
  -27.3333  -28.0381   19.3657 C   0  0  0  0  0  0  0  0  0  0  0  0
  -18.9541  -15.6425   18.1689 C   0  0  0  0  0  0  0  0  0  0  0  0
  -17.8002  -15.0029   17.7164 C   0  0  0  0  0  0  0  0  0  0  0  0
  -25.3927  -26.6993   19.8764 C   0  0  0  0  0  0  0  0  0  0  0  0
  -18.3703  -15.5838   15.4416 C   0  0  0  0  0  0  0  0  0  0  0  0
  -23.7425  -14.6032   19.7777 C   0  0  0  0  0  0  0  0  0  0  0  0
  -24.4506  -12.8769   21.5173 C   0  0  0  0  0  0  0  0  0  0  0  0
  -26.7128  -32.4480   25.8935 C   0  0  0  0  0  0  0  0  0  0  0  0
  -25.3609  -29.0774   20.3271 C   0  0  0  0  0  0  0  0  0  0  0  0
  -26.6275  -31.2420   25.1719 C   0  0  0  0  0  0  0  0  0  0  0  0
  -24.7115  -27.8348   20.3409 C   0  0  0  0  0  0  0  0  0  0  0  0
  -32.3926  -22.5299   22.4347 C   0  0  0  0  0  0  0  0  0  0  0  0
  -30.4249  -22.1087   21.1174 C   0  0  0  0  0  0  0  0  0  0  0  0
  -21.8737  -16.1383   18.3872 C   0  0  0  0  0  0  0  0  0  0  0  0
  -26.6970  -26.8005   19.3932 C   0  0  0  0  0  0  0  0  0  0  0  0
  -19.8162  -16.2530   17.2578 C   0  0  0  0  0  0  0  0  0  0  0  0
  -31.0336  -22.7182   22.2088 C   0  0  0  0  0  0  0  0  0  0  0  0
  -17.5083  -14.9734   16.3527 C   0  0  0  0  0  0  0  0  0  0  0  0
  -19.5243  -16.2235   15.8942 C   0  0  0  0  0  0  0  0  0  0  0  0
  -24.7081  -13.8100   20.4951 C   0  0  0  0  0  0  0  0  0  0  0  0
  -33.0928  -21.7292   21.5468 C   0  0  0  0  0  0  0  0  0  0  0  0
  -31.2132  -21.3269   20.2884 C   0  0  0  0  0  0  0  0  0  0  0  0
  -25.6901  -12.3986   21.8657 C   0  0  0  0  0  0  0  0  0  0  0  0
  -23.2027  -12.4781   22.0997 C   0  0  0  0  0  0  0  0  0  0  0  0
  -23.9874  -29.6488   23.1361 C   0  0  0  0  0  0  0  0  0  0  0  0
  -21.2625  -29.0211   21.4920 C   0  0  0  0  0  0  0  0  0  0  0  0
  -19.7727  -27.4954   18.8275 C   0  0  0  0  0  0  0  0  0  0  0  0
  -28.5980  -15.5719   18.6043 C   0  0  0  0  0  0  0  0  0  0  0  0
  -25.5381  -32.9959   26.6646 C   0  0  0  0  0  0  0  0  0  0  0  0
  -24.6467  -30.3154   20.7958 C   0  0  0  0  0  0  0  0  0  0  0  0
  -23.3020  -27.6822   20.8493 C   0  0  0  0  0  0  0  0  0  0  0  0
  -24.1992  -32.3966   26.2419 C   0  0  0  0  0  0  0  0  0  0  0  0
  -28.6858  -12.0592   18.6904 C   0  0  0  0  0  0  0  0  0  0  0  0
  -33.8286  -22.3084   24.5707 C   0  0  0  0  0  0  0  0  0  0  0  0
  -32.5309  -22.9291   24.9842 C   0  0  0  0  0  0  0  0  0  0  0  0
  -24.3049  -30.8790   26.1307 C   0  0  0  0  0  0  0  0  0  0  0  0
  -28.5392  -11.7011   20.1668 C   0  0  0  0  0  0  0  0  0  0  0  0
  -29.5579  -13.2938   18.5146 C   0  0  0  0  0  0  0  0  0  0  0  0
  -29.7640  -17.0959   20.2538 C   0  0  0  0  0  0  0  0  0  0  0  0
  -28.8677  -14.1845   20.7234 C   0  0  0  0  0  0  0  0  0  0  0  0
  -30.6435  -18.2537   19.8005 C   0  0  0  0  0  0  0  0  0  0  0  0
  -28.7775  -19.1117   18.3858 C   0  0  0  0  0  0  0  0  0  0  0  0
  -33.0694  -23.1726   23.5993 C   0  0  0  0  0  0  0  0  0  0  0  0
  -25.3281  -30.4740   25.0628 C   0  0  1  0  0  0  0  0  0  0  0  0
  -23.5043  -30.0166   21.7617 C   0  0  1  0  0  0  0  0  0  0  0  0
  -28.0942  -12.8854   21.0427 C   0  0  1  0  0  0  0  0  0  0  0  0
  -27.8941  -17.9441   18.8278 C   0  0  2  0  0  0  0  0  0  0  0  0
  -34.5552  -21.4897   21.7368 C   0  0  0  0  0  0  0  0  0  0  0  0
  -26.8835  -18.3419   19.9078 C   0  0  0  0  0  0  0  0  0  0  0  0
  -28.0760  -21.8324   22.0113 C   0  0  0  0  0  0  0  0  0  0  0  0
  -17.5266  -27.1295   17.7698 C   0  0  0  0  0  0  0  0  0  0  0  0
  -20.5889  -26.9619   23.6405 C   0  0  0  0  0  0  0  0  0  0  0  0
  -18.8897  -25.9912   22.0788 C   0  0  0  0  0  0  0  0  0  0  0  0
  -18.6497  -28.3431   22.8748 C   0  0  0  0  0  0  0  0  0  0  0  0
  -20.5974  -28.8550   16.3314 C   0  0  0  0  0  0  0  0  0  0  0  0
  -30.6952  -24.8596   23.1866 C   0  0  0  0  0  0  0  0  0  0  0  0
  -30.6120  -20.6437   19.0956 C   0  0  0  0  0  0  0  0  0  0  0  0
  -29.2354  -24.2465   19.3159 C   0  0  0  0  0  0  0  0  0  0  0  0
  -28.7643  -25.6677   19.0785 C   0  0  0  0  0  0  0  0  0  1  0  0
  -28.9689  -22.2956   20.8527 C   0  0  1  0  0  0  0  0  0  0  0  0
  -20.4543  -27.7809   21.1957 C   0  0  1  0  0  0  0  0  0  0  0  0
  -18.7705  -28.0035   17.8067 C   0  0  2  0  0  0  0  0  0  0  0  0
  -19.6729  -27.2715   22.4396 C   0  0  0  0  0  0  0  0  0  0  0  0
  -26.0089  -13.9197   20.2127 N   0  0  0  0  0  0  0  0  0  0  0  0
  -32.5361  -21.1206   20.4756 N   0  0  0  0  0  0  0  0  0  0  0  0
  -26.5800  -13.0493   21.0626 N   0  0  0  0  0  0  0  0  0  0  0  0
  -22.6481  -28.9209   21.3027 N   0  0  0  0  0  0  0  0  0  0  0  0
  -29.0432  -14.4258   19.2833 N   0  0  0  0  0  0  0  0  0  0  0  0
  -28.7067  -16.7999   19.2761 N   0  0  0  0  0  0  0  0  0  0  0  0
  -26.0947  -11.4893   22.7777 N   0  0  0  0  0  0  0  0  0  0  0  0
  -22.0242  -13.0690   21.6239 N   0  0  0  0  0  0  0  0  0  0  0  0
  -24.7622  -30.6212   23.7390 N   0  0  0  0  0  0  0  0  0  0  0  0
  -19.6095  -28.1078   20.0520 N   0  0  0  0  0  0  0  0  0  0  0  0
  -29.7833  -19.4429   19.4600 N   0  3  2  0  0  0  0  0  0  0  0  0
  -19.3777  -28.0145   16.4457 N   0  3  0  0  0  0  0  0  0  0  0  0
  -28.5966  -23.7185   20.5426 N   0  3  0  0  0  0  0  0  0  0  0  0
  -23.1361  -11.6351   23.0262 O   0  0  0  0  0  0  0  0  0  0  0  0
  -23.6787  -28.5638   23.6147 O   0  0  0  0  0  0  0  0  0  0  0  0
  -20.6848  -30.0432   21.8704 O   0  0  0  0  0  0  0  0  0  0  0  0
  -20.6135  -26.6381   18.5658 O   0  0  0  0  0  0  0  0  0  0  0  0
  -28.1139  -15.4994   17.4675 O   0  0  0  0  0  0  0  0  0  0  0  0
  -20.9618  -16.8870   17.7086 O   0  0  0  0  0  0  0  0  0  0  0  0
  -30.2993  -23.4964   23.0543 O   0  0  0  0  0  0  0  0  0  0  0  0
  -27.3495  -25.6832   18.9412 O   0  0  0  0  0  0  0  0  0  1  0  0
  -16.4010  -14.3578   15.9181 F   0  0  0  0  0  0  0  0  0  0  0  0
  -20.3492  -16.8072   15.0140 F   0  0  0  0  0  0  0  0  0  0  0  0
  1  2  1  0  0  0  0
  1  5  2  0  0  0  0
  2  6  2  0  0  0  0
  3  8  2  0  0  0  0
  3 15  1  0  0  0  0
  4  9  1  0  0  0  0
  4 15  2  0  0  0  0
  5 17  1  0  0  0  0
  6 19  1  0  0  0  0
  7 10  2  0  0  0  0
  7 18  1  0  0  0  0
  8 23  1  0  0  0  0
  9 23  2  0  0  0  0
 10 24  1  0  0  0  0
 11 12  2  0  0  0  0
 11 25  1  0  0  0  0
 12 27  1  0  0  0  0
 13 20  1  0  0  0  0
 13 24  2  0  0  0  0
 14 27  2  0  0  0  0
 14 28  1  0  0  0  0
 15 29  1  0  0  0  0
 16 29  1  0  0  0  0
 16 32  2  0  0  0  0
 16 33  1  0  0  0  0
 17 19  2  0  0  0  0
 17 38  1  0  0  0  0
 18 20  2  0  0  0  0
 18 39  1  0  0  0  0
 19 53  1  0  0  0  0
 20 40  1  0  0  0  0
 21 26  1  0  0  0  0
 21 30  2  0  0  0  0
 21 52  1  0  0  0  0
 22 26  2  0  0  0  0
 22 31  1  0  0  0  0
 22 69  1  0  0  0  0
 23 91  1  0  0  0  0
 24 93  1  0  0  0  0
 25 28  2  0  0  0  0
 25 91  1  0  0  0  0
 26 92  1  0  0  0  0
 27 94  1  0  0  0  0
 28 95  1  0  0  0  0
 29 73  2  0  0  0  0
 30 57  1  0  0  0  0
 30 74  1  0  0  0  0
 31 66  1  0  0  0  0
 31 74  2  0  0  0  0
 32 75  1  0  0  0  0
 32 79  1  0  0  0  0
 33 80  1  0  0  0  0
 33 86  2  0  0  0  0
 34 54  1  0  0  0  0
 34 81  1  0  0  0  0
 34 87  2  0  0  0  0
 35 70  1  0  0  0  0
 35 76  1  0  0  0  0
 35 88  2  0  0  0  0
 36 71  1  0  0  0  0
 36 82  1  0  0  0  0
 36 89  2  0  0  0  0
 37 77  1  0  0  0  0
 37 78  1  0  0  0  0
 37 90  2  0  0  0  0
 38 41  1  0  0  0  0
 39 54  1  0  0  0  0
 40 76  1  0  0  0  0
 41 45  1  0  0  0  0
 42 46  1  0  0  0  0
 42 47  1  0  0  0  0
 43 44  1  0  0  0  0
 43 52  1  0  0  0  0
 44 52  1  0  0  0  0
 45 53  1  0  0  0  0
 46 55  1  0  0  0  0
 47 77  1  0  0  0  0
 48 50  1  0  0  0  0
 48 78  1  0  0  0  0
 49 55  1  0  0  0  0
 49 77  1  0  0  0  0
 50 83  1  0  0  0  0
 51 56  1  0  0  0  0
 51 83  1  0  0  0  0
 53 81  1  0  0  0  0
 54 76  1  0  0  0  0
 55 75  1  0  0  0  0
 56 58  1  0  0  0  0
 56 78  1  0  0  0  0
 59 69  1  0  0  0  0
 60 71  1  0  0  0  0
 61 72  1  0  0  0  0
 62 72  1  0  0  0  0
 63 72  1  0  0  0  0
 64 84  1  0  0  0  0
 65 92  1  0  0  0  0
 66 83  1  0  0  0  0
 67 68  1  0  0  0  0
 67 85  1  0  0  0  0
 68 93  1  0  0  0  0
 69 85  1  0  0  0  0
 70 72  1  0  0  0  0
 70 82  1  0  0  0  0
 71 84  1  0  0  0  0
 73 75  1  0  0  0  0
M  CHG  3  83   1  84   1  85   1
M  ISO  4  37 100  68 101  78 100  93 101
M  END
> <Batch ID>
0174

> <Smiles>
CNC(C)C(=O)NC(C(=O)N1Cc2cc([101O:1][101CH2:1]CNC(C)c3c(CN4CC[100N:0]([100C:0](=O)N5CCCC(n6nc(-c7ccc(Oc8ccc(F)cc8F)cc7)c(C(N)=O)c6N)C5)C(C)C4)nc(C)c(C4CC4)c3OC)ccc2CC1C(=O)NC1CCCc2ccccc21)C(C)(C)C

> <Shape>
0.302

> <Color>
0.076

> <Negative vol penalty>
0.000

$$$$

  -OEChem-04052322453D

 86 95  0     1  0  0  0  0  0999 V2000
  -22.5652  -19.5133   24.4851 C   0  0  0  0  0  0  0  0  0  0  0  0
  -23.0076  -20.4499   23.5564 C   0  0  0  0  0  0  0  0  0  0  0  0
  -25.9796  -18.8394   19.9677 C   0  0  0  0  0  0  0  0  0  0  0  0
  -28.1112  -17.7051   19.8870 C   0  0  0  0  0  0  0  0  0  0  0  0
  -21.5137  -19.8285   25.3446 C   0  0  0  0  0  0  0  0  0  0  0  0
  -22.3978  -21.7019   23.4859 C   0  0  0  0  0  0  0  0  0  0  0  0
  -25.7519  -25.4788   23.1258 C   0  0  0  0  0  0  0  0  0  0  0  0
  -25.3394  -17.6205   20.1913 C   0  0  0  0  0  0  0  0  0  0  0  0
  -27.4710  -16.4862   20.1107 C   0  0  0  0  0  0  0  0  0  0  0  0
  -26.3315  -25.6988   21.8770 C   0  0  0  0  0  0  0  0  0  0  0  0
  -26.3620  -13.0302   20.3016 C   0  0  0  0  0  0  0  0  0  0  0  0
  -26.7451  -11.9430   19.5163 C   0  0  0  0  0  0  0  0  0  0  0  0
  -24.7964  -27.5194   21.4920 C   0  0  0  0  0  0  0  0  0  0  0  0
  -28.9540  -27.2510   15.6030 C   0  0  0  0  0  0  0  0  0  0  0  0
  -26.0842  -13.1463   17.5282 C   0  0  0  0  0  0  0  0  0  0  0  0
  -27.3655  -18.8817   19.8154 C   0  0  0  0  0  0  0  0  0  0  0  0
  -27.8213  -21.0237   18.5071 C   0  0  0  0  0  0  0  0  0  0  0  0
  -20.8971  -21.0885   25.2912 C   0  0  0  0  0  0  0  0  0  0  0  0
  -24.6813  -26.2718   23.5632 C   0  0  0  0  0  0  0  0  0  0  0  0
  -21.3361  -22.0338   24.3446 C   0  0  0  0  0  0  0  0  0  0  0  0
  -24.2067  -27.3091   22.7478 C   0  0  0  0  0  0  0  0  0  0  0  0
  -29.2084  -27.1841   18.0046 C   0  0  0  0  0  0  0  0  0  0  0  0
  -29.6837  -27.5646   16.7496 C   0  0  0  0  0  0  0  0  0  0  0  0
  -27.7489  -26.5569   15.7113 C   0  0  0  0  0  0  0  0  0  0  0  0
  -28.0034  -26.4899   18.1129 C   0  0  0  0  0  0  0  0  0  0  0  0
  -27.2736  -26.1763   16.9663 C   0  0  0  0  0  0  0  0  0  0  0  0
  -26.0851  -16.4439   20.2628 C   0  0  0  0  0  0  0  0  0  0  0  0
  -25.8518  -26.7173   21.0586 C   0  0  0  0  0  0  0  0  0  0  0  0
  -25.8399  -14.1755   19.7003 C   0  0  0  0  0  0  0  0  0  0  0  0
  -26.6062  -12.0010   18.1296 C   0  0  0  0  0  0  0  0  0  0  0  0
  -25.7010  -14.2335   18.3136 C   0  0  0  0  0  0  0  0  0  0  0  0
  -28.0273  -20.1404   19.5838 C   0  0  0  0  0  0  0  0  0  0  0  0
  -28.6848  -22.0646   18.7469 C   0  0  0  0  0  0  0  0  0  0  0  0
  -30.4473  -26.3038   20.0296 C   0  0  0  0  0  0  0  0  0  0  0  0
  -26.9292  -20.9132   17.3902 C   0  0  0  0  0  0  0  0  0  0  0  0
  -21.6517  -25.7153   24.3478 C   0  0  0  0  0  0  0  0  0  0  0  0
  -21.7046  -28.8449   25.1992 C   0  0  0  0  0  0  0  0  0  0  0  0
  -23.1246  -31.9256   24.8251 C   0  0  0  0  0  0  0  0  0  0  0  0
  -30.6173  -25.7855   22.4957 C   0  0  0  0  0  0  0  0  0  0  0  0
  -19.7328  -21.3664   26.2087 C   0  0  0  0  0  0  0  0  0  0  0  0
  -24.0846  -26.0390   24.9242 C   0  0  0  0  0  0  0  0  0  0  0  0
  -23.0728  -28.2016   23.1794 C   0  0  0  0  0  0  0  0  0  0  0  0
  -19.3879  -22.8491   26.3232 C   0  0  0  0  0  0  0  0  0  0  0  0
  -32.4519  -22.6067   22.0711 C   0  0  0  0  0  0  0  0  0  0  0  0
  -19.3486  -23.4961   24.9424 C   0  0  0  0  0  0  0  0  0  0  0  0
  -31.4219  -21.7181   21.3723 C   0  0  0  0  0  0  0  0  0  0  0  0
  -29.2154  -28.3476   20.2686 C   0  0  0  0  0  0  0  0  0  0  0  0
  -31.7897  -23.6538   22.9637 C   0  0  0  0  0  0  0  0  0  0  0  0
  -29.8559  -27.9617   21.5833 C   0  0  0  0  0  0  0  0  0  0  0  0
  -29.7494  -23.5954   21.5633 C   0  0  0  0  0  0  0  0  0  0  0  0
  -29.9995  -27.5247   19.2431 C   0  0  2  0  0  0  0  0  0  0  0  0
  -20.7165  -23.4115   24.2543 C   0  0  1  0  0  0  0  0  0  0  0  0
  -22.6622  -26.5753   25.0527 C   0  0  1  0  0  0  0  0  0  0  0  0
  -30.3919  -22.5740   20.6153 C   0  0  2  0  0  0  0  0  0  0  0  0
  -30.9713  -28.3081   16.6059 C   0  0  0  0  0  0  0  0  0  0  0  0
  -26.9864  -26.2342   14.4680 C   0  0  0  0  0  0  0  0  0  0  0  0
  -25.9813  -25.4312   17.0794 C   0  0  0  0  0  0  0  0  0  0  0  0
  -23.5662  -34.3555   25.2698 C   0  0  0  0  0  0  0  0  0  0  0  0
  -19.2608  -29.2421   23.4160 C   0  0  0  0  0  0  0  0  0  0  0  0
  -19.6893  -31.7075   23.4966 C   0  0  0  0  0  0  0  0  0  0  0  0
  -19.1711  -30.4642   25.5962 C   0  0  0  0  0  0  0  0  0  0  0  0
  -25.1632  -31.2989   26.8770 C   0  0  0  0  0  0  0  0  0  0  0  0
  -27.4933  -26.0822   19.4592 C   0  0  0  0  0  0  0  0  0  1  0  0
  -21.4244  -30.1497   24.4935 C   0  0  1  0  0  0  0  0  0  0  0  0
  -23.5970  -32.9474   25.8435 C   0  0  2  0  0  0  0  0  0  0  0  0
  -19.9065  -30.3730   24.2414 C   0  0  0  0  0  0  0  0  0  0  0  0
  -28.9494  -20.5816   20.4435 N   0  0  0  0  0  0  0  0  0  0  0  0
  -29.3305  -21.7535   19.9073 N   0  0  0  0  0  0  0  0  0  0  0  0
  -30.2097  -26.5692   21.4035 N   0  0  0  0  0  0  0  0  0  0  0  0
  -22.5184  -27.9301   24.5160 N   0  0  0  0  0  0  0  0  0  0  0  0
  -30.7687  -24.4109   22.2390 N   0  0  0  0  0  0  0  0  0  0  0  0
  -28.9471  -23.2065   18.0763 N   0  0  0  0  0  0  0  0  0  0  0  0
  -27.3903  -20.2824   16.2267 N   0  0  0  0  0  0  0  0  0  0  0  0
  -21.6164  -24.4080   24.7943 N   0  0  0  0  0  0  0  0  0  0  0  0
  -22.0565  -31.1916   25.2957 N   0  0  0  0  0  0  0  0  0  0  0  0
  -24.9919  -32.6449   26.2721 N   0  3  0  0  0  0  0  0  0  0  0  0
  -30.9527  -25.3062   19.5340 O   0  0  0  0  0  0  0  0  0  0  0  0
  -25.7633  -21.3752   17.4172 O   0  0  0  0  0  0  0  0  0  0  0  0
  -20.9546  -26.2020   23.4654 O   0  0  0  0  0  0  0  0  0  0  0  0
  -21.2252  -28.6477   26.3185 O   0  0  0  0  0  0  0  0  0  0  0  0
  -23.6483  -31.7944   23.7209 O   0  0  0  0  0  0  0  0  0  0  0  0
  -30.8659  -26.2938   23.5942 O   0  0  0  0  0  0  0  0  0  0  0  0
  -25.4608  -15.2543   20.4813 O   0  0  0  0  0  0  0  0  0  0  0  0
  -26.4195  -26.9353   19.8299 O   0  0  0  0  0  0  0  0  0  1  0  0
  -26.9755  -10.9575   17.3754 F   0  0  0  0  0  0  0  0  0  0  0  0
  -25.2013  -15.3315   17.7301 F   0  0  0  0  0  0  0  0  0  0  0  0
  1  2  1  0  0  0  0
  1  5  2  0  0  0  0
  2  6  2  0  0  0  0
  3  8  2  0  0  0  0
  3 16  1  0  0  0  0
  4  9  1  0  0  0  0
  4 16  2  0  0  0  0
  5 18  1  0  0  0  0
  6 20  1  0  0  0  0
  7 10  2  0  0  0  0
  7 19  1  0  0  0  0
  8 27  1  0  0  0  0
  9 27  2  0  0  0  0
 10 28  1  0  0  0  0
 11 12  2  0  0  0  0
 11 29  1  0  0  0  0
 12 30  1  0  0  0  0
 13 21  1  0  0  0  0
 13 28  2  0  0  0  0
 14 23  2  0  0  0  0
 14 24  1  0  0  0  0
 15 30  2  0  0  0  0
 15 31  1  0  0  0  0
 16 32  1  0  0  0  0
 17 32  1  0  0  0  0
 17 33  2  0  0  0  0
 17 35  1  0  0  0  0
 18 20  2  0  0  0  0
 18 40  1  0  0  0  0
 19 21  2  0  0  0  0
 19 41  1  0  0  0  0
 20 52  1  0  0  0  0
 21 42  1  0  0  0  0
 22 23  1  0  0  0  0
 22 25  2  0  0  0  0
 22 51  1  0  0  0  0
 23 55  1  0  0  0  0
 24 26  2  0  0  0  0
 24 56  1  0  0  0  0
 25 26  1  0  0  0  0
 25 63  1  0  0  0  0
 26 57  1  0  0  0  0
 27 83  1  0  0  0  0
 28 84  1  0  0  0  0
 29 31  2  0  0  0  0
 29 83  1  0  0  0  0
 30 85  1  0  0  0  0
 31 86  1  0  0  0  0
 32 67  2  0  0  0  0
 33 68  1  0  0  0  0
 33 72  1  0  0  0  0
 34 51  1  0  0  0  0
 34 69  1  0  0  0  0
 34 77  2  0  0  0  0
 35 73  1  0  0  0  0
 35 78  2  0  0  0  0
 36 53  1  0  0  0  0
 36 74  1  0  0  0  0
 36 79  2  0  0  0  0
 37 64  1  0  0  0  0
 37 70  1  0  0  0  0
 37 80  2  0  0  0  0
 38 65  1  0  0  0  0
 38 75  1  0  0  0  0
 38 81  2  0  0  0  0
 39 69  1  0  0  0  0
 39 71  1  0  0  0  0
 39 82  2  0  0  0  0
 40 43  1  0  0  0  0
 41 53  1  0  0  0  0
 42 70  1  0  0  0  0
 43 45  1  0  0  0  0
 44 46  1  0  0  0  0
 44 48  1  0  0  0  0
 45 52  1  0  0  0  0
 46 54  1  0  0  0  0
 47 49  1  0  0  0  0
 47 51  1  0  0  0  0
 48 71  1  0  0  0  0
 49 69  1  0  0  0  0
 50 54  1  0  0  0  0
 50 71  1  0  0  0  0
 52 74  1  0  0  0  0
 53 70  1  0  0  0  0
 54 68  1  0  0  0  0
 58 65  1  0  0  0  0
 59 66  1  0  0  0  0
 60 66  1  0  0  0  0
 61 66  1  0  0  0  0
 62 76  1  0  0  0  0
 63 84  1  0  0  0  0
 64 66  1  0  0  0  0
 64 75  1  0  0  0  0
 65 76  1  0  0  0  0
 67 68  1  0  0  0  0
M  CHG  1  76   1
M  ISO  4  39 100  63 101  69 100  84 101
M  END
> <Batch ID>
0174

> <Smiles>
CNC(C)C(=O)NC(C(=O)N1Cc2cc([101O:1][101CH2:1]c3c(C)c(C)cc(C)c3C3CC[100N:0]([100C:0](=O)N4CCCC(n5nc(-c6ccc(Oc7ccc(F)cc7F)cc6)c(C(N)=O)c5N)C4)C3=O)ccc2CC1C(=O)NC1CCCc2ccccc21)C(C)(C)C

> <Shape>
0.177

> <Color>
0.079

> <Negative vol penalty>
0.000

$$$$

  -OEChem-04052322453D

 85 94  0     1  0  0  0  0  0999 V2000
  -25.3125  -37.5220   18.2136 C   0  0  0  0  0  0  0  0  0  0  0  0
  -25.3037  -36.2949   17.5582 C   0  0  0  0  0  0  0  0  0  0  0  0
  -22.4383  -15.7542   18.7744 C   0  0  0  0  0  0  0  0  0  0  0  0
  -22.0264  -14.9431   21.0126 C   0  0  0  0  0  0  0  0  0  0  0  0
  -25.8499  -37.6220   19.4963 C   0  0  0  0  0  0  0  0  0  0  0  0
  -25.8334  -35.1673   18.1845 C   0  0  0  0  0  0  0  0  0  0  0  0
  -24.9113  -28.0773   18.6292 C   0  0  0  0  0  0  0  0  0  0  0  0
  -21.1671  -15.3307   18.3870 C   0  0  0  0  0  0  0  0  0  0  0  0
  -20.7551  -14.5197   20.6252 C   0  0  0  0  0  0  0  0  0  0  0  0
  -25.6286  -26.8881   18.5066 C   0  0  0  0  0  0  0  0  0  0  0  0
  -17.5381  -12.9009   20.1349 C   0  0  0  0  0  0  0  0  0  0  0  0
  -17.1245  -11.6330   20.5435 C   0  0  0  0  0  0  0  0  0  0  0  0
  -26.4585  -27.1639   20.7547 C   0  0  0  0  0  0  0  0  0  0  0  0
  -29.9768  -23.6418   20.0000 C   0  0  0  0  0  0  0  0  0  0  0  0
  -18.9849  -10.6449   19.3603 C   0  0  0  0  0  0  0  0  0  0  0  0
  -22.8680  -15.5603   20.0872 C   0  0  0  0  0  0  0  0  0  0  0  0
  -24.5365  -17.2555   21.0095 C   0  0  0  0  0  0  0  0  0  0  0  0
  -26.3777  -36.4931   20.1425 C   0  0  0  0  0  0  0  0  0  0  0  0
  -24.9710  -28.8256   19.8137 C   0  0  0  0  0  0  0  0  0  0  0  0
  -26.3796  -35.2526   19.4765 C   0  0  0  0  0  0  0  0  0  0  0  0
  -25.7390  -28.3609   20.8908 C   0  0  0  0  0  0  0  0  0  0  0  0
  -28.6113  -23.6067   20.2596 C   0  0  0  0  0  0  0  0  0  0  0  0
  -20.3254  -14.7135   19.3123 C   0  0  0  0  0  0  0  0  0  0  0  0
  -26.4046  -26.4327   19.5684 C   0  0  0  0  0  0  0  0  0  0  0  0
  -18.6750  -13.0409   19.3389 C   0  0  0  0  0  0  0  0  0  0  0  0
  -17.8480  -10.5050   20.1562 C   0  0  0  0  0  0  0  0  0  0  0  0
  -19.3984  -11.9129   18.9516 C   0  0  0  0  0  0  0  0  0  0  0  0
  -30.6529  -22.4637   19.7033 C   0  0  0  0  0  0  0  0  0  0  0  0
  -24.1814  -15.9970   20.4879 C   0  0  0  0  0  0  0  0  0  0  0  0
  -29.9236  -21.2859   19.6788 C   0  0  0  0  0  0  0  0  0  0  0  0
  -27.9732  -22.3778   20.2101 C   0  0  0  0  0  0  0  0  0  0  0  0
  -25.8897  -17.1674   21.2275 C   0  0  0  0  0  0  0  0  0  0  0  0
  -23.7164  -18.4016   21.2734 C   0  0  0  0  0  0  0  0  0  0  0  0
  -25.9625  -31.7487   20.5726 C   0  0  0  0  0  0  0  0  0  0  0  0
  -24.7256  -30.9927   23.4745 C   0  0  0  0  0  0  0  0  0  0  0  0
  -23.8220  -28.5639   25.6951 C   0  0  0  0  0  0  0  0  0  0  0  0
  -30.9558  -15.6933   19.7866 C   0  0  0  0  0  0  0  0  0  0  0  0
  -26.9906  -36.6600   21.5104 C   0  0  0  0  0  0  0  0  0  0  0  0
  -24.1702  -30.0926   19.9397 C   0  0  0  0  0  0  0  0  0  0  0  0
  -25.8206  -29.1168   22.1910 C   0  0  0  0  0  0  0  0  0  0  0  0
  -27.1923  -35.3414   22.2525 C   0  0  0  0  0  0  0  0  0  0  0  0
  -29.0006  -13.1883   21.1482 C   0  0  0  0  0  0  0  0  0  0  0  0
  -27.8276  -34.3031   21.3332 C   0  0  0  0  0  0  0  0  0  0  0  0
  -27.5938  -13.7867   21.1471 C   0  0  0  0  0  0  0  0  0  0  0  0
  -31.1703  -19.2921   20.6220 C   0  0  0  0  0  0  0  0  0  0  0  0
  -29.6471  -18.9997   18.6232 C   0  0  0  0  0  0  0  0  0  0  0  0
  -29.7428  -13.5350   19.8624 C   0  0  0  0  0  0  0  0  0  0  0  0
  -31.8189  -17.9491   20.2951 C   0  0  0  0  0  0  0  0  0  0  0  0
  -30.3308  -17.6651   18.3405 C   0  0  0  0  0  0  0  0  0  0  0  0
  -28.4305  -15.6127   19.5884 C   0  0  0  0  0  0  0  0  0  0  0  0
  -26.9224  -34.0017   20.1327 C   0  0  1  0  0  0  0  0  0  0  0  0
  -30.5935  -19.9618   19.3627 C   0  0  0  0  0  0  0  0  0  0  0  0
  -24.7119  -31.0382   21.0072 C   0  0  1  0  0  0  0  0  0  0  0  0
  -27.6380  -15.3004   20.8735 C   0  0  1  0  0  0  0  0  0  0  0  0
  -26.5073  -22.2797   20.4797 C   0  0  0  0  0  0  0  0  0  0  0  0
  -22.8760  -28.2541   27.9988 C   0  0  0  0  0  0  0  0  0  0  0  0
  -27.4259  -31.7420   24.6814 C   0  0  0  0  0  0  0  0  0  0  0  0
  -26.7484  -30.5377   26.7693 C   0  0  0  0  0  0  0  0  0  0  0  0
  -25.4445  -32.5184   25.9951 C   0  0  0  0  0  0  0  0  0  0  0  0
  -21.4601  -27.1144   24.6563 C   0  0  0  0  0  0  0  0  0  0  0  0
  -27.8807  -24.8652   20.5783 C   0  0  0  0  0  0  0  0  0  1  0  0
  -25.2587  -30.3393   24.7266 C   0  0  1  0  0  0  0  0  0  0  0  0
  -22.5598  -28.3683   26.5156 C   0  0  2  0  0  0  0  0  0  0  0  0
  -26.2196  -31.2709   25.5180 C   0  0  0  0  0  0  0  0  0  0  0  0
  -25.2249  -15.1702   20.3809 N   0  0  0  0  0  0  0  0  0  0  0  0
  -28.5964  -21.2123   19.9255 N   0  0  0  0  0  0  0  0  0  0  0  0
  -26.2489  -15.9106   20.8381 N   0  0  0  0  0  0  0  0  0  0  0  0
  -25.0246  -30.3532   22.2631 N   0  0  0  0  0  0  0  0  0  0  0  0
  -29.7570  -14.9799   19.6353 N   0  0  0  0  0  0  0  0  0  0  0  0
  -30.9018  -17.0786   19.5606 N   0  0  0  0  0  0  0  0  0  0  0  0
  -26.7954  -18.0432   21.7123 N   0  0  0  0  0  0  0  0  0  0  0  0
  -22.3458  -18.3217   20.9914 N   0  0  0  0  0  0  0  0  0  0  0  0
  -25.8400  -33.1242   20.5236 N   0  0  0  0  0  0  0  0  0  0  0  0
  -24.0930  -29.8995   25.4856 N   0  0  0  0  0  0  0  0  0  0  0  0
  -21.8519  -27.1281   26.0892 N   0  3  0  0  0  0  0  0  0  0  0  0
  -24.1879  -19.4706   21.7299 O   0  0  0  0  0  0  0  0  0  0  0  0
  -26.9649  -31.0973   20.3032 O   0  0  0  0  0  0  0  0  0  0  0  0
  -24.0620  -32.0283   23.5683 O   0  0  0  0  0  0  0  0  0  0  0  0
  -24.5017  -27.6258   25.2846 O   0  0  0  0  0  0  0  0  0  0  0  0
  -32.0095  -15.1309   20.1093 O   0  0  0  0  0  0  0  0  0  0  0  0
  -19.0847  -14.3004   18.9347 O   0  0  0  0  0  0  0  0  0  0  0  0
  -27.1109  -25.2648   19.4503 O   0  0  0  0  0  0  0  0  0  1  0  0
  -17.4516   -9.2876   20.5499 F   0  0  0  0  0  0  0  0  0  0  0  0
  -20.4921  -12.0411   18.1880 F   0  0  0  0  0  0  0  0  0  0  0  0
  -32.3426  -22.5099   19.3828 Cl  0  0  0  0  0  0  0  0  0  0  0  0
  1  2  1  0  0  0  0
  1  5  2  0  0  0  0
  2  6  2  0  0  0  0
  3  8  2  0  0  0  0
  3 16  1  0  0  0  0
  4  9  1  0  0  0  0
  4 16  2  0  0  0  0
  5 18  1  0  0  0  0
  6 20  1  0  0  0  0
  7 10  2  0  0  0  0
  7 19  1  0  0  0  0
  8 23  1  0  0  0  0
  9 23  2  0  0  0  0
 10 24  1  0  0  0  0
 11 12  2  0  0  0  0
 11 25  1  0  0  0  0
 12 26  1  0  0  0  0
 13 21  1  0  0  0  0
 13 24  2  0  0  0  0
 14 22  1  0  0  0  0
 14 28  2  0  0  0  0
 15 26  2  0  0  0  0
 15 27  1  0  0  0  0
 16 29  1  0  0  0  0
 17 29  1  0  0  0  0
 17 32  2  0  0  0  0
 17 33  1  0  0  0  0
 18 20  2  0  0  0  0
 18 38  1  0  0  0  0
 19 21  2  0  0  0  0
 19 39  1  0  0  0  0
 20 51  1  0  0  0  0
 21 40  1  0  0  0  0
 22 31  2  0  0  0  0
 22 61  1  0  0  0  0
 23 81  1  0  0  0  0
 24 82  1  0  0  0  0
 25 27  2  0  0  0  0
 25 81  1  0  0  0  0
 26 83  1  0  0  0  0
 27 84  1  0  0  0  0
 28 30  1  0  0  0  0
 28 85  1  0  0  0  0
 29 65  2  0  0  0  0
 30 52  1  0  0  0  0
 30 66  2  0  0  0  0
 31 55  1  0  0  0  0
 31 66  1  0  0  0  0
 32 67  1  0  0  0  0
 32 71  1  0  0  0  0
 33 72  1  0  0  0  0
 33 76  2  0  0  0  0
 34 53  1  0  0  0  0
 34 73  1  0  0  0  0
 34 77  2  0  0  0  0
 35 62  1  0  0  0  0
 35 68  1  0  0  0  0
 35 78  2  0  0  0  0
 36 63  1  0  0  0  0
 36 74  1  0  0  0  0
 36 79  2  0  0  0  0
 37 69  1  0  0  0  0
 37 70  1  0  0  0  0
 37 80  2  0  0  0  0
 38 41  1  0  0  0  0
 39 53  1  0  0  0  0
 40 68  1  0  0  0  0
 41 43  1  0  0  0  0
 42 44  1  0  0  0  0
 42 47  1  0  0  0  0
 43 51  1  0  0  0  0
 44 54  1  0  0  0  0
 45 48  1  0  0  0  0
 45 52  1  0  0  0  0
 46 49  1  0  0  0  0
 46 52  1  0  0  0  0
 47 69  1  0  0  0  0
 48 70  1  0  0  0  0
 49 70  1  0  0  0  0
 50 54  1  0  0  0  0
 50 69  1  0  0  0  0
 51 73  1  0  0  0  0
 53 68  1  0  0  0  0
 54 67  1  0  0  0  0
 56 63  1  0  0  0  0
 57 64  1  0  0  0  0
 58 64  1  0  0  0  0
 59 64  1  0  0  0  0
 60 75  1  0  0  0  0
 61 82  1  0  0  0  0
 62 64  1  0  0  0  0
 62 74  1  0  0  0  0
 63 75  1  0  0  0  0
 65 67  1  0  0  0  0
M  CHG  1  75   1
M  ISO  4  37 100  61 101  70 100  82 101
M  END
> <Batch ID>
0174

> <Smiles>
CNC(C)C(=O)NC(C(=O)N1Cc2cc([101O:1][101CH2:1]c3cc(Cl)c(C4CC[100N:0]([100C:0](=O)N5CCCC(n6nc(-c7ccc(Oc8ccc(F)cc8F)cc7)c(C(N)=O)c6N)C5)CC4)nc3C)ccc2CC1C(=O)NC1CCCc2ccccc21)C(C)(C)C

> <Shape>
0.212

> <Color>
0.098

> <Negative vol penalty>
0.000

$$$$

  -OEChem-04052322453D

 85 94  0     1  0  0  0  0  0999 V2000
  -19.7120  -28.5831   15.3812 C   0  0  0  0  0  0  0  0  0  0  0  0
  -20.4064  -27.3944   15.5818 C   0  0  0  0  0  0  0  0  0  0  0  0
  -23.2122   -9.8657   19.8487 C   0  0  0  0  0  0  0  0  0  0  0  0
  -23.7413   -9.8864   22.2059 C   0  0  0  0  0  0  0  0  0  0  0  0
  -20.1685  -29.7631   15.9670 C   0  0  0  0  0  0  0  0  0  0  0  0
  -21.5583  -27.3852   16.3676 C   0  0  0  0  0  0  0  0  0  0  0  0
  -23.4656  -22.8804   20.0520 C   0  0  0  0  0  0  0  0  0  0  0  0
  -22.4930   -8.6830   20.0205 C   0  0  0  0  0  0  0  0  0  0  0  0
  -23.0220   -8.7037   22.3778 C   0  0  0  0  0  0  0  0  0  0  0  0
  -24.4049  -21.8642   19.8824 C   0  0  0  0  0  0  0  0  0  0  0  0
  -23.4963   -5.3993   21.8421 C   0  0  0  0  0  0  0  0  0  0  0  0
  -24.0776   -4.3937   22.6143 C   0  0  0  0  0  0  0  0  0  0  0  0
  -26.0653  -23.2229   20.9852 C   0  0  0  0  0  0  0  0  0  0  0  0
  -22.2106   -4.4898   24.1448 C   0  0  0  0  0  0  0  0  0  0  0  0
  -23.8364  -10.4674   20.9414 C   0  0  0  0  0  0  0  0  0  0  0  0
  -24.0893  -13.0046   20.8632 C   0  0  0  0  0  0  0  0  0  0  0  0
  -21.3211  -29.7665   16.7683 C   0  0  0  0  0  0  0  0  0  0  0  0
  -23.8226  -24.0819   20.6809 C   0  0  0  0  0  0  0  0  0  0  0  0
  -22.0313  -28.5666   16.9637 C   0  0  0  0  0  0  0  0  0  0  0  0
  -25.1280  -24.2518   21.1639 C   0  0  0  0  0  0  0  0  0  0  0  0
  -30.0218  -19.9458   21.0122 C   0  0  0  0  0  0  0  0  0  0  0  0
  -22.3979   -8.1020   21.2850 C   0  0  0  0  0  0  0  0  0  0  0  0
  -25.7057  -22.0364   20.3464 C   0  0  0  0  0  0  0  0  0  0  0  0
  -22.2722   -5.9503   22.2212 C   0  0  0  0  0  0  0  0  0  0  0  0
  -23.4348   -3.9389   23.7657 C   0  0  0  0  0  0  0  0  0  0  0  0
  -21.6294   -5.4955   23.3725 C   0  0  0  0  0  0  0  0  0  0  0  0
  -24.5800  -11.6888   20.7645 C   0  0  0  0  0  0  0  0  0  0  0  0
  -28.8053  -20.1029   20.3799 C   0  0  0  0  0  0  0  0  0  0  0  0
  -30.7362  -18.8188   20.6605 C   0  0  0  0  0  0  0  0  0  0  0  0
  -25.1818  -13.7982   20.6119 C   0  0  0  0  0  0  0  0  0  0  0  0
  -29.1049  -18.1743   19.2147 C   0  0  0  0  0  0  0  0  0  0  0  0
  -22.7645  -13.4681   21.1560 C   0  0  0  0  0  0  0  0  0  0  0  0
  -23.9216  -27.1334   19.7966 C   0  0  0  0  0  0  0  0  0  0  0  0
  -24.6380  -27.6120   22.9239 C   0  0  0  0  0  0  0  0  0  0  0  0
  -25.8907  -26.3473   25.8356 C   0  0  0  0  0  0  0  0  0  0  0  0
  -30.4741  -14.9675   21.6360 C   0  0  0  0  0  0  0  0  0  0  0  0
  -21.8025  -31.0757   17.3419 C   0  0  0  0  0  0  0  0  0  0  0  0
  -22.7906  -25.1578   20.8800 C   0  0  0  0  0  0  0  0  0  0  0  0
  -25.5563  -25.5147   21.8640 C   0  0  0  0  0  0  0  0  0  0  0  0
  -22.8208  -30.9099   18.4671 C   0  0  0  0  0  0  0  0  0  0  0  0
  -29.7576  -12.6593   18.8365 C   0  0  0  0  0  0  0  0  0  0  0  0
  -23.8885  -29.8935   18.0753 C   0  0  0  0  0  0  0  0  0  0  0  0
  -28.3156  -12.2678   19.1435 C   0  0  0  0  0  0  0  0  0  0  0  0
  -34.2206  -17.5882   21.5913 C   0  0  0  0  0  0  0  0  0  0  0  0
  -34.1034  -16.0912   21.9499 C   0  0  0  0  0  0  0  0  0  0  0  0
  -30.5690  -12.9101   20.1071 C   0  0  0  0  0  0  0  0  0  0  0  0
  -28.4970  -13.5135   21.3309 C   0  0  0  0  0  0  0  0  0  0  0  0
  -23.2710  -28.5115   17.8298 C   0  0  1  0  0  0  0  0  0  0  0  0
  -23.4009  -26.5422   21.0760 C   0  0  1  0  0  0  0  0  0  0  0  0
  -27.6568  -13.3082   20.0614 C   0  0  2  0  0  0  0  0  0  0  0  0
  -32.8058  -17.4737   20.9832 C   0  0  1  0  0  0  0  0  0  0  0  0
  -32.5676  -16.2848   21.9471 C   0  0  1  0  0  0  0  0  0  0  0  0
  -30.5218  -20.9336   22.0076 C   0  0  0  0  0  0  0  0  0  0  0  0
  -28.5959  -17.1906   18.2165 C   0  0  0  0  0  0  0  0  0  0  0  0
  -26.3827  -26.9887   28.2113 C   0  0  0  0  0  0  0  0  0  0  0  0
  -27.0987  -29.1581   21.9943 C   0  0  0  0  0  0  0  0  0  0  0  0
  -28.0218  -28.9454   24.3118 C   0  0  0  0  0  0  0  0  0  0  0  0
  -25.8910  -30.1846   23.9288 C   0  0  0  0  0  0  0  0  0  0  0  0
  -24.0343  -24.3002   26.8949 C   0  0  0  0  0  0  0  0  0  0  0  0
  -27.9389  -21.2902   20.6813 C   0  0  0  0  0  0  0  0  0  1  0  0
  -25.9113  -27.6640   23.7332 C   0  0  1  0  0  0  0  0  0  0  0  0
  -25.3634  -26.3834   27.2587 C   0  0  2  0  0  0  0  0  0  0  0  0
  -26.7235  -28.9649   23.4772 C   0  0  0  0  0  0  0  0  0  0  0  0
  -25.8827  -11.6448   20.4730 N   0  0  0  0  0  0  0  0  0  0  0  0
  -28.3142  -19.2334   19.4726 N   0  0  0  0  0  0  0  0  0  0  0  0
  -30.3063  -17.9086   19.7622 N   0  0  0  0  0  0  0  0  0  0  0  0
  -26.2199  -12.9428   20.3864 N   0  0  0  0  0  0  0  0  0  0  0  0
  -24.5127  -26.5400   22.0290 N   0  0  0  0  0  0  0  0  0  0  0  0
  -29.8892  -13.8518   21.0107 N   0  0  0  0  0  0  0  0  0  0  0  0
  -25.3461  -15.1373   20.5640 N   0  0  0  0  0  0  0  0  0  0  0  0
  -21.7606  -12.5182   21.3889 N   0  0  0  0  0  0  0  0  0  0  0  0
  -31.9938  -18.6014   21.2758 N   0  0  0  0  0  0  0  0  0  0  0  0
  -22.9816  -27.8566   19.0875 N   0  0  0  0  0  0  0  0  0  0  0  0
  -25.5188  -27.4687   25.1247 N   0  0  0  0  0  0  0  0  0  0  0  0
  -31.8232  -15.1768   21.3669 N   0  0  0  0  0  0  0  0  0  0  0  0
  -25.0425  -25.0055   27.7273 N   0  3  0  0  0  0  0  0  0  0  0  0
  -22.4758  -14.6882   21.1934 O   0  0  0  0  0  0  0  0  0  0  0  0
  -25.0902  -26.9484   19.4772 O   0  0  0  0  0  0  0  0  0  0  0  0
  -23.7828  -28.4862   23.0852 O   0  0  0  0  0  0  0  0  0  0  0  0
  -26.5680  -25.4191   25.3995 O   0  0  0  0  0  0  0  0  0  0  0  0
  -29.8472  -15.7227   22.3869 O   0  0  0  0  0  0  0  0  0  0  0  0
  -21.6960   -6.9480   21.4530 O   0  0  0  0  0  0  0  0  0  0  0  0
  -26.6247  -21.0464   20.1815 O   0  0  0  0  0  0  0  0  0  1  0  0
  -23.9924   -2.9721   24.5063 F   0  0  0  0  0  0  0  0  0  0  0  0
  -20.4526   -6.0201   23.7412 F   0  0  0  0  0  0  0  0  0  0  0  0
  1  2  1  0  0  0  0
  1  5  2  0  0  0  0
  2  6  2  0  0  0  0
  3  8  2  0  0  0  0
  3 15  1  0  0  0  0
  4  9  1  0  0  0  0
  4 15  2  0  0  0  0
  5 17  1  0  0  0  0
  6 19  1  0  0  0  0
  7 10  2  0  0  0  0
  7 18  1  0  0  0  0
  8 22  1  0  0  0  0
  9 22  2  0  0  0  0
 10 23  1  0  0  0  0
 11 12  2  0  0  0  0
 11 24  1  0  0  0  0
 12 25  1  0  0  0  0
 13 20  1  0  0  0  0
 13 23  2  0  0  0  0
 14 25  2  0  0  0  0
 14 26  1  0  0  0  0
 15 27  1  0  0  0  0
 16 27  1  0  0  0  0
 16 30  2  0  0  0  0
 16 32  1  0  0  0  0
 17 19  2  0  0  0  0
 17 37  1  0  0  0  0
 18 20  2  0  0  0  0
 18 38  1  0  0  0  0
 19 48  1  0  0  0  0
 20 39  1  0  0  0  0
 21 28  2  0  0  0  0
 21 29  1  0  0  0  0
 21 53  1  0  0  0  0
 22 82  1  0  0  0  0
 23 83  1  0  0  0  0
 24 26  2  0  0  0  0
 24 82  1  0  0  0  0
 25 84  1  0  0  0  0
 26 85  1  0  0  0  0
 27 64  2  0  0  0  0
 28 60  1  0  0  0  0
 28 65  1  0  0  0  0
 29 66  2  0  0  0  0
 29 72  1  0  0  0  0
 30 67  1  0  0  0  0
 30 70  1  0  0  0  0
 31 54  1  0  0  0  0
 31 65  2  0  0  0  0
 31 66  1  0  0  0  0
 32 71  1  0  0  0  0
 32 77  2  0  0  0  0
 33 49  1  0  0  0  0
 33 73  1  0  0  0  0
 33 78  2  0  0  0  0
 34 61  1  0  0  0  0
 34 68  1  0  0  0  0
 34 79  2  0  0  0  0
 35 62  1  0  0  0  0
 35 74  1  0  0  0  0
 35 80  2  0  0  0  0
 36 69  1  0  0  0  0
 36 75  1  0  0  0  0
 36 81  2  0  0  0  0
 37 40  1  0  0  0  0
 38 49  1  0  0  0  0
 39 68  1  0  0  0  0
 40 42  1  0  0  0  0
 41 43  1  0  0  0  0
 41 46  1  0  0  0  0
 42 48  1  0  0  0  0
 43 50  1  0  0  0  0
 44 45  1  0  0  0  0
 44 51  1  0  0  0  0
 45 52  1  0  0  0  0
 46 69  1  0  0  0  0
 47 50  1  0  0  0  0
 47 69  1  0  0  0  0
 48 73  1  0  0  0  0
 49 68  1  0  0  0  0
 50 67  1  0  0  0  0
 51 52  1  0  0  0  0
 51 72  1  0  0  0  0
 52 75  1  0  0  0  0
 55 62  1  0  0  0  0
 56 63  1  0  0  0  0
 57 63  1  0  0  0  0
 58 63  1  0  0  0  0
 59 76  1  0  0  0  0
 60 83  1  0  0  0  0
 61 63  1  0  0  0  0
 61 74  1  0  0  0  0
 62 76  1  0  0  0  0
 64 67  1  0  0  0  0
M  CHG  1  76   1
M  ISO  4  36 100  60 101  75 100  83 101
M  END
> <Batch ID>
0174

> <Smiles>
CNC(C)C(=O)NC(C(=O)N1Cc2cc([101O:1][101CH2:1]c3nc(C)nc(NC4CCC4[100NH:0][100C:0](=O)N4CCCC(n5nc(-c6ccc(Oc7ccc(F)cc7F)cc6)c(C(N)=O)c5N)C4)c3C)ccc2CC1C(=O)NC1CCCc2ccccc21)C(C)(C)C

> <Shape>
0.252

> <Color>
0.203

> <Negative vol penalty>
0.000

$$$$

  -OEChem-04052322453D

 90100  0     1  0  0  0  0  0999 V2000
  -17.0872  -26.9485   22.4539 C   0  0  0  0  0  0  0  0  0  0  0  0
  -18.1928  -26.2980   22.9924 C   0  0  0  0  0  0  0  0  0  0  0  0
  -23.4816  -10.0265   22.4548 C   0  0  0  0  0  0  0  0  0  0  0  0
  -23.4846   -9.8823   20.0431 C   0  0  0  0  0  0  0  0  0  0  0  0
  -17.2535  -28.1493   21.7653 C   0  0  0  0  0  0  0  0  0  0  0  0
  -19.4655  -26.8475   22.8416 C   0  0  0  0  0  0  0  0  0  0  0  0
  -22.1874  -26.7597   27.2091 C   0  0  0  0  0  0  0  0  0  0  0  0
  -22.6379   -8.9176   22.5200 C   0  0  0  0  0  0  0  0  0  0  0  0
  -22.6410   -8.7734   20.1083 C   0  0  0  0  0  0  0  0  0  0  0  0
  -22.7758  -25.5573   27.5990 C   0  0  0  0  0  0  0  0  0  0  0  0
  -22.9174   -5.5570   22.2724 C   0  0  0  0  0  0  0  0  0  0  0  0
  -23.2209   -4.5656   23.2054 C   0  0  0  0  0  0  0  0  0  0  0  0
  -26.7051  -21.6355   26.8832 C   0  0  0  0  0  0  0  0  0  0  0  0
  -24.8751  -26.2881   26.6627 C   0  0  0  0  0  0  0  0  0  0  0  0
  -21.0791   -4.9106   24.2688 C   0  0  0  0  0  0  0  0  0  0  0  0
  -23.9049  -10.5089   21.2163 C   0  0  0  0  0  0  0  0  0  0  0  0
  -26.1837  -11.6535   21.1499 C   0  0  0  0  0  0  0  0  0  0  0  0
  -18.5277  -28.7188   21.6143 C   0  0  0  0  0  0  0  0  0  0  0  0
  -22.9368  -27.7331   26.5327 C   0  0  0  0  0  0  0  0  0  0  0  0
  -19.6491  -28.0564   22.1492 C   0  0  0  0  0  0  0  0  0  0  0  0
  -27.1133  -20.3630   27.2607 C   0  0  0  0  0  0  0  0  0  0  0  0
  -24.2951  -27.5038   26.2696 C   0  0  0  0  0  0  0  0  0  0  0  0
  -26.7410  -22.3380   29.2142 C   0  0  0  0  0  0  0  0  0  0  0  0
  -27.1823  -21.0556   29.6059 C   0  0  0  0  0  0  0  0  0  0  0  0
  -26.5217  -22.6170   27.8534 C   0  0  0  0  0  0  0  0  0  0  0  0
  -27.3463  -20.0758   28.6065 C   0  0  0  0  0  0  0  0  0  0  0  0
  -22.2177   -8.2911   21.3468 C   0  0  0  0  0  0  0  0  0  0  0  0
  -24.1192  -25.3205   27.3238 C   0  0  0  0  0  0  0  0  0  0  0  0
  -21.6948   -6.2253   22.3376 C   0  0  0  0  0  0  0  0  0  0  0  0
  -22.3018   -4.2423   24.2036 C   0  0  0  0  0  0  0  0  0  0  0  0
  -20.7756   -5.9021   23.3358 C   0  0  0  0  0  0  0  0  0  0  0  0
  -24.7760  -11.6546   21.1482 C   0  0  0  0  0  0  0  0  0  0  0  0
  -26.5282  -12.9807   21.0701 C   0  0  0  0  0  0  0  0  0  0  0  0
  -27.0983  -10.5514   21.2173 C   0  0  0  0  0  0  0  0  0  0  0  0
  -22.8111  -29.1925   23.6866 C   0  0  0  0  0  0  0  0  0  0  0  0
  -25.3110  -30.9148   25.0422 C   0  0  0  0  0  0  0  0  0  0  0  0
  -25.0357  -33.1998   22.5238 C   0  0  0  0  0  0  0  0  0  0  0  0
  -25.9407  -18.2480   22.4603 C   0  0  0  0  0  0  0  0  0  0  0  0
  -18.6634  -29.9943   20.8211 C   0  0  0  0  0  0  0  0  0  0  0  0
  -22.2906  -29.0363   26.1475 C   0  0  0  0  0  0  0  0  0  0  0  0
  -26.5403  -23.4583   30.2029 C   0  0  0  0  0  0  0  0  0  0  0  0
  -25.1429  -28.5177   25.5501 C   0  0  0  0  0  0  0  0  0  0  0  0
  -20.0002  -30.7014   21.0288 C   0  0  0  0  0  0  0  0  0  0  0  0
  -26.3845  -22.9714   31.6363 C   0  0  0  0  0  0  0  0  0  0  0  0
  -23.7264  -17.0659   20.0837 C   0  0  0  0  0  0  0  0  0  0  0  0
  -21.1514  -29.7049   20.9362 C   0  0  0  0  0  0  0  0  0  0  0  0
  -23.9098  -15.5494   20.1386 C   0  0  0  0  0  0  0  0  0  0  0  0
  -27.4910  -21.9801   31.9658 C   0  0  0  0  0  0  0  0  0  0  0  0
  -26.0250  -18.4792   25.9613 C   0  0  0  0  0  0  0  0  0  0  0  0
  -27.7803  -19.9294   24.8544 C   0  0  0  0  0  0  0  0  0  0  0  0
  -23.7404  -17.6682   21.4839 C   0  0  0  0  0  0  0  0  0  0  0  0
  -26.2100  -17.4439   24.8481 C   0  0  0  0  0  0  0  0  0  0  0  0
  -27.9423  -18.8522   23.7858 C   0  0  0  0  0  0  0  0  0  0  0  0
  -25.1701  -15.8355   22.3296 C   0  0  0  0  0  0  0  0  0  0  0  0
  -27.2997  -19.3137   26.1810 C   0  0  0  0  0  0  0  0  0  0  0  0
  -21.0428  -28.6335   22.0279 C   0  0  1  0  0  0  0  0  0  0  0  0
  -23.0387  -29.7868   25.0477 C   0  0  1  0  0  0  0  0  0  0  0  0
  -25.1708  -15.1735   20.9367 C   0  0  1  0  0  0  0  0  0  0  0  0
  -27.4294  -20.7085   31.0795 C   0  0  0  0  0  0  0  0  0  0  0  0
  -27.8212  -18.6851   28.8988 C   0  0  0  0  0  0  0  0  0  0  0  0
  -26.2886  -19.7900   31.5697 C   0  0  0  0  0  0  0  0  0  0  0  0
  -28.7712  -19.9656   31.2721 C   0  0  0  0  0  0  0  0  0  0  0  0
  -25.8710  -35.4564   21.8114 C   0  0  0  0  0  0  0  0  0  0  0  0
  -23.4600  -32.2377   27.0743 C   0  0  0  0  0  0  0  0  0  0  0  0
  -23.5968  -34.3414   25.7238 C   0  0  0  0  0  0  0  0  0  0  0  0
  -25.6572  -33.3899   26.7591 C   0  0  0  0  0  0  0  0  0  0  0  0
  -26.2561  -32.0996   20.0623 C   0  0  0  0  0  0  0  0  0  0  0  0
  -26.0750  -23.9691   27.3913 C   0  0  0  0  0  0  0  0  0  1  0  0
  -24.6203  -32.2272   24.7679 C   0  0  1  0  0  0  0  0  0  0  0  0
  -26.0860  -33.9532   21.7277 C   0  0  2  0  0  0  0  0  0  0  0  0
  -24.3247  -33.0248   26.0694 C   0  0  0  0  0  0  0  0  0  0  0  0
  -24.2613  -12.8849   21.0735 N   0  0  0  0  0  0  0  0  0  0  0  0
  -25.3516  -13.6693   21.0276 N   0  0  0  0  0  0  0  0  0  0  0  0
  -24.4899  -29.8034   25.2716 N   0  0  0  0  0  0  0  0  0  0  0  0
  -24.9510  -17.2854   22.2103 N   0  0  0  0  0  0  0  0  0  0  0  0
  -26.7090  -18.0830   23.6225 N   0  0  0  0  0  0  0  0  0  0  0  0
  -27.7197  -13.6143   21.0330 N   0  0  0  0  0  0  0  0  0  0  0  0
  -26.5756   -9.2533   21.2950 N   0  0  0  0  0  0  0  0  0  0  0  0
  -21.4846  -29.1622   23.3006 N   0  0  0  0  0  0  0  0  0  0  0  0
  -25.4598  -32.9378   23.8093 N   0  0  0  0  0  0  0  0  0  0  0  0
  -26.0367  -33.5506   20.2937 N   0  3  0  0  0  0  0  0  0  0  0  0
  -28.3421  -10.7139   21.2255 O   0  0  0  0  0  0  0  0  0  0  0  0
  -23.7683  -28.7925   23.0343 O   0  0  0  0  0  0  0  0  0  0  0  0
  -26.5444  -30.8749   25.0608 O   0  0  0  0  0  0  0  0  0  0  0  0
  -23.9464  -32.8793   22.0534 O   0  0  0  0  0  0  0  0  0  0  0  0
  -26.1280  -19.1985   21.6905 O   0  0  0  0  0  0  0  0  0  0  0  0
  -21.3946   -7.2089   21.4101 O   0  0  0  0  0  0  0  0  0  0  0  0
  -24.7005  -24.1392   27.7066 O   0  0  0  0  0  0  0  0  0  1  0  0
  -22.5927   -3.2892   25.0985 F   0  0  0  0  0  0  0  0  0  0  0  0
  -19.5989   -6.5398   23.4028 F   0  0  0  0  0  0  0  0  0  0  0  0
  1  2  1  0  0  0  0
  1  5  2  0  0  0  0
  2  6  2  0  0  0  0
  3  8  2  0  0  0  0
  3 16  1  0  0  0  0
  4  9  1  0  0  0  0
  4 16  2  0  0  0  0
  5 18  1  0  0  0  0
  6 20  1  0  0  0  0
  7 10  2  0  0  0  0
  7 19  1  0  0  0  0
  8 27  1  0  0  0  0
  9 27  2  0  0  0  0
 10 28  1  0  0  0  0
 11 12  2  0  0  0  0
 11 29  1  0  0  0  0
 12 30  1  0  0  0  0
 13 21  2  0  0  0  0
 13 25  1  0  0  0  0
 14 22  1  0  0  0  0
 14 28  2  0  0  0  0
 15 30  2  0  0  0  0
 15 31  1  0  0  0  0
 16 32  1  0  0  0  0
 17 32  1  0  0  0  0
 17 33  2  0  0  0  0
 17 34  1  0  0  0  0
 18 20  2  0  0  0  0
 18 39  1  0  0  0  0
 19 22  2  0  0  0  0
 19 40  1  0  0  0  0
 20 56  1  0  0  0  0
 21 26  1  0  0  0  0
 21 55  1  0  0  0  0
 22 42  1  0  0  0  0
 23 24  1  0  0  0  0
 23 25  2  0  0  0  0
 23 41  1  0  0  0  0
 24 26  2  0  0  0  0
 24 59  1  0  0  0  0
 25 68  1  0  0  0  0
 26 60  1  0  0  0  0
 27 87  1  0  0  0  0
 28 88  1  0  0  0  0
 29 31  2  0  0  0  0
 29 87  1  0  0  0  0
 30 89  1  0  0  0  0
 31 90  1  0  0  0  0
 32 72  2  0  0  0  0
 33 73  1  0  0  0  0
 33 77  1  0  0  0  0
 34 78  1  0  0  0  0
 34 82  2  0  0  0  0
 35 57  1  0  0  0  0
 35 79  1  0  0  0  0
 35 83  2  0  0  0  0
 36 69  1  0  0  0  0
 36 74  1  0  0  0  0
 36 84  2  0  0  0  0
 37 70  1  0  0  0  0
 37 80  1  0  0  0  0
 37 85  2  0  0  0  0
 38 75  1  0  0  0  0
 38 76  1  0  0  0  0
 38 86  2  0  0  0  0
 39 43  1  0  0  0  0
 40 57  1  0  0  0  0
 41 44  1  0  0  0  0
 42 74  1  0  0  0  0
 43 46  1  0  0  0  0
 44 48  1  0  0  0  0
 45 47  1  0  0  0  0
 45 51  1  0  0  0  0
 46 56  1  0  0  0  0
 47 58  1  0  0  0  0
 48 59  1  0  0  0  0
 49 52  1  0  0  0  0
 49 55  1  0  0  0  0
 50 53  1  0  0  0  0
 50 55  1  0  0  0  0
 51 75  1  0  0  0  0
 52 76  1  0  0  0  0
 53 76  1  0  0  0  0
 54 58  1  0  0  0  0
 54 75  1  0  0  0  0
 56 79  1  0  0  0  0
 57 74  1  0  0  0  0
 58 73  1  0  0  0  0
 59 61  1  0  0  0  0
 59 62  1  0  0  0  0
 63 70  1  0  0  0  0
 64 71  1  0  0  0  0
 65 71  1  0  0  0  0
 66 71  1  0  0  0  0
 67 81  1  0  0  0  0
 68 88  1  0  0  0  0
 69 71  1  0  0  0  0
 69 80  1  0  0  0  0
 70 81  1  0  0  0  0
 72 73  1  0  0  0  0
M  CHG  1  81   1
M  ISO  4  38 100  68 101  76 100  88 101
M  END
> <Batch ID>
0174

> <Smiles>
CNC(C)C(=O)NC(C(=O)N1Cc2cc([101O:1][101CH2:1]c3cc(C4CC[100N:0]([100C:0](=O)N5CCCC(n6nc(-c7ccc(Oc8ccc(F)cc8F)cc7)c(C(N)=O)c6N)C5)CC4)c(C)c4c3CCCC4(C)C)ccc2CC1C(=O)NC1CCCc2ccccc21)C(C)(C)C

> <Shape>
0.210

> <Color>
0.106

> <Negative vol penalty>
0.000

$$$$

  -OEChem-04052322453D

 89 99  0     1  0  0  0  0  0999 V2000
  -19.7015  -13.0095   22.6758 C   0  0  0  0  0  0  0  0  0  0  0  0
  -20.9516  -13.4734   23.0727 C   0  0  0  0  0  0  0  0  0  0  0  0
  -28.3829  -31.1625   23.8783 C   0  0  0  0  0  0  0  0  0  0  0  0
  -28.2418  -32.6204   21.9569 C   0  0  0  0  0  0  0  0  0  0  0  0
  -19.6064  -11.9467   21.7784 C   0  0  0  0  0  0  0  0  0  0  0  0
  -22.1073  -12.8740   22.5733 C   0  0  0  0  0  0  0  0  0  0  0  0
  -25.5893  -16.2610   21.1418 C   0  0  0  0  0  0  0  0  0  0  0  0
  -29.5594  -31.7984   24.2744 C   0  0  0  0  0  0  0  0  0  0  0  0
  -29.4183  -33.2563   22.3531 C   0  0  0  0  0  0  0  0  0  0  0  0
  -26.3444  -16.8619   22.1479 C   0  0  0  0  0  0  0  0  0  0  0  0
  -32.7427  -32.6560   22.2157 C   0  0  0  0  0  0  0  0  0  0  0  0
  -33.7054  -32.9055   21.2377 C   0  0  0  0  0  0  0  0  0  0  0  0
  -28.1621  -15.3465   21.6805 C   0  0  0  0  0  0  0  0  0  0  0  0
  -28.6940  -19.8084   22.3412 C   0  0  0  0  0  0  0  0  0  0  0  0
  -33.5432  -35.2747   21.6826 C   0  0  0  0  0  0  0  0  0  0  0  0
  -27.7241  -31.5734   22.7195 C   0  0  0  0  0  0  0  0  0  0  0  0
  -25.1926  -31.2627   22.6686 C   0  0  0  0  0  0  0  0  0  0  0  0
  -20.7616  -11.3403   21.2603 C   0  0  0  0  0  0  0  0  0  0  0  0
  -26.1117  -15.1893   20.4035 C   0  0  0  0  0  0  0  0  0  0  0  0
  -22.0275  -11.8012   21.6692 C   0  0  0  0  0  0  0  0  0  0  0  0
  -27.4126  -14.7354   20.6637 C   0  0  0  0  0  0  0  0  0  0  0  0
  -29.9223  -18.5772   20.7207 C   0  0  0  0  0  0  0  0  0  0  0  0
  -29.4135  -18.6658   22.0010 C   0  0  0  0  0  0  0  0  0  0  0  0
  -30.0771  -32.8453   23.5119 C   0  0  0  0  0  0  0  0  0  0  0  0
  -27.6299  -16.4028   22.4194 C   0  0  0  0  0  0  0  0  0  0  0  0
  -32.1801  -33.7157   22.9271 C   0  0  0  0  0  0  0  0  0  0  0  0
  -34.1057  -34.2149   20.9711 C   0  0  0  0  0  0  0  0  0  0  0  0
  -32.5804  -35.0251   22.6606 C   0  0  0  0  0  0  0  0  0  0  0  0
  -26.5090  -30.9165   22.3094 C   0  0  0  0  0  0  0  0  0  0  0  0
  -28.5124  -20.7962   21.3739 C   0  0  0  0  0  0  0  0  0  0  0  0
  -29.6877  -19.6158   19.8235 C   0  0  0  0  0  0  0  0  0  0  0  0
  -24.4066  -30.3388   22.0242 C   0  0  0  0  0  0  0  0  0  0  0  0
  -24.7222  -32.3246   23.5094 C   0  0  0  0  0  0  0  0  0  0  0  0
  -25.3012  -12.1437   19.9903 C   0  0  0  0  0  0  0  0  0  0  0  0
  -27.7018  -12.2059   17.8095 C   0  0  0  0  0  0  0  0  0  0  0  0
  -30.5964  -13.6542   16.7278 C   0  0  0  0  0  0  0  0  0  0  0  0
  -25.2322  -24.8578   20.0949 C   0  0  0  0  0  0  0  0  0  0  0  0
  -20.6085  -10.1636   20.3293 C   0  0  0  0  0  0  0  0  0  0  0  0
  -25.2944  -14.5694   19.3034 C   0  0  0  0  0  0  0  0  0  0  0  0
  -30.6806  -17.4605   20.0864 C   0  0  0  0  0  0  0  0  0  0  0  0
  -28.0272  -13.6013   19.8861 C   0  0  0  0  0  0  0  0  0  0  0  0
  -21.8820   -9.8278   19.5575 C   0  0  0  0  0  0  0  0  0  0  0  0
  -31.2711  -18.1680   18.8549 C   0  0  0  0  0  0  0  0  0  0  0  0
  -24.3009  -27.5548   18.1438 C   0  0  0  0  0  0  0  0  0  0  0  0
  -23.0860   -9.8152   20.4939 C   0  0  0  0  0  0  0  0  0  0  0  0
  -24.6273  -28.7656   19.0178 C   0  0  0  0  0  0  0  0  0  0  0  0
  -28.2410  -23.2856   20.9855 C   0  0  0  0  0  0  0  0  0  0  0  0
  -26.2148  -21.8582   21.5021 C   0  0  0  0  0  0  0  0  0  0  0  0
  -25.3938  -26.4973   18.2464 C   0  0  0  0  0  0  0  0  0  0  0  0
  -27.4219  -24.5333   21.3281 C   0  0  0  0  0  0  0  0  0  0  0  0
  -25.4542  -23.1327   21.8565 C   0  0  0  0  0  0  0  0  0  0  0  0
  -25.9886  -27.2388   20.5299 C   0  0  0  0  0  0  0  0  0  0  0  0
  -23.3043  -11.1932   21.1304 C   0  0  1  0  0  0  0  0  0  0  0  0
  -27.7256  -22.0426   21.7331 C   0  0  0  0  0  0  0  0  0  0  0  0
  -25.7334  -13.1491   18.9607 C   0  0  1  0  0  0  0  0  0  0  0  0
  -24.9101  -28.3395   20.4694 C   0  0  1  0  0  0  0  0  0  0  0  0
  -30.2831  -19.3002   18.4657 C   0  0  0  0  0  0  0  0  0  0  0  0
  -31.0195  -20.4940   17.8569 C   0  0  0  0  0  0  0  0  0  0  0  0
  -29.1949  -18.7959   17.5119 C   0  0  0  0  0  0  0  0  0  0  0  0
  -30.3379  -18.0529   24.2622 C   0  0  0  0  0  0  0  0  0  0  0  0
  -32.5530  -14.1065   15.2228 C   0  0  0  0  0  0  0  0  0  0  0  0
  -28.8991   -9.7937   19.2440 C   0  0  0  0  0  0  0  0  0  0  0  0
  -31.0528  -10.2390   18.0475 C   0  0  0  0  0  0  0  0  0  0  0  0
  -28.9987   -9.6783   16.7477 C   0  0  0  0  0  0  0  0  0  0  0  0
  -29.0782  -15.6552   15.1625 C   0  0  0  0  0  0  0  0  0  0  0  0
  -29.6149  -17.5784   22.9973 C   0  0  1  0  0  0  0  0  0  1  0  0
  -29.1884  -11.9465   17.8484 C   0  0  1  0  0  0  0  0  0  0  0  0
  -31.0377  -14.1178   15.3512 C   0  0  2  0  0  0  0  0  0  0  0  0
  -29.5227  -10.4345   17.9880 C   0  0  0  0  0  0  0  0  0  0  0  0
  -26.5605  -29.8554   21.4999 N   0  0  0  0  0  0  0  0  0  0  0  0
  -28.9891  -20.7293   20.1079 N   0  0  0  0  0  0  0  0  0  0  0  0
  -25.2666  -29.5268   21.3450 N   0  0  0  0  0  0  0  0  0  0  0  0
  -27.1860  -13.0237   18.8249 N   0  0  0  0  0  0  0  0  0  0  0  0
  -25.6352  -26.1222   19.6396 N   0  0  0  0  0  0  0  0  0  0  0  0
  -25.9876  -24.2837   21.1285 N   0  0  0  0  0  0  0  0  0  0  0  0
  -23.0707  -30.1499   21.9780 N   0  0  0  0  0  0  0  0  0  0  0  0
  -25.6647  -33.1827   24.0922 N   0  0  0  0  0  0  0  0  0  0  0  0
  -23.9344  -12.0916   20.1869 N   0  0  0  0  0  0  0  0  0  0  0  0
  -29.7435  -12.5733   16.6536 N   0  0  0  0  0  0  0  0  0  0  0  0
  -30.5543  -15.5034   15.0917 N   0  3  0  0  0  0  0  0  0  0  0  0
  -23.5033  -32.4970   23.7503 O   0  0  0  0  0  0  0  0  0  0  0  0
  -26.1452  -11.4643   20.5628 O   0  0  0  0  0  0  0  0  0  0  0  0
  -27.0243  -11.7073   16.9073 O   0  0  0  0  0  0  0  0  0  0  0  0
  -30.9738  -14.1944   17.7652 O   0  0  0  0  0  0  0  0  0  0  0  0
  -24.2549  -24.2759   19.6078 O   0  0  0  0  0  0  0  0  0  0  0  0
  -31.2250  -33.4662   23.8983 O   0  0  0  0  0  0  0  0  0  0  0  0
  -28.3708  -16.9887   23.4039 O   0  0  0  0  0  0  0  0  0  1  0  0
  -35.0313  -34.4543   20.0330 F   0  0  0  0  0  0  0  0  0  0  0  0
  -32.0444  -36.0472   23.3416 F   0  0  0  0  0  0  0  0  0  0  0  0
  1  2  1  0  0  0  0
  1  5  2  0  0  0  0
  2  6  2  0  0  0  0
  3  8  2  0  0  0  0
  3 16  1  0  0  0  0
  4  9  1  0  0  0  0
  4 16  2  0  0  0  0
  5 18  1  0  0  0  0
  6 20  1  0  0  0  0
  7 10  2  0  0  0  0
  7 19  1  0  0  0  0
  8 24  1  0  0  0  0
  9 24  2  0  0  0  0
 10 25  1  0  0  0  0
 11 12  2  0  0  0  0
 11 26  1  0  0  0  0
 12 27  1  0  0  0  0
 13 21  1  0  0  0  0
 13 25  2  0  0  0  0
 14 23  1  0  0  0  0
 14 30  2  0  0  0  0
 15 27  2  0  0  0  0
 15 28  1  0  0  0  0
 16 29  1  0  0  0  0
 17 29  1  0  0  0  0
 17 32  2  0  0  0  0
 17 33  1  0  0  0  0
 18 20  2  0  0  0  0
 18 38  1  0  0  0  0
 19 21  2  0  0  0  0
 19 39  1  0  0  0  0
 20 53  1  0  0  0  0
 21 41  1  0  0  0  0
 22 23  2  0  0  0  0
 22 31  1  0  0  0  0
 22 40  1  0  0  0  0
 23 66  1  0  0  0  0
 24 86  1  0  0  0  0
 25 87  1  0  0  0  0
 26 28  2  0  0  0  0
 26 86  1  0  0  0  0
 27 88  1  0  0  0  0
 28 89  1  0  0  0  0
 29 70  2  0  0  0  0
 30 54  1  0  0  0  0
 30 71  1  0  0  0  0
 31 57  1  0  0  0  0
 31 71  2  0  0  0  0
 32 72  1  0  0  0  0
 32 76  1  0  0  0  0
 33 77  1  0  0  0  0
 33 81  2  0  0  0  0
 34 55  1  0  0  0  0
 34 78  1  0  0  0  0
 34 82  2  0  0  0  0
 35 67  1  0  0  0  0
 35 73  1  0  0  0  0
 35 83  2  0  0  0  0
 36 68  1  0  0  0  0
 36 79  1  0  0  0  0
 36 84  2  0  0  0  0
 37 74  1  0  0  0  0
 37 75  1  0  0  0  0
 37 85  2  0  0  0  0
 38 42  1  0  0  0  0
 39 55  1  0  0  0  0
 40 43  1  0  0  0  0
 41 73  1  0  0  0  0
 42 45  1  0  0  0  0
 43 57  1  0  0  0  0
 44 46  1  0  0  0  0
 44 49  1  0  0  0  0
 45 53  1  0  0  0  0
 46 56  1  0  0  0  0
 47 50  1  0  0  0  0
 47 54  1  0  0  0  0
 48 51  1  0  0  0  0
 48 54  1  0  0  0  0
 49 74  1  0  0  0  0
 50 75  1  0  0  0  0
 51 75  1  0  0  0  0
 52 56  1  0  0  0  0
 52 74  1  0  0  0  0
 53 78  1  0  0  0  0
 55 73  1  0  0  0  0
 56 72  1  0  0  0  0
 57 58  1  0  0  0  0
 57 59  1  0  0  0  0
 60 66  1  0  0  0  0
 61 68  1  0  0  0  0
 62 69  1  0  0  0  0
 63 69  1  0  0  0  0
 64 69  1  0  0  0  0
 65 80  1  0  0  0  0
 66 87  1  0  0  0  0
 67 69  1  0  0  0  0
 67 79  1  0  0  0  0
 68 80  1  0  0  0  0
 70 72  1  0  0  0  0
M  CHG  1  80   1
M  ISO  4  37 100  66 101  75 100  87 101
M  END
> <Batch ID>
0174

> <Smiles>
CNC(C)C(=O)NC(C(=O)N1Cc2cc([101O:1][101CH:1](C)c3cc(C4CC[100N:0]([100C:0](=O)N5CCCC(n6nc(-c7ccc(Oc8ccc(F)cc8F)cc7)c(C(N)=O)c6N)C5)CC4)nc4c3CCC4(C)C)ccc2CC1C(=O)NC1CCCc2ccccc21)C(C)(C)C

> <Shape>
0.245

> <Color>
0.066

> <Negative vol penalty>
0.000

$$$$

  -OEChem-04052322453D

 79 88  0     1  0  0  0  0  0999 V2000
  -18.6080  -26.3911   22.7830 C   0  0  0  0  0  0  0  0  0  0  0  0
  -19.8315  -26.3360   22.1232 C   0  0  0  0  0  0  0  0  0  0  0  0
  -28.1022  -15.5743   19.9127 C   0  0  0  0  0  0  0  0  0  0  0  0
  -29.9871  -14.7708   21.1926 C   0  0  0  0  0  0  0  0  0  0  0  0
  -18.0241  -27.6255   23.0647 C   0  0  0  0  0  0  0  0  0  0  0  0
  -20.4714  -27.5154   21.7436 C   0  0  0  0  0  0  0  0  0  0  0  0
  -25.4216  -27.4697   22.8101 C   0  0  0  0  0  0  0  0  0  0  0  0
  -27.5898  -14.2784   19.8536 C   0  0  0  0  0  0  0  0  0  0  0  0
  -29.4747  -13.4748   21.1336 C   0  0  0  0  0  0  0  0  0  0  0  0
  -26.2516  -26.7513   21.9505 C   0  0  0  0  0  0  0  0  0  0  0  0
  -25.8890  -12.1774   21.8849 C   0  0  0  0  0  0  0  0  0  0  0  0
  -24.5278  -12.0064   22.1366 C   0  0  0  0  0  0  0  0  0  0  0  0
  -26.8836  -28.8050   20.8541 C   0  0  0  0  0  0  0  0  0  0  0  0
  -24.2371  -11.0693   19.9288 C   0  0  0  0  0  0  0  0  0  0  0  0
  -29.3009  -15.8205   20.5821 C   0  0  0  0  0  0  0  0  0  0  0  0
  -29.5757  -18.1304   21.6293 C   0  0  0  0  0  0  0  0  0  0  0  0
  -18.6618  -28.8208   22.6969 C   0  0  0  0  0  0  0  0  0  0  0  0
  -25.3079  -28.8623   22.6909 C   0  0  0  0  0  0  0  0  0  0  0  0
  -19.8948  -28.7669   22.0194 C   0  0  0  0  0  0  0  0  0  0  0  0
  -26.0535  -29.5390   21.7150 C   0  0  0  0  0  0  0  0  0  0  0  0
  -28.2760  -13.2286   20.4641 C   0  0  0  0  0  0  0  0  0  0  0  0
  -26.9805  -27.4186   20.9705 C   0  0  0  0  0  0  0  0  0  0  0  0
  -26.4243  -11.7943   20.6550 C   0  0  0  0  0  0  0  0  0  0  0  0
  -23.7018  -11.4524   21.1586 C   0  0  0  0  0  0  0  0  0  0  0  0
  -25.5984  -11.2402   19.6770 C   0  0  0  0  0  0  0  0  0  0  0  0
  -29.8311  -17.1590   20.6430 C   0  0  0  0  0  0  0  0  0  0  0  0
  -30.3102  -19.2219   21.2345 C   0  0  0  0  0  0  0  0  0  0  0  0
  -28.7486  -18.0532   22.7979 C   0  0  0  0  0  0  0  0  0  0  0  0
  -22.9317  -30.8715   22.0423 C   0  0  0  0  0  0  0  0  0  0  0  0
  -25.1679  -33.1211   22.7215 C   0  0  0  0  0  0  0  0  0  0  0  0
  -28.4713  -33.9533   22.9260 C   0  0  0  0  0  0  0  0  0  0  0  0
  -31.6727  -22.6068   16.8855 C   0  0  0  0  0  0  0  0  0  0  0  0
  -17.9691  -30.1301   22.9807 C   0  0  0  0  0  0  0  0  0  0  0  0
  -24.4289  -29.6257   23.6432 C   0  0  0  0  0  0  0  0  0  0  0  0
  -25.9823  -31.0354   21.5588 C   0  0  0  0  0  0  0  0  0  0  0  0
  -18.8917  -31.3420   22.8779 C   0  0  0  0  0  0  0  0  0  0  0  0
  -33.8620  -19.7234   17.6810 C   0  0  0  0  0  0  0  0  0  0  0  0
  -19.7323  -31.2668   21.6073 C   0  0  0  0  0  0  0  0  0  0  0  0
  -32.9521  -18.8467   18.5403 C   0  0  0  0  0  0  0  0  0  0  0  0
  -30.0094  -26.7587   21.3483 C   0  0  0  0  0  0  0  0  0  0  0  0
  -30.8372  -26.5858   20.0634 C   0  0  0  0  0  0  0  0  0  0  0  0
  -30.4939  -23.9942   20.1558 C   0  0  0  0  0  0  0  0  0  0  0  0
  -29.5124  -25.2957   18.2265 C   0  0  0  0  0  0  0  0  0  0  0  0
  -33.0651  -20.5758   16.6980 C   0  0  0  0  0  0  0  0  0  0  0  0
  -31.6168  -23.5322   19.2326 C   0  0  0  0  0  0  0  0  0  0  0  0
  -30.6620  -24.8120   17.3467 C   0  0  0  0  0  0  0  0  0  0  0  0
  -31.1004  -20.5298   18.2007 C   0  0  0  0  0  0  0  0  0  0  0  0
  -20.6317  -30.0248   21.6136 C   0  0  1  0  0  0  0  0  0  0  0  0
  -23.9949  -30.9830   23.0982 C   0  0  1  0  0  0  0  0  0  0  0  0
  -31.8714  -19.6945   19.2333 C   0  0  1  0  0  0  0  0  0  0  0  0
  -28.8791  -25.9401   20.6855 C   0  0  2  0  0  0  0  0  0  1  0  0
  -29.9471  -25.3582   19.6955 C   0  0  0  0  0  0  0  0  0  0  0  0
  -29.9881  -35.8763   23.4727 C   0  0  0  0  0  0  0  0  0  0  0  0
  -24.5394  -34.3830   20.0154 C   0  0  0  0  0  0  0  0  0  0  0  0
  -26.6774  -35.6729   20.1987 C   0  0  0  0  0  0  0  0  0  0  0  0
  -24.8661  -36.0189   21.8787 C   0  0  0  0  0  0  0  0  0  0  0  0
  -29.7158  -32.4836   25.1733 C   0  0  0  0  0  0  0  0  0  0  0  0
  -26.2040  -33.8740   21.9223 C   0  0  1  0  0  0  0  0  0  0  0  0
  -29.2690  -34.6502   24.0134 C   0  0  2  0  0  0  0  0  0  0  0  0
  -25.5718  -34.9588   21.0052 C   0  0  0  0  0  0  0  0  0  0  0  0
  -30.6626  -17.5948   19.6929 N   0  0  0  0  0  0  0  0  0  0  0  0
  -30.9361  -18.8523   20.0804 N   0  0  0  0  0  0  0  0  0  0  0  0
  -25.1039  -31.7366   22.5097 N   0  0  0  0  0  0  0  0  0  0  0  0
  -32.0120  -21.3339   17.3738 N   0  0  0  0  0  0  0  0  0  0  0  0
  -31.1989  -23.5382   17.8245 N   0  0  0  0  0  0  0  0  0  0  0  0
  -30.4751  -20.4521   21.7653 N   0  0  0  0  0  0  0  0  0  0  0  0
  -28.0640  -16.8573   23.0540 N   0  0  0  0  0  0  0  0  0  0  0  0
  -21.7804  -30.2370   22.4680 N   0  0  0  0  0  0  0  0  0  0  0  0
  -27.1655  -34.3946   22.8882 N   0  0  0  0  0  0  0  0  0  0  0  0
  -30.2861  -33.7227   24.5848 N   0  3  0  0  0  0  0  0  0  0  0  0
  -28.6076  -19.0215   23.5827 O   0  0  0  0  0  0  0  0  0  0  0  0
  -23.1400  -31.3287   20.9246 O   0  0  0  0  0  0  0  0  0  0  0  0
  -24.4469  -33.7376   23.5100 O   0  0  0  0  0  0  0  0  0  0  0  0
  -28.9588  -33.1053   22.1819 O   0  0  0  0  0  0  0  0  0  0  0  0
  -31.7843  -22.8930   15.6871 O   0  0  0  0  0  0  0  0  0  0  0  0
  -27.7761  -11.9639   20.4069 O   0  0  0  0  0  0  0  0  0  0  0  0
  -27.7986  -26.7129   20.1216 O   0  0  0  0  0  0  0  0  0  1  0  0
  -22.3949  -11.2869   21.4011 F   0  0  0  0  0  0  0  0  0  0  0  0
  -26.1072  -10.8692   18.4941 F   0  0  0  0  0  0  0  0  0  0  0  0
  1  2  1  0  0  0  0
  1  5  2  0  0  0  0
  2  6  2  0  0  0  0
  3  8  2  0  0  0  0
  3 15  1  0  0  0  0
  4  9  1  0  0  0  0
  4 15  2  0  0  0  0
  5 17  1  0  0  0  0
  6 19  1  0  0  0  0
  7 10  2  0  0  0  0
  7 18  1  0  0  0  0
  8 21  1  0  0  0  0
  9 21  2  0  0  0  0
 10 22  1  0  0  0  0
 11 12  2  0  0  0  0
 11 23  1  0  0  0  0
 12 24  1  0  0  0  0
 13 20  1  0  0  0  0
 13 22  2  0  0  0  0
 14 24  2  0  0  0  0
 14 25  1  0  0  0  0
 15 26  1  0  0  0  0
 16 26  1  0  0  0  0
 16 27  2  0  0  0  0
 16 28  1  0  0  0  0
 17 19  2  0  0  0  0
 17 33  1  0  0  0  0
 18 20  2  0  0  0  0
 18 34  1  0  0  0  0
 19 48  1  0  0  0  0
 20 35  1  0  0  0  0
 21 76  1  0  0  0  0
 22 77  1  0  0  0  0
 23 25  2  0  0  0  0
 23 76  1  0  0  0  0
 24 78  1  0  0  0  0
 25 79  1  0  0  0  0
 26 61  2  0  0  0  0
 27 62  1  0  0  0  0
 27 66  1  0  0  0  0
 28 67  1  0  0  0  0
 28 71  2  0  0  0  0
 29 49  1  0  0  0  0
 29 68  1  0  0  0  0
 29 72  2  0  0  0  0
 30 58  1  0  0  0  0
 30 63  1  0  0  0  0
 30 73  2  0  0  0  0
 31 59  1  0  0  0  0
 31 69  1  0  0  0  0
 31 74  2  0  0  0  0
 32 64  1  0  0  0  0
 32 65  1  0  0  0  0
 32 75  2  0  0  0  0
 33 36  1  0  0  0  0
 34 49  1  0  0  0  0
 35 63  1  0  0  0  0
 36 38  1  0  0  0  0
 37 39  1  0  0  0  0
 37 44  1  0  0  0  0
 38 48  1  0  0  0  0
 39 50  1  0  0  0  0
 40 41  1  0  0  0  0
 40 51  1  0  0  0  0
 41 52  1  0  0  0  0
 42 45  1  0  0  0  0
 42 52  1  0  0  0  0
 43 46  1  0  0  0  0
 43 52  1  0  0  0  0
 44 64  1  0  0  0  0
 45 65  1  0  0  0  0
 46 65  1  0  0  0  0
 47 50  1  0  0  0  0
 47 64  1  0  0  0  0
 48 68  1  0  0  0  0
 49 63  1  0  0  0  0
 50 62  1  0  0  0  0
 51 52  1  0  0  0  0
 51 77  1  0  0  0  0
 53 59  1  0  0  0  0
 54 60  1  0  0  0  0
 55 60  1  0  0  0  0
 56 60  1  0  0  0  0
 57 70  1  0  0  0  0
 58 60  1  0  0  0  0
 58 69  1  0  0  0  0
 59 70  1  0  0  0  0
 61 62  1  0  0  0  0
M  CHG  1  70   1
M  ISO  4  32 100  51 101  65 100  77 101
M  END
> <Batch ID>
0174

> <Smiles>
CNC(C)C(=O)NC(C(=O)N1Cc2cc([101O:1][101CH:1]3CCC34CC[100N:0]([100C:0](=O)N3CCCC(n5nc(-c6ccc(Oc7ccc(F)cc7F)cc6)c(C(N)=O)c5N)C3)CC4)ccc2CC1C(=O)NC1CCCc2ccccc21)C(C)(C)C

> <Shape>
0.286

> <Color>
0.068

> <Negative vol penalty>
0.000

$$$$

  -OEChem-04052322453D

 82 91  0     1  0  0  0  0  0999 V2000
  -28.1729  -37.7780   20.1393 C   0  0  0  0  0  0  0  0  0  0  0  0
  -28.5381  -36.4775   19.8066 C   0  0  0  0  0  0  0  0  0  0  0  0
  -26.5293  -12.3765   21.6880 C   0  0  0  0  0  0  0  0  0  0  0  0
  -25.8958  -13.6773   19.7532 C   0  0  0  0  0  0  0  0  0  0  0  0
  -27.4237  -38.0177   21.2904 C   0  0  0  0  0  0  0  0  0  0  0  0
  -28.1552  -35.4159   20.6256 C   0  0  0  0  0  0  0  0  0  0  0  0
  -26.6650  -29.7475   18.8493 C   0  0  0  0  0  0  0  0  0  0  0  0
  -25.2716  -11.7734   21.6945 C   0  0  0  0  0  0  0  0  0  0  0  0
  -24.6380  -13.0742   19.7596 C   0  0  0  0  0  0  0  0  0  0  0  0
  -27.3876  -28.5558   18.8121 C   0  0  0  0  0  0  0  0  0  0  0  0
  -23.6788   -9.3159   20.0044 C   0  0  0  0  0  0  0  0  0  0  0  0
  -23.6237   -7.9335   20.1817 C   0  0  0  0  0  0  0  0  0  0  0  0
  -26.4603  -27.9338   20.9504 C   0  0  0  0  0  0  0  0  0  0  0  0
  -22.2981   -8.2423   22.1778 C   0  0  0  0  0  0  0  0  0  0  0  0
  -30.0076  -25.3186   20.3593 C   0  0  0  0  0  0  0  0  0  0  0  0
  -26.8414  -13.3285   20.7174 C   0  0  0  0  0  0  0  0  0  0  0  0
  -29.2928  -13.5086   20.0348 C   0  0  0  0  0  0  0  0  0  0  0  0
  -27.0231  -36.9575   22.1188 C   0  0  0  0  0  0  0  0  0  0  0  0
  -25.8417  -30.0468   19.9443 C   0  0  0  0  0  0  0  0  0  0  0  0
  -27.4010  -35.6417   21.7896 C   0  0  0  0  0  0  0  0  0  0  0  0
  -25.7263  -29.1288   20.9979 C   0  0  0  0  0  0  0  0  0  0  0  0
  -24.3260  -12.1222   20.7303 C   0  0  0  0  0  0  0  0  0  0  0  0
  -27.2876  -27.6500   19.8640 C   0  0  0  0  0  0  0  0  0  0  0  0
  -23.0437  -10.1616   20.9139 C   0  0  0  0  0  0  0  0  0  0  0  0
  -22.9333   -7.3966   21.2684 C   0  0  0  0  0  0  0  0  0  0  0  0
  -22.3533   -9.6248   22.0006 C   0  0  0  0  0  0  0  0  0  0  0  0
  -28.1403  -13.9522   20.7106 C   0  0  0  0  0  0  0  0  0  0  0  0
  -31.2626  -25.4103   20.9257 C   0  0  0  0  0  0  0  0  0  0  0  0
  -29.2596  -26.4781   20.3744 C   0  0  0  0  0  0  0  0  0  1  0  0
  -30.2530  -14.4402   20.3456 C   0  0  0  0  0  0  0  0  0  0  0  0
  -30.9339  -27.6042   21.4212 C   0  0  0  0  0  0  0  0  0  0  0  0
  -29.4787  -12.3574   19.2005 C   0  0  0  0  0  0  0  0  0  0  0  0
  -25.7813  -32.3397   22.1449 C   0  0  0  0  0  0  0  0  0  0  0  0
  -22.9951  -30.9124   22.9947 C   0  0  0  0  0  0  0  0  0  0  0  0
  -21.0709  -28.0939   23.0112 C   0  0  0  0  0  0  0  0  0  0  0  0
  -31.7627  -19.6897   20.7738 C   0  0  0  0  0  0  0  0  0  0  0  0
  -26.2543  -37.2705   23.3779 C   0  0  0  0  0  0  0  0  0  0  0  0
  -25.0480  -31.3244   19.9568 C   0  0  0  0  0  0  0  0  0  0  0  0
  -24.8406  -29.3935   22.1869 C   0  0  0  0  0  0  0  0  0  0  0  0
  -25.5694  -36.0524   23.9922 C   0  0  0  0  0  0  0  0  0  0  0  0
  -30.2837  -18.1496   23.7528 C   0  0  0  0  0  0  0  0  0  0  0  0
  -26.5316  -34.8699   24.0467 C   0  0  0  0  0  0  0  0  0  0  0  0
  -29.6367  -16.9075   23.1492 C   0  0  0  0  0  0  0  0  0  0  0  0
  -30.2494  -19.3449   22.7995 C   0  0  0  0  0  0  0  0  0  0  0  0
  -30.1692  -17.8050   20.8569 C   0  0  0  0  0  0  0  0  0  0  0  0
  -32.7956  -21.9853   20.3391 C   0  0  0  0  0  0  0  0  0  0  0  0
  -30.9740  -22.0993   21.4326 C   0  0  0  0  0  0  0  0  0  0  0  0
  -26.9835  -34.4612   22.6395 C   0  0  1  0  0  0  0  0  0  0  0  0
  -24.6385  -31.7597   21.3605 C   0  0  1  0  0  0  0  0  0  0  0  0
  -30.2616  -16.5848   21.7838 C   0  0  2  0  0  0  0  0  0  0  0  0
  -31.6514  -23.0037   20.3942 C   0  0  0  0  0  0  0  0  0  0  0  0
  -31.4502  -28.8732   22.0091 C   0  0  0  0  0  0  0  0  0  0  0  0
  -18.8578  -27.2242   23.8133 C   0  0  0  0  0  0  0  0  0  0  0  0
  -24.0959  -30.7378   25.8351 C   0  0  0  0  0  0  0  0  0  0  0  0
  -22.3103  -29.0600   26.3494 C   0  0  0  0  0  0  0  0  0  0  0  0
  -21.6840  -31.3825   25.6888 C   0  0  0  0  0  0  0  0  0  0  0  0
  -20.1724  -27.5034   20.2538 C   0  0  0  0  0  0  0  0  0  0  0  0
  -22.6076  -29.8038   23.9433 C   0  0  1  0  0  0  0  0  0  0  0  0
  -19.6112  -27.8686   22.6602 C   0  0  2  0  0  0  0  0  0  0  0  0
  -22.6927  -30.2416   25.4328 C   0  0  0  0  0  0  0  0  0  0  0  0
  -28.3474  -15.0779   21.3990 N   0  0  0  0  0  0  0  0  0  0  0  0
  -31.7596  -26.5414   21.4678 N   0  0  0  0  0  0  0  0  0  0  0  0
  -29.6932  -27.6431   20.8990 N   0  0  0  0  0  0  0  0  0  0  0  0
  -29.6412  -15.3495   21.1574 N   0  0  0  0  0  0  0  0  0  0  0  0
  -24.0896  -30.6595   22.1557 N   0  0  0  0  0  0  0  0  0  0  0  0
  -30.7641  -18.9991   21.4689 N   0  0  0  0  0  0  0  0  0  0  0  0
  -31.8677  -21.0477   20.9671 N   0  0  0  0  0  0  0  0  0  0  0  0
  -31.5526  -14.5620   20.0010 N   0  0  0  0  0  0  0  0  0  0  0  0
  -28.3874  -11.5048   18.9856 N   0  0  0  0  0  0  0  0  0  0  0  0
  -32.0531  -24.2561   20.9297 N   0  0  0  0  0  0  0  0  0  0  0  0
  -25.9457  -33.7013   21.9762 N   0  0  0  0  0  0  0  0  0  0  0  0
  -21.2834  -29.3547   23.5273 N   0  0  0  0  0  0  0  0  0  0  0  0
  -19.4960  -26.9807   21.4689 N   0  3  0  0  0  0  0  0  0  0  0  0
  -30.5844  -12.0839   18.6749 O   0  0  0  0  0  0  0  0  0  0  0  0
  -26.4624  -31.6064   22.8520 O   0  0  0  0  0  0  0  0  0  0  0  0
  -22.3459  -31.9613   22.9930 O   0  0  0  0  0  0  0  0  0  0  0  0
  -21.9354  -27.2357   22.8476 O   0  0  0  0  0  0  0  0  0  0  0  0
  -32.5202  -19.1179   19.9788 O   0  0  0  0  0  0  0  0  0  0  0  0
  -23.0987  -11.5338   20.7361 O   0  0  0  0  0  0  0  0  0  0  0  0
  -28.0027  -26.4693   19.8301 O   0  0  0  0  0  0  0  0  0  1  0  0
  -22.8791   -6.0690   21.4376 F   0  0  0  0  0  0  0  0  0  0  0  0
  -21.7401  -10.4321   22.8770 F   0  0  0  0  0  0  0  0  0  0  0  0
  1  2  1  0  0  0  0
  1  5  2  0  0  0  0
  2  6  2  0  0  0  0
  3  8  2  0  0  0  0
  3 16  1  0  0  0  0
  4  9  1  0  0  0  0
  4 16  2  0  0  0  0
  5 18  1  0  0  0  0
  6 20  1  0  0  0  0
  7 10  2  0  0  0  0
  7 19  1  0  0  0  0
  8 22  1  0  0  0  0
  9 22  2  0  0  0  0
 10 23  1  0  0  0  0
 11 12  2  0  0  0  0
 11 24  1  0  0  0  0
 12 25  1  0  0  0  0
 13 21  1  0  0  0  0
 13 23  2  0  0  0  0
 14 25  2  0  0  0  0
 14 26  1  0  0  0  0
 15 28  2  0  0  0  0
 15 29  1  0  0  0  0
 16 27  1  0  0  0  0
 17 27  1  0  0  0  0
 17 30  2  0  0  0  0
 17 32  1  0  0  0  0
 18 20  2  0  0  0  0
 18 37  1  0  0  0  0
 19 21  2  0  0  0  0
 19 38  1  0  0  0  0
 20 48  1  0  0  0  0
 21 39  1  0  0  0  0
 22 79  1  0  0  0  0
 23 80  1  0  0  0  0
 24 26  2  0  0  0  0
 24 79  1  0  0  0  0
 25 81  1  0  0  0  0
 26 82  1  0  0  0  0
 27 61  2  0  0  0  0
 28 62  1  0  0  0  0
 28 70  1  0  0  0  0
 29 63  2  0  0  0  0
 29 80  1  0  0  0  0
 30 64  1  0  0  0  0
 30 68  1  0  0  0  0
 31 52  1  0  0  0  0
 31 62  2  0  0  0  0
 31 63  1  0  0  0  0
 32 69  1  0  0  0  0
 32 74  2  0  0  0  0
 33 49  1  0  0  0  0
 33 71  1  0  0  0  0
 33 75  2  0  0  0  0
 34 58  1  0  0  0  0
 34 65  1  0  0  0  0
 34 76  2  0  0  0  0
 35 59  1  0  0  0  0
 35 72  1  0  0  0  0
 35 77  2  0  0  0  0
 36 66  1  0  0  0  0
 36 67  1  0  0  0  0
 36 78  2  0  0  0  0
 37 40  1  0  0  0  0
 38 49  1  0  0  0  0
 39 65  1  0  0  0  0
 40 42  1  0  0  0  0
 41 43  1  0  0  0  0
 41 44  1  0  0  0  0
 42 48  1  0  0  0  0
 43 50  1  0  0  0  0
 44 66  1  0  0  0  0
 45 50  1  0  0  0  0
 45 66  1  0  0  0  0
 46 51  1  0  0  0  0
 46 67  1  0  0  0  0
 47 51  1  0  0  0  0
 47 67  1  0  0  0  0
 48 71  1  0  0  0  0
 49 65  1  0  0  0  0
 50 64  1  0  0  0  0
 51 70  1  0  0  0  0
 53 59  1  0  0  0  0
 54 60  1  0  0  0  0
 55 60  1  0  0  0  0
 56 60  1  0  0  0  0
 57 73  1  0  0  0  0
 58 60  1  0  0  0  0
 58 72  1  0  0  0  0
 59 73  1  0  0  0  0
 61 64  1  0  0  0  0
M  CHG  1  73   1
M  ISO  4  29 101  36 100  67 100  80 101
M  END
> <Batch ID>
0174

> <Smiles>
CNC(C)C(=O)NC(C(=O)N1Cc2cc([101O:1][101c:1]3cc(NC4C[100N:0]([100C:0](=O)N5CCCC(n6nc(-c7ccc(Oc8ccc(F)cc8F)cc7)c(C(N)=O)c6N)C5)C4)nc(C)n3)ccc2CC1C(=O)NC1CCCc2ccccc21)C(C)(C)C

> <Shape>
0.325

> <Color>
0.100

> <Negative vol penalty>
0.000

$$$$

  -OEChem-04052322453D

 84 93  0     1  0  0  0  0  0999 V2000
  -22.5518  -19.9736   37.7270 C   0  0  0  0  0  0  0  0  0  0  0  0
  -23.7055  -20.3600   37.0523 C   0  0  0  0  0  0  0  0  0  0  0  0
  -23.1901   -9.8192   19.9313 C   0  0  0  0  0  0  0  0  0  0  0  0
  -23.5670   -9.9997   22.3109 C   0  0  0  0  0  0  0  0  0  0  0  0
  -22.2289  -18.6217   37.8357 C   0  0  0  0  0  0  0  0  0  0  0  0
  -24.5376  -19.3944   36.4869 C   0  0  0  0  0  0  0  0  0  0  0  0
  -28.9139  -18.3701   30.9088 C   0  0  0  0  0  0  0  0  0  0  0  0
  -22.4237   -8.6726   20.1396 C   0  0  0  0  0  0  0  0  0  0  0  0
  -22.8005   -8.8531   22.5192 C   0  0  0  0  0  0  0  0  0  0  0  0
  -30.2138  -17.9558   30.6215 C   0  0  0  0  0  0  0  0  0  0  0  0
  -21.2421   -5.7694   23.6472 C   0  0  0  0  0  0  0  0  0  0  0  0
  -21.7379   -4.8095   24.5295 C   0  0  0  0  0  0  0  0  0  0  0  0
  -32.6591  -15.4531   26.4996 C   0  0  0  0  0  0  0  0  0  0  0  0
  -29.5140  -15.6544   30.8036 C   0  0  0  0  0  0  0  0  0  0  0  0
  -23.6974   -4.5454   23.1411 C   0  0  0  0  0  0  0  0  0  0  0  0
  -32.7074  -13.8849   28.3110 C   0  0  0  0  0  0  0  0  0  0  0  0
  -23.7619  -10.4827   21.0169 C   0  0  0  0  0  0  0  0  0  0  0  0
  -24.1009  -12.9994   20.7733 C   0  0  0  0  0  0  0  0  0  0  0  0
  -23.0524  -17.6396   37.2629 C   0  0  0  0  0  0  0  0  0  0  0  0
  -27.9051  -17.4283   31.1568 C   0  0  0  0  0  0  0  0  0  0  0  0
  -24.2261  -18.0280   36.5891 C   0  0  0  0  0  0  0  0  0  0  0  0
  -32.0937  -14.4527   25.7344 C   0  0  0  0  0  0  0  0  0  0  0  0
  -28.2016  -16.0594   31.0913 C   0  0  0  0  0  0  0  0  0  0  0  0
  -32.9814  -15.1617   27.8224 C   0  0  0  0  0  0  0  0  0  0  0  0
  -22.2288   -8.1895   21.4335 C   0  0  0  0  0  0  0  0  0  0  0  0
  -30.5146  -16.5978   30.5717 C   0  0  0  0  0  0  0  0  0  0  0  0
  -21.9739   -6.1172   22.5118 C   0  0  0  0  0  0  0  0  0  0  0  0
  -22.9656   -4.1976   24.2765 C   0  0  0  0  0  0  0  0  0  0  0  0
  -23.2016   -5.5052   22.2587 C   0  0  0  0  0  0  0  0  0  0  0  0
  -24.5542  -11.6669   20.8024 C   0  0  0  0  0  0  0  0  0  0  0  0
  -31.8560  -13.2076   26.3120 C   0  0  0  0  0  0  0  0  0  0  0  0
  -25.2322  -13.7419   20.5387 C   0  0  0  0  0  0  0  0  0  0  0  0
  -22.7756  -13.5194   20.9433 C   0  0  0  0  0  0  0  0  0  0  0  0
  -26.0358  -16.7434   33.6348 C   0  0  0  0  0  0  0  0  0  0  0  0
  -24.6540  -14.6989   31.5293 C   0  0  0  0  0  0  0  0  0  0  0  0
  -24.9448  -12.8331   28.6866 C   0  0  0  0  0  0  0  0  0  0  0  0
  -31.0463  -12.7516   21.5714 C   0  0  0  0  0  0  0  0  0  0  0  0
  -22.6869  -16.1880   37.4472 C   0  0  0  0  0  0  0  0  0  0  0  0
  -26.5020  -17.8911   31.4390 C   0  0  0  0  0  0  0  0  0  0  0  0
  -31.6191  -14.5068   24.3199 C   0  0  0  0  0  0  0  0  0  0  0  0
  -27.1500  -15.0079   31.3299 C   0  0  0  0  0  0  0  0  0  0  0  0
  -23.4251  -15.2487   36.4969 C   0  0  0  0  0  0  0  0  0  0  0  0
  -29.5209  -13.4691   18.4354 C   0  0  0  0  0  0  0  0  0  0  0  0
  -24.9120  -15.5870   36.4600 C   0  0  0  0  0  0  0  0  0  0  0  0
  -28.0341  -13.2088   18.6838 C   0  0  0  0  0  0  0  0  0  0  0  0
  -30.4017  -12.4796   19.1951 C   0  0  0  0  0  0  0  0  0  0  0  0
  -28.6471  -12.1370   20.8915 C   0  0  0  0  0  0  0  0  0  0  0  0
  -25.1410  -17.0116   35.9409 C   0  0  1  0  0  0  0  0  0  0  0  0
  -25.6681  -16.8519   32.1820 C   0  0  1  0  0  0  0  0  0  0  0  0
  -27.7201  -13.1448   20.1906 C   0  0  2  0  0  0  0  0  0  0  0  0
  -31.5351  -13.0028   23.9916 C   0  0  1  0  0  0  0  0  0  0  0  0
  -31.1809  -12.2713   25.3238 C   0  0  0  0  0  0  0  0  0  0  0  0
  -29.6750  -12.2191   25.6189 C   0  0  0  0  0  0  0  0  0  0  0  0
  -31.7784  -10.8624   25.3599 C   0  0  0  0  0  0  0  0  0  0  0  0
  -23.6599  -11.2371   27.2378 C   0  0  0  0  0  0  0  0  0  0  0  0
  -25.0930  -12.4853   33.5828 C   0  0  0  0  0  0  0  0  0  0  0  0
  -24.6888  -10.8133   31.7637 C   0  0  0  0  0  0  0  0  0  0  0  0
  -22.8817  -12.4037   32.4176 C   0  0  0  0  0  0  0  0  0  0  0  0
  -25.1221  -14.6343   26.3450 C   0  0  0  0  0  0  0  0  0  0  0  0
  -33.6085  -16.2078   28.7116 C   0  0  0  0  0  0  0  0  0  0  0  0
  -32.5669  -17.0382   29.4536 C   0  0  0  0  0  0  0  0  0  1  0  0
  -24.8811  -13.2611   31.1294 C   0  0  1  0  0  0  0  0  0  0  0  0
  -24.0373  -12.6906   27.4781 C   0  0  2  0  0  0  0  0  0  0  0  0
  -24.4066  -12.2604   32.2207 C   0  0  0  0  0  0  0  0  0  0  0  0
  -32.1417  -12.8896   27.5872 N   0  0  0  0  0  0  0  0  0  0  0  0
  -25.8709  -11.5657   20.6020 N   0  0  0  0  0  0  0  0  0  0  0  0
  -26.2546  -12.8441   20.4448 N   0  0  0  0  0  0  0  0  0  0  0  0
  -25.7945  -15.5106   31.6083 N   0  0  0  0  0  0  0  0  0  0  0  0
  -30.0543  -12.4686   20.6182 N   0  0  0  0  0  0  0  0  0  0  0  0
  -25.4423  -15.0688   20.4055 N   0  0  0  0  0  0  0  0  0  0  0  0
  -21.7287  -12.6172   21.1768 N   0  0  0  0  0  0  0  0  0  0  0  0
  -25.0043  -17.0528   34.5008 N   0  0  0  0  0  0  0  0  0  0  0  0
  -24.2278  -13.0890   29.8363 N   0  0  0  0  0  0  0  0  0  0  0  0
  -30.6313  -12.7263   22.8973 N   0  0  0  0  0  0  0  0  0  0  0  0
  -24.7163  -13.2079   26.2565 N   0  3  0  0  0  0  0  0  0  0  0  0
  -22.5245  -14.7464   20.8735 O   0  0  0  0  0  0  0  0  0  0  0  0
  -27.1707  -16.4028   33.9470 O   0  0  0  0  0  0  0  0  0  0  0  0
  -23.5061  -15.0895   31.7562 O   0  0  0  0  0  0  0  0  0  0  0  0
  -26.1671  -12.7244   28.6183 O   0  0  0  0  0  0  0  0  0  0  0  0
  -32.2141  -13.0132   21.2635 O   0  0  0  0  0  0  0  0  0  0  0  0
  -21.4807   -7.0709   21.6372 O   0  0  0  0  0  0  0  0  0  0  0  0
  -31.7827  -16.1907   30.2921 O   0  0  0  0  0  0  0  0  0  1  0  0
  -23.4423   -3.2770   25.1247 F   0  0  0  0  0  0  0  0  0  0  0  0
  -23.9097   -5.8361   21.1702 F   0  0  0  0  0  0  0  0  0  0  0  0
  1  2  1  0  0  0  0
  1  5  2  0  0  0  0
  2  6  2  0  0  0  0
  3  8  2  0  0  0  0
  3 17  1  0  0  0  0
  4  9  1  0  0  0  0
  4 17  2  0  0  0  0
  5 19  1  0  0  0  0
  6 21  1  0  0  0  0
  7 10  2  0  0  0  0
  7 20  1  0  0  0  0
  8 25  1  0  0  0  0
  9 25  2  0  0  0  0
 10 26  1  0  0  0  0
 11 12  2  0  0  0  0
 11 27  1  0  0  0  0
 12 28  1  0  0  0  0
 13 22  1  0  0  0  0
 13 24  2  0  0  0  0
 14 23  1  0  0  0  0
 14 26  2  0  0  0  0
 15 28  2  0  0  0  0
 15 29  1  0  0  0  0
 16 24  1  0  0  0  0
 16 65  2  0  0  0  0
 17 30  1  0  0  0  0
 18 30  1  0  0  0  0
 18 32  2  0  0  0  0
 18 33  1  0  0  0  0
 19 21  2  0  0  0  0
 19 38  1  0  0  0  0
 20 23  2  0  0  0  0
 20 39  1  0  0  0  0
 21 48  1  0  0  0  0
 22 31  2  0  0  0  0
 22 40  1  0  0  0  0
 23 41  1  0  0  0  0
 24 60  1  0  0  0  0
 25 81  1  0  0  0  0
 26 82  1  0  0  0  0
 27 29  2  0  0  0  0
 27 81  1  0  0  0  0
 28 83  1  0  0  0  0
 29 84  1  0  0  0  0
 30 66  2  0  0  0  0
 31 52  1  0  0  0  0
 31 65  1  0  0  0  0
 32 67  1  0  0  0  0
 32 70  1  0  0  0  0
 33 71  1  0  0  0  0
 33 76  2  0  0  0  0
 34 49  1  0  0  0  0
 34 72  1  0  0  0  0
 34 77  2  0  0  0  0
 35 62  1  0  0  0  0
 35 68  1  0  0  0  0
 35 78  2  0  0  0  0
 36 63  1  0  0  0  0
 36 73  1  0  0  0  0
 36 79  2  0  0  0  0
 37 69  1  0  0  0  0
 37 74  1  0  0  0  0
 37 80  2  0  0  0  0
 38 42  1  0  0  0  0
 39 49  1  0  0  0  0
 40 51  1  0  0  0  0
 41 68  1  0  0  0  0
 42 44  1  0  0  0  0
 43 45  1  0  0  0  0
 43 46  1  0  0  0  0
 44 48  1  0  0  0  0
 45 50  1  0  0  0  0
 46 69  1  0  0  0  0
 47 50  1  0  0  0  0
 47 69  1  0  0  0  0
 48 72  1  0  0  0  0
 49 68  1  0  0  0  0
 50 67  1  0  0  0  0
 51 52  1  0  0  0  0
 51 74  1  0  0  0  0
 52 53  1  0  0  0  0
 52 54  1  0  0  0  0
 55 63  1  0  0  0  0
 56 64  1  0  0  0  0
 57 64  1  0  0  0  0
 58 64  1  0  0  0  0
 59 75  1  0  0  0  0
 60 61  1  0  0  0  0
 61 82  1  0  0  0  0
 62 64  1  0  0  0  0
 62 73  1  0  0  0  0
 63 75  1  0  0  0  0
 66 67  1  0  0  0  0
M  CHG  1  75   1
M  ISO  4  37 100  61 101  74 100  82 101
M  END
> <Batch ID>
0174

> <Smiles>
CNC(C)C(=O)NC(C(=O)N1Cc2cc([101O:1][101CH2:1]Cc3cnc4c(c3)CC([100NH:0][100C:0](=O)N3CCCC(n5nc(-c6ccc(Oc7ccc(F)cc7F)cc6)c(C(N)=O)c5N)C3)C4(C)C)ccc2CC1C(=O)NC1CCCc2ccccc21)C(C)(C)C

> <Shape>
0.138

> <Color>
0.178

> <Negative vol penalty>
0.000

$$$$

  -OEChem-04052322453D

 88 97  0     1  0  0  0  0  0999 V2000
  -41.2154  -24.9673   28.0801 C   0  0  0  0  0  0  0  0  0  0  0  0
  -40.4074  -23.9695   27.5444 C   0  0  0  0  0  0  0  0  0  0  0  0
  -23.0017   -9.8931   19.9810 C   0  0  0  0  0  0  0  0  0  0  0  0
  -23.7318   -9.9430   22.2835 C   0  0  0  0  0  0  0  0  0  0  0  0
  -40.9593  -26.3050   27.7822 C   0  0  0  0  0  0  0  0  0  0  0  0
  -39.3421  -24.3090   26.7112 C   0  0  0  0  0  0  0  0  0  0  0  0
  -36.7281  -16.6571   27.7955 C   0  0  0  0  0  0  0  0  0  0  0  0
  -39.0761  -21.3643   22.5999 C   0  0  0  0  0  0  0  0  0  0  0  0
  -36.2358  -17.5145   28.7818 C   0  0  0  0  0  0  0  0  0  0  0  0
  -22.2375   -8.7572   20.2479 C   0  0  0  0  0  0  0  0  0  0  0  0
  -22.9676   -8.8071   22.5505 C   0  0  0  0  0  0  0  0  0  0  0  0
  -38.5332  -20.0906   22.7630 C   0  0  0  0  0  0  0  0  0  0  0  0
  -23.2159   -5.4690   22.0748 C   0  0  0  0  0  0  0  0  0  0  0  0
  -23.8066   -4.4519   22.8246 C   0  0  0  0  0  0  0  0  0  0  0  0
  -34.7964  -18.6239   27.1639 C   0  0  0  0  0  0  0  0  0  0  0  0
  -36.4316  -20.8798   21.8799 C   0  0  0  0  0  0  0  0  0  0  0  0
  -22.0860   -4.6906   24.5038 C   0  0  0  0  0  0  0  0  0  0  0  0
  -23.7489  -10.4860   20.9988 C   0  0  0  0  0  0  0  0  0  0  0  0
  -24.1301  -13.0023   20.8244 C   0  0  0  0  0  0  0  0  0  0  0  0
  -39.8961  -26.6605   26.9372 C   0  0  0  0  0  0  0  0  0  0  0  0
  -36.2546  -16.8036   26.5026 C   0  0  0  0  0  0  0  0  0  0  0  0
  -38.2963  -22.4098   22.0848 C   0  0  0  0  0  0  0  0  0  0  0  0
  -39.0706  -25.6528   26.4028 C   0  0  0  0  0  0  0  0  0  0  0  0
  -35.2960  -17.7752   26.1900 C   0  0  0  0  0  0  0  0  0  0  0  0
  -36.9678  -22.1652   21.7088 C   0  0  0  0  0  0  0  0  0  0  0  0
  -35.2774  -18.4911   28.4682 C   0  0  0  0  0  0  0  0  0  0  0  0
  -22.2204   -8.2142   21.5326 C   0  0  0  0  0  0  0  0  0  0  0  0
  -37.2099  -19.8488   22.4058 C   0  0  0  0  0  0  0  0  0  0  0  0
  -22.0603   -6.0969   22.5395 C   0  0  0  0  0  0  0  0  0  0  0  0
  -23.2417   -4.0627   24.0391 C   0  0  0  0  0  0  0  0  0  0  0  0
  -21.4953   -5.7077   23.7540 C   0  0  0  0  0  0  0  0  0  0  0  0
  -24.5390  -11.6591   20.7236 C   0  0  0  0  0  0  0  0  0  0  0  0
  -25.2379  -13.7270   20.4583 C   0  0  0  0  0  0  0  0  0  0  0  0
  -22.8621  -13.5465   21.2143 C   0  0  0  0  0  0  0  0  0  0  0  0
  -37.3005  -25.2194   23.1885 C   0  0  0  0  0  0  0  0  0  0  0  0
  -31.6287  -16.5605   23.1367 C   0  0  0  0  0  0  0  0  0  0  0  0
  -36.1895  -25.5754   20.1617 C   0  0  0  0  0  0  0  0  0  0  0  0
  -35.1535  -24.1008   17.2636 C   0  0  0  0  0  0  0  0  0  0  0  0
  -30.7334  -14.6697   20.6958 C   0  0  0  0  0  0  0  0  0  0  0  0
  -39.6294  -28.1228   26.6820 C   0  0  0  0  0  0  0  0  0  0  0  0
  -38.9047  -23.7715   21.8900 C   0  0  0  0  0  0  0  0  0  0  0  0
  -36.6074  -15.9886   25.2960 C   0  0  0  0  0  0  0  0  0  0  0  0
  -36.0945  -23.2485   21.1324 C   0  0  0  0  0  0  0  0  0  0  0  0
  -38.7097  -28.3752   25.4900 C   0  0  0  0  0  0  0  0  0  0  0  0
  -29.5913  -12.2465   18.3504 C   0  0  0  0  0  0  0  0  0  0  0  0
  -37.4969  -27.4517   25.5465 C   0  0  0  0  0  0  0  0  0  0  0  0
  -28.1441  -11.9842   18.7709 C   0  0  0  0  0  0  0  0  0  0  0  0
  -30.4960  -12.4821   19.5579 C   0  0  0  0  0  0  0  0  0  0  0  0
  -28.5876  -13.2734   20.9016 C   0  0  0  0  0  0  0  0  0  0  0  0
  -37.9206  -25.9797   25.4750 C   0  0  1  0  0  0  0  0  0  0  0  0
  -34.9153  -17.7052   24.7421 C   0  0  1  0  0  0  0  0  0  0  0  0
  -37.8663  -24.8878   21.8366 C   0  0  1  0  0  0  0  0  0  0  0  0
  -36.0856  -16.8830   24.1458 C   0  0  1  0  0  0  0  0  0  0  0  0
  -27.6262  -13.0855   19.7155 C   0  0  2  0  0  0  0  0  0  0  0  0
  -34.7745  -19.4014   29.5388 C   0  0  0  0  0  0  0  0  0  0  0  0
  -29.8346  -17.9792   22.1288 C   0  0  0  0  0  0  0  0  0  0  0  0
  -34.2693  -24.6505   14.9803 C   0  0  0  0  0  0  0  0  0  0  0  0
  -33.4564  -26.1903   21.3708 C   0  0  0  0  0  0  0  0  0  0  0  0
  -32.4460  -25.7902   19.1153 C   0  0  0  0  0  0  0  0  0  0  0  0
  -34.0899  -27.6393   19.4335 C   0  0  0  0  0  0  0  0  0  0  0  0
  -37.4666  -22.8212   15.9327 C   0  0  0  0  0  0  0  0  0  0  0  0
  -32.9440  -17.2951   23.2543 C   0  0  0  0  0  0  0  0  0  0  0  0
  -37.1958  -17.8088   23.6280 C   0  0  0  0  0  0  0  0  0  1  0  0
  -30.8154  -16.8475   21.8829 C   0  0  2  0  0  0  0  0  0  0  0  0
  -34.8997  -25.2443   19.4505 C   0  0  1  0  0  0  0  0  0  0  0  0
  -35.5106  -24.3699   15.8129 C   0  0  2  0  0  0  0  0  0  0  0  0
  -33.7386  -26.1959   19.8552 C   0  0  0  0  0  0  0  0  0  0  0  0
  -25.8076  -11.5349   20.3245 N   0  0  0  0  0  0  0  0  0  0  0  0
  -26.2053  -12.8094   20.1713 N   0  0  0  0  0  0  0  0  0  0  0  0
  -36.7332  -24.5647   20.9671 N   0  0  0  0  0  0  0  0  0  0  0  0
  -29.9494  -13.5392   20.4122 N   0  0  0  0  0  0  0  0  0  0  0  0
  -25.4692  -15.0531   20.3570 N   0  0  0  0  0  0  0  0  0  0  0  0
  -21.8324  -12.6604   21.5592 N   0  0  0  0  0  0  0  0  0  0  0  0
  -38.2481  -25.6136   24.1138 N   0  0  0  0  0  0  0  0  0  0  0  0
  -35.2071  -25.2496   18.0243 N   0  0  0  0  0  0  0  0  0  0  0  0
  -30.1374  -15.6267   21.5079 N   0  0  0  0  0  0  0  0  0  0  0  0
  -33.6400  -16.9671   24.5292 N   0  3  0  0  0  0  0  0  0  0  0  0
  -36.2143  -23.1945   15.2261 N   0  3  0  0  0  0  0  0  0  0  0  0
  -22.6436  -14.7814   21.2397 O   0  0  0  0  0  0  0  0  0  0  0  0
  -36.0933  -25.1261   23.3777 O   0  0  0  0  0  0  0  0  0  0  0  0
  -31.2195  -15.8054   24.0190 O   0  0  0  0  0  0  0  0  0  0  0  0
  -36.6996  -26.6872   20.0028 O   0  0  0  0  0  0  0  0  0  0  0  0
  -34.8532  -22.9839   17.6795 O   0  0  0  0  0  0  0  0  0  0  0  0
  -31.8776  -14.8177   20.2533 O   0  0  0  0  0  0  0  0  0  0  0  0
  -21.4746   -7.1059   21.7935 O   0  0  0  0  0  0  0  0  0  0  0  0
  -36.6773  -18.6067   22.5646 O   0  0  0  0  0  0  0  0  0  1  0  0
  -23.8082   -3.0850   24.7583 F   0  0  0  0  0  0  0  0  0  0  0  0
  -20.3845   -6.3064   24.2050 F   0  0  0  0  0  0  0  0  0  0  0  0
  1  2  1  0  0  0  0
  1  5  2  0  0  0  0
  2  6  2  0  0  0  0
  3 10  2  0  0  0  0
  3 18  1  0  0  0  0
  4 11  1  0  0  0  0
  4 18  2  0  0  0  0
  5 20  1  0  0  0  0
  6 23  1  0  0  0  0
  7  9  2  0  0  0  0
  7 21  1  0  0  0  0
  8 12  2  0  0  0  0
  8 22  1  0  0  0  0
  9 26  1  0  0  0  0
 10 27  1  0  0  0  0
 11 27  2  0  0  0  0
 12 28  1  0  0  0  0
 13 14  2  0  0  0  0
 13 29  1  0  0  0  0
 14 30  1  0  0  0  0
 15 24  1  0  0  0  0
 15 26  2  0  0  0  0
 16 25  1  0  0  0  0
 16 28  2  0  0  0  0
 17 30  2  0  0  0  0
 17 31  1  0  0  0  0
 18 32  1  0  0  0  0
 19 32  1  0  0  0  0
 19 33  2  0  0  0  0
 19 34  1  0  0  0  0
 20 23  2  0  0  0  0
 20 40  1  0  0  0  0
 21 24  2  0  0  0  0
 21 42  1  0  0  0  0
 22 25  2  0  0  0  0
 22 41  1  0  0  0  0
 23 50  1  0  0  0  0
 24 51  1  0  0  0  0
 25 43  1  0  0  0  0
 26 55  1  0  0  0  0
 27 85  1  0  0  0  0
 28 86  1  0  0  0  0
 29 31  2  0  0  0  0
 29 85  1  0  0  0  0
 30 87  1  0  0  0  0
 31 88  1  0  0  0  0
 32 68  2  0  0  0  0
 33 69  1  0  0  0  0
 33 72  1  0  0  0  0
 34 73  1  0  0  0  0
 34 79  2  0  0  0  0
 35 52  1  0  0  0  0
 35 74  1  0  0  0  0
 35 80  2  0  0  0  0
 36 62  1  0  0  0  0
 36 64  1  0  0  0  0
 36 81  2  0  0  0  0
 37 65  1  0  0  0  0
 37 70  1  0  0  0  0
 37 82  2  0  0  0  0
 38 66  1  0  0  0  0
 38 75  1  0  0  0  0
 38 83  2  0  0  0  0
 39 71  1  0  0  0  0
 39 76  1  0  0  0  0
 39 84  2  0  0  0  0
 40 44  1  0  0  0  0
 41 52  1  0  0  0  0
 42 53  1  0  0  0  0
 43 70  1  0  0  0  0
 44 46  1  0  0  0  0
 45 47  1  0  0  0  0
 45 48  1  0  0  0  0
 46 50  1  0  0  0  0
 47 54  1  0  0  0  0
 48 71  1  0  0  0  0
 49 54  1  0  0  0  0
 49 71  1  0  0  0  0
 50 74  1  0  0  0  0
 51 53  1  0  0  0  0
 51 77  1  0  0  0  0
 52 70  1  0  0  0  0
 53 63  1  0  0  0  0
 54 69  1  0  0  0  0
 56 64  1  0  0  0  0
 57 66  1  0  0  0  0
 58 67  1  0  0  0  0
 59 67  1  0  0  0  0
 60 67  1  0  0  0  0
 61 78  1  0  0  0  0
 62 77  1  0  0  0  0
 63 86  1  0  0  0  0
 64 76  1  0  0  0  0
 65 67  1  0  0  0  0
 65 75  1  0  0  0  0
 66 78  1  0  0  0  0
 68 69  1  0  0  0  0
M  CHG  2  77   1  78   1
M  ISO  4  39 100  63 101  76 100  86 101
M  END
> <Batch ID>
0174

> <Smiles>
CNC(C)C(=O)NC(C(=O)N1Cc2cc([101O:1][101CH2:1]C3Cc4ccc(C)cc4C3NCC(=O)C(C)[100NH:0][100C:0](=O)N3CCCC(n4nc(-c5ccc(Oc6ccc(F)cc6F)cc5)c(C(N)=O)c4N)C3)ccc2CC1C(=O)NC1CCCc2ccccc21)C(C)(C)C

> <Shape>
0.175

> <Color>
0.189

> <Negative vol penalty>
0.000

$$$$

  -OEChem-04052322453D

 86 95  0     1  0  0  0  0  0999 V2000
  -26.7346  -35.9221   23.5307 C   0  0  0  0  0  0  0  0  0  0  0  0
  -27.6550  -34.8894   23.3827 C   0  0  0  0  0  0  0  0  0  0  0  0
  -22.2111  -10.2589   20.2900 C   0  0  0  0  0  0  0  0  0  0  0  0
  -23.7291   -9.8495   22.1244 C   0  0  0  0  0  0  0  0  0  0  0  0
  -25.3962  -35.6297   23.7896 C   0  0  0  0  0  0  0  0  0  0  0  0
  -27.2376  -33.5636   23.4945 C   0  0  0  0  0  0  0  0  0  0  0  0
  -28.6378  -27.0326   20.9058 C   0  0  0  0  0  0  0  0  0  0  0  0
  -21.9562   -8.8908   20.1956 C   0  0  0  0  0  0  0  0  0  0  0  0
  -23.4742   -8.4814   22.0301 C   0  0  0  0  0  0  0  0  0  0  0  0
  -28.9231  -25.7395   21.3420 C   0  0  0  0  0  0  0  0  0  0  0  0
  -21.0441   -6.3312   22.9743 C   0  0  0  0  0  0  0  0  0  0  0  0
  -20.8133   -5.6332   24.1596 C   0  0  0  0  0  0  0  0  0  0  0  0
  -26.5711  -25.3520   21.7123 C   0  0  0  0  0  0  0  0  0  0  0  0
  -22.7161   -4.2181   23.6969 C   0  0  0  0  0  0  0  0  0  0  0  0
  -23.0976  -10.7383   21.2544 C   0  0  0  0  0  0  0  0  0  0  0  0
  -22.6689  -13.0935   22.1358 C   0  0  0  0  0  0  0  0  0  0  0  0
  -24.9604  -34.2994   23.8951 C   0  0  0  0  0  0  0  0  0  0  0  0
  -27.3158  -27.4996   20.8799 C   0  0  0  0  0  0  0  0  0  0  0  0
  -25.8923  -33.2532   23.7564 C   0  0  0  0  0  0  0  0  0  0  0  0
  -26.2714  -26.6505   21.2730 C   0  0  0  0  0  0  0  0  0  0  0  0
  -27.8317  -21.3697   19.4778 C   0  0  0  0  0  0  0  0  0  0  0  0
  -27.9215  -21.0455   20.8270 C   0  0  0  0  0  0  0  0  0  0  0  0
  -26.9032  -20.3158   21.4302 C   0  0  0  0  0  0  0  0  0  0  0  0
  -22.5878   -8.0020   21.0656 C   0  0  0  0  0  0  0  0  0  0  0  0
  -27.8900  -24.8999   21.7481 C   0  0  0  0  0  0  0  0  0  0  0  0
  -22.1109   -5.9726   22.1501 C   0  0  0  0  0  0  0  0  0  0  0  0
  -21.6493   -4.5767   24.5210 C   0  0  0  0  0  0  0  0  0  0  0  0
  -22.9468   -4.9161   22.5114 C   0  0  0  0  0  0  0  0  0  0  0  0
  -23.3617  -12.1514   21.3521 C   0  0  0  0  0  0  0  0  0  0  0  0
  -26.7120  -20.9438   18.7817 C   0  0  0  0  0  0  0  0  0  0  0  0
  -25.8250  -19.9373   20.6466 C   0  0  0  0  0  0  0  0  0  0  0  0
  -23.3017  -14.2852   21.8793 C   0  0  0  0  0  0  0  0  0  0  0  0
  -21.5533  -12.9079   23.0171 C   0  0  0  0  0  0  0  0  0  0  0  0
  -25.7382  -29.8496   22.3263 C   0  0  0  0  0  0  0  0  0  0  0  0
  -23.3327  -28.9211   20.3581 C   0  0  0  0  0  0  0  0  0  0  0  0
  -21.9234  -26.4516   18.4707 C   0  0  0  0  0  0  0  0  0  0  0  0
  -27.9677  -17.2695   21.1949 C   0  0  0  0  0  0  0  0  0  0  0  0
  -23.5124  -34.0337   24.2228 C   0  0  0  0  0  0  0  0  0  0  0  0
  -27.0221  -28.8880   20.3814 C   0  0  0  0  0  0  0  0  0  0  0  0
  -24.8332  -27.0969   21.2448 C   0  0  0  0  0  0  0  0  0  0  0  0
  -23.0815  -32.5940   23.9547 C   0  0  0  0  0  0  0  0  0  0  0  0
  -26.7275  -15.5036   18.3628 C   0  0  0  0  0  0  0  0  0  0  0  0
  -29.5627  -21.5826   17.5720 C   0  0  0  0  0  0  0  0  0  0  0  0
  -30.3250  -21.6490   18.8583 C   0  0  0  0  0  0  0  0  0  0  0  0
  -24.1076  -31.6159   24.5179 C   0  0  0  0  0  0  0  0  0  0  0  0
  -25.6893  -14.5480   18.9534 C   0  0  0  0  0  0  0  0  0  0  0  0
  -27.9248  -15.6817   19.2939 C   0  0  0  0  0  0  0  0  0  0  0  0
  -26.5457  -15.1317   21.2610 C   0  0  0  0  0  0  0  0  0  0  0  0
  -28.9075  -22.1531   18.8015 C   0  0  0  0  0  0  0  0  0  0  0  0
  -25.4735  -31.8017   23.8462 C   0  0  1  0  0  0  0  0  0  0  0  0
  -25.6888  -29.4335   20.8834 C   0  0  1  0  0  0  0  0  0  0  0  0
  -25.2937  -14.9638   20.3831 C   0  0  2  0  0  0  0  0  0  0  0  0
  -26.5579  -21.2618   17.3301 C   0  0  0  0  0  0  0  0  0  0  0  0
  -24.6988  -19.1544   21.2394 C   0  0  0  0  0  0  0  0  0  0  0  0
  -19.9392  -25.9790   17.0088 C   0  0  0  0  0  0  0  0  0  0  0  0
  -21.5692  -28.6734   22.8358 C   0  0  0  0  0  0  0  0  0  0  0  0
  -19.9611  -27.3245   21.4709 C   0  0  0  0  0  0  0  0  0  0  0  0
  -20.4411  -29.6924   20.8499 C   0  0  0  0  0  0  0  0  0  0  0  0
  -23.6379  -25.9151   16.1188 C   0  0  0  0  0  0  0  0  0  0  0  0
  -29.1179  -21.4847   21.6357 C   0  0  0  0  0  0  0  0  0  0  0  0
  -26.9695  -19.9548   22.8764 C   0  0  0  0  0  0  0  0  0  0  0  0
  -27.8955  -18.7690   23.1711 C   0  0  0  0  0  0  0  0  0  0  0  0
  -29.3102  -22.9971   21.6122 C   0  0  0  0  0  0  0  0  0  1  0  0
  -22.2027  -27.9241   20.4476 C   0  0  1  0  0  0  0  0  0  0  0  0
  -21.3840  -26.4520   17.0517 C   0  0  2  0  0  0  0  0  0  0  0  0
  -21.0707  -28.3956   21.4035 C   0  0  0  0  0  0  0  0  0  0  0  0
  -24.3581  -12.6976   20.6501 N   0  0  0  0  0  0  0  0  0  0  0  0
  -25.7027  -20.2335   19.3332 N   0  0  0  0  0  0  0  0  0  0  0  0
  -24.2960  -13.9958   20.9917 N   0  0  0  0  0  0  0  0  0  0  0  0
  -24.5977  -28.4653   20.7554 N   0  0  0  0  0  0  0  0  0  0  0  0
  -27.4813  -16.0776   20.6328 N   0  0  0  0  0  0  0  0  0  0  0  0
  -23.0989  -15.5420   22.3285 N   0  0  0  0  0  0  0  0  0  0  0  0
  -21.0258  -11.6178   23.1647 N   0  0  0  0  0  0  0  0  0  0  0  0
  -25.4788  -31.1909   22.5342 N   0  0  0  0  0  0  0  0  0  0  0  0
  -21.7647  -27.6795   19.0777 N   0  0  0  0  0  0  0  0  0  0  0  0
  -27.4920  -17.5737   22.4645 N   0  0  0  0  0  0  0  0  0  0  0  0
  -22.1990  -25.5520   16.1875 N   0  3  0  0  0  0  0  0  0  0  0  0
  -21.0290  -13.8608   23.6421 O   0  0  0  0  0  0  0  0  0  0  0  0
  -25.9914  -29.0153   23.1874 O   0  0  0  0  0  0  0  0  0  0  0  0
  -23.1029  -30.0601   19.9441 O   0  0  0  0  0  0  0  0  0  0  0  0
  -22.4311  -25.4602   18.9901 O   0  0  0  0  0  0  0  0  0  0  0  0
  -28.7625  -18.0104   20.6065 O   0  0  0  0  0  0  0  0  0  0  0  0
  -22.3391   -6.6670   20.9740 O   0  0  0  0  0  0  0  0  0  0  0  0
  -28.1658  -23.6375   22.1749 O   0  0  0  0  0  0  0  0  0  1  0  0
  -21.4285   -3.9075   25.6601 F   0  0  0  0  0  0  0  0  0  0  0  0
  -23.9739   -4.5677   21.7243 F   0  0  0  0  0  0  0  0  0  0  0  0
  1  2  1  0  0  0  0
  1  5  2  0  0  0  0
  2  6  2  0  0  0  0
  3  8  2  0  0  0  0
  3 15  1  0  0  0  0
  4  9  1  0  0  0  0
  4 15  2  0  0  0  0
  5 17  1  0  0  0  0
  6 19  1  0  0  0  0
  7 10  2  0  0  0  0
  7 18  1  0  0  0  0
  8 24  1  0  0  0  0
  9 24  2  0  0  0  0
 10 25  1  0  0  0  0
 11 12  2  0  0  0  0
 11 26  1  0  0  0  0
 12 27  1  0  0  0  0
 13 20  1  0  0  0  0
 13 25  2  0  0  0  0
 14 27  2  0  0  0  0
 14 28  1  0  0  0  0
 15 29  1  0  0  0  0
 16 29  1  0  0  0  0
 16 32  2  0  0  0  0
 16 33  1  0  0  0  0
 17 19  2  0  0  0  0
 17 38  1  0  0  0  0
 18 20  2  0  0  0  0
 18 39  1  0  0  0  0
 19 50  1  0  0  0  0
 20 40  1  0  0  0  0
 21 22  2  0  0  0  0
 21 30  1  0  0  0  0
 21 49  1  0  0  0  0
 22 23  1  0  0  0  0
 22 60  1  0  0  0  0
 23 31  2  0  0  0  0
 23 61  1  0  0  0  0
 24 83  1  0  0  0  0
 25 84  1  0  0  0  0
 26 28  2  0  0  0  0
 26 83  1  0  0  0  0
 27 85  1  0  0  0  0
 28 86  1  0  0  0  0
 29 67  2  0  0  0  0
 30 53  1  0  0  0  0
 30 68  2  0  0  0  0
 31 54  1  0  0  0  0
 31 68  1  0  0  0  0
 32 69  1  0  0  0  0
 32 72  1  0  0  0  0
 33 73  1  0  0  0  0
 33 78  2  0  0  0  0
 34 51  1  0  0  0  0
 34 74  1  0  0  0  0
 34 79  2  0  0  0  0
 35 64  1  0  0  0  0
 35 70  1  0  0  0  0
 35 80  2  0  0  0  0
 36 65  1  0  0  0  0
 36 75  1  0  0  0  0
 36 81  2  0  0  0  0
 37 71  1  0  0  0  0
 37 76  1  0  0  0  0
 37 82  2  0  0  0  0
 38 41  1  0  0  0  0
 39 51  1  0  0  0  0
 40 70  1  0  0  0  0
 41 45  1  0  0  0  0
 42 46  1  0  0  0  0
 42 47  1  0  0  0  0
 43 44  1  0  0  0  0
 43 49  1  0  0  0  0
 44 49  1  0  0  0  0
 45 50  1  0  0  0  0
 46 52  1  0  0  0  0
 47 71  1  0  0  0  0
 48 52  1  0  0  0  0
 48 71  1  0  0  0  0
 50 74  1  0  0  0  0
 51 70  1  0  0  0  0
 52 69  1  0  0  0  0
 55 65  1  0  0  0  0
 56 66  1  0  0  0  0
 57 66  1  0  0  0  0
 58 66  1  0  0  0  0
 59 77  1  0  0  0  0
 60 63  1  0  0  0  0
 61 62  1  0  0  0  0
 62 76  1  0  0  0  0
 63 84  1  0  0  0  0
 64 66  1  0  0  0  0
 64 75  1  0  0  0  0
 65 77  1  0  0  0  0
 67 69  1  0  0  0  0
M  CHG  1  77   1
M  ISO  4  37 100  63 101  76 100  84 101
M  END
> <Batch ID>
0174

> <Smiles>
CNC(C)C(=O)NC(C(=O)N1Cc2cc([101O:1][101CH2:1]Cc3c(CC[100NH:0][100C:0](=O)N4CCCC(n5nc(-c6ccc(Oc7ccc(F)cc7F)cc6)c(C(N)=O)c5N)C4)c(C)nc(C)c3C3CC3)ccc2CC1C(=O)NC1CCCc2ccccc21)C(C)(C)C

> <Shape>
0.306

> <Color>
0.055

> <Negative vol penalty>
0.000

$$$$

  -OEChem-04052322453D

 83 92  0     1  0  0  0  0  0999 V2000
  -28.6277  -31.8326   26.8335 C   0  0  0  0  0  0  0  0  0  0  0  0
  -28.5658  -30.5736   26.2449 C   0  0  0  0  0  0  0  0  0  0  0  0
  -23.3540  -10.0439   22.2318 C   0  0  0  0  0  0  0  0  0  0  0  0
  -24.0054  -11.5354   24.0174 C   0  0  0  0  0  0  0  0  0  0  0  0
  -27.4864  -32.6316   26.8892 C   0  0  0  0  0  0  0  0  0  0  0  0
  -27.3623  -30.1124   25.7126 C   0  0  0  0  0  0  0  0  0  0  0  0
  -27.9481  -27.9539   21.1691 C   0  0  0  0  0  0  0  0  0  0  0  0
  -22.6939   -9.2301   23.1523 C   0  0  0  0  0  0  0  0  0  0  0  0
  -23.3452  -10.7216   24.9380 C   0  0  0  0  0  0  0  0  0  0  0  0
  -28.4501  -26.6536   21.1419 C   0  0  0  0  0  0  0  0  0  0  0  0
  -23.5153   -6.8701   25.4283 C   0  0  0  0  0  0  0  0  0  0  0  0
  -23.7069   -5.4921   25.3283 C   0  0  0  0  0  0  0  0  0  0  0  0
  -29.2367  -20.2660   19.7900 C   0  0  0  0  0  0  0  0  0  0  0  0
  -26.2123  -25.8022   20.8472 C   0  0  0  0  0  0  0  0  0  0  0  0
  -27.7305  -21.1420   21.9686 C   0  0  0  0  0  0  0  0  0  0  0  0
  -21.3353   -5.1874   24.9820 C   0  0  0  0  0  0  0  0  0  0  0  0
  -24.0098  -11.1966   22.6643 C   0  0  0  0  0  0  0  0  0  0  0  0
  -24.1542  -13.1257   21.0014 C   0  0  0  0  0  0  0  0  0  0  0  0
  -26.2707  -32.1839   26.3487 C   0  0  0  0  0  0  0  0  0  0  0  0
  -26.5709  -28.1879   21.0463 C   0  0  0  0  0  0  0  0  0  0  0  0
  -26.2034  -30.9056   25.7623 C   0  0  0  0  0  0  0  0  0  0  0  0
  -29.1360  -19.4722   20.9325 C   0  0  0  0  0  0  0  0  0  0  0  0
  -25.6956  -27.1067   20.8706 C   0  0  0  0  0  0  0  0  0  0  0  0
  -28.5844  -21.4978   19.7368 C   0  0  0  0  0  0  0  0  0  0  0  0
  -28.3828  -19.9102   22.0218 C   0  0  0  0  0  0  0  0  0  0  0  0
  -27.8313  -21.9358   20.8261 C   0  0  0  0  0  0  0  0  0  0  0  0
  -22.6894   -9.5689   24.5054 C   0  0  0  0  0  0  0  0  0  0  0  0
  -27.5819  -25.5773   20.9839 C   0  0  0  0  0  0  0  0  0  0  0  0
  -22.2337   -7.4068   25.3052 C   0  0  0  0  0  0  0  0  0  0  0  0
  -22.6169   -4.6508   25.1051 C   0  0  0  0  0  0  0  0  0  0  0  0
  -21.1437   -6.5655   25.0820 C   0  0  0  0  0  0  0  0  0  0  0  0
  -24.6924  -12.0374   21.7139 C   0  0  0  0  0  0  0  0  0  0  0  0
  -25.1986  -13.5860   20.2372 C   0  0  0  0  0  0  0  0  0  0  0  0
  -22.8288  -13.6719   21.0280 C   0  0  0  0  0  0  0  0  0  0  0  0
  -24.3418  -29.4864   22.9034 C   0  0  0  0  0  0  0  0  0  0  0  0
  -22.4764  -29.0857   20.2801 C   0  0  0  0  0  0  0  0  0  0  0  0
  -21.9011  -27.4113   17.3625 C   0  0  0  0  0  0  0  0  0  0  0  0
  -30.6521  -15.0009   19.8980 C   0  0  0  0  0  0  0  0  0  0  0  0
  -25.0523  -33.0639   26.4747 C   0  0  0  0  0  0  0  0  0  0  0  0
  -26.0481  -29.5983   21.0508 C   0  0  0  0  0  0  0  0  0  0  0  0
  -24.2109  -27.3056   20.7140 C   0  0  0  0  0  0  0  0  0  0  0  0
  -23.9067  -32.6537   25.5530 C   0  0  0  0  0  0  0  0  0  0  0  0
  -29.7168  -11.5879   19.2579 C   0  0  0  0  0  0  0  0  0  0  0  0
  -23.6800  -31.1468   25.6213 C   0  0  0  0  0  0  0  0  0  0  0  0
  -28.3072  -11.4698   19.8280 C   0  0  0  0  0  0  0  0  0  0  0  0
  -30.5620  -12.5427   20.0905 C   0  0  0  0  0  0  0  0  0  0  0  0
  -29.0481  -16.7727   20.9694 C   0  0  0  0  0  0  0  0  0  0  0  0
  -30.5423  -17.5418   19.6775 C   0  0  0  0  0  0  0  0  0  0  0  0
  -28.5470  -13.8312   20.7488 C   0  0  0  0  0  0  0  0  0  0  0  0
  -29.8844  -18.0753   20.9709 C   0  0  0  0  0  0  0  0  0  0  0  0
  -24.9223  -30.3802   25.1518 C   0  0  1  0  0  0  0  0  0  0  0  0
  -24.5738  -29.6877   21.4326 C   0  0  1  0  0  0  0  0  0  0  0  0
  -27.6593  -12.8565   19.9497 C   0  0  2  0  0  0  0  0  0  0  0  0
  -28.7076  -22.3308   18.5034 C   0  0  0  0  0  0  0  0  0  0  0  0
  -28.2617  -19.0747   23.2536 C   0  0  0  0  0  0  0  0  0  0  0  0
  -20.2771  -27.2800   15.4539 C   0  0  0  0  0  0  0  0  0  0  0  0
  -20.5017  -27.5955   22.0660 C   0  0  0  0  0  0  0  0  0  0  0  0
  -19.4205  -26.6907   19.9971 C   0  0  0  0  0  0  0  0  0  0  0  0
  -19.4472  -29.1499   20.4148 C   0  0  0  0  0  0  0  0  0  0  0  0
  -23.9838  -28.1359   15.3886 C   0  0  0  0  0  0  0  0  0  0  0  0
  -27.1249  -23.2512   20.7927 C   0  0  0  0  0  0  0  0  0  1  0  0
  -21.5904  -27.9810   19.7569 C   0  0  1  0  0  0  0  0  0  0  0  0
  -21.5649  -27.9053   15.9670 C   0  0  2  0  0  0  0  0  0  0  0  0
  -20.2677  -27.8501   20.5636 C   0  0  0  0  0  0  0  0  0  0  0  0
  -25.9787  -11.8191   21.4277 N   0  0  0  0  0  0  0  0  0  0  0  0
  -26.2574  -12.7766   20.5268 N   0  0  0  0  0  0  0  0  0  0  0  0
  -23.7475  -28.7029   20.7313 N   0  0  0  0  0  0  0  0  0  0  0  0
  -29.9259  -13.8550   20.2410 N   0  0  0  0  0  0  0  0  0  0  0  0
  -30.0554  -16.2268   20.0758 N   0  0  0  0  0  0  0  0  0  0  0  0
  -25.3052  -14.5999   19.3523 N   0  0  0  0  0  0  0  0  0  0  0  0
  -21.8783  -13.0782   21.8697 N   0  0  0  0  0  0  0  0  0  0  0  0
  -25.0075  -30.3922   23.7071 N   0  0  0  0  0  0  0  0  0  0  0  0
  -21.3995  -28.2494   18.3357 N   0  0  0  0  0  0  0  0  0  0  0  0
  -22.6630  -27.5653   15.0186 N   0  3  0  0  0  0  0  0  0  0  0  0
  -22.4928  -14.6470   20.3140 O   0  0  0  0  0  0  0  0  0  0  0  0
  -23.6118  -28.5775   23.2811 O   0  0  0  0  0  0  0  0  0  0  0  0
  -22.0589  -30.2464   20.2814 O   0  0  0  0  0  0  0  0  0  0  0  0
  -22.5413  -26.3826   17.5687 O   0  0  0  0  0  0  0  0  0  0  0  0
  -31.8130  -14.9354   19.4725 O   0  0  0  0  0  0  0  0  0  0  0  0
  -22.0452   -8.7751   25.4040 O   0  0  0  0  0  0  0  0  0  0  0  0
  -28.0727  -24.2979   20.9574 O   0  0  0  0  0  0  0  0  0  1  0  0
  -22.8013   -3.3276   25.0076 F   0  0  0  0  0  0  0  0  0  0  0  0
  -19.9103   -7.0753   24.9618 F   0  0  0  0  0  0  0  0  0  0  0  0
  1  2  1  0  0  0  0
  1  5  2  0  0  0  0
  2  6  2  0  0  0  0
  3  8  2  0  0  0  0
  3 17  1  0  0  0  0
  4  9  1  0  0  0  0
  4 17  2  0  0  0  0
  5 19  1  0  0  0  0
  6 21  1  0  0  0  0
  7 10  2  0  0  0  0
  7 20  1  0  0  0  0
  8 27  1  0  0  0  0
  9 27  2  0  0  0  0
 10 28  1  0  0  0  0
 11 12  2  0  0  0  0
 11 29  1  0  0  0  0
 12 30  1  0  0  0  0
 13 22  2  0  0  0  0
 13 24  1  0  0  0  0
 14 23  1  0  0  0  0
 14 28  2  0  0  0  0
 15 25  2  0  0  0  0
 15 26  1  0  0  0  0
 16 30  2  0  0  0  0
 16 31  1  0  0  0  0
 17 32  1  0  0  0  0
 18 32  1  0  0  0  0
 18 33  2  0  0  0  0
 18 34  1  0  0  0  0
 19 21  2  0  0  0  0
 19 39  1  0  0  0  0
 20 23  2  0  0  0  0
 20 40  1  0  0  0  0
 21 51  1  0  0  0  0
 22 25  1  0  0  0  0
 22 50  1  0  0  0  0
 23 41  1  0  0  0  0
 24 26  2  0  0  0  0
 24 54  1  0  0  0  0
 25 55  1  0  0  0  0
 26 61  1  0  0  0  0
 27 80  1  0  0  0  0
 28 81  1  0  0  0  0
 29 31  2  0  0  0  0
 29 80  1  0  0  0  0
 30 82  1  0  0  0  0
 31 83  1  0  0  0  0
 32 65  2  0  0  0  0
 33 66  1  0  0  0  0
 33 70  1  0  0  0  0
 34 71  1  0  0  0  0
 34 75  2  0  0  0  0
 35 52  1  0  0  0  0
 35 72  1  0  0  0  0
 35 76  2  0  0  0  0
 36 62  1  0  0  0  0
 36 67  1  0  0  0  0
 36 77  2  0  0  0  0
 37 63  1  0  0  0  0
 37 73  1  0  0  0  0
 37 78  2  0  0  0  0
 38 68  1  0  0  0  0
 38 69  1  0  0  0  0
 38 79  2  0  0  0  0
 39 42  1  0  0  0  0
 40 52  1  0  0  0  0
 41 67  1  0  0  0  0
 42 44  1  0  0  0  0
 43 45  1  0  0  0  0
 43 46  1  0  0  0  0
 44 51  1  0  0  0  0
 45 53  1  0  0  0  0
 46 68  1  0  0  0  0
 47 50  1  0  0  0  0
 47 69  1  0  0  0  0
 48 50  1  0  0  0  0
 48 69  1  0  0  0  0
 49 53  1  0  0  0  0
 49 68  1  0  0  0  0
 51 72  1  0  0  0  0
 52 67  1  0  0  0  0
 53 66  1  0  0  0  0
 56 63  1  0  0  0  0
 57 64  1  0  0  0  0
 58 64  1  0  0  0  0
 59 64  1  0  0  0  0
 60 74  1  0  0  0  0
 61 81  1  0  0  0  0
 62 64  1  0  0  0  0
 62 73  1  0  0  0  0
 63 74  1  0  0  0  0
 65 66  1  0  0  0  0
M  CHG  1  74   1
M  ISO  4  38 100  61 101  69 100  81 101
M  END
> <Batch ID>
0174

> <Smiles>
CNC(C)C(=O)NC(C(=O)N1Cc2cc([101O:1][101CH2:1]c3cc(C)c(C4C[100N:0]([100C:0](=O)N5CCCC(n6nc(-c7ccc(Oc8ccc(F)cc8F)cc7)c(C(N)=O)c6N)C5)C4)cc3C)ccc2CC1C(=O)NC1CCCc2ccccc21)C(C)(C)C

> <Shape>
0.309

> <Color>
0.132

> <Negative vol penalty>
0.000

$$$$

  -OEChem-04052322453D

 86 95  0     1  0  0  0  0  0999 V2000
  -28.8073  -34.3059   24.7125 C   0  0  0  0  0  0  0  0  0  0  0  0
  -28.8228  -32.9886   24.2653 C   0  0  0  0  0  0  0  0  0  0  0  0
  -25.8668   -9.2939   22.8326 C   0  0  0  0  0  0  0  0  0  0  0  0
  -23.9371   -9.3130   21.3790 C   0  0  0  0  0  0  0  0  0  0  0  0
  -27.6142  -34.8774   25.1527 C   0  0  0  0  0  0  0  0  0  0  0  0
  -27.6454  -32.2417   24.2592 C   0  0  0  0  0  0  0  0  0  0  0  0
  -27.0265  -29.6256   19.9676 C   0  0  0  0  0  0  0  0  0  0  0  0
  -25.1583   -8.5339   23.7632 C   0  0  0  0  0  0  0  0  0  0  0  0
  -23.2286   -8.5529   22.3095 C   0  0  0  0  0  0  0  0  0  0  0  0
  -27.7639  -28.4508   19.8260 C   0  0  0  0  0  0  0  0  0  0  0  0
  -23.0434   -5.3133   23.2535 C   0  0  0  0  0  0  0  0  0  0  0  0
  -22.2996   -4.2346   22.7753 C   0  0  0  0  0  0  0  0  0  0  0  0
  -25.8232  -27.1638   20.4556 C   0  0  0  0  0  0  0  0  0  0  0  0
  -30.7786  -22.8373   20.3796 C   0  0  0  0  0  0  0  0  0  0  0  0
  -30.0794  -24.3263   18.1265 C   0  0  0  0  0  0  0  0  0  0  0  0
  -20.2848   -5.2309   23.6614 C   0  0  0  0  0  0  0  0  0  0  0  0
  -25.2562   -9.6835   21.6405 C   0  0  0  0  0  0  0  0  0  0  0  0
  -26.7811   -9.9920   19.6189 C   0  0  0  0  0  0  0  0  0  0  0  0
  -26.4196  -34.1401   25.1429 C   0  0  0  0  0  0  0  0  0  0  0  0
  -25.6827  -29.5788   20.3655 C   0  0  0  0  0  0  0  0  0  0  0  0
  -26.4354  -32.8034   24.7010 C   0  0  0  0  0  0  0  0  0  0  0  0
  -25.0702  -28.3392   20.5990 C   0  0  0  0  0  0  0  0  0  0  0  0
  -30.2071  -24.1009   20.5285 C   0  0  0  0  0  0  0  0  0  0  0  0
  -30.6509  -23.0627   17.9775 C   0  0  0  0  0  0  0  0  0  0  0  0
  -31.0006  -22.3182   19.1040 C   0  0  0  0  0  0  0  0  0  0  0  0
  -29.8575  -24.8454   19.4020 C   0  0  0  0  0  0  0  0  0  0  0  0
  -23.8392   -8.1633   23.5016 C   0  0  0  0  0  0  0  0  0  0  0  0
  -27.1631  -27.2199   20.0728 C   0  0  0  0  0  0  0  0  0  0  0  0
  -22.4079   -6.3508   23.9358 C   0  0  0  0  0  0  0  0  0  0  0  0
  -20.9203   -4.1934   22.9792 C   0  0  0  0  0  0  0  0  0  0  0  0
  -21.0286   -6.3097   24.1397 C   0  0  0  0  0  0  0  0  0  0  0  0
  -25.9874  -10.4691   20.6791 C   0  0  0  0  0  0  0  0  0  0  0  0
  -27.2532  -11.1268   19.0058 C   0  0  0  0  0  0  0  0  0  0  0  0
  -27.0662   -8.6436   19.2235 C   0  0  0  0  0  0  0  0  0  0  0  0
  -24.0404  -30.6810   22.8538 C   0  0  0  0  0  0  0  0  0  0  0  0
  -21.4975  -29.5809   21.1668 C   0  0  0  0  0  0  0  0  0  0  0  0
  -20.3035  -27.4426   18.7901 C   0  0  0  0  0  0  0  0  0  0  0  0
  -29.4310  -16.0334   19.0584 C   0  0  0  0  0  0  0  0  0  0  0  0
  -25.1638  -34.7857   25.6728 C   0  0  0  0  0  0  0  0  0  0  0  0
  -24.8935  -30.8534   20.4877 C   0  0  0  0  0  0  0  0  0  0  0  0
  -23.6248  -28.2336   21.0088 C   0  0  0  0  0  0  0  0  0  0  0  0
  -23.8871  -34.0455   25.2824 C   0  0  0  0  0  0  0  0  0  0  0  0
  -25.9570  -15.9752   19.5799 C   0  0  0  0  0  0  0  0  0  0  0  0
  -24.0455  -32.5468   25.5185 C   0  0  0  0  0  0  0  0  0  0  0  0
  -25.7130  -14.4874   19.8307 C   0  0  0  0  0  0  0  0  0  0  0  0
  -27.2387  -16.4678   20.2543 C   0  0  0  0  0  0  0  0  0  0  0  0
  -28.7262  -18.4594   19.2649 C   0  0  0  0  0  0  0  0  0  0  0  0
  -30.2360  -17.7367   17.4521 C   0  0  0  0  0  0  0  0  0  0  0  0
  -28.1969  -14.1893   20.1588 C   0  0  0  0  0  0  0  0  0  0  0  0
  -29.7619  -19.4757   19.7351 C   0  0  0  0  0  0  0  0  0  0  0  0
  -31.3011  -18.7206   17.9081 C   0  0  0  0  0  0  0  0  0  0  0  0
  -25.1739  -31.9687   24.6559 C   0  0  1  0  0  0  0  0  0  0  0  0
  -23.6758  -30.7174   21.3966 C   0  0  1  0  0  0  0  0  0  0  0  0
  -26.9470  -13.6526   19.4445 C   0  0  1  0  0  0  0  0  0  0  0  0
  -29.9783  -24.6357   21.9041 C   0  0  0  0  0  0  0  0  0  0  0  0
  -30.8798  -22.5279   16.6019 C   0  0  0  0  0  0  0  0  0  0  0  0
  -18.1758  -26.7483   17.6551 C   0  0  0  0  0  0  0  0  0  0  0  0
  -20.6874  -28.0085   23.6530 C   0  0  0  0  0  0  0  0  0  0  0  0
  -19.1676  -26.6411   22.2078 C   0  0  0  0  0  0  0  0  0  0  0  0
  -18.7887  -29.0956   22.4416 C   0  0  0  0  0  0  0  0  0  0  0  0
  -21.3160  -28.2647   16.1334 C   0  0  0  0  0  0  0  0  0  0  0  0
  -31.6173  -20.9572   18.9686 C   0  0  0  0  0  0  0  0  0  0  0  0
  -29.2438  -26.2003   19.5369 C   0  0  0  0  0  0  0  0  0  1  0  0
  -20.7555  -28.2687   21.0852 C   0  0  1  0  0  0  0  0  0  0  0  0
  -19.3858  -27.6680   17.6020 C   0  0  2  0  0  0  0  0  0  0  0  0
  -19.8776  -28.0052   22.3411 C   0  0  0  0  0  0  0  0  0  0  0  0
  -25.9548  -11.8031   20.7391 N   0  0  0  0  0  0  0  0  0  0  0  0
  -26.7340  -12.1738   19.7089 N   0  0  0  0  0  0  0  0  0  0  0  0
  -22.8970  -29.5084   21.1210 N   0  0  0  0  0  0  0  0  0  0  0  0
  -28.3797  -15.6169   19.8886 N   0  0  0  0  0  0  0  0  0  0  0  0
  -29.3685  -17.3433   18.5602 N   0  0  0  0  0  0  0  0  0  0  0  0
  -28.0577  -11.3212   17.9393 N   0  0  0  0  0  0  0  0  0  0  0  0
  -26.4996   -7.5966   19.9631 N   0  0  0  0  0  0  0  0  0  0  0  0
  -24.7285  -31.7972   23.2897 N   0  0  0  0  0  0  0  0  0  0  0  0
  -20.0108  -28.2982   19.8310 N   0  0  0  0  0  0  0  0  0  0  0  0
  -30.6267  -19.8985   18.5719 N   0  3  0  0  0  0  0  0  0  0  0  0
  -20.1153  -27.4118   16.3280 N   0  3  0  0  0  0  0  0  0  0  0  0
  -27.8147   -8.3751   18.2534 O   0  0  0  0  0  0  0  0  0  0  0  0
  -23.7198  -29.7125   23.5328 O   0  0  0  0  0  0  0  0  0  0  0  0
  -20.8587  -30.6320   21.2604 O   0  0  0  0  0  0  0  0  0  0  0  0
  -21.1889  -26.5902   18.7956 O   0  0  0  0  0  0  0  0  0  0  0  0
  -30.3712  -15.2790   18.7789 O   0  0  0  0  0  0  0  0  0  0  0  0
  -23.1476   -7.4215   24.4093 O   0  0  0  0  0  0  0  0  0  0  0  0
  -27.8859  -26.0636   19.9351 O   0  0  0  0  0  0  0  0  0  1  0  0
  -20.2060   -3.1582   22.5185 F   0  0  0  0  0  0  0  0  0  0  0  0
  -20.4124   -7.3040   24.7934 F   0  0  0  0  0  0  0  0  0  0  0  0
  1  2  1  0  0  0  0
  1  5  2  0  0  0  0
  2  6  2  0  0  0  0
  3  8  2  0  0  0  0
  3 17  1  0  0  0  0
  4  9  1  0  0  0  0
  4 17  2  0  0  0  0
  5 19  1  0  0  0  0
  6 21  1  0  0  0  0
  7 10  2  0  0  0  0
  7 20  1  0  0  0  0
  8 27  1  0  0  0  0
  9 27  2  0  0  0  0
 10 28  1  0  0  0  0
 11 12  2  0  0  0  0
 11 29  1  0  0  0  0
 12 30  1  0  0  0  0
 13 22  1  0  0  0  0
 13 28  2  0  0  0  0
 14 23  1  0  0  0  0
 14 25  2  0  0  0  0
 15 24  2  0  0  0  0
 15 26  1  0  0  0  0
 16 30  2  0  0  0  0
 16 31  1  0  0  0  0
 17 32  1  0  0  0  0
 18 32  1  0  0  0  0
 18 33  2  0  0  0  0
 18 34  1  0  0  0  0
 19 21  2  0  0  0  0
 19 39  1  0  0  0  0
 20 22  2  0  0  0  0
 20 40  1  0  0  0  0
 21 52  1  0  0  0  0
 22 41  1  0  0  0  0
 23 26  2  0  0  0  0
 23 55  1  0  0  0  0
 24 25  1  0  0  0  0
 24 56  1  0  0  0  0
 25 62  1  0  0  0  0
 26 63  1  0  0  0  0
 27 83  1  0  0  0  0
 28 84  1  0  0  0  0
 29 31  2  0  0  0  0
 29 83  1  0  0  0  0
 30 85  1  0  0  0  0
 31 86  1  0  0  0  0
 32 67  2  0  0  0  0
 33 68  1  0  0  0  0
 33 72  1  0  0  0  0
 34 73  1  0  0  0  0
 34 78  2  0  0  0  0
 35 53  1  0  0  0  0
 35 74  1  0  0  0  0
 35 79  2  0  0  0  0
 36 64  1  0  0  0  0
 36 69  1  0  0  0  0
 36 80  2  0  0  0  0
 37 65  1  0  0  0  0
 37 75  1  0  0  0  0
 37 81  2  0  0  0  0
 38 70  1  0  0  0  0
 38 71  1  0  0  0  0
 38 82  2  0  0  0  0
 39 42  1  0  0  0  0
 40 53  1  0  0  0  0
 41 69  1  0  0  0  0
 42 44  1  0  0  0  0
 43 45  1  0  0  0  0
 43 46  1  0  0  0  0
 44 52  1  0  0  0  0
 45 54  1  0  0  0  0
 46 70  1  0  0  0  0
 47 50  1  0  0  0  0
 47 71  1  0  0  0  0
 48 51  1  0  0  0  0
 48 71  1  0  0  0  0
 49 54  1  0  0  0  0
 49 70  1  0  0  0  0
 50 76  1  0  0  0  0
 51 76  1  0  0  0  0
 52 74  1  0  0  0  0
 53 69  1  0  0  0  0
 54 68  1  0  0  0  0
 57 65  1  0  0  0  0
 58 66  1  0  0  0  0
 59 66  1  0  0  0  0
 60 66  1  0  0  0  0
 61 77  1  0  0  0  0
 62 76  1  0  0  0  0
 63 84  1  0  0  0  0
 64 66  1  0  0  0  0
 64 75  1  0  0  0  0
 65 77  1  0  0  0  0
 67 68  1  0  0  0  0
M  CHG  2  76   1  77   1
M  ISO  4  38 100  63 101  71 100  84 101
M  END
> <Batch ID>
0174

> <Smiles>
CNC(C)C(=O)NC(C(=O)N1Cc2cc([101O:1][101CH2:1]c3cc(C)c(CN4CC[100N:0]([100C:0](=O)N5CCCC(n6nc(-c7ccc(Oc8ccc(F)cc8F)cc7)c(C(N)=O)c6N)C5)CC4)cc3C)ccc2CC1C(=O)NC1CCCc2ccccc21)C(C)(C)C

> <Shape>
0.330

> <Color>
0.083

> <Negative vol penalty>
0.000

$$$$

  -OEChem-04052322453D

 82 91  0     1  0  0  0  0  0999 V2000
  -22.8757  -30.2212   22.4336 C   0  0  0  0  0  0  0  0  0  0  0  0
  -23.7885  -29.1825   22.5864 C   0  0  0  0  0  0  0  0  0  0  0  0
  -22.6322  -10.5173   19.5592 C   0  0  0  0  0  0  0  0  0  0  0  0
  -23.4658   -9.9068   21.7431 C   0  0  0  0  0  0  0  0  0  0  0  0
  -21.5074  -29.9586   22.4856 C   0  0  0  0  0  0  0  0  0  0  0  0
  -23.3335  -27.8806   22.7925 C   0  0  0  0  0  0  0  0  0  0  0  0
  -29.7697  -17.7077   25.2651 C   0  0  0  0  0  0  0  0  0  0  0  0
  -25.9196  -22.7127   20.7650 C   0  0  0  0  0  0  0  0  0  0  0  0
  -29.1027  -18.7503   24.6186 C   0  0  0  0  0  0  0  0  0  0  0  0
  -21.7398   -9.4461   19.6003 C   0  0  0  0  0  0  0  0  0  0  0  0
  -22.5734   -8.8356   21.7843 C   0  0  0  0  0  0  0  0  0  0  0  0
  -26.7574  -21.7807   21.3759 C   0  0  0  0  0  0  0  0  0  0  0  0
  -20.2646   -6.1544   22.6202 C   0  0  0  0  0  0  0  0  0  0  0  0
  -19.5518   -5.9482   23.8013 C   0  0  0  0  0  0  0  0  0  0  0  0
  -29.8817  -17.9645   22.4524 C   0  0  0  0  0  0  0  0  0  0  0  0
  -24.8430  -20.4062   21.8907 C   0  0  0  0  0  0  0  0  0  0  0  0
  -18.5732   -8.1474   23.5946 C   0  0  0  0  0  0  0  0  0  0  0  0
  -23.4953  -10.7477   20.6306 C   0  0  0  0  0  0  0  0  0  0  0  0
  -24.1916  -13.1670   21.0421 C   0  0  0  0  0  0  0  0  0  0  0  0
  -21.0353  -28.6513   22.6828 C   0  0  0  0  0  0  0  0  0  0  0  0
  -30.4939  -16.8126   24.4951 C   0  0  0  0  0  0  0  0  0  0  0  0
  -24.5337  -22.5033   20.7219 C   0  0  0  0  0  0  0  0  0  0  0  0
  -21.9576  -27.6005   22.8485 C   0  0  0  0  0  0  0  0  0  0  0  0
  -30.5465  -16.9360   23.1018 C   0  0  0  0  0  0  0  0  0  0  0  0
  -23.9901  -21.3358   21.2763 C   0  0  0  0  0  0  0  0  0  0  0  0
  -29.1588  -18.8782   23.2221 C   0  0  0  0  0  0  0  0  0  0  0  0
  -21.7104   -8.6052   20.7129 C   0  0  0  0  0  0  0  0  0  0  0  0
  -26.2189  -20.6287   21.9414 C   0  0  0  0  0  0  0  0  0  0  0  0
  -20.1318   -7.3571   21.9263 C   0  0  0  0  0  0  0  0  0  0  0  0
  -18.7061   -6.9447   24.2885 C   0  0  0  0  0  0  0  0  0  0  0  0
  -19.2860   -8.3536   22.4135 C   0  0  0  0  0  0  0  0  0  0  0  0
  -24.4177  -11.8537   20.5884 C   0  0  0  0  0  0  0  0  0  0  0  0
  -25.3665  -13.8282   20.7794 C   0  0  0  0  0  0  0  0  0  0  0  0
  -23.0239  -13.7383   21.6470 C   0  0  0  0  0  0  0  0  0  0  0  0
  -21.9964  -24.0388   21.8656 C   0  0  0  0  0  0  0  0  0  0  0  0
  -20.3667  -21.8191   20.1513 C   0  0  0  0  0  0  0  0  0  0  0  0
  -20.3312  -18.7279   18.7054 C   0  0  0  0  0  0  0  0  0  0  0  0
  -30.9429  -14.0452   20.8205 C   0  0  0  0  0  0  0  0  0  0  0  0
  -19.5475  -28.4236   22.7789 C   0  0  0  0  0  0  0  0  0  0  0  0
  -23.6464  -23.5054   20.0356 C   0  0  0  0  0  0  0  0  0  0  0  0
  -31.2551  -15.6091   24.9616 C   0  0  0  0  0  0  0  0  0  0  0  0
  -22.5110  -21.0541   21.2385 C   0  0  0  0  0  0  0  0  0  0  0  0
  -19.1444  -26.9592   22.6266 C   0  0  0  0  0  0  0  0  0  0  0  0
  -29.3911  -12.4317   18.0519 C   0  0  0  0  0  0  0  0  0  0  0  0
  -20.0362  -26.0679   23.4851 C   0  0  0  0  0  0  0  0  0  0  0  0
  -27.9426  -12.2404   18.5049 C   0  0  0  0  0  0  0  0  0  0  0  0
  -30.3723  -12.2531   19.2083 C   0  0  0  0  0  0  0  0  0  0  0  0
  -28.6455  -12.8974   20.8444 C   0  0  0  0  0  0  0  0  0  0  0  0
  -21.5027  -26.1711   23.0490 C   0  0  1  0  0  0  0  0  0  0  0  0
  -31.3605  -15.8336   22.4898 C   0  0  1  0  0  0  0  0  0  0  0  0
  -22.1957  -23.4378   20.5030 C   0  0  1  0  0  0  0  0  0  0  0  0
  -27.6153  -13.1229   19.7245 C   0  0  2  0  0  0  0  0  0  0  0  0
  -32.1106  -15.2880   23.7235 C   0  0  1  0  0  0  0  0  0  0  0  0
  -18.8452  -17.1772   17.4076 C   0  0  0  0  0  0  0  0  0  0  0  0
  -18.8354  -21.1532   22.7050 C   0  0  0  0  0  0  0  0  0  0  0  0
  -18.0857  -19.0261   21.6179 C   0  0  0  0  0  0  0  0  0  0  0  0
  -17.4325  -21.2242   20.6359 C   0  0  0  0  0  0  0  0  0  0  0  0
  -22.1789  -18.7050   16.3936 C   0  0  0  0  0  0  0  0  0  0  0  0
  -28.4319  -20.0060   22.5504 C   0  0  0  0  0  0  0  0  0  1  0  0
  -19.8264  -20.4374   20.4309 C   0  0  1  0  0  0  0  0  0  0  0  0
  -19.9027  -18.2669   17.3240 C   0  0  2  0  0  0  0  0  0  0  0  0
  -18.5727  -20.4662   21.3500 C   0  0  0  0  0  0  0  0  0  0  0  0
  -25.6401  -11.6885   20.0761 N   0  0  0  0  0  0  0  0  0  0  0  0
  -26.1926  -12.9066   20.2063 N   0  0  0  0  0  0  0  0  0  0  0  0
  -21.6841  -22.0670   20.5619 N   0  0  0  0  0  0  0  0  0  0  0  0
  -30.0068  -13.1189   20.3320 N   0  0  0  0  0  0  0  0  0  0  0  0
  -25.7631  -15.1021   20.9849 N   0  0  0  0  0  0  0  0  0  0  0  0
  -21.9046  -12.9183   21.8443 N   0  0  0  0  0  0  0  0  0  0  0  0
  -21.7291  -25.3944   21.8490 N   0  0  0  0  0  0  0  0  0  0  0  0
  -19.5997  -19.8168   19.1302 N   0  0  0  0  0  0  0  0  0  0  0  0
  -30.5135  -14.8311   21.8829 N   0  0  0  0  0  0  0  0  0  0  0  0
  -21.0717  -17.7306   16.5712 N   0  3  0  0  0  0  0  0  0  0  0  0
  -22.9690  -14.9444   21.9872 O   0  0  0  0  0  0  0  0  0  0  0  0
  -22.0776  -23.3251   22.8585 O   0  0  0  0  0  0  0  0  0  0  0  0
  -19.6487  -22.6455   19.5828 O   0  0  0  0  0  0  0  0  0  0  0  0
  -21.2229  -18.1749   19.3454 O   0  0  0  0  0  0  0  0  0  0  0  0
  -32.0755  -14.1668   20.3416 O   0  0  0  0  0  0  0  0  0  0  0  0
  -33.3651  -15.9637   23.8512 O   0  0  0  0  0  0  0  0  0  0  0  0
  -20.8395   -7.5600   20.7535 O   0  0  0  0  0  0  0  0  0  0  0  0
  -27.0343  -19.7177   22.5390 O   0  0  0  0  0  0  0  0  0  1  0  0
  -18.0205   -6.7459   25.4219 F   0  0  0  0  0  0  0  0  0  0  0  0
  -19.1534   -9.5107   21.7507 F   0  0  0  0  0  0  0  0  0  0  0  0
  1  2  1  0  0  0  0
  1  5  2  0  0  0  0
  2  6  2  0  0  0  0
  3 10  2  0  0  0  0
  3 18  1  0  0  0  0
  4 11  1  0  0  0  0
  4 18  2  0  0  0  0
  5 20  1  0  0  0  0
  6 23  1  0  0  0  0
  7  9  2  0  0  0  0
  7 21  1  0  0  0  0
  8 12  2  0  0  0  0
  8 22  1  0  0  0  0
  9 26  1  0  0  0  0
 10 27  1  0  0  0  0
 11 27  2  0  0  0  0
 12 28  1  0  0  0  0
 13 14  2  0  0  0  0
 13 29  1  0  0  0  0
 14 30  1  0  0  0  0
 15 24  1  0  0  0  0
 15 26  2  0  0  0  0
 16 25  1  0  0  0  0
 16 28  2  0  0  0  0
 17 30  2  0  0  0  0
 17 31  1  0  0  0  0
 18 32  1  0  0  0  0
 19 32  1  0  0  0  0
 19 33  2  0  0  0  0
 19 34  1  0  0  0  0
 20 23  2  0  0  0  0
 20 39  1  0  0  0  0
 21 24  2  0  0  0  0
 21 41  1  0  0  0  0
 22 25  2  0  0  0  0
 22 40  1  0  0  0  0
 23 49  1  0  0  0  0
 24 50  1  0  0  0  0
 25 42  1  0  0  0  0
 26 59  1  0  0  0  0
 27 79  1  0  0  0  0
 28 80  1  0  0  0  0
 29 31  2  0  0  0  0
 29 79  1  0  0  0  0
 30 81  1  0  0  0  0
 31 82  1  0  0  0  0
 32 63  2  0  0  0  0
 33 64  1  0  0  0  0
 33 67  1  0  0  0  0
 34 68  1  0  0  0  0
 34 73  2  0  0  0  0
 35 51  1  0  0  0  0
 35 69  1  0  0  0  0
 35 74  2  0  0  0  0
 36 60  1  0  0  0  0
 36 65  1  0  0  0  0
 36 75  2  0  0  0  0
 37 61  1  0  0  0  0
 37 70  1  0  0  0  0
 37 76  2  0  0  0  0
 38 66  1  0  0  0  0
 38 71  1  0  0  0  0
 38 77  2  0  0  0  0
 39 43  1  0  0  0  0
 40 51  1  0  0  0  0
 41 53  1  0  0  0  0
 42 65  1  0  0  0  0
 43 45  1  0  0  0  0
 44 46  1  0  0  0  0
 44 47  1  0  0  0  0
 45 49  1  0  0  0  0
 46 52  1  0  0  0  0
 47 66  1  0  0  0  0
 48 52  1  0  0  0  0
 48 66  1  0  0  0  0
 49 69  1  0  0  0  0
 50 53  1  0  0  0  0
 50 71  1  0  0  0  0
 51 65  1  0  0  0  0
 52 64  1  0  0  0  0
 53 78  1  0  0  0  0
 54 61  1  0  0  0  0
 55 62  1  0  0  0  0
 56 62  1  0  0  0  0
 57 62  1  0  0  0  0
 58 72  1  0  0  0  0
 59 80  1  0  0  0  0
 60 62  1  0  0  0  0
 60 70  1  0  0  0  0
 61 72  1  0  0  0  0
 63 64  1  0  0  0  0
M  CHG  1  72   1
M  ISO  4  38 100  59 101  71 100  80 101
M  END
> <Batch ID>
0174

> <Smiles>
CNC(C)C(=O)NC(C(=O)N1Cc2cc([101O:1][101CH2:1]c3ccc4c(c3)C([100NH:0][100C:0](=O)N3CCCC(n5nc(-c6ccc(Oc7ccc(F)cc7F)cc6)c(C(N)=O)c5N)C3)C(O)C4)ccc2CC1C(=O)NC1CCCc2ccccc21)C(C)(C)C

> <Shape>
0.212

> <Color>
0.128

> <Negative vol penalty>
0.000

$$$$

  -OEChem-04052322453D

 88 98  0     1  0  0  0  0  0999 V2000
  -23.3673  -34.1850   14.3435 C   0  0  0  0  0  0  0  0  0  0  0  0
  -23.9692  -32.9680   14.6467 C   0  0  0  0  0  0  0  0  0  0  0  0
  -24.3534  -10.0882   22.8468 C   0  0  0  0  0  0  0  0  0  0  0  0
  -24.4138  -12.0870   24.2026 C   0  0  0  0  0  0  0  0  0  0  0  0
  -23.4746  -35.2547   15.2313 C   0  0  0  0  0  0  0  0  0  0  0  0
  -24.6797  -32.8203   15.8375 C   0  0  0  0  0  0  0  0  0  0  0  0
  -25.0691  -27.7777   19.2910 C   0  0  0  0  0  0  0  0  0  0  0  0
  -23.9852   -9.3406   23.9653 C   0  0  0  0  0  0  0  0  0  0  0  0
  -24.0455  -11.3394   25.3211 C   0  0  0  0  0  0  0  0  0  0  0  0
  -26.0407  -26.7830   19.3924 C   0  0  0  0  0  0  0  0  0  0  0  0
  -21.1769   -8.7532   25.7546 C   0  0  0  0  0  0  0  0  0  0  0  0
  -20.1405   -7.8317   25.6059 C   0  0  0  0  0  0  0  0  0  0  0  0
  -27.0099  -27.9306   21.2800 C   0  0  0  0  0  0  0  0  0  0  0  0
  -30.3203  -24.1618   19.4961 C   0  0  0  0  0  0  0  0  0  0  0  0
  -28.7226  -22.6334   20.4426 C   0  0  0  0  0  0  0  0  0  0  0  0
  -21.6381   -6.0451   26.2402 C   0  0  0  0  0  0  0  0  0  0  0  0
  -24.5677  -11.4614   22.9654 C   0  0  0  0  0  0  0  0  0  0  0  0
  -24.0916  -12.8787   20.8986 C   0  0  0  0  0  0  0  0  0  0  0  0
  -24.1785  -35.1172   16.4380 C   0  0  0  0  0  0  0  0  0  0  0  0
  -25.0671  -28.8639   20.1780 C   0  0  0  0  0  0  0  0  0  0  0  0
  -24.7976  -33.8896   16.7416 C   0  0  0  0  0  0  0  0  0  0  0  0
  -26.0356  -28.9365   21.1893 C   0  0  0  0  0  0  0  0  0  0  0  0
  -29.0079  -23.8504   19.8335 C   0  0  0  0  0  0  0  0  0  0  0  0
  -23.8312   -9.9662   25.2025 C   0  0  0  0  0  0  0  0  0  0  0  0
  -27.0131  -26.8609   20.3852 C   0  0  0  0  0  0  0  0  0  0  0  0
  -22.4440   -8.3207   26.1461 C   0  0  0  0  0  0  0  0  0  0  0  0
  -20.3711   -6.4776   25.8487 C   0  0  0  0  0  0  0  0  0  0  0  0
  -22.6746   -6.9667   26.3889 C   0  0  0  0  0  0  0  0  0  0  0  0
  -24.9487  -12.2341   21.8105 C   0  0  0  0  0  0  0  0  0  0  0  0
  -31.3034  -23.2295   19.7867 C   0  0  0  0  0  0  0  0  0  0  0  0
  -29.7771  -21.7695   20.6905 C   0  0  0  0  0  0  0  0  0  0  0  0
  -24.9370  -13.4695   19.9915 C   0  0  0  0  0  0  0  0  0  0  0  0
  -22.6593  -12.9383   20.8737 C   0  0  0  0  0  0  0  0  0  0  0  0
  -25.3806  -32.0120   19.8701 C   0  0  0  0  0  0  0  0  0  0  0  0
  -24.6828  -31.9993   23.0379 C   0  0  0  0  0  0  0  0  0  0  0  0
  -24.6472  -30.2871   25.9899 C   0  0  0  0  0  0  0  0  0  0  0  0
  -30.6143  -15.3226   20.3029 C   0  0  0  0  0  0  0  0  0  0  0  0
  -24.3072  -36.3160   17.3441 C   0  0  0  0  0  0  0  0  0  0  0  0
  -23.9962  -29.9147   20.0721 C   0  0  0  0  0  0  0  0  0  0  0  0
  -26.0651  -30.0713   22.1791 C   0  0  0  0  0  0  0  0  0  0  0  0
  -24.7609  -35.9645   18.7586 C   0  0  0  0  0  0  0  0  0  0  0  0
  -29.2693  -12.9541   18.0241 C   0  0  0  0  0  0  0  0  0  0  0  0
  -25.9428  -35.0010   18.7162 C   0  0  0  0  0  0  0  0  0  0  0  0
  -27.9298  -12.5614   18.6497 C   0  0  0  0  0  0  0  0  0  0  0  0
  -29.9175  -18.4013   22.4766 C   0  0  0  0  0  0  0  0  0  0  0  0
  -30.6609  -18.5329   20.4835 C   0  0  0  0  0  0  0  0  0  0  0  0
  -30.3422  -13.1844   19.0862 C   0  0  0  0  0  0  0  0  0  0  0  0
  -28.6349  -13.7502   20.7688 C   0  0  0  0  0  0  0  0  0  0  0  0
  -33.1785  -24.8603   19.3868 C   0  0  0  0  0  0  0  0  0  0  0  0
  -33.7979  -22.9152   19.9032 C   0  0  0  0  0  0  0  0  0  0  0  0
  -25.5558  -33.6829   18.0348 C   0  0  1  0  0  0  0  0  0  0  0  0
  -24.3974  -31.2428   20.7064 C   0  0  1  0  0  0  0  0  0  0  0  0
  -27.5053  -13.5623   19.7414 C   0  0  2  0  0  0  0  0  0  0  0  0
  -30.4606  -19.5633   21.6164 C   0  0  0  0  0  0  0  0  0  0  0  0
  -30.7559  -17.4526   21.5871 C   0  0  0  0  0  0  0  0  0  0  0  0
  -34.5530  -24.1898   19.5059 C   0  0  0  0  0  0  0  0  0  0  0  0
  -24.0562  -30.5529   28.4143 C   0  0  0  0  0  0  0  0  0  0  0  0
  -27.2265  -33.6262   23.4771 C   0  0  0  0  0  0  0  0  0  0  0  0
  -27.0922  -33.0492   25.9097 C   0  0  0  0  0  0  0  0  0  0  0  0
  -25.2652  -34.3683   24.8398 C   0  0  0  0  0  0  0  0  0  0  0  0
  -22.6202  -28.1352   25.8514 C   0  0  0  0  0  0  0  0  0  0  0  0
  -27.9039  -24.8236   19.5415 C   0  0  0  0  0  0  0  0  0  1  0  0
  -25.4902  -31.9064   24.3101 C   0  0  1  0  0  0  0  0  0  0  0  0
  -23.5666  -30.1163   27.0423 C   0  0  2  0  0  0  0  0  0  0  0  0
  -26.2694  -33.2170   24.6145 C   0  0  0  0  0  0  0  0  0  0  0  0
  -26.2396  -12.3995   21.5101 N   0  0  0  0  0  0  0  0  0  0  0  0
  -31.0647  -22.0371   20.3773 N   0  0  0  0  0  0  0  0  0  0  0  0
  -26.1999  -13.1547   20.3992 N   0  0  0  0  0  0  0  0  0  0  0  0
  -32.6359  -23.5611   19.4370 N   0  0  0  0  0  0  0  0  0  0  0  0
  -25.0006  -31.0774   22.0305 N   0  0  0  0  0  0  0  0  0  0  0  0
  -29.8765  -14.1481   20.0866 N   0  0  0  0  0  0  0  0  0  0  0  0
  -24.7159  -14.2222   18.8929 N   0  0  0  0  0  0  0  0  0  0  0  0
  -21.9454  -12.2755   21.8813 N   0  0  0  0  0  0  0  0  0  0  0  0
  -29.4709  -20.5331   21.3115 N   0  0  0  0  0  0  0  0  0  0  0  0
  -24.7943  -32.8501   18.9409 N   0  0  0  0  0  0  0  0  0  0  0  0
  -24.5562  -31.5094   25.3583 N   0  0  0  0  0  0  0  0  0  0  0  0
  -30.1058  -16.1933   21.2611 N   0  0  0  0  0  0  0  0  0  0  0  0
  -35.3845  -24.7406   20.5822 N   0  3  0  0  0  0  0  0  0  0  0  0
  -23.1458  -28.6891   27.1257 N   0  3  0  0  0  0  0  0  0  0  0  0
  -22.0307  -13.5472   19.9749 O   0  0  0  0  0  0  0  0  0  0  0  0
  -26.5821  -31.8576   20.0551 O   0  0  0  0  0  0  0  0  0  0  0  0
  -23.7978  -32.8534   22.9443 O   0  0  0  0  0  0  0  0  0  0  0  0
  -25.4901  -29.4242   25.7545 O   0  0  0  0  0  0  0  0  0  0  0  0
  -31.6504  -15.5874   19.6835 O   0  0  0  0  0  0  0  0  0  0  0  0
  -23.4717   -9.2370   26.2941 O   0  0  0  0  0  0  0  0  0  0  0  0
  -27.9630  -25.8917   20.4860 O   0  0  0  0  0  0  0  0  0  1  0  0
  -19.3753   -5.5929   25.7073 F   0  0  0  0  0  0  0  0  0  0  0  0
  -23.8894   -6.5453   26.7664 F   0  0  0  0  0  0  0  0  0  0  0  0
  1  2  1  0  0  0  0
  1  5  2  0  0  0  0
  2  6  2  0  0  0  0
  3  8  2  0  0  0  0
  3 17  1  0  0  0  0
  4  9  1  0  0  0  0
  4 17  2  0  0  0  0
  5 19  1  0  0  0  0
  6 21  1  0  0  0  0
  7 10  2  0  0  0  0
  7 20  1  0  0  0  0
  8 24  1  0  0  0  0
  9 24  2  0  0  0  0
 10 25  1  0  0  0  0
 11 12  2  0  0  0  0
 11 26  1  0  0  0  0
 12 27  1  0  0  0  0
 13 22  1  0  0  0  0
 13 25  2  0  0  0  0
 14 23  2  0  0  0  0
 14 30  1  0  0  0  0
 15 23  1  0  0  0  0
 15 31  2  0  0  0  0
 16 27  2  0  0  0  0
 16 28  1  0  0  0  0
 17 29  1  0  0  0  0
 18 29  1  0  0  0  0
 18 32  2  0  0  0  0
 18 33  1  0  0  0  0
 19 21  2  0  0  0  0
 19 38  1  0  0  0  0
 20 22  2  0  0  0  0
 20 39  1  0  0  0  0
 21 51  1  0  0  0  0
 22 40  1  0  0  0  0
 23 62  1  0  0  0  0
 24 85  1  0  0  0  0
 25 86  1  0  0  0  0
 26 28  2  0  0  0  0
 26 85  1  0  0  0  0
 27 87  1  0  0  0  0
 28 88  1  0  0  0  0
 29 66  2  0  0  0  0
 30 67  2  0  0  0  0
 30 69  1  0  0  0  0
 31 67  1  0  0  0  0
 31 74  1  0  0  0  0
 32 68  1  0  0  0  0
 32 72  1  0  0  0  0
 33 73  1  0  0  0  0
 33 80  2  0  0  0  0
 34 52  1  0  0  0  0
 34 75  1  0  0  0  0
 34 81  2  0  0  0  0
 35 63  1  0  0  0  0
 35 70  1  0  0  0  0
 35 82  2  0  0  0  0
 36 64  1  0  0  0  0
 36 76  1  0  0  0  0
 36 83  2  0  0  0  0
 37 71  1  0  0  0  0
 37 77  1  0  0  0  0
 37 84  2  0  0  0  0
 38 41  1  0  0  0  0
 39 52  1  0  0  0  0
 40 70  1  0  0  0  0
 41 43  1  0  0  0  0
 42 44  1  0  0  0  0
 42 47  1  0  0  0  0
 43 51  1  0  0  0  0
 44 53  1  0  0  0  0
 45 54  1  0  0  0  0
 45 55  1  0  0  0  0
 46 54  1  0  0  0  0
 46 55  1  0  0  0  0
 47 71  1  0  0  0  0
 48 53  1  0  0  0  0
 48 71  1  0  0  0  0
 49 56  1  0  0  0  0
 49 69  1  0  0  0  0
 50 56  1  0  0  0  0
 50 69  1  0  0  0  0
 51 75  1  0  0  0  0
 52 70  1  0  0  0  0
 53 68  1  0  0  0  0
 54 74  1  0  0  0  0
 55 77  1  0  0  0  0
 56 78  1  0  0  0  0
 57 64  1  0  0  0  0
 58 65  1  0  0  0  0
 59 65  1  0  0  0  0
 60 65  1  0  0  0  0
 61 79  1  0  0  0  0
 62 86  1  0  0  0  0
 63 65  1  0  0  0  0
 63 76  1  0  0  0  0
 64 79  1  0  0  0  0
 66 68  1  0  0  0  0
M  CHG  2  78   1  79   1
M  ISO  4  37 100  62 101  77 100  86 101
M  END
> <Batch ID>
0174

> <Smiles>
CNC(C)C(=O)NC(C(=O)N1Cc2cc([101O:1][101CH2:1]c3cc(NC4CC([100NH:0][100C:0](=O)N5CCCC(n6nc(-c7ccc(Oc8ccc(F)cc8F)cc7)c(C(N)=O)c6N)C5)C4)nc(N4CC(N)C4)c3)ccc2CC1C(=O)NC1CCCc2ccccc21)C(C)(C)C

> <Shape>
0.279

> <Color>
0.100

> <Negative vol penalty>
0.000

$$$$

  -OEChem-04052322453D

 89 99  0     1  0  0  0  0  0999 V2000
  -25.7988  -34.5806   24.6370 C   0  0  0  0  0  0  0  0  0  0  0  0
  -26.3859  -33.4228   24.1367 C   0  0  0  0  0  0  0  0  0  0  0  0
  -24.4386   -9.0985   22.0997 C   0  0  0  0  0  0  0  0  0  0  0  0
  -23.5707   -9.9687   20.0197 C   0  0  0  0  0  0  0  0  0  0  0  0
  -24.5190  -34.5299   25.1877 C   0  0  0  0  0  0  0  0  0  0  0  0
  -25.6939  -32.2133   24.1879 C   0  0  0  0  0  0  0  0  0  0  0  0
  -25.9983  -29.6158   19.8514 C   0  0  0  0  0  0  0  0  0  0  0  0
  -23.2242   -8.4548   22.3372 C   0  0  0  0  0  0  0  0  0  0  0  0
  -22.3563   -9.3249   20.2571 C   0  0  0  0  0  0  0  0  0  0  0  0
  -27.1816  -28.9200   19.6077 C   0  0  0  0  0  0  0  0  0  0  0  0
  -21.6479   -5.6488   21.3006 C   0  0  0  0  0  0  0  0  0  0  0  0
  -21.6907   -4.3264   21.7421 C   0  0  0  0  0  0  0  0  0  0  0  0
  -26.1212  -26.8763   20.3272 C   0  0  0  0  0  0  0  0  0  0  0  0
  -30.1105  -21.2937   16.4246 C   0  0  0  0  0  0  0  0  0  0  0  0
  -20.5181   -4.9612   23.7569 C   0  0  0  0  0  0  0  0  0  0  0  0
  -24.6119   -9.8556   20.9410 C   0  0  0  0  0  0  0  0  0  0  0  0
  -26.9834  -10.0044   20.0128 C   0  0  0  0  0  0  0  0  0  0  0  0
  -23.8070  -33.3210   25.2369 C   0  0  0  0  0  0  0  0  0  0  0  0
  -24.8689  -28.9478   20.3461 C   0  0  0  0  0  0  0  0  0  0  0  0
  -24.4038  -32.1461   24.7411 C   0  0  0  0  0  0  0  0  0  0  0  0
  -24.9239  -27.5654   20.5740 C   0  0  0  0  0  0  0  0  0  0  0  0
  -29.2629  -23.1092   17.7622 C   0  0  0  0  0  0  0  0  0  0  0  0
  -29.5083  -21.7499   17.5933 C   0  0  0  0  0  0  0  0  0  0  0  0
  -22.1831   -8.5680   21.4159 C   0  0  0  0  0  0  0  0  0  0  0  0
  -27.2441  -27.5506   19.8483 C   0  0  0  0  0  0  0  0  0  0  0  0
  -21.0403   -6.6274   22.0872 C   0  0  0  0  0  0  0  0  0  0  0  0
  -21.1258   -3.9825   22.9702 C   0  0  0  0  0  0  0  0  0  0  0  0
  -20.4754   -6.2836   23.3153 C   0  0  0  0  0  0  0  0  0  0  0  0
  -25.8660  -10.5212   20.6955 C   0  0  0  0  0  0  0  0  0  0  0  0
  -29.6285  -23.9851   16.7499 C   0  0  0  0  0  0  0  0  0  0  0  0
  -30.4545  -22.2156   15.4462 C   0  0  0  0  0  0  0  0  0  0  0  0
  -27.9083  -11.0191   20.0504 C   0  0  0  0  0  0  0  0  0  0  0  0
  -27.1687   -8.7218   19.3994 C   0  0  0  0  0  0  0  0  0  0  0  0
  -23.1204  -29.1547   22.9925 C   0  0  0  0  0  0  0  0  0  0  0  0
  -21.2457  -26.9989   21.4562 C   0  0  0  0  0  0  0  0  0  0  0  0
  -20.9837  -24.5537   19.0900 C   0  0  0  0  0  0  0  0  0  0  0  0
  -29.1302  -16.3113   19.3299 C   0  0  0  0  0  0  0  0  0  0  0  0
  -22.4451  -33.3065   25.8846 C   0  0  0  0  0  0  0  0  0  0  0  0
  -23.5919  -29.7079   20.5784 C   0  0  0  0  0  0  0  0  0  0  0  0
  -23.7332  -26.7979   21.0856 C   0  0  0  0  0  0  0  0  0  0  0  0
  -21.6298  -32.0573   25.5606 C   0  0  0  0  0  0  0  0  0  0  0  0
  -27.9971  -15.3194   22.6714 C   0  0  0  0  0  0  0  0  0  0  0  0
  -22.4850  -30.8047   25.7231 C   0  0  0  0  0  0  0  0  0  0  0  0
  -27.3782  -13.9567   22.3778 C   0  0  0  0  0  0  0  0  0  0  0  0
  -30.6012  -26.3759   16.5993 C   0  0  0  0  0  0  0  0  0  0  0  0
  -27.8126  -16.3032   21.5153 C   0  0  0  0  0  0  0  0  0  0  0  0
  -27.6651  -14.4123   19.9173 C   0  0  0  0  0  0  0  0  0  0  0  0
  -29.9841  -18.5204   18.3725 C   0  0  0  0  0  0  0  0  0  0  0  0
  -28.2552  -18.7669   19.5880 C   0  0  0  0  0  0  0  0  0  0  0  0
  -23.6751  -30.8199   24.7561 C   0  0  1  0  0  0  0  0  0  0  0  0
  -29.4214  -25.4527   16.8114 C   0  0  2  0  0  0  0  0  0  0  0  0
  -22.6584  -29.0191   21.5692 C   0  0  1  0  0  0  0  0  0  0  0  0
  -30.0075  -26.2331   17.9691 C   0  0  2  0  0  0  0  0  0  0  0  0
  -27.9066  -13.4013   21.0469 C   0  0  2  0  0  0  0  0  0  0  0  0
  -28.7892  -19.4798   18.3383 C   0  0  0  0  0  0  0  0  0  0  0  0
  -31.0992  -21.8092   14.1710 C   0  0  0  0  0  0  0  0  0  0  0  0
  -27.2316  -23.0201   19.2651 C   0  0  0  0  0  0  0  0  0  0  0  0
  -19.3336  -22.9495   18.0893 C   0  0  0  0  0  0  0  0  0  0  0  0
  -21.4721  -25.2269   23.9298 C   0  0  0  0  0  0  0  0  0  0  0  0
  -20.6440  -23.3108   22.5473 C   0  0  0  0  0  0  0  0  0  0  0  0
  -19.1907  -25.3059   22.9083 C   0  0  0  0  0  0  0  0  0  0  0  0
  -21.2695  -25.7562   16.4009 C   0  0  0  0  0  0  0  0  0  0  0  0
  -29.2435  -27.3599   18.5747 C   0  0  0  0  0  0  0  0  0  1  0  0
  -28.6174  -23.6239   19.0069 C   0  0  1  0  0  0  0  0  0  0  0  0
  -21.1936  -25.4923   21.3768 C   0  0  1  0  0  0  0  0  0  0  0  0
  -19.9691  -24.3271   17.9837 C   0  0  2  0  0  0  0  0  0  0  0  0
  -20.6483  -24.8485   22.6828 C   0  0  0  0  0  0  0  0  0  0  0  0
  -26.0611  -11.7674   21.1348 N   0  0  0  0  0  0  0  0  0  0  0  0
  -27.3120  -12.0420   20.7273 N   0  0  0  0  0  0  0  0  0  0  0  0
  -30.2068  -23.5189   15.6346 N   0  3  0  0  0  0  0  0  0  0  0  0
  -22.5094  -27.5868   21.3034 N   0  0  0  0  0  0  0  0  0  0  0  0
  -28.2356  -15.7272   20.2331 N   0  0  0  0  0  0  0  0  0  0  0  0
  -29.1691  -17.6841   19.2506 N   0  0  0  0  0  0  0  0  0  0  0  0
  -29.1653  -11.1271   19.5703 N   0  0  0  0  0  0  0  0  0  0  0  0
  -26.1165   -7.7974   19.4526 N   0  0  0  0  0  0  0  0  0  0  0  0
  -29.1578  -20.8286   18.5861 N   0  0  0  0  0  0  0  0  0  0  0  0
  -23.2460  -30.4624   23.4210 N   0  0  0  0  0  0  0  0  0  0  0  0
  -20.4169  -25.1731   20.1837 N   0  0  0  0  0  0  0  0  0  0  0  0
  -29.4426  -23.3982   20.2418 N   0  3  0  0  0  0  0  0  0  0  0  0
  -20.6232  -24.4419   16.6495 N   0  3  0  0  0  0  0  0  0  0  0  0
  -28.2417   -8.3988   18.8355 O   0  0  0  0  0  0  0  0  0  0  0  0
  -23.3448  -28.1476   23.6535 O   0  0  0  0  0  0  0  0  0  0  0  0
  -20.2026  -27.6313   21.6398 O   0  0  0  0  0  0  0  0  0  0  0  0
  -22.1604  -24.2118   18.9949 O   0  0  0  0  0  0  0  0  0  0  0  0
  -29.8525  -15.6286   18.5917 O   0  0  0  0  0  0  0  0  0  0  0  0
  -20.9980   -7.9398   21.6471 O   0  0  0  0  0  0  0  0  0  0  0  0
  -28.4067  -26.8642   19.6101 O   0  0  0  0  0  0  0  0  0  1  0  0
  -21.1656   -2.7123   23.3934 F   0  0  0  0  0  0  0  0  0  0  0  0
  -19.8892   -7.2192   24.0749 F   0  0  0  0  0  0  0  0  0  0  0  0
  1  2  1  0  0  0  0
  1  5  2  0  0  0  0
  2  6  2  0  0  0  0
  3  8  2  0  0  0  0
  3 16  1  0  0  0  0
  4  9  1  0  0  0  0
  4 16  2  0  0  0  0
  5 18  1  0  0  0  0
  6 20  1  0  0  0  0
  7 10  2  0  0  0  0
  7 19  1  0  0  0  0
  8 24  1  0  0  0  0
  9 24  2  0  0  0  0
 10 25  1  0  0  0  0
 11 12  2  0  0  0  0
 11 26  1  0  0  0  0
 12 27  1  0  0  0  0
 13 21  1  0  0  0  0
 13 25  2  0  0  0  0
 14 23  2  0  0  0  0
 14 31  1  0  0  0  0
 15 27  2  0  0  0  0
 15 28  1  0  0  0  0
 16 29  1  0  0  0  0
 17 29  1  0  0  0  0
 17 32  2  0  0  0  0
 17 33  1  0  0  0  0
 18 20  2  0  0  0  0
 18 38  1  0  0  0  0
 19 21  2  0  0  0  0
 19 39  1  0  0  0  0
 20 50  1  0  0  0  0
 21 40  1  0  0  0  0
 22 23  1  0  0  0  0
 22 30  2  0  0  0  0
 22 64  1  0  0  0  0
 23 76  1  0  0  0  0
 24 86  1  0  0  0  0
 25 87  1  0  0  0  0
 26 28  2  0  0  0  0
 26 86  1  0  0  0  0
 27 88  1  0  0  0  0
 28 89  1  0  0  0  0
 29 68  2  0  0  0  0
 30 51  1  0  0  0  0
 30 70  1  0  0  0  0
 31 56  1  0  0  0  0
 31 70  2  0  0  0  0
 32 69  1  0  0  0  0
 32 74  1  0  0  0  0
 33 75  1  0  0  0  0
 33 81  2  0  0  0  0
 34 52  1  0  0  0  0
 34 77  1  0  0  0  0
 34 82  2  0  0  0  0
 35 65  1  0  0  0  0
 35 71  1  0  0  0  0
 35 83  2  0  0  0  0
 36 66  1  0  0  0  0
 36 78  1  0  0  0  0
 36 84  2  0  0  0  0
 37 72  1  0  0  0  0
 37 73  1  0  0  0  0
 37 85  2  0  0  0  0
 38 41  1  0  0  0  0
 39 52  1  0  0  0  0
 40 71  1  0  0  0  0
 41 43  1  0  0  0  0
 42 44  1  0  0  0  0
 42 46  1  0  0  0  0
 43 50  1  0  0  0  0
 44 54  1  0  0  0  0
 45 51  1  0  0  0  0
 45 53  1  0  0  0  0
 46 72  1  0  0  0  0
 47 54  1  0  0  0  0
 47 72  1  0  0  0  0
 48 55  1  0  0  0  0
 48 73  1  0  0  0  0
 49 55  1  0  0  0  0
 49 73  1  0  0  0  0
 50 77  1  0  0  0  0
 51 53  1  0  0  0  0
 52 71  1  0  0  0  0
 53 63  1  0  0  0  0
 54 69  1  0  0  0  0
 55 76  1  0  0  0  0
 57 64  1  0  0  0  0
 58 66  1  0  0  0  0
 59 67  1  0  0  0  0
 60 67  1  0  0  0  0
 61 67  1  0  0  0  0
 62 80  1  0  0  0  0
 63 87  1  0  0  0  0
 64 79  1  0  0  0  0
 65 67  1  0  0  0  0
 65 78  1  0  0  0  0
 66 80  1  0  0  0  0
 68 69  1  0  0  0  0
M  CHG  3  70   1  79   1  80   1
M  ISO  4  37 100  63 101  73 100  87 101
M  END
> <Batch ID>
0174

> <Smiles>
CNC(C)C(=O)NC(C(=O)N1Cc2cc([101O:1][101CH2:1]C3CC3c3nc(C)cc(NC4C[100N:0]([100C:0](=O)N5CCCC(n6nc(-c7ccc(Oc8ccc(F)cc8F)cc7)c(C(N)=O)c6N)C5)C4)c3C(C)N)ccc2CC1C(=O)NC1CCCc2ccccc21)C(C)(C)C

> <Shape>
0.295

> <Color>
0.085

> <Negative vol penalty>
0.000

$$$$

  -OEChem-04052322453D

 85 94  0     1  0  0  0  0  0999 V2000
  -16.4945  -29.9137   23.8263 C   0  0  0  0  0  0  0  0  0  0  0  0
  -17.0402  -28.6509   24.0332 C   0  0  0  0  0  0  0  0  0  0  0  0
  -23.3436  -10.3387   21.1301 C   0  0  0  0  0  0  0  0  0  0  0  0
  -24.7718   -8.7215   22.2174 C   0  0  0  0  0  0  0  0  0  0  0  0
  -17.1430  -30.8241   22.9929 C   0  0  0  0  0  0  0  0  0  0  0  0
  -18.2343  -28.2973   23.4059 C   0  0  0  0  0  0  0  0  0  0  0  0
  -24.1198  -24.3434   24.4279 C   0  0  0  0  0  0  0  0  0  0  0  0
  -22.3468   -9.3715   21.0008 C   0  0  0  0  0  0  0  0  0  0  0  0
  -23.7750   -7.7544   22.0882 C   0  0  0  0  0  0  0  0  0  0  0  0
  -24.8738  -23.3524   23.8010 C   0  0  0  0  0  0  0  0  0  0  0  0
  -20.8943   -6.9250   23.6483 C   0  0  0  0  0  0  0  0  0  0  0  0
  -20.6213   -6.1255   24.7582 C   0  0  0  0  0  0  0  0  0  0  0  0
  -26.6797  -19.4631   21.0785 C   0  0  0  0  0  0  0  0  0  0  0  0
  -29.4424  -19.7562   21.2390 C   0  0  0  0  0  0  0  0  0  0  0  0
  -25.9470  -25.0347   22.4456 C   0  0  0  0  0  0  0  0  0  0  0  0
  -21.1975   -4.1567   23.4818 C   0  0  0  0  0  0  0  0  0  0  0  0
  -24.5561  -10.0137   21.7383 C   0  0  0  0  0  0  0  0  0  0  0  0
  -25.7746  -11.9011   22.9468 C   0  0  0  0  0  0  0  0  0  0  0  0
  -18.3506  -30.4849   22.3627 C   0  0  0  0  0  0  0  0  0  0  0  0
  -24.2661  -25.6887   24.0601 C   0  0  0  0  0  0  0  0  0  0  0  0
  -18.8989  -29.2035   22.5622 C   0  0  0  0  0  0  0  0  0  0  0  0
  -27.5088  -18.5914   20.3556 C   0  0  0  0  0  0  0  0  0  0  0  0
  -28.9061  -18.7347   20.4372 C   0  0  0  0  0  0  0  0  0  0  0  0
  -25.1955  -26.0412   23.0711 C   0  0  0  0  0  0  0  0  0  0  0  0
  -28.6080  -20.6217   21.9459 C   0  0  0  0  0  0  0  0  0  0  0  0
  -27.2269  -20.4756   21.8650 C   0  0  0  0  0  0  0  0  0  0  0  0
  -22.5625   -8.0794   21.4799 C   0  0  0  0  0  0  0  0  0  0  0  0
  -25.7855  -23.6976   22.8077 C   0  0  0  0  0  0  0  0  0  0  0  0
  -21.3187   -6.3403   22.4550 C   0  0  0  0  0  0  0  0  0  0  0  0
  -20.7730   -4.7414   24.6750 C   0  0  0  0  0  0  0  0  0  0  0  0
  -21.4703   -4.9562   22.3718 C   0  0  0  0  0  0  0  0  0  0  0  0
  -25.5863  -11.0121   21.8716 C   0  0  0  0  0  0  0  0  0  0  0  0
  -26.8788  -12.6378   22.5939 C   0  0  0  0  0  0  0  0  0  0  0  0
  -25.0190  -12.0478   24.1564 C   0  0  0  0  0  0  0  0  0  0  0  0
  -22.3454  -27.8964   22.8188 C   0  0  0  0  0  0  0  0  0  0  0  0
  -24.8859  -29.8435   23.3451 C   0  0  0  0  0  0  0  0  0  0  0  0
  -28.2579  -30.1563   23.7673 C   0  0  0  0  0  0  0  0  0  0  0  0
  -29.9109  -15.4247   19.0101 C   0  0  0  0  0  0  0  0  0  0  0  0
  -18.9905  -31.4856   21.4332 C   0  0  0  0  0  0  0  0  0  0  0  0
  -23.4646  -26.7487   24.7646 C   0  0  0  0  0  0  0  0  0  0  0  0
  -26.8786  -17.4789   19.5582 C   0  0  0  0  0  0  0  0  0  0  0  0
  -25.4048  -27.4732   22.6539 C   0  0  0  0  0  0  0  0  0  0  0  0
  -20.4461  -31.1658   21.1026 C   0  0  0  0  0  0  0  0  0  0  0  0
  -30.2287  -11.9973   18.8693 C   0  0  0  0  0  0  0  0  0  0  0  0
  -20.6002  -29.6917   20.7420 C   0  0  0  0  0  0  0  0  0  0  0  0
  -29.0685  -11.4914   19.7260 C   0  0  0  0  0  0  0  0  0  0  0  0
  -27.8423  -16.8276   18.5734 C   0  0  0  0  0  0  0  0  0  0  0  0
  -29.7921  -13.1699   17.9985 C   0  0  0  0  0  0  0  0  0  0  0  0
  -28.0561  -13.8233   19.6328 C   0  0  0  0  0  0  0  0  0  0  0  0
  -20.2053  -28.7916   21.9190 C   0  0  1  0  0  0  0  0  0  0  0  0
  -29.8423  -17.8171   19.6711 C   0  0  2  0  0  0  0  0  0  0  0  0
  -23.3242  -28.0314   23.9508 C   0  0  1  0  0  0  0  0  0  0  0  0
  -28.4438  -12.6381   20.5401 C   0  0  1  0  0  0  0  0  0  0  0  0
  -29.2203  -21.6951   22.7845 C   0  0  0  0  0  0  0  0  0  0  0  0
  -30.0452  -31.8779   24.1405 C   0  0  0  0  0  0  0  0  0  0  0  0
  -29.5318  -19.4840   17.8196 C   0  0  0  0  0  0  0  0  0  0  0  0
  -31.7188  -19.3635   19.0468 C   0  0  0  0  0  0  0  0  0  0  0  0
  -24.7092  -30.6595   20.4103 C   0  0  0  0  0  0  0  0  0  0  0  0
  -27.0216  -31.5995   20.6047 C   0  0  0  0  0  0  0  0  0  0  0  0
  -25.1736  -32.5417   21.9903 C   0  0  0  0  0  0  0  0  0  0  0  0
  -29.0381  -28.9537   26.3565 C   0  0  0  0  0  0  0  0  0  0  0  0
  -26.3116  -21.3863   22.6154 C   0  0  0  0  0  0  0  0  0  1  0  0
  -26.0997  -30.2562   22.5481 C   0  0  1  0  0  0  0  0  0  0  0  0
  -29.0784  -30.9072   24.8006 C   0  0  2  0  0  0  0  0  0  0  0  0
  -30.5285  -18.5697   18.5218 C   0  0  0  0  0  0  0  0  0  0  0  0
  -25.7459  -31.2370   21.3946 C   0  0  0  0  0  0  0  0  0  0  0  0
  -26.4977  -11.1683   20.9078 N   0  0  0  0  0  0  0  0  0  0  0  0
  -27.2694  -12.1640   21.3761 N   0  0  0  0  0  0  0  0  0  0  0  0
  -24.5930  -28.4725   23.3678 N   0  0  0  0  0  0  0  0  0  0  0  0
  -29.1976  -14.2357   18.8047 N   0  0  0  0  0  0  0  0  0  0  0  0
  -29.1604  -16.6035   19.1805 N   0  0  0  0  0  0  0  0  0  0  0  0
  -27.5440  -13.6382   23.2096 N   0  0  0  0  0  0  0  0  0  0  0  0
  -23.9141  -11.2098   24.3598 N   0  0  0  0  0  0  0  0  0  0  0  0
  -21.2650  -28.7537   22.9040 N   0  0  0  0  0  0  0  0  0  0  0  0
  -27.0589  -30.7870   23.5106 N   0  0  0  0  0  0  0  0  0  0  0  0
  -29.8651  -29.9520   25.6310 N   0  3  0  0  0  0  0  0  0  0  0  0
  -25.3051  -12.9078   25.0236 O   0  0  0  0  0  0  0  0  0  0  0  0
  -22.5556  -27.0762   21.9329 O   0  0  0  0  0  0  0  0  0  0  0  0
  -24.2262  -30.7049   23.9319 O   0  0  0  0  0  0  0  0  0  0  0  0
  -28.6439  -29.1165   23.2379 O   0  0  0  0  0  0  0  0  0  0  0  0
  -31.1483  -15.4334   19.0344 O   0  0  0  0  0  0  0  0  0  0  0  0
  -21.5900   -7.1354   21.3542 O   0  0  0  0  0  0  0  0  0  0  0  0
  -26.5275  -22.7253   22.1893 O   0  0  0  0  0  0  0  0  0  1  0  0
  -20.5123   -3.9739   25.7414 F   0  0  0  0  0  0  0  0  0  0  0  0
  -21.8790   -4.3889   21.2286 F   0  0  0  0  0  0  0  0  0  0  0  0
  1  2  1  0  0  0  0
  1  5  2  0  0  0  0
  2  6  2  0  0  0  0
  3  8  2  0  0  0  0
  3 17  1  0  0  0  0
  4  9  1  0  0  0  0
  4 17  2  0  0  0  0
  5 19  1  0  0  0  0
  6 21  1  0  0  0  0
  7 10  2  0  0  0  0
  7 20  1  0  0  0  0
  8 27  1  0  0  0  0
  9 27  2  0  0  0  0
 10 28  1  0  0  0  0
 11 12  2  0  0  0  0
 11 29  1  0  0  0  0
 12 30  1  0  0  0  0
 13 22  2  0  0  0  0
 13 26  1  0  0  0  0
 14 23  2  0  0  0  0
 14 25  1  0  0  0  0
 15 24  1  0  0  0  0
 15 28  2  0  0  0  0
 16 30  2  0  0  0  0
 16 31  1  0  0  0  0
 17 32  1  0  0  0  0
 18 32  1  0  0  0  0
 18 33  2  0  0  0  0
 18 34  1  0  0  0  0
 19 21  2  0  0  0  0
 19 39  1  0  0  0  0
 20 24  2  0  0  0  0
 20 40  1  0  0  0  0
 21 50  1  0  0  0  0
 22 23  1  0  0  0  0
 22 41  1  0  0  0  0
 23 51  1  0  0  0  0
 24 42  1  0  0  0  0
 25 26  2  0  0  0  0
 25 54  1  0  0  0  0
 26 62  1  0  0  0  0
 27 82  1  0  0  0  0
 28 83  1  0  0  0  0
 29 31  2  0  0  0  0
 29 82  1  0  0  0  0
 30 84  1  0  0  0  0
 31 85  1  0  0  0  0
 32 67  2  0  0  0  0
 33 68  1  0  0  0  0
 33 72  1  0  0  0  0
 34 73  1  0  0  0  0
 34 77  2  0  0  0  0
 35 52  1  0  0  0  0
 35 74  1  0  0  0  0
 35 78  2  0  0  0  0
 36 63  1  0  0  0  0
 36 69  1  0  0  0  0
 36 79  2  0  0  0  0
 37 64  1  0  0  0  0
 37 75  1  0  0  0  0
 37 80  2  0  0  0  0
 38 70  1  0  0  0  0
 38 71  1  0  0  0  0
 38 81  2  0  0  0  0
 39 43  1  0  0  0  0
 40 52  1  0  0  0  0
 41 47  1  0  0  0  0
 42 69  1  0  0  0  0
 43 45  1  0  0  0  0
 44 46  1  0  0  0  0
 44 48  1  0  0  0  0
 45 50  1  0  0  0  0
 46 53  1  0  0  0  0
 47 71  1  0  0  0  0
 48 70  1  0  0  0  0
 49 53  1  0  0  0  0
 49 70  1  0  0  0  0
 50 74  1  0  0  0  0
 51 65  1  0  0  0  0
 51 71  1  0  0  0  0
 52 69  1  0  0  0  0
 53 68  1  0  0  0  0
 55 64  1  0  0  0  0
 56 65  1  0  0  0  0
 57 65  1  0  0  0  0
 58 66  1  0  0  0  0
 59 66  1  0  0  0  0
 60 66  1  0  0  0  0
 61 76  1  0  0  0  0
 62 83  1  0  0  0  0
 63 66  1  0  0  0  0
 63 75  1  0  0  0  0
 64 76  1  0  0  0  0
 67 68  1  0  0  0  0
M  CHG  1  76   1
M  ISO  4  38 100  62 101  71 100  83 101
M  END
> <Batch ID>
0174

> <Smiles>
CNC(C)C(=O)NC(C(=O)N1Cc2cc([101O:1][101CH2:1]c3cc4c(cc3C)C(C(C)C)[100N:0]([100C:0](=O)N3CCCC(n5nc(-c6ccc(Oc7ccc(F)cc7F)cc6)c(C(N)=O)c5N)C3)CC4)ccc2CC1C(=O)NC1CCCc2ccccc21)C(C)(C)C

> <Shape>
0.278

> <Color>
0.107

> <Negative vol penalty>
0.000

$$$$

  -OEChem-04052322453D

 89 99  0     1  0  0  0  0  0999 V2000
  -27.4672  -37.6151   24.4878 C   0  0  0  0  0  0  0  0  0  0  0  0
  -28.1246  -36.5874   23.8192 C   0  0  0  0  0  0  0  0  0  0  0  0
  -24.3460  -10.1920   22.9659 C   0  0  0  0  0  0  0  0  0  0  0  0
  -24.2881   -8.6110   21.1399 C   0  0  0  0  0  0  0  0  0  0  0  0
  -26.2919  -37.3492   25.1891 C   0  0  0  0  0  0  0  0  0  0  0  0
  -27.6075  -35.2928   23.8524 C   0  0  0  0  0  0  0  0  0  0  0  0
  -27.0876  -29.3841   19.8358 C   0  0  0  0  0  0  0  0  0  0  0  0
  -23.2424   -9.5647   23.5440 C   0  0  0  0  0  0  0  0  0  0  0  0
  -23.1845   -7.9837   21.7180 C   0  0  0  0  0  0  0  0  0  0  0  0
  -27.3410  -28.0145   19.8968 C   0  0  0  0  0  0  0  0  0  0  0  0
  -22.5958   -5.7931   24.2231 C   0  0  0  0  0  0  0  0  0  0  0  0
  -22.5978   -4.3992   24.2744 C   0  0  0  0  0  0  0  0  0  0  0  0
  -26.5076  -21.5124   20.0545 C   0  0  0  0  0  0  0  0  0  0  0  0
  -25.2610  -27.6883   21.0743 C   0  0  0  0  0  0  0  0  0  0  0  0
  -20.5784   -4.3475   22.9491 C   0  0  0  0  0  0  0  0  0  0  0  0
  -24.8688   -9.7152   21.7637 C   0  0  0  0  0  0  0  0  0  0  0  0
  -27.3669  -10.0635   21.3817 C   0  0  0  0  0  0  0  0  0  0  0  0
  -25.7549  -36.0526   25.2229 C   0  0  0  0  0  0  0  0  0  0  0  0
  -25.9223  -29.9184   20.4041 C   0  0  0  0  0  0  0  0  0  0  0  0
  -26.4246  -35.0090   24.5559 C   0  0  0  0  0  0  0  0  0  0  0  0
  -27.0006  -20.9342   21.2242 C   0  0  0  0  0  0  0  0  0  0  0  0
  -24.9940  -29.0647   21.0169 C   0  0  0  0  0  0  0  0  0  0  0  0
  -26.6475  -23.0144   22.4012 C   0  0  0  0  0  0  0  0  0  0  0  0
  -26.0846  -22.8416   20.0581 C   0  0  0  0  0  0  0  0  0  0  0  0
  -26.1545  -23.5926   21.2314 C   0  0  0  0  0  0  0  0  0  0  0  0
  -22.6617   -8.4606   22.9201 C   0  0  0  0  0  0  0  0  0  0  0  0
  -26.4291  -27.1667   20.5187 C   0  0  0  0  0  0  0  0  0  0  0  0
  -21.5851   -6.4643   23.5348 C   0  0  0  0  0  0  0  0  0  0  0  0
  -27.0705  -21.6852   22.3976 C   0  0  0  0  0  0  0  0  0  0  0  0
  -21.5892   -3.6764   23.6374 C   0  0  0  0  0  0  0  0  0  0  0  0
  -20.5764   -5.7415   22.8978 C   0  0  0  0  0  0  0  0  0  0  0  0
  -26.0084  -10.3630   21.1657 C   0  0  0  0  0  0  0  0  0  0  0  0
  -28.0456  -10.9549   20.5873 C   0  0  0  0  0  0  0  0  0  0  0  0
  -27.9620   -9.0683   22.2250 C   0  0  0  0  0  0  0  0  0  0  0  0
  -25.3102  -31.9957   22.7309 C   0  0  0  0  0  0  0  0  0  0  0  0
  -22.2500  -31.6355   21.7169 C   0  0  0  0  0  0  0  0  0  0  0  0
  -19.9345  -29.6994   20.1244 C   0  0  0  0  0  0  0  0  0  0  0  0
  -27.8853  -16.2912   18.6646 C   0  0  0  0  0  0  0  0  0  0  0  0
  -24.5075  -35.8044   26.0334 C   0  0  0  0  0  0  0  0  0  0  0  0
  -25.6508  -31.3946   20.3063 C   0  0  0  0  0  0  0  0  0  0  0  0
  -23.7181  -29.5858   21.6245 C   0  0  0  0  0  0  0  0  0  0  0  0
  -23.8232  -34.4792   25.7079 C   0  0  0  0  0  0  0  0  0  0  0  0
  -26.9115  -13.6741   16.6273 C   0  0  0  0  0  0  0  0  0  0  0  0
  -27.4795  -25.1157   23.6527 C   0  0  0  0  0  0  0  0  0  0  0  0
  -28.0463  -23.9313   24.3712 C   0  0  0  0  0  0  0  0  0  0  0  0
  -24.8467  -33.3495   25.6522 C   0  0  0  0  0  0  0  0  0  0  0  0
  -26.7107  -12.5120   17.5997 C   0  0  0  0  0  0  0  0  0  0  0  0
  -26.3030  -18.5253   20.8606 C   0  0  0  0  0  0  0  0  0  0  0  0
  -28.6420  -19.2714   20.2424 C   0  0  0  0  0  0  0  0  0  0  0  0
  -26.3727  -14.9744   17.2124 C   0  0  0  0  0  0  0  0  0  0  0  0
  -26.7764  -17.0700   20.8057 C   0  0  0  0  0  0  0  0  0  0  0  0
  -29.0651  -17.8054   20.2279 C   0  0  0  0  0  0  0  0  0  0  0  0
  -26.7729  -14.1790   19.5200 C   0  0  0  0  0  0  0  0  0  0  0  0
  -27.4559  -19.4873   21.1998 C   0  0  0  0  0  0  0  0  0  0  0  0
  -26.7248  -23.8148   23.6625 C   0  0  0  0  0  0  0  0  0  0  0  0
  -25.8815  -33.5965   24.5479 C   0  0  1  0  0  0  0  0  0  0  0  0
  -24.6795  -31.8953   21.3708 C   0  0  1  0  0  0  0  0  0  0  0  0
  -27.3076  -12.8368   18.9804 C   0  0  1  0  0  0  0  0  0  0  0  0
  -25.5608  -23.4365   18.7920 C   0  0  0  0  0  0  0  0  0  0  0  0
  -17.5082  -29.6547   19.4851 C   0  0  0  0  0  0  0  0  0  0  0  0
  -21.5051  -30.9707   24.6002 C   0  0  0  0  0  0  0  0  0  0  0  0
  -19.3457  -30.0296   23.7518 C   0  0  0  0  0  0  0  0  0  0  0  0
  -19.8700  -32.4448   23.4136 C   0  0  0  0  0  0  0  0  0  0  0  0
  -20.5777  -29.5750   17.2382 C   0  0  0  0  0  0  0  0  0  0  0  0
  -26.6080  -20.4728   24.3905 C   0  0  0  0  0  0  0  0  0  0  0  0
  -25.6998  -25.0181   21.2310 C   0  0  0  0  0  0  0  0  0  1  0  0
  -21.1118  -30.7059   22.0622 C   0  0  1  0  0  0  0  0  0  0  0  0
  -18.9161  -30.0275   19.0475 C   0  0  2  0  0  0  0  0  0  0  0  0
  -20.4830  -31.0279   23.4473 C   0  0  0  0  0  0  0  0  0  0  0  0
  -25.8327  -11.3665   20.3019 N   0  0  0  0  0  0  0  0  0  0  0  0
  -27.0897  -11.7052   19.9681 N   0  0  0  0  0  0  0  0  0  0  0  0
  -23.5009  -31.0373   21.5089 N   0  0  0  0  0  0  0  0  0  0  0  0
  -26.9605  -15.2456   18.5242 N   0  0  0  0  0  0  0  0  0  0  0  0
  -27.9339  -16.9341   19.9107 N   0  0  0  0  0  0  0  0  0  0  0  0
  -29.3609  -11.1623   20.3650 N   0  0  0  0  0  0  0  0  0  0  0  0
  -27.1189   -8.2358   22.9736 N   0  0  0  0  0  0  0  0  0  0  0  0
  -25.3238  -33.2755   23.2516 N   0  0  0  0  0  0  0  0  0  0  0  0
  -20.1727  -30.7791   20.9481 N   0  0  0  0  0  0  0  0  0  0  0  0
  -19.2306  -29.2856   17.7938 N   0  3  0  0  0  0  0  0  0  0  0  0
  -29.2051   -8.9325   22.3247 O   0  0  0  0  0  0  0  0  0  0  0  0
  -25.7505  -30.9864   23.2687 O   0  0  0  0  0  0  0  0  0  0  0  0
  -22.0356  -32.8470   21.6278 O   0  0  0  0  0  0  0  0  0  0  0  0
  -20.4628  -28.5944   20.2270 O   0  0  0  0  0  0  0  0  0  0  0  0
  -28.6249  -16.6305   17.7323 O   0  0  0  0  0  0  0  0  0  0  0  0
  -21.5849   -7.8481   23.4841 O   0  0  0  0  0  0  0  0  0  0  0  0
  -27.5533  -21.1166   23.5400 O   0  0  0  0  0  0  0  0  0  0  0  0
  -26.6761  -25.8197   20.5808 O   0  0  0  0  0  0  0  0  0  1  0  0
  -21.5921   -2.3378   23.6855 F   0  0  0  0  0  0  0  0  0  0  0  0
  -19.6034   -6.3806   22.2340 F   0  0  0  0  0  0  0  0  0  0  0  0
  1  2  1  0  0  0  0
  1  5  2  0  0  0  0
  2  6  2  0  0  0  0
  3  8  2  0  0  0  0
  3 16  1  0  0  0  0
  4  9  1  0  0  0  0
  4 16  2  0  0  0  0
  5 18  1  0  0  0  0
  6 20  1  0  0  0  0
  7 10  2  0  0  0  0
  7 19  1  0  0  0  0
  8 26  1  0  0  0  0
  9 26  2  0  0  0  0
 10 27  1  0  0  0  0
 11 12  2  0  0  0  0
 11 28  1  0  0  0  0
 12 30  1  0  0  0  0
 13 21  1  0  0  0  0
 13 24  2  0  0  0  0
 14 22  1  0  0  0  0
 14 27  2  0  0  0  0
 15 30  2  0  0  0  0
 15 31  1  0  0  0  0
 16 32  1  0  0  0  0
 17 32  1  0  0  0  0
 17 33  2  0  0  0  0
 17 34  1  0  0  0  0
 18 20  2  0  0  0  0
 18 39  1  0  0  0  0
 19 22  2  0  0  0  0
 19 40  1  0  0  0  0
 20 56  1  0  0  0  0
 21 29  2  0  0  0  0
 21 54  1  0  0  0  0
 22 41  1  0  0  0  0
 23 25  2  0  0  0  0
 23 29  1  0  0  0  0
 23 55  1  0  0  0  0
 24 25  1  0  0  0  0
 24 59  1  0  0  0  0
 25 66  1  0  0  0  0
 26 85  1  0  0  0  0
 27 87  1  0  0  0  0
 28 31  2  0  0  0  0
 28 85  1  0  0  0  0
 29 86  1  0  0  0  0
 30 88  1  0  0  0  0
 31 89  1  0  0  0  0
 32 70  2  0  0  0  0
 33 71  1  0  0  0  0
 33 75  1  0  0  0  0
 34 76  1  0  0  0  0
 34 80  2  0  0  0  0
 35 57  1  0  0  0  0
 35 77  1  0  0  0  0
 35 81  2  0  0  0  0
 36 67  1  0  0  0  0
 36 72  1  0  0  0  0
 36 82  2  0  0  0  0
 37 68  1  0  0  0  0
 37 78  1  0  0  0  0
 37 83  2  0  0  0  0
 38 73  1  0  0  0  0
 38 74  1  0  0  0  0
 38 84  2  0  0  0  0
 39 42  1  0  0  0  0
 40 57  1  0  0  0  0
 41 72  1  0  0  0  0
 42 46  1  0  0  0  0
 43 47  1  0  0  0  0
 43 50  1  0  0  0  0
 44 45  1  0  0  0  0
 44 55  1  0  0  0  0
 45 55  1  0  0  0  0
 46 56  1  0  0  0  0
 47 58  1  0  0  0  0
 48 51  1  0  0  0  0
 48 54  1  0  0  0  0
 49 52  1  0  0  0  0
 49 54  1  0  0  0  0
 50 73  1  0  0  0  0
 51 74  1  0  0  0  0
 52 74  1  0  0  0  0
 53 58  1  0  0  0  0
 53 73  1  0  0  0  0
 56 77  1  0  0  0  0
 57 72  1  0  0  0  0
 58 71  1  0  0  0  0
 60 68  1  0  0  0  0
 61 69  1  0  0  0  0
 62 69  1  0  0  0  0
 63 69  1  0  0  0  0
 64 79  1  0  0  0  0
 65 86  1  0  0  0  0
 66 87  1  0  0  0  0
 67 69  1  0  0  0  0
 67 78  1  0  0  0  0
 68 79  1  0  0  0  0
 70 71  1  0  0  0  0
M  CHG  1  79   1
M  ISO  4  38 100  66 101  74 100  87 101
M  END
> <Batch ID>
0174

> <Smiles>
CNC(C)C(=O)NC(C(=O)N1Cc2cc([101O:1][101CH2:1]c3c(C)cc(C4CC[100N:0]([100C:0](=O)N5CCCC(n6nc(-c7ccc(Oc8ccc(F)cc8F)cc7)c(C(N)=O)c6N)C5)CC4)c(OC)c3C3CC3)ccc2CC1C(=O)NC1CCCc2ccccc21)C(C)(C)C

> <Shape>
0.258

> <Color>
0.078

> <Negative vol penalty>
0.000

$$$$

  -OEChem-04052322453D

 88 98  0     1  0  0  0  0  0999 V2000
  -32.1779  -14.5973   20.8915 C   0  0  0  0  0  0  0  0  0  0  0  0
  -31.1639  -15.5278   21.0948 C   0  0  0  0  0  0  0  0  0  0  0  0
  -26.1562  -32.1147   23.3097 C   0  0  0  0  0  0  0  0  0  0  0  0
  -26.8162  -32.3134   20.9941 C   0  0  0  0  0  0  0  0  0  0  0  0
  -31.8839  -13.3622   20.3153 C   0  0  0  0  0  0  0  0  0  0  0  0
  -29.8553  -15.2241   20.7209 C   0  0  0  0  0  0  0  0  0  0  0  0
  -26.4731  -16.5207   24.2599 C   0  0  0  0  0  0  0  0  0  0  0  0
  -26.2043  -33.5024   23.4425 C   0  0  0  0  0  0  0  0  0  0  0  0
  -26.8642  -33.7011   21.1269 C   0  0  0  0  0  0  0  0  0  0  0  0
  -26.1277  -17.8686   24.3471 C   0  0  0  0  0  0  0  0  0  0  0  0
  -24.2570  -36.1498   22.6472 C   0  0  0  0  0  0  0  0  0  0  0  0
  -23.2002  -36.7746   23.3092 C   0  0  0  0  0  0  0  0  0  0  0  0
  -26.1518  -19.9702   20.7692 C   0  0  0  0  0  0  0  0  0  0  0  0
  -26.7154  -22.2642   20.2626 C   0  0  0  0  0  0  0  0  0  0  0  0
  -24.1073  -17.4249   23.1060 C   0  0  0  0  0  0  0  0  0  0  0  0
  -24.7429  -37.6402   24.9549 C   0  0  0  0  0  0  0  0  0  0  0  0
  -26.4622  -31.5202   22.0855 C   0  0  0  0  0  0  0  0  0  0  0  0
  -25.3056  -29.3068   21.5650 C   0  0  0  0  0  0  0  0  0  0  0  0
  -30.5694  -13.0395   19.9430 C   0  0  0  0  0  0  0  0  0  0  0  0
  -25.6421  -15.6152   23.5846 C   0  0  0  0  0  0  0  0  0  0  0  0
  -29.5436  -13.9840   20.1380 C   0  0  0  0  0  0  0  0  0  0  0  0
  -25.9272  -21.3359   20.9427 C   0  0  0  0  0  0  0  0  0  0  0  0
  -24.4431  -16.0656   23.0139 C   0  0  0  0  0  0  0  0  0  0  0  0
  -27.9529  -20.4612   19.2355 C   0  0  0  0  0  0  0  0  0  0  0  0
  -27.1647  -19.5329   19.9156 C   0  0  0  0  0  0  0  0  0  0  0  0
  -27.7283  -21.8269   19.4090 C   0  0  0  0  0  0  0  0  0  0  0  0
  -26.5583  -34.2956   22.3511 C   0  0  0  0  0  0  0  0  0  0  0  0
  -24.9461  -18.3214   23.7676 C   0  0  0  0  0  0  0  0  0  0  0  0
  -25.5568  -36.2700   23.1391 C   0  0  0  0  0  0  0  0  0  0  0  0
  -23.4431  -37.5198   24.4630 C   0  0  0  0  0  0  0  0  0  0  0  0
  -25.7997  -37.0153   24.2929 C   0  0  0  0  0  0  0  0  0  0  0  0
  -26.4133  -30.0868   21.9479 C   0  0  0  0  0  0  0  0  0  0  0  0
  -25.7716  -28.0150   21.5861 C   0  0  0  0  0  0  0  0  0  0  0  0
  -23.9745  -29.7137   21.2210 C   0  0  0  0  0  0  0  0  0  0  0  0
  -25.9677  -13.7431   21.0365 C   0  0  0  0  0  0  0  0  0  0  0  0
  -23.0360  -12.6789   21.9282 C   0  0  0  0  0  0  0  0  0  0  0  0
  -20.1156  -13.2832   23.5875 C   0  0  0  0  0  0  0  0  0  0  0  0
  -29.7056  -24.2402   20.3943 C   0  0  0  0  0  0  0  0  0  0  0  0
  -30.3082  -11.7101   19.2803 C   0  0  0  0  0  0  0  0  0  0  0  0
  -26.0157  -14.1596   23.5225 C   0  0  0  0  0  0  0  0  0  0  0  0
  -23.5065  -15.1303   22.2953 C   0  0  0  0  0  0  0  0  0  0  0  0
  -28.8323  -11.3211   19.2561 C   0  0  0  0  0  0  0  0  0  0  0  0
  -30.0851  -26.1002   23.4064 C   0  0  0  0  0  0  0  0  0  0  0  0
  -29.0419  -20.4637   16.8929 C   0  0  0  0  0  0  0  0  0  0  0  0
  -28.6941  -19.0422   17.2069 C   0  0  0  0  0  0  0  0  0  0  0  0
  -27.9771  -12.4994   18.8010 C   0  0  0  0  0  0  0  0  0  0  0  0
  -29.0772  -27.2417   23.2609 C   0  0  0  0  0  0  0  0  0  0  0  0
  -23.4218  -21.3776   21.5458 C   0  0  0  0  0  0  0  0  0  0  0  0
  -23.8359  -22.7964   21.3097 C   0  0  0  0  0  0  0  0  0  0  0  0
  -30.7343  -25.7468   22.0701 C   0  0  0  0  0  0  0  0  0  0  0  0
  -28.7780  -26.5946   20.8339 C   0  0  0  0  0  0  0  0  0  0  0  0
  -29.0393  -19.9919   18.3211 C   0  0  0  0  0  0  0  0  0  0  0  0
  -28.1075  -13.6820   19.7684 C   0  0  1  0  0  0  0  0  0  0  0  0
  -25.3484  -13.4202   22.3669 C   0  0  1  0  0  0  0  0  0  0  0  0
  -28.0561  -26.9493   22.1451 C   0  0  2  0  0  0  0  0  0  0  0  0
  -24.8459  -21.8030   21.8553 C   0  0  0  0  0  0  0  0  0  0  0  0
  -27.3841  -18.0644   19.7499 C   0  0  0  0  0  0  0  0  0  0  0  0
  -17.8930  -12.2404   24.1071 C   0  0  0  0  0  0  0  0  0  0  0  0
  -26.3325  -22.9657   23.4913 C   0  0  0  0  0  0  0  0  0  0  0  0
  -22.0906  -13.2862   19.0914 C   0  0  0  0  0  0  0  0  0  0  0  0
  -19.7328  -13.1404   19.9205 C   0  0  0  0  0  0  0  0  0  0  0  0
  -21.2222  -11.1431   20.0440 C   0  0  0  0  0  0  0  0  0  0  0  0
  -20.6370  -13.3449   26.5001 C   0  0  0  0  0  0  0  0  0  0  0  0
  -28.5580  -22.8431   18.6942 C   0  0  0  0  0  0  0  0  0  0  0  0
  -25.6755  -20.5802   23.9157 C   0  0  0  0  0  0  0  0  0  1  0  0
  -21.6137  -13.0806   21.6204 C   0  0  1  0  0  0  0  0  0  0  0  0
  -19.3257  -12.4433   24.5749 C   0  0  2  0  0  0  0  0  0  0  0  0
  -25.2494  -21.9296   23.3252 C   0  0  2  0  0  0  0  0  0  0  0  0
  -21.1832  -12.6808   20.1809 C   0  0  0  0  0  0  0  0  0  0  0  0
  -27.5010  -29.3518   22.1943 N   0  0  0  0  0  0  0  0  0  0  0  0
  -27.0790  -28.0964   21.9658 N   0  0  0  0  0  0  0  0  0  0  0  0
  -23.9189  -13.7175   22.2560 N   0  0  0  0  0  0  0  0  0  0  0  0
  -29.7117  -25.4793   21.0558 N   0  0  0  0  0  0  0  0  0  0  0  0
  -25.1864  -26.8286   21.3168 N   0  0  0  0  0  0  0  0  0  0  0  0
  -23.6649  -31.0803   21.2508 N   0  0  0  0  0  0  0  0  0  0  0  0
  -27.3161  -13.4515   20.9579 N   0  0  0  0  0  0  0  0  0  0  0  0
  -20.7884  -12.4996   22.6739 N   0  0  0  0  0  0  0  0  0  0  0  0
  -28.6990  -24.0663   19.4523 N   0  0  0  0  0  0  0  0  0  0  0  0
  -19.2950  -13.1052   25.9098 N   0  3  0  0  0  0  0  0  0  0  0  0
  -23.0815  -28.8885   20.9127 O   0  0  0  0  0  0  0  0  0  0  0  0
  -25.2731  -14.2200   20.1466 O   0  0  0  0  0  0  0  0  0  0  0  0
  -23.3502  -11.4868   21.8864 O   0  0  0  0  0  0  0  0  0  0  0  0
  -20.1311  -14.5117   23.6208 O   0  0  0  0  0  0  0  0  0  0  0  0
  -30.5324  -23.3526   20.6297 O   0  0  0  0  0  0  0  0  0  0  0  0
  -26.6051  -35.6497   22.4803 O   0  0  0  0  0  0  0  0  0  0  0  0
  -24.6069  -19.6367   23.8506 O   0  0  0  0  0  0  0  0  0  1  0  0
  -22.4284  -38.1211   25.0978 F   0  0  0  0  0  0  0  0  0  0  0  0
  -27.0464  -37.1354   24.7695 F   0  0  0  0  0  0  0  0  0  0  0  0
  1  2  1  0  0  0  0
  1  5  2  0  0  0  0
  2  6  2  0  0  0  0
  3  8  2  0  0  0  0
  3 17  1  0  0  0  0
  4  9  1  0  0  0  0
  4 17  2  0  0  0  0
  5 19  1  0  0  0  0
  6 21  1  0  0  0  0
  7 10  2  0  0  0  0
  7 20  1  0  0  0  0
  8 27  1  0  0  0  0
  9 27  2  0  0  0  0
 10 28  1  0  0  0  0
 11 12  2  0  0  0  0
 11 29  1  0  0  0  0
 12 30  1  0  0  0  0
 13 22  1  0  0  0  0
 13 25  2  0  0  0  0
 14 22  2  0  0  0  0
 14 26  1  0  0  0  0
 15 23  1  0  0  0  0
 15 28  2  0  0  0  0
 16 30  2  0  0  0  0
 16 31  1  0  0  0  0
 17 32  1  0  0  0  0
 18 32  1  0  0  0  0
 18 33  2  0  0  0  0
 18 34  1  0  0  0  0
 19 21  2  0  0  0  0
 19 39  1  0  0  0  0
 20 23  2  0  0  0  0
 20 40  1  0  0  0  0
 21 53  1  0  0  0  0
 22 56  1  0  0  0  0
 23 41  1  0  0  0  0
 24 25  1  0  0  0  0
 24 26  2  0  0  0  0
 24 52  1  0  0  0  0
 25 57  1  0  0  0  0
 26 64  1  0  0  0  0
 27 85  1  0  0  0  0
 28 86  1  0  0  0  0
 29 31  2  0  0  0  0
 29 85  1  0  0  0  0
 30 87  1  0  0  0  0
 31 88  1  0  0  0  0
 32 70  2  0  0  0  0
 33 71  1  0  0  0  0
 33 74  1  0  0  0  0
 34 75  1  0  0  0  0
 34 80  2  0  0  0  0
 35 54  1  0  0  0  0
 35 76  1  0  0  0  0
 35 81  2  0  0  0  0
 36 66  1  0  0  0  0
 36 72  1  0  0  0  0
 36 82  2  0  0  0  0
 37 67  1  0  0  0  0
 37 77  1  0  0  0  0
 37 83  2  0  0  0  0
 38 73  1  0  0  0  0
 38 78  1  0  0  0  0
 38 84  2  0  0  0  0
 39 42  1  0  0  0  0
 40 54  1  0  0  0  0
 41 72  1  0  0  0  0
 42 46  1  0  0  0  0
 43 47  1  0  0  0  0
 43 50  1  0  0  0  0
 44 45  1  0  0  0  0
 44 52  1  0  0  0  0
 45 52  1  0  0  0  0
 46 53  1  0  0  0  0
 47 55  1  0  0  0  0
 48 49  1  0  0  0  0
 48 56  1  0  0  0  0
 49 56  1  0  0  0  0
 50 73  1  0  0  0  0
 51 55  1  0  0  0  0
 51 73  1  0  0  0  0
 53 76  1  0  0  0  0
 54 72  1  0  0  0  0
 55 71  1  0  0  0  0
 56 68  1  0  0  0  0
 58 67  1  0  0  0  0
 59 68  1  0  0  0  0
 60 69  1  0  0  0  0
 61 69  1  0  0  0  0
 62 69  1  0  0  0  0
 63 79  1  0  0  0  0
 64 78  1  0  0  0  0
 65 68  1  0  0  0  0
 65 86  1  0  0  0  0
 66 69  1  0  0  0  0
 66 77  1  0  0  0  0
 67 79  1  0  0  0  0
 70 71  1  0  0  0  0
M  CHG  1  79   1
M  ISO  4  38 100  65 101  78 100  86 101
M  END
> <Batch ID>
0174

> <Smiles>
CNC(C)C(=O)NC(C(=O)N1Cc2cc([101O:1][101CH2:1]C(C)C3(c4cc(C)c(C5CC5)c(C[100NH:0][100C:0](=O)N5CCCC(n6nc(-c7ccc(Oc8ccc(F)cc8F)cc7)c(C(N)=O)c6N)C5)c4)CC3)ccc2CC1C(=O)NC1CCCc2ccccc21)C(C)(C)C

> <Shape>
0.261

> <Color>
0.039

> <Negative vol penalty>
0.000

$$$$

  -OEChem-04052322453D

 89 99  0     1  0  0  0  0  0999 V2000
  -28.3092  -25.8766   15.6150 C   0  0  0  0  0  0  0  0  0  0  0  0
  -27.2215  -25.7774   16.4767 C   0  0  0  0  0  0  0  0  0  0  0  0
  -27.6733  -12.4890   19.0179 C   0  0  0  0  0  0  0  0  0  0  0  0
  -28.2417  -13.6836   21.0395 C   0  0  0  0  0  0  0  0  0  0  0  0
  -29.4598  -26.5509   16.0215 C   0  0  0  0  0  0  0  0  0  0  0  0
  -27.2842  -26.3517   17.7458 C   0  0  0  0  0  0  0  0  0  0  0  0
  -23.0717  -28.8976   18.9365 C   0  0  0  0  0  0  0  0  0  0  0  0
  -28.9351  -11.8945   19.0144 C   0  0  0  0  0  0  0  0  0  0  0  0
  -29.5036  -13.0891   21.0360 C   0  0  0  0  0  0  0  0  0  0  0  0
  -21.9668  -28.1482   19.3381 C   0  0  0  0  0  0  0  0  0  0  0  0
  -32.1370  -10.3374   18.2751 C   0  0  0  0  0  0  0  0  0  0  0  0
  -32.8294  -10.2889   17.0653 C   0  0  0  0  0  0  0  0  0  0  0  0
  -22.4755  -28.6446   21.6433 C   0  0  0  0  0  0  0  0  0  0  0  0
  -32.7842  -12.7014   16.9427 C   0  0  0  0  0  0  0  0  0  0  0  0
  -27.3266  -13.3837   20.0304 C   0  0  0  0  0  0  0  0  0  0  0  0
  -24.8555  -13.5114   20.6508 C   0  0  0  0  0  0  0  0  0  0  0  0
  -29.5331  -27.1420   17.2927 C   0  0  0  0  0  0  0  0  0  0  0  0
  -23.8944  -29.5182   19.8875 C   0  0  0  0  0  0  0  0  0  0  0  0
  -28.4374  -27.0334   18.1702 C   0  0  0  0  0  0  0  0  0  0  0  0
  -23.5887  -29.4035   21.2511 C   0  0  0  0  0  0  0  0  0  0  0  0
  -29.8502  -12.1945   20.0234 C   0  0  0  0  0  0  0  0  0  0  0  0
  -21.6702  -28.0191   20.6918 C   0  0  0  0  0  0  0  0  0  0  0  0
  -31.7681  -11.5679   18.8188 C   0  0  0  0  0  0  0  0  0  0  0  0
  -33.1530  -11.4709   16.3991 C   0  0  0  0  0  0  0  0  0  0  0  0
  -32.0917  -12.7498   18.1526 C   0  0  0  0  0  0  0  0  0  0  0  0
  -26.0236  -13.9986   20.0343 C   0  0  0  0  0  0  0  0  0  0  0  0
  -23.8977  -14.4533   20.3646 C   0  0  0  0  0  0  0  0  0  0  0  0
  -21.4008  -23.7225   21.7544 C   0  0  0  0  0  0  0  0  0  0  0  0
  -22.2692  -23.1874   22.6307 C   0  0  0  0  0  0  0  0  0  0  0  0
  -22.1470  -23.5721   24.0151 C   0  0  0  0  0  0  0  0  0  0  0  0
  -21.1867  -24.4109   24.4229 C   0  0  0  0  0  0  0  0  0  0  0  0
  -20.2258  -25.0108   23.4700 C   0  0  0  0  0  0  0  0  0  0  0  0
  -24.6543  -12.3145   21.4142 C   0  0  0  0  0  0  0  0  0  0  0  0
  -26.9533  -29.2650   20.7139 C   0  0  0  0  0  0  0  0  0  0  0  0
  -26.2439  -31.7916   22.6205 C   0  0  0  0  0  0  0  0  0  0  0  0
  -23.8714  -33.5694   24.3111 C   0  0  0  0  0  0  0  0  0  0  0  0
  -24.6989  -20.3339   18.8273 C   0  0  0  0  0  0  0  0  0  0  0  0
  -30.8156  -27.8199   17.7053 C   0  0  0  0  0  0  0  0  0  0  0  0
  -25.0671  -30.3453   19.4367 C   0  0  0  0  0  0  0  0  0  0  0  0
  -24.4287  -30.0669   22.3107 C   0  0  0  0  0  0  0  0  0  0  0  0
  -21.1936  -24.6311   25.8929 C   0  0  0  0  0  0  0  0  0  0  0  0
  -30.6617  -28.7232   18.9262 C   0  0  0  0  0  0  0  0  0  0  0  0
  -22.0830  -23.4781   26.3692 C   0  0  0  0  0  0  0  0  0  0  0  0
  -22.7062  -17.7299   17.0993 C   0  0  0  0  0  0  0  0  0  0  0  0
  -29.8739  -28.0111   20.0212 C   0  0  0  0  0  0  0  0  0  0  0  0
  -23.2952  -16.4368   17.6601 C   0  0  0  0  0  0  0  0  0  0  0  0
  -22.6775  -20.9339   21.6445 C   0  0  0  0  0  0  0  0  0  0  0  0
  -24.2894  -22.8244   21.1998 C   0  0  0  0  0  0  0  0  0  0  0  0
  -23.7266  -18.8639   17.0994 C   0  0  0  0  0  0  0  0  0  0  0  0
  -23.7281  -19.9434   21.1356 C   0  0  0  0  0  0  0  0  0  0  0  0
  -25.3131  -21.7956   20.7291 C   0  0  0  0  0  0  0  0  0  0  0  0
  -24.9317  -17.8244   18.9940 C   0  0  0  0  0  0  0  0  0  0  0  0
  -28.4579  -27.6644   19.5455 C   0  0  1  0  0  0  0  0  0  0  0  0
  -23.3197  -22.2047   22.2160 C   0  0  0  0  0  0  0  0  0  0  0  0
  -22.9818  -23.1017   25.1723 C   0  0  2  0  0  0  0  0  0  0  0  0
  -26.1333  -30.5084   20.5157 C   0  0  1  0  0  0  0  0  0  0  0  0
  -23.9146  -16.6744   19.0481 C   0  0  2  0  0  0  0  0  0  0  0  0
  -24.3338  -23.8077   25.2521 C   0  0  0  0  0  0  0  0  0  0  0  0
  -23.6003  -35.5632   25.8105 C   0  0  0  0  0  0  0  0  0  0  0  0
  -27.3704  -30.1848   24.9570 C   0  0  0  0  0  0  0  0  0  0  0  0
  -26.2296  -31.7798   26.5134 C   0  0  0  0  0  0  0  0  0  0  0  0
  -27.9962  -32.6061   24.9581 C   0  0  0  0  0  0  0  0  0  0  0  0
  -22.0997  -34.9325   22.3715 C   0  0  0  0  0  0  0  0  0  0  0  0
  -19.5261  -25.1287   21.0930 C   0  0  0  0  0  0  0  0  0  0  0  0
  -20.2085  -26.1947   20.2547 C   0  0  0  0  0  0  0  0  0  1  0  0
  -25.7352  -31.9560   24.0324 C   0  0  1  0  0  0  0  0  0  0  0  0
  -23.5846  -35.0587   24.3760 C   0  0  2  0  0  0  0  0  0  0  0  0
  -26.8180  -31.6174   25.0956 C   0  0  0  0  0  0  0  0  0  0  0  0
  -25.8279  -15.1597   19.4038 N   0  0  0  0  0  0  0  0  0  0  0  0
  -24.5258  -15.4100   19.6225 N   0  0  0  0  0  0  0  0  0  0  0  0
  -20.4056  -24.6138   22.1360 N   0  0  0  0  0  0  0  0  0  0  0  0
  -25.5682  -30.8596   21.8201 N   0  0  0  0  0  0  0  0  0  0  0  0
  -24.3363  -19.0398   18.4177 N   0  0  0  0  0  0  0  0  0  0  0  0
  -24.6548  -20.5997   20.2041 N   0  0  0  0  0  0  0  0  0  0  0  0
  -22.5880  -14.5483   20.6776 N   0  0  0  0  0  0  0  0  0  0  0  0
  -25.7453  -11.4575   21.6129 N   0  0  0  0  0  0  0  0  0  0  0  0
  -27.6126  -28.8387   19.5768 N   0  0  0  0  0  0  0  0  0  0  0  0
  -25.2135  -33.3154   24.1226 N   0  0  0  0  0  0  0  0  0  0  0  0
  -22.2476  -35.3548   23.7881 N   0  3  0  0  0  0  0  0  0  0  0  0
  -19.3637  -25.7860   23.8771 O   0  0  0  0  0  0  0  0  0  0  0  0
  -23.5361  -12.0058   21.8915 O   0  0  0  0  0  0  0  0  0  0  0  0
  -26.9867  -28.7328   21.8172 O   0  0  0  0  0  0  0  0  0  0  0  0
  -27.2008  -32.4705   22.2397 O   0  0  0  0  0  0  0  0  0  0  0  0
  -22.9932  -32.7165   24.4206 O   0  0  0  0  0  0  0  0  0  0  0  0
  -25.0391  -21.1992   18.0107 O   0  0  0  0  0  0  0  0  0  0  0  0
  -31.0814  -11.6144   20.0205 O   0  0  0  0  0  0  0  0  0  0  0  0
  -20.5851  -27.2825   21.0893 O   0  0  0  0  0  0  0  0  0  1  0  0
  -33.8193  -11.4242   15.2380 F   0  0  0  0  0  0  0  0  0  0  0  0
  -31.7411  -13.9350   18.6706 F   0  0  0  0  0  0  0  0  0  0  0  0
  1  2  1  0  0  0  0
  1  5  2  0  0  0  0
  2  6  2  0  0  0  0
  3  8  2  0  0  0  0
  3 15  1  0  0  0  0
  4  9  1  0  0  0  0
  4 15  2  0  0  0  0
  5 17  1  0  0  0  0
  6 19  1  0  0  0  0
  7 10  2  0  0  0  0
  7 18  1  0  0  0  0
  8 21  1  0  0  0  0
  9 21  2  0  0  0  0
 10 22  1  0  0  0  0
 11 12  2  0  0  0  0
 11 23  1  0  0  0  0
 12 24  1  0  0  0  0
 13 20  1  0  0  0  0
 13 22  2  0  0  0  0
 14 24  2  0  0  0  0
 14 25  1  0  0  0  0
 15 26  1  0  0  0  0
 16 26  1  0  0  0  0
 16 27  2  0  0  0  0
 16 33  1  0  0  0  0
 17 19  2  0  0  0  0
 17 38  1  0  0  0  0
 18 20  2  0  0  0  0
 18 39  1  0  0  0  0
 19 53  1  0  0  0  0
 20 40  1  0  0  0  0
 21 86  1  0  0  0  0
 22 87  1  0  0  0  0
 23 25  2  0  0  0  0
 23 86  1  0  0  0  0
 24 88  1  0  0  0  0
 25 89  1  0  0  0  0
 26 69  2  0  0  0  0
 27 70  1  0  0  0  0
 27 75  1  0  0  0  0
 28 29  2  0  0  0  0
 28 71  1  0  0  0  0
 29 30  1  0  0  0  0
 29 54  1  0  0  0  0
 30 31  2  0  0  0  0
 30 55  1  0  0  0  0
 31 32  1  0  0  0  0
 31 41  1  0  0  0  0
 32 71  1  0  0  0  0
 32 80  2  0  0  0  0
 33 76  1  0  0  0  0
 33 81  2  0  0  0  0
 34 56  1  0  0  0  0
 34 77  1  0  0  0  0
 34 82  2  0  0  0  0
 35 66  1  0  0  0  0
 35 72  1  0  0  0  0
 35 83  2  0  0  0  0
 36 67  1  0  0  0  0
 36 78  1  0  0  0  0
 36 84  2  0  0  0  0
 37 73  1  0  0  0  0
 37 74  1  0  0  0  0
 37 85  2  0  0  0  0
 38 42  1  0  0  0  0
 39 56  1  0  0  0  0
 40 72  1  0  0  0  0
 41 43  1  0  0  0  0
 42 45  1  0  0  0  0
 43 55  1  0  0  0  0
 44 46  1  0  0  0  0
 44 49  1  0  0  0  0
 45 53  1  0  0  0  0
 46 57  1  0  0  0  0
 47 50  1  0  0  0  0
 47 54  1  0  0  0  0
 48 51  1  0  0  0  0
 48 54  1  0  0  0  0
 49 73  1  0  0  0  0
 50 74  1  0  0  0  0
 51 74  1  0  0  0  0
 52 57  1  0  0  0  0
 52 73  1  0  0  0  0
 53 77  1  0  0  0  0
 55 58  1  0  0  0  0
 56 72  1  0  0  0  0
 57 70  1  0  0  0  0
 59 67  1  0  0  0  0
 60 68  1  0  0  0  0
 61 68  1  0  0  0  0
 62 68  1  0  0  0  0
 63 79  1  0  0  0  0
 64 65  1  0  0  0  0
 64 71  1  0  0  0  0
 65 87  1  0  0  0  0
 66 68  1  0  0  0  0
 66 78  1  0  0  0  0
 67 79  1  0  0  0  0
 69 70  1  0  0  0  0
M  CHG  1  79   1
M  ISO  4  37 100  65 101  74 100  87 101
M  END
> <Batch ID>
0174

> <Smiles>
CNC(C)C(=O)NC(C(=O)N1Cc2cc([101O:1][101CH2:1]Cn3cc(C4CC[100N:0]([100C:0](=O)N5CCCC(n6nc(-c7ccc(Oc8ccc(F)cc8F)cc7)c(C(N)=O)c6N)C5)CC4)c4c(c3=O)CCC4C)ccc2CC1C(=O)NC1CCCc2ccccc21)C(C)(C)C

> <Shape>
0.246

> <Color>
0.092

> <Negative vol penalty>
0.000

$$$$

  -OEChem-04052322453D

 84 93  0     1  0  0  0  0  0999 V2000
  -22.1340  -17.7537   21.8790 C   0  0  0  0  0  0  0  0  0  0  0  0
  -23.2719  -18.5070   21.6088 C   0  0  0  0  0  0  0  0  0  0  0  0
  -25.3019  -13.5877   21.5686 C   0  0  0  0  0  0  0  0  0  0  0  0
  -26.9414  -12.9940   19.8962 C   0  0  0  0  0  0  0  0  0  0  0  0
  -20.8708  -18.2830   21.6181 C   0  0  0  0  0  0  0  0  0  0  0  0
  -23.1473  -19.7898   21.0766 C   0  0  0  0  0  0  0  0  0  0  0  0
  -26.7435  -24.6140   22.2168 C   0  0  0  0  0  0  0  0  0  0  0  0
  -24.4456  -12.6014   21.0793 C   0  0  0  0  0  0  0  0  0  0  0  0
  -26.0850  -12.0077   19.4069 C   0  0  0  0  0  0  0  0  0  0  0  0
  -27.8114  -25.1741   21.5170 C   0  0  0  0  0  0  0  0  0  0  0  0
  -24.1245   -9.2433   21.3093 C   0  0  0  0  0  0  0  0  0  0  0  0
  -23.4877   -8.4191   22.2371 C   0  0  0  0  0  0  0  0  0  0  0  0
  -26.3063  -26.7651   20.5057 C   0  0  0  0  0  0  0  0  0  0  0  0
  -30.1457  -24.7142   17.8164 C   0  0  0  0  0  0  0  0  0  0  0  0
  -21.3383   -9.1713   21.4301 C   0  0  0  0  0  0  0  0  0  0  0  0
  -26.5498  -13.7841   20.9771 C   0  0  0  0  0  0  0  0  0  0  0  0
  -28.4093  -14.6607   22.4875 C   0  0  0  0  0  0  0  0  0  0  0  0
  -20.7303  -19.5766   21.0914 C   0  0  0  0  0  0  0  0  0  0  0  0
  -25.4451  -25.1191   22.0577 C   0  0  0  0  0  0  0  0  0  0  0  0
  -21.8811  -20.3364   20.8071 C   0  0  0  0  0  0  0  0  0  0  0  0
  -25.2241  -26.2113   21.2066 C   0  0  0  0  0  0  0  0  0  0  0  0
  -29.6816  -25.8741   17.2236 C   0  0  0  0  0  0  0  0  0  0  0  0
  -29.1959  -25.8492   15.9141 C   0  0  0  0  0  0  0  0  0  0  0  0
  -24.8371  -11.8114   19.9985 C   0  0  0  0  0  0  0  0  0  0  0  0
  -27.5924  -26.2480   20.6591 C   0  0  0  0  0  0  0  0  0  0  0  0
  -23.3682  -10.0316   20.4419 C   0  0  0  0  0  0  0  0  0  0  0  0
  -22.0946   -8.3831   22.2975 C   0  0  0  0  0  0  0  0  0  0  0  0
  -21.9751   -9.9955   20.5023 C   0  0  0  0  0  0  0  0  0  0  0  0
  -27.4347  -14.8031   21.4817 C   0  0  0  0  0  0  0  0  0  0  0  0
  -30.0994  -23.5625   17.0435 C   0  0  0  0  0  0  0  0  0  0  0  0
  -29.1773  -24.6569   15.2280 C   0  0  0  0  0  0  0  0  0  0  0  0
  -28.9742  -15.9079   22.5973 C   0  0  0  0  0  0  0  0  0  0  0  0
  -28.7718  -13.5045   23.2539 C   0  0  0  0  0  0  0  0  0  0  0  0
  -22.6927  -23.9363   20.9952 C   0  0  0  0  0  0  0  0  0  0  0  0
  -21.5271  -26.7935   21.9952 C   0  0  0  0  0  0  0  0  0  0  0  0
  -22.1287  -30.0725   22.7256 C   0  0  0  0  0  0  0  0  0  0  0  0
  -29.4987  -20.3421   18.7349 C   0  0  0  0  0  0  0  0  0  0  0  0
  -19.3456  -20.0880   20.7818 C   0  0  0  0  0  0  0  0  0  0  0  0
  -24.3083  -24.5209   22.8402 C   0  0  0  0  0  0  0  0  0  0  0  0
  -28.7086  -27.1898   15.4800 C   0  0  0  0  0  0  0  0  0  0  0  0
  -23.8524  -26.8035   21.0163 C   0  0  0  0  0  0  0  0  0  0  0  0
  -19.2878  -21.5983   20.5678 C   0  0  0  0  0  0  0  0  0  0  0  0
  -29.4068  -28.0978   16.5053 C   0  0  0  0  0  0  0  0  0  0  0  0
  -27.9548  -20.5461   22.0018 C   0  0  0  0  0  0  0  0  0  0  0  0
  -20.4135  -22.0499   19.6428 C   0  0  0  0  0  0  0  0  0  0  0  0
  -27.7408  -19.0674   22.3299 C   0  0  0  0  0  0  0  0  0  0  0  0
  -27.7173  -20.8236   20.5203 C   0  0  0  0  0  0  0  0  0  0  0  0
  -28.3258  -18.5111   19.9241 C   0  0  0  0  0  0  0  0  0  0  0  0
  -21.7861  -21.7413   20.2527 C   0  0  1  0  0  0  0  0  0  0  0  0
  -22.9446  -24.7849   22.2093 C   0  0  1  0  0  0  0  0  0  0  0  0
  -28.5729  -18.1616   21.4029 C   0  0  2  0  0  0  0  0  0  0  0  0
  -29.5779  -27.2643   17.8054 C   0  0  2  0  0  0  0  0  0  0  0  0
  -28.6452  -24.5832   13.8379 C   0  0  0  0  0  0  0  0  0  0  0  0
  -30.8304  -27.6980   18.5709 C   0  0  0  0  0  0  0  0  0  0  0  0
  -20.9712  -32.1665   23.4824 C   0  0  0  0  0  0  0  0  0  0  0  0
  -20.3509  -27.1497   19.2025 C   0  0  0  0  0  0  0  0  0  0  0  0
  -20.0554  -29.5828   19.7131 C   0  0  0  0  0  0  0  0  0  0  0  0
  -18.8482  -27.8705   21.0671 C   0  0  0  0  0  0  0  0  0  0  0  0
  -23.7877  -30.2445   25.1704 C   0  0  0  0  0  0  0  0  0  0  0  0
  -30.5870  -22.2780   17.6282 C   0  0  0  0  0  0  0  0  0  0  0  0
  -28.3401  -27.3782   18.7047 C   0  0  0  0  0  0  0  0  0  1  0  0
  -21.3429  -28.1528   21.3648 C   0  0  1  0  0  0  0  0  0  0  0  0
  -21.7374  -30.9271   23.9177 C   0  0  2  0  0  0  0  0  0  0  0  0
  -20.1750  -28.1768   20.3387 C   0  0  0  0  0  0  0  0  0  0  0  0
  -27.3806  -16.0430   20.9879 N   0  0  0  0  0  0  0  0  0  0  0  0
  -29.6289  -23.5029   15.7690 N   0  0  0  0  0  0  0  0  0  0  0  0
  -28.3284  -16.6910   21.6863 N   0  0  0  0  0  0  0  0  0  0  0  0
  -22.7723  -26.1798   21.7985 N   0  0  0  0  0  0  0  0  0  0  0  0
  -28.5527  -19.9416   19.6931 N   0  0  0  0  0  0  0  0  0  0  0  0
  -29.9552  -16.4000   23.3832 N   0  0  0  0  0  0  0  0  0  0  0  0
  -28.0908  -12.3033   23.0137 N   0  0  0  0  0  0  0  0  0  0  0  0
  -22.1151  -22.7123   21.2742 N   0  0  0  0  0  0  0  0  0  0  0  0
  -21.1897  -29.0965   22.4668 N   0  0  0  0  0  0  0  0  0  0  0  0
  -29.6481  -21.7140   18.5722 N   0  0  0  0  0  0  0  0  0  0  0  0
  -22.9519  -31.3631   24.6633 N   0  3  0  0  0  0  0  0  0  0  0  0
  -29.6617  -13.5396   24.1373 O   0  0  0  0  0  0  0  0  0  0  0  0
  -22.9983  -24.3612   19.8871 O   0  0  0  0  0  0  0  0  0  0  0  0
  -20.6029  -26.2978   22.6445 O   0  0  0  0  0  0  0  0  0  0  0  0
  -23.1619  -30.2550   22.0856 O   0  0  0  0  0  0  0  0  0  0  0  0
  -30.1653  -19.5365   18.0765 O   0  0  0  0  0  0  0  0  0  0  0  0
  -24.0018  -10.8487   19.5209 O   0  0  0  0  0  0  0  0  0  0  0  0
  -28.6328  -26.7962   19.9743 O   0  0  0  0  0  0  0  0  0  1  0  0
  -21.4833   -7.5904   23.1875 F   0  0  0  0  0  0  0  0  0  0  0  0
  -21.2431  -10.7496   19.6708 F   0  0  0  0  0  0  0  0  0  0  0  0
  1  2  1  0  0  0  0
  1  5  2  0  0  0  0
  2  6  2  0  0  0  0
  3  8  2  0  0  0  0
  3 16  1  0  0  0  0
  4  9  1  0  0  0  0
  4 16  2  0  0  0  0
  5 18  1  0  0  0  0
  6 20  1  0  0  0  0
  7 10  2  0  0  0  0
  7 19  1  0  0  0  0
  8 24  1  0  0  0  0
  9 24  2  0  0  0  0
 10 25  1  0  0  0  0
 11 12  2  0  0  0  0
 11 26  1  0  0  0  0
 12 27  1  0  0  0  0
 13 21  1  0  0  0  0
 13 25  2  0  0  0  0
 14 22  2  0  0  0  0
 14 30  1  0  0  0  0
 15 27  2  0  0  0  0
 15 28  1  0  0  0  0
 16 29  1  0  0  0  0
 17 29  1  0  0  0  0
 17 32  2  0  0  0  0
 17 33  1  0  0  0  0
 18 20  2  0  0  0  0
 18 38  1  0  0  0  0
 19 21  2  0  0  0  0
 19 39  1  0  0  0  0
 20 49  1  0  0  0  0
 21 41  1  0  0  0  0
 22 23  1  0  0  0  0
 22 52  1  0  0  0  0
 23 31  2  0  0  0  0
 23 40  1  0  0  0  0
 24 81  1  0  0  0  0
 25 82  1  0  0  0  0
 26 28  2  0  0  0  0
 26 81  1  0  0  0  0
 27 83  1  0  0  0  0
 28 84  1  0  0  0  0
 29 65  2  0  0  0  0
 30 60  1  0  0  0  0
 30 66  2  0  0  0  0
 31 53  1  0  0  0  0
 31 66  1  0  0  0  0
 32 67  1  0  0  0  0
 32 70  1  0  0  0  0
 33 71  1  0  0  0  0
 33 76  2  0  0  0  0
 34 50  1  0  0  0  0
 34 72  1  0  0  0  0
 34 77  2  0  0  0  0
 35 62  1  0  0  0  0
 35 68  1  0  0  0  0
 35 78  2  0  0  0  0
 36 63  1  0  0  0  0
 36 73  1  0  0  0  0
 36 79  2  0  0  0  0
 37 69  1  0  0  0  0
 37 74  1  0  0  0  0
 37 80  2  0  0  0  0
 38 42  1  0  0  0  0
 39 50  1  0  0  0  0
 40 43  1  0  0  0  0
 41 68  1  0  0  0  0
 42 45  1  0  0  0  0
 43 52  1  0  0  0  0
 44 46  1  0  0  0  0
 44 47  1  0  0  0  0
 45 49  1  0  0  0  0
 46 51  1  0  0  0  0
 47 69  1  0  0  0  0
 48 51  1  0  0  0  0
 48 69  1  0  0  0  0
 49 72  1  0  0  0  0
 50 68  1  0  0  0  0
 51 67  1  0  0  0  0
 52 54  1  0  0  0  0
 52 61  1  0  0  0  0
 55 63  1  0  0  0  0
 56 64  1  0  0  0  0
 57 64  1  0  0  0  0
 58 64  1  0  0  0  0
 59 75  1  0  0  0  0
 60 74  1  0  0  0  0
 61 82  1  0  0  0  0
 62 64  1  0  0  0  0
 62 73  1  0  0  0  0
 63 75  1  0  0  0  0
 65 67  1  0  0  0  0
M  CHG  1  75   1
M  ISO  4  37 100  61 101  74 100  82 101
M  END
> <Batch ID>
0174

> <Smiles>
CNC(C)C(=O)NC(C(=O)N1Cc2cc([101O:1][101CH2:1]C3(C)CCc4c3cc(C[100NH:0][100C:0](=O)N3CCCC(n5nc(-c6ccc(Oc7ccc(F)cc7F)cc6)c(C(N)=O)c5N)C3)nc4C)ccc2CC1C(=O)NC1CCCc2ccccc21)C(C)(C)C

> <Shape>
0.217

> <Color>
0.066

> <Negative vol penalty>
0.000

$$$$

  -OEChem-04052322453D

 85 94  0     1  0  0  0  0  0999 V2000
  -26.6663  -38.0610   22.1384 C   0  0  0  0  0  0  0  0  0  0  0  0
  -27.2805  -37.1020   21.3394 C   0  0  0  0  0  0  0  0  0  0  0  0
  -27.6432   -8.2529   23.7990 C   0  0  0  0  0  0  0  0  0  0  0  0
  -27.6723   -6.9077   21.7924 C   0  0  0  0  0  0  0  0  0  0  0  0
  -26.0049  -37.6759   23.3039 C   0  0  0  0  0  0  0  0  0  0  0  0
  -27.2345  -35.7574   21.7059 C   0  0  0  0  0  0  0  0  0  0  0  0
  -26.9680  -29.1964   18.8425 C   0  0  0  0  0  0  0  0  0  0  0  0
  -29.5060  -23.5889   21.8946 C   0  0  0  0  0  0  0  0  0  0  0  0
  -26.7463   -7.3597   24.3849 C   0  0  0  0  0  0  0  0  0  0  0  0
  -26.7754   -6.0144   22.3782 C   0  0  0  0  0  0  0  0  0  0  0  0
  -27.6240  -27.9676   18.9024 C   0  0  0  0  0  0  0  0  0  0  0  0
  -24.2158   -3.5720   23.2108 C   0  0  0  0  0  0  0  0  0  0  0  0
  -23.1418   -3.1310   22.4377 C   0  0  0  0  0  0  0  0  0  0  0  0
  -30.2704  -22.4292   21.8294 C   0  0  0  0  0  0  0  0  0  0  0  0
  -26.3849  -27.4103   20.8958 C   0  0  0  0  0  0  0  0  0  0  0  0
  -22.3764   -5.4104   22.2009 C   0  0  0  0  0  0  0  0  0  0  0  0
  -28.1062   -8.0270   22.5027 C   0  0  0  0  0  0  0  0  0  0  0  0
  -30.4382   -8.9008   21.9497 C   0  0  0  0  0  0  0  0  0  0  0  0
  -25.9426  -36.3249   23.6798 C   0  0  0  0  0  0  0  0  0  0  0  0
  -26.0220  -29.5465   19.8165 C   0  0  0  0  0  0  0  0  0  0  0  0
  -26.5728  -35.3540   22.8781 C   0  0  0  0  0  0  0  0  0  0  0  0
  -25.7165  -28.6431   20.8445 C   0  0  0  0  0  0  0  0  0  0  0  0
  -28.4504  -23.7699   21.0079 C   0  0  0  0  0  0  0  0  0  0  0  0
  -26.3124   -6.2404   23.6745 C   0  0  0  0  0  0  0  0  0  0  0  0
  -27.3346  -27.0755   19.9308 C   0  0  0  0  0  0  0  0  0  0  0  0
  -24.3701   -4.9322   23.4790 C   0  0  0  0  0  0  0  0  0  0  0  0
  -22.2221   -4.0502   21.9328 C   0  0  0  0  0  0  0  0  0  0  0  0
  -23.4504   -5.8513   22.9740 C   0  0  0  0  0  0  0  0  0  0  0  0
  -29.0323   -8.9496   21.8968 C   0  0  0  0  0  0  0  0  0  0  0  0
  -28.2023  -22.7693   20.0821 C   0  0  0  0  0  0  0  0  0  0  0  0
  -29.9406  -21.4886   20.8670 C   0  0  0  0  0  0  0  0  0  0  0  0
  -30.8472   -9.9921   21.2230 C   0  0  0  0  0  0  0  0  0  0  0  0
  -31.2975   -7.9535   22.5977 C   0  0  0  0  0  0  0  0  0  0  0  0
  -25.7889  -31.8540   21.9901 C   0  0  0  0  0  0  0  0  0  0  0  0
  -22.8409  -30.5831   22.4555 C   0  0  0  0  0  0  0  0  0  0  0  0
  -20.7834  -27.8714   22.2108 C   0  0  0  0  0  0  0  0  0  0  0  0
  -30.6058  -15.1697   19.8299 C   0  0  0  0  0  0  0  0  0  0  0  0
  -25.2567  -35.9621   24.9731 C   0  0  0  0  0  0  0  0  0  0  0  0
  -25.3037  -30.8647   19.7226 C   0  0  0  0  0  0  0  0  0  0  0  0
  -24.6942  -28.9626   21.9033 C   0  0  0  0  0  0  0  0  0  0  0  0
  -24.9327  -34.4753   25.0946 C   0  0  0  0  0  0  0  0  0  0  0  0
  -28.2588  -13.1176   18.2144 C   0  0  0  0  0  0  0  0  0  0  0  0
  -26.1381  -33.6317   24.6920 C   0  0  0  0  0  0  0  0  0  0  0  0
  -28.3612  -11.8336   19.0373 C   0  0  0  0  0  0  0  0  0  0  0  0
  -29.3151  -18.4044   20.3385 C   0  0  0  0  0  0  0  0  0  0  0  0
  -31.7607  -18.4344   19.7174 C   0  0  0  0  0  0  0  0  0  0  0  0
  -28.3170  -14.3680   19.0938 C   0  0  0  0  0  0  0  0  0  0  0  0
  -29.1182  -17.1839   19.4345 C   0  0  0  0  0  0  0  0  0  0  0  0
  -31.5105  -17.2353   18.8072 C   0  0  0  0  0  0  0  0  0  0  0  0
  -29.5961  -13.1328   20.8133 C   0  0  0  0  0  0  0  0  0  0  0  0
  -26.5235  -33.8828   23.2292 C   0  0  1  0  0  0  0  0  0  0  0  0
  -24.7327  -31.3306   21.0584 C   0  0  1  0  0  0  0  0  0  0  0  0
  -29.5991  -11.8607   19.9515 C   0  0  1  0  0  0  0  0  0  0  0  0
  -30.4866  -19.2696   19.8679 C   0  0  0  0  0  0  0  0  0  0  0  0
  -27.0817  -22.9097   19.1044 C   0  0  0  0  0  0  0  0  0  0  0  0
  -18.4389  -27.1264   22.7066 C   0  0  0  0  0  0  0  0  0  0  0  0
  -23.5381  -30.3692   25.4183 C   0  0  0  0  0  0  0  0  0  0  0  0
  -21.6119  -28.7924   25.6862 C   0  0  0  0  0  0  0  0  0  0  0  0
  -21.2060  -31.1405   24.9484 C   0  0  0  0  0  0  0  0  0  0  0  0
  -20.2342  -27.3112   19.3571 C   0  0  0  0  0  0  0  0  0  0  0  0
  -27.6284  -25.0103   21.0729 C   0  0  0  0  0  0  0  0  0  1  0  0
  -22.2702  -29.5032   23.3426 C   0  0  1  0  0  0  0  0  0  0  0  0
  -19.3744  -27.7220   21.6659 C   0  0  2  0  0  0  0  0  0  0  0  0
  -22.1773  -29.9458   24.8302 C   0  0  0  0  0  0  0  0  0  0  0  0
  -28.5786   -9.9898   21.1923 N   0  0  0  0  0  0  0  0  0  0  0  0
  -28.9228  -21.6292   19.9885 N   0  0  0  0  0  0  0  0  0  0  0  0
  -29.7059  -10.6047   20.7959 N   0  0  0  0  0  0  0  0  0  0  0  0
  -24.0233  -30.2666   21.7718 N   0  0  0  0  0  0  0  0  0  0  0  0
  -29.4917  -14.3296   19.9759 N   0  0  0  0  0  0  0  0  0  0  0  0
  -30.3771  -16.4406   19.2819 N   0  0  0  0  0  0  0  0  0  0  0  0
  -32.0683  -10.4780   20.9141 N   0  0  0  0  0  0  0  0  0  0  0  0
  -30.7119   -6.8924   23.3015 N   0  0  0  0  0  0  0  0  0  0  0  0
  -30.7101  -20.3398   20.8148 N   0  0  0  0  0  0  0  0  0  0  0  0
  -25.6223  -33.1801   22.3413 N   0  0  0  0  0  0  0  0  0  0  0  0
  -20.9919  -29.1226   22.7515 N   0  0  0  0  0  0  0  0  0  0  0  0
  -19.3732  -26.8335   20.4695 N   0  3  0  0  0  0  0  0  0  0  0  0
  -32.5475   -8.0546   22.5676 O   0  0  0  0  0  0  0  0  0  0  0  0
  -26.6876  -31.1096   22.3640 O   0  0  0  0  0  0  0  0  0  0  0  0
  -22.2552  -31.6651   22.3668 O   0  0  0  0  0  0  0  0  0  0  0  0
  -21.6147  -26.9673   22.1649 O   0  0  0  0  0  0  0  0  0  0  0  0
  -31.7386  -14.8057   20.1695 O   0  0  0  0  0  0  0  0  0  0  0  0
  -25.4374   -5.3685   24.2460 O   0  0  0  0  0  0  0  0  0  0  0  0
  -27.9781  -25.8678   19.9925 O   0  0  0  0  0  0  0  0  0  1  0  0
  -21.1916   -3.6267   21.1892 F   0  0  0  0  0  0  0  0  0  0  0  0
  -23.5941   -7.1594   23.2273 F   0  0  0  0  0  0  0  0  0  0  0  0
  1  2  1  0  0  0  0
  1  5  2  0  0  0  0
  2  6  2  0  0  0  0
  3  9  2  0  0  0  0
  3 17  1  0  0  0  0
  4 10  1  0  0  0  0
  4 17  2  0  0  0  0
  5 19  1  0  0  0  0
  6 21  1  0  0  0  0
  7 11  2  0  0  0  0
  7 20  1  0  0  0  0
  8 14  2  0  0  0  0
  8 23  1  0  0  0  0
  9 24  1  0  0  0  0
 10 24  2  0  0  0  0
 11 25  1  0  0  0  0
 12 13  2  0  0  0  0
 12 26  1  0  0  0  0
 13 27  1  0  0  0  0
 14 31  1  0  0  0  0
 15 22  1  0  0  0  0
 15 25  2  0  0  0  0
 16 27  2  0  0  0  0
 16 28  1  0  0  0  0
 17 29  1  0  0  0  0
 18 29  1  0  0  0  0
 18 32  2  0  0  0  0
 18 33  1  0  0  0  0
 19 21  2  0  0  0  0
 19 38  1  0  0  0  0
 20 22  2  0  0  0  0
 20 39  1  0  0  0  0
 21 51  1  0  0  0  0
 22 40  1  0  0  0  0
 23 30  2  0  0  0  0
 23 61  1  0  0  0  0
 24 82  1  0  0  0  0
 25 83  1  0  0  0  0
 26 28  2  0  0  0  0
 26 82  1  0  0  0  0
 27 84  1  0  0  0  0
 28 85  1  0  0  0  0
 29 65  2  0  0  0  0
 30 55  1  0  0  0  0
 30 66  1  0  0  0  0
 31 66  2  0  0  0  0
 31 73  1  0  0  0  0
 32 67  1  0  0  0  0
 32 71  1  0  0  0  0
 33 72  1  0  0  0  0
 33 77  2  0  0  0  0
 34 52  1  0  0  0  0
 34 74  1  0  0  0  0
 34 78  2  0  0  0  0
 35 62  1  0  0  0  0
 35 68  1  0  0  0  0
 35 79  2  0  0  0  0
 36 63  1  0  0  0  0
 36 75  1  0  0  0  0
 36 80  2  0  0  0  0
 37 69  1  0  0  0  0
 37 70  1  0  0  0  0
 37 81  2  0  0  0  0
 38 41  1  0  0  0  0
 39 52  1  0  0  0  0
 40 68  1  0  0  0  0
 41 43  1  0  0  0  0
 42 44  1  0  0  0  0
 42 47  1  0  0  0  0
 43 51  1  0  0  0  0
 44 53  1  0  0  0  0
 45 48  1  0  0  0  0
 45 54  1  0  0  0  0
 46 49  1  0  0  0  0
 46 54  1  0  0  0  0
 47 69  1  0  0  0  0
 48 70  1  0  0  0  0
 49 70  1  0  0  0  0
 50 53  1  0  0  0  0
 50 69  1  0  0  0  0
 51 74  1  0  0  0  0
 52 68  1  0  0  0  0
 53 67  1  0  0  0  0
 54 73  1  0  0  0  0
 56 63  1  0  0  0  0
 57 64  1  0  0  0  0
 58 64  1  0  0  0  0
 59 64  1  0  0  0  0
 60 76  1  0  0  0  0
 61 83  1  0  0  0  0
 62 64  1  0  0  0  0
 62 75  1  0  0  0  0
 63 76  1  0  0  0  0
 65 67  1  0  0  0  0
M  CHG  1  76   1
M  ISO  4  37 100  61 101  70 100  83 101
M  END
> <Batch ID>
0174

> <Smiles>
CNC(C)C(=O)NC(C(=O)N1Cc2cc([101O:1][101CH2:1]c3ccc(NC4CC[100N:0]([100C:0](=O)N5CCCC(n6nc(-c7ccc(Oc8ccc(F)cc8F)cc7)c(C(N)=O)c6N)C5)CC4)nc3C)ccc2CC1C(=O)NC1CCCc2ccccc21)C(C)(C)C

> <Shape>
0.282

> <Color>
0.092

> <Negative vol penalty>
0.000

$$$$

  -OEChem-04052322453D

 88 97  0     1  0  0  0  0  0999 V2000
  -29.1562  -33.3275   24.6982 C   0  0  0  0  0  0  0  0  0  0  0  0
  -29.0306  -32.0209   24.2375 C   0  0  0  0  0  0  0  0  0  0  0  0
  -23.3984  -13.7185   18.7714 C   0  0  0  0  0  0  0  0  0  0  0  0
  -25.1434  -12.5816   19.9959 C   0  0  0  0  0  0  0  0  0  0  0  0
  -28.0305  -34.0205   25.1414 C   0  0  0  0  0  0  0  0  0  0  0  0
  -27.7792  -31.4060   24.2207 C   0  0  0  0  0  0  0  0  0  0  0  0
  -26.8961  -28.9156   19.9006 C   0  0  0  0  0  0  0  0  0  0  0  0
  -23.3837  -12.6859   17.8337 C   0  0  0  0  0  0  0  0  0  0  0  0
  -25.1287  -11.5490   19.0583 C   0  0  0  0  0  0  0  0  0  0  0  0
  -27.5024  -27.6694   19.7487 C   0  0  0  0  0  0  0  0  0  0  0  0
  -23.2302   -8.8396   18.3690 C   0  0  0  0  0  0  0  0  0  0  0  0
  -23.2493   -7.5301   18.8489 C   0  0  0  0  0  0  0  0  0  0  0  0
  -30.0573  -21.1852   19.0933 C   0  0  0  0  0  0  0  0  0  0  0  0
  -30.2527  -23.3747   20.0957 C   0  0  0  0  0  0  0  0  0  0  0  0
  -25.4315  -26.5939   20.3602 C   0  0  0  0  0  0  0  0  0  0  0  0
  -25.3172   -7.1268   17.6663 C   0  0  0  0  0  0  0  0  0  0  0  0
  -24.2783  -13.6664   19.8525 C   0  0  0  0  0  0  0  0  0  0  0  0
  -23.5278  -14.8238   21.9983 C   0  0  0  0  0  0  0  0  0  0  0  0
  -26.7631  -33.4171   25.1210 C   0  0  0  0  0  0  0  0  0  0  0  0
  -25.5536  -29.0107   20.2947 C   0  0  0  0  0  0  0  0  0  0  0  0
  -26.6356  -32.0911   24.6653 C   0  0  0  0  0  0  0  0  0  0  0  0
  -30.6804  -22.0511   19.9920 C   0  0  0  0  0  0  0  0  0  0  0  0
  -24.8097  -27.8425   20.5139 C   0  0  0  0  0  0  0  0  0  0  0  0
  -29.0065  -21.6430   18.2983 C   0  0  0  0  0  0  0  0  0  0  0  0
  -29.2019  -23.8325   19.3008 C   0  0  0  0  0  0  0  0  0  0  0  0
  -28.5788  -22.9666   18.4020 C   0  0  0  0  0  0  0  0  0  0  0  0
  -24.2488  -11.6012   17.9772 C   0  0  0  0  0  0  0  0  0  0  0  0
  -26.7709  -26.5084   19.9813 C   0  0  0  0  0  0  0  0  0  0  0  0
  -24.2545   -9.2927   17.5376 C   0  0  0  0  0  0  0  0  0  0  0  0
  -24.2928   -6.6737   18.4977 C   0  0  0  0  0  0  0  0  0  0  0  0
  -25.2980   -8.4363   17.1863 C   0  0  0  0  0  0  0  0  0  0  0  0
  -24.2944  -14.7329   20.8211 C   0  0  0  0  0  0  0  0  0  0  0  0
  -23.9082  -16.0159   22.5646 C   0  0  0  0  0  0  0  0  0  0  0  0
  -22.5586  -13.9121   22.5323 C   0  0  0  0  0  0  0  0  0  0  0  0
  -24.0315  -30.2593   22.7902 C   0  0  0  0  0  0  0  0  0  0  0  0
  -21.3905  -29.4582   21.0856 C   0  0  0  0  0  0  0  0  0  0  0  0
  -19.9804  -27.4858   18.6839 C   0  0  0  0  0  0  0  0  0  0  0  0
  -28.9029  -19.1394   22.1741 C   0  0  0  0  0  0  0  0  0  0  0  0
  -25.5827  -34.1896   25.6544 C   0  0  0  0  0  0  0  0  0  0  0  0
  -24.9067  -30.3620   20.4282 C   0  0  0  0  0  0  0  0  0  0  0  0
  -23.3598  -27.8900   20.9189 C   0  0  0  0  0  0  0  0  0  0  0  0
  -24.2348  -33.5960   25.2533 C   0  0  0  0  0  0  0  0  0  0  0  0
  -25.5796  -20.3482   21.4047 C   0  0  0  0  0  0  0  0  0  0  0  0
  -24.2291  -32.0867   25.4742 C   0  0  0  0  0  0  0  0  0  0  0  0
  -24.8004  -19.0376   21.2806 C   0  0  0  0  0  0  0  0  0  0  0  0
  -26.9892  -20.2091   20.8375 C   0  0  0  0  0  0  0  0  0  0  0  0
  -27.0105  -17.7909   21.3123 C   0  0  0  0  0  0  0  0  0  0  0  0
  -33.9028  -22.0109   21.8810 C   0  0  0  0  0  0  0  0  0  0  0  0
  -31.8042  -21.5618   20.8414 C   0  0  1  0  0  0  0  0  0  0  0  0
  -25.2913  -31.3984   24.6085 C   0  0  1  0  0  0  0  0  0  0  0  0
  -23.6782  -30.3496   21.3326 C   0  0  1  0  0  0  0  0  0  0  0  0
  -33.0877  -22.3866   20.6507 C   0  0  2  0  0  0  0  0  0  0  0  0
  -25.5846  -17.8597   21.8887 C   0  0  2  0  0  0  0  0  0  0  0  0
  -31.5091  -21.7553   22.3369 C   0  0  1  0  0  0  0  0  0  0  0  0
  -28.3554  -20.6953   17.3446 C   0  0  0  0  0  0  0  0  0  0  0  0
  -27.4519  -23.4570   17.5498 C   0  0  0  0  0  0  0  0  0  0  0  0
  -33.8286  -22.0828   19.3563 C   0  0  0  0  0  0  0  0  0  0  0  0
  -17.7941  -27.0375   17.5365 C   0  0  0  0  0  0  0  0  0  0  0  0
  -30.4654  -20.8790   24.4503 C   0  0  0  0  0  0  0  0  0  0  0  0
  -20.4059  -27.9579   23.5534 C   0  0  0  0  0  0  0  0  0  0  0  0
  -18.7521  -26.7778   22.0903 C   0  0  0  0  0  0  0  0  0  0  0  0
  -18.6405  -29.2564   22.3486 C   0  0  0  0  0  0  0  0  0  0  0  0
  -21.0855  -28.2200   16.0384 C   0  0  0  0  0  0  0  0  0  0  0  0
  -28.7608  -25.2606   19.4316 C   0  0  0  0  0  0  0  0  0  1  0  0
  -20.5110  -28.2350   20.9886 C   0  0  1  0  0  0  0  0  0  0  0  0
  -19.0968  -27.8212   17.4960 C   0  0  2  0  0  0  0  0  0  0  0  0
  -30.7302  -20.6166   22.9715 C   0  0  1  0  0  0  0  0  0  0  0  0
  -19.6052  -28.0556   22.2394 C   0  0  0  0  0  0  0  0  0  0  0  0
  -25.1008  -15.7837   20.6485 N   0  0  0  0  0  0  0  0  0  0  0  0
  -24.8429  -16.5461   21.7247 N   0  0  0  0  0  0  0  0  0  0  0  0
  -22.7740  -29.2350   21.0425 N   0  0  0  0  0  0  0  0  0  0  0  0
  -27.6879  -19.0820   21.4713 N   0  0  0  0  0  0  0  0  0  0  0  0
  -23.5310  -16.6519   23.6941 N   0  0  0  0  0  0  0  0  0  0  0  0
  -22.2877  -12.7340   21.8231 N   0  0  0  0  0  0  0  0  0  0  0  0
  -24.8348  -31.2899   23.2394 N   0  0  0  0  0  0  0  0  0  0  0  0
  -19.7784  -28.3576   19.7329 N   0  0  0  0  0  0  0  0  0  0  0  0
  -29.4829  -20.3982   22.2734 N   0  0  0  0  0  0  0  0  0  0  0  0
  -32.8790  -21.8454   22.9671 N   0  3  0  0  0  0  0  0  0  0  0  0
  -19.7989  -27.5003   16.2212 N   0  3  0  0  0  0  0  0  0  0  0  0
  -21.9388  -14.1434   23.5981 O   0  0  0  0  0  0  0  0  0  0  0  0
  -23.6054  -29.3245   23.4583 O   0  0  0  0  0  0  0  0  0  0  0  0
  -20.8690  -30.5713   21.1885 O   0  0  0  0  0  0  0  0  0  0  0  0
  -20.7682  -26.5425   18.6827 O   0  0  0  0  0  0  0  0  0  0  0  0
  -29.4296  -18.1430   22.6809 O   0  0  0  0  0  0  0  0  0  0  0  0
  -24.2345  -10.5933   17.0625 O   0  0  0  0  0  0  0  0  0  0  0  0
  -27.3605  -25.2907   19.8344 O   0  0  0  0  0  0  0  0  0  1  0  0
  -24.3118   -5.4167   18.9599 F   0  0  0  0  0  0  0  0  0  0  0  0
  -26.2855   -8.8663   16.3890 F   0  0  0  0  0  0  0  0  0  0  0  0
  1  2  1  0  0  0  0
  1  5  2  0  0  0  0
  2  6  2  0  0  0  0
  3  8  2  0  0  0  0
  3 17  1  0  0  0  0
  4  9  1  0  0  0  0
  4 17  2  0  0  0  0
  5 19  1  0  0  0  0
  6 21  1  0  0  0  0
  7 10  2  0  0  0  0
  7 20  1  0  0  0  0
  8 27  1  0  0  0  0
  9 27  2  0  0  0  0
 10 28  1  0  0  0  0
 11 12  2  0  0  0  0
 11 29  1  0  0  0  0
 12 30  1  0  0  0  0
 13 22  1  0  0  0  0
 13 24  2  0  0  0  0
 14 22  2  0  0  0  0
 14 25  1  0  0  0  0
 15 23  1  0  0  0  0
 15 28  2  0  0  0  0
 16 30  2  0  0  0  0
 16 31  1  0  0  0  0
 17 32  1  0  0  0  0
 18 32  1  0  0  0  0
 18 33  2  0  0  0  0
 18 34  1  0  0  0  0
 19 21  2  0  0  0  0
 19 39  1  0  0  0  0
 20 23  2  0  0  0  0
 20 40  1  0  0  0  0
 21 50  1  0  0  0  0
 22 49  1  0  0  0  0
 23 41  1  0  0  0  0
 24 26  1  0  0  0  0
 24 55  1  0  0  0  0
 25 26  2  0  0  0  0
 25 64  1  0  0  0  0
 26 56  1  0  0  0  0
 27 85  1  0  0  0  0
 28 86  1  0  0  0  0
 29 31  2  0  0  0  0
 29 85  1  0  0  0  0
 30 87  1  0  0  0  0
 31 88  1  0  0  0  0
 32 69  2  0  0  0  0
 33 70  1  0  0  0  0
 33 73  1  0  0  0  0
 34 74  1  0  0  0  0
 34 80  2  0  0  0  0
 35 51  1  0  0  0  0
 35 75  1  0  0  0  0
 35 81  2  0  0  0  0
 36 65  1  0  0  0  0
 36 71  1  0  0  0  0
 36 82  2  0  0  0  0
 37 66  1  0  0  0  0
 37 76  1  0  0  0  0
 37 83  2  0  0  0  0
 38 72  1  0  0  0  0
 38 77  1  0  0  0  0
 38 84  2  0  0  0  0
 39 42  1  0  0  0  0
 40 51  1  0  0  0  0
 41 71  1  0  0  0  0
 42 44  1  0  0  0  0
 43 45  1  0  0  0  0
 43 46  1  0  0  0  0
 44 50  1  0  0  0  0
 45 53  1  0  0  0  0
 46 72  1  0  0  0  0
 47 53  1  0  0  0  0
 47 72  1  0  0  0  0
 48 52  1  0  0  0  0
 48 78  1  0  0  0  0
 49 52  1  0  0  0  0
 49 54  1  0  0  0  0
 50 75  1  0  0  0  0
 51 71  1  0  0  0  0
 52 57  1  0  0  0  0
 53 70  1  0  0  0  0
 54 67  1  0  0  0  0
 54 78  1  0  0  0  0
 58 66  1  0  0  0  0
 59 67  1  0  0  0  0
 60 68  1  0  0  0  0
 61 68  1  0  0  0  0
 62 68  1  0  0  0  0
 63 79  1  0  0  0  0
 64 86  1  0  0  0  0
 65 68  1  0  0  0  0
 65 76  1  0  0  0  0
 66 79  1  0  0  0  0
 67 77  1  0  0  0  0
 69 70  1  0  0  0  0
M  CHG  2  78   1  79   1
M  ISO  4  38 100  64 101  77 100  86 101
M  END
> <Batch ID>
0174

> <Smiles>
CNC(C)C(=O)NC(C(=O)N1Cc2cc([101O:1][101CH2:1]c3cc(C4C(C)CNC4C(C)[100NH:0][100C:0](=O)N4CCCC(n5nc(-c6ccc(Oc7ccc(F)cc7F)cc6)c(C(N)=O)c5N)C4)cc(C)c3C)ccc2CC1C(=O)NC1CCCc2ccccc21)C(C)(C)C

> <Shape>
0.227

> <Color>
0.062

> <Negative vol penalty>
0.000

$$$$

  -OEChem-04052322453D

 84 93  0     1  0  0  0  0  0999 V2000
  -20.3221  -23.5863   22.5769 C   0  0  0  0  0  0  0  0  0  0  0  0
  -21.4555  -24.0509   21.9173 C   0  0  0  0  0  0  0  0  0  0  0  0
  -25.2817  -16.2366   18.7357 C   0  0  0  0  0  0  0  0  0  0  0  0
  -26.3116  -16.6255   16.5852 C   0  0  0  0  0  0  0  0  0  0  0  0
  -19.3439  -24.4862   22.9979 C   0  0  0  0  0  0  0  0  0  0  0  0
  -21.6108  -25.4157   21.6774 C   0  0  0  0  0  0  0  0  0  0  0  0
  -26.2826  -27.0556   22.7407 C   0  0  0  0  0  0  0  0  0  0  0  0
  -24.7016  -15.0663   18.2463 C   0  0  0  0  0  0  0  0  0  0  0  0
  -25.7316  -15.4552   16.0957 C   0  0  0  0  0  0  0  0  0  0  0  0
  -27.2806  -26.7850   21.8055 C   0  0  0  0  0  0  0  0  0  0  0  0
  -23.2425  -11.7872   17.6692 C   0  0  0  0  0  0  0  0  0  0  0  0
  -23.3006  -10.6490   18.4734 C   0  0  0  0  0  0  0  0  0  0  0  0
  -27.0844  -29.0336   20.9543 C   0  0  0  0  0  0  0  0  0  0  0  0
  -25.7145  -10.7431   18.4320 C   0  0  0  0  0  0  0  0  0  0  0  0
  -29.0319  -26.8806   16.2283 C   0  0  0  0  0  0  0  0  0  0  0  0
  -26.0867  -17.0163   17.9052 C   0  0  0  0  0  0  0  0  0  0  0  0
  -27.9407  -18.3561   19.0344 C   0  0  0  0  0  0  0  0  0  0  0  0
  -19.4920  -25.8637   22.7716 C   0  0  0  0  0  0  0  0  0  0  0  0
  -25.6693  -28.3160   22.7825 C   0  0  0  0  0  0  0  0  0  0  0  0
  -20.6331  -26.3348   22.0946 C   0  0  0  0  0  0  0  0  0  0  0  0
  -26.0806  -29.3185   21.8926 C   0  0  0  0  0  0  0  0  0  0  0  0
  -29.5983  -24.7649   16.6365 C   0  0  0  0  0  0  0  0  0  0  0  0
  -28.8883  -25.5859   15.7511 C   0  0  0  0  0  0  0  0  0  0  0  0
  -24.9266  -14.6756   16.9263 C   0  0  0  0  0  0  0  0  0  0  0  0
  -27.6796  -27.7731   20.9102 C   0  0  0  0  0  0  0  0  0  0  0  0
  -24.4203  -12.4033   17.2462 C   0  0  0  0  0  0  0  0  0  0  0  0
  -24.5366  -10.1270   18.8549 C   0  0  0  0  0  0  0  0  0  0  0  0
  -25.6563  -11.8812   17.6277 C   0  0  0  0  0  0  0  0  0  0  0  0
  -26.6857  -18.2255   18.4100 C   0  0  0  0  0  0  0  0  0  0  0  0
  -30.1429  -25.5598   17.6053 C   0  0  0  0  0  0  0  0  0  0  0  0
  -28.0424  -19.6948   19.3242 C   0  0  0  0  0  0  0  0  0  0  0  0
  -30.8960  -24.8310   18.5704 C   0  0  0  0  0  0  0  0  0  0  0  0
  -28.9264  -17.3567   19.3262 C   0  0  0  0  0  0  0  0  0  0  0  0
  -22.7042  -29.3827   22.3656 C   0  0  0  0  0  0  0  0  0  0  0  0
  -24.0032  -32.2032   23.3037 C   0  0  0  0  0  0  0  0  0  0  0  0
  -26.7890  -34.1507   23.6089 C   0  0  0  0  0  0  0  0  0  0  0  0
  -25.5467  -24.5850   16.9350 C   0  0  0  0  0  0  0  0  0  0  0  0
  -18.3855  -26.7933   23.2032 C   0  0  0  0  0  0  0  0  0  0  0  0
  -24.6130  -28.6004   23.8149 C   0  0  0  0  0  0  0  0  0  0  0  0
  -29.9299  -23.3397   16.8361 C   0  0  0  0  0  0  0  0  0  0  0  0
  -25.4680  -30.6943   21.9098 C   0  0  0  0  0  0  0  0  0  0  0  0
  -30.8082  -23.3525   18.1389 C   0  0  0  0  0  0  0  0  0  0  0  0
  -18.8036  -28.2609   23.2425 C   0  0  0  0  0  0  0  0  0  0  0  0
  -25.3543  -23.5233   20.3280 C   0  0  0  0  0  0  0  0  0  0  0  0
  -19.5630  -28.6338   21.9732 C   0  0  0  0  0  0  0  0  0  0  0  0
  -25.7869  -22.0570   20.2775 C   0  0  0  0  0  0  0  0  0  0  0  0
  -24.5400  -23.9142   19.0967 C   0  0  0  0  0  0  0  0  0  0  0  0
  -25.6215  -22.1523   17.7552 C   0  0  0  0  0  0  0  0  0  0  0  0
  -20.8495  -27.8104   21.8379 C   0  0  1  0  0  0  0  0  0  0  0  0
  -23.6970  -29.7578   23.4293 C   0  0  1  0  0  0  0  0  0  0  0  0
  -26.4931  -21.7261   18.9489 C   0  0  2  0  0  0  0  0  0  0  0  0
  -27.5303  -36.4220   24.3764 C   0  0  0  0  0  0  0  0  0  0  0  0
  -22.8535  -33.4353   20.7600 C   0  0  0  0  0  0  0  0  0  0  0  0
  -24.3874  -35.3856   21.0947 C   0  0  0  0  0  0  0  0  0  0  0  0
  -22.6424  -34.8665   22.8001 C   0  0  0  0  0  0  0  0  0  0  0  0
  -28.5692  -32.9995   25.6740 C   0  0  0  0  0  0  0  0  0  0  0  0
  -28.1379  -25.1686   14.5535 C   0  0  0  0  0  0  0  0  0  0  0  0
  -30.1993  -28.0507   18.1995 C   0  0  0  0  0  0  0  0  0  0  0  0
  -26.6118  -25.1045   14.7544 C   0  0  0  0  0  0  0  0  0  0  0  0
  -29.0545  -28.5512   19.0736 C   0  0  0  0  0  0  0  0  0  1  0  0
  -24.6648  -33.3626   22.5986 C   0  0  1  0  0  0  0  0  0  0  0  0
  -27.3245  -34.9677   24.7708 C   0  0  2  0  0  0  0  0  0  0  0  0
  -23.6474  -34.2361   21.8115 C   0  0  0  0  0  0  0  0  0  0  0  0
  -26.0366  -19.3885   18.3089 N   0  0  0  0  0  0  0  0  0  0  0  0
  -29.8073  -26.8509   17.3719 N   0  0  0  0  0  0  0  0  0  0  0  0
  -26.8870  -20.2625   18.8737 N   0  0  0  0  0  0  0  0  0  0  0  0
  -24.4347  -30.9215   22.9336 N   0  0  0  0  0  0  0  0  0  0  0  0
  -25.2662  -23.5754   17.8704 N   0  0  0  0  0  0  0  0  0  0  0  0
  -29.0064  -20.4299   19.9181 N   0  0  0  0  0  0  0  0  0  0  0  0
  -28.6614  -16.0300   18.9602 N   0  0  0  0  0  0  0  0  0  0  0  0
  -21.8775  -28.3314   22.7132 N   0  0  0  0  0  0  0  0  0  0  0  0
  -25.4116  -34.0890   23.6198 N   0  0  0  0  0  0  0  0  0  0  0  0
  -26.2442  -24.1799   15.8036 N   0  0  0  0  0  0  0  0  0  0  0  0
  -28.6298  -34.4170   25.2333 N   0  3  0  0  0  0  0  0  0  0  0  0
  -31.4954  -25.2568   19.5446 O   0  0  0  0  0  0  0  0  0  0  0  0
  -30.0030  -17.6293   19.9094 O   0  0  0  0  0  0  0  0  0  0  0  0
  -22.6883  -30.0023   21.3085 O   0  0  0  0  0  0  0  0  0  0  0  0
  -23.1406  -32.4267   24.1567 O   0  0  0  0  0  0  0  0  0  0  0  0
  -27.5194  -33.6233   22.7729 O   0  0  0  0  0  0  0  0  0  0  0  0
  -25.2058  -25.7614   17.0987 O   0  0  0  0  0  0  0  0  0  0  0  0
  -24.3609  -13.5336   16.4485 O   0  0  0  0  0  0  0  0  0  0  0  0
  -28.6531  -27.5114   19.9960 O   0  0  0  0  0  0  0  0  0  1  0  0
  -24.5923   -9.0349   19.6285 F   0  0  0  0  0  0  0  0  0  0  0  0
  -26.7912  -12.4694   17.2255 F   0  0  0  0  0  0  0  0  0  0  0  0
  1  2  1  0  0  0  0
  1  5  2  0  0  0  0
  2  6  2  0  0  0  0
  3  8  2  0  0  0  0
  3 16  1  0  0  0  0
  4  9  1  0  0  0  0
  4 16  2  0  0  0  0
  5 18  1  0  0  0  0
  6 20  1  0  0  0  0
  7 10  2  0  0  0  0
  7 19  1  0  0  0  0
  8 24  1  0  0  0  0
  9 24  2  0  0  0  0
 10 25  1  0  0  0  0
 11 12  2  0  0  0  0
 11 26  1  0  0  0  0
 12 27  1  0  0  0  0
 13 21  1  0  0  0  0
 13 25  2  0  0  0  0
 14 27  2  0  0  0  0
 14 28  1  0  0  0  0
 15 23  2  0  0  0  0
 15 65  1  0  0  0  0
 16 29  1  0  0  0  0
 17 29  1  0  0  0  0
 17 31  2  0  0  0  0
 17 33  1  0  0  0  0
 18 20  2  0  0  0  0
 18 38  1  0  0  0  0
 19 21  2  0  0  0  0
 19 39  1  0  0  0  0
 20 49  1  0  0  0  0
 21 41  1  0  0  0  0
 22 23  1  0  0  0  0
 22 30  2  0  0  0  0
 22 40  1  0  0  0  0
 23 57  1  0  0  0  0
 24 81  1  0  0  0  0
 25 82  1  0  0  0  0
 26 28  2  0  0  0  0
 26 81  1  0  0  0  0
 27 83  1  0  0  0  0
 28 84  1  0  0  0  0
 29 64  2  0  0  0  0
 30 32  1  0  0  0  0
 30 65  1  0  0  0  0
 31 66  1  0  0  0  0
 31 69  1  0  0  0  0
 32 42  1  0  0  0  0
 32 75  2  0  0  0  0
 33 70  1  0  0  0  0
 33 76  2  0  0  0  0
 34 50  1  0  0  0  0
 34 71  1  0  0  0  0
 34 77  2  0  0  0  0
 35 61  1  0  0  0  0
 35 67  1  0  0  0  0
 35 78  2  0  0  0  0
 36 62  1  0  0  0  0
 36 72  1  0  0  0  0
 36 79  2  0  0  0  0
 37 68  1  0  0  0  0
 37 73  1  0  0  0  0
 37 80  2  0  0  0  0
 38 43  1  0  0  0  0
 39 50  1  0  0  0  0
 40 42  1  0  0  0  0
 41 67  1  0  0  0  0
 43 45  1  0  0  0  0
 44 46  1  0  0  0  0
 44 47  1  0  0  0  0
 45 49  1  0  0  0  0
 46 51  1  0  0  0  0
 47 68  1  0  0  0  0
 48 51  1  0  0  0  0
 48 68  1  0  0  0  0
 49 71  1  0  0  0  0
 50 67  1  0  0  0  0
 51 66  1  0  0  0  0
 52 62  1  0  0  0  0
 53 63  1  0  0  0  0
 54 63  1  0  0  0  0
 55 63  1  0  0  0  0
 56 74  1  0  0  0  0
 57 59  1  0  0  0  0
 58 60  1  0  0  0  0
 58 65  1  0  0  0  0
 59 73  1  0  0  0  0
 60 82  1  0  0  0  0
 61 63  1  0  0  0  0
 61 72  1  0  0  0  0
 62 74  1  0  0  0  0
 64 66  1  0  0  0  0
M  CHG  1  74   1
M  ISO  4  37 100  60 101  73 100  82 101
M  END
> <Batch ID>
0174

> <Smiles>
CNC(C)C(=O)NC(C(=O)N1Cc2cc([101O:1][101CH2:1]Cn3cc(CC[100NH:0][100C:0](=O)N4CCCC(n5nc(-c6ccc(Oc7ccc(F)cc7F)cc6)c(C(N)=O)c5N)C4)c4c3C(=O)CC4)ccc2CC1C(=O)NC1CCCc2ccccc21)C(C)(C)C

> <Shape>
0.219

> <Color>
0.107

> <Negative vol penalty>
0.000

$$$$

  -OEChem-04052322453D

 88 97  0     1  0  0  0  0  0999 V2000
  -28.8516  -36.9848   18.4447 C   0  0  0  0  0  0  0  0  0  0  0  0
  -28.7253  -35.6564   18.0511 C   0  0  0  0  0  0  0  0  0  0  0  0
  -24.6915   -8.5388   21.9338 C   0  0  0  0  0  0  0  0  0  0  0  0
  -23.7217   -9.2290   19.8314 C   0  0  0  0  0  0  0  0  0  0  0  0
  -28.7580  -37.3227   19.7941 C   0  0  0  0  0  0  0  0  0  0  0  0
  -28.5063  -34.6650   19.0069 C   0  0  0  0  0  0  0  0  0  0  0  0
  -25.1326  -29.5966   18.3477 C   0  0  0  0  0  0  0  0  0  0  0  0
  -23.5555   -7.7772   22.2078 C   0  0  0  0  0  0  0  0  0  0  0  0
  -22.5857   -8.4674   20.1054 C   0  0  0  0  0  0  0  0  0  0  0  0
  -25.4711  -28.2756   18.0574 C   0  0  0  0  0  0  0  0  0  0  0  0
  -22.2865   -4.7793   21.2941 C   0  0  0  0  0  0  0  0  0  0  0  0
  -22.4751   -3.4873   21.7848 C   0  0  0  0  0  0  0  0  0  0  0  0
  -25.4561  -27.7602   20.4140 C   0  0  0  0  0  0  0  0  0  0  0  0
  -28.9727  -22.4703   19.2678 C   0  0  0  0  0  0  0  0  0  0  0  0
  -30.4844  -21.8389   21.0340 C   0  0  0  0  0  0  0  0  0  0  0  0
  -21.2528   -4.0689   23.7860 C   0  0  0  0  0  0  0  0  0  0  0  0
  -24.7746   -9.2648   20.7456 C   0  0  0  0  0  0  0  0  0  0  0  0
  -27.1102   -9.6331   19.7881 C   0  0  0  0  0  0  0  0  0  0  0  0
  -28.5281  -36.3362   20.7660 C   0  0  0  0  0  0  0  0  0  0  0  0
  -24.9637  -30.0126   19.6762 C   0  0  0  0  0  0  0  0  0  0  0  0
  -28.4108  -34.9899   20.3708 C   0  0  0  0  0  0  0  0  0  0  0  0
  -25.1129  -29.0864   20.7183 C   0  0  0  0  0  0  0  0  0  0  0  0
  -29.6350  -21.4828   19.9907 C   0  0  0  0  0  0  0  0  0  0  0  0
  -22.5026   -7.7415   21.2936 C   0  0  0  0  0  0  0  0  0  0  0  0
  -25.6358  -27.3579   19.0907 C   0  0  0  0  0  0  0  0  0  0  0  0
  -21.5811   -5.7161   22.0494 C   0  0  0  0  0  0  0  0  0  0  0  0
  -21.9582   -3.1321   23.0307 C   0  0  0  0  0  0  0  0  0  0  0  0
  -21.0643   -5.3610   23.2953 C   0  0  0  0  0  0  0  0  0  0  0  0
  -25.9475  -10.0521   20.4622 C   0  0  0  0  0  0  0  0  0  0  0  0
  -27.9198  -10.7426   19.7779 C   0  0  0  0  0  0  0  0  0  0  0  0
  -29.1781  -23.7995   19.6089 C   0  0  0  0  0  0  0  0  0  0  0  0
  -30.6516  -23.1842   21.3304 C   0  0  0  0  0  0  0  0  0  0  0  0
  -27.4297   -8.3553   19.2217 C   0  0  0  0  0  0  0  0  0  0  0  0
  -26.3992  -32.1293   21.5636 C   0  0  0  0  0  0  0  0  0  0  0  0
  -24.0196  -31.3286   23.6176 C   0  0  0  0  0  0  0  0  0  0  0  0
  -21.7061  -29.0266   24.6155 C   0  0  0  0  0  0  0  0  0  0  0  0
  -28.8302  -15.9901   19.0858 C   0  0  0  0  0  0  0  0  0  0  0  0
  -28.4816  -36.7438   22.2173 C   0  0  0  0  0  0  0  0  0  0  0  0
  -24.5723  -31.4346   19.9711 C   0  0  0  0  0  0  0  0  0  0  0  0
  -24.9229  -29.4777   22.1603 C   0  0  0  0  0  0  0  0  0  0  0  0
  -27.8746  -35.6808   23.1294 C   0  0  0  0  0  0  0  0  0  0  0  0
  -27.5315  -15.1378   22.2365 C   0  0  0  0  0  0  0  0  0  0  0  0
  -28.4637  -34.3091   22.8160 C   0  0  0  0  0  0  0  0  0  0  0  0
  -27.0913  -13.6930   22.0029 C   0  0  0  0  0  0  0  0  0  0  0  0
  -27.2155  -16.0341   21.0380 C   0  0  0  0  0  0  0  0  0  0  0  0
  -30.5363  -19.1787   19.9064 C   0  0  0  0  0  0  0  0  0  0  0  0
  -28.0792  -19.6002   19.7298 C   0  0  0  0  0  0  0  0  0  0  0  0
  -30.3632  -17.9221   19.0575 C   0  0  0  0  0  0  0  0  0  0  0  0
  -27.9518  -18.3446   18.8744 C   0  0  0  0  0  0  0  0  0  0  0  0
  -27.3085  -14.0839   19.5194 C   0  0  0  0  0  0  0  0  0  0  0  0
  -28.1480  -33.8891   21.3754 C   0  0  1  0  0  0  0  0  0  0  0  0
  -24.9294  -31.8708   21.3887 C   0  0  1  0  0  0  0  0  0  0  0  0
  -27.6659  -13.1469   20.6837 C   0  0  2  0  0  0  0  0  0  0  0  0
  -19.9322  -28.6399   26.3479 C   0  0  0  0  0  0  0  0  0  0  0  0
  -28.4550  -24.3311   16.5665 C   0  0  0  0  0  0  0  0  0  0  0  0
  -26.1780  -30.7457   25.6940 C   0  0  0  0  0  0  0  0  0  0  0  0
  -24.4645  -29.4925   27.0213 C   0  0  0  0  0  0  0  0  0  0  0  0
  -24.1645  -31.9304   26.5866 C   0  0  0  0  0  0  0  0  0  0  0  0
  -19.5843  -28.8150   22.5631 C   0  0  0  0  0  0  0  0  0  0  0  0
  -31.6116  -24.9467   22.6062 C   0  0  0  0  0  0  0  0  0  0  0  0
  -26.7458  -25.8386   17.6362 C   0  0  0  0  0  0  0  0  0  1  0  0
  -23.8426  -30.2851   24.6941 C   0  0  1  0  0  0  0  0  0  0  0  0
  -20.2316  -29.1605   24.9507 C   0  0  2  0  0  0  0  0  0  0  0  0
  -27.6398  -24.6144   17.8214 C   0  0  2  0  0  0  0  0  0  0  0  0
  -24.6679  -30.6062   25.9721 C   0  0  0  0  0  0  0  0  0  0  0  0
  -26.0091  -11.3281   20.8522 N   0  0  0  0  0  0  0  0  0  0  0  0
  -27.2203  -11.7205   20.4218 N   0  0  0  0  0  0  0  0  0  0  0  0
  -30.0015  -24.1146   20.6181 N   0  3  0  0  0  0  0  0  0  0  0  0
  -29.4474  -20.1325   19.6689 N   0  0  0  0  0  0  0  0  0  0  0  0
  -24.5468  -30.8811   22.3979 N   0  0  0  0  0  0  0  0  0  0  0  0
  -27.7478  -15.4527   19.7983 N   0  0  0  0  0  0  0  0  0  0  0  0
  -29.0143  -17.3794   19.1643 N   0  0  0  0  0  0  0  0  0  0  0  0
  -29.1548  -10.9672   19.2812 N   0  0  0  0  0  0  0  0  0  0  0  0
  -26.4843   -7.3254   19.3206 N   0  0  0  0  0  0  0  0  0  0  0  0
  -28.5389  -24.8376   18.9173 N   0  0  0  0  0  0  0  0  0  0  0  0
  -26.7811  -33.4249   21.2722 N   0  0  0  0  0  0  0  0  0  0  0  0
  -22.4060  -30.1742   24.9228 N   0  0  0  0  0  0  0  0  0  0  0  0
  -19.4070  -28.3917   23.9760 N   0  3  0  0  0  0  0  0  0  0  0  0
  -28.5279   -8.1287   18.6595 O   0  0  0  0  0  0  0  0  0  0  0  0
  -27.1322  -31.2209   21.9368 O   0  0  0  0  0  0  0  0  0  0  0  0
  -23.6951  -32.4962   23.8479 O   0  0  0  0  0  0  0  0  0  0  0  0
  -22.1895  -28.0048   24.1330 O   0  0  0  0  0  0  0  0  0  0  0  0
  -29.5893  -15.2735   18.4217 O   0  0  0  0  0  0  0  0  0  0  0  0
  -21.3941   -6.9982   21.5605 O   0  0  0  0  0  0  0  0  0  0  0  0
  -25.9690  -26.0597   18.8084 O   0  0  0  0  0  0  0  0  0  1  0  0
  -31.4832  -23.5518   22.3529 O   0  0  0  0  0  0  0  0  0  0  0  0
  -22.1381   -1.8909   23.5011 F   0  0  0  0  0  0  0  0  0  0  0  0
  -20.3848   -6.2563   24.0250 F   0  0  0  0  0  0  0  0  0  0  0  0
  1  2  1  0  0  0  0
  1  5  2  0  0  0  0
  2  6  2  0  0  0  0
  3  8  2  0  0  0  0
  3 17  1  0  0  0  0
  4  9  1  0  0  0  0
  4 17  2  0  0  0  0
  5 19  1  0  0  0  0
  6 21  1  0  0  0  0
  7 10  2  0  0  0  0
  7 20  1  0  0  0  0
  8 24  1  0  0  0  0
  9 24  2  0  0  0  0
 10 25  1  0  0  0  0
 11 12  2  0  0  0  0
 11 26  1  0  0  0  0
 12 27  1  0  0  0  0
 13 22  1  0  0  0  0
 13 25  2  0  0  0  0
 14 23  2  0  0  0  0
 14 31  1  0  0  0  0
 15 23  1  0  0  0  0
 15 32  2  0  0  0  0
 16 27  2  0  0  0  0
 16 28  1  0  0  0  0
 17 29  1  0  0  0  0
 18 29  1  0  0  0  0
 18 30  2  0  0  0  0
 18 33  1  0  0  0  0
 19 21  2  0  0  0  0
 19 38  1  0  0  0  0
 20 22  2  0  0  0  0
 20 39  1  0  0  0  0
 21 51  1  0  0  0  0
 22 40  1  0  0  0  0
 23 69  1  0  0  0  0
 24 84  1  0  0  0  0
 25 85  1  0  0  0  0
 26 28  2  0  0  0  0
 26 84  1  0  0  0  0
 27 87  1  0  0  0  0
 28 88  1  0  0  0  0
 29 66  2  0  0  0  0
 30 67  1  0  0  0  0
 30 73  1  0  0  0  0
 31 68  2  0  0  0  0
 31 75  1  0  0  0  0
 32 68  1  0  0  0  0
 32 86  1  0  0  0  0
 33 74  1  0  0  0  0
 33 79  2  0  0  0  0
 34 52  1  0  0  0  0
 34 76  1  0  0  0  0
 34 80  2  0  0  0  0
 35 62  1  0  0  0  0
 35 70  1  0  0  0  0
 35 81  2  0  0  0  0
 36 63  1  0  0  0  0
 36 77  1  0  0  0  0
 36 82  2  0  0  0  0
 37 71  1  0  0  0  0
 37 72  1  0  0  0  0
 37 83  2  0  0  0  0
 38 41  1  0  0  0  0
 39 52  1  0  0  0  0
 40 70  1  0  0  0  0
 41 43  1  0  0  0  0
 42 44  1  0  0  0  0
 42 45  1  0  0  0  0
 43 51  1  0  0  0  0
 44 53  1  0  0  0  0
 45 71  1  0  0  0  0
 46 48  1  0  0  0  0
 46 69  1  0  0  0  0
 47 49  1  0  0  0  0
 47 69  1  0  0  0  0
 48 72  1  0  0  0  0
 49 72  1  0  0  0  0
 50 53  1  0  0  0  0
 50 71  1  0  0  0  0
 51 76  1  0  0  0  0
 52 70  1  0  0  0  0
 53 67  1  0  0  0  0
 54 63  1  0  0  0  0
 55 64  1  0  0  0  0
 56 65  1  0  0  0  0
 57 65  1  0  0  0  0
 58 65  1  0  0  0  0
 59 78  1  0  0  0  0
 60 86  1  0  0  0  0
 61 64  1  0  0  0  0
 61 85  1  0  0  0  0
 62 65  1  0  0  0  0
 62 77  1  0  0  0  0
 63 78  1  0  0  0  0
 64 75  1  0  0  0  0
 66 67  1  0  0  0  0
M  CHG  2  68   1  78   1
M  ISO  4  37 100  61 101  72 100  85 101
M  END
> <Batch ID>
0174

> <Smiles>
CNC(C)C(=O)NC(C(=O)N1Cc2cc([101O:1][101CH2:1]C(C)Nc3cc(N4CC[100N:0]([100C:0](=O)N5CCCC(n6nc(-c7ccc(Oc8ccc(F)cc8F)cc7)c(C(N)=O)c6N)C5)CC4)cc(OC)n3)ccc2CC1C(=O)NC1CCCc2ccccc21)C(C)(C)C

> <Shape>
0.288

> <Color>
0.084

> <Negative vol penalty>
0.000

$$$$

  -OEChem-04052322453D

 90100  0     1  0  0  0  0  0999 V2000
  -19.2570  -33.8662   15.5909 C   0  0  0  0  0  0  0  0  0  0  0  0
  -19.6826  -32.5523   15.7585 C   0  0  0  0  0  0  0  0  0  0  0  0
  -23.7074   -9.8533   21.0877 C   0  0  0  0  0  0  0  0  0  0  0  0
  -22.3743  -11.8647   20.9692 C   0  0  0  0  0  0  0  0  0  0  0  0
  -20.1124  -34.9206   15.9077 C   0  0  0  0  0  0  0  0  0  0  0  0
  -20.9645  -32.2921   16.2418 C   0  0  0  0  0  0  0  0  0  0  0  0
  -24.5722  -27.5641   20.2350 C   0  0  0  0  0  0  0  0  0  0  0  0
  -22.5648   -9.1139   21.3929 C   0  0  0  0  0  0  0  0  0  0  0  0
  -21.2316  -11.1252   21.2743 C   0  0  0  0  0  0  0  0  0  0  0  0
  -25.7097  -26.7594   20.1867 C   0  0  0  0  0  0  0  0  0  0  0  0
  -19.0883   -9.0739   19.6560 C   0  0  0  0  0  0  0  0  0  0  0  0
  -17.9402   -9.3175   18.9022 C   0  0  0  0  0  0  0  0  0  0  0  0
  -27.0725  -28.6607   20.7757 C   0  0  0  0  0  0  0  0  0  0  0  0
  -16.7568   -9.9534   20.9103 C   0  0  0  0  0  0  0  0  0  0  0  0
  -28.6580  -21.7607   19.1217 C   0  0  0  0  0  0  0  0  0  0  0  0
  -23.6122  -11.2287   20.8759 C   0  0  0  0  0  0  0  0  0  0  0  0
  -25.3138  -12.2637   19.2818 C   0  0  0  0  0  0  0  0  0  0  0  0
  -21.4019  -34.6733   16.4043 C   0  0  0  0  0  0  0  0  0  0  0  0
  -24.6778  -28.9279   20.5439 C   0  0  0  0  0  0  0  0  0  0  0  0
  -21.8384  -33.3443   16.5642 C   0  0  0  0  0  0  0  0  0  0  0  0
  -25.9345  -29.4800   20.8298 C   0  0  0  0  0  0  0  0  0  0  0  0
  -29.2761  -20.6111   18.6567 C   0  0  0  0  0  0  0  0  0  0  0  0
  -30.3121  -20.7544   17.7405 C   0  0  0  0  0  0  0  0  0  0  0  0
  -30.6930  -22.0249   17.3232 C   0  0  0  0  0  0  0  0  0  0  0  0
  -21.3268   -9.7498   21.4862 C   0  0  0  0  0  0  0  0  0  0  0  0
  -26.9604  -27.3082   20.4542 C   0  0  0  0  0  0  0  0  0  0  0  0
  -19.0707   -9.2700   21.0369 C   0  0  0  0  0  0  0  0  0  0  0  0
  -16.7745   -9.7572   19.5294 C   0  0  0  0  0  0  0  0  0  0  0  0
  -17.9050   -9.7098   21.6640 C   0  0  0  0  0  0  0  0  0  0  0  0
  -24.7923  -11.9932   20.5612 C   0  0  0  0  0  0  0  0  0  0  0  0
  -30.0113  -23.1111   17.8478 C   0  0  0  0  0  0  0  0  0  0  0  0
  -26.4342  -13.0214   19.5210 C   0  0  0  0  0  0  0  0  0  0  0  0
  -24.8288  -11.8658   17.9926 C   0  0  0  0  0  0  0  0  0  0  0  0
  -24.0136  -31.6327   19.0120 C   0  0  0  0  0  0  0  0  0  0  0  0
  -24.7847  -32.9791   21.8607 C   0  0  0  0  0  0  0  0  0  0  0  0
  -26.4678  -32.7351   24.8195 C   0  0  0  0  0  0  0  0  0  0  0  0
  -28.9747  -17.1817   22.2293 C   0  0  0  0  0  0  0  0  0  0  0  0
  -22.3077  -35.8453   16.6881 C   0  0  0  0  0  0  0  0  0  0  0  0
  -23.4381  -29.7765   20.6181 C   0  0  0  0  0  0  0  0  0  0  0  0
  -26.0994  -30.9340   21.1864 C   0  0  0  0  0  0  0  0  0  0  0  0
  -23.5163  -35.4867   17.5489 C   0  0  0  0  0  0  0  0  0  0  0  0
  -28.9025  -14.0182   23.8008 C   0  0  0  0  0  0  0  0  0  0  0  0
  -29.0320  -25.8275   15.8748 C   0  0  0  0  0  0  0  0  0  0  0  0
  -24.1775  -34.2114   17.0358 C   0  0  0  0  0  0  0  0  0  0  0  0
  -30.1710  -24.8232   15.9380 C   0  0  0  0  0  0  0  0  0  0  0  0
  -27.8488  -13.2353   23.0223 C   0  0  0  0  0  0  0  0  0  0  0  0
  -27.3499  -19.1345   19.5834 C   0  0  0  0  0  0  0  0  0  0  0  0
  -28.4919  -15.4770   23.9500 C   0  0  0  0  0  0  0  0  0  0  0  0
  -27.3328  -17.8326   20.3732 C   0  0  0  0  0  0  0  0  0  0  0  0
  -29.5459  -18.7512   20.4011 C   0  0  0  0  0  0  0  0  0  0  0  0
  -27.2126  -15.3939   21.8271 C   0  0  0  0  0  0  0  0  0  0  0  0
  -29.2181  -26.6446   17.1327 C   0  0  0  0  0  0  0  0  0  0  0  0
  -28.8188  -19.2548   19.1463 C   0  0  2  0  0  0  0  0  0  0  0  0
  -23.2128  -33.0217   17.1094 C   0  0  1  0  0  0  0  0  0  0  0  0
  -30.3790  -24.5163   17.4317 C   0  0  1  0  0  0  0  0  0  0  0  0
  -23.7214  -31.2649   20.4393 C   0  0  1  0  0  0  0  0  0  0  0  0
  -27.5708  -13.9020   21.6662 C   0  0  2  0  0  0  0  0  0  0  0  0
  -31.0123  -19.5455   17.2075 C   0  0  0  0  0  0  0  0  0  0  0  0
  -31.8019  -22.2117   16.3428 C   0  0  0  0  0  0  0  0  0  0  0  0
  -26.9385  -34.0103   26.9290 C   0  0  0  0  0  0  0  0  0  0  0  0
  -26.7599  -34.7462   20.3489 C   0  0  0  0  0  0  0  0  0  0  0  0
  -27.8437  -35.2890   22.5396 C   0  0  0  0  0  0  0  0  0  0  0  0
  -25.4647  -35.9218   22.1363 C   0  0  0  0  0  0  0  0  0  0  0  0
  -25.2032  -30.6517   26.4985 C   0  0  0  0  0  0  0  0  0  0  0  0
  -30.2200  -26.1430   19.3865 C   0  0  0  0  0  0  0  0  0  0  0  0
  -29.2964  -27.1549   20.0355 C   0  0  0  0  0  0  0  0  0  1  0  0
  -26.0572  -33.4899   22.4923 C   0  0  1  0  0  0  0  0  0  0  0  0
  -26.0324  -32.9947   26.2504 C   0  0  2  0  0  0  0  0  0  0  0  0
  -26.5288  -34.8347   21.8707 C   0  0  0  0  0  0  0  0  0  0  0  0
  -29.0001  -23.0114   18.7395 N   0  0  0  0  0  0  0  0  0  0  0  0
  -25.5215  -12.5349   21.5404 N   0  0  0  0  0  0  0  0  0  0  0  0
  -26.5128  -13.1533   20.8762 N   0  0  0  0  0  0  0  0  0  0  0  0
  -24.8582  -31.7241   21.2399 N   0  0  0  0  0  0  0  0  0  0  0  0
  -28.2020  -16.0956   22.6551 N   0  0  0  0  0  0  0  0  0  0  0  0
  -28.6455  -17.7794   21.0133 N   0  0  0  0  0  0  0  0  0  0  0  0
  -27.3500  -13.5810   18.7021 N   0  0  0  0  0  0  0  0  0  0  0  0
  -23.6641  -11.0890   17.9275 N   0  0  0  0  0  0  0  0  0  0  0  0
  -23.1168  -32.5321   18.4679 N   0  0  0  0  0  0  0  0  0  0  0  0
  -25.8044  -33.5512   23.9278 N   0  0  0  0  0  0  0  0  0  0  0  0
  -29.5666  -25.5950   18.1578 N   0  3  1  0  0  0  0  0  0  0  0  0
  -26.0682  -31.7313   27.0400 N   0  3  0  0  0  0  0  0  0  0  0  0
  -25.4203  -12.1756   16.9307 O   0  0  0  0  0  0  0  0  0  0  0  0
  -24.9820  -31.1382   18.4468 O   0  0  0  0  0  0  0  0  0  0  0  0
  -23.7613  -33.6650   21.9224 O   0  0  0  0  0  0  0  0  0  0  0  0
  -27.3146  -31.8952   24.5229 O   0  0  0  0  0  0  0  0  0  0  0  0
  -29.8964  -17.6274   22.9262 O   0  0  0  0  0  0  0  0  0  0  0  0
  -20.2116   -9.0286   21.7837 O   0  0  0  0  0  0  0  0  0  0  0  0
  -28.0803  -26.5195   20.4068 O   0  0  0  0  0  0  0  0  0  1  0  0
  -15.6725   -9.9925   18.8052 F   0  0  0  0  0  0  0  0  0  0  0  0
  -17.8823   -9.9012   22.9902 F   0  0  0  0  0  0  0  0  0  0  0  0
  1  2  1  0  0  0  0
  1  5  2  0  0  0  0
  2  6  2  0  0  0  0
  3  8  2  0  0  0  0
  3 16  1  0  0  0  0
  4  9  1  0  0  0  0
  4 16  2  0  0  0  0
  5 18  1  0  0  0  0
  6 20  1  0  0  0  0
  7 10  2  0  0  0  0
  7 19  1  0  0  0  0
  8 25  1  0  0  0  0
  9 25  2  0  0  0  0
 10 26  1  0  0  0  0
 11 12  2  0  0  0  0
 11 27  1  0  0  0  0
 12 28  1  0  0  0  0
 13 21  1  0  0  0  0
 13 26  2  0  0  0  0
 14 28  2  0  0  0  0
 14 29  1  0  0  0  0
 15 22  1  0  0  0  0
 15 70  2  0  0  0  0
 16 30  1  0  0  0  0
 17 30  1  0  0  0  0
 17 32  2  0  0  0  0
 17 33  1  0  0  0  0
 18 20  2  0  0  0  0
 18 38  1  0  0  0  0
 19 21  2  0  0  0  0
 19 39  1  0  0  0  0
 20 54  1  0  0  0  0
 21 40  1  0  0  0  0
 22 23  2  0  0  0  0
 22 53  1  0  0  0  0
 23 24  1  0  0  0  0
 23 58  1  0  0  0  0
 24 31  2  0  0  0  0
 24 59  1  0  0  0  0
 25 87  1  0  0  0  0
 26 88  1  0  0  0  0
 27 29  2  0  0  0  0
 27 87  1  0  0  0  0
 28 89  1  0  0  0  0
 29 90  1  0  0  0  0
 30 71  2  0  0  0  0
 31 55  1  0  0  0  0
 31 70  1  0  0  0  0
 32 72  1  0  0  0  0
 32 76  1  0  0  0  0
 33 77  1  0  0  0  0
 33 82  2  0  0  0  0
 34 56  1  0  0  0  0
 34 78  1  0  0  0  0
 34 83  2  0  0  0  0
 35 67  1  0  0  0  0
 35 73  1  0  0  0  0
 35 84  2  0  0  0  0
 36 68  1  0  0  0  0
 36 79  1  0  0  0  0
 36 85  2  0  0  0  0
 37 74  1  0  0  0  0
 37 75  1  0  0  0  0
 37 86  2  0  0  0  0
 38 41  1  0  0  0  0
 39 56  1  0  0  0  0
 40 73  1  0  0  0  0
 41 44  1  0  0  0  0
 42 46  1  0  0  0  0
 42 48  1  0  0  0  0
 43 45  1  0  0  0  0
 43 52  1  0  0  0  0
 44 54  1  0  0  0  0
 45 55  1  0  0  0  0
 46 57  1  0  0  0  0
 47 49  1  0  0  0  0
 47 53  1  0  0  0  0
 48 74  1  0  0  0  0
 49 75  1  0  0  0  0
 50 53  1  0  0  0  0
 50 75  1  0  0  0  0
 51 57  1  0  0  0  0
 51 74  1  0  0  0  0
 52 80  1  0  0  0  0
 54 78  1  0  0  0  0
 55 80  1  0  0  0  0
 56 73  1  0  0  0  0
 57 72  1  0  0  0  0
 60 68  1  0  0  0  0
 61 69  1  0  0  0  0
 62 69  1  0  0  0  0
 63 69  1  0  0  0  0
 64 81  1  0  0  0  0
 65 66  1  0  0  0  0
 65 80  1  0  0  0  0
 66 88  1  0  0  0  0
 67 69  1  0  0  0  0
 67 79  1  0  0  0  0
 68 81  1  0  0  0  0
 71 72  1  0  0  0  0
M  CHG  2  80   1  81   1
M  ISO  4  37 100  66 101  75 100  88 101
M  END
> <Batch ID>
0174

> <Smiles>
CNC(C)C(=O)NC(C(=O)N1Cc2cc([101O:1][101CH2:1]CN3CCCC3c3ncc(C4CC[100N:0]([100C:0](=O)N5CCCC(n6nc(-c7ccc(Oc8ccc(F)cc8F)cc7)c(C(N)=O)c6N)C5)C4)c(C)c3C)ccc2CC1C(=O)NC1CCCc2ccccc21)C(C)(C)C

> <Shape>
0.270

> <Color>
0.100

> <Negative vol penalty>
0.000

$$$$

  -OEChem-04052322453D

 85 94  0     1  0  0  0  0  0999 V2000
  -17.1184  -22.8640   22.5820 C   0  0  0  0  0  0  0  0  0  0  0  0
  -17.9900  -22.8029   21.4994 C   0  0  0  0  0  0  0  0  0  0  0  0
  -25.3739  -13.5380   21.8126 C   0  0  0  0  0  0  0  0  0  0  0  0
  -26.6022  -13.4296   19.7349 C   0  0  0  0  0  0  0  0  0  0  0  0
  -17.1141  -23.9861   23.4095 C   0  0  0  0  0  0  0  0  0  0  0  0
  -18.8571  -23.8644   21.2430 C   0  0  0  0  0  0  0  0  0  0  0  0
  -23.5576  -22.3173   20.1678 C   0  0  0  0  0  0  0  0  0  0  0  0
  -24.4595  -12.6066   21.3206 C   0  0  0  0  0  0  0  0  0  0  0  0
  -25.6878  -12.4983   19.2429 C   0  0  0  0  0  0  0  0  0  0  0  0
  -23.7886  -21.8278   18.8829 C   0  0  0  0  0  0  0  0  0  0  0  0
  -24.3063   -9.2572   20.8837 C   0  0  0  0  0  0  0  0  0  0  0  0
  -23.9267   -8.2134   21.7274 C   0  0  0  0  0  0  0  0  0  0  0  0
  -24.7403  -23.9525   18.2511 C   0  0  0  0  0  0  0  0  0  0  0  0
  -21.6265   -8.9399   21.5911 C   0  0  0  0  0  0  0  0  0  0  0  0
  -26.4453  -13.9495   21.0197 C   0  0  0  0  0  0  0  0  0  0  0  0
  -28.5739  -14.6463   22.2408 C   0  0  0  0  0  0  0  0  0  0  0  0
  -17.9883  -25.0578   23.1688 C   0  0  0  0  0  0  0  0  0  0  0  0
  -23.9069  -23.6338   20.5014 C   0  0  0  0  0  0  0  0  0  0  0  0
  -18.8635  -25.0025   22.0673 C   0  0  0  0  0  0  0  0  0  0  0  0
  -24.5151  -24.4554   19.5416 C   0  0  0  0  0  0  0  0  0  0  0  0
  -29.4406  -22.4186   15.5215 C   0  0  0  0  0  0  0  0  0  0  0  0
  -24.6164  -12.0867   20.0358 C   0  0  0  0  0  0  0  0  0  0  0  0
  -24.3773  -22.6463   17.9235 C   0  0  0  0  0  0  0  0  0  0  0  0
  -23.3461  -10.1424   20.3937 C   0  0  0  0  0  0  0  0  0  0  0  0
  -22.5868   -8.0547   22.0811 C   0  0  0  0  0  0  0  0  0  0  0  0
  -22.0062   -9.9837   20.7474 C   0  0  0  0  0  0  0  0  0  0  0  0
  -27.3898  -14.9120   21.5272 C   0  0  0  0  0  0  0  0  0  0  0  0
  -29.0176  -21.5185   16.4782 C   0  0  0  0  0  0  0  0  0  0  0  0
  -28.5559  -22.6515   14.4883 C   0  0  0  0  0  0  0  0  0  0  0  0
  -29.1091  -15.8861   22.4916 C   0  0  0  0  0  0  0  0  0  0  0  0
  -27.0520  -21.2000   15.3819 C   0  0  0  0  0  0  0  0  0  0  0  0
  -29.1394  -13.3911   22.6411 C   0  0  0  0  0  0  0  0  0  0  0  0
  -22.3033  -26.2063   21.4575 C   0  0  0  0  0  0  0  0  0  0  0  0
  -25.2774  -27.4598   21.7824 C   0  0  0  0  0  0  0  0  0  0  0  0
  -28.5641  -27.3965   20.8657 C   0  0  0  0  0  0  0  0  0  0  0  0
  -28.5828  -21.1845   19.7527 C   0  0  0  0  0  0  0  0  0  0  0  0
  -17.9141  -26.2700   24.0631 C   0  0  0  0  0  0  0  0  0  0  0  0
  -23.6756  -24.1381   21.8994 C   0  0  0  0  0  0  0  0  0  0  0  0
  -24.9272  -25.8698   19.8551 C   0  0  0  0  0  0  0  0  0  0  0  0
  -19.1261  -27.1903   23.9433 C   0  0  0  0  0  0  0  0  0  0  0  0
  -27.8355  -20.4499   23.1555 C   0  0  0  0  0  0  0  0  0  0  0  0
  -31.7221  -22.9754   14.4452 C   0  0  0  0  0  0  0  0  0  0  0  0
  -32.0114  -22.2458   15.7197 C   0  0  0  0  0  0  0  0  0  0  0  0
  -19.4685  -27.4339   22.4769 C   0  0  0  0  0  0  0  0  0  0  0  0
  -27.7434  -18.9233   23.1884 C   0  0  0  0  0  0  0  0  0  0  0  0
  -27.2793  -21.0209   21.8529 C   0  0  0  0  0  0  0  0  0  0  0  0
  -27.7726  -18.9220   20.6590 C   0  0  0  0  0  0  0  0  0  0  0  0
  -30.7687  -23.0900   15.6061 C   0  0  0  0  0  0  0  0  0  0  0  0
  -19.8364  -26.1232   21.7712 C   0  0  1  0  0  0  0  0  0  0  0  0
  -23.6012  -25.6597   21.9811 C   0  0  1  0  0  0  0  0  0  0  0  0
  -28.3726  -18.2963   21.9297 C   0  0  2  0  0  0  0  0  0  0  0  0
  -30.7456  -28.5681   21.2727 C   0  0  0  0  0  0  0  0  0  0  0  0
  -24.3536  -29.7825   20.0327 C   0  0  0  0  0  0  0  0  0  0  0  0
  -26.7580  -30.3934   19.6951 C   0  0  0  0  0  0  0  0  0  0  0  0
  -25.7693  -30.4457   21.9847 C   0  0  0  0  0  0  0  0  0  0  0  0
  -28.4774  -23.4501   12.1258 C   0  0  0  0  0  0  0  0  0  0  0  0
  -29.8263  -24.9314   21.9094 C   0  0  0  0  0  0  0  0  0  0  0  0
  -29.8904  -21.1851   17.6434 C   0  0  0  0  0  0  0  0  0  0  0  0
  -25.7095  -20.5145   15.3034 C   0  0  0  0  0  0  0  0  0  0  0  0
  -24.8537  -20.7724   16.5388 C   0  0  0  0  0  0  0  0  0  1  0  0
  -26.2228  -28.2167   20.8811 C   0  0  1  0  0  0  0  0  0  0  0  0
  -29.8398  -27.4193   21.6882 C   0  0  2  0  0  0  0  0  0  0  0  0
  -25.7665  -29.6836   20.6416 C   0  0  0  0  0  0  0  0  0  0  0  0
  -27.1844  -16.2180   21.3371 N   0  0  0  0  0  0  0  0  0  0  0  0
  -27.8252  -20.8885   16.4395 N   0  0  0  0  0  0  0  0  0  0  0  0
  -27.3489  -22.0572   14.3866 N   0  0  0  0  0  0  0  0  0  0  0  0
  -28.2466  -16.7841   21.9349 N   0  0  0  0  0  0  0  0  0  0  0  0
  -24.6744  -26.3189   21.2342 N   0  0  0  0  0  0  0  0  0  0  0  0
  -27.9185  -20.3856   20.6980 N   0  0  0  0  0  0  0  0  0  0  0  0
  -30.2287  -16.2849   23.1318 N   0  0  0  0  0  0  0  0  0  0  0  0
  -28.4597  -12.2134   22.3015 N   0  0  0  0  0  0  0  0  0  0  0  0
  -28.9313  -23.5659   13.4736 N   0  0  0  0  0  0  0  0  0  0  0  0
  -21.1855  -25.7264   22.1131 N   0  0  0  0  0  0  0  0  0  0  0  0
  -27.5464  -28.0932   21.4822 N   0  0  0  0  0  0  0  0  0  0  0  0
  -29.1666  -20.5021   18.6924 N   0  0  0  0  0  0  0  0  0  0  0  0
  -30.5901  -26.1433   21.5158 N   0  3  0  0  0  0  0  0  0  0  0  0
  -30.2072  -13.3168   23.2952 O   0  0  0  0  0  0  0  0  0  0  0  0
  -22.3151  -27.0054   20.5286 O   0  0  0  0  0  0  0  0  0  0  0  0
  -25.0866  -27.8619   22.9328 O   0  0  0  0  0  0  0  0  0  0  0  0
  -28.4799  -26.8215   19.7827 O   0  0  0  0  0  0  0  0  0  0  0  0
  -28.6551  -22.4143   19.8496 O   0  0  0  0  0  0  0  0  0  0  0  0
  -23.7245  -11.1777   19.5555 O   0  0  0  0  0  0  0  0  0  0  0  0
  -24.6033  -22.1713   16.6685 O   0  0  0  0  0  0  0  0  0  1  0  0
  -22.2221   -7.0514   22.8902 F   0  0  0  0  0  0  0  0  0  0  0  0
  -21.0790  -10.8303   20.2788 F   0  0  0  0  0  0  0  0  0  0  0  0
  1  2  1  0  0  0  0
  1  5  2  0  0  0  0
  2  6  2  0  0  0  0
  3  8  2  0  0  0  0
  3 15  1  0  0  0  0
  4  9  1  0  0  0  0
  4 15  2  0  0  0  0
  5 17  1  0  0  0  0
  6 19  1  0  0  0  0
  7 10  2  0  0  0  0
  7 18  1  0  0  0  0
  8 22  1  0  0  0  0
  9 22  2  0  0  0  0
 10 23  1  0  0  0  0
 11 12  2  0  0  0  0
 11 24  1  0  0  0  0
 12 25  1  0  0  0  0
 13 20  1  0  0  0  0
 13 23  2  0  0  0  0
 14 25  2  0  0  0  0
 14 26  1  0  0  0  0
 15 27  1  0  0  0  0
 16 27  1  0  0  0  0
 16 30  2  0  0  0  0
 16 32  1  0  0  0  0
 17 19  2  0  0  0  0
 17 37  1  0  0  0  0
 18 20  2  0  0  0  0
 18 38  1  0  0  0  0
 19 49  1  0  0  0  0
 20 39  1  0  0  0  0
 21 28  1  0  0  0  0
 21 29  2  0  0  0  0
 21 48  1  0  0  0  0
 22 82  1  0  0  0  0
 23 83  1  0  0  0  0
 24 26  2  0  0  0  0
 24 82  1  0  0  0  0
 25 84  1  0  0  0  0
 26 85  1  0  0  0  0
 27 64  2  0  0  0  0
 28 58  1  0  0  0  0
 28 65  2  0  0  0  0
 29 66  1  0  0  0  0
 29 72  1  0  0  0  0
 30 67  1  0  0  0  0
 30 70  1  0  0  0  0
 31 59  1  0  0  0  0
 31 65  1  0  0  0  0
 31 66  2  0  0  0  0
 32 71  1  0  0  0  0
 32 77  2  0  0  0  0
 33 50  1  0  0  0  0
 33 73  1  0  0  0  0
 33 78  2  0  0  0  0
 34 61  1  0  0  0  0
 34 68  1  0  0  0  0
 34 79  2  0  0  0  0
 35 62  1  0  0  0  0
 35 74  1  0  0  0  0
 35 80  2  0  0  0  0
 36 69  1  0  0  0  0
 36 75  1  0  0  0  0
 36 81  2  0  0  0  0
 37 40  1  0  0  0  0
 38 50  1  0  0  0  0
 39 68  1  0  0  0  0
 40 44  1  0  0  0  0
 41 45  1  0  0  0  0
 41 46  1  0  0  0  0
 42 43  1  0  0  0  0
 42 48  1  0  0  0  0
 43 48  1  0  0  0  0
 44 49  1  0  0  0  0
 45 51  1  0  0  0  0
 46 69  1  0  0  0  0
 47 51  1  0  0  0  0
 47 69  1  0  0  0  0
 49 73  1  0  0  0  0
 50 68  1  0  0  0  0
 51 67  1  0  0  0  0
 52 62  1  0  0  0  0
 53 63  1  0  0  0  0
 54 63  1  0  0  0  0
 55 63  1  0  0  0  0
 56 72  1  0  0  0  0
 57 76  1  0  0  0  0
 58 75  1  0  0  0  0
 59 60  1  0  0  0  0
 60 83  1  0  0  0  0
 61 63  1  0  0  0  0
 61 74  1  0  0  0  0
 62 76  1  0  0  0  0
 64 67  1  0  0  0  0
M  CHG  1  76   1
M  ISO  4  36 100  60 101  75 100  83 101
M  END
> <Batch ID>
0174

> <Smiles>
CNc1nc(C[101CH2:1][101O:1]c2ccc3c(c2)CN(C(=O)C(NC(=O)C(C)NC)C(C)(C)C)C(C(=O)NC2CCCc4ccccc42)C3)nc(C[100NH:0][100C:0](=O)N2CCCC(n3nc(-c4ccc(Oc5ccc(F)cc5F)cc4)c(C(N)=O)c3N)C2)c1C1CC1

> <Shape>
0.215

> <Color>
0.056

> <Negative vol penalty>
0.000

$$$$

  -OEChem-04052322453D

 87 96  0     1  0  0  0  0  0999 V2000
  -27.4013  -36.3896   21.3025 C   0  0  0  0  0  0  0  0  0  0  0  0
  -27.7815  -35.0534   21.3769 C   0  0  0  0  0  0  0  0  0  0  0  0
  -23.8983   -9.5879   21.8120 C   0  0  0  0  0  0  0  0  0  0  0  0
  -24.2463   -8.5131   19.6764 C   0  0  0  0  0  0  0  0  0  0  0  0
  -26.1752  -36.7946   21.8285 C   0  0  0  0  0  0  0  0  0  0  0  0
  -26.9362  -34.1216   21.9784 C   0  0  0  0  0  0  0  0  0  0  0  0
  -26.5301  -29.8483   19.2917 C   0  0  0  0  0  0  0  0  0  0  0  0
  -22.8936   -8.6678   22.1114 C   0  0  0  0  0  0  0  0  0  0  0  0
  -23.2416   -7.5929   19.9759 C   0  0  0  0  0  0  0  0  0  0  0  0
  -27.5831  -28.9387   19.3791 C   0  0  0  0  0  0  0  0  0  0  0  0
  -22.6855   -5.4672   23.1816 C   0  0  0  0  0  0  0  0  0  0  0  0
  -22.6866   -4.8975   24.4548 C   0  0  0  0  0  0  0  0  0  0  0  0
  -27.3051  -19.7824   19.3532 C   0  0  0  0  0  0  0  0  0  0  0  0
  -26.3134  -27.6299   20.9584 C   0  0  0  0  0  0  0  0  0  0  0  0
  -20.4871   -5.8091   24.8647 C   0  0  0  0  0  0  0  0  0  0  0  0
  -24.5746   -9.5106   20.5945 C   0  0  0  0  0  0  0  0  0  0  0  0
  -26.9860  -10.3426   20.5677 C   0  0  0  0  0  0  0  0  0  0  0  0
  -25.3103  -35.8657   22.4281 C   0  0  0  0  0  0  0  0  0  0  0  0
  -25.3632  -29.6610   20.0465 C   0  0  0  0  0  0  0  0  0  0  0  0
  -25.6980  -34.5149   22.5141 C   0  0  0  0  0  0  0  0  0  0  0  0
  -26.0152  -20.2511   19.0683 C   0  0  0  0  0  0  0  0  0  0  0  0
  -25.2460  -28.5371   20.8768 C   0  0  0  0  0  0  0  0  0  0  0  0
  -28.3900  -20.6509   19.3509 C   0  0  0  0  0  0  0  0  0  0  0  0
  -22.5653   -7.6703   21.1934 C   0  0  0  0  0  0  0  0  0  0  0  0
  -27.4760  -27.8309   20.2147 C   0  0  0  0  0  0  0  0  0  0  0  0
  -21.5851   -6.2079   22.7499 C   0  0  0  0  0  0  0  0  0  0  0  0
  -21.5875   -5.0684   25.2963 C   0  0  0  0  0  0  0  0  0  0  0  0
  -20.4859   -6.3788   23.5915 C   0  0  0  0  0  0  0  0  0  0  0  0
  -25.6121  -10.4611   20.2844 C   0  0  0  0  0  0  0  0  0  0  0  0
  -25.8753  -21.6243   18.8285 C   0  0  0  0  0  0  0  0  0  0  0  0
  -28.1488  -21.9819   19.0741 C   0  0  0  0  0  0  0  0  0  0  0  0
  -27.5392  -11.4991   20.0748 C   0  0  0  0  0  0  0  0  0  0  0  0
  -27.6984   -9.2819   21.2181 C   0  0  0  0  0  0  0  0  0  0  0  0
  -23.8790  -31.3041   22.3270 C   0  0  0  0  0  0  0  0  0  0  0  0
  -21.6081  -29.0177   21.9553 C   0  0  0  0  0  0  0  0  0  0  0  0
  -20.8227  -25.8493   20.9601 C   0  0  0  0  0  0  0  0  0  0  0  0
  -25.0922  -16.8601   19.1971 C   0  0  0  0  0  0  0  0  0  0  0  0
  -24.0160  -36.3590   23.0248 C   0  0  0  0  0  0  0  0  0  0  0  0
  -24.2257  -30.6370   19.9206 C   0  0  0  0  0  0  0  0  0  0  0  0
  -24.0064  -28.2796   21.6925 C   0  0  0  0  0  0  0  0  0  0  0  0
  -24.5337  -22.2356   18.5222 C   0  0  0  0  0  0  0  0  0  0  0  0
  -23.0133  -35.2441   23.3113 C   0  0  0  0  0  0  0  0  0  0  0  0
  -23.3615  -21.3765   18.9887 C   0  0  0  0  0  0  0  0  0  0  0  0
  -26.9150  -14.8256   16.7169 C   0  0  0  0  0  0  0  0  0  0  0  0
  -23.6986  -34.0781   24.0166 C   0  0  0  0  0  0  0  0  0  0  0  0
  -26.8582  -13.4475   17.3693 C   0  0  0  0  0  0  0  0  0  0  0  0
  -25.6612  -15.6496   17.0071 C   0  0  0  0  0  0  0  0  0  0  0  0
  -25.2991  -14.3956   19.1144 C   0  0  0  0  0  0  0  0  0  0  0  0
  -24.7976  -33.4701   23.1368 C   0  0  1  0  0  0  0  0  0  0  0  0
  -24.8203  -19.3200   19.1157 C   0  0  1  0  0  0  0  0  0  0  0  0
  -23.2894  -30.6219   21.1251 C   0  0  1  0  0  0  0  0  0  0  0  0
  -26.5729  -13.5709   18.8739 C   0  0  1  0  0  0  0  0  0  0  0  0
  -23.5598  -19.9467   18.4996 C   0  0  1  0  0  0  0  0  0  0  0  0
  -29.7564  -20.1372   19.6467 C   0  0  0  0  0  0  0  0  0  0  0  0
  -18.8926  -24.2522   20.8129 C   0  0  0  0  0  0  0  0  0  0  0  0
  -21.7877  -28.5275   24.9615 C   0  0  0  0  0  0  0  0  0  0  0  0
  -20.5954  -26.3545   24.6079 C   0  0  0  0  0  0  0  0  0  0  0  0
  -19.4639  -28.5033   24.0375 C   0  0  0  0  0  0  0  0  0  0  0  0
  -21.0531  -25.6604   18.0156 C   0  0  0  0  0  0  0  0  0  0  0  0
  -29.2785  -22.9690   19.0542 C   0  0  0  0  0  0  0  0  0  0  0  0
  -29.9145  -25.3830   19.1367 C   0  0  0  0  0  0  0  0  0  0  0  0
  -29.3203  -26.7776   19.1445 C   0  0  0  0  0  0  0  0  0  1  0  0
  -21.3433  -27.6642   22.5692 C   0  0  1  0  0  0  0  0  0  0  0  0
  -19.7007  -25.3166   20.0871 C   0  0  2  0  0  0  0  0  0  0  0  0
  -20.8218  -27.7680   24.0303 C   0  0  0  0  0  0  0  0  0  0  0  0
  -25.3110  -11.6029   19.6601 N   0  0  0  0  0  0  0  0  0  0  0  0
  -26.9244  -22.4870   18.8142 N   0  0  0  0  0  0  0  0  0  0  0  0
  -26.5034  -12.2124   19.5471 N   0  0  0  0  0  0  0  0  0  0  0  0
  -22.9241  -29.2660   21.5400 N   0  0  0  0  0  0  0  0  0  0  0  0
  -25.3697  -15.7020   18.4484 N   0  0  0  0  0  0  0  0  0  0  0  0
  -28.8058  -11.9653   20.0457 N   0  0  0  0  0  0  0  0  0  0  0  0
  -26.9759   -8.1662   21.6628 N   0  0  0  0  0  0  0  0  0  0  0  0
  -24.2172  -32.6268   22.1137 N   0  0  0  0  0  0  0  0  0  0  0  0
  -20.4364  -26.9735   21.6587 N   0  0  0  0  0  0  0  0  0  0  0  0
  -25.0931  -18.0553   18.4869 N   0  0  0  0  0  0  0  0  0  0  0  0
  -22.3699  -19.1391   18.8846 N   0  3  0  0  0  0  0  0  0  0  0  0
  -20.2546  -24.7174   18.8401 N   0  3  0  0  0  0  0  0  0  0  0  0
  -28.8178  -24.3832   19.0950 N   0  3  0  0  0  0  0  0  0  0  0  0
  -28.9364   -9.3296   21.4143 O   0  0  0  0  0  0  0  0  0  0  0  0
  -24.0154  -30.6773   23.3711 O   0  0  0  0  0  0  0  0  0  0  0  0
  -20.6801  -29.8223   21.8417 O   0  0  0  0  0  0  0  0  0  0  0  0
  -21.9297  -25.3187   21.0193 O   0  0  0  0  0  0  0  0  0  0  0  0
  -24.8549  -16.8328   20.4098 O   0  0  0  0  0  0  0  0  0  0  0  0
  -21.5852   -6.7722   21.4853 O   0  0  0  0  0  0  0  0  0  0  0  0
  -28.5026  -26.9418   20.3024 O   0  0  0  0  0  0  0  0  0  1  0  0
  -21.5881   -4.5200   26.5184 F   0  0  0  0  0  0  0  0  0  0  0  0
  -19.4255   -7.0884   23.1819 F   0  0  0  0  0  0  0  0  0  0  0  0
  1  2  1  0  0  0  0
  1  5  2  0  0  0  0
  2  6  2  0  0  0  0
  3  8  2  0  0  0  0
  3 16  1  0  0  0  0
  4  9  1  0  0  0  0
  4 16  2  0  0  0  0
  5 18  1  0  0  0  0
  6 20  1  0  0  0  0
  7 10  2  0  0  0  0
  7 19  1  0  0  0  0
  8 24  1  0  0  0  0
  9 24  2  0  0  0  0
 10 25  1  0  0  0  0
 11 12  2  0  0  0  0
 11 26  1  0  0  0  0
 12 27  1  0  0  0  0
 13 21  2  0  0  0  0
 13 23  1  0  0  0  0
 14 22  1  0  0  0  0
 14 25  2  0  0  0  0
 15 27  2  0  0  0  0
 15 28  1  0  0  0  0
 16 29  1  0  0  0  0
 17 29  1  0  0  0  0
 17 32  2  0  0  0  0
 17 33  1  0  0  0  0
 18 20  2  0  0  0  0
 18 38  1  0  0  0  0
 19 22  2  0  0  0  0
 19 39  1  0  0  0  0
 20 49  1  0  0  0  0
 21 30  1  0  0  0  0
 21 50  1  0  0  0  0
 22 40  1  0  0  0  0
 23 31  2  0  0  0  0
 23 54  1  0  0  0  0
 24 84  1  0  0  0  0
 25 85  1  0  0  0  0
 26 28  2  0  0  0  0
 26 84  1  0  0  0  0
 27 86  1  0  0  0  0
 28 87  1  0  0  0  0
 29 66  2  0  0  0  0
 30 41  1  0  0  0  0
 30 67  2  0  0  0  0
 31 60  1  0  0  0  0
 31 67  1  0  0  0  0
 32 68  1  0  0  0  0
 32 71  1  0  0  0  0
 33 72  1  0  0  0  0
 33 79  2  0  0  0  0
 34 51  1  0  0  0  0
 34 73  1  0  0  0  0
 34 80  2  0  0  0  0
 35 63  1  0  0  0  0
 35 69  1  0  0  0  0
 35 81  2  0  0  0  0
 36 64  1  0  0  0  0
 36 74  1  0  0  0  0
 36 82  2  0  0  0  0
 37 70  1  0  0  0  0
 37 75  1  0  0  0  0
 37 83  2  0  0  0  0
 38 42  1  0  0  0  0
 39 51  1  0  0  0  0
 40 69  1  0  0  0  0
 41 43  1  0  0  0  0
 42 45  1  0  0  0  0
 43 53  1  0  0  0  0
 44 46  1  0  0  0  0
 44 47  1  0  0  0  0
 45 49  1  0  0  0  0
 46 52  1  0  0  0  0
 47 70  1  0  0  0  0
 48 52  1  0  0  0  0
 48 70  1  0  0  0  0
 49 73  1  0  0  0  0
 50 53  1  0  0  0  0
 50 75  1  0  0  0  0
 51 69  1  0  0  0  0
 52 68  1  0  0  0  0
 53 76  1  0  0  0  0
 55 64  1  0  0  0  0
 56 65  1  0  0  0  0
 57 65  1  0  0  0  0
 58 65  1  0  0  0  0
 59 77  1  0  0  0  0
 60 78  1  0  0  0  0
 61 62  1  0  0  0  0
 61 78  1  0  0  0  0
 62 85  1  0  0  0  0
 63 65  1  0  0  0  0
 63 74  1  0  0  0  0
 64 77  1  0  0  0  0
 66 68  1  0  0  0  0
M  CHG  3  76   1  77   1  78   1
M  ISO  4  37 100  62 101  75 100  85 101
M  END
> <Batch ID>
0174

> <Smiles>
CNC(C)C(=O)NC(C(=O)N1Cc2cc([101O:1][101CH2:1]CNCc3nc4c(cc3C)C([100NH:0][100C:0](=O)N3CCCC(n5nc(-c6ccc(Oc7ccc(F)cc7F)cc6)c(C(N)=O)c5N)C3)C(N)CC4)ccc2CC1C(=O)NC1CCCc2ccccc21)C(C)(C)C

> <Shape>
0.285

> <Color>
0.085

> <Negative vol penalty>
0.000

$$$$

  -OEChem-04052322453D

 85 94  0     1  0  0  0  0  0999 V2000
  -30.3785  -24.4712   18.7815 C   0  0  0  0  0  0  0  0  0  0  0  0
  -28.9931  -24.4653   18.9086 C   0  0  0  0  0  0  0  0  0  0  0  0
  -26.4645  -13.3105   19.8028 C   0  0  0  0  0  0  0  0  0  0  0  0
  -24.3099  -13.7027   20.8231 C   0  0  0  0  0  0  0  0  0  0  0  0
  -31.1586  -25.1733   19.6994 C   0  0  0  0  0  0  0  0  0  0  0  0
  -28.3871  -25.1606   19.9545 C   0  0  0  0  0  0  0  0  0  0  0  0
  -23.0059  -28.0804   19.8037 C   0  0  0  0  0  0  0  0  0  0  0  0
  -26.4414  -11.9931   20.2604 C   0  0  0  0  0  0  0  0  0  0  0  0
  -24.2868  -12.3852   21.2807 C   0  0  0  0  0  0  0  0  0  0  0  0
  -21.7277  -27.7137   20.2228 C   0  0  0  0  0  0  0  0  0  0  0  0
  -23.6294   -9.3216   20.0147 C   0  0  0  0  0  0  0  0  0  0  0  0
  -22.4445   -8.6030   19.8565 C   0  0  0  0  0  0  0  0  0  0  0  0
  -22.0884  -28.8662   22.3110 C   0  0  0  0  0  0  0  0  0  0  0  0
  -21.0625  -23.7183   20.2704 C   0  0  0  0  0  0  0  0  0  0  0  0
  -22.3076   -8.3020   22.2498 C   0  0  0  0  0  0  0  0  0  0  0  0
  -21.6281  -24.7202   22.7447 C   0  0  0  0  0  0  0  0  0  0  0  0
  -25.3988  -14.1654   20.0842 C   0  0  0  0  0  0  0  0  0  0  0  0
  -24.9290  -16.0096   18.3853 C   0  0  0  0  0  0  0  0  0  0  0  0
  -30.5613  -25.8854   20.7514 C   0  0  0  0  0  0  0  0  0  0  0  0
  -23.8404  -28.8347   20.6409 C   0  0  0  0  0  0  0  0  0  0  0  0
  -29.1600  -25.8717   20.8881 C   0  0  0  0  0  0  0  0  0  0  0  0
  -23.3757  -29.2433   21.8992 C   0  0  0  0  0  0  0  0  0  0  0  0
  -20.2983  -24.5852   22.3797 C   0  0  0  0  0  0  0  0  0  0  0  0
  -20.0186  -24.0740   21.1173 C   0  0  0  0  0  0  0  0  0  0  0  0
  -25.3526  -11.5304   20.9993 C   0  0  0  0  0  0  0  0  0  0  0  0
  -21.2698  -28.1042   21.4778 C   0  0  0  0  0  0  0  0  0  0  0  0
  -24.1535   -9.5305   21.2904 C   0  0  0  0  0  0  0  0  0  0  0  0
  -21.7836   -8.0932   20.9741 C   0  0  0  0  0  0  0  0  0  0  0  0
  -23.4926   -9.0207   22.4079 C   0  0  0  0  0  0  0  0  0  0  0  0
  -25.4223  -15.5266   19.6122 C   0  0  0  0  0  0  0  0  0  0  0  0
  -22.3581  -23.8923   20.7298 C   0  0  0  0  0  0  0  0  0  0  0  0
  -25.1888  -17.3579   18.4177 C   0  0  0  0  0  0  0  0  0  0  0  0
  -24.2928  -15.3027   17.3124 C   0  0  0  0  0  0  0  0  0  0  0  0
  -26.6654  -28.3532   22.0160 C   0  0  0  0  0  0  0  0  0  0  0  0
  -26.3313  -31.4584   22.8926 C   0  0  0  0  0  0  0  0  0  0  0  0
  -24.2424  -34.0844   23.5149 C   0  0  0  0  0  0  0  0  0  0  0  0
  -25.2161  -22.2456   21.1113 C   0  0  0  0  0  0  0  0  0  0  0  0
  -31.4486  -26.5906   21.7465 C   0  0  0  0  0  0  0  0  0  0  0  0
  -25.2064  -29.2448   20.1634 C   0  0  0  0  0  0  0  0  0  0  0  0
  -24.2249  -30.0711   22.8277 C   0  0  0  0  0  0  0  0  0  0  0  0
  -30.7077  -27.6103   22.6077 C   0  0  0  0  0  0  0  0  0  0  0  0
  -28.0078  -20.0919   21.6060 C   0  0  0  0  0  0  0  0  0  0  0  0
  -19.4253  -25.0623   24.9177 C   0  0  0  0  0  0  0  0  0  0  0  0
  -29.4086  -27.0149   23.1413 C   0  0  0  0  0  0  0  0  0  0  0  0
  -27.5410  -18.7512   21.0361 C   0  0  0  0  0  0  0  0  0  0  0  0
  -18.4376  -26.2395   25.0072 C   0  0  0  0  0  0  0  0  0  0  0  0
  -26.8700  -20.8365   22.3010 C   0  0  0  0  0  0  0  0  0  0  0  0
  -25.1937  -19.6853   20.9088 C   0  0  0  0  0  0  0  0  0  0  0  0
  -19.1441  -25.0078   23.3880 C   0  0  1  0  0  0  0  0  0  0  0  0
  -28.4643  -26.6343   21.9947 C   0  0  1  0  0  0  0  0  0  0  0  0
  -26.1633  -29.5774   21.3041 C   0  0  1  0  0  0  0  0  0  0  0  0
  -26.2930  -18.9229   20.1495 C   0  0  2  0  0  0  0  0  0  0  0  0
  -18.7246  -26.5272   23.5034 C   0  0  1  0  0  0  0  0  0  0  0  0
  -18.6102  -23.9004   20.6552 C   0  0  0  0  0  0  0  0  0  0  0  0
  -17.4692  -26.8922   22.7137 C   0  0  0  0  0  0  0  0  0  0  0  0
  -24.2593  -36.4834   24.2511 C   0  0  0  0  0  0  0  0  0  0  0  0
  -26.8270  -30.5695   25.7690 C   0  0  0  0  0  0  0  0  0  0  0  0
  -25.9068  -32.7688   26.5336 C   0  0  0  0  0  0  0  0  0  0  0  0
  -27.9647  -32.7015   25.1252 C   0  0  0  0  0  0  0  0  0  0  0  0
  -23.0259  -34.9935   20.9747 C   0  0  0  0  0  0  0  0  0  0  0  0
  -23.5032  -23.5215   19.8475 C   0  0  0  0  0  0  0  0  0  0  0  0
  -19.8287  -27.5670   23.2918 C   0  0  0  0  0  0  0  0  0  1  0  0
  -25.7259  -32.1764   24.0745 C   0  0  1  0  0  0  0  0  0  0  0  0
  -24.2839  -35.5333   23.0639 C   0  0  2  0  0  0  0  0  0  0  0  0
  -26.5906  -32.0368   25.3591 C   0  0  0  0  0  0  0  0  0  0  0  0
  -22.6689  -24.3857   21.9494 N   0  0  0  0  0  0  0  0  0  0  0  0
  -25.9553  -16.4897   20.3688 N   0  0  0  0  0  0  0  0  0  0  0  0
  -25.7985  -17.5914   19.6152 N   0  0  0  0  0  0  0  0  0  0  0  0
  -25.5555  -30.4417   22.3179 N   0  0  0  0  0  0  0  0  0  0  0  0
  -25.7178  -20.9671   21.4060 N   0  0  0  0  0  0  0  0  0  0  0  0
  -24.9531  -18.3546   17.5384 N   0  0  0  0  0  0  0  0  0  0  0  0
  -24.1036  -13.9201   17.4427 N   0  0  0  0  0  0  0  0  0  0  0  0
  -27.8116  -27.8124   21.4651 N   0  0  0  0  0  0  0  0  0  0  0  0
  -25.5084  -33.5543   23.6473 N   0  0  0  0  0  0  0  0  0  0  0  0
  -24.1265  -22.2803   20.2497 N   0  0  0  0  0  0  0  0  0  0  0  0
  -23.1135  -35.8386   22.1934 N   0  3  0  0  0  0  0  0  0  0  0  0
  -23.9183  -15.8773   16.2621 O   0  0  0  0  0  0  0  0  0  0  0  0
  -26.0588  -27.9313   22.9936 O   0  0  0  0  0  0  0  0  0  0  0  0
  -27.4483  -31.7922   22.4894 O   0  0  0  0  0  0  0  0  0  0  0  0
  -23.1921  -33.4841   23.7318 O   0  0  0  0  0  0  0  0  0  0  0  0
  -25.7065  -23.2798   21.5770 O   0  0  0  0  0  0  0  0  0  0  0  0
  -25.3296  -10.2449   21.4458 O   0  0  0  0  0  0  0  0  0  0  0  0
  -20.0229  -27.7471   21.8895 O   0  0  0  0  0  0  0  0  0  1  0  0
  -20.6449   -7.4044   20.8221 F   0  0  0  0  0  0  0  0  0  0  0  0
  -23.9906   -9.2191   23.6361 F   0  0  0  0  0  0  0  0  0  0  0  0
  1  2  1  0  0  0  0
  1  5  2  0  0  0  0
  2  6  2  0  0  0  0
  3  8  2  0  0  0  0
  3 17  1  0  0  0  0
  4  9  1  0  0  0  0
  4 17  2  0  0  0  0
  5 19  1  0  0  0  0
  6 21  1  0  0  0  0
  7 10  2  0  0  0  0
  7 20  1  0  0  0  0
  8 25  1  0  0  0  0
  9 25  2  0  0  0  0
 10 26  1  0  0  0  0
 11 12  2  0  0  0  0
 11 27  1  0  0  0  0
 12 28  1  0  0  0  0
 13 22  1  0  0  0  0
 13 26  2  0  0  0  0
 14 24  1  0  0  0  0
 14 31  2  0  0  0  0
 15 28  2  0  0  0  0
 15 29  1  0  0  0  0
 16 23  1  0  0  0  0
 16 66  2  0  0  0  0
 17 30  1  0  0  0  0
 18 30  1  0  0  0  0
 18 32  2  0  0  0  0
 18 33  1  0  0  0  0
 19 21  2  0  0  0  0
 19 38  1  0  0  0  0
 20 22  2  0  0  0  0
 20 39  1  0  0  0  0
 21 50  1  0  0  0  0
 22 40  1  0  0  0  0
 23 24  2  0  0  0  0
 23 49  1  0  0  0  0
 24 54  1  0  0  0  0
 25 82  1  0  0  0  0
 26 83  1  0  0  0  0
 27 29  2  0  0  0  0
 27 82  1  0  0  0  0
 28 84  1  0  0  0  0
 29 85  1  0  0  0  0
 30 67  2  0  0  0  0
 31 61  1  0  0  0  0
 31 66  1  0  0  0  0
 32 68  1  0  0  0  0
 32 71  1  0  0  0  0
 33 72  1  0  0  0  0
 33 77  2  0  0  0  0
 34 51  1  0  0  0  0
 34 73  1  0  0  0  0
 34 78  2  0  0  0  0
 35 63  1  0  0  0  0
 35 69  1  0  0  0  0
 35 79  2  0  0  0  0
 36 64  1  0  0  0  0
 36 74  1  0  0  0  0
 36 80  2  0  0  0  0
 37 70  1  0  0  0  0
 37 75  1  0  0  0  0
 37 81  2  0  0  0  0
 38 41  1  0  0  0  0
 39 51  1  0  0  0  0
 40 69  1  0  0  0  0
 41 44  1  0  0  0  0
 42 45  1  0  0  0  0
 42 47  1  0  0  0  0
 43 46  1  0  0  0  0
 43 49  1  0  0  0  0
 44 50  1  0  0  0  0
 45 52  1  0  0  0  0
 46 53  1  0  0  0  0
 47 70  1  0  0  0  0
 48 52  1  0  0  0  0
 48 70  1  0  0  0  0
 49 53  1  0  0  0  0
 50 73  1  0  0  0  0
 51 69  1  0  0  0  0
 52 68  1  0  0  0  0
 53 55  1  0  0  0  0
 53 62  1  0  0  0  0
 56 64  1  0  0  0  0
 57 65  1  0  0  0  0
 58 65  1  0  0  0  0
 59 65  1  0  0  0  0
 60 76  1  0  0  0  0
 61 75  1  0  0  0  0
 62 83  1  0  0  0  0
 63 65  1  0  0  0  0
 63 74  1  0  0  0  0
 64 76  1  0  0  0  0
 67 68  1  0  0  0  0
M  CHG  1  76   1
M  ISO  4  37 100  62 101  75 100  83 101
M  END
> <Batch ID>
0174

> <Smiles>
CNC(C)C(=O)NC(C(=O)N1Cc2cc([101O:1][101CH2:1]C3(C)CCC3c3cnc(C[100NH:0][100C:0](=O)N4CCCC(n5nc(-c6ccc(Oc7ccc(F)cc7F)cc6)c(C(N)=O)c5N)C4)cc3C)ccc2CC1C(=O)NC1CCCc2ccccc21)C(C)(C)C

> <Shape>
0.283

> <Color>
0.074

> <Negative vol penalty>
0.000

$$$$

  -OEChem-04052322453D

 86 95  0     1  0  0  0  0  0999 V2000
  -26.7333  -38.2822   19.3721 C   0  0  0  0  0  0  0  0  0  0  0  0
  -26.9732  -37.0952   18.6872 C   0  0  0  0  0  0  0  0  0  0  0  0
  -24.5054   -8.8332   21.6410 C   0  0  0  0  0  0  0  0  0  0  0  0
  -22.7288   -9.6895   20.2455 C   0  0  0  0  0  0  0  0  0  0  0  0
  -26.6786  -38.2830   20.7653 C   0  0  0  0  0  0  0  0  0  0  0  0
  -27.1595  -35.9085   19.3953 C   0  0  0  0  0  0  0  0  0  0  0  0
  -25.9622  -28.8633   18.8967 C   0  0  0  0  0  0  0  0  0  0  0  0
  -23.5654   -8.1743   22.4334 C   0  0  0  0  0  0  0  0  0  0  0  0
  -21.7888   -9.0305   21.0379 C   0  0  0  0  0  0  0  0  0  0  0  0
  -26.6344  -27.6465   19.0022 C   0  0  0  0  0  0  0  0  0  0  0  0
  -21.7176   -5.3470   22.2752 C   0  0  0  0  0  0  0  0  0  0  0  0
  -21.9844   -4.0258   22.6342 C   0  0  0  0  0  0  0  0  0  0  0  0
  -26.4395  -27.7539   21.4042 C   0  0  0  0  0  0  0  0  0  0  0  0
  -21.9263   -4.6481   24.9680 C   0  0  0  0  0  0  0  0  0  0  0  0
  -24.0871   -9.5908   20.5471 C   0  0  0  0  0  0  0  0  0  0  0  0
  -25.7108   -9.7688   18.5876 C   0  0  0  0  0  0  0  0  0  0  0  0
  -26.8547  -37.0939   21.4904 C   0  0  0  0  0  0  0  0  0  0  0  0
  -25.5325  -29.5411   20.0467 C   0  0  0  0  0  0  0  0  0  0  0  0
  -27.1084  -35.8936   20.7995 C   0  0  0  0  0  0  0  0  0  0  0  0
  -25.7598  -28.9780   21.3105 C   0  0  0  0  0  0  0  0  0  0  0  0
  -28.6141  -23.9786   19.4600 C   0  0  0  0  0  0  0  0  0  0  0  0
  -29.9052  -23.9634   19.9760 C   0  0  0  0  0  0  0  0  0  0  0  0
  -27.9472  -22.7795   19.2349 C   0  0  0  0  0  0  0  0  0  0  0  0
  -22.2071   -8.2729   22.1318 C   0  0  0  0  0  0  0  0  0  0  0  0
  -26.8757  -27.0930   20.2562 C   0  0  0  0  0  0  0  0  0  0  0  0
  -21.5552   -6.3188   23.2626 C   0  0  0  0  0  0  0  0  0  0  0  0
  -22.0887   -3.6764   23.9805 C   0  0  0  0  0  0  0  0  0  0  0  0
  -21.6595   -5.9694   24.6090 C   0  0  0  0  0  0  0  0  0  0  0  0
  -25.0576  -10.2722   19.7285 C   0  0  0  0  0  0  0  0  0  0  0  0
  -30.4805  -22.7326   20.2480 C   0  0  0  0  0  0  0  0  0  0  0  0
  -28.6103  -21.6017   19.5398 C   0  0  0  0  0  0  0  0  0  0  0  0
  -26.5263  -10.7953   18.1780 C   0  0  0  0  0  0  0  0  0  0  0  0
  -25.5912   -8.4878   17.9547 C   0  0  0  0  0  0  0  0  0  0  0  0
  -26.1801  -32.3616   21.3617 C   0  0  0  0  0  0  0  0  0  0  0  0
  -23.8114  -31.5133   23.4091 C   0  0  0  0  0  0  0  0  0  0  0  0
  -21.9923  -29.0171   24.8605 C   0  0  0  0  0  0  0  0  0  0  0  0
  -26.2906  -16.5503   18.6795 C   0  0  0  0  0  0  0  0  0  0  0  0
  -26.8339  -37.1527   22.9973 C   0  0  0  0  0  0  0  0  0  0  0  0
  -24.7851  -30.8397   19.9146 C   0  0  0  0  0  0  0  0  0  0  0  0
  -25.3010  -29.6557   22.5749 C   0  0  0  0  0  0  0  0  0  0  0  0
  -26.6694  -35.7864   23.6579 C   0  0  0  0  0  0  0  0  0  0  0  0
  -28.9416  -14.5646   19.8494 C   0  0  0  0  0  0  0  0  0  0  0  0
  -27.6089  -34.7682   23.0196 C   0  0  0  0  0  0  0  0  0  0  0  0
  -28.3062  -13.1745   19.8418 C   0  0  0  0  0  0  0  0  0  0  0  0
  -27.9689  -15.6366   20.3435 C   0  0  0  0  0  0  0  0  0  0  0  0
  -28.0808  -19.7283   18.0107 C   0  0  0  0  0  0  0  0  0  0  0  0
  -27.6974  -19.5204   20.4715 C   0  0  0  0  0  0  0  0  0  0  0  0
  -26.9348  -18.7498   17.7680 C   0  0  0  0  0  0  0  0  0  0  0  0
  -26.5512  -18.5566   20.1850 C   0  0  0  0  0  0  0  0  0  0  0  0
  -26.0438  -14.2677   19.6100 C   0  0  0  0  0  0  0  0  0  0  0  0
  -27.2909  -34.5815   21.5311 C   0  0  1  0  0  0  0  0  0  0  0  0
  -24.8462  -31.6952   21.1763 C   0  0  1  0  0  0  0  0  0  0  0  0
  -26.9790  -13.1781   19.0628 C   0  0  2  0  0  0  0  0  0  0  0  0
  -30.6463  -25.2334   20.2292 C   0  0  0  0  0  0  0  0  0  0  0  0
  -26.5607  -22.7730   18.6806 C   0  0  0  0  0  0  0  0  0  0  0  0
  -31.8649  -22.6527   20.8032 C   0  0  0  0  0  0  0  0  0  0  0  0
  -20.1517  -28.6314   26.5221 C   0  0  0  0  0  0  0  0  0  0  0  0
  -25.7629  -32.0514   25.6922 C   0  0  0  0  0  0  0  0  0  0  0  0
  -24.2348  -30.7715   27.2072 C   0  0  0  0  0  0  0  0  0  0  0  0
  -23.4312  -32.8579   26.1009 C   0  0  0  0  0  0  0  0  0  0  0  0
  -20.2588  -27.7537   22.8215 C   0  0  0  0  0  0  0  0  0  0  0  0
  -27.9462  -25.2803   19.1498 C   0  0  0  0  0  0  0  0  0  1  0  0
  -23.7473  -30.7648   24.7186 C   0  0  1  0  0  0  0  0  0  0  0  0
  -20.4970  -28.8435   25.0563 C   0  0  2  0  0  0  0  0  0  0  0  0
  -24.3045  -31.5994   25.9062 C   0  0  0  0  0  0  0  0  0  0  0  0
  -25.4263  -11.5213   20.0247 N   0  0  0  0  0  0  0  0  0  0  0  0
  -29.8641  -21.5471   20.0424 N   0  0  0  0  0  0  0  0  0  0  0  0
  -26.3202  -11.8114   19.0640 N   0  0  0  0  0  0  0  0  0  0  0  0
  -27.9458  -20.3896   19.3131 N   0  0  0  0  0  0  0  0  0  0  0  0
  -24.5800  -30.9266   22.3939 N   0  0  0  0  0  0  0  0  0  0  0  0
  -26.7039  -15.5748   19.5991 N   0  0  0  0  0  0  0  0  0  0  0  0
  -26.7303  -17.8637   18.9075 N   0  0  0  0  0  0  0  0  0  0  0  0
  -27.3924  -10.9187   17.1499 N   0  0  0  0  0  0  0  0  0  0  0  0
  -24.7073   -7.5502   18.5060 N   0  0  0  0  0  0  0  0  0  0  0  0
  -26.1237  -33.7423   21.3651 N   0  0  0  0  0  0  0  0  0  0  0  0
  -22.3593  -30.3461   24.8818 N   0  0  0  0  0  0  0  0  0  0  0  0
  -20.0064  -27.6678   24.2830 N   0  3  0  0  0  0  0  0  0  0  0  0
  -26.2608   -8.1779   16.9403 O   0  0  0  0  0  0  0  0  0  0  0  0
  -27.1859  -31.6740   21.4935 O   0  0  0  0  0  0  0  0  0  0  0  0
  -23.1963  -32.5758   23.2892 O   0  0  0  0  0  0  0  0  0  0  0  0
  -22.7587  -28.0685   24.7080 O   0  0  0  0  0  0  0  0  0  0  0  0
  -25.5748  -16.2668   17.7110 O   0  0  0  0  0  0  0  0  0  0  0  0
  -21.2896   -7.6299   22.9047 O   0  0  0  0  0  0  0  0  0  0  0  0
  -27.5370  -25.8970   20.3628 O   0  0  0  0  0  0  0  0  0  1  0  0
  -22.3434   -2.4073   24.3251 F   0  0  0  0  0  0  0  0  0  0  0  0
  -21.5033   -6.8984   25.5621 F   0  0  0  0  0  0  0  0  0  0  0  0
  1  2  1  0  0  0  0
  1  5  2  0  0  0  0
  2  6  2  0  0  0  0
  3  8  2  0  0  0  0
  3 15  1  0  0  0  0
  4  9  1  0  0  0  0
  4 15  2  0  0  0  0
  5 17  1  0  0  0  0
  6 19  1  0  0  0  0
  7 10  2  0  0  0  0
  7 18  1  0  0  0  0
  8 24  1  0  0  0  0
  9 24  2  0  0  0  0
 10 25  1  0  0  0  0
 11 12  2  0  0  0  0
 11 26  1  0  0  0  0
 12 27  1  0  0  0  0
 13 20  1  0  0  0  0
 13 25  2  0  0  0  0
 14 27  2  0  0  0  0
 14 28  1  0  0  0  0
 15 29  1  0  0  0  0
 16 29  1  0  0  0  0
 16 32  2  0  0  0  0
 16 33  1  0  0  0  0
 17 19  2  0  0  0  0
 17 38  1  0  0  0  0
 18 20  2  0  0  0  0
 18 39  1  0  0  0  0
 19 51  1  0  0  0  0
 20 40  1  0  0  0  0
 21 22  1  0  0  0  0
 21 23  2  0  0  0  0
 21 62  1  0  0  0  0
 22 30  2  0  0  0  0
 22 54  1  0  0  0  0
 23 31  1  0  0  0  0
 23 55  1  0  0  0  0
 24 83  1  0  0  0  0
 25 84  1  0  0  0  0
 26 28  2  0  0  0  0
 26 83  1  0  0  0  0
 27 85  1  0  0  0  0
 28 86  1  0  0  0  0
 29 66  2  0  0  0  0
 30 56  1  0  0  0  0
 30 67  1  0  0  0  0
 31 67  2  0  0  0  0
 31 69  1  0  0  0  0
 32 68  1  0  0  0  0
 32 73  1  0  0  0  0
 33 74  1  0  0  0  0
 33 78  2  0  0  0  0
 34 52  1  0  0  0  0
 34 75  1  0  0  0  0
 34 79  2  0  0  0  0
 35 63  1  0  0  0  0
 35 70  1  0  0  0  0
 35 80  2  0  0  0  0
 36 64  1  0  0  0  0
 36 76  1  0  0  0  0
 36 81  2  0  0  0  0
 37 71  1  0  0  0  0
 37 72  1  0  0  0  0
 37 82  2  0  0  0  0
 38 41  1  0  0  0  0
 39 52  1  0  0  0  0
 40 70  1  0  0  0  0
 41 43  1  0  0  0  0
 42 44  1  0  0  0  0
 42 45  1  0  0  0  0
 43 51  1  0  0  0  0
 44 53  1  0  0  0  0
 45 71  1  0  0  0  0
 46 48  1  0  0  0  0
 46 69  1  0  0  0  0
 47 49  1  0  0  0  0
 47 69  1  0  0  0  0
 48 72  1  0  0  0  0
 49 72  1  0  0  0  0
 50 53  1  0  0  0  0
 50 71  1  0  0  0  0
 51 75  1  0  0  0  0
 52 70  1  0  0  0  0
 53 68  1  0  0  0  0
 57 64  1  0  0  0  0
 58 65  1  0  0  0  0
 59 65  1  0  0  0  0
 60 65  1  0  0  0  0
 61 77  1  0  0  0  0
 62 84  1  0  0  0  0
 63 65  1  0  0  0  0
 63 76  1  0  0  0  0
 64 77  1  0  0  0  0
 66 68  1  0  0  0  0
M  CHG  1  77   1
M  ISO  4  37 100  62 101  72 100  84 101
M  END
> <Batch ID>
0174

> <Smiles>
CNC(C)C(=O)NC(C(=O)N1Cc2cc([101O:1][101CH2:1]c3c(C)c(C)nc(N4CC[100N:0]([100C:0](=O)N5CCCC(n6nc(-c7ccc(Oc8ccc(F)cc8F)cc7)c(C(N)=O)c6N)C5)CC4)c3C)ccc2CC1C(=O)NC1CCCc2ccccc21)C(C)(C)C

> <Shape>
0.297

> <Color>
0.106

> <Negative vol penalty>
0.000

$$$$

  -OEChem-04052322453D

 84 94  0     1  0  0  0  0  0999 V2000
  -26.0597  -35.3245   23.6506 C   0  0  0  0  0  0  0  0  0  0  0  0
  -26.5943  -34.0790   23.3371 C   0  0  0  0  0  0  0  0  0  0  0  0
  -21.2621  -16.3344   21.2356 C   0  0  0  0  0  0  0  0  0  0  0  0
  -21.0423  -17.4449   23.3700 C   0  0  0  0  0  0  0  0  0  0  0  0
  -24.7630  -35.4186   24.1541 C   0  0  0  0  0  0  0  0  0  0  0  0
  -25.8328  -32.9266   23.5280 C   0  0  0  0  0  0  0  0  0  0  0  0
  -26.1188  -29.7370   19.6051 C   0  0  0  0  0  0  0  0  0  0  0  0
  -20.1495  -15.5467   21.5308 C   0  0  0  0  0  0  0  0  0  0  0  0
  -19.9296  -16.6572   23.6652 C   0  0  0  0  0  0  0  0  0  0  0  0
  -27.2672  -28.9527   19.5045 C   0  0  0  0  0  0  0  0  0  0  0  0
  -19.4584  -12.8094   23.3892 C   0  0  0  0  0  0  0  0  0  0  0  0
  -19.5427  -11.4433   23.1205 C   0  0  0  0  0  0  0  0  0  0  0  0
  -30.8125  -21.8993   17.1024 C   0  0  0  0  0  0  0  0  0  0  0  0
  -26.0699  -27.0880   20.4578 C   0  0  0  0  0  0  0  0  0  0  0  0
  -17.6688  -11.6254   21.6065 C   0  0  0  0  0  0  0  0  0  0  0  0
  -21.7086  -17.2835   22.1552 C   0  0  0  0  0  0  0  0  0  0  0  0
  -22.8679  -19.3464   21.2024 C   0  0  0  0  0  0  0  0  0  0  0  0
  -23.9817  -34.2675   24.3422 C   0  0  0  0  0  0  0  0  0  0  0  0
  -24.9385  -29.2049   20.1437 C   0  0  0  0  0  0  0  0  0  0  0  0
  -24.5248  -33.0052   24.0358 C   0  0  0  0  0  0  0  0  0  0  0  0
  -30.1588  -21.0640   17.9859 C   0  0  0  0  0  0  0  0  0  0  0  0
  -24.9072  -27.8668   20.5617 C   0  0  0  0  0  0  0  0  0  0  0  0
  -30.6120  -23.2719   17.2309 C   0  0  0  0  0  0  0  0  0  0  0  0
  -19.4832  -15.7081   22.7455 C   0  0  0  0  0  0  0  0  0  0  0  0
  -27.2437  -27.6289   19.9336 C   0  0  0  0  0  0  0  0  0  0  0  0
  -18.4792  -13.5835   22.7666 C   0  0  0  0  0  0  0  0  0  0  0  0
  -18.6480  -10.8513   22.2291 C   0  0  0  0  0  0  0  0  0  0  0  0
  -17.5844  -12.9915   21.8752 C   0  0  0  0  0  0  0  0  0  0  0  0
  -22.8582  -18.0971   21.8511 C   0  0  0  0  0  0  0  0  0  0  0  0
  -29.3416  -21.6230   18.9613 C   0  0  0  0  0  0  0  0  0  0  0  0
  -29.7674  -23.7332   18.2410 C   0  0  0  0  0  0  0  0  0  0  0  0
  -24.1945  -19.6992   21.1564 C   0  0  0  0  0  0  0  0  0  0  0  0
  -21.7754  -20.1190   20.6874 C   0  0  0  0  0  0  0  0  0  0  0  0
  -23.1255  -29.8708   22.6683 C   0  0  0  0  0  0  0  0  0  0  0  0
  -21.1776  -27.6233   21.3733 C   0  0  0  0  0  0  0  0  0  0  0  0
  -20.8475  -24.8891   19.3579 C   0  0  0  0  0  0  0  0  0  0  0  0
  -29.4739  -18.1087   20.0062 C   0  0  0  0  0  0  0  0  0  0  0  0
  -22.6021  -34.4152   24.9336 C   0  0  0  0  0  0  0  0  0  0  0  0
  -23.7008  -30.0561   20.2207 C   0  0  0  0  0  0  0  0  0  0  0  0
  -23.6595  -27.2420   21.1285 C   0  0  0  0  0  0  0  0  0  0  0  0
  -28.7158  -20.5463   19.7965 C   0  0  0  0  0  0  0  0  0  0  0  0
  -21.7267  -33.1776   24.7540 C   0  0  0  0  0  0  0  0  0  0  0  0
  -28.2356  -17.6778   23.4323 C   0  0  0  0  0  0  0  0  0  0  0  0
  -22.5034  -31.9167   25.1196 C   0  0  0  0  0  0  0  0  0  0  0  0
  -26.7209  -17.8085   23.2593 C   0  0  0  0  0  0  0  0  0  0  0  0
  -28.4807  -25.8669   17.5570 C   0  0  0  0  0  0  0  0  0  0  0  0
  -28.9066  -17.0992   22.1882 C   0  0  0  0  0  0  0  0  0  0  0  0
  -27.0716  -17.9247   20.7659 C   0  0  0  0  0  0  0  0  0  0  0  0
  -23.7211  -31.7343   24.2056 C   0  0  1  0  0  0  0  0  0  0  0  0
  -30.1866  -19.5730   18.1052 C   0  0  2  0  0  0  0  0  0  0  0  0
  -29.5401  -25.2031   18.3942 C   0  0  1  0  0  0  0  0  0  0  0  0
  -22.6998  -29.5623   21.2607 C   0  0  1  0  0  0  0  0  0  0  0  0
  -26.3707  -18.5721   21.9677 C   0  0  1  0  0  0  0  0  0  0  0  0
  -28.2576  -25.6783   19.0264 C   0  0  1  0  0  0  0  0  0  1  0  0
  -31.3015  -24.2052   16.2944 C   0  0  0  0  0  0  0  0  0  0  0  0
  -29.6312  -18.8730   16.8705 C   0  0  0  0  0  0  0  0  0  0  0  0
  -19.1392  -23.2500   18.5257 C   0  0  0  0  0  0  0  0  0  0  0  0
  -21.2269  -26.2043   24.0741 C   0  0  0  0  0  0  0  0  0  0  0  0
  -20.3325  -24.1604   22.9381 C   0  0  0  0  0  0  0  0  0  0  0  0
  -18.9858  -26.2599   22.9656 C   0  0  0  0  0  0  0  0  0  0  0  0
  -21.2831  -25.6879   16.5417 C   0  0  0  0  0  0  0  0  0  0  0  0
  -21.0415  -26.1252   21.5001 C   0  0  1  0  0  0  0  0  0  0  0  0
  -19.8556  -24.5640   18.2557 C   0  0  2  0  0  0  0  0  0  0  0  0
  -20.4209  -25.6995   22.8606 C   0  0  0  0  0  0  0  0  0  0  0  0
  -24.0816  -17.6839   22.1926 N   0  0  0  0  0  0  0  0  0  0  0  0
  -29.1157  -22.9369   19.1219 N   0  0  0  0  0  0  0  0  0  0  0  0
  -24.8724  -18.6792   21.7568 N   0  0  0  0  0  0  0  0  0  0  0  0
  -22.4769  -28.1168   21.1891 N   0  0  0  0  0  0  0  0  0  0  0  0
  -29.3460  -19.3072   19.2960 N   0  0  0  0  0  0  0  0  0  0  0  0
  -28.5178  -17.8465   20.9932 N   0  0  0  0  0  0  0  0  0  0  0  0
  -24.8356  -20.7791   20.6614 N   0  0  0  0  0  0  0  0  0  0  0  0
  -20.4764  -19.6092   20.8180 N   0  0  0  0  0  0  0  0  0  0  0  0
  -23.3129  -31.2171   22.9171 N   0  0  0  0  0  0  0  0  0  0  0  0
  -20.2843  -25.6839   20.3338 N   0  0  0  0  0  0  0  0  0  0  0  0
  -20.5552  -24.4570   16.9442 N   0  3  0  0  0  0  0  0  0  0  0  0
  -21.9475  -21.2210   20.1133 O   0  0  0  0  0  0  0  0  0  0  0  0
  -23.2716  -28.9553   23.4696 O   0  0  0  0  0  0  0  0  0  0  0  0
  -20.1674  -28.3291   21.4283 O   0  0  0  0  0  0  0  0  0  0  0  0
  -22.0050  -24.4759   19.3555 O   0  0  0  0  0  0  0  0  0  0  0  0
  -30.4200  -17.3371   19.8042 O   0  0  0  0  0  0  0  0  0  0  0  0
  -18.3973  -14.9398   23.0338 O   0  0  0  0  0  0  0  0  0  0  0  0
  -28.3657  -26.8599   19.8369 O   0  0  0  0  0  0  0  0  0  1  0  0
  -18.7301   -9.5397   21.9700 F   0  0  0  0  0  0  0  0  0  0  0  0
  -16.6424  -13.7303   21.2731 F   0  0  0  0  0  0  0  0  0  0  0  0
  1  2  1  0  0  0  0
  1  5  2  0  0  0  0
  2  6  2  0  0  0  0
  3  8  2  0  0  0  0
  3 16  1  0  0  0  0
  4  9  1  0  0  0  0
  4 16  2  0  0  0  0
  5 18  1  0  0  0  0
  6 20  1  0  0  0  0
  7 10  2  0  0  0  0
  7 19  1  0  0  0  0
  8 24  1  0  0  0  0
  9 24  2  0  0  0  0
 10 25  1  0  0  0  0
 11 12  2  0  0  0  0
 11 26  1  0  0  0  0
 12 27  1  0  0  0  0
 13 21  2  0  0  0  0
 13 23  1  0  0  0  0
 14 22  1  0  0  0  0
 14 25  2  0  0  0  0
 15 27  2  0  0  0  0
 15 28  1  0  0  0  0
 16 29  1  0  0  0  0
 17 29  1  0  0  0  0
 17 32  2  0  0  0  0
 17 33  1  0  0  0  0
 18 20  2  0  0  0  0
 18 38  1  0  0  0  0
 19 22  2  0  0  0  0
 19 39  1  0  0  0  0
 20 49  1  0  0  0  0
 21 30  1  0  0  0  0
 21 50  1  0  0  0  0
 22 40  1  0  0  0  0
 23 31  2  0  0  0  0
 23 55  1  0  0  0  0
 24 81  1  0  0  0  0
 25 82  1  0  0  0  0
 26 28  2  0  0  0  0
 26 81  1  0  0  0  0
 27 83  1  0  0  0  0
 28 84  1  0  0  0  0
 29 65  2  0  0  0  0
 30 41  1  0  0  0  0
 30 66  2  0  0  0  0
 31 51  1  0  0  0  0
 31 66  1  0  0  0  0
 32 67  1  0  0  0  0
 32 71  1  0  0  0  0
 33 72  1  0  0  0  0
 33 76  2  0  0  0  0
 34 52  1  0  0  0  0
 34 73  1  0  0  0  0
 34 77  2  0  0  0  0
 35 62  1  0  0  0  0
 35 68  1  0  0  0  0
 35 78  2  0  0  0  0
 36 63  1  0  0  0  0
 36 74  1  0  0  0  0
 36 79  2  0  0  0  0
 37 69  1  0  0  0  0
 37 70  1  0  0  0  0
 37 80  2  0  0  0  0
 38 42  1  0  0  0  0
 39 52  1  0  0  0  0
 40 68  1  0  0  0  0
 41 69  1  0  0  0  0
 42 44  1  0  0  0  0
 43 45  1  0  0  0  0
 43 47  1  0  0  0  0
 44 49  1  0  0  0  0
 45 53  1  0  0  0  0
 46 51  1  0  0  0  0
 46 54  1  0  0  0  0
 47 70  1  0  0  0  0
 48 53  1  0  0  0  0
 48 70  1  0  0  0  0
 49 73  1  0  0  0  0
 50 56  1  0  0  0  0
 50 69  1  0  0  0  0
 51 54  1  0  0  0  0
 52 68  1  0  0  0  0
 53 67  1  0  0  0  0
 54 82  1  0  0  0  0
 57 63  1  0  0  0  0
 58 64  1  0  0  0  0
 59 64  1  0  0  0  0
 60 64  1  0  0  0  0
 61 75  1  0  0  0  0
 62 64  1  0  0  0  0
 62 74  1  0  0  0  0
 63 75  1  0  0  0  0
 65 67  1  0  0  0  0
M  CHG  1  75   1
M  ISO  4  37 100  54 101  69 100  82 101
M  END
> <Batch ID>
0174

> <Smiles>
CNC(C)C(=O)NC(C(=O)N1Cc2cc([101O:1][101CH:1]3CC3c3nc4c(cc3C)C(C)[100N:0]([100C:0](=O)N3CCCC(n5nc(-c6ccc(Oc7ccc(F)cc7F)cc6)c(C(N)=O)c5N)C3)C4)ccc2CC1C(=O)NC1CCCc2ccccc21)C(C)(C)C

> <Shape>
0.206

> <Color>
0.093

> <Negative vol penalty>
0.000

$$$$

  -OEChem-04052322453D

 83 92  0     1  0  0  0  0  0999 V2000
  -27.0627  -38.2103   23.2666 C   0  0  0  0  0  0  0  0  0  0  0  0
  -27.7481  -37.4235   24.1866 C   0  0  0  0  0  0  0  0  0  0  0  0
  -23.7676   -9.6977   19.9107 C   0  0  0  0  0  0  0  0  0  0  0  0
  -23.7344  -10.0251   22.3042 C   0  0  0  0  0  0  0  0  0  0  0  0
  -25.7937  -37.8284   22.8331 C   0  0  0  0  0  0  0  0  0  0  0  0
  -27.1645  -36.2549   24.6747 C   0  0  0  0  0  0  0  0  0  0  0  0
  -29.8333  -28.9136   24.5782 C   0  0  0  0  0  0  0  0  0  0  0  0
  -27.9667  -20.1977   23.9058 C   0  0  0  0  0  0  0  0  0  0  0  0
  -23.1752   -8.4455   20.0737 C   0  0  0  0  0  0  0  0  0  0  0  0
  -23.1419   -8.7729   22.4672 C   0  0  0  0  0  0  0  0  0  0  0  0
  -30.1278  -27.5535   24.4800 C   0  0  0  0  0  0  0  0  0  0  0  0
  -20.0614   -7.4176   22.1599 C   0  0  0  0  0  0  0  0  0  0  0  0
  -18.9830   -7.3221   23.0394 C   0  0  0  0  0  0  0  0  0  0  0  0
  -27.8582  -18.8662   23.5202 C   0  0  0  0  0  0  0  0  0  0  0  0
  -27.7682  -27.0275   24.5368 C   0  0  0  0  0  0  0  0  0  0  0  0
  -20.2098   -5.7212   24.3696 C   0  0  0  0  0  0  0  0  0  0  0  0
  -24.0473  -10.4875   21.0259 C   0  0  0  0  0  0  0  0  0  0  0  0
  -24.0056  -13.0147   20.6806 C   0  0  0  0  0  0  0  0  0  0  0  0
  -25.1983  -36.6495   23.3088 C   0  0  0  0  0  0  0  0  0  0  0  0
  -28.5029  -29.3373   24.6407 C   0  0  0  0  0  0  0  0  0  0  0  0
  -25.8858  -35.8577   24.2482 C   0  0  0  0  0  0  0  0  0  0  0  0
  -29.2044  -20.8298   23.8616 C   0  0  0  0  0  0  0  0  0  0  0  0
  -27.4666  -28.3893   24.6227 C   0  0  0  0  0  0  0  0  0  0  0  0
  -22.8623   -7.9831   21.3519 C   0  0  0  0  0  0  0  0  0  0  0  0
  -29.0978  -26.6129   24.4596 C   0  0  0  0  0  0  0  0  0  0  0  0
  -21.2139   -6.6648   22.3851 C   0  0  0  0  0  0  0  0  0  0  0  0
  -19.0572   -6.4740   24.1443 C   0  0  0  0  0  0  0  0  0  0  0  0
  -21.2881   -5.8167   23.4899 C   0  0  0  0  0  0  0  0  0  0  0  0
  -24.6598  -11.7809   20.8582 C   0  0  0  0  0  0  0  0  0  0  0  0
  -30.2941  -20.0923   23.4277 C   0  0  0  0  0  0  0  0  0  0  0  0
  -29.0082  -18.2167   23.1013 C   0  0  0  0  0  0  0  0  0  0  0  0
  -25.0235  -13.9302   20.5703 C   0  0  0  0  0  0  0  0  0  0  0  0
  -22.6032  -13.3070   20.6206 C   0  0  0  0  0  0  0  0  0  0  0  0
  -26.1142  -32.2217   24.8649 C   0  0  0  0  0  0  0  0  0  0  0  0
  -24.9035  -30.2138   22.8868 C   0  0  0  0  0  0  0  0  0  0  0  0
  -24.1212  -27.9473   20.4602 C   0  0  0  0  0  0  0  0  0  0  0  0
  -29.9017  -16.0172   22.2585 C   0  0  0  0  0  0  0  0  0  0  0  0
  -23.8051  -36.3025   22.8470 C   0  0  0  0  0  0  0  0  0  0  0  0
  -28.1410  -30.7879   24.8092 C   0  0  0  0  0  0  0  0  0  0  0  0
  -26.0515  -28.8888   24.7271 C   0  0  0  0  0  0  0  0  0  0  0  0
  -23.4131  -34.8543   23.1285 C   0  0  0  0  0  0  0  0  0  0  0  0
  -30.0091  -13.2611   20.0069 C   0  0  0  0  0  0  0  0  0  0  0  0
  -28.3198  -22.7198   25.3600 C   0  0  0  0  0  0  0  0  0  0  0  0
  -23.7828  -34.4694   24.5575 C   0  0  0  0  0  0  0  0  0  0  0  0
  -28.5732  -12.7318   20.0131 C   0  0  0  0  0  0  0  0  0  0  0  0
  -27.4930  -23.8368   24.7256 C   0  0  0  0  0  0  0  0  0  0  0  0
  -29.1388  -23.2530   23.1019 C   0  0  0  0  0  0  0  0  0  0  0  0
  -30.4384  -13.7523   21.3883 C   0  0  0  0  0  0  0  0  0  0  0  0
  -28.0982  -14.1997   22.0148 C   0  0  0  0  0  0  0  0  0  0  0  0
  -29.3299  -22.2774   24.2811 C   0  0  2  0  0  0  0  0  0  0  0  0
  -25.2964  -34.5701   24.7820 C   0  0  1  0  0  0  0  0  0  0  0  0
  -26.8448  -31.1758   24.0752 C   0  0  1  0  0  0  0  0  0  0  0  0
  -27.5986  -13.7536   20.6309 C   0  0  2  0  0  0  0  0  0  0  0  0
  -28.4357  -24.4601   23.7078 C   0  0  2  0  0  0  0  0  0  1  0  0
  -31.6480  -20.7201   23.3613 C   0  0  0  0  0  0  0  0  0  0  0  0
  -22.3723  -27.4322   18.7359 C   0  0  0  0  0  0  0  0  0  0  0  0
  -23.0408  -29.2066   25.0822 C   0  0  0  0  0  0  0  0  0  0  0  0
  -21.8161  -27.8894   23.3406 C   0  0  0  0  0  0  0  0  0  0  0  0
  -21.8919  -30.3785   23.1952 C   0  0  0  0  0  0  0  0  0  0  0  0
  -26.0735  -28.1654   18.2467 C   0  0  0  0  0  0  0  0  0  0  0  0
  -23.9761  -29.0429   22.6813 C   0  0  1  0  0  0  0  0  0  0  0  0
  -23.6968  -28.1259   19.0137 C   0  0  2  0  0  0  0  0  0  0  0  0
  -22.7092  -29.1257   23.5787 C   0  0  0  0  0  0  0  0  0  0  0  0
  -25.9903  -11.8984   20.8611 N   0  0  0  0  0  0  0  0  0  0  0  0
  -30.2278  -18.7974   23.0450 N   0  0  0  0  0  0  0  0  0  0  0  0
  -26.1804  -13.2169   20.6839 N   0  0  0  0  0  0  0  0  0  0  0  0
  -25.8767  -30.0824   23.8848 N   0  0  0  0  0  0  0  0  0  0  0  0
  -29.4703  -14.7202   21.9087 N   0  0  0  0  0  0  0  0  0  0  0  0
  -25.0328  -15.2678   20.3882 N   0  0  0  0  0  0  0  0  0  0  0  0
  -21.6939  -12.2486   20.7520 N   0  0  0  0  0  0  0  0  0  0  0  0
  -28.8869  -16.8601   22.7105 N   0  0  0  0  0  0  0  0  0  0  0  0
  -25.9701  -33.4269   24.2045 N   0  0  0  0  0  0  0  0  0  0  0  0
  -23.6930  -28.9925   21.2510 N   0  0  0  0  0  0  0  0  0  0  0  0
  -24.7261  -27.5577   18.0979 N   0  3  0  0  0  0  0  0  0  0  0  0
  -22.1696  -14.4700   20.4391 O   0  0  0  0  0  0  0  0  0  0  0  0
  -25.7090  -31.9556   25.9904 O   0  0  0  0  0  0  0  0  0  0  0  0
  -24.7673  -31.2211   22.1867 O   0  0  0  0  0  0  0  0  0  0  0  0
  -24.7649  -26.9757   20.8504 O   0  0  0  0  0  0  0  0  0  0  0  0
  -31.0797  -16.3637   22.1384 O   0  0  0  0  0  0  0  0  0  0  0  0
  -22.2839   -6.7613   21.5114 O   0  0  0  0  0  0  0  0  0  0  0  0
  -29.3922  -25.2870   24.3590 O   0  0  0  0  0  0  0  0  0  1  0  0
  -18.0222   -6.3835   24.9897 F   0  0  0  0  0  0  0  0  0  0  0  0
  -22.3931   -5.0919   23.7122 F   0  0  0  0  0  0  0  0  0  0  0  0
  1  2  1  0  0  0  0
  1  5  2  0  0  0  0
  2  6  2  0  0  0  0
  3  9  2  0  0  0  0
  3 17  1  0  0  0  0
  4 10  1  0  0  0  0
  4 17  2  0  0  0  0
  5 19  1  0  0  0  0
  6 21  1  0  0  0  0
  7 11  2  0  0  0  0
  7 20  1  0  0  0  0
  8 14  2  0  0  0  0
  8 22  1  0  0  0  0
  9 24  1  0  0  0  0
 10 24  2  0  0  0  0
 11 25  1  0  0  0  0
 12 13  2  0  0  0  0
 12 26  1  0  0  0  0
 13 27  1  0  0  0  0
 14 31  1  0  0  0  0
 15 23  1  0  0  0  0
 15 25  2  0  0  0  0
 16 27  2  0  0  0  0
 16 28  1  0  0  0  0
 17 29  1  0  0  0  0
 18 29  1  0  0  0  0
 18 32  2  0  0  0  0
 18 33  1  0  0  0  0
 19 21  2  0  0  0  0
 19 38  1  0  0  0  0
 20 23  2  0  0  0  0
 20 39  1  0  0  0  0
 21 51  1  0  0  0  0
 22 30  2  0  0  0  0
 22 50  1  0  0  0  0
 23 40  1  0  0  0  0
 24 80  1  0  0  0  0
 25 81  1  0  0  0  0
 26 28  2  0  0  0  0
 26 80  1  0  0  0  0
 27 82  1  0  0  0  0
 28 83  1  0  0  0  0
 29 64  2  0  0  0  0
 30 55  1  0  0  0  0
 30 65  1  0  0  0  0
 31 65  2  0  0  0  0
 31 71  1  0  0  0  0
 32 66  1  0  0  0  0
 32 69  1  0  0  0  0
 33 70  1  0  0  0  0
 33 75  2  0  0  0  0
 34 52  1  0  0  0  0
 34 72  1  0  0  0  0
 34 76  2  0  0  0  0
 35 61  1  0  0  0  0
 35 67  1  0  0  0  0
 35 77  2  0  0  0  0
 36 62  1  0  0  0  0
 36 73  1  0  0  0  0
 36 78  2  0  0  0  0
 37 68  1  0  0  0  0
 37 71  1  0  0  0  0
 37 79  2  0  0  0  0
 38 41  1  0  0  0  0
 39 52  1  0  0  0  0
 40 67  1  0  0  0  0
 41 44  1  0  0  0  0
 42 45  1  0  0  0  0
 42 48  1  0  0  0  0
 43 46  1  0  0  0  0
 43 50  1  0  0  0  0
 44 51  1  0  0  0  0
 45 53  1  0  0  0  0
 46 54  1  0  0  0  0
 47 50  1  0  0  0  0
 47 54  1  0  0  0  0
 48 68  1  0  0  0  0
 49 53  1  0  0  0  0
 49 68  1  0  0  0  0
 51 72  1  0  0  0  0
 52 67  1  0  0  0  0
 53 66  1  0  0  0  0
 54 81  1  0  0  0  0
 56 62  1  0  0  0  0
 57 63  1  0  0  0  0
 58 63  1  0  0  0  0
 59 63  1  0  0  0  0
 60 74  1  0  0  0  0
 61 63  1  0  0  0  0
 61 73  1  0  0  0  0
 62 74  1  0  0  0  0
 64 66  1  0  0  0  0
M  CHG  1  74   1
M  ISO  4  37 100  54 101  71 100  81 101
M  END
> <Batch ID>
0174

> <Smiles>
CNC(C)C(=O)NC(C(=O)N1Cc2cc([101O:1][101CH:1]3CCC(c4ccc([100NH:0][100C:0](=O)N5CCCC(n6nc(-c7ccc(Oc8ccc(F)cc8F)cc7)c(C(N)=O)c6N)C5)nc4C)C3)ccc2CC1C(=O)NC1CCCc2ccccc21)C(C)(C)C

> <Shape>
0.312

> <Color>
0.142

> <Negative vol penalty>
0.000

$$$$

  -OEChem-04052322453D

 90 99  0     1  0  0  0  0  0999 V2000
  -23.4347  -31.1837   24.0571 C   0  0  0  0  0  0  0  0  0  0  0  0
  -23.6565  -29.8348   24.3152 C   0  0  0  0  0  0  0  0  0  0  0  0
  -29.8297  -18.3090   24.7039 C   0  0  0  0  0  0  0  0  0  0  0  0
  -28.5891  -20.2596   25.4061 C   0  0  0  0  0  0  0  0  0  0  0  0
  -23.8188  -31.7305   22.8335 C   0  0  0  0  0  0  0  0  0  0  0  0
  -24.2617  -29.0316   23.3493 C   0  0  0  0  0  0  0  0  0  0  0  0
  -28.6313  -23.3902   22.7190 C   0  0  0  0  0  0  0  0  0  0  0  0
  -30.9935  -19.0745   24.6333 C   0  0  0  0  0  0  0  0  0  0  0  0
  -29.7529  -21.0252   25.3356 C   0  0  0  0  0  0  0  0  0  0  0  0
  -28.6998  -22.1453   22.0950 C   0  0  0  0  0  0  0  0  0  0  0  0
  -32.5078  -21.5460   27.2223 C   0  0  0  0  0  0  0  0  0  0  0  0
  -32.7741  -22.4165   28.2791 C   0  0  0  0  0  0  0  0  0  0  0  0
  -29.3934  -23.2163   20.0478 C   0  0  0  0  0  0  0  0  0  0  0  0
  -30.0888  -17.6478   20.3371 C   0  0  0  0  0  0  0  0  0  0  0  0
  -32.7362  -24.2858   26.7489 C   0  0  0  0  0  0  0  0  0  0  0  0
  -28.6274  -18.9015   25.0902 C   0  0  0  0  0  0  0  0  0  0  0  0
  -26.9397  -17.4018   26.2776 C   0  0  0  0  0  0  0  0  0  0  0  0
  -24.4379  -30.9358   21.8558 C   0  0  0  0  0  0  0  0  0  0  0  0
  -28.9333  -24.5604   22.0078 C   0  0  0  0  0  0  0  0  0  0  0  0
  -24.6534  -29.5680   22.1109 C   0  0  0  0  0  0  0  0  0  0  0  0
  -29.3304  -24.4746   20.6658 C   0  0  0  0  0  0  0  0  0  0  0  0
  -30.2646  -16.4867   19.5845 C   0  0  0  0  0  0  0  0  0  0  0  0
  -28.9802  -18.4639   20.1117 C   0  0  0  0  0  0  0  0  0  0  0  0
  -28.0476  -18.1189   19.1336 C   0  0  0  0  0  0  0  0  0  0  0  0
  -28.2234  -16.9578   18.3809 C   0  0  0  0  0  0  0  0  0  0  0  0
  -29.3320  -16.1417   18.6064 C   0  0  0  0  0  0  0  0  0  0  0  0
  -30.9552  -20.4326   24.9492 C   0  0  0  0  0  0  0  0  0  0  0  0
  -29.0781  -22.0585   20.7584 C   0  0  0  0  0  0  0  0  0  0  0  0
  -32.3558  -22.0453   25.9288 C   0  0  0  0  0  0  0  0  0  0  0  0
  -32.8883  -23.7864   28.0425 C   0  0  0  0  0  0  0  0  0  0  0  0
  -32.4699  -23.4152   25.6921 C   0  0  0  0  0  0  0  0  0  0  0  0
  -27.4247  -18.1113   25.1627 C   0  0  0  0  0  0  0  0  0  0  0  0
  -25.7758  -16.8217   25.8356 C   0  0  0  0  0  0  0  0  0  0  0  0
  -27.4918  -17.2781   27.5950 C   0  0  0  0  0  0  0  0  0  0  0  0
  -27.3150  -27.1734   21.1973 C   0  0  0  0  0  0  0  0  0  0  0  0
  -30.2084  -28.1551   20.1079 C   0  0  0  0  0  0  0  0  0  0  0  0
  -33.3156  -27.3132   18.9750 C   0  0  0  0  0  0  0  0  0  0  0  0
  -23.5371  -14.4373   21.0633 C   0  0  0  0  0  0  0  0  0  0  0  0
  -24.7927  -31.5609   20.5299 C   0  0  0  0  0  0  0  0  0  0  0  0
  -28.8804  -25.8933   22.7028 C   0  0  0  0  0  0  0  0  0  0  0  0
  -29.6845  -25.6993   19.8637 C   0  0  0  0  0  0  0  0  0  0  0  0
  -25.7679  -30.7257   19.7042 C   0  0  0  0  0  0  0  0  0  0  0  0
  -22.6194  -17.6701   22.1518 C   0  0  0  0  0  0  0  0  0  0  0  0
  -25.3341  -29.2635   19.6841 C   0  0  0  0  0  0  0  0  0  0  0  0
  -23.7283  -18.0700   23.1211 C   0  0  0  0  0  0  0  0  0  0  0  0
  -25.4487  -11.3855   20.2086 C   0  0  0  0  0  0  0  0  0  0  0  0
  -23.1852  -16.8804   20.9791 C   0  0  0  0  0  0  0  0  0  0  0  0
  -24.1356  -12.1177   20.4378 C   0  0  0  0  0  0  0  0  0  0  0  0
  -25.9564  -13.6576   20.7090 C   0  0  0  0  0  0  0  0  0  0  0  0
  -25.0358  -16.0114   22.3825 C   0  0  0  0  0  0  0  0  0  0  0  0
  -25.3296  -28.6698   21.0980 C   0  0  1  0  0  0  0  0  0  0  0  0
  -28.7123  -27.0636   21.7388 C   0  0  1  0  0  0  0  0  0  0  0  0
  -26.3945  -12.5135   19.7947 C   0  0  1  0  0  0  0  0  0  0  0  0
  -24.5179  -16.8344   23.5802 C   0  0  1  0  0  0  0  0  0  0  0  0
  -31.4606  -15.6306   19.8454 C   0  0  0  0  0  0  0  0  0  0  0  0
  -26.8600  -18.9964   18.8935 C   0  0  0  0  0  0  0  0  0  0  0  0
  -27.2226  -16.5873   17.3321 C   0  0  0  0  0  0  0  0  0  0  0  0
  -35.4455  -28.3324   18.1253 C   0  0  0  0  0  0  0  0  0  0  0  0
  -28.1924  -10.8844   19.1443 C   0  0  0  0  0  0  0  0  0  0  0  0
  -28.8701  -28.7067   17.4218 C   0  0  0  0  0  0  0  0  0  0  0  0
  -31.1471  -28.7974   16.3848 C   0  0  0  0  0  0  0  0  0  0  0  0
  -30.5137  -30.4472   18.1454 C   0  0  0  0  0  0  0  0  0  0  0  0
  -34.8910  -26.1592   21.1987 C   0  0  0  0  0  0  0  0  0  0  0  0
  -29.5234  -14.8921   17.7983 C   0  0  0  0  0  0  0  0  0  0  0  0
  -28.8149  -19.7012   20.9321 C   0  0  0  0  0  0  0  0  0  1  0  0
  -28.8035  -13.3145   19.5959 C   0  0  0  0  0  0  0  0  0  0  0  0
  -30.9515  -28.0444   18.7985 C   0  0  1  0  0  0  0  0  0  0  0  0
  -34.6959  -27.8239   19.3469 C   0  0  2  0  0  0  0  0  0  0  0  0
  -27.8612  -12.1506   19.9436 C   0  0  1  0  0  0  0  0  0  0  0  0
  -30.3621  -28.9758   17.7019 C   0  0  0  0  0  0  0  0  0  0  0  0
  -26.6337  -17.9940   24.0928 N   0  0  0  0  0  0  0  0  0  0  0  0
  -25.6399  -17.2039   24.5334 N   0  0  0  0  0  0  0  0  0  0  0  0
  -29.6115  -26.9800   20.5861 N   0  0  0  0  0  0  0  0  0  0  0  0
  -23.9589  -15.7210   21.4270 N   0  0  0  0  0  0  0  0  0  0  0  0
  -24.5130  -13.4614   20.8653 N   0  0  0  0  0  0  0  0  0  0  0  0
  -24.8656  -16.0270   26.4376 N   0  0  0  0  0  0  0  0  0  0  0  0
  -28.6942  -17.9392   27.8803 N   0  0  0  0  0  0  0  0  0  0  0  0
  -26.6784  -28.3570   21.5190 N   0  0  0  0  0  0  0  0  0  0  0  0
  -32.3560  -28.2950   19.1037 N   0  0  0  0  0  0  0  0  0  0  0  0
  -35.4996  -26.7359   19.9723 N   0  3  0  0  0  0  0  0  0  0  0  0
  -28.6102  -13.7887   18.2051 N   0  3  0  0  0  0  0  0  0  0  0  0
  -26.9438  -16.5880   28.4877 O   0  0  0  0  0  0  0  0  0  0  0  0
  -26.8495  -26.2532   20.5354 O   0  0  0  0  0  0  0  0  0  0  0  0
  -30.1653  -29.2425   20.6887 O   0  0  0  0  0  0  0  0  0  0  0  0
  -33.1098  -26.1599   18.6035 O   0  0  0  0  0  0  0  0  0  0  0  0
  -22.3390  -14.1821   20.8806 O   0  0  0  0  0  0  0  0  0  0  0  0
  -32.0907  -21.1799   24.8807 O   0  0  0  0  0  0  0  0  0  0  0  0
  -29.1456  -20.8360   20.1423 O   0  0  0  0  0  0  0  0  0  1  0  0
  -33.1424  -24.6224   29.0577 F   0  0  0  0  0  0  0  0  0  0  0  0
  -32.3237  -23.9009   24.4517 F   0  0  0  0  0  0  0  0  0  0  0  0
  1  2  1  0  0  0  0
  1  5  2  0  0  0  0
  2  6  2  0  0  0  0
  3  8  2  0  0  0  0
  3 16  1  0  0  0  0
  4  9  1  0  0  0  0
  4 16  2  0  0  0  0
  5 18  1  0  0  0  0
  6 20  1  0  0  0  0
  7 10  2  0  0  0  0
  7 19  1  0  0  0  0
  8 27  1  0  0  0  0
  9 27  2  0  0  0  0
 10 28  1  0  0  0  0
 11 12  2  0  0  0  0
 11 29  1  0  0  0  0
 12 30  1  0  0  0  0
 13 21  1  0  0  0  0
 13 28  2  0  0  0  0
 14 22  2  0  0  0  0
 14 23  1  0  0  0  0
 15 30  2  0  0  0  0
 15 31  1  0  0  0  0
 16 32  1  0  0  0  0
 17 32  1  0  0  0  0
 17 33  2  0  0  0  0
 17 34  1  0  0  0  0
 18 20  2  0  0  0  0
 18 39  1  0  0  0  0
 19 21  2  0  0  0  0
 19 40  1  0  0  0  0
 20 51  1  0  0  0  0
 21 41  1  0  0  0  0
 22 26  1  0  0  0  0
 22 55  1  0  0  0  0
 23 24  2  0  0  0  0
 23 65  1  0  0  0  0
 24 25  1  0  0  0  0
 24 56  1  0  0  0  0
 25 26  2  0  0  0  0
 25 57  1  0  0  0  0
 26 64  1  0  0  0  0
 27 87  1  0  0  0  0
 28 88  1  0  0  0  0
 29 31  2  0  0  0  0
 29 87  1  0  0  0  0
 30 89  1  0  0  0  0
 31 90  1  0  0  0  0
 32 71  2  0  0  0  0
 33 72  1  0  0  0  0
 33 76  1  0  0  0  0
 34 77  1  0  0  0  0
 34 82  2  0  0  0  0
 35 52  1  0  0  0  0
 35 78  1  0  0  0  0
 35 83  2  0  0  0  0
 36 67  1  0  0  0  0
 36 73  1  0  0  0  0
 36 84  2  0  0  0  0
 37 68  1  0  0  0  0
 37 79  1  0  0  0  0
 37 85  2  0  0  0  0
 38 74  1  0  0  0  0
 38 75  1  0  0  0  0
 38 86  2  0  0  0  0
 39 42  1  0  0  0  0
 40 52  1  0  0  0  0
 41 73  1  0  0  0  0
 42 44  1  0  0  0  0
 43 45  1  0  0  0  0
 43 47  1  0  0  0  0
 44 51  1  0  0  0  0
 45 54  1  0  0  0  0
 46 48  1  0  0  0  0
 46 53  1  0  0  0  0
 47 74  1  0  0  0  0
 48 75  1  0  0  0  0
 49 53  1  0  0  0  0
 49 75  1  0  0  0  0
 50 54  1  0  0  0  0
 50 74  1  0  0  0  0
 51 78  1  0  0  0  0
 52 73  1  0  0  0  0
 53 69  1  0  0  0  0
 54 72  1  0  0  0  0
 58 68  1  0  0  0  0
 59 69  1  0  0  0  0
 60 70  1  0  0  0  0
 61 70  1  0  0  0  0
 62 70  1  0  0  0  0
 63 80  1  0  0  0  0
 64 81  1  0  0  0  0
 65 88  1  0  0  0  0
 66 69  1  0  0  0  0
 66 81  1  0  0  0  0
 67 70  1  0  0  0  0
 67 79  1  0  0  0  0
 68 80  1  0  0  0  0
 71 72  1  0  0  0  0
M  CHG  2  80   1  81   1
M  ISO  4  38 100  65 101  75 100  88 101
M  END
> <Batch ID>
0174

> <Smiles>
CNC(C)C(=O)NC(C(=O)N1Cc2cc([101O:1][101CH2:1]c3cc(C)c(CNCC(C)C4CC[100N:0]([100C:0](=O)N5CCCC(n6nc(-c7ccc(Oc8ccc(F)cc8F)cc7)c(C(N)=O)c6N)C5)C4)c(C)c3C)ccc2CC1C(=O)NC1CCCc2ccccc21)C(C)(C)C

> <Shape>
0.201

> <Color>
0.065

> <Negative vol penalty>
0.000

$$$$

  -OEChem-04052322453D

 82 90  0     1  0  0  0  0  0999 V2000
  -18.1476  -27.3195   23.2822 C   0  0  0  0  0  0  0  0  0  0  0  0
  -19.0002  -26.3148   22.8362 C   0  0  0  0  0  0  0  0  0  0  0  0
  -24.3697  -13.9250   24.0269 C   0  0  0  0  0  0  0  0  0  0  0  0
  -23.7430  -15.6206   22.4240 C   0  0  0  0  0  0  0  0  0  0  0  0
  -18.4753  -28.6573   23.0658 C   0  0  0  0  0  0  0  0  0  0  0  0
  -20.1806  -26.6473   22.1725 C   0  0  0  0  0  0  0  0  0  0  0  0
  -25.5272  -23.6744   22.4575 C   0  0  0  0  0  0  0  0  0  0  0  0
  -23.8278  -14.6964   25.0549 C   0  0  0  0  0  0  0  0  0  0  0  0
  -23.2010  -16.3921   23.4521 C   0  0  0  0  0  0  0  0  0  0  0  0
  -26.1274  -22.7407   21.6138 C   0  0  0  0  0  0  0  0  0  0  0  0
  -20.3674  -16.4495   25.2926 C   0  0  0  0  0  0  0  0  0  0  0  0
  -19.1164  -17.0273   25.0767 C   0  0  0  0  0  0  0  0  0  0  0  0
  -27.3759  -24.5111   20.5526 C   0  0  0  0  0  0  0  0  0  0  0  0
  -20.0762  -19.2223   25.3896 C   0  0  0  0  0  0  0  0  0  0  0  0
  -29.7491  -18.5536   18.6903 C   0  0  0  0  0  0  0  0  0  0  0  0
  -24.3273  -14.3871   22.7114 C   0  0  0  0  0  0  0  0  0  0  0  0
  -24.2260  -12.6171   20.8772 C   0  0  0  0  0  0  0  0  0  0  0  0
  -19.6650  -29.0066   22.4077 C   0  0  0  0  0  0  0  0  0  0  0  0
  -25.8392  -25.0371   22.3475 C   0  0  0  0  0  0  0  0  0  0  0  0
  -20.5239  -27.9910   21.9459 C   0  0  0  0  0  0  0  0  0  0  0  0
  -26.7802  -25.4598   21.3977 C   0  0  0  0  0  0  0  0  0  0  0  0
  -29.4885  -18.4777   17.3316 C   0  0  0  0  0  0  0  0  0  0  0  0
  -28.4378  -19.2359   16.8271 C   0  0  0  0  0  0  0  0  0  0  0  0
  -27.6904  -20.0355   17.6846 C   0  0  0  0  0  0  0  0  0  0  0  0
  -23.2435  -15.9299   24.7675 C   0  0  0  0  0  0  0  0  0  0  0  0
  -27.0497  -23.1593   20.6593 C   0  0  0  0  0  0  0  0  0  0  0  0
  -21.4728  -17.2580   25.5571 C   0  0  0  0  0  0  0  0  0  0  0  0
  -18.9708  -18.4137   25.1252 C   0  0  0  0  0  0  0  0  0  0  0  0
  -21.3273  -18.6444   25.6056 C   0  0  0  0  0  0  0  0  0  0  0  0
  -24.8875  -13.5909   21.6491 C   0  0  0  0  0  0  0  0  0  0  0  0
  -28.0314  -20.0415   19.0276 C   0  0  0  0  0  0  0  0  0  0  0  0
  -25.1866  -12.1547   20.0112 C   0  0  0  0  0  0  0  0  0  0  0  0
  -22.8649  -12.1704   20.9375 C   0  0  0  0  0  0  0  0  0  0  0  0
  -24.1930  -27.6664   21.6542 C   0  0  0  0  0  0  0  0  0  0  0  0
  -26.9805  -29.1421   22.4119 C   0  0  0  0  0  0  0  0  0  0  0  0
  -30.3745  -28.9461   22.7109 C   0  0  0  0  0  0  0  0  0  0  0  0
  -30.2059  -14.5746   17.8200 C   0  0  0  0  0  0  0  0  0  0  0  0
  -19.9535  -30.4652   22.1550 C   0  0  0  0  0  0  0  0  0  0  0  0
  -25.2031  -26.0284   23.2830 C   0  0  0  0  0  0  0  0  0  0  0  0
  -27.1648  -26.9088   21.2528 C   0  0  0  0  0  0  0  0  0  0  0  0
  -21.4059  -30.7419   21.7749 C   0  0  0  0  0  0  0  0  0  0  0  0
  -29.9170  -11.5346   19.6507 C   0  0  0  0  0  0  0  0  0  0  0  0
  -21.8787  -29.7510   20.7160 C   0  0  0  0  0  0  0  0  0  0  0  0
  -28.5355  -11.6290   20.3008 C   0  0  0  0  0  0  0  0  0  0  0  0
  -30.6089  -12.8948   19.5955 C   0  0  0  0  0  0  0  0  0  0  0  0
  -28.4376  -14.0605   19.6103 C   0  0  0  0  0  0  0  0  0  0  0  0
  -21.8255  -28.3123   21.2439 C   0  0  1  0  0  0  0  0  0  0  0  0
  -25.2109  -27.4536   22.7388 C   0  0  1  0  0  0  0  0  0  0  0  0
  -27.6775  -12.7234   19.6380 C   0  0  2  0  0  0  0  0  0  0  0  0
  -28.1148  -19.1898   15.3679 C   0  0  0  0  0  0  0  0  0  0  0  0
  -26.5582  -20.8618   17.1737 C   0  0  0  0  0  0  0  0  0  0  0  0
  -32.3818  -30.3259   23.3144 C   0  0  0  0  0  0  0  0  0  0  0  0
  -26.8345  -30.5357   19.7014 C   0  0  0  0  0  0  0  0  0  0  0  0
  -29.2547  -31.1256   19.9524 C   0  0  0  0  0  0  0  0  0  0  0  0
  -27.5842  -31.9976   21.5870 C   0  0  0  0  0  0  0  0  0  0  0  0
  -31.0586  -27.1699   24.9773 C   0  0  0  0  0  0  0  0  0  0  0  0
  -30.3225  -17.6034   16.4603 C   0  0  0  0  0  0  0  0  0  0  0  0
  -27.2608  -20.8837   20.0014 C   0  0  0  0  0  0  0  0  0  1  0  0
  -29.6499  -16.2731   16.0981 C   0  0  0  0  0  0  0  0  0  0  0  0
  -28.2164  -29.5504   21.6471 C   0  0  1  0  0  0  0  0  0  0  0  0
  -31.3138  -29.3713   23.8251 C   0  0  2  0  0  0  0  0  0  0  0  0
  -27.9639  -30.7752   20.7232 C   0  0  0  0  0  0  0  0  0  0  0  0
  -29.0451  -19.3187   19.5544 N   0  0  0  0  0  0  0  0  0  0  0  0
  -26.1693  -13.7392   21.3041 N   0  0  0  0  0  0  0  0  0  0  0  0
  -26.3210  -12.8523   20.3059 N   0  0  0  0  0  0  0  0  0  0  0  0
  -26.5107  -27.8405   22.1863 N   0  0  0  0  0  0  0  0  0  0  0  0
  -29.7430  -13.8872   18.9541 N   0  0  0  0  0  0  0  0  0  0  0  0
  -25.1632  -11.2235   19.0341 N   0  0  0  0  0  0  0  0  0  0  0  0
  -22.0125  -12.7512   21.8864 N   0  0  0  0  0  0  0  0  0  0  0  0
  -22.9497  -28.0525   22.1174 N   0  0  0  0  0  0  0  0  0  0  0  0
  -29.2624  -29.7584   22.6426 N   0  0  0  0  0  0  0  0  0  0  0  0
  -29.3201  -15.4931   17.2701 N   0  0  0  0  0  0  0  0  0  0  0  0
  -31.9900  -28.1814   24.4149 N   0  3  0  0  0  0  0  0  0  0  0  0
  -22.4222  -11.2709   20.1836 O   0  0  0  0  0  0  0  0  0  0  0  0
  -24.5124  -27.4944   20.4837 O   0  0  0  0  0  0  0  0  0  0  0  0
  -26.4557  -29.9460   23.1865 O   0  0  0  0  0  0  0  0  0  0  0  0
  -30.6061  -27.9913   21.9725 O   0  0  0  0  0  0  0  0  0  0  0  0
  -31.3237  -14.3801   17.3304 O   0  0  0  0  0  0  0  0  0  0  0  0
  -22.7143  -16.6828   25.7704 O   0  0  0  0  0  0  0  0  0  0  0  0
  -27.6366  -22.2502   19.8341 O   0  0  0  0  0  0  0  0  0  1  0  0
  -17.7697  -18.9686   24.9164 F   0  0  0  0  0  0  0  0  0  0  0  0
  -22.3859  -19.4264   25.8580 F   0  0  0  0  0  0  0  0  0  0  0  0
  1  2  1  0  0  0  0
  1  5  2  0  0  0  0
  2  6  2  0  0  0  0
  3  8  2  0  0  0  0
  3 16  1  0  0  0  0
  4  9  1  0  0  0  0
  4 16  2  0  0  0  0
  5 18  1  0  0  0  0
  6 20  1  0  0  0  0
  7 10  2  0  0  0  0
  7 19  1  0  0  0  0
  8 25  1  0  0  0  0
  9 25  2  0  0  0  0
 10 26  1  0  0  0  0
 11 12  2  0  0  0  0
 11 27  1  0  0  0  0
 12 28  1  0  0  0  0
 13 21  1  0  0  0  0
 13 26  2  0  0  0  0
 14 28  2  0  0  0  0
 14 29  1  0  0  0  0
 15 22  1  0  0  0  0
 15 63  2  0  0  0  0
 16 30  1  0  0  0  0
 17 30  1  0  0  0  0
 17 32  2  0  0  0  0
 17 33  1  0  0  0  0
 18 20  2  0  0  0  0
 18 38  1  0  0  0  0
 19 21  2  0  0  0  0
 19 39  1  0  0  0  0
 20 47  1  0  0  0  0
 21 40  1  0  0  0  0
 22 23  2  0  0  0  0
 22 57  1  0  0  0  0
 23 24  1  0  0  0  0
 23 50  1  0  0  0  0
 24 31  2  0  0  0  0
 24 51  1  0  0  0  0
 25 79  1  0  0  0  0
 26 80  1  0  0  0  0
 27 29  2  0  0  0  0
 27 79  1  0  0  0  0
 28 81  1  0  0  0  0
 29 82  1  0  0  0  0
 30 64  2  0  0  0  0
 31 58  1  0  0  0  0
 31 63  1  0  0  0  0
 32 65  1  0  0  0  0
 32 68  1  0  0  0  0
 33 69  1  0  0  0  0
 33 74  2  0  0  0  0
 34 48  1  0  0  0  0
 34 70  1  0  0  0  0
 34 75  2  0  0  0  0
 35 60  1  0  0  0  0
 35 66  1  0  0  0  0
 35 76  2  0  0  0  0
 36 61  1  0  0  0  0
 36 71  1  0  0  0  0
 36 77  2  0  0  0  0
 37 67  1  0  0  0  0
 37 72  1  0  0  0  0
 37 78  2  0  0  0  0
 38 41  1  0  0  0  0
 39 48  1  0  0  0  0
 40 66  1  0  0  0  0
 41 43  1  0  0  0  0
 42 44  1  0  0  0  0
 42 45  1  0  0  0  0
 43 47  1  0  0  0  0
 44 49  1  0  0  0  0
 45 67  1  0  0  0  0
 46 49  1  0  0  0  0
 46 67  1  0  0  0  0
 47 70  1  0  0  0  0
 48 66  1  0  0  0  0
 49 65  1  0  0  0  0
 52 61  1  0  0  0  0
 53 62  1  0  0  0  0
 54 62  1  0  0  0  0
 55 62  1  0  0  0  0
 56 73  1  0  0  0  0
 57 59  1  0  0  0  0
 58 80  1  0  0  0  0
 59 72  1  0  0  0  0
 60 62  1  0  0  0  0
 60 71  1  0  0  0  0
 61 73  1  0  0  0  0
 64 65  1  0  0  0  0
M  CHG  1  73   1
M  ISO  4  37 100  58 101  72 100  80 101
M  END
> <Batch ID>
0174

> <Smiles>
CNC(C)C(=O)NC(C(=O)N1Cc2cc([101O:1][101CH2:1]c3ncc(CC[100NH:0][100C:0](=O)N4CCCC(n5nc(-c6ccc(Oc7ccc(F)cc7F)cc6)c(C(N)=O)c5N)C4)c(C)c3C)ccc2CC1C(=O)NC1CCCc2ccccc21)C(C)(C)C

> <Shape>
0.201

> <Color>
0.083

> <Negative vol penalty>
0.000

$$$$

  -OEChem-04052322453D

 87 96  0     1  0  0  0  0  0999 V2000
  -35.1242  -32.2974   18.1108 C   0  0  0  0  0  0  0  0  0  0  0  0
  -34.7591  -31.2348   18.9312 C   0  0  0  0  0  0  0  0  0  0  0  0
  -22.9936   -9.9109   19.9758 C   0  0  0  0  0  0  0  0  0  0  0  0
  -23.7411   -9.9297   22.2732 C   0  0  0  0  0  0  0  0  0  0  0  0
  -34.3632  -33.4656   18.1051 C   0  0  0  0  0  0  0  0  0  0  0  0
  -33.6334  -31.3404   19.7474 C   0  0  0  0  0  0  0  0  0  0  0  0
  -30.7374  -27.1884   19.6093 C   0  0  0  0  0  0  0  0  0  0  0  0
  -33.3165  -21.9376   24.6711 C   0  0  0  0  0  0  0  0  0  0  0  0
  -22.2278   -8.7740   20.2343 C   0  0  0  0  0  0  0  0  0  0  0  0
  -22.9753   -8.7929   22.5317 C   0  0  0  0  0  0  0  0  0  0  0  0
  -31.1646  -26.0891   20.3529 C   0  0  0  0  0  0  0  0  0  0  0  0
  -23.2097   -5.4602   22.0125 C   0  0  0  0  0  0  0  0  0  0  0  0
  -23.8029   -4.4321   22.7451 C   0  0  0  0  0  0  0  0  0  0  0  0
  -32.8274  -20.6820   24.3285 C   0  0  0  0  0  0  0  0  0  0  0  0
  -29.6035  -26.6706   22.0977 C   0  0  0  0  0  0  0  0  0  0  0  0
  -29.7951  -17.6643   22.7071 C   0  0  0  0  0  0  0  0  0  0  0  0
  -22.0957   -4.6550   24.4401 C   0  0  0  0  0  0  0  0  0  0  0  0
  -23.7503  -10.4887   20.9952 C   0  0  0  0  0  0  0  0  0  0  0  0
  -31.5623  -19.2955   22.7341 C   0  0  0  0  0  0  0  0  0  0  0  0
  -24.1379  -13.0059   20.8494 C   0  0  0  0  0  0  0  0  0  0  0  0
  -33.2221  -33.5819   18.9144 C   0  0  0  0  0  0  0  0  0  0  0  0
  -29.7462  -28.0446   20.1099 C   0  0  0  0  0  0  0  0  0  0  0  0
  -32.8573  -32.5118   19.7535 C   0  0  0  0  0  0  0  0  0  0  0  0
  -29.1638  -27.7785   21.3574 C   0  0  0  0  0  0  0  0  0  0  0  0
  -33.0682  -23.0247   23.8405 C   0  0  0  0  0  0  0  0  0  0  0  0
  -30.2899  -18.8945   23.1257 C   0  0  0  0  0  0  0  0  0  0  0  0
  -22.2187   -8.2150   21.5122 C   0  0  0  0  0  0  0  0  0  0  0  0
  -30.5997  -25.8317   21.5986 C   0  0  0  0  0  0  0  0  0  0  0  0
  -22.0595   -6.0858   22.4937 C   0  0  0  0  0  0  0  0  0  0  0  0
  -23.2459   -4.0295   23.9589 C   0  0  0  0  0  0  0  0  0  0  0  0
  -21.5025   -5.6832   23.7075 C   0  0  0  0  0  0  0  0  0  0  0  0
  -32.1012  -20.5671   23.1541 C   0  0  0  0  0  0  0  0  0  0  0  0
  -24.5419  -11.6627   20.7287 C   0  0  0  0  0  0  0  0  0  0  0  0
  -32.2941  -18.4368   21.9299 C   0  0  0  0  0  0  0  0  0  0  0  0
  -32.3314  -22.8049   22.6877 C   0  0  0  0  0  0  0  0  0  0  0  0
  -30.6060  -16.8787   21.9039 C   0  0  0  0  0  0  0  0  0  0  0  0
  -25.2452  -13.7316   20.4840 C   0  0  0  0  0  0  0  0  0  0  0  0
  -22.8746  -13.5489   21.2555 C   0  0  0  0  0  0  0  0  0  0  0  0
  -29.6260  -31.1243   20.8879 C   0  0  0  0  0  0  0  0  0  0  0  0
  -26.4716  -30.4947   21.3065 C   0  0  0  0  0  0  0  0  0  0  0  0
  -24.0369  -28.1898   21.9440 C   0  0  0  0  0  0  0  0  0  0  0  0
  -30.7282  -14.6814   20.6777 C   0  0  0  0  0  0  0  0  0  0  0  0
  -32.4581  -34.8823   18.9094 C   0  0  0  0  0  0  0  0  0  0  0  0
  -29.2775  -29.2109   19.2837 C   0  0  0  0  0  0  0  0  0  0  0  0
  -28.0819  -28.6556   21.9308 C   0  0  0  0  0  0  0  0  0  0  0  0
  -31.0656  -34.7729   19.5252 C   0  0  0  0  0  0  0  0  0  0  0  0
  -29.5836  -12.2618   18.3299 C   0  0  0  0  0  0  0  0  0  0  0  0
  -31.1241  -34.0115   20.8457 C   0  0  0  0  0  0  0  0  0  0  0  0
  -28.1366  -12.0007   18.7546 C   0  0  0  0  0  0  0  0  0  0  0  0
  -30.4961  -12.4875   19.5341 C   0  0  0  0  0  0  0  0  0  0  0  0
  -28.5950  -13.2612   20.8966 C   0  0  0  0  0  0  0  0  0  0  0  0
  -31.6287  -32.5789   20.6346 C   0  0  1  0  0  0  0  0  0  0  0  0
  -28.6258  -30.3100   20.1171 C   0  0  1  0  0  0  0  0  0  0  0  0
  -27.6256  -13.0922   19.7154 C   0  0  2  0  0  0  0  0  0  0  0  0
  -33.5897  -24.3726   24.2018 C   0  0  0  0  0  0  0  0  0  0  0  0
  -29.4281  -19.7541   23.9936 C   0  0  0  0  0  0  0  0  0  0  0  0
  -33.6676  -18.8033   21.4661 C   0  0  0  0  0  0  0  0  0  0  0  0
  -21.5566  -27.9814   22.2637 C   0  0  0  0  0  0  0  0  0  0  0  0
  -26.7358  -31.6755   24.1076 C   0  0  0  0  0  0  0  0  0  0  0  0
  -24.5540  -30.5959   24.6929 C   0  0  0  0  0  0  0  0  0  0  0  0
  -24.6464  -32.3231   22.8953 C   0  0  0  0  0  0  0  0  0  0  0  0
  -23.7733  -26.3737   19.6221 C   0  0  0  0  0  0  0  0  0  0  0  0
  -32.0337  -23.9409   21.7538 C   0  0  0  0  0  0  0  0  0  1  0  0
  -25.6183  -30.0297   22.4618 C   0  0  1  0  0  0  0  0  0  0  0  0
  -22.7048  -27.9186   21.2684 C   0  0  2  0  0  0  0  0  0  0  0  0
  -25.4104  -31.1404   23.5297 C   0  0  0  0  0  0  0  0  0  0  0  0
  -31.8397  -21.5999   22.3219 N   0  0  0  0  0  0  0  0  0  0  0  0
  -25.8071  -11.5397   20.3186 N   0  0  0  0  0  0  0  0  0  0  0  0
  -31.8472  -17.2344   21.5032 N   0  0  0  0  0  0  0  0  0  0  0  0
  -26.2076  -12.8148   20.1783 N   0  0  0  0  0  0  0  0  0  0  0  0
  -27.6621  -29.7872   21.0877 N   0  0  0  0  0  0  0  0  0  0  0  0
  -29.9510  -13.5378   20.3969 N   0  0  0  0  0  0  0  0  0  0  0  0
  -25.4798  -15.0583   20.3975 N   0  0  0  0  0  0  0  0  0  0  0  0
  -21.8448  -12.6617   21.5971 N   0  0  0  0  0  0  0  0  0  0  0  0
  -30.0931  -15.6269   21.4823 N   0  0  0  0  0  0  0  0  0  0  0  0
  -30.5742  -31.7456   20.0978 N   0  0  0  0  0  0  0  0  0  0  0  0
  -24.3811  -29.5233   21.8776 N   0  0  0  0  0  0  0  0  0  0  0  0
  -22.7084  -26.5674   20.6397 N   0  3  0  0  0  0  0  0  0  0  0  0
  -22.6601  -14.7841   21.2980 O   0  0  0  0  0  0  0  0  0  0  0  0
  -29.5428  -31.1855   22.1090 O   0  0  0  0  0  0  0  0  0  0  0  0
  -26.0921  -31.4460   20.6190 O   0  0  0  0  0  0  0  0  0  0  0  0
  -24.7035  -27.3075   22.4804 O   0  0  0  0  0  0  0  0  0  0  0  0
  -31.8627  -14.8248   20.2146 O   0  0  0  0  0  0  0  0  0  0  0  0
  -21.4714   -7.1058   21.7648 O   0  0  0  0  0  0  0  0  0  0  0  0
  -31.0152  -24.7598   22.3268 O   0  0  0  0  0  0  0  0  0  1  0  0
  -23.8147   -3.0411   24.6616 F   0  0  0  0  0  0  0  0  0  0  0  0
  -20.3970   -6.2796   24.1743 F   0  0  0  0  0  0  0  0  0  0  0  0
  1  2  1  0  0  0  0
  1  5  2  0  0  0  0
  2  6  2  0  0  0  0
  3  9  2  0  0  0  0
  3 18  1  0  0  0  0
  4 10  1  0  0  0  0
  4 18  2  0  0  0  0
  5 21  1  0  0  0  0
  6 23  1  0  0  0  0
  7 11  2  0  0  0  0
  7 22  1  0  0  0  0
  8 14  2  0  0  0  0
  8 25  1  0  0  0  0
  9 27  1  0  0  0  0
 10 27  2  0  0  0  0
 11 28  1  0  0  0  0
 12 13  2  0  0  0  0
 12 29  1  0  0  0  0
 13 30  1  0  0  0  0
 14 32  1  0  0  0  0
 15 24  1  0  0  0  0
 15 28  2  0  0  0  0
 16 26  2  0  0  0  0
 16 36  1  0  0  0  0
 17 30  2  0  0  0  0
 17 31  1  0  0  0  0
 18 33  1  0  0  0  0
 19 26  1  0  0  0  0
 19 32  1  0  0  0  0
 19 34  2  0  0  0  0
 20 33  1  0  0  0  0
 20 37  2  0  0  0  0
 20 38  1  0  0  0  0
 21 23  2  0  0  0  0
 21 43  1  0  0  0  0
 22 24  2  0  0  0  0
 22 44  1  0  0  0  0
 23 52  1  0  0  0  0
 24 45  1  0  0  0  0
 25 35  2  0  0  0  0
 25 55  1  0  0  0  0
 26 56  1  0  0  0  0
 27 84  1  0  0  0  0
 28 85  1  0  0  0  0
 29 31  2  0  0  0  0
 29 84  1  0  0  0  0
 30 86  1  0  0  0  0
 31 87  1  0  0  0  0
 32 67  2  0  0  0  0
 33 68  2  0  0  0  0
 34 57  1  0  0  0  0
 34 69  1  0  0  0  0
 35 63  1  0  0  0  0
 35 67  1  0  0  0  0
 36 69  2  0  0  0  0
 36 75  1  0  0  0  0
 37 70  1  0  0  0  0
 37 73  1  0  0  0  0
 38 74  1  0  0  0  0
 38 79  2  0  0  0  0
 39 53  1  0  0  0  0
 39 76  1  0  0  0  0
 39 80  2  0  0  0  0
 40 64  1  0  0  0  0
 40 71  1  0  0  0  0
 40 81  2  0  0  0  0
 41 65  1  0  0  0  0
 41 77  1  0  0  0  0
 41 82  2  0  0  0  0
 42 72  1  0  0  0  0
 42 75  1  0  0  0  0
 42 83  2  0  0  0  0
 43 46  1  0  0  0  0
 44 53  1  0  0  0  0
 45 71  1  0  0  0  0
 46 48  1  0  0  0  0
 47 49  1  0  0  0  0
 47 50  1  0  0  0  0
 48 52  1  0  0  0  0
 49 54  1  0  0  0  0
 50 72  1  0  0  0  0
 51 54  1  0  0  0  0
 51 72  1  0  0  0  0
 52 76  1  0  0  0  0
 53 71  1  0  0  0  0
 54 70  1  0  0  0  0
 58 65  1  0  0  0  0
 59 66  1  0  0  0  0
 60 66  1  0  0  0  0
 61 66  1  0  0  0  0
 62 78  1  0  0  0  0
 63 85  1  0  0  0  0
 64 66  1  0  0  0  0
 64 77  1  0  0  0  0
 65 78  1  0  0  0  0
 68 70  1  0  0  0  0
M  CHG  1  78   1
M  ISO  4  42 100  63 101  75 100  85 101
M  END
> <Batch ID>
0174

> <Smiles>
CNC(C)C(=O)NC(C(=O)N1Cc2cc([101O:1][101CH2:1]c3nc(-c4c(C)cc([100NH:0][100C:0](=O)N5CCCC(n6nc(-c7ccc(Oc8ccc(F)cc8F)cc7)c(C(N)=O)c6N)C5)nc4C)ccc3C)ccc2CC1C(=O)NC1CCCc2ccccc21)C(C)(C)C

> <Shape>
0.291

> <Color>
0.194

> <Negative vol penalty>
0.000

$$$$

  -OEChem-04052322453D

 85 94  0     1  0  0  0  0  0999 V2000
  -21.6412  -12.2970   19.5258 C   0  0  0  0  0  0  0  0  0  0  0  0
  -21.6641  -13.6358   19.9034 C   0  0  0  0  0  0  0  0  0  0  0  0
  -25.9496  -27.9139   21.5458 C   0  0  0  0  0  0  0  0  0  0  0  0
  -24.4298  -29.3562   20.3428 C   0  0  0  0  0  0  0  0  0  0  0  0
  -22.7771  -11.5065   19.6954 C   0  0  0  0  0  0  0  0  0  0  0  0
  -22.8227  -14.1845   20.4520 C   0  0  0  0  0  0  0  0  0  0  0  0
  -23.9410  -18.7184   18.4928 C   0  0  0  0  0  0  0  0  0  0  0  0
  -26.0980  -27.1211   20.4078 C   0  0  0  0  0  0  0  0  0  0  0  0
  -24.5783  -28.5634   19.2048 C   0  0  0  0  0  0  0  0  0  0  0  0
  -23.2113  -19.8111   18.9592 C   0  0  0  0  0  0  0  0  0  0  0  0
  -27.1578  -24.9239   17.7125 C   0  0  0  0  0  0  0  0  0  0  0  0
  -28.4484  -24.5272   17.3624 C   0  0  0  0  0  0  0  0  0  0  0  0
  -25.0397  -20.4019   20.4176 C   0  0  0  0  0  0  0  0  0  0  0  0
  -29.1009  -26.8431   17.1435 C   0  0  0  0  0  0  0  0  0  0  0  0
  -25.1155  -29.0314   21.5133 C   0  0  0  0  0  0  0  0  0  0  0  0
  -25.7345  -30.9691   23.0527 C   0  0  0  0  0  0  0  0  0  0  0  0
  -23.9532  -12.0483   20.2373 C   0  0  0  0  0  0  0  0  0  0  0  0
  -25.2233  -18.4526   18.9942 C   0  0  0  0  0  0  0  0  0  0  0  0
  -23.9750  -13.4002   20.6302 C   0  0  0  0  0  0  0  0  0  0  0  0
  -25.7846  -19.3067   19.9541 C   0  0  0  0  0  0  0  0  0  0  0  0
  -19.9515  -25.3385   21.5322 C   0  0  0  0  0  0  0  0  0  0  0  0
  -21.1446  -25.4904   20.8344 C   0  0  0  0  0  0  0  0  0  0  0  0
  -21.7561  -24.3796   20.2640 C   0  0  0  0  0  0  0  0  0  0  0  0
  -25.4124  -27.4458   19.2373 C   0  0  0  0  0  0  0  0  0  0  0  0
  -23.7595  -20.6513   19.9238 C   0  0  0  0  0  0  0  0  0  0  0  0
  -26.8388  -26.2803   17.7781 C   0  0  0  0  0  0  0  0  0  0  0  0
  -29.4200  -25.4867   17.0779 C   0  0  0  0  0  0  0  0  0  0  0  0
  -27.8103  -27.2398   17.4936 C   0  0  0  0  0  0  0  0  0  0  0  0
  -24.9613  -29.8505   22.6887 C   0  0  0  0  0  0  0  0  0  0  0  0
  -19.4151  -24.0647   21.6301 C   0  0  0  0  0  0  0  0  0  0  0  0
  -21.1390  -23.1487   20.4188 C   0  0  0  0  0  0  0  0  0  0  0  0
  -25.1910  -31.3898   24.2419 C   0  0  0  0  0  0  0  0  0  0  0  0
  -26.8446  -31.5740   22.3763 C   0  0  0  0  0  0  0  0  0  0  0  0
  -26.5543  -16.0456   20.5875 C   0  0  0  0  0  0  0  0  0  0  0  0
  -29.2740  -17.7489   20.1141 C   0  0  0  0  0  0  0  0  0  0  0  0
  -30.7284  -20.7773   19.5138 C   0  0  0  0  0  0  0  0  0  0  0  0
  -20.0735  -29.7760   23.8815 C   0  0  0  0  0  0  0  0  0  0  0  0
  -25.1411  -11.1425   20.4453 C   0  0  0  0  0  0  0  0  0  0  0  0
  -26.0081  -17.2853   18.4613 C   0  0  0  0  0  0  0  0  0  0  0  0
  -27.1654  -19.0766   20.5098 C   0  0  0  0  0  0  0  0  0  0  0  0
  -26.4466  -11.8959   20.6870 C   0  0  0  0  0  0  0  0  0  0  0  0
  -22.0434  -28.7275   27.0126 C   0  0  0  0  0  0  0  0  0  0  0  0
  -26.2393  -13.0085   21.7097 C   0  0  0  0  0  0  0  0  0  0  0  0
  -23.3902  -29.2996   26.5906 C   0  0  0  0  0  0  0  0  0  0  0  0
  -18.8733  -27.6300   21.1805 C   0  0  0  0  0  0  0  0  0  0  0  0
  -21.1686  -28.4702   25.7890 C   0  0  0  0  0  0  0  0  0  0  0  0
  -18.6654  -28.8252   22.0954 C   0  0  0  0  0  0  0  0  0  0  0  0
  -20.1035  -27.2681   23.2091 C   0  0  0  0  0  0  0  0  0  0  0  0
  -21.7741  -30.8346   25.3048 C   0  0  0  0  0  0  0  0  0  0  0  0
  -19.2637  -26.5242   22.1611 C   0  0  2  0  0  0  0  0  0  0  0  0
  -25.2207  -14.0381   21.2059 C   0  0  1  0  0  0  0  0  0  0  0  0
  -27.0998  -16.8132   19.4166 C   0  0  1  0  0  0  0  0  0  0  0  0
  -23.2343  -30.5536   25.7100 C   0  0  2  0  0  0  0  0  0  0  0  0
  -21.7691  -26.8426   20.6999 C   0  0  0  0  0  0  0  0  0  0  0  0
  -23.0366  -24.5097   19.5091 C   0  0  0  0  0  0  0  0  0  0  0  0
  -18.1356  -23.8390   22.3669 C   0  0  0  0  0  0  0  0  0  0  0  0
  -32.5525  -22.4255   19.0103 C   0  0  0  0  0  0  0  0  0  0  0  0
  -29.7434  -17.5989   23.1253 C   0  0  0  0  0  0  0  0  0  0  0  0
  -31.4143  -19.4481   22.8866 C   0  0  0  0  0  0  0  0  0  0  0  0
  -31.7941  -17.2696   21.7321 C   0  0  0  0  0  0  0  0  0  0  0  0
  -30.4059  -20.4182   16.5939 C   0  0  0  0  0  0  0  0  0  0  0  0
  -21.7492  -21.9186   19.8306 C   0  0  0  0  0  0  0  0  0  1  0  0
  -30.0025  -18.8324   20.8720 C   0  0  1  0  0  0  0  0  0  0  0  0
  -31.7913  -21.2045   18.5177 C   0  0  2  0  0  0  0  0  0  0  0  0
  -30.7118  -18.2908   22.1452 C   0  0  0  0  0  0  0  0  0  0  0  0
  -24.0000  -29.5776   23.5750 N   0  0  0  0  0  0  0  0  0  0  0  0
  -19.9801  -22.9620   21.0895 N   0  0  0  0  0  0  0  0  0  0  0  0
  -24.1656  -30.5308   24.5077 N   0  0  0  0  0  0  0  0  0  0  0  0
  -27.8906  -17.9185   19.9617 N   0  0  0  0  0  0  0  0  0  0  0  0
  -21.0196  -29.6362   24.9102 N   0  0  0  0  0  0  0  0  0  0  0  0
  -19.6316  -28.6550   23.1805 N   0  0  0  0  0  0  0  0  0  0  0  0
  -25.4952  -32.4070   25.0757 N   0  0  0  0  0  0  0  0  0  0  0  0
  -27.2740  -31.0149   21.1650 N   0  0  0  0  0  0  0  0  0  0  0  0
  -25.8321  -14.9212   20.2359 N   0  0  0  0  0  0  0  0  0  0  0  0
  -30.8994  -19.4688   19.9133 N   0  0  0  0  0  0  0  0  0  0  0  0
  -31.1678  -21.5373   17.2056 N   0  3  0  0  0  0  0  0  0  0  0  0
  -27.4485  -32.5705   22.8409 O   0  0  0  0  0  0  0  0  0  0  0  0
  -26.7737  -16.4432   21.7257 O   0  0  0  0  0  0  0  0  0  0  0  0
  -29.9102  -16.7911   19.6675 O   0  0  0  0  0  0  0  0  0  0  0  0
  -29.8379  -21.5304   19.9017 O   0  0  0  0  0  0  0  0  0  0  0  0
  -19.6428  -30.8997   23.5766 O   0  0  0  0  0  0  0  0  0  0  0  0
  -25.5572  -26.6726   18.1266 O   0  0  0  0  0  0  0  0  0  0  0  0
  -23.0441  -21.7258   20.3845 O   0  0  0  0  0  0  0  0  0  1  0  0
  -30.6597  -25.1056   16.7432 F   0  0  0  0  0  0  0  0  0  0  0  0
  -27.5101  -28.5443   17.5560 F   0  0  0  0  0  0  0  0  0  0  0  0
  1  2  1  0  0  0  0
  1  5  2  0  0  0  0
  2  6  2  0  0  0  0
  3  8  2  0  0  0  0
  3 15  1  0  0  0  0
  4  9  1  0  0  0  0
  4 15  2  0  0  0  0
  5 17  1  0  0  0  0
  6 19  1  0  0  0  0
  7 10  2  0  0  0  0
  7 18  1  0  0  0  0
  8 24  1  0  0  0  0
  9 24  2  0  0  0  0
 10 25  1  0  0  0  0
 11 12  2  0  0  0  0
 11 26  1  0  0  0  0
 12 27  1  0  0  0  0
 13 20  1  0  0  0  0
 13 25  2  0  0  0  0
 14 27  2  0  0  0  0
 14 28  1  0  0  0  0
 15 29  1  0  0  0  0
 16 29  1  0  0  0  0
 16 32  2  0  0  0  0
 16 33  1  0  0  0  0
 17 19  2  0  0  0  0
 17 38  1  0  0  0  0
 18 20  2  0  0  0  0
 18 39  1  0  0  0  0
 19 51  1  0  0  0  0
 20 40  1  0  0  0  0
 21 22  2  0  0  0  0
 21 30  1  0  0  0  0
 21 50  1  0  0  0  0
 22 23  1  0  0  0  0
 22 54  1  0  0  0  0
 23 31  2  0  0  0  0
 23 55  1  0  0  0  0
 24 82  1  0  0  0  0
 25 83  1  0  0  0  0
 26 28  2  0  0  0  0
 26 82  1  0  0  0  0
 27 84  1  0  0  0  0
 28 85  1  0  0  0  0
 29 66  2  0  0  0  0
 30 56  1  0  0  0  0
 30 67  2  0  0  0  0
 31 62  1  0  0  0  0
 31 67  1  0  0  0  0
 32 68  1  0  0  0  0
 32 72  1  0  0  0  0
 33 73  1  0  0  0  0
 33 77  2  0  0  0  0
 34 52  1  0  0  0  0
 34 74  1  0  0  0  0
 34 78  2  0  0  0  0
 35 63  1  0  0  0  0
 35 69  1  0  0  0  0
 35 79  2  0  0  0  0
 36 64  1  0  0  0  0
 36 75  1  0  0  0  0
 36 80  2  0  0  0  0
 37 70  1  0  0  0  0
 37 71  1  0  0  0  0
 37 81  2  0  0  0  0
 38 41  1  0  0  0  0
 39 52  1  0  0  0  0
 40 69  1  0  0  0  0
 41 43  1  0  0  0  0
 42 44  1  0  0  0  0
 42 46  1  0  0  0  0
 43 51  1  0  0  0  0
 44 53  1  0  0  0  0
 45 47  1  0  0  0  0
 45 50  1  0  0  0  0
 46 70  1  0  0  0  0
 47 71  1  0  0  0  0
 48 50  1  0  0  0  0
 48 71  1  0  0  0  0
 49 53  1  0  0  0  0
 49 70  1  0  0  0  0
 51 74  1  0  0  0  0
 52 69  1  0  0  0  0
 53 68  1  0  0  0  0
 57 64  1  0  0  0  0
 58 65  1  0  0  0  0
 59 65  1  0  0  0  0
 60 65  1  0  0  0  0
 61 76  1  0  0  0  0
 62 83  1  0  0  0  0
 63 65  1  0  0  0  0
 63 75  1  0  0  0  0
 64 76  1  0  0  0  0
 66 68  1  0  0  0  0
M  CHG  1  76   1
M  ISO  4  37 100  62 101  71 100  83 101
M  END
> <Batch ID>
0174

> <Smiles>
CNC(C)C(=O)NC(C(=O)N1Cc2cc([101O:1][101CH2:1]c3nc(C)c(C4CC[100N:0]([100C:0](=O)N5CCCC(n6nc(-c7ccc(Oc8ccc(F)cc8F)cc7)c(C(N)=O)c6N)C5)C4)c(C)c3C)ccc2CC1C(=O)NC1CCCc2ccccc21)C(C)(C)C

> <Shape>
0.241

> <Color>
0.083

> <Negative vol penalty>
0.000

$$$$

  -OEChem-04052322453D

 84 93  0     1  0  0  0  0  0999 V2000
  -28.4735  -36.5959   26.3971 C   0  0  0  0  0  0  0  0  0  0  0  0
  -29.1139  -35.8579   25.4069 C   0  0  0  0  0  0  0  0  0  0  0  0
  -24.5382   -9.7446   19.8054 C   0  0  0  0  0  0  0  0  0  0  0  0
  -24.6910   -9.9041   22.2113 C   0  0  0  0  0  0  0  0  0  0  0  0
  -27.4950  -35.9964   27.1889 C   0  0  0  0  0  0  0  0  0  0  0  0
  -28.7769  -34.5194   25.2085 C   0  0  0  0  0  0  0  0  0  0  0  0
  -28.2388  -29.6072   20.0223 C   0  0  0  0  0  0  0  0  0  0  0  0
  -29.1540  -22.2546   18.0287 C   0  0  0  0  0  0  0  0  0  0  0  0
  -24.2852   -8.3771   19.9121 C   0  0  0  0  0  0  0  0  0  0  0  0
  -24.4379   -8.5365   22.3180 C   0  0  0  0  0  0  0  0  0  0  0  0
  -28.6667  -28.3171   19.7122 C   0  0  0  0  0  0  0  0  0  0  0  0
  -23.4746   -5.1549   23.2426 C   0  0  0  0  0  0  0  0  0  0  0  0
  -22.5562   -4.7378   24.2060 C   0  0  0  0  0  0  0  0  0  0  0  0
  -28.8556  -23.5953   18.2451 C   0  0  0  0  0  0  0  0  0  0  0  0
  -26.9051  -27.4087   21.0872 C   0  0  0  0  0  0  0  0  0  0  0  0
  -20.8387   -6.0630   23.1424 C   0  0  0  0  0  0  0  0  0  0  0  0
  -24.7412  -10.5081   20.9550 C   0  0  0  0  0  0  0  0  0  0  0  0
  -24.0567  -12.9627   20.8366 C   0  0  0  0  0  0  0  0  0  0  0  0
  -27.1389  -34.6526   26.9938 C   0  0  0  0  0  0  0  0  0  0  0  0
  -27.1457  -29.8083   20.8774 C   0  0  0  0  0  0  0  0  0  0  0  0
  -27.7936  -33.9009   25.9994 C   0  0  0  0  0  0  0  0  0  0  0  0
  -30.3989  -21.7569   18.3974 C   0  0  0  0  0  0  0  0  0  0  0  0
  -26.4637  -28.7023   21.4046 C   0  0  0  0  0  0  0  0  0  0  0  0
  -24.2350   -7.7730   21.1684 C   0  0  0  0  0  0  0  0  0  0  0  0
  -28.0017  -27.2176   20.2469 C   0  0  0  0  0  0  0  0  0  0  0  0
  -23.0751   -6.0261   22.2291 C   0  0  0  0  0  0  0  0  0  0  0  0
  -21.2382   -5.1918   24.1559 C   0  0  0  0  0  0  0  0  0  0  0  0
  -21.7571   -6.4801   22.1790 C   0  0  0  0  0  0  0  0  0  0  0  0
  -25.0032  -11.9207   20.8454 C   0  0  0  0  0  0  0  0  0  0  0  0
  -29.8288  -24.3903   18.8287 C   0  0  0  0  0  0  0  0  0  0  0  0
  -31.3031  -22.6343   18.9740 C   0  0  0  0  0  0  0  0  0  0  0  0
  -24.8066  -14.1068   20.7140 C   0  0  0  0  0  0  0  0  0  0  0  0
  -22.6273  -12.9019   20.9310 C   0  0  0  0  0  0  0  0  0  0  0  0
  -26.7345  -31.2083   23.7013 C   0  0  0  0  0  0  0  0  0  0  0  0
  -23.6060  -30.5765   23.1221 C   0  0  0  0  0  0  0  0  0  0  0  0
  -21.2879  -28.6737   21.4934 C   0  0  0  0  0  0  0  0  0  0  0  0
  -28.9684  -16.6040   17.8789 C   0  0  0  0  0  0  0  0  0  0  0  0
  -26.1088  -34.0347   27.9058 C   0  0  0  0  0  0  0  0  0  0  0  0
  -26.6799  -31.2059   21.1808 C   0  0  0  0  0  0  0  0  0  0  0  0
  -25.2721  -28.8640   22.3114 C   0  0  0  0  0  0  0  0  0  0  0  0
  -25.5446  -32.7163   27.3826 C   0  0  0  0  0  0  0  0  0  0  0  0
  -29.7849  -14.8560   21.0865 C   0  0  0  0  0  0  0  0  0  0  0  0
  -26.6707  -31.8087   26.8978 C   0  0  0  0  0  0  0  0  0  0  0  0
  -28.5515  -13.9708   21.2568 C   0  0  0  0  0  0  0  0  0  0  0  0
  -30.4029  -19.4256   19.3897 C   0  0  0  0  0  0  0  0  0  0  0  0
  -30.0393  -19.7404   16.9041 C   0  0  0  0  0  0  0  0  0  0  0  0
  -30.0658  -15.1369   19.6150 C   0  0  0  0  0  0  0  0  0  0  0  0
  -30.7100  -17.9473   19.1349 C   0  0  0  0  0  0  0  0  0  0  0  0
  -30.3798  -18.2661   16.7060 C   0  0  0  0  0  0  0  0  0  0  0  0
  -27.6725  -14.8587   19.0501 C   0  0  0  0  0  0  0  0  0  0  0  0
  -30.7308  -20.2953   18.1627 C   0  0  0  0  0  0  0  0  0  0  0  0
  -27.4381  -32.4535   25.7373 C   0  0  1  0  0  0  0  0  0  0  0  0
  -25.8742  -31.2999   22.4729 C   0  0  1  0  0  0  0  0  0  0  0  0
  -27.3397  -14.5700   20.5231 C   0  0  1  0  0  0  0  0  0  0  0  0
  -32.6542  -22.1548   19.3928 C   0  0  0  0  0  0  0  0  0  0  0  0
  -18.8089  -28.3693   21.2497 C   0  0  0  0  0  0  0  0  0  0  0  0
  -23.5108  -29.1953   25.8411 C   0  0  0  0  0  0  0  0  0  0  0  0
  -21.3630  -28.1165   25.1400 C   0  0  0  0  0  0  0  0  0  0  0  0
  -21.5103  -30.6006   25.3142 C   0  0  0  0  0  0  0  0  0  0  0  0
  -21.3811  -29.2791   18.5979 C   0  0  0  0  0  0  0  0  0  0  0  0
  -29.5418  -25.8336   19.0771 C   0  0  0  0  0  0  0  0  0  1  0  0
  -22.6781  -29.4204   23.4076 C   0  0  1  0  0  0  0  0  0  0  0  0
  -20.0508  -29.0535   20.6998 C   0  0  2  0  0  0  0  0  0  0  0  0
  -22.2892  -29.3298   24.9102 C   0  0  0  0  0  0  0  0  0  0  0  0
  -26.2587  -12.3636   20.7368 N   0  0  0  0  0  0  0  0  0  0  0  0
  -31.0492  -23.9428   19.2001 N   0  0  0  0  0  0  0  0  0  0  0  0
  -26.1062  -13.6965   20.6586 N   0  0  0  0  0  0  0  0  0  0  0  0
  -24.8588  -30.2506   22.5834 N   0  0  0  0  0  0  0  0  0  0  0  0
  -28.8829  -15.6739   18.9284 N   0  0  0  0  0  0  0  0  0  0  0  0
  -30.0584  -17.4869   17.9015 N   0  0  0  0  0  0  0  0  0  0  0  0
  -24.4747  -15.4137   20.6492 N   0  0  0  0  0  0  0  0  0  0  0  0
  -22.0186  -11.6453   21.0522 N   0  0  0  0  0  0  0  0  0  0  0  0
  -26.6883  -32.3310   24.5056 N   0  0  0  0  0  0  0  0  0  0  0  0
  -21.5427  -29.5757   22.5047 N   0  0  0  0  0  0  0  0  0  0  0  0
  -20.2106  -28.6599   19.2714 N   0  3  0  0  0  0  0  0  0  0  0  0
  -21.9101  -13.9303   20.8920 O   0  0  0  0  0  0  0  0  0  0  0  0
  -27.3905  -30.1935   23.9052 O   0  0  0  0  0  0  0  0  0  0  0  0
  -23.2303  -31.7268   23.3612 O   0  0  0  0  0  0  0  0  0  0  0  0
  -21.9587  -27.6747   21.2437 O   0  0  0  0  0  0  0  0  0  0  0  0
  -28.1198  -16.6444   16.9794 O   0  0  0  0  0  0  0  0  0  0  0  0
  -23.9878   -6.4387   21.2729 O   0  0  0  0  0  0  0  0  0  0  0  0
  -28.4207  -25.9485   19.9442 O   0  0  0  0  0  0  0  0  0  1  0  0
  -20.3560   -4.7900   25.0803 F   0  0  0  0  0  0  0  0  0  0  0  0
  -21.3671   -7.3162   21.2071 F   0  0  0  0  0  0  0  0  0  0  0  0
  1  2  1  0  0  0  0
  1  5  2  0  0  0  0
  2  6  2  0  0  0  0
  3  9  2  0  0  0  0
  3 17  1  0  0  0  0
  4 10  1  0  0  0  0
  4 17  2  0  0  0  0
  5 19  1  0  0  0  0
  6 21  1  0  0  0  0
  7 11  2  0  0  0  0
  7 20  1  0  0  0  0
  8 14  2  0  0  0  0
  8 22  1  0  0  0  0
  9 24  1  0  0  0  0
 10 24  2  0  0  0  0
 11 25  1  0  0  0  0
 12 13  2  0  0  0  0
 12 26  1  0  0  0  0
 13 27  1  0  0  0  0
 14 30  1  0  0  0  0
 15 23  1  0  0  0  0
 15 25  2  0  0  0  0
 16 27  2  0  0  0  0
 16 28  1  0  0  0  0
 17 29  1  0  0  0  0
 18 29  1  0  0  0  0
 18 32  2  0  0  0  0
 18 33  1  0  0  0  0
 19 21  2  0  0  0  0
 19 38  1  0  0  0  0
 20 23  2  0  0  0  0
 20 39  1  0  0  0  0
 21 52  1  0  0  0  0
 22 31  2  0  0  0  0
 22 51  1  0  0  0  0
 23 40  1  0  0  0  0
 24 81  1  0  0  0  0
 25 82  1  0  0  0  0
 26 28  2  0  0  0  0
 26 81  1  0  0  0  0
 27 83  1  0  0  0  0
 28 84  1  0  0  0  0
 29 65  2  0  0  0  0
 30 61  1  0  0  0  0
 30 66  2  0  0  0  0
 31 55  1  0  0  0  0
 31 66  1  0  0  0  0
 32 67  1  0  0  0  0
 32 71  1  0  0  0  0
 33 72  1  0  0  0  0
 33 76  2  0  0  0  0
 34 53  1  0  0  0  0
 34 73  1  0  0  0  0
 34 77  2  0  0  0  0
 35 62  1  0  0  0  0
 35 68  1  0  0  0  0
 35 78  2  0  0  0  0
 36 63  1  0  0  0  0
 36 74  1  0  0  0  0
 36 79  2  0  0  0  0
 37 69  1  0  0  0  0
 37 70  1  0  0  0  0
 37 80  2  0  0  0  0
 38 41  1  0  0  0  0
 39 53  1  0  0  0  0
 40 68  1  0  0  0  0
 41 43  1  0  0  0  0
 42 44  1  0  0  0  0
 42 47  1  0  0  0  0
 43 52  1  0  0  0  0
 44 54  1  0  0  0  0
 45 48  1  0  0  0  0
 45 51  1  0  0  0  0
 46 49  1  0  0  0  0
 46 51  1  0  0  0  0
 47 69  1  0  0  0  0
 48 70  1  0  0  0  0
 49 70  1  0  0  0  0
 50 54  1  0  0  0  0
 50 69  1  0  0  0  0
 52 73  1  0  0  0  0
 53 68  1  0  0  0  0
 54 67  1  0  0  0  0
 56 63  1  0  0  0  0
 57 64  1  0  0  0  0
 58 64  1  0  0  0  0
 59 64  1  0  0  0  0
 60 75  1  0  0  0  0
 61 82  1  0  0  0  0
 62 64  1  0  0  0  0
 62 74  1  0  0  0  0
 63 75  1  0  0  0  0
 65 67  1  0  0  0  0
M  CHG  1  75   1
M  ISO  4  37 100  61 101  70 100  82 101
M  END
> <Batch ID>
0174

> <Smiles>
CNC(C)C(=O)NC(C(=O)N1Cc2cc([101O:1][101CH2:1]c3ccc(C4CC[100N:0]([100C:0](=O)N5CCCC(n6nc(-c7ccc(Oc8ccc(F)cc8F)cc7)c(C(N)=O)c6N)C5)CC4)c(C)n3)ccc2CC1C(=O)NC1CCCc2ccccc21)C(C)(C)C

> <Shape>
0.326

> <Color>
0.121

> <Negative vol penalty>
0.000

$$$$

  -OEChem-04052322453D

 88 97  0     1  0  0  0  0  0999 V2000
  -26.6647  -38.4872   22.8851 C   0  0  0  0  0  0  0  0  0  0  0  0
  -27.2971  -37.5505   22.0738 C   0  0  0  0  0  0  0  0  0  0  0  0
  -24.5234  -10.1661   23.1490 C   0  0  0  0  0  0  0  0  0  0  0  0
  -24.4792   -8.6500   21.2684 C   0  0  0  0  0  0  0  0  0  0  0  0
  -25.9296  -38.0656   23.9923 C   0  0  0  0  0  0  0  0  0  0  0  0
  -27.1956  -36.1917   22.3699 C   0  0  0  0  0  0  0  0  0  0  0  0
  -26.9173  -29.7870   19.1732 C   0  0  0  0  0  0  0  0  0  0  0  0
  -23.3770   -9.5608   23.6639 C   0  0  0  0  0  0  0  0  0  0  0  0
  -23.3328   -8.0447   21.7833 C   0  0  0  0  0  0  0  0  0  0  0  0
  -27.5365  -28.5383   19.2075 C   0  0  0  0  0  0  0  0  0  0  0  0
  -22.5719   -5.7949   24.1874 C   0  0  0  0  0  0  0  0  0  0  0  0
  -22.5226   -4.4009   24.1904 C   0  0  0  0  0  0  0  0  0  0  0  0
  -26.1742  -27.9215   21.1003 C   0  0  0  0  0  0  0  0  0  0  0  0
  -30.6307  -23.1190   20.5619 C   0  0  0  0  0  0  0  0  0  0  0  0
  -20.5546   -4.4675   22.7905 C   0  0  0  0  0  0  0  0  0  0  0  0
  -25.0744   -9.7107   21.9512 C   0  0  0  0  0  0  0  0  0  0  0  0
  -27.5960   -9.9797   21.6739 C   0  0  0  0  0  0  0  0  0  0  0  0
  -25.8110  -36.7003   24.2965 C   0  0  0  0  0  0  0  0  0  0  0  0
  -25.9279  -30.1168   20.1106 C   0  0  0  0  0  0  0  0  0  0  0  0
  -26.4593  -35.7515   23.4829 C   0  0  0  0  0  0  0  0  0  0  0  0
  -25.5422  -29.1740   21.0742 C   0  0  0  0  0  0  0  0  0  0  0  0
  -30.1586  -24.4204   20.4327 C   0  0  0  0  0  0  0  0  0  0  0  0
  -29.2922  -24.7398   19.3932 C   0  0  0  0  0  0  0  0  0  0  0  0
  -22.7818   -8.5001   22.9811 C   0  0  0  0  0  0  0  0  0  0  0  0
  -27.1670  -27.6064   20.1729 C   0  0  0  0  0  0  0  0  0  0  0  0
  -21.6125   -6.5252   23.4860 C   0  0  0  0  0  0  0  0  0  0  0  0
  -21.5140   -3.7372   23.4920 C   0  0  0  0  0  0  0  0  0  0  0  0
  -20.6039   -5.8615   22.7875 C   0  0  0  0  0  0  0  0  0  0  0  0
  -26.2583  -10.3359   21.4185 C   0  0  0  0  0  0  0  0  0  0  0  0
  -28.9310  -23.7295   18.5164 C   0  0  0  0  0  0  0  0  0  0  0  0
  -30.2094  -22.1812   19.6330 C   0  0  0  0  0  0  0  0  0  0  0  0
  -28.3357  -10.8716   20.9365 C   0  0  0  0  0  0  0  0  0  0  0  0
  -28.1230   -8.9359   22.5036 C   0  0  0  0  0  0  0  0  0  0  0  0
  -25.6347  -32.3226   22.3805 C   0  0  0  0  0  0  0  0  0  0  0  0
  -22.6332  -31.1163   22.6213 C   0  0  0  0  0  0  0  0  0  0  0  0
  -20.5222  -28.4801   22.1304 C   0  0  0  0  0  0  0  0  0  0  0  0
  -29.4904  -15.8014   19.1561 C   0  0  0  0  0  0  0  0  0  0  0  0
  -25.0450  -36.2955   25.5310 C   0  0  0  0  0  0  0  0  0  0  0  0
  -25.2508  -31.4582   20.0436 C   0  0  0  0  0  0  0  0  0  0  0  0
  -24.4712  -29.4715   22.0905 C   0  0  0  0  0  0  0  0  0  0  0  0
  -24.6759  -34.8146   25.5605 C   0  0  0  0  0  0  0  0  0  0  0  0
  -26.9412  -14.1714   17.3747 C   0  0  0  0  0  0  0  0  0  0  0  0
  -25.8794  -33.9569   25.1825 C   0  0  0  0  0  0  0  0  0  0  0  0
  -26.6377  -12.9883   18.2935 C   0  0  0  0  0  0  0  0  0  0  0  0
  -28.9450  -19.2775   19.2431 C   0  0  0  0  0  0  0  0  0  0  0  0
  -31.3859  -18.6962   18.9753 C   0  0  0  0  0  0  0  0  0  0  0  0
  -27.1844  -15.4605   18.1615 C   0  0  0  0  0  0  0  0  0  0  0  0
  -28.5780  -18.0458   18.4101 C   0  0  0  0  0  0  0  0  0  0  0  0
  -30.9733  -17.4965   18.1270 C   0  0  0  0  0  0  0  0  0  0  0  0
  -27.9180  -14.1535   20.1293 C   0  0  0  0  0  0  0  0  0  0  0  0
  -26.3520  -34.2671   23.7571 C   0  0  1  0  0  0  0  0  0  0  0  0
  -24.6187  -31.8754   21.3679 C   0  0  1  0  0  0  0  0  0  0  0  0
  -27.7265  -12.8315   19.3700 C   0  0  1  0  0  0  0  0  0  0  0  0
  -30.3354  -19.8060   18.8831 C   0  0  0  0  0  0  0  0  0  0  0  0
  -28.0036  -24.0134   17.3803 C   0  0  0  0  0  0  0  0  0  0  0  0
  -32.1159  -25.6908   21.3860 C   0  0  0  0  0  0  0  0  0  0  0  0
  -30.1465  -25.1226   22.8536 C   0  0  0  0  0  0  0  0  0  0  0  0
  -18.1350  -27.7801   22.4604 C   0  0  0  0  0  0  0  0  0  0  0  0
  -23.1584  -30.7396   25.6032 C   0  0  0  0  0  0  0  0  0  0  0  0
  -21.1797  -29.2080   25.6873 C   0  0  0  0  0  0  0  0  0  0  0  0
  -20.8771  -31.5998   25.0463 C   0  0  0  0  0  0  0  0  0  0  0  0
  -20.1182  -28.0744   19.2267 C   0  0  0  0  0  0  0  0  0  0  0  0
  -28.7733  -26.1287   19.2282 C   0  0  0  0  0  0  0  0  0  1  0  0
  -30.5947  -25.4537   21.4181 C   0  0  0  0  0  0  0  0  0  0  0  0
  -21.9858  -30.0118   23.4212 C   0  0  1  0  0  0  0  0  0  0  0  0
  -19.1423  -28.3979   21.5030 C   0  0  2  0  0  0  0  0  0  0  0  0
  -21.8218  -30.3846   24.9217 C   0  0  0  0  0  0  0  0  0  0  0  0
  -26.1513  -11.3734   20.5840 N   0  0  0  0  0  0  0  0  0  0  0  0
  -29.3688  -22.4539   18.6099 N   0  0  0  0  0  0  0  0  0  0  0  0
  -27.4312  -11.6767   20.3088 N   0  0  0  0  0  0  0  0  0  0  0  0
  -23.8431  -30.7991   21.9878 N   0  0  0  0  0  0  0  0  0  0  0  0
  -28.2008  -15.2511   19.2020 N   0  0  0  0  0  0  0  0  0  0  0  0
  -29.6357  -17.0283   18.4915 N   0  0  0  0  0  0  0  0  0  0  0  0
  -29.6650  -11.0380   20.7702 N   0  0  0  0  0  0  0  0  0  0  0  0
  -27.2229   -8.1103   23.1912 N   0  0  0  0  0  0  0  0  0  0  0  0
  -30.6874  -20.8904   19.7730 N   0  0  0  0  0  0  0  0  0  0  0  0
  -25.4835  -33.6344   22.7877 N   0  0  0  0  0  0  0  0  0  0  0  0
  -20.7329  -29.6972   22.7433 N   0  0  0  0  0  0  0  0  0  0  0  0
  -19.1844  -27.5686   20.2655 N   0  3  0  0  0  0  0  0  0  0  0  0
  -29.3557   -8.7513   22.6444 O   0  0  0  0  0  0  0  0  0  0  0  0
  -26.4914  -31.5353   22.7652 O   0  0  0  0  0  0  0  0  0  0  0  0
  -22.0818  -32.2178   22.5548 O   0  0  0  0  0  0  0  0  0  0  0  0
  -21.3308  -27.5557   22.0848 O   0  0  0  0  0  0  0  0  0  0  0  0
  -30.4559  -15.2302   19.6784 O   0  0  0  0  0  0  0  0  0  0  0  0
  -21.6633   -7.9091   23.4834 O   0  0  0  0  0  0  0  0  0  0  0  0
  -27.7744  -26.3786   20.2092 O   0  0  0  0  0  0  0  0  0  1  0  0
  -21.4677   -2.3986   23.4937 F   0  0  0  0  0  0  0  0  0  0  0  0
  -19.6802   -6.5577   22.1109 F   0  0  0  0  0  0  0  0  0  0  0  0
  1  2  1  0  0  0  0
  1  5  2  0  0  0  0
  2  6  2  0  0  0  0
  3  8  2  0  0  0  0
  3 16  1  0  0  0  0
  4  9  1  0  0  0  0
  4 16  2  0  0  0  0
  5 18  1  0  0  0  0
  6 20  1  0  0  0  0
  7 10  2  0  0  0  0
  7 19  1  0  0  0  0
  8 24  1  0  0  0  0
  9 24  2  0  0  0  0
 10 25  1  0  0  0  0
 11 12  2  0  0  0  0
 11 26  1  0  0  0  0
 12 27  1  0  0  0  0
 13 21  1  0  0  0  0
 13 25  2  0  0  0  0
 14 22  2  0  0  0  0
 14 31  1  0  0  0  0
 15 27  2  0  0  0  0
 15 28  1  0  0  0  0
 16 29  1  0  0  0  0
 17 29  1  0  0  0  0
 17 32  2  0  0  0  0
 17 33  1  0  0  0  0
 18 20  2  0  0  0  0
 18 38  1  0  0  0  0
 19 21  2  0  0  0  0
 19 39  1  0  0  0  0
 20 51  1  0  0  0  0
 21 40  1  0  0  0  0
 22 23  1  0  0  0  0
 22 64  1  0  0  0  0
 23 30  2  0  0  0  0
 23 63  1  0  0  0  0
 24 85  1  0  0  0  0
 25 86  1  0  0  0  0
 26 28  2  0  0  0  0
 26 85  1  0  0  0  0
 27 87  1  0  0  0  0
 28 88  1  0  0  0  0
 29 68  2  0  0  0  0
 30 55  1  0  0  0  0
 30 69  1  0  0  0  0
 31 69  2  0  0  0  0
 31 76  1  0  0  0  0
 32 70  1  0  0  0  0
 32 74  1  0  0  0  0
 33 75  1  0  0  0  0
 33 80  2  0  0  0  0
 34 52  1  0  0  0  0
 34 77  1  0  0  0  0
 34 81  2  0  0  0  0
 35 65  1  0  0  0  0
 35 71  1  0  0  0  0
 35 82  2  0  0  0  0
 36 66  1  0  0  0  0
 36 78  1  0  0  0  0
 36 83  2  0  0  0  0
 37 72  1  0  0  0  0
 37 73  1  0  0  0  0
 37 84  2  0  0  0  0
 38 41  1  0  0  0  0
 39 52  1  0  0  0  0
 40 71  1  0  0  0  0
 41 43  1  0  0  0  0
 42 44  1  0  0  0  0
 42 47  1  0  0  0  0
 43 51  1  0  0  0  0
 44 53  1  0  0  0  0
 45 48  1  0  0  0  0
 45 54  1  0  0  0  0
 46 49  1  0  0  0  0
 46 54  1  0  0  0  0
 47 72  1  0  0  0  0
 48 73  1  0  0  0  0
 49 73  1  0  0  0  0
 50 53  1  0  0  0  0
 50 72  1  0  0  0  0
 51 77  1  0  0  0  0
 52 71  1  0  0  0  0
 53 70  1  0  0  0  0
 54 76  1  0  0  0  0
 56 64  1  0  0  0  0
 57 64  1  0  0  0  0
 58 66  1  0  0  0  0
 59 67  1  0  0  0  0
 60 67  1  0  0  0  0
 61 67  1  0  0  0  0
 62 79  1  0  0  0  0
 63 86  1  0  0  0  0
 65 67  1  0  0  0  0
 65 78  1  0  0  0  0
 66 79  1  0  0  0  0
 68 70  1  0  0  0  0
M  CHG  1  79   1
M  ISO  4  37 100  63 101  73 100  86 101
M  END
> <Batch ID>
0174

> <Smiles>
CNC(C)C(=O)NC(C(=O)N1Cc2cc([101O:1][101CH2:1]c3c(C(C)C)cc(NC4CC[100N:0]([100C:0](=O)N5CCCC(n6nc(-c7ccc(Oc8ccc(F)cc8F)cc7)c(C(N)=O)c6N)C5)CC4)nc3C)ccc2CC1C(=O)NC1CCCc2ccccc21)C(C)(C)C

> <Shape>
0.330

> <Color>
0.102

> <Negative vol penalty>
0.000

$$$$

  -OEChem-04052322453D

 86 95  0     1  0  0  0  0  0999 V2000
  -29.5347  -32.7102   24.0287 C   0  0  0  0  0  0  0  0  0  0  0  0
  -29.6035  -32.1537   22.7555 C   0  0  0  0  0  0  0  0  0  0  0  0
  -23.0896  -10.0626   19.9290 C   0  0  0  0  0  0  0  0  0  0  0  0
  -23.7585   -9.9422   22.2475 C   0  0  0  0  0  0  0  0  0  0  0  0
  -28.9906  -31.9750   25.0811 C   0  0  0  0  0  0  0  0  0  0  0  0
  -29.1293  -30.8612   22.5342 C   0  0  0  0  0  0  0  0  0  0  0  0
  -25.9710  -26.8587   17.5021 C   0  0  0  0  0  0  0  0  0  0  0  0
  -22.2888   -8.9337   20.1015 C   0  0  0  0  0  0  0  0  0  0  0  0
  -22.9576   -8.8133   22.4199 C   0  0  0  0  0  0  0  0  0  0  0  0
  -26.1274  -25.6431   16.8376 C   0  0  0  0  0  0  0  0  0  0  0  0
  -19.2550   -8.2074   21.4059 C   0  0  0  0  0  0  0  0  0  0  0  0
  -17.9673   -8.2382   20.8705 C   0  0  0  0  0  0  0  0  0  0  0  0
  -25.1358  -24.4965   18.7140 C   0  0  0  0  0  0  0  0  0  0  0  0
  -18.4964   -6.3285   19.4883 C   0  0  0  0  0  0  0  0  0  0  0  0
  -25.6132  -21.5687   13.9340 C   0  0  0  0  0  0  0  0  0  0  0  0
  -23.8246  -10.5668   21.0020 C   0  0  0  0  0  0  0  0  0  0  0  0
  -24.2766  -13.0775   21.0029 C   0  0  0  0  0  0  0  0  0  0  0  0
  -28.5007  -30.6764   24.8704 C   0  0  0  0  0  0  0  0  0  0  0  0
  -25.4048  -26.9011   18.7844 C   0  0  0  0  0  0  0  0  0  0  0  0
  -28.5795  -30.1074   23.5850 C   0  0  0  0  0  0  0  0  0  0  0  0
  -24.9710  -25.7141   19.3917 C   0  0  0  0  0  0  0  0  0  0  0  0
  -26.5051  -21.9370   14.9283 C   0  0  0  0  0  0  0  0  0  0  0  0
  -27.4268  -20.9895   15.3594 C   0  0  0  0  0  0  0  0  0  0  0  0
  -27.4284  -19.7205   14.7911 C   0  0  0  0  0  0  0  0  0  0  0  0
  -22.2227   -8.3090   21.3469 C   0  0  0  0  0  0  0  0  0  0  0  0
  -25.7125  -24.4614   17.4446 C   0  0  0  0  0  0  0  0  0  0  0  0
  -20.1634   -7.2373   20.9825 C   0  0  0  0  0  0  0  0  0  0  0  0
  -17.5881   -7.2987   19.9118 C   0  0  0  0  0  0  0  0  0  0  0  0
  -19.7841   -6.2978   20.0237 C   0  0  0  0  0  0  0  0  0  0  0  0
  -24.6525  -11.7326   20.8244 C   0  0  0  0  0  0  0  0  0  0  0  0
  -26.4951  -19.4513   13.8031 C   0  0  0  0  0  0  0  0  0  0  0  0
  -25.4127  -13.7929   20.7131 C   0  0  0  0  0  0  0  0  0  0  0  0
  -23.0134  -13.6305   21.3956 C   0  0  0  0  0  0  0  0  0  0  0  0
  -26.4194  -27.8132   21.6553 C   0  0  0  0  0  0  0  0  0  0  0  0
  -23.3392  -27.2403   22.4959 C   0  0  0  0  0  0  0  0  0  0  0  0
  -20.4180  -25.5974   21.8523 C   0  0  0  0  0  0  0  0  0  0  0  0
  -29.7403  -14.5685   17.1709 C   0  0  0  0  0  0  0  0  0  0  0  0
  -27.9647  -29.9027   26.0489 C   0  0  0  0  0  0  0  0  0  0  0  0
  -25.2186  -28.2233   19.4768 C   0  0  0  0  0  0  0  0  0  0  0  0
  -24.3385  -25.7079   20.7586 C   0  0  0  0  0  0  0  0  0  0  0  0
  -27.1417  -28.6800   25.6514 C   0  0  0  0  0  0  0  0  0  0  0  0
  -30.1842  -12.2775   20.0041 C   0  0  0  0  0  0  0  0  0  0  0  0
  -27.8618  -27.8803   24.5703 C   0  0  0  0  0  0  0  0  0  0  0  0
  -28.7464  -12.0078   20.4501 C   0  0  0  0  0  0  0  0  0  0  0  0
  -27.6575  -17.5968   17.2601 C   0  0  0  0  0  0  0  0  0  0  0  0
  -30.2742  -12.5633   18.5068 C   0  0  0  0  0  0  0  0  0  0  0  0
  -27.8019  -16.1515   17.7252 C   0  0  0  0  0  0  0  0  0  0  0  0
  -27.9417  -13.3581   18.4782 C   0  0  0  0  0  0  0  0  0  0  0  0
  -29.1012  -16.4835   15.7336 C   0  0  0  0  0  0  0  0  0  0  0  0
  -28.0529  -28.7176   23.2999 C   0  0  1  0  0  0  0  0  0  0  0  0
  -25.1003  -28.0927   20.9922 C   0  0  1  0  0  0  0  0  0  0  0  0
  -27.8019  -13.1340   19.9903 C   0  0  1  0  0  0  0  0  0  0  0  0
  -27.9587  -17.4873   15.7694 C   0  0  2  0  0  0  0  0  0  0  0  0
  -26.4455  -18.1064   13.1533 C   0  0  0  0  0  0  0  0  0  0  0  0
  -18.0881  -25.3018   22.7364 C   0  0  0  0  0  0  0  0  0  0  0  0
  -24.4104  -25.4308   24.7068 C   0  0  0  0  0  0  0  0  0  0  0  0
  -22.1164  -24.4510   24.9206 C   0  0  0  0  0  0  0  0  0  0  0  0
  -22.4835  -26.8747   25.3825 C   0  0  0  0  0  0  0  0  0  0  0  0
  -19.2154  -26.6706   19.3701 C   0  0  0  0  0  0  0  0  0  0  0  0
  -28.4102  -21.3402   16.4308 C   0  0  0  0  0  0  0  0  0  0  0  0
  -26.4570  -23.3113   15.5007 C   0  0  0  0  0  0  0  0  0  1  0  0
  -22.5735  -26.0399   22.9978 C   0  0  1  0  0  0  0  0  0  0  0  0
  -18.9817  -26.0845   21.7869 C   0  0  2  0  0  0  0  0  0  0  0  0
  -22.9096  -25.6987   24.4770 C   0  0  0  0  0  0  0  0  0  0  0  0
  -25.5843  -20.3459   13.3582 N   0  0  0  0  0  0  0  0  0  0  0  0
  -25.9277  -11.5990   20.4501 N   0  0  0  0  0  0  0  0  0  0  0  0
  -26.3629  -12.8691   20.3909 N   0  0  0  0  0  0  0  0  0  0  0  0
  -24.1838  -27.0251   21.3977 N   0  0  0  0  0  0  0  0  0  0  0  0
  -29.3392  -13.6191   18.1171 N   0  0  0  0  0  0  0  0  0  0  0  0
  -28.8445  -15.5912   16.8617 N   0  0  0  0  0  0  0  0  0  0  0  0
  -25.6815  -15.1158   20.7050 N   0  0  0  0  0  0  0  0  0  0  0  0
  -21.9518  -12.7533   21.6555 N   0  0  0  0  0  0  0  0  0  0  0  0
  -28.3370  -18.7544   15.2016 N   0  0  0  0  0  0  0  0  0  0  0  0
  -26.8169  -28.7881   22.5504 N   0  0  0  0  0  0  0  0  0  0  0  0
  -21.1633  -26.3249   22.7559 N   0  0  0  0  0  0  0  0  0  0  0  0
  -29.6795  -21.9047   15.8997 N   0  3  0  0  0  0  0  0  0  0  0  0
  -18.4457  -25.9328   20.4046 N   0  3  0  0  0  0  0  0  0  0  0  0
  -22.8270  -14.8669   21.4965 O   0  0  0  0  0  0  0  0  0  0  0  0
  -27.0305  -26.7882   21.3768 O   0  0  0  0  0  0  0  0  0  0  0  0
  -23.1878  -28.3304   23.0532 O   0  0  0  0  0  0  0  0  0  0  0  0
  -20.8359  -24.6625   21.1727 O   0  0  0  0  0  0  0  0  0  0  0  0
  -30.8673  -14.5318   16.6594 O   0  0  0  0  0  0  0  0  0  0  0  0
  -21.4411   -7.2076   21.5156 O   0  0  0  0  0  0  0  0  0  0  0  0
  -25.8656  -23.2656   16.7941 O   0  0  0  0  0  0  0  0  0  1  0  0
  -16.3510   -7.3274   19.3988 F   0  0  0  0  0  0  0  0  0  0  0  0
  -20.6521   -5.3626   19.6139 F   0  0  0  0  0  0  0  0  0  0  0  0
  1  2  1  0  0  0  0
  1  5  2  0  0  0  0
  2  6  2  0  0  0  0
  3  8  2  0  0  0  0
  3 16  1  0  0  0  0
  4  9  1  0  0  0  0
  4 16  2  0  0  0  0
  5 18  1  0  0  0  0
  6 20  1  0  0  0  0
  7 10  2  0  0  0  0
  7 19  1  0  0  0  0
  8 25  1  0  0  0  0
  9 25  2  0  0  0  0
 10 26  1  0  0  0  0
 11 12  2  0  0  0  0
 11 27  1  0  0  0  0
 12 28  1  0  0  0  0
 13 21  1  0  0  0  0
 13 26  2  0  0  0  0
 14 28  2  0  0  0  0
 14 29  1  0  0  0  0
 15 22  1  0  0  0  0
 15 65  2  0  0  0  0
 16 30  1  0  0  0  0
 17 30  1  0  0  0  0
 17 32  2  0  0  0  0
 17 33  1  0  0  0  0
 18 20  2  0  0  0  0
 18 38  1  0  0  0  0
 19 21  2  0  0  0  0
 19 39  1  0  0  0  0
 20 50  1  0  0  0  0
 21 40  1  0  0  0  0
 22 23  2  0  0  0  0
 22 61  1  0  0  0  0
 23 24  1  0  0  0  0
 23 60  1  0  0  0  0
 24 31  2  0  0  0  0
 24 73  1  0  0  0  0
 25 83  1  0  0  0  0
 26 84  1  0  0  0  0
 27 29  2  0  0  0  0
 27 83  1  0  0  0  0
 28 85  1  0  0  0  0
 29 86  1  0  0  0  0
 30 66  2  0  0  0  0
 31 54  1  0  0  0  0
 31 65  1  0  0  0  0
 32 67  1  0  0  0  0
 32 71  1  0  0  0  0
 33 72  1  0  0  0  0
 33 78  2  0  0  0  0
 34 51  1  0  0  0  0
 34 74  1  0  0  0  0
 34 79  2  0  0  0  0
 35 62  1  0  0  0  0
 35 68  1  0  0  0  0
 35 80  2  0  0  0  0
 36 63  1  0  0  0  0
 36 75  1  0  0  0  0
 36 81  2  0  0  0  0
 37 69  1  0  0  0  0
 37 70  1  0  0  0  0
 37 82  2  0  0  0  0
 38 41  1  0  0  0  0
 39 51  1  0  0  0  0
 40 68  1  0  0  0  0
 41 43  1  0  0  0  0
 42 44  1  0  0  0  0
 42 46  1  0  0  0  0
 43 50  1  0  0  0  0
 44 52  1  0  0  0  0
 45 47  1  0  0  0  0
 45 53  1  0  0  0  0
 46 69  1  0  0  0  0
 47 70  1  0  0  0  0
 48 52  1  0  0  0  0
 48 69  1  0  0  0  0
 49 53  1  0  0  0  0
 49 70  1  0  0  0  0
 50 74  1  0  0  0  0
 51 68  1  0  0  0  0
 52 67  1  0  0  0  0
 53 73  1  0  0  0  0
 55 63  1  0  0  0  0
 56 64  1  0  0  0  0
 57 64  1  0  0  0  0
 58 64  1  0  0  0  0
 59 77  1  0  0  0  0
 60 76  1  0  0  0  0
 61 84  1  0  0  0  0
 62 64  1  0  0  0  0
 62 75  1  0  0  0  0
 63 77  1  0  0  0  0
 66 67  1  0  0  0  0
M  CHG  2  76   1  77   1
M  ISO  4  37 100  61 101  70 100  84 101
M  END
> <Batch ID>
0174

> <Smiles>
CNC(C)C(=O)NC(C(=O)N1Cc2cc([101O:1][101CH2:1]c3cnc(C)c(NC4CC[100N:0]([100C:0](=O)N5CCCC(n6nc(-c7ccc(Oc8ccc(F)cc8F)cc7)c(C(N)=O)c6N)C5)C4)c3CN)ccc2CC1C(=O)NC1CCCc2ccccc21)C(C)(C)C

> <Shape>
0.203

> <Color>
0.169

> <Negative vol penalty>
0.000

$$$$

  -OEChem-04052322453D

 86 95  0     1  0  0  0  0  0999 V2000
  -26.6731  -38.4618   22.9694 C   0  0  0  0  0  0  0  0  0  0  0  0
  -27.3097  -37.5300   22.1558 C   0  0  0  0  0  0  0  0  0  0  0  0
  -24.5189  -10.1675   23.1540 C   0  0  0  0  0  0  0  0  0  0  0  0
  -24.4906   -8.6469   21.2768 C   0  0  0  0  0  0  0  0  0  0  0  0
  -25.9305  -38.0333   24.0689 C   0  0  0  0  0  0  0  0  0  0  0  0
  -27.2050  -36.1693   22.4419 C   0  0  0  0  0  0  0  0  0  0  0  0
  -26.9410  -29.7869   19.1998 C   0  0  0  0  0  0  0  0  0  0  0  0
  -23.3688   -9.5630   23.6611 C   0  0  0  0  0  0  0  0  0  0  0  0
  -23.3405   -8.0422   21.7839 C   0  0  0  0  0  0  0  0  0  0  0  0
  -27.5587  -28.5374   19.2294 C   0  0  0  0  0  0  0  0  0  0  0  0
  -22.5613   -5.7979   24.1874 C   0  0  0  0  0  0  0  0  0  0  0  0
  -22.5127   -4.4040   24.1934 C   0  0  0  0  0  0  0  0  0  0  0  0
  -26.1838  -27.9090   21.1093 C   0  0  0  0  0  0  0  0  0  0  0  0
  -30.6409  -23.1167   20.5847 C   0  0  0  0  0  0  0  0  0  0  0  0
  -20.5560   -4.4661   22.7775 C   0  0  0  0  0  0  0  0  0  0  0  0
  -25.0799   -9.7095   21.9617 C   0  0  0  0  0  0  0  0  0  0  0  0
  -27.6035   -9.9791   21.7042 C   0  0  0  0  0  0  0  0  0  0  0  0
  -25.8087  -36.6661   24.3631 C   0  0  0  0  0  0  0  0  0  0  0  0
  -25.9460  -30.1113   20.1331 C   0  0  0  0  0  0  0  0  0  0  0  0
  -26.4613  -35.7223   23.5472 C   0  0  0  0  0  0  0  0  0  0  0  0
  -25.5532  -29.1623   21.0877 C   0  0  0  0  0  0  0  0  0  0  0  0
  -30.1690  -24.4176   20.4498 C   0  0  0  0  0  0  0  0  0  0  0  0
  -29.3100  -24.7346   19.4033 C   0  0  0  0  0  0  0  0  0  0  0  0
  -22.7796   -8.5003   22.9761 C   0  0  0  0  0  0  0  0  0  0  0  0
  -27.1822  -27.5992   20.1861 C   0  0  0  0  0  0  0  0  0  0  0  0
  -21.6073   -6.5260   23.4764 C   0  0  0  0  0  0  0  0  0  0  0  0
  -21.5100   -3.7380   23.4884 C   0  0  0  0  0  0  0  0  0  0  0  0
  -20.6047   -5.8601   22.7715 C   0  0  0  0  0  0  0  0  0  0  0  0
  -26.2676  -10.3340   21.4371 C   0  0  0  0  0  0  0  0  0  0  0  0
  -30.2272  -22.1769   19.6544 C   0  0  0  0  0  0  0  0  0  0  0  0
  -28.9560  -23.7224   18.5258 C   0  0  0  0  0  0  0  0  0  0  0  0
  -28.3486  -10.8696   20.9705 C   0  0  0  0  0  0  0  0  0  0  0  0
  -28.1242   -8.9376   22.5407 C   0  0  0  0  0  0  0  0  0  0  0  0
  -25.6404  -32.3018   22.4161 C   0  0  0  0  0  0  0  0  0  0  0  0
  -22.6362  -31.0969   22.6295 C   0  0  0  0  0  0  0  0  0  0  0  0
  -20.5258  -28.4663   22.1071 C   0  0  0  0  0  0  0  0  0  0  0  0
  -29.5153  -15.7956   19.1874 C   0  0  0  0  0  0  0  0  0  0  0  0
  -25.0344  -36.2537   25.5899 C   0  0  0  0  0  0  0  0  0  0  0  0
  -25.2705  -31.4538   20.0709 C   0  0  0  0  0  0  0  0  0  0  0  0
  -24.4760  -29.4539   22.0992 C   0  0  0  0  0  0  0  0  0  0  0  0
  -24.6637  -34.7730   25.6069 C   0  0  0  0  0  0  0  0  0  0  0  0
  -26.9813  -14.1599   17.3895 C   0  0  0  0  0  0  0  0  0  0  0  0
  -25.8687  -33.9166   25.2308 C   0  0  0  0  0  0  0  0  0  0  0  0
  -26.6710  -12.9789   18.3088 C   0  0  0  0  0  0  0  0  0  0  0  0
  -28.9674  -19.2716   19.2615 C   0  0  0  0  0  0  0  0  0  0  0  0
  -31.4107  -18.6909   19.0148 C   0  0  0  0  0  0  0  0  0  0  0  0
  -27.2175  -15.4511   18.1751 C   0  0  0  0  0  0  0  0  0  0  0  0
  -28.6078  -18.0377   18.4285 C   0  0  0  0  0  0  0  0  0  0  0  0
  -31.0055  -17.4889   18.1661 C   0  0  0  0  0  0  0  0  0  0  0  0
  -27.9358  -14.1493   20.1520 C   0  0  0  0  0  0  0  0  0  0  0  0
  -26.3508  -34.2361   23.8105 C   0  0  1  0  0  0  0  0  0  0  0  0
  -24.6305  -31.8625   21.3940 C   0  0  1  0  0  0  0  0  0  0  0  0
  -27.7511  -12.8253   19.3944 C   0  0  1  0  0  0  0  0  0  0  0  0
  -30.3604  -19.7999   18.9114 C   0  0  0  0  0  0  0  0  0  0  0  0
  -30.5980  -25.4519   21.4376 C   0  0  0  0  0  0  0  0  0  0  0  0
  -18.1360  -27.7664   22.4171 C   0  0  0  0  0  0  0  0  0  0  0  0
  -23.1421  -30.6993   25.6121 C   0  0  0  0  0  0  0  0  0  0  0  0
  -21.1613  -29.1692   25.6730 C   0  0  0  0  0  0  0  0  0  0  0  0
  -20.8652  -31.5655   25.0465 C   0  0  0  0  0  0  0  0  0  0  0  0
  -20.1400  -28.0808   19.1982 C   0  0  0  0  0  0  0  0  0  0  0  0
  -28.7929  -26.1260   19.2421 C   0  0  0  0  0  0  0  0  0  1  0  0
  -21.9827  -29.9876   23.4177 C   0  0  1  0  0  0  0  0  0  0  0  0
  -19.1499  -28.3898   21.4704 C   0  0  2  0  0  0  0  0  0  0  0  0
  -21.8095  -30.3503   24.9196 C   0  0  0  0  0  0  0  0  0  0  0  0
  -26.1669  -11.3694   20.5992 N   0  0  0  0  0  0  0  0  0  0  0  0
  -29.3939  -22.4472   18.6247 N   0  0  0  0  0  0  0  0  0  0  0  0
  -27.4488  -11.6727   20.3336 N   0  0  0  0  0  0  0  0  0  0  0  0
  -23.8499  -30.7828   22.0016 N   0  0  0  0  0  0  0  0  0  0  0  0
  -28.2255  -15.2448   19.2243 N   0  0  0  0  0  0  0  0  0  0  0  0
  -29.6653  -17.0209   18.5210 N   0  0  0  0  0  0  0  0  0  0  0  0
  -28.0809  -24.0386   17.4567 N   0  0  0  0  0  0  0  0  0  0  0  0
  -29.6792  -11.0362   20.8146 N   0  0  0  0  0  0  0  0  0  0  0  0
  -27.2191   -8.1133   23.2230 N   0  0  0  0  0  0  0  0  0  0  0  0
  -30.7047  -20.8867   19.8015 N   0  0  0  0  0  0  0  0  0  0  0  0
  -25.4879  -33.6109   22.8313 N   0  0  0  0  0  0  0  0  0  0  0  0
  -20.7338  -29.6789   22.7296 N   0  0  0  0  0  0  0  0  0  0  0  0
  -19.1991  -27.5689   20.2276 N   0  3  0  0  0  0  0  0  0  0  0  0
  -29.3559   -8.7540   22.6918 O   0  0  0  0  0  0  0  0  0  0  0  0
  -26.4939  -31.5110   22.8008 O   0  0  0  0  0  0  0  0  0  0  0  0
  -22.0864  -32.1994   22.5670 O   0  0  0  0  0  0  0  0  0  0  0  0
  -21.3338  -27.5414   22.0603 O   0  0  0  0  0  0  0  0  0  0  0  0
  -30.4767  -15.2262   19.7189 O   0  0  0  0  0  0  0  0  0  0  0  0
  -21.6574   -7.9099   23.4708 O   0  0  0  0  0  0  0  0  0  0  0  0
  -27.7883  -26.3705   20.2179 O   0  0  0  0  0  0  0  0  0  1  0  0
  -21.4644   -2.3994   23.4930 F   0  0  0  0  0  0  0  0  0  0  0  0
  -19.6861   -6.5542   22.0857 F   0  0  0  0  0  0  0  0  0  0  0  0
  1  2  1  0  0  0  0
  1  5  2  0  0  0  0
  2  6  2  0  0  0  0
  3  8  2  0  0  0  0
  3 16  1  0  0  0  0
  4  9  1  0  0  0  0
  4 16  2  0  0  0  0
  5 18  1  0  0  0  0
  6 20  1  0  0  0  0
  7 10  2  0  0  0  0
  7 19  1  0  0  0  0
  8 24  1  0  0  0  0
  9 24  2  0  0  0  0
 10 25  1  0  0  0  0
 11 12  2  0  0  0  0
 11 26  1  0  0  0  0
 12 27  1  0  0  0  0
 13 21  1  0  0  0  0
 13 25  2  0  0  0  0
 14 22  2  0  0  0  0
 14 30  1  0  0  0  0
 15 27  2  0  0  0  0
 15 28  1  0  0  0  0
 16 29  1  0  0  0  0
 17 29  1  0  0  0  0
 17 32  2  0  0  0  0
 17 33  1  0  0  0  0
 18 20  2  0  0  0  0
 18 38  1  0  0  0  0
 19 21  2  0  0  0  0
 19 39  1  0  0  0  0
 20 51  1  0  0  0  0
 21 40  1  0  0  0  0
 22 23  1  0  0  0  0
 22 55  1  0  0  0  0
 23 31  2  0  0  0  0
 23 61  1  0  0  0  0
 24 83  1  0  0  0  0
 25 84  1  0  0  0  0
 26 28  2  0  0  0  0
 26 83  1  0  0  0  0
 27 85  1  0  0  0  0
 28 86  1  0  0  0  0
 29 65  2  0  0  0  0
 30 66  2  0  0  0  0
 30 74  1  0  0  0  0
 31 66  1  0  0  0  0
 31 71  1  0  0  0  0
 32 67  1  0  0  0  0
 32 72  1  0  0  0  0
 33 73  1  0  0  0  0
 33 78  2  0  0  0  0
 34 52  1  0  0  0  0
 34 75  1  0  0  0  0
 34 79  2  0  0  0  0
 35 62  1  0  0  0  0
 35 68  1  0  0  0  0
 35 80  2  0  0  0  0
 36 63  1  0  0  0  0
 36 76  1  0  0  0  0
 36 81  2  0  0  0  0
 37 69  1  0  0  0  0
 37 70  1  0  0  0  0
 37 82  2  0  0  0  0
 38 41  1  0  0  0  0
 39 52  1  0  0  0  0
 40 68  1  0  0  0  0
 41 43  1  0  0  0  0
 42 44  1  0  0  0  0
 42 47  1  0  0  0  0
 43 51  1  0  0  0  0
 44 53  1  0  0  0  0
 45 48  1  0  0  0  0
 45 54  1  0  0  0  0
 46 49  1  0  0  0  0
 46 54  1  0  0  0  0
 47 69  1  0  0  0  0
 48 70  1  0  0  0  0
 49 70  1  0  0  0  0
 50 53  1  0  0  0  0
 50 69  1  0  0  0  0
 51 75  1  0  0  0  0
 52 68  1  0  0  0  0
 53 67  1  0  0  0  0
 54 74  1  0  0  0  0
 56 63  1  0  0  0  0
 57 64  1  0  0  0  0
 58 64  1  0  0  0  0
 59 64  1  0  0  0  0
 60 77  1  0  0  0  0
 61 84  1  0  0  0  0
 62 64  1  0  0  0  0
 62 76  1  0  0  0  0
 63 77  1  0  0  0  0
 65 67  1  0  0  0  0
M  CHG  1  77   1
M  ISO  4  37 100  61 101  70 100  84 101
M  END
> <Batch ID>
0174

> <Smiles>
CNC(C)C(=O)NC(C(=O)N1Cc2cc([101O:1][101CH2:1]c3c(C)cc(NC4CC[100N:0]([100C:0](=O)N5CCCC(n6nc(-c7ccc(Oc8ccc(F)cc8F)cc7)c(C(N)=O)c6N)C5)CC4)nc3N)ccc2CC1C(=O)NC1CCCc2ccccc21)C(C)(C)C

> <Shape>
0.332

> <Color>
0.100

> <Negative vol penalty>
0.000

$$$$

  -OEChem-04052322453D

 86 95  0     1  0  0  0  0  0999 V2000
  -26.6627  -38.4867   22.8881 C   0  0  0  0  0  0  0  0  0  0  0  0
  -27.2952  -37.5502   22.0768 C   0  0  0  0  0  0  0  0  0  0  0  0
  -24.5227  -10.1655   23.1492 C   0  0  0  0  0  0  0  0  0  0  0  0
  -24.4787   -8.6496   21.2684 C   0  0  0  0  0  0  0  0  0  0  0  0
  -25.9276  -38.0650   23.9952 C   0  0  0  0  0  0  0  0  0  0  0  0
  -27.1938  -36.1913   22.3728 C   0  0  0  0  0  0  0  0  0  0  0  0
  -26.9160  -29.7869   19.1754 C   0  0  0  0  0  0  0  0  0  0  0  0
  -23.3764   -9.5601   23.6639 C   0  0  0  0  0  0  0  0  0  0  0  0
  -23.3324   -8.0442   21.7832 C   0  0  0  0  0  0  0  0  0  0  0  0
  -27.5353  -28.5382   19.2096 C   0  0  0  0  0  0  0  0  0  0  0  0
  -22.5714   -5.7941   24.1870 C   0  0  0  0  0  0  0  0  0  0  0  0
  -22.5222   -4.4001   24.1899 C   0  0  0  0  0  0  0  0  0  0  0  0
  -26.1729  -27.9211   21.1023 C   0  0  0  0  0  0  0  0  0  0  0  0
  -30.6296  -23.1189   20.5638 C   0  0  0  0  0  0  0  0  0  0  0  0
  -20.5543   -4.4668   22.7898 C   0  0  0  0  0  0  0  0  0  0  0  0
  -25.0739   -9.7103   21.9513 C   0  0  0  0  0  0  0  0  0  0  0  0
  -27.5955   -9.9794   21.6743 C   0  0  0  0  0  0  0  0  0  0  0  0
  -25.8091  -36.6997   24.2993 C   0  0  0  0  0  0  0  0  0  0  0  0
  -25.9266  -30.1166   20.1128 C   0  0  0  0  0  0  0  0  0  0  0  0
  -26.4575  -35.7510   23.4857 C   0  0  0  0  0  0  0  0  0  0  0  0
  -25.5408  -29.1737   21.0763 C   0  0  0  0  0  0  0  0  0  0  0  0
  -30.1575  -24.4204   20.4347 C   0  0  0  0  0  0  0  0  0  0  0  0
  -29.2911  -24.7397   19.3951 C   0  0  0  0  0  0  0  0  0  0  0  0
  -22.7812   -8.4994   22.9810 C   0  0  0  0  0  0  0  0  0  0  0  0
  -27.1658  -27.6062   20.1749 C   0  0  0  0  0  0  0  0  0  0  0  0
  -21.6120   -6.5245   23.4856 C   0  0  0  0  0  0  0  0  0  0  0  0
  -21.5136   -3.7365   23.4913 C   0  0  0  0  0  0  0  0  0  0  0  0
  -20.6035   -5.8608   22.7870 C   0  0  0  0  0  0  0  0  0  0  0  0
  -26.2577  -10.3356   21.4188 C   0  0  0  0  0  0  0  0  0  0  0  0
  -28.9300  -23.7296   18.5182 C   0  0  0  0  0  0  0  0  0  0  0  0
  -30.2084  -22.1812   19.6347 C   0  0  0  0  0  0  0  0  0  0  0  0
  -28.3352  -10.8714   20.9370 C   0  0  0  0  0  0  0  0  0  0  0  0
  -28.1224   -8.9355   22.5040 C   0  0  0  0  0  0  0  0  0  0  0  0
  -25.6331  -32.3221   22.3829 C   0  0  0  0  0  0  0  0  0  0  0  0
  -22.6316  -31.1157   22.6233 C   0  0  0  0  0  0  0  0  0  0  0  0
  -20.5207  -28.4794   22.1320 C   0  0  0  0  0  0  0  0  0  0  0  0
  -29.4898  -15.8014   19.1572 C   0  0  0  0  0  0  0  0  0  0  0  0
  -25.0429  -36.2947   25.5337 C   0  0  0  0  0  0  0  0  0  0  0  0
  -25.2493  -31.4580   20.0458 C   0  0  0  0  0  0  0  0  0  0  0  0
  -24.4697  -29.4710   22.0925 C   0  0  0  0  0  0  0  0  0  0  0  0
  -24.6739  -34.8138   25.5631 C   0  0  0  0  0  0  0  0  0  0  0  0
  -26.9408  -14.1714   17.3754 C   0  0  0  0  0  0  0  0  0  0  0  0
  -25.8775  -33.9561   25.1851 C   0  0  0  0  0  0  0  0  0  0  0  0
  -26.6373  -12.9882   18.2941 C   0  0  0  0  0  0  0  0  0  0  0  0
  -28.9442  -19.2774   19.2445 C   0  0  0  0  0  0  0  0  0  0  0  0
  -31.3851  -18.6963   18.9768 C   0  0  0  0  0  0  0  0  0  0  0  0
  -27.1839  -15.4605   18.1624 C   0  0  0  0  0  0  0  0  0  0  0  0
  -28.5773  -18.0459   18.4113 C   0  0  0  0  0  0  0  0  0  0  0  0
  -30.9727  -17.4967   18.1283 C   0  0  0  0  0  0  0  0  0  0  0  0
  -27.9174  -14.1534   20.1301 C   0  0  0  0  0  0  0  0  0  0  0  0
  -26.3502  -34.2665   23.7597 C   0  0  1  0  0  0  0  0  0  0  0  0
  -24.6172  -31.8749   21.3702 C   0  0  1  0  0  0  0  0  0  0  0  0
  -27.7260  -12.8314   19.3707 C   0  0  1  0  0  0  0  0  0  0  0  0
  -30.3346  -19.8061   18.8846 C   0  0  0  0  0  0  0  0  0  0  0  0
  -30.5935  -25.4535   21.4202 C   0  0  0  0  0  0  0  0  0  0  0  0
  -28.0027  -24.0135   17.3821 C   0  0  0  0  0  0  0  0  0  0  0  0
  -18.1336  -27.7792   22.4618 C   0  0  0  0  0  0  0  0  0  0  0  0
  -23.1566  -30.7387   25.6053 C   0  0  0  0  0  0  0  0  0  0  0  0
  -21.1779  -29.2070   25.6890 C   0  0  0  0  0  0  0  0  0  0  0  0
  -20.8753  -31.5988   25.0483 C   0  0  0  0  0  0  0  0  0  0  0  0
  -20.1170  -28.0740   19.2283 C   0  0  0  0  0  0  0  0  0  0  0  0
  -28.7722  -26.1287   19.2303 C   0  0  0  0  0  0  0  0  0  1  0  0
  -21.9842  -30.0110   23.4231 C   0  0  1  0  0  0  0  0  0  0  0  0
  -19.1409  -28.3972   21.5046 C   0  0  2  0  0  0  0  0  0  0  0  0
  -21.8201  -30.3837   24.9236 C   0  0  0  0  0  0  0  0  0  0  0  0
  -26.1507  -11.3731   20.5844 N   0  0  0  0  0  0  0  0  0  0  0  0
  -29.3679  -22.4540   18.6116 N   0  0  0  0  0  0  0  0  0  0  0  0
  -27.4307  -11.6765   20.3094 N   0  0  0  0  0  0  0  0  0  0  0  0
  -23.8416  -30.7986   21.9899 N   0  0  0  0  0  0  0  0  0  0  0  0
  -28.2002  -15.2511   19.2030 N   0  0  0  0  0  0  0  0  0  0  0  0
  -29.6351  -17.0283   18.4927 N   0  0  0  0  0  0  0  0  0  0  0  0
  -29.6645  -11.0378   20.7708 N   0  0  0  0  0  0  0  0  0  0  0  0
  -27.2224   -8.1098   23.1914 N   0  0  0  0  0  0  0  0  0  0  0  0
  -30.6865  -20.8904   19.7747 N   0  0  0  0  0  0  0  0  0  0  0  0
  -25.4818  -33.6338   22.7902 N   0  0  0  0  0  0  0  0  0  0  0  0
  -20.7314  -29.6964   22.7450 N   0  0  0  0  0  0  0  0  0  0  0  0
  -19.1832  -27.5680   20.2670 N   0  3  0  0  0  0  0  0  0  0  0  0
  -29.3552   -8.7510   22.6448 O   0  0  0  0  0  0  0  0  0  0  0  0
  -26.4898  -31.5348   22.7675 O   0  0  0  0  0  0  0  0  0  0  0  0
  -22.0802  -32.2172   22.5569 O   0  0  0  0  0  0  0  0  0  0  0  0
  -21.3294  -27.5550   22.0864 O   0  0  0  0  0  0  0  0  0  0  0  0
  -30.4552  -15.2302   19.6795 O   0  0  0  0  0  0  0  0  0  0  0  0
  -21.6628   -7.9083   23.4831 O   0  0  0  0  0  0  0  0  0  0  0  0
  -27.7733  -26.3784   20.2112 O   0  0  0  0  0  0  0  0  0  1  0  0
  -21.4674   -2.3978   23.4929 F   0  0  0  0  0  0  0  0  0  0  0  0
  -19.6798   -6.5570   22.1104 F   0  0  0  0  0  0  0  0  0  0  0  0
  1  2  1  0  0  0  0
  1  5  2  0  0  0  0
  2  6  2  0  0  0  0
  3  8  2  0  0  0  0
  3 16  1  0  0  0  0
  4  9  1  0  0  0  0
  4 16  2  0  0  0  0
  5 18  1  0  0  0  0
  6 20  1  0  0  0  0
  7 10  2  0  0  0  0
  7 19  1  0  0  0  0
  8 24  1  0  0  0  0
  9 24  2  0  0  0  0
 10 25  1  0  0  0  0
 11 12  2  0  0  0  0
 11 26  1  0  0  0  0
 12 27  1  0  0  0  0
 13 21  1  0  0  0  0
 13 25  2  0  0  0  0
 14 22  2  0  0  0  0
 14 31  1  0  0  0  0
 15 27  2  0  0  0  0
 15 28  1  0  0  0  0
 16 29  1  0  0  0  0
 17 29  1  0  0  0  0
 17 32  2  0  0  0  0
 17 33  1  0  0  0  0
 18 20  2  0  0  0  0
 18 38  1  0  0  0  0
 19 21  2  0  0  0  0
 19 39  1  0  0  0  0
 20 51  1  0  0  0  0
 21 40  1  0  0  0  0
 22 23  1  0  0  0  0
 22 55  1  0  0  0  0
 23 30  2  0  0  0  0
 23 62  1  0  0  0  0
 24 83  1  0  0  0  0
 25 84  1  0  0  0  0
 26 28  2  0  0  0  0
 26 83  1  0  0  0  0
 27 85  1  0  0  0  0
 28 86  1  0  0  0  0
 29 66  2  0  0  0  0
 30 56  1  0  0  0  0
 30 67  1  0  0  0  0
 31 67  2  0  0  0  0
 31 74  1  0  0  0  0
 32 68  1  0  0  0  0
 32 72  1  0  0  0  0
 33 73  1  0  0  0  0
 33 78  2  0  0  0  0
 34 52  1  0  0  0  0
 34 75  1  0  0  0  0
 34 79  2  0  0  0  0
 35 63  1  0  0  0  0
 35 69  1  0  0  0  0
 35 80  2  0  0  0  0
 36 64  1  0  0  0  0
 36 76  1  0  0  0  0
 36 81  2  0  0  0  0
 37 70  1  0  0  0  0
 37 71  1  0  0  0  0
 37 82  2  0  0  0  0
 38 41  1  0  0  0  0
 39 52  1  0  0  0  0
 40 69  1  0  0  0  0
 41 43  1  0  0  0  0
 42 44  1  0  0  0  0
 42 47  1  0  0  0  0
 43 51  1  0  0  0  0
 44 53  1  0  0  0  0
 45 48  1  0  0  0  0
 45 54  1  0  0  0  0
 46 49  1  0  0  0  0
 46 54  1  0  0  0  0
 47 70  1  0  0  0  0
 48 71  1  0  0  0  0
 49 71  1  0  0  0  0
 50 53  1  0  0  0  0
 50 70  1  0  0  0  0
 51 75  1  0  0  0  0
 52 69  1  0  0  0  0
 53 68  1  0  0  0  0
 54 74  1  0  0  0  0
 57 64  1  0  0  0  0
 58 65  1  0  0  0  0
 59 65  1  0  0  0  0
 60 65  1  0  0  0  0
 61 77  1  0  0  0  0
 62 84  1  0  0  0  0
 63 65  1  0  0  0  0
 63 76  1  0  0  0  0
 64 77  1  0  0  0  0
 66 68  1  0  0  0  0
M  CHG  1  77   1
M  ISO  4  37 100  62 101  71 100  84 101
M  END
> <Batch ID>
0174

> <Smiles>
CNC(C)C(=O)NC(C(=O)N1Cc2cc([101O:1][101CH2:1]c3c(C)cc(NC4CC[100N:0]([100C:0](=O)N5CCCC(n6nc(-c7ccc(Oc8ccc(F)cc8F)cc7)c(C(N)=O)c6N)C5)CC4)nc3C)ccc2CC1C(=O)NC1CCCc2ccccc21)C(C)(C)C

> <Shape>
0.331

> <Color>
0.104

> <Negative vol penalty>
0.000

$$$$

  -OEChem-04052322453D

 80 88  0     1  0  0  0  0  0999 V2000
  -29.8347  -32.2105   25.5830 C   0  0  0  0  0  0  0  0  0  0  0  0
  -29.7269  -31.2870   24.5481 C   0  0  0  0  0  0  0  0  0  0  0  0
  -26.5321  -12.7623   21.5922 C   0  0  0  0  0  0  0  0  0  0  0  0
  -26.1396  -13.6993   19.4002 C   0  0  0  0  0  0  0  0  0  0  0  0
  -29.0217  -32.0917   26.7094 C   0  0  0  0  0  0  0  0  0  0  0  0
  -28.8066  -30.2434   24.6396 C   0  0  0  0  0  0  0  0  0  0  0  0
  -26.2114  -29.5596   20.3451 C   0  0  0  0  0  0  0  0  0  0  0  0
  -25.2597  -12.1909   21.5758 C   0  0  0  0  0  0  0  0  0  0  0  0
  -24.8673  -13.1279   19.3837 C   0  0  0  0  0  0  0  0  0  0  0  0
  -26.8595  -28.8877   19.3096 C   0  0  0  0  0  0  0  0  0  0  0  0
  -23.7583   -9.4930   20.1975 C   0  0  0  0  0  0  0  0  0  0  0  0
  -23.6378   -8.1670   20.6131 C   0  0  0  0  0  0  0  0  0  0  0  0
  -25.6932  -26.8611   19.9027 C   0  0  0  0  0  0  0  0  0  0  0  0
  -22.1319   -8.8554   22.3725 C   0  0  0  0  0  0  0  0  0  0  0  0
  -26.9720  -13.5166   20.5044 C   0  0  0  0  0  0  0  0  0  0  0  0
  -29.4839  -13.5297   20.0594 C   0  0  0  0  0  0  0  0  0  0  0  0
  -28.0843  -31.0517   26.8104 C   0  0  0  0  0  0  0  0  0  0  0  0
  -25.3060  -28.8834   21.1755 C   0  0  0  0  0  0  0  0  0  0  0  0
  -27.9812  -30.1097   25.7690 C   0  0  0  0  0  0  0  0  0  0  0  0
  -25.0330  -27.5273   20.9464 C   0  0  0  0  0  0  0  0  0  0  0  0
  -24.4273  -12.3737   20.4715 C   0  0  0  0  0  0  0  0  0  0  0  0
  -26.6027  -27.5375   19.0901 C   0  0  0  0  0  0  0  0  0  0  0  0
  -23.0657  -10.5002   20.8694 C   0  0  0  0  0  0  0  0  0  0  0  0
  -22.8245   -7.8482   21.7006 C   0  0  0  0  0  0  0  0  0  0  0  0
  -22.2525  -10.1814   21.9569 C   0  0  0  0  0  0  0  0  0  0  0  0
  -28.2860  -14.1075   20.5210 C   0  0  0  0  0  0  0  0  0  0  0  0
  -30.4402  -14.4867   20.2963 C   0  0  0  0  0  0  0  0  0  0  0  0
  -29.7117  -12.2431   19.4691 C   0  0  0  0  0  0  0  0  0  0  0  0
  -25.1741  -28.2226   24.2818 C   0  0  0  0  0  0  0  0  0  0  0  0
  -22.2362  -27.0799   23.5168 C   0  0  0  0  0  0  0  0  0  0  0  0
  -20.1497  -25.8189   21.1286 C   0  0  0  0  0  0  0  0  0  0  0  0
  -30.1989  -20.4440   20.8469 C   0  0  0  0  0  0  0  0  0  0  0  0
  -27.2604  -30.9367   28.0685 C   0  0  0  0  0  0  0  0  0  0  0  0
  -24.5950  -29.6291   22.2713 C   0  0  0  0  0  0  0  0  0  0  0  0
  -24.0543  -26.7608   21.7968 C   0  0  0  0  0  0  0  0  0  0  0  0
  -26.0490  -30.0195   27.9215 C   0  0  0  0  0  0  0  0  0  0  0  0
  -31.4517  -18.1221   23.2377 C   0  0  0  0  0  0  0  0  0  0  0  0
  -26.4461  -28.7166   27.2348 C   0  0  0  0  0  0  0  0  0  0  0  0
  -30.8905  -16.7778   22.7709 C   0  0  0  0  0  0  0  0  0  0  0  0
  -30.0020  -24.4707   18.0265 C   0  0  0  0  0  0  0  0  0  0  0  0
  -27.5590  -24.5002   17.7401 C   0  0  0  0  0  0  0  0  0  0  0  0
  -30.4587  -19.2590   23.0067 C   0  0  0  0  0  0  0  0  0  0  0  0
  -29.3931  -18.0253   21.1584 C   0  0  0  0  0  0  0  0  0  0  0  0
  -26.9776  -28.9782   25.8204 C   0  0  1  0  0  0  0  0  0  0  0  0
  -24.0791  -28.7152   23.3786 C   0  0  1  0  0  0  0  0  0  0  0  0
  -29.4779  -25.9037   17.9318 C   0  0  1  0  0  0  0  0  0  0  0  0
  -30.3804  -16.8567   21.3194 C   0  0  2  0  0  0  0  0  0  0  0  0
  -28.0477  -25.7635   18.4415 C   0  0  1  0  0  0  0  0  0  1  0  0
  -28.7943  -23.5728   17.6602 C   0  0  1  0  0  0  0  0  0  0  0  0
  -30.3134  -26.8929   18.7306 C   0  0  0  0  0  0  0  0  0  0  0  0
  -28.9456  -23.0087   16.2413 C   0  0  0  0  0  0  0  0  0  0  0  0
  -17.8201  -24.9412   20.8124 C   0  0  0  0  0  0  0  0  0  0  0  0
  -23.0443  -24.4598   24.8555 C   0  0  0  0  0  0  0  0  0  0  0  0
  -21.1174  -23.3557   23.6995 C   0  0  0  0  0  0  0  0  0  0  0  0
  -20.7021  -25.1957   25.3319 C   0  0  0  0  0  0  0  0  0  0  0  0
  -19.4876  -27.9472   19.1816 C   0  0  0  0  0  0  0  0  0  0  0  0
  -28.6713  -22.4099   18.6528 C   0  0  0  0  0  0  0  0  0  0  0  0
  -29.8817  -21.4917   18.6196 C   0  0  0  0  0  0  0  0  0  0  0  0
  -21.6914  -25.7445   23.0708 C   0  0  1  0  0  0  0  0  0  0  0  0
  -18.7198  -26.1659   20.7552 C   0  0  2  0  0  0  0  0  0  0  0  0
  -21.6587  -24.7026   24.2245 C   0  0  0  0  0  0  0  0  0  0  0  0
  -28.4627  -15.3362   21.0141 N   0  0  0  0  0  0  0  0  0  0  0  0
  -29.7828  -15.5383   20.8636 N   0  0  0  0  0  0  0  0  0  0  0  0
  -23.3892  -27.5324   22.8597 N   0  0  0  0  0  0  0  0  0  0  0  0
  -30.0153  -19.2795   21.6107 N   0  0  0  0  0  0  0  0  0  0  0  0
  -31.7711  -14.5226   20.0726 N   0  0  0  0  0  0  0  0  0  0  0  0
  -28.6181  -11.3834   19.2982 N   0  0  0  0  0  0  0  0  0  0  0  0
  -25.8831  -29.2301   24.9077 N   0  0  0  0  0  0  0  0  0  0  0  0
  -20.3885  -26.0145   22.4725 N   0  0  0  0  0  0  0  0  0  0  0  0
  -29.7562  -20.3766   19.5315 N   0  0  0  0  0  0  0  0  0  0  0  0
  -18.6660  -26.7246   19.3747 N   0  3  0  0  0  0  0  0  0  0  0  0
  -30.8539  -11.8606   19.1191 O   0  0  0  0  0  0  0  0  0  0  0  0
  -25.3610  -27.0175   24.4032 O   0  0  0  0  0  0  0  0  0  0  0  0
  -21.6561  -27.7019   24.4101 O   0  0  0  0  0  0  0  0  0  0  0  0
  -20.9715  -25.4113   20.3107 O   0  0  0  0  0  0  0  0  0  0  0  0
  -30.7237  -21.4660   21.3018 O   0  0  0  0  0  0  0  0  0  0  0  0
  -23.1858  -11.8161   20.4550 O   0  0  0  0  0  0  0  0  0  0  0  0
  -27.2344  -26.8791   18.0805 O   0  0  0  0  0  0  0  0  0  1  0  0
  -22.7076   -6.5746   22.0986 F   0  0  0  0  0  0  0  0  0  0  0  0
  -21.5837  -11.1446   22.6056 F   0  0  0  0  0  0  0  0  0  0  0  0
  1  2  1  0  0  0  0
  1  5  2  0  0  0  0
  2  6  2  0  0  0  0
  3  8  2  0  0  0  0
  3 15  1  0  0  0  0
  4  9  1  0  0  0  0
  4 15  2  0  0  0  0
  5 17  1  0  0  0  0
  6 19  1  0  0  0  0
  7 10  2  0  0  0  0
  7 18  1  0  0  0  0
  8 21  1  0  0  0  0
  9 21  2  0  0  0  0
 10 22  1  0  0  0  0
 11 12  2  0  0  0  0
 11 23  1  0  0  0  0
 12 24  1  0  0  0  0
 13 20  1  0  0  0  0
 13 22  2  0  0  0  0
 14 24  2  0  0  0  0
 14 25  1  0  0  0  0
 15 26  1  0  0  0  0
 16 26  1  0  0  0  0
 16 27  2  0  0  0  0
 16 28  1  0  0  0  0
 17 19  2  0  0  0  0
 17 33  1  0  0  0  0
 18 20  2  0  0  0  0
 18 34  1  0  0  0  0
 19 44  1  0  0  0  0
 20 35  1  0  0  0  0
 21 77  1  0  0  0  0
 22 78  1  0  0  0  0
 23 25  2  0  0  0  0
 23 77  1  0  0  0  0
 24 79  1  0  0  0  0
 25 80  1  0  0  0  0
 26 62  2  0  0  0  0
 27 63  1  0  0  0  0
 27 66  1  0  0  0  0
 28 67  1  0  0  0  0
 28 72  2  0  0  0  0
 29 45  1  0  0  0  0
 29 68  1  0  0  0  0
 29 73  2  0  0  0  0
 30 59  1  0  0  0  0
 30 64  1  0  0  0  0
 30 74  2  0  0  0  0
 31 60  1  0  0  0  0
 31 69  1  0  0  0  0
 31 75  2  0  0  0  0
 32 65  1  0  0  0  0
 32 70  1  0  0  0  0
 32 76  2  0  0  0  0
 33 36  1  0  0  0  0
 34 45  1  0  0  0  0
 35 64  1  0  0  0  0
 36 38  1  0  0  0  0
 37 39  1  0  0  0  0
 37 42  1  0  0  0  0
 38 44  1  0  0  0  0
 39 47  1  0  0  0  0
 40 46  1  0  0  0  0
 40 49  1  0  0  0  0
 41 48  1  0  0  0  0
 41 49  1  0  0  0  0
 42 65  1  0  0  0  0
 43 47  1  0  0  0  0
 43 65  1  0  0  0  0
 44 68  1  0  0  0  0
 45 64  1  0  0  0  0
 46 48  1  0  0  0  0
 46 50  1  0  0  0  0
 47 63  1  0  0  0  0
 48 78  1  0  0  0  0
 49 51  1  0  0  0  0
 49 57  1  0  0  0  0
 52 60  1  0  0  0  0
 53 61  1  0  0  0  0
 54 61  1  0  0  0  0
 55 61  1  0  0  0  0
 56 71  1  0  0  0  0
 57 58  1  0  0  0  0
 58 70  1  0  0  0  0
 59 61  1  0  0  0  0
 59 69  1  0  0  0  0
 60 71  1  0  0  0  0
 62 63  1  0  0  0  0
M  CHG  1  71   1
M  ISO  4  32 100  48 101  70 100  78 101
M  END
> <Batch ID>
0174

> <Smiles>
CNC(C)C(=O)NC(C(=O)N1Cc2cc([101O:1][101CH:1]3CC(C)(CC[100NH:0][100C:0](=O)N4CCCC(n5nc(-c6ccc(Oc7ccc(F)cc7F)cc6)c(C(N)=O)c5N)C4)CC3C)ccc2CC1C(=O)NC1CCCc2ccccc21)C(C)(C)C

> <Shape>
0.287

> <Color>
0.073

> <Negative vol penalty>
0.000

$$$$

  -OEChem-04052322453D

 86 95  0     1  0  0  0  0  0999 V2000
  -28.3045  -32.2203   27.1721 C   0  0  0  0  0  0  0  0  0  0  0  0
  -28.2654  -31.1054   26.3409 C   0  0  0  0  0  0  0  0  0  0  0  0
  -24.0854   -9.7172   22.3168 C   0  0  0  0  0  0  0  0  0  0  0  0
  -23.6829   -9.2226   19.9864 C   0  0  0  0  0  0  0  0  0  0  0  0
  -27.1329  -32.9236   27.4488 C   0  0  0  0  0  0  0  0  0  0  0  0
  -27.0542  -30.6925   25.7867 C   0  0  0  0  0  0  0  0  0  0  0  0
  -27.4597  -29.5384   20.8726 C   0  0  0  0  0  0  0  0  0  0  0  0
  -22.7959   -9.2879   22.6306 C   0  0  0  0  0  0  0  0  0  0  0  0
  -22.3934   -8.7933   20.3003 C   0  0  0  0  0  0  0  0  0  0  0  0
  -28.0191  -28.3020   20.5530 C   0  0  0  0  0  0  0  0  0  0  0  0
  -19.7352   -7.9837   24.0957 C   0  0  0  0  0  0  0  0  0  0  0  0
  -19.5805   -7.1527   25.2053 C   0  0  0  0  0  0  0  0  0  0  0  0
  -25.8096  -27.3995   20.2030 C   0  0  0  0  0  0  0  0  0  0  0  0
  -21.0319   -5.5151   24.1813 C   0  0  0  0  0  0  0  0  0  0  0  0
  -30.3597  -22.0637   18.7254 C   0  0  0  0  0  0  0  0  0  0  0  0
  -24.5289   -9.6846   20.9946 C   0  0  0  0  0  0  0  0  0  0  0  0
  -27.0315   -9.3479   20.6329 C   0  0  0  0  0  0  0  0  0  0  0  0
  -25.9084  -32.5249   26.8899 C   0  0  0  0  0  0  0  0  0  0  0  0
  -26.0681  -29.7120   20.8704 C   0  0  0  0  0  0  0  0  0  0  0  0
  -25.8649  -31.3904   26.0572 C   0  0  0  0  0  0  0  0  0  0  0  0
  -25.2351  -28.6398   20.5204 C   0  0  0  0  0  0  0  0  0  0  0  0
  -29.4332  -23.4711   20.4038 C   0  0  0  0  0  0  0  0  0  0  0  0
  -29.5760  -24.5484   19.5364 C   0  0  0  0  0  0  0  0  0  0  0  0
  -29.8301  -22.2018   19.9983 C   0  0  0  0  0  0  0  0  0  0  0  0
  -21.9499   -8.8259   21.6224 C   0  0  0  0  0  0  0  0  0  0  0  0
  -27.1939  -27.2316   20.2209 C   0  0  0  0  0  0  0  0  0  0  0  0
  -20.5383   -7.5803   23.0289 C   0  0  0  0  0  0  0  0  0  0  0  0
  -20.2288   -5.9185   25.2481 C   0  0  0  0  0  0  0  0  0  0  0  0
  -21.1867   -6.3460   23.0717 C   0  0  0  0  0  0  0  0  0  0  0  0
  -25.8606  -10.1285   20.6697 C   0  0  0  0  0  0  0  0  0  0  0  0
  -30.1172  -24.3053   18.2843 C   0  0  0  0  0  0  0  0  0  0  0  0
  -28.0211  -10.2301   20.2739 C   0  0  0  0  0  0  0  0  0  0  0  0
  -27.2088   -7.9503   20.8994 C   0  0  0  0  0  0  0  0  0  0  0  0
  -23.8993  -30.4748   23.0654 C   0  0  0  0  0  0  0  0  0  0  0  0
  -21.8970  -30.5067   20.5135 C   0  0  0  0  0  0  0  0  0  0  0  0
  -21.2221  -29.4284   17.3467 C   0  0  0  0  0  0  0  0  0  0  0  0
  -28.7499  -15.9243   20.9329 C   0  0  0  0  0  0  0  0  0  0  0  0
  -24.6605  -33.2887   27.2559 C   0  0  0  0  0  0  0  0  0  0  0  0
  -25.4814  -31.0592   21.1915 C   0  0  0  0  0  0  0  0  0  0  0  0
  -23.7359  -28.7796   20.4835 C   0  0  0  0  0  0  0  0  0  0  0  0
  -23.4807  -33.0080   26.3287 C   0  0  0  0  0  0  0  0  0  0  0  0
  -28.7367  -14.2764   17.8324 C   0  0  0  0  0  0  0  0  0  0  0  0
  -23.3291  -31.5080   26.0968 C   0  0  0  0  0  0  0  0  0  0  0  0
  -28.1057  -12.9349   18.2045 C   0  0  0  0  0  0  0  0  0  0  0  0
  -29.0366  -19.1448   19.5421 C   0  0  0  0  0  0  0  0  0  0  0  0
  -30.3348  -18.9101   21.6932 C   0  0  0  0  0  0  0  0  0  0  0  0
  -28.0549  -15.4472   18.5428 C   0  0  0  0  0  0  0  0  0  0  0  0
  -29.3546  -17.6838   19.2109 C   0  0  0  0  0  0  0  0  0  0  0  0
  -30.6497  -17.4676   21.3073 C   0  0  0  0  0  0  0  0  0  0  0  0
  -27.3511  -13.9548   20.3856 C   0  0  0  0  0  0  0  0  0  0  0  0
  -24.5745  -30.9262   25.4172 C   0  0  1  0  0  0  0  0  0  0  0  0
  -24.0308  -30.9834   21.6576 C   0  0  1  0  0  0  0  0  0  0  0  0
  -28.0528  -12.7542   19.7320 C   0  0  1  0  0  0  0  0  0  0  0  0
  -30.1084  -19.7635   20.4425 C   0  0  0  0  0  0  0  0  0  0  0  0
  -28.8550  -23.6788   21.7679 C   0  0  0  0  0  0  0  0  0  0  0  0
  -30.2954  -25.4231   17.3093 C   0  0  0  0  0  0  0  0  0  0  0  0
  -19.4918  -29.5927   15.5366 C   0  0  0  0  0  0  0  0  0  0  0  0
  -20.1072  -28.5730   22.0521 C   0  0  0  0  0  0  0  0  0  0  0  0
  -18.9443  -28.0453   19.8987 C   0  0  0  0  0  0  0  0  0  0  0  0
  -18.8821  -30.3659   20.8117 C   0  0  0  0  0  0  0  0  0  0  0  0
  -23.1436  -30.6582   15.4614 C   0  0  0  0  0  0  0  0  0  0  0  0
  -29.1598  -25.9226   19.9419 C   0  0  0  0  0  0  0  0  0  1  0  0
  -21.0329  -29.4815   19.8197 C   0  0  1  0  0  0  0  0  0  0  0  0
  -20.7782  -30.1748   16.1017 C   0  0  2  0  0  0  0  0  0  0  0  0
  -19.7697  -29.1129   20.6480 C   0  0  0  0  0  0  0  0  0  0  0  0
  -30.5140  -23.0863   17.8548 N   0  0  0  0  0  0  0  0  0  0  0  0
  -26.0840  -11.4082   20.3590 N   0  0  0  0  0  0  0  0  0  0  0  0
  -27.4068  -11.4384   20.1236 N   0  0  0  0  0  0  0  0  0  0  0  0
  -23.2098  -30.1150   20.8114 N   0  0  0  0  0  0  0  0  0  0  0  0
  -27.9922  -15.2112   19.9919 N   0  0  0  0  0  0  0  0  0  0  0  0
  -29.6102  -16.9156   20.4378 N   0  0  0  0  0  0  0  0  0  0  0  0
  -29.3482  -10.0823   20.0753 N   0  0  0  0  0  0  0  0  0  0  0  0
  -26.0863   -7.1903   21.2554 N   0  0  0  0  0  0  0  0  0  0  0  0
  -29.7080  -21.0995   20.8255 N   0  0  0  0  0  0  0  0  0  0  0  0
  -24.5702  -31.2359   24.0035 N   0  0  0  0  0  0  0  0  0  0  0  0
  -20.7427  -30.0211   18.4957 N   0  0  0  0  0  0  0  0  0  0  0  0
  -21.8306  -30.0987   15.0492 N   0  3  0  0  0  0  0  0  0  0  0  0
  -28.3322   -7.3954   20.8401 O   0  0  0  0  0  0  0  0  0  0  0  0
  -23.2370  -29.4673   23.2844 O   0  0  0  0  0  0  0  0  0  0  0  0
  -21.4267  -31.6167   20.7749 O   0  0  0  0  0  0  0  0  0  0  0  0
  -21.9210  -28.4183   17.3041 O   0  0  0  0  0  0  0  0  0  0  0  0
  -28.6628  -15.6895   22.1447 O   0  0  0  0  0  0  0  0  0  0  0  0
  -20.6916   -8.4067   21.9283 O   0  0  0  0  0  0  0  0  0  0  0  0
  -27.7411  -26.0151   19.9070 O   0  0  0  0  0  0  0  0  0  1  0  0
  -20.0813   -5.1213   26.3144 F   0  0  0  0  0  0  0  0  0  0  0  0
  -21.9605   -5.9536   22.0504 F   0  0  0  0  0  0  0  0  0  0  0  0
  1  2  1  0  0  0  0
  1  5  2  0  0  0  0
  2  6  2  0  0  0  0
  3  8  2  0  0  0  0
  3 16  1  0  0  0  0
  4  9  1  0  0  0  0
  4 16  2  0  0  0  0
  5 18  1  0  0  0  0
  6 20  1  0  0  0  0
  7 10  2  0  0  0  0
  7 19  1  0  0  0  0
  8 25  1  0  0  0  0
  9 25  2  0  0  0  0
 10 26  1  0  0  0  0
 11 12  2  0  0  0  0
 11 27  1  0  0  0  0
 12 28  1  0  0  0  0
 13 21  1  0  0  0  0
 13 26  2  0  0  0  0
 14 28  2  0  0  0  0
 14 29  1  0  0  0  0
 15 24  2  0  0  0  0
 15 66  1  0  0  0  0
 16 30  1  0  0  0  0
 17 30  1  0  0  0  0
 17 32  2  0  0  0  0
 17 33  1  0  0  0  0
 18 20  2  0  0  0  0
 18 38  1  0  0  0  0
 19 21  2  0  0  0  0
 19 39  1  0  0  0  0
 20 51  1  0  0  0  0
 21 40  1  0  0  0  0
 22 23  2  0  0  0  0
 22 24  1  0  0  0  0
 22 55  1  0  0  0  0
 23 31  1  0  0  0  0
 23 62  1  0  0  0  0
 24 74  1  0  0  0  0
 25 83  1  0  0  0  0
 26 84  1  0  0  0  0
 27 29  2  0  0  0  0
 27 83  1  0  0  0  0
 28 85  1  0  0  0  0
 29 86  1  0  0  0  0
 30 67  2  0  0  0  0
 31 56  1  0  0  0  0
 31 66  2  0  0  0  0
 32 68  1  0  0  0  0
 32 72  1  0  0  0  0
 33 73  1  0  0  0  0
 33 78  2  0  0  0  0
 34 52  1  0  0  0  0
 34 75  1  0  0  0  0
 34 79  2  0  0  0  0
 35 63  1  0  0  0  0
 35 69  1  0  0  0  0
 35 80  2  0  0  0  0
 36 64  1  0  0  0  0
 36 76  1  0  0  0  0
 36 81  2  0  0  0  0
 37 70  1  0  0  0  0
 37 71  1  0  0  0  0
 37 82  2  0  0  0  0
 38 41  1  0  0  0  0
 39 52  1  0  0  0  0
 40 69  1  0  0  0  0
 41 43  1  0  0  0  0
 42 44  1  0  0  0  0
 42 47  1  0  0  0  0
 43 51  1  0  0  0  0
 44 53  1  0  0  0  0
 45 48  1  0  0  0  0
 45 54  1  0  0  0  0
 46 49  1  0  0  0  0
 46 54  1  0  0  0  0
 47 70  1  0  0  0  0
 48 71  1  0  0  0  0
 49 71  1  0  0  0  0
 50 53  1  0  0  0  0
 50 70  1  0  0  0  0
 51 75  1  0  0  0  0
 52 69  1  0  0  0  0
 53 68  1  0  0  0  0
 54 74  1  0  0  0  0
 57 64  1  0  0  0  0
 58 65  1  0  0  0  0
 59 65  1  0  0  0  0
 60 65  1  0  0  0  0
 61 77  1  0  0  0  0
 62 84  1  0  0  0  0
 63 65  1  0  0  0  0
 63 76  1  0  0  0  0
 64 77  1  0  0  0  0
 67 68  1  0  0  0  0
M  CHG  1  77   1
M  ISO  4  37 100  62 101  71 100  84 101
M  END
> <Batch ID>
0174

> <Smiles>
CNC(C)C(=O)NC(C(=O)N1Cc2cc([101O:1][101CH2:1]c3c(C)ncc(NC4CC[100N:0]([100C:0](=O)N5CCCC(n6nc(-c7ccc(Oc8ccc(F)cc8F)cc7)c(C(N)=O)c6N)C5)CC4)c3C)ccc2CC1C(=O)NC1CCCc2ccccc21)C(C)(C)C

> <Shape>
0.336

> <Color>
0.087

> <Negative vol penalty>
0.000

$$$$

  -OEChem-04052322453D

 86 95  0     1  0  0  0  0  0999 V2000
  -19.7505  -26.8102   25.8796 C   0  0  0  0  0  0  0  0  0  0  0  0
  -20.3773  -25.8470   25.0956 C   0  0  0  0  0  0  0  0  0  0  0  0
  -23.0350   -9.8753   19.9306 C   0  0  0  0  0  0  0  0  0  0  0  0
  -23.8600   -9.7846   22.1996 C   0  0  0  0  0  0  0  0  0  0  0  0
  -19.1836  -27.9342   25.2804 C   0  0  0  0  0  0  0  0  0  0  0  0
  -20.4365  -26.0067   23.7116 C   0  0  0  0  0  0  0  0  0  0  0  0
  -25.0201  -24.9611   21.8296 C   0  0  0  0  0  0  0  0  0  0  0  0
  -22.2942   -8.7146   20.1535 C   0  0  0  0  0  0  0  0  0  0  0  0
  -23.1191   -8.6239   22.4225 C   0  0  0  0  0  0  0  0  0  0  0  0
  -25.3559  -23.6161   21.6815 C   0  0  0  0  0  0  0  0  0  0  0  0
  -23.3815   -5.3273   21.7192 C   0  0  0  0  0  0  0  0  0  0  0  0
  -24.0133   -4.2714   22.3759 C   0  0  0  0  0  0  0  0  0  0  0  0
  -24.8285  -23.7494   19.3313 C   0  0  0  0  0  0  0  0  0  0  0  0
  -22.3619   -4.3780   24.1362 C   0  0  0  0  0  0  0  0  0  0  0  0
  -23.8179  -10.4102   20.9536 C   0  0  0  0  0  0  0  0  0  0  0  0
  -24.1657  -12.9373   20.9291 C   0  0  0  0  0  0  0  0  0  0  0  0
  -19.2443  -28.1126   23.8893 C   0  0  0  0  0  0  0  0  0  0  0  0
  -24.5748  -25.7088   20.7300 C   0  0  0  0  0  0  0  0  0  0  0  0
  -19.8686  -27.1335   23.0930 C   0  0  0  0  0  0  0  0  0  0  0  0
  -24.4901  -25.1044   19.4676 C   0  0  0  0  0  0  0  0  0  0  0  0
  -30.3560  -20.0278   19.2715 C   0  0  0  0  0  0  0  0  0  0  0  0
  -29.4237  -18.6452   21.0100 C   0  0  0  0  0  0  0  0  0  0  0  0
  -29.2971  -19.7019   20.1135 C   0  0  0  0  0  0  0  0  0  0  0  0
  -22.3362   -8.0889   21.3994 C   0  0  0  0  0  0  0  0  0  0  0  0
  -25.2574  -23.0093   20.4328 C   0  0  0  0  0  0  0  0  0  0  0  0
  -22.2399   -5.9087   22.2710 C   0  0  0  0  0  0  0  0  0  0  0  0
  -23.5035   -3.7967   23.5844 C   0  0  0  0  0  0  0  0  0  0  0  0
  -21.7301   -5.4340   23.4795 C   0  0  0  0  0  0  0  0  0  0  0  0
  -24.5838  -11.6088   20.7238 C   0  0  0  0  0  0  0  0  0  0  0  0
  -31.5242  -19.2828   19.3479 C   0  0  0  0  0  0  0  0  0  0  0  0
  -30.6154  -17.9351   21.0423 C   0  0  0  0  0  0  0  0  0  0  0  0
  -25.2499  -13.6985   20.5663 C   0  0  0  0  0  0  0  0  0  0  0  0
  -22.9097  -13.4385   21.4054 C   0  0  0  0  0  0  0  0  0  0  0  0
  -21.8882  -27.2432   20.0008 C   0  0  0  0  0  0  0  0  0  0  0  0
  -23.6004  -28.2106   17.4211 C   0  0  0  0  0  0  0  0  0  0  0  0
  -26.1981  -27.6314   15.2850 C   0  0  0  0  0  0  0  0  0  0  0  0
  -30.7406  -14.6946   20.6398 C   0  0  0  0  0  0  0  0  0  0  0  0
  -18.5757  -29.3206   23.2824 C   0  0  0  0  0  0  0  0  0  0  0  0
  -24.2419  -27.1656   20.9010 C   0  0  0  0  0  0  0  0  0  0  0  0
  -24.0368  -25.8685   18.2514 C   0  0  0  0  0  0  0  0  0  0  0  0
  -19.0098  -29.5995   21.8458 C   0  0  0  0  0  0  0  0  0  0  0  0
  -29.5265  -12.4147   18.1894 C   0  0  0  0  0  0  0  0  0  0  0  0
  -31.2753  -22.2540   18.3372 C   0  0  0  0  0  0  0  0  0  0  0  0
  -29.8804  -22.5251   18.8072 C   0  0  0  0  0  0  0  0  0  0  0  0
  -18.9921  -28.3147   21.0237 C   0  0  0  0  0  0  0  0  0  0  0  0
  -28.1008  -12.1069   18.6507 C   0  0  0  0  0  0  0  0  0  0  0  0
  -30.4783  -12.5829   19.3717 C   0  0  0  0  0  0  0  0  0  0  0  0
  -28.6196  -13.2604   20.8414 C   0  0  0  0  0  0  0  0  0  0  0  0
  -30.2462  -21.1569   18.2988 C   0  0  0  0  0  0  0  0  0  0  0  0
  -19.9749  -27.2833   21.5909 C   0  0  1  0  0  0  0  0  0  0  0  0
  -23.3089  -27.6965   19.8169 C   0  0  1  0  0  0  0  0  0  0  0  0
  -27.6116  -13.1376   19.6859 C   0  0  2  0  0  0  0  0  0  0  0  0
  -28.3031  -18.2745   21.9257 C   0  0  0  0  0  0  0  0  0  0  0  0
  -32.7115  -19.5495   18.4935 C   0  0  0  0  0  0  0  0  0  0  0  0
  -27.3256  -28.5773   13.2523 C   0  0  0  0  0  0  0  0  0  0  0  0
  -21.3251  -27.1671   15.6764 C   0  0  0  0  0  0  0  0  0  0  0  0
  -22.8796  -27.2580   13.7160 C   0  0  0  0  0  0  0  0  0  0  0  0
  -22.2896  -29.3524   14.9358 C   0  0  0  0  0  0  0  0  0  0  0  0
  -28.7556  -27.9941   16.7296 C   0  0  0  0  0  0  0  0  0  0  0  0
  -30.8498  -16.7915   21.9628 C   0  0  0  0  0  0  0  0  0  0  0  0
  -27.0086  -20.0906   19.1984 C   0  0  0  0  0  0  0  0  0  0  0  0
  -26.0977  -21.2932   19.0168 C   0  0  0  0  0  0  0  0  0  1  0  0
  -23.8320  -27.6739   16.0292 C   0  0  1  0  0  0  0  0  0  0  0  0
  -27.3023  -28.5384   14.7724 C   0  0  2  0  0  0  0  0  0  0  0  0
  -22.5883  -27.8477   15.1124 C   0  0  0  0  0  0  0  0  0  0  0  0
  -25.8359  -11.5273   20.2658 N   0  0  0  0  0  0  0  0  0  0  0  0
  -26.2138  -12.8141   20.1803 N   0  0  0  0  0  0  0  0  0  0  0  0
  -31.6193  -18.2702   20.2204 N   0  3  0  0  0  0  0  0  0  0  0  0
  -23.7165  -27.2886   18.4710 N   0  0  0  0  0  0  0  0  0  0  0  0
  -29.9571  -13.5749   20.3151 N   0  0  0  0  0  0  0  0  0  0  0  0
  -25.4632  -15.0313   20.5428 N   0  0  0  0  0  0  0  0  0  0  0  0
  -21.9043  -12.5186   21.7333 N   0  0  0  0  0  0  0  0  0  0  0  0
  -28.1184  -20.4274   20.0603 N   0  0  0  0  0  0  0  0  0  0  0  0
  -21.3312  -27.6145   21.2096 N   0  0  0  0  0  0  0  0  0  0  0  0
  -25.0363  -28.3312   15.5334 N   0  0  0  0  0  0  0  0  0  0  0  0
  -30.1692  -15.5890   21.5366 N   0  0  0  0  0  0  0  0  0  0  0  0
  -28.6299  -28.0594   15.2507 N   0  3  0  0  0  0  0  0  0  0  0  0
  -22.6798  -14.6662   21.5207 O   0  0  0  0  0  0  0  0  0  0  0  0
  -21.3377  -26.6051   19.1112 O   0  0  0  0  0  0  0  0  0  0  0  0
  -23.3335  -29.4055   17.5718 O   0  0  0  0  0  0  0  0  0  0  0  0
  -26.3499  -26.4223   15.4451 O   0  0  0  0  0  0  0  0  0  0  0  0
  -31.8638  -14.8859   20.1616 O   0  0  0  0  0  0  0  0  0  0  0  0
  -21.6133   -6.9565   21.6174 O   0  0  0  0  0  0  0  0  0  0  0  0
  -25.5839  -21.6964   20.2856 O   0  0  0  0  0  0  0  0  0  1  0  0
  -24.1095   -2.7816   24.2141 F   0  0  0  0  0  0  0  0  0  0  0  0
  -20.6330   -5.9877   24.0139 F   0  0  0  0  0  0  0  0  0  0  0  0
  1  2  1  0  0  0  0
  1  5  2  0  0  0  0
  2  6  2  0  0  0  0
  3  8  2  0  0  0  0
  3 15  1  0  0  0  0
  4  9  1  0  0  0  0
  4 15  2  0  0  0  0
  5 17  1  0  0  0  0
  6 19  1  0  0  0  0
  7 10  2  0  0  0  0
  7 18  1  0  0  0  0
  8 24  1  0  0  0  0
  9 24  2  0  0  0  0
 10 25  1  0  0  0  0
 11 12  2  0  0  0  0
 11 26  1  0  0  0  0
 12 27  1  0  0  0  0
 13 20  1  0  0  0  0
 13 25  2  0  0  0  0
 14 27  2  0  0  0  0
 14 28  1  0  0  0  0
 15 29  1  0  0  0  0
 16 29  1  0  0  0  0
 16 32  2  0  0  0  0
 16 33  1  0  0  0  0
 17 19  2  0  0  0  0
 17 38  1  0  0  0  0
 18 20  2  0  0  0  0
 18 39  1  0  0  0  0
 19 50  1  0  0  0  0
 20 40  1  0  0  0  0
 21 23  2  0  0  0  0
 21 30  1  0  0  0  0
 21 49  1  0  0  0  0
 22 23  1  0  0  0  0
 22 31  2  0  0  0  0
 22 53  1  0  0  0  0
 23 73  1  0  0  0  0
 24 83  1  0  0  0  0
 25 84  1  0  0  0  0
 26 28  2  0  0  0  0
 26 83  1  0  0  0  0
 27 85  1  0  0  0  0
 28 86  1  0  0  0  0
 29 66  2  0  0  0  0
 30 54  1  0  0  0  0
 30 68  2  0  0  0  0
 31 60  1  0  0  0  0
 31 68  1  0  0  0  0
 32 67  1  0  0  0  0
 32 71  1  0  0  0  0
 33 72  1  0  0  0  0
 33 78  2  0  0  0  0
 34 51  1  0  0  0  0
 34 74  1  0  0  0  0
 34 79  2  0  0  0  0
 35 63  1  0  0  0  0
 35 69  1  0  0  0  0
 35 80  2  0  0  0  0
 36 64  1  0  0  0  0
 36 75  1  0  0  0  0
 36 81  2  0  0  0  0
 37 70  1  0  0  0  0
 37 76  1  0  0  0  0
 37 82  2  0  0  0  0
 38 41  1  0  0  0  0
 39 51  1  0  0  0  0
 40 69  1  0  0  0  0
 41 45  1  0  0  0  0
 42 46  1  0  0  0  0
 42 47  1  0  0  0  0
 43 44  1  0  0  0  0
 43 49  1  0  0  0  0
 44 49  1  0  0  0  0
 45 50  1  0  0  0  0
 46 52  1  0  0  0  0
 47 70  1  0  0  0  0
 48 52  1  0  0  0  0
 48 70  1  0  0  0  0
 50 74  1  0  0  0  0
 51 69  1  0  0  0  0
 52 67  1  0  0  0  0
 55 64  1  0  0  0  0
 56 65  1  0  0  0  0
 57 65  1  0  0  0  0
 58 65  1  0  0  0  0
 59 77  1  0  0  0  0
 60 76  1  0  0  0  0
 61 62  1  0  0  0  0
 61 73  1  0  0  0  0
 62 84  1  0  0  0  0
 63 65  1  0  0  0  0
 63 75  1  0  0  0  0
 64 77  1  0  0  0  0
 66 67  1  0  0  0  0
M  CHG  2  68   1  77   1
M  ISO  4  37 100  62 101  76 100  84 101
M  END
> <Batch ID>
0174

> <Smiles>
CNC(C)C(=O)NC(C(=O)N1Cc2cc([101O:1][101CH2:1]CNc3c(C)c(C[100NH:0][100C:0](=O)N4CCCC(n5nc(-c6ccc(Oc7ccc(F)cc7F)cc6)c(C(N)=O)c5N)C4)nc(C)c3C3CC3)ccc2CC1C(=O)NC1CCCc2ccccc21)C(C)(C)C

> <Shape>
0.280

> <Color>
0.209

> <Negative vol penalty>
0.000

$$$$

  -OEChem-04052322453D

 81 90  0     1  0  0  0  0  0999 V2000
  -26.9259  -18.6579   24.3253 C   0  0  0  0  0  0  0  0  0  0  0  0
  -27.2386  -19.7089   23.4692 C   0  0  0  0  0  0  0  0  0  0  0  0
  -27.2328  -12.9815   22.7682 C   0  0  0  0  0  0  0  0  0  0  0  0
  -26.5043  -12.8902   20.4664 C   0  0  0  0  0  0  0  0  0  0  0  0
  -25.5929  -18.3164   24.5501 C   0  0  0  0  0  0  0  0  0  0  0  0
  -26.2185  -20.4184   22.8365 C   0  0  0  0  0  0  0  0  0  0  0  0
  -26.9474  -25.4272   22.9963 C   0  0  0  0  0  0  0  0  0  0  0  0
  -26.0363  -12.3880   23.1704 C   0  0  0  0  0  0  0  0  0  0  0  0
  -25.3078  -12.2967   20.8687 C   0  0  0  0  0  0  0  0  0  0  0  0
  -27.8686  -25.9655   22.0989 C   0  0  0  0  0  0  0  0  0  0  0  0
  -22.2130  -10.4280   21.2541 C   0  0  0  0  0  0  0  0  0  0  0  0
  -21.7557   -9.3302   20.5252 C   0  0  0  0  0  0  0  0  0  0  0  0
  -26.0577  -26.6475   20.6585 C   0  0  0  0  0  0  0  0  0  0  0  0
  -23.7802   -8.1277   21.0661 C   0  0  0  0  0  0  0  0  0  0  0  0
  -27.4668  -13.2327   21.4162 C   0  0  0  0  0  0  0  0  0  0  0  0
  -29.8988  -13.1939   20.6471 C   0  0  0  0  0  0  0  0  0  0  0  0
  -24.5556  -19.0282   23.9272 C   0  0  0  0  0  0  0  0  0  0  0  0
  -25.5726  -25.4854   22.7259 C   0  0  0  0  0  0  0  0  0  0  0  0
  -24.8704  -20.0852   23.0520 C   0  0  0  0  0  0  0  0  0  0  0  0
  -25.1210  -26.1115   21.5553 C   0  0  0  0  0  0  0  0  0  0  0  0
  -25.0738  -12.0456   22.2207 C   0  0  0  0  0  0  0  0  0  0  0  0
  -27.4240  -26.5733   20.9284 C   0  0  0  0  0  0  0  0  0  0  0  0
  -23.4540  -10.3757   21.8889 C   0  0  0  0  0  0  0  0  0  0  0  0
  -22.5392   -8.1801   20.4313 C   0  0  0  0  0  0  0  0  0  0  0  0
  -24.2375   -9.2256   21.7949 C   0  0  0  0  0  0  0  0  0  0  0  0
  -28.7023  -13.8462   21.0001 C   0  0  0  0  0  0  0  0  0  0  0  0
  -30.7649  -14.2121   20.3317 C   0  0  0  0  0  0  0  0  0  0  0  0
  -30.2003  -11.7927   20.6077 C   0  0  0  0  0  0  0  0  0  0  0  0
  -23.2835  -23.3284   22.2668 C   0  0  0  0  0  0  0  0  0  0  0  0
  -21.3632  -25.9426   22.2472 C   0  0  0  0  0  0  0  0  0  0  0  0
  -21.0512  -29.3047   21.7509 C   0  0  0  0  0  0  0  0  0  0  0  0
  -29.6323  -19.7461   18.4103 C   0  0  0  0  0  0  0  0  0  0  0  0
  -23.1315  -18.5919   24.1642 C   0  0  0  0  0  0  0  0  0  0  0  0
  -24.5904  -24.9238   23.7169 C   0  0  0  0  0  0  0  0  0  0  0  0
  -23.6547  -26.2180   21.2281 C   0  0  0  0  0  0  0  0  0  0  0  0
  -22.0975  -19.6345   23.7468 C   0  0  0  0  0  0  0  0  0  0  0  0
  -31.7094  -18.7786   21.3135 C   0  0  0  0  0  0  0  0  0  0  0  0
  -22.4284  -20.1913   22.3657 C   0  0  0  0  0  0  0  0  0  0  0  0
  -30.9736  -22.8443   15.6163 C   0  0  0  0  0  0  0  0  0  0  0  0
  -31.2238  -17.3533   21.5570 C   0  0  0  0  0  0  0  0  0  0  0  0
  -30.4135  -21.4270   15.8313 C   0  0  0  0  0  0  0  0  0  0  0  0
  -28.4639  -22.6255   17.0417 C   0  0  0  0  0  0  0  0  0  0  0  0
  -30.5965  -19.6838   20.7865 C   0  0  0  0  0  0  0  0  0  0  0  0
  -29.4366  -17.7186   19.8130 C   0  0  0  0  0  0  0  0  0  0  0  0
  -23.7911  -20.8946   22.3664 C   0  0  1  0  0  0  0  0  0  0  0  0
  -23.2407  -24.5828   23.0928 C   0  0  1  0  0  0  0  0  0  0  0  0
  -30.5570  -23.2048   17.0521 C   0  0  1  0  0  0  0  0  0  0  0  0
  -30.5581  -16.7859   20.2944 C   0  0  2  0  0  0  0  0  0  0  0  0
  -29.2241  -23.9663   17.1351 C   0  0  2  0  0  0  0  0  0  0  0  0
  -29.7970  -21.8803   17.1527 C   0  0  2  0  0  0  0  0  0  0  0  0
  -19.3502  -31.1495   21.7718 C   0  0  0  0  0  0  0  0  0  0  0  0
  -30.6750  -27.4890   20.3946 C   0  0  0  0  0  0  0  0  0  0  0  0
  -20.2858  -24.9763   19.5610 C   0  0  0  0  0  0  0  0  0  0  0  0
  -19.3408  -27.2658   19.1953 C   0  0  0  0  0  0  0  0  0  0  0  0
  -18.5499  -25.8840   21.1157 C   0  0  0  0  0  0  0  0  0  0  0  0
  -22.4752  -30.7505   23.9051 C   0  0  0  0  0  0  0  0  0  0  0  0
  -29.8045  -25.8918   18.5959 C   0  0  0  0  0  0  0  0  0  0  0  0
  -20.8657  -26.8958   21.1874 C   0  0  1  0  0  0  0  0  0  0  0  0
  -20.3880  -30.3883   22.5818 C   0  0  2  0  0  0  0  0  0  0  0  0
  -29.6066  -26.4825   19.9881 C   0  0  2  0  0  0  0  0  0  1  0  0
  -19.7883  -26.2519   20.2698 C   0  0  0  0  0  0  0  0  0  0  0  0
  -28.7962  -15.1760   20.9171 N   0  0  0  0  0  0  0  0  0  0  0  0
  -30.0621  -15.3675   20.5085 N   0  0  0  0  0  0  0  0  0  0  0  0
  -22.7338  -25.6481   22.2254 N   0  0  0  0  0  0  0  0  0  0  0  0
  -29.9184  -19.0922   19.6221 N   0  0  0  0  0  0  0  0  0  0  0  0
  -32.0516  -14.2229   19.9233 N   0  0  0  0  0  0  0  0  0  0  0  0
  -29.1952  -10.8827   20.9627 N   0  0  0  0  0  0  0  0  0  0  0  0
  -23.6825  -22.2064   22.9679 N   0  0  0  0  0  0  0  0  0  0  0  0
  -20.4136  -28.0903   21.8926 N   0  0  0  0  0  0  0  0  0  0  0  0
  -30.0296  -21.0773   18.3299 N   0  0  0  0  0  0  0  0  0  0  0  0
  -29.0423  -24.6281   18.4393 N   0  3  0  0  0  0  0  0  0  0  0  0
  -21.4056  -31.3598   23.0734 N   0  3  0  0  0  0  0  0  0  0  0  0
  -31.3326  -11.3611   20.2836 O   0  0  0  0  0  0  0  0  0  0  0  0
  -22.9758  -23.3747   21.0815 O   0  0  0  0  0  0  0  0  0  0  0  0
  -20.5663  -25.4821   23.0685 O   0  0  0  0  0  0  0  0  0  0  0  0
  -22.0341  -29.5153   21.0437 O   0  0  0  0  0  0  0  0  0  0  0  0
  -29.0581  -19.1920   17.4668 O   0  0  0  0  0  0  0  0  0  0  0  0
  -23.9063  -11.4662   22.6128 O   0  0  0  0  0  0  0  0  0  0  0  0
  -28.3211  -27.0989   20.0505 O   0  0  0  0  0  0  0  0  0  1  0  0
  -22.0992   -7.1254   19.7326 F   0  0  0  0  0  0  0  0  0  0  0  0
  -25.4301   -9.1690   22.4036 F   0  0  0  0  0  0  0  0  0  0  0  0
  1  2  1  0  0  0  0
  1  5  2  0  0  0  0
  2  6  2  0  0  0  0
  3  8  2  0  0  0  0
  3 15  1  0  0  0  0
  4  9  1  0  0  0  0
  4 15  2  0  0  0  0
  5 17  1  0  0  0  0
  6 19  1  0  0  0  0
  7 10  2  0  0  0  0
  7 18  1  0  0  0  0
  8 21  1  0  0  0  0
  9 21  2  0  0  0  0
 10 22  1  0  0  0  0
 11 12  2  0  0  0  0
 11 23  1  0  0  0  0
 12 24  1  0  0  0  0
 13 20  1  0  0  0  0
 13 22  2  0  0  0  0
 14 24  2  0  0  0  0
 14 25  1  0  0  0  0
 15 26  1  0  0  0  0
 16 26  1  0  0  0  0
 16 27  2  0  0  0  0
 16 28  1  0  0  0  0
 17 19  2  0  0  0  0
 17 33  1  0  0  0  0
 18 20  2  0  0  0  0
 18 34  1  0  0  0  0
 19 45  1  0  0  0  0
 20 35  1  0  0  0  0
 21 78  1  0  0  0  0
 22 79  1  0  0  0  0
 23 25  2  0  0  0  0
 23 78  1  0  0  0  0
 24 80  1  0  0  0  0
 25 81  1  0  0  0  0
 26 62  2  0  0  0  0
 27 63  1  0  0  0  0
 27 66  1  0  0  0  0
 28 67  1  0  0  0  0
 28 73  2  0  0  0  0
 29 46  1  0  0  0  0
 29 68  1  0  0  0  0
 29 74  2  0  0  0  0
 30 58  1  0  0  0  0
 30 64  1  0  0  0  0
 30 75  2  0  0  0  0
 31 59  1  0  0  0  0
 31 69  1  0  0  0  0
 31 76  2  0  0  0  0
 32 65  1  0  0  0  0
 32 70  1  0  0  0  0
 32 77  2  0  0  0  0
 33 36  1  0  0  0  0
 34 46  1  0  0  0  0
 35 64  1  0  0  0  0
 36 38  1  0  0  0  0
 37 40  1  0  0  0  0
 37 43  1  0  0  0  0
 38 45  1  0  0  0  0
 39 41  1  0  0  0  0
 39 47  1  0  0  0  0
 40 48  1  0  0  0  0
 41 50  1  0  0  0  0
 42 49  1  0  0  0  0
 42 50  1  0  0  0  0
 43 65  1  0  0  0  0
 44 48  1  0  0  0  0
 44 65  1  0  0  0  0
 45 68  1  0  0  0  0
 46 64  1  0  0  0  0
 47 49  1  0  0  0  0
 47 50  1  0  0  0  0
 48 63  1  0  0  0  0
 49 71  1  0  0  0  0
 50 70  1  0  0  0  0
 51 59  1  0  0  0  0
 52 60  1  0  0  0  0
 53 61  1  0  0  0  0
 54 61  1  0  0  0  0
 55 61  1  0  0  0  0
 56 72  1  0  0  0  0
 57 60  1  0  0  0  0
 57 71  1  0  0  0  0
 58 61  1  0  0  0  0
 58 69  1  0  0  0  0
 59 72  1  0  0  0  0
 60 79  1  0  0  0  0
 62 63  1  0  0  0  0
M  CHG  2  71   1  72   1
M  ISO  4  32 100  60 101  70 100  79 101
M  END
> <Batch ID>
0174

> <Smiles>
CNC(C)C(=O)NC(C(=O)N1Cc2cc([101O:1][101CH:1](C)CNC3CC4([100NH:0][100C:0](=O)N5CCCC(n6nc(-c7ccc(Oc8ccc(F)cc8F)cc7)c(C(N)=O)c6N)C5)CCC34)ccc2CC1C(=O)NC1CCCc2ccccc21)C(C)(C)C

> <Shape>
0.234

> <Color>
0.048

> <Negative vol penalty>
0.000

$$$$

  -OEChem-04052322453D

 85 93  0     1  0  0  0  0  0999 V2000
  -21.2306  -27.9661   26.1312 C   0  0  0  0  0  0  0  0  0  0  0  0
  -22.2463  -27.4341   25.3434 C   0  0  0  0  0  0  0  0  0  0  0  0
  -26.8454  -13.2294   20.7427 C   0  0  0  0  0  0  0  0  0  0  0  0
  -25.6706  -14.5803   19.1203 C   0  0  0  0  0  0  0  0  0  0  0  0
  -19.9858  -28.2437   25.5679 C   0  0  0  0  0  0  0  0  0  0  0  0
  -22.0175  -27.1784   23.9918 C   0  0  0  0  0  0  0  0  0  0  0  0
  -25.8263  -28.7464   21.0458 C   0  0  0  0  0  0  0  0  0  0  0  0
  -26.0681  -12.1270   20.3877 C   0  0  0  0  0  0  0  0  0  0  0  0
  -24.8933  -13.4778   18.7652 C   0  0  0  0  0  0  0  0  0  0  0  0
  -26.9656  -27.9441   20.9973 C   0  0  0  0  0  0  0  0  0  0  0  0
  -22.9546  -10.9698   21.0136 C   0  0  0  0  0  0  0  0  0  0  0  0
  -22.4298  -10.1891   22.0435 C   0  0  0  0  0  0  0  0  0  0  0  0
  -26.2156  -27.0164   18.9006 C   0  0  0  0  0  0  0  0  0  0  0  0
  -27.3594  -22.3249   17.7560 C   0  0  0  0  0  0  0  0  0  0  0  0
  -23.6214   -8.2669   21.1935 C   0  0  0  0  0  0  0  0  0  0  0  0
  -26.6466  -14.4561   20.1091 C   0  0  0  0  0  0  0  0  0  0  0  0
  -28.6778  -15.9868   19.9115 C   0  0  0  0  0  0  0  0  0  0  0  0
  -19.7446  -28.0003   24.2065 C   0  0  0  0  0  0  0  0  0  0  0  0
  -24.8662  -28.6816   20.0258 C   0  0  0  0  0  0  0  0  0  0  0  0
  -20.7679  -27.4518   23.4100 C   0  0  0  0  0  0  0  0  0  0  0  0
  -25.0663  -27.8207   18.9372 C   0  0  0  0  0  0  0  0  0  0  0  0
  -28.2102  -22.6703   18.8001 C   0  0  0  0  0  0  0  0  0  0  0  0
  -27.6784  -23.1277   20.0006 C   0  0  0  0  0  0  0  0  0  0  0  0
  -25.0921  -12.2512   19.3990 C   0  0  0  0  0  0  0  0  0  0  0  0
  -27.1589  -27.0769   19.9260 C   0  0  0  0  0  0  0  0  0  0  0  0
  -23.8127  -10.3990   20.0736 C   0  0  0  0  0  0  0  0  0  0  0  0
  -22.7632   -8.8377   22.1335 C   0  0  0  0  0  0  0  0  0  0  0  0
  -24.1461   -9.0476   20.1636 C   0  0  0  0  0  0  0  0  0  0  0  0
  -27.4489  -15.5954   20.4757 C   0  0  0  0  0  0  0  0  0  0  0  0
  -25.9952  -22.4540   17.9614 C   0  0  0  0  0  0  0  0  0  0  0  0
  -26.2999  -23.2209   20.1054 C   0  0  0  0  0  0  0  0  0  0  0  0
  -29.0269  -17.1215   20.6022 C   0  0  0  0  0  0  0  0  0  0  0  0
  -29.4359  -15.3790   18.8572 C   0  0  0  0  0  0  0  0  0  0  0  0
  -21.7917  -27.8866   19.8865 C   0  0  0  0  0  0  0  0  0  0  0  0
  -22.0709  -28.8977   16.8169 C   0  0  0  0  0  0  0  0  0  0  0  0
  -24.0942  -29.4807   14.1312 C   0  0  0  0  0  0  0  0  0  0  0  0
  -25.8406  -21.2285   23.5738 C   0  0  0  0  0  0  0  0  0  0  0  0
  -18.3682  -28.2724   23.6532 C   0  0  0  0  0  0  0  0  0  0  0  0
  -23.6558  -29.5730   20.0796 C   0  0  0  0  0  0  0  0  0  0  0  0
  -24.0755  -27.7284   17.8066 C   0  0  0  0  0  0  0  0  0  0  0  0
  -18.3238  -28.3223   22.1281 C   0  0  0  0  0  0  0  0  0  0  0  0
  -28.4860  -19.2255   24.8649 C   0  0  0  0  0  0  0  0  0  0  0  0
  -19.0865  -27.1430   21.5329 C   0  0  0  0  0  0  0  0  0  0  0  0
  -28.6310  -18.1034   23.8355 C   0  0  0  0  0  0  0  0  0  0  0  0
  -27.0265  -19.6339   25.0528 C   0  0  0  0  0  0  0  0  0  0  0  0
  -26.4628  -18.8666   22.7796 C   0  0  0  0  0  0  0  0  0  0  0  0
  -20.5659  -27.1837   21.9344 C   0  0  1  0  0  0  0  0  0  0  0  0
  -22.4915  -29.0506   19.2437 C   0  0  1  0  0  0  0  0  0  0  0  0
  -27.9222  -18.4590   22.5148 C   0  0  2  0  0  0  0  0  0  0  0  0
  -29.6854  -22.5415   18.6039 C   0  0  0  0  0  0  0  0  0  0  0  0
  -25.0520  -22.0923   16.8628 C   0  0  0  0  0  0  0  0  0  0  0  0
  -24.0289  -30.2706   11.7503 C   0  0  0  0  0  0  0  0  0  0  0  0
  -30.5386  -24.2937   22.0700 C   0  0  0  0  0  0  0  0  0  0  0  0
  -20.9252  -26.2036   15.9571 C   0  0  0  0  0  0  0  0  0  0  0  0
  -21.7584  -26.6667   13.6420 C   0  0  0  0  0  0  0  0  0  0  0  0
  -20.0526  -28.1654   14.6748 C   0  0  0  0  0  0  0  0  0  0  0  0
  -25.8712  -31.7727   14.7211 C   0  0  0  0  0  0  0  0  0  0  0  0
  -25.6674  -23.7071   21.3692 C   0  0  0  0  0  0  0  0  0  0  0  0
  -24.6661  -22.7162   21.9719 C   0  0  0  0  0  0  0  0  0  0  0  0
  -28.8337  -25.8856   21.1226 C   0  0  0  0  0  0  0  0  0  1  0  0
  -22.4389  -28.2459   15.5059 C   0  0  1  0  0  0  0  0  0  0  0  0
  -24.2177  -30.6761   13.2038 C   0  0  2  0  0  0  0  0  0  0  0  0
  -29.5040  -24.5213   20.9757 C   0  0  2  0  0  0  0  0  0  0  0  0
  -21.3117  -27.3205   14.9671 C   0  0  0  0  0  0  0  0  0  0  0  0
  -27.0446  -16.4148   21.4500 N   0  0  0  0  0  0  0  0  0  0  0  0
  -25.4416  -22.8946   19.1133 N   0  0  0  0  0  0  0  0  0  0  0  0
  -28.0251  -17.3323   21.5033 N   0  0  0  0  0  0  0  0  0  0  0  0
  -22.9050  -28.6156   17.9080 N   0  0  0  0  0  0  0  0  0  0  0  0
  -26.4130  -19.9598   23.7631 N   0  0  0  0  0  0  0  0  0  0  0  0
  -30.0901  -17.9493   20.5206 N   0  0  0  0  0  0  0  0  0  0  0  0
  -28.9322  -14.2175   18.2559 N   0  0  0  0  0  0  0  0  0  0  0  0
  -28.5018  -23.4774   21.0549 N   0  0  0  0  0  0  0  0  0  0  0  0
  -21.2786  -28.1610   21.1398 N   0  0  0  0  0  0  0  0  0  0  0  0
  -22.8066  -29.3292   14.6005 N   0  0  0  0  0  0  0  0  0  0  0  0
  -25.2864  -21.4575   22.3203 N   0  0  0  0  0  0  0  0  0  0  0  0
  -25.5613  -31.3050   13.3455 N   0  3  0  0  0  0  0  0  0  0  0  0
  -30.5357  -15.8427   18.4712 O   0  0  0  0  0  0  0  0  0  0  0  0
  -21.7213  -26.8191   19.2889 O   0  0  0  0  0  0  0  0  0  0  0  0
  -21.0839  -29.6357   16.8692 O   0  0  0  0  0  0  0  0  0  0  0  0
  -25.0442  -28.7518   14.4085 O   0  0  0  0  0  0  0  0  0  0  0  0
  -25.8292  -22.0949   24.4548 O   0  0  0  0  0  0  0  0  0  0  0  0
  -24.3335  -11.1756   19.0521 O   0  0  0  0  0  0  0  0  0  0  0  0
  -28.2697  -26.2923   19.8765 O   0  0  0  0  0  0  0  0  0  1  0  0
  -22.2604   -8.0885   23.1234 F   0  0  0  0  0  0  0  0  0  0  0  0
  -24.9709   -8.4939   19.2641 F   0  0  0  0  0  0  0  0  0  0  0  0
  1  2  1  0  0  0  0
  1  5  2  0  0  0  0
  2  6  2  0  0  0  0
  3  8  2  0  0  0  0
  3 16  1  0  0  0  0
  4  9  1  0  0  0  0
  4 16  2  0  0  0  0
  5 18  1  0  0  0  0
  6 20  1  0  0  0  0
  7 10  2  0  0  0  0
  7 19  1  0  0  0  0
  8 24  1  0  0  0  0
  9 24  2  0  0  0  0
 10 25  1  0  0  0  0
 11 12  2  0  0  0  0
 11 26  1  0  0  0  0
 12 27  1  0  0  0  0
 13 21  1  0  0  0  0
 13 25  2  0  0  0  0
 14 22  2  0  0  0  0
 14 30  1  0  0  0  0
 15 27  2  0  0  0  0
 15 28  1  0  0  0  0
 16 29  1  0  0  0  0
 17 29  1  0  0  0  0
 17 32  2  0  0  0  0
 17 33  1  0  0  0  0
 18 20  2  0  0  0  0
 18 38  1  0  0  0  0
 19 21  2  0  0  0  0
 19 39  1  0  0  0  0
 20 47  1  0  0  0  0
 21 40  1  0  0  0  0
 22 23  1  0  0  0  0
 22 50  1  0  0  0  0
 23 31  2  0  0  0  0
 23 72  1  0  0  0  0
 24 82  1  0  0  0  0
 25 83  1  0  0  0  0
 26 28  2  0  0  0  0
 26 82  1  0  0  0  0
 27 84  1  0  0  0  0
 28 85  1  0  0  0  0
 29 65  2  0  0  0  0
 30 51  1  0  0  0  0
 30 66  2  0  0  0  0
 31 58  1  0  0  0  0
 31 66  1  0  0  0  0
 32 67  1  0  0  0  0
 32 70  1  0  0  0  0
 33 71  1  0  0  0  0
 33 77  2  0  0  0  0
 34 48  1  0  0  0  0
 34 73  1  0  0  0  0
 34 78  2  0  0  0  0
 35 61  1  0  0  0  0
 35 68  1  0  0  0  0
 35 79  2  0  0  0  0
 36 62  1  0  0  0  0
 36 74  1  0  0  0  0
 36 80  2  0  0  0  0
 37 69  1  0  0  0  0
 37 75  1  0  0  0  0
 37 81  2  0  0  0  0
 38 41  1  0  0  0  0
 39 48  1  0  0  0  0
 40 68  1  0  0  0  0
 41 43  1  0  0  0  0
 42 44  1  0  0  0  0
 42 45  1  0  0  0  0
 43 47  1  0  0  0  0
 44 49  1  0  0  0  0
 45 69  1  0  0  0  0
 46 49  1  0  0  0  0
 46 69  1  0  0  0  0
 47 73  1  0  0  0  0
 48 68  1  0  0  0  0
 49 67  1  0  0  0  0
 52 62  1  0  0  0  0
 53 63  1  0  0  0  0
 54 64  1  0  0  0  0
 55 64  1  0  0  0  0
 56 64  1  0  0  0  0
 57 76  1  0  0  0  0
 58 59  1  0  0  0  0
 59 75  1  0  0  0  0
 60 63  1  0  0  0  0
 60 83  1  0  0  0  0
 61 64  1  0  0  0  0
 61 74  1  0  0  0  0
 62 76  1  0  0  0  0
 63 72  1  0  0  0  0
 65 67  1  0  0  0  0
M  CHG  1  76   1
M  ISO  4  37 100  60 101  75 100  83 101
M  END
> <Batch ID>
0174

> <Smiles>
CNC(C)C(=O)NC(C(=O)N1Cc2cc([101O:1][101CH2:1]C(C)Nc3c(C)cc(C)nc3CC[100NH:0][100C:0](=O)N3CCCC(n4nc(-c5ccc(Oc6ccc(F)cc6F)cc5)c(C(N)=O)c4N)C3)ccc2CC1C(=O)NC1CCCc2ccccc21)C(C)(C)C

> <Shape>
0.196

> <Color>
0.083

> <Negative vol penalty>
0.000

$$$$

  -OEChem-04052322453D

 84 93  0     1  0  0  0  0  0999 V2000
  -25.1887  -37.2068   22.0551 C   0  0  0  0  0  0  0  0  0  0  0  0
  -25.9563  -36.1387   21.6018 C   0  0  0  0  0  0  0  0  0  0  0  0
  -25.7801  -13.4912   23.2074 C   0  0  0  0  0  0  0  0  0  0  0  0
  -24.1845  -12.3550   21.7930 C   0  0  0  0  0  0  0  0  0  0  0  0
  -24.2480  -37.0087   23.0649 C   0  0  0  0  0  0  0  0  0  0  0  0
  -25.7842  -34.8720   22.1588 C   0  0  0  0  0  0  0  0  0  0  0  0
  -26.2564  -29.4884   19.2780 C   0  0  0  0  0  0  0  0  0  0  0  0
  -25.2974  -12.7920   24.3136 C   0  0  0  0  0  0  0  0  0  0  0  0
  -23.7019  -11.6557   22.8992 C   0  0  0  0  0  0  0  0  0  0  0  0
  -27.2895  -28.5558   19.1961 C   0  0  0  0  0  0  0  0  0  0  0  0
  -24.6290   -8.9892   24.7567 C   0  0  0  0  0  0  0  0  0  0  0  0
  -24.4114   -7.6191   24.6110 C   0  0  0  0  0  0  0  0  0  0  0  0
  -26.2895  -27.2989   20.9959 C   0  0  0  0  0  0  0  0  0  0  0  0
  -22.0755   -7.9336   25.1419 C   0  0  0  0  0  0  0  0  0  0  0  0
  -32.1034  -23.6630   19.0879 C   0  0  0  0  0  0  0  0  0  0  0  0
  -25.2236  -13.2728   21.9471 C   0  0  0  0  0  0  0  0  0  0  0  0
  -26.7631  -13.6068   19.9406 C   0  0  0  0  0  0  0  0  0  0  0  0
  -24.0576  -35.7369   23.6279 C   0  0  0  0  0  0  0  0  0  0  0  0
  -25.2362  -29.3388   20.2284 C   0  0  0  0  0  0  0  0  0  0  0  0
  -24.8410  -34.6570   23.1780 C   0  0  0  0  0  0  0  0  0  0  0  0
  -25.2432  -28.2296   21.0861 C   0  0  0  0  0  0  0  0  0  0  0  0
  -24.2583  -11.8742   24.1595 C   0  0  0  0  0  0  0  0  0  0  0  0
  -27.3078  -27.4624   20.0571 C   0  0  0  0  0  0  0  0  0  0  0  0
  -23.5698   -9.8315   25.0951 C   0  0  0  0  0  0  0  0  0  0  0  0
  -23.1347   -7.0914   24.8036 C   0  0  0  0  0  0  0  0  0  0  0  0
  -22.2931   -9.3037   25.2877 C   0  0  0  0  0  0  0  0  0  0  0  0
  -25.7213  -13.9952   20.8041 C   0  0  0  0  0  0  0  0  0  0  0  0
  -30.7658  -23.4455   18.8273 C   0  0  0  0  0  0  0  0  0  0  0  0
  -32.4618  -24.9763   19.3137 C   0  0  0  0  0  0  0  0  0  0  0  0
  -26.8479  -14.6265   19.0244 C   0  0  0  0  0  0  0  0  0  0  0  0
  -30.3147  -25.6646   19.0248 C   0  0  0  0  0  0  0  0  0  0  0  0
  -27.5810  -12.4294   19.9645 C   0  0  0  0  0  0  0  0  0  0  0  0
  -24.2085  -31.0476   22.7038 C   0  0  0  0  0  0  0  0  0  0  0  0
  -21.8612  -28.8098   22.7753 C   0  0  0  0  0  0  0  0  0  0  0  0
  -20.8486  -25.6470   21.9891 C   0  0  0  0  0  0  0  0  0  0  0  0
  -26.8793  -19.9275   17.6391 C   0  0  0  0  0  0  0  0  0  0  0  0
  -23.0619  -35.5814   24.7500 C   0  0  0  0  0  0  0  0  0  0  0  0
  -24.1145  -30.3392   20.2860 C   0  0  0  0  0  0  0  0  0  0  0  0
  -24.1606  -28.0124   22.1105 C   0  0  0  0  0  0  0  0  0  0  0  0
  -22.6778  -34.1302   25.0268 C   0  0  0  0  0  0  0  0  0  0  0  0
  -23.7594  -18.5198   18.1215 C   0  0  0  0  0  0  0  0  0  0  0  0
  -23.9223  -33.2497   25.0809 C   0  0  0  0  0  0  0  0  0  0  0  0
  -24.0648  -17.1803   18.7915 C   0  0  0  0  0  0  0  0  0  0  0  0
  -29.2591  -21.5714   19.6271 C   0  0  0  0  0  0  0  0  0  0  0  0
  -29.6902  -21.8781   17.1512 C   0  0  0  0  0  0  0  0  0  0  0  0
  -24.6518  -19.6237   18.6768 C   0  0  0  0  0  0  0  0  0  0  0  0
  -28.7435  -20.1584   19.3399 C   0  0  0  0  0  0  0  0  0  0  0  0
  -29.1909  -20.4538   16.9263 C   0  0  0  0  0  0  0  0  0  0  0  0
  -26.4344  -17.9984   19.2237 C   0  0  0  0  0  0  0  0  0  0  0  0
  -24.6662  -33.2628   23.7401 C   0  0  1  0  0  0  0  0  0  0  0  0
  -30.2748  -22.0339   18.5668 C   0  0  0  0  0  0  0  0  0  0  0  0
  -23.4036  -30.3627   21.6357 C   0  0  1  0  0  0  0  0  0  0  0  0
  -25.5629  -16.8418   18.6934 C   0  0  1  0  0  0  0  0  0  0  0  0
  -33.8865  -25.3095   19.6058 C   0  0  0  0  0  0  0  0  0  0  0  0
  -18.8902  -24.0936   22.2099 C   0  0  0  0  0  0  0  0  0  0  0  0
  -22.5544  -28.3572   25.7121 C   0  0  0  0  0  0  0  0  0  0  0  0
  -21.2743  -26.2080   25.6109 C   0  0  0  0  0  0  0  0  0  0  0  0
  -20.1047  -28.3744   25.2092 C   0  0  0  0  0  0  0  0  0  0  0  0
  -20.5558  -25.4121   19.0535 C   0  0  0  0  0  0  0  0  0  0  0  0
  -29.3212  -26.7763   18.9935 C   0  0  0  0  0  0  0  0  0  1  0  0
  -21.6802  -27.4715   23.4500 C   0  0  1  0  0  0  0  0  0  0  0  0
  -19.5804  -25.1287   21.3353 C   0  0  2  0  0  0  0  0  0  0  0  0
  -21.4250  -27.6076   24.9776 C   0  0  0  0  0  0  0  0  0  0  0  0
  -25.1830  -15.1701   20.4667 N   0  0  0  0  0  0  0  0  0  0  0  0
  -29.8406  -24.4267   18.7879 N   0  0  0  0  0  0  0  0  0  0  0  0
  -31.5903  -26.0060   19.2896 N   0  0  0  0  0  0  0  0  0  0  0  0
  -25.8893  -15.5288   19.3811 N   0  0  0  0  0  0  0  0  0  0  0  0
  -23.0889  -29.0216   22.1321 N   0  0  0  0  0  0  0  0  0  0  0  0
  -26.0654  -19.2631   18.5689 N   0  0  0  0  0  0  0  0  0  0  0  0
  -28.2378  -20.0600   17.9636 N   0  0  0  0  0  0  0  0  0  0  0  0
  -27.6482  -14.8304   17.9565 N   0  0  0  0  0  0  0  0  0  0  0  0
  -27.3605  -11.4831   20.9746 N   0  0  0  0  0  0  0  0  0  0  0  0
  -23.9956  -32.4107   22.7817 N   0  0  0  0  0  0  0  0  0  0  0  0
  -20.6139  -26.7896   22.7245 N   0  0  0  0  0  0  0  0  0  0  0  0
  -19.8948  -24.4994   20.0215 N   0  3  0  0  0  0  0  0  0  0  0  0
  -28.4916  -12.2304   19.1250 O   0  0  0  0  0  0  0  0  0  0  0  0
  -24.9654  -30.3879   23.4063 O   0  0  0  0  0  0  0  0  0  0  0  0
  -20.9442  -29.6342   22.8115 O   0  0  0  0  0  0  0  0  0  0  0  0
  -21.9378  -25.0917   21.8633 O   0  0  0  0  0  0  0  0  0  0  0  0
  -26.4202  -20.3756   16.5810 O   0  0  0  0  0  0  0  0  0  0  0  0
  -23.7873  -11.1915   25.2387 O   0  0  0  0  0  0  0  0  0  0  0  0
  -28.3223  -26.5448   19.9792 O   0  0  0  0  0  0  0  0  0  1  0  0
  -22.9256   -5.7759   24.6621 F   0  0  0  0  0  0  0  0  0  0  0  0
  -21.2714  -10.1080   25.6117 F   0  0  0  0  0  0  0  0  0  0  0  0
  1  2  1  0  0  0  0
  1  5  2  0  0  0  0
  2  6  2  0  0  0  0
  3  8  2  0  0  0  0
  3 16  1  0  0  0  0
  4  9  1  0  0  0  0
  4 16  2  0  0  0  0
  5 18  1  0  0  0  0
  6 20  1  0  0  0  0
  7 10  2  0  0  0  0
  7 19  1  0  0  0  0
  8 22  1  0  0  0  0
  9 22  2  0  0  0  0
 10 23  1  0  0  0  0
 11 12  2  0  0  0  0
 11 24  1  0  0  0  0
 12 25  1  0  0  0  0
 13 21  1  0  0  0  0
 13 23  2  0  0  0  0
 14 25  2  0  0  0  0
 14 26  1  0  0  0  0
 15 28  2  0  0  0  0
 15 29  1  0  0  0  0
 16 27  1  0  0  0  0
 17 27  1  0  0  0  0
 17 30  2  0  0  0  0
 17 32  1  0  0  0  0
 18 20  2  0  0  0  0
 18 37  1  0  0  0  0
 19 21  2  0  0  0  0
 19 38  1  0  0  0  0
 20 50  1  0  0  0  0
 21 39  1  0  0  0  0
 22 81  1  0  0  0  0
 23 82  1  0  0  0  0
 24 26  2  0  0  0  0
 24 81  1  0  0  0  0
 25 83  1  0  0  0  0
 26 84  1  0  0  0  0
 27 64  2  0  0  0  0
 28 51  1  0  0  0  0
 28 65  1  0  0  0  0
 29 54  1  0  0  0  0
 29 66  2  0  0  0  0
 30 67  1  0  0  0  0
 30 71  1  0  0  0  0
 31 60  1  0  0  0  0
 31 65  2  0  0  0  0
 31 66  1  0  0  0  0
 32 72  1  0  0  0  0
 32 76  2  0  0  0  0
 33 52  1  0  0  0  0
 33 73  1  0  0  0  0
 33 77  2  0  0  0  0
 34 61  1  0  0  0  0
 34 68  1  0  0  0  0
 34 78  2  0  0  0  0
 35 62  1  0  0  0  0
 35 74  1  0  0  0  0
 35 79  2  0  0  0  0
 36 69  1  0  0  0  0
 36 70  1  0  0  0  0
 36 80  2  0  0  0  0
 37 40  1  0  0  0  0
 38 52  1  0  0  0  0
 39 68  1  0  0  0  0
 40 42  1  0  0  0  0
 41 43  1  0  0  0  0
 41 46  1  0  0  0  0
 42 50  1  0  0  0  0
 43 53  1  0  0  0  0
 44 47  1  0  0  0  0
 44 51  1  0  0  0  0
 45 48  1  0  0  0  0
 45 51  1  0  0  0  0
 46 69  1  0  0  0  0
 47 70  1  0  0  0  0
 48 70  1  0  0  0  0
 49 53  1  0  0  0  0
 49 69  1  0  0  0  0
 50 73  1  0  0  0  0
 52 68  1  0  0  0  0
 53 67  1  0  0  0  0
 55 62  1  0  0  0  0
 56 63  1  0  0  0  0
 57 63  1  0  0  0  0
 58 63  1  0  0  0  0
 59 75  1  0  0  0  0
 60 82  1  0  0  0  0
 61 63  1  0  0  0  0
 61 74  1  0  0  0  0
 62 75  1  0  0  0  0
 64 67  1  0  0  0  0
M  CHG  1  75   1
M  ISO  4  36 100  60 101  70 100  82 101
M  END
> <Batch ID>
0174

> <Smiles>
CNC(C)C(=O)NC(C(=O)N1Cc2cc([101O:1][101CH2:1]c3nc(C)cc(C4CC[100N:0]([100C:0](=O)N5CCCC(n6nc(-c7ccc(Oc8ccc(F)cc8F)cc7)c(C(N)=O)c6N)C5)CC4)n3)ccc2CC1C(=O)NC1CCCc2ccccc21)C(C)(C)C

> <Shape>
0.260

> <Color>
0.070

> <Negative vol penalty>
0.000

$$$$

  -OEChem-04052322453D

 87 97  0     1  0  0  0  0  0999 V2000
  -21.7764  -12.7487   19.3665 C   0  0  0  0  0  0  0  0  0  0  0  0
  -21.7807  -14.0372   19.8911 C   0  0  0  0  0  0  0  0  0  0  0  0
  -29.1868  -29.5564   20.1263 C   0  0  0  0  0  0  0  0  0  0  0  0
  -29.1147  -28.0099   21.9811 C   0  0  0  0  0  0  0  0  0  0  0  0
  -22.9271  -11.9646   19.4375 C   0  0  0  0  0  0  0  0  0  0  0  0
  -22.9354  -14.5420   20.4880 C   0  0  0  0  0  0  0  0  0  0  0  0
  -23.9573  -19.2853   19.0383 C   0  0  0  0  0  0  0  0  0  0  0  0
  -30.4022  -30.0582   20.5919 C   0  0  0  0  0  0  0  0  0  0  0  0
  -30.3301  -28.5116   22.4466 C   0  0  0  0  0  0  0  0  0  0  0  0
  -23.2141  -20.3059   19.6297 C   0  0  0  0  0  0  0  0  0  0  0  0
  -33.6103  -28.1702   21.7089 C   0  0  0  0  0  0  0  0  0  0  0  0
  -34.5760  -27.2500   22.1166 C   0  0  0  0  0  0  0  0  0  0  0  0
  -25.0470  -20.7629   21.1300 C   0  0  0  0  0  0  0  0  0  0  0  0
  -20.4382  -23.6476   25.1329 C   0  0  0  0  0  0  0  0  0  0  0  0
  -34.5594  -28.2142   24.3319 C   0  0  0  0  0  0  0  0  0  0  0  0
  -28.5430  -28.5323   20.8209 C   0  0  0  0  0  0  0  0  0  0  0  0
  -27.0956  -26.9464   19.4435 C   0  0  0  0  0  0  0  0  0  0  0  0
  -24.0994  -12.4635   20.0270 C   0  0  0  0  0  0  0  0  0  0  0  0
  -25.2489  -18.9881   19.4963 C   0  0  0  0  0  0  0  0  0  0  0  0
  -24.1024  -13.7633   20.5681 C   0  0  0  0  0  0  0  0  0  0  0  0
  -25.8054  -19.7397   20.5411 C   0  0  0  0  0  0  0  0  0  0  0  0
  -19.4621  -25.7793   25.6688 C   0  0  0  0  0  0  0  0  0  0  0  0
  -19.9203  -24.5306   26.0738 C   0  0  0  0  0  0  0  0  0  0  0  0
  -30.9739  -29.5357   21.7520 C   0  0  0  0  0  0  0  0  0  0  0  0
  -23.7578  -21.0430   20.6777 C   0  0  0  0  0  0  0  0  0  0  0  0
  -33.1192  -29.1125   22.6126 C   0  0  0  0  0  0  0  0  0  0  0  0
  -35.0505  -27.2720   23.4281 C   0  0  0  0  0  0  0  0  0  0  0  0
  -33.5937  -29.1344   23.9241 C   0  0  0  0  0  0  0  0  0  0  0  0
  -27.2873  -28.0140   20.3409 C   0  0  0  0  0  0  0  0  0  0  0  0
  -19.5431  -26.0944   24.3219 C   0  0  0  0  0  0  0  0  0  0  0  0
  -20.4753  -24.0580   23.8100 C   0  0  0  0  0  0  0  0  0  0  0  0
  -25.7319  -26.8498   19.3110 C   0  0  0  0  0  0  0  0  0  0  0  0
  -28.0637  -26.1162   18.7882 C   0  0  0  0  0  0  0  0  0  0  0  0
  -26.6363  -16.4426   20.8000 C   0  0  0  0  0  0  0  0  0  0  0  0
  -29.3220  -18.2364   20.4976 C   0  0  0  0  0  0  0  0  0  0  0  0
  -30.7191  -21.3383   20.2273 C   0  0  0  0  0  0  0  0  0  0  0  0
  -21.3384  -28.4136   22.9607 C   0  0  0  0  0  0  0  0  0  0  0  0
  -25.3044  -11.5615   20.1227 C   0  0  0  0  0  0  0  0  0  0  0  0
  -26.0478  -17.9017   18.8301 C   0  0  0  0  0  0  0  0  0  0  0  0
  -27.1955  -19.4738   21.0563 C   0  0  0  0  0  0  0  0  0  0  0  0
  -26.5994  -12.3064   20.4364 C   0  0  0  0  0  0  0  0  0  0  0  0
  -21.7528  -29.5036   19.5181 C   0  0  0  0  0  0  0  0  0  0  0  0
  -19.4961  -28.1347   26.7295 C   0  0  0  0  0  0  0  0  0  0  0  0
  -19.7292  -27.1571   27.8387 C   0  0  0  0  0  0  0  0  0  0  0  0
  -26.3838  -13.2942   21.5786 C   0  0  0  0  0  0  0  0  0  0  0  0
  -23.2149  -29.1346   19.2580 C   0  0  0  0  0  0  0  0  0  0  0  0
  -18.1072  -27.4328   22.5010 C   0  0  0  0  0  0  0  0  0  0  0  0
  -21.5625  -29.9917   20.9494 C   0  0  0  0  0  0  0  0  0  0  0  0
  -18.9641  -28.5078   21.8347 C   0  0  0  0  0  0  0  0  0  0  0  0
  -23.4706  -28.6703   21.7445 C   0  0  0  0  0  0  0  0  0  0  0  0
  -18.9001  -26.7537   26.6475 C   0  0  0  0  0  0  0  0  0  0  0  0
  -25.3430  -14.3552   21.2013 C   0  0  1  0  0  0  0  0  0  0  0  0
  -19.0619  -27.4765   23.7103 C   0  0  2  0  0  0  0  0  0  0  0  0
  -27.1569  -17.3456   19.7178 C   0  0  1  0  0  0  0  0  0  0  0  0
  -23.7431  -28.1512   20.3197 C   0  0  2  0  0  0  0  0  0  0  0  0
  -19.8673  -24.1159   27.5072 C   0  0  0  0  0  0  0  0  0  0  0  0
  -32.9414  -22.4879   20.0339 C   0  0  0  0  0  0  0  0  0  0  0  0
  -29.8243  -17.7599   23.4692 C   0  0  0  0  0  0  0  0  0  0  0  0
  -31.4614  -19.6537   23.4249 C   0  0  0  0  0  0  0  0  0  0  0  0
  -31.8660  -17.6247   22.0313 C   0  0  0  0  0  0  0  0  0  0  0  0
  -30.0178  -22.5044   17.5991 C   0  0  0  0  0  0  0  0  0  0  0  0
  -21.0979  -23.4517   21.4711 C   0  0  0  0  0  0  0  0  0  0  0  0
  -21.7249  -22.2755   20.7414 C   0  0  0  0  0  0  0  0  0  1  0  0
  -30.0398  -19.2414   21.3657 C   0  0  1  0  0  0  0  0  0  0  0  0
  -31.7645  -21.8928   19.2765 C   0  0  2  0  0  0  0  0  0  0  0  0
  -30.7709  -18.5739   22.5646 C   0  0  0  0  0  0  0  0  0  0  0  0
  -26.1374  -28.5569   20.7495 N   0  0  0  0  0  0  0  0  0  0  0  0
  -20.0397  -25.2629   23.3787 N   0  0  0  0  0  0  0  0  0  0  0  0
  -25.2100  -27.8276   20.1059 N   0  0  0  0  0  0  0  0  0  0  0  0
  -27.9345  -18.3971   20.3764 N   0  0  0  0  0  0  0  0  0  0  0  0
  -22.0468  -28.9909   21.9041 N   0  0  0  0  0  0  0  0  0  0  0  0
  -19.9812  -28.2262   22.8313 N   0  0  0  0  0  0  0  0  0  0  0  0
  -24.9403  -26.0248   18.5933 N   0  0  0  0  0  0  0  0  0  0  0  0
  -29.4229  -26.3515   19.0363 N   0  0  0  0  0  0  0  0  0  0  0  0
  -20.9937  -23.1678   22.8841 N   0  0  0  0  0  0  0  0  0  0  0  0
  -25.9296  -15.3517   20.3310 N   0  0  0  0  0  0  0  0  0  0  0  0
  -30.9161  -19.9966   20.4768 N   0  0  0  0  0  0  0  0  0  0  0  0
  -31.1715  -22.9571   18.4182 N   0  3  0  0  0  0  0  0  0  0  0  0
  -27.7336  -25.2037   17.9933 O   0  0  0  0  0  0  0  0  0  0  0  0
  -26.8605  -16.7147   21.9737 O   0  0  0  0  0  0  0  0  0  0  0  0
  -29.9697  -17.3458   19.9416 O   0  0  0  0  0  0  0  0  0  0  0  0
  -29.8200  -22.0274   20.7041 O   0  0  0  0  0  0  0  0  0  0  0  0
  -21.9184  -28.0373   23.9890 O   0  0  0  0  0  0  0  0  0  0  0  0
  -32.1599  -30.0249   22.2064 O   0  0  0  0  0  0  0  0  0  0  0  0
  -23.0343  -22.0393   21.2571 O   0  0  0  0  0  0  0  0  0  1  0  0
  -35.9767  -26.3872   23.8200 F   0  0  0  0  0  0  0  0  0  0  0  0
  -33.1248  -30.0365   24.7971 F   0  0  0  0  0  0  0  0  0  0  0  0
  1  2  1  0  0  0  0
  1  5  2  0  0  0  0
  2  6  2  0  0  0  0
  3  8  2  0  0  0  0
  3 16  1  0  0  0  0
  4  9  1  0  0  0  0
  4 16  2  0  0  0  0
  5 18  1  0  0  0  0
  6 20  1  0  0  0  0
  7 10  2  0  0  0  0
  7 19  1  0  0  0  0
  8 24  1  0  0  0  0
  9 24  2  0  0  0  0
 10 25  1  0  0  0  0
 11 12  2  0  0  0  0
 11 26  1  0  0  0  0
 12 27  1  0  0  0  0
 13 21  1  0  0  0  0
 13 25  2  0  0  0  0
 14 23  2  0  0  0  0
 14 31  1  0  0  0  0
 15 27  2  0  0  0  0
 15 28  1  0  0  0  0
 16 29  1  0  0  0  0
 17 29  1  0  0  0  0
 17 32  2  0  0  0  0
 17 33  1  0  0  0  0
 18 20  2  0  0  0  0
 18 38  1  0  0  0  0
 19 21  2  0  0  0  0
 19 39  1  0  0  0  0
 20 52  1  0  0  0  0
 21 40  1  0  0  0  0
 22 23  1  0  0  0  0
 22 30  2  0  0  0  0
 22 51  1  0  0  0  0
 23 56  1  0  0  0  0
 24 84  1  0  0  0  0
 25 85  1  0  0  0  0
 26 28  2  0  0  0  0
 26 84  1  0  0  0  0
 27 86  1  0  0  0  0
 28 87  1  0  0  0  0
 29 67  2  0  0  0  0
 30 53  1  0  0  0  0
 30 68  1  0  0  0  0
 31 68  2  0  0  0  0
 31 75  1  0  0  0  0
 32 69  1  0  0  0  0
 32 73  1  0  0  0  0
 33 74  1  0  0  0  0
 33 79  2  0  0  0  0
 34 54  1  0  0  0  0
 34 76  1  0  0  0  0
 34 80  2  0  0  0  0
 35 64  1  0  0  0  0
 35 70  1  0  0  0  0
 35 81  2  0  0  0  0
 36 65  1  0  0  0  0
 36 77  1  0  0  0  0
 36 82  2  0  0  0  0
 37 71  1  0  0  0  0
 37 72  1  0  0  0  0
 37 83  2  0  0  0  0
 38 41  1  0  0  0  0
 39 54  1  0  0  0  0
 40 70  1  0  0  0  0
 41 45  1  0  0  0  0
 42 46  1  0  0  0  0
 42 48  1  0  0  0  0
 43 44  1  0  0  0  0
 43 51  1  0  0  0  0
 44 51  1  0  0  0  0
 45 52  1  0  0  0  0
 46 55  1  0  0  0  0
 47 49  1  0  0  0  0
 47 53  1  0  0  0  0
 48 71  1  0  0  0  0
 49 72  1  0  0  0  0
 50 55  1  0  0  0  0
 50 71  1  0  0  0  0
 52 76  1  0  0  0  0
 53 72  1  0  0  0  0
 54 70  1  0  0  0  0
 55 69  1  0  0  0  0
 57 65  1  0  0  0  0
 58 66  1  0  0  0  0
 59 66  1  0  0  0  0
 60 66  1  0  0  0  0
 61 78  1  0  0  0  0
 62 63  1  0  0  0  0
 62 75  1  0  0  0  0
 63 85  1  0  0  0  0
 64 66  1  0  0  0  0
 64 77  1  0  0  0  0
 65 78  1  0  0  0  0
 67 69  1  0  0  0  0
M  CHG  1  78   1
M  ISO  4  37 100  63 101  72 100  85 101
M  END
> <Batch ID>
0174

> <Smiles>
CNC(C)C(=O)NC(C(=O)N1Cc2cc([101O:1][101CH2:1]CNc3cc(C)c(C4CC4)c(C4CC[100N:0]4[100C:0](=O)N4CCCC(n5nc(-c6ccc(Oc7ccc(F)cc7F)cc6)c(C(N)=O)c5N)C4)n3)ccc2CC1C(=O)NC1CCCc2ccccc21)C(C)(C)C

> <Shape>
0.210

> <Color>
0.076

> <Negative vol penalty>
0.000

$$$$

  -OEChem-04052322453D

 88 98  0     1  0  0  0  0  0999 V2000
  -16.9839  -28.3927   21.2606 C   0  0  0  0  0  0  0  0  0  0  0  0
  -17.8580  -27.3408   21.0061 C   0  0  0  0  0  0  0  0  0  0  0  0
  -22.7213  -10.2944   20.1335 C   0  0  0  0  0  0  0  0  0  0  0  0
  -23.6708  -10.0858   22.3453 C   0  0  0  0  0  0  0  0  0  0  0  0
  -17.4834  -29.6774   21.4702 C   0  0  0  0  0  0  0  0  0  0  0  0
  -19.2321  -27.5732   20.9600 C   0  0  0  0  0  0  0  0  0  0  0  0
  -23.7194  -23.7419   22.8525 C   0  0  0  0  0  0  0  0  0  0  0  0
  -21.8693   -9.2222   20.3981 C   0  0  0  0  0  0  0  0  0  0  0  0
  -22.8187   -9.0136   22.6099 C   0  0  0  0  0  0  0  0  0  0  0  0
  -24.5590  -22.8491   22.1878 C   0  0  0  0  0  0  0  0  0  0  0  0
  -22.6618   -5.7166   21.8780 C   0  0  0  0  0  0  0  0  0  0  0  0
  -23.2098   -4.5888   22.4890 C   0  0  0  0  0  0  0  0  0  0  0  0
  -26.2546  -24.5587   22.0460 C   0  0  0  0  0  0  0  0  0  0  0  0
  -21.6943   -4.8612   24.3508 C   0  0  0  0  0  0  0  0  0  0  0  0
  -23.6221  -10.7262   21.1071 C   0  0  0  0  0  0  0  0  0  0  0  0
  -24.2515  -13.1980   21.0709 C   0  0  0  0  0  0  0  0  0  0  0  0
  -18.8649  -29.9239   21.4362 C   0  0  0  0  0  0  0  0  0  0  0  0
  -24.1375  -25.0554   23.1104 C   0  0  0  0  0  0  0  0  0  0  0  0
  -19.7505  -28.8627   21.1681 C   0  0  0  0  0  0  0  0  0  0  0  0
  -25.4203  -25.4646   22.7184 C   0  0  0  0  0  0  0  0  0  0  0  0
  -29.1533  -18.7153   18.9200 C   0  0  0  0  0  0  0  0  0  0  0  0
  -28.4506  -19.7022   18.2042 C   0  0  0  0  0  0  0  0  0  0  0  0
  -28.8821  -18.5298   20.2841 C   0  0  0  0  0  0  0  0  0  0  0  0
  -27.4660  -20.4580   18.8587 C   0  0  0  0  0  0  0  0  0  0  0  0
  -27.9080  -19.2944   20.9253 C   0  0  0  0  0  0  0  0  0  0  0  0
  -27.1989  -20.2566   20.2124 C   0  0  0  0  0  0  0  0  0  0  0  0
  -21.9180   -8.5818   21.6363 C   0  0  0  0  0  0  0  0  0  0  0  0
  -25.8259  -23.2582   21.7825 C   0  0  0  0  0  0  0  0  0  0  0  0
  -21.6301   -6.4167   22.5033 C   0  0  0  0  0  0  0  0  0  0  0  0
  -22.7261   -4.1611   23.7254 C   0  0  0  0  0  0  0  0  0  0  0  0
  -21.1463   -5.9890   23.7397 C   0  0  0  0  0  0  0  0  0  0  0  0
  -24.5029  -11.8333   20.8341 C   0  0  0  0  0  0  0  0  0  0  0  0
  -25.3901  -13.8362   20.6432 C   0  0  0  0  0  0  0  0  0  0  0  0
  -23.0925  -13.8322   21.6278 C   0  0  0  0  0  0  0  0  0  0  0  0
  -23.1498  -27.9985   22.3304 C   0  0  0  0  0  0  0  0  0  0  0  0
  -25.5938  -28.8121   24.4323 C   0  0  0  0  0  0  0  0  0  0  0  0
  -24.4084  -32.0107   24.4930 C   0  0  0  0  0  0  0  0  0  0  0  0
  -31.0026  -14.0111   20.6992 C   0  0  0  0  0  0  0  0  0  0  0  0
  -19.3548  -31.3382   21.6220 C   0  0  0  0  0  0  0  0  0  0  0  0
  -23.2277  -25.9939   23.8559 C   0  0  0  0  0  0  0  0  0  0  0  0
  -30.2375  -17.8922   18.2705 C   0  0  0  0  0  0  0  0  0  0  0  0
  -28.6871  -19.9264   16.7315 C   0  0  0  0  0  0  0  0  0  0  0  0
  -25.9170  -26.8618   22.9750 C   0  0  0  0  0  0  0  0  0  0  0  0
  -20.8475  -31.4306   21.9278 C   0  0  0  0  0  0  0  0  0  0  0  0
  -30.1773  -17.9115   16.7442 C   0  0  0  0  0  0  0  0  0  0  0  0
  -30.0064  -19.3371   16.2358 C   0  0  0  0  0  0  0  0  0  0  0  0
  -29.3582  -12.1303   18.0057 C   0  0  0  0  0  0  0  0  0  0  0  0
  -21.6434  -30.5436   20.9757 C   0  0  0  0  0  0  0  0  0  0  0  0
  -27.9371  -11.9570   18.5480 C   0  0  0  0  0  0  0  0  0  0  0  0
  -31.1639  -17.6168   21.1255 C   0  0  0  0  0  0  0  0  0  0  0  0
  -30.3951  -12.2062   19.1250 C   0  0  0  0  0  0  0  0  0  0  0  0
  -31.6189  -16.2437   21.5934 C   0  0  0  0  0  0  0  0  0  0  0  0
  -29.4578  -16.0463   20.5734 C   0  0  0  0  0  0  0  0  0  0  0  0
  -28.6889  -13.0157   20.7065 C   0  0  0  0  0  0  0  0  0  0  0  0
  -29.6350  -17.4870   21.0813 C   0  0  2  0  0  0  0  0  0  0  0  0
  -21.2491  -29.0703   21.1347 C   0  0  1  0  0  0  0  0  0  0  0  0
  -23.5835  -27.4672   23.6672 C   0  0  1  0  0  0  0  0  0  0  0  0
  -27.6124  -13.0224   19.6133 C   0  0  2  0  0  0  0  0  0  0  0  0
  -26.6899  -21.5026   18.1154 C   0  0  0  0  0  0  0  0  0  0  0  0
  -27.6220  -19.0793   22.3786 C   0  0  0  0  0  0  0  0  0  0  0  0
  -24.7027  -34.1982   25.6872 C   0  0  0  0  0  0  0  0  0  0  0  0
  -24.0667  -27.7050   26.8297 C   0  0  0  0  0  0  0  0  0  0  0  0
  -23.5689  -30.0620   27.5115 C   0  0  0  0  0  0  0  0  0  0  0  0
  -25.9312  -29.2671   27.4110 C   0  0  0  0  0  0  0  0  0  0  0  0
  -25.1979  -33.3977   22.0007 C   0  0  0  0  0  0  0  0  0  0  0  0
  -26.1506  -21.0734   20.9007 C   0  0  0  0  0  0  0  0  0  1  0  0
  -24.6648  -29.6652   25.2593 C   0  0  1  0  0  0  0  0  0  0  0  0
  -25.1230  -33.3501   24.4968 C   0  0  2  0  0  0  0  0  0  0  0  0
  -24.5504  -29.1653   26.7271 C   0  0  0  0  0  0  0  0  0  0  0  0
  -25.7067  -11.6163   20.2975 N   0  0  0  0  0  0  0  0  0  0  0  0
  -26.2217  -12.8532   20.1935 N   0  0  0  0  0  0  0  0  0  0  0  0
  -25.0273  -27.7108   23.7780 N   0  0  0  0  0  0  0  0  0  0  0  0
  -30.0152  -13.2120   20.1148 N   0  0  0  0  0  0  0  0  0  0  0  0
  -30.6415  -15.3177   21.0376 N   0  0  0  0  0  0  0  0  0  0  0  0
  -25.7510  -15.1366   20.6117 N   0  0  0  0  0  0  0  0  0  0  0  0
  -22.0119  -13.0279   22.0149 N   0  0  0  0  0  0  0  0  0  0  0  0
  -21.8650  -28.5070   22.3171 N   0  0  0  0  0  0  0  0  0  0  0  0
  -25.1466  -31.0362   25.1308 N   0  0  0  0  0  0  0  0  0  0  0  0
  -24.8147  -34.1052   23.2495 N   0  3  0  0  0  0  0  0  0  0  0  0
  -23.0107  -15.0767   21.7624 O   0  0  0  0  0  0  0  0  0  0  0  0
  -23.9240  -27.9519   21.3816 O   0  0  0  0  0  0  0  0  0  0  0  0
  -26.7907  -29.1075   24.3725 O   0  0  0  0  0  0  0  0  0  0  0  0
  -23.3041  -31.8464   23.9792 O   0  0  0  0  0  0  0  0  0  0  0  0
  -32.1566  -13.5937   20.8572 O   0  0  0  0  0  0  0  0  0  0  0  0
  -21.0865   -7.5357   21.8950 O   0  0  0  0  0  0  0  0  0  0  0  0
  -26.6538  -22.3821   21.1292 O   0  0  0  0  0  0  0  0  0  1  0  0
  -23.2514   -3.0772   24.3114 F   0  0  0  0  0  0  0  0  0  0  0  0
  -20.1544   -6.6568   24.3447 F   0  0  0  0  0  0  0  0  0  0  0  0
  1  2  1  0  0  0  0
  1  5  2  0  0  0  0
  2  6  2  0  0  0  0
  3  8  2  0  0  0  0
  3 15  1  0  0  0  0
  4  9  1  0  0  0  0
  4 15  2  0  0  0  0
  5 17  1  0  0  0  0
  6 19  1  0  0  0  0
  7 10  2  0  0  0  0
  7 18  1  0  0  0  0
  8 27  1  0  0  0  0
  9 27  2  0  0  0  0
 10 28  1  0  0  0  0
 11 12  2  0  0  0  0
 11 29  1  0  0  0  0
 12 30  1  0  0  0  0
 13 20  1  0  0  0  0
 13 28  2  0  0  0  0
 14 30  2  0  0  0  0
 14 31  1  0  0  0  0
 15 32  1  0  0  0  0
 16 32  1  0  0  0  0
 16 33  2  0  0  0  0
 16 34  1  0  0  0  0
 17 19  2  0  0  0  0
 17 39  1  0  0  0  0
 18 20  2  0  0  0  0
 18 40  1  0  0  0  0
 19 56  1  0  0  0  0
 20 43  1  0  0  0  0
 21 22  1  0  0  0  0
 21 23  2  0  0  0  0
 21 41  1  0  0  0  0
 22 24  2  0  0  0  0
 22 42  1  0  0  0  0
 23 25  1  0  0  0  0
 23 55  1  0  0  0  0
 24 26  1  0  0  0  0
 24 59  1  0  0  0  0
 25 26  2  0  0  0  0
 25 60  1  0  0  0  0
 26 66  1  0  0  0  0
 27 85  1  0  0  0  0
 28 86  1  0  0  0  0
 29 31  2  0  0  0  0
 29 85  1  0  0  0  0
 30 87  1  0  0  0  0
 31 88  1  0  0  0  0
 32 70  2  0  0  0  0
 33 71  1  0  0  0  0
 33 75  1  0  0  0  0
 34 76  1  0  0  0  0
 34 80  2  0  0  0  0
 35 57  1  0  0  0  0
 35 77  1  0  0  0  0
 35 81  2  0  0  0  0
 36 67  1  0  0  0  0
 36 72  1  0  0  0  0
 36 82  2  0  0  0  0
 37 68  1  0  0  0  0
 37 78  1  0  0  0  0
 37 83  2  0  0  0  0
 38 73  1  0  0  0  0
 38 74  1  0  0  0  0
 38 84  2  0  0  0  0
 39 44  1  0  0  0  0
 40 57  1  0  0  0  0
 41 45  1  0  0  0  0
 42 46  1  0  0  0  0
 43 72  1  0  0  0  0
 44 48  1  0  0  0  0
 45 46  1  0  0  0  0
 47 49  1  0  0  0  0
 47 51  1  0  0  0  0
 48 56  1  0  0  0  0
 49 58  1  0  0  0  0
 50 52  1  0  0  0  0
 50 55  1  0  0  0  0
 51 73  1  0  0  0  0
 52 74  1  0  0  0  0
 53 55  1  0  0  0  0
 53 74  1  0  0  0  0
 54 58  1  0  0  0  0
 54 73  1  0  0  0  0
 56 77  1  0  0  0  0
 57 72  1  0  0  0  0
 58 71  1  0  0  0  0
 61 68  1  0  0  0  0
 62 69  1  0  0  0  0
 63 69  1  0  0  0  0
 64 69  1  0  0  0  0
 65 79  1  0  0  0  0
 66 86  1  0  0  0  0
 67 69  1  0  0  0  0
 67 78  1  0  0  0  0
 68 79  1  0  0  0  0
 70 71  1  0  0  0  0
M  CHG  1  79   1
M  ISO  4  38 100  66 101  74 100  86 101
M  END
> <Batch ID>
0174

> <Smiles>
CNC(C)C(=O)NC(C(=O)N1Cc2cc([101O:1][101CH2:1]c3c(C)c4c(c(C5CC[100N:0]([100C:0](=O)N6CCCC(n7nc(-c8ccc(Oc9ccc(F)cc9F)cc8)c(C(N)=O)c7N)C6)C5)c3C)CCCC4)ccc2CC1C(=O)NC1CCCc2ccccc21)C(C)(C)C

> <Shape>
0.326

> <Color>
0.192

> <Negative vol penalty>
0.000

$$$$

  -OEChem-04052322453D

 85 94  0     1  0  0  0  0  0999 V2000
  -27.1211  -27.2998    6.5457 C   0  0  0  0  0  0  0  0  0  0  0  0
  -27.0311  -26.0879    7.2229 C   0  0  0  0  0  0  0  0  0  0  0  0
  -22.9981   -9.9052   19.9779 C   0  0  0  0  0  0  0  0  0  0  0  0
  -23.7357   -9.9392   22.2783 C   0  0  0  0  0  0  0  0  0  0  0  0
  -27.5793  -28.4363    7.2108 C   0  0  0  0  0  0  0  0  0  0  0  0
  -27.4002  -26.0116    8.5654 C   0  0  0  0  0  0  0  0  0  0  0  0
  -25.7327  -22.5780   14.6273 C   0  0  0  0  0  0  0  0  0  0  0  0
  -22.2320   -8.7695   20.2402 C   0  0  0  0  0  0  0  0  0  0  0  0
  -22.9695   -8.8035   22.5407 C   0  0  0  0  0  0  0  0  0  0  0  0
  -26.3317  -21.8370   15.6451 C   0  0  0  0  0  0  0  0  0  0  0  0
  -23.2084   -5.4678   22.0438 C   0  0  0  0  0  0  0  0  0  0  0  0
  -23.7990   -4.4448   22.7856 C   0  0  0  0  0  0  0  0  0  0  0  0
  -30.1122  -19.1307   19.9929 C   0  0  0  0  0  0  0  0  0  0  0  0
  -27.0337  -23.8829   16.7132 C   0  0  0  0  0  0  0  0  0  0  0  0
  -22.0843   -4.6773   24.4716 C   0  0  0  0  0  0  0  0  0  0  0  0
  -27.9259  -18.6929   20.8205 C   0  0  0  0  0  0  0  0  0  0  0  0
  -23.7500  -10.4901   20.9969 C   0  0  0  0  0  0  0  0  0  0  0  0
  -24.1366  -13.0065   20.8367 C   0  0  0  0  0  0  0  0  0  0  0  0
  -27.9450  -28.3761    8.5648 C   0  0  0  0  0  0  0  0  0  0  0  0
  -25.7893  -23.9791   14.6391 C   0  0  0  0  0  0  0  0  0  0  0  0
  -27.8649  -27.1481    9.2489 C   0  0  0  0  0  0  0  0  0  0  0  0
  -29.2982  -18.6118   20.9936 C   0  0  0  0  0  0  0  0  0  0  0  0
  -26.4325  -24.6394   15.6957 C   0  0  0  0  0  0  0  0  0  0  0  0
  -29.5371  -19.7068   18.8656 C   0  0  0  0  0  0  0  0  0  0  0  0
  -22.2177   -8.2187   21.5216 C   0  0  0  0  0  0  0  0  0  0  0  0
  -26.9848  -22.4893   16.6868 C   0  0  0  0  0  0  0  0  0  0  0  0
  -22.0557   -6.0957   22.5160 C   0  0  0  0  0  0  0  0  0  0  0  0
  -23.2370   -4.0495   23.9994 C   0  0  0  0  0  0  0  0  0  0  0  0
  -21.4937   -5.7004   23.7299 C   0  0  0  0  0  0  0  0  0  0  0  0
  -24.5420  -11.6629   20.7263 C   0  0  0  0  0  0  0  0  0  0  0  0
  -28.1541  -19.7387   18.7876 C   0  0  0  0  0  0  0  0  0  0  0  0
  -25.2450  -13.7307   20.4715 C   0  0  0  0  0  0  0  0  0  0  0  0
  -22.8712  -13.5513   21.2338 C   0  0  0  0  0  0  0  0  0  0  0  0
  -27.0208  -26.1905   12.7164 C   0  0  0  0  0  0  0  0  0  0  0  0
  -25.5226  -28.2306   14.7451 C   0  0  0  0  0  0  0  0  0  0  0  0
  -24.2302  -28.7983   17.8522 C   0  0  0  0  0  0  0  0  0  0  0  0
  -30.7435  -14.6589   20.6973 C   0  0  0  0  0  0  0  0  0  0  0  0
  -28.4793  -29.6205    9.2285 C   0  0  0  0  0  0  0  0  0  0  0  0
  -25.1152  -24.7645   13.5477 C   0  0  0  0  0  0  0  0  0  0  0  0
  -26.5039  -26.1422   15.7655 C   0  0  0  0  0  0  0  0  0  0  0  0
  -28.4955  -29.5388   10.7527 C   0  0  0  0  0  0  0  0  0  0  0  0
  -29.5881  -12.2529   18.3408 C   0  0  0  0  0  0  0  0  0  0  0  0
  -29.0816  -28.2067   11.2097 C   0  0  0  0  0  0  0  0  0  0  0  0
  -28.1417  -11.9914   18.7642 C   0  0  0  0  0  0  0  0  0  0  0  0
  -30.4972  -12.4789   19.5468 C   0  0  0  0  0  0  0  0  0  0  0  0
  -28.5950  -13.2665   20.9014 C   0  0  0  0  0  0  0  0  0  0  0  0
  -30.7675  -18.9701   22.9868 C   0  0  0  0  0  0  0  0  0  0  0  0
  -31.6017  -16.6748   23.1975 C   0  0  0  0  0  0  0  0  0  0  0  0
  -29.8820  -17.9884   22.2112 C   0  0  2  0  0  0  0  0  0  0  0  0
  -28.2325  -27.0307   10.7122 C   0  0  1  0  0  0  0  0  0  0  0  0
  -25.6781  -26.1737   13.3907 C   0  0  1  0  0  0  0  0  0  0  0  0
  -27.6294  -13.0881   19.7172 C   0  0  2  0  0  0  0  0  0  0  0  0
  -30.8345  -16.8293   21.8974 C   0  0  2  0  0  0  0  0  0  0  0  0
  -30.4034  -20.2663   17.7905 C   0  0  0  0  0  0  0  0  0  0  0  0
  -23.1062  -30.5738   19.2240 C   0  0  0  0  0  0  0  0  0  0  0  0
  -28.1987  -29.6552   15.0896 C   0  0  0  0  0  0  0  0  0  0  0  0
  -27.2644  -30.7688   17.1280 C   0  0  0  0  0  0  0  0  0  0  0  0
  -26.2236  -31.1773   14.8981 C   0  0  0  0  0  0  0  0  0  0  0  0
  -31.9939  -18.2864   25.0968 C   0  0  0  0  0  0  0  0  0  0  0  0
  -21.8074  -27.1400   18.2249 C   0  0  0  0  0  0  0  0  0  0  0  0
  -27.4781  -20.3471   17.5942 C   0  0  0  0  0  0  0  0  0  1  0  0
  -25.9017  -28.9368   16.0244 C   0  0  1  0  0  0  0  0  0  0  0  0
  -22.9028  -29.3835   18.2996 C   0  0  2  0  0  0  0  0  0  0  0  0
  -26.8976  -30.1062   15.7830 C   0  0  0  0  0  0  0  0  0  0  0  0
  -27.3307  -19.2449   19.7394 N   0  0  0  0  0  0  0  0  0  0  0  0
  -25.8091  -11.5382   20.3225 N   0  0  0  0  0  0  0  0  0  0  0  0
  -26.2093  -12.8127   20.1758 N   0  0  0  0  0  0  0  0  0  0  0  0
  -25.8349  -26.8657   14.6716 N   0  0  0  0  0  0  0  0  0  0  0  0
  -29.9559  -13.5320   20.4093 N   0  0  0  0  0  0  0  0  0  0  0  0
  -25.4791  -15.0569   20.3776 N   0  0  0  0  0  0  0  0  0  0  0  0
  -21.8405  -12.6656   21.5766 N   0  0  0  0  0  0  0  0  0  0  0  0
  -27.0426  -26.8876   11.5235 N   0  0  0  0  0  0  0  0  0  0  0  0
  -24.6493  -29.3392   16.6551 N   0  0  0  0  0  0  0  0  0  0  0  0
  -30.1523  -15.6124   21.5170 N   0  0  0  0  0  0  0  0  0  0  0  0
  -31.8486  -18.1080   23.6199 N   0  3  2  0  0  0  0  0  0  0  0  0
  -22.1021  -28.3567   19.0247 N   0  3  0  0  0  0  0  0  0  0  0  0
  -22.6557  -14.7865   21.2675 O   0  0  0  0  0  0  0  0  0  0  0  0
  -27.9673  -25.6150   13.2404 O   0  0  0  0  0  0  0  0  0  0  0  0
  -24.9632  -28.8649   13.8471 O   0  0  0  0  0  0  0  0  0  0  0  0
  -24.8366  -27.9492   18.5018 O   0  0  0  0  0  0  0  0  0  0  0  0
  -31.8867  -14.8069   20.2521 O   0  0  0  0  0  0  0  0  0  0  0  0
  -21.4701   -7.1106   21.7781 O   0  0  0  0  0  0  0  0  0  0  0  0
  -27.5708  -21.7685   17.6812 O   0  0  0  0  0  0  0  0  0  1  0  0
  -23.8034   -3.0661   24.7109 F   0  0  0  0  0  0  0  0  0  0  0  0
  -20.3857   -6.2990   24.1881 F   0  0  0  0  0  0  0  0  0  0  0  0
  1  2  1  0  0  0  0
  1  5  2  0  0  0  0
  2  6  2  0  0  0  0
  3  8  2  0  0  0  0
  3 17  1  0  0  0  0
  4  9  1  0  0  0  0
  4 17  2  0  0  0  0
  5 19  1  0  0  0  0
  6 21  1  0  0  0  0
  7 10  2  0  0  0  0
  7 20  1  0  0  0  0
  8 25  1  0  0  0  0
  9 25  2  0  0  0  0
 10 26  1  0  0  0  0
 11 12  2  0  0  0  0
 11 27  1  0  0  0  0
 12 28  1  0  0  0  0
 13 22  2  0  0  0  0
 13 24  1  0  0  0  0
 14 23  1  0  0  0  0
 14 26  2  0  0  0  0
 15 28  2  0  0  0  0
 15 29  1  0  0  0  0
 16 22  1  0  0  0  0
 16 65  2  0  0  0  0
 17 30  1  0  0  0  0
 18 30  1  0  0  0  0
 18 32  2  0  0  0  0
 18 33  1  0  0  0  0
 19 21  2  0  0  0  0
 19 38  1  0  0  0  0
 20 23  2  0  0  0  0
 20 39  1  0  0  0  0
 21 50  1  0  0  0  0
 22 49  1  0  0  0  0
 23 40  1  0  0  0  0
 24 31  2  0  0  0  0
 24 54  1  0  0  0  0
 25 82  1  0  0  0  0
 26 83  1  0  0  0  0
 27 29  2  0  0  0  0
 27 82  1  0  0  0  0
 28 84  1  0  0  0  0
 29 85  1  0  0  0  0
 30 66  2  0  0  0  0
 31 61  1  0  0  0  0
 31 65  1  0  0  0  0
 32 67  1  0  0  0  0
 32 70  1  0  0  0  0
 33 71  1  0  0  0  0
 33 77  2  0  0  0  0
 34 51  1  0  0  0  0
 34 72  1  0  0  0  0
 34 78  2  0  0  0  0
 35 62  1  0  0  0  0
 35 68  1  0  0  0  0
 35 79  2  0  0  0  0
 36 63  1  0  0  0  0
 36 73  1  0  0  0  0
 36 80  2  0  0  0  0
 37 69  1  0  0  0  0
 37 74  1  0  0  0  0
 37 81  2  0  0  0  0
 38 41  1  0  0  0  0
 39 51  1  0  0  0  0
 40 68  1  0  0  0  0
 41 43  1  0  0  0  0
 42 44  1  0  0  0  0
 42 45  1  0  0  0  0
 43 50  1  0  0  0  0
 44 52  1  0  0  0  0
 45 69  1  0  0  0  0
 46 52  1  0  0  0  0
 46 69  1  0  0  0  0
 47 49  1  0  0  0  0
 47 75  1  0  0  0  0
 48 53  1  0  0  0  0
 48 75  1  0  0  0  0
 49 53  1  0  0  0  0
 50 72  1  0  0  0  0
 51 68  1  0  0  0  0
 52 67  1  0  0  0  0
 53 74  1  0  0  0  0
 55 63  1  0  0  0  0
 56 64  1  0  0  0  0
 57 64  1  0  0  0  0
 58 64  1  0  0  0  0
 59 75  1  0  0  0  0
 60 76  1  0  0  0  0
 61 83  1  0  0  0  0
 62 64  1  0  0  0  0
 62 73  1  0  0  0  0
 63 76  1  0  0  0  0
 66 67  1  0  0  0  0
M  CHG  2  75   1  76   1
M  ISO  4  37 100  61 101  74 100  83 101
M  END
> <Batch ID>
0174

> <Smiles>
CNC(C)C(=O)NC(C(=O)N1Cc2cc([101O:1][101CH2:1]c3ncc(C4CN(C)CC4[100NH:0][100C:0](=O)N4CCCC(n5nc(-c6ccc(Oc7ccc(F)cc7F)cc6)c(C(N)=O)c5N)C4)cc3C)ccc2CC1C(=O)NC1CCCc2ccccc21)C(C)(C)C

> <Shape>
0.225

> <Color>
0.190

> <Negative vol penalty>
0.000

$$$$

  -OEChem-04052322453D

 88 98  0     1  0  0  0  0  0999 V2000
  -26.9898  -37.8088   23.7339 C   0  0  0  0  0  0  0  0  0  0  0  0
  -27.6993  -36.7898   23.1065 C   0  0  0  0  0  0  0  0  0  0  0  0
  -23.6995  -10.5073   22.5043 C   0  0  0  0  0  0  0  0  0  0  0  0
  -24.4989   -8.6649   21.1613 C   0  0  0  0  0  0  0  0  0  0  0  0
  -25.8710  -37.5034   24.5078 C   0  0  0  0  0  0  0  0  0  0  0  0
  -27.2910  -35.4646   23.2535 C   0  0  0  0  0  0  0  0  0  0  0  0
  -27.0818  -29.2583   19.6823 C   0  0  0  0  0  0  0  0  0  0  0  0
  -22.5580   -9.7748   22.8298 C   0  0  0  0  0  0  0  0  0  0  0  0
  -23.3574   -7.9323   21.4869 C   0  0  0  0  0  0  0  0  0  0  0  0
  -27.4480  -27.9206   19.8250 C   0  0  0  0  0  0  0  0  0  0  0  0
  -20.8250   -5.4392   22.2547 C   0  0  0  0  0  0  0  0  0  0  0  0
  -20.9926   -4.1025   22.6163 C   0  0  0  0  0  0  0  0  0  0  0  0
  -25.4537  -27.5192   21.1214 C   0  0  0  0  0  0  0  0  0  0  0  0
  -22.3925   -4.7783   24.4658 C   0  0  0  0  0  0  0  0  0  0  0  0
  -24.6699   -9.9524   21.6700 C   0  0  0  0  0  0  0  0  0  0  0  0
  -27.0723  -10.7317   22.0294 C   0  0  0  0  0  0  0  0  0  0  0  0
  -25.4431  -36.1747   24.6565 C   0  0  0  0  0  0  0  0  0  0  0  0
  -25.9023  -29.7397   20.2683 C   0  0  0  0  0  0  0  0  0  0  0  0
  -26.1662  -35.1411   24.0312 C   0  0  0  0  0  0  0  0  0  0  0  0
  -25.0734  -28.8628   20.9825 C   0  0  0  0  0  0  0  0  0  0  0  0
  -29.0006  -22.0017   21.6943 C   0  0  0  0  0  0  0  0  0  0  0  0
  -28.4151  -23.8705   20.2982 C   0  0  0  0  0  0  0  0  0  0  0  0
  -22.3869   -8.4873   22.3211 C   0  0  0  0  0  0  0  0  0  0  0  0
  -26.6354  -27.0515   20.5471 C   0  0  0  0  0  0  0  0  0  0  0  0
  -21.4413   -6.4455   22.9986 C   0  0  0  0  0  0  0  0  0  0  0  0
  -21.7763   -3.7721   23.7218 C   0  0  0  0  0  0  0  0  0  0  0  0
  -22.2250   -6.1150   24.1041 C   0  0  0  0  0  0  0  0  0  0  0  0
  -28.8232  -23.3709   21.5299 C   0  0  0  0  0  0  0  0  0  0  0  0
  -25.8490  -10.7088   21.3329 C   0  0  0  0  0  0  0  0  0  0  0  0
  -28.7586  -21.1809   20.6045 C   0  0  0  0  0  0  0  0  0  0  0  0
  -28.1995  -22.9661   19.2708 C   0  0  0  0  0  0  0  0  0  0  0  0
  -27.8606  -11.5967   21.3104 C   0  0  0  0  0  0  0  0  0  0  0  0
  -27.4612  -10.0334   23.2196 C   0  0  0  0  0  0  0  0  0  0  0  0
  -25.2234  -31.9258   22.4737 C   0  0  0  0  0  0  0  0  0  0  0  0
  -22.1621  -31.2555   21.6362 C   0  0  0  0  0  0  0  0  0  0  0  0
  -19.9456  -29.0343   20.2944 C   0  0  0  0  0  0  0  0  0  0  0  0
  -28.6902  -16.2317   18.5087 C   0  0  0  0  0  0  0  0  0  0  0  0
  -24.2557  -35.8892   25.5416 C   0  0  0  0  0  0  0  0  0  0  0  0
  -25.5078  -31.1792   20.0825 C   0  0  0  0  0  0  0  0  0  0  0  0
  -23.7866  -29.3253   21.6139 C   0  0  0  0  0  0  0  0  0  0  0  0
  -23.6682  -34.4946   25.3415 C   0  0  0  0  0  0  0  0  0  0  0  0
  -27.1887  -13.6622   16.7504 C   0  0  0  0  0  0  0  0  0  0  0  0
  -28.5934  -20.3482   23.6369 C   0  0  0  0  0  0  0  0  0  0  0  0
  -28.6412  -21.7182   24.2376 C   0  0  0  0  0  0  0  0  0  0  0  0
  -24.7767  -33.4472   25.3141 C   0  0  0  0  0  0  0  0  0  0  0  0
  -26.8025  -12.6568   17.8350 C   0  0  0  0  0  0  0  0  0  0  0  0
  -27.6145  -18.9228   20.4881 C   0  0  0  0  0  0  0  0  0  0  0  0
  -30.0330  -19.1530   19.7760 C   0  0  0  0  0  0  0  0  0  0  0  0
  -26.9183  -15.0905   17.2091 C   0  0  0  0  0  0  0  0  0  0  0  0
  -27.8068  -17.4059   20.5730 C   0  0  0  0  0  0  0  0  0  0  0  0
  -30.1751  -17.6390   19.9026 C   0  0  0  0  0  0  0  0  0  0  0  0
  -27.2285  -14.4579   19.5801 C   0  0  0  0  0  0  0  0  0  0  0  0
  -29.4386  -21.4164   22.9979 C   0  0  0  0  0  0  0  0  0  0  0  0
  -25.7399  -33.6936   24.1466 C   0  0  1  0  0  0  0  0  0  0  0  0
  -28.9355  -19.6786   20.7190 C   0  0  0  0  0  0  0  0  0  0  0  0
  -24.5454  -31.6783   21.1559 C   0  0  1  0  0  0  0  0  0  0  0  0
  -27.4883  -12.9939   19.1709 C   0  0  1  0  0  0  0  0  0  0  0  0
  -27.7579  -23.4418   17.9251 C   0  0  0  0  0  0  0  0  0  0  0  0
  -17.5059  -28.7543   19.7779 C   0  0  0  0  0  0  0  0  0  0  0  0
  -21.5976  -30.7450   24.5910 C   0  0  0  0  0  0  0  0  0  0  0  0
  -19.4876  -29.5793   23.9148 C   0  0  0  0  0  0  0  0  0  0  0  0
  -19.7989  -31.9972   23.3864 C   0  0  0  0  0  0  0  0  0  0  0  0
  -20.4727  -28.7521   17.3959 C   0  0  0  0  0  0  0  0  0  0  0  0
  -28.2084  -25.3323   20.0718 C   0  0  0  0  0  0  0  0  0  1  0  0
  -21.1190  -30.2673   22.0992 C   0  0  1  0  0  0  0  0  0  0  0  0
  -18.8588  -29.2033   19.2481 C   0  0  2  0  0  0  0  0  0  0  0  0
  -20.5259  -30.6386   23.4877 C   0  0  0  0  0  0  0  0  0  0  0  0
  -25.8549  -11.4968   20.2545 N   0  0  0  0  0  0  0  0  0  0  0  0
  -28.3612  -21.6295   19.3927 N   0  0  0  0  0  0  0  0  0  0  0  0
  -27.0914  -12.0230   20.2679 N   0  0  0  0  0  0  0  0  0  0  0  0
  -23.4474  -30.7432   21.4095 N   0  0  0  0  0  0  0  0  0  0  0  0
  -27.5832  -15.3701   18.4817 N   0  0  0  0  0  0  0  0  0  0  0  0
  -28.8929  -16.9698   19.6845 N   0  0  0  0  0  0  0  0  0  0  0  0
  -29.1296  -12.0266   21.4747 N   0  0  0  0  0  0  0  0  0  0  0  0
  -26.5288   -9.1842   23.8309 N   0  0  0  0  0  0  0  0  0  0  0  0
  -25.1552  -33.2371   22.9040 N   0  0  0  0  0  0  0  0  0  0  0  0
  -20.1302  -30.1862   21.0295 N   0  0  0  0  0  0  0  0  0  0  0  0
  -19.1787  -28.3994   18.0346 N   0  3  0  0  0  0  0  0  0  0  0  0
  -28.5964  -10.1714   23.7353 O   0  0  0  0  0  0  0  0  0  0  0  0
  -25.7669  -30.9955   23.0576 O   0  0  0  0  0  0  0  0  0  0  0  0
  -21.8463  -32.4369   21.4745 O   0  0  0  0  0  0  0  0  0  0  0  0
  -20.5658  -27.9844   20.4471 O   0  0  0  0  0  0  0  0  0  0  0  0
  -29.4533  -16.3352   17.5402 O   0  0  0  0  0  0  0  0  0  0  0  0
  -21.2733   -7.7721   22.6388 O   0  0  0  0  0  0  0  0  0  0  0  0
  -26.9934  -25.7363   20.6895 O   0  0  0  0  0  0  0  0  0  1  0  0
  -21.9359   -2.4885   24.0699 F   0  0  0  0  0  0  0  0  0  0  0  0
  -22.8185   -7.0775   24.8234 F   0  0  0  0  0  0  0  0  0  0  0  0
  -29.1131  -24.4520   22.8516 Cl  0  0  0  0  0  0  0  0  0  0  0  0
  1  2  1  0  0  0  0
  1  5  2  0  0  0  0
  2  6  2  0  0  0  0
  3  8  2  0  0  0  0
  3 15  1  0  0  0  0
  4  9  1  0  0  0  0
  4 15  2  0  0  0  0
  5 17  1  0  0  0  0
  6 19  1  0  0  0  0
  7 10  2  0  0  0  0
  7 18  1  0  0  0  0
  8 23  1  0  0  0  0
  9 23  2  0  0  0  0
 10 24  1  0  0  0  0
 11 12  2  0  0  0  0
 11 25  1  0  0  0  0
 12 26  1  0  0  0  0
 13 20  1  0  0  0  0
 13 24  2  0  0  0  0
 14 26  2  0  0  0  0
 14 27  1  0  0  0  0
 15 29  1  0  0  0  0
 16 29  1  0  0  0  0
 16 32  2  0  0  0  0
 16 33  1  0  0  0  0
 17 19  2  0  0  0  0
 17 38  1  0  0  0  0
 18 20  2  0  0  0  0
 18 39  1  0  0  0  0
 19 54  1  0  0  0  0
 20 40  1  0  0  0  0
 21 28  1  0  0  0  0
 21 30  2  0  0  0  0
 21 53  1  0  0  0  0
 22 28  2  0  0  0  0
 22 31  1  0  0  0  0
 22 64  1  0  0  0  0
 23 84  1  0  0  0  0
 24 85  1  0  0  0  0
 25 27  2  0  0  0  0
 25 84  1  0  0  0  0
 26 86  1  0  0  0  0
 27 87  1  0  0  0  0
 28 88  1  0  0  0  0
 29 68  2  0  0  0  0
 30 55  1  0  0  0  0
 30 69  1  0  0  0  0
 31 58  1  0  0  0  0
 31 69  2  0  0  0  0
 32 70  1  0  0  0  0
 32 74  1  0  0  0  0
 33 75  1  0  0  0  0
 33 79  2  0  0  0  0
 34 56  1  0  0  0  0
 34 76  1  0  0  0  0
 34 80  2  0  0  0  0
 35 65  1  0  0  0  0
 35 71  1  0  0  0  0
 35 81  2  0  0  0  0
 36 66  1  0  0  0  0
 36 77  1  0  0  0  0
 36 82  2  0  0  0  0
 37 72  1  0  0  0  0
 37 73  1  0  0  0  0
 37 83  2  0  0  0  0
 38 41  1  0  0  0  0
 39 56  1  0  0  0  0
 40 71  1  0  0  0  0
 41 45  1  0  0  0  0
 42 46  1  0  0  0  0
 42 49  1  0  0  0  0
 43 44  1  0  0  0  0
 43 53  1  0  0  0  0
 44 53  1  0  0  0  0
 45 54  1  0  0  0  0
 46 57  1  0  0  0  0
 47 50  1  0  0  0  0
 47 55  1  0  0  0  0
 48 51  1  0  0  0  0
 48 55  1  0  0  0  0
 49 72  1  0  0  0  0
 50 73  1  0  0  0  0
 51 73  1  0  0  0  0
 52 57  1  0  0  0  0
 52 72  1  0  0  0  0
 54 76  1  0  0  0  0
 56 71  1  0  0  0  0
 57 70  1  0  0  0  0
 59 66  1  0  0  0  0
 60 67  1  0  0  0  0
 61 67  1  0  0  0  0
 62 67  1  0  0  0  0
 63 78  1  0  0  0  0
 64 85  1  0  0  0  0
 65 67  1  0  0  0  0
 65 77  1  0  0  0  0
 66 78  1  0  0  0  0
 68 70  1  0  0  0  0
M  CHG  1  78   1
M  ISO  4  37 100  64 101  73 100  85 101
M  END
> <Batch ID>
0174

> <Smiles>
CNC(C)C(=O)NC(C(=O)N1Cc2cc([101O:1][101CH2:1]c3c(C)nc(C4CC[100N:0]([100C:0](=O)N5CCCC(n6nc(-c7ccc(Oc8ccc(F)cc8F)cc7)c(C(N)=O)c6N)C5)CC4)c(C4CC4)c3Cl)ccc2CC1C(=O)NC1CCCc2ccccc21)C(C)(C)C

> <Shape>
0.325

> <Color>
0.089

> <Negative vol penalty>
0.000

$$$$

  -OEChem-04052322453D

 90 99  0     1  0  0  0  0  0999 V2000
  -16.6943  -28.2162   23.5333 C   0  0  0  0  0  0  0  0  0  0  0  0
  -17.4807  -27.7869   22.4690 C   0  0  0  0  0  0  0  0  0  0  0  0
  -25.5704  -12.1103   21.3204 C   0  0  0  0  0  0  0  0  0  0  0  0
  -25.5847  -13.1660   19.1472 C   0  0  0  0  0  0  0  0  0  0  0  0
  -17.0229  -29.3884   24.2129 C   0  0  0  0  0  0  0  0  0  0  0  0
  -18.5955  -28.5302   22.0829 C   0  0  0  0  0  0  0  0  0  0  0  0
  -28.0029  -19.2843   18.5571 C   0  0  0  0  0  0  0  0  0  0  0  0
  -29.5365  -20.1096   20.2316 C   0  0  0  0  0  0  0  0  0  0  0  0
  -22.7353  -25.5913   21.2362 C   0  0  0  0  0  0  0  0  0  0  0  0
  -28.6649  -18.0566   18.5558 C   0  0  0  0  0  0  0  0  0  0  0  0
  -30.1985  -18.8818   20.2303 C   0  0  0  0  0  0  0  0  0  0  0  0
  -24.3690  -12.7508   21.6236 C   0  0  0  0  0  0  0  0  0  0  0  0
  -24.3832  -13.8065   19.4505 C   0  0  0  0  0  0  0  0  0  0  0  0
  -22.8142  -24.8884   20.0347 C   0  0  0  0  0  0  0  0  0  0  0  0
  -23.3653  -15.8230   22.6129 C   0  0  0  0  0  0  0  0  0  0  0  0
  -23.2468  -16.4151   23.8703 C   0  0  0  0  0  0  0  0  0  0  0  0
  -24.2310  -26.6153   19.1245 C   0  0  0  0  0  0  0  0  0  0  0  0
  -21.3649  -14.9837   24.3670 C   0  0  0  0  0  0  0  0  0  0  0  0
  -26.1783  -12.3179   20.0822 C   0  0  0  0  0  0  0  0  0  0  0  0
  -27.6556  -10.2700   19.7198 C   0  0  0  0  0  0  0  0  0  0  0  0
  -28.4387  -20.3108   19.3949 C   0  0  0  0  0  0  0  0  0  0  0  0
  -18.1478  -30.1413   23.8411 C   0  0  0  0  0  0  0  0  0  0  0  0
  -23.3962  -26.8188   21.3881 C   0  0  0  0  0  0  0  0  0  0  0  0
  -18.9386  -29.7143   22.7573 C   0  0  0  0  0  0  0  0  0  0  0  0
  -24.1628  -27.3293   20.3305 C   0  0  0  0  0  0  0  0  0  0  0  0
  -29.7627  -17.8553   19.3925 C   0  0  0  0  0  0  0  0  0  0  0  0
  -23.7754  -13.5989   20.6887 C   0  0  0  0  0  0  0  0  0  0  0  0
  -23.5603  -25.4015   18.9779 C   0  0  0  0  0  0  0  0  0  0  0  0
  -22.4835  -14.8113   22.2325 C   0  0  0  0  0  0  0  0  0  0  0  0
  -22.2466  -15.9954   24.7473 C   0  0  0  0  0  0  0  0  0  0  0  0
  -21.4834  -14.3916   23.1096 C   0  0  0  0  0  0  0  0  0  0  0  0
  -27.4196  -11.6570   19.7685 C   0  0  0  0  0  0  0  0  0  0  0  0
  -28.9816  -10.1590   19.3795 C   0  0  0  0  0  0  0  0  0  0  0  0
  -26.7565   -9.1794   19.9606 C   0  0  0  0  0  0  0  0  0  0  0  0
  -22.5546  -29.8441   22.0085 C   0  0  0  0  0  0  0  0  0  0  0  0
  -25.8594  -30.2012   22.0762 C   0  0  0  0  0  0  0  0  0  0  0  0
  -25.4473  -33.2803   23.4865 C   0  0  0  0  0  0  0  0  0  0  0  0
  -30.1404  -15.4766   18.6254 C   0  0  0  0  0  0  0  0  0  0  0  0
  -18.4359  -31.4268   24.5754 C   0  0  0  0  0  0  0  0  0  0  0  0
  -23.3230  -27.5466   22.7031 C   0  0  0  0  0  0  0  0  0  0  0  0
  -24.8934  -28.6400   20.4448 C   0  0  0  0  0  0  0  0  0  0  0  0
  -19.8483  -31.9574   24.3434 C   0  0  0  0  0  0  0  0  0  0  0  0
  -32.8044  -13.0465   19.9907 C   0  0  0  0  0  0  0  0  0  0  0  0
  -20.1965  -31.9173   22.8588 C   0  0  0  0  0  0  0  0  0  0  0  0
  -31.7616  -11.9440   20.1255 C   0  0  0  0  0  0  0  0  0  0  0  0
  -32.1230  -14.4011   19.8170 C   0  0  0  0  0  0  0  0  0  0  0  0
  -30.8657  -13.1692   18.0467 C   0  0  0  0  0  0  0  0  0  0  0  0
  -27.5478  -23.9153   18.4308 C   0  0  0  0  0  0  0  0  0  0  0  0
  -26.5155  -21.7189   18.4117 C   0  0  0  0  0  0  0  0  0  0  0  0
  -20.1700  -30.4802   22.3246 C   0  0  1  0  0  0  0  0  0  0  0  0
  -23.6707  -29.0302   22.5996 C   0  0  1  0  0  0  0  0  0  0  0  0
  -28.5625  -22.8258   18.8046 C   0  0  2  0  0  0  0  0  0  0  0  0
  -30.8497  -11.8740   18.8842 C   0  0  2  0  0  0  0  0  0  0  0  0
  -27.7090  -21.6640   19.3961 C   0  0  2  0  0  0  0  0  0  0  0  0
  -29.6703  -23.4245   19.6662 C   0  0  0  0  0  0  0  0  0  0  0  0
  -26.7397  -35.1433   24.5619 C   0  0  0  0  0  0  0  0  0  0  0  0
  -24.5021  -25.4957   15.6921 C   0  0  0  0  0  0  0  0  0  0  0  0
  -26.1083  -28.5503   24.6292 C   0  0  0  0  0  0  0  0  0  0  0  0
  -26.4982  -30.6809   25.8849 C   0  0  0  0  0  0  0  0  0  0  0  0
  -28.0986  -29.9719   24.1076 C   0  0  0  0  0  0  0  0  0  0  0  0
  -24.8539  -20.1771   23.2453 C   0  0  0  0  0  0  0  0  0  0  0  0
  -24.6213  -35.2122   21.4022 C   0  0  0  0  0  0  0  0  0  0  0  0
  -27.1920  -21.9528   20.8268 C   0  0  0  0  0  0  0  0  0  0  0  0
  -25.5404  -23.5233   16.9473 C   0  0  0  0  0  0  0  0  0  0  0  0
  -26.2638  -20.8499   21.2964 C   0  0  0  0  0  0  0  0  0  0  0  0
  -25.8126  -30.8269   23.4477 C   0  0  1  0  0  0  0  0  0  0  0  0
  -26.1703  -34.5961   23.2622 C   0  0  2  0  0  0  0  0  0  0  0  0
  -24.8354  -24.8725   17.0413 C   0  0  2  0  0  0  0  0  0  1  0  0
  -26.6059  -30.0040   24.5018 C   0  0  0  0  0  0  0  0  0  0  0  0
  -28.5084  -12.3756   19.4822 N   0  0  0  0  0  0  0  0  0  0  0  0
  -29.4414  -11.4366   19.2504 N   0  0  0  0  0  0  0  0  0  0  0  0
  -24.8602  -29.2679   21.7721 N   0  0  0  0  0  0  0  0  0  0  0  0
  -31.0081  -14.3804   18.8586 N   0  0  0  0  0  0  0  0  0  0  0  0
  -29.7874   -9.0943   19.1811 N   0  0  0  0  0  0  0  0  0  0  0  0
  -26.0305   -8.6609   18.8797 N   0  0  0  0  0  0  0  0  0  0  0  0
  -30.4356  -16.6074   19.3916 N   0  0  0  0  0  0  0  0  0  0  0  0
  -21.3702  -29.7730   22.7168 N   0  0  0  0  0  0  0  0  0  0  0  0
  -26.2798  -32.1995   23.2864 N   0  0  0  0  0  0  0  0  0  0  0  0
  -26.2390  -23.1916   18.2271 N   0  3  2  0  0  0  0  0  0  0  0  0
  -25.7591  -21.1963   22.6468 N   0  3  0  0  0  0  0  0  0  0  0  0
  -25.2370  -35.6098   22.6944 N   0  3  0  0  0  0  0  0  0  0  0  0
  -26.5893   -8.6903   21.1036 O   0  0  0  0  0  0  0  0  0  0  0  0
  -22.7537  -30.4901   20.9864 O   0  0  0  0  0  0  0  0  0  0  0  0
  -26.7603  -30.5237   21.2968 O   0  0  0  0  0  0  0  0  0  0  0  0
  -24.2634  -33.2176   23.8108 O   0  0  0  0  0  0  0  0  0  0  0  0
  -29.2181  -15.4106   17.8101 O   0  0  0  0  0  0  0  0  0  0  0  0
  -22.6030  -14.2239   20.9842 O   0  0  0  0  0  0  0  0  0  0  0  0
  -23.6395  -24.7172   17.8043 O   0  0  0  0  0  0  0  0  0  1  0  0
  -22.1339  -16.5630   25.9553 F   0  0  0  0  0  0  0  0  0  0  0  0
  -20.6341  -13.4193   22.7502 F   0  0  0  0  0  0  0  0  0  0  0  0
  1  2  1  0  0  0  0
  1  5  2  0  0  0  0
  2  6  2  0  0  0  0
  3 12  2  0  0  0  0
  3 19  1  0  0  0  0
  4 13  1  0  0  0  0
  4 19  2  0  0  0  0
  5 22  1  0  0  0  0
  6 24  1  0  0  0  0
  7 10  2  0  0  0  0
  7 21  1  0  0  0  0
  8 11  1  0  0  0  0
  8 21  2  0  0  0  0
  9 14  2  0  0  0  0
  9 23  1  0  0  0  0
 10 26  1  0  0  0  0
 11 26  2  0  0  0  0
 12 27  1  0  0  0  0
 13 27  2  0  0  0  0
 14 28  1  0  0  0  0
 15 16  2  0  0  0  0
 15 29  1  0  0  0  0
 16 30  1  0  0  0  0
 17 25  1  0  0  0  0
 17 28  2  0  0  0  0
 18 30  2  0  0  0  0
 18 31  1  0  0  0  0
 19 32  1  0  0  0  0
 20 32  1  0  0  0  0
 20 33  2  0  0  0  0
 20 34  1  0  0  0  0
 21 54  1  0  0  0  0
 22 24  2  0  0  0  0
 22 39  1  0  0  0  0
 23 25  2  0  0  0  0
 23 40  1  0  0  0  0
 24 50  1  0  0  0  0
 25 41  1  0  0  0  0
 26 76  1  0  0  0  0
 27 87  1  0  0  0  0
 28 88  1  0  0  0  0
 29 31  2  0  0  0  0
 29 87  1  0  0  0  0
 30 89  1  0  0  0  0
 31 90  1  0  0  0  0
 32 70  2  0  0  0  0
 33 71  1  0  0  0  0
 33 74  1  0  0  0  0
 34 75  1  0  0  0  0
 34 82  2  0  0  0  0
 35 51  1  0  0  0  0
 35 77  1  0  0  0  0
 35 83  2  0  0  0  0
 36 66  1  0  0  0  0
 36 72  1  0  0  0  0
 36 84  2  0  0  0  0
 37 67  1  0  0  0  0
 37 78  1  0  0  0  0
 37 85  2  0  0  0  0
 38 73  1  0  0  0  0
 38 76  1  0  0  0  0
 38 86  2  0  0  0  0
 39 42  1  0  0  0  0
 40 51  1  0  0  0  0
 41 72  1  0  0  0  0
 42 44  1  0  0  0  0
 43 45  1  0  0  0  0
 43 46  1  0  0  0  0
 44 50  1  0  0  0  0
 45 53  1  0  0  0  0
 46 73  1  0  0  0  0
 47 53  1  0  0  0  0
 47 73  1  0  0  0  0
 48 52  1  0  0  0  0
 48 79  1  0  0  0  0
 49 54  1  0  0  0  0
 49 79  1  0  0  0  0
 50 77  1  0  0  0  0
 51 72  1  0  0  0  0
 52 54  1  0  0  0  0
 52 55  1  0  0  0  0
 53 71  1  0  0  0  0
 54 63  1  0  0  0  0
 56 67  1  0  0  0  0
 57 68  1  0  0  0  0
 58 69  1  0  0  0  0
 59 69  1  0  0  0  0
 60 69  1  0  0  0  0
 61 80  1  0  0  0  0
 62 81  1  0  0  0  0
 63 65  1  0  0  0  0
 64 68  1  0  0  0  0
 64 79  1  0  0  0  0
 65 80  1  0  0  0  0
 66 69  1  0  0  0  0
 66 78  1  0  0  0  0
 67 81  1  0  0  0  0
 68 88  1  0  0  0  0
 70 71  1  0  0  0  0
M  CHG  3  79   1  80   1  81   1
M  ISO  4  38 100  68 101  76 100  88 101
M  END
> <Batch ID>
0174

> <Smiles>
CNCCC1(c2ccc([100NH:0][100C:0](=O)N3CCCC(n4nc(-c5ccc(Oc6ccc(F)cc6F)cc5)c(C(N)=O)c4N)C3)cc2)CN(C[101CH:1](C)[101O:1]c2ccc3c(c2)CN(C(=O)C(NC(=O)C(C)NC)C(C)(C)C)C(C(=O)NC2CCCc4ccccc42)C3)CC1C

> <Shape>
0.302

> <Color>
0.061

> <Negative vol penalty>
0.000

$$$$

  -OEChem-04052322453D

 83 92  0     1  0  0  0  0  0999 V2000
  -22.2320  -11.0494   21.7982 C   0  0  0  0  0  0  0  0  0  0  0  0
  -22.2466  -12.2286   22.5363 C   0  0  0  0  0  0  0  0  0  0  0  0
  -25.9518  -28.0233   22.0360 C   0  0  0  0  0  0  0  0  0  0  0  0
  -25.1507  -28.9709   19.9630 C   0  0  0  0  0  0  0  0  0  0  0  0
  -23.2555  -10.7846   20.8893 C   0  0  0  0  0  0  0  0  0  0  0  0
  -23.2854  -13.1432   22.3666 C   0  0  0  0  0  0  0  0  0  0  0  0
  -21.6337  -17.9183   22.0266 C   0  0  0  0  0  0  0  0  0  0  0  0
  -27.1737  -27.7310   21.4302 C   0  0  0  0  0  0  0  0  0  0  0  0
  -26.3727  -28.6786   19.3572 C   0  0  0  0  0  0  0  0  0  0  0  0
  -21.2771  -18.5547   23.2146 C   0  0  0  0  0  0  0  0  0  0  0  0
  -29.9925  -29.3929   20.5785 C   0  0  0  0  0  0  0  0  0  0  0  0
  -31.1558  -29.6986   21.2848 C   0  0  0  0  0  0  0  0  0  0  0  0
  -19.2438  -22.1218   28.5690 C   0  0  0  0  0  0  0  0  0  0  0  0
  -23.4083  -19.6846   23.2420 C   0  0  0  0  0  0  0  0  0  0  0  0
  -31.7972  -27.3698   21.2365 C   0  0  0  0  0  0  0  0  0  0  0  0
  -24.9403  -28.6433   21.3024 C   0  0  0  0  0  0  0  0  0  0  0  0
  -23.3253  -30.1281   22.6042 C   0  0  0  0  0  0  0  0  0  0  0  0
  -24.3023  -11.7008   20.7013 C   0  0  0  0  0  0  0  0  0  0  0  0
  -22.8867  -18.1522   21.4421 C   0  0  0  0  0  0  0  0  0  0  0  0
  -24.3246  -12.8897   21.4552 C   0  0  0  0  0  0  0  0  0  0  0  0
  -19.2896  -23.2953   27.8124 C   0  0  0  0  0  0  0  0  0  0  0  0
  -23.7774  -19.0518   22.0452 C   0  0  0  0  0  0  0  0  0  0  0  0
  -20.2381  -21.1622   28.4261 C   0  0  0  0  0  0  0  0  0  0  0  0
  -27.3842  -28.0586   20.0908 C   0  0  0  0  0  0  0  0  0  0  0  0
  -22.1655  -19.4359   23.8241 C   0  0  0  0  0  0  0  0  0  0  0  0
  -29.7315  -28.0756   20.2013 C   0  0  0  0  0  0  0  0  0  0  0  0
  -32.0582  -28.6871   21.6138 C   0  0  0  0  0  0  0  0  0  0  0  0
  -30.6339  -27.0641   20.5303 C   0  0  0  0  0  0  0  0  0  0  0  0
  -23.6776  -28.9450   21.9275 C   0  0  0  0  0  0  0  0  0  0  0  0
  -20.3444  -23.4479   26.9059 C   0  0  0  0  0  0  0  0  0  0  0  0
  -21.2494  -21.4102   27.5160 C   0  0  0  0  0  0  0  0  0  0  0  0
  -22.0294  -29.9194   23.0087 C   0  0  0  0  0  0  0  0  0  0  0  0
  -24.1001  -31.3101   22.8456 C   0  0  0  0  0  0  0  0  0  0  0  0
  -25.4155  -16.3510   20.7605 C   0  0  0  0  0  0  0  0  0  0  0  0
  -26.4765  -19.0650   19.3354 C   0  0  0  0  0  0  0  0  0  0  0  0
  -26.9314  -22.6399   19.1625 C   0  0  0  0  0  0  0  0  0  0  0  0
  -18.5206  -25.8501   24.9076 C   0  0  0  0  0  0  0  0  0  0  0  0
  -25.4114  -11.3490   19.7418 C   0  0  0  0  0  0  0  0  0  0  0  0
  -23.2457  -17.4782   20.1462 C   0  0  0  0  0  0  0  0  0  0  0  0
  -18.2002  -24.3253   27.9359 C   0  0  0  0  0  0  0  0  0  0  0  0
  -25.1266  -19.3528   21.4473 C   0  0  0  0  0  0  0  0  0  0  0  0
  -20.4679  -24.6908   26.0563 C   0  0  0  0  0  0  0  0  0  0  0  0
  -26.2780  -12.5426   19.3484 C   0  0  0  0  0  0  0  0  0  0  0  0
  -18.3700  -26.9210   21.6082 C   0  0  0  0  0  0  0  0  0  0  0  0
  -26.6635  -13.3522   20.5825 C   0  0  0  0  0  0  0  0  0  0  0  0
  -19.6871  -27.6680   21.4035 C   0  0  0  0  0  0  0  0  0  0  0  0
  -18.6306  -25.6764   27.3735 C   0  0  0  0  0  0  0  0  0  0  0  0
  -18.5818  -25.6621   22.4405 C   0  0  0  0  0  0  0  0  0  0  0  0
  -20.5285  -26.6701   23.5881 C   0  0  0  0  0  0  0  0  0  0  0  0
  -25.4213  -13.9180   21.2812 C   0  0  1  0  0  0  0  0  0  0  0  0
  -24.7510  -17.3976   19.9116 C   0  0  1  0  0  0  0  0  0  0  0  0
  -20.3720  -27.9560   22.7509 C   0  0  1  0  0  0  0  0  0  0  0  0
  -20.1911  -19.9143   29.2380 C   0  0  0  0  0  0  0  0  0  0  0  0
  -27.9658  -24.0685   17.3774 C   0  0  0  0  0  0  0  0  0  0  0  0
  -29.0200  -18.7952   20.9991 C   0  0  0  0  0  0  0  0  0  0  0  0
  -29.5439  -21.1829   20.4581 C   0  0  0  0  0  0  0  0  0  0  0  0
  -29.3941  -19.4950   18.6275 C   0  0  0  0  0  0  0  0  0  0  0  0
  -24.4989  -24.3090   18.9262 C   0  0  0  0  0  0  0  0  0  0  0  0
  -22.3464  -20.4156   27.3203 C   0  0  0  0  0  0  0  0  0  0  0  0
  -22.8761  -20.3881   25.8842 C   0  0  0  0  0  0  0  0  0  1  0  0
  -27.2797  -20.2629   19.7813 C   0  0  1  0  0  0  0  0  0  0  0  0
  -26.6687  -23.5325   17.9631 C   0  0  2  0  0  0  0  0  0  0  0  0
  -28.7848  -19.9271   19.9791 C   0  0  0  0  0  0  0  0  0  0  0  0
  -22.6857  -28.0509   21.9016 N   0  0  0  0  0  0  0  0  0  0  0  0
  -21.3276  -22.5251   26.7565 N   0  0  0  0  0  0  0  0  0  0  0  0
  -21.6973  -28.6724   22.5671 N   0  0  0  0  0  0  0  0  0  0  0  0
  -25.4339  -18.6642   20.1829 N   0  0  0  0  0  0  0  0  0  0  0  0
  -19.2448  -25.5057   26.0586 N   0  0  0  0  0  0  0  0  0  0  0  0
  -19.2404  -25.9707   23.7100 N   0  0  0  0  0  0  0  0  0  0  0  0
  -21.1529  -30.6827   23.6954 N   0  0  0  0  0  0  0  0  0  0  0  0
  -25.4142  -31.3582   22.3607 N   0  0  0  0  0  0  0  0  0  0  0  0
  -24.9229  -15.0744   20.5680 N   0  0  0  0  0  0  0  0  0  0  0  0
  -27.0255  -21.3127   18.8007 N   0  0  0  0  0  0  0  0  0  0  0  0
  -25.8165  -24.6903   18.3557 N   0  3  0  0  0  0  0  0  0  0  0  0
  -23.6463  -32.2879   23.4870 O   0  0  0  0  0  0  0  0  0  0  0  0
  -26.3100  -16.6772   21.5319 O   0  0  0  0  0  0  0  0  0  0  0  0
  -26.7592  -18.5097   18.2708 O   0  0  0  0  0  0  0  0  0  0  0  0
  -27.0458  -23.0768   20.3056 O   0  0  0  0  0  0  0  0  0  0  0  0
  -17.2970  -26.0318   24.9464 O   0  0  0  0  0  0  0  0  0  0  0  0
  -28.5765  -27.7737   19.4994 O   0  0  0  0  0  0  0  0  0  0  0  0
  -21.8178  -20.0623   24.9922 O   0  0  0  0  0  0  0  0  0  1  0  0
  -33.1760  -28.9812   22.2907 F   0  0  0  0  0  0  0  0  0  0  0  0
  -30.3891  -25.7968   20.1696 F   0  0  0  0  0  0  0  0  0  0  0  0
  1  2  1  0  0  0  0
  1  5  2  0  0  0  0
  2  6  2  0  0  0  0
  3  8  2  0  0  0  0
  3 16  1  0  0  0  0
  4  9  1  0  0  0  0
  4 16  2  0  0  0  0
  5 18  1  0  0  0  0
  6 20  1  0  0  0  0
  7 10  2  0  0  0  0
  7 19  1  0  0  0  0
  8 24  1  0  0  0  0
  9 24  2  0  0  0  0
 10 25  1  0  0  0  0
 11 12  2  0  0  0  0
 11 26  1  0  0  0  0
 12 27  1  0  0  0  0
 13 21  2  0  0  0  0
 13 23  1  0  0  0  0
 14 22  1  0  0  0  0
 14 25  2  0  0  0  0
 15 27  2  0  0  0  0
 15 28  1  0  0  0  0
 16 29  1  0  0  0  0
 17 29  1  0  0  0  0
 17 32  2  0  0  0  0
 17 33  1  0  0  0  0
 18 20  2  0  0  0  0
 18 38  1  0  0  0  0
 19 22  2  0  0  0  0
 19 39  1  0  0  0  0
 20 50  1  0  0  0  0
 21 30  1  0  0  0  0
 21 40  1  0  0  0  0
 22 41  1  0  0  0  0
 23 31  2  0  0  0  0
 23 53  1  0  0  0  0
 24 80  1  0  0  0  0
 25 81  1  0  0  0  0
 26 28  2  0  0  0  0
 26 80  1  0  0  0  0
 27 82  1  0  0  0  0
 28 83  1  0  0  0  0
 29 64  2  0  0  0  0
 30 42  1  0  0  0  0
 30 65  2  0  0  0  0
 31 59  1  0  0  0  0
 31 65  1  0  0  0  0
 32 66  1  0  0  0  0
 32 70  1  0  0  0  0
 33 71  1  0  0  0  0
 33 75  2  0  0  0  0
 34 51  1  0  0  0  0
 34 72  1  0  0  0  0
 34 76  2  0  0  0  0
 35 61  1  0  0  0  0
 35 67  1  0  0  0  0
 35 77  2  0  0  0  0
 36 62  1  0  0  0  0
 36 73  1  0  0  0  0
 36 78  2  0  0  0  0
 37 68  1  0  0  0  0
 37 69  1  0  0  0  0
 37 79  2  0  0  0  0
 38 43  1  0  0  0  0
 39 51  1  0  0  0  0
 40 47  1  0  0  0  0
 41 67  1  0  0  0  0
 42 68  1  0  0  0  0
 43 45  1  0  0  0  0
 44 46  1  0  0  0  0
 44 48  1  0  0  0  0
 45 50  1  0  0  0  0
 46 52  1  0  0  0  0
 47 68  1  0  0  0  0
 48 69  1  0  0  0  0
 49 52  1  0  0  0  0
 49 69  1  0  0  0  0
 50 72  1  0  0  0  0
 51 67  1  0  0  0  0
 52 66  1  0  0  0  0
 54 62  1  0  0  0  0
 55 63  1  0  0  0  0
 56 63  1  0  0  0  0
 57 63  1  0  0  0  0
 58 74  1  0  0  0  0
 59 60  1  0  0  0  0
 60 81  1  0  0  0  0
 61 63  1  0  0  0  0
 61 73  1  0  0  0  0
 62 74  1  0  0  0  0
 64 66  1  0  0  0  0
M  CHG  1  74   1
M  ISO  4  37 100  60 101  68 100  81 101
M  END
> <Batch ID>
0174

> <Smiles>
CNC(C)C(=O)NC(C(=O)N1Cc2cc([101O:1][101CH2:1]Cc3nc4c(cc3C)CC[100N:0]([100C:0](=O)N3CCCC(n5nc(-c6ccc(Oc7ccc(F)cc7F)cc6)c(C(N)=O)c5N)C3)C4)ccc2CC1C(=O)NC1CCCc2ccccc21)C(C)(C)C

> <Shape>
0.224

> <Color>
0.082

> <Negative vol penalty>
0.000

$$$$

  -OEChem-04052322453D

 87 96  0     1  0  0  0  0  0999 V2000
  -28.9232  -37.6920   20.7391 C   0  0  0  0  0  0  0  0  0  0  0  0
  -29.2249  -36.3575   20.4872 C   0  0  0  0  0  0  0  0  0  0  0  0
  -24.4373   -9.0489   21.7754 C   0  0  0  0  0  0  0  0  0  0  0  0
  -23.9873   -8.4990   19.4662 C   0  0  0  0  0  0  0  0  0  0  0  0
  -27.9661  -38.0201   21.6984 C   0  0  0  0  0  0  0  0  0  0  0  0
  -28.5705  -35.3502   21.1954 C   0  0  0  0  0  0  0  0  0  0  0  0
  -26.9657  -29.8237   19.1006 C   0  0  0  0  0  0  0  0  0  0  0  0
  -23.3373   -8.2879   22.1710 C   0  0  0  0  0  0  0  0  0  0  0  0
  -22.8873   -7.7379   19.8618 C   0  0  0  0  0  0  0  0  0  0  0  0
  -27.5600  -28.5678   19.2163 C   0  0  0  0  0  0  0  0  0  0  0  0
  -22.6034   -5.0184   22.6239 C   0  0  0  0  0  0  0  0  0  0  0  0
  -22.7673   -4.1576   23.7091 C   0  0  0  0  0  0  0  0  0  0  0  0
  -26.1298  -28.0706   21.0941 C   0  0  0  0  0  0  0  0  0  0  0  0
  -21.0263   -5.3321   24.9036 C   0  0  0  0  0  0  0  0  0  0  0  0
  -24.7622   -9.1545   20.4230 C   0  0  0  0  0  0  0  0  0  0  0  0
  -27.2261   -9.5002   19.8596 C   0  0  0  0  0  0  0  0  0  0  0  0
  -27.2926  -37.0160   22.4118 C   0  0  0  0  0  0  0  0  0  0  0  0
  -25.9548  -30.2173   19.9891 C   0  0  0  0  0  0  0  0  0  0  0  0
  -27.6044  -35.6652   22.1661 C   0  0  0  0  0  0  0  0  0  0  0  0
  -25.5224  -29.3310   20.9860 C   0  0  0  0  0  0  0  0  0  0  0  0
  -30.0662  -24.4698   20.7261 C   0  0  0  0  0  0  0  0  0  0  0  0
  -29.2378  -24.7536   19.6461 C   0  0  0  0  0  0  0  0  0  0  0  0
  -30.5058  -23.1672   20.9345 C   0  0  0  0  0  0  0  0  0  0  0  0
  -22.5623   -7.6324   21.2143 C   0  0  0  0  0  0  0  0  0  0  0  0
  -27.1441  -27.6922   20.2150 C   0  0  0  0  0  0  0  0  0  0  0  0
  -21.6511   -6.0362   22.6785 C   0  0  0  0  0  0  0  0  0  0  0  0
  -21.9787   -4.3144   24.8489 C   0  0  0  0  0  0  0  0  0  0  0  0
  -20.8625   -6.1930   23.8183 C   0  0  0  0  0  0  0  0  0  0  0  0
  -25.8981   -9.9409   20.0136 C   0  0  0  0  0  0  0  0  0  0  0  0
  -28.8804  -23.7078   18.8104 C   0  0  0  0  0  0  0  0  0  0  0  0
  -30.0916  -22.1924   20.0412 C   0  0  0  0  0  0  0  0  0  0  0  0
  -27.9147  -10.6187   19.4581 C   0  0  0  0  0  0  0  0  0  0  0  0
  -27.7872   -8.1962   20.0612 C   0  0  0  0  0  0  0  0  0  0  0  0
  -25.6344  -32.5393   22.1361 C   0  0  0  0  0  0  0  0  0  0  0  0
  -22.6049  -31.3986   22.3429 C   0  0  0  0  0  0  0  0  0  0  0  0
  -20.4606  -28.7778   21.9183 C   0  0  0  0  0  0  0  0  0  0  0  0
  -29.1784  -15.8249   19.7807 C   0  0  0  0  0  0  0  0  0  0  0  0
  -26.2998  -37.4207   23.4726 C   0  0  0  0  0  0  0  0  0  0  0  0
  -25.3053  -31.5651   19.8343 C   0  0  0  0  0  0  0  0  0  0  0  0
  -24.4269  -29.6977   21.9523 C   0  0  0  0  0  0  0  0  0  0  0  0
  -25.3821  -36.2834   23.9137 C   0  0  0  0  0  0  0  0  0  0  0  0
  -26.2663  -15.1461   17.9401 C   0  0  0  0  0  0  0  0  0  0  0  0
  -26.1897  -35.0153   24.1716 C   0  0  0  0  0  0  0  0  0  0  0  0
  -26.0115  -13.6836   18.3038 C   0  0  0  0  0  0  0  0  0  0  0  0
  -28.7447  -19.3173   19.7215 C   0  0  0  0  0  0  0  0  0  0  0  0
  -31.1721  -18.6493   19.5500 C   0  0  0  0  0  0  0  0  0  0  0  0
  -26.7285  -15.9647   19.1469 C   0  0  0  0  0  0  0  0  0  0  0  0
  -28.3621  -18.0669   18.9241 C   0  0  0  0  0  0  0  0  0  0  0  0
  -30.7454  -17.4317   18.7348 C   0  0  0  0  0  0  0  0  0  0  0  0
  -27.6443  -13.9286   20.2119 C   0  0  0  0  0  0  0  0  0  0  0  0
  -26.8981  -34.5434   22.8961 C   0  0  1  0  0  0  0  0  0  0  0  0
  -24.6413  -32.0592   21.1158 C   0  0  1  0  0  0  0  0  0  0  0  0
  -27.2346  -13.0681   19.0067 C   0  0  1  0  0  0  0  0  0  0  0  0
  -30.1617  -19.7874   19.3845 C   0  0  0  0  0  0  0  0  0  0  0  0
  -30.4830  -25.5623   21.6585 C   0  0  0  0  0  0  0  0  0  0  0  0
  -31.3953  -22.8405   22.0884 C   0  0  0  0  0  0  0  0  0  0  0  0
  -27.9925  -23.9512   17.6341 C   0  0  0  0  0  0  0  0  0  0  0  0
  -18.0518  -28.1364   22.2082 C   0  0  0  0  0  0  0  0  0  0  0  0
  -23.0324  -31.1635   25.3549 C   0  0  0  0  0  0  0  0  0  0  0  0
  -21.0236  -29.6724   25.4533 C   0  0  0  0  0  0  0  0  0  0  0  0
  -20.7856  -32.0337   24.6849 C   0  0  0  0  0  0  0  0  0  0  0  0
  -20.1372  -28.2334   19.0273 C   0  0  0  0  0  0  0  0  0  0  0  0
  -28.7502  -26.1414   19.3957 C   0  0  0  0  0  0  0  0  0  1  0  0
  -21.9130  -30.3470   23.1763 C   0  0  1  0  0  0  0  0  0  0  0  0
  -19.0990  -28.6879   21.2532 C   0  0  2  0  0  0  0  0  0  0  0  0
  -21.7107  -30.7977   24.6505 C   0  0  0  0  0  0  0  0  0  0  0  0
  -25.7495  -11.2383   19.7331 N   0  0  0  0  0  0  0  0  0  0  0  0
  -29.2874  -22.4299   18.9807 N   0  0  0  0  0  0  0  0  0  0  0  0
  -26.9932  -11.6224   19.3988 N   0  0  0  0  0  0  0  0  0  0  0  0
  -23.8273  -31.0291   21.7641 N   0  0  0  0  0  0  0  0  0  0  0  0
  -27.8706  -15.3179   19.8078 N   0  0  0  0  0  0  0  0  0  0  0  0
  -29.3831  -17.0203   19.0756 N   0  0  0  0  0  0  0  0  0  0  0  0
  -29.2126  -10.8318   19.1537 N   0  0  0  0  0  0  0  0  0  0  0  0
  -26.9383   -7.1602   20.4741 N   0  0  0  0  0  0  0  0  0  0  0  0
  -30.5228  -20.8934   20.2438 N   0  0  0  0  0  0  0  0  0  0  0  0
  -25.9629  -33.8761   22.0159 N   0  0  0  0  0  0  0  0  0  0  0  0
  -20.6755  -30.0203   22.4761 N   0  0  0  0  0  0  0  0  0  0  0  0
  -19.1630  -27.7967   20.0604 N   0  3  0  0  0  0  0  0  0  0  0  0
  -29.0082   -7.9606   19.8964 O   0  0  0  0  0  0  0  0  0  0  0  0
  -26.0693  -31.7552   22.9715 O   0  0  0  0  0  0  0  0  0  0  0  0
  -22.0766  -32.5047   22.2045 O   0  0  0  0  0  0  0  0  0  0  0  0
  -21.2527  -27.8384   21.9441 O   0  0  0  0  0  0  0  0  0  0  0  0
  -30.1089  -15.2439   20.3531 O   0  0  0  0  0  0  0  0  0  0  0  0
  -21.4891   -6.8895   21.6000 O   0  0  0  0  0  0  0  0  0  0  0  0
  -27.7270  -26.4575   20.3313 O   0  0  0  0  0  0  0  0  0  1  0  0
  -22.1351   -3.4867   25.8904 F   0  0  0  0  0  0  0  0  0  0  0  0
  -19.9451   -7.1681   23.8762 F   0  0  0  0  0  0  0  0  0  0  0  0
  1  2  1  0  0  0  0
  1  5  2  0  0  0  0
  2  6  2  0  0  0  0
  3  8  2  0  0  0  0
  3 15  1  0  0  0  0
  4  9  1  0  0  0  0
  4 15  2  0  0  0  0
  5 17  1  0  0  0  0
  6 19  1  0  0  0  0
  7 10  2  0  0  0  0
  7 18  1  0  0  0  0
  8 24  1  0  0  0  0
  9 24  2  0  0  0  0
 10 25  1  0  0  0  0
 11 12  2  0  0  0  0
 11 26  1  0  0  0  0
 12 27  1  0  0  0  0
 13 20  1  0  0  0  0
 13 25  2  0  0  0  0
 14 27  2  0  0  0  0
 14 28  1  0  0  0  0
 15 29  1  0  0  0  0
 16 29  1  0  0  0  0
 16 32  2  0  0  0  0
 16 33  1  0  0  0  0
 17 19  2  0  0  0  0
 17 38  1  0  0  0  0
 18 20  2  0  0  0  0
 18 39  1  0  0  0  0
 19 51  1  0  0  0  0
 20 40  1  0  0  0  0
 21 22  2  0  0  0  0
 21 23  1  0  0  0  0
 21 55  1  0  0  0  0
 22 30  1  0  0  0  0
 22 63  1  0  0  0  0
 23 31  2  0  0  0  0
 23 56  1  0  0  0  0
 24 84  1  0  0  0  0
 25 85  1  0  0  0  0
 26 28  2  0  0  0  0
 26 84  1  0  0  0  0
 27 86  1  0  0  0  0
 28 87  1  0  0  0  0
 29 67  2  0  0  0  0
 30 57  1  0  0  0  0
 30 68  2  0  0  0  0
 31 68  1  0  0  0  0
 31 75  1  0  0  0  0
 32 69  1  0  0  0  0
 32 73  1  0  0  0  0
 33 74  1  0  0  0  0
 33 79  2  0  0  0  0
 34 52  1  0  0  0  0
 34 76  1  0  0  0  0
 34 80  2  0  0  0  0
 35 64  1  0  0  0  0
 35 70  1  0  0  0  0
 35 81  2  0  0  0  0
 36 65  1  0  0  0  0
 36 77  1  0  0  0  0
 36 82  2  0  0  0  0
 37 71  1  0  0  0  0
 37 72  1  0  0  0  0
 37 83  2  0  0  0  0
 38 41  1  0  0  0  0
 39 52  1  0  0  0  0
 40 70  1  0  0  0  0
 41 43  1  0  0  0  0
 42 44  1  0  0  0  0
 42 47  1  0  0  0  0
 43 51  1  0  0  0  0
 44 53  1  0  0  0  0
 45 48  1  0  0  0  0
 45 54  1  0  0  0  0
 46 49  1  0  0  0  0
 46 54  1  0  0  0  0
 47 71  1  0  0  0  0
 48 72  1  0  0  0  0
 49 72  1  0  0  0  0
 50 53  1  0  0  0  0
 50 71  1  0  0  0  0
 51 76  1  0  0  0  0
 52 70  1  0  0  0  0
 53 69  1  0  0  0  0
 54 75  1  0  0  0  0
 58 65  1  0  0  0  0
 59 66  1  0  0  0  0
 60 66  1  0  0  0  0
 61 66  1  0  0  0  0
 62 78  1  0  0  0  0
 63 85  1  0  0  0  0
 64 66  1  0  0  0  0
 64 77  1  0  0  0  0
 65 78  1  0  0  0  0
 67 69  1  0  0  0  0
M  CHG  1  78   1
M  ISO  4  37 100  63 101  72 100  85 101
M  END
> <Batch ID>
0174

> <Smiles>
CNC(C)C(=O)NC(C(=O)N1Cc2cc([101O:1][101CH2:1]c3c(C)nc(NC4CC[100N:0]([100C:0](=O)N5CCCC(n6nc(-c7ccc(Oc8ccc(F)cc8F)cc7)c(C(N)=O)c6N)C5)CC4)c(C)c3C)ccc2CC1C(=O)NC1CCCc2ccccc21)C(C)(C)C

> <Shape>
0.314

> <Color>
0.108

> <Negative vol penalty>
0.000

$$$$

  -OEChem-04052322453D

 88 97  0     1  0  0  0  0  0999 V2000
  -26.9357  -34.4032   24.7875 C   0  0  0  0  0  0  0  0  0  0  0  0
  -27.1424  -33.4146   23.8308 C   0  0  0  0  0  0  0  0  0  0  0  0
  -24.8880  -13.4453   22.0409 C   0  0  0  0  0  0  0  0  0  0  0  0
  -25.4403  -13.9045   19.7341 C   0  0  0  0  0  0  0  0  0  0  0  0
  -25.9547  -34.2329   25.7636 C   0  0  0  0  0  0  0  0  0  0  0  0
  -26.3690  -32.2545   23.8503 C   0  0  0  0  0  0  0  0  0  0  0  0
  -24.7134  -30.9459   19.2469 C   0  0  0  0  0  0  0  0  0  0  0  0
  -24.8851  -12.0775   21.7679 C   0  0  0  0  0  0  0  0  0  0  0  0
  -25.4375  -12.5366   19.4612 C   0  0  0  0  0  0  0  0  0  0  0  0
  -25.6231  -30.3166   18.3982 C   0  0  0  0  0  0  0  0  0  0  0  0
  -22.8003   -9.8248   20.3526 C   0  0  0  0  0  0  0  0  0  0  0  0
  -21.7482   -9.0649   20.8637 C   0  0  0  0  0  0  0  0  0  0  0  0
  -24.6502  -28.1793   18.9503 C   0  0  0  0  0  0  0  0  0  0  0  0
  -23.3236   -7.7206   22.1079 C   0  0  0  0  0  0  0  0  0  0  0  0
  -25.1655  -14.3589   21.0240 C   0  0  0  0  0  0  0  0  0  0  0  0
  -24.0951  -16.5444   21.7891 C   0  0  0  0  0  0  0  0  0  0  0  0
  -25.1623  -33.0745   25.7892 C   0  0  0  0  0  0  0  0  0  0  0  0
  -23.7708  -30.1944   19.9632 C   0  0  0  0  0  0  0  0  0  0  0  0
  -25.3774  -32.0680   24.8284 C   0  0  0  0  0  0  0  0  0  0  0  0
  -23.7280  -28.8018   19.8054 C   0  0  0  0  0  0  0  0  0  0  0  0
  -25.1599  -11.6231   20.4781 C   0  0  0  0  0  0  0  0  0  0  0  0
  -25.5934  -28.9328   18.2520 C   0  0  0  0  0  0  0  0  0  0  0  0
  -24.1141   -9.5325   20.7191 C   0  0  0  0  0  0  0  0  0  0  0  0
  -22.0098   -8.0128   21.7414 C   0  0  0  0  0  0  0  0  0  0  0  0
  -24.3757   -8.4805   21.5968 C   0  0  0  0  0  0  0  0  0  0  0  0
  -25.1680  -15.7720   21.3052 C   0  0  0  0  0  0  0  0  0  0  0  0
  -24.6043  -17.8163   21.8866 C   0  0  0  0  0  0  0  0  0  0  0  0
  -22.7579  -16.1476   22.1209 C   0  0  0  0  0  0  0  0  0  0  0  0
  -23.1659  -29.7053   23.0452 C   0  0  0  0  0  0  0  0  0  0  0  0
  -20.5959  -28.1011   21.8857 C   0  0  0  0  0  0  0  0  0  0  0  0
  -19.1664  -26.4094   19.2892 C   0  0  0  0  0  0  0  0  0  0  0  0
  -29.2637  -20.3301   19.0219 C   0  0  0  0  0  0  0  0  0  0  0  0
  -24.1463  -32.9142   26.8922 C   0  0  0  0  0  0  0  0  0  0  0  0
  -22.7791  -30.8909   20.8541 C   0  0  0  0  0  0  0  0  0  0  0  0
  -22.7226  -27.9514   20.5364 C   0  0  0  0  0  0  0  0  0  0  0  0
  -23.1157  -31.8222   26.6170 C   0  0  0  0  0  0  0  0  0  0  0  0
  -29.1738  -18.8658   22.5750 C   0  0  0  0  0  0  0  0  0  0  0  0
  -23.8018  -30.5535   26.1206 C   0  0  0  0  0  0  0  0  0  0  0  0
  -27.6690  -19.0750   22.7149 C   0  0  0  0  0  0  0  0  0  0  0  0
  -27.8313  -26.4613   16.7018 C   0  0  0  0  0  0  0  0  0  0  0  0
  -27.5152  -26.9845   19.1527 C   0  0  0  0  0  0  0  0  0  0  0  0
  -28.3764  -25.0855   17.0652 C   0  0  0  0  0  0  0  0  0  0  0  0
  -28.0595  -25.6083   19.5162 C   0  0  0  0  0  0  0  0  0  0  0  0
  -31.7341  -23.8867   19.4348 C   0  0  0  0  0  0  0  0  0  0  0  0
  -33.3254  -22.0869   18.5734 C   0  0  0  0  0  0  0  0  0  0  0  0
  -29.7393  -19.7086   21.4357 C   0  0  0  0  0  0  0  0  0  0  0  0
  -27.8574  -18.6497   20.1878 C   0  0  0  0  0  0  0  0  0  0  0  0
  -24.5418  -30.8065   24.8015 C   0  0  1  0  0  0  0  0  0  0  0  0
  -22.1975  -29.9780   21.9291 C   0  0  1  0  0  0  0  0  0  0  0  0
  -26.9137  -18.8609   21.3849 C   0  0  1  0  0  0  0  0  0  0  0  0
  -30.8358  -21.9753   18.0044 C   0  0  1  0  0  0  0  0  0  0  0  0
  -26.8703  -26.9859   17.7670 C   0  0  0  0  0  0  0  0  0  1  0  0
  -29.0207  -25.0837   18.4513 C   0  0  0  0  0  0  0  0  0  0  0  0
  -30.7314  -23.4693   18.3568 C   0  0  1  0  0  0  0  0  0  0  0  0
  -33.1963  -23.5494   19.0790 C   0  0  0  0  0  0  0  0  0  0  0  0
  -32.2701  -21.5809   17.5501 C   0  0  0  0  0  0  0  0  0  0  0  0
  -34.0563  -23.6919   20.3561 C   0  0  0  0  0  0  0  0  0  0  0  0
  -33.7497  -24.5638   18.0605 C   0  0  0  0  0  0  0  0  0  0  0  0
  -32.4116  -20.0409   17.4415 C   0  0  0  0  0  0  0  0  0  0  0  0
  -32.5433  -22.1235   16.1306 C   0  0  0  0  0  0  0  0  0  0  0  0
  -17.0720  -25.1825   18.6526 C   0  0  0  0  0  0  0  0  0  0  0  0
  -21.4903  -25.7113   23.5587 C   0  0  0  0  0  0  0  0  0  0  0  0
  -19.9712  -24.2704   22.1859 C   0  0  0  0  0  0  0  0  0  0  0  0
  -19.0234  -26.1225   23.5622 C   0  0  0  0  0  0  0  0  0  0  0  0
  -18.5907  -28.2993   17.0856 C   0  0  0  0  0  0  0  0  0  0  0  0
  -20.3250  -26.6764   21.4666 C   0  0  1  0  0  0  0  0  0  0  0  0
  -17.7949  -26.5205   18.6481 C   0  0  2  0  0  0  0  0  0  0  0  0
  -20.2228  -25.7107   22.6809 C   0  0  0  0  0  0  0  0  0  0  0  0
  -26.2751  -16.4930   21.1088 N   0  0  0  0  0  0  0  0  0  0  0  0
  -25.9005  -17.7318   21.4710 N   0  0  0  0  0  0  0  0  0  0  0  0
  -21.7780  -28.6784   21.4007 N   0  0  0  0  0  0  0  0  0  0  0  0
  -28.9613  -19.6110   20.1943 N   0  0  0  0  0  0  0  0  0  0  0  0
  -24.0651  -18.9876   22.2863 N   0  0  0  0  0  0  0  0  0  0  0  0
  -21.7792  -16.1936   21.1187 N   0  0  0  0  0  0  0  0  0  0  0  0
  -23.6078  -30.8410   23.6966 N   0  0  0  0  0  0  0  0  0  0  0  0
  -19.1284  -26.7166   20.6329 N   0  0  0  0  0  0  0  0  0  0  0  0
  -30.3779  -21.1613   19.1161 N   0  0  0  0  0  0  0  0  0  0  0  0
  -17.9188  -26.9830   17.2368 N   0  3  0  0  0  0  0  0  0  0  0  0
  -22.4368  -15.7793   23.2762 O   0  0  0  0  0  0  0  0  0  0  0  0
  -23.4871  -28.5500   23.2976 O   0  0  0  0  0  0  0  0  0  0  0  0
  -19.7850  -28.6829   22.6107 O   0  0  0  0  0  0  0  0  0  0  0  0
  -20.1703  -26.0794   18.6618 O   0  0  0  0  0  0  0  0  0  0  0  0
  -28.6020  -20.2399   17.9834 O   0  0  0  0  0  0  0  0  0  0  0  0
  -25.1574  -10.2884   20.2114 O   0  0  0  0  0  0  0  0  0  0  0  0
  -26.4864  -28.3119   17.4195 O   0  0  0  0  0  0  0  0  0  1  0  0
  -29.4046  -23.7578   18.7990 O   0  0  0  0  0  0  0  0  0  0  0  0
  -20.9993   -7.2841   22.2333 F   0  0  0  0  0  0  0  0  0  0  0  0
  -25.6356   -8.1957   21.9535 F   0  0  0  0  0  0  0  0  0  0  0  0
  1  2  1  0  0  0  0
  1  5  2  0  0  0  0
  2  6  2  0  0  0  0
  3  8  2  0  0  0  0
  3 15  1  0  0  0  0
  4  9  1  0  0  0  0
  4 15  2  0  0  0  0
  5 17  1  0  0  0  0
  6 19  1  0  0  0  0
  7 10  2  0  0  0  0
  7 18  1  0  0  0  0
  8 21  1  0  0  0  0
  9 21  2  0  0  0  0
 10 22  1  0  0  0  0
 11 12  2  0  0  0  0
 11 23  1  0  0  0  0
 12 24  1  0  0  0  0
 13 20  1  0  0  0  0
 13 22  2  0  0  0  0
 14 24  2  0  0  0  0
 14 25  1  0  0  0  0
 15 26  1  0  0  0  0
 16 26  1  0  0  0  0
 16 27  2  0  0  0  0
 16 28  1  0  0  0  0
 17 19  2  0  0  0  0
 17 33  1  0  0  0  0
 18 20  2  0  0  0  0
 18 34  1  0  0  0  0
 19 48  1  0  0  0  0
 20 35  1  0  0  0  0
 21 84  1  0  0  0  0
 22 85  1  0  0  0  0
 23 25  2  0  0  0  0
 23 84  1  0  0  0  0
 24 87  1  0  0  0  0
 25 88  1  0  0  0  0
 26 69  2  0  0  0  0
 27 70  1  0  0  0  0
 27 73  1  0  0  0  0
 28 74  1  0  0  0  0
 28 79  2  0  0  0  0
 29 49  1  0  0  0  0
 29 75  1  0  0  0  0
 29 80  2  0  0  0  0
 30 66  1  0  0  0  0
 30 71  1  0  0  0  0
 30 81  2  0  0  0  0
 31 67  1  0  0  0  0
 31 76  1  0  0  0  0
 31 82  2  0  0  0  0
 32 72  1  0  0  0  0
 32 77  1  0  0  0  0
 32 83  2  0  0  0  0
 33 36  1  0  0  0  0
 34 49  1  0  0  0  0
 35 71  1  0  0  0  0
 36 38  1  0  0  0  0
 37 39  1  0  0  0  0
 37 46  1  0  0  0  0
 38 48  1  0  0  0  0
 39 50  1  0  0  0  0
 40 42  1  0  0  0  0
 40 52  1  0  0  0  0
 41 43  1  0  0  0  0
 41 52  1  0  0  0  0
 42 53  1  0  0  0  0
 43 53  1  0  0  0  0
 44 54  1  0  0  0  0
 44 55  1  0  0  0  0
 45 55  1  0  0  0  0
 45 56  1  0  0  0  0
 46 72  1  0  0  0  0
 47 50  1  0  0  0  0
 47 72  1  0  0  0  0
 48 75  1  0  0  0  0
 49 71  1  0  0  0  0
 50 70  1  0  0  0  0
 51 54  1  0  0  0  0
 51 56  1  0  0  0  0
 51 77  1  0  0  0  0
 52 85  1  0  0  0  0
 53 86  1  0  0  0  0
 54 86  1  0  0  0  0
 55 57  1  0  0  0  0
 55 58  1  0  0  0  0
 56 59  1  0  0  0  0
 56 60  1  0  0  0  0
 61 67  1  0  0  0  0
 62 68  1  0  0  0  0
 63 68  1  0  0  0  0
 64 68  1  0  0  0  0
 65 78  1  0  0  0  0
 66 68  1  0  0  0  0
 66 76  1  0  0  0  0
 67 78  1  0  0  0  0
 69 70  1  0  0  0  0
M  CHG  1  78   1
M  ISO  4  32 100  52 101  77 100  85 101
M  END
> <Batch ID>
0174

> <Smiles>
CNC(C)C(=O)NC(C(=O)N1Cc2cc([101O:1][101CH:1]3CCC(OC4CC(C)(C)CC(C)(C)C4[100NH:0][100C:0](=O)N4CCCC(n5nc(-c6ccc(Oc7ccc(F)cc7F)cc6)c(C(N)=O)c5N)C4)CC3)ccc2CC1C(=O)NC1CCCc2ccccc21)C(C)(C)C

> <Shape>
0.275

> <Color>
0.059

> <Negative vol penalty>
0.000

$$$$

  -OEChem-04052322453D

 85 94  0     1  0  0  0  0  0999 V2000
  -16.2322  -11.4154   24.8440 C   0  0  0  0  0  0  0  0  0  0  0  0
  -17.4974  -11.9907   24.9047 C   0  0  0  0  0  0  0  0  0  0  0  0
  -23.1361   -9.8715   19.9635 C   0  0  0  0  0  0  0  0  0  0  0  0
  -23.8021   -9.9644   22.2840 C   0  0  0  0  0  0  0  0  0  0  0  0
  -15.1591  -12.1460   24.3354 C   0  0  0  0  0  0  0  0  0  0  0  0
  -17.6904  -13.2968   24.4559 C   0  0  0  0  0  0  0  0  0  0  0  0
  -20.5217  -16.0437   27.6313 C   0  0  0  0  0  0  0  0  0  0  0  0
  -22.4091   -8.7088   20.2186 C   0  0  0  0  0  0  0  0  0  0  0  0
  -23.0750   -8.8017   22.5392 C   0  0  0  0  0  0  0  0  0  0  0  0
  -21.9000  -15.8360   27.5975 C   0  0  0  0  0  0  0  0  0  0  0  0
  -23.4637   -5.4726   22.0954 C   0  0  0  0  0  0  0  0  0  0  0  0
  -24.0727   -4.4839   22.8682 C   0  0  0  0  0  0  0  0  0  0  0  0
  -22.1588  -17.8149   26.2424 C   0  0  0  0  0  0  0  0  0  0  0  0
  -22.3000   -4.6671   24.4995 C   0  0  0  0  0  0  0  0  0  0  0  0
  -23.8326  -10.4993   20.9962 C   0  0  0  0  0  0  0  0  0  0  0  0
  -24.1216  -13.0273   20.8130 C   0  0  0  0  0  0  0  0  0  0  0  0
  -15.3372  -13.4650   23.8890 C   0  0  0  0  0  0  0  0  0  0  0  0
  -19.9496  -17.1343   26.9607 C   0  0  0  0  0  0  0  0  0  0  0  0
  -16.6190  -14.0452   23.9396 C   0  0  0  0  0  0  0  0  0  0  0  0
  -20.7733  -18.0356   26.2714 C   0  0  0  0  0  0  0  0  0  0  0  0
  -27.1650  -17.2093   27.2257 C   0  0  0  0  0  0  0  0  0  0  0  0
  -26.2650  -17.0796   26.1393 C   0  0  0  0  0  0  0  0  0  0  0  0
  -22.3785   -8.1739   21.5065 C   0  0  0  0  0  0  0  0  0  0  0  0
  -22.7184  -16.7200   26.9006 C   0  0  0  0  0  0  0  0  0  0  0  0
  -22.2729   -6.0586   22.5247 C   0  0  0  0  0  0  0  0  0  0  0  0
  -23.4909   -4.0812   24.0703 C   0  0  0  0  0  0  0  0  0  0  0  0
  -21.6910   -5.6558   23.7267 C   0  0  0  0  0  0  0  0  0  0  0  0
  -24.5843  -11.7001   20.7331 C   0  0  0  0  0  0  0  0  0  0  0  0
  -28.3852  -16.7246   26.8092 C   0  0  0  0  0  0  0  0  0  0  0  0
  -26.9626  -16.5194   25.0919 C   0  0  0  0  0  0  0  0  0  0  0  0
  -25.2102  -13.7916   20.4708 C   0  0  0  0  0  0  0  0  0  0  0  0
  -22.8238  -13.5247   21.1650 C   0  0  0  0  0  0  0  0  0  0  0  0
  -17.8671  -17.4632   24.5819 C   0  0  0  0  0  0  0  0  0  0  0  0
  -18.1101  -20.6118   25.3234 C   0  0  0  0  0  0  0  0  0  0  0  0
  -19.9510  -23.1275   26.7123 C   0  0  0  0  0  0  0  0  0  0  0  0
  -30.8469  -14.0571   20.9786 C   0  0  0  0  0  0  0  0  0  0  0  0
  -14.1567  -14.1988   23.3035 C   0  0  0  0  0  0  0  0  0  0  0  0
  -18.4640  -17.3593   27.0291 C   0  0  0  0  0  0  0  0  0  0  0  0
  -20.2107  -19.2332   25.5519 C   0  0  0  0  0  0  0  0  0  0  0  0
  -14.3692  -15.7066   23.1959 C   0  0  0  0  0  0  0  0  0  0  0  0
  -29.4183  -12.9886   18.0163 C   0  0  0  0  0  0  0  0  0  0  0  0
  -15.7383  -16.0114   22.5963 C   0  0  0  0  0  0  0  0  0  0  0  0
  -27.9739  -12.6724   18.4043 C   0  0  0  0  0  0  0  0  0  0  0  0
  -29.6806  -16.5661   23.4352 C   0  0  0  0  0  0  0  0  0  0  0  0
  -29.0331  -14.2581   24.2443 C   0  0  0  0  0  0  0  0  0  0  0  0
  -30.3891  -12.5173   19.0933 C   0  0  0  0  0  0  0  0  0  0  0  0
  -30.7762  -15.9339   22.5802 C   0  0  0  0  0  0  0  0  0  0  0  0
  -30.1439  -13.6786   23.3733 C   0  0  0  0  0  0  0  0  0  0  0  0
  -28.6662  -12.7720   20.8488 C   0  0  0  0  0  0  0  0  0  0  0  0
  -16.8633  -15.4680   23.4854 C   0  0  1  0  0  0  0  0  0  0  0  0
  -17.9357  -18.2144   25.8814 C   0  0  1  0  0  0  0  0  0  0  0  0
  -27.6404  -13.2377   19.7963 C   0  0  2  0  0  0  0  0  0  0  0  0
  -29.3560  -15.7024   24.6663 C   0  0  0  0  0  0  0  0  0  0  0  0
  -26.8552  -17.7631   28.5600 C   0  0  0  0  0  0  0  0  0  0  0  0
  -29.6685  -16.6230   27.5363 C   0  0  0  0  0  0  0  0  0  0  0  0
  -26.5131  -16.1649   23.7286 C   0  0  0  0  0  0  0  0  0  0  0  0
  -19.9040  -25.6006   27.1354 C   0  0  0  0  0  0  0  0  0  0  0  0
  -18.7667  -21.1240   22.3880 C   0  0  0  0  0  0  0  0  0  0  0  0
  -19.6238  -23.3825   23.0460 C   0  0  0  0  0  0  0  0  0  0  0  0
  -17.2268  -22.8023   23.4208 C   0  0  0  0  0  0  0  0  0  0  0  0
  -20.0793  -22.7456   29.6443 C   0  0  0  0  0  0  0  0  0  0  0  0
  -24.8399  -17.4692   26.1297 C   0  0  0  0  0  0  0  0  0  1  0  0
  -19.0003  -21.7484   24.8824 C   0  0  1  0  0  0  0  0  0  0  0  0
  -19.5792  -24.2239   27.6942 C   0  0  2  0  0  0  0  0  0  0  0  0
  -18.6651  -22.2408   23.4462 C   0  0  0  0  0  0  0  0  0  0  0  0
  -25.8669  -11.6223   20.3687 N   0  0  0  0  0  0  0  0  0  0  0  0
  -28.2502  -16.3077   25.5106 N   0  0  0  0  0  0  0  0  0  0  0  0
  -26.2194  -12.9101   20.2164 N   0  0  0  0  0  0  0  0  0  0  0  0
  -18.7516  -19.4067   25.6429 N   0  0  0  0  0  0  0  0  0  0  0  0
  -30.0348  -13.0695   20.4007 N   0  0  0  0  0  0  0  0  0  0  0  0
  -30.4497  -14.5516   22.2319 N   0  0  0  0  0  0  0  0  0  0  0  0
  -25.3931  -15.1250   20.3657 N   0  0  0  0  0  0  0  0  0  0  0  0
  -21.8199  -12.6019   21.4893 N   0  0  0  0  0  0  0  0  0  0  0  0
  -17.0702  -16.3352   24.6254 N   0  0  0  0  0  0  0  0  0  0  0  0
  -18.8860  -22.7785   25.9091 N   0  0  0  0  0  0  0  0  0  0  0  0
  -20.3237  -24.0482   28.9732 N   0  3  0  0  0  0  0  0  0  0  0  0
  -22.5575  -14.7504   21.1754 O   0  0  0  0  0  0  0  0  0  0  0  0
  -18.4899  -17.8773   23.6111 O   0  0  0  0  0  0  0  0  0  0  0  0
  -16.8911  -20.7889   25.3892 O   0  0  0  0  0  0  0  0  0  0  0  0
  -21.0749  -22.6328   26.6604 O   0  0  0  0  0  0  0  0  0  0  0  0
  -31.8618  -14.4774   20.4092 O   0  0  0  0  0  0  0  0  0  0  0  0
  -21.6690   -7.0394   21.7559 O   0  0  0  0  0  0  0  0  0  0  0  0
  -24.0711  -16.5182   26.8652 O   0  0  0  0  0  0  0  0  0  1  0  0
  -24.0750   -3.1307   24.8115 F   0  0  0  0  0  0  0  0  0  0  0  0
  -20.5464   -6.2143   24.1437 F   0  0  0  0  0  0  0  0  0  0  0  0
  1  2  1  0  0  0  0
  1  5  2  0  0  0  0
  2  6  2  0  0  0  0
  3  8  2  0  0  0  0
  3 15  1  0  0  0  0
  4  9  1  0  0  0  0
  4 15  2  0  0  0  0
  5 17  1  0  0  0  0
  6 19  1  0  0  0  0
  7 10  2  0  0  0  0
  7 18  1  0  0  0  0
  8 23  1  0  0  0  0
  9 23  2  0  0  0  0
 10 24  1  0  0  0  0
 11 12  2  0  0  0  0
 11 25  1  0  0  0  0
 12 26  1  0  0  0  0
 13 20  1  0  0  0  0
 13 24  2  0  0  0  0
 14 26  2  0  0  0  0
 14 27  1  0  0  0  0
 15 28  1  0  0  0  0
 16 28  1  0  0  0  0
 16 31  2  0  0  0  0
 16 32  1  0  0  0  0
 17 19  2  0  0  0  0
 17 37  1  0  0  0  0
 18 20  2  0  0  0  0
 18 38  1  0  0  0  0
 19 50  1  0  0  0  0
 20 39  1  0  0  0  0
 21 22  1  0  0  0  0
 21 29  2  0  0  0  0
 21 54  1  0  0  0  0
 22 30  2  0  0  0  0
 22 62  1  0  0  0  0
 23 82  1  0  0  0  0
 24 83  1  0  0  0  0
 25 27  2  0  0  0  0
 25 82  1  0  0  0  0
 26 84  1  0  0  0  0
 27 85  1  0  0  0  0
 28 66  2  0  0  0  0
 29 55  1  0  0  0  0
 29 67  1  0  0  0  0
 30 56  1  0  0  0  0
 30 67  1  0  0  0  0
 31 68  1  0  0  0  0
 31 72  1  0  0  0  0
 32 73  1  0  0  0  0
 32 77  2  0  0  0  0
 33 51  1  0  0  0  0
 33 74  1  0  0  0  0
 33 78  2  0  0  0  0
 34 63  1  0  0  0  0
 34 69  1  0  0  0  0
 34 79  2  0  0  0  0
 35 64  1  0  0  0  0
 35 75  1  0  0  0  0
 35 80  2  0  0  0  0
 36 70  1  0  0  0  0
 36 71  1  0  0  0  0
 36 81  2  0  0  0  0
 37 40  1  0  0  0  0
 38 51  1  0  0  0  0
 39 69  1  0  0  0  0
 40 42  1  0  0  0  0
 41 43  1  0  0  0  0
 41 46  1  0  0  0  0
 42 50  1  0  0  0  0
 43 52  1  0  0  0  0
 44 47  1  0  0  0  0
 44 53  1  0  0  0  0
 45 48  1  0  0  0  0
 45 53  1  0  0  0  0
 46 70  1  0  0  0  0
 47 71  1  0  0  0  0
 48 71  1  0  0  0  0
 49 52  1  0  0  0  0
 49 70  1  0  0  0  0
 50 74  1  0  0  0  0
 51 69  1  0  0  0  0
 52 68  1  0  0  0  0
 53 67  1  0  0  0  0
 57 64  1  0  0  0  0
 58 65  1  0  0  0  0
 59 65  1  0  0  0  0
 60 65  1  0  0  0  0
 61 76  1  0  0  0  0
 62 83  1  0  0  0  0
 63 65  1  0  0  0  0
 63 75  1  0  0  0  0
 64 76  1  0  0  0  0
 66 68  1  0  0  0  0
M  CHG  1  76   1
M  ISO  4  36 100  62 101  71 100  83 101
M  END
> <Batch ID>
0174

> <Smiles>
CNC(C)C(=O)NC(C(=O)N1Cc2cc([101O:1][101CH2:1]c3c(C)c(C)n(C4CC[100N:0]([100C:0](=O)N5CCCC(n6nc(-c7ccc(Oc8ccc(F)cc8F)cc7)c(C(N)=O)c6N)C5)CC4)c3C)ccc2CC1C(=O)NC1CCCc2ccccc21)C(C)(C)C

> <Shape>
0.160

> <Color>
0.205

> <Negative vol penalty>
0.000

$$$$

  -OEChem-04052322453D

 87 96  0     1  0  0  0  0  0999 V2000
  -29.8170  -36.6790   23.1505 C   0  0  0  0  0  0  0  0  0  0  0  0
  -30.0438  -35.5584   22.3580 C   0  0  0  0  0  0  0  0  0  0  0  0
  -23.4109  -10.3205   21.7654 C   0  0  0  0  0  0  0  0  0  0  0  0
  -24.9398   -8.4608   21.9667 C   0  0  0  0  0  0  0  0  0  0  0  0
  -28.8916  -36.6194   24.1917 C   0  0  0  0  0  0  0  0  0  0  0  0
  -29.3460  -34.3770   22.6069 C   0  0  0  0  0  0  0  0  0  0  0  0
  -26.5800  -28.7062   19.2146 C   0  0  0  0  0  0  0  0  0  0  0  0
  -22.3487   -9.4303   21.6077 C   0  0  0  0  0  0  0  0  0  0  0  0
  -23.8777   -7.5705   21.8091 C   0  0  0  0  0  0  0  0  0  0  0  0
  -26.5976  -27.3127   19.2553 C   0  0  0  0  0  0  0  0  0  0  0  0
  -21.3859   -6.3067   23.7103 C   0  0  0  0  0  0  0  0  0  0  0  0
  -21.3236   -5.2148   24.5760 C   0  0  0  0  0  0  0  0  0  0  0  0
  -24.9653  -27.3501   21.0311 C   0  0  0  0  0  0  0  0  0  0  0  0
  -21.4563   -3.7115   22.6892 C   0  0  0  0  0  0  0  0  0  0  0  0
  -24.7065   -9.8358   21.9448 C   0  0  0  0  0  0  0  0  0  0  0  0
  -26.2947  -11.2886   23.3140 C   0  0  0  0  0  0  0  0  0  0  0  0
  -28.1751  -35.4397   24.4474 C   0  0  0  0  0  0  0  0  0  0  0  0
  -25.7617  -29.4336   20.0908 C   0  0  0  0  0  0  0  0  0  0  0  0
  -28.4111  -34.3012   23.6533 C   0  0  0  0  0  0  0  0  0  0  0  0
  -24.9373  -28.7526   20.9978 C   0  0  0  0  0  0  0  0  0  0  0  0
  -24.5881  -22.4243   20.0534 C   0  0  0  0  0  0  0  0  0  0  0  0
  -24.7695  -21.0463   20.0159 C   0  0  0  0  0  0  0  0  0  0  0  0
  -25.1354  -23.1638   21.0960 C   0  0  0  0  0  0  0  0  0  0  0  0
  -22.5821   -8.0553   21.6296 C   0  0  0  0  0  0  0  0  0  0  0  0
  -25.7923  -26.6345   20.1656 C   0  0  0  0  0  0  0  0  0  0  0  0
  -21.4833   -6.1011   22.3341 C   0  0  0  0  0  0  0  0  0  0  0  0
  -21.3589   -3.9172   24.0654 C   0  0  0  0  0  0  0  0  0  0  0  0
  -21.5186   -4.8035   21.8236 C   0  0  0  0  0  0  0  0  0  0  0  0
  -25.8042  -10.7549   22.1072 C   0  0  0  0  0  0  0  0  0  0  0  0
  -25.5004  -20.4603   21.0368 C   0  0  0  0  0  0  0  0  0  0  0  0
  -25.8497  -22.4831   22.0686 C   0  0  0  0  0  0  0  0  0  0  0  0
  -27.3344  -12.1010   22.9326 C   0  0  0  0  0  0  0  0  0  0  0  0
  -25.8503  -11.0695   24.6594 C   0  0  0  0  0  0  0  0  0  0  0  0
  -26.2770  -31.5585   22.3979 C   0  0  0  0  0  0  0  0  0  0  0  0
  -23.0397  -31.7646   22.3961 C   0  0  0  0  0  0  0  0  0  0  0  0
  -20.0434  -30.2939   21.6848 C   0  0  0  0  0  0  0  0  0  0  0  0
  -29.4522  -15.9711   19.5225 C   0  0  0  0  0  0  0  0  0  0  0  0
  -27.2196  -35.4091   25.6139 C   0  0  0  0  0  0  0  0  0  0  0  0
  -25.7343  -30.9356   20.0160 C   0  0  0  0  0  0  0  0  0  0  0  0
  -24.0257  -29.4864   21.9460 C   0  0  0  0  0  0  0  0  0  0  0  0
  -26.2485  -34.2319   25.5750 C   0  0  0  0  0  0  0  0  0  0  0  0
  -29.6953  -12.5964   18.5073 C   0  0  0  0  0  0  0  0  0  0  0  0
  -26.9906  -32.9379   25.2563 C   0  0  0  0  0  0  0  0  0  0  0  0
  -28.7239  -11.8567   19.4229 C   0  0  0  0  0  0  0  0  0  0  0  0
  -28.2645  -19.1804   20.9324 C   0  0  0  0  0  0  0  0  0  0  0  0
  -29.1414  -13.9613   18.1211 C   0  0  0  0  0  0  0  0  0  0  0  0
  -29.3638  -18.2996   20.3593 C   0  0  0  0  0  0  0  0  0  0  0  0
  -27.2930  -17.0866   20.3471 C   0  0  0  0  0  0  0  0  0  0  0  0
  -27.8751  -14.1134   20.2478 C   0  0  0  0  0  0  0  0  0  0  0  0
  -27.6558  -33.0090   23.8764 C   0  0  1  0  0  0  0  0  0  0  0  0
  -25.2462  -31.5893   21.3051 C   0  0  1  0  0  0  0  0  0  0  0  0
  -26.9999  -18.5864   20.3108 C   0  0  1  0  0  0  0  0  0  0  0  0
  -28.3797  -12.7126   20.6518 C   0  0  1  0  0  0  0  0  0  0  0  0
  -23.8054  -23.1085   18.9782 C   0  0  0  0  0  0  0  0  0  0  0  0
  -26.4593  -23.2226   23.2145 C   0  0  0  0  0  0  0  0  0  0  0  0
  -22.6953  -19.9979   19.0750 C   0  0  0  0  0  0  0  0  0  0  0  0
  -17.5700  -30.6923   21.8290 C   0  0  0  0  0  0  0  0  0  0  0  0
  -23.1276  -31.2091   25.3951 C   0  0  0  0  0  0  0  0  0  0  0  0
  -20.6823  -30.6802   25.2981 C   0  0  0  0  0  0  0  0  0  0  0  0
  -21.4865  -32.9665   24.7073 C   0  0  0  0  0  0  0  0  0  0  0  0
  -19.7223  -30.0915   18.7497 C   0  0  0  0  0  0  0  0  0  0  0  0
  -24.1954  -20.2260   18.9097 C   0  0  0  0  0  0  0  0  0  0  0  0
  -24.9584  -24.6438   21.1646 C   0  0  0  0  0  0  0  0  0  1  0  0
  -25.7311  -18.9708   21.0507 C   0  0  0  0  0  0  0  0  0  0  0  0
  -21.9225  -31.0498   23.1172 C   0  0  1  0  0  0  0  0  0  0  0  0
  -18.8134  -30.8123   20.9617 C   0  0  2  0  0  0  0  0  0  0  0  0
  -21.8233  -31.4623   24.6130 C   0  0  0  0  0  0  0  0  0  0  0  0
  -26.4768  -11.1917   21.0391 N   0  0  0  0  0  0  0  0  0  0  0  0
  -26.0471  -21.1456   22.0659 N   0  0  0  0  0  0  0  0  0  0  0  0
  -27.4006  -12.0084   21.5735 N   0  0  0  0  0  0  0  0  0  0  0  0
  -24.0392  -30.9546   21.8387 N   0  0  0  0  0  0  0  0  0  0  0  0
  -28.7906  -14.7587   19.2978 N   0  0  0  0  0  0  0  0  0  0  0  0
  -28.7410  -16.9973   20.1430 N   0  0  0  0  0  0  0  0  0  0  0  0
  -28.1893  -12.8784   23.6307 N   0  0  0  0  0  0  0  0  0  0  0  0
  -24.7686  -10.2043   24.8732 N   0  0  0  0  0  0  0  0  0  0  0  0
  -26.6747  -32.8089   22.8315 N   0  0  0  0  0  0  0  0  0  0  0  0
  -20.7106  -31.3035   22.3457 N   0  0  0  0  0  0  0  0  0  0  0  0
  -18.5871  -30.0413   19.7066 N   0  3  0  0  0  0  0  0  0  0  0  0
  -26.3857  -11.6372   25.6415 O   0  0  0  0  0  0  0  0  0  0  0  0
  -26.6805  -30.4803   22.8178 O   0  0  0  0  0  0  0  0  0  0  0  0
  -23.0223  -32.9959   22.3237 O   0  0  0  0  0  0  0  0  0  0  0  0
  -20.3767  -29.1111   21.6683 O   0  0  0  0  0  0  0  0  0  0  0  0
  -30.6190  -16.1460   19.1459 O   0  0  0  0  0  0  0  0  0  0  0  0
  -21.5459   -7.1862   21.4761 O   0  0  0  0  0  0  0  0  0  0  0  0
  -25.8081  -25.2649   20.2082 O   0  0  0  0  0  0  0  0  0  1  0  0
  -21.3006   -2.8687   24.8969 F   0  0  0  0  0  0  0  0  0  0  0  0
  -21.6133   -4.5997   20.5025 F   0  0  0  0  0  0  0  0  0  0  0  0
  1  2  1  0  0  0  0
  1  5  2  0  0  0  0
  2  6  2  0  0  0  0
  3  8  2  0  0  0  0
  3 15  1  0  0  0  0
  4  9  1  0  0  0  0
  4 15  2  0  0  0  0
  5 17  1  0  0  0  0
  6 19  1  0  0  0  0
  7 10  2  0  0  0  0
  7 18  1  0  0  0  0
  8 24  1  0  0  0  0
  9 24  2  0  0  0  0
 10 25  1  0  0  0  0
 11 12  2  0  0  0  0
 11 26  1  0  0  0  0
 12 27  1  0  0  0  0
 13 20  1  0  0  0  0
 13 25  2  0  0  0  0
 14 27  2  0  0  0  0
 14 28  1  0  0  0  0
 15 29  1  0  0  0  0
 16 29  1  0  0  0  0
 16 32  2  0  0  0  0
 16 33  1  0  0  0  0
 17 19  2  0  0  0  0
 17 38  1  0  0  0  0
 18 20  2  0  0  0  0
 18 39  1  0  0  0  0
 19 50  1  0  0  0  0
 20 40  1  0  0  0  0
 21 22  2  0  0  0  0
 21 23  1  0  0  0  0
 21 54  1  0  0  0  0
 22 30  1  0  0  0  0
 22 62  1  0  0  0  0
 23 31  2  0  0  0  0
 23 63  1  0  0  0  0
 24 84  1  0  0  0  0
 25 85  1  0  0  0  0
 26 28  2  0  0  0  0
 26 84  1  0  0  0  0
 27 86  1  0  0  0  0
 28 87  1  0  0  0  0
 29 68  2  0  0  0  0
 30 64  1  0  0  0  0
 30 69  2  0  0  0  0
 31 55  1  0  0  0  0
 31 69  1  0  0  0  0
 32 70  1  0  0  0  0
 32 74  1  0  0  0  0
 33 75  1  0  0  0  0
 33 79  2  0  0  0  0
 34 51  1  0  0  0  0
 34 76  1  0  0  0  0
 34 80  2  0  0  0  0
 35 65  1  0  0  0  0
 35 71  1  0  0  0  0
 35 81  2  0  0  0  0
 36 66  1  0  0  0  0
 36 77  1  0  0  0  0
 36 82  2  0  0  0  0
 37 72  1  0  0  0  0
 37 73  1  0  0  0  0
 37 83  2  0  0  0  0
 38 41  1  0  0  0  0
 39 51  1  0  0  0  0
 40 71  1  0  0  0  0
 41 43  1  0  0  0  0
 42 44  1  0  0  0  0
 42 46  1  0  0  0  0
 43 50  1  0  0  0  0
 44 53  1  0  0  0  0
 45 47  1  0  0  0  0
 45 52  1  0  0  0  0
 46 72  1  0  0  0  0
 47 73  1  0  0  0  0
 48 52  1  0  0  0  0
 48 73  1  0  0  0  0
 49 53  1  0  0  0  0
 49 72  1  0  0  0  0
 50 76  1  0  0  0  0
 51 71  1  0  0  0  0
 52 64  1  0  0  0  0
 53 70  1  0  0  0  0
 56 62  1  0  0  0  0
 57 66  1  0  0  0  0
 58 67  1  0  0  0  0
 59 67  1  0  0  0  0
 60 67  1  0  0  0  0
 61 78  1  0  0  0  0
 63 85  1  0  0  0  0
 65 67  1  0  0  0  0
 65 77  1  0  0  0  0
 66 78  1  0  0  0  0
 68 70  1  0  0  0  0
M  CHG  1  78   1
M  ISO  4  37 100  63 101  73 100  85 101
M  END
> <Batch ID>
0174

> <Smiles>
CCc1c(CC2CC[100N:0]([100C:0](=O)N3CCCC(n4nc(-c5ccc(Oc6ccc(F)cc6F)cc5)c(C(N)=O)c4N)C3)C2)nc(C)c([101CH2:1][101O:1]c2ccc3c(c2)CN(C(=O)C(NC(=O)C(C)NC)C(C)(C)C)C(C(=O)NC2CCCc4ccccc42)C3)c1C

> <Shape>
0.256

> <Color>
0.104

> <Negative vol penalty>
0.000

$$$$

  -OEChem-04052322453D

 83 91  0     1  0  0  0  0  0999 V2000
  -35.2372  -28.7616   27.0500 C   0  0  0  0  0  0  0  0  0  0  0  0
  -34.8274  -27.5842   26.4325 C   0  0  0  0  0  0  0  0  0  0  0  0
  -23.0013   -9.8929   19.9808 C   0  0  0  0  0  0  0  0  0  0  0  0
  -23.7316   -9.9421   22.2832 C   0  0  0  0  0  0  0  0  0  0  0  0
  -34.8602  -29.9940   26.5181 C   0  0  0  0  0  0  0  0  0  0  0  0
  -34.0394  -27.6385   25.2834 C   0  0  0  0  0  0  0  0  0  0  0  0
  -35.6079  -24.4241   21.6984 C   0  0  0  0  0  0  0  0  0  0  0  0
  -22.2370   -8.7570   20.2475 C   0  0  0  0  0  0  0  0  0  0  0  0
  -22.9673   -8.8062   22.5500 C   0  0  0  0  0  0  0  0  0  0  0  0
  -35.2716  -23.0803   21.8567 C   0  0  0  0  0  0  0  0  0  0  0  0
  -23.2153   -5.4682   22.0734 C   0  0  0  0  0  0  0  0  0  0  0  0
  -23.8060   -4.4509   22.8230 C   0  0  0  0  0  0  0  0  0  0  0  0
  -33.4552  -23.3570   20.2936 C   0  0  0  0  0  0  0  0  0  0  0  0
  -22.0856   -4.6894   24.5024 C   0  0  0  0  0  0  0  0  0  0  0  0
  -23.7487  -10.4855   20.9986 C   0  0  0  0  0  0  0  0  0  0  0  0
  -24.1300  -13.0018   20.8248 C   0  0  0  0  0  0  0  0  0  0  0  0
  -34.0752  -30.0636   25.3564 C   0  0  0  0  0  0  0  0  0  0  0  0
  -34.8623  -25.2484   20.8433 C   0  0  0  0  0  0  0  0  0  0  0  0
  -33.6504  -28.8730   24.7363 C   0  0  0  0  0  0  0  0  0  0  0  0
  -33.7856  -24.7102   20.1242 C   0  0  0  0  0  0  0  0  0  0  0  0
  -22.2199   -8.2137   21.5321 C   0  0  0  0  0  0  0  0  0  0  0  0
  -34.1933  -22.5473   21.1565 C   0  0  0  0  0  0  0  0  0  0  0  0
  -22.0598   -6.0961   22.5384 C   0  0  0  0  0  0  0  0  0  0  0  0
  -23.2411   -4.0615   24.0374 C   0  0  0  0  0  0  0  0  0  0  0  0
  -21.4949   -5.7067   23.7529 C   0  0  0  0  0  0  0  0  0  0  0  0
  -24.5388  -11.6585   20.7236 C   0  0  0  0  0  0  0  0  0  0  0  0
  -25.2379  -13.7264   20.4588 C   0  0  0  0  0  0  0  0  0  0  0  0
  -30.3883  -17.2871   23.2703 C   0  0  0  0  0  0  0  0  0  0  0  0
  -22.8621  -13.5459   21.2149 C   0  0  0  0  0  0  0  0  0  0  0  0
  -32.1290  -19.7077   22.0253 C   0  0  0  0  0  0  0  0  0  0  0  0
  -33.0951  -27.8627   21.2257 C   0  0  0  0  0  0  0  0  0  0  0  0
  -32.9576  -27.7715   17.9861 C   0  0  0  0  0  0  0  0  0  0  0  0
  -33.1676  -25.9177   15.1284 C   0  0  0  0  0  0  0  0  0  0  0  0
  -30.7335  -14.6686   20.6959 C   0  0  0  0  0  0  0  0  0  0  0  0
  -33.6531  -31.4184   24.8455 C   0  0  0  0  0  0  0  0  0  0  0  0
  -35.2545  -26.6893   20.6632 C   0  0  0  0  0  0  0  0  0  0  0  0
  -32.9659  -25.5480   19.1783 C   0  0  0  0  0  0  0  0  0  0  0  0
  -33.1299  -31.3928   23.4117 C   0  0  0  0  0  0  0  0  0  0  0  0
  -29.5909  -12.2461   18.3501 C   0  0  0  0  0  0  0  0  0  0  0  0
  -32.1420  -30.2458   23.2243 C   0  0  0  0  0  0  0  0  0  0  0  0
  -28.1437  -11.9838   18.7707 C   0  0  0  0  0  0  0  0  0  0  0  0
  -30.4957  -12.4813   19.5576 C   0  0  0  0  0  0  0  0  0  0  0  0
  -28.5875  -13.2725   20.9017 C   0  0  0  0  0  0  0  0  0  0  0  0
  -32.8157  -28.8911   23.4741 C   0  0  1  0  0  0  0  0  0  0  0  0
  -30.8158  -16.8462   21.8835 C   0  0  2  0  0  0  0  0  0  0  0  0
  -30.7045  -19.2456   21.9660 C   0  0  1  0  0  0  0  0  0  0  0  0
  -34.1091  -27.5616   20.1586 C   0  0  1  0  0  0  0  0  0  0  0  0
  -30.5255  -18.0736   20.9955 C   0  0  2  0  0  0  0  0  0  0  0  0
  -27.6261  -13.0849   19.7156 C   0  0  2  0  0  0  0  0  0  0  0  0
  -29.1181  -18.0878   20.3912 C   0  0  0  0  0  0  0  0  0  0  0  0
  -28.5890  -19.8110   24.4518 C   0  0  0  0  0  0  0  0  0  0  0  0
  -32.9719  -26.1139   12.6343 C   0  0  0  0  0  0  0  0  0  0  0  0
  -29.9191  -27.8932   18.2365 C   0  0  0  0  0  0  0  0  0  0  0  0
  -29.7622  -27.1383   15.8546 C   0  0  0  0  0  0  0  0  0  0  0  0
  -30.8722  -29.3036   16.4043 C   0  0  0  0  0  0  0  0  0  0  0  0
  -35.9688  -25.0523   14.7243 C   0  0  0  0  0  0  0  0  0  0  0  0
  -32.4871  -20.8905   21.1510 C   0  0  0  0  0  0  0  0  0  1  0  0
  -30.0498  -19.5186   24.3965 C   0  0  0  0  0  0  0  0  0  0  0  0
  -32.0384  -27.1335   16.9726 C   0  0  1  0  0  0  0  0  0  0  0  0
  -33.9139  -26.1532   13.8276 C   0  0  2  0  0  0  0  0  0  0  0  0
  -30.6620  -27.8516   16.8863 C   0  0  0  0  0  0  0  0  0  0  0  0
  -25.8074  -11.5343   20.3244 N   0  0  0  0  0  0  0  0  0  0  0  0
  -26.2052  -12.8089   20.1714 N   0  0  0  0  0  0  0  0  0  0  0  0
  -30.3729  -18.6821   23.2578 N   0  0  0  0  0  0  0  0  0  0  0  0
  -33.3848  -26.9526   19.0410 N   0  0  0  0  0  0  0  0  0  0  0  0
  -29.9494  -13.5382   20.4122 N   0  0  0  0  0  0  0  0  0  0  0  0
  -25.4692  -15.0526   20.3578 N   0  0  0  0  0  0  0  0  0  0  0  0
  -21.8324  -12.6599   21.5597 N   0  0  0  0  0  0  0  0  0  0  0  0
  -33.6165  -28.5066   22.3316 N   0  0  0  0  0  0  0  0  0  0  0  0
  -32.7764  -27.1029   15.7146 N   0  0  0  0  0  0  0  0  0  0  0  0
  -30.1376  -15.6255   21.5083 N   0  0  0  0  0  0  0  0  0  0  0  0
  -34.9605  -25.1100   13.6347 N   0  3  0  0  0  0  0  0  0  0  0  0
  -30.1575  -16.5423   24.2115 O   0  0  0  0  0  0  0  0  0  0  0  0
  -22.6437  -14.7809   21.2406 O   0  0  0  0  0  0  0  0  0  0  0  0
  -32.9526  -19.1486   22.7480 O   0  0  0  0  0  0  0  0  0  0  0  0
  -31.9260  -27.5363   21.0576 O   0  0  0  0  0  0  0  0  0  0  0  0
  -33.2901  -28.9507   17.8431 O   0  0  0  0  0  0  0  0  0  0  0  0
  -32.9500  -24.7946   15.5776 O   0  0  0  0  0  0  0  0  0  0  0  0
  -31.8777  -14.8166   20.2534 O   0  0  0  0  0  0  0  0  0  0  0  0
  -21.4741   -7.1054   21.7927 O   0  0  0  0  0  0  0  0  0  0  0  0
  -33.8625  -21.2362   21.3097 O   0  0  0  0  0  0  0  0  0  1  0  0
  -23.8076   -3.0835   24.7564 F   0  0  0  0  0  0  0  0  0  0  0  0
  -20.3842   -6.3054   24.2041 F   0  0  0  0  0  0  0  0  0  0  0  0
  1  2  1  0  0  0  0
  1  5  2  0  0  0  0
  2  6  2  0  0  0  0
  3  8  2  0  0  0  0
  3 15  1  0  0  0  0
  4  9  1  0  0  0  0
  4 15  2  0  0  0  0
  5 17  1  0  0  0  0
  6 19  1  0  0  0  0
  7 10  2  0  0  0  0
  7 18  1  0  0  0  0
  8 21  1  0  0  0  0
  9 21  2  0  0  0  0
 10 22  1  0  0  0  0
 11 12  2  0  0  0  0
 11 23  1  0  0  0  0
 12 24  1  0  0  0  0
 13 20  1  0  0  0  0
 13 22  2  0  0  0  0
 14 24  2  0  0  0  0
 14 25  1  0  0  0  0
 15 26  1  0  0  0  0
 16 26  1  0  0  0  0
 16 27  2  0  0  0  0
 16 29  1  0  0  0  0
 17 19  2  0  0  0  0
 17 35  1  0  0  0  0
 18 20  2  0  0  0  0
 18 36  1  0  0  0  0
 19 44  1  0  0  0  0
 20 37  1  0  0  0  0
 21 80  1  0  0  0  0
 22 81  1  0  0  0  0
 23 25  2  0  0  0  0
 23 80  1  0  0  0  0
 24 82  1  0  0  0  0
 25 83  1  0  0  0  0
 26 62  2  0  0  0  0
 27 63  1  0  0  0  0
 27 67  1  0  0  0  0
 28 45  1  0  0  0  0
 28 64  1  0  0  0  0
 28 73  2  0  0  0  0
 29 68  1  0  0  0  0
 29 74  2  0  0  0  0
 30 46  1  0  0  0  0
 30 57  1  0  0  0  0
 30 75  2  0  0  0  0
 31 47  1  0  0  0  0
 31 69  1  0  0  0  0
 31 76  2  0  0  0  0
 32 59  1  0  0  0  0
 32 65  1  0  0  0  0
 32 77  2  0  0  0  0
 33 60  1  0  0  0  0
 33 70  1  0  0  0  0
 33 78  2  0  0  0  0
 34 66  1  0  0  0  0
 34 71  1  0  0  0  0
 34 79  2  0  0  0  0
 35 38  1  0  0  0  0
 36 47  1  0  0  0  0
 37 65  1  0  0  0  0
 38 40  1  0  0  0  0
 39 41  1  0  0  0  0
 39 42  1  0  0  0  0
 40 44  1  0  0  0  0
 41 49  1  0  0  0  0
 42 66  1  0  0  0  0
 43 49  1  0  0  0  0
 43 66  1  0  0  0  0
 44 69  1  0  0  0  0
 45 48  1  0  0  0  0
 45 71  1  0  0  0  0
 46 48  1  0  0  0  0
 46 64  1  0  0  0  0
 47 65  1  0  0  0  0
 48 50  1  0  0  0  0
 49 63  1  0  0  0  0
 51 58  1  0  0  0  0
 52 60  1  0  0  0  0
 53 61  1  0  0  0  0
 54 61  1  0  0  0  0
 55 61  1  0  0  0  0
 56 72  1  0  0  0  0
 57 81  1  0  0  0  0
 58 64  1  0  0  0  0
 59 61  1  0  0  0  0
 59 70  1  0  0  0  0
 60 72  1  0  0  0  0
 62 63  1  0  0  0  0
M  CHG  1  72   1
M  ISO  4  34 100  57 101  71 100  81 101
M  END
> <Batch ID>
0174

> <Smiles>
CCN1C(=O)C([100NH:0][100C:0](=O)N2CCCC(n3nc(-c4ccc(Oc5ccc(F)cc5F)cc4)c(C(N)=O)c3N)C2)C(C)C1C(=O)[101CH2:1][101O:1]c1ccc2c(c1)CN(C(=O)C(NC(=O)C(C)NC)C(C)(C)C)C(C(=O)NC1CCCc3ccccc31)C2

> <Shape>
0.198

> <Color>
0.197

> <Negative vol penalty>
0.000

$$$$

  -OEChem-04052322453D

 85 94  0     1  0  0  0  0  0999 V2000
  -26.5984  -34.4548   23.7852 C   0  0  0  0  0  0  0  0  0  0  0  0
  -27.0192  -33.1432   23.9800 C   0  0  0  0  0  0  0  0  0  0  0  0
  -22.5546  -15.2791   20.8941 C   0  0  0  0  0  0  0  0  0  0  0  0
  -22.2089  -13.7419   19.0625 C   0  0  0  0  0  0  0  0  0  0  0  0
  -25.3981  -34.7096   23.1233 C   0  0  0  0  0  0  0  0  0  0  0  0
  -26.2393  -32.0854   23.5138 C   0  0  0  0  0  0  0  0  0  0  0  0
  -28.9839  -28.5345   21.1679 C   0  0  0  0  0  0  0  0  0  0  0  0
  -27.7140  -22.5603   23.1424 C   0  0  0  0  0  0  0  0  0  0  0  0
  -21.3705  -15.9384   20.5642 C   0  0  0  0  0  0  0  0  0  0  0  0
  -21.0248  -14.4012   18.7326 C   0  0  0  0  0  0  0  0  0  0  0  0
  -29.6959  -27.6456   21.9720 C   0  0  0  0  0  0  0  0  0  0  0  0
  -20.3330  -18.1980   18.2745 C   0  0  0  0  0  0  0  0  0  0  0  0
  -20.3533  -19.5925   18.2518 C   0  0  0  0  0  0  0  0  0  0  0  0
  -27.5428  -21.3834   22.4220 C   0  0  0  0  0  0  0  0  0  0  0  0
  -27.9687  -25.9904   21.6613 C   0  0  0  0  0  0  0  0  0  0  0  0
  -18.6446  -19.6452   19.9591 C   0  0  0  0  0  0  0  0  0  0  0  0
  -29.8475  -22.8132   22.1224 C   0  0  0  0  0  0  0  0  0  0  0  0
  -22.9738  -14.1808   20.1432 C   0  0  0  0  0  0  0  0  0  0  0  0
  -24.3483  -12.4135   21.3659 C   0  0  0  0  0  0  0  0  0  0  0  0
  -24.6078  -33.6547   22.6402 C   0  0  0  0  0  0  0  0  0  0  0  0
  -27.7515  -28.1612   20.6124 C   0  0  0  0  0  0  0  0  0  0  0  0
  -25.0266  -32.3263   22.8459 C   0  0  0  0  0  0  0  0  0  0  0  0
  -27.2442  -26.8755   20.8484 C   0  0  0  0  0  0  0  0  0  0  0  0
  -28.8854  -23.2947   22.9955 C   0  0  0  0  0  0  0  0  0  0  0  0
  -20.6056  -15.4995   19.4834 C   0  0  0  0  0  0  0  0  0  0  0  0
  -29.1870  -26.3744   22.2212 C   0  0  0  0  0  0  0  0  0  0  0  0
  -19.4685  -17.5270   19.1395 C   0  0  0  0  0  0  0  0  0  0  0  0
  -19.5092  -20.3161   19.0941 C   0  0  0  0  0  0  0  0  0  0  0  0
  -18.6243  -18.2506   19.9818 C   0  0  0  0  0  0  0  0  0  0  0  0
  -24.1971  -13.4996   20.4831 C   0  0  0  0  0  0  0  0  0  0  0  0
  -28.5650  -20.9875   21.5744 C   0  0  0  0  0  0  0  0  0  0  0  0
  -25.6935  -12.1371   21.3429 C   0  0  0  0  0  0  0  0  0  0  0  0
  -23.3610  -11.7167   22.1376 C   0  0  0  0  0  0  0  0  0  0  0  0
  -24.7639  -29.2156   20.8693 C   0  0  0  0  0  0  0  0  0  0  0  0
  -24.2079  -27.0398   18.5284 C   0  0  0  0  0  0  0  0  0  0  0  0
  -25.1721  -24.1713   16.9508 C   0  0  0  0  0  0  0  0  0  0  0  0
  -30.4983  -15.4431   20.0637 C   0  0  0  0  0  0  0  0  0  0  0  0
  -23.2948  -33.9781   21.9724 C   0  0  0  0  0  0  0  0  0  0  0  0
  -27.0086  -29.1223   19.7254 C   0  0  0  0  0  0  0  0  0  0  0  0
  -25.9355  -26.4189   20.2591 C   0  0  0  0  0  0  0  0  0  0  0  0
  -22.7114  -32.8118   21.1790 C   0  0  0  0  0  0  0  0  0  0  0  0
  -29.5395  -12.4149   18.5393 C   0  0  0  0  0  0  0  0  0  0  0  0
  -22.7714  -31.5261   21.9977 C   0  0  0  0  0  0  0  0  0  0  0  0
  -28.0691  -12.2533   18.9158 C   0  0  0  0  0  0  0  0  0  0  0  0
  -30.5124  -18.8274   21.5679 C   0  0  0  0  0  0  0  0  0  0  0  0
  -29.8695  -13.8755   18.2617 C   0  0  0  0  0  0  0  0  0  0  0  0
  -31.1830  -17.4902   21.2777 C   0  0  0  0  0  0  0  0  0  0  0  0
  -28.1006  -14.6336   19.8241 C   0  0  0  0  0  0  0  0  0  0  0  0
  -28.9775  -17.4967   20.3231 C   0  0  0  0  0  0  0  0  0  0  0  0
  -24.2204  -31.1528   22.3330 C   0  0  1  0  0  0  0  0  0  0  0  0
  -25.5168  -28.8174   19.6314 C   0  0  1  0  0  0  0  0  0  0  0  0
  -27.7079  -13.1670   20.0976 C   0  0  1  0  0  0  0  0  0  0  0  0
  -29.4607  -18.9442   20.4585 C   0  0  2  0  0  0  0  0  0  0  0  0
  -30.0530  -19.4736   19.1498 C   0  0  0  0  0  0  0  0  0  0  0  0
  -29.7968  -24.3372   25.0992 C   0  0  0  0  0  0  0  0  0  0  0  0
  -24.4972  -22.6204   15.0970 C   0  0  0  0  0  0  0  0  0  0  0  0
  -22.0144  -25.8775   20.3025 C   0  0  0  0  0  0  0  0  0  0  0  0
  -22.0395  -23.8248   18.8693 C   0  0  0  0  0  0  0  0  0  0  0  0
  -21.4236  -26.0291   17.8772 C   0  0  0  0  0  0  0  0  0  0  0  0
  -27.6846  -24.6649   15.4668 C   0  0  0  0  0  0  0  0  0  0  0  0
  -29.0984  -24.5571   23.7527 C   0  0  1  0  0  0  0  0  0  1  0  0
  -23.8333  -25.5778   18.4948 C   0  0  1  0  0  0  0  0  0  0  0  0
  -25.3288  -23.8351   15.4788 C   0  0  2  0  0  0  0  0  0  0  0  0
  -22.3514  -25.3363   18.8988 C   0  0  0  0  0  0  0  0  0  0  0  0
  -29.7170  -21.6744   21.4055 N   0  0  0  0  0  0  0  0  0  0  0  0
  -25.3539  -13.8869   19.9392 N   0  0  0  0  0  0  0  0  0  0  0  0
  -26.2449  -13.0395   20.4817 N   0  0  0  0  0  0  0  0  0  0  0  0
  -25.2434  -27.3970   19.4037 N   0  0  0  0  0  0  0  0  0  0  0  0
  -29.4984  -14.7381   19.3848 N   0  0  0  0  0  0  0  0  0  0  0  0
  -30.1692  -16.6869   20.6005 N   0  0  0  0  0  0  0  0  0  0  0  0
  -26.4467  -11.2126   21.9758 N   0  0  0  0  0  0  0  0  0  0  0  0
  -22.0252  -12.1304   22.0435 N   0  0  0  0  0  0  0  0  0  0  0  0
  -28.3794  -19.8142   20.8637 N   0  0  0  0  0  0  0  0  0  0  0  0
  -24.8677  -30.5571   21.1839 N   0  0  0  0  0  0  0  0  0  0  0  0
  -24.1741  -25.0997   17.1593 N   0  0  0  0  0  0  0  0  0  0  0  0
  -26.7561  -23.5458   15.1626 N   0  3  0  0  0  0  0  0  0  0  0  0
  -23.6571  -10.7663   22.9009 O   0  0  0  0  0  0  0  0  0  0  0  0
  -24.1341  -28.3686   21.4920 O   0  0  0  0  0  0  0  0  0  0  0  0
  -23.6089  -27.8345   17.7996 O   0  0  0  0  0  0  0  0  0  0  0  0
  -25.8631  -23.6586   17.8284 O   0  0  0  0  0  0  0  0  0  0  0  0
  -31.6511  -14.9991   20.1511 O   0  0  0  0  0  0  0  0  0  0  0  0
  -19.4500  -16.1425   19.1614 O   0  0  0  0  0  0  0  0  0  0  0  0
  -29.8813  -25.5029   23.0081 O   0  0  0  0  0  0  0  0  0  1  0  0
  -19.5299  -21.6552   19.0733 F   0  0  0  0  0  0  0  0  0  0  0  0
  -17.7924  -17.6116   20.8157 F   0  0  0  0  0  0  0  0  0  0  0  0
  1  2  1  0  0  0  0
  1  5  2  0  0  0  0
  2  6  2  0  0  0  0
  3  9  2  0  0  0  0
  3 18  1  0  0  0  0
  4 10  1  0  0  0  0
  4 18  2  0  0  0  0
  5 20  1  0  0  0  0
  6 22  1  0  0  0  0
  7 11  2  0  0  0  0
  7 21  1  0  0  0  0
  8 14  2  0  0  0  0
  8 24  1  0  0  0  0
  9 25  1  0  0  0  0
 10 25  2  0  0  0  0
 11 26  1  0  0  0  0
 12 13  2  0  0  0  0
 12 27  1  0  0  0  0
 13 28  1  0  0  0  0
 14 31  1  0  0  0  0
 15 23  1  0  0  0  0
 15 26  2  0  0  0  0
 16 28  2  0  0  0  0
 16 29  1  0  0  0  0
 17 24  2  0  0  0  0
 17 65  1  0  0  0  0
 18 30  1  0  0  0  0
 19 30  1  0  0  0  0
 19 32  2  0  0  0  0
 19 33  1  0  0  0  0
 20 22  2  0  0  0  0
 20 38  1  0  0  0  0
 21 23  2  0  0  0  0
 21 39  1  0  0  0  0
 22 50  1  0  0  0  0
 23 40  1  0  0  0  0
 24 61  1  0  0  0  0
 25 82  1  0  0  0  0
 26 83  1  0  0  0  0
 27 29  2  0  0  0  0
 27 82  1  0  0  0  0
 28 84  1  0  0  0  0
 29 85  1  0  0  0  0
 30 66  2  0  0  0  0
 31 65  2  0  0  0  0
 31 73  1  0  0  0  0
 32 67  1  0  0  0  0
 32 71  1  0  0  0  0
 33 72  1  0  0  0  0
 33 77  2  0  0  0  0
 34 51  1  0  0  0  0
 34 74  1  0  0  0  0
 34 78  2  0  0  0  0
 35 62  1  0  0  0  0
 35 68  1  0  0  0  0
 35 79  2  0  0  0  0
 36 63  1  0  0  0  0
 36 75  1  0  0  0  0
 36 80  2  0  0  0  0
 37 69  1  0  0  0  0
 37 70  1  0  0  0  0
 37 81  2  0  0  0  0
 38 41  1  0  0  0  0
 39 51  1  0  0  0  0
 40 68  1  0  0  0  0
 41 43  1  0  0  0  0
 42 44  1  0  0  0  0
 42 46  1  0  0  0  0
 43 50  1  0  0  0  0
 44 52  1  0  0  0  0
 45 47  1  0  0  0  0
 45 53  1  0  0  0  0
 46 69  1  0  0  0  0
 47 70  1  0  0  0  0
 48 52  1  0  0  0  0
 48 69  1  0  0  0  0
 49 53  1  0  0  0  0
 49 70  1  0  0  0  0
 50 74  1  0  0  0  0
 51 68  1  0  0  0  0
 52 67  1  0  0  0  0
 53 54  1  0  0  0  0
 53 73  1  0  0  0  0
 55 61  1  0  0  0  0
 56 63  1  0  0  0  0
 57 64  1  0  0  0  0
 58 64  1  0  0  0  0
 59 64  1  0  0  0  0
 60 76  1  0  0  0  0
 61 83  1  0  0  0  0
 62 64  1  0  0  0  0
 62 75  1  0  0  0  0
 63 76  1  0  0  0  0
 66 67  1  0  0  0  0
M  CHG  1  76   1
M  ISO  4  37 100  61 101  70 100  83 101
M  END
> <Batch ID>
0174

> <Smiles>
CNC(C)C(=O)NC(C(=O)N1Cc2cc([101O:1][101CH:1](C)c3ccc(NC4(C)CC[100N:0]([100C:0](=O)N5CCCC(n6nc(-c7ccc(Oc8ccc(F)cc8F)cc7)c(C(N)=O)c6N)C5)C4)nc3)ccc2CC1C(=O)NC1CCCc2ccccc21)C(C)(C)C

> <Shape>
0.246

> <Color>
0.073

> <Negative vol penalty>
0.000

$$$$

  -OEChem-04052322453D

 83 92  0     1  0  0  0  0  0999 V2000
  -29.0478  -25.3401   10.6047 C   0  0  0  0  0  0  0  0  0  0  0  0
  -28.8969  -24.3138   11.5316 C   0  0  0  0  0  0  0  0  0  0  0  0
  -23.3399   -9.7703   19.9705 C   0  0  0  0  0  0  0  0  0  0  0  0
  -23.7967   -9.9961   22.3321 C   0  0  0  0  0  0  0  0  0  0  0  0
  -30.0185  -26.3209   10.8040 C   0  0  0  0  0  0  0  0  0  0  0  0
  -29.7175  -24.2670   12.6581 C   0  0  0  0  0  0  0  0  0  0  0  0
  -28.1766  -22.3224   18.2572 C   0  0  0  0  0  0  0  0  0  0  0  0
  -22.6460   -8.5860   20.2179 C   0  0  0  0  0  0  0  0  0  0  0  0
  -23.1027   -8.8117   22.5796 C   0  0  0  0  0  0  0  0  0  0  0  0
  -28.3715  -21.1089   18.9153 C   0  0  0  0  0  0  0  0  0  0  0  0
  -21.1429   -6.0370   23.8751 C   0  0  0  0  0  0  0  0  0  0  0  0
  -20.2468   -6.0207   24.9438 C   0  0  0  0  0  0  0  0  0  0  0  0
  -30.3484  -22.0044   19.9685 C   0  0  0  0  0  0  0  0  0  0  0  0
  -28.3372  -17.2093   22.1221 C   0  0  0  0  0  0  0  0  0  0  0  0
  -18.9843   -7.8038   23.9123 C   0  0  0  0  0  0  0  0  0  0  0  0
  -23.9153  -10.4754   21.0276 C   0  0  0  0  0  0  0  0  0  0  0  0
  -24.1063  -13.0041   20.7498 C   0  0  0  0  0  0  0  0  0  0  0  0
  -30.8449  -26.2915   11.9384 C   0  0  0  0  0  0  0  0  0  0  0  0
  -29.0738  -23.3842   18.4417 C   0  0  0  0  0  0  0  0  0  0  0  0
  -30.7011  -25.2476   12.8721 C   0  0  0  0  0  0  0  0  0  0  0  0
  -30.1612  -23.2312   19.3135 C   0  0  0  0  0  0  0  0  0  0  0  0
  -28.6806  -16.0908   22.8733 C   0  0  0  0  0  0  0  0  0  0  0  0
  -29.0675  -17.5249   20.9817 C   0  0  0  0  0  0  0  0  0  0  0  0
  -22.5273   -8.1066   21.5224 C   0  0  0  0  0  0  0  0  0  0  0  0
  -29.4591  -20.9487   19.7688 C   0  0  0  0  0  0  0  0  0  0  0  0
  -20.9599   -6.9367   22.8250 C   0  0  0  0  0  0  0  0  0  0  0  0
  -19.1675   -6.9041   24.9624 C   0  0  0  0  0  0  0  0  0  0  0  0
  -19.8806   -7.8201   22.8436 C   0  0  0  0  0  0  0  0  0  0  0  0
  -24.6328  -11.6986   20.7726 C   0  0  0  0  0  0  0  0  0  0  0  0
  -29.7541  -15.3266   22.4452 C   0  0  0  0  0  0  0  0  0  0  0  0
  -30.1238  -16.6965   20.6384 C   0  0  0  0  0  0  0  0  0  0  0  0
  -25.1855  -13.8046   20.4654 C   0  0  0  0  0  0  0  0  0  0  0  0
  -22.7620  -13.4529   20.9664 C   0  0  0  0  0  0  0  0  0  0  0  0
  -31.0277  -25.0250   16.5459 C   0  0  0  0  0  0  0  0  0  0  0  0
  -31.4694  -26.8237   19.2090 C   0  0  0  0  0  0  0  0  0  0  0  0
  -31.3682  -27.0324   22.6139 C   0  0  0  0  0  0  0  0  0  0  0  0
  -31.1722  -12.5376   21.2120 C   0  0  0  0  0  0  0  0  0  0  0  0
  -31.9118  -27.3472   12.0868 C   0  0  0  0  0  0  0  0  0  0  0  0
  -28.8346  -24.6957   17.7451 C   0  0  0  0  0  0  0  0  0  0  0  0
  -31.1420  -24.3470   19.5615 C   0  0  0  0  0  0  0  0  0  0  0  0
  -32.4896  -27.4351   13.4970 C   0  0  0  0  0  0  0  0  0  0  0  0
  -29.3804  -13.7902   18.2203 C   0  0  0  0  0  0  0  0  0  0  0  0
  -32.8173  -26.0429   14.0274 C   0  0  0  0  0  0  0  0  0  0  0  0
  -27.9307  -13.4151   18.5117 C   0  0  0  0  0  0  0  0  0  0  0  0
  -31.4532  -14.2117   24.1594 C   0  0  0  0  0  0  0  0  0  0  0  0
  -30.3557  -12.8478   18.9166 C   0  0  0  0  0  0  0  0  0  0  0  0
  -32.1229  -12.9987   23.5244 C   0  0  0  0  0  0  0  0  0  0  0  0
  -28.6979  -12.3923   20.6934 C   0  0  0  0  0  0  0  0  0  0  0  0
  -31.5555  -25.1764   14.1192 C   0  0  1  0  0  0  0  0  0  0  0  0
  -30.2597  -14.0241   23.1959 C   0  0  2  0  0  0  0  0  0  0  0  0
  -30.0985  -25.5392   17.6090 C   0  0  1  0  0  0  0  0  0  0  0  0
  -27.6876  -13.3403   20.0266 C   0  0  2  0  0  0  0  0  0  0  0  0
  -27.9102  -15.7391   24.0974 C   0  0  0  0  0  0  0  0  0  0  0  0
  -30.9445  -16.9863   19.4244 C   0  0  0  0  0  0  0  0  0  0  0  0
  -31.8216  -28.6189   24.5046 C   0  0  0  0  0  0  0  0  0  0  0  0
  -34.4677  -26.3769   18.8616 C   0  0  0  0  0  0  0  0  0  0  0  0
  -34.7846  -27.1407   21.2248 C   0  0  0  0  0  0  0  0  0  0  0  0
  -33.8297  -28.7012   19.5290 C   0  0  0  0  0  0  0  0  0  0  0  0
  -28.5519  -26.9416   23.5189 C   0  0  0  0  0  0  0  0  0  0  0  0
  -28.7012  -18.7297   20.1660 C   0  0  0  0  0  0  0  0  0  1  0  0
  -32.4201  -26.7831   20.3810 C   0  0  1  0  0  0  0  0  0  0  0  0
  -30.7761  -28.0777   23.5418 C   0  0  2  0  0  0  0  0  0  0  0  0
  -33.8583  -27.2286   19.9931 C   0  0  0  0  0  0  0  0  0  0  0  0
  -25.9445  -11.6672   20.5224 N   0  0  0  0  0  0  0  0  0  0  0  0
  -30.4872  -15.6016   21.3431 N   0  0  0  0  0  0  0  0  0  0  0  0
  -26.2512  -12.9628   20.3397 N   0  0  0  0  0  0  0  0  0  0  0  0
  -30.8688  -25.6080   18.8524 N   0  0  0  0  0  0  0  0  0  0  0  0
  -30.0848  -12.7364   20.3523 N   0  0  0  0  0  0  0  0  0  0  0  0
  -31.1045  -13.0595   22.4832 N   0  0  0  0  0  0  0  0  0  0  0  0
  -25.3173  -15.1395   20.3130 N   0  0  0  0  0  0  0  0  0  0  0  0
  -21.7758  -12.4975   21.2477 N   0  0  0  0  0  0  0  0  0  0  0  0
  -30.7792  -25.5361   15.2864 N   0  0  0  0  0  0  0  0  0  0  0  0
  -31.8077  -27.5892   21.4315 N   0  0  0  0  0  0  0  0  0  0  0  0
  -29.6619  -27.4912   24.3391 N   0  3  0  0  0  0  0  0  0  0  0  0
  -22.4415  -14.6636   20.8960 O   0  0  0  0  0  0  0  0  0  0  0  0
  -31.9060  -24.2251   16.8465 O   0  0  0  0  0  0  0  0  0  0  0  0
  -31.2617  -27.8960   18.6357 O   0  0  0  0  0  0  0  0  0  0  0  0
  -31.4375  -25.8415   22.9099 O   0  0  0  0  0  0  0  0  0  0  0  0
  -32.1890  -11.9332   20.8448 O   0  0  0  0  0  0  0  0  0  0  0  0
  -21.8500   -6.9511   21.7643 O   0  0  0  0  0  0  0  0  0  0  0  0
  -29.6520  -19.7650   20.4119 O   0  0  0  0  0  0  0  0  0  1  0  0
  -18.3061   -6.8873   25.9881 F   0  0  0  0  0  0  0  0  0  0  0  0
  -19.6988   -8.6859   21.8371 F   0  0  0  0  0  0  0  0  0  0  0  0
  1  2  1  0  0  0  0
  1  5  2  0  0  0  0
  2  6  2  0  0  0  0
  3  8  2  0  0  0  0
  3 16  1  0  0  0  0
  4  9  1  0  0  0  0
  4 16  2  0  0  0  0
  5 18  1  0  0  0  0
  6 20  1  0  0  0  0
  7 10  2  0  0  0  0
  7 19  1  0  0  0  0
  8 24  1  0  0  0  0
  9 24  2  0  0  0  0
 10 25  1  0  0  0  0
 11 12  2  0  0  0  0
 11 26  1  0  0  0  0
 12 27  1  0  0  0  0
 13 21  1  0  0  0  0
 13 25  2  0  0  0  0
 14 22  2  0  0  0  0
 14 23  1  0  0  0  0
 15 27  2  0  0  0  0
 15 28  1  0  0  0  0
 16 29  1  0  0  0  0
 17 29  1  0  0  0  0
 17 32  2  0  0  0  0
 17 33  1  0  0  0  0
 18 20  2  0  0  0  0
 18 38  1  0  0  0  0
 19 21  2  0  0  0  0
 19 39  1  0  0  0  0
 20 49  1  0  0  0  0
 21 40  1  0  0  0  0
 22 30  1  0  0  0  0
 22 53  1  0  0  0  0
 23 31  2  0  0  0  0
 23 60  1  0  0  0  0
 24 80  1  0  0  0  0
 25 81  1  0  0  0  0
 26 28  2  0  0  0  0
 26 80  1  0  0  0  0
 27 82  1  0  0  0  0
 28 83  1  0  0  0  0
 29 64  2  0  0  0  0
 30 50  1  0  0  0  0
 30 65  2  0  0  0  0
 31 54  1  0  0  0  0
 31 65  1  0  0  0  0
 32 66  1  0  0  0  0
 32 70  1  0  0  0  0
 33 71  1  0  0  0  0
 33 75  2  0  0  0  0
 34 51  1  0  0  0  0
 34 72  1  0  0  0  0
 34 76  2  0  0  0  0
 35 61  1  0  0  0  0
 35 67  1  0  0  0  0
 35 77  2  0  0  0  0
 36 62  1  0  0  0  0
 36 73  1  0  0  0  0
 36 78  2  0  0  0  0
 37 68  1  0  0  0  0
 37 69  1  0  0  0  0
 37 79  2  0  0  0  0
 38 41  1  0  0  0  0
 39 51  1  0  0  0  0
 40 67  1  0  0  0  0
 41 43  1  0  0  0  0
 42 44  1  0  0  0  0
 42 46  1  0  0  0  0
 43 49  1  0  0  0  0
 44 52  1  0  0  0  0
 45 47  1  0  0  0  0
 45 50  1  0  0  0  0
 46 68  1  0  0  0  0
 47 69  1  0  0  0  0
 48 52  1  0  0  0  0
 48 68  1  0  0  0  0
 49 72  1  0  0  0  0
 50 69  1  0  0  0  0
 51 67  1  0  0  0  0
 52 66  1  0  0  0  0
 55 62  1  0  0  0  0
 56 63  1  0  0  0  0
 57 63  1  0  0  0  0
 58 63  1  0  0  0  0
 59 74  1  0  0  0  0
 60 81  1  0  0  0  0
 61 63  1  0  0  0  0
 61 73  1  0  0  0  0
 62 74  1  0  0  0  0
 64 66  1  0  0  0  0
M  CHG  1  74   1
M  ISO  4  37 100  60 101  69 100  81 101
M  END
> <Batch ID>
0174

> <Smiles>
CNC(C)C(=O)NC(C(=O)N1Cc2cc([101O:1][101CH2:1]c3cc(C)c(C4CC[100N:0]4[100C:0](=O)N4CCCC(n5nc(-c6ccc(Oc7ccc(F)cc7F)cc6)c(C(N)=O)c5N)C4)nc3C)ccc2CC1C(=O)NC1CCCc2ccccc21)C(C)(C)C

> <Shape>
0.253

> <Color>
0.185

> <Negative vol penalty>
0.000

$$$$

  -OEChem-04052322453D

 89 98  0     1  0  0  0  0  0999 V2000
  -32.4453  -13.8707   20.9805 C   0  0  0  0  0  0  0  0  0  0  0  0
  -31.6750  -14.9856   21.2954 C   0  0  0  0  0  0  0  0  0  0  0  0
  -27.7189  -30.6210   21.3850 C   0  0  0  0  0  0  0  0  0  0  0  0
  -25.6008  -30.4210   22.5298 C   0  0  0  0  0  0  0  0  0  0  0  0
  -31.8750  -12.8042   20.2868 C   0  0  0  0  0  0  0  0  0  0  0  0
  -30.3342  -15.0351   20.9156 C   0  0  0  0  0  0  0  0  0  0  0  0
  -25.7275  -17.6350   24.0018 C   0  0  0  0  0  0  0  0  0  0  0  0
  -28.0807  -31.6647   22.2366 C   0  0  0  0  0  0  0  0  0  0  0  0
  -25.9626  -31.4648   23.3815 C   0  0  0  0  0  0  0  0  0  0  0  0
  -25.0941  -18.8707   23.8766 C   0  0  0  0  0  0  0  0  0  0  0  0
  -26.0927  -34.8413   23.2683 C   0  0  0  0  0  0  0  0  0  0  0  0
  -25.1419  -35.8297   23.5223 C   0  0  0  0  0  0  0  0  0  0  0  0
  -23.3738  -17.8458   22.5315 C   0  0  0  0  0  0  0  0  0  0  0  0
  -23.4858  -23.6524   22.7332 C   0  0  0  0  0  0  0  0  0  0  0  0
  -25.2274  -35.3064   25.8794 C   0  0  0  0  0  0  0  0  0  0  0  0
  -21.6760  -22.5482   23.8112 C   0  0  0  0  0  0  0  0  0  0  0  0
  -26.4789  -29.9991   21.5315 C   0  0  0  0  0  0  0  0  0  0  0  0
  -26.7689  -27.6917   20.4830 C   0  0  0  0  0  0  0  0  0  0  0  0
  -30.5240  -12.8365   19.9068 C   0  0  0  0  0  0  0  0  0  0  0  0
  -25.1937  -16.4956   23.3826 C   0  0  0  0  0  0  0  0  0  0  0  0
  -29.7457  -13.9686   20.2150 C   0  0  0  0  0  0  0  0  0  0  0  0
  -24.0009  -16.5964   22.6524 C   0  0  0  0  0  0  0  0  0  0  0  0
  -22.9982  -22.5322   23.3972 C   0  0  0  0  0  0  0  0  0  0  0  0
  -22.6481  -24.7389   22.5068 C   0  0  0  0  0  0  0  0  0  0  0  0
  -27.2026  -32.0866   23.2348 C   0  0  0  0  0  0  0  0  0  0  0  0
  -23.9186  -18.9768   23.1390 C   0  0  0  0  0  0  0  0  0  0  0  0
  -26.6109  -34.0853   24.3198 C   0  0  0  0  0  0  0  0  0  0  0  0
  -24.7093  -36.0623   24.8278 C   0  0  0  0  0  0  0  0  0  0  0  0
  -26.1783  -34.3179   25.6254 C   0  0  0  0  0  0  0  0  0  0  0  0
  -26.1044  -28.9212   20.6518 C   0  0  0  0  0  0  0  0  0  0  0  0
  -21.3416  -24.6559   22.9605 C   0  0  0  0  0  0  0  0  0  0  0  0
  -26.0216  -27.0236   19.5440 C   0  0  0  0  0  0  0  0  0  0  0  0
  -27.9555  -27.1977   21.1182 C   0  0  0  0  0  0  0  0  0  0  0  0
  -26.2063  -14.4754   21.1472 C   0  0  0  0  0  0  0  0  0  0  0  0
  -23.4867  -12.8800   21.9092 C   0  0  0  0  0  0  0  0  0  0  0  0
  -20.3319  -12.9868   23.2064 C   0  0  0  0  0  0  0  0  0  0  0  0
  -20.2779  -27.3874   17.8921 C   0  0  0  0  0  0  0  0  0  0  0  0
  -29.9642  -11.6801   19.1169 C   0  0  0  0  0  0  0  0  0  0  0  0
  -25.8746  -15.1649   23.5494 C   0  0  0  0  0  0  0  0  0  0  0  0
  -23.3761  -15.3994   21.9851 C   0  0  0  0  0  0  0  0  0  0  0  0
  -28.4385  -11.6500   19.0792 C   0  0  0  0  0  0  0  0  0  0  0  0
  -23.1352  -27.8037   15.8089 C   0  0  0  0  0  0  0  0  0  0  0  0
  -27.8849  -13.0355   18.7616 C   0  0  0  0  0  0  0  0  0  0  0  0
  -19.7118  -24.4158   20.7478 C   0  0  0  0  0  0  0  0  0  0  0  0
  -24.2801  -28.0264   16.7986 C   0  0  0  0  0  0  0  0  0  0  0  0
  -18.9764  -24.8212   19.4797 C   0  0  0  0  0  0  0  0  0  0  0  0
  -21.8390  -28.4520   16.2902 C   0  0  0  0  0  0  0  0  0  0  0  0
  -22.5648  -28.2862   18.6396 C   0  0  0  0  0  0  0  0  0  0  0  0
  -28.2813  -14.0489   19.8420 C   0  0  1  0  0  0  0  0  0  0  0  0
  -25.5200  -14.1700   22.4485 C   0  0  1  0  0  0  0  0  0  0  0  0
  -19.2295  -25.3834   21.8482 C   0  0  2  0  0  0  0  0  0  0  0  0
  -23.8790  -27.6029   18.2245 C   0  0  2  0  0  0  0  0  0  0  0  0
  -18.8303  -26.3341   19.6108 C   0  0  1  0  0  0  0  0  0  0  0  0
  -18.4796  -26.5425   21.1092 C   0  0  0  0  0  0  0  0  0  0  0  0
  -23.1647  -25.9429   21.7977 C   0  0  0  0  0  0  0  0  0  0  0  0
  -16.9541  -26.3432   21.2977 C   0  0  0  0  0  0  0  0  0  0  0  0
  -18.8037  -27.9594   21.6094 C   0  0  0  0  0  0  0  0  0  0  0  0
  -20.9398  -26.9910   24.9420 C   0  0  0  0  0  0  0  0  0  0  0  0
  -18.3387  -11.5316   23.6613 C   0  0  0  0  0  0  0  0  0  0  0  0
  -22.7700  -12.9389   18.9439 C   0  0  0  0  0  0  0  0  0  0  0  0
  -20.4178  -12.3553   19.5722 C   0  0  0  0  0  0  0  0  0  0  0  0
  -22.2752  -10.7740   20.0939 C   0  0  0  0  0  0  0  0  0  0  0  0
  -20.4855  -13.4875   26.1193 C   0  0  0  0  0  0  0  0  0  0  0  0
  -23.8757  -21.3431   23.6564 C   0  0  0  0  0  0  0  0  0  1  0  0
  -19.8433  -26.4118   24.0564 C   0  0  0  0  0  0  0  0  0  0  0  0
  -20.3965  -25.7925   22.7447 C   0  0  1  0  0  0  0  0  0  0  0  0
  -22.0571  -12.9122   21.4252 C   0  0  1  0  0  0  0  0  0  0  0  0
  -19.6305  -12.1044   24.2233 C   0  0  2  0  0  0  0  0  0  0  0  0
  -21.8925  -12.2682   20.0196 C   0  0  0  0  0  0  0  0  0  0  0  0
  -20.8321  -23.5848   23.6093 N   0  0  0  0  0  0  0  0  0  0  0  0
  -25.0185  -29.0305   19.8817 N   0  0  0  0  0  0  0  0  0  0  0  0
  -24.9951  -27.8611   19.2198 N   0  0  0  0  0  0  0  0  0  0  0  0
  -24.0828  -14.1215   22.1721 N   0  0  0  0  0  0  0  0  0  0  0  0
  -21.5143  -28.0076   17.6478 N   0  0  0  0  0  0  0  0  0  0  0  0
  -26.1491  -25.8074   18.9722 N   0  0  0  0  0  0  0  0  0  0  0  0
  -27.8229  -26.4738   22.3110 N   0  0  0  0  0  0  0  0  0  0  0  0
  -27.4500  -13.8876   21.0156 N   0  0  0  0  0  0  0  0  0  0  0  0
  -21.2583  -12.2797   22.4694 N   0  0  0  0  0  0  0  0  0  0  0  0
  -20.0527  -26.9911   19.2047 N   0  0  0  0  0  0  0  0  0  0  0  0
  -19.3038  -12.8860   25.4494 N   0  3  0  0  0  0  0  0  0  0  0  0
  -29.1007  -27.4065   20.6509 O   0  0  0  0  0  0  0  0  0  0  0  0
  -25.6482  -15.1900   20.3229 O   0  0  0  0  0  0  0  0  0  0  0  0
  -24.0512  -11.7930   22.0555 O   0  0  0  0  0  0  0  0  0  0  0  0
  -20.0803  -14.1827   23.0762 O   0  0  0  0  0  0  0  0  0  0  0  0
  -19.4393  -27.1957   17.0050 O   0  0  0  0  0  0  0  0  0  0  0  0
  -27.5554  -33.1049   24.0662 O   0  0  0  0  0  0  0  0  0  0  0  0
  -23.2987  -20.1819   23.0147 O   0  0  0  0  0  0  0  0  0  1  0  0
  -23.7973  -37.0126   25.0717 F   0  0  0  0  0  0  0  0  0  0  0  0
  -26.6733  -33.5957   26.6398 F   0  0  0  0  0  0  0  0  0  0  0  0
  1  2  1  0  0  0  0
  1  5  2  0  0  0  0
  2  6  2  0  0  0  0
  3  8  2  0  0  0  0
  3 17  1  0  0  0  0
  4  9  1  0  0  0  0
  4 17  2  0  0  0  0
  5 19  1  0  0  0  0
  6 21  1  0  0  0  0
  7 10  2  0  0  0  0
  7 20  1  0  0  0  0
  8 25  1  0  0  0  0
  9 25  2  0  0  0  0
 10 26  1  0  0  0  0
 11 12  2  0  0  0  0
 11 27  1  0  0  0  0
 12 28  1  0  0  0  0
 13 22  1  0  0  0  0
 13 26  2  0  0  0  0
 14 23  2  0  0  0  0
 14 24  1  0  0  0  0
 15 28  2  0  0  0  0
 15 29  1  0  0  0  0
 16 23  1  0  0  0  0
 16 70  2  0  0  0  0
 17 30  1  0  0  0  0
 18 30  1  0  0  0  0
 18 32  2  0  0  0  0
 18 33  1  0  0  0  0
 19 21  2  0  0  0  0
 19 38  1  0  0  0  0
 20 22  2  0  0  0  0
 20 39  1  0  0  0  0
 21 49  1  0  0  0  0
 22 40  1  0  0  0  0
 23 64  1  0  0  0  0
 24 31  2  0  0  0  0
 24 55  1  0  0  0  0
 25 86  1  0  0  0  0
 26 87  1  0  0  0  0
 27 29  2  0  0  0  0
 27 86  1  0  0  0  0
 28 88  1  0  0  0  0
 29 89  1  0  0  0  0
 30 71  2  0  0  0  0
 31 66  1  0  0  0  0
 31 70  1  0  0  0  0
 32 72  1  0  0  0  0
 32 75  1  0  0  0  0
 33 76  1  0  0  0  0
 33 81  2  0  0  0  0
 34 50  1  0  0  0  0
 34 77  1  0  0  0  0
 34 82  2  0  0  0  0
 35 67  1  0  0  0  0
 35 73  1  0  0  0  0
 35 83  2  0  0  0  0
 36 68  1  0  0  0  0
 36 78  1  0  0  0  0
 36 84  2  0  0  0  0
 37 74  1  0  0  0  0
 37 79  1  0  0  0  0
 37 85  2  0  0  0  0
 38 41  1  0  0  0  0
 39 50  1  0  0  0  0
 40 73  1  0  0  0  0
 41 43  1  0  0  0  0
 42 45  1  0  0  0  0
 42 47  1  0  0  0  0
 43 49  1  0  0  0  0
 44 46  1  0  0  0  0
 44 51  1  0  0  0  0
 45 52  1  0  0  0  0
 46 53  1  0  0  0  0
 47 74  1  0  0  0  0
 48 52  1  0  0  0  0
 48 74  1  0  0  0  0
 49 77  1  0  0  0  0
 50 73  1  0  0  0  0
 51 54  1  0  0  0  0
 51 66  1  0  0  0  0
 52 72  1  0  0  0  0
 53 54  1  0  0  0  0
 53 79  1  0  0  0  0
 54 56  1  0  0  0  0
 54 57  1  0  0  0  0
 58 65  1  0  0  0  0
 59 68  1  0  0  0  0
 60 69  1  0  0  0  0
 61 69  1  0  0  0  0
 62 69  1  0  0  0  0
 63 80  1  0  0  0  0
 64 87  1  0  0  0  0
 65 66  1  0  0  0  0
 67 69  1  0  0  0  0
 67 78  1  0  0  0  0
 68 80  1  0  0  0  0
 71 72  1  0  0  0  0
M  CHG  1  80   1
M  ISO  4  37 100  64 101  79 100  87 101
M  END
> <Batch ID>
0174

> <Smiles>
CCC(c1ncc([101CH2:1][101O:1]c2ccc3c(c2)CN(C(=O)C(NC(=O)C(C)NC)C(C)(C)C)C(C(=O)NC2CCCc4ccccc42)C3)cc1C)C1CCC([100NH:0][100C:0](=O)N2CCCC(n3nc(-c4ccc(Oc5ccc(F)cc5F)cc4)c(C(N)=O)c3N)C2)C1(C)C

> <Shape>
0.252

> <Color>
0.062

> <Negative vol penalty>
0.000

$$$$

  -OEChem-04052322453D

 87 96  0     1  0  0  0  0  0999 V2000
  -28.2974  -38.2376   22.4610 C   0  0  0  0  0  0  0  0  0  0  0  0
  -28.7936  -37.0788   21.8724 C   0  0  0  0  0  0  0  0  0  0  0  0
  -23.3492   -9.9116   22.0474 C   0  0  0  0  0  0  0  0  0  0  0  0
  -24.8442   -8.3404   20.9826 C   0  0  0  0  0  0  0  0  0  0  0  0
  -27.2683  -38.1564   23.3982 C   0  0  0  0  0  0  0  0  0  0  0  0
  -28.2617  -35.8380   22.2216 C   0  0  0  0  0  0  0  0  0  0  0  0
  -26.8602  -29.3840   19.4470 C   0  0  0  0  0  0  0  0  0  0  0  0
  -22.3099   -8.9860   21.9539 C   0  0  0  0  0  0  0  0  0  0  0  0
  -23.8048   -7.4148   20.8892 C   0  0  0  0  0  0  0  0  0  0  0  0
  -27.0884  -28.0315   19.6970 C   0  0  0  0  0  0  0  0  0  0  0  0
  -21.6361   -4.5032   20.6963 C   0  0  0  0  0  0  0  0  0  0  0  0
  -21.9100   -3.1816   21.0484 C   0  0  0  0  0  0  0  0  0  0  0  0
  -25.2588  -28.0196   21.2691 C   0  0  0  0  0  0  0  0  0  0  0  0
  -26.7472  -23.5830   23.1275 C   0  0  0  0  0  0  0  0  0  0  0  0
  -22.5055   -3.8989   23.2773 C   0  0  0  0  0  0  0  0  0  0  0  0
  -24.6164   -9.5888   21.5616 C   0  0  0  0  0  0  0  0  0  0  0  0
  -26.6033  -10.6941   22.7184 C   0  0  0  0  0  0  0  0  0  0  0  0
  -26.7170  -36.9149   23.7518 C   0  0  0  0  0  0  0  0  0  0  0  0
  -25.8349  -30.0682   20.1155 C   0  0  0  0  0  0  0  0  0  0  0  0
  -27.2252  -35.7400   23.1654 C   0  0  0  0  0  0  0  0  0  0  0  0
  -25.0180  -29.3801   21.0239 C   0  0  0  0  0  0  0  0  0  0  0  0
  -27.1280  -22.2552   23.2860 C   0  0  0  0  0  0  0  0  0  0  0  0
  -26.0647  -23.9725   21.9804 C   0  0  0  0  0  0  0  0  0  0  0  0
  -22.5377   -7.7376   21.3749 C   0  0  0  0  0  0  0  0  0  0  0  0
  -26.2895  -27.3498   20.6103 C   0  0  0  0  0  0  0  0  0  0  0  0
  -21.7969   -5.5227   21.6347 C   0  0  0  0  0  0  0  0  0  0  0  0
  -22.3447   -2.8795   22.3389 C   0  0  0  0  0  0  0  0  0  0  0  0
  -22.2316   -5.2205   22.9252 C   0  0  0  0  0  0  0  0  0  0  0  0
  -25.6903  -10.5447   21.6573 C   0  0  0  0  0  0  0  0  0  0  0  0
  -26.8051  -21.3630   22.2763 C   0  0  0  0  0  0  0  0  0  0  0  0
  -25.7896  -23.0035   21.0291 C   0  0  0  0  0  0  0  0  0  0  0  0
  -27.4161  -11.7303   22.3286 C   0  0  0  0  0  0  0  0  0  0  0  0
  -26.7075   -9.9616   23.9465 C   0  0  0  0  0  0  0  0  0  0  0  0
  -25.7183  -32.5323   22.1201 C   0  0  0  0  0  0  0  0  0  0  0  0
  -22.5148  -32.1784   21.7532 C   0  0  0  0  0  0  0  0  0  0  0  0
  -19.8972  -30.1359   20.9640 C   0  0  0  0  0  0  0  0  0  0  0  0
  -28.2744  -16.6672   20.1122 C   0  0  0  0  0  0  0  0  0  0  0  0
  -25.6380  -36.8732   24.8048 C   0  0  0  0  0  0  0  0  0  0  0  0
  -25.5845  -31.5206   19.8148 C   0  0  0  0  0  0  0  0  0  0  0  0
  -23.8912  -30.0639   21.7527 C   0  0  0  0  0  0  0  0  0  0  0  0
  -24.8740  -35.5521   24.8422 C   0  0  0  0  0  0  0  0  0  0  0  0
  -27.8857  -14.0627   17.8731 C   0  0  0  0  0  0  0  0  0  0  0  0
  -25.8422  -34.3741   24.7986 C   0  0  0  0  0  0  0  0  0  0  0  0
  -27.3551  -12.9179   18.7358 C   0  0  0  0  0  0  0  0  0  0  0  0
  -26.1707  -18.9747   21.7145 C   0  0  0  0  0  0  0  0  0  0  0  0
  -28.6107  -19.6369   21.8475 C   0  0  0  0  0  0  0  0  0  0  0  0
  -27.2381  -15.3860   18.2641 C   0  0  0  0  0  0  0  0  0  0  0  0
  -26.5875  -17.5041   21.8077 C   0  0  0  0  0  0  0  0  0  0  0  0
  -28.9668  -18.1577   21.9636 C   0  0  0  0  0  0  0  0  0  0  0  0
  -26.8804  -14.6017   20.5825 C   0  0  0  0  0  0  0  0  0  0  0  0
  -26.6573  -34.3777   23.4997 C   0  0  1  0  0  0  0  0  0  0  0  0
  -27.1956  -19.9016   22.3928 C   0  0  0  0  0  0  0  0  0  0  0  0
  -24.8418  -32.2432   20.9344 C   0  0  1  0  0  0  0  0  0  0  0  0
  -27.5086  -13.2371   20.2335 C   0  0  1  0  0  0  0  0  0  0  0  0
  -25.0579  -23.3649   19.7780 C   0  0  0  0  0  0  0  0  0  0  0  0
  -27.0302  -22.0375   25.7953 C   0  0  0  0  0  0  0  0  0  0  0  0
  -29.2250  -22.5309   24.6575 C   0  0  0  0  0  0  0  0  0  0  0  0
  -17.3938  -30.1197   20.7909 C   0  0  0  0  0  0  0  0  0  0  0  0
  -22.3079  -32.0417   24.7944 C   0  0  0  0  0  0  0  0  0  0  0  0
  -20.0064  -31.0935   24.5255 C   0  0  0  0  0  0  0  0  0  0  0  0
  -20.5144  -33.3870   23.6861 C   0  0  0  0  0  0  0  0  0  0  0  0
  -19.9852  -29.5007   18.0747 C   0  0  0  0  0  0  0  0  0  0  0  0
  -25.6541  -25.3937   21.8044 C   0  0  0  0  0  0  0  0  0  1  0  0
  -27.8593  -21.8315   24.5127 C   0  0  0  0  0  0  0  0  0  0  0  0
  -21.4399  -31.3828   22.4537 C   0  0  1  0  0  0  0  0  0  0  0  0
  -18.7031  -30.3370   20.0484 C   0  0  2  0  0  0  0  0  0  0  0  0
  -21.0895  -31.9636   23.8528 C   0  0  0  0  0  0  0  0  0  0  0  0
  -25.9025  -11.4164   20.6679 N   0  0  0  0  0  0  0  0  0  0  0  0
  -26.1434  -21.7041   21.1479 N   0  0  0  0  0  0  0  0  0  0  0  0
  -26.9581  -12.1236   21.1055 N   0  0  0  0  0  0  0  0  0  0  0  0
  -23.6902  -31.4861   21.4293 N   0  0  0  0  0  0  0  0  0  0  0  0
  -27.4022  -15.6512   19.6933 N   0  0  0  0  0  0  0  0  0  0  0  0
  -27.9590  -17.3209   21.3129 N   0  0  0  0  0  0  0  0  0  0  0  0
  -28.4707  -12.3345   22.9161 N   0  0  0  0  0  0  0  0  0  0  0  0
  -25.7920   -8.9282   24.1878 N   0  0  0  0  0  0  0  0  0  0  0  0
  -25.8592  -33.8780   22.4008 N   0  0  0  0  0  0  0  0  0  0  0  0
  -20.3107  -31.3223   21.5320 N   0  0  0  0  0  0  0  0  0  0  0  0
  -18.7596  -29.3817   18.9060 N   0  3  0  0  0  0  0  0  0  0  0  0
  -27.5761  -10.2267   24.8118 O   0  0  0  0  0  0  0  0  0  0  0  0
  -26.2278  -31.6032   22.7357 O   0  0  0  0  0  0  0  0  0  0  0  0
  -22.3160  -33.3684   21.4964 O   0  0  0  0  0  0  0  0  0  0  0  0
  -20.4093  -29.0358   21.1588 O   0  0  0  0  0  0  0  0  0  0  0  0
  -29.2764  -16.9723   19.4534 O   0  0  0  0  0  0  0  0  0  0  0  0
  -21.5238   -6.8341   21.2838 O   0  0  0  0  0  0  0  0  0  0  0  0
  -26.5120  -26.0210   20.8583 O   0  0  0  0  0  0  0  0  0  1  0  0
  -22.6062   -1.6101   22.6773 F   0  0  0  0  0  0  0  0  0  0  0  0
  -22.3869   -6.1955   23.8313 F   0  0  0  0  0  0  0  0  0  0  0  0
  1  2  1  0  0  0  0
  1  5  2  0  0  0  0
  2  6  2  0  0  0  0
  3  8  2  0  0  0  0
  3 16  1  0  0  0  0
  4  9  1  0  0  0  0
  4 16  2  0  0  0  0
  5 18  1  0  0  0  0
  6 20  1  0  0  0  0
  7 10  2  0  0  0  0
  7 19  1  0  0  0  0
  8 24  1  0  0  0  0
  9 24  2  0  0  0  0
 10 25  1  0  0  0  0
 11 12  2  0  0  0  0
 11 26  1  0  0  0  0
 12 27  1  0  0  0  0
 13 21  1  0  0  0  0
 13 25  2  0  0  0  0
 14 22  2  0  0  0  0
 14 23  1  0  0  0  0
 15 27  2  0  0  0  0
 15 28  1  0  0  0  0
 16 29  1  0  0  0  0
 17 29  1  0  0  0  0
 17 32  2  0  0  0  0
 17 33  1  0  0  0  0
 18 20  2  0  0  0  0
 18 38  1  0  0  0  0
 19 21  2  0  0  0  0
 19 39  1  0  0  0  0
 20 51  1  0  0  0  0
 21 40  1  0  0  0  0
 22 30  1  0  0  0  0
 22 64  1  0  0  0  0
 23 31  2  0  0  0  0
 23 63  1  0  0  0  0
 24 84  1  0  0  0  0
 25 85  1  0  0  0  0
 26 28  2  0  0  0  0
 26 84  1  0  0  0  0
 27 86  1  0  0  0  0
 28 87  1  0  0  0  0
 29 68  2  0  0  0  0
 30 52  1  0  0  0  0
 30 69  2  0  0  0  0
 31 55  1  0  0  0  0
 31 69  1  0  0  0  0
 32 70  1  0  0  0  0
 32 74  1  0  0  0  0
 33 75  1  0  0  0  0
 33 79  2  0  0  0  0
 34 53  1  0  0  0  0
 34 76  1  0  0  0  0
 34 80  2  0  0  0  0
 35 65  1  0  0  0  0
 35 71  1  0  0  0  0
 35 81  2  0  0  0  0
 36 66  1  0  0  0  0
 36 77  1  0  0  0  0
 36 82  2  0  0  0  0
 37 72  1  0  0  0  0
 37 73  1  0  0  0  0
 37 83  2  0  0  0  0
 38 41  1  0  0  0  0
 39 53  1  0  0  0  0
 40 71  1  0  0  0  0
 41 43  1  0  0  0  0
 42 44  1  0  0  0  0
 42 47  1  0  0  0  0
 43 51  1  0  0  0  0
 44 54  1  0  0  0  0
 45 48  1  0  0  0  0
 45 52  1  0  0  0  0
 46 49  1  0  0  0  0
 46 52  1  0  0  0  0
 47 72  1  0  0  0  0
 48 73  1  0  0  0  0
 49 73  1  0  0  0  0
 50 54  1  0  0  0  0
 50 72  1  0  0  0  0
 51 76  1  0  0  0  0
 53 71  1  0  0  0  0
 54 70  1  0  0  0  0
 56 64  1  0  0  0  0
 57 64  1  0  0  0  0
 58 66  1  0  0  0  0
 59 67  1  0  0  0  0
 60 67  1  0  0  0  0
 61 67  1  0  0  0  0
 62 78  1  0  0  0  0
 63 85  1  0  0  0  0
 65 67  1  0  0  0  0
 65 77  1  0  0  0  0
 66 78  1  0  0  0  0
 68 70  1  0  0  0  0
M  CHG  1  78   1
M  ISO  4  37 100  63 101  73 100  85 101
M  END
> <Batch ID>
0174

> <Smiles>
CNC(C)C(=O)NC(C(=O)N1Cc2cc([101O:1][101CH2:1]c3cc(C(C)C)c(C4CC[100N:0]([100C:0](=O)N5CCCC(n6nc(-c7ccc(Oc8ccc(F)cc8F)cc7)c(C(N)=O)c6N)C5)CC4)nc3C)ccc2CC1C(=O)NC1CCCc2ccccc21)C(C)(C)C

> <Shape>
0.235

> <Color>
0.079

> <Negative vol penalty>
0.000

$$$$

  -OEChem-04052322453D

 87 96  0     1  0  0  0  0  0999 V2000
  -17.4703  -26.5305   22.2369 C   0  0  0  0  0  0  0  0  0  0  0  0
  -18.5806  -26.0097   21.5802 C   0  0  0  0  0  0  0  0  0  0  0  0
  -24.1842   -9.0435   20.4077 C   0  0  0  0  0  0  0  0  0  0  0  0
  -22.7825  -10.8760   21.1247 C   0  0  0  0  0  0  0  0  0  0  0  0
  -17.5897  -27.7012   22.9846 C   0  0  0  0  0  0  0  0  0  0  0  0
  -19.8108  -26.6599   21.6699 C   0  0  0  0  0  0  0  0  0  0  0  0
  -25.3511  -24.0538   21.8076 C   0  0  0  0  0  0  0  0  0  0  0  0
  -23.2908   -8.1369   20.9781 C   0  0  0  0  0  0  0  0  0  0  0  0
  -21.8890   -9.9694   21.6951 C   0  0  0  0  0  0  0  0  0  0  0  0
  -26.3133  -23.8428   20.8209 C   0  0  0  0  0  0  0  0  0  0  0  0
  -22.5640   -6.9626   24.0631 C   0  0  0  0  0  0  0  0  0  0  0  0
  -23.0958   -5.9210   24.8232 C   0  0  0  0  0  0  0  0  0  0  0  0
  -27.4458  -25.8608   21.5024 C   0  0  0  0  0  0  0  0  0  0  0  0
  -22.0948   -4.3143   23.3220 C   0  0  0  0  0  0  0  0  0  0  0  0
  -23.9301  -10.4131   20.4811 C   0  0  0  0  0  0  0  0  0  0  0  0
  -24.8333  -11.8503   18.5767 C   0  0  0  0  0  0  0  0  0  0  0  0
  -18.8242  -28.3609   23.0915 C   0  0  0  0  0  0  0  0  0  0  0  0
  -25.4232  -25.1775   22.6433 C   0  0  0  0  0  0  0  0  0  0  0  0
  -19.9466  -27.8413   22.4187 C   0  0  0  0  0  0  0  0  0  0  0  0
  -26.4848  -26.0823   22.5006 C   0  0  0  0  0  0  0  0  0  0  0  0
  -27.8495  -20.0727   17.3263 C   0  0  0  0  0  0  0  0  0  0  0  0
  -28.9739  -20.8291   17.6375 C   0  0  0  0  0  0  0  0  0  0  0  0
  -27.6059  -18.8862   18.0091 C   0  0  0  0  0  0  0  0  0  0  0  0
  -22.1432   -8.5998   21.6218 C   0  0  0  0  0  0  0  0  0  0  0  0
  -27.3592  -24.7479   20.6662 C   0  0  0  0  0  0  0  0  0  0  0  0
  -21.7976   -6.6801   22.9324 C   0  0  0  0  0  0  0  0  0  0  0  0
  -22.8612   -4.5968   24.4527 C   0  0  0  0  0  0  0  0  0  0  0  0
  -21.5630   -5.3560   22.5618 C   0  0  0  0  0  0  0  0  0  0  0  0
  -24.8529  -11.3502   19.8925 C   0  0  0  0  0  0  0  0  0  0  0  0
  -29.8169  -20.3592   18.6317 C   0  0  0  0  0  0  0  0  0  0  0  0
  -28.5102  -18.5031   18.9865 C   0  0  0  0  0  0  0  0  0  0  0  0
  -25.9110  -12.6996   18.5161 C   0  0  0  0  0  0  0  0  0  0  0  0
  -23.9222  -11.5721   17.5052 C   0  0  0  0  0  0  0  0  0  0  0  0
  -23.5585  -27.6944   23.1836 C   0  0  0  0  0  0  0  0  0  0  0  0
  -25.7275  -28.3104   25.5157 C   0  0  0  0  0  0  0  0  0  0  0  0
  -28.9004  -27.8990   26.7032 C   0  0  0  0  0  0  0  0  0  0  0  0
  -29.0572  -16.7406   20.7013 C   0  0  0  0  0  0  0  0  0  0  0  0
  -18.8936  -29.6493   23.8725 C   0  0  0  0  0  0  0  0  0  0  0  0
  -24.3923  -25.3765   23.7204 C   0  0  0  0  0  0  0  0  0  0  0  0
  -26.6188  -27.2937   23.3856 C   0  0  0  0  0  0  0  0  0  0  0  0
  -20.3175  -30.0725   24.2239 C   0  0  0  0  0  0  0  0  0  0  0  0
  -29.7328  -13.4084   21.7585 C   0  0  0  0  0  0  0  0  0  0  0  0
  -21.2259  -29.9547   23.0042 C   0  0  0  0  0  0  0  0  0  0  0  0
  -32.3918  -20.5295   18.7516 C   0  0  0  0  0  0  0  0  0  0  0  0
  -31.8834  -20.6665   20.1526 C   0  0  0  0  0  0  0  0  0  0  0  0
  -28.5218  -12.6171   21.2591 C   0  0  0  0  0  0  0  0  0  0  0  0
  -29.3399  -14.8058   22.2348 C   0  0  0  0  0  0  0  0  0  0  0  0
  -27.3616  -14.8076   20.7666 C   0  0  0  0  0  0  0  0  0  0  0  0
  -21.3037  -28.5043   22.5123 C   0  0  1  0  0  0  0  0  0  0  0  0
  -31.0384  -21.1378   19.0004 C   0  0  0  0  0  0  0  0  0  0  0  0
  -24.2783  -26.8275   24.1776 C   0  0  1  0  0  0  0  0  0  0  0  0
  -27.7172  -13.4170   20.2159 C   0  0  2  0  0  0  0  0  0  0  0  0
  -26.9063  -20.5340   16.2613 C   0  0  0  0  0  0  0  0  0  0  0  0
  -30.5797  -22.0219   16.1247 C   0  0  0  0  0  0  0  0  0  0  0  0
  -30.3885  -28.5533   28.6150 C   0  0  0  0  0  0  0  0  0  0  0  0
  -26.0405  -31.0979   24.3150 C   0  0  0  0  0  0  0  0  0  0  0  0
  -28.1581  -31.3492   25.6268 C   0  0  0  0  0  0  0  0  0  0  0  0
  -25.9866  -31.0387   26.8146 C   0  0  0  0  0  0  0  0  0  0  0  0
  -29.2842  -25.0806   27.5207 C   0  0  0  0  0  0  0  0  0  0  0  0
  -26.4043  -18.0584   17.6907 C   0  0  0  0  0  0  0  0  0  0  0  0
  -29.2979  -23.3531   17.8431 C   0  0  0  0  0  0  0  0  0  0  0  0
  -28.1623  -23.3628   18.8621 C   0  0  0  0  0  0  0  0  0  1  0  0
  -29.2656  -22.1289   16.9077 C   0  0  2  0  0  0  0  0  0  0  0  0
  -27.0227  -29.0818   25.5943 C   0  0  1  0  0  0  0  0  0  0  0  0
  -29.4199  -27.5121   28.0761 C   0  0  2  0  0  0  0  0  0  0  0  0
  -26.7986  -30.6202   25.5696 C   0  0  0  0  0  0  0  0  0  0  0  0
  -25.8632  -11.8408   20.6156 N   0  0  0  0  0  0  0  0  0  0  0  0
  -29.6133  -19.2116   19.3167 N   0  0  0  0  0  0  0  0  0  0  0  0
  -26.4884  -12.6579   19.7510 N   0  0  0  0  0  0  0  0  0  0  0  0
  -25.5824  -27.4479   24.4198 N   0  0  0  0  0  0  0  0  0  0  0  0
  -28.5845  -15.5056   21.1934 N   0  0  0  0  0  0  0  0  0  0  0  0
  -26.4117  -13.4704   17.5274 N   0  0  0  0  0  0  0  0  0  0  0  0
  -22.8705  -10.6755   17.7381 N   0  0  0  0  0  0  0  0  0  0  0  0
  -28.2738  -17.2962   19.6903 N   0  0  0  0  0  0  0  0  0  0  0  0
  -22.1881  -27.7308   23.3573 N   0  0  0  0  0  0  0  0  0  0  0  0
  -27.7145  -28.5979   26.7841 N   0  0  0  0  0  0  0  0  0  0  0  0
  -25.2093  -18.4187   18.5012 N   0  3  0  0  0  0  0  0  0  0  0  0
  -30.1263  -26.2014   28.0122 N   0  3  0  0  0  0  0  0  0  0  0  0
  -24.0470  -12.0904   16.3696 O   0  0  0  0  0  0  0  0  0  0  0  0
  -24.1992  -28.2876   22.3237 O   0  0  0  0  0  0  0  0  0  0  0  0
  -24.8789  -28.4618   26.3980 O   0  0  0  0  0  0  0  0  0  0  0  0
  -29.4898  -27.6134   25.6632 O   0  0  0  0  0  0  0  0  0  0  0  0
  -30.0962  -17.2532   21.1251 O   0  0  0  0  0  0  0  0  0  0  0  0
  -21.2710   -7.7153   22.1782 O   0  0  0  0  0  0  0  0  0  0  0  0
  -28.2993  -24.5448   19.7035 O   0  0  0  0  0  0  0  0  0  1  0  0
  -23.3731   -3.5967   25.1819 F   0  0  0  0  0  0  0  0  0  0  0  0
  -20.8284   -5.0784   21.4759 F   0  0  0  0  0  0  0  0  0  0  0  0
  1  2  1  0  0  0  0
  1  5  2  0  0  0  0
  2  6  2  0  0  0  0
  3  8  2  0  0  0  0
  3 15  1  0  0  0  0
  4  9  1  0  0  0  0
  4 15  2  0  0  0  0
  5 17  1  0  0  0  0
  6 19  1  0  0  0  0
  7 10  2  0  0  0  0
  7 18  1  0  0  0  0
  8 24  1  0  0  0  0
  9 24  2  0  0  0  0
 10 25  1  0  0  0  0
 11 12  2  0  0  0  0
 11 26  1  0  0  0  0
 12 27  1  0  0  0  0
 13 20  1  0  0  0  0
 13 25  2  0  0  0  0
 14 27  2  0  0  0  0
 14 28  1  0  0  0  0
 15 29  1  0  0  0  0
 16 29  1  0  0  0  0
 16 32  2  0  0  0  0
 16 33  1  0  0  0  0
 17 19  2  0  0  0  0
 17 38  1  0  0  0  0
 18 20  2  0  0  0  0
 18 39  1  0  0  0  0
 19 49  1  0  0  0  0
 20 40  1  0  0  0  0
 21 22  2  0  0  0  0
 21 23  1  0  0  0  0
 21 53  1  0  0  0  0
 22 30  1  0  0  0  0
 22 63  1  0  0  0  0
 23 31  2  0  0  0  0
 23 60  1  0  0  0  0
 24 84  1  0  0  0  0
 25 85  1  0  0  0  0
 26 28  2  0  0  0  0
 26 84  1  0  0  0  0
 27 86  1  0  0  0  0
 28 87  1  0  0  0  0
 29 67  2  0  0  0  0
 30 50  1  0  0  0  0
 30 68  2  0  0  0  0
 31 68  1  0  0  0  0
 31 74  1  0  0  0  0
 32 69  1  0  0  0  0
 32 72  1  0  0  0  0
 33 73  1  0  0  0  0
 33 79  2  0  0  0  0
 34 51  1  0  0  0  0
 34 75  1  0  0  0  0
 34 80  2  0  0  0  0
 35 64  1  0  0  0  0
 35 70  1  0  0  0  0
 35 81  2  0  0  0  0
 36 65  1  0  0  0  0
 36 76  1  0  0  0  0
 36 82  2  0  0  0  0
 37 71  1  0  0  0  0
 37 74  1  0  0  0  0
 37 83  2  0  0  0  0
 38 41  1  0  0  0  0
 39 51  1  0  0  0  0
 40 70  1  0  0  0  0
 41 43  1  0  0  0  0
 42 46  1  0  0  0  0
 42 47  1  0  0  0  0
 43 49  1  0  0  0  0
 44 45  1  0  0  0  0
 44 50  1  0  0  0  0
 45 50  1  0  0  0  0
 46 52  1  0  0  0  0
 47 71  1  0  0  0  0
 48 52  1  0  0  0  0
 48 71  1  0  0  0  0
 49 75  1  0  0  0  0
 51 70  1  0  0  0  0
 52 69  1  0  0  0  0
 54 63  1  0  0  0  0
 55 65  1  0  0  0  0
 56 66  1  0  0  0  0
 57 66  1  0  0  0  0
 58 66  1  0  0  0  0
 59 78  1  0  0  0  0
 60 77  1  0  0  0  0
 61 62  1  0  0  0  0
 61 63  1  0  0  0  0
 62 85  1  0  0  0  0
 64 66  1  0  0  0  0
 64 76  1  0  0  0  0
 65 78  1  0  0  0  0
 67 69  1  0  0  0  0
M  CHG  2  77   1  78   1
M  ISO  4  37 100  62 101  74 100  85 101
M  END
> <Batch ID>
0174

> <Smiles>
CNC(C)C(=O)NC(C(=O)N1Cc2cc([101O:1][101CH2:1]CC(C)c3c(C4CC4)nc([100NH:0][100C:0](=O)N4CCCC(n5nc(-c6ccc(Oc7ccc(F)cc7F)cc6)c(C(N)=O)c5N)C4)c(CN)c3C)ccc2CC1C(=O)NC1CCCc2ccccc21)C(C)(C)C

> <Shape>
0.264

> <Color>
0.089

> <Negative vol penalty>
0.000

$$$$

  -OEChem-04052322453D

 88 97  0     1  0  0  0  0  0999 V2000
  -27.3206  -35.8572   23.3321 C   0  0  0  0  0  0  0  0  0  0  0  0
  -27.6461  -34.5167   23.1517 C   0  0  0  0  0  0  0  0  0  0  0  0
  -26.5616  -12.0823   21.5407 C   0  0  0  0  0  0  0  0  0  0  0  0
  -25.5887  -13.5867   19.9198 C   0  0  0  0  0  0  0  0  0  0  0  0
  -26.0209  -36.2161   23.6867 C   0  0  0  0  0  0  0  0  0  0  0  0
  -26.6723  -33.5342   23.3270 C   0  0  0  0  0  0  0  0  0  0  0  0
  -26.7435  -30.0508   19.6520 C   0  0  0  0  0  0  0  0  0  0  0  0
  -25.3267  -11.4530   21.6978 C   0  0  0  0  0  0  0  0  0  0  0  0
  -24.3538  -12.9573   20.0768 C   0  0  0  0  0  0  0  0  0  0  0  0
  -27.7335  -29.0717   19.7218 C   0  0  0  0  0  0  0  0  0  0  0  0
  -23.4625   -9.1746   20.0343 C   0  0  0  0  0  0  0  0  0  0  0  0
  -23.4432   -7.7801   20.0510 C   0  0  0  0  0  0  0  0  0  0  0  0
  -29.4783  -21.9259   17.2029 C   0  0  0  0  0  0  0  0  0  0  0  0
  -26.1306  -27.5255   20.6487 C   0  0  0  0  0  0  0  0  0  0  0  0
  -22.4959   -7.8198   22.2732 C   0  0  0  0  0  0  0  0  0  0  0  0
  -28.4939  -20.1245   16.0019 C   0  0  0  0  0  0  0  0  0  0  0  0
  -26.6926  -13.1492   20.6517 C   0  0  0  0  0  0  0  0  0  0  0  0
  -29.1727  -13.2137   20.0579 C   0  0  0  0  0  0  0  0  0  0  0  0
  -25.0282  -35.2382   23.8570 C   0  0  0  0  0  0  0  0  0  0  0  0
  -25.4399  -29.7775   20.0908 C   0  0  0  0  0  0  0  0  0  0  0  0
  -25.3584  -33.8803   23.6856 C   0  0  0  0  0  0  0  0  0  0  0  0
  -29.4244  -22.6893   16.0421 C   0  0  0  0  0  0  0  0  0  0  0  0
  -25.1252  -28.5020   20.5809 C   0  0  0  0  0  0  0  0  0  0  0  0
  -29.0063  -20.6181   17.1908 C   0  0  0  0  0  0  0  0  0  0  0  0
  -24.2229  -11.8904   20.9658 C   0  0  0  0  0  0  0  0  0  0  0  0
  -27.4279  -27.8097   20.2229 C   0  0  0  0  0  0  0  0  0  0  0  0
  -22.9987   -9.8919   21.1371 C   0  0  0  0  0  0  0  0  0  0  0  0
  -22.9599   -7.1026   21.1704 C   0  0  0  0  0  0  0  0  0  0  0  0
  -22.5153   -9.2144   22.2565 C   0  0  0  0  0  0  0  0  0  0  0  0
  -27.9678  -13.8001   20.4894 C   0  0  0  0  0  0  0  0  0  0  0  0
  -28.8935  -22.1029   14.9045 C   0  0  0  0  0  0  0  0  0  0  0  0
  -30.0808  -14.2440   20.0734 C   0  0  0  0  0  0  0  0  0  0  0  0
  -29.4465  -11.8589   19.6771 C   0  0  0  0  0  0  0  0  0  0  0  0
  -23.5469  -30.9443   22.3621 C   0  0  0  0  0  0  0  0  0  0  0  0
  -21.3537  -28.9808   20.9994 C   0  0  0  0  0  0  0  0  0  0  0  0
  -21.2901  -25.6316   19.6591 C   0  0  0  0  0  0  0  0  0  0  0  0
  -29.5319  -20.1764   19.6147 C   0  0  0  0  0  0  0  0  0  0  0  0
  -23.6489  -35.6711   24.2868 C   0  0  0  0  0  0  0  0  0  0  0  0
  -24.3769  -30.8362   19.9839 C   0  0  0  0  0  0  0  0  0  0  0  0
  -23.7361  -28.1517   21.0460 C   0  0  0  0  0  0  0  0  0  0  0  0
  -22.5833  -34.5964   24.0871 C   0  0  0  0  0  0  0  0  0  0  0  0
  -31.0173  -18.3770   22.3041 C   0  0  0  0  0  0  0  0  0  0  0  0
  -23.0782  -33.2507   24.6077 C   0  0  0  0  0  0  0  0  0  0  0  0
  -30.5184  -16.9445   22.1011 C   0  0  0  0  0  0  0  0  0  0  0  0
  -29.9489  -19.4066   21.9403 C   0  0  0  0  0  0  0  0  0  0  0  0
  -28.8681  -17.8182   20.3981 C   0  0  0  0  0  0  0  0  0  0  0  0
  -28.1479  -25.2519   17.2054 C   0  0  0  0  0  0  0  0  0  0  0  0
  -30.5127  -24.6539   17.3991 C   0  0  0  0  0  0  0  0  0  0  0  0
  -24.3236  -32.7872   23.8424 C   0  0  1  0  0  0  0  0  0  0  0  0
  -23.2081  -30.6077   20.9374 C   0  0  1  0  0  0  0  0  0  0  0  0
  -28.7712  -25.1417   15.8146 C   0  0  2  0  0  0  0  0  0  0  0  0
  -29.9315  -16.7468   20.6897 C   0  0  2  0  0  0  0  0  0  0  0  0
  -29.9483  -24.1434   16.0495 C   0  0  2  0  0  0  0  0  0  0  0  0
  -28.8093  -22.8747   13.6285 C   0  0  0  0  0  0  0  0  0  0  0  0
  -29.1832  -26.5222   15.2883 C   0  0  0  0  0  0  0  0  0  0  0  0
  -32.1825  -23.2918   15.2909 C   0  0  0  0  0  0  0  0  0  0  0  0
  -19.8164  -24.6029   17.9077 C   0  0  0  0  0  0  0  0  0  0  0  0
  -19.6487  -28.0931   23.3691 C   0  0  0  0  0  0  0  0  0  0  0  0
  -19.2392  -25.9310   22.1751 C   0  0  0  0  0  0  0  0  0  0  0  0
  -18.4635  -28.0768   21.1669 C   0  0  0  0  0  0  0  0  0  0  0  0
  -23.6150  -24.7711   18.0425 C   0  0  0  0  0  0  0  0  0  0  0  0
  -31.0633  -24.2301   14.9871 C   0  0  0  0  0  0  0  0  0  0  0  0
  -29.0584  -24.6873   19.4855 C   0  0  0  0  0  0  0  0  0  0  0  0
  -27.9709  -25.4950   20.1661 C   0  0  0  0  0  0  0  0  0  1  0  0
  -20.9348  -27.5442   21.1987 C   0  0  1  0  0  0  0  0  0  0  0  0
  -21.1666  -25.2399   18.1977 C   0  0  2  0  0  0  0  0  0  0  0  0
  -19.5981  -27.4199   21.9830 C   0  0  0  0  0  0  0  0  0  0  0  0
  -28.4251  -20.8357   14.8543 N   0  0  0  0  0  0  0  0  0  0  0  0
  -28.0955  -15.1019   20.7595 N   0  0  0  0  0  0  0  0  0  0  0  0
  -29.3915  -15.3421   20.4971 N   0  0  0  0  0  0  0  0  0  0  0  0
  -22.7329  -29.2227   20.9274 N   0  0  0  0  0  0  0  0  0  0  0  0
  -29.4423  -19.1595   20.5886 N   0  0  0  0  0  0  0  0  0  0  0  0
  -31.3937  -14.3088   19.7660 N   0  0  0  0  0  0  0  0  0  0  0  0
  -28.3992  -10.9284   19.7188 N   0  0  0  0  0  0  0  0  0  0  0  0
  -29.0479  -19.8154   18.3577 N   0  0  0  0  0  0  0  0  0  0  0  0
  -23.9524  -32.2519   22.5500 N   0  0  0  0  0  0  0  0  0  0  0  0
  -20.9073  -26.9392   19.8714 N   0  0  0  0  0  0  0  0  0  0  0  0
  -29.3353  -25.2702   18.1371 N   0  3  2  0  0  0  0  0  0  0  0  0
  -22.2339  -24.2668   17.8303 N   0  3  0  0  0  0  0  0  0  0  0  0
  -30.5900  -11.4808   19.3264 O   0  0  0  0  0  0  0  0  0  0  0  0
  -23.4463  -30.0820   23.2269 O   0  0  0  0  0  0  0  0  0  0  0  0
  -20.4888  -29.8552   20.9039 O   0  0  0  0  0  0  0  0  0  0  0  0
  -21.6831  -24.8543   20.5262 O   0  0  0  0  0  0  0  0  0  0  0  0
  -30.0283  -21.2768   19.8692 O   0  0  0  0  0  0  0  0  0  0  0  0
  -23.0178  -11.2764   21.1187 O   0  0  0  0  0  0  0  0  0  0  0  0
  -28.3925  -26.8524   20.2928 O   0  0  0  0  0  0  0  0  0  1  0  0
  -22.9399   -5.7634   21.1857 F   0  0  0  0  0  0  0  0  0  0  0  0
  -22.0673   -9.8980   23.3185 F   0  0  0  0  0  0  0  0  0  0  0  0
  1  2  1  0  0  0  0
  1  5  2  0  0  0  0
  2  6  2  0  0  0  0
  3  8  2  0  0  0  0
  3 17  1  0  0  0  0
  4  9  1  0  0  0  0
  4 17  2  0  0  0  0
  5 19  1  0  0  0  0
  6 21  1  0  0  0  0
  7 10  2  0  0  0  0
  7 20  1  0  0  0  0
  8 25  1  0  0  0  0
  9 25  2  0  0  0  0
 10 26  1  0  0  0  0
 11 12  2  0  0  0  0
 11 27  1  0  0  0  0
 12 28  1  0  0  0  0
 13 22  1  0  0  0  0
 13 24  2  0  0  0  0
 14 23  1  0  0  0  0
 14 26  2  0  0  0  0
 15 28  2  0  0  0  0
 15 29  1  0  0  0  0
 16 24  1  0  0  0  0
 16 68  2  0  0  0  0
 17 30  1  0  0  0  0
 18 30  1  0  0  0  0
 18 32  2  0  0  0  0
 18 33  1  0  0  0  0
 19 21  2  0  0  0  0
 19 38  1  0  0  0  0
 20 23  2  0  0  0  0
 20 39  1  0  0  0  0
 21 49  1  0  0  0  0
 22 31  2  0  0  0  0
 22 53  1  0  0  0  0
 23 40  1  0  0  0  0
 24 75  1  0  0  0  0
 25 85  1  0  0  0  0
 26 86  1  0  0  0  0
 27 29  2  0  0  0  0
 27 85  1  0  0  0  0
 28 87  1  0  0  0  0
 29 88  1  0  0  0  0
 30 69  2  0  0  0  0
 31 54  1  0  0  0  0
 31 68  1  0  0  0  0
 32 70  1  0  0  0  0
 32 73  1  0  0  0  0
 33 74  1  0  0  0  0
 33 80  2  0  0  0  0
 34 50  1  0  0  0  0
 34 76  1  0  0  0  0
 34 81  2  0  0  0  0
 35 65  1  0  0  0  0
 35 71  1  0  0  0  0
 35 82  2  0  0  0  0
 36 66  1  0  0  0  0
 36 77  1  0  0  0  0
 36 83  2  0  0  0  0
 37 72  1  0  0  0  0
 37 75  1  0  0  0  0
 37 84  2  0  0  0  0
 38 41  1  0  0  0  0
 39 50  1  0  0  0  0
 40 71  1  0  0  0  0
 41 43  1  0  0  0  0
 42 44  1  0  0  0  0
 42 45  1  0  0  0  0
 43 49  1  0  0  0  0
 44 52  1  0  0  0  0
 45 72  1  0  0  0  0
 46 52  1  0  0  0  0
 46 72  1  0  0  0  0
 47 51  1  0  0  0  0
 47 78  1  0  0  0  0
 48 53  1  0  0  0  0
 48 78  1  0  0  0  0
 49 76  1  0  0  0  0
 50 71  1  0  0  0  0
 51 53  1  0  0  0  0
 51 55  1  0  0  0  0
 52 70  1  0  0  0  0
 53 62  1  0  0  0  0
 56 62  1  0  0  0  0
 57 66  1  0  0  0  0
 58 67  1  0  0  0  0
 59 67  1  0  0  0  0
 60 67  1  0  0  0  0
 61 79  1  0  0  0  0
 63 64  1  0  0  0  0
 63 78  1  0  0  0  0
 64 86  1  0  0  0  0
 65 67  1  0  0  0  0
 65 77  1  0  0  0  0
 66 79  1  0  0  0  0
 69 70  1  0  0  0  0
M  CHG  2  78   1  79   1
M  ISO  4  37 100  64 101  75 100  86 101
M  END
> <Batch ID>
0174

> <Smiles>
CCC1(c2cc([100NH:0][100C:0](=O)N3CCCC(n4nc(-c5ccc(Oc6ccc(F)cc6F)cc5)c(C(N)=O)c4N)C3)cnc2C)CN(C[101CH2:1][101O:1]c2ccc3c(c2)CN(C(=O)C(NC(=O)C(C)NC)C(C)(C)C)C(C(=O)NC2CCCc4ccccc42)C3)CC1C

> <Shape>
0.347

> <Color>
0.087

> <Negative vol penalty>
0.000

$$$$

  -OEChem-04052322453D

 82 91  0     1  0  0  0  0  0999 V2000
  -20.3161  -24.6517   18.5323 C   0  0  0  0  0  0  0  0  0  0  0  0
  -21.3365  -24.0720   19.2794 C   0  0  0  0  0  0  0  0  0  0  0  0
  -23.2849   -9.7965   19.9064 C   0  0  0  0  0  0  0  0  0  0  0  0
  -23.7118   -9.9369   22.2802 C   0  0  0  0  0  0  0  0  0  0  0  0
  -20.4231  -24.7206   17.1438 C   0  0  0  0  0  0  0  0  0  0  0  0
  -22.4640  -23.5599   18.6384 C   0  0  0  0  0  0  0  0  0  0  0  0
  -29.5076  -22.6705   19.5938 C   0  0  0  0  0  0  0  0  0  0  0  0
  -22.5504   -8.6279   20.1075 C   0  0  0  0  0  0  0  0  0  0  0  0
  -22.9772   -8.7683   22.4814 C   0  0  0  0  0  0  0  0  0  0  0  0
  -30.4848  -21.6775   19.5411 C   0  0  0  0  0  0  0  0  0  0  0  0
  -19.4533   -7.7844   21.1703 C   0  0  0  0  0  0  0  0  0  0  0  0
  -18.2305   -7.6656   20.5100 C   0  0  0  0  0  0  0  0  0  0  0  0
  -30.5966  -21.9231   17.1440 C   0  0  0  0  0  0  0  0  0  0  0  0
  -19.0336   -5.6877   19.3786 C   0  0  0  0  0  0  0  0  0  0  0  0
  -23.8657  -10.4510   20.9927 C   0  0  0  0  0  0  0  0  0  0  0  0
  -24.1402  -12.9794   20.7947 C   0  0  0  0  0  0  0  0  0  0  0  0
  -21.5568  -24.2178   16.4863 C   0  0  0  0  0  0  0  0  0  0  0  0
  -29.0590  -23.2907   18.4189 C   0  0  0  0  0  0  0  0  0  0  0  0
  -22.5856  -23.6210   17.2398 C   0  0  0  0  0  0  0  0  0  0  0  0
  -29.6155  -22.9256   17.1847 C   0  0  0  0  0  0  0  0  0  0  0  0
  -22.3965   -8.1138   21.3950 C   0  0  0  0  0  0  0  0  0  0  0  0
  -31.0273  -21.3016   18.3158 C   0  0  0  0  0  0  0  0  0  0  0  0
  -20.4664   -6.8549   20.9348 C   0  0  0  0  0  0  0  0  0  0  0  0
  -18.0206   -6.6173   19.6141 C   0  0  0  0  0  0  0  0  0  0  0  0
  -20.2565   -5.8065   20.0389 C   0  0  0  0  0  0  0  0  0  0  0  0
  -24.6251  -11.6578   20.7855 C   0  0  0  0  0  0  0  0  0  0  0  0
  -25.2483  -13.7534   20.5506 C   0  0  0  0  0  0  0  0  0  0  0  0
  -22.8074  -13.4641   21.0053 C   0  0  0  0  0  0  0  0  0  0  0  0
  -26.2646  -23.4986   16.9184 C   0  0  0  0  0  0  0  0  0  0  0  0
  -27.8898  -25.5462   14.9978 C   0  0  0  0  0  0  0  0  0  0  0  0
  -30.8930  -26.5857   13.7541 C   0  0  0  0  0  0  0  0  0  0  0  0
  -29.7326  -14.7533   17.5621 C   0  0  0  0  0  0  0  0  0  0  0  0
  -21.6061  -24.2723   14.9798 C   0  0  0  0  0  0  0  0  0  0  0  0
  -28.0235  -24.3790   18.4954 C   0  0  0  0  0  0  0  0  0  0  0  0
  -29.1828  -23.5749   15.8965 C   0  0  0  0  0  0  0  0  0  0  0  0
  -23.0027  -24.0438   14.4075 C   0  0  0  0  0  0  0  0  0  0  0  0
  -30.1486  -12.5912   20.4933 C   0  0  0  0  0  0  0  0  0  0  0  0
  -23.6642  -22.8434   15.0770 C   0  0  0  0  0  0  0  0  0  0  0  0
  -34.6565  -17.9716   16.2594 C   0  0  0  0  0  0  0  0  0  0  0  0
  -34.6857  -16.8031   15.3141 C   0  0  0  0  0  0  0  0  0  0  0  0
  -28.6999  -12.2180   20.7896 C   0  0  0  0  0  0  0  0  0  0  0  0
  -31.9556  -14.6367   15.0474 C   0  0  0  0  0  0  0  0  0  0  0  0
  -30.4122  -12.7556   18.9961 C   0  0  0  0  0  0  0  0  0  0  0  0
  -31.6614  -13.6513   16.1826 C   0  0  0  0  0  0  0  0  0  0  0  0
  -28.0255  -13.3232   18.6291 C   0  0  0  0  0  0  0  0  0  0  0  0
  -23.8355  -23.0767   16.5829 C   0  0  1  0  0  0  0  0  0  0  0  0
  -27.2717  -24.5817   17.1835 C   0  0  1  0  0  0  0  0  0  0  0  0
  -33.3692  -17.3805   15.7550 C   0  0  0  0  0  0  0  0  0  0  0  0
  -27.7410  -13.2230   20.1343 C   0  0  1  0  0  0  0  0  0  0  0  0
  -31.4377  -15.7664   15.9506 C   0  0  2  0  0  0  0  0  0  0  0  0
  -31.8993  -28.2564   12.1749 C   0  0  0  0  0  0  0  0  0  0  0  0
  -32.5118  -16.9156   19.7928 C   0  0  0  0  0  0  0  0  0  0  0  0
  -26.9666  -23.8594   12.6288 C   0  0  0  0  0  0  0  0  0  0  0  0
  -28.7281  -24.9714   11.2400 C   0  0  0  0  0  0  0  0  0  0  0  0
  -26.8915  -26.3292   12.2431 C   0  0  0  0  0  0  0  0  0  0  0  0
  -32.4630  -27.8577   15.9165 C   0  0  0  0  0  0  0  0  0  0  0  0
  -31.9340  -19.3180   19.2642 C   0  0  0  0  0  0  0  0  0  1  0  0
  -28.7100  -25.4072   13.7381 C   0  0  1  0  0  0  0  0  0  0  0  0
  -31.5007  -27.9697   13.6143 C   0  0  2  0  0  0  0  0  0  0  0  0
  -32.4653  -16.5961   16.6949 C   0  0  2  0  0  0  0  0  0  0  0  0
  -32.5400  -18.0183   18.7469 C   0  0  2  0  0  0  0  0  0  0  0  0
  -27.8310  -25.1280   12.4864 C   0  0  0  0  0  0  0  0  0  0  0  0
  -25.9388  -11.5922   20.5536 N   0  0  0  0  0  0  0  0  0  0  0  0
  -26.2889  -12.8822   20.4148 N   0  0  0  0  0  0  0  0  0  0  0  0
  -28.1631  -24.6293   16.0227 N   0  0  0  0  0  0  0  0  0  0  0  0
  -29.4322  -13.6449   18.3613 N   0  0  0  0  0  0  0  0  0  0  0  0
  -30.8791  -14.7122   16.8002 N   0  0  0  0  0  0  0  0  0  0  0  0
  -25.4243  -15.0873   20.4408 N   0  0  0  0  0  0  0  0  0  0  0  0
  -21.7875  -12.5326   21.2430 N   0  0  0  0  0  0  0  0  0  0  0  0
  -24.9614  -23.9506   16.8340 N   0  0  0  0  0  0  0  0  0  0  0  0
  -29.5191  -26.6175   13.6422 N   0  0  0  0  0  0  0  0  0  0  0  0
  -32.7139  -28.0917   14.4711 N   0  3  0  0  0  0  0  0  0  0  0  0
  -31.7502  -17.5640   17.5733 N   0  3  0  0  0  0  0  0  0  0  0  0
  -22.5262  -14.6860   20.9670 O   0  0  0  0  0  0  0  0  0  0  0  0
  -26.6420  -22.3390   16.7977 O   0  0  0  0  0  0  0  0  0  0  0  0
  -27.0429  -26.4399   15.0725 O   0  0  0  0  0  0  0  0  0  0  0  0
  -31.5698  -25.5767   13.9399 O   0  0  0  0  0  0  0  0  0  0  0  0
  -28.9860  -15.7393   17.5043 O   0  0  0  0  0  0  0  0  0  0  0  0
  -21.6796   -6.9737   21.5917 O   0  0  0  0  0  0  0  0  0  0  0  0
  -31.9872  -20.3255   18.2611 O   0  0  0  0  0  0  0  0  0  1  0  0
  -16.8456   -6.5025   18.9812 F   0  0  0  0  0  0  0  0  0  0  0  0
  -21.2255   -4.9098   19.8094 F   0  0  0  0  0  0  0  0  0  0  0  0
  1  2  1  0  0  0  0
  1  5  2  0  0  0  0
  2  6  2  0  0  0  0
  3  8  2  0  0  0  0
  3 15  1  0  0  0  0
  4  9  1  0  0  0  0
  4 15  2  0  0  0  0
  5 17  1  0  0  0  0
  6 19  1  0  0  0  0
  7 10  2  0  0  0  0
  7 18  1  0  0  0  0
  8 21  1  0  0  0  0
  9 21  2  0  0  0  0
 10 22  1  0  0  0  0
 11 12  2  0  0  0  0
 11 23  1  0  0  0  0
 12 24  1  0  0  0  0
 13 20  1  0  0  0  0
 13 22  2  0  0  0  0
 14 24  2  0  0  0  0
 14 25  1  0  0  0  0
 15 26  1  0  0  0  0
 16 26  1  0  0  0  0
 16 27  2  0  0  0  0
 16 28  1  0  0  0  0
 17 19  2  0  0  0  0
 17 33  1  0  0  0  0
 18 20  2  0  0  0  0
 18 34  1  0  0  0  0
 19 46  1  0  0  0  0
 20 35  1  0  0  0  0
 21 79  1  0  0  0  0
 22 80  1  0  0  0  0
 23 25  2  0  0  0  0
 23 79  1  0  0  0  0
 24 81  1  0  0  0  0
 25 82  1  0  0  0  0
 26 63  2  0  0  0  0
 27 64  1  0  0  0  0
 27 68  1  0  0  0  0
 28 69  1  0  0  0  0
 28 74  2  0  0  0  0
 29 47  1  0  0  0  0
 29 70  1  0  0  0  0
 29 75  2  0  0  0  0
 30 58  1  0  0  0  0
 30 65  1  0  0  0  0
 30 76  2  0  0  0  0
 31 59  1  0  0  0  0
 31 71  1  0  0  0  0
 31 77  2  0  0  0  0
 32 66  1  0  0  0  0
 32 67  1  0  0  0  0
 32 78  2  0  0  0  0
 33 36  1  0  0  0  0
 34 47  1  0  0  0  0
 35 65  1  0  0  0  0
 36 38  1  0  0  0  0
 37 41  1  0  0  0  0
 37 43  1  0  0  0  0
 38 46  1  0  0  0  0
 39 40  1  0  0  0  0
 39 48  1  0  0  0  0
 40 48  1  0  0  0  0
 41 49  1  0  0  0  0
 42 44  1  0  0  0  0
 42 50  1  0  0  0  0
 43 66  1  0  0  0  0
 44 67  1  0  0  0  0
 45 49  1  0  0  0  0
 45 66  1  0  0  0  0
 46 70  1  0  0  0  0
 47 65  1  0  0  0  0
 48 60  1  0  0  0  0
 49 64  1  0  0  0  0
 50 60  1  0  0  0  0
 50 67  1  0  0  0  0
 51 59  1  0  0  0  0
 52 61  1  0  0  0  0
 53 62  1  0  0  0  0
 54 62  1  0  0  0  0
 55 62  1  0  0  0  0
 56 72  1  0  0  0  0
 57 61  1  0  0  0  0
 57 80  1  0  0  0  0
 58 62  1  0  0  0  0
 58 71  1  0  0  0  0
 59 72  1  0  0  0  0
 60 73  1  0  0  0  0
 61 73  1  0  0  0  0
 63 64  1  0  0  0  0
M  CHG  2  72   1  73   1
M  ISO  4  32 100  57 101  67 100  80 101
M  END
> <Batch ID>
0174

> <Smiles>
CNC(C)C(=O)NC(C(=O)N1Cc2cc([101O:1][101CH2:1]C(C)NC(C3CC3)C3CC[100N:0]3[100C:0](=O)N3CCCC(n4nc(-c5ccc(Oc6ccc(F)cc6F)cc5)c(C(N)=O)c4N)C3)ccc2CC1C(=O)NC1CCCc2ccccc21)C(C)(C)C

> <Shape>
0.148

> <Color>
0.177

> <Negative vol penalty>
0.000

$$$$

  -OEChem-04052322453D

 82 91  0     1  0  0  0  0  0999 V2000
  -27.3679  -35.4637   23.6808 C   0  0  0  0  0  0  0  0  0  0  0  0
  -27.6877  -34.1449   23.3744 C   0  0  0  0  0  0  0  0  0  0  0  0
  -26.6134  -12.0896   20.5933 C   0  0  0  0  0  0  0  0  0  0  0  0
  -25.1575  -13.7759   19.6587 C   0  0  0  0  0  0  0  0  0  0  0  0
  -27.3965  -22.8231   18.2061 C   0  0  0  0  0  0  0  0  0  0  0  0
  -26.1063  -35.7744   24.1865 C   0  0  0  0  0  0  0  0  0  0  0  0
  -26.7463  -33.1358   23.5744 C   0  0  0  0  0  0  0  0  0  0  0  0
  -26.4875  -29.9191   19.6718 C   0  0  0  0  0  0  0  0  0  0  0  0
  -25.5145  -11.4713   21.1898 C   0  0  0  0  0  0  0  0  0  0  0  0
  -24.0585  -13.1576   20.2552 C   0  0  0  0  0  0  0  0  0  0  0  0
  -27.4897  -28.9548   19.5739 C   0  0  0  0  0  0  0  0  0  0  0  0
  -23.0465   -9.2441   22.6607 C   0  0  0  0  0  0  0  0  0  0  0  0
  -22.9517   -7.8559   22.5637 C   0  0  0  0  0  0  0  0  0  0  0  0
  -27.7550  -21.5457   18.6261 C   0  0  0  0  0  0  0  0  0  0  0  0
  -26.0030  -27.3201   20.5418 C   0  0  0  0  0  0  0  0  0  0  0  0
  -22.9033   -8.0275   20.1543 C   0  0  0  0  0  0  0  0  0  0  0  0
  -26.4349  -13.2419   19.8278 C   0  0  0  0  0  0  0  0  0  0  0  0
  -28.2341  -23.9217   18.4478 C   0  0  0  0  0  0  0  0  0  0  0  0
  -28.0972  -13.6275   17.9316 C   0  0  0  0  0  0  0  0  0  0  0  0
  -25.1456  -34.7699   24.3837 C   0  0  0  0  0  0  0  0  0  0  0  0
  -25.2370  -29.5932   20.2164 C   0  0  0  0  0  0  0  0  0  0  0  0
  -25.4711  -33.4332   24.0844 C   0  0  0  0  0  0  0  0  0  0  0  0
  -24.9858  -28.2814   20.6431 C   0  0  0  0  0  0  0  0  0  0  0  0
  -24.2371  -12.0053   21.0207 C   0  0  0  0  0  0  0  0  0  0  0  0
  -27.2485  -27.6558   20.0116 C   0  0  0  0  0  0  0  0  0  0  0  0
  -23.0696  -10.0241   21.5045 C   0  0  0  0  0  0  0  0  0  0  0  0
  -22.8801   -7.2476   21.3106 C   0  0  0  0  0  0  0  0  0  0  0  0
  -22.9980   -9.4158   20.2513 C   0  0  0  0  0  0  0  0  0  0  0  0
  -27.5698  -13.8813   19.2119 C   0  0  0  0  0  0  0  0  0  0  0  0
  -29.4274  -23.6583   19.1399 C   0  0  0  0  0  0  0  0  0  0  0  0
  -28.9536  -21.3974   19.2923 C   0  0  0  0  0  0  0  0  0  0  0  0
  -29.1624  -14.4877   17.8224 C   0  0  0  0  0  0  0  0  0  0  0  0
  -27.8969  -25.3044   18.0191 C   0  0  0  0  0  0  0  0  0  0  0  0
  -26.9655  -25.5828   17.0907 C   0  0  0  0  0  0  0  0  0  0  0  0
  -27.6632  -12.6973   16.9306 C   0  0  0  0  0  0  0  0  0  0  0  0
  -23.5674  -30.5658   22.7403 C   0  0  0  0  0  0  0  0  0  0  0  0
  -21.2699  -28.6643   21.4642 C   0  0  0  0  0  0  0  0  0  0  0  0
  -20.4849  -26.0104   19.4674 C   0  0  0  0  0  0  0  0  0  0  0  0
  -30.4674  -19.7172   20.4021 C   0  0  0  0  0  0  0  0  0  0  0  0
  -23.8115  -35.1478   24.9771 C   0  0  0  0  0  0  0  0  0  0  0  0
  -24.1577  -30.6382   20.2904 C   0  0  0  0  0  0  0  0  0  0  0  0
  -23.6536  -27.8755   21.2167 C   0  0  0  0  0  0  0  0  0  0  0  0
  -30.3811  -24.7605   19.5219 C   0  0  0  0  0  0  0  0  0  0  0  0
  -22.7426  -34.0713   24.8073 C   0  0  0  0  0  0  0  0  0  0  0  0
  -30.1966  -26.0237   18.6858 C   0  0  0  0  0  0  0  0  0  0  0  0
  -32.4360  -16.7516   20.4855 C   0  0  0  0  0  0  0  0  0  0  0  0
  -23.3007  -32.7014   25.1796 C   0  0  0  0  0  0  0  0  0  0  0  0
  -31.4612  -15.6568   20.0460 C   0  0  0  0  0  0  0  0  0  0  0  0
  -31.7495  -17.8098   21.3472 C   0  0  0  0  0  0  0  0  0  0  0  0
  -29.5681  -17.3089   20.3178 C   0  0  0  0  0  0  0  0  0  0  0  0
  -24.4684  -32.3141   24.2642 C   0  0  1  0  0  0  0  0  0  0  0  0
  -28.7232  -26.4215   18.6133 C   0  0  2  0  0  0  0  0  0  1  0  0
  -23.0920  -30.3235   21.3357 C   0  0  1  0  0  0  0  0  0  0  0  0
  -30.1992  -16.2547   19.3937 C   0  0  2  0  0  0  0  0  0  0  0  0
  -18.5260  -24.6720   18.6496 C   0  0  0  0  0  0  0  0  0  0  0  0
  -21.0920  -27.2733   24.1741 C   0  0  0  0  0  0  0  0  0  0  0  0
  -19.8677  -25.3989   23.0534 C   0  0  0  0  0  0  0  0  0  0  0  0
  -18.8875  -27.6928   23.0700 C   0  0  0  0  0  0  0  0  0  0  0  0
  -21.0380  -26.7088   16.6452 C   0  0  0  0  0  0  0  0  0  0  0  0
  -20.8879  -27.2102   21.6010 C   0  0  1  0  0  0  0  0  0  0  0  0
  -19.4494  -25.8475   18.3695 C   0  0  2  0  0  0  0  0  0  0  0  0
  -20.2096  -26.9016   22.9656 C   0  0  0  0  0  0  0  0  0  0  0  0
  -28.2443  -14.8286   19.8690 N   0  0  0  0  0  0  0  0  0  0  0  0
  -29.7912  -22.4185   19.5628 N   0  0  0  0  0  0  0  0  0  0  0  0
  -29.2066  -15.1774   18.9982 N   0  0  0  0  0  0  0  0  0  0  0  0
  -22.6325  -28.9346   21.2740 N   0  0  0  0  0  0  0  0  0  0  0  0
  -30.5652  -18.3341   20.6635 N   0  0  0  0  0  0  0  0  0  0  0  0
  -30.0561  -14.7139   16.8362 N   0  0  0  0  0  0  0  0  0  0  0  0
  -26.5516  -11.8894   17.2064 N   0  0  0  0  0  0  0  0  0  0  0  0
  -29.3123  -20.0944   19.7180 N   0  0  0  0  0  0  0  0  0  0  0  0
  -23.9761  -31.8638   22.9800 N   0  0  0  0  0  0  0  0  0  0  0  0
  -20.0643  -26.8935   20.4392 N   0  0  0  0  0  0  0  0  0  0  0  0
  -20.1175  -25.6180   17.0572 N   0  3  0  0  0  0  0  0  0  0  0  0
  -28.2538  -12.5743   15.8308 O   0  0  0  0  0  0  0  0  0  0  0  0
  -23.5623  -29.6436   23.5474 O   0  0  0  0  0  0  0  0  0  0  0  0
  -20.3908  -29.5281   21.5168 O   0  0  0  0  0  0  0  0  0  0  0  0
  -21.5579  -25.4110   19.4653 O   0  0  0  0  0  0  0  0  0  0  0  0
  -31.3565  -20.5050   20.7348 O   0  0  0  0  0  0  0  0  0  0  0  0
  -23.1645  -11.4022   21.6024 O   0  0  0  0  0  0  0  0  0  0  0  0
  -28.2251  -26.7128   19.9178 O   0  0  0  0  0  0  0  0  0  1  0  0
  -22.7907   -5.9144   21.2175 F   0  0  0  0  0  0  0  0  0  0  0  0
  -23.0210  -10.1598   19.1370 F   0  0  0  0  0  0  0  0  0  0  0  0
  1  2  1  0  0  0  0
  1  6  2  0  0  0  0
  2  7  2  0  0  0  0
  3  9  2  0  0  0  0
  3 17  1  0  0  0  0
  4 10  1  0  0  0  0
  4 17  2  0  0  0  0
  5 14  2  0  0  0  0
  5 18  1  0  0  0  0
  6 20  1  0  0  0  0
  7 22  1  0  0  0  0
  8 11  2  0  0  0  0
  8 21  1  0  0  0  0
  9 24  1  0  0  0  0
 10 24  2  0  0  0  0
 11 25  1  0  0  0  0
 12 13  2  0  0  0  0
 12 26  1  0  0  0  0
 13 27  1  0  0  0  0
 14 31  1  0  0  0  0
 15 23  1  0  0  0  0
 15 25  2  0  0  0  0
 16 27  2  0  0  0  0
 16 28  1  0  0  0  0
 17 29  1  0  0  0  0
 18 30  2  0  0  0  0
 18 33  1  0  0  0  0
 19 29  1  0  0  0  0
 19 32  2  0  0  0  0
 19 35  1  0  0  0  0
 20 22  2  0  0  0  0
 20 40  1  0  0  0  0
 21 23  2  0  0  0  0
 21 41  1  0  0  0  0
 22 51  1  0  0  0  0
 23 42  1  0  0  0  0
 24 79  1  0  0  0  0
 25 80  1  0  0  0  0
 26 28  2  0  0  0  0
 26 79  1  0  0  0  0
 27 81  1  0  0  0  0
 28 82  1  0  0  0  0
 29 63  2  0  0  0  0
 30 43  1  0  0  0  0
 30 64  1  0  0  0  0
 31 64  2  0  0  0  0
 31 70  1  0  0  0  0
 32 65  1  0  0  0  0
 32 68  1  0  0  0  0
 33 34  2  0  0  0  0
 33 52  1  0  0  0  0
 35 69  1  0  0  0  0
 35 74  2  0  0  0  0
 36 53  1  0  0  0  0
 36 71  1  0  0  0  0
 36 75  2  0  0  0  0
 37 60  1  0  0  0  0
 37 66  1  0  0  0  0
 37 76  2  0  0  0  0
 38 61  1  0  0  0  0
 38 72  1  0  0  0  0
 38 77  2  0  0  0  0
 39 67  1  0  0  0  0
 39 70  1  0  0  0  0
 39 78  2  0  0  0  0
 40 44  1  0  0  0  0
 41 53  1  0  0  0  0
 42 66  1  0  0  0  0
 43 45  1  0  0  0  0
 44 47  1  0  0  0  0
 45 52  1  0  0  0  0
 46 48  1  0  0  0  0
 46 49  1  0  0  0  0
 47 51  1  0  0  0  0
 48 54  1  0  0  0  0
 49 67  1  0  0  0  0
 50 54  1  0  0  0  0
 50 67  1  0  0  0  0
 51 71  1  0  0  0  0
 52 80  1  0  0  0  0
 53 66  1  0  0  0  0
 54 65  1  0  0  0  0
 55 61  1  0  0  0  0
 56 62  1  0  0  0  0
 57 62  1  0  0  0  0
 58 62  1  0  0  0  0
 59 73  1  0  0  0  0
 60 62  1  0  0  0  0
 60 72  1  0  0  0  0
 61 73  1  0  0  0  0
 63 65  1  0  0  0  0
M  CHG  1  73   1
M  ISO  4  39 100  52 101  70 100  80 101
M  END
> <Batch ID>
0174

> <Smiles>
C=C1c2ccc([100NH:0][100C:0](=O)N3CCCC(n4nc(-c5ccc(Oc6ccc(F)cc6F)cc5)c(C(N)=O)c4N)C3)nc2CC[101CH:1]1[101O:1]c1ccc2c(c1)CN(C(=O)C(NC(=O)C(C)NC)C(C)(C)C)C(C(=O)NC1CCCc3ccccc31)C2

> <Shape>
0.342

> <Color>
0.085

> <Negative vol penalty>
0.000

$$$$

  -OEChem-04052322453D

 86 95  0     1  0  0  0  0  0999 V2000
  -26.6627  -38.4867   22.8881 C   0  0  0  0  0  0  0  0  0  0  0  0
  -27.2952  -37.5502   22.0768 C   0  0  0  0  0  0  0  0  0  0  0  0
  -24.5227  -10.1655   23.1492 C   0  0  0  0  0  0  0  0  0  0  0  0
  -24.4787   -8.6496   21.2684 C   0  0  0  0  0  0  0  0  0  0  0  0
  -25.9276  -38.0650   23.9952 C   0  0  0  0  0  0  0  0  0  0  0  0
  -27.1938  -36.1913   22.3728 C   0  0  0  0  0  0  0  0  0  0  0  0
  -26.9160  -29.7869   19.1754 C   0  0  0  0  0  0  0  0  0  0  0  0
  -23.3764   -9.5601   23.6639 C   0  0  0  0  0  0  0  0  0  0  0  0
  -23.3324   -8.0442   21.7832 C   0  0  0  0  0  0  0  0  0  0  0  0
  -27.5353  -28.5382   19.2096 C   0  0  0  0  0  0  0  0  0  0  0  0
  -22.5714   -5.7941   24.1870 C   0  0  0  0  0  0  0  0  0  0  0  0
  -22.5222   -4.4001   24.1899 C   0  0  0  0  0  0  0  0  0  0  0  0
  -26.1729  -27.9211   21.1023 C   0  0  0  0  0  0  0  0  0  0  0  0
  -30.6296  -23.1189   20.5638 C   0  0  0  0  0  0  0  0  0  0  0  0
  -20.5543   -4.4668   22.7898 C   0  0  0  0  0  0  0  0  0  0  0  0
  -25.0739   -9.7103   21.9513 C   0  0  0  0  0  0  0  0  0  0  0  0
  -27.5955   -9.9794   21.6743 C   0  0  0  0  0  0  0  0  0  0  0  0
  -25.8091  -36.6997   24.2993 C   0  0  0  0  0  0  0  0  0  0  0  0
  -25.9266  -30.1166   20.1128 C   0  0  0  0  0  0  0  0  0  0  0  0
  -26.4575  -35.7510   23.4857 C   0  0  0  0  0  0  0  0  0  0  0  0
  -25.5408  -29.1737   21.0763 C   0  0  0  0  0  0  0  0  0  0  0  0
  -30.1575  -24.4204   20.4347 C   0  0  0  0  0  0  0  0  0  0  0  0
  -29.2911  -24.7397   19.3951 C   0  0  0  0  0  0  0  0  0  0  0  0
  -22.7812   -8.4994   22.9810 C   0  0  0  0  0  0  0  0  0  0  0  0
  -27.1658  -27.6062   20.1749 C   0  0  0  0  0  0  0  0  0  0  0  0
  -21.6120   -6.5245   23.4856 C   0  0  0  0  0  0  0  0  0  0  0  0
  -21.5136   -3.7365   23.4913 C   0  0  0  0  0  0  0  0  0  0  0  0
  -20.6035   -5.8608   22.7870 C   0  0  0  0  0  0  0  0  0  0  0  0
  -26.2577  -10.3356   21.4188 C   0  0  0  0  0  0  0  0  0  0  0  0
  -28.9300  -23.7296   18.5182 C   0  0  0  0  0  0  0  0  0  0  0  0
  -30.2084  -22.1812   19.6347 C   0  0  0  0  0  0  0  0  0  0  0  0
  -28.3352  -10.8714   20.9370 C   0  0  0  0  0  0  0  0  0  0  0  0
  -28.1224   -8.9355   22.5040 C   0  0  0  0  0  0  0  0  0  0  0  0
  -25.6331  -32.3221   22.3829 C   0  0  0  0  0  0  0  0  0  0  0  0
  -22.6316  -31.1157   22.6233 C   0  0  0  0  0  0  0  0  0  0  0  0
  -20.5207  -28.4794   22.1320 C   0  0  0  0  0  0  0  0  0  0  0  0
  -29.4898  -15.8014   19.1572 C   0  0  0  0  0  0  0  0  0  0  0  0
  -25.0429  -36.2947   25.5337 C   0  0  0  0  0  0  0  0  0  0  0  0
  -25.2493  -31.4580   20.0458 C   0  0  0  0  0  0  0  0  0  0  0  0
  -24.4697  -29.4710   22.0925 C   0  0  0  0  0  0  0  0  0  0  0  0
  -24.6739  -34.8138   25.5631 C   0  0  0  0  0  0  0  0  0  0  0  0
  -26.9408  -14.1714   17.3754 C   0  0  0  0  0  0  0  0  0  0  0  0
  -25.8775  -33.9561   25.1851 C   0  0  0  0  0  0  0  0  0  0  0  0
  -26.6373  -12.9882   18.2941 C   0  0  0  0  0  0  0  0  0  0  0  0
  -28.9442  -19.2774   19.2445 C   0  0  0  0  0  0  0  0  0  0  0  0
  -31.3851  -18.6963   18.9768 C   0  0  0  0  0  0  0  0  0  0  0  0
  -27.1839  -15.4605   18.1624 C   0  0  0  0  0  0  0  0  0  0  0  0
  -28.5773  -18.0459   18.4113 C   0  0  0  0  0  0  0  0  0  0  0  0
  -30.9727  -17.4967   18.1283 C   0  0  0  0  0  0  0  0  0  0  0  0
  -27.9174  -14.1534   20.1301 C   0  0  0  0  0  0  0  0  0  0  0  0
  -26.3502  -34.2665   23.7597 C   0  0  1  0  0  0  0  0  0  0  0  0
  -24.6172  -31.8749   21.3702 C   0  0  1  0  0  0  0  0  0  0  0  0
  -27.7260  -12.8314   19.3707 C   0  0  1  0  0  0  0  0  0  0  0  0
  -30.3346  -19.8061   18.8846 C   0  0  0  0  0  0  0  0  0  0  0  0
  -30.5935  -25.4535   21.4202 C   0  0  0  0  0  0  0  0  0  0  0  0
  -28.0027  -24.0135   17.3821 C   0  0  0  0  0  0  0  0  0  0  0  0
  -18.1336  -27.7792   22.4618 C   0  0  0  0  0  0  0  0  0  0  0  0
  -23.1566  -30.7387   25.6053 C   0  0  0  0  0  0  0  0  0  0  0  0
  -21.1779  -29.2070   25.6890 C   0  0  0  0  0  0  0  0  0  0  0  0
  -20.8753  -31.5988   25.0483 C   0  0  0  0  0  0  0  0  0  0  0  0
  -20.1170  -28.0740   19.2283 C   0  0  0  0  0  0  0  0  0  0  0  0
  -28.7722  -26.1287   19.2303 C   0  0  0  0  0  0  0  0  0  1  0  0
  -21.9842  -30.0110   23.4231 C   0  0  1  0  0  0  0  0  0  0  0  0
  -19.1409  -28.3972   21.5046 C   0  0  2  0  0  0  0  0  0  0  0  0
  -21.8201  -30.3837   24.9236 C   0  0  0  0  0  0  0  0  0  0  0  0
  -26.1507  -11.3731   20.5844 N   0  0  0  0  0  0  0  0  0  0  0  0
  -29.3679  -22.4540   18.6116 N   0  0  0  0  0  0  0  0  0  0  0  0
  -27.4307  -11.6765   20.3094 N   0  0  0  0  0  0  0  0  0  0  0  0
  -23.8416  -30.7986   21.9899 N   0  0  0  0  0  0  0  0  0  0  0  0
  -28.2002  -15.2511   19.2030 N   0  0  0  0  0  0  0  0  0  0  0  0
  -29.6351  -17.0283   18.4927 N   0  0  0  0  0  0  0  0  0  0  0  0
  -29.6645  -11.0378   20.7708 N   0  0  0  0  0  0  0  0  0  0  0  0
  -27.2224   -8.1098   23.1914 N   0  0  0  0  0  0  0  0  0  0  0  0
  -30.6865  -20.8904   19.7747 N   0  0  0  0  0  0  0  0  0  0  0  0
  -25.4818  -33.6338   22.7902 N   0  0  0  0  0  0  0  0  0  0  0  0
  -20.7314  -29.6964   22.7450 N   0  0  0  0  0  0  0  0  0  0  0  0
  -19.1832  -27.5680   20.2670 N   0  3  0  0  0  0  0  0  0  0  0  0
  -29.3552   -8.7510   22.6448 O   0  0  0  0  0  0  0  0  0  0  0  0
  -26.4898  -31.5348   22.7675 O   0  0  0  0  0  0  0  0  0  0  0  0
  -22.0802  -32.2172   22.5569 O   0  0  0  0  0  0  0  0  0  0  0  0
  -21.3294  -27.5550   22.0864 O   0  0  0  0  0  0  0  0  0  0  0  0
  -30.4552  -15.2302   19.6795 O   0  0  0  0  0  0  0  0  0  0  0  0
  -21.6628   -7.9083   23.4831 O   0  0  0  0  0  0  0  0  0  0  0  0
  -27.7733  -26.3784   20.2112 O   0  0  0  0  0  0  0  0  0  1  0  0
  -21.4674   -2.3978   23.4929 F   0  0  0  0  0  0  0  0  0  0  0  0
  -19.6798   -6.5570   22.1104 F   0  0  0  0  0  0  0  0  0  0  0  0
  1  2  1  0  0  0  0
  1  5  2  0  0  0  0
  2  6  2  0  0  0  0
  3  8  2  0  0  0  0
  3 16  1  0  0  0  0
  4  9  1  0  0  0  0
  4 16  2  0  0  0  0
  5 18  1  0  0  0  0
  6 20  1  0  0  0  0
  7 10  2  0  0  0  0
  7 19  1  0  0  0  0
  8 24  1  0  0  0  0
  9 24  2  0  0  0  0
 10 25  1  0  0  0  0
 11 12  2  0  0  0  0
 11 26  1  0  0  0  0
 12 27  1  0  0  0  0
 13 21  1  0  0  0  0
 13 25  2  0  0  0  0
 14 22  2  0  0  0  0
 14 31  1  0  0  0  0
 15 27  2  0  0  0  0
 15 28  1  0  0  0  0
 16 29  1  0  0  0  0
 17 29  1  0  0  0  0
 17 32  2  0  0  0  0
 17 33  1  0  0  0  0
 18 20  2  0  0  0  0
 18 38  1  0  0  0  0
 19 21  2  0  0  0  0
 19 39  1  0  0  0  0
 20 51  1  0  0  0  0
 21 40  1  0  0  0  0
 22 23  1  0  0  0  0
 22 55  1  0  0  0  0
 23 30  2  0  0  0  0
 23 62  1  0  0  0  0
 24 83  1  0  0  0  0
 25 84  1  0  0  0  0
 26 28  2  0  0  0  0
 26 83  1  0  0  0  0
 27 85  1  0  0  0  0
 28 86  1  0  0  0  0
 29 66  2  0  0  0  0
 30 56  1  0  0  0  0
 30 67  1  0  0  0  0
 31 67  2  0  0  0  0
 31 74  1  0  0  0  0
 32 68  1  0  0  0  0
 32 72  1  0  0  0  0
 33 73  1  0  0  0  0
 33 78  2  0  0  0  0
 34 52  1  0  0  0  0
 34 75  1  0  0  0  0
 34 79  2  0  0  0  0
 35 63  1  0  0  0  0
 35 69  1  0  0  0  0
 35 80  2  0  0  0  0
 36 64  1  0  0  0  0
 36 76  1  0  0  0  0
 36 81  2  0  0  0  0
 37 70  1  0  0  0  0
 37 71  1  0  0  0  0
 37 82  2  0  0  0  0
 38 41  1  0  0  0  0
 39 52  1  0  0  0  0
 40 69  1  0  0  0  0
 41 43  1  0  0  0  0
 42 44  1  0  0  0  0
 42 47  1  0  0  0  0
 43 51  1  0  0  0  0
 44 53  1  0  0  0  0
 45 48  1  0  0  0  0
 45 54  1  0  0  0  0
 46 49  1  0  0  0  0
 46 54  1  0  0  0  0
 47 70  1  0  0  0  0
 48 71  1  0  0  0  0
 49 71  1  0  0  0  0
 50 53  1  0  0  0  0
 50 70  1  0  0  0  0
 51 75  1  0  0  0  0
 52 69  1  0  0  0  0
 53 68  1  0  0  0  0
 54 74  1  0  0  0  0
 57 64  1  0  0  0  0
 58 65  1  0  0  0  0
 59 65  1  0  0  0  0
 60 65  1  0  0  0  0
 61 77  1  0  0  0  0
 62 84  1  0  0  0  0
 63 65  1  0  0  0  0
 63 76  1  0  0  0  0
 64 77  1  0  0  0  0
 66 68  1  0  0  0  0
M  CHG  1  77   1
M  ISO  4  37 100  62 101  71 100  84 101
M  END
> <Batch ID>
0174

> <Smiles>
CNC(C)C(=O)NC(C(=O)N1Cc2cc([101O:1][101CH2:1]c3c(C)cc(NC4CC[100N:0]([100C:0](=O)N5CCCC(n6nc(-c7ccc(Oc8ccc(F)cc8F)cc7)c(C(N)=O)c6N)C5)CC4)nc3C)ccc2CC1C(=O)NC1CCCc2ccccc21)C(C)(C)C

> <Shape>
0.331

> <Color>
0.104

> <Negative vol penalty>
0.000

$$$$

  -OEChem-04052322453D

 86 95  0     1  0  0  0  0  0999 V2000
  -29.0272  -17.7111   21.9203 C   0  0  0  0  0  0  0  0  0  0  0  0
  -29.4719  -18.3225   20.7535 C   0  0  0  0  0  0  0  0  0  0  0  0
  -23.7812  -13.4472   19.9214 C   0  0  0  0  0  0  0  0  0  0  0  0
  -23.6108  -12.4765   22.1272 C   0  0  0  0  0  0  0  0  0  0  0  0
  -27.6758  -17.4085   22.0726 C   0  0  0  0  0  0  0  0  0  0  0  0
  -28.5637  -18.6423   19.7437 C   0  0  0  0  0  0  0  0  0  0  0  0
  -23.1916  -23.8868   18.0434 C   0  0  0  0  0  0  0  0  0  0  0  0
  -25.0121  -12.8168   19.7390 C   0  0  0  0  0  0  0  0  0  0  0  0
  -24.8417  -11.8461   21.9449 C   0  0  0  0  0  0  0  0  0  0  0  0
  -22.3324  -24.5688   18.9038 C   0  0  0  0  0  0  0  0  0  0  0  0
  -28.3690  -11.7514   18.8339 C   0  0  0  0  0  0  0  0  0  0  0  0
  -29.4098  -12.5029   18.2884 C   0  0  0  0  0  0  0  0  0  0  0  0
  -24.1564  -24.9098   20.4452 C   0  0  0  0  0  0  0  0  0  0  0  0
  -19.5131  -28.6749   22.8368 C   0  0  0  0  0  0  0  0  0  0  0  0
  -29.2643  -14.0483   20.1398 C   0  0  0  0  0  0  0  0  0  0  0  0
  -23.0806  -13.2771   21.1155 C   0  0  0  0  0  0  0  0  0  0  0  0
  -20.5371  -13.4194   20.9826 C   0  0  0  0  0  0  0  0  0  0  0  0
  -26.7531  -17.7137   21.0584 C   0  0  0  0  0  0  0  0  0  0  0  0
  -24.5395  -23.7014   18.3830 C   0  0  0  0  0  0  0  0  0  0  0  0
  -27.1920  -18.3666   19.8886 C   0  0  0  0  0  0  0  0  0  0  0  0
  -25.0313  -24.2273   19.5862 C   0  0  0  0  0  0  0  0  0  0  0  0
  -20.2362  -27.9688   21.8819 C   0  0  0  0  0  0  0  0  0  0  0  0
  -19.8636  -26.6694   21.5565 C   0  0  0  0  0  0  0  0  0  0  0  0
  -25.5423  -12.0162   20.7508 C   0  0  0  0  0  0  0  0  0  0  0  0
  -22.8140  -25.0779   20.1063 C   0  0  0  0  0  0  0  0  0  0  0  0
  -27.7758  -12.1484   20.0324 C   0  0  0  0  0  0  0  0  0  0  0  0
  -29.8575  -13.6514   18.9413 C   0  0  0  0  0  0  0  0  0  0  0  0
  -28.2235  -13.2968   20.6853 C   0  0  0  0  0  0  0  0  0  0  0  0
  -21.8094  -13.9285   21.3047 C   0  0  0  0  0  0  0  0  0  0  0  0
  -18.4343  -28.0416   23.4325 C   0  0  0  0  0  0  0  0  0  0  0  0
  -18.7692  -26.1258   22.2096 C   0  0  0  0  0  0  0  0  0  0  0  0
  -19.6653  -14.4138   21.3538 C   0  0  0  0  0  0  0  0  0  0  0  0
  -20.1755  -12.1602   20.4000 C   0  0  0  0  0  0  0  0  0  0  0  0
  -26.3915  -21.1733   18.9146 C   0  0  0  0  0  0  0  0  0  0  0  0
  -28.7334  -23.4118   19.0791 C   0  0  0  0  0  0  0  0  0  0  0  0
  -29.5989  -26.6626   19.6538 C   0  0  0  0  0  0  0  0  0  0  0  0
  -19.0795  -19.9540   21.4416 C   0  0  0  0  0  0  0  0  0  0  0  0
  -25.3008  -17.3711   21.2790 C   0  0  0  0  0  0  0  0  0  0  0  0
  -25.4596  -22.9867   17.4316 C   0  0  0  0  0  0  0  0  0  0  0  0
  -26.4746  -24.0729   19.9879 C   0  0  0  0  0  0  0  0  0  0  0  0
  -24.4937  -17.3419   19.9851 C   0  0  0  0  0  0  0  0  0  0  0  0
  -19.8711  -18.2764   24.4218 C   0  0  0  0  0  0  0  0  0  0  0  0
  -24.7537  -18.6074   19.1817 C   0  0  0  0  0  0  0  0  0  0  0  0
  -20.3324  -16.9187   23.8924 C   0  0  0  0  0  0  0  0  0  0  0  0
  -17.2585  -22.8845   22.7994 C   0  0  0  0  0  0  0  0  0  0  0  0
  -19.7457  -23.2455   23.1046 C   0  0  0  0  0  0  0  0  0  0  0  0
  -20.3759  -19.4310   23.5548 C   0  0  0  0  0  0  0  0  0  0  0  0
  -17.5653  -21.8859   21.6844 C   0  0  0  0  0  0  0  0  0  0  0  0
  -19.9952  -22.2422   21.9809 C   0  0  0  0  0  0  0  0  0  0  0  0
  -20.5078  -17.9355   21.5895 C   0  0  0  0  0  0  0  0  0  0  0  0
  -26.2270  -18.6960   18.7640 C   0  0  1  0  0  0  0  0  0  0  0  0
  -26.6949  -22.4091   18.1155 C   0  0  1  0  0  0  0  0  0  0  0  0
  -19.9671  -16.7518   22.4066 C   0  0  1  0  0  0  0  0  0  0  0  0
  -18.3736  -23.9125   22.9938 C   0  0  0  0  0  0  0  0  0  0  0  0
  -21.4045  -28.6237   21.2225 C   0  0  0  0  0  0  0  0  0  0  0  0
  -17.6356  -28.7687   24.4622 C   0  0  0  0  0  0  0  0  0  0  0  0
  -31.5935  -28.1821   19.7524 C   0  0  0  0  0  0  0  0  0  0  0  0
  -29.4844  -22.2456   21.7969 C   0  0  0  0  0  0  0  0  0  0  0  0
  -30.7927  -24.3311   22.2523 C   0  0  0  0  0  0  0  0  0  0  0  0
  -31.4306  -22.8516   20.3479 C   0  0  0  0  0  0  0  0  0  0  0  0
  -28.5626  -28.3562   17.4590 C   0  0  0  0  0  0  0  0  0  0  0  0
  -20.6185  -25.8839   20.5375 C   0  0  0  0  0  0  0  0  0  1  0  0
  -29.3329  -24.2529   20.1801 C   0  0  1  0  0  0  0  0  0  0  0  0
  -30.4829  -27.6219   18.8775 C   0  0  2  0  0  0  0  0  0  0  0  0
  -30.2325  -23.4217   21.1379 C   0  0  0  0  0  0  0  0  0  0  0  0
  -21.7553  -15.1514   21.8392 N   0  0  0  0  0  0  0  0  0  0  0  0
  -18.0423  -26.7808   23.1425 N   0  0  0  0  0  0  0  0  0  0  0  0
  -20.4384  -15.4191   21.8557 N   0  0  0  0  0  0  0  0  0  0  0  0
  -27.3333  -23.3609   19.0271 N   0  0  0  0  0  0  0  0  0  0  0  0
  -20.0386  -19.2076   22.1426 N   0  0  0  0  0  0  0  0  0  0  0  0
  -18.8885  -21.2851   21.8492 N   0  0  0  0  0  0  0  0  0  0  0  0
  -18.3206  -14.5177   21.2963 N   0  0  0  0  0  0  0  0  0  0  0  0
  -21.1961  -11.2547   20.0796 N   0  0  0  0  0  0  0  0  0  0  0  0
  -26.4774  -19.9998   18.1901 N   0  0  0  0  0  0  0  0  0  0  0  0
  -30.0221  -25.3570   19.5211 N   0  0  0  0  0  0  0  0  0  0  0  0
  -29.6769  -28.7610   18.3543 N   0  3  0  0  0  0  0  0  0  0  0  0
  -18.9839  -11.8540   20.1554 O   0  0  0  0  0  0  0  0  0  0  0  0
  -26.1024  -21.2768   20.1009 O   0  0  0  0  0  0  0  0  0  0  0  0
  -29.4799  -22.8273   18.2899 O   0  0  0  0  0  0  0  0  0  0  0  0
  -28.6319  -27.0346   20.3150 O   0  0  0  0  0  0  0  0  0  0  0  0
  -18.4295  -19.4625   20.5105 O   0  0  0  0  0  0  0  0  0  0  0  0
  -26.7432  -11.4008   20.5731 O   0  0  0  0  0  0  0  0  0  0  0  0
  -21.9716  -25.7480   20.9541 O   0  0  0  0  0  0  0  0  0  1  0  0
  -18.3696  -24.8482   21.9178 O   0  0  0  0  0  0  0  0  0  0  0  0
  -30.8579  -14.3721   18.4182 F   0  0  0  0  0  0  0  0  0  0  0  0
  -27.6583  -13.6825   21.8375 F   0  0  0  0  0  0  0  0  0  0  0  0
  1  2  1  0  0  0  0
  1  5  2  0  0  0  0
  2  6  2  0  0  0  0
  3  8  2  0  0  0  0
  3 16  1  0  0  0  0
  4  9  1  0  0  0  0
  4 16  2  0  0  0  0
  5 18  1  0  0  0  0
  6 20  1  0  0  0  0
  7 10  2  0  0  0  0
  7 19  1  0  0  0  0
  8 24  1  0  0  0  0
  9 24  2  0  0  0  0
 10 25  1  0  0  0  0
 11 12  2  0  0  0  0
 11 26  1  0  0  0  0
 12 27  1  0  0  0  0
 13 21  1  0  0  0  0
 13 25  2  0  0  0  0
 14 22  2  0  0  0  0
 14 30  1  0  0  0  0
 15 27  2  0  0  0  0
 15 28  1  0  0  0  0
 16 29  1  0  0  0  0
 17 29  1  0  0  0  0
 17 32  2  0  0  0  0
 17 33  1  0  0  0  0
 18 20  2  0  0  0  0
 18 38  1  0  0  0  0
 19 21  2  0  0  0  0
 19 39  1  0  0  0  0
 20 51  1  0  0  0  0
 21 40  1  0  0  0  0
 22 23  1  0  0  0  0
 22 55  1  0  0  0  0
 23 31  2  0  0  0  0
 23 62  1  0  0  0  0
 24 82  1  0  0  0  0
 25 83  1  0  0  0  0
 26 28  2  0  0  0  0
 26 82  1  0  0  0  0
 27 85  1  0  0  0  0
 28 86  1  0  0  0  0
 29 66  2  0  0  0  0
 30 56  1  0  0  0  0
 30 67  2  0  0  0  0
 31 67  1  0  0  0  0
 31 84  1  0  0  0  0
 32 68  1  0  0  0  0
 32 72  1  0  0  0  0
 33 73  1  0  0  0  0
 33 77  2  0  0  0  0
 34 52  1  0  0  0  0
 34 74  1  0  0  0  0
 34 78  2  0  0  0  0
 35 63  1  0  0  0  0
 35 69  1  0  0  0  0
 35 79  2  0  0  0  0
 36 64  1  0  0  0  0
 36 75  1  0  0  0  0
 36 80  2  0  0  0  0
 37 70  1  0  0  0  0
 37 71  1  0  0  0  0
 37 81  2  0  0  0  0
 38 41  1  0  0  0  0
 39 52  1  0  0  0  0
 40 69  1  0  0  0  0
 41 43  1  0  0  0  0
 42 44  1  0  0  0  0
 42 47  1  0  0  0  0
 43 51  1  0  0  0  0
 44 53  1  0  0  0  0
 45 48  1  0  0  0  0
 45 54  1  0  0  0  0
 46 49  1  0  0  0  0
 46 54  1  0  0  0  0
 47 70  1  0  0  0  0
 48 71  1  0  0  0  0
 49 71  1  0  0  0  0
 50 53  1  0  0  0  0
 50 70  1  0  0  0  0
 51 74  1  0  0  0  0
 52 69  1  0  0  0  0
 53 68  1  0  0  0  0
 54 84  1  0  0  0  0
 57 64  1  0  0  0  0
 58 65  1  0  0  0  0
 59 65  1  0  0  0  0
 60 65  1  0  0  0  0
 61 76  1  0  0  0  0
 62 83  1  0  0  0  0
 63 65  1  0  0  0  0
 63 75  1  0  0  0  0
 64 76  1  0  0  0  0
 66 68  1  0  0  0  0
M  CHG  1  76   1
M  ISO  4  37 100  62 101  71 100  83 101
M  END
> <Batch ID>
0174

> <Smiles>
CNC(C)C(=O)NC(C(=O)N1Cc2cc([101O:1][101CH2:1]c3c(C)cc(C)nc3OC3CC[100N:0]([100C:0](=O)N4CCCC(n5nc(-c6ccc(Oc7ccc(F)cc7F)cc6)c(C(N)=O)c5N)C4)CC3)ccc2CC1C(=O)NC1CCCc2ccccc21)C(C)(C)C

> <Shape>
0.216

> <Color>
0.080

> <Negative vol penalty>
0.000

$$$$

  -OEChem-04052322453D

 88 98  0     1  0  0  0  0  0999 V2000
  -30.6821  -25.7956   17.7327 C   0  0  0  0  0  0  0  0  0  0  0  0
  -29.2923  -25.7587   17.7843 C   0  0  0  0  0  0  0  0  0  0  0  0
  -29.1807  -14.5232   22.0929 C   0  0  0  0  0  0  0  0  0  0  0  0
  -31.2462  -15.1493   23.1788 C   0  0  0  0  0  0  0  0  0  0  0  0
  -31.4048  -26.3136   18.8066 C   0  0  0  0  0  0  0  0  0  0  0  0
  -28.6245  -26.2387   18.9104 C   0  0  0  0  0  0  0  0  0  0  0  0
  -23.2149  -29.1068   19.0384 C   0  0  0  0  0  0  0  0  0  0  0  0
  -29.8916  -14.1639   20.9479 C   0  0  0  0  0  0  0  0  0  0  0  0
  -31.9571  -14.7899   22.0337 C   0  0  0  0  0  0  0  0  0  0  0  0
  -21.9230  -28.6606   19.3131 C   0  0  0  0  0  0  0  0  0  0  0  0
  -31.7614  -11.5510   19.8945 C   0  0  0  0  0  0  0  0  0  0  0  0
  -31.4313  -10.3438   19.2788 C   0  0  0  0  0  0  0  0  0  0  0  0
  -22.1616  -29.3956   21.5983 C   0  0  0  0  0  0  0  0  0  0  0  0
  -20.4805  -25.2445   22.2575 C   0  0  0  0  0  0  0  0  0  0  0  0
  -30.8681  -11.5316   17.2517 C   0  0  0  0  0  0  0  0  0  0  0  0
  -19.1516  -25.5410   24.6208 C   0  0  0  0  0  0  0  0  0  0  0  0
  -29.8580  -15.0160   23.2084 C   0  0  0  0  0  0  0  0  0  0  0  0
  -28.7996  -14.5630   25.4848 C   0  0  0  0  0  0  0  0  0  0  0  0
  -30.7452  -26.8092   19.9424 C   0  0  0  0  0  0  0  0  0  0  0  0
  -23.9953  -29.6919   20.0460 C   0  0  0  0  0  0  0  0  0  0  0  0
  -29.3392  -26.7626   20.0010 C   0  0  0  0  0  0  0  0  0  0  0  0
  -23.4623  -29.8507   21.3331 C   0  0  0  0  0  0  0  0  0  0  0  0
  -19.2665  -25.9373   22.2592 C   0  0  0  0  0  0  0  0  0  0  0  0
  -18.5695  -26.0634   23.4703 C   0  0  0  0  0  0  0  0  0  0  0  0
  -31.2797  -14.2971   20.9183 C   0  0  0  0  0  0  0  0  0  0  0  0
  -21.3972  -28.8023   20.5940 C   0  0  0  0  0  0  0  0  0  0  0  0
  -31.6448  -12.7486   19.1888 C   0  0  0  0  0  0  0  0  0  0  0  0
  -30.9846  -10.3340   17.9574 C   0  0  0  0  0  0  0  0  0  0  0  0
  -31.1982  -12.7389   17.8675 C   0  0  0  0  0  0  0  0  0  0  0  0
  -29.1242  -15.3880   24.3913 C   0  0  0  0  0  0  0  0  0  0  0  0
  -20.9648  -24.7518   23.4602 C   0  0  0  0  0  0  0  0  0  0  0  0
  -28.1031  -15.3830   26.3387 C   0  0  0  0  0  0  0  0  0  0  0  0
  -29.1007  -13.1793   25.7088 C   0  0  0  0  0  0  0  0  0  0  0  0
  -26.7548  -28.9710   21.4492 C   0  0  0  0  0  0  0  0  0  0  0  0
  -26.3314  -31.8504   22.8816 C   0  0  0  0  0  0  0  0  0  0  0  0
  -24.1754  -34.2992   23.8827 C   0  0  0  0  0  0  0  0  0  0  0  0
  -24.8186  -20.0795   25.6003 C   0  0  0  0  0  0  0  0  0  0  0  0
  -31.5710  -27.3161   21.0981 C   0  0  0  0  0  0  0  0  0  0  0  0
  -25.3773  -30.1923   19.7267 C   0  0  0  0  0  0  0  0  0  0  0  0
  -17.2571  -26.7888   23.5278 C   0  0  0  0  0  0  0  0  0  0  0  0
  -24.2516  -30.4905   22.4449 C   0  0  0  0  0  0  0  0  0  0  0  0
  -30.7730  -28.1491   22.0978 C   0  0  0  0  0  0  0  0  0  0  0  0
  -27.6812  -19.9654   27.6305 C   0  0  0  0  0  0  0  0  0  0  0  0
  -29.4578  -27.4565   22.4403 C   0  0  0  0  0  0  0  0  0  0  0  0
  -28.3542  -18.6859   27.1344 C   0  0  0  0  0  0  0  0  0  0  0  0
  -24.3002  -23.3212   24.3311 C   0  0  0  0  0  0  0  0  0  0  0  0
  -22.1383  -22.1772   24.9518 C   0  0  0  0  0  0  0  0  0  0  0  0
  -27.0881  -20.7835   26.4819 C   0  0  0  0  0  0  0  0  0  0  0  0
  -24.9926  -22.6064   25.4953 C   0  0  0  0  0  0  0  0  0  0  0  0
  -22.8642  -21.5095   26.1165 C   0  0  0  0  0  0  0  0  0  0  0  0
  -26.8426  -18.7368   25.1147 C   0  0  0  0  0  0  0  0  0  0  0  0
  -16.6182  -26.8389   22.1480 C   0  0  0  0  0  0  0  0  0  0  0  0
  -28.5777  -27.2967   21.1948 C   0  0  1  0  0  0  0  0  0  0  0  0
  -18.6584  -26.4807   20.9785 C   0  0  2  0  0  0  0  0  0  0  0  0
  -26.2709  -30.3060   20.9580 C   0  0  1  0  0  0  0  0  0  0  0  0
  -27.3972  -17.8649   26.2519 C   0  0  1  0  0  0  0  0  0  0  0  0
  -22.8045  -23.5088   24.5962 C   0  0  0  0  0  0  0  0  0  0  0  0
  -24.1200  -36.5138   25.0616 C   0  0  0  0  0  0  0  0  0  0  0  0
  -26.6956  -30.4319   25.5584 C   0  0  0  0  0  0  0  0  0  0  0  0
  -25.7060  -32.4405   26.6784 C   0  0  0  0  0  0  0  0  0  0  0  0
  -27.8325  -32.6532   25.3917 C   0  0  0  0  0  0  0  0  0  0  0  0
  -23.0741  -35.6699   21.5020 C   0  0  0  0  0  0  0  0  0  0  0  0
  -19.6499  -27.2610   20.1174 C   0  0  0  0  0  0  0  0  0  1  0  0
  -25.6570  -32.3269   24.1455 C   0  0  1  0  0  0  0  0  0  0  0  0
  -24.2180  -35.8077   23.7182 C   0  0  2  0  0  0  0  0  0  0  0  0
  -26.4584  -31.9493   25.4233 C   0  0  0  0  0  0  0  0  0  0  0  0
  -20.3336  -24.8883   24.6453 N   0  0  0  0  0  0  0  0  0  0  0  0
  -28.6710  -16.6363   24.5346 N   0  0  0  0  0  0  0  0  0  0  0  0
  -28.0545  -16.6017   25.7283 N   0  0  0  0  0  0  0  0  0  0  0  0
  -25.6004  -30.9581   22.0847 N   0  0  0  0  0  0  0  0  0  0  0  0
  -26.2147  -19.9486   25.6454 N   0  0  0  0  0  0  0  0  0  0  0  0
  -24.2915  -21.3588   25.8312 N   0  0  0  0  0  0  0  0  0  0  0  0
  -27.5336  -15.1732   27.5445 N   0  0  0  0  0  0  0  0  0  0  0  0
  -29.8249  -12.4861   24.7293 N   0  0  0  0  0  0  0  0  0  0  0  0
  -22.1722  -24.0770   23.4260 N   0  0  0  0  0  0  0  0  0  0  0  0
  -27.9350  -28.5510   20.8658 N   0  0  0  0  0  0  0  0  0  0  0  0
  -25.4408  -33.7599   23.9775 N   0  0  0  0  0  0  0  0  0  0  0  0
  -23.0881  -36.2675   22.8621 N   0  3  0  0  0  0  0  0  0  0  0  0
  -28.7242  -12.5711   26.7393 O   0  0  0  0  0  0  0  0  0  0  0  0
  -26.1064  -28.3675   22.2959 O   0  0  0  0  0  0  0  0  0  0  0  0
  -27.4620  -32.2606   22.6079 O   0  0  0  0  0  0  0  0  0  0  0  0
  -23.1245  -33.6633   23.9267 O   0  0  0  0  0  0  0  0  0  0  0  0
  -24.0858  -19.1101   25.3673 O   0  0  0  0  0  0  0  0  0  0  0  0
  -17.5616  -27.3794   21.2257 O   0  0  0  0  0  0  0  0  0  0  0  0
  -31.9738  -13.9463   19.8013 O   0  0  0  0  0  0  0  0  0  0  0  0
  -20.1250  -28.3630   20.8675 O   0  0  0  0  0  0  0  0  0  1  0  0
  -30.6691   -9.1745   17.3658 F   0  0  0  0  0  0  0  0  0  0  0  0
  -31.0853  -13.8861   17.1841 F   0  0  0  0  0  0  0  0  0  0  0  0
  1  2  1  0  0  0  0
  1  5  2  0  0  0  0
  2  6  2  0  0  0  0
  3  8  2  0  0  0  0
  3 17  1  0  0  0  0
  4  9  1  0  0  0  0
  4 17  2  0  0  0  0
  5 19  1  0  0  0  0
  6 21  1  0  0  0  0
  7 10  2  0  0  0  0
  7 20  1  0  0  0  0
  8 25  1  0  0  0  0
  9 25  2  0  0  0  0
 10 26  1  0  0  0  0
 11 12  2  0  0  0  0
 11 27  1  0  0  0  0
 12 28  1  0  0  0  0
 13 22  1  0  0  0  0
 13 26  2  0  0  0  0
 14 23  1  0  0  0  0
 14 31  2  0  0  0  0
 15 28  2  0  0  0  0
 15 29  1  0  0  0  0
 16 24  1  0  0  0  0
 16 67  2  0  0  0  0
 17 30  1  0  0  0  0
 18 30  1  0  0  0  0
 18 32  2  0  0  0  0
 18 33  1  0  0  0  0
 19 21  2  0  0  0  0
 19 38  1  0  0  0  0
 20 22  2  0  0  0  0
 20 39  1  0  0  0  0
 21 53  1  0  0  0  0
 22 41  1  0  0  0  0
 23 24  2  0  0  0  0
 23 54  1  0  0  0  0
 24 40  1  0  0  0  0
 25 85  1  0  0  0  0
 26 86  1  0  0  0  0
 27 29  2  0  0  0  0
 27 85  1  0  0  0  0
 28 87  1  0  0  0  0
 29 88  1  0  0  0  0
 30 68  2  0  0  0  0
 31 67  1  0  0  0  0
 31 75  1  0  0  0  0
 32 69  1  0  0  0  0
 32 73  1  0  0  0  0
 33 74  1  0  0  0  0
 33 79  2  0  0  0  0
 34 55  1  0  0  0  0
 34 76  1  0  0  0  0
 34 80  2  0  0  0  0
 35 64  1  0  0  0  0
 35 70  1  0  0  0  0
 35 81  2  0  0  0  0
 36 65  1  0  0  0  0
 36 77  1  0  0  0  0
 36 82  2  0  0  0  0
 37 71  1  0  0  0  0
 37 72  1  0  0  0  0
 37 83  2  0  0  0  0
 38 42  1  0  0  0  0
 39 55  1  0  0  0  0
 40 52  1  0  0  0  0
 41 70  1  0  0  0  0
 42 44  1  0  0  0  0
 43 45  1  0  0  0  0
 43 48  1  0  0  0  0
 44 53  1  0  0  0  0
 45 56  1  0  0  0  0
 46 49  1  0  0  0  0
 46 57  1  0  0  0  0
 47 50  1  0  0  0  0
 47 57  1  0  0  0  0
 48 71  1  0  0  0  0
 49 72  1  0  0  0  0
 50 72  1  0  0  0  0
 51 56  1  0  0  0  0
 51 71  1  0  0  0  0
 52 84  1  0  0  0  0
 53 76  1  0  0  0  0
 54 63  1  0  0  0  0
 54 84  1  0  0  0  0
 55 70  1  0  0  0  0
 56 69  1  0  0  0  0
 57 75  1  0  0  0  0
 58 65  1  0  0  0  0
 59 66  1  0  0  0  0
 60 66  1  0  0  0  0
 61 66  1  0  0  0  0
 62 78  1  0  0  0  0
 63 86  1  0  0  0  0
 64 66  1  0  0  0  0
 64 77  1  0  0  0  0
 65 78  1  0  0  0  0
 68 69  1  0  0  0  0
M  CHG  1  78   1
M  ISO  4  37 100  63 101  72 100  86 101
M  END
> <Batch ID>
0174

> <Smiles>
CNC(C)C(=O)NC(C(=O)N1Cc2cc([101O:1][101CH2:1]C3OCCc4cnc(NC5CC[100N:0]([100C:0](=O)N6CCCC(n7nc(-c8ccc(Oc9ccc(F)cc9F)cc8)c(C(N)=O)c7N)C6)CC5)cc43)ccc2CC1C(=O)NC1CCCc2ccccc21)C(C)(C)C

> <Shape>
0.255

> <Color>
0.059

> <Negative vol penalty>
0.000

$$$$

  -OEChem-04052322453D

 90100  0     1  0  0  0  0  0999 V2000
  -28.8794  -23.9327   18.0171 C   0  0  0  0  0  0  0  0  0  0  0  0
  -27.7160  -24.6816   18.1535 C   0  0  0  0  0  0  0  0  0  0  0  0
  -26.5861  -20.3500   22.1793 C   0  0  0  0  0  0  0  0  0  0  0  0
  -25.7136  -20.9794   20.0161 C   0  0  0  0  0  0  0  0  0  0  0  0
  -29.8977  -24.0561   18.9600 C   0  0  0  0  0  0  0  0  0  0  0  0
  -27.5755  -25.5629   19.2261 C   0  0  0  0  0  0  0  0  0  0  0  0
  -23.6154  -28.4820   19.2162 C   0  0  0  0  0  0  0  0  0  0  0  0
  -27.8606  -20.2204   21.6276 C   0  0  0  0  0  0  0  0  0  0  0  0
  -26.9882  -20.8499   19.4643 C   0  0  0  0  0  0  0  0  0  0  0  0
  -22.3283  -28.0070   19.4642 C   0  0  0  0  0  0  0  0  0  0  0  0
  -31.2771  -19.3749   20.7131 C   0  0  0  0  0  0  0  0  0  0  0  0
  -32.0241  -18.2492   21.0597 C   0  0  0  0  0  0  0  0  0  0  0  0
  -17.1247  -22.5425   20.7221 C   0  0  0  0  0  0  0  0  0  0  0  0
  -22.4236  -28.9291   21.6913 C   0  0  0  0  0  0  0  0  0  0  0  0
  -30.3076  -16.8245   20.1316 C   0  0  0  0  0  0  0  0  0  0  0  0
  -25.5125  -20.7295   21.3735 C   0  0  0  0  0  0  0  0  0  0  0  0
  -23.6273  -22.0201   22.5084 C   0  0  0  0  0  0  0  0  0  0  0  0
  -29.7636  -24.9302   20.0512 C   0  0  0  0  0  0  0  0  0  0  0  0
  -24.3217  -29.1758   20.2093 C   0  0  0  0  0  0  0  0  0  0  0  0
  -28.6019  -25.7192   20.1752 C   0  0  0  0  0  0  0  0  0  0  0  0
  -17.8758  -23.5668   21.3201 C   0  0  0  0  0  0  0  0  0  0  0  0
  -23.7186  -29.4141   21.4525 C   0  0  0  0  0  0  0  0  0  0  0  0
  -18.0062  -23.5982   22.7196 C   0  0  0  0  0  0  0  0  0  0  0  0
  -17.3540  -22.6260   23.4940 C   0  0  0  0  0  0  0  0  0  0  0  0
  -16.4898  -21.5768   21.5021 C   0  0  0  0  0  0  0  0  0  0  0  0
  -16.6024  -21.6200   22.8882 C   0  0  0  0  0  0  0  0  0  0  0  0
  -28.0617  -20.4704   20.2702 C   0  0  0  0  0  0  0  0  0  0  0  0
  -21.7333  -28.2280   20.7029 C   0  0  0  0  0  0  0  0  0  0  0  0
  -30.0453  -19.2255   20.0757 C   0  0  0  0  0  0  0  0  0  0  0  0
  -31.5394  -16.9739   20.7689 C   0  0  0  0  0  0  0  0  0  0  0  0
  -29.5606  -17.9503   19.7850 C   0  0  0  0  0  0  0  0  0  0  0  0
  -24.1956  -20.8630   21.9427 C   0  0  0  0  0  0  0  0  0  0  0  0
  -22.3705  -21.6288   22.9005 C   0  0  0  0  0  0  0  0  0  0  0  0
  -24.1855  -23.3313   22.6653 C   0  0  0  0  0  0  0  0  0  0  0  0
  -27.0309  -28.6801   21.7962 C   0  0  0  0  0  0  0  0  0  0  0  0
  -26.4305  -31.6441   22.9694 C   0  0  0  0  0  0  0  0  0  0  0  0
  -24.1385  -34.0751   23.6652 C   0  0  0  0  0  0  0  0  0  0  0  0
  -18.0373  -18.1764   21.2216 C   0  0  0  0  0  0  0  0  0  0  0  0
  -30.9001  -25.0303   21.0379 C   0  0  0  0  0  0  0  0  0  0  0  0
  -25.6990  -29.7049   19.9169 C   0  0  0  0  0  0  0  0  0  0  0  0
  -18.5755  -24.5698   20.4335 C   0  0  0  0  0  0  0  0  0  0  0  0
  -18.7786  -24.6869   23.4181 C   0  0  0  0  0  0  0  0  0  0  0  0
  -24.4266  -30.1710   22.5453 C   0  0  0  0  0  0  0  0  0  0  0  0
  -30.4804  -25.6490   22.3674 C   0  0  0  0  0  0  0  0  0  0  0  0
  -19.7106  -25.4643   22.4888 C   0  0  0  0  0  0  0  0  0  0  0  0
  -20.2227  -17.2866   23.8878 C   0  0  0  0  0  0  0  0  0  0  0  0
  -16.2013  -22.6814   25.8053 C   0  0  0  0  0  0  0  0  0  0  0  0
  -17.0722  -23.8962   25.7268 C   0  0  0  0  0  0  0  0  0  0  0  0
  -29.7112  -26.9382   22.1209 C   0  0  0  0  0  0  0  0  0  0  0  0
  -21.4171  -18.2257   23.7107 C   0  0  0  0  0  0  0  0  0  0  0  0
  -19.6511  -16.8407   22.5438 C   0  0  0  0  0  0  0  0  0  0  0  0
  -20.4975  -18.8787   21.4464 C   0  0  0  0  0  0  0  0  0  0  0  0
  -17.4622  -22.6468   24.9891 C   0  0  0  0  0  0  0  0  0  0  0  0
  -28.4140  -26.6614   21.3504 C   0  0  1  0  0  0  0  0  0  0  0  0
  -26.5241  -29.9515   21.1762 C   0  0  1  0  0  0  0  0  0  0  0  0
  -21.0733  -19.3997   22.7743 C   0  0  2  0  0  0  0  0  0  0  0  0
  -19.0383  -25.8555   21.1574 C   0  0  2  0  0  0  0  0  0  0  0  0
  -15.9154  -20.5838   23.7214 C   0  0  0  0  0  0  0  0  0  0  0  0
  -17.8466  -26.8052   21.3891 C   0  0  0  0  0  0  0  0  0  0  0  0
  -14.4949  -21.0907   20.0502 C   0  0  0  0  0  0  0  0  0  0  0  0
  -23.9426  -36.3718   24.6572 C   0  0  0  0  0  0  0  0  0  0  0  0
  -26.7098  -30.4572   25.7664 C   0  0  0  0  0  0  0  0  0  0  0  0
  -25.5920  -32.5063   26.6719 C   0  0  0  0  0  0  0  0  0  0  0  0
  -27.7719  -32.7026   25.4751 C   0  0  0  0  0  0  0  0  0  0  0  0
  -23.1104  -35.2080   21.1318 C   0  0  0  0  0  0  0  0  0  0  0  0
  -20.0657  -26.5876   20.2738 C   0  0  0  0  0  0  0  0  0  1  0  0
  -16.5385  -19.6253   19.8749 C   0  0  0  0  0  0  0  0  0  0  0  0
  -15.6951  -20.5090   20.8243 C   0  0  1  0  0  0  0  0  0  0  0  0
  -25.6759  -32.1912   24.1570 C   0  0  1  0  0  0  0  0  0  0  0  0
  -24.1344  -35.5664   23.3816 C   0  0  2  0  0  0  0  0  0  0  0  0
  -26.4245  -31.9484   25.4979 C   0  0  0  0  0  0  0  0  0  0  0  0
  -23.3678  -19.8151   21.9711 N   0  0  0  0  0  0  0  0  0  0  0  0
  -22.2665  -20.3123   22.5595 N   0  0  0  0  0  0  0  0  0  0  0  0
  -25.7739  -30.6628   22.2132 N   0  0  0  0  0  0  0  0  0  0  0  0
  -19.3448  -18.0014   21.7041 N   0  0  0  0  0  0  0  0  0  0  0  0
  -21.3551  -22.2858   23.5003 N   0  0  0  0  0  0  0  0  0  0  0  0
  -25.4899  -23.5614   22.2070 N   0  0  0  0  0  0  0  0  0  0  0  0
  -27.8218  -27.9204   20.9555 N   0  0  0  0  0  0  0  0  0  0  0  0
  -25.4164  -33.5966   23.8636 N   0  0  0  0  0  0  0  0  0  0  0  0
  -17.8312  -19.3056   20.4385 N   0  0  0  0  0  0  0  0  0  0  0  0
  -23.0334  -35.9112   22.4381 N   0  3  0  0  0  0  0  0  0  0  0  0
  -23.5526  -24.2668   23.2110 O   0  0  0  0  0  0  0  0  0  0  0  0
  -26.7281  -28.4092   22.9523 O   0  0  0  0  0  0  0  0  0  0  0  0
  -27.5579  -32.0768   22.7177 O   0  0  0  0  0  0  0  0  0  0  0  0
  -23.1107  -33.4028   23.7103 O   0  0  0  0  0  0  0  0  0  0  0  0
  -17.1202  -17.3877   21.4746 O   0  0  0  0  0  0  0  0  0  0  0  0
  -29.3053  -20.3442   19.7315 O   0  0  0  0  0  0  0  0  0  0  0  0
  -20.4640  -27.7600   20.9504 O   0  0  0  0  0  0  0  0  0  1  0  0
  -32.2575  -15.8930   21.1005 F   0  0  0  0  0  0  0  0  0  0  0  0
  -28.3785  -17.8005   19.1717 F   0  0  0  0  0  0  0  0  0  0  0  0
  1  2  1  0  0  0  0
  1  5  2  0  0  0  0
  2  6  2  0  0  0  0
  3  8  2  0  0  0  0
  3 16  1  0  0  0  0
  4  9  1  0  0  0  0
  4 16  2  0  0  0  0
  5 18  1  0  0  0  0
  6 20  1  0  0  0  0
  7 10  2  0  0  0  0
  7 19  1  0  0  0  0
  8 27  1  0  0  0  0
  9 27  2  0  0  0  0
 10 28  1  0  0  0  0
 11 12  2  0  0  0  0
 11 29  1  0  0  0  0
 12 30  1  0  0  0  0
 13 21  2  0  0  0  0
 13 25  1  0  0  0  0
 14 22  1  0  0  0  0
 14 28  2  0  0  0  0
 15 30  2  0  0  0  0
 15 31  1  0  0  0  0
 16 32  1  0  0  0  0
 17 32  1  0  0  0  0
 17 33  2  0  0  0  0
 17 34  1  0  0  0  0
 18 20  2  0  0  0  0
 18 39  1  0  0  0  0
 19 22  2  0  0  0  0
 19 40  1  0  0  0  0
 20 54  1  0  0  0  0
 21 23  1  0  0  0  0
 21 41  1  0  0  0  0
 22 43  1  0  0  0  0
 23 24  2  0  0  0  0
 23 42  1  0  0  0  0
 24 26  1  0  0  0  0
 24 53  1  0  0  0  0
 25 26  2  0  0  0  0
 25 68  1  0  0  0  0
 26 58  1  0  0  0  0
 27 87  1  0  0  0  0
 28 88  1  0  0  0  0
 29 31  2  0  0  0  0
 29 87  1  0  0  0  0
 30 89  1  0  0  0  0
 31 90  1  0  0  0  0
 32 72  2  0  0  0  0
 33 73  1  0  0  0  0
 33 76  1  0  0  0  0
 34 77  1  0  0  0  0
 34 82  2  0  0  0  0
 35 55  1  0  0  0  0
 35 78  1  0  0  0  0
 35 83  2  0  0  0  0
 36 69  1  0  0  0  0
 36 74  1  0  0  0  0
 36 84  2  0  0  0  0
 37 70  1  0  0  0  0
 37 79  1  0  0  0  0
 37 85  2  0  0  0  0
 38 75  1  0  0  0  0
 38 80  1  0  0  0  0
 38 86  2  0  0  0  0
 39 44  1  0  0  0  0
 40 55  1  0  0  0  0
 41 57  1  0  0  0  0
 42 45  1  0  0  0  0
 43 74  1  0  0  0  0
 44 49  1  0  0  0  0
 45 57  1  0  0  0  0
 46 50  1  0  0  0  0
 46 51  1  0  0  0  0
 47 48  1  0  0  0  0
 47 53  1  0  0  0  0
 48 53  1  0  0  0  0
 49 54  1  0  0  0  0
 50 56  1  0  0  0  0
 51 75  1  0  0  0  0
 52 56  1  0  0  0  0
 52 75  1  0  0  0  0
 54 78  1  0  0  0  0
 55 74  1  0  0  0  0
 56 73  1  0  0  0  0
 57 59  1  0  0  0  0
 57 66  1  0  0  0  0
 60 68  1  0  0  0  0
 61 70  1  0  0  0  0
 62 71  1  0  0  0  0
 63 71  1  0  0  0  0
 64 71  1  0  0  0  0
 65 81  1  0  0  0  0
 66 88  1  0  0  0  0
 67 68  1  0  0  0  0
 67 80  1  0  0  0  0
 69 71  1  0  0  0  0
 69 79  1  0  0  0  0
 70 81  1  0  0  0  0
 72 73  1  0  0  0  0
M  CHG  1  81   1
M  ISO  4  38 100  66 101  80 100  88 101
M  END
> <Batch ID>
0174

> <Smiles>
CNC(C)C(=O)NC(C(=O)N1Cc2cc([101O:1][101CH2:1]C3(C)CCc4c(cc(C(C)C[100NH:0][100C:0](=O)N5CCCC(n6nc(-c7ccc(Oc8ccc(F)cc8F)cc7)c(C(N)=O)c6N)C5)c(C)c4C4CC4)C3)ccc2CC1C(=O)NC1CCCc2ccccc21)C(C)(C)C

> <Shape>
0.229

> <Color>
0.063

> <Negative vol penalty>
0.000

$$$$

  -OEChem-04052322453D

 88 97  0     1  0  0  0  0  0999 V2000
  -22.2266  -11.1666   19.2288 C   0  0  0  0  0  0  0  0  0  0  0  0
  -21.7639  -12.3671   19.7579 C   0  0  0  0  0  0  0  0  0  0  0  0
  -29.6679  -28.6603   20.7985 C   0  0  0  0  0  0  0  0  0  0  0  0
  -28.3414  -26.6473   20.9582 C   0  0  0  0  0  0  0  0  0  0  0  0
  -23.5729  -10.8253   19.3506 C   0  0  0  0  0  0  0  0  0  0  0  0
  -22.6472  -13.2267   20.4101 C   0  0  0  0  0  0  0  0  0  0  0  0
  -22.5007  -19.3491   20.4106 C   0  0  0  0  0  0  0  0  0  0  0  0
  -30.7591  -27.9846   21.3448 C   0  0  0  0  0  0  0  0  0  0  0  0
  -29.4326  -25.9716   21.5045 C   0  0  0  0  0  0  0  0  0  0  0  0
  -22.0065  -20.2755   21.3279 C   0  0  0  0  0  0  0  0  0  0  0  0
  -33.1215  -25.8066   20.2922 C   0  0  0  0  0  0  0  0  0  0  0  0
  -34.3647  -25.9856   19.6856 C   0  0  0  0  0  0  0  0  0  0  0  0
  -24.2140  -20.5094   22.2720 C   0  0  0  0  0  0  0  0  0  0  0  0
  -35.2464  -26.8706   21.7535 C   0  0  0  0  0  0  0  0  0  0  0  0
  -28.4591  -27.9917   20.6053 C   0  0  0  0  0  0  0  0  0  0  0  0
  -26.9960  -28.8018   18.6789 C   0  0  0  0  0  0  0  0  0  0  0  0
  -24.4750  -11.6855   19.9962 C   0  0  0  0  0  0  0  0  0  0  0  0
  -23.8555  -18.9872   20.4242 C   0  0  0  0  0  0  0  0  0  0  0  0
  -24.0066  -12.8960   20.5419 C   0  0  0  0  0  0  0  0  0  0  0  0
  -24.7235  -19.5801   21.3522 C   0  0  0  0  0  0  0  0  0  0  0  0
  -30.6415  -26.6403   21.6977 C   0  0  0  0  0  0  0  0  0  0  0  0
  -22.8626  -20.8536   22.2606 C   0  0  0  0  0  0  0  0  0  0  0  0
  -32.9407  -26.1597   21.6295 C   0  0  0  0  0  0  0  0  0  0  0  0
  -35.4271  -26.5175   20.4162 C   0  0  0  0  0  0  0  0  0  0  0  0
  -34.0032  -26.6916   22.3602 C   0  0  0  0  0  0  0  0  0  0  0  0
  -27.3314  -28.6892   20.0415 C   0  0  0  0  0  0  0  0  0  0  0  0
  -25.8483  -29.5563   18.6690 C   0  0  0  0  0  0  0  0  0  0  0  0
  -20.4635  -24.3285   23.8440 C   0  0  0  0  0  0  0  0  0  0  0  0
  -20.0213  -24.8409   26.1659 C   0  0  0  0  0  0  0  0  0  0  0  0
  -20.2433  -23.5546   26.5232 C   0  0  0  0  0  0  0  0  0  0  0  0
  -20.1541  -25.2599   24.7608 C   0  0  0  0  0  0  0  0  0  0  0  0
  -20.5801  -22.5302   25.4642 C   0  0  0  0  0  0  0  0  0  0  0  0
  -27.6623  -28.2718   17.5254 C   0  0  0  0  0  0  0  0  0  0  0  0
  -25.4489  -16.2787   20.9024 C   0  0  0  0  0  0  0  0  0  0  0  0
  -28.0069  -18.0929   20.0733 C   0  0  0  0  0  0  0  0  0  0  0  0
  -29.3995  -21.1993   19.8318 C   0  0  0  0  0  0  0  0  0  0  0  0
  -21.5408  -30.4955   22.7096 C   0  0  0  0  0  0  0  0  0  0  0  0
  -25.9118  -11.2518   20.1448 C   0  0  0  0  0  0  0  0  0  0  0  0
  -24.3783  -18.0064   19.4108 C   0  0  0  0  0  0  0  0  0  0  0  0
  -26.1903  -19.2407   21.3953 C   0  0  0  0  0  0  0  0  0  0  0  0
  -26.8560  -12.3906   20.5217 C   0  0  0  0  0  0  0  0  0  0  0  0
  -23.5804  -32.9556   21.1604 C   0  0  0  0  0  0  0  0  0  0  0  0
  -26.2645  -13.2211   21.6562 C   0  0  0  0  0  0  0  0  0  0  0  0
  -24.7410  -32.1526   20.5703 C   0  0  0  0  0  0  0  0  0  0  0  0
  -18.7696  -26.8956   22.2761 C   0  0  0  0  0  0  0  0  0  0  0  0
  -19.1676  -28.2299   21.6095 C   0  0  0  0  0  0  0  0  0  0  0  0
  -23.1249  -32.3860   22.5022 C   0  0  0  0  0  0  0  0  0  0  0  0
  -23.9547  -30.1473   21.8973 C   0  0  0  0  0  0  0  0  0  0  0  0
  -24.9387  -13.8662   21.2346 C   0  0  1  0  0  0  0  0  0  0  0  0
  -25.6719  -17.3268   19.8491 C   0  0  1  0  0  0  0  0  0  0  0  0
  -24.4128  -30.6482   20.5168 C   0  0  2  0  0  0  0  0  0  0  0  0
  -20.1060  -26.9708   23.0461 C   0  0  1  0  0  0  0  0  0  0  0  0
  -20.0456  -28.5067   22.8540 C   0  0  1  0  0  0  0  0  0  0  0  0
  -19.6112  -25.9098   27.1519 C   0  0  0  0  0  0  0  0  0  0  0  0
  -19.1125  -21.9461   28.0373 C   0  0  0  0  0  0  0  0  0  0  0  0
  -21.5597  -22.4446   28.3217 C   0  0  0  0  0  0  0  0  0  0  0  0
  -31.5180  -22.3611   19.1539 C   0  0  0  0  0  0  0  0  0  0  0  0
  -29.3288  -17.1939   22.6723 C   0  0  0  0  0  0  0  0  0  0  0  0
  -30.9635  -19.0718   22.4089 C   0  0  0  0  0  0  0  0  0  0  0  0
  -30.8573  -17.2633   20.6941 C   0  0  0  0  0  0  0  0  0  0  0  0
  -28.0172  -22.7317   17.7106 C   0  0  0  0  0  0  0  0  0  0  0  0
  -20.9929  -22.0669   23.0859 C   0  0  0  0  0  0  0  0  0  1  0  0
  -20.2000  -23.0066   27.9246 C   0  0  0  0  0  0  0  0  0  0  0  0
  -28.9889  -18.9618   20.8215 C   0  0  1  0  0  0  0  0  0  0  0  0
  -30.1471  -21.8828   18.7013 C   0  0  2  0  0  0  0  0  0  0  0  0
  -30.0067  -18.1279   21.6499 C   0  0  0  0  0  0  0  0  0  0  0  0
  -26.4668  -29.3217   20.8393 N   0  0  0  0  0  0  0  0  0  0  0  0
  -25.5768  -29.8391   19.9754 N   0  0  0  0  0  0  0  0  0  0  0  0
  -20.6751  -22.9889   24.1396 N   0  0  0  0  0  0  0  0  0  0  0  0
  -26.6523  -18.2717   20.3878 N   0  0  0  0  0  0  0  0  0  0  0  0
  -22.8245  -30.9573   22.3786 N   0  0  0  0  0  0  0  0  0  0  0  0
  -25.0551  -29.9989   17.6704 N   0  0  0  0  0  0  0  0  0  0  0  0
  -28.8291  -27.5188   17.7148 N   0  0  0  0  0  0  0  0  0  0  0  0
  -19.9767  -26.5721   24.4029 N   0  0  0  0  0  0  0  0  0  0  0  0
  -25.1823  -15.0207   20.3966 N   0  0  0  0  0  0  0  0  0  0  0  0
  -29.6016  -19.8353   19.8266 N   0  0  0  0  0  0  0  0  0  0  0  0
  -21.3277  -29.1292   22.5586 N   0  0  0  0  0  0  0  0  0  0  0  0
  -29.3776  -23.0602   18.2088 N   0  3  0  0  0  0  0  0  0  0  0  0
  -20.7511  -21.3536   25.7854 O   0  0  0  0  0  0  0  0  0  0  0  0
  -27.2446  -28.4741   16.3599 O   0  0  0  0  0  0  0  0  0  0  0  0
  -25.5153  -16.5881   22.0862 O   0  0  0  0  0  0  0  0  0  0  0  0
  -28.4258  -17.2904   19.2354 O   0  0  0  0  0  0  0  0  0  0  0  0
  -28.7085  -21.8142   20.6411 O   0  0  0  0  0  0  0  0  0  0  0  0
  -20.6401  -31.2436   23.1049 O   0  0  0  0  0  0  0  0  0  0  0  0
  -31.7061  -25.9806   22.2306 O   0  0  0  0  0  0  0  0  0  0  0  0
  -22.3826  -21.7576   23.1575 O   0  0  0  0  0  0  0  0  0  1  0  0
  -36.6213  -26.6879   19.8340 F   0  0  0  0  0  0  0  0  0  0  0  0
  -33.8359  -27.0316   23.6456 F   0  0  0  0  0  0  0  0  0  0  0  0
  1  2  1  0  0  0  0
  1  5  2  0  0  0  0
  2  6  2  0  0  0  0
  3  8  2  0  0  0  0
  3 15  1  0  0  0  0
  4  9  1  0  0  0  0
  4 15  2  0  0  0  0
  5 17  1  0  0  0  0
  6 19  1  0  0  0  0
  7 10  2  0  0  0  0
  7 18  1  0  0  0  0
  8 21  1  0  0  0  0
  9 21  2  0  0  0  0
 10 22  1  0  0  0  0
 11 12  2  0  0  0  0
 11 23  1  0  0  0  0
 12 24  1  0  0  0  0
 13 20  1  0  0  0  0
 13 22  2  0  0  0  0
 14 24  2  0  0  0  0
 14 25  1  0  0  0  0
 15 26  1  0  0  0  0
 16 26  1  0  0  0  0
 16 27  2  0  0  0  0
 16 33  1  0  0  0  0
 17 19  2  0  0  0  0
 17 38  1  0  0  0  0
 18 20  2  0  0  0  0
 18 39  1  0  0  0  0
 19 49  1  0  0  0  0
 20 40  1  0  0  0  0
 21 85  1  0  0  0  0
 22 86  1  0  0  0  0
 23 25  2  0  0  0  0
 23 85  1  0  0  0  0
 24 87  1  0  0  0  0
 25 88  1  0  0  0  0
 26 67  2  0  0  0  0
 27 68  1  0  0  0  0
 27 72  1  0  0  0  0
 28 31  2  0  0  0  0
 28 69  1  0  0  0  0
 29 30  2  0  0  0  0
 29 31  1  0  0  0  0
 29 54  1  0  0  0  0
 30 32  1  0  0  0  0
 30 63  1  0  0  0  0
 31 74  1  0  0  0  0
 32 69  1  0  0  0  0
 32 79  2  0  0  0  0
 33 73  1  0  0  0  0
 33 80  2  0  0  0  0
 34 50  1  0  0  0  0
 34 75  1  0  0  0  0
 34 81  2  0  0  0  0
 35 64  1  0  0  0  0
 35 70  1  0  0  0  0
 35 82  2  0  0  0  0
 36 65  1  0  0  0  0
 36 76  1  0  0  0  0
 36 83  2  0  0  0  0
 37 71  1  0  0  0  0
 37 77  1  0  0  0  0
 37 84  2  0  0  0  0
 38 41  1  0  0  0  0
 39 50  1  0  0  0  0
 40 70  1  0  0  0  0
 41 43  1  0  0  0  0
 42 44  1  0  0  0  0
 42 47  1  0  0  0  0
 43 49  1  0  0  0  0
 44 51  1  0  0  0  0
 45 46  1  0  0  0  0
 45 52  1  0  0  0  0
 46 53  1  0  0  0  0
 47 71  1  0  0  0  0
 48 51  1  0  0  0  0
 48 71  1  0  0  0  0
 49 75  1  0  0  0  0
 50 70  1  0  0  0  0
 51 68  1  0  0  0  0
 52 53  1  0  0  0  0
 52 74  1  0  0  0  0
 53 77  1  0  0  0  0
 55 63  1  0  0  0  0
 56 63  1  0  0  0  0
 57 65  1  0  0  0  0
 58 66  1  0  0  0  0
 59 66  1  0  0  0  0
 60 66  1  0  0  0  0
 61 78  1  0  0  0  0
 62 69  1  0  0  0  0
 62 86  1  0  0  0  0
 64 66  1  0  0  0  0
 64 76  1  0  0  0  0
 65 78  1  0  0  0  0
 67 68  1  0  0  0  0
M  CHG  1  78   1
M  ISO  4  37 100  62 101  77 100  86 101
M  END
> <Batch ID>
0174

> <Smiles>
CNC(C)C(=O)NC(C(=O)N1Cc2cc([101O:1][101CH2:1]n3cc(NC4CCC4[100NH:0][100C:0](=O)N4CCCC(n5nc(-c6ccc(Oc7ccc(F)cc7F)cc6)c(C(N)=O)c5N)C4)c(C)c(C(C)C)c3=O)ccc2CC1C(=O)NC1CCCc2ccccc21)C(C)(C)C

> <Shape>
0.226

> <Color>
0.077

> <Negative vol penalty>
0.000

$$$$

  -OEChem-04052322453D

 82 91  0     1  0  0  0  0  0999 V2000
  -19.9729  -24.8500   24.7212 C   0  0  0  0  0  0  0  0  0  0  0  0
  -21.3055  -25.1707   24.4832 C   0  0  0  0  0  0  0  0  0  0  0  0
  -25.5503  -14.9311   21.7922 C   0  0  0  0  0  0  0  0  0  0  0  0
  -26.3465  -13.5210   19.9992 C   0  0  0  0  0  0  0  0  0  0  0  0
  -18.9604  -25.5618   24.0794 C   0  0  0  0  0  0  0  0  0  0  0  0
  -21.6264  -26.2028   23.6022 C   0  0  0  0  0  0  0  0  0  0  0  0
  -25.2350  -29.2562   25.4188 C   0  0  0  0  0  0  0  0  0  0  0  0
  -24.6815  -13.9198   22.2018 C   0  0  0  0  0  0  0  0  0  0  0  0
  -25.4778  -12.5096   20.4089 C   0  0  0  0  0  0  0  0  0  0  0  0
  -26.5501  -28.7986   25.3504 C   0  0  0  0  0  0  0  0  0  0  0  0
  -22.1883  -11.7832   20.1219 C   0  0  0  0  0  0  0  0  0  0  0  0
  -21.4515  -11.1238   19.1380 C   0  0  0  0  0  0  0  0  0  0  0  0
  -26.9121  -30.1508   23.3858 C   0  0  0  0  0  0  0  0  0  0  0  0
  -22.4731   -9.0296   19.7764 C   0  0  0  0  0  0  0  0  0  0  0  0
  -30.1446  -25.7716   23.1770 C   0  0  0  0  0  0  0  0  0  0  0  0
  -28.3479  -26.3087   21.7839 C   0  0  0  0  0  0  0  0  0  0  0  0
  -26.3828  -14.7318   20.6908 C   0  0  0  0  0  0  0  0  0  0  0  0
  -28.6059  -15.9831   20.6927 C   0  0  0  0  0  0  0  0  0  0  0  0
  -19.2688  -26.6095   23.1974 C   0  0  0  0  0  0  0  0  0  0  0  0
  -24.7444  -30.1576   24.4633 C   0  0  0  0  0  0  0  0  0  0  0  0
  -20.6171  -26.9284   22.9469 C   0  0  0  0  0  0  0  0  0  0  0  0
  -25.5911  -30.6203   23.4458 C   0  0  0  0  0  0  0  0  0  0  0  0
  -29.3696  -25.4318   22.0869 C   0  0  0  0  0  0  0  0  0  0  0  0
  -24.6452  -12.7090   21.5102 C   0  0  0  0  0  0  0  0  0  0  0  0
  -27.3881  -29.2436   24.3322 C   0  0  0  0  0  0  0  0  0  0  0  0
  -23.0676  -11.0658   20.9330 C   0  0  0  0  0  0  0  0  0  0  0  0
  -21.5939   -9.7471   18.9653 C   0  0  0  0  0  0  0  0  0  0  0  0
  -23.2100   -9.6890   20.7603 C   0  0  0  0  0  0  0  0  0  0  0  0
  -27.2801  -15.7764   20.2668 C   0  0  0  0  0  0  0  0  0  0  0  0
  -29.0194  -17.0951   20.0007 C   0  0  0  0  0  0  0  0  0  0  0  0
  -28.9192  -27.6543   23.5246 C   0  0  0  0  0  0  0  0  0  1  0  0
  -29.3932  -15.2366   21.6301 C   0  0  0  0  0  0  0  0  0  0  0  0
  -22.4306  -30.0790   22.2852 C   0  0  0  0  0  0  0  0  0  0  0  0
  -23.2330  -33.1967   21.8869 C   0  0  0  0  0  0  0  0  0  0  0  0
  -25.5954  -35.6413   22.1862 C   0  0  0  0  0  0  0  0  0  0  0  0
  -28.2531  -22.1345   17.9913 C   0  0  0  0  0  0  0  0  0  0  0  0
  -18.1412  -27.3193   22.4907 C   0  0  0  0  0  0  0  0  0  0  0  0
  -23.3312  -30.6623   24.5666 C   0  0  0  0  0  0  0  0  0  0  0  0
  -25.1190  -31.6036   22.4072 C   0  0  0  0  0  0  0  0  0  0  0  0
  -18.5571  -28.6453   21.8591 C   0  0  0  0  0  0  0  0  0  0  0  0
  -26.8996  -19.5543   16.1316 C   0  0  0  0  0  0  0  0  0  0  0  0
  -19.8623  -28.4825   21.0865 C   0  0  0  0  0  0  0  0  0  0  0  0
  -26.9827  -18.3490   17.0680 C   0  0  0  0  0  0  0  0  0  0  0  0
  -28.4340  -23.2017   21.3299 C   0  0  0  0  0  0  0  0  0  0  0  0
  -29.9939  -24.4983   19.8150 C   0  0  0  0  0  0  0  0  0  0  0  0
  -26.4766  -20.8067   16.8905 C   0  0  0  0  0  0  0  0  0  0  0  0
  -28.6846  -21.9517   20.4815 C   0  0  0  0  0  0  0  0  0  0  0  0
  -30.2275  -23.2163   19.0210 C   0  0  0  0  0  0  0  0  0  0  0  0
  -27.4567  -19.9446   18.9916 C   0  0  0  0  0  0  0  0  0  0  0  0
  -29.6242  -24.1763   21.2743 C   0  0  0  0  0  0  0  0  0  0  0  0
  -21.0048  -28.0577   22.0170 C   0  0  1  0  0  0  0  0  0  0  0  0
  -22.7844  -31.1831   23.2410 C   0  0  1  0  0  0  0  0  0  0  0  0
  -27.8882  -18.6485   18.2757 C   0  0  1  0  0  0  0  0  0  0  0  0
  -25.9711  -38.0826   21.7427 C   0  0  0  0  0  0  0  0  0  0  0  0
  -23.5547  -32.6040   18.9111 C   0  0  0  0  0  0  0  0  0  0  0  0
  -24.8164  -34.7552   18.6903 C   0  0  0  0  0  0  0  0  0  0  0  0
  -22.4331  -34.7791   19.4263 C   0  0  0  0  0  0  0  0  0  0  0  0
  -26.0615  -36.2093   25.0531 C   0  0  0  0  0  0  0  0  0  0  0  0
  -24.2131  -33.9456   21.0165 C   0  0  1  0  0  0  0  0  0  0  0  0
  -25.5256  -37.0446   22.7610 C   0  0  2  0  0  0  0  0  0  0  0  0
  -23.7630  -34.0010   19.5293 C   0  0  0  0  0  0  0  0  0  0  0  0
  -29.9467  -26.8794   23.9211 N   0  0  0  0  0  0  0  0  0  0  0  0
  -28.0933  -27.4336   22.4840 N   0  0  0  0  0  0  0  0  0  0  0  0
  -26.8780  -16.6844   19.3735 N   0  0  0  0  0  0  0  0  0  0  0  0
  -27.9575  -17.4724   19.2325 N   0  0  0  0  0  0  0  0  0  0  0  0
  -23.7272  -32.0628   22.5472 N   0  0  0  0  0  0  0  0  0  0  0  0
  -27.3582  -21.0547   18.0312 N   0  0  0  0  0  0  0  0  0  0  0  0
  -29.0737  -22.3220   19.1137 N   0  0  0  0  0  0  0  0  0  0  0  0
  -30.1842  -17.7772   19.9805 N   0  0  0  0  0  0  0  0  0  0  0  0
  -28.8137  -14.1215   22.2507 N   0  0  0  0  0  0  0  0  0  0  0  0
  -21.4895  -29.1926   22.7730 N   0  0  0  0  0  0  0  0  0  0  0  0
  -24.3918  -35.2544   21.6359 N   0  0  0  0  0  0  0  0  0  0  0  0
  -26.4022  -37.1571   23.9610 N   0  3  0  0  0  0  0  0  0  0  0  0
  -30.5700  -15.5588   21.9213 O   0  0  0  0  0  0  0  0  0  0  0  0
  -22.9705  -30.0355   21.1859 O   0  0  0  0  0  0  0  0  0  0  0  0
  -22.0737  -33.6069   21.9832 O   0  0  0  0  0  0  0  0  0  0  0  0
  -26.6167  -34.9583   22.2186 O   0  0  0  0  0  0  0  0  0  0  0  0
  -28.3163  -22.8867   17.0108 O   0  0  0  0  0  0  0  0  0  0  0  0
  -23.7978  -11.7217   21.9098 O   0  0  0  0  0  0  0  0  0  0  0  0
  -28.6883  -28.7924   24.2618 O   0  0  0  0  0  0  0  0  0  1  0  0
  -20.8851   -9.1138   18.0215 F   0  0  0  0  0  0  0  0  0  0  0  0
  -24.0523   -8.9943   21.5372 F   0  0  0  0  0  0  0  0  0  0  0  0
  1  2  1  0  0  0  0
  1  5  2  0  0  0  0
  2  6  2  0  0  0  0
  3  8  2  0  0  0  0
  3 17  1  0  0  0  0
  4  9  1  0  0  0  0
  4 17  2  0  0  0  0
  5 19  1  0  0  0  0
  6 21  1  0  0  0  0
  7 10  2  0  0  0  0
  7 20  1  0  0  0  0
  8 24  1  0  0  0  0
  9 24  2  0  0  0  0
 10 25  1  0  0  0  0
 11 12  2  0  0  0  0
 11 26  1  0  0  0  0
 12 27  1  0  0  0  0
 13 22  1  0  0  0  0
 13 25  2  0  0  0  0
 14 27  2  0  0  0  0
 14 28  1  0  0  0  0
 15 23  1  0  0  0  0
 15 62  2  0  0  0  0
 16 23  2  0  0  0  0
 16 63  1  0  0  0  0
 17 29  1  0  0  0  0
 18 29  1  0  0  0  0
 18 30  2  0  0  0  0
 18 32  1  0  0  0  0
 19 21  2  0  0  0  0
 19 37  1  0  0  0  0
 20 22  2  0  0  0  0
 20 38  1  0  0  0  0
 21 51  1  0  0  0  0
 22 39  1  0  0  0  0
 23 50  1  0  0  0  0
 24 79  1  0  0  0  0
 25 80  1  0  0  0  0
 26 28  2  0  0  0  0
 26 79  1  0  0  0  0
 27 81  1  0  0  0  0
 28 82  1  0  0  0  0
 29 64  2  0  0  0  0
 30 65  1  0  0  0  0
 30 69  1  0  0  0  0
 31 62  1  0  0  0  0
 31 63  2  0  0  0  0
 31 80  1  0  0  0  0
 32 70  1  0  0  0  0
 32 74  2  0  0  0  0
 33 52  1  0  0  0  0
 33 71  1  0  0  0  0
 33 75  2  0  0  0  0
 34 59  1  0  0  0  0
 34 66  1  0  0  0  0
 34 76  2  0  0  0  0
 35 60  1  0  0  0  0
 35 72  1  0  0  0  0
 35 77  2  0  0  0  0
 36 67  1  0  0  0  0
 36 68  1  0  0  0  0
 36 78  2  0  0  0  0
 37 40  1  0  0  0  0
 38 52  1  0  0  0  0
 39 66  1  0  0  0  0
 40 42  1  0  0  0  0
 41 43  1  0  0  0  0
 41 46  1  0  0  0  0
 42 51  1  0  0  0  0
 43 53  1  0  0  0  0
 44 47  1  0  0  0  0
 44 50  1  0  0  0  0
 45 48  1  0  0  0  0
 45 50  1  0  0  0  0
 46 67  1  0  0  0  0
 47 68  1  0  0  0  0
 48 68  1  0  0  0  0
 49 53  1  0  0  0  0
 49 67  1  0  0  0  0
 51 71  1  0  0  0  0
 52 66  1  0  0  0  0
 53 65  1  0  0  0  0
 54 60  1  0  0  0  0
 55 61  1  0  0  0  0
 56 61  1  0  0  0  0
 57 61  1  0  0  0  0
 58 73  1  0  0  0  0
 59 61  1  0  0  0  0
 59 72  1  0  0  0  0
 60 73  1  0  0  0  0
 64 65  1  0  0  0  0
M  CHG  1  73   1
M  ISO  4  31 101  36 100  68 100  80 101
M  END
> <Batch ID>
0174

> <Smiles>
CNC(C)C(=O)NC(C(=O)N1Cc2cc([101O:1][101c:1]3ncc(C4CC[100N:0]([100C:0](=O)N5CCCC(n6nc(-c7ccc(Oc8ccc(F)cc8F)cc7)c(C(N)=O)c6N)C5)CC4)cn3)ccc2CC1C(=O)NC1CCCc2ccccc21)C(C)(C)C

> <Shape>
0.287

> <Color>
0.116

> <Negative vol penalty>
0.000

$$$$

  -OEChem-04052322453D

 87 97  0     1  0  0  0  0  0999 V2000
  -31.6367  -32.9669   26.7681 C   0  0  0  0  0  0  0  0  0  0  0  0
  -31.0981  -31.6927   26.9163 C   0  0  0  0  0  0  0  0  0  0  0  0
  -23.3361  -10.7827   22.2573 C   0  0  0  0  0  0  0  0  0  0  0  0
  -24.6005   -8.9508   21.3178 C   0  0  0  0  0  0  0  0  0  0  0  0
  -30.7934  -34.0617   26.5835 C   0  0  0  0  0  0  0  0  0  0  0  0
  -29.7158  -31.5129   26.8810 C   0  0  0  0  0  0  0  0  0  0  0  0
  -28.3434  -27.5582   24.0311 C   0  0  0  0  0  0  0  0  0  0  0  0
  -22.2208   -9.9532   22.3738 C   0  0  0  0  0  0  0  0  0  0  0  0
  -23.4852   -8.1212   21.4344 C   0  0  0  0  0  0  0  0  0  0  0  0
  -28.4868  -26.2895   24.5911 C   0  0  0  0  0  0  0  0  0  0  0  0
  -21.0783   -5.4235   21.8186 C   0  0  0  0  0  0  0  0  0  0  0  0
  -21.2734   -4.1418   22.3332 C   0  0  0  0  0  0  0  0  0  0  0  0
  -26.1316  -26.2597   25.1120 C   0  0  0  0  0  0  0  0  0  0  0  0
  -28.0602  -22.5509   19.5051 C   0  0  0  0  0  0  0  0  0  0  0  0
  -22.1160   -5.0948   24.3872 C   0  0  0  0  0  0  0  0  0  0  0  0
  -24.5259  -10.2815   21.7292 C   0  0  0  0  0  0  0  0  0  0  0  0
  -26.6889  -11.3440   22.5662 C   0  0  0  0  0  0  0  0  0  0  0  0
  -29.4005  -33.8939   26.5362 C   0  0  0  0  0  0  0  0  0  0  0  0
  -27.0929  -28.1928   24.0171 C   0  0  0  0  0  0  0  0  0  0  0  0
  -28.8530  -32.6067   26.6969 C   0  0  0  0  0  0  0  0  0  0  0  0
  -25.9744  -27.5354   24.5489 C   0  0  0  0  0  0  0  0  0  0  0  0
  -27.5629  -23.8589   19.7265 C   0  0  0  0  0  0  0  0  0  0  0  0
  -22.2953   -8.6224   21.9624 C   0  0  0  0  0  0  0  0  0  0  0  0
  -27.3815  -25.6413   25.1343 C   0  0  0  0  0  0  0  0  0  0  0  0
  -21.4022   -6.5409   22.5882 C   0  0  0  0  0  0  0  0  0  0  0  0
  -21.7922   -3.9775   23.6176 C   0  0  0  0  0  0  0  0  0  0  0  0
  -21.9210   -6.3765   23.8725 C   0  0  0  0  0  0  0  0  0  0  0  0
  -25.6782  -11.1380   21.6081 C   0  0  0  0  0  0  0  0  0  0  0  0
  -27.7215  -21.7907   20.6027 C   0  0  0  0  0  0  0  0  0  0  0  0
  -26.9355  -23.8582   20.9528 C   0  0  0  0  0  0  0  0  0  0  0  0
  -27.5464  -12.2385   21.9739 C   0  0  0  0  0  0  0  0  0  0  0  0
  -26.8391  -10.7773   23.8746 C   0  0  0  0  0  0  0  0  0  0  0  0
  -25.9206  -30.8672   25.2728 C   0  0  0  0  0  0  0  0  0  0  0  0
  -23.3003  -30.0741   23.5329 C   0  0  0  0  0  0  0  0  0  0  0  0
  -21.4737  -27.6369   21.9933 C   0  0  0  0  0  0  0  0  0  0  0  0
  -28.6089  -16.7304   19.0221 C   0  0  0  0  0  0  0  0  0  0  0  0
  -28.5272  -35.1138   26.3818 C   0  0  0  0  0  0  0  0  0  0  0  0
  -26.9496  -29.5503   23.3853 C   0  0  0  0  0  0  0  0  0  0  0  0
  -24.6062  -28.1650   24.5405 C   0  0  0  0  0  0  0  0  0  0  0  0
  -27.0906  -34.7878   25.9815 C   0  0  0  0  0  0  0  0  0  0  0  0
  -27.8157  -13.8957   17.2101 C   0  0  0  0  0  0  0  0  0  0  0  0
  -26.5429  -33.6504   26.8377 C   0  0  0  0  0  0  0  0  0  0  0  0
  -27.2706  -12.9317   18.2636 C   0  0  0  0  0  0  0  0  0  0  0  0
  -26.8479  -19.4180   20.4341 C   0  0  0  0  0  0  0  0  0  0  0  0
  -29.3361  -19.8626   20.2889 C   0  0  0  0  0  0  0  0  0  0  0  0
  -27.2765  -21.9564   25.2515 C   0  0  0  0  0  0  0  0  0  0  0  0
  -27.3148  -15.3140   17.4570 C   0  0  0  0  0  0  0  0  0  0  0  0
  -27.1498  -17.9410   20.7033 C   0  0  0  0  0  0  0  0  0  0  0  0
  -29.5791  -18.3858   20.5865 C   0  0  0  0  0  0  0  0  0  0  0  0
  -27.0973  -14.8855   19.8833 C   0  0  0  0  0  0  0  0  0  0  0  0
  -27.3598  -32.3679   26.6395 C   0  0  1  0  0  0  0  0  0  0  0  0
  -28.0001  -20.3285   20.8955 C   0  0  0  0  0  0  0  0  0  0  0  0
  -25.7303  -30.3173   23.8875 C   0  0  1  0  0  0  0  0  0  0  0  0
  -27.3675  -22.6440   23.9173 C   0  0  2  0  0  0  0  0  0  0  0  0
  -27.5793  -13.4340   19.6852 C   0  0  1  0  0  0  0  0  0  0  0  0
  -26.7387  -23.3521   25.0875 C   0  0  2  0  0  0  0  0  0  1  0  0
  -27.6961  -25.0060   18.8066 C   0  0  0  0  0  0  0  0  0  0  0  0
  -26.2468  -24.9516   21.6711 C   0  0  0  0  0  0  0  0  0  0  0  0
  -19.3599  -27.2882   20.6867 C   0  0  0  0  0  0  0  0  0  0  0  0
  -21.6743  -30.3171   26.1033 C   0  0  0  0  0  0  0  0  0  0  0  0
  -19.8264  -29.0641   24.9704 C   0  0  0  0  0  0  0  0  0  0  0  0
  -20.5668  -31.2712   24.0741 C   0  0  0  0  0  0  0  0  0  0  0  0
  -22.9585  -26.6402   19.6352 C   0  0  0  0  0  0  0  0  0  0  0  0
  -26.5070  -22.1762   22.7562 C   0  0  0  0  0  0  0  0  0  0  0  0
  -22.0595  -29.2515   23.7834 C   0  0  1  0  0  0  0  0  0  0  0  0
  -20.8532  -27.5655   20.6098 C   0  0  2  0  0  0  0  0  0  0  0  0
  -21.0578  -29.9647   24.7348 C   0  0  0  0  0  0  0  0  0  0  0  0
  -25.8741  -11.8450   20.4919 N   0  0  0  0  0  0  0  0  0  0  0  0
  -27.0384  -22.5958   21.4764 N   0  0  0  0  0  0  0  0  0  0  0  0
  -27.0177  -12.5039   20.7450 N   0  0  0  0  0  0  0  0  0  0  0  0
  -24.5184  -29.4958   23.9171 N   0  0  0  0  0  0  0  0  0  0  0  0
  -27.6237  -15.7527   18.8178 N   0  0  0  0  0  0  0  0  0  0  0  0
  -28.4536  -17.5663   20.1382 N   0  0  0  0  0  0  0  0  0  0  0  0
  -28.6936  -12.8161   22.3895 N   0  0  0  0  0  0  0  0  0  0  0  0
  -25.8670   -9.8750   24.3276 N   0  0  0  0  0  0  0  0  0  0  0  0
  -26.9971  -31.7250   25.3946 N   0  0  0  0  0  0  0  0  0  0  0  0
  -21.5109  -28.9301   22.4703 N   0  0  0  0  0  0  0  0  0  0  0  0
  -21.4919  -26.4817   19.8108 N   0  3  0  0  0  0  0  0  0  0  0  0
  -27.7981  -11.0751   24.6264 O   0  0  0  0  0  0  0  0  0  0  0  0
  -25.1471  -30.5389   26.1648 O   0  0  0  0  0  0  0  0  0  0  0  0
  -23.1934  -31.1857   23.0090 O   0  0  0  0  0  0  0  0  0  0  0  0
  -21.8811  -26.6442   22.5927 O   0  0  0  0  0  0  0  0  0  0  0  0
  -29.5714  -16.8497   18.2536 O   0  0  0  0  0  0  0  0  0  0  0  0
  -21.2073   -7.8127   22.0762 O   0  0  0  0  0  0  0  0  0  0  0  0
  -27.5192  -24.4004   25.6833 O   0  0  0  0  0  0  0  0  0  1  0  0
  -21.9780   -2.7466   24.1122 F   0  0  0  0  0  0  0  0  0  0  0  0
  -22.2329   -7.4462   24.6171 F   0  0  0  0  0  0  0  0  0  0  0  0
  1  2  1  0  0  0  0
  1  5  2  0  0  0  0
  2  6  2  0  0  0  0
  3  8  2  0  0  0  0
  3 16  1  0  0  0  0
  4  9  1  0  0  0  0
  4 16  2  0  0  0  0
  5 18  1  0  0  0  0
  6 20  1  0  0  0  0
  7 10  2  0  0  0  0
  7 19  1  0  0  0  0
  8 23  1  0  0  0  0
  9 23  2  0  0  0  0
 10 24  1  0  0  0  0
 11 12  2  0  0  0  0
 11 25  1  0  0  0  0
 12 26  1  0  0  0  0
 13 21  1  0  0  0  0
 13 24  2  0  0  0  0
 14 22  1  0  0  0  0
 14 29  2  0  0  0  0
 15 26  2  0  0  0  0
 15 27  1  0  0  0  0
 16 28  1  0  0  0  0
 17 28  1  0  0  0  0
 17 31  2  0  0  0  0
 17 32  1  0  0  0  0
 18 20  2  0  0  0  0
 18 37  1  0  0  0  0
 19 21  2  0  0  0  0
 19 38  1  0  0  0  0
 20 51  1  0  0  0  0
 21 39  1  0  0  0  0
 22 30  2  0  0  0  0
 22 57  1  0  0  0  0
 23 84  1  0  0  0  0
 24 85  1  0  0  0  0
 25 27  2  0  0  0  0
 25 84  1  0  0  0  0
 26 86  1  0  0  0  0
 27 87  1  0  0  0  0
 28 68  2  0  0  0  0
 29 52  1  0  0  0  0
 29 69  1  0  0  0  0
 30 58  1  0  0  0  0
 30 69  1  0  0  0  0
 31 70  1  0  0  0  0
 31 74  1  0  0  0  0
 32 75  1  0  0  0  0
 32 79  2  0  0  0  0
 33 53  1  0  0  0  0
 33 76  1  0  0  0  0
 33 80  2  0  0  0  0
 34 65  1  0  0  0  0
 34 71  1  0  0  0  0
 34 81  2  0  0  0  0
 35 66  1  0  0  0  0
 35 77  1  0  0  0  0
 35 82  2  0  0  0  0
 36 72  1  0  0  0  0
 36 73  1  0  0  0  0
 36 83  2  0  0  0  0
 37 40  1  0  0  0  0
 38 53  1  0  0  0  0
 39 71  1  0  0  0  0
 40 42  1  0  0  0  0
 41 43  1  0  0  0  0
 41 47  1  0  0  0  0
 42 51  1  0  0  0  0
 43 55  1  0  0  0  0
 44 48  1  0  0  0  0
 44 52  1  0  0  0  0
 45 49  1  0  0  0  0
 45 52  1  0  0  0  0
 46 54  1  0  0  0  0
 46 56  1  0  0  0  0
 47 72  1  0  0  0  0
 48 73  1  0  0  0  0
 49 73  1  0  0  0  0
 50 55  1  0  0  0  0
 50 72  1  0  0  0  0
 51 76  1  0  0  0  0
 53 71  1  0  0  0  0
 54 56  1  0  0  0  0
 54 64  1  0  0  0  0
 55 70  1  0  0  0  0
 56 85  1  0  0  0  0
 59 66  1  0  0  0  0
 60 67  1  0  0  0  0
 61 67  1  0  0  0  0
 62 67  1  0  0  0  0
 63 78  1  0  0  0  0
 64 69  1  0  0  0  0
 65 67  1  0  0  0  0
 65 77  1  0  0  0  0
 66 78  1  0  0  0  0
 68 70  1  0  0  0  0
M  CHG  1  78   1
M  ISO  4  36 100  56 101  73 100  85 101
M  END
> <Batch ID>
0174

> <Smiles>
CNC(C)C(=O)NC(C(=O)N1Cc2cc([101O:1][101CH:1]3CC3Cn3c(C4CC[100N:0]([100C:0](=O)N5CCCC(n6nc(-c7ccc(Oc8ccc(F)cc8F)cc7)c(C(N)=O)c6N)C5)CC4)cc(C)c3C)ccc2CC1C(=O)NC1CCCc2ccccc21)C(C)(C)C

> <Shape>
0.256

> <Color>
0.072

> <Negative vol penalty>
0.000

$$$$

  -OEChem-04052322453D

 84 92  0     1  0  0  0  0  0999 V2000
  -28.8946  -24.2289   31.2881 C   0  0  0  0  0  0  0  0  0  0  0  0
  -28.8470  -23.8755   29.9434 C   0  0  0  0  0  0  0  0  0  0  0  0
  -23.1231   -9.8734   19.9403 C   0  0  0  0  0  0  0  0  0  0  0  0
  -23.8916   -9.8960   22.2307 C   0  0  0  0  0  0  0  0  0  0  0  0
  -29.5295  -25.4081   31.6758 C   0  0  0  0  0  0  0  0  0  0  0  0
  -29.4334  -24.7019   28.9854 C   0  0  0  0  0  0  0  0  0  0  0  0
  -32.1513  -22.1117   25.5871 C   0  0  0  0  0  0  0  0  0  0  0  0
  -22.4042   -8.7051   20.1930 C   0  0  0  0  0  0  0  0  0  0  0  0
  -23.1727   -8.7277   22.4835 C   0  0  0  0  0  0  0  0  0  0  0  0
  -31.4492  -21.4530   24.5787 C   0  0  0  0  0  0  0  0  0  0  0  0
  -19.4787   -7.8478   21.6557 C   0  0  0  0  0  0  0  0  0  0  0  0
  -18.1712   -7.7746   21.1755 C   0  0  0  0  0  0  0  0  0  0  0  0
  -31.9531  -23.2566   23.0580 C   0  0  0  0  0  0  0  0  0  0  0  0
  -18.7657   -5.8436   19.8508 C   0  0  0  0  0  0  0  0  0  0  0  0
  -23.8669  -10.4688   20.9592 C   0  0  0  0  0  0  0  0  0  0  0  0
  -24.1561  -13.0005   20.8381 C   0  0  0  0  0  0  0  0  0  0  0  0
  -30.1323  -26.2444   30.7230 C   0  0  0  0  0  0  0  0  0  0  0  0
  -32.7514  -23.3551   25.3411 C   0  0  0  0  0  0  0  0  0  0  0  0
  -30.0757  -25.8941   29.3605 C   0  0  0  0  0  0  0  0  0  0  0  0
  -32.6645  -23.9278   24.0642 C   0  0  0  0  0  0  0  0  0  0  0  0
  -28.9739  -18.9479   20.7885 C   0  0  0  0  0  0  0  0  0  0  0  0
  -29.2041  -20.1510   20.1306 C   0  0  0  0  0  0  0  0  0  0  0  0
  -29.3346  -17.7500   20.1817 C   0  0  0  0  0  0  0  0  0  0  0  0
  -22.4289   -8.1323   21.4646 C   0  0  0  0  0  0  0  0  0  0  0  0
  -31.3475  -22.0268   23.3147 C   0  0  0  0  0  0  0  0  0  0  0  0
  -20.4298   -6.9189   21.2334 C   0  0  0  0  0  0  0  0  0  0  0  0
  -17.8147   -6.7725   20.2731 C   0  0  0  0  0  0  0  0  0  0  0  0
  -20.0733   -5.9168   20.3310 C   0  0  0  0  0  0  0  0  0  0  0  0
  -24.6103  -11.6753   20.6986 C   0  0  0  0  0  0  0  0  0  0  0  0
  -29.7930  -20.1024   18.8773 C   0  0  0  0  0  0  0  0  0  0  0  0
  -29.9174  -17.8089   18.9261 C   0  0  0  0  0  0  0  0  0  0  0  0
  -25.2311  -13.7724   20.4707 C   0  0  0  0  0  0  0  0  0  0  0  0
  -22.8769  -13.4899   21.2620 C   0  0  0  0  0  0  0  0  0  0  0  0
  -32.3920  -26.2895   26.5089 C   0  0  0  0  0  0  0  0  0  0  0  0
  -34.9660  -26.9276   24.6409 C   0  0  0  0  0  0  0  0  0  0  0  0
  -36.8524  -26.0899   21.9231 C   0  0  0  0  0  0  0  0  0  0  0  0
  -30.8236  -14.6007   21.0670 C   0  0  0  0  0  0  0  0  0  0  0  0
  -30.7658  -27.5328   31.1852 C   0  0  0  0  0  0  0  0  0  0  0  0
  -33.5280  -24.0401   26.4320 C   0  0  0  0  0  0  0  0  0  0  0  0
  -33.3080  -25.2512   23.7432 C   0  0  0  0  0  0  0  0  0  0  0  0
  -31.6887  -28.1647   30.1463 C   0  0  0  0  0  0  0  0  0  0  0  0
  -29.5951  -12.5300   18.2555 C   0  0  0  0  0  0  0  0  0  0  0  0
  -31.0199  -28.1770   28.7754 C   0  0  0  0  0  0  0  0  0  0  0  0
  -28.1751  -12.1787   18.6961 C   0  0  0  0  0  0  0  0  0  0  0  0
  -30.5177  -12.7631   19.4480 C   0  0  0  0  0  0  0  0  0  0  0  0
  -28.5934  -13.4291   20.8506 C   0  0  0  0  0  0  0  0  0  0  0  0
  -30.7217  -26.7519   28.2942 C   0  0  1  0  0  0  0  0  0  0  0  0
  -33.6631  -25.5442   26.2151 C   0  0  1  0  0  0  0  0  0  0  0  0
  -27.6270  -13.2336   19.6728 C   0  0  2  0  0  0  0  0  0  0  0  0
  -28.3388  -18.9418   22.1425 C   0  0  0  0  0  0  0  0  0  0  0  0
  -30.0655  -21.3619   18.1218 C   0  0  0  0  0  0  0  0  0  0  0  0
  -30.3242  -16.5554   18.2226 C   0  0  0  0  0  0  0  0  0  0  0  0
  -38.8727  -26.8210   20.6264 C   0  0  0  0  0  0  0  0  0  0  0  0
  -33.3452  -29.1946   23.3984 C   0  0  0  0  0  0  0  0  0  0  0  0
  -35.0007  -29.2559   21.5212 C   0  0  0  0  0  0  0  0  0  0  0  0
  -35.7408  -29.7515   23.8513 C   0  0  0  0  0  0  0  0  0  0  0  0
  -31.2008  -16.8055   22.1043 C   0  0  0  0  0  0  0  0  0  0  0  0
  -38.2588  -23.5405   22.4533 C   0  0  0  0  0  0  0  0  0  0  0  0
  -28.8248  -21.4676   20.7637 C   0  0  0  0  0  0  0  0  0  0  0  0
  -29.1008  -16.4426   20.8618 C   0  0  0  0  0  0  0  0  0  0  0  0
  -30.0298  -22.2011   21.3426 C   0  0  0  0  0  0  0  0  0  1  0  0
  -35.1662  -27.3737   23.2127 C   0  0  1  0  0  0  0  0  0  0  0  0
  -38.3521  -25.9345   21.7471 C   0  0  2  0  0  0  0  0  0  0  0  0
  -34.7993  -28.8699   23.0022 C   0  0  0  0  0  0  0  0  0  0  0  0
  -25.8752  -11.6056   20.2754 N   0  0  0  0  0  0  0  0  0  0  0  0
  -30.1569  -18.9583   18.2559 N   0  0  0  0  0  0  0  0  0  0  0  0
  -26.2250  -12.8967   20.1457 N   0  0  0  0  0  0  0  0  0  0  0  0
  -34.0510  -25.8850   24.8449 N   0  0  0  0  0  0  0  0  0  0  0  0
  -29.9526  -13.7378   20.3817 N   0  0  0  0  0  0  0  0  0  0  0  0
  -25.4137  -15.1079   20.3970 N   0  0  0  0  0  0  0  0  0  0  0  0
  -21.8853  -12.5601   21.6031 N   0  0  0  0  0  0  0  0  0  0  0  0
  -31.9275  -26.1227   27.7996 N   0  0  0  0  0  0  0  0  0  0  0  0
  -36.5454  -27.0429   22.8712 N   0  0  0  0  0  0  0  0  0  0  0  0
  -30.3317  -15.8709   21.4035 N   0  0  0  0  0  0  0  0  0  0  0  0
  -38.6919  -24.5200   21.4237 N   0  3  0  0  0  0  0  0  0  0  0  0
  -22.6155  -14.7154   21.3204 O   0  0  0  0  0  0  0  0  0  0  0  0
  -31.8719  -26.9669   25.6302 O   0  0  0  0  0  0  0  0  0  0  0  0
  -35.6035  -27.4789   25.5416 O   0  0  0  0  0  0  0  0  0  0  0  0
  -36.0349  -25.4344   21.2808 O   0  0  0  0  0  0  0  0  0  0  0  0
  -31.9783  -14.2589   21.3528 O   0  0  0  0  0  0  0  0  0  0  0  0
  -21.7273   -6.9924   21.7116 O   0  0  0  0  0  0  0  0  0  0  0  0
  -30.6621  -21.3863   22.3289 O   0  0  0  0  0  0  0  0  0  1  0  0
  -16.5586   -6.7014   19.8133 F   0  0  0  0  0  0  0  0  0  0  0  0
  -20.9823   -5.0209   19.9226 F   0  0  0  0  0  0  0  0  0  0  0  0
  1  2  1  0  0  0  0
  1  5  2  0  0  0  0
  2  6  2  0  0  0  0
  3  8  2  0  0  0  0
  3 15  1  0  0  0  0
  4  9  1  0  0  0  0
  4 15  2  0  0  0  0
  5 17  1  0  0  0  0
  6 19  1  0  0  0  0
  7 10  2  0  0  0  0
  7 18  1  0  0  0  0
  8 24  1  0  0  0  0
  9 24  2  0  0  0  0
 10 25  1  0  0  0  0
 11 12  2  0  0  0  0
 11 26  1  0  0  0  0
 12 27  1  0  0  0  0
 13 20  1  0  0  0  0
 13 25  2  0  0  0  0
 14 27  2  0  0  0  0
 14 28  1  0  0  0  0
 15 29  1  0  0  0  0
 16 29  1  0  0  0  0
 16 32  2  0  0  0  0
 16 33  1  0  0  0  0
 17 19  2  0  0  0  0
 17 38  1  0  0  0  0
 18 20  2  0  0  0  0
 18 39  1  0  0  0  0
 19 47  1  0  0  0  0
 20 40  1  0  0  0  0
 21 22  2  0  0  0  0
 21 23  1  0  0  0  0
 21 50  1  0  0  0  0
 22 30  1  0  0  0  0
 22 59  1  0  0  0  0
 23 31  2  0  0  0  0
 23 60  1  0  0  0  0
 24 81  1  0  0  0  0
 25 82  1  0  0  0  0
 26 28  2  0  0  0  0
 26 81  1  0  0  0  0
 27 83  1  0  0  0  0
 28 84  1  0  0  0  0
 29 65  2  0  0  0  0
 30 51  1  0  0  0  0
 30 66  2  0  0  0  0
 31 52  1  0  0  0  0
 31 66  1  0  0  0  0
 32 67  1  0  0  0  0
 32 70  1  0  0  0  0
 33 71  1  0  0  0  0
 33 76  2  0  0  0  0
 34 48  1  0  0  0  0
 34 72  1  0  0  0  0
 34 77  2  0  0  0  0
 35 62  1  0  0  0  0
 35 68  1  0  0  0  0
 35 78  2  0  0  0  0
 36 63  1  0  0  0  0
 36 73  1  0  0  0  0
 36 79  2  0  0  0  0
 37 69  1  0  0  0  0
 37 74  1  0  0  0  0
 37 80  2  0  0  0  0
 38 41  1  0  0  0  0
 39 48  1  0  0  0  0
 40 68  1  0  0  0  0
 41 43  1  0  0  0  0
 42 44  1  0  0  0  0
 42 45  1  0  0  0  0
 43 47  1  0  0  0  0
 44 49  1  0  0  0  0
 45 69  1  0  0  0  0
 46 49  1  0  0  0  0
 46 69  1  0  0  0  0
 47 72  1  0  0  0  0
 48 68  1  0  0  0  0
 49 67  1  0  0  0  0
 53 63  1  0  0  0  0
 54 64  1  0  0  0  0
 55 64  1  0  0  0  0
 56 64  1  0  0  0  0
 57 74  1  0  0  0  0
 58 75  1  0  0  0  0
 59 61  1  0  0  0  0
 60 74  1  0  0  0  0
 61 82  1  0  0  0  0
 62 64  1  0  0  0  0
 62 73  1  0  0  0  0
 63 75  1  0  0  0  0
 65 67  1  0  0  0  0
M  CHG  1  75   1
M  ISO  4  37 100  61 101  74 100  82 101
M  END
> <Batch ID>
0174

> <Smiles>
CNC(C)C(=O)NC(C(=O)N1Cc2cc([101O:1][101CH2:1]Cc3c(C)nc(C)c(C[100N:0](C)[100C:0](=O)N4CCCC(n5nc(-c6ccc(Oc7ccc(F)cc7F)cc6)c(C(N)=O)c5N)C4)c3C)ccc2CC1C(=O)NC1CCCc2ccccc21)C(C)(C)C

> <Shape>
0.195

> <Color>
0.181

> <Negative vol penalty>
0.000

$$$$

  -OEChem-04052322453D

 93103  0     1  0  0  0  0  0999 V2000
  -17.5846  -26.2063   23.7706 C   0  0  0  0  0  0  0  0  0  0  0  0
  -18.6471  -25.8551   22.9441 C   0  0  0  0  0  0  0  0  0  0  0  0
  -22.6471  -16.3344   21.6364 C   0  0  0  0  0  0  0  0  0  0  0  0
  -23.0045  -16.6418   19.2668 C   0  0  0  0  0  0  0  0  0  0  0  0
  -17.2601  -27.5498   23.9539 C   0  0  0  0  0  0  0  0  0  0  0  0
  -19.3850  -26.8472   22.2995 C   0  0  0  0  0  0  0  0  0  0  0  0
  -25.3844  -26.7621   21.0723 C   0  0  0  0  0  0  0  0  0  0  0  0
  -21.6772  -17.3366   21.6202 C   0  0  0  0  0  0  0  0  0  0  0  0
  -22.0345  -17.6441   19.2506 C   0  0  0  0  0  0  0  0  0  0  0  0
  -26.1016  -26.4452   19.9195 C   0  0  0  0  0  0  0  0  0  0  0  0
  -21.5877  -20.7153   21.5898 C   0  0  0  0  0  0  0  0  0  0  0  0
  -21.6234  -21.6672   22.6087 C   0  0  0  0  0  0  0  0  0  0  0  0
  -29.7030  -25.1793   17.8047 C   0  0  0  0  0  0  0  0  0  0  0  0
  -26.2025  -28.7861   19.3460 C   0  0  0  0  0  0  0  0  0  0  0  0
  -19.3995  -21.0174   23.2936 C   0  0  0  0  0  0  0  0  0  0  0  0
  -31.1100  -26.9671   18.4577 C   0  0  0  0  0  0  0  0  0  0  0  0
  -23.3108  -15.9870   20.4597 C   0  0  0  0  0  0  0  0  0  0  0  0
  -24.1157  -13.5740   20.2671 C   0  0  0  0  0  0  0  0  0  0  0  0
  -18.0004  -28.5593   23.3189 C   0  0  0  0  0  0  0  0  0  0  0  0
  -25.0609  -28.0946   21.3655 C   0  0  0  0  0  0  0  0  0  0  0  0
  -19.0692  -28.2054   22.4734 C   0  0  0  0  0  0  0  0  0  0  0  0
  -30.4066  -24.3202   18.6620 C   0  0  0  0  0  0  0  0  0  0  0  0
  -25.4833  -29.1175   20.5045 C   0  0  0  0  0  0  0  0  0  0  0  0
  -30.0548  -26.5179   17.6928 C   0  0  0  0  0  0  0  0  0  0  0  0
  -21.3708  -17.9915   20.4273 C   0  0  0  0  0  0  0  0  0  0  0  0
  -26.5083  -27.4570   19.0547 C   0  0  0  0  0  0  0  0  0  0  0  0
  -20.4579  -19.9145   21.4227 C   0  0  0  0  0  0  0  0  0  0  0  0
  -20.5293  -21.8182   23.4606 C   0  0  0  0  0  0  0  0  0  0  0  0
  -19.3638  -20.0656   22.2746 C   0  0  0  0  0  0  0  0  0  0  0  0
  -24.3132  -14.9521   20.4759 C   0  0  0  0  0  0  0  0  0  0  0  0
  -31.4338  -24.8821   19.4284 C   0  0  0  0  0  0  0  0  0  0  0  0
  -25.3696  -13.0258   20.3843 C   0  0  0  0  0  0  0  0  0  0  0  0
  -22.9070  -12.8537   19.9918 C   0  0  0  0  0  0  0  0  0  0  0  0
  -22.3520  -29.7211   21.7124 C   0  0  0  0  0  0  0  0  0  0  0  0
  -24.3566  -32.1115   22.6009 C   0  0  0  0  0  0  0  0  0  0  0  0
  -27.4844  -33.4701   22.4664 C   0  0  0  0  0  0  0  0  0  0  0  0
  -28.2328  -17.6458   20.8203 C   0  0  0  0  0  0  0  0  0  0  0  0
  -17.5823  -29.9957   23.5101 C   0  0  0  0  0  0  0  0  0  0  0  0
  -24.3098  -28.4223   22.6268 C   0  0  0  0  0  0  0  0  0  0  0  0
  -25.1789  -30.5658   20.7843 C   0  0  0  0  0  0  0  0  0  0  0  0
  -18.6492  -31.0022   23.0871 C   0  0  0  0  0  0  0  0  0  0  0  0
  -28.0586  -14.8844   23.2331 C   0  0  0  0  0  0  0  0  0  0  0  0
  -19.2276  -30.6268   21.7265 C   0  0  0  0  0  0  0  0  0  0  0  0
  -28.0815  -13.6673   22.3169 C   0  0  0  0  0  0  0  0  0  0  0  0
  -28.6990  -20.9959   20.4612 C   0  0  0  0  0  0  0  0  0  0  0  0
  -30.9080  -20.1506   21.3702 C   0  0  0  0  0  0  0  0  0  0  0  0
  -28.8946  -16.0344   22.6784 C   0  0  0  0  0  0  0  0  0  0  0  0
  -28.1422  -20.0171   21.4984 C   0  0  0  0  0  0  0  0  0  0  0  0
  -30.2815  -18.8065   21.7731 C   0  0  0  0  0  0  0  0  0  0  0  0
  -28.4932  -15.2315   20.3559 C   0  0  0  0  0  0  0  0  0  0  0  0
  -19.9090  -29.2539   21.7764 C   0  0  1  0  0  0  0  0  0  0  0  0
  -30.0140  -22.8586   18.7590 C   0  0  1  0  0  0  0  0  0  0  0  0
  -23.5905  -29.7661   22.5619 C   0  0  1  0  0  0  0  0  0  0  0  0
  -27.7141  -14.0061   20.8644 C   0  0  2  0  0  0  0  0  0  0  0  0
  -30.1814  -20.7405   20.1656 C   0  0  0  0  0  0  0  0  0  0  0  0
  -31.3365  -22.8533   20.9540 C   0  0  1  0  0  0  0  0  0  0  0  0
  -32.2124  -24.0345   20.4288 C   0  0  0  0  0  0  0  0  0  0  0  0
  -30.1602  -23.2611   21.8542 C   0  0  0  0  0  0  0  0  0  0  0  0
  -32.6844  -24.8932   21.6275 C   0  0  0  0  0  0  0  0  0  0  0  0
  -33.4844  -23.5156   19.7172 C   0  0  0  0  0  0  0  0  0  0  0  0
  -31.5277  -22.2166   16.8762 C   0  0  0  0  0  0  0  0  0  0  0  0
  -28.8088  -35.4480   23.2607 C   0  0  0  0  0  0  0  0  0  0  0  0
  -23.0020  -33.8597   20.4988 C   0  0  0  0  0  0  0  0  0  0  0  0
  -24.9356  -35.4410   20.6685 C   0  0  0  0  0  0  0  0  0  0  0  0
  -23.4937  -35.0185   22.6598 C   0  0  0  0  0  0  0  0  0  0  0  0
  -29.3656  -31.7522   23.9727 C   0  0  0  0  0  0  0  0  0  0  0  0
  -29.3208  -27.4322   16.7783 C   0  0  0  0  0  0  0  0  0  0  0  0
  -30.1299  -22.1700   17.3900 C   0  0  0  0  0  0  0  0  0  0  0  0
  -28.1301  -28.1273   17.4496 C   0  0  0  0  0  0  0  0  0  1  0  0
  -25.0874  -33.2178   21.8790 C   0  0  1  0  0  0  0  0  0  0  0  0
  -28.3937  -34.0145   23.5532 C   0  0  2  0  0  0  0  0  0  0  0  0
  -24.1339  -34.3569   21.4200 C   0  0  0  0  0  0  0  0  0  0  0  0
  -31.8019  -26.1869   19.3139 N   0  0  0  0  0  0  0  0  0  0  0  0
  -25.5919  -15.2604   20.7083 N   0  0  0  0  0  0  0  0  0  0  0  0
  -26.2092  -14.0683   20.6463 N   0  0  0  0  0  0  0  0  0  0  0  0
  -24.4366  -30.8348   22.0270 N   0  0  0  0  0  0  0  0  0  0  0  0
  -28.5428  -16.3590   21.2912 N   0  0  0  0  0  0  0  0  0  0  0  0
  -28.8450  -18.7377   21.4555 N   0  0  0  0  0  0  0  0  0  0  0  0
  -25.8249  -11.7586   20.2878 N   0  0  0  0  0  0  0  0  0  0  0  0
  -21.7065  -13.5718   19.9047 N   0  0  0  0  0  0  0  0  0  0  0  0
  -21.2103  -29.3579   22.4010 N   0  0  0  0  0  0  0  0  0  0  0  0
  -26.1531  -33.6550   22.7742 N   0  0  0  0  0  0  0  0  0  0  0  0
  -30.8283  -22.0164   19.7681 N   0  3  2  0  0  0  0  0  0  0  0  0
  -29.6248  -33.1820   23.6638 N   0  3  0  0  0  0  0  0  0  0  0  0
  -22.8894  -11.6082   19.8442 O   0  0  0  0  0  0  0  0  0  0  0  0
  -22.4264  -29.9969   20.5207 O   0  0  0  0  0  0  0  0  0  0  0  0
  -23.7435  -32.3693   23.6398 O   0  0  0  0  0  0  0  0  0  0  0  0
  -27.9124  -32.9375   21.4447 O   0  0  0  0  0  0  0  0  0  0  0  0
  -27.4534  -17.8147   19.8729 O   0  0  0  0  0  0  0  0  0  0  0  0
  -20.4243  -18.9694   20.4111 O   0  0  0  0  0  0  0  0  0  0  0  0
  -27.2128  -27.1482   17.9205 O   0  0  0  0  0  0  0  0  0  1  0  0
  -20.5643  -22.7313   24.4400 F   0  0  0  0  0  0  0  0  0  0  0  0
  -18.2760  -19.2983   22.1197 F   0  0  0  0  0  0  0  0  0  0  0  0
  1  2  1  0  0  0  0
  1  5  2  0  0  0  0
  2  6  2  0  0  0  0
  3  8  2  0  0  0  0
  3 17  1  0  0  0  0
  4  9  1  0  0  0  0
  4 17  2  0  0  0  0
  5 19  1  0  0  0  0
  6 21  1  0  0  0  0
  7 10  2  0  0  0  0
  7 20  1  0  0  0  0
  8 25  1  0  0  0  0
  9 25  2  0  0  0  0
 10 26  1  0  0  0  0
 11 12  2  0  0  0  0
 11 27  1  0  0  0  0
 12 28  1  0  0  0  0
 13 22  1  0  0  0  0
 13 24  2  0  0  0  0
 14 23  1  0  0  0  0
 14 26  2  0  0  0  0
 15 28  2  0  0  0  0
 15 29  1  0  0  0  0
 16 24  1  0  0  0  0
 16 73  2  0  0  0  0
 17 30  1  0  0  0  0
 18 30  1  0  0  0  0
 18 32  2  0  0  0  0
 18 33  1  0  0  0  0
 19 21  2  0  0  0  0
 19 38  1  0  0  0  0
 20 23  2  0  0  0  0
 20 39  1  0  0  0  0
 21 51  1  0  0  0  0
 22 31  2  0  0  0  0
 22 52  1  0  0  0  0
 23 40  1  0  0  0  0
 24 67  1  0  0  0  0
 25 90  1  0  0  0  0
 26 91  1  0  0  0  0
 27 29  2  0  0  0  0
 27 90  1  0  0  0  0
 28 92  1  0  0  0  0
 29 93  1  0  0  0  0
 30 74  2  0  0  0  0
 31 57  1  0  0  0  0
 31 73  1  0  0  0  0
 32 75  1  0  0  0  0
 32 79  1  0  0  0  0
 33 80  1  0  0  0  0
 33 85  2  0  0  0  0
 34 53  1  0  0  0  0
 34 81  1  0  0  0  0
 34 86  2  0  0  0  0
 35 70  1  0  0  0  0
 35 76  1  0  0  0  0
 35 87  2  0  0  0  0
 36 71  1  0  0  0  0
 36 82  1  0  0  0  0
 36 88  2  0  0  0  0
 37 77  1  0  0  0  0
 37 78  1  0  0  0  0
 37 89  2  0  0  0  0
 38 41  1  0  0  0  0
 39 53  1  0  0  0  0
 40 76  1  0  0  0  0
 41 43  1  0  0  0  0
 42 44  1  0  0  0  0
 42 47  1  0  0  0  0
 43 51  1  0  0  0  0
 44 54  1  0  0  0  0
 45 48  1  0  0  0  0
 45 55  1  0  0  0  0
 46 49  1  0  0  0  0
 46 55  1  0  0  0  0
 47 77  1  0  0  0  0
 48 78  1  0  0  0  0
 49 78  1  0  0  0  0
 50 54  1  0  0  0  0
 50 77  1  0  0  0  0
 51 81  1  0  0  0  0
 52 68  1  0  0  0  0
 52 83  1  0  0  0  0
 53 76  1  0  0  0  0
 54 75  1  0  0  0  0
 55 83  1  0  0  0  0
 56 57  1  0  0  0  0
 56 58  1  0  0  0  0
 56 83  1  0  0  0  0
 57 59  1  0  0  0  0
 57 60  1  0  0  0  0
 61 68  1  0  0  0  0
 62 71  1  0  0  0  0
 63 72  1  0  0  0  0
 64 72  1  0  0  0  0
 65 72  1  0  0  0  0
 66 84  1  0  0  0  0
 67 69  1  0  0  0  0
 69 91  1  0  0  0  0
 70 72  1  0  0  0  0
 70 82  1  0  0  0  0
 71 84  1  0  0  0  0
 74 75  1  0  0  0  0
M  CHG  2  83   1  84   1
M  ISO  4  37 100  69 101  78 100  91 101
M  END
> <Batch ID>
0174

> <Smiles>
CCC1c2cc(C[101CH2:1][101O:1]c3ccc4c(c3)CN(C(=O)C(NC(=O)C(C)NC)C(C)(C)C)C(C(=O)NC3CCCc5ccccc53)C4)cnc2C(C)(C)C(C)N1C1CC[100N:0]([100C:0](=O)N2CCCC(n3nc(-c4ccc(Oc5ccc(F)cc5F)cc4)c(C(N)=O)c3N)C2)CC1

> <Shape>
0.277

> <Color>
0.103

> <Negative vol penalty>
0.000

$$$$

  -OEChem-04052322453D

 87 96  0     1  0  0  0  0  0999 V2000
  -29.5514  -33.3175   27.1347 C   0  0  0  0  0  0  0  0  0  0  0  0
  -29.1666  -32.2047   26.3938 C   0  0  0  0  0  0  0  0  0  0  0  0
  -24.6824   -9.0509   22.0132 C   0  0  0  0  0  0  0  0  0  0  0  0
  -23.7480   -9.5368   19.8388 C   0  0  0  0  0  0  0  0  0  0  0  0
  -28.6533  -34.3652   27.3343 C   0  0  0  0  0  0  0  0  0  0  0  0
  -27.8830  -32.1384   25.8530 C   0  0  0  0  0  0  0  0  0  0  0  0
  -27.8782  -30.5228   21.0535 C   0  0  0  0  0  0  0  0  0  0  0  0
  -23.6222   -8.1832   22.2750 C   0  0  0  0  0  0  0  0  0  0  0  0
  -22.6878   -8.6690   20.1006 C   0  0  0  0  0  0  0  0  0  0  0  0
  -28.0300  -29.1531   20.8426 C   0  0  0  0  0  0  0  0  0  0  0  0
  -21.3523   -5.5643   23.3722 C   0  0  0  0  0  0  0  0  0  0  0  0
  -21.6529   -4.3252   23.9376 C   0  0  0  0  0  0  0  0  0  0  0  0
  -25.6477  -28.9438   20.5266 C   0  0  0  0  0  0  0  0  0  0  0  0
  -28.8001  -24.5662   18.9199 C   0  0  0  0  0  0  0  0  0  0  0  0
  -23.0274   -3.7861   22.0252 C   0  0  0  0  0  0  0  0  0  0  0  0
  -24.7453   -9.7278   20.7951 C   0  0  0  0  0  0  0  0  0  0  0  0
  -27.0721  -10.3052   19.9232 C   0  0  0  0  0  0  0  0  0  0  0  0
  -27.3613  -34.3160   26.7875 C   0  0  0  0  0  0  0  0  0  0  0  0
  -26.6066  -31.1126   21.0133 C   0  0  0  0  0  0  0  0  0  0  0  0
  -26.9664  -33.1858   26.0466 C   0  0  0  0  0  0  0  0  0  0  0  0
  -25.4827  -30.3217   20.7348 C   0  0  0  0  0  0  0  0  0  0  0  0
  -28.3600  -25.0374   20.1518 C   0  0  0  0  0  0  0  0  0  0  0  0
  -28.7753  -23.2016   18.6545 C   0  0  0  0  0  0  0  0  0  0  0  0
  -22.6249   -7.9922   21.3187 C   0  0  0  0  0  0  0  0  0  0  0  0
  -26.9144  -28.3629   20.5820 C   0  0  0  0  0  0  0  0  0  0  0  0
  -21.8892   -5.9144   22.1333 C   0  0  0  0  0  0  0  0  0  0  0  0
  -22.4905   -3.4360   23.2642 C   0  0  0  0  0  0  0  0  0  0  0  0
  -22.7267   -5.0252   21.4598 C   0  0  0  0  0  0  0  0  0  0  0  0
  -25.8399  -10.6248   20.5244 C   0  0  0  0  0  0  0  0  0  0  0  0
  -27.9081  -24.1102   21.0769 C   0  0  0  0  0  0  0  0  0  0  0  0
  -28.3050  -22.3565   19.6468 C   0  0  0  0  0  0  0  0  0  0  0  0
  -27.7582  -11.4947   19.8932 C   0  0  0  0  0  0  0  0  0  0  0  0
  -27.5534   -9.0458   19.4354 C   0  0  0  0  0  0  0  0  0  0  0  0
  -24.7921  -32.6763   23.1028 C   0  0  0  0  0  0  0  0  0  0  0  0
  -22.8761  -33.1125   20.5219 C   0  0  0  0  0  0  0  0  0  0  0  0
  -21.8795  -32.0401   17.4391 C   0  0  0  0  0  0  0  0  0  0  0  0
  -28.1360  -16.7739   18.9816 C   0  0  0  0  0  0  0  0  0  0  0  0
  -26.4098  -35.4515   27.0700 C   0  0  0  0  0  0  0  0  0  0  0  0
  -26.4628  -32.5960   21.2164 C   0  0  0  0  0  0  0  0  0  0  0  0
  -24.0980  -30.9095   20.6608 C   0  0  0  0  0  0  0  0  0  0  0  0
  -25.1937  -35.4710   26.1475 C   0  0  0  0  0  0  0  0  0  0  0  0
  -26.7839  -15.9269   22.1111 C   0  0  0  0  0  0  0  0  0  0  0  0
  -24.5886  -34.0755   26.0324 C   0  0  0  0  0  0  0  0  0  0  0  0
  -26.5122  -14.4338   21.9306 C   0  0  0  0  0  0  0  0  0  0  0  0
  -26.4327  -16.7290   20.8570 C   0  0  0  0  0  0  0  0  0  0  0  0
  -29.4500  -20.1629   19.7163 C   0  0  0  0  0  0  0  0  0  0  0  0
  -26.9735  -20.3059   19.4121 C   0  0  0  0  0  0  0  0  0  0  0  0
  -29.4536  -18.8582   18.9241 C   0  0  0  0  0  0  0  0  0  0  0  0
  -27.0227  -19.0069   18.6154 C   0  0  0  0  0  0  0  0  0  0  0  0
  -26.8071  -14.7346   19.4426 C   0  0  0  0  0  0  0  0  0  0  0  0
  -25.5910  -33.0880   25.4229 C   0  0  1  0  0  0  0  0  0  0  0  0
  -25.0622  -33.0050   21.6617 C   0  0  1  0  0  0  0  0  0  0  0  0
  -27.2054  -13.8951   20.6665 C   0  0  2  0  0  0  0  0  0  0  0  0
  -27.4232  -24.5592   22.4165 C   0  0  0  0  0  0  0  0  0  0  0  0
  -30.7359  -23.0110   17.0818 C   0  0  0  0  0  0  0  0  0  0  0  0
  -28.3992  -23.2319   16.1622 C   0  0  0  0  0  0  0  0  0  0  0  0
  -20.2687  -32.5787   15.5918 C   0  0  0  0  0  0  0  0  0  0  0  0
  -20.5923  -31.9491   22.1773 C   0  0  0  0  0  0  0  0  0  0  0  0
  -19.3073  -31.6300   20.0524 C   0  0  0  0  0  0  0  0  0  0  0  0
  -19.9652  -33.9244   20.7776 C   0  0  0  0  0  0  0  0  0  0  0  0
  -24.0706  -32.4675   15.4961 C   0  0  0  0  0  0  0  0  0  0  0  0
  -28.3841  -26.4984   20.4421 C   0  0  0  0  0  0  0  0  0  1  0  0
  -29.2480  -22.6997   17.3325 C   0  0  0  0  0  0  0  0  0  0  0  0
  -21.7345  -32.3480   19.8965 C   0  0  1  0  0  0  0  0  0  0  0  0
  -21.6758  -32.7834   16.1313 C   0  0  2  0  0  0  0  0  0  0  0  0
  -20.4255  -32.4512   20.7292 C   0  0  0  0  0  0  0  0  0  0  0  0
  -25.7459  -11.9161   20.8528 N   0  0  0  0  0  0  0  0  0  0  0  0
  -27.8691  -22.7771   20.8554 N   0  0  0  0  0  0  0  0  0  0  0  0
  -26.9278  -12.4183   20.4566 N   0  0  0  0  0  0  0  0  0  0  0  0
  -28.2784  -20.9808   19.3845 N   0  0  0  0  0  0  0  0  0  0  0  0
  -24.0084  -32.3637   20.8727 N   0  0  0  0  0  0  0  0  0  0  0  0
  -27.0837  -16.1542   19.6721 N   0  0  0  0  0  0  0  0  0  0  0  0
  -28.1667  -18.1772   18.9989 N   0  0  0  0  0  0  0  0  0  0  0  0
  -28.9849  -11.8301   19.4402 N   0  0  0  0  0  0  0  0  0  0  0  0
  -26.7196   -7.9245   19.5441 N   0  0  0  0  0  0  0  0  0  0  0  0
  -25.6708  -33.2691   23.9893 N   0  0  0  0  0  0  0  0  0  0  0  0
  -21.6132  -32.8416   18.5290 N   0  0  0  0  0  0  0  0  0  0  0  0
  -22.6463  -32.3046   15.1067 N   0  3  0  0  0  0  0  0  0  0  0  0
  -28.6955   -8.9152   18.9335 O   0  0  0  0  0  0  0  0  0  0  0  0
  -23.8549  -31.9405   23.3893 O   0  0  0  0  0  0  0  0  0  0  0  0
  -22.7701  -34.3305   20.6863 O   0  0  0  0  0  0  0  0  0  0  0  0
  -22.2354  -30.8648   17.4888 O   0  0  0  0  0  0  0  0  0  0  0  0
  -28.9987  -16.1153   18.3875 O   0  0  0  0  0  0  0  0  0  0  0  0
  -21.5903   -7.1453   21.5736 O   0  0  0  0  0  0  0  0  0  0  0  0
  -27.0606  -27.0165   20.3750 O   0  0  0  0  0  0  0  0  0  1  0  0
  -22.7804   -2.2467   23.8080 F   0  0  0  0  0  0  0  0  0  0  0  0
  -23.2465   -5.3564   20.2698 F   0  0  0  0  0  0  0  0  0  0  0  0
  1  2  1  0  0  0  0
  1  5  2  0  0  0  0
  2  6  2  0  0  0  0
  3  8  2  0  0  0  0
  3 16  1  0  0  0  0
  4  9  1  0  0  0  0
  4 16  2  0  0  0  0
  5 18  1  0  0  0  0
  6 20  1  0  0  0  0
  7 10  2  0  0  0  0
  7 19  1  0  0  0  0
  8 24  1  0  0  0  0
  9 24  2  0  0  0  0
 10 25  1  0  0  0  0
 11 12  2  0  0  0  0
 11 26  1  0  0  0  0
 12 27  1  0  0  0  0
 13 21  1  0  0  0  0
 13 25  2  0  0  0  0
 14 22  1  0  0  0  0
 14 23  2  0  0  0  0
 15 27  2  0  0  0  0
 15 28  1  0  0  0  0
 16 29  1  0  0  0  0
 17 29  1  0  0  0  0
 17 32  2  0  0  0  0
 17 33  1  0  0  0  0
 18 20  2  0  0  0  0
 18 38  1  0  0  0  0
 19 21  2  0  0  0  0
 19 39  1  0  0  0  0
 20 51  1  0  0  0  0
 21 40  1  0  0  0  0
 22 30  2  0  0  0  0
 22 62  1  0  0  0  0
 23 31  1  0  0  0  0
 23 63  1  0  0  0  0
 24 84  1  0  0  0  0
 25 85  1  0  0  0  0
 26 28  2  0  0  0  0
 26 84  1  0  0  0  0
 27 86  1  0  0  0  0
 28 87  1  0  0  0  0
 29 67  2  0  0  0  0
 30 54  1  0  0  0  0
 30 68  1  0  0  0  0
 31 68  2  0  0  0  0
 31 70  1  0  0  0  0
 32 69  1  0  0  0  0
 32 74  1  0  0  0  0
 33 75  1  0  0  0  0
 33 79  2  0  0  0  0
 34 52  1  0  0  0  0
 34 76  1  0  0  0  0
 34 80  2  0  0  0  0
 35 64  1  0  0  0  0
 35 71  1  0  0  0  0
 35 81  2  0  0  0  0
 36 65  1  0  0  0  0
 36 77  1  0  0  0  0
 36 82  2  0  0  0  0
 37 72  1  0  0  0  0
 37 73  1  0  0  0  0
 37 83  2  0  0  0  0
 38 41  1  0  0  0  0
 39 52  1  0  0  0  0
 40 71  1  0  0  0  0
 41 43  1  0  0  0  0
 42 44  1  0  0  0  0
 42 45  1  0  0  0  0
 43 51  1  0  0  0  0
 44 53  1  0  0  0  0
 45 72  1  0  0  0  0
 46 48  1  0  0  0  0
 46 70  1  0  0  0  0
 47 49  1  0  0  0  0
 47 70  1  0  0  0  0
 48 73  1  0  0  0  0
 49 73  1  0  0  0  0
 50 53  1  0  0  0  0
 50 72  1  0  0  0  0
 51 76  1  0  0  0  0
 52 71  1  0  0  0  0
 53 69  1  0  0  0  0
 55 63  1  0  0  0  0
 56 63  1  0  0  0  0
 57 65  1  0  0  0  0
 58 66  1  0  0  0  0
 59 66  1  0  0  0  0
 60 66  1  0  0  0  0
 61 78  1  0  0  0  0
 62 85  1  0  0  0  0
 64 66  1  0  0  0  0
 64 77  1  0  0  0  0
 65 78  1  0  0  0  0
 67 69  1  0  0  0  0
M  CHG  1  78   1
M  ISO  4  37 100  62 101  73 100  85 101
M  END
> <Batch ID>
0174

> <Smiles>
CNC(C)C(=O)NC(C(=O)N1Cc2cc([101O:1][101CH2:1]c3cc(C(C)C)c(N4CC[100N:0]([100C:0](=O)N5CCCC(n6nc(-c7ccc(Oc8ccc(F)cc8F)cc7)c(C(N)=O)c6N)C5)CC4)nc3C)ccc2CC1C(=O)NC1CCCc2ccccc21)C(C)(C)C

> <Shape>
0.281

> <Color>
0.084

> <Negative vol penalty>
0.000

$$$$

  -OEChem-04052322453D

 89 98  0     1  0  0  0  0  0999 V2000
  -19.7488  -33.1991   15.7677 C   0  0  0  0  0  0  0  0  0  0  0  0
  -20.7847  -32.2705   15.7739 C   0  0  0  0  0  0  0  0  0  0  0  0
  -23.6602   -9.0694   21.4063 C   0  0  0  0  0  0  0  0  0  0  0  0
  -23.4552   -8.1951   19.1634 C   0  0  0  0  0  0  0  0  0  0  0  0
  -19.7852  -34.2882   16.6373 C   0  0  0  0  0  0  0  0  0  0  0  0
  -21.8583  -32.4312   16.6492 C   0  0  0  0  0  0  0  0  0  0  0  0
  -25.0276  -27.9965   19.4411 C   0  0  0  0  0  0  0  0  0  0  0  0
  -22.7336   -8.1294   21.8574 C   0  0  0  0  0  0  0  0  0  0  0  0
  -22.5286   -7.2551   19.6144 C   0  0  0  0  0  0  0  0  0  0  0  0
  -26.2486  -27.3900   19.1493 C   0  0  0  0  0  0  0  0  0  0  0  0
  -22.7059   -4.8443   22.6577 C   0  0  0  0  0  0  0  0  0  0  0  0
  -22.9990   -4.1595   23.8370 C   0  0  0  0  0  0  0  0  0  0  0  0
  -27.3536  -28.8927   20.6791 C   0  0  0  0  0  0  0  0  0  0  0  0
  -20.9875   -5.0377   24.8469 C   0  0  0  0  0  0  0  0  0  0  0  0
  -24.0210   -9.1023   20.0593 C   0  0  0  0  0  0  0  0  0  0  0  0
  -26.3757   -9.9239   19.5229 C   0  0  0  0  0  0  0  0  0  0  0  0
  -20.8550  -34.4571   17.5305 C   0  0  0  0  0  0  0  0  0  0  0  0
  -24.9619  -29.0646   20.3474 C   0  0  0  0  0  0  0  0  0  0  0  0
  -21.9097  -33.5244   17.5307 C   0  0  0  0  0  0  0  0  0  0  0  0
  -26.1302  -29.5093   20.9826 C   0  0  0  0  0  0  0  0  0  0  0  0
  -29.6549  -24.7222   20.5157 C   0  0  0  0  0  0  0  0  0  0  0  0
  -22.1678   -7.2223   20.9615 C   0  0  0  0  0  0  0  0  0  0  0  0
  -27.4123  -27.8400   19.7661 C   0  0  0  0  0  0  0  0  0  0  0  0
  -21.5537   -5.6260   22.5730 C   0  0  0  0  0  0  0  0  0  0  0  0
  -22.1398   -4.2561   24.9315 C   0  0  0  0  0  0  0  0  0  0  0  0
  -20.6945   -5.7227   23.6676 C   0  0  0  0  0  0  0  0  0  0  0  0
  -24.9777  -10.0734   19.5926 C   0  0  0  0  0  0  0  0  0  0  0  0
  -29.3216  -23.9593   19.4152 C   0  0  0  0  0  0  0  0  0  0  0  0
  -29.2049  -24.2464   21.7304 C   0  0  0  0  0  0  0  0  0  0  0  0
  -26.8239  -11.1189   19.0153 C   0  0  0  0  0  0  0  0  0  0  0  0
  -28.2244  -22.4594   20.7242 C   0  0  0  0  0  0  0  0  0  0  0  0
  -27.1959   -8.8049   19.8846 C   0  0  0  0  0  0  0  0  0  0  0  0
  -24.0917  -32.1160   20.1590 C   0  0  0  0  0  0  0  0  0  0  0  0
  -24.5384  -32.0372   23.3710 C   0  0  0  0  0  0  0  0  0  0  0  0
  -26.0608  -30.5688   26.0492 C   0  0  0  0  0  0  0  0  0  0  0  0
  -26.9090  -16.4801   18.7799 C   0  0  0  0  0  0  0  0  0  0  0  0
  -20.8736  -35.6758   18.4187 C   0  0  0  0  0  0  0  0  0  0  0  0
  -23.6332  -29.6905   20.6716 C   0  0  0  0  0  0  0  0  0  0  0  0
  -26.1105  -30.6391   21.9784 C   0  0  0  0  0  0  0  0  0  0  0  0
  -21.8630  -35.5707   19.5764 C   0  0  0  0  0  0  0  0  0  0  0  0
  -24.3086  -14.9849   16.9547 C   0  0  0  0  0  0  0  0  0  0  0  0
  -23.2111  -35.0563   19.0816 C   0  0  0  0  0  0  0  0  0  0  0  0
  -24.3599  -13.5485   17.4746 C   0  0  0  0  0  0  0  0  0  0  0  0
  -25.9152  -19.6022   20.0656 C   0  0  0  0  0  0  0  0  0  0  0  0
  -28.3113  -19.6097   19.2744 C   0  0  0  0  0  0  0  0  0  0  0  0
  -24.5217  -16.0071   18.0727 C   0  0  0  0  0  0  0  0  0  0  0  0
  -25.5649  -18.6235   18.9409 C   0  0  0  0  0  0  0  0  0  0  0  0
  -27.9093  -18.6565   18.1523 C   0  0  0  0  0  0  0  0  0  0  0  0
  -25.8041  -14.3470   19.3835 C   0  0  0  0  0  0  0  0  0  0  0  0
  -23.0792  -33.6508   18.4827 C   0  0  1  0  0  0  0  0  0  0  0  0
  -23.7587  -31.1077   21.2221 C   0  0  1  0  0  0  0  0  0  0  0  0
  -25.6512  -13.2960   18.2732 C   0  0  1  0  0  0  0  0  0  0  0  0
  -27.1199  -20.4721   19.6992 C   0  0  0  0  0  0  0  0  0  0  0  0
  -29.0338  -23.5967   16.9510 C   0  0  0  0  0  0  0  0  0  0  0  0
  -26.2611  -30.7487   28.5442 C   0  0  0  0  0  0  0  0  0  0  0  0
  -26.3899  -34.4406   23.0465 C   0  0  0  0  0  0  0  0  0  0  0  0
  -27.2753  -33.9805   25.3427 C   0  0  0  0  0  0  0  0  0  0  0  0
  -24.8685  -34.5558   25.0281 C   0  0  0  0  0  0  0  0  0  0  0  0
  -24.9397  -27.8594   26.4509 C   0  0  0  0  0  0  0  0  0  0  0  0
  -28.9905  -24.3862   24.0948 C   0  0  0  0  0  0  0  0  0  0  0  0
  -30.4469  -25.9761   20.4057 C   0  0  0  0  0  0  0  0  0  0  0  0
  -29.7539  -24.3755   18.0478 C   0  0  0  0  0  0  0  0  0  0  0  0
  -29.5885  -27.2420   20.5159 C   0  0  0  0  0  0  0  0  0  1  0  0
  -25.7065  -32.2861   24.2943 C   0  0  1  0  0  0  0  0  0  0  0  0
  -25.5155  -30.1024   27.3870 C   0  0  2  0  0  0  0  0  0  0  0  0
  -26.0611  -33.7957   24.4077 C   0  0  0  0  0  0  0  0  0  0  0  0
  -24.5649  -11.2691   19.1637 N   0  0  0  0  0  0  0  0  0  0  0  0
  -28.6049  -22.8182   19.4833 N   0  0  0  0  0  0  0  0  0  0  0  0
  -28.4844  -23.1145   21.8718 N   0  0  0  0  0  0  0  0  0  0  0  0
  -25.7105  -11.8819   18.8197 N   0  0  0  0  0  0  0  0  0  0  0  0
  -24.7880  -31.2228   22.2573 N   0  0  0  0  0  0  0  0  0  0  0  0
  -25.7429  -15.7018   18.8310 N   0  0  0  0  0  0  0  0  0  0  0  0
  -26.7484  -17.8520   18.5348 N   0  0  0  0  0  0  0  0  0  0  0  0
  -28.0579  -11.5809   18.7216 N   0  0  0  0  0  0  0  0  0  0  0  0
  -26.5730   -7.6557   20.3902 N   0  0  0  0  0  0  0  0  0  0  0  0
  -27.4874  -21.2934   20.8316 N   0  0  0  0  0  0  0  0  0  0  0  0
  -22.9862  -32.6603   19.5338 N   0  0  0  0  0  0  0  0  0  0  0  0
  -25.3642  -31.6556   25.5647 N   0  0  0  0  0  0  0  0  0  0  0  0
  -25.6454  -28.6230   27.5120 N   0  3  0  0  0  0  0  0  0  0  0  0
  -28.4456   -8.8295   19.7783 O   0  0  0  0  0  0  0  0  0  0  0  0
  -25.2648  -32.3815   19.9245 O   0  0  0  0  0  0  0  0  0  0  0  0
  -23.4430  -32.5407   23.6322 O   0  0  0  0  0  0  0  0  0  0  0  0
  -27.0120  -30.0257   25.4917 O   0  0  0  0  0  0  0  0  0  0  0  0
  -28.0283  -15.9788   18.9439 O   0  0  0  0  0  0  0  0  0  0  0  0
  -21.2638   -6.3048   21.4013 O   0  0  0  0  0  0  0  0  0  0  0  0
  -28.6138  -27.2461   19.4806 O   0  0  0  0  0  0  0  0  0  1  0  0
  -29.4866  -24.9364   22.8801 O   0  0  0  0  0  0  0  0  0  0  0  0
  -22.4205   -3.5971   26.0634 F   0  0  0  0  0  0  0  0  0  0  0  0
  -19.5855   -6.4711   23.5918 F   0  0  0  0  0  0  0  0  0  0  0  0
  1  2  1  0  0  0  0
  1  5  2  0  0  0  0
  2  6  2  0  0  0  0
  3  8  2  0  0  0  0
  3 15  1  0  0  0  0
  4  9  1  0  0  0  0
  4 15  2  0  0  0  0
  5 17  1  0  0  0  0
  6 19  1  0  0  0  0
  7 10  2  0  0  0  0
  7 18  1  0  0  0  0
  8 22  1  0  0  0  0
  9 22  2  0  0  0  0
 10 23  1  0  0  0  0
 11 12  2  0  0  0  0
 11 24  1  0  0  0  0
 12 25  1  0  0  0  0
 13 20  1  0  0  0  0
 13 23  2  0  0  0  0
 14 25  2  0  0  0  0
 14 26  1  0  0  0  0
 15 27  1  0  0  0  0
 16 27  1  0  0  0  0
 16 30  2  0  0  0  0
 16 32  1  0  0  0  0
 17 19  2  0  0  0  0
 17 37  1  0  0  0  0
 18 20  2  0  0  0  0
 18 38  1  0  0  0  0
 19 50  1  0  0  0  0
 20 39  1  0  0  0  0
 21 28  2  0  0  0  0
 21 29  1  0  0  0  0
 21 61  1  0  0  0  0
 22 85  1  0  0  0  0
 23 86  1  0  0  0  0
 24 26  2  0  0  0  0
 24 85  1  0  0  0  0
 25 88  1  0  0  0  0
 26 89  1  0  0  0  0
 27 67  2  0  0  0  0
 28 62  1  0  0  0  0
 28 68  1  0  0  0  0
 29 69  2  0  0  0  0
 29 87  1  0  0  0  0
 30 70  1  0  0  0  0
 30 74  1  0  0  0  0
 31 68  2  0  0  0  0
 31 69  1  0  0  0  0
 31 76  1  0  0  0  0
 32 75  1  0  0  0  0
 32 80  2  0  0  0  0
 33 51  1  0  0  0  0
 33 77  1  0  0  0  0
 33 81  2  0  0  0  0
 34 64  1  0  0  0  0
 34 71  1  0  0  0  0
 34 82  2  0  0  0  0
 35 65  1  0  0  0  0
 35 78  1  0  0  0  0
 35 83  2  0  0  0  0
 36 72  1  0  0  0  0
 36 73  1  0  0  0  0
 36 84  2  0  0  0  0
 37 40  1  0  0  0  0
 38 51  1  0  0  0  0
 39 71  1  0  0  0  0
 40 42  1  0  0  0  0
 41 43  1  0  0  0  0
 41 46  1  0  0  0  0
 42 50  1  0  0  0  0
 43 52  1  0  0  0  0
 44 47  1  0  0  0  0
 44 53  1  0  0  0  0
 45 48  1  0  0  0  0
 45 53  1  0  0  0  0
 46 72  1  0  0  0  0
 47 73  1  0  0  0  0
 48 73  1  0  0  0  0
 49 52  1  0  0  0  0
 49 72  1  0  0  0  0
 50 77  1  0  0  0  0
 51 71  1  0  0  0  0
 52 70  1  0  0  0  0
 53 76  1  0  0  0  0
 54 62  1  0  0  0  0
 55 65  1  0  0  0  0
 56 66  1  0  0  0  0
 57 66  1  0  0  0  0
 58 66  1  0  0  0  0
 59 79  1  0  0  0  0
 60 87  1  0  0  0  0
 61 63  1  0  0  0  0
 63 86  1  0  0  0  0
 64 66  1  0  0  0  0
 64 78  1  0  0  0  0
 65 79  1  0  0  0  0
 67 70  1  0  0  0  0
M  CHG  1  79   1
M  ISO  4  36 100  63 101  73 100  86 101
M  END
> <Batch ID>
0174

> <Smiles>
CCc1nc(NC2CC[100N:0]([100C:0](=O)N3CCCC(n4nc(-c5ccc(Oc6ccc(F)cc6F)cc5)c(C(N)=O)c4N)C3)CC2)nc(OC)c1C[101CH2:1][101O:1]c1ccc2c(c1)CN(C(=O)C(NC(=O)C(C)NC)C(C)(C)C)C(C(=O)NC1CCCc3ccccc31)C2

> <Shape>
0.283

> <Color>
0.103

> <Negative vol penalty>
0.000

$$$$

  -OEChem-04052322453D

 88 97  0     1  0  0  0  0  0999 V2000
  -38.6457  -31.3625   15.5879 C   0  0  0  0  0  0  0  0  0  0  0  0
  -37.8652  -30.2246   15.7657 C   0  0  0  0  0  0  0  0  0  0  0  0
  -23.1058   -9.9293   19.9328 C   0  0  0  0  0  0  0  0  0  0  0  0
  -23.8587   -9.9208   22.2284 C   0  0  0  0  0  0  0  0  0  0  0  0
  -38.6810  -32.3438   16.5776 C   0  0  0  0  0  0  0  0  0  0  0  0
  -37.1204  -30.0670   16.9339 C   0  0  0  0  0  0  0  0  0  0  0  0
  -31.6377  -27.3919   17.4716 C   0  0  0  0  0  0  0  0  0  0  0  0
  -22.3570   -8.7774   20.1740 C   0  0  0  0  0  0  0  0  0  0  0  0
  -23.1100   -8.7689   22.4697 C   0  0  0  0  0  0  0  0  0  0  0  0
  -31.2531  -26.1136   17.8739 C   0  0  0  0  0  0  0  0  0  0  0  0
  -19.8772   -7.9793   23.0581 C   0  0  0  0  0  0  0  0  0  0  0  0
  -19.1165   -7.9356   24.2264 C   0  0  0  0  0  0  0  0  0  0  0  0
  -30.8669  -26.9393   20.1074 C   0  0  0  0  0  0  0  0  0  0  0  0
  -20.3488   -5.9896   24.9558 C   0  0  0  0  0  0  0  0  0  0  0  0
  -23.8567  -10.5009   20.9599 C   0  0  0  0  0  0  0  0  0  0  0  0
  -24.2079  -13.0255   20.8550 C   0  0  0  0  0  0  0  0  0  0  0  0
  -37.9287  -32.2027   17.7544 C   0  0  0  0  0  0  0  0  0  0  0  0
  -31.6502  -28.4529   18.3883 C   0  0  0  0  0  0  0  0  0  0  0  0
  -37.1467  -31.0467   17.9409 C   0  0  0  0  0  0  0  0  0  0  0  0
  -31.2496  -28.2306   19.7135 C   0  0  0  0  0  0  0  0  0  0  0  0
  -30.6982  -20.3103   20.3941 C   0  0  0  0  0  0  0  0  0  0  0  0
  -30.1712  -19.9591   19.1502 C   0  0  0  0  0  0  0  0  0  0  0  0
  -30.9454  -19.3348   21.3437 C   0  0  0  0  0  0  0  0  0  0  0  0
  -22.3591   -8.1973   21.4425 C   0  0  0  0  0  0  0  0  0  0  0  0
  -30.8704  -25.8865   19.1926 C   0  0  0  0  0  0  0  0  0  0  0  0
  -20.8736   -7.0282   22.8385 C   0  0  0  0  0  0  0  0  0  0  0  0
  -19.3523   -6.9408   25.1753 C   0  0  0  0  0  0  0  0  0  0  0  0
  -21.1094   -6.0334   23.7873 C   0  0  0  0  0  0  0  0  0  0  0  0
  -24.6308  -11.6905   20.7112 C   0  0  0  0  0  0  0  0  0  0  0  0
  -29.9123  -18.6350   18.8791 C   0  0  0  0  0  0  0  0  0  0  0  0
  -30.6422  -18.0286   20.9859 C   0  0  0  0  0  0  0  0  0  0  0  0
  -25.3038  -13.7730   20.4993 C   0  0  0  0  0  0  0  0  0  0  0  0
  -22.9380  -13.5435   21.2730 C   0  0  0  0  0  0  0  0  0  0  0  0
  -33.8904  -30.3823   19.5558 C   0  0  0  0  0  0  0  0  0  0  0  0
  -31.3520  -31.8513   20.9417 C   0  0  0  0  0  0  0  0  0  0  0  0
  -28.1373  -31.6330   22.0663 C   0  0  0  0  0  0  0  0  0  0  0  0
  -30.7905  -14.7714   20.7098 C   0  0  0  0  0  0  0  0  0  0  0  0
  -38.0358  -33.2679   18.8166 C   0  0  0  0  0  0  0  0  0  0  0  0
  -32.0421  -29.8316   17.9321 C   0  0  0  0  0  0  0  0  0  0  0  0
  -30.0008  -21.1466   18.2615 C   0  0  0  0  0  0  0  0  0  0  0  0
  -31.2262  -29.3402   20.7317 C   0  0  0  0  0  0  0  0  0  0  0  0
  -36.9247  -33.2003   19.8612 C   0  0  0  0  0  0  0  0  0  0  0  0
  -29.6517  -12.4043   18.3063 C   0  0  0  0  0  0  0  0  0  0  0  0
  -36.7285  -31.7653   20.3398 C   0  0  0  0  0  0  0  0  0  0  0  0
  -28.2119  -12.1133   18.7333 C   0  0  0  0  0  0  0  0  0  0  0  0
  -30.5659  -12.6151   19.5112 C   0  0  0  0  0  0  0  0  0  0  0  0
  -28.6626  -13.3453   20.8961 C   0  0  0  0  0  0  0  0  0  0  0  0
  -36.3054  -30.8512   19.1836 C   0  0  1  0  0  0  0  0  0  0  0  0
  -32.5099  -30.7284   19.0741 C   0  0  1  0  0  0  0  0  0  0  0  0
  -27.6914  -13.1807   19.7146 C   0  0  2  0  0  0  0  0  0  0  0  0
  -30.9533  -21.8043   20.4705 C   0  0  0  0  0  0  0  0  0  0  0  0
  -30.0131  -22.3161   19.2934 C   0  0  2  0  0  0  0  0  0  0  0  0
  -31.4779  -19.6396   22.6993 C   0  0  0  0  0  0  0  0  0  0  0  0
  -29.3652  -18.2174   17.5575 C   0  0  0  0  0  0  0  0  0  0  0  0
  -30.6114  -22.3988   21.8442 C   0  0  0  0  0  0  0  0  0  0  0  0
  -32.4537  -22.0411   20.1965 C   0  0  0  0  0  0  0  0  0  0  0  0
  -27.6779  -22.9434   18.6174 C   0  0  0  0  0  0  0  0  0  0  0  0
  -26.3453  -32.9877   23.1846 C   0  0  0  0  0  0  0  0  0  0  0  0
  -32.7977  -31.5545   23.6123 C   0  0  0  0  0  0  0  0  0  0  0  0
  -30.6251  -32.0302   24.7620 C   0  0  0  0  0  0  0  0  0  0  0  0
  -31.6554  -33.7548   23.2833 C   0  0  0  0  0  0  0  0  0  0  0  0
  -26.3089  -31.3338   19.7583 C   0  0  0  0  0  0  0  0  0  0  0  0
  -30.8603  -16.9148   21.9589 C   0  0  0  0  0  0  0  0  0  0  0  0
  -28.5573  -22.5736   19.7616 C   0  0  0  0  0  0  0  0  0  0  0  0
  -30.5105  -23.6061   18.6216 C   0  0  0  0  0  0  0  0  0  1  0  0
  -30.6106  -31.6986   22.2478 C   0  0  1  0  0  0  0  0  0  0  0  0
  -26.9338  -32.5343   21.8576 C   0  0  2  0  0  0  0  0  0  0  0  0
  -31.4244  -32.2380   23.4579 C   0  0  0  0  0  0  0  0  0  0  0  0
  -25.8965  -11.5924   20.2962 N   0  0  0  0  0  0  0  0  0  0  0  0
  -30.1343  -17.6535   19.7820 N   0  0  0  0  0  0  0  0  0  0  0  0
  -26.2784  -12.8753   20.1761 N   0  0  0  0  0  0  0  0  0  0  0  0
  -31.6240  -30.6692   20.2386 N   0  0  0  0  0  0  0  0  0  0  0  0
  -30.0164  -13.6407   20.4012 N   0  0  0  0  0  0  0  0  0  0  0  0
  -25.5192  -15.1041   20.4343 N   0  0  0  0  0  0  0  0  0  0  0  0
  -21.9218  -12.6361   21.6022 N   0  0  0  0  0  0  0  0  0  0  0  0
  -34.9026  -31.0365   18.8799 N   0  0  0  0  0  0  0  0  0  0  0  0
  -29.3170  -32.3468   22.0611 N   0  0  0  0  0  0  0  0  0  0  0  0
  -30.1922  -15.6976   21.5552 N   0  0  0  0  0  0  0  0  0  0  0  0
  -25.8744  -31.8156   21.0947 N   0  3  0  0  0  0  0  0  0  0  0  0
  -22.7059  -14.7746   21.3365 O   0  0  0  0  0  0  0  0  0  0  0  0
  -34.0271  -29.5820   20.4737 O   0  0  0  0  0  0  0  0  0  0  0  0
  -31.6716  -32.9786   20.5560 O   0  0  0  0  0  0  0  0  0  0  0  0
  -28.0403  -30.4177   22.2222 O   0  0  0  0  0  0  0  0  0  0  0  0
  -31.9285  -14.9453   20.2606 O   0  0  0  0  0  0  0  0  0  0  0  0
  -21.6284   -7.0734   21.6784 O   0  0  0  0  0  0  0  0  0  0  0  0
  -30.4908  -24.6250   19.5928 O   0  0  0  0  0  0  0  0  0  1  0  0
  -18.6229   -6.8998   26.2980 F   0  0  0  0  0  0  0  0  0  0  0  0
  -22.0661   -5.1176   23.5825 F   0  0  0  0  0  0  0  0  0  0  0  0
  1  2  1  0  0  0  0
  1  5  2  0  0  0  0
  2  6  2  0  0  0  0
  3  8  2  0  0  0  0
  3 15  1  0  0  0  0
  4  9  1  0  0  0  0
  4 15  2  0  0  0  0
  5 17  1  0  0  0  0
  6 19  1  0  0  0  0
  7 10  2  0  0  0  0
  7 18  1  0  0  0  0
  8 24  1  0  0  0  0
  9 24  2  0  0  0  0
 10 25  1  0  0  0  0
 11 12  2  0  0  0  0
 11 26  1  0  0  0  0
 12 27  1  0  0  0  0
 13 20  1  0  0  0  0
 13 25  2  0  0  0  0
 14 27  2  0  0  0  0
 14 28  1  0  0  0  0
 15 29  1  0  0  0  0
 16 29  1  0  0  0  0
 16 32  2  0  0  0  0
 16 33  1  0  0  0  0
 17 19  2  0  0  0  0
 17 38  1  0  0  0  0
 18 20  2  0  0  0  0
 18 39  1  0  0  0  0
 19 48  1  0  0  0  0
 20 41  1  0  0  0  0
 21 22  2  0  0  0  0
 21 23  1  0  0  0  0
 21 51  1  0  0  0  0
 22 30  1  0  0  0  0
 22 40  1  0  0  0  0
 23 31  2  0  0  0  0
 23 53  1  0  0  0  0
 24 85  1  0  0  0  0
 25 86  1  0  0  0  0
 26 28  2  0  0  0  0
 26 85  1  0  0  0  0
 27 87  1  0  0  0  0
 28 88  1  0  0  0  0
 29 69  2  0  0  0  0
 30 54  1  0  0  0  0
 30 70  2  0  0  0  0
 31 63  1  0  0  0  0
 31 70  1  0  0  0  0
 32 71  1  0  0  0  0
 32 74  1  0  0  0  0
 33 75  1  0  0  0  0
 33 80  2  0  0  0  0
 34 49  1  0  0  0  0
 34 76  1  0  0  0  0
 34 81  2  0  0  0  0
 35 66  1  0  0  0  0
 35 72  1  0  0  0  0
 35 82  2  0  0  0  0
 36 67  1  0  0  0  0
 36 77  1  0  0  0  0
 36 83  2  0  0  0  0
 37 73  1  0  0  0  0
 37 78  1  0  0  0  0
 37 84  2  0  0  0  0
 38 42  1  0  0  0  0
 39 49  1  0  0  0  0
 40 52  1  0  0  0  0
 41 72  1  0  0  0  0
 42 44  1  0  0  0  0
 43 45  1  0  0  0  0
 43 46  1  0  0  0  0
 44 48  1  0  0  0  0
 45 50  1  0  0  0  0
 46 73  1  0  0  0  0
 47 50  1  0  0  0  0
 47 73  1  0  0  0  0
 48 76  1  0  0  0  0
 49 72  1  0  0  0  0
 50 71  1  0  0  0  0
 51 52  1  0  0  0  0
 51 55  1  0  0  0  0
 51 56  1  0  0  0  0
 52 64  1  0  0  0  0
 52 65  1  0  0  0  0
 57 64  1  0  0  0  0
 58 67  1  0  0  0  0
 59 68  1  0  0  0  0
 60 68  1  0  0  0  0
 61 68  1  0  0  0  0
 62 79  1  0  0  0  0
 63 78  1  0  0  0  0
 65 86  1  0  0  0  0
 66 68  1  0  0  0  0
 66 77  1  0  0  0  0
 67 79  1  0  0  0  0
 69 71  1  0  0  0  0
M  CHG  1  79   1
M  ISO  4  37 100  65 101  78 100  86 101
M  END
> <Batch ID>
0174

> <Smiles>
CCC1([101CH2:1][101O:1]c2ccc3c(c2)CN(C(=O)C(NC(=O)C(C)NC)C(C)(C)C)C(C(=O)NC2CCCc4ccccc42)C3)Cc2c(C)nc(C[100NH:0][100C:0](=O)N3CCCC(n4nc(-c5ccc(Oc6ccc(F)cc6F)cc5)c(C(N)=O)c4N)C3)c(C)c2C1(C)C

> <Shape>
0.278

> <Color>
0.220

> <Negative vol penalty>
0.000

$$$$
